# Generated by pormake.
# Topology zzz, (3,6)-cn, num edge types: 1
# Building blocks:
#     Node 0, Type 0, BuildingBlock: OLANEW_clean_sbu_2, # of connection points: 3
#     Node 1, Type 0, BuildingBlock: OLANEW_clean_sbu_2, # of connection points: 3
#     Node 2, Type 0, BuildingBlock: OLANEW_clean_sbu_2, # of connection points: 3
#     Node 3, Type 0, BuildingBlock: OLANEW_clean_sbu_2, # of connection points: 3
#     Node 4, Type 0, BuildingBlock: OLANEW_clean_sbu_2, # of connection points: 3
#     Node 5, Type 0, BuildingBlock: OLANEW_clean_sbu_2, # of connection points: 3
#     Node 6, Type 0, BuildingBlock: OLANEW_clean_sbu_2, # of connection points: 3
#     Node 7, Type 0, BuildingBlock: OLANEW_clean_sbu_2, # of connection points: 3
#     Node 8, Type 1, BuildingBlock: BETDEL_clean_sbu_0, # of connection points: 6
#     Node 9, Type 1, BuildingBlock: BETDEL_clean_sbu_0, # of connection points: 6
#     Node 10, Type 1, BuildingBlock: BETDEL_clean_sbu_0, # of connection points: 6
#     Node 11, Type 1, BuildingBlock: BETDEL_clean_sbu_0, # of connection points: 6
#     Edge 12, Type (0, 1), BuildingBlock: EZIPEK_clean_linker_0, # of connection points: 2
#     Edge 13, Type (0, 1), BuildingBlock: EZIPEK_clean_linker_0, # of connection points: 2
#     Edge 14, Type (0, 1), BuildingBlock: EZIPEK_clean_linker_0, # of connection points: 2
#     Edge 15, Type (0, 1), BuildingBlock: EZIPEK_clean_linker_0, # of connection points: 2
#     Edge 16, Type (0, 1), BuildingBlock: EZIPEK_clean_linker_0, # of connection points: 2
#     Edge 17, Type (0, 1), BuildingBlock: EZIPEK_clean_linker_0, # of connection points: 2
#     Edge 18, Type (0, 1), BuildingBlock: EZIPEK_clean_linker_0, # of connection points: 2
#     Edge 19, Type (0, 1), BuildingBlock: EZIPEK_clean_linker_0, # of connection points: 2
#     Edge 20, Type (0, 1), BuildingBlock: EZIPEK_clean_linker_0, # of connection points: 2
#     Edge 21, Type (0, 1), BuildingBlock: EZIPEK_clean_linker_0, # of connection points: 2
#     Edge 22, Type (0, 1), BuildingBlock: EZIPEK_clean_linker_0, # of connection points: 2
#     Edge 23, Type (0, 1), BuildingBlock: EZIPEK_clean_linker_0, # of connection points: 2
#     Edge 24, Type (0, 1), BuildingBlock: EZIPEK_clean_linker_0, # of connection points: 2
#     Edge 25, Type (0, 1), BuildingBlock: EZIPEK_clean_linker_0, # of connection points: 2
#     Edge 26, Type (0, 1), BuildingBlock: EZIPEK_clean_linker_0, # of connection points: 2
#     Edge 27, Type (0, 1), BuildingBlock: EZIPEK_clean_linker_0, # of connection points: 2
#     Edge 28, Type (0, 1), BuildingBlock: EZIPEK_clean_linker_0, # of connection points: 2
#     Edge 29, Type (0, 1), BuildingBlock: EZIPEK_clean_linker_0, # of connection points: 2
#     Edge 30, Type (0, 1), BuildingBlock: EZIPEK_clean_linker_0, # of connection points: 2
#     Edge 31, Type (0, 1), BuildingBlock: EZIPEK_clean_linker_0, # of connection points: 2
#     Edge 32, Type (0, 1), BuildingBlock: EZIPEK_clean_linker_0, # of connection points: 2
#     Edge 33, Type (0, 1), BuildingBlock: EZIPEK_clean_linker_0, # of connection points: 2
#     Edge 34, Type (0, 1), BuildingBlock: EZIPEK_clean_linker_0, # of connection points: 2
#     Edge 35, Type (0, 1), BuildingBlock: EZIPEK_clean_linker_0, # of connection points: 2
# Relax obj value: 0.154
# Max RMSD: 0.178
# Mean RMSD: 0.124
data_MOF--net-zzz--node1-OLANEW_clean_sbu_2--node2-BETDEL_clean_sbu_0--edge1-EZIPEK_clean_linker_0
_symmetry_space_group_name_H-M    P1
_symmetry_Int_Tables_number       1
_symmetry_cell_setting            triclinic
loop_
_symmetry_equiv_pos_as_xyz
'x, y, z'
_cell_length_a     39.73909
_cell_length_b     39.964419
_cell_length_c     12.334241
_cell_angle_alpha  91.84755
_cell_angle_beta   88.510944
_cell_angle_gamma 95.702393
loop_
_atom_site_label
_atom_site_type_symbol
_atom_site_fract_x
_atom_site_fract_y
_atom_site_fract_z
_atom_type_partial_charge
O0 O 0.78492 0.52956 0.97345 0.0
Cd1 Cd 0.73199 0.54167 0.06372 0.0
O2 O 0.7752 0.47656 0.01703 0.0
Cd3 Cd 0.7496 0.49147 0.16685 0.0
O4 O 0.78965 0.50341 0.28544 0.0
C5 C 0.81564 0.48826 0.26119 0.0
O6 O 0.81373 0.46543 0.1821 0.0
C7 C 0.79272 0.49948 0.9657 0.0
C8 C 0.67842 0.52554 0.92493 0.0
O9 O 0.68937 0.50311 0.98308 0.0
O10 O 0.69254 0.55574 0.93316 0.0
O11 O 0.95262 0.77404 0.97034 0.0
Cd12 Cd 0.95366 0.72161 0.06881 0.0
O13 O 0.00677 0.78844 0.9982 0.0
Cd14 Cd 0.00792 0.75271 0.12669 0.0
O15 O 0.98899 0.79602 0.21166 0.0
C16 C 0.00973 0.82171 0.23085 0.0
O17 O 0.04219 0.81986 0.21192 0.0
C18 C 0.97914 0.79417 0.95613 0.0
C19 C 0.96603 0.66619 0.93492 0.0
O20 O 0.93578 0.67147 0.96422 0.0
O21 O 0.99037 0.68702 0.96891 0.0
O22 O 0.72866 0.94305 0.79339 0.0
Cd23 Cd 0.77239 0.91126 0.86106 0.0
O24 O 0.73354 0.96403 0.95829 0.0
Cd25 Cd 0.71627 0.99039 0.10221 0.0
O26 O 0.67898 0.98938 0.23361 0.0
C27 C 0.65166 1.0009 0.20936 0.0
O28 O 0.65 0.01561 0.11632 0.0
C29 C 0.71942 0.96332 0.86684 0.0
C30 C 0.83257 0.94178 0.77925 0.0
O31 O 0.8189 0.91423 0.73653 0.0
O32 O 0.81856 0.95399 0.86436 0.0
O33 O 0.59514 0.72774 0.91855 0.0
Cd34 Cd 0.61726 0.78609 0.95237 0.0
O35 O 0.57243 0.72989 0.08198 0.0
Cd36 Cd 0.53819 0.70949 0.20871 0.0
O37 O 0.49675 0.7049 0.32721 0.0
C38 C 0.49188 0.68047 0.39071 0.0
O39 O 0.46702 0.68001 0.46306 0.0
C40 C 0.57748 0.71349 0.99429 0.0
C41 C 0.57413 0.83252 0.88952 0.0
O42 O 0.5973 0.82306 0.82465 0.0
O43 O 0.57054 0.81931 0.98294 0.0
O44 O 0.24456 0.55274 0.23221 0.0
Cd45 Cd 0.30063 0.55488 0.14715 0.0
O46 O 0.22045 0.52902 0.08597 0.0
Cd47 Cd 0.25762 0.52273 0.95746 0.0
O48 O 0.21145 0.51269 0.8624 0.0
C49 C 0.18909 0.48959 0.89255 0.0
O50 O 0.19545 0.4701 0.9716 0.0
C51 C 0.21836 0.54058 0.18247 0.0
C52 C 0.34823 0.54356 0.29989 0.0
O53 O 0.33884 0.57296 0.28816 0.0
O54 O 0.33527 0.51933 0.23887 0.0
O55 O 0.03171 0.22938 0.11651 0.0
Cd56 Cd 0.04693 0.28534 0.04497 0.0
O57 O 0.08456 0.2169 0.10845 0.0
Cd58 Cd 0.09691 0.25182 0.97935 0.0
O59 O 0.07532 0.20747 0.88689 0.0
C60 C 0.09141 0.18149 0.87754 0.0
O61 O 0.12255 0.18317 0.9121 0.0
C62 C 0.05386 0.2098 0.13758 0.0
C63 C 0.03687 0.33617 0.19948 0.0
O64 O 0.01372 0.32599 0.13231 0.0
O65 O 0.0647 0.32248 0.19406 0.0
O66 O 0.27723 0.96638 0.20061 0.0
Cd67 Cd 0.2346 0.98071 0.0776 0.0
O68 O 0.29669 0.01942 0.22635 0.0
Cd69 Cd 0.27753 0.03365 0.07267 0.0
O70 O 0.3196 0.03337 0.95582 0.0
C71 C 0.34632 0.0514 0.98364 0.0
O72 O 0.34569 0.07066 0.07181 0.0
C73 C 0.29619 0.98876 0.25112 0.0
C74 C 0.17852 0.98805 0.21144 0.0
O75 O 0.18522 0.95912 0.17401 0.0
O76 O 0.19744 0.01406 0.18092 0.0
O77 O 0.48028 0.28201 0.16663 0.0
Cd78 Cd 0.46826 0.22415 0.09918 0.0
O79 O 0.42879 0.2946 0.13355 0.0
Cd80 Cd 0.42106 0.25533 0.00891 0.0
O81 O 0.44189 0.29971 0.9208 0.0
C82 C 0.42432 0.32444 0.91287 0.0
O83 O 0.3925 0.32133 0.946 0.0
C84 C 0.45762 0.30234 0.17434 0.0
C85 C 0.47626 0.17726 0.25719 0.0
O86 O 0.44824 0.19026 0.24943 0.0
O87 O 0.50069 0.18668 0.19179 0.0
Dy88 Dy 0.01089 0.9785 0.64367 0.0
C89 C 0.02022 0.07931 0.31753 0.0
C90 C 0.99443 0.92587 0.77629 0.0
Dy91 Dy 0.00652 0.02743 0.45331 0.0
O92 O 0.02496 0.93955 0.75701 0.0
O93 O 0.97279 0.942 0.72723 0.0
O94 O 0.06778 0.98355 0.62428 0.0
O95 O 0.03743 0.98792 0.49049 0.0
C96 C 0.06734 0.99071 0.52222 0.0
C97 C 0.94904 0.01192 0.56425 0.0
O98 O 0.99655 0.979 0.35815 0.0
O99 O 0.98699 0.9458 0.50896 0.0
O100 O 0.99233 0.07327 0.37324 0.0
O101 O 0.04036 0.05622 0.3322 0.0
O102 O 0.94996 0.02144 0.46432 0.0
O103 O 0.9784 0.016 0.60208 0.0
O104 O 0.01911 0.02768 0.73673 0.0
O105 O 0.03582 0.05739 0.58239 0.0
C106 C 0.98604 0.9498 0.40252 0.0
C107 C 0.03297 0.05528 0.68923 0.0
Dy108 Dy 0.47157 0.99075 0.59041 0.0
C109 C 0.60407 0.02789 0.74403 0.0
C110 C 0.40732 0.97704 0.52011 0.0
Dy111 Dy 0.53747 0.02584 0.69489 0.0
O112 O 0.43443 0.97794 0.45907 0.0
O113 O 0.41525 0.98225 0.62121 0.0
O114 O 0.5043 0.96364 0.47029 0.0
O115 O 0.52103 0.0113 0.53376 0.0
C116 C 0.52948 0.98706 0.47581 0.0
C117 C 0.48008 0.03203 0.80814 0.0
O118 O 0.52629 0.06538 0.57864 0.0
O119 O 0.46914 0.04649 0.56883 0.0
O120 O 0.58261 0.04635 0.79297 0.0
O121 O 0.58944 0.01037 0.66523 0.0
O122 O 0.50683 0.05358 0.81851 0.0
O123 O 0.48755 0.00701 0.75103 0.0
O124 O 0.48336 0.94733 0.68756 0.0
O125 O 0.53705 0.97117 0.73536 0.0
C126 C 0.49498 0.06934 0.54809 0.0
C127 C 0.51334 0.94536 0.73042 0.0
Dy128 Dy 0.50686 0.52867 0.72468 0.0
C129 C 0.49196 0.4339 0.36808 0.0
C130 C 0.52678 0.57822 0.87266 0.0
Dy131 Dy 0.51048 0.48312 0.51837 0.0
O132 O 0.49574 0.56511 0.86069 0.0
O133 O 0.54689 0.56282 0.80824 0.0
O134 O 0.45034 0.52755 0.71052 0.0
O135 O 0.48111 0.52377 0.57149 0.0
C136 C 0.45099 0.52205 0.606 0.0
C137 C 0.56652 0.49171 0.63591 0.0
O138 O 0.52217 0.5321 0.43745 0.0
O139 O 0.53343 0.56233 0.59792 0.0
O140 O 0.52236 0.44079 0.40402 0.0
O141 O 0.47215 0.45513 0.40944 0.0
O142 O 0.5673 0.48628 0.53127 0.0
O143 O 0.53644 0.48879 0.67085 0.0
O144 O 0.49577 0.4786 0.80207 0.0
O145 O 0.47962 0.4517 0.6397 0.0
C146 C 0.53403 0.56014 0.48986 0.0
C147 C 0.48143 0.45211 0.7467 0.0
Dy148 Dy 0.97984 0.48233 0.65999 0.0
C149 C 0.08237 0.52791 0.36014 0.0
C150 C 0.92469 0.4759 0.79445 0.0
Dy151 Dy 0.02585 0.51802 0.48874 0.0
O152 O 0.93651 0.45099 0.74029 0.0
O153 O 0.94465 0.50329 0.78225 0.0
O154 O 0.99769 0.43238 0.61312 0.0
O155 O 0.99724 0.469 0.49654 0.0
C156 C 0.00756 0.44083 0.51516 0.0
C157 C -0.00024 0.55946 0.63472 0.0
O158 O 0.97826 0.51145 0.39258 0.0
O159 O 0.94345 0.49881 0.54258 0.0
O160 O 0.0589 0.54848 0.36829 0.0
O161 O 0.07387 0.50166 0.4172 0.0
O162 O 0.00765 0.56788 0.53564 0.0
O163 O 0.00955 0.5311 0.65276 0.0
O164 O 0.02717 0.48079 0.75162 0.0
O165 O 0.06201 0.50408 0.61302 0.0
C166 C 0.9479 0.50654 0.43973 0.0
C167 C 0.05751 0.49003 0.70891 0.0
C168 C 0.11871 0.97139 0.27027 0.0
C169 C 0.1499 0.99079 0.28986 0.0
C170 C 0.12609 0.01246 0.46085 0.0
C171 C 0.09672 0.98976 0.44657 0.0
N172 N 0.07065 0.93998 0.35391 0.0
N173 N 0.1857 0.02413 0.41749 0.0
C174 C 0.09453 0.96703 0.35584 0.0
C175 C 0.15434 0.00997 0.38878 0.0
N176 N 0.11162 0.95788 0.16929 0.0
N177 N 0.12688 0.03675 0.54152 0.0
H178 H 0.20752 0.02157 0.37058 0.0
H179 H 0.19062 0.03545 0.49347 0.0
H180 H 0.10682 0.03909 0.59657 0.0
H181 H 0.14631 0.05619 0.54797 0.0
H182 H 0.0879 0.94598 0.14972 0.0
H183 H 0.12796 0.96199 0.10244 0.0
H184 H 0.0701 0.92118 0.29318 0.0
H185 H 0.05446 0.93395 0.41979 0.0
C186 C 0.50144 0.15661 0.42488 0.0
C187 C 0.47972 0.15044 0.33539 0.0
C188 C 0.46952 0.09104 0.38122 0.0
C189 C 0.48911 0.0976 0.47657 0.0
N190 N 0.51812 0.1384 0.59939 0.0
N191 N 0.43843 0.11333 0.23838 0.0
C192 C 0.50365 0.13088 0.50109 0.0
C193 C 0.46206 0.11825 0.31756 0.0
N194 N 0.52003 0.18711 0.43716 0.0
N195 N 0.46001 0.05874 0.3458 0.0
H196 H 0.43391 0.13165 0.18377 0.0
H197 H 0.42146 0.09178 0.23183 0.0
H198 H 0.46596 0.03741 0.38424 0.0
H199 H 0.44942 0.05272 0.27045 0.0
H200 H 0.53943 0.19179 0.49246 0.0
H201 H 0.51755 0.20725 0.38724 0.0
H202 H 0.52579 0.16282 0.62661 0.0
H203 H 0.51961 0.12069 0.65873 0.0
C204 C 0.36768 0.51199 0.45706 0.0
C205 C 0.37394 0.53801 0.38085 0.0
C206 C 0.42677 0.55741 0.47062 0.0
C207 C 0.42302 0.52862 0.53563 0.0
N208 N 0.39168 0.47634 0.58427 0.0
N209 N 0.41335 0.58093 0.30131 0.0
C210 C 0.39392 0.50527 0.52728 0.0
C211 C 0.40454 0.55955 0.38389 0.0
N212 N 0.3363 0.49478 0.46607 0.0
N213 N 0.45079 0.58335 0.49407 0.0
H214 H 0.39874 0.58217 0.23283 0.0
H215 H 0.43697 0.59469 0.29516 0.0
H216 H 0.46657 0.58348 0.56037 0.0
H217 H 0.45223 0.6063 0.45564 0.0
H218 H 0.32946 0.4779 0.52728 0.0
H219 H 0.31601 0.49976 0.41924 0.0
H220 H 0.37292 0.45656 0.57182 0.0
H221 H 0.41 0.47111 0.63869 0.0
C222 C 0.03257 0.35824 0.39162 0.0
C223 C 0.03206 0.36399 0.27912 0.0
C224 C 0.02158 0.42274 0.31816 0.0
C225 C 0.02142 0.41688 0.43201 0.0
N226 N 0.04202 0.3829 0.57055 0.0
N227 N 0.03465 0.40334 0.13473 0.0
C228 C 0.03148 0.38578 0.46695 0.0
C229 C 0.0288 0.39666 0.24214 0.0
N230 N 0.03297 0.32625 0.42724 0.0
N231 N 0.01541 0.45324 0.28126 0.0
H232 H 0.04037 0.38506 0.07673 0.0
H233 H 0.03674 0.42745 0.1041 0.0
H234 H 0.02042 0.47531 0.32669 0.0
H235 H 0.0075 0.45678 0.20293 0.0
H236 H 0.02941 0.32017 0.50855 0.0
H237 H 0.03367 0.3053 0.37483 0.0
H238 H 0.05241 0.36172 0.59676 0.0
H239 H 0.045 0.40311 0.62596 0.0
C240 C 0.88979 0.97519 0.78729 0.0
C241 C 0.86218 0.96041 0.72594 0.0
C242 C 0.89295 0.97607 0.5587 0.0
C243 C 0.91879 0.99472 0.61986 0.0
N244 N 0.93518 0.01999 0.7944 0.0
N245 N 0.8334 0.95778 0.55485 0.0
C246 C 0.91539 0.99665 0.73497 0.0
C247 C 0.86244 0.96418 0.61213 0.0
N248 N 0.89225 0.96817 0.89427 0.0
N249 N 0.89758 0.96791 0.45125 0.0
H250 H 0.8098 0.95126 0.59135 0.0
H251 H 0.83214 0.9632 0.47298 0.0
H252 H 0.92045 0.97238 0.40902 0.0
H253 H 0.87997 0.95204 0.40787 0.0
H254 H 0.91336 0.9765 0.93974 0.0
H255 H 0.87499 0.9512 0.93437 0.0
H256 H 0.93165 0.02381 0.87775 0.0
H257 H 0.95191 0.03849 0.75923 0.0
C258 C 0.53486 0.85508 0.76022 0.0
C259 C 0.55305 0.85914 0.85801 0.0
C260 C 0.53437 0.91547 0.88623 0.0
C261 C 0.52159 0.91372 0.77941 0.0
N262 N 0.5109 0.88201 0.61139 0.0
N263 N 0.57216 0.89418 0.01224 0.0
C264 C 0.52163 0.88339 0.71596 0.0
C265 C 0.5529 0.88938 0.92164 0.0
N266 N 0.5296 0.82393 0.71099 0.0
N267 N 0.52872 0.94218 0.95401 0.0
H268 H 0.58732 0.8765 0.03928 0.0
H269 H 0.57538 0.91682 0.05659 0.0
H270 H 0.51609 0.96222 0.93012 0.0
H271 H 0.53384 0.94315 0.03647 0.0
H272 H 0.51367 0.81857 0.64563 0.0
H273 H 0.53845 0.80259 0.74242 0.0
H274 H 0.51462 0.86217 0.55702 0.0
H275 H 0.50035 0.90167 0.57582 0.0
C276 C 0.62021 0.4979 0.88707 0.0
C277 C 0.65018 0.51665 0.84969 0.0
C278 C 0.62458 0.52129 0.67279 0.0
C279 C 0.59634 0.49905 0.70627 0.0
N280 N 0.57295 0.4585 0.83657 0.0
N281 N 0.68392 0.53894 0.69769 0.0
C282 C 0.59573 0.48511 0.81098 0.0
C283 C 0.6533 0.52627 0.73979 0.0
N284 N 0.61433 0.49329 0.99548 0.0
N285 N 0.62367 0.53899 0.58015 0.0
H286 H 0.70597 0.54175 0.74245 0.0
H287 H 0.68811 0.54317 0.61527 0.0
H288 H 0.6028 0.53747 0.53034 0.0
H289 H 0.64233 0.558 0.55904 0.0
H290 H 0.59127 0.48256 0.02683 0.0
H291 H 0.63089 0.50348 0.05482 0.0
H292 H 0.57344 0.44583 0.90899 0.0
H293 H 0.55649 0.44633 0.78039 0.0
C294 C 0.99845 0.61633 0.88973 0.0
C295 C 0.97285 0.63689 0.86303 0.0
C296 C 0.9601 0.60059 0.70254 0.0
C297 C 0.98929 0.58391 0.71922 0.0
N298 N 0.04022 0.5807 0.82011 0.0
N299 N 0.93346 0.65199 0.73069 0.0
C300 C 0.00952 0.59286 0.81086 0.0
C301 C 0.95459 0.62987 0.76607 0.0
N302 N 0.01153 0.61838 0.99136 0.0
N303 N 0.93712 0.58799 0.62768 0.0
H304 H 0.92993 0.67473 0.771 0.0
H305 H 0.92227 0.64946 0.65499 0.0
H306 H 0.93974 0.56572 0.58348 0.0
H307 H 0.91383 0.5974 0.61892 0.0
H308 H 0.02791 0.60168 0.01774 0.0
H309 H 0.00312 0.63422 0.05298 0.0
H310 H 0.05729 0.58925 0.88001 0.0
H311 H 0.05021 0.56468 0.76216 0.0
C312 C 0.05732 0.16955 0.28627 0.0
C313 C 0.04376 0.17689 0.1857 0.0
C314 C 0.01445 0.11997 0.17156 0.0
C315 C 0.03018 0.11189 0.2677 0.0
N316 N 0.06903 0.12728 0.41274 0.0
N317 N 0.01309 0.15835 0.02427 0.0
C318 C 0.0525 0.13614 0.32367 0.0
C319 C 0.0231 0.15198 0.12624 0.0
N320 N 0.07349 0.19496 0.34818 0.0
N321 N 0.99099 0.09708 0.12417 0.0
H322 H 0.01824 0.18156 0.98824 0.0
H323 H 0.00185 0.13993 0.97148 0.0
H324 H 0.98549 0.07266 0.15144 0.0
H325 H 0.97553 0.10278 0.06186 0.0
H326 H 0.08087 0.19221 0.42748 0.0
H327 H 0.07696 0.21985 0.32379 0.0
H328 H 0.08842 0.14261 0.44967 0.0
H329 H 0.06507 0.10361 0.44636 0.0
C330 C 0.32085 0.99805 0.43507 0.0
C331 C 0.31924 0.97944 0.33515 0.0
C332 C 0.36637 0.94942 0.3903 0.0
C333 C 0.37296 0.97353 0.47544 0.0
N334 N 0.35654 0.02214 0.57894 0.0
N335 N 0.34287 0.9385 0.21312 0.0
C336 C 0.34987 0.99784 0.49978 0.0
C337 C 0.34215 0.95484 0.31215 0.0
N338 N 0.2945 0.01571 0.46825 0.0
N339 N 0.38362 0.92148 0.38389 0.0
H340 H 0.32678 0.94232 0.15047 0.0
H341 H 0.36177 0.92336 0.18912 0.0
H342 H 0.40114 0.91674 0.44174 0.0
H343 H 0.37781 0.9015 0.329 0.0
H344 H 0.29291 0.0273 0.54484 0.0
H345 H 0.27254 0.01561 0.42356 0.0
H346 H 0.34272 0.04288 0.58961 0.0
H347 H 0.37703 0.02301 0.63004 0.0
C348 C 0.48809 0.36016 0.16671 0.0
C349 C 0.4655 0.33637 0.22249 0.0
C350 C 0.45819 0.37745 0.37024 0.0
C351 C 0.48023 0.40156 0.31352 0.0
N352 N 0.51069 0.4186 0.15023 0.0
N353 N 0.42452 0.32346 0.36645 0.0
C354 C 0.4937 0.39366 0.20953 0.0
C355 C 0.44899 0.34547 0.32053 0.0
N356 N 0.5041 0.35074 0.0727 0.0
N357 N 0.44758 0.38427 0.47426 0.0
H358 H 0.41878 0.29882 0.33735 0.0
H359 H 0.40831 0.33018 0.42935 0.0
H360 H 0.45302 0.40734 0.51424 0.0
H361 H 0.43518 0.36636 0.52454 0.0
H362 H 0.5236 0.36561 0.03458 0.0
H363 H 0.49912 0.32715 0.03474 0.0
H364 H 0.51806 0.4156 0.0692 0.0
H365 H 0.51487 0.44343 0.17938 0.0
C366 C 0.16997 0.56777 0.27349 0.0
C367 C 0.18444 0.53841 0.23541 0.0
C368 C 0.12937 0.50586 0.2528 0.0
C369 C 0.11594 0.53379 0.30543 0.0
N370 N 0.12612 0.59005 0.38527 0.0
N371 N 0.17957 0.47788 0.2143 0.0
C372 C 0.13683 0.56455 0.32086 0.0
C373 C 0.16461 0.50693 0.23279 0.0
N374 N 0.18722 0.59879 0.26136 0.0
N375 N 0.10833 0.47865 0.21861 0.0
H376 H 0.20568 0.47756 0.20383 0.0
H377 H 0.16649 0.45408 0.2211 0.0
H378 H 0.08207 0.4778 0.22644 0.0
H379 H 0.11669 0.45892 0.1712 0.0
H380 H 0.17621 0.62111 0.27685 0.0
H381 H 0.21149 0.6023 0.2269 0.0
H382 H 0.142 0.61131 0.40802 0.0
H383 H 0.10257 0.58885 0.42451 0.0
C384 C 0.96057 0.85239 0.95096 0.0
C385 C 0.97777 0.82622 0.90005 0.0
C386 C -0.00037 0.86424 0.75722 0.0
C387 C 0.98662 0.89139 0.81624 0.0
N388 N 0.95353 0.91229 0.96476 0.0
N389 N 0.01393 0.80668 0.75668 0.0
C390 C 0.96619 0.88564 0.91093 0.0
C391 C 0.99724 0.83199 0.80338 0.0
N392 N 0.93982 0.84562 0.03948 0.0
N393 N 0.01285 0.86898 0.65462 0.0
H394 H 0.01072 0.78203 0.78333 0.0
H395 H 0.03216 0.81037 0.69492 0.0
H396 H 0.01404 0.89197 0.61635 0.0
H397 H 0.0196 0.84953 0.60293 0.0
H398 H 0.92436 0.86251 0.07558 0.0
H399 H 0.93666 0.82227 0.07545 0.0
H400 H 0.9406 0.9109 0.03904 0.0
H401 H 0.95744 0.9368 0.93733 0.0
C402 C 0.65933 0.9758 0.90058 0.0
C403 C 0.6911 0.98378 0.84784 0.0
C404 C 0.66677 0.02516 0.73796 0.0
C405 C 0.63514 0.01766 0.79196 0.0
N406 N 0.60203 0.98994 0.93622 0.0
N407 N 0.72722 0.02017 0.7328 0.0
C408 C 0.63177 0.99449 0.87769 0.0
C409 C 0.69547 0.00979 0.77151 0.0
N410 N 0.65503 0.94914 0.96817 0.0
N411 N 0.66904 0.04615 0.65215 0.0
H412 H 0.74874 0.00944 0.75586 0.0
H413 H 0.73272 0.04111 0.68509 0.0
H414 H 0.64894 0.05914 0.62941 0.0
H415 H 0.69012 0.04945 0.60032 0.0
H416 H 0.63176 0.93953 0.00019 0.0
H417 H 0.67455 0.93496 0.98765 0.0
H418 H 0.599 0.97625 0.00672 0.0
H419 H 0.58078 0.00205 0.92006 0.0
C420 C 0.53444 0.67352 0.90274 0.0
C421 C 0.56115 0.67893 0.97682 0.0
C422 C 0.56019 0.61802 -0.00024 0.0
C423 C 0.53621 0.61266 0.91624 0.0
N424 N 0.50482 0.63517 0.7742 0.0
N425 N 0.60044 0.65739 0.09588 0.0
C426 C 0.52413 0.64033 0.86469 0.0
C427 C 0.57406 0.65146 0.02657 0.0
N428 N 0.51867 0.7002 0.86959 0.0
N429 N 0.5696 0.59105 0.05297 0.0
H430 H 0.61055 0.68157 0.11909 0.0
H431 H 0.61353 0.63865 0.12662 0.0
H432 H 0.56018 0.56632 0.0337 0.0
H433 H 0.58472 0.59303 0.12089 0.0
H434 H 0.49667 0.69757 0.82476 0.0
H435 H 0.5257 0.72495 0.89575 0.0
H436 H 0.49852 0.65454 0.72651 0.0
H437 H 0.4975 0.6115 0.73988 0.0
C438 C 0.85586 0.5051 0.97539 0.0
C439 C 0.82616 0.49234 0.91991 0.0
C440 C 0.86105 0.46574 0.78194 0.0
C441 C 0.89036 0.47617 0.84332 0.0
N442 N 0.91415 0.4979 0.0118 0.0
N443 N 0.79983 0.45564 0.78089 0.0
C444 C 0.88723 0.49341 0.94419 0.0
C445 C 0.82853 0.47079 0.8271 0.0
N446 N 0.85456 0.52898 0.0566 0.0
N447 N 0.86406 0.45341 0.6778 0.0
H448 H 0.77559 0.46035 0.80778 0.0
H449 H 0.80012 0.43675 0.72075 0.0
H450 H 0.88709 0.44991 0.63925 0.0
H451 H 0.84374 0.44936 0.62574 0.0
H452 H 0.87621 0.54228 0.08807 0.0
H453 H 0.8322 0.53758 0.08664 0.0
H454 H 0.91228 0.50723 0.09143 0.0
H455 H 0.93737 0.48884 0.9923 0.0
C456 C 0.07738 0.11861 0.89123 0.0
C457 C 0.07429 0.14892 0.83608 0.0
C458 C 0.03471 0.11751 0.71292 0.0
C459 C 0.04361 0.08667 0.75258 0.0
N460 N 0.07752 0.05816 0.87325 0.0
N461 N 0.05423 0.17537 0.67952 0.0
C462 C 0.06589 0.08717 0.8407 0.0
C463 C 0.05393 0.14796 0.74308 0.0
N464 N 0.08987 0.11972 0.99359 0.0
N465 N 0.00749 0.11779 0.64763 0.0
H466 H 0.06961 0.19766 0.694 0.0
H467 H 0.04212 0.17456 0.60537 0.0
H468 H 0.99161 0.0961 0.62865 0.0
H469 H 0.99846 0.13994 0.6235 0.0
H470 H 0.08954 0.09845 0.04055 0.0
H471 H 0.0966 0.14216 0.03658 0.0
H472 H 0.09654 0.05796 0.92979 0.0
H473 H 0.07045 0.03467 0.83727 0.0
C474 C 0.39495 0.01658 0.95943 0.0
C475 C 0.37932 0.04545 0.93252 0.0
C476 C 0.43035 0.06699 0.83134 0.0
C477 C 0.44538 0.03685 0.85152 0.0
N478 N 0.43952 0.98071 0.92295 0.0
N479 N 0.379 0.09527 0.82893 0.0
C480 C 0.42682 0.01088 0.91118 0.0
C481 C 0.39616 0.06986 0.86456 0.0
N482 N 0.38016 0.99541 0.03583 0.0
N483 N 0.44859 0.0931 0.78112 0.0
H484 H 0.35402 0.09814 0.85254 0.0
H485 H 0.38831 0.11168 0.76891 0.0
H486 H 0.47278 0.09183 0.74878 0.0
H487 H 0.44054 0.11704 0.77724 0.0
H488 H 0.39236 0.97654 0.0699 0.0
H489 H 0.35662 0.99834 0.0723 0.0
H490 H 0.42513 0.95944 0.95142 0.0
H491 H 0.46386 0.97606 0.89882 0.0
C492 C 0.4609 0.35864 0.77943 0.0
C493 C 0.4404 0.35734 0.87518 0.0
C494 C 0.4473 0.41911 0.89122 0.0
C495 C 0.46997 0.42008 0.80043 0.0
N496 N 0.50621 0.38972 0.68031 0.0
N497 N 0.42232 0.38616 0.03904 0.0
C498 C 0.47928 0.38949 0.75163 0.0
C499 C 0.43602 0.38752 0.93632 0.0
N500 N 0.46162 0.33096 0.71164 0.0
N501 N 0.43509 0.4479 0.93138 0.0
H502 H 0.41505 0.36365 0.07741 0.0
H503 H 0.42186 0.4073 0.09061 0.0
H504 H 0.44193 0.47148 0.89935 0.0
H505 H 0.41576 0.44787 0.99012 0.0
H506 H 0.47365 0.3317 0.63554 0.0
H507 H 0.44719 0.30821 0.72558 0.0
H508 H 0.51579 0.36782 0.65025 0.0
H509 H 0.52134 0.4116 0.66056 0.0
C510 C 0.12998 0.50651 0.90197 0.0
C511 C 0.15449 0.48755 0.84989 0.0
C512 C 0.11361 0.4666 0.71288 0.0
C513 C 0.08868 0.48481 0.76694 0.0
N514 N 0.07097 0.51575 0.92661 0.0
N515 N 0.16818 0.44442 0.72016 0.0
C516 C 0.09606 0.50246 0.86646 0.0
C517 C 0.14579 0.4659 0.75991 0.0
N518 N 0.13949 0.52974 0.98185 0.0
N519 N 0.10684 0.45065 0.61494 0.0
H520 H 0.19235 0.44398 0.75082 0.0
H521 H 0.16199 0.42531 0.66262 0.0
H522 H 0.08306 0.44862 0.58041 0.0
H523 H 0.12521 0.44092 0.5648 0.0
H524 H 0.12376 0.5469 0.01523 0.0
H525 H 0.16423 0.53406 0.00803 0.0
H526 H 0.0742 0.52533 0.0056 0.0
H527 H 0.04603 0.51473 0.90208 0.0
C528 C 0.97617 0.85719 0.35625 0.0
C529 C 0.99706 0.85445 0.26196 0.0
C530 C 0.9955 0.91488 0.2313 0.0
C531 C 0.97962 0.91814 0.33467 0.0
N532 N 0.94012 0.89156 0.46362 0.0
N533 N 0.02416 0.87962 0.10227 0.0
C534 C 0.96505 0.88886 0.38647 0.0
C535 C 0.00581 0.883 0.19667 0.0
N536 N 0.96924 0.83035 0.42206 0.0
N537 N 0.99863 0.94158 0.16417 0.0
H538 H 0.02908 0.85638 0.06811 0.0
H539 H 0.03515 0.89975 0.05806 0.0
H540 H 0.98594 0.96286 0.18018 0.0
H541 H 0.00958 0.94127 0.08673 0.0
H542 H 0.9576 0.83213 0.49838 0.0
H543 H 0.97774 0.80685 0.40541 0.0
H544 H 0.92624 0.87095 0.49823 0.0
H545 H 0.93082 0.91451 0.48361 0.0
C546 C 0.60329 0.025 0.30515 0.0
C547 C 0.62145 0.99687 0.28194 0.0
C548 C 0.58061 0.96214 0.39349 0.0
C549 C 0.56023 0.98929 0.40436 0.0
N550 N 0.54804 0.04307 0.33865 0.0
N551 N 0.62281 0.93643 0.28342 0.0
C552 C 0.57042 0.01983 0.35147 0.0
C553 C 0.60894 0.96472 0.32039 0.0
N554 N 0.61756 0.05681 0.28517 0.0
N555 N 0.57381 0.93446 0.45536 0.0
H556 H 0.64264 0.93686 0.22635 0.0
H557 H 0.61227 0.91223 0.30099 0.0
H558 H 0.5539 0.93212 0.51203 0.0
H559 H 0.58992 0.91547 0.45792 0.0
H560 H 0.60619 0.07827 0.31011 0.0
H561 H 0.64225 0.06184 0.25497 0.0
H562 H 0.55359 0.06453 0.29311 0.0
H563 H 0.52265 0.03844 0.36032 0.0
C564 C 0.53703 0.65212 0.47729 0.0
C565 C 0.51502 0.65367 0.38953 0.0
C566 C 0.52512 0.59637 0.33004 0.0
C567 C 0.54008 0.59262 0.43164 0.0
N568 N 0.57671 0.62003 0.56586 0.0
N569 N 0.49588 0.63216 0.21487 0.0
C570 C 0.55173 0.6218 0.493 0.0
C571 C 0.512 0.62744 0.30893 0.0
N572 N 0.54258 0.67908 0.54773 0.0
N573 N 0.52363 0.57034 0.25542 0.0
H574 H 0.48665 0.6549 0.19795 0.0
H575 H 0.49221 0.61425 0.15225 0.0
H576 H 0.53795 0.55007 0.26299 0.0
H577 H 0.51068 0.56968 0.18317 0.0
H578 H 0.55525 0.6783 0.6203 0.0
H579 H 0.5334 0.70216 0.53469 0.0
H580 H 0.58792 0.6407 0.60965 0.0
H581 H 0.58843 0.598 0.57359 0.0
C582 C 0.86561 0.52813 0.32462 0.0
C583 C 0.84822 0.49514 0.31797 0.0
C584 C 0.90003 0.47078 0.36243 0.0
C585 C 0.91685 0.50344 0.376 0.0
N586 N 0.91686 0.56342 0.37379 0.0
N587 N 0.84642 0.43659 0.36091 0.0
C588 C 0.89997 0.53224 0.35784 0.0
C589 C 0.86481 0.46691 0.34558 0.0
N590 N 0.84981 0.55532 0.29624 0.0
N591 N 0.918 0.44338 0.36453 0.0
H592 H 0.82013 0.43332 0.35515 0.0
H593 H 0.85657 0.41586 0.39142 0.0
H594 H 0.94413 0.44555 0.3744 0.0
H595 H 0.90775 0.41899 0.34504 0.0
H596 H 0.86211 0.5793 0.28703 0.0
H597 H 0.82444 0.55392 0.27639 0.0
H598 H 0.90539 0.58573 0.376 0.0
H599 H 0.94275 0.56681 0.38829 0.0
loop_
_geom_bond_atom_site_label_1
_geom_bond_atom_site_label_2
_geom_bond_distance
_geom_bond_site_symmetry_2
_ccdc_geom_bond_type
O0 Cd1 2.300 . S
O0 C7 1.275 . S
Cd1 O0 2.300 . S
Cd1 O9 2.381 . S
Cd1 O10 2.378 1_556 S
O2 Cd3 2.385 1_556 S
O2 C7 1.255 . S
Cd3 O2 2.385 1_554 S
Cd3 O4 2.317 . S
O4 Cd3 2.317 . S
O4 C5 1.232 . S
C5 O4 1.232 . S
C5 O6 1.218 . S
O6 C5 1.218 . S
C7 O0 1.275 . S
C7 O2 1.255 . S
C8 O9 1.258 . S
C8 O10 1.256 1_556 S
O9 Cd1 2.381 . S
O9 C8 1.258 . S
O10 Cd1 2.378 1_554 S
O10 C8 1.256 1_554 S
O11 Cd12 2.300 . S
O11 C18 1.275 . S
Cd12 O11 2.300 . S
Cd12 O20 2.381 . S
Cd12 O21 2.381 1_556 S
O13 Cd14 2.385 1_556 S
O13 C18 1.255 1_455 S
Cd14 O13 2.385 1_554 S
Cd14 O15 2.317 1_455 S
O15 Cd14 2.317 1_655 S
O15 C16 1.232 . S
C16 O15 1.232 . S
C16 O17 1.218 1_655 S
O17 C16 1.218 1_455 S
C18 O11 1.275 . S
C18 O13 1.255 1_655 S
C19 O20 1.258 . S
C19 O21 1.267 1_556 S
O20 Cd12 2.381 . S
O20 C19 1.258 . S
O21 Cd12 2.381 1_554 S
O21 C19 1.267 1_554 S
O22 Cd23 2.287 1_565 S
O22 C29 1.275 . S
Cd23 O22 2.287 1_545 S
Cd23 O31 2.361 1_545 S
Cd23 O32 2.378 1_556 S
O24 Cd25 2.385 1_556 S
O24 C29 1.255 1_545 S
Cd25 O24 2.385 1_554 S
Cd25 O26 2.317 . S
O26 Cd25 2.317 . S
O26 C27 1.232 1_545 S
C27 O26 1.232 1_565 S
C27 O28 1.218 1_565 S
O28 C27 1.218 1_545 S
C29 O22 1.275 . S
C29 O24 1.255 1_565 S
C30 O31 1.258 . S
C30 O32 1.256 1_566 S
O31 Cd23 2.361 1_565 S
O31 C30 1.258 . S
O32 Cd23 2.378 1_554 S
O32 C30 1.256 1_544 S
O33 Cd34 2.300 1_556 S
O33 C40 1.275 . S
Cd34 O33 2.300 1_554 S
Cd34 O42 2.381 1_554 S
Cd34 O43 2.378 . S
O35 Cd36 2.385 . S
O35 C40 1.255 1_554 S
Cd36 O35 2.385 . S
Cd36 O37 2.317 . S
O37 Cd36 2.317 . S
O37 C38 1.232 . S
C38 O37 1.232 . S
C38 O39 1.218 . S
O39 C38 1.218 . S
C40 O33 1.275 . S
C40 O35 1.255 1_556 S
C41 O42 1.258 . S
C41 O43 1.256 1_556 S
O42 Cd34 2.381 1_556 S
O42 C41 1.258 . S
O43 Cd34 2.378 . S
O43 C41 1.256 1_554 S
O44 Cd45 2.300 . S
O44 C51 1.275 . S
Cd45 O44 2.300 . S
Cd45 O53 2.381 . S
Cd45 O54 2.378 . S
O46 Cd47 2.385 . S
O46 C51 1.255 . S
Cd47 O46 2.385 . S
Cd47 O48 2.317 1_554 S
O48 Cd47 2.317 1_556 S
O48 C49 1.232 . S
C49 O48 1.232 . S
C49 O50 1.218 . S
O50 C49 1.218 . S
C51 O44 1.275 . S
C51 O46 1.255 . S
C52 O53 1.258 . S
C52 O54 1.256 . S
O53 Cd45 2.381 . S
O53 C52 1.258 . S
O54 Cd45 2.378 . S
O54 C52 1.256 . S
O55 Cd56 2.300 . S
O55 C62 1.275 . S
Cd56 O55 2.300 . S
Cd56 O64 2.381 . S
Cd56 O65 2.378 . S
O57 Cd58 2.385 . S
O57 C62 1.255 . S
Cd58 O57 2.385 . S
Cd58 O59 2.317 1_554 S
O59 Cd58 2.317 1_556 S
O59 C60 1.232 . S
C60 O59 1.232 . S
C60 O61 1.218 . S
O61 C60 1.218 . S
C62 O55 1.275 . S
C62 O57 1.255 . S
C63 O64 1.258 . S
C63 O65 1.256 . S
O64 Cd56 2.381 . S
O64 C63 1.258 . S
O65 Cd56 2.378 . S
O65 C63 1.256 . S
O66 Cd67 2.300 . S
O66 C73 1.275 . S
Cd67 O66 2.300 . S
Cd67 O75 2.381 . S
Cd67 O76 2.378 . S
O68 Cd69 2.385 . S
O68 C73 1.255 . S
Cd69 O68 2.385 . S
Cd69 O70 2.317 1_554 S
O70 Cd69 2.317 1_556 S
O70 C71 1.232 . S
C71 O70 1.232 . S
C71 O72 1.218 . S
O72 C71 1.218 . S
C73 O66 1.275 . S
C73 O68 1.255 . S
C74 O75 1.258 . S
C74 O76 1.256 . S
O75 Cd67 2.381 . S
O75 C74 1.258 . S
O76 Cd67 2.378 . S
O76 C74 1.256 . S
O77 Cd78 2.300 . S
O77 C84 1.275 . S
Cd78 O77 2.300 . S
Cd78 O86 2.381 . S
Cd78 O87 2.378 . S
O79 Cd80 2.385 1_554 S
O79 C84 1.255 . S
Cd80 O79 2.385 1_556 S
Cd80 O81 2.317 . S
O81 Cd80 2.317 . S
O81 C82 1.232 . S
C82 O81 1.232 . S
C82 O83 1.218 . S
O83 C82 1.218 . S
C84 O77 1.275 . S
C84 O79 1.255 . S
C85 O86 1.258 . S
C85 O87 1.256 . S
O86 Cd78 2.381 . S
O86 C85 1.258 . S
O87 Cd78 2.378 . S
O87 C85 1.256 . S
Dy88 O92 2.398 . S
Dy88 O93 2.491 1_455 S
Dy88 O94 2.403 . S
Dy88 O95 2.664 1_565 S
Dy88 O99 2.326 . S
Dy88 O103 2.310 1_455 S
Dy88 O104 2.351 1_565 S
C89 O100 1.185 1_455 S
C89 O101 1.355 . S
C90 O92 1.185 . S
C90 O93 1.355 1_455 S
Dy91 O95 2.310 1_655 S
Dy91 O98 2.351 1_545 S
Dy91 O100 2.398 . S
Dy91 O101 2.491 1_655 S
Dy91 O102 2.403 . S
Dy91 O103 2.664 1_545 S
Dy91 O105 2.326 1_655 S
O92 Dy88 2.398 . S
O92 C90 1.185 . S
O93 Dy88 2.491 1_655 S
O93 C90 1.355 1_655 S
O94 Dy88 2.403 . S
O94 C96 1.254 1_565 S
O95 Dy88 2.664 1_545 S
O95 Dy91 2.310 1_455 S
O95 C96 1.268 . S
C96 O94 1.254 1_545 S
C96 O95 1.268 . S
C97 O102 1.254 . S
C97 O103 1.268 1_545 S
O98 Dy91 2.351 1_565 S
O98 C106 1.249 . S
O99 Dy88 2.326 . S
O99 C106 1.267 1_455 S
O100 C89 1.185 1_655 S
O100 Dy91 2.398 . S
O101 C89 1.355 . S
O101 Dy91 2.491 1_455 S
O102 Dy91 2.403 . S
O102 C97 1.254 . S
O103 Dy88 2.310 1_655 S
O103 Dy91 2.664 1_565 S
O103 C97 1.268 1_565 S
O104 Dy88 2.351 1_545 S
O104 C107 1.249 . S
O105 Dy91 2.326 1_455 S
O105 C107 1.267 . S
C106 O98 1.249 . S
C106 O99 1.267 1_655 S
C107 O104 1.249 . S
C107 O105 1.267 . S
Dy108 O112 2.398 . S
Dy108 O113 2.491 1_565 S
Dy108 O114 2.403 . S
Dy108 O115 2.664 . S
Dy108 O119 2.326 1_565 S
Dy108 O123 2.310 1_565 S
Dy108 O124 2.351 . S
C109 O120 1.185 . S
C109 O121 1.363 . S
C110 O112 1.185 . S
C110 O113 1.355 1_565 S
Dy111 O115 2.310 1_545 S
Dy111 O118 2.351 . S
Dy111 O120 2.398 . S
Dy111 O121 2.509 . S
Dy111 O122 2.403 . S
Dy111 O123 2.664 . S
Dy111 O125 2.326 1_545 S
O112 Dy108 2.398 . S
O112 C110 1.185 . S
O113 Dy108 2.491 1_545 S
O113 C110 1.355 1_545 S
O114 Dy108 2.403 . S
O114 C116 1.254 . S
O115 Dy108 2.664 . S
O115 Dy111 2.310 1_565 S
O115 C116 1.268 . S
C116 O114 1.254 . S
C116 O115 1.268 . S
C117 O122 1.254 . S
C117 O123 1.268 . S
O118 Dy111 2.351 . S
O118 C126 1.249 . S
O119 Dy108 2.326 1_545 S
O119 C126 1.267 . S
O120 C109 1.185 . S
O120 Dy111 2.398 . S
O121 C109 1.363 . S
O121 Dy111 2.509 . S
O122 Dy111 2.403 . S
O122 C117 1.254 . S
O123 Dy108 2.310 1_545 S
O123 Dy111 2.664 . S
O123 C117 1.268 . S
O124 Dy108 2.351 . S
O124 C127 1.249 . S
O125 Dy111 2.326 1_565 S
O125 C127 1.267 . S
C126 O118 1.249 . S
C126 O119 1.267 . S
C127 O124 1.249 . S
C127 O125 1.267 . S
Dy128 O132 2.398 . S
Dy128 O133 2.491 . S
Dy128 O134 2.403 . S
Dy128 O135 2.664 . S
Dy128 O139 2.326 . S
Dy128 O143 2.310 . S
Dy128 O144 2.351 . S
C129 O140 1.185 . S
C129 O141 1.355 . S
C130 O132 1.185 . S
C130 O133 1.355 . S
Dy131 O135 2.310 . S
Dy131 O138 2.351 . S
Dy131 O140 2.398 . S
Dy131 O141 2.491 . S
Dy131 O142 2.403 . S
Dy131 O143 2.664 . S
Dy131 O145 2.326 . S
O132 Dy128 2.398 . S
O132 C130 1.185 . S
O133 Dy128 2.491 . S
O133 C130 1.355 . S
O134 Dy128 2.403 . S
O134 C136 1.254 . S
O135 Dy128 2.664 . S
O135 Dy131 2.310 . S
O135 C136 1.268 . S
C136 O134 1.254 . S
C136 O135 1.268 . S
C137 O142 1.254 . S
C137 O143 1.268 . S
O138 Dy131 2.351 . S
O138 C146 1.249 . S
O139 Dy128 2.326 . S
O139 C146 1.267 . S
O140 C129 1.185 . S
O140 Dy131 2.398 . S
O141 C129 1.355 . S
O141 Dy131 2.491 . S
O142 Dy131 2.403 . S
O142 C137 1.254 . S
O143 Dy128 2.310 . S
O143 Dy131 2.664 . S
O143 C137 1.268 . S
O144 Dy128 2.351 . S
O144 C147 1.249 . S
O145 Dy131 2.326 . S
O145 C147 1.267 . S
C146 O138 1.249 . S
C146 O139 1.267 . S
C147 O144 1.249 . S
C147 O145 1.267 . S
Dy148 O152 2.398 . S
Dy148 O153 2.491 . S
Dy148 O154 2.403 . S
Dy148 O155 2.664 1_655 S
Dy148 O159 2.326 . S
Dy148 O163 2.310 . S
Dy148 O164 2.351 1_655 S
C149 O160 1.185 . S
C149 O161 1.355 . S
C150 O152 1.185 . S
C150 O153 1.355 . S
Dy151 O155 2.310 . S
Dy151 O158 2.351 1_455 S
Dy151 O160 2.398 . S
Dy151 O161 2.491 . S
Dy151 O162 2.403 . S
Dy151 O163 2.664 1_455 S
Dy151 O165 2.326 . S
O152 Dy148 2.398 . S
O152 C150 1.185 . S
O153 Dy148 2.491 . S
O153 C150 1.355 . S
O154 Dy148 2.403 . S
O154 C156 1.254 1_655 S
O155 Dy148 2.664 1_455 S
O155 Dy151 2.310 . S
O155 C156 1.268 . S
C156 O154 1.254 1_455 S
C156 O155 1.268 . S
C157 O162 1.254 . S
C157 O163 1.268 1_455 S
O158 Dy151 2.351 1_655 S
O158 C166 1.249 . S
O159 Dy148 2.326 . S
O159 C166 1.267 . S
O160 C149 1.185 . S
O160 Dy151 2.398 . S
O161 C149 1.355 . S
O161 Dy151 2.491 . S
O162 Dy151 2.403 . S
O162 C157 1.254 . S
O163 Dy148 2.310 . S
O163 Dy151 2.664 1_655 S
O163 C157 1.268 1_655 S
O164 Dy148 2.351 1_455 S
O164 C167 1.249 . S
O165 Dy151 2.326 . S
O165 C167 1.267 . S
C166 O158 1.249 . S
C166 O159 1.267 . S
C167 O164 1.249 . S
C167 O165 1.267 . S
C168 C169 1.363 1_565 S
C168 C174 1.379 . S
C168 N176 1.356 . S
C169 C168 1.363 1_545 S
C169 C175 1.363 . S
C170 C171 1.363 . S
C170 C175 1.379 . S
C170 N177 1.356 . S
C171 C170 1.363 . S
C171 C174 1.363 1_545 S
N172 C174 1.356 . S
N172 H184 0.984 . S
N172 H185 0.985 . S
N173 C175 1.356 . S
N173 H178 0.984 . S
N173 H179 0.985 . S
C174 C168 1.379 . S
C174 C171 1.363 1_565 S
C174 N172 1.356 . S
C175 C169 1.363 . S
C175 C170 1.379 . S
C175 N173 1.356 . S
N176 C168 1.356 . S
N176 H182 0.984 . S
N176 H183 0.984 . S
N177 C170 1.356 . S
N177 H180 0.984 . S
N177 H181 0.985 . S
H178 N173 0.984 . S
H179 N173 0.985 . S
H180 N177 0.984 . S
H181 N177 0.985 . S
H182 N176 0.984 . S
H183 N176 0.984 . S
H184 N172 0.984 . S
H185 N172 0.985 . S
C186 C187 1.363 . S
C186 C192 1.379 . S
C186 N194 1.356 . S
C187 C186 1.363 . S
C187 C193 1.363 . S
C188 C189 1.363 . S
C188 C193 1.379 . S
C188 N195 1.356 . S
C189 C188 1.363 . S
C189 C192 1.363 . S
N190 C192 1.356 . S
N190 H202 0.984 . S
N190 H203 0.985 . S
N191 C193 1.356 . S
N191 H196 0.984 . S
N191 H197 0.985 . S
C192 C186 1.379 . S
C192 C189 1.363 . S
C192 N190 1.356 . S
C193 C187 1.363 . S
C193 C188 1.379 . S
C193 N191 1.356 . S
N194 C186 1.356 . S
N194 H200 0.984 . S
N194 H201 0.984 . S
N195 C188 1.356 . S
N195 H198 0.984 . S
N195 H199 0.985 . S
H196 N191 0.984 . S
H197 N191 0.985 . S
H198 N195 0.984 . S
H199 N195 0.985 . S
H200 N194 0.984 . S
H201 N194 0.984 . S
H202 N190 0.984 . S
H203 N190 0.985 . S
C204 C205 1.363 . S
C204 C210 1.379 . S
C204 N212 1.356 . S
C205 C204 1.363 . S
C205 C211 1.363 . S
C206 C207 1.363 . S
C206 C211 1.379 . S
C206 N213 1.356 . S
C207 C206 1.363 . S
C207 C210 1.363 . S
N208 C210 1.356 . S
N208 H220 0.984 . S
N208 H221 0.985 . S
N209 C211 1.356 . S
N209 H214 0.984 . S
N209 H215 0.985 . S
C210 C204 1.379 . S
C210 C207 1.363 . S
C210 N208 1.356 . S
C211 C205 1.363 . S
C211 C206 1.379 . S
C211 N209 1.356 . S
N212 C204 1.356 . S
N212 H218 0.984 . S
N212 H219 0.984 . S
N213 C206 1.356 . S
N213 H216 0.984 . S
N213 H217 0.985 . S
H214 N209 0.984 . S
H215 N209 0.985 . S
H216 N213 0.984 . S
H217 N213 0.985 . S
H218 N212 0.984 . S
H219 N212 0.984 . S
H220 N208 0.984 . S
H221 N208 0.985 . S
C222 C223 1.363 . S
C222 C228 1.379 . S
C222 N230 1.356 . S
C223 C222 1.363 . S
C223 C229 1.363 . S
C224 C225 1.363 . S
C224 C229 1.379 . S
C224 N231 1.356 . S
C225 C224 1.363 . S
C225 C228 1.363 . S
N226 C228 1.356 1_655 S
N226 H238 0.984 . S
N226 H239 0.985 . S
N227 C229 1.356 . S
N227 H232 0.984 . S
N227 H233 0.985 . S
C228 C222 1.379 . S
C228 C225 1.363 . S
C228 N226 1.356 1_455 S
C229 C223 1.363 . S
C229 C224 1.379 . S
C229 N227 1.356 . S
N230 C222 1.356 . S
N230 H236 0.985 1_455 S
N230 H237 0.984 . S
N231 C224 1.356 . S
N231 H234 0.984 . S
N231 H235 0.985 . S
H232 N227 0.984 . S
H233 N227 0.985 . S
H234 N231 0.984 . S
H235 N231 0.985 . S
H236 N230 0.985 1_655 S
H237 N230 0.984 . S
H238 N226 0.984 . S
H239 N226 0.985 . S
C240 C241 1.363 . S
C240 C246 1.379 . S
C240 N248 1.356 . S
C241 C240 1.363 . S
C241 C247 1.363 1_565 S
C242 C243 1.363 1_545 S
C242 C247 1.379 . S
C242 N249 1.356 . S
C243 C242 1.363 1_565 S
C243 C246 1.363 . S
N244 C246 1.356 . S
N244 H256 0.984 . S
N244 H257 0.985 . S
N245 C247 1.356 . S
N245 H250 0.984 . S
N245 H251 0.985 . S
C246 C240 1.379 . S
C246 C243 1.363 . S
C246 N244 1.356 . S
C247 C241 1.363 1_545 S
C247 C242 1.379 . S
C247 N245 1.356 . S
N248 C240 1.356 . S
N248 H254 0.984 1_556 S
N248 H255 0.984 1_556 S
N249 C242 1.356 . S
N249 H252 0.984 . S
N249 H253 0.985 . S
H250 N245 0.984 . S
H251 N245 0.985 . S
H252 N249 0.984 . S
H253 N249 0.985 . S
H254 N248 0.984 1_554 S
H255 N248 0.984 1_554 S
H256 N244 0.984 . S
H257 N244 0.985 . S
C258 C259 1.363 . S
C258 C264 1.379 . S
C258 N266 1.356 . S
C259 C258 1.363 . S
C259 C265 1.363 . S
C260 C261 1.363 . S
C260 C265 1.379 . S
C260 N267 1.356 . S
C261 C260 1.363 . S
C261 C264 1.363 . S
N262 C264 1.356 . S
N262 H274 0.984 . S
N262 H275 0.985 . S
N263 C265 1.356 1_554 S
N263 H268 0.984 . S
N263 H269 0.985 . S
C264 C258 1.379 . S
C264 C261 1.363 . S
C264 N262 1.356 . S
C265 C259 1.363 . S
C265 C260 1.379 . S
C265 N263 1.356 1_556 S
N266 C258 1.356 . S
N266 H272 0.984 . S
N266 H273 0.984 . S
N267 C260 1.356 . S
N267 H270 0.984 . S
N267 H271 0.985 . S
H268 N263 0.984 . S
H269 N263 0.985 . S
H270 N267 0.984 . S
H271 N267 0.985 . S
H272 N266 0.984 . S
H273 N266 0.984 . S
H274 N262 0.984 . S
H275 N262 0.985 . S
C276 C277 1.363 . S
C276 C282 1.379 . S
C276 N284 1.356 . S
C277 C276 1.363 . S
C277 C283 1.363 . S
C278 C279 1.363 . S
C278 C283 1.379 . S
C278 N285 1.356 . S
C279 C278 1.363 . S
C279 C282 1.363 . S
N280 C282 1.356 . S
N280 H292 0.984 . S
N280 H293 0.985 . S
N281 C283 1.356 . S
N281 H286 0.984 . S
N281 H287 0.985 . S
C282 C276 1.379 . S
C282 C279 1.363 . S
C282 N280 1.356 . S
C283 C277 1.363 . S
C283 C278 1.379 . S
C283 N281 1.356 . S
N284 C276 1.356 . S
N284 H290 0.984 . S
N284 H291 0.984 . S
N285 C278 1.356 . S
N285 H288 0.984 . S
N285 H289 0.985 . S
H286 N281 0.984 . S
H287 N281 0.985 . S
H288 N285 0.984 . S
H289 N285 0.985 . S
H290 N284 0.984 . S
H291 N284 0.984 . S
H292 N280 0.984 . S
H293 N280 0.985 . S
C294 C295 1.363 . S
C294 C300 1.379 1_655 S
C294 N302 1.356 1_556 S
C295 C294 1.363 . S
C295 C301 1.363 . S
C296 C297 1.363 . S
C296 C301 1.379 . S
C296 N303 1.356 . S
C297 C296 1.363 . S
C297 C300 1.363 1_655 S
N298 C300 1.356 . S
N298 H310 0.984 . S
N298 H311 0.985 . S
N299 C301 1.356 . S
N299 H304 0.984 . S
N299 H305 0.985 . S
C300 C294 1.379 1_455 S
C300 C297 1.363 1_455 S
C300 N298 1.356 . S
C301 C295 1.363 . S
C301 C296 1.379 . S
C301 N299 1.356 . S
N302 C294 1.356 1_554 S
N302 H308 0.984 1_655 S
N302 H309 0.984 . S
N303 C296 1.356 . S
N303 H306 0.984 . S
N303 H307 0.985 . S
H304 N299 0.984 . S
H305 N299 0.985 . S
H306 N303 0.984 . S
H307 N303 0.985 . S
H308 N302 0.984 1_455 S
H309 N302 0.984 . S
H310 N298 0.984 . S
H311 N298 0.985 . S
C312 C313 1.363 . S
C312 C318 1.379 . S
C312 N320 1.356 . S
C313 C312 1.363 . S
C313 C319 1.363 . S
C314 C315 1.363 1_655 S
C314 C319 1.379 1_655 S
C314 N321 1.356 . S
C315 C314 1.363 1_455 S
C315 C318 1.363 . S
N316 C318 1.356 . S
N316 H328 0.984 . S
N316 H329 0.985 . S
N317 C319 1.356 . S
N317 H322 0.984 . S
N317 H323 0.985 1_455 S
C318 C312 1.379 . S
C318 C315 1.363 . S
C318 N316 1.356 . S
C319 C313 1.363 . S
C319 C314 1.379 1_455 S
C319 N317 1.356 . S
N320 C312 1.356 . S
N320 H326 0.984 . S
N320 H327 0.984 . S
N321 C314 1.356 . S
N321 H324 0.984 . S
N321 H325 0.985 . S
H322 N317 0.984 . S
H323 N317 0.985 1_655 S
H324 N321 0.984 . S
H325 N321 0.985 . S
H326 N320 0.984 . S
H327 N320 0.984 . S
H328 N316 0.984 . S
H329 N316 0.985 . S
C330 C331 1.363 . S
C330 C336 1.379 . S
C330 N338 1.356 . S
C331 C330 1.363 . S
C331 C337 1.363 1_545 S
C332 C333 1.363 1_565 S
C332 C337 1.379 . S
C332 N339 1.356 . S
C333 C332 1.363 1_545 S
C333 C336 1.363 . S
N334 C336 1.356 . S
N334 H346 0.984 . S
N334 H347 0.985 . S
N335 C337 1.356 . S
N335 H340 0.984 1_565 S
N335 H341 0.985 . S
C336 C330 1.379 . S
C336 C333 1.363 . S
C336 N334 1.356 . S
C337 C331 1.363 1_565 S
C337 C332 1.379 . S
C337 N335 1.356 . S
N338 C330 1.356 . S
N338 H344 0.984 . S
N338 H345 0.984 . S
N339 C332 1.356 . S
N339 H342 0.984 . S
N339 H343 0.985 . S
H340 N335 0.984 1_545 S
H341 N335 0.985 . S
H342 N339 0.984 . S
H343 N339 0.985 . S
H344 N338 0.984 . S
H345 N338 0.984 . S
H346 N334 0.984 . S
H347 N334 0.985 . S
C348 C349 1.363 . S
C348 C354 1.379 . S
C348 N356 1.356 . S
C349 C348 1.363 . S
C349 C355 1.363 . S
C350 C351 1.363 . S
C350 C355 1.379 . S
C350 N357 1.356 . S
C351 C350 1.363 . S
C351 C354 1.363 . S
N352 C354 1.356 . S
N352 H364 0.984 . S
N352 H365 0.985 . S
N353 C355 1.356 . S
N353 H358 0.984 . S
N353 H359 0.985 . S
C354 C348 1.379 . S
C354 C351 1.363 . S
C354 N352 1.356 . S
C355 C349 1.363 . S
C355 C350 1.379 . S
C355 N353 1.356 . S
N356 C348 1.356 . S
N356 H362 0.984 . S
N356 H363 0.984 . S
N357 C350 1.356 . S
N357 H360 0.984 . S
N357 H361 0.985 . S
H358 N353 0.984 . S
H359 N353 0.985 . S
H360 N357 0.984 . S
H361 N357 0.985 . S
H362 N356 0.984 . S
H363 N356 0.984 . S
H364 N352 0.984 . S
H365 N352 0.985 . S
C366 C367 1.363 . S
C366 C372 1.379 . S
C366 N374 1.356 . S
C367 C366 1.363 . S
C367 C373 1.363 . S
C368 C369 1.363 . S
C368 C373 1.379 . S
C368 N375 1.356 . S
C369 C368 1.363 . S
C369 C372 1.363 . S
N370 C372 1.356 . S
N370 H382 0.984 . S
N370 H383 0.985 . S
N371 C373 1.356 . S
N371 H376 0.984 . S
N371 H377 0.985 . S
C372 C366 1.379 . S
C372 C369 1.363 . S
C372 N370 1.356 . S
C373 C367 1.363 . S
C373 C368 1.379 . S
C373 N371 1.356 . S
N374 C366 1.356 . S
N374 H380 0.984 . S
N374 H381 0.984 . S
N375 C368 1.356 . S
N375 H378 0.984 . S
N375 H379 0.985 . S
H376 N371 0.984 . S
H377 N371 0.985 . S
H378 N375 0.984 . S
H379 N375 0.985 . S
H380 N374 0.984 . S
H381 N374 0.984 . S
H382 N370 0.984 . S
H383 N370 0.985 . S
C384 C385 1.363 . S
C384 C390 1.379 . S
C384 N392 1.356 1_556 S
C385 C384 1.363 . S
C385 C391 1.363 . S
C386 C387 1.363 . S
C386 C391 1.379 1_455 S
C386 N393 1.356 . S
C387 C386 1.363 . S
C387 C390 1.363 1_455 S
N388 C390 1.356 . S
N388 H400 0.984 . S
N388 H401 0.985 1_655 S
N389 C391 1.356 . S
N389 H394 0.984 . S
N389 H395 0.985 1_655 S
C390 C384 1.379 . S
C390 C387 1.363 1_655 S
C390 N388 1.356 . S
C391 C385 1.363 . S
C391 C386 1.379 1_655 S
C391 N389 1.356 . S
N392 C384 1.356 1_554 S
N392 H398 0.984 . S
N392 H399 0.984 . S
N393 C386 1.356 . S
N393 H396 0.984 . S
N393 H397 0.985 . S
H394 N389 0.984 . S
H395 N389 0.985 1_455 S
H396 N393 0.984 . S
H397 N393 0.985 . S
H398 N392 0.984 . S
H399 N392 0.984 . S
H400 N388 0.984 . S
H401 N388 0.985 1_455 S
C402 C403 1.363 . S
C402 C408 1.379 . S
C402 N410 1.356 1_556 S
C403 C402 1.363 . S
C403 C409 1.363 . S
C404 C405 1.363 . S
C404 C409 1.379 1_545 S
C404 N411 1.356 . S
C405 C404 1.363 . S
C405 C408 1.363 1_545 S
N406 C408 1.356 1_554 S
N406 H418 0.984 . S
N406 H419 0.985 1_564 S
N407 C409 1.356 . S
N407 H412 0.984 . S
N407 H413 0.997 . S
C408 C402 1.379 . S
C408 C405 1.363 1_565 S
C408 N406 1.356 1_556 S
C409 C403 1.363 . S
C409 C404 1.379 1_565 S
C409 N407 1.356 . S
N410 C402 1.356 1_554 S
N410 H416 0.984 . S
N410 H417 0.984 . S
N411 C404 1.356 . S
N411 H414 0.984 . S
N411 H415 0.985 . S
H412 N407 0.984 . S
H413 N407 0.997 . S
H414 N411 0.984 . S
H415 N411 0.985 . S
H416 N410 0.984 . S
H417 N410 0.984 . S
H418 N406 0.984 . S
H419 N406 0.985 1_546 S
C420 C421 1.363 . S
C420 C426 1.379 . S
C420 N428 1.356 . S
C421 C420 1.363 . S
C421 C427 1.363 . S
C422 C423 1.363 . S
C422 C427 1.379 . S
C422 N429 1.356 . S
C423 C422 1.363 . S
C423 C426 1.363 . S
N424 C426 1.356 . S
N424 H436 0.984 . S
N424 H437 0.985 . S
N425 C427 1.356 . S
N425 H430 0.984 1_556 S
N425 H431 0.985 1_556 S
C426 C420 1.379 . S
C426 C423 1.363 . S
C426 N424 1.356 . S
C427 C421 1.363 . S
C427 C422 1.379 . S
C427 N425 1.356 . S
N428 C420 1.356 . S
N428 H434 0.984 . S
N428 H435 0.984 . S
N429 C422 1.356 . S
N429 H432 0.984 . S
N429 H433 0.985 . S
H430 N425 0.984 1_554 S
H431 N425 0.985 1_554 S
H432 N429 0.984 . S
H433 N429 0.985 . S
H434 N428 0.984 . S
H435 N428 0.984 . S
H436 N424 0.984 . S
H437 N424 0.985 . S
C438 C439 1.363 . S
C438 C444 1.379 . S
C438 N446 1.356 1_556 S
C439 C438 1.363 . S
C439 C445 1.363 . S
C440 C441 1.363 . S
C440 C445 1.379 . S
C440 N447 1.356 . S
C441 C440 1.363 . S
C441 C444 1.363 . S
N442 C444 1.356 . S
N442 H454 0.984 1_556 S
N442 H455 0.985 . S
N443 C445 1.356 . S
N443 H448 0.984 . S
N443 H449 0.985 . S
C444 C438 1.379 . S
C444 C441 1.363 . S
C444 N442 1.356 . S
C445 C439 1.363 . S
C445 C440 1.379 . S
C445 N443 1.356 . S
N446 C438 1.356 1_554 S
N446 H452 0.984 . S
N446 H453 0.984 . S
N447 C440 1.356 . S
N447 H450 0.984 . S
N447 H451 0.985 . S
H448 N443 0.984 . S
H449 N443 0.985 . S
H450 N447 0.984 . S
H451 N447 0.985 . S
H452 N446 0.984 . S
H453 N446 0.984 . S
H454 N442 0.984 1_554 S
H455 N442 0.985 . S
C456 C457 1.363 . S
C456 C462 1.379 . S
C456 N464 1.356 . S
C457 C456 1.363 . S
C457 C463 1.363 . S
C458 C459 1.363 . S
C458 C463 1.379 . S
C458 N465 1.348 1_455 S
C459 C458 1.363 . S
C459 C462 1.363 . S
N460 C462 1.356 . S
N460 H472 0.984 . S
N460 H473 0.985 . S
N461 C463 1.356 . S
N461 H466 0.984 . S
N461 H467 0.985 1_455 S
C462 C456 1.379 . S
C462 C459 1.363 . S
C462 N460 1.356 . S
C463 C457 1.363 . S
C463 C458 1.379 . S
C463 N461 1.356 . S
N464 C456 1.356 . S
N464 H470 0.984 1_556 S
N464 H471 0.984 . S
N465 C458 1.348 1_655 S
N465 H468 0.981 1_655 S
N465 H469 0.996 . S
H466 N461 0.984 . S
H467 N461 0.985 1_655 S
H468 N465 0.981 1_455 S
H469 N465 0.996 . S
H470 N464 0.984 1_554 S
H471 N464 0.984 . S
H472 N460 0.984 . S
H473 N460 0.985 . S
C474 C475 1.363 . S
C474 C480 1.379 . S
C474 N482 1.356 1_545 S
C475 C474 1.363 . S
C475 C481 1.363 . S
C476 C477 1.363 . S
C476 C481 1.379 . S
C476 N483 1.356 . S
C477 C476 1.363 . S
C477 C480 1.363 . S
N478 C480 1.356 1_565 S
N478 H490 0.984 . S
N478 H491 0.985 . S
N479 C481 1.356 . S
N479 H484 0.984 . S
N479 H485 0.985 . S
C480 C474 1.379 . S
C480 C477 1.363 . S
C480 N478 1.356 1_545 S
C481 C475 1.363 . S
C481 C476 1.379 . S
C481 N479 1.356 . S
N482 C474 1.356 1_565 S
N482 H488 0.984 1_556 S
N482 H489 0.985 1_565 S
N483 C476 1.356 . S
N483 H486 0.984 . S
N483 H487 0.985 . S
H484 N479 0.984 . S
H485 N479 0.985 . S
H486 N483 0.984 . S
H487 N483 0.985 . S
H488 N482 0.984 1_554 S
H489 N482 0.985 1_545 S
H490 N478 0.984 . S
H491 N478 0.985 . S
C492 C493 1.363 . S
C492 C498 1.379 . S
C492 N500 1.356 . S
C493 C492 1.363 . S
C493 C499 1.363 . S
C494 C495 1.363 . S
C494 C499 1.379 . S
C494 N501 1.356 . S
C495 C494 1.363 . S
C495 C498 1.363 . S
N496 C498 1.356 . S
N496 H508 0.984 . S
N496 H509 0.985 . S
N497 C499 1.356 . S
N497 H502 0.984 . S
N497 H503 0.985 . S
C498 C492 1.379 . S
C498 C495 1.363 . S
C498 N496 1.356 . S
C499 C493 1.363 . S
C499 C494 1.379 . S
C499 N497 1.356 . S
N500 C492 1.356 . S
N500 H506 0.984 . S
N500 H507 0.984 . S
N501 C494 1.356 . S
N501 H504 0.984 . S
N501 H505 0.985 . S
H502 N497 0.984 . S
H503 N497 0.985 . S
H504 N501 0.984 . S
H505 N501 0.985 . S
H506 N500 0.984 . S
H507 N500 0.984 . S
H508 N496 0.984 . S
H509 N496 0.985 . S
C510 C511 1.363 . S
C510 C516 1.379 . S
C510 N518 1.356 . S
C511 C510 1.363 . S
C511 C517 1.363 . S
C512 C513 1.363 . S
C512 C517 1.379 . S
C512 N519 1.356 . S
C513 C512 1.363 . S
C513 C516 1.363 . S
N514 C516 1.356 . S
N514 H526 0.984 . S
N514 H527 0.985 . S
N515 C517 1.356 . S
N515 H520 0.984 . S
N515 H521 0.985 . S
C516 C510 1.379 . S
C516 C513 1.363 . S
C516 N514 1.356 . S
C517 C511 1.363 . S
C517 C512 1.379 . S
C517 N515 1.356 . S
N518 C510 1.356 . S
N518 H524 0.984 1_556 S
N518 H525 0.984 . S
N519 C512 1.356 . S
N519 H522 0.984 . S
N519 H523 0.985 . S
H520 N515 0.984 . S
H521 N515 0.985 . S
H522 N519 0.984 . S
H523 N519 0.985 . S
H524 N518 0.984 1_554 S
H525 N518 0.984 . S
H526 N514 0.984 . S
H527 N514 0.985 . S
C528 C529 1.363 . S
C528 C534 1.379 . S
C528 N536 1.356 . S
C529 C528 1.363 . S
C529 C535 1.363 . S
C530 C531 1.363 . S
C530 C535 1.379 . S
C530 N537 1.356 . S
C531 C530 1.363 . S
C531 C534 1.363 . S
N532 C534 1.356 . S
N532 H544 0.984 . S
N532 H545 0.985 . S
N533 C535 1.356 . S
N533 H538 0.984 . S
N533 H539 0.985 . S
C534 C528 1.379 . S
C534 C531 1.363 . S
C534 N532 1.356 . S
C535 C529 1.363 . S
C535 C530 1.379 . S
C535 N533 1.356 . S
N536 C528 1.356 . S
N536 H542 0.984 . S
N536 H543 0.984 . S
N537 C530 1.356 . S
N537 H540 0.984 . S
N537 H541 0.987 . S
H538 N533 0.984 . S
H539 N533 0.985 . S
H540 N537 0.984 . S
H541 N537 0.987 . S
H542 N536 0.984 . S
H543 N536 0.984 . S
H544 N532 0.984 . S
H545 N532 0.985 . S
C546 C547 1.363 1_545 S
C546 C552 1.379 . S
C546 N554 1.356 . S
C547 C546 1.363 1_565 S
C547 C553 1.363 . S
C548 C549 1.363 . S
C548 C553 1.379 . S
C548 N555 1.356 . S
C549 C548 1.363 . S
C549 C552 1.363 1_565 S
N550 C552 1.356 . S
N550 H562 0.984 . S
N550 H563 0.985 . S
N551 C553 1.356 . S
N551 H556 0.984 . S
N551 H557 0.985 . S
C552 C546 1.379 . S
C552 C549 1.363 1_545 S
C552 N550 1.356 . S
C553 C547 1.363 . S
C553 C548 1.379 . S
C553 N551 1.356 . S
N554 C546 1.356 . S
N554 H560 0.984 . S
N554 H561 0.984 . S
N555 C548 1.356 . S
N555 H558 0.984 . S
N555 H559 0.985 . S
H556 N551 0.984 . S
H557 N551 0.985 . S
H558 N555 0.984 . S
H559 N555 0.985 . S
H560 N554 0.984 . S
H561 N554 0.984 . S
H562 N550 0.984 . S
H563 N550 0.985 . S
C564 C565 1.363 . S
C564 C570 1.379 . S
C564 N572 1.356 . S
C565 C564 1.363 . S
C565 C571 1.363 . S
C566 C567 1.363 . S
C566 C571 1.379 . S
C566 N573 1.356 . S
C567 C566 1.363 . S
C567 C570 1.363 . S
N568 C570 1.356 . S
N568 H580 0.984 . S
N568 H581 0.985 . S
N569 C571 1.356 . S
N569 H574 0.984 . S
N569 H575 0.985 . S
C570 C564 1.379 . S
C570 C567 1.363 . S
C570 N568 1.356 . S
C571 C565 1.363 . S
C571 C566 1.379 . S
C571 N569 1.356 . S
N572 C564 1.356 . S
N572 H578 0.984 . S
N572 H579 0.984 . S
N573 C566 1.356 . S
N573 H576 0.984 . S
N573 H577 0.985 . S
H574 N569 0.984 . S
H575 N569 0.985 . S
H576 N573 0.984 . S
H577 N573 0.985 . S
H578 N572 0.984 . S
H579 N572 0.984 . S
H580 N568 0.984 . S
H581 N568 0.985 . S
C582 C583 1.363 . S
C582 C588 1.379 . S
C582 N590 1.356 . S
C583 C582 1.363 . S
C583 C589 1.363 . S
C584 C585 1.363 . S
C584 C589 1.379 . S
C584 N591 1.356 . S
C585 C584 1.363 . S
C585 C588 1.363 . S
N586 C588 1.356 . S
N586 H598 0.984 . S
N586 H599 0.985 . S
N587 C589 1.356 . S
N587 H592 0.984 . S
N587 H593 0.985 . S
C588 C582 1.379 . S
C588 C585 1.363 . S
C588 N586 1.356 . S
C589 C583 1.363 . S
C589 C584 1.379 . S
C589 N587 1.356 . S
N590 C582 1.356 . S
N590 H596 0.984 . S
N590 H597 0.984 . S
N591 C584 1.356 . S
N591 H594 0.984 . S
N591 H595 0.985 . S
H592 N587 0.984 . S
H593 N587 0.985 . S
H594 N591 0.984 . S
H595 N591 0.985 . S
H596 N590 0.984 . S
H597 N590 0.984 . S
H598 N586 0.984 . S
H599 N586 0.985 . S
C169 C74 1.605 . S
C171 C96 1.648 . S
C189 C126 1.850 . S
C187 C85 1.820 . S
C207 C136 1.578 . S
C205 C52 1.499 . S
C225 C156 1.491 . S
C223 C63 1.440 . S
C243 C97 1.649 1_565 S
C241 C30 1.577 . S
C259 C41 1.744 . S
C261 C127 1.850 . S
C277 C8 1.526 . S
C279 C137 1.578 . S
C295 C19 1.399 . S
C297 C157 1.491 1_655 S
C315 C89 1.109 . S
C313 C62 1.126 . S
C333 C110 0.883 1_545 S
C331 C73 0.897 . S
C351 C129 1.305 . S
C349 C84 1.319 . S
C367 C51 0.990 . S
C369 C149 0.988 . S
C385 C18 1.054 . S
C387 C90 1.109 . S
C405 C109 0.883 . S
C403 C29 0.871 . S
C423 C130 1.305 . S
C421 C40 1.190 . S
C439 C7 0.980 . S
C441 C150 0.988 . S
C457 C60 1.404 . S
C459 C107 1.719 . S
C475 C71 1.265 . S
C477 C117 1.607 . S
C495 C147 1.915 . S
C493 C82 1.613 . S
C513 C167 1.845 . S
C511 C49 1.364 . S
C529 C16 1.306 . S
C531 C106 1.719 . S
C549 C116 1.606 . S
C547 C27 1.188 . S
C567 C146 1.915 . S
C565 C38 1.376 . S
C583 C5 1.572 . S
C585 C166 1.845 . S
