# Generated by pormake.
# Topology gar, (4,6)-cn, num edge types: 1
# Building blocks:
#     Node 0, Type 0, BuildingBlock: NAHDIM_clean_sbu_0, # of connection points: 4
#     Node 1, Type 0, BuildingBlock: NAHDIM_clean_sbu_0, # of connection points: 4
#     Node 2, Type 0, BuildingBlock: NAHDIM_clean_sbu_0, # of connection points: 4
#     Node 3, Type 0, BuildingBlock: NAHDIM_clean_sbu_0, # of connection points: 4
#     Node 4, Type 0, BuildingBlock: NAHDIM_clean_sbu_0, # of connection points: 4
#     Node 5, Type 0, BuildingBlock: NAHDIM_clean_sbu_0, # of connection points: 4
#     Node 6, Type 0, BuildingBlock: NAHDIM_clean_sbu_0, # of connection points: 4
#     Node 7, Type 0, BuildingBlock: NAHDIM_clean_sbu_0, # of connection points: 4
#     Node 8, Type 0, BuildingBlock: NAHDIM_clean_sbu_0, # of connection points: 4
#     Node 9, Type 0, BuildingBlock: NAHDIM_clean_sbu_0, # of connection points: 4
#     Node 10, Type 0, BuildingBlock: NAHDIM_clean_sbu_0, # of connection points: 4
#     Node 11, Type 0, BuildingBlock: NAHDIM_clean_sbu_0, # of connection points: 4
#     Node 12, Type 0, BuildingBlock: NAHDIM_clean_sbu_0, # of connection points: 4
#     Node 13, Type 0, BuildingBlock: NAHDIM_clean_sbu_0, # of connection points: 4
#     Node 14, Type 0, BuildingBlock: NAHDIM_clean_sbu_0, # of connection points: 4
#     Node 15, Type 0, BuildingBlock: NAHDIM_clean_sbu_0, # of connection points: 4
#     Node 16, Type 0, BuildingBlock: NAHDIM_clean_sbu_0, # of connection points: 4
#     Node 17, Type 0, BuildingBlock: NAHDIM_clean_sbu_0, # of connection points: 4
#     Node 18, Type 0, BuildingBlock: NAHDIM_clean_sbu_0, # of connection points: 4
#     Node 19, Type 0, BuildingBlock: NAHDIM_clean_sbu_0, # of connection points: 4
#     Node 20, Type 0, BuildingBlock: NAHDIM_clean_sbu_0, # of connection points: 4
#     Node 21, Type 0, BuildingBlock: NAHDIM_clean_sbu_0, # of connection points: 4
#     Node 22, Type 0, BuildingBlock: NAHDIM_clean_sbu_0, # of connection points: 4
#     Node 23, Type 0, BuildingBlock: NAHDIM_clean_sbu_0, # of connection points: 4
#     Node 24, Type 1, BuildingBlock: BETDAH_clean_sbu_0, # of connection points: 6
#     Node 25, Type 1, BuildingBlock: BETDAH_clean_sbu_0, # of connection points: 6
#     Node 26, Type 1, BuildingBlock: BETDAH_clean_sbu_0, # of connection points: 6
#     Node 27, Type 1, BuildingBlock: BETDAH_clean_sbu_0, # of connection points: 6
#     Node 28, Type 1, BuildingBlock: BETDAH_clean_sbu_0, # of connection points: 6
#     Node 29, Type 1, BuildingBlock: BETDAH_clean_sbu_0, # of connection points: 6
#     Node 30, Type 1, BuildingBlock: BETDAH_clean_sbu_0, # of connection points: 6
#     Node 31, Type 1, BuildingBlock: BETDAH_clean_sbu_0, # of connection points: 6
#     Node 32, Type 1, BuildingBlock: BETDAH_clean_sbu_0, # of connection points: 6
#     Node 33, Type 1, BuildingBlock: BETDAH_clean_sbu_0, # of connection points: 6
#     Node 34, Type 1, BuildingBlock: BETDAH_clean_sbu_0, # of connection points: 6
#     Node 35, Type 1, BuildingBlock: BETDAH_clean_sbu_0, # of connection points: 6
#     Node 36, Type 1, BuildingBlock: BETDAH_clean_sbu_0, # of connection points: 6
#     Node 37, Type 1, BuildingBlock: BETDAH_clean_sbu_0, # of connection points: 6
#     Node 38, Type 1, BuildingBlock: BETDAH_clean_sbu_0, # of connection points: 6
#     Node 39, Type 1, BuildingBlock: BETDAH_clean_sbu_0, # of connection points: 6
#     Edge 40, Type (0, 1), BuildingBlock: MIFKUJ_clean_linker_0, # of connection points: 2
#     Edge 41, Type (0, 1), BuildingBlock: MIFKUJ_clean_linker_0, # of connection points: 2
#     Edge 42, Type (0, 1), BuildingBlock: MIFKUJ_clean_linker_0, # of connection points: 2
#     Edge 43, Type (0, 1), BuildingBlock: MIFKUJ_clean_linker_0, # of connection points: 2
#     Edge 44, Type (0, 1), BuildingBlock: MIFKUJ_clean_linker_0, # of connection points: 2
#     Edge 45, Type (0, 1), BuildingBlock: MIFKUJ_clean_linker_0, # of connection points: 2
#     Edge 46, Type (0, 1), BuildingBlock: MIFKUJ_clean_linker_0, # of connection points: 2
#     Edge 47, Type (0, 1), BuildingBlock: MIFKUJ_clean_linker_0, # of connection points: 2
#     Edge 48, Type (0, 1), BuildingBlock: MIFKUJ_clean_linker_0, # of connection points: 2
#     Edge 49, Type (0, 1), BuildingBlock: MIFKUJ_clean_linker_0, # of connection points: 2
#     Edge 50, Type (0, 1), BuildingBlock: MIFKUJ_clean_linker_0, # of connection points: 2
#     Edge 51, Type (0, 1), BuildingBlock: MIFKUJ_clean_linker_0, # of connection points: 2
#     Edge 52, Type (0, 1), BuildingBlock: MIFKUJ_clean_linker_0, # of connection points: 2
#     Edge 53, Type (0, 1), BuildingBlock: MIFKUJ_clean_linker_0, # of connection points: 2
#     Edge 54, Type (0, 1), BuildingBlock: MIFKUJ_clean_linker_0, # of connection points: 2
#     Edge 55, Type (0, 1), BuildingBlock: MIFKUJ_clean_linker_0, # of connection points: 2
#     Edge 56, Type (0, 1), BuildingBlock: MIFKUJ_clean_linker_0, # of connection points: 2
#     Edge 57, Type (0, 1), BuildingBlock: MIFKUJ_clean_linker_0, # of connection points: 2
#     Edge 58, Type (0, 1), BuildingBlock: MIFKUJ_clean_linker_0, # of connection points: 2
#     Edge 59, Type (0, 1), BuildingBlock: MIFKUJ_clean_linker_0, # of connection points: 2
#     Edge 60, Type (0, 1), BuildingBlock: MIFKUJ_clean_linker_0, # of connection points: 2
#     Edge 61, Type (0, 1), BuildingBlock: MIFKUJ_clean_linker_0, # of connection points: 2
#     Edge 62, Type (0, 1), BuildingBlock: MIFKUJ_clean_linker_0, # of connection points: 2
#     Edge 63, Type (0, 1), BuildingBlock: MIFKUJ_clean_linker_0, # of connection points: 2
#     Edge 64, Type (0, 1), BuildingBlock: MIFKUJ_clean_linker_0, # of connection points: 2
#     Edge 65, Type (0, 1), BuildingBlock: MIFKUJ_clean_linker_0, # of connection points: 2
#     Edge 66, Type (0, 1), BuildingBlock: MIFKUJ_clean_linker_0, # of connection points: 2
#     Edge 67, Type (0, 1), BuildingBlock: MIFKUJ_clean_linker_0, # of connection points: 2
#     Edge 68, Type (0, 1), BuildingBlock: MIFKUJ_clean_linker_0, # of connection points: 2
#     Edge 69, Type (0, 1), BuildingBlock: MIFKUJ_clean_linker_0, # of connection points: 2
#     Edge 70, Type (0, 1), BuildingBlock: MIFKUJ_clean_linker_0, # of connection points: 2
#     Edge 71, Type (0, 1), BuildingBlock: MIFKUJ_clean_linker_0, # of connection points: 2
#     Edge 72, Type (0, 1), BuildingBlock: MIFKUJ_clean_linker_0, # of connection points: 2
#     Edge 73, Type (0, 1), BuildingBlock: MIFKUJ_clean_linker_0, # of connection points: 2
#     Edge 74, Type (0, 1), BuildingBlock: MIFKUJ_clean_linker_0, # of connection points: 2
#     Edge 75, Type (0, 1), BuildingBlock: MIFKUJ_clean_linker_0, # of connection points: 2
#     Edge 76, Type (0, 1), BuildingBlock: MIFKUJ_clean_linker_0, # of connection points: 2
#     Edge 77, Type (0, 1), BuildingBlock: MIFKUJ_clean_linker_0, # of connection points: 2
#     Edge 78, Type (0, 1), BuildingBlock: MIFKUJ_clean_linker_0, # of connection points: 2
#     Edge 79, Type (0, 1), BuildingBlock: MIFKUJ_clean_linker_0, # of connection points: 2
#     Edge 80, Type (0, 1), BuildingBlock: MIFKUJ_clean_linker_0, # of connection points: 2
#     Edge 81, Type (0, 1), BuildingBlock: MIFKUJ_clean_linker_0, # of connection points: 2
#     Edge 82, Type (0, 1), BuildingBlock: MIFKUJ_clean_linker_0, # of connection points: 2
#     Edge 83, Type (0, 1), BuildingBlock: MIFKUJ_clean_linker_0, # of connection points: 2
#     Edge 84, Type (0, 1), BuildingBlock: MIFKUJ_clean_linker_0, # of connection points: 2
#     Edge 85, Type (0, 1), BuildingBlock: MIFKUJ_clean_linker_0, # of connection points: 2
#     Edge 86, Type (0, 1), BuildingBlock: MIFKUJ_clean_linker_0, # of connection points: 2
#     Edge 87, Type (0, 1), BuildingBlock: MIFKUJ_clean_linker_0, # of connection points: 2
#     Edge 88, Type (0, 1), BuildingBlock: MIFKUJ_clean_linker_0, # of connection points: 2
#     Edge 89, Type (0, 1), BuildingBlock: MIFKUJ_clean_linker_0, # of connection points: 2
#     Edge 90, Type (0, 1), BuildingBlock: MIFKUJ_clean_linker_0, # of connection points: 2
#     Edge 91, Type (0, 1), BuildingBlock: MIFKUJ_clean_linker_0, # of connection points: 2
#     Edge 92, Type (0, 1), BuildingBlock: MIFKUJ_clean_linker_0, # of connection points: 2
#     Edge 93, Type (0, 1), BuildingBlock: MIFKUJ_clean_linker_0, # of connection points: 2
#     Edge 94, Type (0, 1), BuildingBlock: MIFKUJ_clean_linker_0, # of connection points: 2
#     Edge 95, Type (0, 1), BuildingBlock: MIFKUJ_clean_linker_0, # of connection points: 2
#     Edge 96, Type (0, 1), BuildingBlock: MIFKUJ_clean_linker_0, # of connection points: 2
#     Edge 97, Type (0, 1), BuildingBlock: MIFKUJ_clean_linker_0, # of connection points: 2
#     Edge 98, Type (0, 1), BuildingBlock: MIFKUJ_clean_linker_0, # of connection points: 2
#     Edge 99, Type (0, 1), BuildingBlock: MIFKUJ_clean_linker_0, # of connection points: 2
#     Edge 100, Type (0, 1), BuildingBlock: MIFKUJ_clean_linker_0, # of connection points: 2
#     Edge 101, Type (0, 1), BuildingBlock: MIFKUJ_clean_linker_0, # of connection points: 2
#     Edge 102, Type (0, 1), BuildingBlock: MIFKUJ_clean_linker_0, # of connection points: 2
#     Edge 103, Type (0, 1), BuildingBlock: MIFKUJ_clean_linker_0, # of connection points: 2
#     Edge 104, Type (0, 1), BuildingBlock: MIFKUJ_clean_linker_0, # of connection points: 2
#     Edge 105, Type (0, 1), BuildingBlock: MIFKUJ_clean_linker_0, # of connection points: 2
#     Edge 106, Type (0, 1), BuildingBlock: MIFKUJ_clean_linker_0, # of connection points: 2
#     Edge 107, Type (0, 1), BuildingBlock: MIFKUJ_clean_linker_0, # of connection points: 2
#     Edge 108, Type (0, 1), BuildingBlock: MIFKUJ_clean_linker_0, # of connection points: 2
#     Edge 109, Type (0, 1), BuildingBlock: MIFKUJ_clean_linker_0, # of connection points: 2
#     Edge 110, Type (0, 1), BuildingBlock: MIFKUJ_clean_linker_0, # of connection points: 2
#     Edge 111, Type (0, 1), BuildingBlock: MIFKUJ_clean_linker_0, # of connection points: 2
#     Edge 112, Type (0, 1), BuildingBlock: MIFKUJ_clean_linker_0, # of connection points: 2
#     Edge 113, Type (0, 1), BuildingBlock: MIFKUJ_clean_linker_0, # of connection points: 2
#     Edge 114, Type (0, 1), BuildingBlock: MIFKUJ_clean_linker_0, # of connection points: 2
#     Edge 115, Type (0, 1), BuildingBlock: MIFKUJ_clean_linker_0, # of connection points: 2
#     Edge 116, Type (0, 1), BuildingBlock: MIFKUJ_clean_linker_0, # of connection points: 2
#     Edge 117, Type (0, 1), BuildingBlock: MIFKUJ_clean_linker_0, # of connection points: 2
#     Edge 118, Type (0, 1), BuildingBlock: MIFKUJ_clean_linker_0, # of connection points: 2
#     Edge 119, Type (0, 1), BuildingBlock: MIFKUJ_clean_linker_0, # of connection points: 2
#     Edge 120, Type (0, 1), BuildingBlock: MIFKUJ_clean_linker_0, # of connection points: 2
#     Edge 121, Type (0, 1), BuildingBlock: MIFKUJ_clean_linker_0, # of connection points: 2
#     Edge 122, Type (0, 1), BuildingBlock: MIFKUJ_clean_linker_0, # of connection points: 2
#     Edge 123, Type (0, 1), BuildingBlock: MIFKUJ_clean_linker_0, # of connection points: 2
#     Edge 124, Type (0, 1), BuildingBlock: MIFKUJ_clean_linker_0, # of connection points: 2
#     Edge 125, Type (0, 1), BuildingBlock: MIFKUJ_clean_linker_0, # of connection points: 2
#     Edge 126, Type (0, 1), BuildingBlock: MIFKUJ_clean_linker_0, # of connection points: 2
#     Edge 127, Type (0, 1), BuildingBlock: MIFKUJ_clean_linker_0, # of connection points: 2
#     Edge 128, Type (0, 1), BuildingBlock: MIFKUJ_clean_linker_0, # of connection points: 2
#     Edge 129, Type (0, 1), BuildingBlock: MIFKUJ_clean_linker_0, # of connection points: 2
#     Edge 130, Type (0, 1), BuildingBlock: MIFKUJ_clean_linker_0, # of connection points: 2
#     Edge 131, Type (0, 1), BuildingBlock: MIFKUJ_clean_linker_0, # of connection points: 2
#     Edge 132, Type (0, 1), BuildingBlock: MIFKUJ_clean_linker_0, # of connection points: 2
#     Edge 133, Type (0, 1), BuildingBlock: MIFKUJ_clean_linker_0, # of connection points: 2
#     Edge 134, Type (0, 1), BuildingBlock: MIFKUJ_clean_linker_0, # of connection points: 2
#     Edge 135, Type (0, 1), BuildingBlock: MIFKUJ_clean_linker_0, # of connection points: 2
# Relax obj value: 0.177
# Max RMSD: 0.281
# Mean RMSD: 0.177
data_MOF--net-gar--node1-NAHDIM_clean_sbu_0--node2-BETDAH_clean_sbu_0--edge1-MIFKUJ_clean_linker_0
_symmetry_space_group_name_H-M    P1
_symmetry_Int_Tables_number       1
_symmetry_cell_setting            triclinic
loop_
_symmetry_equiv_pos_as_xyz
'x, y, z'
_cell_length_a     79.542068
_cell_length_b     73.145358
_cell_length_c     71.954354
_cell_angle_alpha  98.854895
_cell_angle_beta   95.397781
_cell_angle_gamma 103.34744
loop_
_atom_site_label
_atom_site_type_symbol
_atom_site_fract_x
_atom_site_fract_y
_atom_site_fract_z
_atom_type_partial_charge
C0 C 0.11928 0.31826 0.36435 0.0
O1 O 0.12329 0.32366 0.38283 0.0
O2 O 0.083 0.28819 0.38703 0.0
Zn3 Zn 0.08449 0.3098 0.37277 0.0
O4 O 0.08696 0.3349 0.38969 0.0
C5 C 0.04871 0.29369 0.35858 0.0
O6 O 0.0493 0.28507 0.37326 0.0
O7 O 0.10348 0.31158 0.35718 0.0
C8 C 0.0737 0.337 0.39749 0.0
O9 O 0.05988 0.32258 0.39495 0.0
C10 C 0.08316 0.29026 0.40489 0.0
O11 O 0.0868 0.30752 0.41509 0.0
O12 O 0.06245 0.30467 0.35515 0.0
C13 C 0.96295 0.74142 0.66496 0.0
O14 O 0.96473 0.72393 0.66041 0.0
O15 O 0.98831 0.72474 0.63064 0.0
Zn16 Zn 0.99113 0.75157 0.64344 0.0
O17 O 0.99359 0.77007 0.62587 0.0
C18 C 0.01755 0.74601 0.66956 0.0
O19 O 0.00672 0.72912 0.66793 0.0
O20 O 0.97249 0.75492 0.65877 0.0
C21 C 0.00826 0.77524 0.62015 0.0
O22 O 0.0207 0.76692 0.62456 0.0
C23 C 0.98905 0.71997 0.61313 0.0
O24 O 0.99024 0.73276 0.60207 0.0
O25 O 0.01325 0.75833 0.66078 0.0
C26 C 0.61824 0.81478 0.86734 0.0
O27 O 0.62206 0.81888 0.88591 0.0
O28 O 0.5821 0.79078 0.89134 0.0
Zn29 Zn 0.58312 0.81036 0.87454 0.0
O30 O 0.58498 0.83619 0.8898 0.0
C31 C 0.5491 0.78931 0.85568 0.0
O32 O 0.55028 0.77781 0.86776 0.0
O33 O 0.60253 0.81088 0.85983 0.0
C34 C 0.57081 0.84105 0.89168 0.0
O35 O 0.55597 0.8293 0.88348 0.0
C36 C 0.57217 0.79074 0.90416 0.0
O37 O 0.56399 0.80437 0.90707 0.0
O38 O 0.56172 0.80346 0.85555 0.0
C39 C 0.46147 0.24061 0.16116 0.0
O40 O 0.45868 0.22417 0.14955 0.0
O41 O 0.49243 0.22627 0.13176 0.0
Zn42 Zn 0.49311 0.25233 0.14462 0.0
O43 O 0.49474 0.2709 0.12718 0.0
C44 C 0.51845 0.24954 0.1733 0.0
O45 O 0.50646 0.23439 0.17497 0.0
O46 O 0.47467 0.25394 0.16065 0.0
C47 C 0.50959 0.27624 0.12188 0.0
O48 O 0.5219 0.2678 0.12639 0.0
C49 C 0.48787 0.21935 0.1143 0.0
O50 O 0.48111 0.22904 0.10299 0.0
O51 O 0.51517 0.26001 0.16169 0.0
C52 C 0.03242 0.7946 0.1299 0.0
O53 O 0.03067 0.79293 0.11135 0.0
O54 O 0.06669 0.77936 0.10555 0.0
Zn55 Zn 0.06929 0.80392 0.12451 0.0
O56 O 0.06892 0.82779 0.11176 0.0
C57 C 0.10707 0.80666 0.13729 0.0
O58 O 0.10889 0.80903 0.11979 0.0
O59 O 0.0478 0.79943 0.13906 0.0
C60 C 0.07148 0.82973 0.09481 0.0
O61 O 0.07622 0.81614 0.08399 0.0
C62 C 0.05785 0.77242 0.08927 0.0
O63 O 0.04835 0.78231 0.08126 0.0
O64 O 0.09204 0.80546 0.14274 0.0
C65 C 0.54314 0.78137 0.39104 0.0
O66 O 0.54031 0.79689 0.40067 0.0
O67 O 0.51217 0.74102 0.42005 0.0
Zn68 Zn 0.51082 0.76303 0.40514 0.0
O69 O 0.51557 0.78866 0.42324 0.0
C70 C 0.47559 0.76796 0.39226 0.0
O71 O 0.47823 0.77807 0.40945 0.0
O72 O 0.53204 0.76542 0.3901 0.0
C73 C 0.50944 0.79339 0.43844 0.0
O74 O 0.49801 0.78063 0.44479 0.0
C75 C 0.50053 0.73032 0.42736 0.0
O76 O 0.48463 0.73271 0.42586 0.0
O77 O 0.48721 0.7594 0.3871 0.0
C78 C 0.53289 0.29072 0.63052 0.0
O79 O 0.53114 0.2834 0.61238 0.0
O80 O 0.56287 0.27814 0.60372 0.0
Zn81 Zn 0.56849 0.30307 0.62274 0.0
O82 O 0.5661 0.32523 0.60834 0.0
C83 C 0.60284 0.29467 0.63432 0.0
O84 O 0.59779 0.28218 0.61848 0.0
O85 O 0.54804 0.30005 0.63887 0.0
C86 C 0.577 0.33569 0.6 0.0
O87 O 0.59288 0.33329 0.6003 0.0
C88 C 0.56888 0.27493 0.5881 0.0
O89 O 0.58004 0.28877 0.5828 0.0
O90 O 0.59297 0.30572 0.63922 0.0
C91 C 0.04458 0.27948 0.89676 0.0
O92 O 0.04443 0.29184 0.91201 0.0
O93 O 0.0083 0.23725 0.91691 0.0
Zn94 Zn 0.00937 0.26133 0.90481 0.0
O95 O 0.0119 0.2851 0.92508 0.0
C96 C 0.97259 0.25986 0.89228 0.0
O97 O 0.97207 0.26159 0.91066 0.0
O98 O 0.03119 0.26554 0.89092 0.0
C99 C 0.00767 0.29925 0.91935 0.0
O100 O 1.00198 0.29761 0.90129 0.0
C101 C 0.01594 0.23804 0.93354 0.0
O102 O 0.02419 0.25483 0.94357 0.0
O103 O 0.98691 0.2586 0.88609 0.0
C104 C 0.40321 0.06738 0.28786 0.0
O105 O 0.42033 0.07131 0.2898 0.0
O106 O 0.42524 0.03988 0.26337 0.0
Zn107 Zn 0.40799 0.0312 0.2805 0.0
O108 O 0.41885 0.02591 0.30429 0.0
C109 C 0.3967 0.99775 0.25182 0.0
O110 O 0.41223 0.00346 0.24686 0.0
O111 O 0.39462 0.05015 0.28551 0.0
C112 C 0.42639 0.01237 0.30354 0.0
O113 O 0.42699 1.00211 0.28706 0.0
C114 C 0.44115 0.03958 0.26575 0.0
O115 O 0.44845 0.03883 0.28266 0.0
O116 O 0.39214 0.00737 0.26587 0.0
C117 C 0.31357 0.16687 0.50049 0.0
O118 O 0.31677 0.18534 0.50068 0.0
O119 O 0.28062 0.18844 0.52058 0.0
Zn120 Zn 0.27849 0.17154 0.4951 0.0
O121 O 0.28312 0.18739 0.47379 0.0
C122 C 0.24061 0.15976 0.49525 0.0
O123 O 0.24289 0.17826 0.50061 0.0
O124 O 0.29772 0.15717 0.49785 0.0
C125 C 0.27194 0.19392 0.46471 0.0
O126 O 0.25593 0.19055 0.46887 0.0
C127 C 0.28784 0.20614 0.5259 0.0
O128 O 0.29501 0.2161 0.5137 0.0
O129 O 0.25374 0.15325 0.49148 0.0
C130 C 0.16969 0.9676 0.7671 0.0
O131 O 0.15286 0.96106 0.76714 0.0
O132 O 0.14411 0.00918 0.74425 0.0
Zn133 Zn 0.16037 0.00941 0.77082 0.0
O134 O 0.14563 0.00793 0.79603 0.0
C135 C 0.17407 0.05156 0.76602 0.0
O136 O 0.15844 0.04755 0.75634 0.0
O137 O 0.17537 0.98599 0.76818 0.0
C138 C 0.13595 0.01874 0.80272 0.0
O139 O 0.13384 0.03241 0.79352 0.0
C140 C 0.13199 0.99733 0.73215 0.0
O141 O 0.12659 0.97985 0.73532 0.0
O142 O 0.17823 0.03828 0.77413 0.0
C143 C 0.26257 0.93886 0.99911 0.0
O144 O 0.25906 0.92041 0.99256 0.0
O145 O 0.28987 0.91674 0.02431 0.0
Zn146 Zn 0.29554 0.93332 0.00517 0.0
O147 O 0.29709 0.91849 0.98008 0.0
C148 C 0.3286 0.94643 0.02733 0.0
O149 O 0.32315 0.93088 0.03426 0.0
O150 O 0.27825 0.9482 0.00407 0.0
C151 C 0.3083 0.90864 0.97939 0.0
O152 O 0.31809 0.90822 0.99499 0.0
C153 C 0.28771 0.89881 0.02241 0.0
O154 O 0.28534 0.8884 0.00535 0.0
O155 O 0.3187 0.95085 0.01482 0.0
C156 C 0.26306 0.399 0.02876 0.0
O157 O 0.25912 0.38169 0.0327 0.0
O158 O 0.29588 0.38121 0.0568 0.0
Zn159 Zn 0.2979 0.39253 0.03212 0.0
O160 O 0.29266 0.37197 0.00822 0.0
C161 C 0.33671 0.40695 0.03762 0.0
O162 O 0.33635 0.39157 0.04507 0.0
O163 O 0.27902 0.40711 0.02844 0.0
C164 C 0.30418 0.36472 1.00102 0.0
O165 O 0.32004 0.36922 0.0102 0.0
C166 C 0.29848 0.36499 0.05876 0.0
O167 O 0.30296 0.3546 0.04439 0.0
O168 O 0.32229 0.41055 0.03205 0.0
C169 C 0.81538 0.1332 0.01355 0.0
O170 O 0.81461 0.14931 0.00803 0.0
O171 O 0.78803 0.15489 0.05351 0.0
Zn172 Zn 0.7853 0.13845 0.02808 0.0
O173 O 0.78229 0.15306 0.00727 0.0
C174 C 0.75087 0.12914 0.02372 0.0
O175 O 0.75555 0.14776 0.02927 0.0
O176 O 0.80439 0.12595 0.02375 0.0
C177 C 0.77494 0.14339 0.9912 0.0
O178 O 0.77116 0.12464 0.9886 0.0
C179 C 0.78785 0.17227 0.05413 0.0
O180 O 0.78872 0.1795 0.03854 0.0
O181 O 0.76241 0.11973 0.02433 0.0
C182 C 0.16764 0.49694 0.24954 0.0
O183 O 0.15296 0.49736 0.25636 0.0
O184 O 0.14614 0.5236 0.21212 0.0
Zn185 Zn 0.16121 0.52825 0.23643 0.0
O186 O 0.14931 0.53285 0.25937 0.0
C187 C 0.1737 0.56607 0.23439 0.0
O188 O 0.15915 0.56258 0.22271 0.0
O189 O 0.17319 0.5082 0.23856 0.0
C190 C 0.14185 0.5463 0.26314 0.0
O191 O 0.13932 0.55679 0.25041 0.0
C192 C 0.12994 0.52202 0.21171 0.0
O193 O 0.1227 0.52067 0.22726 0.0
O194 O 0.17896 0.55232 0.23947 0.0
C195 C 0.76419 0.90241 0.53203 0.0
O196 O 0.76062 0.88661 0.53901 0.0
O197 O 0.79905 0.88193 0.55484 0.0
Zn198 Zn 0.79909 0.89475 0.53103 0.0
O199 O 0.79431 0.87599 0.50615 0.0
C200 C 0.83684 0.9068 0.53067 0.0
O201 O 0.83534 0.88854 0.53069 0.0
O202 O 0.77969 0.909 0.52867 0.0
C203 C 0.79759 0.85979 0.50178 0.0
O204 O 0.80502 0.8525 0.51493 0.0
C205 C 0.78902 0.866 0.55632 0.0
O206 O 0.77762 0.85636 0.54167 0.0
O207 O 0.82318 0.91312 0.53124 0.0
C208 C 0.90141 0.09669 0.267 0.0
O209 O 0.91158 0.0986 0.28302 0.0
O210 O 0.92842 0.05478 0.22752 0.0
Zn211 Zn 0.91563 0.05843 0.25408 0.0
O212 O 0.93332 0.06314 0.28064 0.0
C213 C 0.89823 0.01426 0.24586 0.0
O214 O 0.90895 0.01388 0.23306 0.0
O215 O 0.90101 0.08205 0.25395 0.0
C216 C 0.94052 0.05023 0.28568 0.0
O217 O 0.93816 0.03428 0.27341 0.0
C218 C 0.94389 0.06248 0.2239 0.0
O219 O 0.9546 0.0746 0.23777 0.0
O220 O 0.89815 0.0307 0.2554 0.0
C221 C 0.31809 0.63609 0.51522 0.0
O222 O 0.31839 0.65293 0.51084 0.0
O223 O 0.28793 0.65611 0.5532 0.0
Zn224 Zn 0.28688 0.64073 0.52749 0.0
O225 O 0.28516 0.65639 0.50747 0.0
C226 C 0.25198 0.62947 0.51892 0.0
O227 O 0.25538 0.6482 0.52279 0.0
O228 O 0.30621 0.62839 0.52419 0.0
C229 C 0.2816 0.6478 0.49037 0.0
O230 O 0.28155 0.62965 0.48623 0.0
C231 C 0.28629 0.67306 0.55407 0.0
O232 O 0.2862 0.68052 0.53861 0.0
O233 O 0.26426 0.62136 0.52155 0.0
C234 C 0.40579 0.59968 0.76049 0.0
O235 O 0.42265 0.6068 0.76538 0.0
O236 O 0.429 0.55428 0.72856 0.0
Zn237 Zn 0.41578 0.5579 0.75505 0.0
O238 O 0.4338 0.56334 0.78164 0.0
C239 C 0.4003 0.51312 0.74898 0.0
O240 O 0.41339 0.51282 0.73917 0.0
O241 O 0.40042 0.58111 0.75583 0.0
C242 C 0.44026 0.55038 0.78779 0.0
O243 O 0.43674 0.53354 0.77675 0.0
C244 C 0.44223 0.56518 0.72304 0.0
O245 O 0.44983 0.58148 0.73437 0.0
O246 O 0.39829 0.5297 0.75619 0.0
C247 C 0.67302 0.99926 0.73533 0.0
O248 O 0.65622 0.99122 0.73174 0.0
O249 O 0.64635 0.03103 0.71578 0.0
Zn250 Zn 0.66108 0.03194 0.73944 0.0
O251 O 0.64744 0.02503 0.76006 0.0
C252 C 0.66714 0.07216 0.74655 0.0
O253 O 0.65345 0.06901 0.7337 0.0
O254 O 0.67836 0.01715 0.73713 0.0
C255 C 0.63682 0.0352 0.76355 0.0
O256 O 0.63254 0.04513 0.751 0.0
C257 C 0.63083 0.02093 0.71175 0.0
O258 O 0.62469 0.00836 0.7222 0.0
O259 O 0.67357 0.05848 0.74977 0.0
C260 C 0.81259 0.66692 0.99665 0.0
O261 O 0.81565 0.68351 0.99106 0.0
O262 O 0.77702 0.69075 0.01739 0.0
Zn263 Zn 0.77655 0.67147 0.99367 0.0
O264 O 0.77825 0.68372 0.96951 0.0
C265 C 0.73867 0.65771 0.98966 0.0
O266 O 0.73975 0.67502 0.98614 0.0
O267 O 0.79692 0.65869 0.99823 0.0
C268 C 0.78178 0.70168 0.96965 0.0
O269 O 0.78427 0.71341 0.98599 0.0
C270 C 0.78986 0.70357 0.02688 0.0
O271 O 0.80511 0.70633 0.02075 0.0
O272 O 0.75271 0.65226 0.99231 0.0
C273 C 0.90253 0.56388 0.78564 0.0
O274 O 0.91966 0.56821 0.78861 0.0
O275 O 0.92538 0.53709 0.76218 0.0
Zn276 Zn 0.9096 0.52942 0.78087 0.0
O277 O 0.92279 0.52854 0.80513 0.0
C278 C 0.89474 0.49682 0.75206 0.0
O279 O 0.89904 0.50837 0.74005 0.0
O280 O 0.8942 0.54657 0.78357 0.0
C281 C 0.92899 0.5141 0.80548 0.0
O282 O 0.92706 0.50117 0.7901 0.0
C283 C 0.94161 0.53835 0.76445 0.0
O284 O 0.94947 0.53831 0.78129 0.0
O285 O 0.89657 0.50326 0.76973 0.0
C286 C 0.76084 0.4339 0.50708 0.0
O287 O 0.75938 0.41576 0.50776 0.0
O288 O 0.79175 0.41295 0.52004 0.0
Zn289 Zn 0.79408 0.43135 0.50224 0.0
O290 O 0.79376 0.41667 0.47668 0.0
C291 C 0.82531 0.45097 0.52688 0.0
O292 O 0.81824 0.44052 0.53874 0.0
O293 O 0.77496 0.44398 0.5035 0.0
C294 C 0.80791 0.41654 0.46991 0.0
O295 O 0.82262 0.42801 0.47881 0.0
C296 C 0.79892 0.39914 0.51771 0.0
O297 O 0.806 0.39567 0.50221 0.0
O298 O 0.81692 0.45026 0.51078 0.0
C299 C 0.67134 0.4684 0.26474 0.0
O300 O 0.65451 0.46177 0.25922 0.0
O301 O 0.6457 0.50962 0.24507 0.0
Zn302 Zn 0.66224 0.51044 0.27164 0.0
O303 O 0.6487 0.51131 0.29771 0.0
C304 C 0.67566 0.55237 0.26639 0.0
O305 O 0.65964 0.54855 0.2577 0.0
O306 O 0.67705 0.48687 0.26993 0.0
C307 C 0.63233 0.50838 0.29981 0.0
O308 O 0.62099 0.50388 0.28432 0.0
C309 C 0.63212 0.49841 0.23448 0.0
O310 O 0.62498 0.48229 0.23974 0.0
O311 O 0.68023 0.53897 0.27393 0.0
Ho312 Ho 0.02014 0.01952 0.9993 0.0
Ho313 Ho 0.05399 0.0414 0.0238 0.0
C314 C 0.03218 0.06582 0.00301 0.0
C315 C 0.98748 0.00561 0.98697 0.0
C316 C 0.97249 0.01394 0.98784 0.0
C317 C 0.97219 0.02821 0.00317 0.0
C318 C 0.95899 0.03781 0.00277 0.0
C319 C 0.9461 0.03349 0.98692 0.0
C320 C 0.94641 0.01922 0.9716 0.0
C321 C 0.95952 0.00945 0.9721 0.0
C322 C 0.04609 0.01941 0.97609 0.0
C323 C 0.04164 0.9952 0.02081 0.0
C324 C 0.08678 0.05496 0.0354 0.0
C325 C 0.10126 0.04571 0.03603 0.0
C326 C 0.1043 0.03434 0.01976 0.0
C327 C 0.11636 0.02337 0.02121 0.0
C328 C 0.12537 0.02334 0.03899 0.0
C329 C 0.12253 0.035 0.05519 0.0
C330 C 0.11063 0.04618 0.05369 0.0
C331 C 0.02884 0.04229 0.04761 0.0
O332 O 0.01952 0.05001 0.99775 0.0
O333 O 0.04716 0.06606 0.01269 0.0
O334 O 0.99879 0.01341 0.9767 0.0
O335 O 0.99481 1.00285 0.00303 0.0
O336 O 0.02985 0.01064 0.97133 0.0
O337 O 0.04781 0.02698 0.99367 0.0
O338 O 0.05428 0.01099 0.02628 0.0
O339 O 0.02684 0.99487 0.01071 0.0
O340 O 0.07534 0.04941 0.04652 0.0
O341 O 0.07955 0.0562 0.01866 0.0
O342 O 0.04518 0.05089 0.05143 0.0
O343 O 0.02601 0.03412 0.02996 0.0
H344 H 0.9824 0.03227 0.0152 0.0
H345 H 0.95909 0.04896 0.01463 0.0
H346 H 0.93654 0.01567 0.95928 0.0
H347 H 0.95982 0.99874 0.96 0.0
H348 H 0.09709 0.03352 0.00598 0.0
H349 H 0.11859 0.01489 0.00839 0.0
H350 H 0.12918 0.03517 0.06908 0.0
H351 H 0.10825 0.05465 0.06644 0.0
Ho352 Ho 0.29783 0.77918 0.24113 0.0
Ho353 Ho 0.28538 0.78055 0.27704 0.0
C354 C 0.30273 0.81943 0.2682 0.0
C355 C 0.30675 0.78406 0.2084 0.0
C356 C 0.31857 0.79886 0.20093 0.0
C357 C 0.31626 0.81746 0.20248 0.0
C358 C 0.32537 0.83014 0.19216 0.0
C359 C 0.33699 0.82442 0.18025 0.0
C360 C 0.34086 0.80668 0.18071 0.0
C361 C 0.33155 0.7939 0.1908 0.0
C362 C 0.32178 0.77497 0.26883 0.0
C363 C 0.28105 0.74054 0.25018 0.0
C364 C 0.27611 0.77459 0.30948 0.0
C365 C 0.2666 0.75812 0.31699 0.0
C366 C 0.27495 0.74425 0.32189 0.0
C367 C 0.26656 0.73008 0.33115 0.0
C368 C 0.24966 0.7295 0.33572 0.0
C369 C 0.24088 0.74256 0.32963 0.0
C370 C 0.24931 0.75681 0.32044 0.0
C371 C 0.26179 0.78497 0.24891 0.0
O372 O 0.29954 0.81024 0.25056 0.0
O373 O 0.3012 0.81032 0.28247 0.0
O374 O 0.31409 0.77464 0.21929 0.0
O375 O 0.29291 0.7883 0.2145 0.0
O376 O 0.31816 0.76508 0.25182 0.0
O377 O 0.31253 0.78692 0.27054 0.0
O378 O 0.28498 0.74971 0.2678 0.0
O379 O 0.28146 0.74987 0.23607 0.0
O380 O 0.26705 0.78127 0.29734 0.0
O381 O 0.29147 0.77408 0.30478 0.0
O382 O 0.26525 0.79493 0.26591 0.0
O383 O 0.27078 0.77275 0.24761 0.0
H384 H 0.30661 0.82184 0.21062 0.0
H385 H 0.32202 0.84368 0.19221 0.0
H386 H 0.35008 0.80208 0.17206 0.0
H387 H 0.33377 0.77973 0.18978 0.0
H388 H 0.28826 0.74479 0.31937 0.0
H389 H 0.27383 0.72043 0.33588 0.0
H390 H 0.22779 0.74233 0.3328 0.0
H391 H 0.24252 0.76726 0.3167 0.0
Ho392 Ho 0.56042 0.03785 0.50628 0.0
Ho393 Ho 0.52022 0.03293 0.50783 0.0
C394 C 0.53345 0.99515 0.49976 0.0
C395 C 0.59229 0.03477 0.51094 0.0
C396 C 0.60216 0.01982 0.50754 0.0
C397 C 0.60646 0.01042 0.52222 0.0
C398 C 0.61726 0.99785 0.51985 0.0
C399 C 0.62421 0.99421 0.50273 0.0
C400 C 0.61926 1.00305 0.48773 0.0
C401 C 0.60851 0.01577 0.49015 0.0
C402 C 0.54086 0.03724 0.4738 0.0
C403 C 0.54699 0.07575 0.51442 0.0
C404 C 0.48819 0.03564 0.50347 0.0
C405 C 0.47755 0.04955 0.50844 0.0
C406 C 0.47743 0.06472 0.49857 0.0
C407 C 0.46591 0.07638 0.50197 0.0
C408 C 0.45413 0.07314 0.51527 0.0
C409 C 0.45465 0.05833 0.52553 0.0
C410 C 0.46616 0.04667 0.52212 0.0
C411 C 0.54011 0.03371 0.54018 0.0
O412 O 0.54951 0.00608 0.50544 0.0
O413 O 0.5199 1.0025 0.49675 0.0
O414 O 0.58541 0.04009 0.49606 0.0
O415 O 0.58212 0.0337 0.52428 0.0
O416 O 0.55695 0.0471 0.47805 0.0
O417 O 0.53661 0.02723 0.48607 0.0
O418 O 0.5309 0.06472 0.50967 0.0
O419 O 0.56085 0.06863 0.51626 0.0
O420 O 0.49473 0.02856 0.5173 0.0
O421 O 0.49893 0.03915 0.49099 0.0
O422 O 0.52419 0.02337 0.53589 0.0
O423 O 0.54405 0.04379 0.52794 0.0
H424 H 0.60181 0.01315 0.5358 0.0
H425 H 0.62058 0.99148 0.53177 0.0
H426 H 0.62377 1.00036 0.47409 0.0
H427 H 0.60546 0.0227 0.47847 0.0
H428 H 0.48589 0.0673 0.4878 0.0
H429 H 0.46576 0.08747 0.49361 0.0
H430 H 0.44597 0.05556 0.53606 0.0
H431 H 0.46584 0.03507 0.5299 0.0
Ho432 Ho 0.26822 0.28647 0.76022 0.0
Ho433 Ho 0.30516 0.2794 0.76343 0.0
C434 C 0.29125 0.29397 0.80153 0.0
C435 C 0.23506 0.28052 0.76241 0.0
C436 C 0.2228 0.28462 0.77602 0.0
C437 C 0.21662 0.27118 0.78741 0.0
C438 C 0.20358 0.27345 0.79864 0.0
C439 C 0.19622 0.28918 0.79879 0.0
C440 C 0.20281 0.30307 0.78801 0.0
C441 C 0.21589 0.30075 0.77662 0.0
C442 C 0.29247 0.32106 0.76147 0.0
C443 C 0.28385 0.27747 0.72221 0.0
C444 C 0.33638 0.2758 0.75899 0.0
C445 C 0.3493 0.2772 0.74522 0.0
C446 C 0.35897 0.2949 0.7421 0.0
C447 C 0.3725 0.29579 0.73077 0.0
C448 C 0.37674 0.27902 0.72231 0.0
C449 C 0.36665 0.26133 0.72495 0.0
C450 C 0.35319 0.26045 0.73628 0.0
C451 C 0.27885 0.249 0.76795 0.0
O452 O 0.27567 0.28953 0.79144 0.0
O453 O 0.30556 0.2933 0.79366 0.0
O454 O 0.24363 0.29438 0.75474 0.0
O455 O 0.24459 0.26902 0.76673 0.0
O456 O 0.2757 0.31873 0.76051 0.0
O457 O 0.29519 0.30469 0.76207 0.0
O458 O 0.29923 0.28125 0.73266 0.0
O459 O 0.26917 0.2763 0.72961 0.0
O460 O 0.32234 0.26176 0.7544 0.0
O461 O 0.33319 0.29151 0.76769 0.0
O462 O 0.29422 0.25464 0.7778 0.0
O463 O 0.27819 0.26009 0.75595 0.0
H464 H 0.2215 0.25851 0.78728 0.0
H465 H 0.19902 0.26264 0.807 0.0
H466 H 0.19737 0.31532 0.78776 0.0
H467 H 0.22021 0.31129 0.76792 0.0
H468 H 0.35639 0.30811 0.74876 0.0
H469 H 0.37979 0.30966 0.72884 0.0
H470 H 0.36959 0.24812 0.71888 0.0
H471 H 0.34614 0.24659 0.73854 0.0
Ho472 Ho 0.03668 0.05534 0.51958 0.0
Ho473 Ho 0.0389 0.01629 0.5074 0.0
C474 C 0.02431 0.0383 0.4751 0.0
C475 C 0.04087 0.09165 0.52882 0.0
C476 C 0.03796 0.10552 0.51673 0.0
C477 C 0.04664 0.10752 0.50073 0.0
C478 C 0.04319 0.11997 0.48886 0.0
C479 C 0.03086 0.13062 0.49258 0.0
C480 C 0.02191 0.12828 0.50836 0.0
C481 C 0.02547 0.11592 0.52034 0.0
C482 C 0.00612 0.02903 0.51832 0.0
C483 C 0.05075 0.03324 0.55184 0.0
C484 C 0.03474 0.97993 0.4983 0.0
C485 C 0.03536 0.96627 0.51118 0.0
C486 C 0.03109 0.97028 0.52962 0.0
C487 C 0.0328 0.95822 0.54249 0.0
C488 C 0.03867 0.94172 0.53715 0.0
C489 C 0.04309 0.93779 0.51871 0.0
C490 C 0.04151 0.95003 0.50584 0.0
C491 C 0.06941 0.04275 0.50901 0.0
O492 O 0.02932 0.05405 0.48815 0.0
O493 O 0.02605 0.02172 0.47941 0.0
O494 O 0.02687 0.07933 0.53126 0.0
O495 O 0.05377 0.08377 0.52569 0.0
O496 O 0.0075 0.04538 0.51306 0.0
O497 O 0.02104 0.02757 0.52471 0.0
O498 O 0.04427 0.0175 0.53908 0.0
O499 O 0.05064 0.05009 0.5471 0.0
O500 O 0.04956 0.9922 0.49836 0.0
O501 O 0.02168 0.988 0.49891 0.0
O502 O 0.06801 0.02658 0.51464 0.0
O503 O 0.05454 0.044 0.50222 0.0
H504 H 0.05617 0.0995 0.49734 0.0
H505 H 0.05058 0.12164 0.47706 0.0
H506 H 0.01218 0.13609 0.51151 0.0
H507 H 0.01839 0.11437 0.53239 0.0
H508 H 0.02648 0.98282 0.53416 0.0
H509 H 0.02951 0.96182 0.55663 0.0
H510 H 0.04741 0.92504 0.51406 0.0
H511 H 0.04509 0.94684 0.49176 0.0
Ho512 Ho 0.30274 0.79814 0.766 0.0
Ho513 Ho 0.26998 0.76761 0.76622 0.0
C514 C 0.30565 0.7529 0.76768 0.0
C515 C 0.33322 0.821 0.7749 0.0
C516 C 0.35025 0.81732 0.77954 0.0
C517 C 0.3517 0.80241 0.78927 0.0
C518 C 0.36771 0.7982 0.79282 0.0
C519 C 0.38253 0.80886 0.78673 0.0
C520 C 0.38106 0.82373 0.77692 0.0
C521 C 0.36496 0.82793 0.77333 0.0
C522 C 0.28584 0.78019 0.73199 0.0
C523 C 0.26712 0.81271 0.76366 0.0
C524 C 0.23931 0.7452 0.7572 0.0
C525 C 0.22202 0.74895 0.75365 0.0
C526 C 0.21748 0.75659 0.73767 0.0
C527 C 0.20145 0.76105 0.73498 0.0
C528 C 0.18966 0.758 0.7482 0.0
C529 C 0.19418 0.75035 0.76416 0.0
C530 C 0.21021 0.7458 0.76681 0.0
C531 C 0.28649 0.78594 0.80048 0.0
O532 O 0.31374 0.77156 0.76992 0.0
O533 O 0.28829 0.74761 0.76482 0.0
O534 O 0.326 0.8145 0.7573 0.0
O535 O 0.32234 0.81745 0.78723 0.0
O536 O 0.29346 0.79833 0.73549 0.0
O537 O 0.28844 0.77272 0.7462 0.0
O538 O 0.25899 0.79408 0.76175 0.0
O539 O 0.28445 0.81804 0.7667 0.0
O540 O 0.24703 0.75051 0.77474 0.0
O541 O 0.24992 0.74939 0.74475 0.0
O542 O 0.2787 0.76784 0.79702 0.0
O543 O 0.28416 0.79316 0.78603 0.0
H544 H 0.34045 0.79392 0.79406 0.0
H545 H 0.36848 0.78651 0.8002 0.0
H546 H 0.39239 0.83224 0.77226 0.0
H547 H 0.36398 0.83937 0.76567 0.0
H548 H 0.22629 0.7592 0.72723 0.0
H549 H 0.19816 0.76655 0.72235 0.0
H550 H 0.18535 0.74795 0.77461 0.0
H551 H 0.21345 0.73999 0.77927 0.0
Ho552 Ho 0.54574 0.03119 0.04044 0.0
Ho553 Ho 0.53932 0.02566 0.99815 0.0
C554 C 0.50705 0.01306 0.01685 0.0
C555 C 0.54354 0.0366 0.07611 0.0
C556 C 0.53192 0.02495 0.08685 0.0
C557 C 0.52109 0.03338 0.09772 0.0
C558 C 0.50893 0.02226 0.10674 0.0
C559 C 0.50746 1.00253 0.10511 0.0
C560 C 0.51833 0.99406 0.0943 0.0
C561 C 0.53038 0.00516 0.08507 0.0
C562 C 0.54954 0.99774 0.02189 0.0
C563 C 0.57788 0.04382 0.02043 0.0
C564 C 0.54177 0.02103 0.96268 0.0
C565 C 0.55321 0.0335 0.9524 0.0
C566 C 0.57135 0.03544 0.95457 0.0
C567 C 0.58189 0.04712 0.94443 0.0
C568 C 0.57441 0.05697 0.93205 0.0
C569 C 0.55656 0.05618 0.93098 0.0
C570 C 0.54601 0.04444 0.94099 0.0
C571 C 0.53521 0.05903 0.01673 0.0
O572 O 0.5164 0.02424 0.03238 0.0
O573 O 0.51435 0.00738 0.00215 0.0
O574 O 0.55534 0.02899 0.06885 0.0
O575 O 0.53579 0.04493 0.06428 0.0
O576 O 0.55989 0.00769 0.03674 0.0
O577 O 0.53773 0.00574 0.01797 0.0
O578 O 0.56835 0.03232 0.00533 0.0
O579 O 0.57092 0.04919 0.03561 0.0
O580 O 0.5297 0.02819 0.9699 0.0
O581 O 0.54934 0.01225 0.97423 0.0
O582 O 0.52536 0.0493 1.00147 0.0
O583 O 0.54714 0.0512 0.02081 0.0
H584 H 0.52193 0.04854 0.09908 0.0
H585 H 0.50089 0.02918 0.11532 0.0
H586 H 0.51742 0.97889 0.09292 0.0
H587 H 0.53835 0.99821 0.07643 0.0
H588 H 0.57735 0.02752 0.96363 0.0
H589 H 0.59562 0.04739 0.94521 0.0
H590 H 0.55061 0.06368 0.9214 0.0
H591 H 0.53215 0.04354 0.93941 0.0
Ho592 Ho 0.30278 0.30769 0.2767 0.0
Ho593 Ho 0.28387 0.26479 0.25952 0.0
C594 C 0.26022 0.29277 0.2705 0.0
C595 C 0.31213 0.34418 0.28655 0.0
C596 C 0.30176 0.35817 0.28661 0.0
C597 C 0.28636 0.35402 0.27387 0.0
C598 C 0.27545 0.36633 0.27502 0.0
C599 C 0.27981 0.383 0.28888 0.0
C600 C 0.29517 0.3871 0.30174 0.0
C601 C 0.30611 0.37467 0.30061 0.0
C602 C 0.3021 0.28249 0.30057 0.0
C603 C 0.32556 0.28097 0.26018 0.0
C604 C 0.27468 0.22845 0.25683 0.0
C605 C 0.28427 0.21444 0.25004 0.0
C606 C 0.30236 0.21848 0.25537 0.0
C607 C 0.31175 0.20572 0.24851 0.0
C608 C 0.30325 0.18857 0.23621 0.0
C609 C 0.28517 0.18462 0.23057 0.0
C610 C 0.27574 0.19756 0.2374 0.0
C611 C 0.28819 0.28546 0.23108 0.0
O612 O 0.27429 0.30724 0.27418 0.0
O613 O 0.26046 0.27474 0.26566 0.0
O614 O 0.30842 0.33271 0.29865 0.0
O615 O 0.31361 0.33526 0.26975 0.0
O616 O 0.31542 0.29653 0.30033 0.0
O617 O 0.2898 0.28266 0.28816 0.0
O618 O 0.31241 0.26616 0.26033 0.0
O619 O 0.32446 0.29882 0.26397 0.0
O620 O 0.26895 0.23718 0.24394 0.0
O621 O 0.28191 0.24007 0.27276 0.0
O622 O 0.28126 0.26723 0.22833 0.0
O623 O 0.29255 0.29117 0.24868 0.0
H624 H 0.28262 0.34113 0.26319 0.0
H625 H 0.2635 0.3627 0.26518 0.0
H626 H 0.29877 0.39994 0.3125 0.0
H627 H 0.31781 0.3778 0.31076 0.0
H628 H 0.30933 0.23139 0.26508 0.0
H629 H 0.32558 0.20897 0.2535 0.0
H630 H 0.27835 0.17145 0.22112 0.0
H631 H 0.26182 0.19436 0.23293 0.0
Ho632 Ho 0.53579 0.55497 0.02207 0.0
Ho633 Ho 0.53783 0.51651 0.00826 0.0
C634 C 0.52389 0.54027 0.9773 0.0
C635 C 0.54078 0.59113 0.03336 0.0
C636 C 0.54138 0.60564 0.02128 0.0
C637 C 0.54788 0.60302 0.00383 0.0
C638 C 0.54699 0.6156 0.99133 0.0
C639 C 0.53948 0.63098 0.99597 0.0
C640 C 0.53283 0.63354 0.01336 0.0
C641 C 0.53378 0.62092 0.02595 0.0
C642 C 0.50511 0.52864 0.02053 0.0
C643 C 0.54965 0.53139 0.05296 0.0
C644 C 0.53379 0.48043 0.99708 0.0
C645 C 0.53368 0.46585 0.00902 0.0
C646 C 0.52826 0.46863 0.02704 0.0
C647 C 0.52899 0.45554 0.03903 0.0
C648 C 0.53534 0.43952 0.03331 0.0
C649 C 0.54118 0.43692 0.01546 0.0
C650 C 0.54032 0.45003 0.00336 0.0
C651 C 0.56836 0.54303 0.01022 0.0
O652 O 0.52989 0.55556 0.99077 0.0
O653 O 0.52453 0.52318 0.98109 0.0
O654 O 0.52558 0.57917 0.03201 0.0
O655 O 0.55352 0.58259 0.03297 0.0
O656 O 0.50655 0.54536 0.01614 0.0
O657 O 0.52004 0.52683 0.0264 0.0
O658 O 0.54297 0.51604 0.03974 0.0
O659 O 0.5497 0.5485 0.04891 0.0
O660 O 0.54876 0.49283 0.99845 0.0
O661 O 0.52072 0.48848 0.99759 0.0
O662 O 0.56694 0.52667 0.01545 0.0
O663 O 0.55348 0.54456 0.0038 0.0
H664 H 0.5534 0.59104 0.99968 0.0
H665 H 0.55199 0.61316 0.97791 0.0
H666 H 0.52708 0.6454 0.01728 0.0
H667 H 0.5284 0.62292 0.03918 0.0
H668 H 0.52357 0.48101 0.03197 0.0
H669 H 0.52464 0.45798 0.05281 0.0
H670 H 0.54605 0.42457 0.01073 0.0
H671 H 0.54489 0.44787 0.98967 0.0
Ho672 Ho 0.80336 0.29788 0.267 0.0
Ho673 Ho 0.76994 0.26688 0.26355 0.0
C674 C 0.80586 0.25243 0.26668 0.0
C675 C 0.83356 0.32096 0.27813 0.0
C676 C 0.8513 0.3187 0.27878 0.0
C677 C 0.86342 0.32825 0.29464 0.0
C678 C 0.87948 0.32387 0.29726 0.0
C679 C 0.8836 0.30997 0.28398 0.0
C680 C 0.87178 0.301 0.26766 0.0
C681 C 0.85559 0.30522 0.26514 0.0
C682 C 0.78909 0.28078 0.23166 0.0
C683 C 0.76754 0.31252 0.26397 0.0
C684 C 0.73992 0.24397 0.2515 0.0
C685 C 0.72229 0.24673 0.25022 0.0
C686 C 0.71131 0.23979 0.23299 0.0
C687 C 0.6956 0.24486 0.23024 0.0
C688 C 0.69063 0.2568 0.24478 0.0
C689 C 0.70123 0.26309 0.26234 0.0
C690 C 0.71712 0.25824 0.26501 0.0
C691 C 0.7837 0.28415 0.29903 0.0
O692 O 0.81402 0.27111 0.27089 0.0
O693 O 0.78865 0.24725 0.26166 0.0
O694 O 0.82497 0.31924 0.26125 0.0
O695 O 0.82435 0.31169 0.28943 0.0
O696 O 0.79704 0.29878 0.23596 0.0
O697 O 0.79032 0.27292 0.24582 0.0
O698 O 0.7593 0.29381 0.25998 0.0
O699 O 0.78478 0.31762 0.26889 0.0
O700 O 0.74801 0.24552 0.26861 0.0
O701 O 0.74972 0.25284 0.24037 0.0
O702 O 0.77538 0.26624 0.29481 0.0
O703 O 0.78291 0.29185 0.28469 0.0
H704 H 0.86015 0.3385 0.30537 0.0
H705 H 0.88855 0.33104 0.30988 0.0
H706 H 0.87474 0.29015 0.25734 0.0
H707 H 0.84622 0.29744 0.25298 0.0
H708 H 0.71522 0.23106 0.22141 0.0
H709 H 0.68741 0.23968 0.21666 0.0
H710 H 0.69753 0.27231 0.27368 0.0
H711 H 0.72557 0.26401 0.27834 0.0
Ho712 Ho 0.04401 0.52994 0.53775 0.0
Ho713 Ho 0.03747 0.52634 0.4952 0.0
C714 C 0.00529 0.51199 0.51429 0.0
C715 C 0.0411 0.53339 0.57322 0.0
C716 C 0.02785 0.52227 0.5828 0.0
C717 C 0.01759 0.53168 0.59361 0.0
C718 C 0.00416 0.52128 0.60171 0.0
C719 C 1.00077 0.50124 0.59922 0.0
C720 C 0.01097 0.49178 0.5883 0.0
C721 C 0.02433 0.5022 0.58003 0.0
C722 C 0.04848 0.4977 0.5175 0.0
C723 C 0.07619 0.54458 0.51851 0.0
C724 C 0.03921 0.52216 0.45934 0.0
C725 C 0.05051 0.53413 0.44872 0.0
C726 C 0.04821 0.52991 0.42891 0.0
C727 C 0.0589 0.5415 0.41881 0.0
C728 C 0.07206 0.5574 0.42842 0.0
C729 C 0.07428 0.56164 0.44831 0.0
C730 C 0.06346 0.55014 0.4584 0.0
C731 C 0.03287 0.5586 0.51553 0.0
O732 O 0.01471 0.52249 0.53008 0.0
O733 O 0.01242 0.50758 0.499 0.0
O734 O 0.05176 0.5243 0.56543 0.0
O735 O 0.03537 0.54406 0.56237 0.0
O736 O 0.05878 0.50719 0.5326 0.0
O737 O 0.03639 0.50553 0.51406 0.0
O738 O 0.06676 0.53433 0.50264 0.0
O739 O 0.06931 0.54846 0.53412 0.0
O740 O 0.028 0.53019 0.46735 0.0
O741 O 0.04712 0.51347 0.47066 0.0
O742 O 0.02314 0.5496 0.4999 0.0
O743 O 0.04491 0.55073 0.51896 0.0
H744 H 0.01995 0.5471 0.59574 0.0
H745 H 0.99677 0.52901 0.61044 0.0
H746 H 0.00867 0.47638 0.58625 0.0
H747 H 0.03184 0.49449 0.57145 0.0
H748 H 0.03825 0.51761 0.4213 0.0
H749 H 0.05721 0.53768 0.40347 0.0
H750 H 0.08441 0.57373 0.456 0.0
H751 H 0.06525 0.55368 0.47375 0.0
Ho752 Ho 0.77106 0.78851 0.26033 0.0
Ho753 Ho 0.80539 0.78079 0.2637 0.0
C754 C 0.79243 0.79405 0.30226 0.0
C755 C 0.73884 0.78961 0.26319 0.0
C756 C 0.72662 0.79197 0.27731 0.0
C757 C 0.72515 0.78166 0.29231 0.0
C758 C 0.712 0.78242 0.30395 0.0
C759 C 0.70002 0.79354 0.30093 0.0
C760 C 0.70195 0.80432 0.28629 0.0
C761 C 0.71503 0.8035 0.27464 0.0
C762 C 0.79715 0.81937 0.25647 0.0
C763 C 0.78415 0.77634 0.22199 0.0
C764 C 0.83739 0.7785 0.26115 0.0
C765 C 0.85065 0.77684 0.24817 0.0
C766 C 0.85033 0.78328 0.23073 0.0
C767 C 0.86401 0.78266 0.21971 0.0
C768 C 0.87832 0.77574 0.22601 0.0
C769 C 0.87816 0.76877 0.24319 0.0
C770 C 0.86454 0.76934 0.25408 0.0
C771 C 0.77948 0.74986 0.2677 0.0
O772 O 0.77719 0.79131 0.29193 0.0
O773 O 0.80648 0.79245 0.29449 0.0
O774 O 0.75109 0.80451 0.26192 0.0
O775 O 0.74428 0.77398 0.26137 0.0
O776 O 0.78201 0.81346 0.24608 0.0
O777 O 0.7978 0.80848 0.2686 0.0
O778 O 0.79959 0.78073 0.23236 0.0
O779 O 0.76987 0.77569 0.22994 0.0
O780 O 0.82432 0.76372 0.26014 0.0
O781 O 0.83274 0.79458 0.2642 0.0
O782 O 0.79466 0.75592 0.2779 0.0
O783 O 0.77863 0.76076 0.25557 0.0
H784 H 0.7339 0.77266 0.29478 0.0
H785 H 0.71112 0.77414 0.31523 0.0
H786 H 0.69291 0.81287 0.28333 0.0
H787 H 0.71576 0.81146 0.2631 0.0
H788 H 0.83972 0.7891 0.22582 0.0
H789 H 0.86364 0.78815 0.20658 0.0
H790 H 0.88866 0.76293 0.24834 0.0
H791 H 0.86503 0.76418 0.2674 0.0
Ho792 Ho 0.79908 0.27753 0.74091 0.0
Ho793 Ho 0.78621 0.28253 0.7761 0.0
C794 C 0.80178 0.31935 0.76286 0.0
C795 C 0.81028 0.28035 0.70871 0.0
C796 C 0.81613 0.29652 0.69906 0.0
C797 C 0.80415 0.3054 0.69097 0.0
C798 C 0.80993 0.32078 0.68199 0.0
C799 C 0.82781 0.32772 0.6811 0.0
C800 C 0.83982 0.31914 0.68965 0.0
C801 C 0.834 0.30353 0.69836 0.0
C802 C 0.82198 0.27457 0.77023 0.0
C803 C 0.78198 0.24025 0.75294 0.0
C804 C 0.77681 0.28169 0.80937 0.0
C805 C 0.76661 0.26756 0.81887 0.0
C806 C 0.76763 0.24844 0.81569 0.0
C807 C 0.75985 0.23604 0.82709 0.0
C808 C 0.75104 0.24271 0.84168 0.0
C809 C 0.7486 0.26127 0.84351 0.0
C810 C 0.7564 0.27365 0.83217 0.0
C811 C 0.7627 0.2855 0.74725 0.0
O812 O 0.79832 0.30816 0.74615 0.0
O813 O 0.80171 0.3122 0.77843 0.0
O814 O 0.82027 0.28041 0.72413 0.0
O815 O 0.79373 0.27548 0.71053 0.0
O816 O 0.81792 0.26305 0.75406 0.0
O817 O 0.81342 0.28722 0.77043 0.0
O818 O 0.78384 0.25097 0.76981 0.0
O819 O 0.7845 0.24766 0.73773 0.0
O820 O 0.76809 0.28701 0.79587 0.0
O821 O 0.79175 0.27899 0.80507 0.0
O822 O 0.76681 0.29656 0.76365 0.0
O823 O 0.77151 0.27298 0.74654 0.0
H824 H 0.79028 0.30033 0.69128 0.0
H825 H 0.80026 0.32671 0.67513 0.0
H826 H 0.85368 0.32427 0.68934 0.0
H827 H 0.84351 0.29697 0.70459 0.0
H828 H 0.77521 0.24341 0.80518 0.0
H829 H 0.76193 0.22178 0.82549 0.0
H830 H 0.74168 0.26657 0.85458 0.0
H831 H 0.75522 0.28827 0.83448 0.0
Ho832 Ho 0.80153 0.80736 0.77427 0.0
Ho833 Ho 0.78422 0.76772 0.75661 0.0
C834 C 0.75963 0.79257 0.77015 0.0
C835 C 0.81124 0.84407 0.78417 0.0
C836 C 0.80141 0.8586 0.78412 0.0
C837 C 0.78517 0.85417 0.77288 0.0
C838 C 0.77516 0.8674 0.7735 0.0
C839 C 0.78136 0.88552 0.78509 0.0
C840 C 0.79774 0.88998 0.7963 0.0
C841 C 0.80769 0.87652 0.79587 0.0
C842 C 0.80098 0.7827 0.79894 0.0
C843 C 0.82628 0.78197 0.762 0.0
C844 C 0.77433 0.73126 0.74515 0.0
C845 C 0.78413 0.71669 0.74327 0.0
C846 C 0.80021 0.7198 0.7546 0.0
C847 C 0.81045 0.70689 0.75157 0.0
C848 C 0.8046 0.69059 0.73737 0.0
C849 C 0.78835 0.68725 0.72626 0.0
C850 C 0.7782 0.70038 0.72911 0.0
C851 C 0.7843 0.79269 0.73235 0.0
O852 O 0.77308 0.80727 0.77118 0.0
O853 O 0.76098 0.77491 0.76698 0.0
O854 O 0.80719 0.83258 0.79614 0.0
O855 O 0.81241 0.83498 0.76741 0.0
O856 O 0.814 0.79699 0.79859 0.0
O857 O 0.78863 0.78242 0.78639 0.0
O858 O 0.81259 0.76748 0.76088 0.0
O859 O 0.82496 0.79968 0.76489 0.0
O860 O 0.77764 0.74343 0.73369 0.0
O861 O 0.77395 0.73951 0.7625 0.0
O862 O 0.77112 0.77888 0.7334 0.0
O863 O 0.79697 0.79264 0.74436 0.0
H864 H 0.78015 0.84045 0.76364 0.0
H865 H 0.76248 0.86326 0.76497 0.0
H866 H 0.80294 0.90388 0.80523 0.0
H867 H 0.82021 0.88005 0.8047 0.0
H868 H 0.80492 0.73225 0.76571 0.0
H869 H 0.8228 0.70946 0.76055 0.0
H870 H 0.78363 0.67461 0.71534 0.0
H871 H 0.76586 0.69794 0.72017 0.0
Ho872 Ho 0.51982 0.52031 0.49971 0.0
Ho873 Ho 0.55314 0.54162 0.52313 0.0
C874 C 0.5315 0.56639 0.50306 0.0
C875 C 0.4872 0.50604 0.48734 0.0
C876 C 0.47204 0.51394 0.48864 0.0
C877 C 0.4724 0.52912 0.5033 0.0
C878 C 0.4592 0.53871 0.50282 0.0
C879 C 0.44566 0.5334 0.48756 0.0
C880 C 0.44524 0.51808 0.473 0.0
C881 C 0.45837 0.50836 0.47358 0.0
C882 C 0.5444 0.51954 0.47487 0.0
C883 C 0.54156 0.4956 0.51996 0.0
C884 C 0.58575 0.55546 0.53557 0.0
C885 C 0.60082 0.54737 0.53409 0.0
C886 C 0.6021 0.53527 0.51742 0.0
C887 C 0.61509 0.52536 0.51713 0.0
C888 C 0.62662 0.52711 0.53365 0.0
C889 C 0.62541 0.53925 0.55027 0.0
C890 C 0.61263 0.54944 0.55045 0.0
C891 C 0.52828 0.54283 0.5476 0.0
O892 O 0.51839 0.55092 0.49962 0.0
O893 O 0.54703 0.56597 0.51082 0.0
O894 O 0.49834 0.51466 0.47738 0.0
O895 O 0.49468 0.50291 0.50314 0.0
O896 O 0.52809 0.51093 0.47151 0.0
O897 O 0.54755 0.52758 0.49249 0.0
O898 O 0.55456 0.51114 0.52351 0.0
O899 O 0.52608 0.49585 0.51189 0.0
O900 O 0.57453 0.54685 0.54547 0.0
O901 O 0.57833 0.55908 0.51998 0.0
O902 O 0.54454 0.55165 0.55117 0.0
O903 O 0.52544 0.5347 0.53007 0.0
H904 H 0.48317 0.53395 0.51475 0.0
H905 H 0.45986 0.55066 0.51406 0.0
H906 H 0.43483 0.51375 0.46117 0.0
H907 H 0.45818 0.49692 0.46197 0.0
H908 H 0.59274 0.53299 0.50484 0.0
H909 H 0.61583 0.51591 0.50423 0.0
H910 H 0.63431 0.54077 0.5631 0.0
H911 H 0.61156 0.55841 0.56353 0.0
Ho912 Ho 0.06038 0.53675 0.00835 0.0
Ho913 Ho 0.01997 0.53391 0.00837 0.0
C914 C 0.03229 0.49512 0.00206 0.0
C915 C 0.09221 0.53339 0.01304 0.0
C916 C 0.10234 0.5187 0.00957 0.0
C917 C 0.10764 0.51008 0.0245 0.0
C918 C 0.11872 0.4978 0.02199 0.0
C919 C 0.1249 0.49381 0.00447 0.0
C920 C 0.11923 0.50207 0.98938 0.0
C921 C 0.10815 0.51439 0.9919 0.0
C922 C 0.04159 0.53642 0.97537 0.0
C923 C 0.04846 0.57555 0.01572 0.0
C924 C 0.98844 0.53789 0.00209 0.0
C925 C 0.97775 0.55155 0.00789 0.0
C926 C 0.97895 0.56834 1.00028 0.0
C927 C 0.96735 0.57985 0.00404 0.0
C928 C 0.95415 0.5749 0.01548 0.0
C929 C 0.95353 0.55855 0.02377 0.0
C930 C 0.96508 0.547 0.01994 0.0
C931 C 0.03823 0.53424 0.04152 0.0
O932 O 0.04845 0.50546 0.00834 0.0
O933 O 0.0193 0.50308 0.99799 0.0
O934 O 0.08543 0.53893 0.99826 0.0
O935 O 0.08188 0.53192 0.02617 0.0
O936 O 0.05771 0.54603 0.97994 0.0
O937 O 0.03684 0.5268 0.98773 0.0
O938 O 0.03224 0.56539 0.00946 0.0
O939 O 0.06145 0.56748 0.01929 0.0
O940 O 0.99337 0.52852 0.01485 0.0
O941 O 1.00054 0.54304 0.99143 0.0
O942 O 0.02163 0.52655 0.03764 0.0
O943 O 0.04344 0.54354 0.0291 0.0
H944 H 0.10363 0.51326 0.03837 0.0
H945 H 0.12297 0.49201 0.03406 0.0
H946 H 0.1235 0.49919 0.97561 0.0
H947 H 0.10446 0.52085 0.98009 0.0
H948 H 0.98851 0.57232 0.9909 0.0
H949 H 0.96829 0.59216 0.9972 0.0
H950 H 0.94394 0.55444 0.03307 0.0
H951 H 0.96378 0.53419 0.02606 0.0
H952 H 0.00422 0.20046 0.91546 0.0
H953 H 0.00638 0.17177 0.92818 0.0
H954 H 0.03054 0.20675 0.98218 0.0
H955 H 0.0288 0.23542 0.96943 0.0
H956 H 0.04753 0.18101 0.97386 0.0
H957 H 0.98682 0.17866 0.9742 0.0
H958 H 0.957 0.17828 0.96087 0.0
H959 H 0.95463 0.12745 0.92082 0.0
H960 H 0.98453 0.12766 0.93378 0.0
H961 H 0.04492 0.10255 0.02241 0.0
H962 H 0.04134 0.13207 0.01238 0.0
H963 H 0.01172 0.09922 0.95957 0.0
H964 H 0.01408 0.06972 0.97035 0.0
H965 H 0.9974 0.12496 0.96868 0.0
H966 H 0.05933 0.12845 0.96799 0.0
H967 H 0.08913 0.12942 0.98205 0.0
H968 H 0.08919 0.17851 0.02339 0.0
H969 H 0.05936 0.17772 0.00969 0.0
C970 C 0.00989 0.20205 0.93008 0.0
C971 C 0.01631 0.22033 0.94138 0.0
C972 C 0.01106 0.18558 0.9374 0.0
C973 C 0.01847 0.18693 0.95629 0.0
C974 C 0.02478 0.20519 0.96759 0.0
C975 C 0.02372 0.22164 0.96026 0.0
C976 C 0.02013 0.16947 0.96415 0.0
C977 C 0.0365 0.16883 0.97289 0.0
C978 C 0.00589 0.15335 0.96273 0.0
C979 C 0.98798 0.1533 0.95483 0.0
C980 C 0.98 0.1675 0.96245 0.0
C981 C 0.96306 0.16729 0.95498 0.0
C982 C 0.95394 0.15288 0.93997 0.0
C983 C 0.96172 0.13862 0.93242 0.0
C984 C 0.97865 0.13877 0.93983 0.0
C985 C 0.03756 0.10168 0.00871 0.0
C986 C 0.02975 0.0838 0.99719 0.0
C987 C 0.03569 0.11863 0.00283 0.0
C988 C 0.02664 0.11818 0.98488 0.0
C989 C 0.01878 0.10021 0.97346 0.0
C990 C 0.02014 0.08326 0.97962 0.0
C991 C 0.02494 0.1362 0.97802 0.0
C992 C 0.0085 0.13703 0.96956 0.0
C993 C 0.03914 0.1525 0.97971 0.0
C994 C 0.05707 0.15291 0.98792 0.0
C995 C 0.06567 0.13937 0.98014 0.0
C996 C 0.08257 0.13991 0.98804 0.0
C997 C 0.09103 0.15399 0.00363 0.0
C998 C 0.08263 0.1676 0.01133 0.0
C999 C 0.06574 0.16712 0.00349 0.0
H1000 H 0.10411 0.15437 0.00972 0.0
H1001 H 0.94083 0.15274 0.93422 0.0
H1002 H 0.10681 0.78553 0.166 0.0
H1003 H 0.13177 0.77884 0.1839 0.0
H1004 H 0.1668 0.81552 0.15504 0.0
H1005 H 0.14183 0.82102 0.13624 0.0
H1006 H 0.17968 0.78813 0.15753 0.0
H1007 H 0.15707 0.82628 0.20614 0.0
H1008 H 0.13413 0.83333 0.22486 0.0
H1009 H 0.12818 0.77952 0.24365 0.0
H1010 H 0.15098 0.77209 0.2249 0.0
H1011 H 0.25875 0.80525 0.22054 0.0
H1012 H 0.23203 0.80674 0.20143 0.0
H1013 H 0.20173 0.7648 0.22924 0.0
H1014 H 0.22856 0.7636 0.24856 0.0
H1015 H 0.18551 0.79178 0.22727 0.0
H1016 H 0.20923 0.75457 0.18111 0.0
H1017 H 0.23171 0.74655 0.16223 0.0
H1018 H 0.23521 0.79757 0.13866 0.0
H1019 H 0.21288 0.80601 0.15756 0.0
C1020 C 0.11985 0.79234 0.16364 0.0
C1021 C 0.12223 0.80402 0.14978 0.0
C1022 C 0.13425 0.78857 0.174 0.0
C1023 C 0.15153 0.79695 0.17136 0.0
C1024 C 0.15381 0.80875 0.15757 0.0
C1025 C 0.13944 0.81206 0.14686 0.0
C1026 C 0.16726 0.79334 0.1825 0.0
C1027 C 0.18096 0.78926 0.17282 0.0
C1028 C 0.16903 0.79392 0.20246 0.0
C1029 C 0.15562 0.79858 0.21402 0.0
C1030 C 0.15083 0.81595 0.21423 0.0
C1031 C 0.13786 0.82 0.22484 0.0
C1032 C 0.12968 0.80686 0.2354 0.0
C1033 C 0.13452 0.78967 0.23545 0.0
C1034 C 0.14748 0.78555 0.22486 0.0
C1035 C 0.24641 0.79612 0.22232 0.0
C1036 C 0.24579 0.7841 0.23584 0.0
C1037 C 0.23106 0.79694 0.21135 0.0
C1038 C 0.21462 0.78572 0.21356 0.0
C1039 C 0.21409 0.7736 0.22708 0.0
C1040 C 0.22947 0.77279 0.23805 0.0
C1041 C 0.19806 0.7872 0.20233 0.0
C1042 C 0.1842 0.79074 0.21197 0.0
C1043 C 0.19613 0.78609 0.18234 0.0
C1044 C 0.20949 0.781 0.17088 0.0
C1045 C 0.21488 0.76414 0.17199 0.0
C1046 C 0.22758 0.75951 0.16127 0.0
C1047 C 0.23491 0.77156 0.14929 0.0
C1048 C 0.22952 0.78825 0.14796 0.0
C1049 C 0.21683 0.79295 0.15865 0.0
H1050 H 0.24475 0.76796 0.14101 0.0
H1051 H 0.11962 0.81001 0.24357 0.0
H1052 H 0.48658 0.81552 0.43679 0.0
H1053 H 0.49242 0.85017 0.44783 0.0
H1054 H 0.54531 0.85182 0.46934 0.0
H1055 H 0.53967 0.81719 0.45755 0.0
H1056 H 0.52447 0.87206 0.4953 0.0
H1057 H 0.54505 0.86874 0.43545 0.0
H1058 H 0.54491 0.85855 0.40116 0.0
H1059 H 0.50071 0.88126 0.38911 0.0
H1060 H 0.50037 0.89126 0.4234 0.0
H1061 H 0.55616 0.97434 0.51001 0.0
H1062 H 0.55281 0.93991 0.50101 0.0
H1063 H 0.50214 0.93402 0.47011 0.0
H1064 H 0.50529 0.96843 0.47914 0.0
H1065 H 0.52404 0.91605 0.44928 0.0
H1066 H 0.5044 0.91912 0.51102 0.0
H1067 H 0.50718 0.93062 0.5455 0.0
H1068 H 0.55296 0.90964 0.55404 0.0
H1069 H 0.55057 0.89824 0.51955 0.0
C1070 C 0.49939 0.8233 0.44402 0.0
C1071 C 0.51265 0.81381 0.44657 0.0
C1072 C 0.50274 0.84304 0.45021 0.0
C1073 C 0.51929 0.85351 0.45938 0.0
C1074 C 0.53246 0.84395 0.46232 0.0
C1075 C 0.52924 0.82426 0.45565 0.0
C1076 C 0.5227 0.87445 0.46578 0.0
C1077 C 0.52462 0.88174 0.48527 0.0
C1078 C 0.52276 0.887 0.45265 0.0
C1079 C 0.52249 0.88044 0.43203 0.0
C1080 C 0.5351 0.87126 0.42552 0.0
C1081 C 0.53516 0.8656 0.40607 0.0
C1082 C 0.52276 0.86918 0.39296 0.0
C1083 C 0.51027 0.87843 0.39928 0.0
C1084 C 0.51013 0.88409 0.41873 0.0
C1085 C 0.54424 0.96572 0.5014 0.0
C1086 C 0.53099 0.97415 0.49528 0.0
C1087 C 0.54234 0.94603 0.49632 0.0
C1088 C 0.52721 0.93441 0.48492 0.0
C1089 C 0.51392 0.94275 0.47891 0.0
C1090 C 0.51571 0.9624 0.48416 0.0
C1091 C 0.52546 0.91365 0.4788 0.0
C1092 C 0.52387 0.90638 0.45932 0.0
C1093 C 0.52599 0.9012 0.49196 0.0
C1094 C 0.5274 0.90799 0.51269 0.0
C1095 C 0.51514 0.9171 0.52023 0.0
C1096 C 0.51662 0.92357 0.53978 0.0
C1097 C 0.53026 0.92091 0.55195 0.0
C1098 C 0.54241 0.91172 0.54459 0.0
C1099 C 0.54099 0.90523 0.52505 0.0
H1100 H 0.53139 0.92592 0.56708 0.0
H1101 H 0.52287 0.86485 0.37791 0.0
H1102 H 0.50172 0.26448 0.61926 0.0
H1103 H 0.47519 0.26104 0.63421 0.0
H1104 H 0.50116 0.30841 0.67884 0.0
H1105 H 0.52813 0.31139 0.66425 0.0
H1106 H 0.48182 0.28205 0.69361 0.0
H1107 H 0.47036 0.31077 0.6384 0.0
H1108 H 0.46754 0.31202 0.60419 0.0
H1109 H 0.42899 0.2584 0.59251 0.0
H1110 H 0.43172 0.25673 0.6266 0.0
H1111 H 0.40888 0.30445 0.73111 0.0
H1112 H 0.4346 0.30505 0.71495 0.0
H1113 H 0.40584 0.25595 0.6737 0.0
H1114 H 0.37982 0.25558 0.68954 0.0
H1115 H 0.42569 0.28095 0.65647 0.0
H1116 H 0.43523 0.25099 0.70874 0.0
H1117 H 0.43711 0.24637 0.74202 0.0
H1118 H 0.47824 0.29773 0.7582 0.0
H1119 H 0.47644 0.30282 0.72502 0.0
C1120 C 0.50185 0.27418 0.63231 0.0
C1121 C 0.5171 0.28832 0.64048 0.0
C1122 C 0.48654 0.27228 0.64079 0.0
C1123 C 0.48586 0.28478 0.65746 0.0
C1124 C 0.50121 0.29864 0.66592 0.0
C1125 C 0.51667 0.30035 0.65757 0.0
C1126 C 0.46926 0.28331 0.66616 0.0
C1127 C 0.46965 0.28216 0.68551 0.0
C1128 C 0.45302 0.28246 0.65551 0.0
C1129 C 0.45136 0.28356 0.63503 0.0
C1130 C 0.46136 0.2992 0.62851 0.0
C1131 C 0.45977 0.29998 0.60915 0.0
C1132 C 0.44813 0.28528 0.59618 0.0
C1133 C 0.43802 0.26977 0.60256 0.0
C1134 C 0.43957 0.26891 0.6219 0.0
C1135 C 0.40789 0.29392 0.71845 0.0
C1136 C 0.39219 0.27994 0.71171 0.0
C1137 C 0.42272 0.29414 0.70932 0.0
C1138 C 0.42234 0.28036 0.69323 0.0
C1139 C 0.40657 0.26668 0.68614 0.0
C1140 C 0.39171 0.26641 0.69531 0.0
C1141 C 0.43844 0.28026 0.68399 0.0
C1142 C 0.43792 0.28097 0.66456 0.0
C1143 C 0.45447 0.28029 0.69443 0.0
C1144 C 0.45557 0.27739 0.71443 0.0
C1145 C 0.44457 0.2614 0.71942 0.0
C1146 C 0.44564 0.25867 0.73826 0.0
C1147 C 0.45776 0.27178 0.75222 0.0
C1148 C 0.46885 0.28761 0.74737 0.0
C1149 C 0.46781 0.29042 0.72854 0.0
H1150 H 0.45858 0.26964 0.7668 0.0
H1151 H 0.44692 0.28591 0.5812 0.0
H1152 H 0.98795 0.79999 0.61609 0.0
H1153 H 0.99508 0.82923 0.60311 0.0
H1154 H 0.04371 0.8174 0.58969 0.0
H1155 H 0.03691 0.7883 0.60329 0.0
H1156 H 0.04837 0.85331 0.60707 0.0
H1157 H 0.00874 0.8118 0.55478 0.0
H1158 H 0.98116 0.78876 0.54005 0.0
H1159 H 0.95258 0.83013 0.55747 0.0
H1160 H 0.97997 0.85334 0.57254 0.0
H1161 H 0.06316 0.92151 0.54356 0.0
H1162 H 0.06067 0.89522 0.56135 0.0
H1163 H 0.01249 0.905 0.57849 0.0
H1164 H 0.01455 0.93072 0.5604 0.0
H1165 H 0.00848 0.86965 0.55871 0.0
H1166 H 0.04575 0.90943 0.61342 0.0
H1167 H 0.07108 0.92996 0.63543 0.0
H1168 H 0.10262 0.89216 0.61677 0.0
H1169 H 0.0775 0.87145 0.59463 0.0
C1170 C 1.00006 0.80345 0.61015 0.0
C1171 C 0.01185 0.79183 0.61061 0.0
C1172 C 0.00409 0.82015 0.60269 0.0
C1173 C 0.0198 0.82529 0.59519 0.0
C1174 C 0.03149 0.81359 0.59536 0.0
C1175 C 0.02756 0.79697 0.60305 0.0
C1176 C 0.02433 0.84339 0.58799 0.0
C1177 C 0.03987 0.85679 0.59617 0.0
C1178 C 0.01285 0.84806 0.57434 0.0
C1179 C 0.99641 0.83427 0.56487 0.0
C1180 C 0.99657 0.81596 0.55553 0.0
C1181 C 0.98096 0.80287 0.54712 0.0
C1182 C 0.96513 0.80797 0.54785 0.0
C1183 C 0.96486 0.8262 0.55692 0.0
C1184 C 0.98042 0.83934 0.56536 0.0
C1185 C 0.05216 0.91819 0.55133 0.0
C1186 C 0.03891 0.92799 0.5503 0.0
C1187 C 0.0509 0.90338 0.56171 0.0
C1188 C 0.03638 0.89819 0.57119 0.0
C1189 C 0.02382 0.90884 0.57129 0.0
C1190 C 0.02505 0.92359 0.56095 0.0
C1191 C 0.03257 0.87978 0.57789 0.0
C1192 C 0.01713 0.86619 0.56947 0.0
C1193 C 0.04411 0.87503 0.59142 0.0
C1194 C 0.0598 0.88901 0.60223 0.0
C1195 C 0.05819 0.90574 0.61369 0.0
C1196 C 0.07245 0.91728 0.62635 0.0
C1197 C 0.08836 0.91221 0.62765 0.0
C1198 C 0.09024 0.89596 0.61586 0.0
C1199 C 0.07601 0.88435 0.60324 0.0
H1200 H 0.09929 0.92092 0.63774 0.0
H1201 H 0.95306 0.7978 0.54136 0.0
H1202 H 0.51916 0.7857 0.87075 0.0
H1203 H 0.49118 0.78816 0.85574 0.0
H1204 H 0.51289 0.7944 0.80357 0.0
H1205 H 0.54143 0.79342 0.8192 0.0
H1206 H 0.49296 0.81793 0.81005 0.0
H1207 H 0.48588 0.75065 0.81066 0.0
H1208 H 0.48824 0.72353 0.82645 0.0
H1209 H 0.45298 0.73806 0.86456 0.0
H1210 H 0.45059 0.7654 0.84917 0.0
H1211 H 0.40692 0.8057 0.763 0.0
H1212 H 0.43558 0.79973 0.77097 0.0
H1213 H 0.42485 0.79683 0.8283 0.0
H1214 H 0.39632 0.80275 0.82046 0.0
H1215 H 0.43943 0.76884 0.81435 0.0
H1216 H 0.44911 0.83716 0.8179 0.0
H1217 H 0.4472 0.866 0.80487 0.0
H1218 H 0.4774 0.85082 0.76124 0.0
H1219 H 0.47928 0.82172 0.77386 0.0
C1220 C 0.51783 0.78731 0.85599 0.0
C1221 C 0.53211 0.78885 0.84585 0.0
C1222 C 0.5019 0.78872 0.84744 0.0
C1223 C 0.49983 0.79081 0.82835 0.0
C1224 C 0.5142 0.79255 0.81824 0.0
C1225 C 0.53036 0.79181 0.82705 0.0
C1226 C 0.48263 0.79128 0.81913 0.0
C1227 C 0.48129 0.80698 0.81059 0.0
C1228 C 0.4674 0.77715 0.8202 0.0
C1229 C 0.46807 0.76007 0.82876 0.0
C1230 C 0.47861 0.74803 0.82238 0.0
C1231 C 0.47998 0.73265 0.83129 0.0
C1232 C 0.47077 0.72908 0.8465 0.0
C1233 C 0.46008 0.74082 0.85276 0.0
C1234 C 0.45868 0.75623 0.84391 0.0
C1235 C 0.41076 0.80383 0.77729 0.0
C1236 C 0.39954 0.80476 0.79116 0.0
C1237 C 0.42703 0.80036 0.78178 0.0
C1238 C 0.43226 0.798 0.80023 0.0
C1239 C 0.42093 0.79854 0.81396 0.0
C1240 C 0.40469 0.80192 0.80947 0.0
C1241 C 0.44979 0.79561 0.80564 0.0
C1242 C 0.45116 0.77953 0.81342 0.0
C1243 C 0.46499 0.80947 0.80405 0.0
C1244 C 0.46418 0.82717 0.79669 0.0
C1245 C 0.45526 0.83991 0.80546 0.0
C1246 C 0.45418 0.85631 0.79815 0.0
C1247 C 0.46213 0.86021 0.7822 0.0
C1248 C 0.47123 0.84776 0.77357 0.0
C1249 C 0.47231 0.83132 0.7808 0.0
H1250 H 0.46127 0.8729 0.77655 0.0
H1251 H 0.47191 0.71722 0.85343 0.0
H1252 H 0.4702 0.19018 0.08581 0.0
H1253 H 0.4797 0.16147 0.07343 0.0
H1254 H 0.52727 0.18186 0.11271 0.0
H1255 H 0.51766 0.21011 0.12547 0.0
H1256 H 0.53166 0.17059 0.07402 0.0
H1257 H 0.50204 0.14795 0.12282 0.0
H1258 H 0.47842 0.14114 0.1425 0.0
H1259 H 0.44486 0.1042 0.09446 0.0
H1260 H 0.46819 0.11109 0.07436 0.0
H1261 H 0.55623 0.08261 0.04725 0.0
H1262 H 0.54959 0.10932 0.06785 0.0
H1263 H 0.49888 0.09757 0.03484 0.0
H1264 H 0.50547 0.07104 0.01416 0.0
H1265 H 0.49889 0.10429 0.0751 0.0
H1266 H 0.5295 0.13129 0.02607 0.0
H1267 H 0.5545 0.13806 0.00818 0.0
H1268 H 0.58799 0.16681 0.05975 0.0
H1269 H 0.56321 0.15992 0.078 0.0
C1270 C 0.4826 0.18839 0.09179 0.0
C1271 C 0.49316 0.20213 0.1066 0.0
C1272 C 0.48796 0.17206 0.08484 0.0
C1273 C 0.50409 0.16962 0.09234 0.0
C1274 C 0.51474 0.1835 0.10692 0.0
C1275 C 0.50921 0.19953 0.11417 0.0
C1276 C 0.51018 0.15297 0.08432 0.0
C1277 C 0.52469 0.15608 0.07451 0.0
C1278 C 0.50106 0.13417 0.08511 0.0
C1279 C 0.48681 0.13026 0.097 0.0
C1280 C 0.48955 0.13859 0.11636 0.0
C1281 C 0.47623 0.13467 0.12762 0.0
C1282 C 0.46013 0.1223 0.11972 0.0
C1283 C 0.45733 0.11382 0.10054 0.0
C1284 C 0.4706 0.11773 0.08921 0.0
C1285 C 0.54368 0.08579 0.04444 0.0
C1286 C 0.53139 0.07501 0.02908 0.0
C1287 C 0.53992 0.10094 0.05619 0.0
C1288 C 0.52378 0.10533 0.05275 0.0
C1289 C 0.51137 0.0943 0.03767 0.0
C1290 C 0.5152 0.0793 0.02582 0.0
C1291 C 0.51996 0.12193 0.06427 0.0
C1292 C 0.50593 0.11881 0.07481 0.0
C1293 C 0.52968 0.14074 0.06439 0.0
C1294 C 0.54456 0.14486 0.05342 0.0
C1295 C 0.54223 0.13888 0.03361 0.0
C1296 C 0.55635 0.14277 0.02341 0.0
C1297 C 0.57283 0.1528 0.03283 0.0
C1298 C 0.57522 0.159 0.05248 0.0
C1299 C 0.56114 0.1551 0.06276 0.0
H1300 H 0.58375 0.15582 0.0249 0.0
H1301 H 0.44984 0.11923 0.12847 0.0
H1302 H 0.15443 0.32491 0.37431 0.0
H1303 H 0.17638 0.32402 0.35281 0.0
H1304 H 0.13657 0.31344 0.30461 0.0
H1305 H 0.11454 0.31395 0.32591 0.0
H1306 H 0.15618 0.28812 0.30125 0.0
H1307 H 0.16714 0.35685 0.31567 0.0
H1308 H 0.17321 0.38842 0.33646 0.0
H1309 H 0.22003 0.37887 0.36366 0.0
H1310 H 0.21417 0.34721 0.34317 0.0
H1311 H 0.22905 0.28624 0.24793 0.0
H1312 H 0.20205 0.29308 0.25821 0.0
H1313 H 0.22858 0.3129 0.31558 0.0
H1314 H 0.25543 0.30728 0.30509 0.0
H1315 H 0.21196 0.337 0.30645 0.0
H1316 H 0.19903 0.26718 0.29862 0.0
H1317 H 0.19345 0.23438 0.28051 0.0
H1318 H 0.1516 0.24415 0.24425 0.0
H1319 H 0.15707 0.27709 0.26203 0.0
C1320 C 0.15042 0.32265 0.35915 0.0
C1321 C 0.13282 0.31938 0.35176 0.0
C1322 C 0.16294 0.32226 0.3469 0.0
C1323 C 0.15803 0.31888 0.32717 0.0
C1324 C 0.14055 0.31613 0.3198 0.0
C1325 C 0.12802 0.31639 0.332 0.0
C1326 C 0.17096 0.31657 0.31427 0.0
C1327 C 0.16827 0.29893 0.30206 0.0
C1328 C 0.18669 0.33064 0.31553 0.0
C1329 C 0.19016 0.34964 0.32792 0.0
C1330 C 0.17866 0.36145 0.32616 0.0
C1331 C 0.18209 0.37937 0.33787 0.0
C1332 C 0.19699 0.38564 0.35138 0.0
C1333 C 0.20851 0.37402 0.35319 0.0
C1334 C 0.20516 0.35611 0.3415 0.0
C1335 C 0.22894 0.29226 0.26264 0.0
C1336 C 0.24411 0.2967 0.27577 0.0
C1337 C 0.21361 0.29599 0.26851 0.0
C1338 C 0.21339 0.30356 0.28762 0.0
C1339 C 0.22856 0.30739 0.3007 0.0
C1340 C 0.24385 0.30422 0.29476 0.0
C1341 C 0.19773 0.30808 0.2945 0.0
C1342 C 0.19975 0.3263 0.30532 0.0
C1343 C 0.18161 0.29433 0.29236 0.0
C1344 C 0.17865 0.27469 0.28145 0.0
C1345 C 0.18878 0.26241 0.28665 0.0
C1346 C 0.1856 0.24377 0.27648 0.0
C1347 C 0.17223 0.23722 0.26118 0.0
C1348 C 0.16199 0.24927 0.25605 0.0
C1349 C 0.16513 0.26792 0.26616 0.0
H1350 H 0.16977 0.22278 0.25335 0.0
H1351 H 0.19961 0.39952 0.36043 0.0
H1352 H 0.92784 0.03712 0.18947 0.0
H1353 H 0.93965 0.03219 0.15906 0.0
H1354 H 0.98727 0.07394 0.18363 0.0
H1355 H 0.97558 0.079 0.2135 0.0
H1356 H 0.98248 0.08021 0.15091 0.0
H1357 H 0.98205 0.02196 0.17151 0.0
H1358 H 0.97066 0.99176 0.1825 0.0
H1359 H 0.93517 0.97082 0.13077 0.0
H1360 H 0.94622 1.00104 0.11957 0.0
H1361 H 0.0386 0.0607 0.08404 0.0
H1362 H 0.02286 0.06207 0.11113 0.0
H1363 H 0.97635 0.02643 0.07646 0.0
H1364 H 0.99262 0.02447 0.04865 0.0
H1365 H 0.97855 0.01666 0.11251 0.0
H1366 H 0.98383 0.07801 0.09256 0.0
H1367 H 1.00027 0.1077 0.08381 0.0
H1368 H 0.03224 0.1223 0.13806 0.0
H1369 H 0.01614 0.0926 0.14704 0.0
C1370 C 0.94083 0.04528 0.18847 0.0
C1371 C 0.95052 0.05856 0.20449 0.0
C1372 C 0.94776 0.04234 0.17087 0.0
C1373 C 0.9647 0.05253 0.1684 0.0
C1374 C 0.97423 0.06577 0.18444 0.0
C1375 C 0.9674 0.06863 0.20189 0.0
C1376 C 0.97255 0.04997 0.14944 0.0
C1377 C 0.98158 0.06618 0.14275 0.0
C1378 C 0.97174 0.03188 0.13804 0.0
C1379 C 0.96476 0.01388 0.14483 0.0
C1380 C 0.97167 0.01101 0.16257 0.0
C1381 C 0.96531 0.99387 0.16882 0.0
C1382 C 0.95214 0.97941 0.15738 0.0
C1383 C 0.94533 0.98206 0.13964 0.0
C1384 C 0.95163 0.99919 0.13334 0.0
C1385 C 0.02496 0.05309 0.08178 0.0
C1386 C 0.01713 0.04262 0.06353 0.0
C1387 C 0.0158 0.05403 0.09764 0.0
C1388 C 0.99799 0.04482 0.0964 0.0
C1389 C 0.98998 0.03396 0.07826 0.0
C1390 C 0.99932 0.03291 0.06212 0.0
C1391 C 0.9883 0.0469 0.11405 0.0
C1392 C 0.9791 0.03064 0.12057 0.0
C1393 C 0.98943 0.06495 0.12568 0.0
C1394 C 0.99881 0.08303 0.12043 0.0
C1395 C 0.99439 0.08753 0.1026 0.0
C1396 C 0.00366 0.10436 0.0976 0.0
C1397 C 0.0173 0.11687 0.11036 0.0
C1398 C 0.02166 0.11261 0.12819 0.0
C1399 C 0.01245 0.0958 0.13325 0.0
H1400 H 0.02447 0.12987 0.10645 0.0
H1401 H 0.94726 0.96613 0.16222 0.0
H1402 H 0.2853 0.64247 0.45302 0.0
H1403 H 0.27347 0.65801 0.42878 0.0
H1404 H 0.25019 0.68895 0.4709 0.0
H1405 H 0.2625 0.67398 0.49535 0.0
H1406 H 0.2281 0.66763 0.43156 0.0
H1407 H 0.27685 0.71642 0.46256 0.0
H1408 H 0.30689 0.73009 0.47864 0.0
H1409 H 0.32697 0.71238 0.42738 0.0
H1410 H 0.297 0.6982 0.41106 0.0
H1411 H 0.23359 0.74011 0.36589 0.0
H1412 H 0.23083 0.72506 0.39376 0.0
H1413 H 0.24866 0.67804 0.36573 0.0
H1414 H 0.25091 0.69262 0.33738 0.0
H1415 H 0.27023 0.71254 0.40275 0.0
H1416 H 0.21816 0.65995 0.37474 0.0
H1417 H 0.18712 0.64792 0.36118 0.0
H1418 H 0.17239 0.67829 0.41041 0.0
H1419 H 0.20337 0.69052 0.42417 0.0
C1420 C 0.27772 0.65264 0.45706 0.0
C1421 C 0.27494 0.65728 0.47593 0.0
C1422 C 0.27095 0.6614 0.4433 0.0
C1423 C 0.26101 0.67449 0.44823 0.0
C1424 C 0.25785 0.67883 0.46698 0.0
C1425 C 0.265 0.67045 0.48086 0.0
C1426 C 0.25467 0.68409 0.43364 0.0
C1427 C 0.23717 0.67774 0.42542 0.0
C1428 C 0.26654 0.69747 0.42604 0.0
C1429 C 0.28466 0.70603 0.43565 0.0
C1430 C 0.28766 0.71522 0.45476 0.0
C1431 C 0.30468 0.72311 0.46392 0.0
C1432 C 0.31883 0.72205 0.45405 0.0
C1433 C 0.31599 0.71315 0.435 0.0
C1434 C 0.29898 0.70519 0.42579 0.0
C1435 C 0.23602 0.72607 0.36519 0.0
C1436 C 0.24276 0.71768 0.34955 0.0
C1437 C 0.23447 0.71754 0.38118 0.0
C1438 C 0.23957 0.70056 0.38167 0.0
C1439 C 0.24455 0.69113 0.36542 0.0
C1440 C 0.24597 0.69955 0.34935 0.0
C1441 C 0.24387 0.69529 0.40004 0.0
C1442 C 0.26106 0.70269 0.40906 0.0
C1443 C 0.23157 0.68339 0.40866 0.0
C1444 C 0.21304 0.67633 0.40028 0.0
C1445 C 0.2083 0.66422 0.3825 0.0
C1446 C 0.19073 0.65732 0.37484 0.0
C1447 C 0.1778 0.66244 0.38486 0.0
C1448 C 0.18242 0.67439 0.40263 0.0
C1449 C 0.19997 0.68128 0.41037 0.0
H1450 H 0.16422 0.65708 0.37889 0.0
H1451 H 0.332 0.72818 0.46116 0.0
H1452 H 0.63415 0.05461 0.69956 0.0
H1453 H 0.61753 0.06084 0.67206 0.0
H1454 H 0.58557 1.00306 0.66224 0.0
H1455 H 0.60198 0.99675 0.69017 0.0
H1456 H 0.6089 0.01665 0.63376 0.0
H1457 H 0.56579 0.03439 0.67219 0.0
H1458 H 0.55676 0.0538 0.69876 0.0
H1459 H 0.5778 0.10479 0.67742 0.0
H1460 H 0.58718 0.08571 0.65086 0.0
H1461 H 0.539 0.00606 0.56138 0.0
H1462 H 0.55797 0.00792 0.59085 0.0
H1463 H 0.58601 0.06489 0.58687 0.0
H1464 H 0.56749 0.06284 0.55696 0.0
H1465 H 0.56828 0.05722 0.62245 0.0
H1466 H 0.61189 0.0451 0.58698 0.0
H1467 H 0.62982 0.03218 0.56476 0.0
H1468 H 0.6153 0.97766 0.58196 0.0
H1469 H 0.59715 0.9902 0.6042 0.0
C1470 C 0.62336 0.04332 0.69176 0.0
C1471 C 0.61949 0.02505 0.69663 0.0
C1472 C 0.61379 0.04702 0.67627 0.0
C1473 C 0.6004 0.03242 0.66539 0.0
C1474 C 0.59583 0.01448 0.67078 0.0
C1475 C 0.60523 0.01086 0.68654 0.0
C1476 C 0.59367 0.03468 0.64654 0.0
C1477 C 0.5997 0.02516 0.63117 0.0
C1478 C 0.583 0.0472 0.64364 0.0
C1479 C 0.57735 0.05863 0.65964 0.0
C1480 C 0.56866 0.04976 0.67327 0.0
C1481 C 0.56343 0.0607 0.6883 0.0
C1482 C 0.56674 0.08052 0.68981 0.0
C1483 C 0.57526 0.08944 0.67625 0.0
C1484 C 0.58051 0.07856 0.66119 0.0
C1485 C 0.54935 0.01885 0.56672 0.0
C1486 C 0.55181 0.03436 0.55721 0.0
C1487 C 0.5602 0.01984 0.58335 0.0
C1488 C 0.57332 0.03649 0.59074 0.0
C1489 C 0.57599 0.05192 0.58113 0.0
C1490 C 0.56542 0.05074 0.56421 0.0
C1491 C 0.58273 0.03821 0.60959 0.0
C1492 C 0.57741 0.04863 0.62501 0.0
C1493 C 0.59463 0.02709 0.61265 0.0
C1494 C 0.60302 0.01855 0.59715 0.0
C1495 C 0.61213 0.03021 0.58567 0.0
C1496 C 0.6225 0.02302 0.57323 0.0
C1497 C 0.62381 0.00417 0.5721 0.0
C1498 C 0.61432 0.99228 0.58293 0.0
C1499 C 0.60399 0.99942 0.59545 0.0
H1500 H 0.63235 0.99883 0.56302 0.0
H1501 H 0.56268 0.08896 0.70145 0.0
H1502 H 0.32708 0.35083 0.98053 0.0
H1503 H 0.32257 0.33665 0.94696 0.0
H1504 H 0.2688 0.33932 0.94302 0.0
H1505 H 0.27322 0.35374 0.97683 0.0
H1506 H 0.27371 0.30539 0.92132 0.0
H1507 H 0.29328 0.37193 0.92785 0.0
H1508 H 0.31098 0.40457 0.94087 0.0
H1509 H 0.35665 0.38898 0.92322 0.0
H1510 H 0.33923 0.35611 0.91034 0.0
H1511 H 0.2645 0.29931 0.821 0.0
H1512 H 0.26519 0.30905 0.85488 0.0
H1513 H 0.32007 0.31128 0.86367 0.0
H1514 H 0.31964 0.30183 0.82932 0.0
H1515 H 0.31234 0.3428 0.88283 0.0
H1516 H 0.2874 0.27381 0.87393 0.0
H1517 H 0.26547 0.24431 0.85855 0.0
H1518 H 0.22458 0.26839 0.87829 0.0
H1519 H 0.24624 0.29812 0.89355 0.0
C1520 C 0.3142 0.34818 0.97267 0.0
C1521 C 0.30057 0.35363 0.98136 0.0
C1522 C 0.31166 0.34008 0.95344 0.0
C1523 C 0.29542 0.33715 0.94246 0.0
C1524 C 0.28145 0.3415 0.95126 0.0
C1525 C 0.28402 0.34978 0.97056 0.0
C1526 C 0.29368 0.33096 0.92158 0.0
C1527 C 0.28204 0.3136 0.91284 0.0
C1528 C 0.30436 0.34183 0.91049 0.0
C1529 C 0.315 0.36149 0.91836 0.0
C1530 C 0.30714 0.3754 0.92694 0.0
C1531 C 0.31711 0.39395 0.93425 0.0
C1532 C 0.33494 0.39883 0.93293 0.0
C1533 C 0.34283 0.38516 0.92426 0.0
C1534 C 0.33292 0.36656 0.91695 0.0
C1535 C 0.27679 0.30176 0.83004 0.0
C1536 C 0.29206 0.29971 0.82236 0.0
C1537 C 0.27708 0.30722 0.84951 0.0
C1538 C 0.29257 0.31053 0.86189 0.0
C1539 C 0.30791 0.30864 0.85435 0.0
C1540 C 0.30767 0.30325 0.83474 0.0
C1541 C 0.29288 0.31681 0.88258 0.0
C1542 C 0.30417 0.3344 0.8913 0.0
C1543 C 0.28136 0.30645 0.8934 0.0
C1544 C 0.26845 0.28825 0.8848 0.0
C1545 C 0.27373 0.27283 0.87495 0.0
C1546 C 0.26134 0.25607 0.86625 0.0
C1547 C 0.24364 0.2545 0.86742 0.0
C1548 C 0.2383 0.26963 0.8774 0.0
C1549 C 0.25063 0.28642 0.8861 0.0
H1550 H 0.23404 0.24158 0.86061 0.0
H1551 H 0.34264 0.41322 0.93858 0.0
H1552 H 0.94254 0.07556 0.32017 0.0
H1553 H 0.95716 0.07473 0.35174 0.0
H1554 H 0.97663 0.02753 0.32709 0.0
H1555 H 0.9619 0.02804 0.29608 0.0
H1556 H 0.96686 0.01869 0.35697 0.0
H1557 H 1.00165 0.07776 0.34554 0.0
H1558 H 0.01026 0.11111 0.34061 0.0
H1559 H 0.99197 0.13001 0.3927 0.0
H1560 H 0.98267 0.09695 0.39753 0.0
H1561 H 0.02275 0.01459 0.4404 0.0
H1562 H 0.01032 0.01742 0.4088 0.0
H1563 H 0.99394 0.06694 0.43349 0.0
H1564 H 0.00756 0.06493 0.46473 0.0
H1565 H 1.00231 0.07443 0.40342 0.0
H1566 H 0.96553 0.01429 0.41325 0.0
H1567 H 0.96 0.98128 0.4194 0.0
H1568 H 0.98444 0.96468 0.37101 0.0
H1569 H 0.99019 0.9976 0.36464 0.0
C1570 C 0.95011 0.06515 0.32142 0.0
C1571 C 0.95082 0.05185 0.30519 0.0
C1572 C 0.95859 0.06467 0.33965 0.0
C1573 C 0.96828 0.05101 0.34235 0.0
C1574 C 0.96927 0.03815 0.32598 0.0
C1575 C 0.96078 0.03854 0.30796 0.0
C1576 C 0.97678 0.04928 0.36191 0.0
C1577 C 0.97471 0.03102 0.36695 0.0
C1578 C 0.98696 0.06505 0.37564 0.0
C1579 C 0.99119 0.08479 0.37174 0.0
C1580 C 0.99909 0.08901 0.3557 0.0
C1581 C 0.00414 0.10792 0.35294 0.0
C1582 C 1.00155 0.12274 0.36623 0.0
C1583 C 0.99381 0.11864 0.38225 0.0
C1584 C 0.98858 0.0998 0.38497 0.0
C1585 C 0.01649 0.02609 0.43912 0.0
C1586 C 0.01626 0.03948 0.45541 0.0
C1587 C 0.00908 0.02761 0.42086 0.0
C1588 C 1.00049 0.04216 0.41818 0.0
C1589 C 1.00032 0.0555 0.43458 0.0
C1590 C 0.00815 0.0543 0.45269 0.0
C1591 C 0.99208 0.04397 0.3986 0.0
C1592 C 0.99425 0.06218 0.3935 0.0
C1593 C 0.98201 0.02818 0.3848 0.0
C1594 C 0.9784 0.00841 0.38857 0.0
C1595 C 0.96977 0.0036 0.40398 0.0
C1596 C 0.96659 0.98491 0.40749 0.0
C1597 C 0.97191 0.97091 0.39564 0.0
C1598 C 0.98034 0.97554 0.38019 0.0
C1599 C 0.98353 0.99419 0.3766 0.0
H1600 H 0.96946 0.95646 0.39841 0.0
H1601 H 0.00564 0.13738 0.36419 0.0
H1602 H 0.27437 0.70516 0.55789 0.0
H1603 H 0.26718 0.72223 0.58666 0.0
H1604 H 0.28154 0.68141 0.61842 0.0
H1605 H 0.28838 0.66385 0.58947 0.0
H1606 H 0.25226 0.69233 0.62926 0.0
H1607 H 0.31066 0.72193 0.61874 0.0
H1608 H 0.33264 0.73641 0.59975 0.0
H1609 H 0.30591 0.78034 0.59371 0.0
H1610 H 0.28365 0.76596 0.61249 0.0
H1611 H 0.28182 0.74229 0.72164 0.0
H1612 H 0.27489 0.72373 0.68976 0.0
H1613 H 0.26707 0.77339 0.66789 0.0
H1614 H 0.27524 0.7925 0.70003 0.0
H1615 H 0.28821 0.7589 0.64965 0.0
H1616 H 0.23285 0.73131 0.66748 0.0
H1617 H 0.21325 0.71646 0.68855 0.0
H1618 H 0.23561 0.66812 0.68283 0.0
H1619 H 0.25558 0.68281 0.66203 0.0
C1620 C 0.27601 0.69978 0.57098 0.0
C1621 C 0.28225 0.68339 0.57156 0.0
C1622 C 0.27176 0.70947 0.58734 0.0
C1623 C 0.27399 0.70313 0.60459 0.0
C1624 C 0.2797 0.68644 0.60515 0.0
C1625 C 0.28378 0.67658 0.5887 0.0
C1626 C 0.27193 0.7149 0.62231 0.0
C1627 C 0.26007 0.70689 0.63384 0.0
C1628 C 0.28193 0.73397 0.6279 0.0
C1629 C 0.29541 0.74277 0.61683 0.0
C1630 C 0.30942 0.73461 0.61326 0.0
C1631 C 0.32193 0.7428 0.60255 0.0
C1632 C 0.32064 0.75925 0.59548 0.0
C1633 C 0.30688 0.76758 0.59917 0.0
C1634 C 0.29432 0.75943 0.60985 0.0
C1635 C 0.27834 0.7492 0.71008 0.0
C1636 C 0.2792 0.76882 0.71311 0.0
C1637 C 0.27414 0.73849 0.69186 0.0
C1638 C 0.27012 0.74707 0.67645 0.0
C1639 C 0.27005 0.7665 0.67963 0.0
C1640 C 0.27473 0.77739 0.69789 0.0
C1641 C 0.26857 0.73641 0.65697 0.0
C1642 C 0.27991 0.74457 0.645 0.0
C1643 C 0.25822 0.71743 0.65119 0.0
C1644 C 0.24575 0.70821 0.66317 0.0
C1645 C 0.23362 0.71753 0.67074 0.0
C1646 C 0.22245 0.70915 0.68266 0.0
C1647 C 0.22318 0.69136 0.68702 0.0
C1648 C 0.23504 0.68188 0.67942 0.0
C1649 C 0.24627 0.69022 0.66752 0.0
H1650 H 0.21455 0.68491 0.69629 0.0
H1651 H 0.33033 0.76557 0.58718 0.0
H1652 H 0.65249 0.07 0.78365 0.0
H1653 H 0.64925 0.08277 0.81635 0.0
H1654 H 0.61513 0.0286 0.81997 0.0
H1655 H 0.61877 0.0156 0.78739 0.0
H1656 H 0.6053 0.07112 0.8231 0.0
H1657 H 0.64377 0.03118 0.84366 0.0
H1658 H 0.67233 0.02345 0.84692 0.0
H1659 H 0.69609 0.08032 0.87726 0.0
H1660 H 0.66771 0.08853 0.8737 0.0
H1661 H 0.56491 0.0437 0.89519 0.0
H1662 H 0.58145 0.05019 0.86951 0.0
H1663 H 0.62208 0.09153 0.90868 0.0
H1664 H 0.60567 0.08384 0.93513 0.0
H1665 H 0.63571 0.06965 0.8861 0.0
H1666 H 0.59504 0.10603 0.87307 0.0
H1667 H 0.56616 0.11316 0.87028 0.0
H1668 H 0.54649 0.06397 0.82613 0.0
H1669 H 0.57513 0.05642 0.82875 0.0
C1670 C 0.64454 0.0608 0.79164 0.0
C1671 C 0.63563 0.04199 0.78328 0.0
C1672 C 0.64289 0.06802 0.81024 0.0
C1673 C 0.63221 0.05647 0.82043 0.0
C1674 C 0.6237 0.03749 0.81224 0.0
C1675 C 0.62561 0.03015 0.79375 0.0
C1676 C 0.62734 0.06493 0.8382 0.0
C1677 C 0.61195 0.07103 0.83696 0.0
C1678 C 0.63668 0.06564 0.85605 0.0
C1679 C 0.65369 0.06061 0.858 0.0
C1680 C 0.65513 0.04216 0.85067 0.0
C1681 C 0.67128 0.03766 0.85266 0.0
C1682 C 0.68605 0.05142 0.86217 0.0
C1683 C 0.68467 0.0697 0.86978 0.0
C1684 C 0.66856 0.07429 0.86775 0.0
C1685 C 0.57714 0.05457 0.89829 0.0
C1686 C 0.58389 0.06365 0.91693 0.0
C1687 C 0.58656 0.05841 0.88357 0.0
C1688 C 0.60265 0.072 0.88702 0.0
C1689 C 0.60948 0.08132 0.9057 0.0
C1690 C 0.60015 0.07702 0.9207 0.0
C1691 C 0.61275 0.07442 0.87103 0.0
C1692 C 0.6293 0.07061 0.87242 0.0
C1693 C 0.60447 0.07586 0.85319 0.0
C1694 C 0.58733 0.08076 0.85104 0.0
C1695 C 0.58457 0.09676 0.86274 0.0
C1696 C 0.56822 0.10086 0.8612 0.0
C1697 C 0.55452 0.08905 0.84801 0.0
C1698 C 0.55714 0.07316 0.83628 0.0
C1699 C 0.57346 0.06902 0.83772 0.0
H1700 H 0.54186 0.09221 0.8469 0.0
H1701 H 0.69853 0.0479 0.86374 0.0
H1702 H 0.30702 0.33325 0.0686 0.0
H1703 H 0.30433 0.32131 0.09827 0.0
H1704 H 0.28249 0.36776 0.11996 0.0
H1705 H 0.28568 0.38018 0.09035 0.0
H1706 H 0.30444 0.36317 0.14683 0.0
H1707 H 0.25716 0.3194 0.10433 0.0
H1708 H 0.24285 0.2962 0.07539 0.0
H1709 H 0.27538 0.25907 0.08788 0.0
H1710 H 0.29003 0.28214 0.11677 0.0
H1711 H 0.28274 0.32092 0.22857 0.0
H1712 H 0.28278 0.33572 0.20013 0.0
H1713 H 0.30046 0.28936 0.1701 0.0
H1714 H 0.29903 0.27405 0.1979 0.0
H1715 H 0.27769 0.29508 0.14764 0.0
H1716 H 0.32684 0.34022 0.18858 0.0
H1717 H 0.34068 0.36309 0.21792 0.0
H1718 H 0.3045 0.39721 0.20846 0.0
H1719 H 0.29036 0.37444 0.17916 0.0
C1720 C 0.30159 0.34096 0.07963 0.0
C1721 C 0.29656 0.35772 0.07697 0.0
C1722 C 0.29993 0.33399 0.09663 0.0
C1723 C 0.29289 0.34336 0.11142 0.0
C1724 C 0.28791 0.36017 0.10885 0.0
C1725 C 0.28972 0.36727 0.09185 0.0
C1726 C 0.29123 0.33589 0.12967 0.0
C1727 C 0.29838 0.34831 0.14698 0.0
C1728 C 0.28355 0.31645 0.13009 0.0
C1729 C 0.27479 0.30259 0.11265 0.0
C1730 C 0.26135 0.30635 0.10083 0.0
C1731 C 0.25316 0.29321 0.08445 0.0
C1732 C 0.25823 0.2762 0.07978 0.0
C1733 C 0.27148 0.27227 0.0915 0.0
C1734 C 0.27971 0.28536 0.1079 0.0
C1735 C 0.28692 0.31416 0.21596 0.0
C1736 C 0.29106 0.29645 0.21548 0.0
C1737 C 0.28699 0.32262 0.19964 0.0
C1738 C 0.29184 0.31389 0.18274 0.0
C1739 C 0.29653 0.29648 0.1827 0.0
C1740 C 0.2959 0.28778 0.19871 0.0
C1741 C 0.2915 0.32218 0.16482 0.0
C1742 C 0.28382 0.30993 0.14753 0.0
C1743 C 0.29876 0.34174 0.16442 0.0
C1744 C 0.30748 0.35557 0.1818 0.0
C1745 C 0.32182 0.35258 0.1928 0.0
C1746 C 0.32971 0.36552 0.20942 0.0
C1747 C 0.32345 0.38157 0.21507 0.0
C1748 C 0.30933 0.38477 0.20407 0.0
C1749 C 0.30139 0.37187 0.18746 0.0
H1750 H 0.32956 0.39155 0.22795 0.0
H1751 H 0.25187 0.26604 0.06709 0.0
H1752 H 0.22806 0.92686 0.98528 0.0
H1753 H 0.20472 0.94094 0.99606 0.0
H1754 H 0.24244 0.98438 0.03627 0.0
H1755 H 0.26585 0.97082 0.02533 0.0
H1756 H 0.20935 0.9624 0.0499 0.0
H1757 H 0.23141 1.00249 0.00638 0.0
H1758 H 0.24223 0.0087 0.97638 0.0
H1759 H 0.19303 0.97615 0.9451 0.0
H1760 H 0.182 0.96954 0.97496 0.0
H1761 H 0.15717 0.03302 0.06096 0.0
H1762 H 0.17997 0.0157 0.05911 0.0
H1763 H 0.14548 0.97037 0.01781 0.0
H1764 H 0.12228 0.98709 0.02015 0.0
H1765 H 0.17822 0.99425 0.00674 0.0
H1766 H 0.15621 0.95588 0.05247 0.0
H1767 H 0.14697 0.95018 0.08328 0.0
H1768 H 0.1976 0.98169 0.11179 0.0
H1769 H 0.20709 0.98772 0.08113 0.0
C1770 C 0.23134 0.93949 0.99628 0.0
C1771 C 0.24867 0.94786 0.00436 0.0
C1772 C 0.21808 0.9474 0.00247 0.0
C1773 C 0.22205 0.96349 0.01698 0.0
C1774 C 0.23929 0.97186 0.02513 0.0
C1775 C 0.25258 0.96421 0.01871 0.0
C1776 C 0.20811 0.97198 0.02306 0.0
C1777 C 0.20261 0.9696 0.04066 0.0
C1778 C 0.19953 0.98122 0.01084 0.0
C1779 C 0.20595 0.98535 0.99286 0.0
C1780 C 0.22295 0.99652 0.99309 0.0
C1781 C 0.22911 1.00015 0.97612 0.0
C1782 C 0.21834 0.99278 0.95883 0.0
C1783 C 0.20136 0.98183 0.9585 0.0
C1784 C 0.19514 0.97816 0.97544 0.0
C1785 C 0.1542 0.01904 0.05201 0.0
C1786 C 0.13807 0.01158 0.04037 0.0
C1787 C 0.16723 0.0092 0.05101 0.0
C1788 C 0.16427 0.99191 0.0383 0.0
C1789 C 0.14785 0.98375 0.02769 0.0
C1790 C 0.13475 0.99343 0.02887 0.0
C1791 C 0.17906 0.98429 0.03344 0.0
C1792 C 0.18489 0.98705 0.01606 0.0
C1793 C 0.18807 0.97572 0.04606 0.0
C1794 C 0.18228 0.97247 0.06453 0.0
C1795 C 0.1653 0.96181 0.06533 0.0
C1796 C 0.16004 0.95845 0.08276 0.0
C1797 C 0.17167 0.96564 0.09949 0.0
C1798 C 0.1886 0.97616 0.09882 0.0
C1799 C 0.19393 0.97954 0.08142 0.0
H1800 H 0.16758 0.963 0.11297 0.0
H1801 H 0.22313 0.99559 0.9457 0.0
H1802 H 0.73165 0.62779 0.00908 0.0
H1803 H 0.7031 0.60959 0.01438 0.0
H1804 H 0.6779 0.64164 0.98009 0.0
H1805 H 0.7064 0.66052 0.9757 0.0
H1806 H 0.66095 0.63736 0.00801 0.0
H1807 H 0.68167 0.59232 0.96475 0.0
H1808 H 0.70268 0.57393 0.95473 0.0
H1809 H 0.69878 0.54791 0.00425 0.0
H1810 H 0.67788 0.5663 0.01466 0.0
H1811 H 0.57541 0.57344 0.99127 0.0
H1812 H 0.60415 0.59364 0.98878 0.0
H1813 H 0.62864 0.56267 0.025 0.0
H1814 H 0.60012 0.54233 0.02709 0.0
H1815 H 0.64599 0.56657 0.99697 0.0
H1816 H 0.62471 0.61009 0.03987 0.0
H1817 H 0.60348 0.62795 0.05038 0.0
H1818 H 0.60833 0.65656 0.00261 0.0
H1819 H 0.62945 0.6387 0.99168 0.0
C1820 C 0.72002 0.63084 0.00254 0.0
C1821 C 0.72136 0.6455 0.99178 0.0
C1822 C 0.70362 0.62036 0.00553 0.0
C1823 C 0.68809 0.62384 0.99734 0.0
C1824 C 0.68951 0.63853 0.9866 0.0
C1825 C 0.70588 0.64927 0.98397 0.0
C1826 C 0.67041 0.61233 0.99986 0.0
C1827 C 0.65766 0.62187 0.00534 0.0
C1828 C 0.666 0.59206 0.99696 0.0
C1829 C 0.67833 0.58079 0.99054 0.0
C1830 C 0.68535 0.58273 0.97352 0.0
C1831 C 0.69724 0.5723 0.96778 0.0
C1832 C 0.70209 0.55979 0.97887 0.0
C1833 C 0.69502 0.55762 0.99569 0.0
C1834 C 0.68314 0.56802 1.0015 0.0
C1835 C 0.58693 0.57112 0.99884 0.0
C1836 C 0.58546 0.55629 0.00938 0.0
C1837 C 0.6034 0.5827 0.99747 0.0
C1838 C 0.61875 0.57987 0.00682 0.0
C1839 C 0.61715 0.5652 0.01756 0.0
C1840 C 0.60077 0.55358 0.01879 0.0
C1841 C 0.63651 0.59158 0.00495 0.0
C1842 C 0.64927 0.58207 0.99963 0.0
C1843 C 0.64092 0.61183 0.00808 0.0
C1844 C 0.62854 0.62292 0.01486 0.0
C1845 C 0.62118 0.62012 0.03155 0.0
C1846 C 0.60918 0.63025 0.03759 0.0
C1847 C 0.60452 0.64334 0.02714 0.0
C1848 C 0.61194 0.6464 0.01068 0.0
C1849 C 0.62394 0.6363 0.00457 0.0
H1850 H 0.59519 0.65113 0.03181 0.0
H1851 H 0.71131 0.55175 0.97441 0.0
H1852 H 0.66097 0.42947 0.25182 0.0
H1853 H 0.67688 0.40485 0.25133 0.0
H1854 H 0.72372 0.44718 0.27699 0.0
H1855 H 0.70764 0.47244 0.27709 0.0
H1856 H 0.73312 0.42095 0.25212 0.0
H1857 H 0.69703 0.4108 0.30256 0.0
H1858 H 0.66882 0.40658 0.31511 0.0
H1859 H 0.64644 0.35829 0.27066 0.0
H1860 H 0.67463 0.36195 0.25808 0.0
H1861 H 0.78028 0.35208 0.27322 0.0
H1862 H 0.76514 0.37758 0.27346 0.0
H1863 H 0.71634 0.33574 0.25453 0.0
H1864 H 0.73156 0.30999 0.25475 0.0
H1865 H 0.70779 0.36186 0.27588 0.0
H1866 H 0.74138 0.36902 0.22568 0.0
H1867 H 0.76714 0.37268 0.20871 0.0
H1868 H 0.79162 0.42547 0.24664 0.0
H1869 H 0.76608 0.422 0.26402 0.0
C1870 C 0.67467 0.43389 0.2575 0.0
C1871 C 0.68261 0.45355 0.26465 0.0
C1872 C 0.68391 0.41939 0.25736 0.0
C1873 C 0.70179 0.42336 0.26461 0.0
C1874 C 0.71001 0.44307 0.27139 0.0
C1875 C 0.70067 0.45777 0.27148 0.0
C1876 C 0.71151 0.40705 0.26491 0.0
C1877 C 0.72764 0.40827 0.25774 0.0
C1878 C 0.70452 0.38958 0.27127 0.0
C1879 C 0.6879 0.38668 0.27938 0.0
C1880 C 0.68612 0.39919 0.29556 0.0
C1881 C 0.67015 0.39686 0.3027 0.0
C1882 C 0.65588 0.3821 0.29374 0.0
C1883 C 0.65757 0.36956 0.2777 0.0
C1884 C 0.67356 0.37169 0.27062 0.0
C1885 C 0.76631 0.34807 0.26896 0.0
C1886 C 0.75749 0.32843 0.26379 0.0
C1887 C 0.75749 0.36299 0.26895 0.0
C1888 C 0.73923 0.35935 0.26359 0.0
C1889 C 0.73031 0.33966 0.2587 0.0
C1890 C 0.73917 0.32466 0.25875 0.0
C1891 C 0.72966 0.37582 0.26336 0.0
C1892 C 0.71347 0.37459 0.27045 0.0
C1893 C 0.7364 0.39307 0.25647 0.0
C1894 C 0.75191 0.39512 0.2463 0.0
C1895 C 0.75233 0.38132 0.23052 0.0
C1896 C 0.76687 0.38338 0.22081 0.0
C1897 C 0.78103 0.39927 0.22663 0.0
C1898 C 0.78066 0.41315 0.24218 0.0
C1899 C 0.76615 0.41115 0.25197 0.0
H1900 H 0.79227 0.40085 0.21907 0.0
H1901 H 0.64349 0.3804 0.29919 0.0
H1902 H 0.84845 0.4297 0.52809 0.0
H1903 H 0.87943 0.43979 0.5254 0.0
H1904 H 0.87533 0.49804 0.5281 0.0
H1905 H 0.84388 0.48746 0.52915 0.0
H1906 H 0.89174 0.48975 0.50088 0.0
H1907 H 0.89647 0.47908 0.56615 0.0
H1908 H 0.89093 0.46001 0.59141 0.0
H1909 H 0.91491 0.41845 0.56348 0.0
H1910 H 0.92034 0.43707 0.53793 0.0
H1911 H 0.9843 0.53192 0.53054 0.0
H1912 H 0.95275 0.52096 0.53037 0.0
H1913 H 0.95288 0.46659 0.49718 0.0
H1914 H 0.98441 0.47776 0.49665 0.0
H1915 H 0.93917 0.472 0.53833 0.0
H1916 H 0.93354 0.48083 0.47329 0.0
H1917 H 0.93947 0.4987 0.44726 0.0
H1918 H 0.91793 0.54283 0.47452 0.0
H1919 H 0.91216 0.52535 0.50092 0.0
C1920 C 0.85435 0.44472 0.52856 0.0
C1921 C 0.84414 0.45798 0.52914 0.0
C1922 C 0.87202 0.45049 0.52709 0.0
C1923 C 0.87979 0.46975 0.52695 0.0
C1924 C 0.86959 0.48312 0.52826 0.0
C1925 C 0.85176 0.47719 0.52904 0.0
C1926 C 0.89819 0.47569 0.52391 0.0
C1927 C 0.90211 0.48609 0.50931 0.0
C1928 C 0.91167 0.4703 0.5344 0.0
C1929 C 0.90862 0.45937 0.55002 0.0
C1930 C 0.90047 0.46582 0.56535 0.0
C1931 C 0.89736 0.45509 0.57973 0.0
C1932 C 0.90249 0.43798 0.57897 0.0
C1933 C 0.9109 0.43167 0.56399 0.0
C1934 C 0.91399 0.4423 0.54958 0.0
C1935 C 0.97752 0.51769 0.5231 0.0
C1936 C 0.98654 0.50552 0.51374 0.0
C1937 C 0.95961 0.51157 0.52288 0.0
C1938 C 0.95074 0.49313 0.51362 0.0
C1939 C 0.95968 0.48096 0.50415 0.0
C1940 C 0.97755 0.48728 0.50393 0.0
C1941 C 0.93243 0.48606 0.51563 0.0
C1942 C 0.92865 0.47557 0.53003 0.0
C1943 C 0.91913 0.49129 0.50498 0.0
C1944 C 0.92266 0.50192 0.48922 0.0
C1945 C 0.9303 0.49447 0.47388 0.0
C1946 C 0.93357 0.5045 0.45902 0.0
C1947 C 0.92914 0.52193 0.45927 0.0
C1948 C 0.92139 0.52935 0.47437 0.0
C1949 C 0.91811 0.51938 0.48928 0.0
H1950 H 0.93166 0.52966 0.44774 0.0
H1951 H 0.89993 0.42952 0.58993 0.0
H1952 H 0.41724 0.10117 0.27733 0.0
H1953 H 0.40122 0.12104 0.26248 0.0
H1954 H 0.35256 0.08481 0.2712 0.0
H1955 H 0.36843 0.06464 0.28579 0.0
H1956 H 0.35219 0.09269 0.23465 0.0
H1957 H 0.36671 0.12637 0.29946 0.0
H1958 H 0.3878 0.13989 0.32844 0.0
H1959 H 0.4189 0.17848 0.29835 0.0
H1960 H 0.39803 0.16503 0.2691 0.0
H1961 H 0.29302 0.15081 0.23751 0.0
H1962 H 0.31196 0.12919 0.23926 0.0
H1963 H 0.3549 0.17208 0.22753 0.0
H1964 H 0.33587 0.19384 0.22553 0.0
H1965 H 0.36108 0.16141 0.26167 0.0
H1966 H 0.34137 0.12991 0.19745 0.0
H1967 H 0.31939 0.11468 0.16956 0.0
H1968 H 0.29654 0.07076 0.1995 0.0
H1969 H 0.31826 0.08586 0.22767 0.0
C1970 C 0.40315 0.09767 0.27645 0.0
C1971 C 0.39405 0.08144 0.28273 0.0
C1972 C 0.39404 0.10889 0.2678 0.0
C1973 C 0.37578 0.10419 0.26566 0.0
C1974 C 0.36667 0.08842 0.27255 0.0
C1975 C 0.37575 0.07713 0.28108 0.0
C1976 C 0.36614 0.11611 0.25674 0.0
C1977 C 0.35402 0.1077 0.24051 0.0
C1978 C 0.36892 0.13568 0.26431 0.0
C1979 C 0.38085 0.1447 0.28212 0.0
C1980 C 0.37802 0.13779 0.29905 0.0
C1981 C 0.38995 0.1454 0.31551 0.0
C1982 C 0.40469 0.16003 0.31523 0.0
C1983 C 0.40746 0.16717 0.29853 0.0
C1984 C 0.39556 0.1596 0.28203 0.0
C1985 C 0.30626 0.15534 0.23441 0.0
C1986 C 0.31306 0.17404 0.23161 0.0
C1987 C 0.31709 0.14298 0.23547 0.0
C1988 C 0.3348 0.14914 0.23359 0.0
C1989 C 0.34124 0.16717 0.22905 0.0
C1990 C 0.33039 0.17954 0.22794 0.0
C1991 C 0.34689 0.13802 0.23953 0.0
C1992 C 0.35947 0.14653 0.25541 0.0
C1993 C 0.3443 0.11847 0.23175 0.0
C1994 C 0.33143 0.10907 0.2147 0.0
C1995 C 0.33162 0.11705 0.19812 0.0
C1996 C 0.31921 0.10843 0.18226 0.0
C1997 C 0.30657 0.09177 0.18277 0.0
C1998 C 0.30636 0.08366 0.19912 0.0
C1999 C 0.31875 0.09221 0.21503 0.0
H2000 H 0.29695 0.08515 0.17048 0.0
H2001 H 0.41396 0.16584 0.32796 0.0
H2002 H 0.31248 0.13032 0.5066 0.0
H2003 H 0.33718 0.11611 0.51217 0.0
H2004 H 0.37282 0.16884 0.5073 0.0
H2005 H 0.34833 0.18308 0.50177 0.0
H2006 H 0.38118 0.13919 0.48717 0.0
H2007 H 0.36953 0.1563 0.55002 0.0
H2008 H 0.35228 0.15814 0.57665 0.0
H2009 H 0.34058 0.09713 0.57171 0.0
H2010 H 0.35755 0.09489 0.54482 0.0
H2011 H 0.45791 0.11165 0.51599 0.0
H2012 H 0.43518 0.12922 0.51688 0.0
H2013 H 0.39715 0.07773 0.52048 0.0
H2014 H 0.41976 0.06011 0.51966 0.0
H2015 H 0.39109 0.10853 0.54273 0.0
H2016 H 0.40258 0.09281 0.47778 0.0
H2017 H 0.4222 0.09299 0.45318 0.0
H2018 H 0.43615 0.15435 0.46424 0.0
H2019 H 0.41681 0.15451 0.48913 0.0
C2020 C 0.32557 0.13888 0.5067 0.0
C2021 C 0.32836 0.15785 0.50367 0.0
C2022 C 0.33971 0.13078 0.51001 0.0
C2023 C 0.35694 0.14142 0.51029 0.0
C2024 C 0.3597 0.1603 0.50716 0.0
C2025 C 0.34563 0.16844 0.50402 0.0
C2026 C 0.37205 0.13277 0.51326 0.0
C2027 C 0.38343 0.1327 0.49945 0.0
C2028 C 0.37505 0.12419 0.52922 0.0
C2029 C 0.36464 0.1254 0.54523 0.0
C2030 C 0.36311 0.14324 0.55446 0.0
C2031 C 0.35343 0.14437 0.56964 0.0
C2032 C 0.34529 0.12776 0.57583 0.0
C2033 C 0.34686 0.10999 0.56687 0.0
C2034 C 0.35652 0.10878 0.55166 0.0
C2035 C 0.44472 0.10406 0.51702 0.0
C2036 C 0.44069 0.08438 0.51755 0.0
C2037 C 0.43172 0.11415 0.51759 0.0
C2038 C 0.41433 0.10476 0.51842 0.0
C2039 C 0.41043 0.08533 0.51982 0.0
C2040 C 0.42343 0.07526 0.51937 0.0
C2041 C 0.4 0.11473 0.5165 0.0
C2042 C 0.38879 0.11503 0.53047 0.0
C2043 C 0.39726 0.12377 0.50082 0.0
C2044 C 0.40834 0.12367 0.48538 0.0
C2045 C 0.40986 0.10633 0.47498 0.0
C2046 C 0.42094 0.10637 0.46101 0.0
C2047 C 0.43043 0.12367 0.45717 0.0
C2048 C 0.4288 0.14096 0.46724 0.0
C2049 C 0.41776 0.141 0.48126 0.0
H2050 H 0.43904 0.12368 0.44638 0.0
H2051 H 0.33781 0.12866 0.5876 0.0
H2052 H 0.66961 0.57922 0.24569 0.0
H2053 H 0.68674 0.61136 0.24572 0.0
H2054 H 0.72606 0.60417 0.2874 0.0
H2055 H 0.70862 0.57146 0.28752 0.0
H2056 H 0.72074 0.64 0.29624 0.0
H2057 H 0.73137 0.60409 0.23838 0.0
H2058 H 0.72296 0.58242 0.20735 0.0
H2059 H 0.69525 0.62061 0.18648 0.0
H2060 H 0.7033 0.64241 0.21746 0.0
H2061 H 0.7844 0.72396 0.29007 0.0
H2062 H 0.76758 0.69141 0.28927 0.0
H2063 H 0.7314 0.69663 0.24311 0.0
H2064 H 0.74876 0.72944 0.24356 0.0
H2065 H 0.73471 0.66175 0.23627 0.0
H2066 H 0.72208 0.69696 0.29169 0.0
H2067 H 0.72809 0.71943 0.3222 0.0
H2068 H 0.75605 0.68365 0.34727 0.0
H2069 H 0.75042 0.66108 0.31681 0.0
C2070 C 0.68193 0.58422 0.25491 0.0
C2071 C 0.68751 0.57221 0.26658 0.0
C2072 C 0.6919 0.60288 0.2548 0.0
C2073 C 0.70809 0.61067 0.26633 0.0
C2074 C 0.71375 0.59883 0.27819 0.0
C2075 C 0.70374 0.57992 0.27821 0.0
C2076 C 0.71869 0.63107 0.26606 0.0
C2077 C 0.72404 0.64453 0.2831 0.0
C2078 C 0.72256 0.63782 0.24897 0.0
C2079 C 0.71783 0.62481 0.23029 0.0
C2080 C 0.72339 0.60781 0.22721 0.0
C2081 C 0.7187 0.59551 0.20963 0.0
C2082 C 0.70855 0.60011 0.19497 0.0
C2083 C 0.7031 0.61706 0.19785 0.0
C2084 C 0.70774 0.6294 0.21541 0.0
C2085 C 0.77283 0.71835 0.27972 0.0
C2086 C 0.76808 0.72976 0.26696 0.0
C2087 C 0.76301 0.6995 0.27935 0.0
C2088 C 0.74771 0.69107 0.2664 0.0
C2089 C 0.74298 0.70239 0.25342 0.0
C2090 C 0.75294 0.72136 0.25372 0.0
C2091 C 0.73699 0.67065 0.26651 0.0
C2092 C 0.73153 0.65722 0.24944 0.0
C2093 C 0.73266 0.66401 0.28352 0.0
C2094 C 0.73597 0.67742 0.30192 0.0
C2095 C 0.72961 0.69394 0.30368 0.0
C2096 C 0.73293 0.70669 0.32096 0.0
C2097 C 0.74248 0.70299 0.33665 0.0
C2098 C 0.74868 0.68651 0.33509 0.0
C2099 C 0.74541 0.67372 0.31782 0.0
H2100 H 0.74506 0.71289 0.35002 0.0
H2101 H 0.70492 0.59057 0.18137 0.0
H2102 H 0.87473 0.4776 0.71875 0.0
H2103 H 0.8592 0.44362 0.71255 0.0
H2104 H 0.88633 0.43632 0.76464 0.0
H2105 H 0.9016 0.46985 0.77092 0.0
H2106 H 0.8765 0.40293 0.73867 0.0
H2107 H 0.85174 0.45445 0.7685 0.0
H2108 H 0.84218 0.48426 0.76852 0.0
H2109 H 0.80787 0.4588 0.71663 0.0
H2110 H 0.8174 0.4289 0.71626 0.0
H2111 H 0.82509 0.34614 0.78905 0.0
H2112 H 0.83996 0.3776 0.78325 0.0
H2113 H 0.80414 0.36928 0.73194 0.0
H2114 H 0.78916 0.33811 0.73778 0.0
H2115 H 0.81677 0.40746 0.74994 0.0
H2116 H 0.8374 0.35097 0.72958 0.0
H2117 H 0.84684 0.32262 0.73656 0.0
H2118 H 0.89044 0.35869 0.77519 0.0
H2119 H 0.88085 0.38717 0.76916 0.0
C2120 C 0.87778 0.4685 0.72844 0.0
C2121 C 0.88877 0.47624 0.7456 0.0
C2122 C 0.86908 0.44917 0.7248 0.0
C2123 C 0.87151 0.43773 0.7383 0.0
C2124 C 0.8843 0.44498 0.75409 0.0
C2125 C 0.89279 0.46419 0.75781 0.0
C2126 C 0.85814 0.42048 0.73908 0.0
C2127 C 0.86333 0.4037 0.74078 0.0
C2128 C 0.84109 0.42175 0.74209 0.0
C2129 C 0.8354 0.43962 0.74223 0.0
C2130 C 0.84223 0.4553 0.75705 0.0
C2131 C 0.83682 0.47217 0.75714 0.0
C2132 C 0.82446 0.47344 0.74255 0.0
C2133 C 0.81747 0.45781 0.72788 0.0
C2134 C 0.82287 0.44091 0.72772 0.0
C2135 C 0.81996 0.35148 0.77706 0.0
C2136 C 0.80649 0.33978 0.76349 0.0
C2137 C 0.82845 0.3693 0.77373 0.0
C2138 C 0.82337 0.37516 0.75685 0.0
C2139 C 0.80828 0.36468 0.74486 0.0
C2140 C 0.79985 0.34693 0.74815 0.0
C2141 C 0.83528 0.39016 0.74995 0.0
C2142 C 0.8297 0.40636 0.74709 0.0
C2143 C 0.85205 0.3884 0.74625 0.0
C2144 C 0.85835 0.37124 0.74898 0.0
C2145 C 0.84897 0.35286 0.73961 0.0
C2146 C 0.85432 0.33674 0.74343 0.0
C2147 C 0.86926 0.33882 0.75625 0.0
C2148 C 0.87887 0.35704 0.76527 0.0
C2149 C 0.87346 0.37319 0.7617 0.0
H2150 H 0.87338 0.32633 0.7592 0.0
H2151 H 0.82027 0.48651 0.74264 0.0
H2152 H 0.07417 0.83679 0.05868 0.0
H2153 H 0.06814 0.86353 0.04504 0.0
H2154 H 0.05535 0.88787 0.09872 0.0
H2155 H 0.06103 0.86081 0.11241 0.0
H2156 H 0.03236 0.89089 0.07069 0.0
H2157 H 0.09565 0.90555 0.08117 0.0
H2158 H 0.12463 0.89968 0.07775 0.0
H2159 H 0.11337 0.89233 0.01712 0.0
H2160 H 0.08428 0.898 0.02019 0.0
H2161 H 0.03973 0.98666 0.05606 0.0
H2162 H 0.0431 0.95732 0.06696 0.0
H2163 H 0.05196 0.93438 0.01086 0.0
H2164 H 0.04821 0.96368 0.99988 0.0
H2165 H 0.07601 0.92959 0.03811 0.0
H2166 H 0.01472 0.91602 0.02588 0.0
H2167 H 0.98515 0.9209 0.0268 0.0
H2168 H 0.9912 0.92429 0.08725 0.0
H2169 H 0.02095 0.91972 0.08675 0.0
C2170 C 0.07017 0.84785 0.06769 0.0
C2171 C 0.06827 0.84659 0.08679 0.0
C2172 C 0.06678 0.86327 0.05983 0.0
C2173 C 0.06154 0.87808 0.07083 0.0
C2174 C 0.05944 0.87677 0.08985 0.0
C2175 C 0.06278 0.86128 0.09773 0.0
C2176 C 0.05813 0.89477 0.06251 0.0
C2177 C 0.04205 0.89951 0.06386 0.0
C2178 C 0.07035 0.90567 0.05273 0.0
C2179 C 0.08774 0.902 0.05091 0.0
C2180 C 0.09931 0.90252 0.06711 0.0
C2181 C 0.11576 0.89927 0.06524 0.0
C2182 C 0.12082 0.89558 0.04723 0.0
C2183 C 0.10944 0.89516 0.03106 0.0
C2184 C 0.09298 0.89841 0.03286 0.0
C2185 C 0.04236 0.9753 0.04608 0.0
C2186 C 0.0438 0.97742 0.02718 0.0
C2187 C 0.04418 0.95849 0.05227 0.0
C2188 C 0.0477 0.94348 0.03975 0.0
C2189 C 0.04922 0.94568 0.02082 0.0
C2190 C 0.04709 0.96239 0.01454 0.0
C2191 C 0.05043 0.9259 0.04667 0.0
C2192 C 0.06634 0.92097 0.04499 0.0
C2193 C 0.03794 0.91466 0.05583 0.0
C2194 C 0.02017 0.91776 0.05631 0.0
C2195 C 0.00984 0.91804 0.03941 0.0
C2196 C 0.99302 0.92069 0.03984 0.0
C2197 C 0.98632 0.92296 0.05708 0.0
C2198 C 0.99643 0.92256 0.07391 0.0
C2199 C 0.01327 0.91993 0.07356 0.0
H2200 H 0.97328 0.92498 0.05738 0.0
H2201 H 0.13357 0.89309 0.04581 0.0
H2202 H 0.94099 0.26372 0.90199 0.0
H2203 H 0.91598 0.26724 0.88185 0.0
H2204 H 0.94347 0.26215 0.83319 0.0
H2205 H 0.96888 0.25905 0.85351 0.0
H2206 H 0.92742 0.28952 0.83176 0.0
H2207 H 0.90896 0.22508 0.84106 0.0
H2208 H 0.90303 0.19863 0.85894 0.0
H2209 H 0.86667 0.22383 0.88764 0.0
H2210 H 0.87255 0.25057 0.87009 0.0
H2211 H 0.8512 0.26396 0.76138 0.0
H2212 H 0.87693 0.26365 0.78272 0.0
H2213 H 0.85443 0.2862 0.83059 0.0
H2214 H 0.82877 0.28729 0.80902 0.0
H2215 H 0.86756 0.25076 0.8328 0.0
H2216 H 0.88583 0.31482 0.82167 0.0
H2217 H 0.89191 0.34036 0.80276 0.0
H2218 H 0.92869 0.3143 0.77586 0.0
H2219 H 0.92262 0.2884 0.79444 0.0
C2220 C 0.94176 0.26321 0.88698 0.0
C2221 C 0.95704 0.26097 0.87944 0.0
C2222 C 0.92732 0.26516 0.8754 0.0
C2223 C 0.92756 0.2647 0.85581 0.0
C2224 C 0.94282 0.26251 0.8482 0.0
C2225 C 0.95736 0.26063 0.85985 0.0
C2226 C 0.91203 0.26689 0.84349 0.0
C2227 C 0.91439 0.28082 0.83184 0.0
C2228 C 0.89483 0.25592 0.84374 0.0
C2229 C 0.89133 0.23993 0.8544 0.0
C2230 C 0.89981 0.22507 0.8513 0.0
C2231 C 0.89644 0.21001 0.86135 0.0
C2232 C 0.88452 0.20958 0.87446 0.0
C2233 C 0.87592 0.2242 0.87751 0.0
C2234 C 0.87926 0.2393 0.8675 0.0
C2235 C 0.85177 0.26905 0.77643 0.0
C2236 C 0.8379 0.27564 0.7835 0.0
C2237 C 0.86653 0.26889 0.78863 0.0
C2238 C 0.86768 0.27487 0.8083 0.0
C2239 C 0.85387 0.28153 0.81546 0.0
C2240 C 0.83924 0.28221 0.80314 0.0
C2241 C 0.88302 0.27336 0.82121 0.0
C2242 C 0.88061 0.25948 0.83285 0.0
C2243 C 0.90018 0.2842 0.82077 0.0
C2244 C 0.9036 0.29953 0.80928 0.0
C2245 C 0.89504 0.31438 0.81154 0.0
C2246 C 0.89853 0.32897 0.80092 0.0
C2247 C 0.91064 0.32892 0.78806 0.0
C2248 C 0.91928 0.31429 0.7858 0.0
C2249 C 0.91583 0.29966 0.79638 0.0
H2250 H 0.91338 0.34025 0.77988 0.0
H2251 H 0.88191 0.1979 0.88222 0.0
H2252 H 0.54018 0.24589 0.58734 0.0
H2253 H 0.5353 0.2124 0.57244 0.0
H2254 H 0.58501 0.22543 0.55149 0.0
H2255 H 0.58943 0.25914 0.56545 0.0
H2256 H 0.56348 0.20033 0.52609 0.0
H2257 H 0.57758 0.20543 0.59394 0.0
H2258 H 0.57384 0.21378 0.62759 0.0
H2259 H 0.52216 0.17678 0.61665 0.0
H2260 H 0.52551 0.16841 0.58289 0.0
H2261 H 0.57669 0.10479 0.51795 0.0
H2262 H 0.57962 0.13915 0.5283 0.0
H2263 H 0.5249 0.12785 0.53406 0.0
H2264 H 0.52173 0.0938 0.52341 0.0
H2265 H 0.54859 0.15144 0.56665 0.0
H2266 H 0.53441 0.14591 0.49952 0.0
H2267 H 0.53781 0.13673 0.46593 0.0
H2268 H 0.58944 0.17382 0.47572 0.0
H2269 H 0.58645 0.18296 0.5095 0.0
C2270 C 0.54995 0.24162 0.57935 0.0
C2271 C 0.56523 0.25509 0.57764 0.0
C2272 C 0.54723 0.22244 0.57097 0.0
C2273 C 0.56001 0.21621 0.56128 0.0
C2274 C 0.57498 0.22981 0.55896 0.0
C2275 C 0.57751 0.24909 0.56695 0.0
C2276 C 0.55806 0.19551 0.55401 0.0
C2277 C 0.56047 0.18972 0.53508 0.0
C2278 C 0.55371 0.18147 0.56553 0.0
C2279 C 0.55175 0.18644 0.58586 0.0
C2280 C 0.56539 0.19917 0.59869 0.0
C2281 C 0.56334 0.2039 0.61779 0.0
C2282 C 0.54776 0.19586 0.62424 0.0
C2283 C 0.53421 0.18303 0.61163 0.0
C2284 C 0.53618 0.17828 0.59252 0.0
C2285 C 0.56528 0.10967 0.52128 0.0
C2286 C 0.54899 0.09657 0.51981 0.0
C2287 C 0.56696 0.12925 0.52716 0.0
C2288 C 0.55245 0.13594 0.53192 0.0
C2289 C 0.53623 0.12292 0.53044 0.0
C2290 C 0.53446 0.10347 0.52426 0.0
C2291 C 0.55418 0.15648 0.53896 0.0
C2292 C 0.55169 0.16216 0.55778 0.0
C2293 C 0.55846 0.17036 0.52739 0.0
C2294 C 0.56029 0.16494 0.50709 0.0
C2295 C 0.54657 0.15195 0.49457 0.0
C2296 C 0.5484 0.14679 0.47548 0.0
C2297 C 0.56385 0.15464 0.4687 0.0
C2298 C 0.57749 0.16772 0.481 0.0
C2299 C 0.57573 0.1729 0.50012 0.0
H2300 H 0.56525 0.15064 0.45392 0.0
H2301 H 0.5462 0.19954 0.63902 0.0
H2302 H 0.55778 0.7523 0.37674 0.0
H2303 H 0.58553 0.75535 0.36358 0.0
H2304 H 0.59342 0.81653 0.37253 0.0
H2305 H 0.566 0.81367 0.38583 0.0
H2306 H 0.59929 0.80194 0.33682 0.0
H2307 H 0.61725 0.79946 0.4007 0.0
H2308 H 0.61749 0.7874 0.43084 0.0
H2309 H 0.62828 0.73578 0.40328 0.0
H2310 H 0.62784 0.74742 0.37285 0.0
H2311 H 0.68643 0.8235 0.31487 0.0
H2312 H 0.66094 0.82249 0.3316 0.0
H2313 H 0.65404 0.76192 0.32934 0.0
H2314 H 0.67959 0.76287 0.31276 0.0
H2315 H 0.64811 0.77765 0.36289 0.0
H2316 H 0.62905 0.78211 0.29783 0.0
H2317 H 0.62976 0.79693 0.26925 0.0
H2318 H 0.62218 0.84826 0.30139 0.0
H2319 H 0.62164 0.83382 0.3302 0.0
C2320 C 0.5654 0.76639 0.37584 0.0
C2321 C 0.55956 0.78272 0.38227 0.0
C2322 C 0.58133 0.76813 0.36844 0.0
C2323 C 0.59164 0.7862 0.36712 0.0
C2324 C 0.58573 0.80245 0.37336 0.0
C2325 C 0.57 0.80075 0.38098 0.0
C2326 C 0.60834 0.78821 0.35875 0.0
C2327 C 0.61003 0.79679 0.34264 0.0
C2328 C 0.62239 0.78149 0.36629 0.0
C2329 C 0.62225 0.77419 0.38442 0.0
C2330 C 0.61943 0.78542 0.40099 0.0
C2331 C 0.61967 0.77869 0.41815 0.0
C2332 C 0.62283 0.7608 0.41896 0.0
C2333 C 0.62578 0.74962 0.40261 0.0
C2334 C 0.62554 0.75627 0.3854 0.0
C2335 C 0.67949 0.80994 0.31788 0.0
C2336 C 0.6851 0.79324 0.31228 0.0
C2337 C 0.66484 0.80937 0.32746 0.0
C2338 C 0.65524 0.79204 0.33148 0.0
C2339 C 0.66112 0.77548 0.32642 0.0
C2340 C 0.67583 0.77606 0.31695 0.0
C2341 C 0.63894 0.79101 0.34064 0.0
C2342 C 0.63734 0.7827 0.35698 0.0
C2343 C 0.62505 0.79827 0.3335 0.0
C2344 C 0.62548 0.80695 0.3162 0.0
C2345 C 0.62767 0.79661 0.29882 0.0
C2346 C 0.62802 0.80493 0.28258 0.0
C2347 C 0.62606 0.82354 0.28351 0.0
C2348 C 0.62372 0.83386 0.30069 0.0
C2349 C 0.62339 0.82561 0.31697 0.0
H2350 H 0.62632 0.82995 0.27092 0.0
H2351 H 0.62304 0.75564 0.43227 0.0
H2352 H 0.07346 0.28994 0.4402 0.0
H2353 H 0.05969 0.26218 0.45324 0.0
H2354 H 0.06313 0.22491 0.40184 0.0
H2355 H 0.07653 0.25266 0.38846 0.0
H2356 H 0.03138 0.21461 0.41464 0.0
H2357 H 0.09253 0.23094 0.44101 0.0
H2358 H 0.11952 0.25364 0.4579 0.0
H2359 H 0.09387 0.26404 0.50695 0.0
H2360 H 0.06666 0.24156 0.49026 0.0
H2361 H 0.03035 0.12861 0.45396 0.0
H2362 H 0.03324 0.15537 0.4368 0.0
H2363 H 0.02897 0.1925 0.4879 0.0
H2364 H 0.02674 0.16622 0.50525 0.0
H2365 H 0.05963 0.20339 0.47479 0.0
H2366 H 0.99977 0.18352 0.45084 0.0
H2367 H 0.97113 0.16495 0.43403 0.0
H2368 H 0.99144 0.16389 0.38081 0.0
H2369 H 0.02053 0.18139 0.39734 0.0
C2370 C 0.07146 0.27584 0.43174 0.0
C2371 C 0.07629 0.27346 0.41341 0.0
C2372 C 0.06351 0.26001 0.43916 0.0
C2373 C 0.06056 0.24152 0.42854 0.0
C2374 C 0.06529 0.23908 0.41022 0.0
C2375 C 0.07309 0.25493 0.4027 0.0
C2376 C 0.05311 0.22469 0.43685 0.0
C2377 C 0.03761 0.2118 0.42761 0.0
C2378 C 0.06103 0.22168 0.45412 0.0
C2379 C 0.07756 0.23466 0.46436 0.0
C2380 C 0.09265 0.2381 0.45539 0.0
C2381 C 0.10798 0.25093 0.46492 0.0
C2382 C 0.1084 0.2603 0.48348 0.0
C2383 C 0.09352 0.25677 0.49258 0.0
C2384 C 0.07816 0.24397 0.4831 0.0
C2385 C 0.02975 0.14241 0.46146 0.0
C2386 C 0.02867 0.14535 0.48109 0.0
C2387 C 0.03116 0.15761 0.45156 0.0
C2388 C 0.03142 0.17591 0.46114 0.0
C2389 C 0.02879 0.17845 0.48027 0.0
C2390 C 0.02745 0.16335 0.49016 0.0
C2391 C 0.03775 0.1929 0.45255 0.0
C2392 C 0.05324 0.20589 0.46174 0.0
C2393 C 0.02966 0.1959 0.43527 0.0
C2394 C 0.01255 0.18361 0.42547 0.0
C2395 C 0.99835 0.17886 0.43563 0.0
C2396 C 0.98197 0.16855 0.42611 0.0
C2397 C 0.97947 0.16321 0.40637 0.0
C2398 C 0.9934 0.16801 0.39611 0.0
C2399 C 0.00989 0.17795 0.40558 0.0
H2400 H 0.96674 0.15538 0.39901 0.0
H2401 H 0.12027 0.27026 0.49082 0.0
H2402 H 0.5478 0.26955 0.16245 0.0
H2403 H 0.57775 0.27451 0.17721 0.0
H2404 H 0.55945 0.243 0.22042 0.0
H2405 H 0.52922 0.23756 0.20545 0.0
H2406 H 0.58664 0.2805 0.23276 0.0
H2407 H 0.57306 0.21969 0.19041 0.0
H2408 H 0.5626 0.19738 0.16 0.0
H2409 H 0.60176 0.23105 0.13347 0.0
H2410 H 0.61223 0.25381 0.16366 0.0
H2411 H 0.66345 0.25272 0.26527 0.0
H2412 H 0.63452 0.25733 0.25571 0.0
H2413 H 0.65289 0.27894 0.20678 0.0
H2414 H 0.68168 0.2741 0.21616 0.0
H2415 H 0.62556 0.24815 0.19753 0.0
H2416 H 0.64191 0.3066 0.24173 0.0
H2417 H 0.65316 0.32725 0.27282 0.0
H2418 H 0.60912 0.29845 0.29647 0.0
H2419 H 0.59809 0.27679 0.26579 0.0
C2420 C 0.5501 0.26384 0.17522 0.0
C2421 C 0.53626 0.25324 0.18293 0.0
C2422 C 0.56718 0.26667 0.18356 0.0
C2423 C 0.5706 0.25913 0.19982 0.0
C2424 C 0.55685 0.24895 0.20788 0.0
C2425 C 0.53971 0.2458 0.19931 0.0
C2426 C 0.58869 0.2612 0.20778 0.0
C2427 C 0.59521 0.27331 0.22529 0.0
C2428 C 0.5997 0.25215 0.19753 0.0
C2429 C 0.59324 0.23864 0.17925 0.0
C2430 C 0.57927 0.22251 0.17803 0.0
C2431 C 0.57338 0.20974 0.16084 0.0
C2432 C 0.58146 0.21284 0.14479 0.0
C2433 C 0.59547 0.22871 0.1459 0.0
C2434 C 0.60138 0.24156 0.16305 0.0
C2435 C 0.66135 0.25892 0.25278 0.0
C2436 C 0.67449 0.26281 0.24122 0.0
C2437 C 0.64492 0.2616 0.24738 0.0
C2438 C 0.64168 0.26839 0.23053 0.0
C2439 C 0.65522 0.2736 0.21977 0.0
C2440 C 0.67155 0.27079 0.22508 0.0
C2441 C 0.62372 0.26746 0.22271 0.0
C2442 C 0.61715 0.25552 0.20509 0.0
C2443 C 0.61274 0.27665 0.23295 0.0
C2444 C 0.61925 0.28986 0.25142 0.0
C2445 C 0.63472 0.30444 0.25359 0.0
C2446 C 0.64106 0.31637 0.27117 0.0
C2447 C 0.63182 0.31426 0.28659 0.0
C2448 C 0.61627 0.30009 0.28451 0.0
C2449 C 0.61002 0.2879 0.26704 0.0
H2450 H 0.63671 0.32359 0.30016 0.0
H2451 H 0.57691 0.20291 0.13151 0.0
H2452 H 0.54363 0.84957 0.908 0.0
H2453 H 0.54317 0.87914 0.92847 0.0
H2454 H 0.59714 0.90283 0.92328 0.0
H2455 H 0.59789 0.87276 0.90323 0.0
H2456 H 0.5907 0.91036 0.95918 0.0
H2457 H 0.56421 0.91657 0.89841 0.0
H2458 H 0.54371 0.90483 0.86875 0.0
H2459 H 0.5004 0.89957 0.90065 0.0
H2460 H 0.52063 0.91106 0.93051 0.0
H2461 H 0.58134 0.99716 0.01155 0.0
H2462 H 0.58779 0.97436 0.98624 0.0
H2463 H 0.53369 0.94277 0.97681 0.0
H2464 H 0.52707 0.96661 1.00084 0.0
H2465 H 0.5442 0.94316 0.94494 0.0
H2466 H 0.5692 0.93017 0.0047 0.0
H2467 H 0.58845 0.93971 0.03534 0.0
H2468 H 0.63295 0.95558 0.0064 0.0
H2469 H 0.61392 0.94628 0.9756 0.0
C2470 C 0.55539 0.8611 0.91112 0.0
C2471 C 0.57075 0.85902 0.9039 0.0
C2472 C 0.55508 0.878 0.92275 0.0
C2473 C 0.56999 0.89331 0.92694 0.0
C2474 C 0.58547 0.8912 0.92001 0.0
C2475 C 0.58587 0.87409 0.90859 0.0
C2476 C 0.5693 0.9113 0.93894 0.0
C2477 C 0.58077 0.9178 0.95592 0.0
C2478 C 0.55617 0.92076 0.93472 0.0
C2479 C 0.54395 0.91468 0.91671 0.0
C2480 C 0.55031 0.91292 0.8991 0.0
C2481 C 0.53874 0.90628 0.88225 0.0
C2482 C 0.52077 0.90145 0.88281 0.0
C2483 C 0.51432 0.90335 0.90023 0.0
C2484 C 0.52583 0.90997 0.91712 0.0
C2485 C 0.57094 0.98523 0.00408 0.0
C2486 C 0.55382 0.98322 0.00821 0.0
C2487 C 0.5746 0.97223 0.98967 0.0
C2488 C 0.56131 0.95657 0.97991 0.0
C2489 C 0.54417 0.95471 0.98413 0.0
C2490 C 0.54042 0.96812 0.99797 0.0
C2491 C 0.56512 0.94177 0.96562 0.0
C2492 C 0.55432 0.93594 0.9481 0.0
C2493 C 0.57868 0.93273 0.96947 0.0
C2494 C 0.59015 0.93768 0.98791 0.0
C2495 C 0.58309 0.93571 0.0049 0.0
C2496 C 0.59396 0.94109 0.02228 0.0
C2497 C 0.6119 0.94829 0.02282 0.0
C2498 C 0.61904 0.95002 0.00596 0.0
C2499 C 0.60824 0.94467 0.98854 0.0
H2500 H 0.62029 0.9525 0.0363 0.0
H2501 H 0.51183 0.89625 0.86976 0.0
H2502 H 0.93623 0.7162 0.67572 0.0
H2503 H 0.91482 0.72392 0.69595 0.0
H2504 H 0.93995 0.78396 0.70279 0.0
H2505 H 0.96135 0.77645 0.68267 0.0
H2506 H 0.93113 0.77364 0.73634 0.0
H2507 H 0.90512 0.76822 0.6732 0.0
H2508 H 0.89493 0.75427 0.63948 0.0
H2509 H 0.86016 0.70669 0.65534 0.0
H2510 H 0.87037 0.7202 0.6892 0.0
H2511 H 0.85646 0.80808 0.76022 0.0
H2512 H 0.88255 0.80137 0.74839 0.0
H2513 H 0.86034 0.74091 0.74379 0.0
H2514 H 0.83416 0.74741 0.75547 0.0
H2515 H 0.86847 0.75275 0.70981 0.0
H2516 H 0.89529 0.76229 0.77508 0.0
H2517 H 0.90465 0.78075 0.80757 0.0
H2518 H 0.93723 0.82594 0.78598 0.0
H2519 H 0.92786 0.80787 0.75332 0.0
C2520 C 0.93723 0.73102 0.68162 0.0
C2521 C 0.95032 0.74572 0.67752 0.0
C2522 C 0.92502 0.7354 0.69312 0.0
C2523 C 0.92585 0.7545 0.70069 0.0
C2524 C 0.93918 0.76915 0.69705 0.0
C2525 C 0.95128 0.76481 0.68546 0.0
C2526 C 0.91239 0.75921 0.71184 0.0
C2527 C 0.91742 0.76918 0.73057 0.0
C2528 C 0.8946 0.75352 0.70411 0.0
C2529 C 0.88872 0.74508 0.68375 0.0
C2530 C 0.89548 0.75465 0.66951 0.0
C2531 C 0.88966 0.74685 0.65037 0.0
C2532 C 0.87696 0.72957 0.64527 0.0
C2533 C 0.87004 0.72005 0.65931 0.0
C2534 C 0.87585 0.72776 0.67848 0.0
C2535 C 0.85727 0.79336 0.75711 0.0
C2536 C 0.84313 0.77821 0.75841 0.0
C2537 C 0.87222 0.7896 0.75047 0.0
C2538 C 0.87323 0.77068 0.74523 0.0
C2539 C 0.85968 0.7556 0.74779 0.0
C2540 C 0.84474 0.75935 0.75441 0.0
C2541 C 0.88712 0.76648 0.73455 0.0
C2542 C 0.88216 0.7569 0.71572 0.0
C2543 C 0.90493 0.77304 0.74205 0.0
C2544 C 0.91077 0.78377 0.76173 0.0
C2545 C 0.90436 0.77622 0.77724 0.0
C2546 C 0.90968 0.78661 0.79569 0.0
C2547 C 0.9215 0.80452 0.79883 0.0
C2548 C 0.92807 0.81206 0.78353 0.0
C2549 C 0.92277 0.80174 0.76504 0.0
H2550 H 0.9256 0.81254 0.81313 0.0
H2551 H 0.87243 0.72358 0.63044 0.0
H2552 H 0.11496 0.04042 0.81832 0.0
H2553 H 0.10104 0.03956 0.84695 0.0
H2554 H 0.122 0.99255 0.85818 0.0
H2555 H 0.13609 0.99324 0.82895 0.0
H2556 H 0.08787 0.98739 0.86772 0.0
H2557 H 0.13935 0.04064 0.88348 0.0
H2558 H 0.15829 0.0706 0.87795 0.0
H2559 H 0.11587 0.09764 0.88132 0.0
H2560 H 0.09664 0.06778 0.88667 0.0
H2561 H 0.06321 0.99258 0.96164 0.0
H2562 H 0.07877 0.99154 0.93377 0.0
H2563 H 0.0714 0.04681 0.92699 0.0
H2564 H 0.05658 0.04807 0.95545 0.0
H2565 H 0.0992 0.04725 0.91495 0.0
H2566 H 0.04732 0.99816 0.89752 0.0
H2567 H 0.0246 0.96926 0.89889 0.0
H2568 H 0.06217 0.93559 0.89447 0.0
H2569 H 0.08519 0.96435 0.8933 0.0
C2570 C 0.11679 0.02978 0.82671 0.0
C2571 C 0.12707 0.01701 0.82084 0.0
C2572 C 0.10872 0.02938 0.84345 0.0
C2573 C 0.11044 0.01626 0.85555 0.0
C2574 C 0.1203 1.00304 0.84954 0.0
C2575 C 0.1285 0.00346 0.83265 0.0
C2576 C 0.10225 0.01681 0.87431 0.0
C2577 C 0.0907 1.00043 0.87818 0.0
C2578 C 0.10486 0.03388 0.88802 0.0
C2579 C 0.11656 0.05197 0.88539 0.0
C2580 C 0.13407 0.05298 0.88302 0.0
C2581 C 0.14485 0.06993 0.8799 0.0
C2582 C 0.13828 0.08601 0.87927 0.0
C2583 C 0.12094 0.08519 0.88183 0.0
C2584 C 0.11011 0.06826 0.88493 0.0
C2585 C 0.0654 0.00483 0.95462 0.0
C2586 C 0.0591 0.02076 0.96164 0.0
C2587 C 0.07404 0.00405 0.93814 0.0
C2588 C 0.0763 0.01889 0.9273 0.0
C2589 C 0.07022 0.03499 0.93458 0.0
C2590 C 0.06177 0.03585 0.95122 0.0
C2591 C 0.08484 0.01772 0.90867 0.0
C2592 C 0.09642 0.03406 0.90471 0.0
C2593 C 0.08173 1.00076 0.89457 0.0
C2594 C 0.06804 0.98346 0.89558 0.0
C2595 C 0.05078 0.98462 0.89702 0.0
C2596 C 0.03784 0.96826 0.89773 0.0
C2597 C 0.04195 0.95061 0.89684 0.0
C2598 C 0.05902 0.94928 0.89521 0.0
C2599 C 0.07202 0.96561 0.89452 0.0
H2600 H 0.03191 0.93795 0.89737 0.0
H2601 H 0.14664 0.09911 0.87681 0.0
H2602 H 0.82381 0.37966 0.52236 0.0
H2603 H 0.8351 0.37171 0.55195 0.0
H2604 H 0.79585 0.39255 0.58018 0.0
H2605 H 0.78473 0.40105 0.55071 0.0
H2606 H 0.82829 0.40619 0.60072 0.0
H2607 H 0.79139 0.3449 0.56794 0.0
H2608 H 0.78163 0.31911 0.53991 0.0
H2609 H 0.83311 0.30985 0.54225 0.0
H2610 H 0.84319 0.3357 0.57023 0.0
H2611 H 0.81541 0.3591 0.67761 0.0
H2612 H 0.81803 0.37624 0.65125 0.0
H2613 H 0.8564 0.34717 0.632 0.0
H2614 H 0.85278 0.32881 0.65741 0.0
H2615 H 0.83032 0.3399 0.60601 0.0
H2616 H 0.86538 0.39791 0.64377 0.0
H2617 H 0.87445 0.42431 0.6713 0.0
H2618 H 0.8263 0.44021 0.66016 0.0
H2619 H 0.81685 0.41382 0.63268 0.0
C2620 C 0.81737 0.38222 0.53477 0.0
C2621 C 0.8034 0.39095 0.53428 0.0
C2622 C 0.82391 0.37781 0.55167 0.0
C2623 C 0.81633 0.38167 0.56817 0.0
C2624 C 0.80196 0.3897 0.56757 0.0
C2625 C 0.79551 0.39431 0.55072 0.0
C2626 C 0.82322 0.37707 0.58607 0.0
C2627 C 0.82872 0.39171 0.60203 0.0
C2628 C 0.82427 0.35833 0.5874 0.0
C2629 C 0.81805 0.34227 0.57109 0.0
C2630 C 0.80061 0.33736 0.56246 0.0
C2631 C 0.79503 0.32274 0.54658 0.0
C2632 C 0.80675 0.31287 0.53929 0.0
C2633 C 0.82405 0.31751 0.54793 0.0
C2634 C 0.82969 0.3321 0.56382 0.0
C2635 C 0.82466 0.35663 0.66797 0.0
C2636 C 0.83348 0.34221 0.66925 0.0
C2637 C 0.82639 0.36671 0.65308 0.0
C2638 C 0.83738 0.36292 0.6396 0.0
C2639 C 0.8478 0.35022 0.64223 0.0
C2640 C 0.84579 0.33983 0.65688 0.0
C2641 C 0.83515 0.36897 0.62109 0.0
C2642 C 0.83042 0.35454 0.60484 0.0
C2643 C 0.83476 0.38791 0.6196 0.0
C2644 C 0.8404 0.40385 0.63614 0.0
C2645 C 0.85668 0.40697 0.64724 0.0
C2646 C 0.8619 0.42195 0.66283 0.0
C2647 C 0.85097 0.43395 0.66744 0.0
C2648 C 0.83477 0.43094 0.65653 0.0
C2649 C 0.8295 0.41601 0.6409 0.0
H2650 H 0.85507 0.44563 0.6794 0.0
H2651 H 0.80242 0.3016 0.52695 0.0
H2652 H 0.46006 0.01086 0.3059 0.0
H2653 H 0.48021 0.01557 0.33495 0.0
H2654 H 0.43761 0.01575 0.36808 0.0
H2655 H 0.41776 0.01265 0.339 0.0
H2656 H 0.46211 0.04309 0.38373 0.0
H2657 H 0.45956 0.97751 0.36073 0.0
H2658 H 0.461 0.94914 0.33806 0.0
H2659 H 0.51464 0.97476 0.33453 0.0
H2660 H 0.51345 0.00339 0.35698 0.0
H2661 H 0.50757 0.01639 0.46387 0.0
H2662 H 0.48848 0.01426 0.43462 0.0
H2663 H 0.52981 0.05242 0.41448 0.0
H2664 H 0.54883 0.05553 0.44437 0.0
H2665 H 0.5074 0.00748 0.39285 0.0
H2666 H 0.50739 0.07391 0.4181 0.0
H2667 H 0.50425 0.09853 0.44417 0.0
H2668 H 0.45237 0.06615 0.4467 0.0
H2669 H 0.45534 0.04115 0.42083 0.0
C2670 C 0.45501 0.01149 0.31939 0.0
C2671 C 0.43748 0.01127 0.32042 0.0
C2672 C 0.46649 0.01414 0.33598 0.0
C2673 C 0.4604 0.01579 0.35372 0.0
C2674 C 0.44262 0.01461 0.35457 0.0
C2675 C 0.43128 0.01266 0.33803 0.0
C2676 C 0.47272 0.02002 0.37141 0.0
C2677 C 0.47188 0.03513 0.3857 0.0
C2678 C 0.48565 0.00984 0.37401 0.0
C2679 C 0.48635 0.99268 0.36038 0.0
C2680 C 0.47161 0.97716 0.35499 0.0
C2681 C 0.4724 0.96102 0.34221 0.0
C2682 C 0.48788 0.96017 0.33482 0.0
C2683 C 0.50264 0.97544 0.34023 0.0
C2684 C 0.50192 0.99163 0.353 0.0
C2685 C 0.51246 0.02472 0.45344 0.0
C2686 C 0.52951 0.03636 0.45638 0.0
C2687 C 0.50159 0.02341 0.43678 0.0
C2688 C 0.50782 0.03337 0.42273 0.0
C2689 C 0.52487 0.04488 0.42545 0.0
C2690 C 0.53566 0.04658 0.44238 0.0
C2691 C 0.49669 0.03041 0.40467 0.0
C2692 C 0.49769 0.01546 0.39052 0.0
C2693 C 0.48362 0.04031 0.40245 0.0
C2694 C 0.48167 0.05556 0.41767 0.0
C2695 C 0.49538 0.07194 0.42433 0.0
C2696 C 0.49361 0.08599 0.43905 0.0
C2697 C 0.47813 0.08388 0.44712 0.0
C2698 C 0.46436 0.06775 0.44044 0.0
C2699 C 0.46607 0.05365 0.42574 0.0
H2700 H 0.47679 0.09475 0.45853 0.0
H2701 H 0.48846 0.94766 0.32493 0.0
H2702 H 0.7617 0.69714 0.04624 0.0
H2703 H 0.75956 0.71206 0.07837 0.0
H2704 H 0.81125 0.7486 0.0821 0.0
H2705 H 0.81369 0.73332 0.0501 0.0
H2706 H 0.80841 0.73325 0.11244 0.0
H2707 H 0.77332 0.76561 0.07811 0.0
H2708 H 0.74961 0.76802 0.05467 0.0
H2709 H 0.71176 0.73551 0.08357 0.0
H2710 H 0.73528 0.73272 0.10707 0.0
H2711 H 0.80891 0.78945 0.20036 0.0
H2712 H 0.80825 0.78025 0.16616 0.0
H2713 H 0.75672 0.74332 0.16244 0.0
H2714 H 0.75697 0.75331 0.19662 0.0
H2715 H 0.75917 0.75936 0.13194 0.0
H2716 H 0.79476 0.72675 0.16605 0.0
H2717 H 0.81869 0.7256 0.18994 0.0
H2718 H 0.85585 0.75898 0.16094 0.0
H2719 H 0.83215 0.76069 0.1372 0.0
C2720 C 0.77255 0.70851 0.05379 0.0
C2721 C 0.78791 0.71399 0.0456 0.0
C2722 C 0.77126 0.71711 0.07216 0.0
C2723 C 0.78518 0.7316 0.08264 0.0
C2724 C 0.80034 0.73744 0.07431 0.0
C2725 C 0.80171 0.72873 0.05598 0.0
C2726 C 0.78438 0.73976 0.1027 0.0
C2727 C 0.79778 0.73924 0.11663 0.0
C2728 C 0.77025 0.74708 0.10831 0.0
C2729 C 0.75608 0.74882 0.09426 0.0
C2730 C 0.75995 0.75887 0.07939 0.0
C2731 C 0.74654 0.76032 0.06611 0.0
C2732 C 0.72919 0.75188 0.0676 0.0
C2733 C 0.72521 0.74202 0.08242 0.0
C2734 C 0.73857 0.74052 0.09575 0.0
C2735 C 0.79737 0.77951 0.19221 0.0
C2736 C 0.78308 0.77189 0.20114 0.0
C2737 C 0.79702 0.77422 0.17268 0.0
C2738 C 0.78263 0.76067 0.16179 0.0
C2739 C 0.76801 0.75369 0.17055 0.0
C2740 C 0.76818 0.75936 0.19008 0.0
C2741 C 0.7833 0.75301 0.14157 0.0
C2742 C 0.76984 0.75346 0.12768 0.0
C2743 C 0.79736 0.74559 0.13594 0.0
C2744 C 0.81167 0.74396 0.14992 0.0
C2745 C 0.80804 0.7339 0.16483 0.0
C2746 C 0.82157 0.73319 0.17838 0.0
C2747 C 0.83879 0.74228 0.17704 0.0
C2748 C 0.84253 0.75201 0.16207 0.0
C2749 C 0.82905 0.75285 0.14855 0.0
H2750 H 0.84924 0.74175 0.18757 0.0
H2751 H 0.71883 0.75302 0.0573 0.0
H2752 H 0.10716 0.97436 0.70346 0.0
H2753 H 0.09418 0.98199 0.67441 0.0
H2754 H 0.12499 0.04008 0.69022 0.0
H2755 H 0.13814 0.03247 0.71955 0.0
H2756 H 0.09293 0.04045 0.67499 0.0
H2757 H 0.13344 0.00478 0.65715 0.0
H2758 H 0.14812 0.97874 0.65103 0.0
H2759 H 0.10283 0.9443 0.61386 0.0
H2760 H 0.08711 0.9691 0.62143 0.0
H2761 H 0.07138 0.06153 0.58098 0.0
H2762 H 0.08525 0.05774 0.61169 0.0
H2763 H 0.06129 0.99726 0.59843 0.0
H2764 H 0.04803 1.00092 0.56772 0.0
H2765 H 0.09189 1.00048 0.61258 0.0
H2766 H 0.04987 0.03405 0.63444 0.0
H2767 H 0.03565 0.06077 0.63812 0.0
H2768 H 0.08433 0.09941 0.66411 0.0
H2769 H 0.09889 0.07296 0.66037 0.0
C2770 C 0.11131 0.98883 0.70091 0.0
C2771 C 0.12395 1.00269 0.71421 0.0
C2772 C 0.10381 0.99319 0.68403 0.0
C2773 C 0.10855 0.01165 0.67955 0.0
C2774 C 0.12093 0.02568 0.69297 0.0
C2775 C 0.12856 0.02127 0.70989 0.0
C2776 C 0.10067 0.01612 0.66097 0.0
C2777 C 0.09287 0.03168 0.66137 0.0
C2778 C 0.10013 0.00475 0.64283 0.0
C2779 C 0.10894 0.98884 0.64017 0.0
C2780 C 0.12631 0.99138 0.6483 0.0
C2781 C 0.1348 0.97672 0.64465 0.0
C2782 C 0.12629 0.95969 0.63237 0.0
C2783 C 0.10922 0.95721 0.62386 0.0
C2784 C 0.10044 0.97148 0.62802 0.0
C2785 C 0.06893 0.04743 0.58465 0.0
C2786 C 0.05845 0.03157 0.57154 0.0
C2787 C 0.07686 0.04525 0.60245 0.0
C2788 C 0.07441 0.02715 0.60799 0.0
C2789 C 0.0637 0.01143 0.59493 0.0
C2790 C 0.05596 0.01357 0.57716 0.0
C2791 C 0.08346 0.0241 0.62667 0.0
C2792 C 0.09167 0.00895 0.62627 0.0
C2793 C 0.08423 0.03567 0.64473 0.0
C2794 C 0.0755 0.05156 0.64694 0.0
C2795 C 0.05757 0.04827 0.64081 0.0
C2796 C 0.04944 0.06337 0.64293 0.0
C2797 C 0.05909 0.08179 0.65129 0.0
C2798 C 0.07688 0.08515 0.6576 0.0
C2799 C 0.08507 0.07011 0.6555 0.0
H2800 H 0.05278 0.09345 0.65293 0.0
H2801 H 0.13299 0.9485 0.62926 0.0
H2802 H 0.78465 0.38206 0.45958 0.0
H2803 H 0.7845 0.35683 0.43297 0.0
H2804 H 0.83128 0.39141 0.41819 0.0
H2805 H 0.83184 0.41666 0.44521 0.0
H2806 H 0.79598 0.37738 0.39046 0.0
H2807 H 0.83891 0.35783 0.43041 0.0
H2808 H 0.84977 0.34745 0.45926 0.0
H2809 H 0.80575 0.29877 0.44913 0.0
H2810 H 0.79448 0.30902 0.42037 0.0
H2811 H 0.80239 0.32068 0.30823 0.0
H2812 H 0.81042 0.34057 0.33934 0.0
H2813 H 0.78246 0.2943 0.36401 0.0
H2814 H 0.77643 0.2733 0.33277 0.0
H2815 H 0.80843 0.31369 0.38815 0.0
H2816 H 0.76398 0.33117 0.35086 0.0
H2817 H 0.74962 0.34027 0.32304 0.0
H2818 H 0.79077 0.39137 0.32958 0.0
H2819 H 0.80554 0.38244 0.35725 0.0
C2820 C 0.79497 0.38425 0.45072 0.0
C2821 C 0.80809 0.4014 0.45412 0.0
C2822 C 0.79498 0.36976 0.43577 0.0
C2823 C 0.80797 0.37235 0.42393 0.0
C2824 C 0.82131 0.38923 0.42747 0.0
C2825 C 0.82152 0.40362 0.44271 0.0
C2826 C 0.80601 0.35866 0.40629 0.0
C2827 C 0.79899 0.36356 0.38978 0.0
C2828 C 0.80904 0.34037 0.40596 0.0
C2829 C 0.81575 0.33432 0.42336 0.0
C2830 C 0.83143 0.34504 0.43446 0.0
C2831 C 0.83769 0.33914 0.45076 0.0
C2832 C 0.82843 0.32249 0.45606 0.0
C2833 C 0.8129 0.31168 0.44503 0.0
C2834 C 0.80658 0.31752 0.42873 0.0
C2835 C 0.79867 0.31441 0.32035 0.0
C2836 C 0.78915 0.29536 0.31819 0.0
C2837 C 0.80288 0.32596 0.33811 0.0
C2838 C 0.79652 0.31913 0.35388 0.0
C2839 C 0.7874 0.29988 0.35195 0.0
C2840 C 0.7839 0.28795 0.33417 0.0
C2841 C 0.79871 0.3325 0.372 0.0
C2842 C 0.80551 0.32752 0.38868 0.0
C2843 C 0.79487 0.35057 0.37268 0.0
C2844 C 0.78594 0.35604 0.35606 0.0
C2845 C 0.77003 0.34429 0.3463 0.0
C2846 C 0.76181 0.34942 0.33055 0.0
C2847 C 0.76929 0.36636 0.32453 0.0
C2848 C 0.785 0.37824 0.33425 0.0
C2849 C 0.79329 0.37316 0.34997 0.0
H2850 H 0.76289 0.37033 0.31237 0.0
H2851 H 0.83331 0.31794 0.46867 0.0
H2852 H 0.46822 0.02251 0.26397 0.0
H2853 H 0.47599 0.00535 0.23546 0.0
H2854 H 0.4376 0.0229 0.20065 0.0
H2855 H 0.4298 0.04024 0.22902 0.0
H2856 H 0.43727 0.9839 0.18928 0.0
H2857 H 0.4758 0.04598 0.20148 0.0
H2858 H 0.49612 0.07432 0.22146 0.0
H2859 H 0.53191 0.04051 0.23368 0.0
H2860 H 0.51162 0.01185 0.21394 0.0
H2861 H 0.47322 1.00158 0.10658 0.0
H2862 H 0.45763 0.99395 0.13296 0.0
H2863 H 0.49936 0.97149 0.15527 0.0
H2864 H 0.5151 0.97922 0.12882 0.0
H2865 H 0.49767 0.00619 0.17506 0.0
H2866 H 0.45778 0.94525 0.15142 0.0
H2867 H 0.43662 0.92254 0.12626 0.0
H2868 H 0.4018 0.95949 0.13007 0.0
H2869 H 0.42282 0.98256 0.1551 0.0
C2870 C 0.46168 0.02308 0.25024 0.0
C2871 C 0.4485 0.03285 0.24873 0.0
C2872 C 0.46589 0.01297 0.23403 0.0
C2873 C 0.45708 0.0126 0.21609 0.0
C2874 C 0.44425 0.02272 0.21445 0.0
C2875 C 0.44009 0.03291 0.23063 0.0
C2876 C 0.46255 0.0033 0.19887 0.0
C2877 C 0.45048 0.98859 0.18611 0.0
C2878 C 0.47972 0.00958 0.19486 0.0
C2879 C 0.49213 0.02676 0.20646 0.0
C2880 C 0.48796 0.04457 0.20855 0.0
C2881 C 0.49946 0.06068 0.2198 0.0
C2882 C 0.51527 0.0592 0.22889 0.0
C2883 C 0.51964 0.04161 0.22666 0.0
C2884 C 0.50815 0.02543 0.21543 0.0
C2885 C 0.47865 0.99414 0.11659 0.0
C2886 C 0.49552 0.99146 0.11607 0.0
C2887 C 0.46964 0.98958 0.13158 0.0
C2888 C 0.4775 0.98242 0.14619 0.0
C2889 C 0.49314 0.97703 0.14409 0.0
C2890 C 0.50213 0.9815 0.12902 0.0
C2891 C 0.47252 0.9865 0.16529 0.0
C2892 C 0.48466 1.00068 0.17847 0.0
C2893 C 0.45523 0.98021 0.16913 0.0
C2894 C 0.44195 0.9657 0.15513 0.0
C2895 C 0.44561 0.94854 0.14692 0.0
C2896 C 0.43366 0.93563 0.13264 0.0
C2897 C 0.41797 0.93968 0.12645 0.0
C2898 C 0.41401 0.95644 0.13483 0.0
C2899 C 0.42591 0.96941 0.14912 0.0
H2900 H 0.40884 0.92979 0.11521 0.0
H2901 H 0.52417 0.07169 0.23762 0.0
H2902 H 0.7761 0.68209 0.93276 0.0
H2903 H 0.77877 0.69538 0.90363 0.0
H2904 H 0.79412 0.75238 0.93679 0.0
H2905 H 0.79104 0.73924 0.96582 0.0
H2906 H 0.77357 0.7533 0.90771 0.0
H2907 H 0.82389 0.72999 0.9158 0.0
H2908 H 0.84177 0.70734 0.92089 0.0
H2909 H 0.81614 0.67055 0.86865 0.0
H2910 H 0.79791 0.69286 0.86338 0.0
H2911 H 0.8185 0.79583 0.83471 0.0
H2912 H 0.81401 0.78172 0.86319 0.0
H2913 H 0.77403 0.73477 0.83023 0.0
H2914 H 0.77796 0.74927 0.80173 0.0
H2915 H 0.80687 0.72913 0.85864 0.0
H2916 H 0.757 0.75768 0.85248 0.0
H2917 H 0.74414 0.78484 0.84925 0.0
H2918 H 0.77533 0.81704 0.90101 0.0
H2919 H 0.78866 0.79021 0.90432 0.0
C2920 C 0.78003 0.69745 0.93386 0.0
C2921 C 0.78337 0.70954 0.95172 0.0
C2922 C 0.78166 0.70507 0.91715 0.0
C2923 C 0.78686 0.72496 0.91786 0.0
C2924 C 0.79006 0.73702 0.9357 0.0
C2925 C 0.78834 0.72943 0.95237 0.0
C2926 C 0.78892 0.73322 0.9001 0.0
C2927 C 0.78094 0.74801 0.89709 0.0
C2928 C 0.79865 0.7266 0.88612 0.0
C2929 C 0.80936 0.71297 0.88933 0.0
C2930 C 0.82192 0.71696 0.9055 0.0
C2931 C 0.83215 0.70421 0.90839 0.0
C2932 C 0.83004 0.68748 0.89514 0.0
C2933 C 0.81772 0.68349 0.87893 0.0
C2934 C 0.80744 0.69619 0.87598 0.0
C2935 C 0.80876 0.78247 0.83348 0.0
C2936 C 0.79862 0.7736 0.81593 0.0
C2937 C 0.80618 0.77447 0.8498 0.0
C2938 C 0.79367 0.75723 0.84884 0.0
C2939 C 0.78373 0.74812 0.83128 0.0
C2940 C 0.78599 0.75639 0.81502 0.0
C2941 C 0.79118 0.74871 0.86622 0.0
C2942 C 0.79929 0.7341 0.86922 0.0
C2943 C 0.78211 0.75595 0.88047 0.0
C2944 C 0.774 0.77201 0.8785 0.0
C2945 C 0.76128 0.77063 0.86304 0.0
C2946 C 0.75387 0.78595 0.86122 0.0
C2947 C 0.75895 0.80267 0.87489 0.0
C2948 C 0.77143 0.80409 0.89042 0.0
C2949 C 0.77892 0.78883 0.89226 0.0
H2950 H 0.75319 0.81451 0.87347 0.0
H2951 H 0.83799 0.67763 0.89739 0.0
H2952 H 0.8242 0.10353 0.02706 0.0
H2953 H 0.84656 0.08761 0.01728 0.0
H2954 H 0.85772 0.12381 0.9757 0.0
H2955 H 0.83539 0.14002 0.98546 0.0
H2956 H 0.85554 0.08036 0.96501 0.0
H2957 H 0.88399 0.13863 0.00959 0.0
H2958 H 0.88543 0.16139 0.03914 0.0
H2959 H 0.88813 0.11744 0.07177 0.0
H2960 H 0.88641 0.09434 0.04236 0.0
H2961 H 0.93588 0.05131 0.95881 0.0
H2962 H 0.91381 0.06988 0.95902 0.0
H2963 H 0.90339 0.05718 0.01411 0.0
H2964 H 0.92565 0.03917 0.01413 0.0
H2965 H 0.90699 0.09332 0.01424 0.0
H2966 H 0.87647 0.03463 0.97185 0.0
H2967 H 0.87091 0.00942 0.94339 0.0
H2968 H 0.86903 0.05103 0.90767 0.0
H2969 H 0.87488 0.07655 0.93593 0.0
C2970 C 0.83132 0.10803 0.01575 0.0
C2971 C 0.82833 0.12319 0.00722 0.0
C2972 C 0.84396 0.09887 0.01013 0.0
C2973 C 0.85366 0.10469 0.99588 0.0
C2974 C 0.85023 0.11922 0.98671 0.0
C2975 C 0.83767 0.12854 0.99245 0.0
C2976 C 0.8685 0.09674 0.99207 0.0
C2977 C 0.86704 0.0834 0.97547 0.0
C2978 C 0.88315 0.10067 0.00602 0.0
C2979 C 0.88503 0.11476 0.02377 0.0
C2980 C 0.88485 0.13382 0.02306 0.0
C2981 C 0.8857 0.14677 0.03978 0.0
C2982 C 0.88686 0.14086 0.05732 0.0
C2983 C 0.88725 0.122 0.05817 0.0
C2984 C 0.88637 0.10898 0.04149 0.0
C2985 C 0.92873 0.05243 0.97085 0.0
C2986 C 0.93238 0.04392 0.98648 0.0
C2987 C 0.91617 0.06297 0.97095 0.0
C2988 C 0.90695 0.0648 0.98655 0.0
C2989 C 0.91046 0.05603 0.002 0.0
C2990 C 0.92313 0.04576 0.00201 0.0
C2991 C 0.89396 0.07626 0.98731 0.0
C2992 C 0.89578 0.09044 0.00342 0.0
C2993 C 0.87954 0.07284 0.97298 0.0
C2994 C 0.87642 0.05755 0.956 0.0
C2995 C 0.87511 0.03844 0.95792 0.0
C2996 C 0.87185 0.02409 0.94183 0.0
C2997 C 0.8697 0.02863 0.92373 0.0
C2998 C 0.87077 0.04754 0.92169 0.0
C2999 C 0.87408 0.06196 0.93774 0.0
H3000 H 0.86713 0.01749 0.91129 0.0
H3001 H 0.88748 0.1509 0.07025 0.0
H3002 H 0.36781 0.39721 0.03699 0.0
H3003 H 0.39588 0.41659 0.03221 0.0
H3004 H 0.37278 0.46376 0.0271 0.0
H3005 H 0.34431 0.44396 0.03099 0.0
H3006 H 0.39497 0.46271 0.00261 0.0
H3007 H 0.39908 0.45966 0.06966 0.0
H3008 H 0.39712 0.44275 0.09682 0.0
H3009 H 0.4356 0.41414 0.07801 0.0
H3010 H 0.43764 0.43073 0.05062 0.0
H3011 H 0.47305 0.53602 0.01723 0.0
H3012 H 0.44487 0.51497 0.01913 0.0
H3013 H 0.4699 0.46983 0.02728 0.0
H3014 H 0.49835 0.49141 0.02637 0.0
H3015 H 0.44683 0.46885 0.04936 0.0
H3016 H 0.44402 0.47191 0.98331 0.0
H3017 H 0.44592 0.48735 0.95516 0.0
H3018 H 0.40533 0.51421 0.97052 0.0
H3019 H 0.40334 0.49913 0.9989 0.0
C3020 C 0.36866 0.41173 0.03491 0.0
C3021 C 0.35379 0.41909 0.03467 0.0
C3022 C 0.38482 0.42288 0.03224 0.0
C3023 C 0.38676 0.44195 0.0298 0.0
C3024 C 0.3718 0.44919 0.02909 0.0
C3025 C 0.3555 0.43787 0.0314 0.0
C3026 C 0.40434 0.4543 0.02822 0.0
C3027 C 0.40624 0.46425 0.013 0.0
C3028 C 0.41935 0.45593 0.04133 0.0
C3029 C 0.41843 0.44634 0.05805 0.0
C3030 C 0.40709 0.44973 0.0713 0.0
C3031 C 0.40596 0.44019 0.08673 0.0
C3032 C 0.41621 0.42735 0.08912 0.0
C3033 C 0.42766 0.42408 0.07614 0.0
C3034 C 0.42883 0.43356 0.06068 0.0
C3035 C 0.47259 0.5216 0.01943 0.0
C3036 C 0.48802 0.5154 0.02162 0.0
C3037 C 0.45635 0.50944 0.02033 0.0
C3038 C 0.45496 0.49049 0.02291 0.0
C3039 C 0.47044 0.4843 0.0252 0.0
C3040 C 0.48676 0.49663 0.02464 0.0
C3041 C 0.4375 0.47744 0.02381 0.0
C3042 C 0.4356 0.46734 0.03892 0.0
C3043 C 0.42256 0.47553 0.01047 0.0
C3044 C 0.42364 0.48451 0.99333 0.0
C3045 C 0.43557 0.4812 0.98075 0.0
C3046 C 0.43665 0.48988 0.96474 0.0
C3047 C 0.42578 0.50179 0.96108 0.0
C3048 C 0.41376 0.505 0.97338 0.0
C3049 C 0.41263 0.49637 0.98942 0.0
H3050 H 0.42664 0.5085 0.94869 0.0
H3051 H 0.41529 0.41996 0.10105 0.0
H3052 H 0.36861 0.59429 0.75539 0.0
H3053 H 0.35164 0.61865 0.75732 0.0
H3054 H 0.3993 0.66311 0.7681 0.0
H3055 H 0.41602 0.63913 0.76684 0.0
H3056 H 0.38051 0.6779 0.78756 0.0
H3057 H 0.3655 0.6465 0.72221 0.0
H3058 H 0.35432 0.61906 0.69592 0.0
H3059 H 0.30484 0.60704 0.71681 0.0
H3060 H 0.3158 0.63432 0.74333 0.0
H3061 H 0.34197 0.75618 0.77195 0.0
H3062 H 0.35791 0.73107 0.77076 0.0
H3063 H 0.30927 0.68821 0.76209 0.0
H3064 H 0.29338 0.71322 0.76276 0.0
H3065 H 0.32803 0.67236 0.74219 0.0
H3066 H 0.34308 0.70473 0.80713 0.0
H3067 H 0.35442 0.73248 0.83306 0.0
H3068 H 0.40417 0.7431 0.81267 0.0
H3069 H 0.39307 0.71549 0.78651 0.0
C3070 C 0.37557 0.60922 0.75809 0.0
C3071 C 0.39407 0.61415 0.76081 0.0
C3072 C 0.36571 0.62347 0.75908 0.0
C3073 C 0.37374 0.64351 0.7626 0.0
C3074 C 0.39219 0.64824 0.7654 0.0
C3075 C 0.40195 0.63413 0.76455 0.0
C3076 C 0.36345 0.65951 0.76351 0.0
C3077 C 0.36918 0.67654 0.77734 0.0
C3078 C 0.34819 0.65855 0.7508 0.0
C3079 C 0.34152 0.6423 0.73483 0.0
C3080 C 0.35226 0.63794 0.72123 0.0
C3081 C 0.34596 0.62243 0.70629 0.0
C3082 C 0.32889 0.61128 0.70473 0.0
C3083 C 0.31806 0.61567 0.71806 0.0
C3084 C 0.32431 0.63116 0.73303 0.0
C3085 C 0.33454 0.74145 0.76987 0.0
C3086 C 0.31606 0.73727 0.76758 0.0
C3087 C 0.34383 0.72678 0.76933 0.0
C3088 C 0.33523 0.70701 0.76666 0.0
C3089 C 0.31675 0.70292 0.76422 0.0
C3090 C 0.30749 0.71754 0.76471 0.0
C3091 C 0.34515 0.69075 0.76614 0.0
C3092 C 0.33936 0.67369 0.7524 0.0
C3093 C 0.3604 0.69173 0.77891 0.0
C3094 C 0.36719 0.70815 0.79476 0.0
C3095 C 0.35642 0.71303 0.80813 0.0
C3096 C 0.3628 0.72872 0.82288 0.0
C3097 C 0.37999 0.73957 0.82448 0.0
C3098 C 0.39086 0.73469 0.81139 0.0
C3099 C 0.38453 0.719 0.79662 0.0
H3100 H 0.3849 0.75173 0.83588 0.0
H3101 H 0.32405 0.59927 0.69316 0.0
H3102 H 0.2251 0.64325 0.50629 0.0
H3103 H 0.19454 0.62604 0.49886 0.0
H3104 H 0.20806 0.57361 0.50644 0.0
H3105 H 0.23891 0.59076 0.51393 0.0
H3106 H 0.17576 0.57135 0.47769 0.0
H3107 H 0.20265 0.59301 0.54342 0.0
H3108 H 0.22157 0.61684 0.56952 0.0
H3109 H 0.19017 0.65627 0.56167 0.0
H3110 H 0.17126 0.63276 0.53522 0.0
H3111 H 0.10125 0.52562 0.51498 0.0
H3112 H 0.1314 0.53891 0.51041 0.0
H3113 H 0.12179 0.59515 0.51569 0.0
H3114 H 0.09165 0.58178 0.52075 0.0
H3115 H 0.15203 0.59494 0.53564 0.0
H3116 H 0.12041 0.56667 0.47362 0.0
H3117 H 0.10168 0.53957 0.45047 0.0
H3118 H 0.14214 0.50973 0.45183 0.0
H3119 H 0.16074 0.53597 0.47595 0.0
C3120 C 0.22166 0.62798 0.506 0.0
C3121 C 0.23421 0.6184 0.51137 0.0
C3122 C 0.20425 0.61816 0.50143 0.0
C3123 C 0.19924 0.59872 0.50232 0.0
C3124 C 0.21187 0.58865 0.50564 0.0
C3125 C 0.22938 0.59849 0.51019 0.0
C3126 C 0.18116 0.59047 0.50462 0.0
C3127 C 0.17046 0.57629 0.49032 0.0
C3128 C 0.17453 0.59718 0.52117 0.0
C3129 C 0.18571 0.61126 0.5372 0.0
C3130 C 0.1999 0.60684 0.54713 0.0
C3131 C 0.2106 0.62027 0.562 0.0
C3132 C 0.20712 0.63809 0.56721 0.0
C3133 C 0.19288 0.64248 0.55758 0.0
C3134 C 0.18217 0.62912 0.54265 0.0
C3135 C 0.10569 0.54079 0.51523 0.0
C3136 C 0.09445 0.5528 0.51806 0.0
C3137 C 0.12278 0.54833 0.51256 0.0
C3138 C 0.12854 0.56786 0.51226 0.0
C3139 C 0.11741 0.57999 0.51573 0.0
C3140 C 0.10036 0.57245 0.51869 0.0
C3141 C 0.14633 0.57575 0.50866 0.0
C3142 C 0.1571 0.58997 0.52283 0.0
C3143 C 0.15293 0.5687 0.49212 0.0
C3144 C 0.14198 0.55331 0.47683 0.0
C3145 C 0.12531 0.55427 0.46917 0.0
C3146 C 0.11467 0.53903 0.45589 0.0
C3147 C 0.12076 0.52303 0.4496 0.0
C3148 C 0.13745 0.52215 0.45669 0.0
C3149 C 0.148 0.53716 0.47028 0.0
H3150 H 0.11252 0.5113 0.43925 0.0
H3151 H 0.21541 0.64847 0.57874 0.0
H3152 H 0.68977 0.00957 0.77082 0.0
H3153 H 0.70777 0.99242 0.78716 0.0
H3154 H 0.70042 0.95027 0.73595 0.0
H3155 H 0.68149 0.96691 0.71997 0.0
H3156 H 0.6946 0.93408 0.76555 0.0
H3157 H 0.73939 0.98867 0.75353 0.0
H3158 H 0.75369 0.02306 0.75767 0.0
H3159 H 0.76103 0.02678 0.81816 0.0
H3160 H 0.7466 0.99248 0.81438 0.0
H3161 H 0.76116 0.89158 0.75509 0.0
H3162 H 0.74107 0.91196 0.75567 0.0
H3163 H 0.75739 0.9324 0.81563 0.0
H3164 H 0.77736 0.91138 0.81542 0.0
H3165 H 0.75644 0.96121 0.79367 0.0
H3166 H 0.7159 0.90726 0.80644 0.0
H3167 H 0.6997 0.87379 0.80447 0.0
H3168 H 0.68424 0.86917 0.74478 0.0
H3169 H 0.69989 0.90283 0.74653 0.0
C3170 C 0.69218 0.99669 0.7631 0.0
C3171 C 0.68451 0.98941 0.74422 0.0
C3172 C 0.70248 0.98702 0.77238 0.0
C3173 C 0.70557 0.97028 0.76267 0.0
C3174 C 0.69811 0.96321 0.74365 0.0
C3175 C 0.6874 0.97262 0.73452 0.0
C3176 C 0.71584 0.95938 0.77238 0.0
C3177 C 0.70815 0.94 0.77164 0.0
C3178 C 0.73309 0.96748 0.78155 0.0
C3179 C 0.74173 0.98808 0.78368 0.0
C3180 C 0.74394 0.99687 0.76771 0.0
C3181 C 0.75209 0.01633 0.77 0.0
C3182 C 0.75821 0.02711 0.78817 0.0
C3183 C 0.75625 0.01844 0.80409 0.0
C3184 C 0.74809 0.99899 0.80189 0.0
C3185 C 0.76033 0.90011 0.76852 0.0
C3186 C 0.77055 0.89947 0.78531 0.0
C3187 C 0.74883 0.91174 0.76881 0.0
C3188 C 0.74746 0.92315 0.78582 0.0
C3189 C 0.75815 0.92336 0.80248 0.0
C3190 C 0.76966 0.91154 0.80224 0.0
C3191 C 0.73555 0.93569 0.78531 0.0
C3192 C 0.74277 0.95542 0.78801 0.0
C3193 C 0.71779 0.92802 0.77805 0.0
C3194 C 0.70913 0.90751 0.77662 0.0
C3195 C 0.70914 0.89906 0.79287 0.0
C3196 C 0.69996 0.8801 0.79181 0.0
C3197 C 0.69106 0.8693 0.77448 0.0
C3198 C 0.69117 0.87752 0.75819 0.0
C3199 C 0.70006 0.89659 0.75924 0.0
H3200 H 0.68406 0.85457 0.77369 0.0
H3201 H 0.76452 0.04217 0.78991 0.0
H3202 H 0.73269 0.89823 0.54526 0.0
H3203 H 0.7087 0.91198 0.53599 0.0
H3204 H 0.73868 0.9397 0.4966 0.0
H3205 H 0.7631 0.92673 0.50665 0.0
H3206 H 0.7237 0.96312 0.51176 0.0
H3207 H 0.70154 0.89821 0.48282 0.0
H3208 H 0.69326 0.86313 0.47965 0.0
H3209 H 0.65744 0.86736 0.52023 0.0
H3210 H 0.66566 0.90248 0.52384 0.0
H3211 H 0.65088 0.99615 0.48025 0.0
H3212 H 0.67306 0.97825 0.4795 0.0
H3213 H 0.65084 0.94827 0.52203 0.0
H3214 H 0.62736 0.96427 0.52117 0.0
H3215 H 0.66225 0.92505 0.49997 0.0
H3216 H 0.68927 0.99256 0.52996 0.0
H3217 H 0.69724 0.02705 0.5289 0.0
H3218 H 0.72381 0.01624 0.48067 0.0
H3219 H 0.71589 0.98171 0.48137 0.0
C3220 C 0.73421 0.90732 0.53467 0.0
C3221 C 0.74987 0.91143 0.52676 0.0
C3222 C 0.72035 0.91502 0.52917 0.0
C3223 C 0.72155 0.92661 0.5152 0.0
C3224 C 0.73727 0.93081 0.50736 0.0
C3225 C 0.75129 0.92341 0.51315 0.0
C3226 C 0.70675 0.93501 0.50948 0.0
C3227 C 0.71031 0.95463 0.50892 0.0
C3228 C 0.68914 0.92414 0.50561 0.0
C3229 C 0.68435 0.90302 0.50372 0.0
C3230 C 0.69202 0.89168 0.4912 0.0
C3231 C 0.68731 0.87177 0.4893 0.0
C3232 C 0.67487 0.86303 0.49977 0.0
C3233 C 0.6671 0.87416 0.51215 0.0
C3234 C 0.67176 0.89406 0.51411 0.0
C3235 C 0.65028 0.98541 0.48911 0.0
C3236 C 0.63723 0.98216 0.50108 0.0
C3237 C 0.66335 0.97539 0.48895 0.0
C3238 C 0.66421 0.96238 0.50129 0.0
C3239 C 0.65078 0.95843 0.51256 0.0
C3240 C 0.6374 0.96796 0.51229 0.0
C3241 C 0.6792 0.95322 0.50308 0.0
C3242 C 0.67568 0.93343 0.50278 0.0
C3243 C 0.69688 0.96382 0.50571 0.0
C3244 C 0.7019 0.9846 0.50565 0.0
C3245 C 0.6968 0.99757 0.51913 0.0
C3246 C 0.70129 0.01711 0.51858 0.0
C3247 C 0.71099 0.02383 0.50471 0.0
C3248 C 0.71629 0.01103 0.4914 0.0
C3249 C 0.71183 0.99149 0.49188 0.0
H3250 H 0.71443 0.03895 0.50428 0.0
H3251 H 0.67123 0.84762 0.49826 0.0
H3252 H 0.3753 0.5043 0.77397 0.0
H3253 H 0.35815 0.47252 0.77743 0.0
H3254 H 0.38213 0.44607 0.73301 0.0
H3255 H 0.39896 0.47735 0.72951 0.0
H3256 H 0.35098 0.42728 0.72683 0.0
H3257 H 0.39086 0.44347 0.78418 0.0
H3258 H 0.40666 0.45837 0.81604 0.0
H3259 H 0.35805 0.45522 0.83831 0.0
H3260 H 0.34197 0.44029 0.80657 0.0
H3261 H 0.32396 0.32966 0.74601 0.0
H3262 H 0.34211 0.36157 0.74408 0.0
H3263 H 0.3081 0.38813 0.77581 0.0
H3264 H 0.28972 0.35655 0.77704 0.0
H3265 H 0.34413 0.40627 0.7885 0.0
H3266 H 0.30497 0.38738 0.73027 0.0
H3267 H 0.2909 0.3666 0.69989 0.0
H3268 H 0.34065 0.37257 0.6797 0.0
H3269 H 0.35507 0.39315 0.71012 0.0
C3270 C 0.37689 0.49175 0.76487 0.0
C3271 C 0.3887 0.49388 0.75136 0.0
C3272 C 0.36711 0.47333 0.76698 0.0
C3273 C 0.36862 0.45624 0.75561 0.0
C3274 C 0.38032 0.45853 0.74207 0.0
C3275 C 0.39012 0.47676 0.74009 0.0
C3276 C 0.35793 0.43612 0.75713 0.0
C3277 C 0.34981 0.42283 0.74044 0.0
C3278 C 0.35572 0.4296 0.77465 0.0
C3279 C 0.36522 0.44099 0.79296 0.0
C3280 C 0.38355 0.44635 0.79578 0.0
C3281 C 0.39255 0.45463 0.81386 0.0
C3282 C 0.38334 0.45766 0.8292 0.0
C3283 C 0.36514 0.45282 0.82642 0.0
C3284 C 0.35609 0.44446 0.8084 0.0
C3285 C 0.32044 0.34228 0.75275 0.0
C3286 C 0.30527 0.34025 0.76182 0.0
C3287 C 0.33082 0.36068 0.75153 0.0
C3288 C 0.32667 0.37772 0.75974 0.0
C3289 C 0.31185 0.37556 0.7693 0.0
C3290 C 0.30126 0.35731 0.77002 0.0
C3291 C 0.3374 0.39772 0.75834 0.0
C3292 C 0.3454 0.4109 0.77498 0.0
C3293 C 0.33971 0.40405 0.74081 0.0
C3294 C 0.33112 0.3916 0.72257 0.0
C3295 C 0.31294 0.38409 0.71944 0.0
C3296 C 0.30489 0.37238 0.70219 0.0
C3297 C 0.31488 0.36821 0.68789 0.0
C3298 C 0.33294 0.37577 0.69081 0.0
C3299 C 0.34105 0.38746 0.70805 0.0
H3300 H 0.30863 0.35916 0.67454 0.0
H3301 H 0.39027 0.46362 0.8433 0.0
H3302 H 0.20554 0.57891 0.25574 0.0
H3303 H 0.21989 0.6119 0.27 0.0
H3304 H 0.17332 0.62914 0.25277 0.0
H3305 H 0.15893 0.59619 0.23816 0.0
H3306 H 0.20033 0.63554 0.23055 0.0
H3307 H 0.1929 0.64598 0.2962 0.0
H3308 H 0.1934 0.63934 0.32874 0.0
H3309 H 0.24879 0.64625 0.3334 0.0
H3310 H 0.24862 0.65239 0.30071 0.0
H3311 H 0.24951 0.72729 0.23054 0.0
H3312 H 0.22855 0.69859 0.23396 0.0
H3313 H 0.26891 0.68141 0.2665 0.0
H3314 H 0.28963 0.71145 0.26463 0.0
H3315 H 0.24217 0.67794 0.28379 0.0
H3316 H 0.25038 0.65812 0.21953 0.0
H3317 H 0.25291 0.66141 0.18624 0.0
H3318 H 0.20029 0.6671 0.17845 0.0
H3319 H 0.19751 0.66403 0.21177 0.0
C3320 C 0.19824 0.58968 0.25536 0.0
C3321 C 0.18155 0.58535 0.24495 0.0
C3322 C 0.20627 0.6084 0.26401 0.0
C3323 C 0.19765 0.62283 0.2622 0.0
C3324 C 0.18009 0.61806 0.25425 0.0
C3325 C 0.17213 0.59939 0.24539 0.0
C3326 C 0.20841 0.64152 0.26086 0.0
C3327 C 0.20915 0.64514 0.24232 0.0
C3328 C 0.22055 0.65315 0.27608 0.0
C3329 C 0.22069 0.64946 0.29583 0.0
C3330 C 0.20517 0.64588 0.30406 0.0
C3331 C 0.20541 0.64225 0.32258 0.0
C3332 C 0.22111 0.64229 0.33311 0.0
C3333 C 0.23663 0.64615 0.3252 0.0
C3334 C 0.23646 0.6497 0.30667 0.0
C3335 C 0.254 0.71701 0.23781 0.0
C3336 C 0.27101 0.72108 0.24711 0.0
C3337 C 0.24204 0.7007 0.23984 0.0
C3338 C 0.24729 0.68784 0.25028 0.0
C3339 C 0.2647 0.69129 0.25845 0.0
C3340 C 0.27652 0.70811 0.25713 0.0
C3341 C 0.23425 0.67141 0.2535 0.0
C3342 C 0.23314 0.66837 0.27219 0.0
C3343 C 0.22227 0.65951 0.23834 0.0
C3344 C 0.22378 0.66097 0.21817 0.0
C3345 C 0.23937 0.66014 0.21073 0.0
C3346 C 0.24085 0.66196 0.19186 0.0
C3347 C 0.22678 0.6645 0.18025 0.0
C3348 C 0.21118 0.66514 0.18746 0.0
C3349 C 0.20963 0.66331 0.20633 0.0
H3350 H 0.22796 0.66594 0.16565 0.0
H3351 H 0.22124 0.63924 0.34734 0.0
H3352 H 0.47813 0.70271 0.44123 0.0
H3353 H 0.48474 0.67702 0.45627 0.0
H3354 H 0.53925 0.69746 0.45144 0.0
H3355 H 0.53258 0.72287 0.43576 0.0
H3356 H 0.53212 0.66147 0.44286 0.0
H3357 H 0.52151 0.70223 0.49563 0.0
H3358 H 0.50659 0.72249 0.51524 0.0
H3359 H 0.4632 0.67426 0.51254 0.0
H3360 H 0.47776 0.65375 0.4927 0.0
H3361 H 0.55647 0.59903 0.5021 0.0
H3362 H 0.55251 0.62833 0.49192 0.0
H3363 H 0.49687 0.60478 0.48176 0.0
H3364 H 0.50071 0.57529 0.49187 0.0
H3365 H 0.50684 0.64383 0.50001 0.0
H3366 H 0.52039 0.6036 0.44676 0.0
H3367 H 0.53896 0.58458 0.43219 0.0
H3368 H 0.581 0.63501 0.43901 0.0
H3369 H 0.56286 0.65423 0.45472 0.0
C3370 C 0.49156 0.70184 0.44341 0.0
C3371 C 0.50479 0.71497 0.4372 0.0
C3372 C 0.49538 0.68714 0.45222 0.0
C3373 C 0.51259 0.68526 0.4554 0.0
C3374 C 0.52585 0.69843 0.44926 0.0
C3375 C 0.52202 0.71306 0.44029 0.0
C3376 C 0.51656 0.66914 0.46435 0.0
C3377 C 0.52678 0.65791 0.45555 0.0
C3378 C 0.50966 0.66415 0.48093 0.0
C3379 C 0.50065 0.6765 0.49248 0.0
C3380 C 0.5087 0.69599 0.49904 0.0
C3381 C 0.50033 0.7075 0.51024 0.0
C3382 C 0.48393 0.69968 0.51508 0.0
C3383 C 0.47588 0.68031 0.50875 0.0
C3384 C 0.4842 0.66873 0.49753 0.0
C3385 C 0.54335 0.60006 0.49784 0.0
C3386 C 0.52891 0.58464 0.49775 0.0
C3387 C 0.54112 0.61689 0.49198 0.0
C3388 C 0.52439 0.61881 0.48592 0.0
C3389 C 0.50991 0.6037 0.48636 0.0
C3390 C 0.51214 0.58677 0.49206 0.0
C3391 C 0.52202 0.63616 0.47829 0.0
C3392 C 0.51217 0.64757 0.48737 0.0
C3393 C 0.52965 0.64163 0.46231 0.0
C3394 C 0.54032 0.63031 0.45212 0.0
C3395 C 0.53364 0.61063 0.4453 0.0
C3396 C 0.54412 0.5998 0.43683 0.0
C3397 C 0.56118 0.60857 0.43453 0.0
C3398 C 0.56779 0.62822 0.44079 0.0
C3399 C 0.55743 0.63908 0.44959 0.0
H3400 H 0.56928 0.60014 0.42792 0.0
H3401 H 0.47749 0.70861 0.52378 0.0
H3402 H 0.61624 0.31284 0.67156 0.0
H3403 H 0.64296 0.31064 0.69038 0.0
H3404 H 0.6542 0.2746 0.64228 0.0
H3405 H 0.6276 0.27634 0.6238 0.0
H3406 H 0.66105 0.26027 0.67162 0.0
H3407 H 0.67657 0.32441 0.65857 0.0
H3408 H 0.67345 0.35721 0.65867 0.0
H3409 H 0.67733 0.36715 0.7195 0.0
H3410 H 0.68029 0.33434 0.71974 0.0
H3411 H 0.74993 0.26515 0.71049 0.0
H3412 H 0.72326 0.26608 0.69052 0.0
H3413 H 0.71153 0.30478 0.7362 0.0
H3414 H 0.73815 0.30457 0.75546 0.0
H3415 H 0.7051 0.31742 0.70705 0.0
H3416 H 0.68944 0.25342 0.72052 0.0
H3417 H 0.69234 0.22059 0.72071 0.0
H3418 H 0.68834 0.21008 0.65989 0.0
H3419 H 0.68565 0.24294 0.65935 0.0
C3420 C 0.62447 0.30457 0.66497 0.0
C3421 C 0.61961 0.29484 0.64606 0.0
C3422 C 0.63985 0.30333 0.67575 0.0
C3423 C 0.65093 0.29253 0.66785 0.0
C3424 C 0.64605 0.28295 0.64894 0.0
C3425 C 0.63073 0.28407 0.63828 0.0
C3426 C 0.66752 0.29099 0.67901 0.0
C3427 C 0.67074 0.27284 0.67921 0.0
C3428 C 0.68025 0.30718 0.6893 0.0
C3429 C 0.67848 0.32688 0.68915 0.0
C3430 C 0.67664 0.33356 0.67195 0.0
C3431 C 0.67493 0.35216 0.67195 0.0
C3432 C 0.67515 0.36424 0.68907 0.0
C3433 C 0.67714 0.35777 0.70624 0.0
C3434 C 0.67885 0.33919 0.70632 0.0
C3435 C 0.7416 0.2738 0.7162 0.0
C3436 C 0.74631 0.28479 0.73463 0.0
C3437 C 0.72622 0.27426 0.70482 0.0
C3438 C 0.715 0.28543 0.71173 0.0
C3439 C 0.71976 0.29614 0.73022 0.0
C3440 C 0.73511 0.29593 0.74136 0.0
C3441 C 0.69858 0.28667 0.69996 0.0
C3442 C 0.69541 0.30481 0.69955 0.0
C3443 C 0.68588 0.27044 0.68959 0.0
C3444 C 0.68755 0.25071 0.68992 0.0
C3445 C 0.68932 0.24416 0.7072 0.0
C3446 C 0.6909 0.22553 0.70737 0.0
C3447 C 0.69058 0.21327 0.69033 0.0
C3448 C 0.68863 0.2196 0.67308 0.0
C3449 C 0.68707 0.23822 0.67283 0.0
H3450 H 0.69181 0.19886 0.69049 0.0
H3451 H 0.67382 0.37863 0.68904 0.0
H3452 H 0.99136 0.32704 0.91411 0.0
H3453 H 0.9971 0.35912 0.93265 0.0
H3454 H 0.03504 0.34607 0.97202 0.0
H3455 H 0.02906 0.31344 0.9535 0.0
H3456 H 0.01572 0.36964 0.99024 0.0
H3457 H 0.05055 0.3704 0.94103 0.0
H3458 H 0.05796 0.36262 0.90874 0.0
H3459 H 0.02178 0.39233 0.88744 0.0
H3460 H 0.01395 0.40006 0.91959 0.0
H3461 H 0.05207 0.47317 0.01627 0.0
H3462 H 0.04896 0.43883 0.00633 0.0
H3463 H 0.00335 0.43534 0.9672 0.0
H3464 H 0.00617 0.46959 0.97726 0.0
H3465 H 0.03162 0.42024 0.95167 0.0
H3466 H 0.99678 0.41711 0.0043 0.0
H3467 H 0.99337 0.42586 0.03798 0.0
H3468 H 0.03581 0.40209 0.05461 0.0
H3469 H 0.03959 0.39339 0.021 0.0
C3470 C 1.00081 0.33086 0.92682 0.0
C3471 C 0.00992 0.31779 0.9322 0.0
C3472 C 0.00408 0.34923 0.93742 0.0
C3473 C 0.01674 0.35513 0.95352 0.0
C3474 C 0.02526 0.34183 0.9596 0.0
C3475 C 0.02185 0.32323 0.94901 0.0
C3476 C 0.02165 0.37558 0.96282 0.0
C3477 C 0.01947 0.38072 0.98191 0.0
C3478 C 0.02684 0.3901 0.95208 0.0
C3479 C 0.03157 0.38569 0.9327 0.0
C3480 C 0.04408 0.37517 0.92944 0.0
C3481 C 0.04837 0.37078 0.91116 0.0
C3482 C 0.04032 0.37695 0.89604 0.0
C3483 C 0.028 0.38756 0.89917 0.0
C3484 C 0.02365 0.39198 0.91743 0.0
C3485 C 0.04124 0.46504 0.00572 0.0
C3486 C 0.02937 0.47409 0.99752 0.0
C3487 C 0.03948 0.44543 1.0001 0.0
C3488 C 0.02595 0.4346 0.98603 0.0
C3489 C 0.01388 0.4435 0.9781 0.0
C3490 C 0.01545 0.46303 0.98393 0.0
C3491 C 0.02486 0.41422 0.97874 0.0
C3492 C 0.02797 0.40915 0.96002 0.0
C3493 C 0.02114 0.39995 0.99004 0.0
C3494 C 0.01854 0.40472 0.01016 0.0
C3495 C 0.00544 0.41383 0.01515 0.0
C3496 C 0.00343 0.41877 0.03422 0.0
C3497 C 0.01439 0.41456 0.04843 0.0
C3498 C 0.02733 0.40534 0.04359 0.0
C3499 C 0.02939 0.40037 0.02453 0.0
H3500 H 0.01283 0.41843 0.06319 0.0
H3501 H 0.04366 0.37354 0.8819 0.0
H3502 H 0.99866 0.77921 0.11354 0.0
H3503 H 0.97232 0.77387 0.12883 0.0
H3504 H 0.00329 0.79651 0.18354 0.0
H3505 H 0.02992 0.80145 0.16827 0.0
H3506 H 0.97782 0.76555 0.18533 0.0
H3507 H 0.97975 0.82326 0.15867 0.0
H3508 H 0.98123 0.84138 0.13238 0.0
H3509 H 0.93443 0.80214 0.10218 0.0
H3510 H 0.9328 0.78367 0.12819 0.0
H3511 H 0.91304 0.78514 0.24035 0.0
H3512 H 0.93813 0.78593 0.22324 0.0
H3513 H 0.90391 0.76847 0.17008 0.0
H3514 H 0.87866 0.76788 0.18728 0.0
H3515 H 0.93007 0.79467 0.16577 0.0
H3516 H 0.92596 0.73753 0.18982 0.0
H3517 H 0.92347 0.71578 0.21296 0.0
H3518 H 0.97236 0.74891 0.24447 0.0
H3519 H 0.97504 0.77103 0.22165 0.0
C3520 C 0.99995 0.78308 0.12885 0.0
C3521 C 0.0165 0.79096 0.13964 0.0
C3522 C 0.98478 0.78007 0.13759 0.0
C3523 C 0.98565 0.78515 0.15737 0.0
C3524 C 1.00219 0.79256 0.16825 0.0
C3525 C 0.01744 0.79543 0.1595 0.0
C3526 C 0.96934 0.78289 0.16663 0.0
C3527 C 0.96751 0.77218 0.18126 0.0
C3528 C 0.95539 0.79069 0.16075 0.0
C3529 C 0.95623 0.80203 0.14531 0.0
C3530 C 0.96982 0.81847 0.14638 0.0
C3531 C 0.97068 0.82879 0.13154 0.0
C3532 C 0.95795 0.82289 0.11561 0.0
C3533 C 0.94429 0.80669 0.11452 0.0
C3534 C 0.94338 0.7963 0.12932 0.0
C3535 C 0.91076 0.78122 0.22502 0.0
C3536 C 0.89368 0.77627 0.21525 0.0
C3537 C 0.92521 0.78164 0.2152 0.0
C3538 C 0.92307 0.77691 0.19528 0.0
C3539 C 0.90604 0.77215 0.18543 0.0
C3540 C 0.89155 0.77185 0.19529 0.0
C3541 C 0.93866 0.77767 0.18485 0.0
C3542 C 0.94035 0.78804 0.16993 0.0
C3543 C 0.95228 0.76913 0.19014 0.0
C3544 C 0.9506 0.75607 0.20412 0.0
C3545 C 0.9361 0.7403 0.20179 0.0
C3546 C 0.93467 0.72788 0.21483 0.0
C3547 C 0.94772 0.73099 0.23021 0.0
C3548 C 0.96225 0.74653 0.23257 0.0
C3549 C 0.96373 0.75901 0.21958 0.0
H3550 H 0.94661 0.72134 0.24027 0.0
H3551 H 0.95865 0.83089 0.10412 0.0
H3552 H 0.48683 0.29557 0.10893 0.0
H3553 H 0.49376 0.32486 0.09583 0.0
H3554 H 0.54826 0.32493 0.10209 0.0
H3555 H 0.54149 0.29564 0.11537 0.0
H3556 H 0.54224 0.36091 0.11422 0.0
H3557 H 0.52673 0.31065 0.06004 0.0
H3558 H 0.50829 0.28077 0.04061 0.0
H3559 H 0.46582 0.3074 0.03421 0.0
H3560 H 0.48394 0.33738 0.0539 0.0
H3561 H 0.56144 0.42294 0.04366 0.0
H3562 H 0.55951 0.39707 0.06211 0.0
H3563 H 0.5062 0.39744 0.06835 0.0
H3564 H 0.50809 0.42338 0.05028 0.0
H3565 H 0.51393 0.36125 0.04983 0.0
H3566 H 0.52862 0.41022 0.10641 0.0
H3567 H 0.54602 0.43882 0.12873 0.0
H3568 H 0.59016 0.41435 0.13057 0.0
H3569 H 0.57296 0.38554 0.10831 0.0
C3570 C 0.50028 0.30175 0.10744 0.0
C3571 C 0.5136 0.29323 0.11297 0.0
C3572 C 0.50421 0.31848 0.10001 0.0
C3573 C 0.52149 0.32688 0.09793 0.0
C3574 C 0.53486 0.31857 0.10362 0.0
C3575 C 0.53093 0.30178 0.111 0.0
C3576 C 0.52541 0.34406 0.08925 0.0
C3577 C 0.53633 0.36096 0.10002 0.0
C3578 C 0.51745 0.34403 0.07085 0.0
C3579 C 0.50666 0.32622 0.05854 0.0
C3580 C 0.51343 0.31011 0.05456 0.0
C3581 C 0.50304 0.29316 0.04351 0.0
C3582 C 0.48588 0.29218 0.0362 0.0
C3583 C 0.47911 0.30819 0.03989 0.0
C3584 C 0.48945 0.32517 0.05097 0.0
C3585 C 0.54942 0.41764 0.04922 0.0
C3586 C 0.53489 0.42504 0.04555 0.0
C3587 C 0.54839 0.40304 0.05983 0.0
C3588 C 0.53274 0.39555 0.06656 0.0
C3589 C 0.5184 0.40324 0.06333 0.0
C3590 C 0.51951 0.418 0.05304 0.0
C3591 C 0.53056 0.37818 0.0749 0.0
C3592 C 0.52 0.36117 0.06396 0.0
C3593 C 0.53893 0.37814 0.09307 0.0
C3594 C 0.54959 0.39586 0.10552 0.0
C3595 C 0.5421 0.41105 0.11138 0.0
C3596 C 0.55188 0.42721 0.12416 0.0
C3597 C 0.56919 0.42839 0.13108 0.0
C3598 C 0.57676 0.41342 0.1252 0.0
C3599 C 0.56699 0.39714 0.11256 0.0
H3600 H 0.57674 0.44092 0.14098 0.0
H3601 H 0.47784 0.27903 0.02767 0.0
H3602 H 0.01712 0.28623 0.37084 0.0
H3603 H 0.9893 0.28672 0.35388 0.0
H3604 H 0.01447 0.29966 0.3052 0.0
H3605 H 0.04265 0.30009 0.32255 0.0
H3606 H 0.99198 0.32112 0.31272 0.0
H3607 H 0.98991 0.25386 0.30598 0.0
H3608 H 0.99346 0.22538 0.31881 0.0
H3609 H 0.95381 0.23091 0.35436 0.0
H3610 H 0.95018 0.25955 0.34191 0.0
H3611 H 0.9084 0.30807 0.26063 0.0
H3612 H 0.93678 0.30123 0.26854 0.0
H3613 H 0.92337 0.29208 0.32373 0.0
H3614 H 0.89512 0.29881 0.31586 0.0
H3615 H 0.94062 0.26617 0.30767 0.0
H3616 H 0.94558 0.33403 0.32018 0.0
H3617 H 0.94223 0.36447 0.31157 0.0
H3618 H 0.97621 0.35952 0.2691 0.0
H3619 H 0.97953 0.32885 0.27728 0.0
C3620 C 0.01669 0.28896 0.35645 0.0
C3621 C 0.0319 0.29282 0.34783 0.0
C3622 C 1.00082 0.28923 0.34678 0.0
C3623 C 0.99982 0.29274 0.32813 0.0
C3624 C 0.01502 0.29676 0.31953 0.0
C3625 C 0.03102 0.2969 0.32938 0.0
C3626 C 0.98283 0.29243 0.31783 0.0
C3627 C 0.98084 0.30893 0.31114 0.0
C3628 C 0.96828 0.27667 0.31627 0.0
C3629 C 0.96978 0.25884 0.32299 0.0
C3630 C 0.98193 0.24897 0.3165 0.0
C3631 C 0.98398 0.23283 0.32374 0.0
C3632 C 0.97387 0.22634 0.33739 0.0
C3633 C 0.96161 0.23593 0.34376 0.0
C3634 C 0.95951 0.25208 0.33657 0.0
C3635 C 0.9115 0.3043 0.2743 0.0
C3636 C 0.89988 0.30422 0.2878 0.0
C3637 C 0.9276 0.30042 0.27878 0.0
C3638 C 0.93208 0.29632 0.29673 0.0
C3639 C 0.92006 0.29522 0.3098 0.0
C3640 C 0.90408 0.29923 0.3054 0.0
C3641 C 0.9498 0.29488 0.30274 0.0
C3642 C 0.9519 0.2781 0.30869 0.0
C3643 C 0.96439 0.31049 0.30394 0.0
C3644 C 0.96262 0.32904 0.29916 0.0
C3645 C 0.95222 0.33936 0.3089 0.0
C3646 C 0.95034 0.35666 0.30411 0.0
C3647 C 0.95895 0.36389 0.28975 0.0
C3648 C 0.96951 0.35387 0.28019 0.0
C3649 C 0.9714 0.33652 0.28489 0.0
H3650 H 0.95748 0.37729 0.28606 0.0
H3651 H 0.97553 0.21389 0.34304 0.0
H3652 H 0.969 0.6878 0.59021 0.0
H3653 H 0.97799 0.6584 0.57927 0.0
H3654 H 0.02904 0.6834 0.61126 0.0
H3655 H 0.01995 0.7126 0.62235 0.0
H3656 H 0.0306 0.66934 0.57463 0.0
H3657 H 0.00399 0.64772 0.62558 0.0
H3658 H 0.98166 0.64122 0.64686 0.0
H3659 H 0.94624 0.60332 0.60075 0.0
H3660 H 0.96827 0.60982 0.57908 0.0
H3661 H 0.05453 0.58172 0.54575 0.0
H3662 H 0.04842 0.60806 0.56736 0.0
H3663 H 0.99671 0.59632 0.53664 0.0
H3664 H 0.0028 0.57014 0.51488 0.0
H3665 H 0.99868 0.60324 0.57764 0.0
H3666 H 0.02587 0.62981 0.52639 0.0
H3667 H 0.0495 0.63648 0.50665 0.0
H3668 H 0.08561 0.66538 0.55634 0.0
H3669 H 0.06223 0.6586 0.57642 0.0
C3670 C 0.98205 0.68682 0.59493 0.0
C3671 C 0.99388 0.7022 0.60691 0.0
C3672 C 0.98713 0.67009 0.58887 0.0
C3673 C 0.00413 0.66876 0.59461 0.0
C3674 C 0.01586 0.68415 0.6068 0.0
C3675 C 0.01071 0.70074 0.61304 0.0
C3676 C 0.01007 0.65197 0.58649 0.0
C3677 C 0.02386 0.65489 0.57563 0.0
C3678 C 1.00119 0.63319 0.58778 0.0
C3679 C 0.98775 0.62942 0.60064 0.0
C3680 C 0.99137 0.63816 0.61991 0.0
C3681 C 0.97878 0.63444 0.63206 0.0
C3682 C 0.96253 0.6219 0.62515 0.0
C3683 C 0.95883 0.61305 0.60607 0.0
C3684 C 0.97138 0.61674 0.59385 0.0
C3685 C 0.04186 0.58478 0.54367 0.0
C3686 C 0.02917 0.57416 0.5286 0.0
C3687 C 0.03839 0.59972 0.55601 0.0
C3688 C 0.02215 0.60404 0.55348 0.0
C3689 C 0.0093 0.59308 0.53877 0.0
C3690 C 0.01283 0.57831 0.52629 0.0
C3691 C 0.0188 0.6207 0.56541 0.0
C3692 C 0.00554 0.61772 0.57696 0.0
C3693 C 0.02832 0.63947 0.565 0.0
C3694 C 0.04237 0.64346 0.55293 0.0
C3695 C 0.03889 0.6374 0.53313 0.0
C3696 C 0.05223 0.64124 0.52187 0.0
C3697 C 0.06906 0.65128 0.53024 0.0
C3698 C 0.07258 0.65755 0.54988 0.0
C3699 C 0.05929 0.65372 0.56121 0.0
H3700 H 0.07937 0.65426 0.5215 0.0
H3701 H 0.9528 0.61901 0.63459 0.0
H3702 H 0.61373 0.80724 0.82877 0.0
H3703 H 0.63582 0.80461 0.80799 0.0
H3704 H 0.67526 0.81745 0.85684 0.0
H3705 H 0.65321 0.82033 0.87789 0.0
H3706 H 0.68505 0.8375 0.82885 0.0
H3707 H 0.65841 0.77226 0.8345 0.0
H3708 H 0.63385 0.74397 0.8319 0.0
H3709 H 0.62285 0.74279 0.77209 0.0
H3710 H 0.64721 0.77127 0.77439 0.0
H3711 H 0.75571 0.80478 0.80575 0.0
H3712 H 0.72892 0.80882 0.81782 0.0
H3713 H 0.70122 0.79217 0.76083 0.0
H3714 H 0.72814 0.78698 0.74885 0.0
H3715 H 0.68251 0.77616 0.78667 0.0
H3716 H 0.71354 0.83922 0.78151 0.0
H3717 H 0.73968 0.86596 0.78569 0.0
H3718 H 0.74384 0.8697 0.84615 0.0
H3719 H 0.71758 0.84312 0.84237 0.0
C3720 C 0.62711 0.80957 0.83514 0.0
C3721 C 0.63179 0.81392 0.85498 0.0
C3722 C 0.63966 0.808 0.82323 0.0
C3723 C 0.65702 0.81065 0.83097 0.0
C3724 C 0.66183 0.81535 0.85071 0.0
C3725 C 0.64927 0.81695 0.86268 0.0
C3726 C 0.67027 0.80849 0.81852 0.0
C3727 C 0.68453 0.82411 0.81962 0.0
C3728 C 0.66913 0.79117 0.80604 0.0
C3729 C 0.65448 0.77406 0.80467 0.0
C3730 C 0.65065 0.76609 0.82083 0.0
C3731 C 0.63678 0.74999 0.8194 0.0
C3732 C 0.62675 0.74163 0.80186 0.0
C3733 C 0.6306 0.74932 0.78568 0.0
C3734 C 0.64444 0.76543 0.78704 0.0
C3735 C 0.7439 0.80219 0.79585 0.0
C3736 C 0.74377 0.79608 0.77647 0.0
C3737 C 0.72868 0.80447 0.80268 0.0
C3738 C 0.7133 0.80134 0.79009 0.0
C3739 C 0.71308 0.79487 0.77065 0.0
C3740 C 0.72833 0.79208 0.76384 0.0
C3741 C 0.69763 0.80494 0.79764 0.0
C3742 C 0.68281 0.7897 0.7955 0.0
C3743 C 0.69828 0.82257 0.80931 0.0
C3744 C 0.71357 0.83919 0.81164 0.0
C3745 C 0.72004 0.84574 0.7957 0.0
C3746 C 0.7349 0.86086 0.798 0.0
C3747 C 0.74351 0.8694 0.81618 0.0
C3748 C 0.73713 0.86307 0.83209 0.0
C3749 C 0.72218 0.84808 0.82989 0.0
H3750 H 0.75515 0.88087 0.818 0.0
H3751 H 0.61603 0.72917 0.80078 0.0
H3752 H 0.46791 0.58834 0.70797 0.0
H3753 H 0.48044 0.58267 0.6787 0.0
H3754 H 0.4468 0.5259 0.66462 0.0
H3755 H 0.43401 0.53155 0.69443 0.0
H3756 H 0.48039 0.52576 0.65419 0.0
H3757 H 0.4395 0.56371 0.64198 0.0
H3758 H 0.42684 0.59141 0.64877 0.0
H3759 H 0.47627 0.62946 0.64649 0.0
H3760 H 0.48927 0.602 0.63991 0.0
H3761 H 0.50075 0.51435 0.55622 0.0
H3762 H 0.48546 0.51589 0.58465 0.0
H3763 H 0.51361 0.57469 0.60324 0.0
H3764 H 0.52901 0.57301 0.57542 0.0
H3765 H 0.4815 0.5723 0.61073 0.0
H3766 H 0.52342 0.53879 0.62453 0.0
H3767 H 0.53991 0.51409 0.62081 0.0
H3768 H 0.49367 0.47096 0.62314 0.0
H3769 H 0.47679 0.49541 0.62657 0.0
C3770 C 0.46294 0.57453 0.69881 0.0
C3771 C 0.44956 0.56056 0.7041 0.0
C3772 C 0.47026 0.5713 0.6817 0.0
C3773 C 0.4647 0.55386 0.66866 0.0
C3774 C 0.45157 0.5396 0.674 0.0
C3775 C 0.44408 0.5429 0.69122 0.0
C3776 C 0.4724 0.55107 0.64963 0.0
C3777 C 0.48019 0.53575 0.64454 0.0
C3778 C 0.47322 0.56433 0.6369 0.0
C3779 C 0.46537 0.58081 0.64058 0.0
C3780 C 0.44768 0.578 0.64301 0.0
C3781 C 0.44045 0.59365 0.64682 0.0
C3782 C 0.45075 0.61218 0.64809 0.0
C3783 C 0.4683 0.6151 0.64551 0.0
C3784 C 0.4756 0.5995 0.64171 0.0
C3785 C 0.50344 0.52774 0.56612 0.0
C3786 C 0.51607 0.54367 0.56293 0.0
C3787 C 0.49478 0.52858 0.58273 0.0
C3788 C 0.49815 0.54547 0.59673 0.0
C3789 C 0.51039 0.56142 0.5931 0.0
C3790 C 0.51925 0.56044 0.57688 0.0
C3791 C 0.48924 0.54681 0.61504 0.0
C3792 C 0.48141 0.56204 0.62013 0.0
C3793 C 0.48883 0.53376 0.62795 0.0
C3794 C 0.49876 0.5189 0.62549 0.0
C3795 C 0.51669 0.52401 0.62399 0.0
C3796 C 0.52613 0.51006 0.62199 0.0
C3797 C 0.51783 0.49095 0.62165 0.0
C3798 C 0.50006 0.48576 0.62333 0.0
C3799 C 0.49055 0.49966 0.6253 0.0
H3800 H 0.52516 0.48017 0.62014 0.0
H3801 H 0.44513 0.62429 0.65106 0.0
H3802 H 0.7529 0.1273 0.95853 0.0
H3803 H 0.744 0.14356 0.93351 0.0
H3804 H 0.77553 0.1975 0.96515 0.0
H3805 H 0.78428 0.18143 0.9904 0.0
H3806 H 0.74409 0.20058 0.94899 0.0
H3807 H 0.79135 0.17434 0.93098 0.0
H3808 H 0.80666 0.14875 0.92497 0.0
H3809 H 0.76532 0.11735 0.88093 0.0
H3810 H 0.74961 0.14264 0.8869 0.0
H3811 H 0.76196 0.25619 0.87876 0.0
H3812 H 0.76133 0.23813 0.90438 0.0
H3813 H 0.73267 0.18709 0.86557 0.0
H3814 H 0.73402 0.20509 0.83933 0.0
H3815 H 0.7593 0.18068 0.88491 0.0
H3816 H 0.71356 0.21071 0.90222 0.0
H3817 H 0.70068 0.23826 0.90877 0.0
H3818 H 0.74196 0.26491 0.95448 0.0
H3819 H 0.75517 0.23759 0.9481 0.0
C3820 C 0.75796 0.14262 0.96013 0.0
C3821 C 0.76951 0.15309 0.9762 0.0
C3822 C 0.75279 0.15186 0.94591 0.0
C3823 C 0.75929 0.17163 0.94749 0.0
C3824 C 0.7704 0.18221 0.96377 0.0
C3825 C 0.77548 0.173 0.97806 0.0
C3826 C 0.75536 0.18113 0.93165 0.0
C3827 C 0.74741 0.19631 0.93496 0.0
C3828 C 0.75962 0.17532 0.91341 0.0
C3829 C 0.7692 0.16027 0.90954 0.0
C3830 C 0.78546 0.16191 0.92011 0.0
C3831 C 0.79422 0.14747 0.9167 0.0
C3832 C 0.78694 0.1314 0.90262 0.0
C3833 C 0.77092 0.12979 0.89186 0.0
C3834 C 0.76208 0.14417 0.89525 0.0
C3835 C 0.75506 0.24122 0.87576 0.0
C3836 C 0.74778 0.23204 0.8572 0.0
C3837 C 0.75467 0.23092 0.89043 0.0
C3838 C 0.74659 0.21134 0.8869 0.0
C3839 C 0.73882 0.20222 0.86847 0.0
C3840 C 0.73952 0.21247 0.85361 0.0
C3841 C 0.74787 0.20016 0.90212 0.0
C3842 C 0.75553 0.18471 0.89877 0.0
C3843 C 0.7436 0.20596 0.92039 0.0
C3844 C 0.73535 0.2221 0.92466 0.0
C3845 C 0.71989 0.22245 0.91366 0.0
C3846 C 0.71254 0.23803 0.91734 0.0
C3847 C 0.7205 0.25333 0.93203 0.0
C3848 C 0.73579 0.25303 0.94313 0.0
C3849 C 0.74318 0.23748 0.93953 0.0
H3850 H 0.71482 0.2654 0.93482 0.0
H3851 H 0.79373 0.12022 0.90001 0.0
H3852 H 0.13498 0.51377 0.17507 0.0
H3853 H 0.12166 0.52432 0.14803 0.0
H3854 H 0.09266 0.55353 0.18508 0.0
H3855 H 0.10537 0.54219 0.21201 0.0
H3856 H 0.07231 0.53252 0.1563 0.0
H3857 H 0.12688 0.57854 0.16336 0.0
H3858 H 0.15886 0.59064 0.16734 0.0
H3859 H 0.16083 0.556 0.1141 0.0
H3860 H 0.12891 0.54349 0.10988 0.0
H3861 H 0.03472 0.55696 0.0733 0.0
H3862 H 0.05282 0.56297 0.1043 0.0
H3863 H 0.08235 0.52415 0.08141 0.0
H3864 H 0.06402 0.51788 0.05066 0.0
H3865 H 0.10305 0.55834 0.10543 0.0
H3866 H 0.05148 0.50671 0.10334 0.0
H3867 H 0.01976 0.49245 0.09862 0.0
H3868 H 0.0132 0.53627 0.1424 0.0
H3869 H 0.0449 0.55092 0.1472 0.0
C3870 C 0.12563 0.52229 0.17732 0.0
C3871 C 0.1208 0.52683 0.19537 0.0
C3872 C 0.11833 0.52865 0.16201 0.0
C3873 C 0.10651 0.54008 0.16469 0.0
C3874 C 0.10186 0.54482 0.18281 0.0
C3875 C 0.10888 0.5381 0.19806 0.0
C3876 C 0.09731 0.54485 0.14816 0.0
C3877 C 0.07906 0.53878 0.14549 0.0
C3878 C 0.10618 0.55254 0.13386 0.0
C3879 C 0.12545 0.56002 0.13635 0.0
C3880 C 0.13413 0.5734 0.15255 0.0
C3881 C 0.15226 0.58036 0.15484 0.0
C3882 C 0.16187 0.57408 0.14099 0.0
C3883 C 0.15337 0.56086 0.12481 0.0
C3884 C 0.13525 0.55387 0.12245 0.0
C3885 C 0.04507 0.54975 0.07508 0.0
C3886 C 0.04819 0.53699 0.06 0.0
C3887 C 0.05546 0.55334 0.09254 0.0
C3888 C 0.06892 0.54411 0.09489 0.0
C3889 C 0.07217 0.5316 0.07964 0.0
C3890 C 0.06173 0.52796 0.06224 0.0
C3891 C 0.07833 0.54567 0.11373 0.0
C3892 C 0.09647 0.55282 0.11669 0.0
C3893 C 0.06948 0.53881 0.1283 0.0
C3894 C 0.05047 0.53004 0.12545 0.0
C3895 C 0.04324 0.51339 0.11183 0.0
C3896 C 0.02528 0.50522 0.10917 0.0
C3897 C 0.01446 0.51349 0.12016 0.0
C3898 C 0.02159 0.52991 0.13387 0.0
C3899 C 0.03954 0.53816 0.13657 0.0
H3900 H 1.00056 0.50713 0.11809 0.0
H3901 H 0.1759 0.57948 0.14279 0.0
H3902 H 0.78357 0.87201 0.47122 0.0
H3903 H 0.78093 0.85805 0.43774 0.0
H3904 H 0.80143 0.81183 0.4528 0.0
H3905 H 0.80443 0.82593 0.48646 0.0
H3906 H 0.81822 0.82742 0.42654 0.0
H3907 H 0.75763 0.80527 0.43413 0.0
H3908 H 0.72888 0.80816 0.44254 0.0
H3909 H 0.72635 0.8464 0.40327 0.0
H3910 H 0.75517 0.84394 0.39479 0.0
H3911 H 0.80816 0.77998 0.33035 0.0
H3912 H 0.80757 0.78831 0.3646 0.0
H3913 H 0.77937 0.83055 0.35459 0.0
H3914 H 0.77878 0.82109 0.32045 0.0
H3915 H 0.76564 0.8143 0.37899 0.0
H3916 H 0.8261 0.8406 0.37369 0.0
H3917 H 0.85518 0.83992 0.36476 0.0
H3918 H 0.8587 0.79762 0.39924 0.0
H3919 H 0.82957 0.79793 0.40823 0.0
C3920 C 0.78734 0.85874 0.46748 0.0
C3921 C 0.79435 0.85017 0.48157 0.0
C3922 C 0.7857 0.8507 0.44827 0.0
C3923 C 0.79085 0.83379 0.4427 0.0
C3924 C 0.79736 0.82488 0.45675 0.0
C3925 C 0.79905 0.83295 0.476 0.0
C3926 C 0.79082 0.82635 0.42226 0.0
C3927 C 0.80664 0.82423 0.41617 0.0
C3928 C 0.77588 0.82284 0.40861 0.0
C3929 C 0.75865 0.82454 0.41395 0.0
C3930 C 0.75102 0.81444 0.42742 0.0
C3931 C 0.73469 0.81597 0.43217 0.0
C3932 C 0.72581 0.82749 0.42348 0.0
C3933 C 0.73324 0.8375 0.41001 0.0
C3934 C 0.74957 0.83602 0.40522 0.0
C3935 C 0.80196 0.79111 0.3356 0.0
C3936 C 0.79356 0.79996 0.32291 0.0
C3937 C 0.80169 0.79596 0.35516 0.0
C3938 C 0.79365 0.81032 0.36237 0.0
C3939 C 0.78557 0.81937 0.34954 0.0
C3940 C 0.78532 0.81406 0.33002 0.0
C3941 C 0.79315 0.81572 0.38315 0.0
C3942 C 0.77723 0.81741 0.38933 0.0
C3943 C 0.80809 0.81932 0.39684 0.0
C3944 C 0.8256 0.81916 0.39147 0.0
C3945 C 0.83304 0.83108 0.37927 0.0
C3946 C 0.84953 0.83077 0.37422 0.0
C3947 C 0.85876 0.8187 0.38139 0.0
C3948 C 0.85153 0.80695 0.39368 0.0
C3949 C 0.83505 0.8072 0.39877 0.0
H3950 H 0.87152 0.81848 0.37746 0.0
H3951 H 0.71316 0.82863 0.42716 0.0
H3952 H 0.4571 0.52541 0.80124 0.0
H3953 H 0.47229 0.52684 0.83254 0.0
H3954 H 0.46348 0.58222 0.85119 0.0
H3955 H 0.44804 0.58093 0.81928 0.0
H3956 H 0.49761 0.57917 0.86786 0.0
H3957 H 0.43858 0.54663 0.86657 0.0
H3958 H 0.41142 0.52471 0.84925 0.0
H3959 H 0.43601 0.47807 0.84553 0.0
H3960 H 0.46347 0.49983 0.86273 0.0
H3961 H 0.51695 0.57256 0.96607 0.0
H3962 H 0.50382 0.57647 0.93535 0.0
H3963 H 0.50036 0.51745 0.91272 0.0
H3964 H 0.51288 0.51328 0.94387 0.0
H3965 H 0.47224 0.52467 0.89846 0.0
H3966 H 0.53252 0.56061 0.90265 0.0
H3967 H 0.55863 0.58518 0.91897 0.0
H3968 H 0.53011 0.62836 0.91869 0.0
H3969 H 0.50379 0.604 0.90245 0.0
C3970 C 0.45838 0.53809 0.81178 0.0
C3971 C 0.45098 0.55298 0.80729 0.0
C3972 C 0.46721 0.53887 0.82994 0.0
C3973 C 0.46913 0.55454 0.84475 0.0
C3974 C 0.46238 0.56988 0.84027 0.0
C3975 C 0.45342 0.56911 0.82189 0.0
C3976 C 0.47687 0.55371 0.86489 0.0
C3977 C 0.4919 0.56737 0.8746 0.0
C3978 C 0.4698 0.53842 0.87415 0.0
C3979 C 0.45303 0.52482 0.86582 0.0
C3980 C 0.43814 0.53165 0.8622 0.0
C3981 C 0.42275 0.51931 0.85236 0.0
C3982 C 0.42207 0.50009 0.84622 0.0
C3983 C 0.43663 0.49301 0.85029 0.0
C3984 C 0.4521 0.50533 0.86014 0.0
C3985 C 0.51351 0.56034 0.9546 0.0
C3986 C 0.51623 0.54258 0.95779 0.0
C3987 C 0.50603 0.56266 0.93673 0.0
C3988 C 0.50125 0.54745 0.92101 0.0
C3989 C 0.50386 0.52963 0.92423 0.0
C3990 C 0.51116 0.52723 0.94222 0.0
C3991 C 0.4933 0.54995 0.90152 0.0
C3992 C 0.47811 0.5365 0.89185 0.0
C3993 C 0.50013 0.56571 0.89257 0.0
C3994 C 0.51617 0.58047 0.90141 0.0
C3995 C 0.53183 0.57535 0.90603 0.0
C3996 C 0.54666 0.58923 0.91529 0.0
C3997 C 0.54601 0.60831 0.91989 0.0
C3998 C 0.53058 0.61357 0.9151 0.0
C3999 C 0.51573 0.59975 0.90582 0.0
H4000 H 0.55747 0.61902 0.92715 0.0
H4001 H 0.41028 0.49079 0.83817 0.0
H4002 H 0.78472 0.16161 0.08867 0.0
H4003 H 0.77709 0.17969 0.11676 0.0
H4004 H 0.77265 0.2248 0.08583 0.0
H4005 H 0.78047 0.20703 0.05782 0.0
H4006 H 0.79559 0.23649 0.11828 0.0
H4007 H 0.73658 0.19805 0.09929 0.0
H4008 H 0.71351 0.16806 0.09008 0.0
H4009 H 0.72722 0.1515 0.14305 0.0
H4010 H 0.7505 0.18126 0.15249 0.0
H4011 H 0.78363 0.2949 0.19931 0.0
H4012 H 0.77583 0.27647 0.1669 0.0
H4013 H 0.77275 0.22421 0.18882 0.0
H4014 H 0.77974 0.24238 0.22102 0.0
H4015 H 0.74984 0.21732 0.1588 0.0
H4016 H 0.81072 0.24808 0.17534 0.0
H4017 H 0.83681 0.27479 0.18612 0.0
H4018 H 0.82335 0.30151 0.13967 0.0
H4019 H 0.79704 0.27504 0.12875 0.0
C4020 C 0.78207 0.17536 0.08785 0.0
C4021 C 0.78352 0.1831 0.07119 0.0
C4022 C 0.77745 0.1855 0.10379 0.0
C4023 C 0.7741 0.20341 0.10319 0.0
C4024 C 0.77507 0.2109 0.08643 0.0
C4025 C 0.77975 0.20084 0.07055 0.0
C4026 C 0.77229 0.21559 0.12074 0.0
C4027 C 0.7853 0.23256 0.1269 0.0
C4028 C 0.75932 0.20987 0.13229 0.0
C4029 C 0.74538 0.19187 0.12654 0.0
C4030 C 0.73478 0.18795 0.10891 0.0
C4031 C 0.72163 0.171 0.10366 0.0
C4032 C 0.71892 0.15787 0.11596 0.0
C4033 C 0.72933 0.16167 0.13354 0.0
C4034 C 0.74249 0.1786 0.13885 0.0
C4035 C 0.78096 0.27947 0.19713 0.0
C4036 C 0.78257 0.27003 0.21248 0.0
C4037 C 0.7765 0.26897 0.1787 0.0
C4038 C 0.77406 0.24903 0.17551 0.0
C4039 C 0.77457 0.23957 0.19097 0.0
C4040 C 0.77872 0.24999 0.20935 0.0
C4041 C 0.77313 0.23823 0.15623 0.0
C4042 C 0.7598 0.22148 0.14987 0.0
C4043 C 0.78619 0.24367 0.14469 0.0
C4044 C 0.8018 0.25976 0.15141 0.0
C4045 C 0.81324 0.25976 0.16755 0.0
C4046 C 0.82808 0.27482 0.17366 0.0
C4047 C 0.8317 0.28988 0.16363 0.0
C4048 C 0.8205 0.28987 0.14746 0.0
C4049 C 0.80562 0.27485 0.14131 0.0
H4050 H 0.84322 0.30151 0.16836 0.0
H4051 H 0.70873 0.14476 0.11187 0.0
H4052 H 0.15545 0.53673 0.29522 0.0
H4053 H 0.1497 0.54613 0.32753 0.0
H4054 H 0.11335 0.57644 0.30687 0.0
H4055 H 0.11966 0.56776 0.27453 0.0
H4056 H 0.13182 0.59633 0.33874 0.0
H4057 H 0.09991 0.53101 0.31659 0.0
H4058 H 0.09595 0.49693 0.3032 0.0
H4059 H 0.13069 0.49124 0.35017 0.0
H4060 H 0.13506 0.52538 0.36371 0.0
H4061 H 0.06424 0.57211 0.39712 0.0
H4062 H 0.08389 0.5805 0.3739 0.0
H4063 H 0.12699 0.57433 0.4114 0.0
H4064 H 0.10755 0.56677 0.435 0.0
H4065 H 0.11095 0.54488 0.37484 0.0
H4066 H 0.13789 0.61084 0.39894 0.0
H4067 H 0.13922 0.6446 0.4112 0.0
H4068 H 0.10947 0.64811 0.35947 0.0
H4069 H 0.10785 0.61432 0.34695 0.0
C4070 C 0.14618 0.54534 0.29756 0.0
C4071 C 0.13777 0.55132 0.28241 0.0
C4072 C 0.14297 0.55074 0.31601 0.0
C4073 C 0.13094 0.56175 0.31951 0.0
C4074 C 0.12271 0.56796 0.30442 0.0
C4075 C 0.12619 0.56287 0.28598 0.0
C4076 C 0.12629 0.56604 0.33876 0.0
C4077 C 0.12719 0.5851 0.34664 0.0
C4078 C 0.12063 0.55137 0.34915 0.0
C4079 C 0.118 0.53082 0.34103 0.0
C4080 C 0.10683 0.52253 0.32398 0.0
C4081 C 0.10449 0.5032 0.31638 0.0
C4082 C 0.11311 0.49195 0.32579 0.0
C4083 C 0.12405 0.49999 0.34287 0.0
C4084 C 0.12647 0.51933 0.35052 0.0
C4085 C 0.07804 0.57338 0.40073 0.0
C4086 C 0.08434 0.56821 0.41752 0.0
C4087 C 0.08926 0.57833 0.38757 0.0
C4088 C 0.10678 0.57788 0.39101 0.0
C4089 C 0.11349 0.57484 0.40865 0.0
C4090 C 0.10234 0.57034 0.42201 0.0
C4091 C 0.11617 0.57509 0.37464 0.0
C4092 C 0.11603 0.55618 0.36717 0.0
C4093 C 0.12201 0.58979 0.36447 0.0
C4094 C 0.12263 0.61 0.37207 0.0
C4095 C 0.13147 0.61875 0.39026 0.0
C4096 C 0.13232 0.63791 0.39723 0.0
C4097 C 0.12439 0.64848 0.38614 0.0
C4098 C 0.11561 0.63991 0.36805 0.0
C4099 C 0.11475 0.62076 0.36099 0.0
H4100 H 0.1251 0.66332 0.39156 0.0
H4101 H 0.11128 0.47698 0.31989 0.0
H4102 H 0.76555 0.8365 0.56614 0.0
H4103 H 0.76614 0.8246 0.59608 0.0
H4104 H 0.81467 0.8662 0.61768 0.0
H4105 H 0.81411 0.87839 0.58772 0.0
H4106 H 0.81336 0.82781 0.62531 0.0
H4107 H 0.77917 0.87519 0.63181 0.0
H4108 H 0.75514 0.88902 0.62148 0.0
H4109 H 0.7179 0.83662 0.6231 0.0
H4110 H 0.74173 0.8224 0.63321 0.0
H4111 H 0.81298 0.81675 0.72259 0.0
H4112 H 0.81512 0.82952 0.69298 0.0
H4113 H 0.76121 0.80055 0.6733 0.0
H4114 H 0.75893 0.78837 0.70286 0.0
H4115 H 0.76617 0.83333 0.66463 0.0
H4116 H 0.79635 0.78451 0.65633 0.0
H4117 H 0.81791 0.76632 0.6635 0.0
H4118 H 0.85961 0.81494 0.66178 0.0
H4119 H 0.83828 0.83354 0.65485 0.0
C4120 C 0.77641 0.84313 0.5772 0.0
C4121 C 0.78975 0.85851 0.57448 0.0
C4122 C 0.77671 0.83629 0.59435 0.0
C4123 C 0.79041 0.84454 0.60922 0.0
C4124 C 0.80397 0.85958 0.60643 0.0
C4125 C 0.80358 0.8666 0.58932 0.0
C4126 C 0.79017 0.83788 0.62785 0.0
C4127 C 0.80323 0.82929 0.6341 0.0
C4128 C 0.77656 0.83906 0.63897 0.0
C4129 C 0.76224 0.8477 0.63312 0.0
C4130 C 0.76586 0.86659 0.62985 0.0
C4131 C 0.75228 0.8745 0.62405 0.0
C4132 C 0.73501 0.86369 0.62159 0.0
C4133 C 0.73128 0.84497 0.62499 0.0
C4134 C 0.74482 0.83699 0.63077 0.0
C4135 C 0.80158 0.81327 0.71197 0.0
C4136 C 0.78579 0.80155 0.7151 0.0
C4137 C 0.80284 0.82042 0.69495 0.0
C4138 C 0.78838 0.81586 0.68064 0.0
C4139 C 0.77258 0.80437 0.68398 0.0
C4140 C 0.7713 0.79737 0.70096 0.0
C4141 C 0.78942 0.82321 0.66231 0.0
C4142 C 0.77645 0.83191 0.65603 0.0
C4143 C 0.8028 0.82152 0.6509 0.0
C4144 C 0.81571 0.81051 0.65534 0.0
C4145 C 0.81012 0.7914 0.65769 0.0
C4146 C 0.8223 0.781 0.66166 0.0
C4147 C 0.84012 0.78949 0.66317 0.0
C4148 C 0.8458 0.8084 0.66066 0.0
C4149 C 0.83367 0.81888 0.65671 0.0
H4150 H 0.84954 0.7814 0.66622 0.0
H4151 H 0.72451 0.86984 0.61709 0.0
H4152 H 0.75513 0.46701 0.49864 0.0
H4153 H 0.73322 0.48298 0.50966 0.0
H4154 H 0.71532 0.43831 0.54138 0.0
H4155 H 0.73671 0.42184 0.52966 0.0
H4156 H 0.68942 0.44427 0.5219 0.0
H4157 H 0.73789 0.4849 0.56356 0.0
H4158 H 0.76749 0.50577 0.57362 0.0
H4159 H 0.75573 0.54547 0.53931 0.0
H4160 H 0.72617 0.52471 0.52876 0.0
H4161 H 0.63142 0.50179 0.55632 0.0
H4162 H 0.65459 0.48458 0.55664 0.0
H4163 H 0.67497 0.51155 0.51137 0.0
H4164 H 0.6517 0.52842 0.51075 0.0
H4165 H 0.69974 0.51389 0.54514 0.0
H4166 H 0.65377 0.46946 0.49931 0.0
H4167 H 0.62484 0.44745 0.4881 0.0
H4168 H 0.63291 0.41443 0.53106 0.0
H4169 H 0.6618 0.43645 0.54272 0.0
C4170 C 0.74649 0.46064 0.50795 0.0
C4171 C 0.74738 0.44315 0.51316 0.0
C4172 C 0.73418 0.46989 0.51447 0.0
C4173 C 0.72293 0.462 0.52667 0.0
C4174 C 0.72398 0.44464 0.53206 0.0
C4175 C 0.73605 0.43519 0.52524 0.0
C4176 C 0.70884 0.47082 0.532 0.0
C4177 C 0.69172 0.45941 0.52752 0.0
C4178 C 0.71191 0.49062 0.53905 0.0
C4179 C 0.72978 0.50315 0.54529 0.0
C4180 C 0.74164 0.498 0.55803 0.0
C4181 C 0.75842 0.50983 0.56384 0.0
C4182 C 0.76349 0.52693 0.55709 0.0
C4183 C 0.75179 0.53223 0.54453 0.0
C4184 C 0.735 0.52044 0.53864 0.0
C4185 C 0.64087 0.50391 0.54644 0.0
C4186 C 0.64 0.51634 0.53353 0.0
C4187 C 0.65396 0.49413 0.54662 0.0
C4188 C 0.66636 0.49698 0.53409 0.0
C4189 C 0.66545 0.50933 0.52116 0.0
C4190 C 0.65221 0.51883 0.52075 0.0
C4191 C 0.68057 0.48738 0.53446 0.0
C4192 C 0.69762 0.49867 0.54008 0.0
C4193 C 0.67749 0.46746 0.52857 0.0
C4194 C 0.65978 0.45484 0.52215 0.0
C4195 C 0.64924 0.45773 0.5066 0.0
C4196 C 0.63289 0.44518 0.5001 0.0
C4197 C 0.627 0.42961 0.50893 0.0
C4198 C 0.63745 0.42655 0.52429 0.0
C4199 C 0.6538 0.43907 0.53087 0.0
H4200 H 0.61437 0.41987 0.50382 0.0
H4201 H 0.77648 0.53607 0.56162 0.0
H4202 H 0.20923 0.1658 0.48312 0.0
H4203 H 0.18012 0.14627 0.48437 0.0
H4204 H 0.20302 0.10621 0.5095 0.0
H4205 H 0.23217 0.12506 0.50671 0.0
H4206 H 0.17668 0.08666 0.48897 0.0
H4207 H 0.18344 0.14365 0.53494 0.0
H4208 H 0.18916 0.17817 0.54711 0.0
H4209 H 0.14642 0.18182 0.50791 0.0
H4210 H 0.14052 0.14728 0.49536 0.0
H4211 H 0.10133 0.04152 0.52496 0.0
H4212 H 0.12979 0.06176 0.52253 0.0
H4213 H 0.10496 0.09406 0.48824 0.0
H4214 H 0.0762 0.07397 0.49109 0.0
H4215 H 0.1316 0.11741 0.51298 0.0
H4216 H 0.12497 0.05857 0.46856 0.0
H4217 H 0.1192 0.02355 0.45944 0.0
H4218 H 0.16251 0.02342 0.49979 0.0
H4219 H 0.1684 0.05841 0.50931 0.0
C4220 C 0.20802 0.15269 0.4887 0.0
C4221 C 0.223 0.14694 0.49476 0.0
C4222 C 0.19131 0.14161 0.4897 0.0
C4223 C 0.18908 0.1249 0.49764 0.0
C4224 C 0.20414 0.11899 0.50336 0.0
C4225 C 0.22087 0.12976 0.50175 0.0
C4226 C 0.17118 0.11353 0.49978 0.0
C4227 C 0.167 0.0935 0.49451 0.0
C4228 C 0.15811 0.12216 0.50663 0.0
C4229 C 0.16167 0.14293 0.51407 0.0
C4230 C 0.17534 0.15184 0.52882 0.0
C4231 C 0.1786 0.17142 0.5358 0.0
C4232 C 0.16822 0.18223 0.52825 0.0
C4233 C 0.15449 0.17345 0.51372 0.0
C4234 C 0.15116 0.15387 0.50668 0.0
C4235 C 0.10188 0.05295 0.51691 0.0
C4236 C 0.08648 0.05597 0.50802 0.0
C4237 C 0.11823 0.06449 0.51545 0.0
C4238 C 0.11969 0.07922 0.50479 0.0
C4239 C 0.10427 0.08271 0.49641 0.0
C4240 C 0.08782 0.0712 0.498 0.0
C4241 C 0.13731 0.09073 0.50229 0.0
C4242 C 0.14137 0.11071 0.50746 0.0
C4243 C 0.15039 0.08207 0.49572 0.0
C4244 C 0.14705 0.06108 0.48972 0.0
C4245 C 0.13321 0.05105 0.47553 0.0
C4246 C 0.12992 0.03121 0.47029 0.0
C4247 C 0.14046 0.02126 0.47905 0.0
C4248 C 0.15435 0.03114 0.49302 0.0
C4249 C 0.15769 0.05098 0.49832 0.0
H4250 H 0.13788 0.0059 0.47499 0.0
H4251 H 0.17078 0.19739 0.53369 0.0
H4252 H 0.20656 0.97188 0.7677 0.0
H4253 H 0.22298 0.94697 0.76663 0.0
H4254 H 0.17496 0.90396 0.76253 0.0
H4255 H 0.15885 0.92847 0.764 0.0
H4256 H 0.19493 0.89169 0.78228 0.0
H4257 H 0.20374 0.91243 0.72397 0.0
H4258 H 0.2124 0.93432 0.70176 0.0
H4259 H 0.26527 0.94935 0.72923 0.0
H4260 H 0.25688 0.92769 0.75178 0.0
H4261 H 0.23083 0.80958 0.75834 0.0
H4262 H 0.21512 0.83482 0.75787 0.0
H4263 H 0.26401 0.87734 0.76741 0.0
H4264 H 0.27966 0.85218 0.76746 0.0
H4265 H 0.24381 0.88975 0.74485 0.0
H4266 H 0.23224 0.86671 0.80351 0.0
H4267 H 0.22162 0.84165 0.822 0.0
H4268 H 0.17101 0.82775 0.78898 0.0
H4269 H 0.18138 0.85268 0.77024 0.0
C4270 C 0.19941 0.95714 0.76652 0.0
C4271 C 0.18102 0.95277 0.76597 0.0
C4272 C 0.20893 0.94259 0.76576 0.0
C4273 C 0.2006 0.92282 0.76431 0.0
C4274 C 0.18227 0.91864 0.76377 0.0
C4275 C 0.17286 0.93304 0.76453 0.0
C4276 C 0.21049 0.90654 0.76367 0.0
C4277 C 0.20548 0.89142 0.77383 0.0
C4278 C 0.22457 0.90529 0.75292 0.0
C4279 C 0.22963 0.91866 0.73974 0.0
C4280 C 0.21718 0.92056 0.72541 0.0
C4281 C 0.22205 0.93289 0.71273 0.0
C4282 C 0.23936 0.94328 0.71413 0.0
C4283 C 0.25185 0.94134 0.7282 0.0
C4284 C 0.24705 0.92904 0.74094 0.0
C4285 C 0.23836 0.82427 0.76037 0.0
C4286 C 0.25683 0.82833 0.76304 0.0
C4287 C 0.22922 0.83901 0.76026 0.0
C4288 C 0.238 0.85873 0.763 0.0
C4289 C 0.25644 0.86267 0.7653 0.0
C4290 C 0.26555 0.84798 0.76539 0.0
C4291 C 0.22828 0.8751 0.76354 0.0
C4292 C 0.23331 0.89018 0.75335 0.0
C4293 C 0.21393 0.87608 0.77388 0.0
C4294 C 0.20761 0.86146 0.78543 0.0
C4295 C 0.21886 0.85829 0.80019 0.0
C4296 C 0.21288 0.84411 0.81071 0.0
C4297 C 0.19566 0.8331 0.80665 0.0
C4298 C 0.18435 0.8363 0.79212 0.0
C4299 C 0.19025 0.85047 0.78158 0.0
H4300 H 0.19107 0.8221 0.81477 0.0
H4301 H 0.24311 0.95279 0.70428 0.0
H4302 H 0.34367 0.98375 0.0275 0.0
H4303 H 0.37458 0.99751 0.02622 0.0
H4304 H 0.38538 0.94284 0.03008 0.0
H4305 H 0.35493 0.92956 0.03271 0.0
H4306 H 0.41087 0.96795 0.0475 0.0
H4307 H 0.37765 0.9581 0.98662 0.0
H4308 H 0.35457 0.96073 0.96253 0.0
H4309 H 0.37539 0.02151 0.97153 0.0
H4310 H 0.39846 0.01927 0.99589 0.0
H4311 H 0.48554 0.97902 1.00038 0.0
H4312 H 0.45378 0.96968 0.99966 0.0
H4313 H 0.45482 0.02656 0.02778 0.0
H4314 H 0.48664 0.03574 0.02925 0.0
H4315 H 0.42395 1.00094 0.99319 0.0
H4316 H 0.45809 0.00593 0.05637 0.0
H4317 H 0.48282 0.99798 0.07352 0.0
H4318 H 0.45931 0.93815 0.05423 0.0
H4319 H 0.43494 0.94587 0.03574 0.0
C4320 C 0.35283 0.97493 0.0286 0.0
C4321 C 0.34712 0.95569 0.03013 0.0
C4322 C 0.37035 0.98268 0.02767 0.0
C4323 C 0.38209 0.971 0.02749 0.0
C4324 C 0.3765 0.95207 0.03015 0.0
C4325 C 0.35913 0.94451 0.03168 0.0
C4326 C 0.39998 0.97807 0.02357 0.0
C4327 C 0.41363 0.97508 0.03558 0.0
C4328 C 0.40358 0.98711 0.0078 0.0
C4329 C 0.38965 0.98854 0.99326 0.0
C4330 C 0.37721 0.97205 0.98359 0.0
C4331 C 0.36415 0.97346 0.96986 0.0
C4332 C 0.36348 0.99129 0.96555 0.0
C4333 C 0.3759 0.00772 0.97492 0.0
C4334 C 0.38897 0.00639 0.98869 0.0
C4335 C 0.47888 0.98949 0.00623 0.0
C4336 C 0.48824 0.00782 0.01538 0.0
C4337 C 0.46088 0.98427 0.00557 0.0
C4338 C 0.45227 0.99754 0.01364 0.0
C4339 C 0.46147 0.01631 0.02142 0.0
C4340 C 0.47951 0.02137 0.02258 0.0
C4341 C 0.4344 0.99093 0.01721 0.0
C4342 C 0.42092 0.99394 0.00514 0.0
C4343 C 0.43083 0.98115 0.03237 0.0
C4344 C 0.44483 0.9765 0.04448 0.0
C4345 C 0.45829 0.99109 0.05558 0.0
C4346 C 0.47227 0.98661 0.06554 0.0
C4347 C 0.47263 0.96755 0.06512 0.0
C4348 C 0.45903 0.95292 0.05457 0.0
C4349 C 0.44518 0.95734 0.04422 0.0
H4350 H 0.48344 0.96412 0.07294 0.0
H4351 H 0.35336 0.99236 0.9549 0.0
H4352 H 0.86763 0.56095 0.78229 0.0
H4353 H 0.85222 0.5819 0.76837 0.0
H4354 H 0.90137 0.61794 0.76063 0.0
H4355 H 0.91688 0.59745 0.77505 0.0
H4356 H 0.88133 0.63798 0.77587 0.0
H4357 H 0.87347 0.58631 0.72291 0.0
H4358 H 0.86458 0.55281 0.70619 0.0
H4359 H 0.81176 0.54953 0.71646 0.0
H4360 H 0.82036 0.5829 0.73349 0.0
H4361 H 0.83865 0.69678 0.73195 0.0
H4362 H 0.85715 0.67445 0.73421 0.0
H4363 H 0.81248 0.63109 0.74177 0.0
H4364 H 0.79395 0.65309 0.73873 0.0
H4365 H 0.83289 0.61511 0.7226 0.0
H4366 H 0.8404 0.6625 0.77982 0.0
H4367 H 0.84814 0.69462 0.79979 0.0
H4368 H 0.9 0.70438 0.78461 0.0
H4369 H 0.89248 0.67241 0.76436 0.0
C4370 C 0.87513 0.57347 0.77781 0.0
C4371 C 0.89342 0.57769 0.7798 0.0
C4372 C 0.86632 0.58522 0.76961 0.0
C4373 C 0.8757 0.6011 0.76305 0.0
C4374 C 0.89396 0.60558 0.76546 0.0
C4375 C 0.90278 0.594 0.77387 0.0
C4376 C 0.86654 0.61392 0.75497 0.0
C4377 C 0.87099 0.63309 0.76392 0.0
C4378 C 0.85275 0.60725 0.73978 0.0
C4379 C 0.84761 0.58711 0.7296 0.0
C4380 C 0.85999 0.5784 0.72175 0.0
C4381 C 0.85499 0.55944 0.71219 0.0
C4382 C 0.83763 0.54904 0.71029 0.0
C4383 C 0.82521 0.55759 0.71794 0.0
C4384 C 0.83014 0.57654 0.72753 0.0
C4385 C 0.83281 0.68229 0.73361 0.0
C4386 C 0.81502 0.67651 0.73529 0.0
C4387 C 0.84333 0.66964 0.73498 0.0
C4388 C 0.8362 0.65132 0.73856 0.0
C4389 C 0.8182 0.64519 0.73899 0.0
C4390 C 0.80764 0.6577 0.73727 0.0
C4391 C 0.84754 0.6391 0.7437 0.0
C4392 C 0.84349 0.62005 0.73425 0.0
C4393 C 0.8615 0.64573 0.75873 0.0
C4394 C 0.86578 0.66522 0.77032 0.0
C4395 C 0.85337 0.6716 0.78055 0.0
C4396 C 0.85774 0.68975 0.79196 0.0
C4397 C 0.87452 0.70157 0.7934 0.0
C4398 C 0.88698 0.69526 0.78342 0.0
C4399 C 0.88267 0.67714 0.77197 0.0
H4400 H 0.8779 0.71558 0.80229 0.0
H4401 H 0.83378 0.53437 0.70288 0.0
H4402 H 0.84746 0.68387 1.00047 0.0
H4403 H 0.87196 0.67006 0.00735 0.0
H4404 H 0.83626 0.61667 0.01018 0.0
H4405 H 0.81152 0.63066 0.00381 0.0
H4406 H 0.86396 0.62441 0.03751 0.0
H4407 H 0.85682 0.62463 0.96971 0.0
H4408 H 0.85472 0.63979 0.94151 0.0
H4409 H 0.90545 0.67747 0.96079 0.0
H4410 H 0.90776 0.66269 0.98921 0.0
H4411 H 0.91938 0.56152 0.01887 0.0
H4412 H 0.89681 0.57905 0.02015 0.0
H4413 H 0.93475 0.63093 0.01764 0.0
H4414 H 0.95765 0.61369 0.01705 0.0
H4415 H 0.90703 0.62569 0.99186 0.0
H4416 H 0.91627 0.62594 0.05758 0.0
H4417 H 0.91976 0.61366 0.08736 0.0
H4418 H 0.86742 0.57838 0.07444 0.0
H4419 H 0.86368 0.59024 0.0444 0.0
C4420 C 0.84474 0.66917 0.00255 0.0
C4421 C 0.82743 0.65832 1.00131 0.0
C4422 C 0.85884 0.66125 0.00646 0.0
C4423 C 0.85607 0.64214 0.00891 0.0
C4424 C 0.83881 0.63141 0.00825 0.0
C4425 C 0.82465 0.63941 0.00452 0.0
C4426 C 0.87114 0.63325 0.01155 0.0
C4427 C 0.87323 0.62443 0.02737 0.0
C4428 C 0.88375 0.63392 0.99881 0.0
C4429 C 0.88239 0.64267 0.98165 0.0
C4430 C 0.86748 0.63622 0.96798 0.0
C4431 C 0.86626 0.64474 0.95195 0.0
C4432 C 0.87992 0.65961 0.94938 0.0
C4433 C 0.89487 0.66597 0.9628 0.0
C4434 C 0.89615 0.65752 0.97886 0.0
C4435 C 0.92315 0.57676 0.0191 0.0
C4436 C 0.94052 0.58604 0.01778 0.0
C4437 C 0.91011 0.58679 0.01977 0.0
C4438 C 0.914 0.60638 0.01903 0.0
C4439 C 0.93135 0.61582 0.01814 0.0
C4440 C 0.94445 0.60584 0.01766 0.0
C4441 C 0.89975 0.61657 0.01766 0.0
C4442 C 0.8978 0.62564 0.00204 0.0
C4443 C 0.88749 0.61638 0.03076 0.0
C4444 C 0.88977 0.60882 0.0486 0.0
C4445 C 0.90557 0.61538 0.06095 0.0
C4446 C 0.90758 0.60854 0.07792 0.0
C4447 C 0.89384 0.5952 0.08276 0.0
C4448 C 0.87806 0.58868 0.07065 0.0
C4449 C 0.87599 0.59547 0.05365 0.0
H4450 H 0.89541 0.58995 0.09592 0.0
H4451 H 0.87895 0.66619 0.93697 0.0
H4452 H 0.16916 0.07791 0.74418 0.0
H4453 H 0.18637 0.11005 0.74445 0.0
H4454 H 0.2237 0.10392 0.78893 0.0
H4455 H 0.20615 0.07121 0.78882 0.0
H4456 H 0.2185 0.13936 0.79644 0.0
H4457 H 0.23166 0.10371 0.74037 0.0
H4458 H 0.22519 0.08188 0.70942 0.0
H4459 H 0.198 0.11911 0.6858 0.0
H4460 H 0.20411 0.14105 0.71667 0.0
H4461 H 0.28274 0.22364 0.79128 0.0
H4462 H 0.2657 0.19124 0.79068 0.0
H4463 H 0.23064 0.19584 0.7432 0.0
H4464 H 0.24823 0.22853 0.74347 0.0
H4465 H 0.23439 0.16109 0.73703 0.0
H4466 H 0.22054 0.19656 0.79225 0.0
H4467 H 0.22585 0.21841 0.82313 0.0
H4468 H 0.2528 0.18178 0.8482 0.0
H4469 H 0.24788 0.15986 0.81742 0.0
C4470 C 0.18106 0.08314 0.75409 0.0
C4471 C 0.18602 0.07142 0.76648 0.0
C4472 C 0.1911 0.10181 0.7541 0.0
C4473 C 0.20677 0.10991 0.76649 0.0
C4474 C 0.21181 0.09836 0.77905 0.0
C4475 C 0.20173 0.07944 0.77895 0.0
C4476 C 0.2174 0.13038 0.7664 0.0
C4477 C 0.2222 0.1439 0.78343 0.0
C4478 C 0.22191 0.1371 0.74947 0.0
C4479 C 0.21821 0.12394 0.73089 0.0
C4480 C 0.22419 0.10717 0.72861 0.0
C4481 C 0.22061 0.09479 0.71108 0.0
C4482 C 0.21115 0.09908 0.69567 0.0
C4483 C 0.2053 0.11579 0.69775 0.0
C4484 C 0.20884 0.12821 0.71526 0.0
C4485 C 0.27135 0.21795 0.78069 0.0
C4486 C 0.26702 0.22915 0.76749 0.0
C4487 C 0.26139 0.19917 0.78045 0.0
C4488 C 0.24635 0.19058 0.76715 0.0
C4489 C 0.24199 0.20172 0.75379 0.0
C4490 C 0.25208 0.22064 0.75399 0.0
C4491 C 0.23564 0.1701 0.76714 0.0
C4492 C 0.23075 0.15658 0.75007 0.0
C4493 C 0.23088 0.16341 0.78401 0.0
C4494 C 0.23398 0.17665 0.80248 0.0
C4495 C 0.22772 0.19324 0.80431 0.0
C4496 C 0.23064 0.20563 0.8218 0.0
C4497 C 0.23967 0.20148 0.8376 0.0
C4498 C 0.24582 0.18497 0.83594 0.0
C4499 C 0.24296 0.17256 0.81849 0.0
H4500 H 0.24188 0.21101 0.85115 0.0
H4501 H 0.20839 0.08948 0.6821 0.0
H4502 H 0.40861 0.96689 0.23895 0.0
H4503 H 0.39295 0.93376 0.23785 0.0
H4504 H 0.346 0.95184 0.24731 0.0
H4505 H 0.36172 0.98503 0.24903 0.0
H4506 H 0.35889 0.9368 0.27644 0.0
H4507 H 0.34717 0.92112 0.20739 0.0
H4508 H 0.35629 0.9195 0.17546 0.0
H4509 H 0.3893 0.88324 0.18912 0.0
H4510 H 0.38048 0.88476 0.2212 0.0
H4511 H 0.29188 0.84812 0.25597 0.0
H4512 H 0.3113 0.87803 0.25162 0.0
H4513 H 0.35503 0.86291 0.28003 0.0
H4514 H 0.33547 0.83343 0.28523 0.0
H4515 H 0.34806 0.87431 0.23316 0.0
H4516 H 0.36339 0.89377 0.30315 0.0
H4517 H 0.35366 0.89379 0.33473 0.0
H4518 H 0.31419 0.92188 0.31863 0.0
H4519 H 0.32356 0.92171 0.28683 0.0
C4520 C 0.39476 0.96368 0.23997 0.0
C4521 C 0.38634 0.97834 0.24452 0.0
C4522 C 0.38586 0.94479 0.23931 0.0
C4523 C 0.36849 0.9406 0.24282 0.0
C4524 C 0.3595 0.955 0.24478 0.0
C4525 C 0.36844 0.97386 0.24575 0.0
C4526 C 0.36085 0.92242 0.24838 0.0
C4527 C 0.35652 0.92316 0.26692 0.0
C4528 C 0.3585 0.90468 0.23623 0.0
C4529 C 0.36333 0.90326 0.21676 0.0
C4530 C 0.35646 0.9129 0.20362 0.0
C4531 C 0.36157 0.912 0.18551 0.0
C4532 C 0.37349 0.90143 0.18036 0.0
C4533 C 0.38017 0.89154 0.19321 0.0
C4534 C 0.37507 0.89236 0.21133 0.0
C4535 C 0.30549 0.85174 0.26203 0.0
C4536 C 0.31234 0.83908 0.27127 0.0
C4537 C 0.31653 0.86846 0.25925 0.0
C4538 C 0.33442 0.87221 0.26533 0.0
C4539 C 0.34117 0.86002 0.27536 0.0
C4540 C 0.33004 0.84351 0.27859 0.0
C4541 C 0.34586 0.889 0.26085 0.0
C4542 C 0.35088 0.88801 0.24265 0.0
C4543 C 0.34915 0.90653 0.27333 0.0
C4544 C 0.34412 0.90768 0.29268 0.0
C4545 C 0.35263 0.89992 0.30637 0.0
C4546 C 0.34717 0.89994 0.32428 0.0
C4547 C 0.3333 0.90782 0.32868 0.0
C4548 C 0.32493 0.91579 0.3152 0.0
C4549 C 0.33032 0.91576 0.29725 0.0
H4550 H 0.32905 0.90777 0.34253 0.0
H4551 H 0.37744 0.90077 0.16637 0.0
H4552 H 0.59828 0.36414 0.58614 0.0
H4553 H 0.59031 0.38913 0.57082 0.0
H4554 H 0.53622 0.36608 0.57542 0.0
H4555 H 0.54412 0.34106 0.59109 0.0
H4556 H 0.54331 0.37802 0.53842 0.0
H4557 H 0.55405 0.40268 0.60546 0.0
H4558 H 0.57089 0.40955 0.63739 0.0
H4559 H 0.61426 0.44428 0.61736 0.0
H4560 H 0.59772 0.4374 0.58523 0.0
H4561 H 0.51703 0.46216 0.52002 0.0
H4562 H 0.52135 0.43366 0.53167 0.0
H4563 H 0.57663 0.45941 0.54449 0.0
H4564 H 0.57231 0.48814 0.53342 0.0
H4565 H 0.56683 0.4447 0.57279 0.0
H4566 H 0.55627 0.42063 0.50564 0.0
H4567 H 0.54009 0.41298 0.47332 0.0
H4568 H 0.49702 0.37681 0.49238 0.0
H4569 H 0.51285 0.38445 0.5249 0.0
C4570 C 0.58466 0.36427 0.58388 0.0
C4571 C 0.5719 0.35058 0.59007 0.0
C4572 C 0.58011 0.3786 0.57504 0.0
C4573 C 0.56265 0.37958 0.57193 0.0
C4574 C 0.54977 0.36563 0.57756 0.0
C4575 C 0.55434 0.35139 0.58666 0.0
C4576 C 0.55822 0.39592 0.56394 0.0
C4577 C 0.54822 0.3926 0.54601 0.0
C4578 C 0.56484 0.41499 0.57362 0.0
C4579 C 0.57472 0.4194 0.59294 0.0
C4580 C 0.56722 0.41168 0.60785 0.0
C4581 C 0.5767 0.41559 0.62598 0.0
C4582 C 0.59365 0.42731 0.62939 0.0
C4583 C 0.60113 0.43519 0.61469 0.0
C4584 C 0.5917 0.43132 0.59653 0.0
C4585 C 0.53015 0.46172 0.52516 0.0
C4586 C 0.54431 0.47758 0.52576 0.0
C4587 C 0.53262 0.44528 0.53176 0.0
C4588 C 0.54937 0.44409 0.53888 0.0
C4589 C 0.56354 0.45982 0.53916 0.0
C4590 C 0.56106 0.47631 0.53274 0.0
C4591 C 0.55216 0.42704 0.54694 0.0
C4592 C 0.56183 0.43019 0.56504 0.0
C4593 C 0.54525 0.40786 0.5373 0.0
C4594 C 0.53568 0.40329 0.51776 0.0
C4595 C 0.54329 0.41117 0.50298 0.0
C4596 C 0.53419 0.40681 0.48462 0.0
C4597 C 0.51752 0.39446 0.48081 0.0
C4598 C 0.50993 0.38641 0.49536 0.0
C4599 C 0.51896 0.39074 0.51376 0.0
H4600 H 0.51051 0.3911 0.46658 0.0
H4601 H 0.60098 0.4303 0.64344 0.0
H4602 H 0.45061 0.78702 0.39994 0.0
H4603 H 0.42507 0.78831 0.37939 0.0
H4604 H 0.43788 0.7498 0.33441 0.0
H4605 H 0.4641 0.74887 0.35501 0.0
H4606 H 0.42763 0.77689 0.31994 0.0
H4607 H 0.40285 0.73602 0.36178 0.0
H4608 H 0.39708 0.72627 0.39237 0.0
H4609 H 0.37634 0.77492 0.40768 0.0
H4610 H 0.38217 0.78507 0.37727 0.0
H4611 H 0.34544 0.75395 0.26255 0.0
H4612 H 0.37134 0.75358 0.28336 0.0
H4613 H 0.36001 0.79563 0.32602 0.0
H4614 H 0.3338 0.79604 0.305 0.0
H4615 H 0.36941 0.76732 0.34174 0.0
H4616 H 0.3936 0.80793 0.29997 0.0
H4617 H 0.39872 0.81756 0.26921 0.0
H4618 H 0.42017 0.76948 0.25374 0.0
H4619 H 0.41497 0.75942 0.28434 0.0
C4620 C 0.44807 0.77867 0.38572 0.0
C4621 C 0.45955 0.76772 0.37928 0.0
C4622 C 0.43324 0.77935 0.37393 0.0
C4623 C 0.42912 0.76888 0.35531 0.0
C4624 C 0.44059 0.75797 0.34872 0.0
C4625 C 0.4556 0.75738 0.36055 0.0
C4626 C 0.41314 0.76982 0.34277 0.0
C4627 C 0.41487 0.77445 0.32465 0.0
C4628 C 0.39642 0.76734 0.34893 0.0
C4629 C 0.39311 0.76139 0.36732 0.0
C4630 C 0.3972 0.74472 0.37174 0.0
C4631 C 0.39389 0.73911 0.38903 0.0
C4632 C 0.38639 0.75 0.40198 0.0
C4633 C 0.38217 0.76651 0.39765 0.0
C4634 C 0.38546 0.77219 0.38038 0.0
C4635 C 0.34842 0.76319 0.27634 0.0
C4636 C 0.3375 0.77507 0.28205 0.0
C4637 C 0.36337 0.76304 0.28824 0.0
C4638 C 0.36793 0.77475 0.30627 0.0
C4639 C 0.35691 0.78649 0.31217 0.0
C4640 C 0.34192 0.78675 0.30014 0.0
C4641 C 0.38392 0.77424 0.31895 0.0
C4642 C 0.38219 0.76973 0.33707 0.0
C4643 C 0.40062 0.77685 0.31281 0.0
C4644 C 0.40375 0.78283 0.29438 0.0
C4645 C 0.39928 0.79932 0.28995 0.0
C4646 C 0.40222 0.80488 0.27255 0.0
C4647 C 0.40972 0.79411 0.25951 0.0
C4648 C 0.41434 0.77779 0.26385 0.0
C4649 C 0.41142 0.77217 0.28123 0.0
H4650 H 0.412 0.79844 0.24605 0.0
H4651 H 0.38381 0.74561 0.41534 0.0
H4652 H 0.04015 0.75225 0.05481 0.0
H4653 H 0.03916 0.71933 0.04048 0.0
H4654 H 0.0735 0.71498 0.08881 0.0
H4655 H 0.07485 0.74783 0.10299 0.0
H4656 H 0.08331 0.70003 0.05734 0.0
H4657 H 0.02865 0.69517 0.08247 0.0
H4658 H 0.99994 0.70155 0.08632 0.0
H4659 H 0.98267 0.68047 0.02689 0.0
H4660 H 0.01138 0.67425 0.02262 0.0
H4661 H 0.07112 0.59944 0.04492 0.0
H4662 H 0.0734 0.63333 0.05589 0.0
H4663 H 0.03509 0.63277 0.00894 0.0
H4664 H 0.03199 0.59855 0.99873 0.0
H4665 H 0.02742 0.65075 0.03826 0.0
H4666 H 0.08197 0.65487 0.0131 0.0
H4667 H 0.11031 0.64731 0.00967 0.0
H4668 H 0.12758 0.66912 0.06899 0.0
H4669 H 0.09928 0.67661 0.07282 0.0
C4670 C 0.04754 0.74431 0.06235 0.0
C4671 C 0.05756 0.75271 0.08008 0.0
C4672 C 0.04688 0.72544 0.05419 0.0
C4673 C 0.0561 0.71457 0.06367 0.0
C4674 C 0.06628 0.72304 0.08121 0.0
C4675 C 0.067 0.74187 0.08933 0.0
C4676 C 0.05535 0.69441 0.05539 0.0
C4677 C 0.07109 0.68921 0.05328 0.0
C4678 C 0.03939 0.68036 0.04967 0.0
C4679 C 0.02226 0.6845 0.05219 0.0
C4680 C 0.01881 0.69211 0.07018 0.0
C4681 C 0.00251 0.69566 0.07245 0.0
C4682 C 0.98951 0.69149 0.05685 0.0
C4683 C 0.99277 0.68375 0.03895 0.0
C4684 C 0.00905 0.68022 0.0366 0.0
C4685 C 0.0634 0.60665 0.0368 0.0
C4686 C 0.05146 0.59645 0.02092 0.0
C4687 C 0.06475 0.62608 0.04303 0.0
C4688 C 0.05465 0.63583 0.03309 0.0
C4689 C 0.04304 0.62566 0.0169 0.0
C4690 C 0.04133 0.60613 0.01099 0.0
C4691 C 0.0554 0.65631 0.0401 0.0
C4692 C 0.03966 0.66158 0.04205 0.0
C4693 C 0.07135 0.67044 0.04562 0.0
C4694 C 0.08846 0.66619 0.04326 0.0
C4695 C 0.09179 0.65798 0.02542 0.0
C4696 C 0.10785 0.65371 0.02341 0.0
C4697 C 0.12073 0.6577 0.03911 0.0
C4698 C 0.1176 0.66603 0.05684 0.0
C4699 C 0.10156 0.67032 0.05893 0.0
H4700 H 0.13314 0.65437 0.03752 0.0
H4701 H 0.97689 0.6942 0.05864 0.0
H4702 H 0.07311 0.30998 0.90312 0.0
H4703 H 0.09953 0.31361 0.88779 0.0
H4704 H 0.07875 0.2579 0.85298 0.0
H4705 H 0.05218 0.25412 0.86829 0.0
H4706 H 0.11353 0.26391 0.86944 0.0
H4707 H 0.079 0.29851 0.83499 0.0
H4708 H 0.06295 0.32348 0.83351 0.0
H4709 H 0.10901 0.36661 0.85956 0.0
H4710 H 0.12527 0.34187 0.8614 0.0
H4711 H 0.16751 0.26054 0.79906 0.0
H4712 H 0.14304 0.26132 0.81685 0.0
H4713 H 0.16583 0.32083 0.84036 0.0
H4714 H 0.19038 0.32019 0.82208 0.0
H4715 H 0.13206 0.31566 0.83289 0.0
H4716 H 0.16746 0.28581 0.86725 0.0
H4717 H 0.18589 0.26381 0.87281 0.0
H4718 H 0.14196 0.21574 0.85321 0.0
H4719 H 0.12329 0.23745 0.84725 0.0
C4720 C 0.07408 0.29848 0.89216 0.0
C4721 C 0.06043 0.28174 0.88692 0.0
C4722 C 0.08923 0.30063 0.88336 0.0
C4723 C 0.09113 0.2861 0.86911 0.0
C4724 C 0.07759 0.26933 0.86391 0.0
C4725 C 0.06235 0.26721 0.87262 0.0
C4726 C 0.10729 0.28826 0.85975 0.0
C4727 C 0.11744 0.27506 0.86122 0.0
C4728 C 0.11303 0.30347 0.84996 0.0
C4729 C 0.10331 0.31833 0.84847 0.0
C4730 C 0.08568 0.31331 0.84049 0.0
C4731 C 0.07654 0.32742 0.83958 0.0
C4732 C 0.08494 0.34661 0.84648 0.0
C4733 C 0.10251 0.35174 0.85424 0.0
C4734 C 0.1117 0.33768 0.85519 0.0
C4735 C 0.16741 0.2738 0.80809 0.0
C4736 C 0.18106 0.29023 0.80935 0.0
C4737 C 0.15337 0.27423 0.81831 0.0
C4738 C 0.15269 0.29101 0.83038 0.0
C4739 C 0.16605 0.30766 0.83127 0.0
C4740 C 0.18009 0.30729 0.82082 0.0
C4741 C 0.13799 0.29085 0.84197 0.0
C4742 C 0.1282 0.30449 0.84109 0.0
C4743 C 0.13292 0.27645 0.85293 0.0
C4744 C 0.144 0.26327 0.85666 0.0
C4745 C 0.16174 0.27054 0.86401 0.0
C4746 C 0.17224 0.25812 0.86724 0.0
C4747 C 0.16511 0.23839 0.86333 0.0
C4748 C 0.14746 0.23104 0.85622 0.0
C4749 C 0.13691 0.24339 0.85293 0.0
H4750 H 0.17325 0.2288 0.86583 0.0
H4751 H 0.07784 0.35751 0.84579 0.0
H4752 H 0.59096 0.76494 0.91026 0.0
H4753 H 0.58104 0.73518 0.92206 0.0
H4754 H 0.53072 0.74718 0.92645 0.0
H4755 H 0.54094 0.77737 0.91576 0.0
H4756 H 0.53949 0.73531 0.95569 0.0
H4757 H 0.53823 0.71196 0.89013 0.0
H4758 H 0.54917 0.7082 0.85918 0.0
H4759 H 0.58938 0.68474 0.88264 0.0
H4760 H 0.57885 0.68861 0.91381 0.0
H4761 H 0.51222 0.64521 0.98404 0.0
H4762 H 0.51273 0.66935 0.96375 0.0
H4763 H 0.56682 0.67171 0.95872 0.0
H4764 H 0.56626 0.64747 0.97853 0.0
H4765 H 0.55003 0.67391 0.92584 0.0
H4766 H 0.55249 0.70326 0.99294 0.0
H4767 H 0.54033 0.70752 0.02318 0.0
H4768 H 0.49526 0.71934 0.99451 0.0
H4769 H 0.50707 0.71492 0.96408 0.0
C4770 C 0.57785 0.76124 0.91392 0.0
C4771 C 0.56677 0.77346 0.91232 0.0
C4772 C 0.5721 0.74414 0.92039 0.0
C4773 C 0.55498 0.73873 0.92474 0.0
C4774 C 0.54395 0.75102 0.92316 0.0
C4775 C 0.54984 0.76832 0.91716 0.0
C4776 C 0.54891 0.72079 0.93196 0.0
C4777 C 0.54147 0.7218 0.94889 0.0
C4778 C 0.55146 0.70314 0.92314 0.0
C4779 C 0.5578 0.70069 0.90436 0.0
C4780 C 0.54947 0.70611 0.88873 0.0
C4781 C 0.5556 0.70395 0.87114 0.0
C4782 C 0.56998 0.69627 0.86895 0.0
C4783 C 0.57825 0.69069 0.88435 0.0
C4784 C 0.57219 0.69284 0.90198 0.0
C4785 C 0.52416 0.65088 0.97849 0.0
C4786 C 0.53925 0.64468 0.98296 0.0
C4787 C 0.52442 0.66458 0.9669 0.0
C4788 C 0.53989 0.6725 0.95998 0.0
C4789 C 0.55474 0.66576 0.96388 0.0
C4790 C 0.55442 0.65195 0.97523 0.0
C4791 C 0.54127 0.68875 0.94982 0.0
C4792 C 0.54776 0.68738 0.93232 0.0
C4793 C 0.53761 0.70603 0.95793 0.0
C4794 C 0.53055 0.70852 0.97623 0.0
C4795 C 0.53993 0.70662 0.99308 0.0
C4796 C 0.53311 0.70908 0.01025 0.0
C4797 C 0.51701 0.71363 0.01075 0.0
C4798 C 0.5077 0.71576 0.9941 0.0
C4799 C 0.51445 0.71327 0.97689 0.0
H4800 H 0.51176 0.71556 0.02406 0.0
H4801 H 0.5747 0.69461 0.85532 0.0
H4802 H 0.04388 0.77786 0.67183 0.0
H4803 H 0.07358 0.78421 0.68788 0.0
H4804 H 0.06088 0.73015 0.70689 0.0
H4805 H 0.03102 0.7236 0.69086 0.0
H4806 H 0.07966 0.76094 0.73522 0.0
H4807 H 0.08198 0.73301 0.67033 0.0
H4808 H 0.07789 0.73043 0.63554 0.0
H4809 H 0.11153 0.78662 0.64088 0.0
H4810 H 0.11562 0.78963 0.67575 0.0
H4811 H 0.15852 0.73537 0.75255 0.0
H4812 H 0.12958 0.73925 0.74292 0.0
H4813 H 0.15244 0.79233 0.72548 0.0
H4814 H 0.18162 0.78868 0.7354 0.0
H4815 H 0.12922 0.76734 0.6976 0.0
H4816 H 0.13 0.79362 0.76228 0.0
H4817 H 0.1348 0.79573 0.79696 0.0
H4818 H 0.09594 0.743 0.79225 0.0
H4819 H 0.09108 0.74042 0.75749 0.0
C4820 C 0.04734 0.76736 0.67954 0.0
C4821 C 0.03514 0.75022 0.68012 0.0
C4822 C 0.06431 0.77101 0.68862 0.0
C4823 C 0.06932 0.75759 0.6984 0.0
C4824 C 0.05713 0.74065 0.69938 0.0
C4825 C 0.04014 0.73693 0.69021 0.0
C4826 C 0.08742 0.76106 0.70736 0.0
C4827 C 0.09053 0.76223 0.72705 0.0
C4828 C 0.10151 0.76339 0.69662 0.0
C4829 C 0.09892 0.76165 0.67566 0.0
C4830 C 0.08835 0.7449 0.6641 0.0
C4831 C 0.08607 0.74334 0.64436 0.0
C4832 C 0.09439 0.75838 0.63601 0.0
C4833 C 0.10505 0.775 0.64737 0.0
C4834 C 0.10736 0.77664 0.66712 0.0
C4835 C 0.15741 0.74814 0.74718 0.0
C4836 C 0.17229 0.76168 0.74463 0.0
C4837 C 0.14087 0.75034 0.74167 0.0
C4838 C 0.13894 0.76613 0.73362 0.0
C4839 C 0.15374 0.78007 0.7317 0.0
C4840 C 0.17034 0.77791 0.73726 0.0
C4841 C 0.12149 0.76685 0.72548 0.0
C4842 C 0.11844 0.76644 0.70589 0.0
C4843 C 0.10747 0.76525 0.73631 0.0
C4844 C 0.11024 0.76678 0.75725 0.0
C4845 C 0.12256 0.7824 0.76862 0.0
C4846 C 0.12528 0.7837 0.7883 0.0
C4847 C 0.11569 0.7695 0.79681 0.0
C4848 C 0.10335 0.75399 0.78564 0.0
C4849 C 0.10059 0.75262 0.76595 0.0
H4850 H 0.11782 0.77052 0.81205 0.0
H4851 H 0.09263 0.75714 0.62072 0.0
H4852 H 0.09823 0.37106 0.40212 0.0
H4853 H 0.09661 0.40201 0.41957 0.0
H4854 H 0.04713 0.37536 0.43561 0.0
H4855 H 0.04849 0.34463 0.4181 0.0
H4856 H 0.04639 0.40797 0.422 0.0
H4857 H 0.08541 0.38636 0.4662 0.0
H4858 H 0.11242 0.37707 0.47578 0.0
H4859 H 0.1431 0.43077 0.46685 0.0
H4860 H 0.11627 0.44027 0.45701 0.0
H4861 H 0.02695 0.46407 0.5002 0.0
H4862 H 0.03372 0.43977 0.4768 0.0
H4863 H 0.08546 0.47597 0.47887 0.0
H4864 H 0.07904 0.49929 0.50365 0.0
H4865 H 0.0886 0.44311 0.47839 0.0
H4866 H 0.05049 0.4676 0.4397 0.0
H4867 H 0.02408 0.47805 0.43036 0.0
H4868 H 0.99255 0.42116 0.42719 0.0
H4869 H 0.01871 0.41042 0.43678 0.0
C4870 C 0.08706 0.37183 0.40945 0.0
C4871 C 0.07346 0.35547 0.40874 0.0
C4872 C 0.08616 0.38948 0.41937 0.0
C4873 C 0.07174 0.39088 0.4288 0.0
C4874 C 0.0583 0.37453 0.42827 0.0
C4875 C 0.05914 0.35698 0.41833 0.0
C4876 C 0.07036 0.40927 0.43934 0.0
C4877 C 0.05557 0.41573 0.43436 0.0
C4878 C 0.0828 0.41976 0.45486 0.0
C4879 C 0.09886 0.41391 0.46064 0.0
C4880 C 0.09793 0.3961 0.46611 0.0
C4881 C 0.1132 0.39082 0.47163 0.0
C4882 C 0.12947 0.40329 0.47186 0.0
C4883 C 0.1305 0.4211 0.46662 0.0
C4884 C 0.11527 0.42644 0.46108 0.0
C4885 C 0.03978 0.46663 0.49568 0.0
C4886 C 0.05263 0.48323 0.5037 0.0
C4887 C 0.04357 0.45296 0.48211 0.0
C4888 C 0.05997 0.45624 0.47567 0.0
C4889 C 0.07272 0.4731 0.48359 0.0
C4890 C 0.06913 0.48638 0.49773 0.0
C4891 C 0.06414 0.4415 0.46161 0.0
C4892 C 0.07953 0.43577 0.4658 0.0
C4893 C 0.05236 0.43187 0.44516 0.0
C4894 C 0.0366 0.43822 0.43902 0.0
C4895 C 0.03792 0.45733 0.43707 0.0
C4896 C 0.02299 0.46331 0.43174 0.0
C4897 C 0.00665 0.45028 0.42819 0.0
C4898 C 0.00522 0.43123 0.42992 0.0
C4899 C 0.0201 0.42518 0.43527 0.0
H4900 H 0.9951 0.45494 0.42409 0.0
H4901 H 0.14127 0.39919 0.47615 0.0
H4902 H 0.42776 0.22066 0.16043 0.0
H4903 H 0.4069 0.22916 0.18108 0.0
H4904 H 0.44696 0.27707 0.21262 0.0
H4905 H 0.46784 0.26872 0.19216 0.0
H4906 H 0.4256 0.25792 0.23577 0.0
H4907 H 0.42143 0.28633 0.18104 0.0
H4908 H 0.41865 0.28805 0.14699 0.0
H4909 H 0.3681 0.24881 0.13809 0.0
H4910 H 0.37072 0.24655 0.17205 0.0
H4911 H 0.35775 0.30584 0.26611 0.0
H4912 H 0.38387 0.30043 0.25285 0.0
H4913 H 0.35569 0.24291 0.22722 0.0
H4914 H 0.32971 0.24798 0.2405 0.0
H4915 H 0.37349 0.27187 0.2029 0.0
H4916 H 0.38069 0.24178 0.25864 0.0
H4917 H 0.38361 0.24312 0.29327 0.0
H4918 H 0.42911 0.28988 0.30063 0.0
H4919 H 0.42627 0.28899 0.26601 0.0
C4920 C 0.43215 0.23282 0.17192 0.0
C4921 C 0.44928 0.24419 0.17455 0.0
C4922 C 0.42027 0.23767 0.18365 0.0
C4923 C 0.42547 0.25385 0.19813 0.0
C4924 C 0.44279 0.26458 0.20145 0.0
C4925 C 0.45461 0.25985 0.18967 0.0
C4926 C 0.4125 0.26031 0.20891 0.0
C4927 C 0.4143 0.26116 0.22864 0.0
C4928 C 0.39798 0.26486 0.19955 0.0
C4929 C 0.39637 0.26608 0.17907 0.0
C4930 C 0.4098 0.27789 0.17179 0.0
C4931 C 0.40824 0.27899 0.15251 0.0
C4932 C 0.39323 0.2685 0.14037 0.0
C4933 C 0.37974 0.2569 0.1475 0.0
C4934 C 0.38126 0.2557 0.16677 0.0
C4935 C 0.35724 0.29196 0.25788 0.0
C4936 C 0.34176 0.27731 0.25427 0.0
C4937 C 0.3721 0.28893 0.2504 0.0
C4938 C 0.37147 0.27133 0.23915 0.0
C4939 C 0.35624 0.25656 0.23596 0.0
C4940 C 0.34149 0.25946 0.24363 0.0
C4941 C 0.38624 0.26854 0.22946 0.0
C4942 C 0.38486 0.26867 0.20997 0.0
C4943 C 0.4012 0.26522 0.23907 0.0
C4944 C 0.40316 0.26545 0.25979 0.0
C4945 C 0.39123 0.25245 0.26766 0.0
C4946 C 0.39288 0.2531 0.28728 0.0
C4947 C 0.40651 0.26661 0.29916 0.0
C4948 C 0.41855 0.27944 0.29142 0.0
C4949 C 0.41694 0.27885 0.2718 0.0
H4950 H 0.40776 0.26711 0.31435 0.0
H4951 H 0.39204 0.26939 0.12545 0.0
H4952 H 0.64998 0.51974 0.33755 0.0
H4953 H 0.6374 0.52256 0.3676 0.0
H4954 H 0.58574 0.50284 0.33631 0.0
H4955 H 0.59813 0.50059 0.30669 0.0
H4956 H 0.58187 0.52663 0.36181 0.0
H4957 H 0.60811 0.476 0.36669 0.0
H4958 H 0.63087 0.45815 0.36707 0.0
H4959 H 0.66058 0.49878 0.41516 0.0
H4960 H 0.63807 0.51704 0.4149 0.0
H4961 H 0.5341 0.50342 0.43765 0.0
H4962 H 0.55 0.50271 0.41051 0.0
H4963 H 0.59707 0.53515 0.44641 0.0
H4964 H 0.5808 0.53609 0.47418 0.0
H4965 H 0.60439 0.50642 0.41982 0.0
H4966 H 0.57409 0.55703 0.4102 0.0
H4967 H 0.54861 0.57054 0.40596 0.0
H4968 H 0.52203 0.52134 0.36428 0.0
H4969 H 0.54767 0.50786 0.36764 0.0
C4970 C 0.63594 0.51595 0.33701 0.0
C4971 C 0.62531 0.5099 0.31917 0.0
C4972 C 0.6286 0.51744 0.35445 0.0
C4973 C 0.61028 0.51281 0.35494 0.0
C4974 C 0.59981 0.50675 0.33705 0.0
C4975 C 0.60707 0.50535 0.31978 0.0
C4976 C 0.60183 0.51457 0.37357 0.0
C4977 C 0.58692 0.52195 0.3743 0.0
C4978 C 0.60783 0.50871 0.39051 0.0
C4979 C 0.62155 0.49805 0.3906 0.0
C4980 C 0.61959 0.48125 0.37722 0.0
C4981 C 0.63242 0.47103 0.37744 0.0
C4982 C 0.6472 0.47737 0.39108 0.0
C4983 C 0.64915 0.49392 0.40456 0.0
C4984 C 0.63636 0.50422 0.40439 0.0
C4985 C 0.54786 0.51055 0.4401 0.0
C4986 C 0.55588 0.51977 0.45869 0.0
C4987 C 0.55706 0.51023 0.42418 0.0
C4988 C 0.57499 0.51911 0.4257 0.0
C4989 C 0.58329 0.52815 0.44432 0.0
C4990 C 0.57392 0.52866 0.46044 0.0
C4991 C 0.58462 0.51857 0.40792 0.0
C4992 C 0.59962 0.51128 0.40733 0.0
C4993 C 0.57828 0.52371 0.39074 0.0
C4994 C 0.56266 0.53137 0.38936 0.0
C4995 C 0.56274 0.54903 0.40027 0.0
C4996 C 0.5483 0.5567 0.39798 0.0
C4997 C 0.53359 0.5467 0.38513 0.0
C4998 C 0.53338 0.52905 0.37431 0.0
C4999 C 0.54791 0.52145 0.37628 0.0
H5000 H 0.52243 0.55269 0.38345 0.0
H5001 H 0.65711 0.46942 0.39125 0.0
H5002 H 0.29055 0.86242 0.02417 0.0
H5003 H 0.30408 0.85186 0.05132 0.0
H5004 H 0.31208 0.90795 0.08507 0.0
H5005 H 0.29795 0.91843 0.05861 0.0
H5006 H 0.34349 0.88584 0.08292 0.0
H5007 H 0.286 0.8878 0.10145 0.0
H5008 H 0.25407 0.88143 0.09365 0.0
H5009 H 0.25073 0.8217 0.07623 0.0
H5010 H 0.28272 0.82782 0.08376 0.0
H5011 H 0.34553 0.86319 0.18088 0.0
H5012 H 0.34234 0.87828 0.15304 0.0
H5013 H 0.33477 0.8239 0.11625 0.0
H5014 H 0.33739 0.80859 0.14358 0.0
H5015 H 0.30482 0.84697 0.12038 0.0
H5016 H 0.36391 0.84803 0.0968 0.0
H5017 H 0.39559 0.85467 0.10715 0.0
H5018 H 0.395 0.90928 0.13874 0.0
H5019 H 0.36344 0.90311 0.12816 0.0
C5020 C 0.29492 0.8724 0.03746 0.0
C5021 C 0.29319 0.89125 0.0392 0.0
C5022 C 0.30287 0.86645 0.05279 0.0
C5023 C 0.3094 0.87936 0.06985 0.0
C5024 C 0.30741 0.898 0.0718 0.0
C5025 C 0.29913 0.90382 0.05671 0.0
C5026 C 0.3169 0.87292 0.08629 0.0
C5027 C 0.33508 0.87741 0.09117 0.0
C5028 C 0.30588 0.86215 0.09705 0.0
C5029 C 0.28668 0.85827 0.09301 0.0
C5030 C 0.27844 0.87333 0.09587 0.0
C5031 C 0.26035 0.86977 0.09152 0.0
C5032 C 0.25038 0.85117 0.08441 0.0
C5033 C 0.25848 0.83609 0.08173 0.0
C5034 C 0.27658 0.83959 0.08605 0.0
C5035 C 0.34382 0.85458 0.16685 0.0
C5036 C 0.34148 0.83466 0.16449 0.0
C5037 C 0.34208 0.86323 0.15103 0.0
C5038 C 0.33823 0.85205 0.13282 0.0
C5039 C 0.33782 0.83264 0.13031 0.0
C5040 C 0.33949 0.82398 0.14603 0.0
C5041 C 0.33138 0.85963 0.11686 0.0
C5042 C 0.31325 0.85537 0.11211 0.0
C5043 C 0.34241 0.8708 0.10649 0.0
C5044 C 0.36151 0.87528 0.11145 0.0
C5045 C 0.37067 0.86159 0.10566 0.0
C5046 C 0.38857 0.86526 0.11158 0.0
C5047 C 0.39737 0.8825 0.12341 0.0
C5048 C 0.38827 0.89611 0.12928 0.0
C5049 C 0.3704 0.89259 0.12325 0.0
H5050 H 0.41119 0.88527 0.12813 0.0
H5051 H 0.23637 0.84844 0.08102 0.0
H5052 H 0.96337 0.53039 0.8116 0.0
H5053 H 0.98304 0.53404 0.84076 0.0
H5054 H 0.94115 0.501 0.86507 0.0
H5055 H 0.92122 0.49792 0.83586 0.0
H5056 H 0.95657 0.53355 0.88792 0.0
H5057 H 0.97552 0.48305 0.85288 0.0
H5058 H 0.98586 0.4658 0.82584 0.0
H5059 H 0.03204 0.51156 0.8323 0.0
H5060 H 0.02186 0.52923 0.85921 0.0
H5061 H 0.00826 0.51602 0.96533 0.0
H5062 H 0.98896 0.51517 0.93676 0.0
H5063 H 0.02957 0.55594 0.91845 0.0
H5064 H 0.04903 0.55725 0.94753 0.0
H5065 H 0.01536 0.521 0.89273 0.0
H5066 H 0.99563 0.57025 0.93004 0.0
H5067 H 0.98374 0.58623 0.95663 0.0
H5068 H 0.93778 0.53983 0.9465 0.0
H5069 H 0.94947 0.52341 0.92004 0.0
C5070 C 0.95849 0.5237 0.82309 0.0
C5071 C 0.94099 0.5139 0.82179 0.0
C5072 C 0.96971 0.52567 0.83964 0.0
C5073 C 0.96353 0.51761 0.8549 0.0
C5074 C 0.94609 0.50724 0.85333 0.0
C5075 C 0.93481 0.50542 0.83677 0.0
C5076 C 0.97492 0.52155 0.87303 0.0
C5077 C 0.96931 0.5305 0.8891 0.0
C5078 C 0.99171 0.51809 0.87422 0.0
C5079 C 0.99784 0.50755 0.85796 0.0
C5080 C 0.98781 0.48952 0.84843 0.0
C5081 C 0.99365 0.47965 0.83314 0.0
C5082 C 0.00958 0.4876 0.82732 0.0
C5083 C 0.0197 0.50543 0.8368 0.0
C5084 C 0.0139 0.51537 0.85209 0.0
C5085 C 0.01299 0.52511 0.95542 0.0
C5086 C 0.03005 0.53676 0.95853 0.0
C5087 C 1.00193 0.52467 0.9392 0.0
C5088 C 0.00787 0.53568 0.92579 0.0
C5089 C 0.02484 0.54754 0.92889 0.0
C5090 C 0.03589 0.54819 0.94534 0.0
C5091 C 0.99694 0.53287 0.90759 0.0
C5092 C 0.00263 0.52409 0.89151 0.0
C5093 C 0.9801 0.53614 0.90649 0.0
C5094 C 0.97348 0.54555 0.92308 0.0
C5095 C 0.9831 0.56332 0.93363 0.0
C5096 C 0.97635 0.5725 0.94864 0.0
C5097 C 0.95998 0.56408 0.95317 0.0
C5098 C 0.95043 0.54635 0.94291 0.0
C5099 C 0.9571 0.53712 0.92791 0.0
H5100 H 0.95463 0.57133 0.96454 0.0
H5101 H 0.01409 0.47993 0.8155 0.0
H5102 H 0.27599 0.18864 0.55465 0.0
H5103 H 0.27612 0.20312 0.58749 0.0
H5104 H 0.30059 0.25841 0.57569 0.0
H5105 H 0.30076 0.24392 0.5426 0.0
H5106 H 0.31502 0.25123 0.61029 0.0
H5107 H 0.25747 0.24724 0.57812 0.0
H5108 H 0.22946 0.2306 0.55833 0.0
H5109 H 0.21872 0.19161 0.59714 0.0
H5110 H 0.24674 0.20788 0.61705 0.0
H5111 H 0.30169 0.2988 0.69927 0.0
H5112 H 0.30234 0.28946 0.66518 0.0
H5113 H 0.26676 0.23506 0.66556 0.0
H5114 H 0.26496 0.24523 0.69913 0.0
H5115 H 0.25838 0.24437 0.63548 0.0
H5116 H 0.31477 0.24433 0.66658 0.0
H5117 H 0.34274 0.25841 0.68738 0.0
H5118 H 0.35648 0.30059 0.65233 0.0
H5119 H 0.3285 0.28691 0.63144 0.0
C5120 C 0.28143 0.20389 0.55895 0.0
C5121 C 0.28824 0.21515 0.54591 0.0
C5122 C 0.28147 0.21215 0.57777 0.0
C5123 C 0.28814 0.23187 0.58396 0.0
C5124 C 0.29533 0.24315 0.57116 0.0
C5125 C 0.29535 0.23487 0.55225 0.0
C5126 C 0.28716 0.24062 0.60372 0.0
C5127 C 0.30265 0.25 0.6158 0.0
C5128 C 0.27106 0.23849 0.611 0.0
C5129 C 0.25422 0.22873 0.59901 0.0
C5130 C 0.24918 0.23505 0.58236 0.0
C5131 C 0.2333 0.2257 0.57114 0.0
C5132 C 0.22233 0.21008 0.57649 0.0
C5133 C 0.22722 0.20373 0.59303 0.0
C5134 C 0.24308 0.21302 0.6043 0.0
C5135 C 0.29381 0.28501 0.69186 0.0
C5136 C 0.28318 0.27273 0.70158 0.0
C5137 C 0.29436 0.27955 0.67248 0.0
C5138 C 0.28497 0.2613 0.66277 0.0
C5139 C 0.27413 0.24921 0.6726 0.0
C5140 C 0.27307 0.25499 0.69176 0.0
C5141 C 0.2863 0.25465 0.64245 0.0
C5142 C 0.27084 0.2457 0.63014 0.0
C5143 C 0.3025 0.25668 0.63518 0.0
C5144 C 0.31947 0.2647 0.64754 0.0
C5145 C 0.32373 0.25666 0.66335 0.0
C5146 C 0.33958 0.26456 0.67516 0.0
C5147 C 0.35135 0.28041 0.67121 0.0
C5148 C 0.34734 0.28833 0.65539 0.0
C5149 C 0.33149 0.28049 0.64355 0.0
H5150 H 0.3636 0.28655 0.68038 0.0
H5151 H 0.21002 0.20297 0.56785 0.0
H5152 H 0.64089 0.53147 0.21844 0.0
H5153 H 0.6274 0.53809 0.18879 0.0
H5154 H 0.59143 0.48257 0.17891 0.0
H5155 H 0.60483 0.47591 0.20824 0.0
H5156 H 0.60111 0.4882 0.14627 0.0
H5157 H 0.57986 0.52692 0.19419 0.0
H5158 H 0.58205 0.55158 0.22246 0.0
H5159 H 0.61152 0.59405 0.19503 0.0
H5160 H 0.60966 0.56958 0.16665 0.0
H5161 H 0.54322 0.49969 0.07016 0.0
H5162 H 0.55617 0.4955 0.10086 0.0
H5163 H 0.58773 0.55342 0.11068 0.0
H5164 H 0.57379 0.55801 0.08037 0.0
H5165 H 0.58114 0.54718 0.14324 0.0
H5166 H 0.60393 0.50859 0.0961 0.0
H5167 H 0.60077 0.48445 0.06711 0.0
H5168 H 0.56827 0.44251 0.09259 0.0
H5169 H 0.57118 0.46656 0.12175 0.0
C5170 C 0.6301 0.52064 0.21001 0.0
C5171 C 0.62412 0.50308 0.21613 0.0
C5172 C 0.62223 0.52449 0.19292 0.0
C5173 C 0.60805 0.51097 0.18121 0.0
C5174 C 0.60224 0.49342 0.18729 0.0
C5175 C 0.61 0.48962 0.20433 0.0
C5176 C 0.59935 0.51477 0.16268 0.0
C5177 C 0.59666 0.50109 0.14583 0.0
C5178 C 0.59361 0.53166 0.16135 0.0
C5179 C 0.59479 0.54638 0.17839 0.0
C5180 C 0.58693 0.54149 0.19425 0.0
C5181 C 0.58808 0.55544 0.21028 0.0
C5182 C 0.59697 0.57436 0.21057 0.0
C5183 C 0.60467 0.57938 0.1948 0.0
C5184 C 0.60356 0.56548 0.17873 0.0
C5185 C 0.55287 0.51163 0.07883 0.0
C5186 C 0.55741 0.52919 0.07242 0.0
C5187 C 0.56055 0.50914 0.09651 0.0
C5188 C 0.57366 0.52384 0.10835 0.0
C5189 C 0.57788 0.54159 0.10215 0.0
C5190 C 0.56985 0.54424 0.08461 0.0
C5191 C 0.58297 0.52064 0.12686 0.0
C5192 C 0.58574 0.53438 0.14368 0.0
C5193 C 0.58892 0.50388 0.12817 0.0
C5194 C 0.58783 0.48926 0.11109 0.0
C5195 C 0.5962 0.49419 0.09555 0.0
C5196 C 0.59441 0.48056 0.07909 0.0
C5197 C 0.58436 0.46195 0.07806 0.0
C5198 C 0.57612 0.4569 0.0935 0.0
C5199 C 0.5779 0.47048 0.11001 0.0
H5200 H 0.58296 0.45146 0.06528 0.0
H5201 H 0.59785 0.58514 0.22299 0.0
H5202 H 0.30735 0.91769 0.9443 0.0
H5203 H 0.30661 0.89641 0.91431 0.0
H5204 H 0.3087 0.85023 0.94469 0.0
H5205 H 0.31085 0.872 0.97478 0.0
H5206 H 0.32616 0.84678 0.91732 0.0
H5207 H 0.26911 0.85726 0.92172 0.0
H5208 H 0.24744 0.87632 0.92596 0.0
H5209 H 0.26037 0.90048 0.87685 0.0
H5210 H 0.28229 0.88176 0.87246 0.0
H5211 H 0.28764 0.77388 0.83464 0.0
H5212 H 0.29363 0.79425 0.86624 0.0
H5213 H 0.30331 0.84448 0.84038 0.0
H5214 H 0.29723 0.82442 0.80904 0.0
H5215 H 0.27914 0.84416 0.86579 0.0
H5216 H 0.33654 0.83268 0.86221 0.0
H5217 H 0.35655 0.81163 0.85777 0.0
H5218 H 0.34049 0.78679 0.90557 0.0
H5219 H 0.3202 0.80752 0.91013 0.0
C5220 C 0.30786 0.90304 0.94448 0.0
C5221 C 0.30902 0.89631 0.96163 0.0
C5222 C 0.30731 0.89087 0.9274 0.0
C5223 C 0.30704 0.87155 0.92721 0.0
C5224 C 0.30879 0.86503 0.94448 0.0
C5225 C 0.30998 0.87741 0.96161 0.0
C5226 C 0.30434 0.85804 0.90901 0.0
C5227 C 0.31573 0.84606 0.90617 0.0
C5228 C 0.29078 0.85712 0.89437 0.0
C5229 C 0.27744 0.86822 0.89686 0.0
C5230 C 0.26739 0.86671 0.91188 0.0
C5231 C 0.25506 0.87745 0.91431 0.0
C5232 C 0.25256 0.88964 0.90171 0.0
C5233 C 0.26234 0.89106 0.88661 0.0
C5234 C 0.2747 0.88037 0.88414 0.0
C5235 C 0.2913 0.78926 0.83579 0.0
C5236 C 0.29199 0.79762 0.8195 0.0
C5237 C 0.29472 0.80084 0.85376 0.0
C5238 C 0.29887 0.8208 0.85551 0.0
C5239 C 0.30007 0.82909 0.83925 0.0
C5240 C 0.2967 0.8176 0.82139 0.0
C5241 C 0.30107 0.83325 0.87414 0.0
C5242 C 0.28951 0.84493 0.87704 0.0
C5243 C 0.31424 0.83364 0.88887 0.0
C5244 C 0.32676 0.82154 0.88642 0.0
C5245 C 0.33721 0.82266 0.87171 0.0
C5246 C 0.34861 0.81079 0.86918 0.0
C5247 C 0.34976 0.79785 0.88136 0.0
C5248 C 0.33958 0.79681 0.89614 0.0
C5249 C 0.32814 0.80863 0.89872 0.0
H5250 H 0.35858 0.78865 0.87936 0.0
H5251 H 0.24302 0.89795 0.90362 0.0
H5252 H 0.96684 0.51898 0.76143 0.0
H5253 H 0.97392 0.50289 0.73196 0.0
H5254 H 0.94039 0.5288 0.69962 0.0
H5255 H 0.93285 0.54448 0.72906 0.0
H5256 H 0.93391 0.49093 0.68667 0.0
H5257 H 0.98467 0.54457 0.70427 0.0
H5258 H 0.00968 0.565 0.72676 0.0
H5259 H 0.03133 0.51673 0.72972 0.0
H5260 H 0.00631 0.49597 0.7074 0.0
H5261 H 0.96787 0.50506 0.60304 0.0
H5262 H 0.95265 0.49814 0.62991 0.0
H5263 H 0.9896 0.46686 0.64668 0.0
H5264 H 0.00521 0.4743 0.62016 0.0
H5265 H 0.99396 0.49929 0.67016 0.0
H5266 H 0.9452 0.44755 0.64535 0.0
H5267 H 0.91864 0.42698 0.62544 0.0
H5268 H 0.89237 0.47193 0.63538 0.0
H5269 H 0.9188 0.4929 0.65512 0.0
C5270 C 0.9614 0.5217 0.74805 0.0
C5271 C 0.94941 0.53306 0.74744 0.0
C5272 C 0.96529 0.51233 0.73125 0.0
C5273 C 0.95756 0.51459 0.71368 0.0
C5274 C 0.94631 0.52673 0.71308 0.0
C5275 C 0.94223 0.53589 0.72985 0.0
C5276 C 0.96111 0.5043 0.69582 0.0
C5277 C 0.94699 0.49278 0.68284 0.0
C5278 C 0.97825 0.50612 0.69144 0.0
C5279 C 0.99357 0.5187 0.70432 0.0
C5280 C 0.99475 0.53832 0.70977 0.0
C5281 C 0.00891 0.54995 0.72248 0.0
C5282 C 0.02206 0.54216 0.7297 0.0
C5283 C 0.02112 0.52274 0.72413 0.0
C5284 C 0.00697 0.51104 0.71143 0.0
C5285 C 0.97231 0.49604 0.61202 0.0
C5286 C 0.98805 0.49083 0.61002 0.0
C5287 C 0.96344 0.49183 0.62725 0.0
C5288 C 0.97023 0.48231 0.64053 0.0
C5289 C 0.98425 0.47434 0.63665 0.0
C5290 C 0.99319 0.47865 0.62148 0.0
C5291 C 0.96663 0.48631 0.6603 0.0
C5292 C 0.98082 0.49685 0.67387 0.0
C5293 C 0.94949 0.48378 0.66501 0.0
C5294 C 0.93404 0.47181 0.65179 0.0
C5295 C 0.93386 0.45317 0.64308 0.0
C5296 C 0.91878 0.44139 0.6319 0.0
C5297 C 0.90378 0.44809 0.62933 0.0
C5298 C 0.90395 0.46672 0.63754 0.0
C5299 C 0.91898 0.47855 0.64873 0.0
H5300 H 0.89201 0.43886 0.62099 0.0
H5301 H 0.033 0.55117 0.73958 0.0
H5302 H 0.24994 0.20495 0.43972 0.0
H5303 H 0.25695 0.22094 0.41302 0.0
H5304 H 0.31136 0.22353 0.42742 0.0
H5305 H 0.30444 0.20718 0.4542 0.0
H5306 H 0.30229 0.2592 0.41673 0.0
H5307 H 0.29396 0.1917 0.39357 0.0
H5308 H 0.27804 0.15785 0.3896 0.0
H5309 H 0.23307 0.16999 0.36106 0.0
H5310 H 0.24869 0.20398 0.36508 0.0
H5311 H 0.32715 0.28227 0.32903 0.0
H5312 H 0.32343 0.26818 0.35753 0.0
H5313 H 0.26825 0.24706 0.33842 0.0
H5314 H 0.27205 0.26072 0.30958 0.0
H5315 H 0.27916 0.22093 0.35248 0.0
H5316 H 0.28648 0.28778 0.37469 0.0
H5317 H 0.30076 0.3222 0.37983 0.0
H5318 H 0.34578 0.3127 0.41094 0.0
H5319 H 0.33184 0.27816 0.40578 0.0
C5320 C 0.26344 0.20897 0.43735 0.0
C5321 C 0.27659 0.20459 0.44908 0.0
C5322 C 0.26741 0.21816 0.42206 0.0
C5323 C 0.28466 0.22339 0.41817 0.0
C5324 C 0.29796 0.21967 0.43019 0.0
C5325 C 0.29396 0.21022 0.44542 0.0
C5326 C 0.2884 0.23161 0.40084 0.0
C5327 C 0.29752 0.2508 0.40265 0.0
C5328 C 0.28174 0.22082 0.38251 0.0
C5329 C 0.27244 0.20037 0.37974 0.0
C5330 C 0.28064 0.18716 0.38654 0.0
C5331 C 0.27168 0.16795 0.38427 0.0
C5332 C 0.25454 0.16178 0.37512 0.0
C5333 C 0.24635 0.1748 0.36816 0.0
C5334 C 0.25526 0.19402 0.3704 0.0
C5335 C 0.31424 0.27449 0.33084 0.0
C5336 C 0.2999 0.2726 0.31705 0.0
C5337 C 0.31209 0.26659 0.34726 0.0
C5338 C 0.29549 0.25683 0.35044 0.0
C5339 C 0.2812 0.25456 0.33642 0.0
C5340 C 0.28337 0.26234 0.3199 0.0
C5341 C 0.29305 0.24871 0.36817 0.0
C5342 C 0.28409 0.22945 0.36648 0.0
C5343 C 0.29973 0.25958 0.3866 0.0
C5344 C 0.30818 0.28034 0.38966 0.0
C5345 C 0.29948 0.293 0.38249 0.0
C5346 C 0.3075 0.31254 0.38543 0.0
C5347 C 0.32419 0.31962 0.39566 0.0
C5348 C 0.33287 0.30718 0.40299 0.0
C5349 C 0.32491 0.28763 0.40008 0.0
H5350 H 0.33037 0.33476 0.39793 0.0
H5351 H 0.24761 0.14691 0.37339 0.0
H5352 H 0.32559 0.60518 0.52736 0.0
H5353 H 0.34643 0.58773 0.51594 0.0
H5354 H 0.35804 0.62448 0.47493 0.0
H5355 H 0.33731 0.64228 0.4864 0.0
H5356 H 0.35415 0.57815 0.46505 0.0
H5357 H 0.38519 0.63974 0.50493 0.0
H5358 H 0.38713 0.66428 0.53326 0.0
H5359 H 0.38922 0.62282 0.56911 0.0
H5360 H 0.38695 0.59795 0.54094 0.0
H5361 H 0.43433 0.54885 0.45811 0.0
H5362 H 0.41234 0.56751 0.45765 0.0
H5363 H 0.40454 0.55989 0.51485 0.0
H5364 H 0.42671 0.54178 0.51548 0.0
H5365 H 0.40779 0.59543 0.5119 0.0
H5366 H 0.37638 0.53404 0.47484 0.0
H5367 H 0.37048 0.50685 0.44818 0.0
H5368 H 0.36607 0.54438 0.40859 0.0
H5369 H 0.37228 0.57187 0.43501 0.0
C5370 C 0.33246 0.60945 0.51581 0.0
C5371 C 0.3302 0.62529 0.50802 0.0
C5372 C 0.34416 0.59936 0.50919 0.0
C5373 C 0.35356 0.6049 0.49463 0.0
C5374 C 0.3507 0.62005 0.48611 0.0
C5375 C 0.33913 0.63033 0.49288 0.0
C5376 C 0.36822 0.59673 0.49063 0.0
C5377 C 0.36611 0.58211 0.47494 0.0
C5378 C 0.38348 0.60185 0.50387 0.0
C5379 C 0.38585 0.61701 0.52085 0.0
C5380 C 0.38602 0.63586 0.51886 0.0
C5381 C 0.38716 0.64982 0.53488 0.0
C5382 C 0.38828 0.64511 0.55297 0.0
C5383 C 0.38836 0.62645 0.55509 0.0
C5384 C 0.38718 0.61243 0.5391 0.0
C5385 C 0.42777 0.55111 0.47048 0.0
C5386 C 0.43209 0.54397 0.48684 0.0
C5387 C 0.41527 0.56171 0.4702 0.0
C5388 C 0.40681 0.56495 0.48618 0.0
C5389 C 0.41103 0.55762 0.50242 0.0
C5390 C 0.42364 0.54729 0.50279 0.0
C5391 C 0.39375 0.5763 0.48645 0.0
C5392 C 0.39614 0.59166 0.50156 0.0
C5393 C 0.37868 0.57158 0.47276 0.0
C5394 C 0.37508 0.55506 0.45689 0.0
C5395 C 0.37436 0.53653 0.46044 0.0
C5396 C 0.37092 0.52106 0.44537 0.0
C5397 C 0.36798 0.5239 0.4267 0.0
C5398 C 0.36842 0.54221 0.42306 0.0
C5399 C 0.37191 0.55774 0.43807 0.0
H5400 H 0.36529 0.51189 0.41506 0.0
H5401 H 0.38911 0.65592 0.56536 0.0
H5402 H 0.86844 0.89787 0.53244 0.0
H5403 H 0.89692 0.91811 0.53003 0.0
H5404 H 0.87351 0.96476 0.52361 0.0
H5405 H 0.84479 0.94447 0.52598 0.0
H5406 H 0.89711 0.96075 0.49802 0.0
H5407 H 0.89662 0.9643 0.5655 0.0
H5408 H 0.8931 0.95078 0.59467 0.0
H5409 H 0.93407 0.92276 0.58436 0.0
H5410 H 0.93768 0.93592 0.55499 0.0
H5411 H 0.97386 0.03516 0.51156 0.0
H5412 H 0.94566 0.01424 0.51358 0.0
H5413 H 0.97121 0.97174 0.52918 0.0
H5414 H 0.99969 0.99323 0.52801 0.0
H5415 H 0.94648 0.97266 0.54955 0.0
H5416 H 0.94794 0.96832 0.48309 0.0
H5417 H 0.95178 0.98007 0.45306 0.0
H5418 H 0.90953 0.00691 0.45964 0.0
H5419 H 0.9056 0.99557 0.48989 0.0
C5420 C 0.86928 0.91245 0.53057 0.0
C5421 C 0.85423 0.91952 0.52952 0.0
C5422 C 0.88565 0.92406 0.52923 0.0
C5423 C 0.8875 0.94308 0.52681 0.0
C5424 C 0.87249 0.95016 0.52551 0.0
C5425 C 0.85606 0.93855 0.52697 0.0
C5426 C 0.90509 0.95552 0.5257 0.0
C5427 C 0.90784 0.96359 0.5094 0.0
C5428 C 0.91934 0.9587 0.54021 0.0
C5429 C 0.91732 0.95097 0.55797 0.0
C5430 C 0.9048 0.95516 0.5694 0.0
C5431 C 0.9028 0.94758 0.58597 0.0
C5432 C 0.91333 0.93589 0.59134 0.0
C5433 C 0.92591 0.9318 0.58018 0.0
C5434 C 0.92796 0.93934 0.56358 0.0
C5435 C 0.97352 0.02135 0.51542 0.0
C5436 C 0.98907 0.01584 0.51953 0.0
C5437 C 0.95729 0.00928 0.51643 0.0
C5438 C 0.95607 0.99109 0.52112 0.0
C5439 C 0.97166 0.98561 0.52542 0.0
C5440 C 0.98797 0.99787 0.52468 0.0
C5441 C 0.93858 0.97809 0.52187 0.0
C5442 C 0.93581 0.96986 0.5381 0.0
C5443 C 0.92438 0.97451 0.50714 0.0
C5444 C 0.92658 0.98123 0.48886 0.0
C5445 C 0.93954 0.97683 0.4782 0.0
C5446 C 0.94172 0.98341 0.46113 0.0
C5447 C 0.93093 0.99427 0.45446 0.0
C5448 C 0.91789 0.99852 0.46483 0.0
C5449 C 0.91567 0.99201 0.48194 0.0
H5450 H 0.93266 0.99935 0.44124 0.0
H5451 H 0.91175 0.93002 0.60418 0.0
H5452 H 0.87911 0.10264 0.236 0.0
H5453 H 0.86332 0.12795 0.23513 0.0
H5454 H 0.88418 0.15178 0.29349 0.0
H5455 H 0.89948 0.12669 0.29447 0.0
H5456 H 0.8547 0.15733 0.29182 0.0
H5457 H 0.89675 0.17276 0.25081 0.0
H5458 H 0.91352 0.16866 0.22401 0.0
H5459 H 0.8667 0.15711 0.18462 0.0
H5460 H 0.8496 0.16092 0.21123 0.0
H5461 H 0.83803 0.25279 0.28718 0.0
H5462 H 0.85335 0.22697 0.28692 0.0
H5463 H 0.81291 0.19026 0.24462 0.0
H5464 H 0.79721 0.2156 0.24547 0.0
H5465 H 0.85204 0.19179 0.23795 0.0
H5466 H 0.81112 0.17889 0.28299 0.0
H5467 H 0.79779 0.18675 0.31179 0.0
H5468 H 0.84754 0.19804 0.34603 0.0
H5469 H 0.86123 0.19056 0.31736 0.0
C5470 C 0.88037 0.11321 0.2487 0.0
C5471 C 0.89091 0.11205 0.2653 0.0
C5472 C 0.87131 0.12805 0.24819 0.0
C5473 C 0.8723 0.14261 0.26422 0.0
C5474 C 0.8827 0.14121 0.28074 0.0
C5475 C 0.89171 0.12655 0.28123 0.0
C5476 C 0.86267 0.15904 0.26418 0.0
C5477 C 0.85442 0.16481 0.27996 0.0
C5478 C 0.86178 0.16954 0.24905 0.0
C5479 C 0.87186 0.16684 0.23301 0.0
C5480 C 0.89 0.16914 0.23644 0.0
C5481 C 0.89957 0.16692 0.22128 0.0
C5482 C 0.89116 0.16255 0.20263 0.0
C5483 C 0.87317 0.16044 0.19909 0.0
C5484 C 0.86354 0.16263 0.2142 0.0
C5485 C 0.83229 0.23925 0.27779 0.0
C5486 C 0.81608 0.23671 0.2664 0.0
C5487 C 0.84117 0.22428 0.27765 0.0
C5488 C 0.83461 0.20616 0.26568 0.0
C5489 C 0.81862 0.20379 0.25404 0.0
C5490 C 0.8095 0.2185 0.2546 0.0
C5491 C 0.8441 0.18977 0.26543 0.0
C5492 C 0.85234 0.18413 0.24968 0.0
C5493 C 0.84542 0.17976 0.2808 0.0
C5494 C 0.83724 0.18441 0.298 0.0
C5495 C 0.81926 0.18328 0.29662 0.0
C5496 C 0.81163 0.18761 0.31294 0.0
C5497 C 0.82182 0.19296 0.33072 0.0
C5498 C 0.83966 0.19394 0.33224 0.0
C5499 C 0.84736 0.18966 0.31596 0.0
H5500 H 0.81588 0.19627 0.34334 0.0
H5501 H 0.8986 0.16087 0.19091 0.0
H5502 H 0.73614 0.09107 0.0108 0.0
H5503 H 0.70534 0.07642 0.99891 0.0
H5504 H 0.69534 0.13227 0.00289 0.0
H5505 H 0.72586 0.14703 0.01457 0.0
H5506 H 0.6866 0.1029 0.03223 0.0
H5507 H 0.68095 0.11586 0.96859 0.0
H5508 H 0.68571 0.11395 0.93509 0.0
H5509 H 0.6649 0.05315 0.925 0.0
H5510 H 0.66042 0.05461 0.9586 0.0
H5511 H 0.5964 0.07979 0.03566 0.0
H5512 H 0.62548 0.09521 0.02934 0.0
H5513 H 0.62864 0.04223 0.99546 0.0
H5514 H 0.59926 0.02709 1.00095 0.0
H5515 H 0.64026 0.07119 0.97837 0.0
H5516 H 0.64922 0.05692 0.04144 0.0
H5517 H 0.64414 0.05745 0.07479 0.0
H5518 H 0.6593 0.11879 0.0856 0.0
H5519 H 0.66429 0.11862 0.05224 0.0
C5520 C 0.72744 0.1002 0.00864 0.0
C5521 C 0.73314 0.1201 0.0143 0.0
C5522 C 0.71002 0.09185 1.00142 0.0
C5523 C 0.69831 0.10338 0.99986 0.0
C5524 C 0.70437 0.12326 0.00365 0.0
C5525 C 0.7217 0.1316 0.01082 0.0
C5526 C 0.68018 0.09539 1.00178 0.0
C5527 C 0.67637 0.09615 0.02045 0.0
C5528 C 0.66724 0.0863 0.9863 0.0
C5529 C 0.67068 0.08532 0.96628 0.0
C5530 C 0.67775 0.10202 0.95938 0.0
C5531 C 0.68029 0.10104 0.94031 0.0
C5532 C 0.67568 0.08343 0.92794 0.0
C5533 C 0.66853 0.06677 0.93462 0.0
C5534 C 0.66601 0.06768 0.95368 0.0
C5535 C 0.60347 0.07145 0.02711 0.0
C5536 C 0.59592 0.05232 0.01893 0.0
C5537 C 0.61993 0.08024 0.02341 0.0
C5538 C 0.62911 0.06973 0.01205 0.0
C5539 C 0.62163 0.05052 0.00414 0.0
C5540 C 0.60503 0.04188 0.00746 0.0
C5541 C 0.64678 0.07861 0.00884 0.0
C5542 C 0.65052 0.07798 0.99008 0.0
C5543 C 0.65987 0.08764 0.02422 0.0
C5544 C 0.65697 0.08775 0.04432 0.0
C5545 C 0.65137 0.07052 0.05091 0.0
C5546 C 0.64852 0.07076 0.06981 0.0
C5547 C 0.65135 0.08814 0.08229 0.0
C5548 C 0.65709 0.10533 0.07591 0.0
C5549 C 0.65995 0.10518 0.05701 0.0
H5550 H 0.64913 0.0883 0.09692 0.0
H5551 H 0.67758 0.08272 0.91317 0.0
H5552 H 0.16716 0.48429 0.28306 0.0
H5553 H 0.18798 0.46865 0.29712 0.0
H5554 H 0.21533 0.47122 0.24823 0.0
H5555 H 0.19487 0.48721 0.23419 0.0
H5556 H 0.19414 0.4322 0.26589 0.0
H5557 H 0.24135 0.49157 0.27064 0.0
H5558 H 0.25413 0.526 0.28221 0.0
H5559 H 0.24914 0.51806 0.33953 0.0
H5560 H 0.23606 0.48358 0.3282 0.0
H5561 H 0.26575 0.39527 0.25897 0.0
H5562 H 0.24571 0.4159 0.25918 0.0
H5563 H 0.24844 0.42157 0.32005 0.0
H5564 H 0.26845 0.40046 0.31995 0.0
H5565 H 0.25256 0.45699 0.30423 0.0
H5566 H 0.21212 0.39549 0.29847 0.0
H5567 H 0.19937 0.36122 0.28591 0.0
H5568 H 0.19149 0.3732 0.22961 0.0
H5569 H 0.20426 0.40753 0.24181 0.0
C5570 C 0.17764 0.48154 0.27535 0.0
C5571 C 0.17935 0.48663 0.25747 0.0
C5572 C 0.18963 0.473 0.28354 0.0
C5573 C 0.2033 0.46945 0.27386 0.0
C5574 C 0.20508 0.47452 0.25605 0.0
C5575 C 0.19327 0.48329 0.24796 0.0
C5576 C 0.21361 0.45715 0.28047 0.0
C5577 C 0.20689 0.43752 0.27437 0.0
C5578 C 0.22993 0.46439 0.29183 0.0
C5579 C 0.2374 0.48512 0.29855 0.0
C5580 C 0.24269 0.49723 0.28567 0.0
C5581 C 0.25008 0.51673 0.29219 0.0
C5582 C 0.25236 0.52424 0.31159 0.0
C5583 C 0.2473 0.51224 0.3245 0.0
C5584 C 0.23989 0.49273 0.31804 0.0
C5585 C 0.26199 0.40078 0.27238 0.0
C5586 C 0.26844 0.3962 0.28942 0.0
C5587 C 0.25062 0.41254 0.27248 0.0
C5588 C 0.24555 0.41988 0.2896 0.0
C5589 C 0.25227 0.41584 0.30675 0.0
C5590 C 0.26367 0.40393 0.30667 0.0
C5591 C 0.23332 0.43196 0.28911 0.0
C5592 C 0.2396 0.45157 0.29629 0.0
C5593 C 0.21659 0.42474 0.27851 0.0
C5594 C 0.20923 0.40406 0.27105 0.0
C5595 C 0.2078 0.39079 0.28339 0.0
C5596 C 0.20052 0.37136 0.27634 0.0
C5597 C 0.19466 0.36503 0.25697 0.0
C5598 C 0.19603 0.37812 0.24461 0.0
C5599 C 0.20325 0.39756 0.25159 0.0
H5600 H 0.18902 0.34998 0.25155 0.0
H5601 H 0.25812 0.53933 0.31662 0.0
H5602 H 0.22929 0.38958 0.03588 0.0
H5603 H 0.20581 0.40438 0.0275 0.0
H5604 H 0.24083 0.4437 1.00107 0.0
H5605 H 0.26463 0.42945 0.01029 0.0
H5606 H 0.22312 0.46261 0.01867 0.0
H5607 H 0.2062 0.4041 0.9753 0.0
H5608 H 0.19911 0.36938 0.96343 0.0
H5609 H 0.15682 0.36105 0.9967 0.0
H5610 H 0.1638 0.3957 0.009 0.0
H5611 H 0.15304 0.49884 0.98455 0.0
H5612 H 0.17564 0.48121 0.98354 0.0
H5613 H 0.14949 0.44484 0.01931 0.0
H5614 H 0.12637 0.46179 0.01964 0.0
H5615 H 0.16316 0.4246 0.9925 0.0
H5616 H 0.18411 0.48542 0.03723 0.0
H5617 H 0.19105 0.52062 0.04497 0.0
H5618 H 0.22633 0.52435 0.00324 0.0
H5619 H 0.21943 0.48917 0.99511 0.0
C5620 C 0.23202 0.4014 0.02829 0.0
C5621 C 0.24889 0.40835 0.02382 0.0
C5622 C 0.21848 0.40975 0.02329 0.0
C5623 C 0.22129 0.42499 0.01323 0.0
C5624 C 0.23818 0.43197 0.00878 0.0
C5625 C 0.25183 0.42382 0.01409 0.0
C5626 C 0.20686 0.43419 0.00826 0.0
C5627 C 0.21012 0.4542 0.01262 0.0
C5628 C 0.18974 0.42344 1.00034 0.0
C5629 C 0.18565 0.40252 0.99323 0.0
C5630 C 0.19549 0.39486 0.98024 0.0
C5631 C 0.19147 0.37519 0.9734 0.0
C5632 C 0.17756 0.36302 0.97934 0.0
C5633 C 0.16762 0.3705 0.99213 0.0
C5634 C 0.1716 0.39015 0.99903 0.0
C5635 C 0.15184 0.48684 0.99188 0.0
C5636 C 0.1379 0.48196 0.00239 0.0
C5637 C 0.16492 0.47687 0.99144 0.0
C5638 C 0.16453 0.46194 1.00171 0.0
C5639 C 0.15021 0.45641 0.01141 0.0
C5640 C 0.13706 0.46628 0.01176 0.0
C5641 C 0.17945 0.45279 0.00337 0.0
C5642 C 0.17626 0.43285 0.99838 0.0
C5643 C 0.19673 0.4636 0.01021 0.0
C5644 C 0.20117 0.4847 0.01549 0.0
C5645 C 0.19331 0.49376 0.02968 0.0
C5646 C 0.19723 0.5137 0.03412 0.0
C5647 C 0.2091 0.52472 0.02458 0.0
C5648 C 0.21713 0.51581 0.01061 0.0
C5649 C 0.21323 0.49588 0.0061 0.0
H5650 H 0.2121 0.54015 0.02802 0.0
H5651 H 0.17445 0.34779 0.97401 0.0
H5652 H 0.88444 0.00357 0.27837 0.0
H5653 H 0.8683 0.97153 0.28244 0.0
H5654 H 0.87027 0.94947 0.22389 0.0
H5655 H 0.88658 0.98099 0.21993 0.0
H5656 H 0.83734 0.93654 0.23344 0.0
H5657 H 0.89635 0.94004 0.25969 0.0
H5658 H 0.9236 0.95336 0.28182 0.0
H5659 H 0.89551 0.9444 0.3291 0.0
H5660 H 0.86803 0.93127 0.30725 0.0
H5661 H 0.80557 0.83695 0.2265 0.0
H5662 H 0.82312 0.86902 0.22632 0.0
H5663 H 0.83233 0.87986 0.2875 0.0
H5664 H 0.8159 0.84685 0.28745 0.0
H5665 H 0.85889 0.90005 0.27899 0.0
H5666 H 0.80027 0.89801 0.25513 0.0
H5667 H 0.77198 0.88581 0.23459 0.0
H5668 H 0.79742 0.8941 0.18538 0.0
H5669 H 0.82588 0.90618 0.20562 0.0
C5670 C 0.88131 0.99196 0.2663 0.0
C5671 C 0.88686 0.99525 0.24873 0.0
C5672 C 0.87214 0.97344 0.26869 0.0
C5673 C 0.86791 0.9576 0.25351 0.0
C5674 C 0.87317 0.96109 0.23595 0.0
C5675 C 0.88259 0.97935 0.23369 0.0
C5676 C 0.85789 0.93752 0.25545 0.0
C5677 C 0.84222 0.92858 0.24333 0.0
C5678 C 0.8636 0.92691 0.26871 0.0
C5679 C 0.88009 0.9349 0.28184 0.0
C5680 C 0.89595 0.9411 0.27482 0.0
C5681 C 0.91144 0.94857 0.28731 0.0
C5682 C 0.91128 0.94979 0.30686 0.0
C5683 C 0.89561 0.94349 0.31395 0.0
C5684 C 0.88007 0.93603 0.30152 0.0
C5685 C 0.81145 0.84607 0.23996 0.0
C5686 C 0.80913 0.83903 0.25696 0.0
C5687 C 0.82138 0.8648 0.23991 0.0
C5688 C 0.82878 0.87789 0.25692 0.0
C5689 C 0.82685 0.87062 0.274 0.0
C5690 C 0.81736 0.85155 0.27401 0.0
C5691 C 0.83827 0.89883 0.25676 0.0
C5692 C 0.85386 0.90797 0.26917 0.0
C5693 C 0.83229 0.9099 0.24405 0.0
C5694 C 0.8152 0.90284 0.23187 0.0
C5695 C 0.79983 0.89715 0.23992 0.0
C5696 C 0.78377 0.89027 0.22834 0.0
C5697 C 0.78291 0.88914 0.20869 0.0
C5698 C 0.7981 0.89497 0.2006 0.0
C5699 C 0.8142 0.90186 0.21212 0.0
H5700 H 0.77046 0.88378 0.19974 0.0
H5701 H 0.92329 0.95556 0.3165 0.0
H5702 H 0.6956 0.08304 0.77353 0.0
H5703 H 0.71356 0.11539 0.78391 0.0
H5704 H 0.67489 0.13713 0.75426 0.0
H5705 H 0.65684 0.10471 0.74351 0.0
H5706 H 0.70479 0.13287 0.73635 0.0
H5707 H 0.69106 0.15908 0.79743 0.0
H5708 H 0.68645 0.15752 0.83062 0.0
H5709 H 0.73925 0.15406 0.84392 0.0
H5710 H 0.74415 0.1554 0.81077 0.0
H5711 H 0.75388 0.22146 0.72862 0.0
H5712 H 0.7341 0.19204 0.73207 0.0
H5713 H 0.7716 0.18439 0.77599 0.0
H5714 H 0.79073 0.21529 0.77382 0.0
H5715 H 0.74308 0.18098 0.78844 0.0
H5716 H 0.75798 0.15255 0.73026 0.0
H5717 H 0.76426 0.15017 0.69718 0.0
H5718 H 0.71209 0.1527 0.67857 0.0
H5719 H 0.70553 0.15528 0.71155 0.0
C5720 C 0.69063 0.09475 0.76973 0.0
C5721 C 0.67537 0.09145 0.75685 0.0
C5722 C 0.70073 0.11326 0.77607 0.0
C5723 C 0.69559 0.1284 0.76946 0.0
C5724 C 0.67897 0.12543 0.75935 0.0
C5725 C 0.66889 0.10691 0.7529 0.0
C5726 C 0.70936 0.14421 0.76641 0.0
C5727 C 0.71296 0.14374 0.74766 0.0
C5728 C 0.72064 0.15717 0.78143 0.0
C5729 C 0.71791 0.15714 0.80154 0.0
C5730 C 0.70166 0.15788 0.8074 0.0
C5731 C 0.699 0.15704 0.82621 0.0
C5732 C 0.71249 0.1555 0.83931 0.0
C5733 C 0.72877 0.15511 0.83371 0.0
C5734 C 0.73152 0.15599 0.81493 0.0
C5735 C 0.75813 0.21309 0.73848 0.0
C5736 C 0.77362 0.22026 0.75094 0.0
C5737 C 0.74688 0.19623 0.74041 0.0
C5738 C 0.75149 0.18588 0.75412 0.0
C5739 C 0.76783 0.19225 0.76538 0.0
C5740 C 0.77877 0.20965 0.76403 0.0
C5741 C 0.73828 0.16997 0.75821 0.0
C5742 C 0.73491 0.1702 0.77709 0.0
C5743 C 0.72751 0.15615 0.74338 0.0
C5744 C 0.73129 0.15415 0.72342 0.0
C5745 C 0.74786 0.15264 0.71913 0.0
C5746 C 0.75147 0.15126 0.70039 0.0
C5747 C 0.73858 0.15129 0.68579 0.0
C5748 C 0.72204 0.15264 0.68989 0.0
C5749 C 0.71836 0.154 0.7086 0.0
H5750 H 0.74142 0.15026 0.6713 0.0
H5751 H 0.71037 0.15474 0.85384 0.0
loop_
_geom_bond_atom_site_label_1
_geom_bond_atom_site_label_2
_geom_bond_distance
_geom_bond_site_symmetry_2
_ccdc_geom_bond_type
C0 O1 1.160 . S
C0 O7 1.185 . S
O1 C0 1.160 . S
O2 Zn3 1.899 . S
O2 C10 1.284 . S
Zn3 O2 1.899 . S
Zn3 O4 2.032 . S
Zn3 O7 2.086 . S
Zn3 O12 1.977 . S
O4 Zn3 2.032 . S
O4 C8 1.278 . S
C5 O6 1.203 . S
C5 O12 1.267 . S
O6 C5 1.203 . S
O7 C0 1.185 . S
O7 Zn3 2.086 . S
C8 O4 1.278 . S
C8 O9 1.211 . S
O9 C8 1.211 . S
C10 O2 1.284 . S
C10 O11 1.273 . S
O11 C10 1.273 . S
O12 Zn3 1.977 . S
O12 C5 1.267 . S
C13 O14 1.160 . S
C13 O20 1.185 . S
O14 C13 1.160 . S
O15 Zn16 1.899 . S
O15 C23 1.284 . S
Zn16 O15 1.899 . S
Zn16 O17 2.032 . S
Zn16 O20 2.086 . S
Zn16 O25 1.977 1_655 S
O17 Zn16 2.032 . S
O17 C21 1.278 1_655 S
C18 O19 1.203 . S
C18 O25 1.267 . S
O19 C18 1.203 . S
O20 C13 1.185 . S
O20 Zn16 2.086 . S
C21 O17 1.278 1_455 S
C21 O22 1.211 . S
O22 C21 1.211 . S
C23 O15 1.284 . S
C23 O24 1.273 1_655 S
O24 C23 1.273 1_455 S
O25 Zn16 1.977 1_455 S
O25 C18 1.267 . S
C26 O27 1.160 . S
C26 O33 1.185 . S
O27 C26 1.160 . S
O28 Zn29 1.899 . S
O28 C36 1.284 . S
Zn29 O28 1.899 . S
Zn29 O30 2.032 . S
Zn29 O33 2.086 . S
Zn29 O38 1.977 . S
O30 Zn29 2.032 . S
O30 C34 1.278 . S
C31 O32 1.203 . S
C31 O38 1.267 . S
O32 C31 1.203 . S
O33 C26 1.185 . S
O33 Zn29 2.086 . S
C34 O30 1.278 . S
C34 O35 1.211 . S
O35 C34 1.211 . S
C36 O28 1.284 . S
C36 O37 1.273 . S
O37 C36 1.273 . S
O38 Zn29 1.977 . S
O38 C31 1.267 . S
C39 O40 1.160 . S
C39 O46 1.185 . S
O40 C39 1.160 . S
O41 Zn42 1.899 . S
O41 C49 1.284 . S
Zn42 O41 1.899 . S
Zn42 O43 2.032 . S
Zn42 O46 2.086 . S
Zn42 O51 1.977 . S
O43 Zn42 2.032 . S
O43 C47 1.278 . S
C44 O45 1.203 . S
C44 O51 1.267 . S
O45 C44 1.203 . S
O46 C39 1.185 . S
O46 Zn42 2.086 . S
C47 O43 1.278 . S
C47 O48 1.211 . S
O48 C47 1.211 . S
C49 O41 1.284 . S
C49 O50 1.273 . S
O50 C49 1.273 . S
O51 Zn42 1.977 . S
O51 C44 1.267 . S
C52 O53 1.160 . S
C52 O59 1.185 . S
O53 C52 1.160 . S
O54 Zn55 1.899 . S
O54 C62 1.284 . S
Zn55 O54 1.899 . S
Zn55 O56 2.032 . S
Zn55 O59 2.086 . S
Zn55 O64 1.977 . S
O56 Zn55 2.032 . S
O56 C60 1.278 . S
C57 O58 1.203 . S
C57 O64 1.267 . S
O58 C57 1.203 . S
O59 C52 1.185 . S
O59 Zn55 2.086 . S
C60 O56 1.278 . S
C60 O61 1.211 . S
O61 C60 1.211 . S
C62 O54 1.284 . S
C62 O63 1.273 . S
O63 C62 1.273 . S
O64 Zn55 1.977 . S
O64 C57 1.267 . S
C65 O66 1.160 . S
C65 O72 1.185 . S
O66 C65 1.160 . S
O67 Zn68 1.899 . S
O67 C75 1.284 . S
Zn68 O67 1.899 . S
Zn68 O69 2.032 . S
Zn68 O72 2.086 . S
Zn68 O77 1.977 . S
O69 Zn68 2.032 . S
O69 C73 1.278 . S
C70 O71 1.203 . S
C70 O77 1.267 . S
O71 C70 1.203 . S
O72 C65 1.185 . S
O72 Zn68 2.086 . S
C73 O69 1.278 . S
C73 O74 1.211 . S
O74 C73 1.211 . S
C75 O67 1.284 . S
C75 O76 1.273 . S
O76 C75 1.273 . S
O77 Zn68 1.977 . S
O77 C70 1.267 . S
C78 O79 1.160 . S
C78 O85 1.185 . S
O79 C78 1.160 . S
O80 Zn81 1.899 . S
O80 C88 1.284 . S
Zn81 O80 1.899 . S
Zn81 O82 2.032 . S
Zn81 O85 2.086 . S
Zn81 O90 1.977 . S
O82 Zn81 2.032 . S
O82 C86 1.278 . S
C83 O84 1.203 . S
C83 O90 1.267 . S
O84 C83 1.203 . S
O85 C78 1.185 . S
O85 Zn81 2.086 . S
C86 O82 1.278 . S
C86 O87 1.211 . S
O87 C86 1.211 . S
C88 O80 1.284 . S
C88 O89 1.273 . S
O89 C88 1.273 . S
O90 Zn81 1.977 . S
O90 C83 1.267 . S
C91 O92 1.160 . S
C91 O98 1.185 . S
O92 C91 1.160 . S
O93 Zn94 1.899 . S
O93 C101 1.284 . S
Zn94 O93 1.899 . S
Zn94 O95 2.032 . S
Zn94 O98 2.086 . S
Zn94 O103 1.977 1_455 S
O95 Zn94 2.032 . S
O95 C99 1.278 . S
C96 O97 1.203 . S
C96 O103 1.267 . S
O97 C96 1.203 . S
O98 C91 1.185 . S
O98 Zn94 2.086 . S
C99 O95 1.278 . S
C99 O100 1.190 1_455 S
O100 C99 1.190 1_655 S
C101 O93 1.284 . S
C101 O102 1.273 . S
O102 C101 1.273 . S
O103 Zn94 1.977 1_655 S
O103 C96 1.267 . S
C104 O105 1.160 . S
C104 O111 1.185 . S
O105 C104 1.160 . S
O106 Zn107 1.899 . S
O106 C114 1.284 . S
Zn107 O106 1.899 . S
Zn107 O108 2.032 . S
Zn107 O111 2.086 . S
Zn107 O116 1.977 1_545 S
O108 Zn107 2.032 . S
O108 C112 1.278 . S
C109 O110 1.203 . S
C109 O116 1.267 . S
O110 C109 1.203 . S
O111 C104 1.185 . S
O111 Zn107 2.086 . S
C112 O108 1.278 . S
C112 O113 1.211 1_545 S
O113 C112 1.211 1_565 S
C114 O106 1.284 . S
C114 O115 1.273 . S
O115 C114 1.273 . S
O116 Zn107 1.977 1_565 S
O116 C109 1.267 . S
C117 O118 1.160 . S
C117 O124 1.185 . S
O118 C117 1.160 . S
O119 Zn120 1.899 . S
O119 C127 1.284 . S
Zn120 O119 1.899 . S
Zn120 O121 2.032 . S
Zn120 O124 2.086 . S
Zn120 O129 1.977 . S
O121 Zn120 2.032 . S
O121 C125 1.278 . S
C122 O123 1.203 . S
C122 O129 1.267 . S
O123 C122 1.203 . S
O124 C117 1.185 . S
O124 Zn120 2.086 . S
C125 O121 1.278 . S
C125 O126 1.211 . S
O126 C125 1.211 . S
C127 O119 1.284 . S
C127 O128 1.273 . S
O128 C127 1.273 . S
O129 Zn120 1.977 . S
O129 C122 1.267 . S
C130 O131 1.160 . S
C130 O137 1.185 . S
O131 C130 1.160 . S
O132 Zn133 1.899 . S
O132 C140 1.284 . S
Zn133 O132 1.899 . S
Zn133 O134 2.032 . S
Zn133 O137 2.086 . S
Zn133 O142 1.977 1_565 S
O134 Zn133 2.032 . S
O134 C138 1.278 1_565 S
C135 O136 1.203 . S
C135 O142 1.267 . S
O136 C135 1.203 . S
O137 C130 1.185 . S
O137 Zn133 2.086 . S
C138 O134 1.278 1_545 S
C138 O139 1.211 . S
O139 C138 1.211 . S
C140 O132 1.284 . S
C140 O141 1.273 1_565 S
O141 C140 1.273 1_545 S
O142 Zn133 1.977 1_545 S
O142 C135 1.267 . S
C143 O144 1.160 . S
C143 O150 1.185 . S
O144 C143 1.160 . S
O145 Zn146 1.899 . S
O145 C153 1.284 . S
Zn146 O145 1.899 . S
Zn146 O147 2.032 1_554 S
Zn146 O150 2.086 . S
Zn146 O155 1.977 . S
O147 Zn146 2.032 1_556 S
O147 C151 1.278 . S
C148 O149 1.203 . S
C148 O155 1.267 . S
O149 C148 1.203 . S
O150 C143 1.185 . S
O150 Zn146 2.086 . S
C151 O147 1.278 . S
C151 O152 1.211 . S
O152 C151 1.211 . S
C153 O145 1.284 . S
C153 O154 1.273 . S
O154 C153 1.273 . S
O155 Zn146 1.977 . S
O155 C148 1.267 . S
C156 O157 1.160 . S
C156 O163 1.185 . S
O157 C156 1.160 . S
O158 Zn159 1.899 . S
O158 C166 1.284 . S
Zn159 O158 1.899 . S
Zn159 O160 2.032 1_554 S
Zn159 O163 2.086 . S
Zn159 O168 1.977 . S
O160 Zn159 2.032 1_556 S
O160 C164 1.278 . S
C161 O162 1.203 . S
C161 O168 1.267 . S
O162 C161 1.203 . S
O163 C156 1.185 . S
O163 Zn159 2.086 . S
C164 O160 1.278 . S
C164 O165 1.211 . S
O165 C164 1.211 . S
C166 O158 1.284 . S
C166 O167 1.273 . S
O167 C166 1.273 . S
O168 Zn159 1.977 . S
O168 C161 1.267 . S
C169 O170 1.160 . S
C169 O176 1.185 . S
O170 C169 1.160 . S
O171 Zn172 1.899 . S
O171 C179 1.284 . S
Zn172 O171 1.899 . S
Zn172 O173 2.032 1_554 S
Zn172 O176 2.086 . S
Zn172 O181 1.977 . S
O173 Zn172 2.032 1_556 S
O173 C177 1.278 . S
C174 O175 1.203 . S
C174 O181 1.267 . S
O175 C174 1.203 . S
O176 C169 1.185 . S
O176 Zn172 2.086 . S
C177 O173 1.278 . S
C177 O178 1.211 . S
O178 C177 1.211 . S
C179 O171 1.284 . S
C179 O180 1.273 . S
O180 C179 1.273 . S
O181 Zn172 1.977 . S
O181 C174 1.267 . S
C182 O183 1.160 . S
C182 O189 1.185 . S
O183 C182 1.160 . S
O184 Zn185 1.899 . S
O184 C192 1.284 . S
Zn185 O184 1.899 . S
Zn185 O186 2.032 . S
Zn185 O189 2.086 . S
Zn185 O194 1.977 . S
O186 Zn185 2.032 . S
O186 C190 1.278 . S
C187 O188 1.203 . S
C187 O194 1.267 . S
O188 C187 1.203 . S
O189 C182 1.185 . S
O189 Zn185 2.086 . S
C190 O186 1.278 . S
C190 O191 1.211 . S
O191 C190 1.211 . S
C192 O184 1.284 . S
C192 O193 1.273 . S
O193 C192 1.273 . S
O194 Zn185 1.977 . S
O194 C187 1.267 . S
C195 O196 1.160 . S
C195 O202 1.185 . S
O196 C195 1.160 . S
O197 Zn198 1.899 . S
O197 C205 1.284 . S
Zn198 O197 1.899 . S
Zn198 O199 2.032 . S
Zn198 O202 2.086 . S
Zn198 O207 1.977 . S
O199 Zn198 2.032 . S
O199 C203 1.278 . S
C200 O201 1.203 . S
C200 O207 1.267 . S
O201 C200 1.203 . S
O202 C195 1.185 . S
O202 Zn198 2.086 . S
C203 O199 1.278 . S
C203 O204 1.211 . S
O204 C203 1.211 . S
C205 O197 1.284 . S
C205 O206 1.273 . S
O206 C205 1.273 . S
O207 Zn198 1.977 . S
O207 C200 1.267 . S
C208 O209 1.160 . S
C208 O215 1.185 . S
O209 C208 1.160 . S
O210 Zn211 1.899 . S
O210 C218 1.284 . S
Zn211 O210 1.899 . S
Zn211 O212 2.032 . S
Zn211 O215 2.086 . S
Zn211 O220 1.977 . S
O212 Zn211 2.032 . S
O212 C216 1.278 . S
C213 O214 1.203 . S
C213 O220 1.267 . S
O214 C213 1.203 . S
O215 C208 1.185 . S
O215 Zn211 2.086 . S
C216 O212 1.278 . S
C216 O217 1.211 . S
O217 C216 1.211 . S
C218 O210 1.284 . S
C218 O219 1.273 . S
O219 C218 1.273 . S
O220 Zn211 1.977 . S
O220 C213 1.267 . S
C221 O222 1.160 . S
C221 O228 1.185 . S
O222 C221 1.160 . S
O223 Zn224 1.899 . S
O223 C231 1.284 . S
Zn224 O223 1.899 . S
Zn224 O225 2.032 . S
Zn224 O228 2.086 . S
Zn224 O233 1.977 . S
O225 Zn224 2.032 . S
O225 C229 1.278 . S
C226 O227 1.203 . S
C226 O233 1.267 . S
O227 C226 1.203 . S
O228 C221 1.185 . S
O228 Zn224 2.086 . S
C229 O225 1.278 . S
C229 O230 1.211 . S
O230 C229 1.211 . S
C231 O223 1.284 . S
C231 O232 1.273 . S
O232 C231 1.273 . S
O233 Zn224 1.977 . S
O233 C226 1.267 . S
C234 O235 1.160 . S
C234 O241 1.185 . S
O235 C234 1.160 . S
O236 Zn237 1.899 . S
O236 C244 1.284 . S
Zn237 O236 1.899 . S
Zn237 O238 2.032 . S
Zn237 O241 2.086 . S
Zn237 O246 1.977 . S
O238 Zn237 2.032 . S
O238 C242 1.278 . S
C239 O240 1.203 . S
C239 O246 1.267 . S
O240 C239 1.203 . S
O241 C234 1.185 . S
O241 Zn237 2.086 . S
C242 O238 1.278 . S
C242 O243 1.211 . S
O243 C242 1.211 . S
C244 O236 1.284 . S
C244 O245 1.273 . S
O245 C244 1.273 . S
O246 Zn237 1.977 . S
O246 C239 1.267 . S
C247 O248 1.160 . S
C247 O254 1.185 . S
O248 C247 1.160 . S
O249 Zn250 1.899 . S
O249 C257 1.284 . S
Zn250 O249 1.899 . S
Zn250 O251 2.032 . S
Zn250 O254 2.086 . S
Zn250 O259 1.977 . S
O251 Zn250 2.032 . S
O251 C255 1.278 . S
C252 O253 1.203 . S
C252 O259 1.267 . S
O253 C252 1.203 . S
O254 C247 1.185 . S
O254 Zn250 2.086 . S
C255 O251 1.278 . S
C255 O256 1.211 . S
O256 C255 1.211 . S
C257 O249 1.284 . S
C257 O258 1.273 . S
O258 C257 1.273 . S
O259 Zn250 1.977 . S
O259 C252 1.267 . S
C260 O261 1.160 . S
C260 O267 1.185 . S
O261 C260 1.160 . S
O262 Zn263 1.899 . S
O262 C270 1.284 . S
Zn263 O262 1.899 . S
Zn263 O264 2.032 1_554 S
Zn263 O267 2.086 . S
Zn263 O272 1.977 . S
O264 Zn263 2.032 1_556 S
O264 C268 1.278 . S
C265 O266 1.203 . S
C265 O272 1.264 . S
O266 C265 1.203 . S
O267 C260 1.185 . S
O267 Zn263 2.086 . S
C268 O264 1.278 . S
C268 O269 1.211 . S
O269 C268 1.211 . S
C270 O262 1.284 . S
C270 O271 1.273 . S
O271 C270 1.273 . S
O272 Zn263 1.977 . S
O272 C265 1.264 . S
C273 O274 1.160 . S
C273 O280 1.185 . S
O274 C273 1.160 . S
O275 Zn276 1.899 . S
O275 C283 1.284 . S
Zn276 O275 1.899 . S
Zn276 O277 2.032 . S
Zn276 O280 2.086 . S
Zn276 O285 1.977 . S
O277 Zn276 2.032 . S
O277 C281 1.278 . S
C278 O279 1.203 . S
C278 O285 1.267 . S
O279 C278 1.203 . S
O280 C273 1.185 . S
O280 Zn276 2.086 . S
C281 O277 1.278 . S
C281 O282 1.211 . S
O282 C281 1.211 . S
C283 O275 1.284 . S
C283 O284 1.273 . S
O284 C283 1.273 . S
O285 Zn276 1.977 . S
O285 C278 1.267 . S
C286 O287 1.160 . S
C286 O293 1.185 . S
O287 C286 1.160 . S
O288 Zn289 1.899 . S
O288 C296 1.284 . S
Zn289 O288 1.899 . S
Zn289 O290 2.032 . S
Zn289 O293 2.086 . S
Zn289 O298 1.977 . S
O290 Zn289 2.032 . S
O290 C294 1.278 . S
C291 O292 1.203 . S
C291 O298 1.267 . S
O292 C291 1.203 . S
O293 C286 1.185 . S
O293 Zn289 2.086 . S
C294 O290 1.278 . S
C294 O295 1.211 . S
O295 C294 1.211 . S
C296 O288 1.284 . S
C296 O297 1.273 . S
O297 C296 1.273 . S
O298 Zn289 1.977 . S
O298 C291 1.267 . S
C299 O300 1.160 . S
C299 O306 1.185 . S
O300 C299 1.160 . S
O301 Zn302 1.899 . S
O301 C309 1.284 . S
Zn302 O301 1.899 . S
Zn302 O303 2.032 . S
Zn302 O306 2.086 . S
Zn302 O311 1.977 . S
O303 Zn302 2.032 . S
O303 C307 1.278 . S
C304 O305 1.203 . S
C304 O311 1.267 . S
O305 C304 1.203 . S
O306 C299 1.185 . S
O306 Zn302 2.086 . S
C307 O303 1.278 . S
C307 O308 1.211 . S
O308 C307 1.211 . S
C309 O301 1.284 . S
C309 O310 1.273 . S
O310 C309 1.273 . S
O311 Zn302 1.977 . S
O311 C304 1.267 . S
Ho312 C315 2.811 1_455 S
Ho312 O332 2.322 . S
Ho312 O334 2.378 1_455 S
Ho312 O335 2.524 1_456 S
Ho312 O336 2.381 . S
Ho312 O337 2.669 . S
Ho312 O339 2.346 1_546 S
Ho312 O343 2.305 1_556 S
Ho313 C324 2.811 . S
Ho313 O333 2.346 . S
Ho313 O337 2.305 1_554 S
Ho313 O338 2.322 . S
Ho313 O340 2.378 . S
Ho313 O341 2.524 . S
Ho313 O342 2.381 . S
Ho313 O343 2.669 . S
C314 O332 1.259 1_554 S
C314 O333 1.268 . S
C315 Ho312 2.811 1_655 S
C315 C316 1.488 . S
C315 O334 1.215 . S
C315 O335 1.289 1_556 S
C316 C315 1.488 . S
C316 C317 1.348 . S
C316 C321 1.413 . S
C317 C316 1.348 . S
C317 C318 1.442 . S
C317 H344 0.930 1_556 S
C318 C317 1.442 . S
C318 C319 1.381 . S
C318 H345 0.931 1_556 S
C319 C318 1.381 . S
C319 C320 1.321 . S
C320 C319 1.321 . S
C320 C321 1.403 . S
C320 H346 0.934 . S
C321 C316 1.413 . S
C321 C320 1.403 . S
C321 H347 0.930 . S
C322 O336 1.275 . S
C322 O337 1.256 . S
C323 O338 1.259 1_565 S
C323 O339 1.268 . S
C324 Ho313 2.811 . S
C324 C325 1.488 . S
C324 O340 1.215 . S
C324 O341 1.289 . S
C325 C324 1.488 . S
C325 C326 1.348 . S
C325 C330 1.413 . S
C326 C325 1.348 . S
C326 C327 1.442 1_545 S
C326 H348 0.930 1_545 S
C327 C326 1.442 1_565 S
C327 C328 1.380 1_565 S
C327 H349 0.931 . S
C328 C327 1.380 1_545 S
C328 C329 1.327 . S
C329 C328 1.327 . S
C329 C330 1.403 . S
C329 H350 0.934 . S
C330 C325 1.413 . S
C330 C329 1.403 . S
C330 H351 0.930 . S
C331 O342 1.275 . S
C331 O343 1.256 . S
O332 Ho312 2.322 . S
O332 C314 1.259 1_556 S
O333 Ho313 2.346 . S
O333 C314 1.268 . S
O334 Ho312 2.378 1_655 S
O334 C315 1.215 . S
O335 Ho312 2.524 1_654 S
O335 C315 1.289 1_554 S
O336 Ho312 2.381 . S
O336 C322 1.275 . S
O337 Ho312 2.669 . S
O337 Ho313 2.305 1_556 S
O337 C322 1.256 . S
O338 Ho313 2.322 . S
O338 C323 1.259 1_545 S
O339 Ho312 2.346 1_564 S
O339 C323 1.268 . S
O340 Ho313 2.378 . S
O340 C324 1.215 . S
O341 Ho313 2.524 . S
O341 C324 1.289 . S
O342 Ho313 2.381 . S
O342 C331 1.275 . S
O343 Ho312 2.305 1_554 S
O343 Ho313 2.669 . S
O343 C331 1.256 . S
H344 C317 0.930 1_554 S
H345 C318 0.931 1_554 S
H346 C320 0.934 . S
H347 C321 0.930 . S
H348 C326 0.930 1_565 S
H349 C327 0.931 . S
H350 C329 0.934 . S
H351 C330 0.930 . S
Ho352 C355 2.811 . S
Ho352 O372 2.322 . S
Ho352 O374 2.378 . S
Ho352 O375 2.524 . S
Ho352 O376 2.381 . S
Ho352 O377 2.669 . S
Ho352 O379 2.346 . S
Ho352 O383 2.305 . S
Ho353 C364 2.811 . S
Ho353 O373 2.346 . S
Ho353 O377 2.305 . S
Ho353 O378 2.322 . S
Ho353 O380 2.378 . S
Ho353 O381 2.524 . S
Ho353 O382 2.381 . S
Ho353 O383 2.669 . S
C354 O372 1.259 . S
C354 O373 1.268 . S
C355 Ho352 2.811 . S
C355 C356 1.488 . S
C355 O374 1.215 . S
C355 O375 1.289 . S
C356 C355 1.488 . S
C356 C357 1.348 . S
C356 C361 1.413 . S
C357 C356 1.348 . S
C357 C358 1.442 . S
C357 H384 0.930 . S
C358 C357 1.442 . S
C358 C359 1.381 . S
C358 H385 0.931 . S
C359 C358 1.381 . S
C359 C360 1.321 . S
C360 C359 1.321 . S
C360 C361 1.403 . S
C360 H386 0.934 . S
C361 C356 1.413 . S
C361 C360 1.403 . S
C361 H387 0.930 . S
C362 O376 1.275 . S
C362 O377 1.256 . S
C363 O378 1.259 . S
C363 O379 1.268 . S
C364 Ho353 2.811 . S
C364 C365 1.488 . S
C364 O380 1.215 . S
C364 O381 1.289 . S
C365 C364 1.488 . S
C365 C366 1.348 . S
C365 C370 1.413 . S
C366 C365 1.348 . S
C366 C367 1.442 . S
C366 H388 0.930 . S
C367 C366 1.442 . S
C367 C368 1.381 . S
C367 H389 0.931 . S
C368 C367 1.381 . S
C368 C369 1.321 . S
C369 C368 1.321 . S
C369 C370 1.403 . S
C369 H390 0.934 . S
C370 C365 1.413 . S
C370 C369 1.403 . S
C370 H391 0.930 . S
C371 O382 1.275 . S
C371 O383 1.256 . S
O372 Ho352 2.322 . S
O372 C354 1.259 . S
O373 Ho353 2.346 . S
O373 C354 1.268 . S
O374 Ho352 2.378 . S
O374 C355 1.215 . S
O375 Ho352 2.524 . S
O375 C355 1.289 . S
O376 Ho352 2.381 . S
O376 C362 1.275 . S
O377 Ho352 2.669 . S
O377 Ho353 2.305 . S
O377 C362 1.256 . S
O378 Ho353 2.322 . S
O378 C363 1.259 . S
O379 Ho352 2.346 . S
O379 C363 1.268 . S
O380 Ho353 2.378 . S
O380 C364 1.215 . S
O381 Ho353 2.524 . S
O381 C364 1.289 . S
O382 Ho353 2.381 . S
O382 C371 1.275 . S
O383 Ho352 2.305 . S
O383 Ho353 2.669 . S
O383 C371 1.256 . S
H384 C357 0.930 . S
H385 C358 0.931 . S
H386 C360 0.934 . S
H387 C361 0.930 . S
H388 C366 0.930 . S
H389 C367 0.931 . S
H390 C369 0.934 . S
H391 C370 0.930 . S
Ho392 C395 2.811 . S
Ho392 O412 2.322 . S
Ho392 O414 2.378 . S
Ho392 O415 2.524 . S
Ho392 O416 2.381 . S
Ho392 O417 2.669 . S
Ho392 O419 2.346 . S
Ho392 O423 2.305 . S
Ho393 C404 2.811 . S
Ho393 O413 2.303 1_545 S
Ho393 O417 2.305 . S
Ho393 O418 2.322 . S
Ho393 O420 2.378 . S
Ho393 O421 2.524 . S
Ho393 O422 2.381 . S
Ho393 O423 2.669 . S
C394 O412 1.259 1_565 S
C394 O413 1.286 . S
C395 Ho392 2.811 . S
C395 C396 1.488 . S
C395 O414 1.215 . S
C395 O415 1.289 . S
C396 C395 1.488 . S
C396 C397 1.348 1_545 S
C396 C401 1.415 . S
C397 C396 1.348 1_565 S
C397 C398 1.442 . S
C397 H424 0.930 . S
C398 C397 1.442 . S
C398 C399 1.381 . S
C398 H425 0.931 . S
C399 C398 1.381 . S
C399 C400 1.321 . S
C400 C399 1.321 . S
C400 C401 1.378 1_565 S
C400 H426 0.934 . S
C401 C396 1.415 . S
C401 C400 1.378 1_545 S
C401 H427 0.954 . S
C402 O416 1.275 . S
C402 O417 1.256 . S
C403 O418 1.259 . S
C403 O419 1.268 . S
C404 Ho393 2.811 . S
C404 C405 1.488 . S
C404 O420 1.215 . S
C404 O421 1.289 . S
C405 C404 1.488 . S
C405 C406 1.348 . S
C405 C410 1.413 . S
C406 C405 1.348 . S
C406 C407 1.442 . S
C406 H428 0.930 . S
C407 C406 1.442 . S
C407 C408 1.381 . S
C407 H429 0.931 . S
C408 C407 1.381 . S
C408 C409 1.321 . S
C409 C408 1.321 . S
C409 C410 1.403 . S
C409 H430 0.934 . S
C410 C405 1.413 . S
C410 C409 1.403 . S
C410 H431 0.930 . S
C411 O422 1.275 . S
C411 O423 1.256 . S
O412 Ho392 2.322 . S
O412 C394 1.259 1_545 S
O413 Ho393 2.303 1_565 S
O413 C394 1.286 . S
O414 Ho392 2.378 . S
O414 C395 1.215 . S
O415 Ho392 2.524 . S
O415 C395 1.289 . S
O416 Ho392 2.381 . S
O416 C402 1.275 . S
O417 Ho392 2.669 . S
O417 Ho393 2.305 . S
O417 C402 1.256 . S
O418 Ho393 2.322 . S
O418 C403 1.259 . S
O419 Ho392 2.346 . S
O419 C403 1.268 . S
O420 Ho393 2.378 . S
O420 C404 1.215 . S
O421 Ho393 2.524 . S
O421 C404 1.289 . S
O422 Ho393 2.381 . S
O422 C411 1.275 . S
O423 Ho392 2.305 . S
O423 Ho393 2.669 . S
O423 C411 1.256 . S
H424 C397 0.930 . S
H425 C398 0.931 . S
H426 C400 0.934 . S
H427 C401 0.954 . S
H428 C406 0.930 . S
H429 C407 0.931 . S
H430 C409 0.934 . S
H431 C410 0.930 . S
Ho432 C435 2.811 . S
Ho432 O452 2.322 . S
Ho432 O454 2.378 . S
Ho432 O455 2.524 . S
Ho432 O456 2.381 . S
Ho432 O457 2.669 . S
Ho432 O459 2.346 . S
Ho432 O463 2.305 . S
Ho433 C444 2.811 . S
Ho433 O453 2.346 . S
Ho433 O457 2.305 . S
Ho433 O458 2.322 . S
Ho433 O460 2.378 . S
Ho433 O461 2.524 . S
Ho433 O462 2.381 . S
Ho433 O463 2.669 . S
C434 O452 1.259 . S
C434 O453 1.268 . S
C435 Ho432 2.811 . S
C435 C436 1.488 . S
C435 O454 1.215 . S
C435 O455 1.289 . S
C436 C435 1.488 . S
C436 C437 1.348 . S
C436 C441 1.413 . S
C437 C436 1.348 . S
C437 C438 1.442 . S
C437 H464 0.930 . S
C438 C437 1.442 . S
C438 C439 1.381 . S
C438 H465 0.931 . S
C439 C438 1.381 . S
C439 C440 1.321 . S
C440 C439 1.321 . S
C440 C441 1.403 . S
C440 H466 0.934 . S
C441 C436 1.413 . S
C441 C440 1.403 . S
C441 H467 0.930 . S
C442 O456 1.275 . S
C442 O457 1.256 . S
C443 O458 1.259 . S
C443 O459 1.268 . S
C444 Ho433 2.811 . S
C444 C445 1.488 . S
C444 O460 1.215 . S
C444 O461 1.289 . S
C445 C444 1.488 . S
C445 C446 1.348 . S
C445 C450 1.413 . S
C446 C445 1.348 . S
C446 C447 1.442 . S
C446 H468 0.930 . S
C447 C446 1.442 . S
C447 C448 1.381 . S
C447 H469 0.931 . S
C448 C447 1.381 . S
C448 C449 1.321 . S
C449 C448 1.321 . S
C449 C450 1.403 . S
C449 H470 0.934 . S
C450 C445 1.413 . S
C450 C449 1.403 . S
C450 H471 0.930 . S
C451 O462 1.275 . S
C451 O463 1.256 . S
O452 Ho432 2.322 . S
O452 C434 1.259 . S
O453 Ho433 2.346 . S
O453 C434 1.268 . S
O454 Ho432 2.378 . S
O454 C435 1.215 . S
O455 Ho432 2.524 . S
O455 C435 1.289 . S
O456 Ho432 2.381 . S
O456 C442 1.275 . S
O457 Ho432 2.669 . S
O457 Ho433 2.305 . S
O457 C442 1.256 . S
O458 Ho433 2.322 . S
O458 C443 1.259 . S
O459 Ho432 2.346 . S
O459 C443 1.268 . S
O460 Ho433 2.378 . S
O460 C444 1.215 . S
O461 Ho433 2.524 . S
O461 C444 1.289 . S
O462 Ho433 2.381 . S
O462 C451 1.275 . S
O463 Ho432 2.305 . S
O463 Ho433 2.669 . S
O463 C451 1.256 . S
H464 C437 0.930 . S
H465 C438 0.931 . S
H466 C440 0.934 . S
H467 C441 0.930 . S
H468 C446 0.930 . S
H469 C447 0.931 . S
H470 C449 0.934 . S
H471 C450 0.930 . S
Ho472 C475 2.811 . S
Ho472 O492 2.322 . S
Ho472 O494 2.378 . S
Ho472 O495 2.524 . S
Ho472 O496 2.438 . S
Ho472 O497 2.669 . S
Ho472 O499 2.346 . S
Ho472 O503 2.305 . S
Ho473 C484 2.811 1_545 S
Ho473 O493 2.346 . S
Ho473 O497 2.305 . S
Ho473 O498 2.322 . S
Ho473 O500 2.378 1_545 S
Ho473 O501 2.524 1_545 S
Ho473 O502 2.381 . S
Ho473 O503 2.669 . S
C474 O492 1.259 . S
C474 O493 1.268 . S
C475 Ho472 2.811 . S
C475 C476 1.488 . S
C475 O494 1.215 . S
C475 O495 1.289 . S
C476 C475 1.488 . S
C476 C477 1.348 . S
C476 C481 1.413 . S
C477 C476 1.348 . S
C477 C478 1.442 . S
C477 H504 0.930 . S
C478 C477 1.442 . S
C478 C479 1.381 . S
C478 H505 0.931 . S
C479 C478 1.381 . S
C479 C480 1.321 . S
C480 C479 1.321 . S
C480 C481 1.403 . S
C480 H506 0.932 . S
C481 C476 1.413 . S
C481 C480 1.403 . S
C481 H507 0.979 . S
C482 O496 1.298 . S
C482 O497 1.256 . S
C483 O498 1.259 . S
C483 O499 1.268 . S
C484 Ho473 2.811 1_565 S
C484 C485 1.488 . S
C484 O500 1.215 . S
C484 O501 1.289 . S
C485 C484 1.488 . S
C485 C486 1.348 . S
C485 C490 1.413 . S
C486 C485 1.348 . S
C486 C487 1.442 . S
C486 H508 0.930 . S
C487 C486 1.442 . S
C487 C488 1.381 . S
C487 H509 0.931 . S
C488 C487 1.381 . S
C488 C489 1.321 . S
C489 C488 1.321 . S
C489 C490 1.403 . S
C489 H510 0.934 . S
C490 C485 1.413 . S
C490 C489 1.403 . S
C490 H511 0.930 . S
C491 O502 1.275 . S
C491 O503 1.256 . S
O492 Ho472 2.322 . S
O492 C474 1.259 . S
O493 Ho473 2.346 . S
O493 C474 1.268 . S
O494 Ho472 2.378 . S
O494 C475 1.215 . S
O495 Ho472 2.524 . S
O495 C475 1.289 . S
O496 Ho472 2.438 . S
O496 C482 1.298 . S
O497 Ho472 2.669 . S
O497 Ho473 2.305 . S
O497 C482 1.256 . S
O498 Ho473 2.322 . S
O498 C483 1.259 . S
O499 Ho472 2.346 . S
O499 C483 1.268 . S
O500 Ho473 2.378 1_565 S
O500 C484 1.215 . S
O501 Ho473 2.524 1_565 S
O501 C484 1.289 . S
O502 Ho473 2.381 . S
O502 C491 1.275 . S
O503 Ho472 2.305 . S
O503 Ho473 2.669 . S
O503 C491 1.256 . S
H504 C477 0.930 . S
H505 C478 0.931 . S
H506 C480 0.932 . S
H507 C481 0.979 . S
H508 C486 0.930 . S
H509 C487 0.931 . S
H510 C489 0.934 . S
H511 C490 0.930 . S
Ho512 C515 2.811 . S
Ho512 O532 2.322 . S
Ho512 O534 2.378 . S
Ho512 O535 2.524 . S
Ho512 O536 2.381 . S
Ho512 O537 2.669 . S
Ho512 O539 2.346 . S
Ho512 O543 2.305 . S
Ho513 C524 2.811 . S
Ho513 O533 2.346 . S
Ho513 O537 2.305 . S
Ho513 O538 2.322 . S
Ho513 O540 2.378 . S
Ho513 O541 2.524 . S
Ho513 O542 2.381 . S
Ho513 O543 2.669 . S
C514 O532 1.259 . S
C514 O533 1.268 . S
C515 Ho512 2.811 . S
C515 C516 1.488 . S
C515 O534 1.215 . S
C515 O535 1.289 . S
C516 C515 1.488 . S
C516 C517 1.348 . S
C516 C521 1.413 . S
C517 C516 1.348 . S
C517 C518 1.442 . S
C517 H544 0.930 . S
C518 C517 1.442 . S
C518 C519 1.381 . S
C518 H545 0.931 . S
C519 C518 1.381 . S
C519 C520 1.321 . S
C520 C519 1.321 . S
C520 C521 1.403 . S
C520 H546 0.934 . S
C521 C516 1.413 . S
C521 C520 1.403 . S
C521 H547 0.930 . S
C522 O536 1.275 . S
C522 O537 1.256 . S
C523 O538 1.259 . S
C523 O539 1.268 . S
C524 Ho513 2.811 . S
C524 C525 1.488 . S
C524 O540 1.215 . S
C524 O541 1.289 . S
C525 C524 1.488 . S
C525 C526 1.348 . S
C525 C530 1.413 . S
C526 C525 1.348 . S
C526 C527 1.442 . S
C526 H548 0.930 . S
C527 C526 1.442 . S
C527 C528 1.381 . S
C527 H549 0.931 . S
C528 C527 1.381 . S
C528 C529 1.321 . S
C529 C528 1.321 . S
C529 C530 1.403 . S
C529 H550 0.934 . S
C530 C525 1.413 . S
C530 C529 1.403 . S
C530 H551 0.930 . S
C531 O542 1.275 . S
C531 O543 1.256 . S
O532 Ho512 2.322 . S
O532 C514 1.259 . S
O533 Ho513 2.346 . S
O533 C514 1.268 . S
O534 Ho512 2.378 . S
O534 C515 1.215 . S
O535 Ho512 2.524 . S
O535 C515 1.289 . S
O536 Ho512 2.381 . S
O536 C522 1.275 . S
O537 Ho512 2.669 . S
O537 Ho513 2.305 . S
O537 C522 1.256 . S
O538 Ho513 2.322 . S
O538 C523 1.259 . S
O539 Ho512 2.346 . S
O539 C523 1.268 . S
O540 Ho513 2.378 . S
O540 C524 1.215 . S
O541 Ho513 2.524 . S
O541 C524 1.289 . S
O542 Ho513 2.381 . S
O542 C531 1.275 . S
O543 Ho512 2.305 . S
O543 Ho513 2.669 . S
O543 C531 1.256 . S
H544 C517 0.930 . S
H545 C518 0.931 . S
H546 C520 0.934 . S
H547 C521 0.930 . S
H548 C526 0.930 . S
H549 C527 0.931 . S
H550 C529 0.934 . S
H551 C530 0.930 . S
Ho552 C555 2.811 . S
Ho552 O572 2.322 . S
Ho552 O574 2.378 . S
Ho552 O575 2.524 . S
Ho552 O576 2.381 1_545 S
Ho552 O577 2.669 . S
Ho552 O579 2.346 . S
Ho552 O583 2.305 . S
Ho553 C564 2.811 . S
Ho553 O573 2.346 . S
Ho553 O577 2.305 1_556 S
Ho553 O578 2.322 1_556 S
Ho553 O580 2.378 . S
Ho553 O581 2.524 . S
Ho553 O582 2.381 1_556 S
Ho553 O583 2.669 1_556 S
C554 O572 1.259 . S
C554 O573 1.268 1_554 S
C555 Ho552 2.811 . S
C555 C556 1.488 . S
C555 O574 1.215 . S
C555 O575 1.289 . S
C556 C555 1.488 . S
C556 C557 1.348 . S
C556 C561 1.413 1_545 S
C557 C556 1.348 . S
C557 C558 1.442 . S
C557 H584 0.930 . S
C558 C557 1.442 . S
C558 C559 1.381 1_545 S
C558 H585 0.931 . S
C559 C558 1.381 1_565 S
C559 C560 1.321 . S
C560 C559 1.321 . S
C560 C561 1.403 . S
C560 H586 0.934 . S
C561 C556 1.413 1_565 S
C561 C560 1.403 . S
C561 H587 0.930 . S
C562 O576 1.275 . S
C562 O577 1.256 1_565 S
C563 O578 1.259 . S
C563 O579 1.268 . S
C564 Ho553 2.811 . S
C564 C565 1.488 . S
C564 O580 1.215 . S
C564 O581 1.289 . S
C565 C564 1.488 . S
C565 C566 1.348 . S
C565 C570 1.413 . S
C566 C565 1.348 . S
C566 C567 1.442 . S
C566 H588 0.930 . S
C567 C566 1.442 . S
C567 C568 1.381 . S
C567 H589 0.931 . S
C568 C567 1.381 . S
C568 C569 1.321 . S
C569 C568 1.321 . S
C569 C570 1.403 . S
C569 H590 0.934 . S
C570 C565 1.413 . S
C570 C569 1.403 . S
C570 H591 0.930 . S
C571 O582 1.275 . S
C571 O583 1.256 . S
O572 Ho552 2.322 . S
O572 C554 1.259 . S
O573 Ho553 2.346 . S
O573 C554 1.268 1_556 S
O574 Ho552 2.378 . S
O574 C555 1.215 . S
O575 Ho552 2.524 . S
O575 C555 1.289 . S
O576 Ho552 2.381 1_565 S
O576 C562 1.275 . S
O577 Ho552 2.669 . S
O577 Ho553 2.305 1_554 S
O577 C562 1.256 1_545 S
O578 Ho553 2.322 1_554 S
O578 C563 1.259 . S
O579 Ho552 2.346 . S
O579 C563 1.268 . S
O580 Ho553 2.378 . S
O580 C564 1.215 . S
O581 Ho553 2.524 . S
O581 C564 1.289 . S
O582 Ho553 2.381 1_554 S
O582 C571 1.275 . S
O583 Ho552 2.305 . S
O583 Ho553 2.669 1_554 S
O583 C571 1.256 . S
H584 C557 0.930 . S
H585 C558 0.931 . S
H586 C560 0.934 . S
H587 C561 0.930 . S
H588 C566 0.930 . S
H589 C567 0.931 . S
H590 C569 0.934 . S
H591 C570 0.930 . S
Ho592 C595 2.811 . S
Ho592 O612 2.322 . S
Ho592 O614 2.378 . S
Ho592 O615 2.524 . S
Ho592 O616 2.381 . S
Ho592 O617 2.669 . S
Ho592 O619 2.346 . S
Ho592 O623 2.305 . S
Ho593 C604 2.811 . S
Ho593 O613 2.346 . S
Ho593 O617 2.305 . S
Ho593 O618 2.322 . S
Ho593 O620 2.378 . S
Ho593 O621 2.524 . S
Ho593 O622 2.381 . S
Ho593 O623 2.669 . S
C594 O612 1.259 . S
C594 O613 1.268 . S
C595 Ho592 2.811 . S
C595 C596 1.488 . S
C595 O614 1.215 . S
C595 O615 1.289 . S
C596 C595 1.488 . S
C596 C597 1.348 . S
C596 C601 1.413 . S
C597 C596 1.348 . S
C597 C598 1.442 . S
C597 H624 0.930 . S
C598 C597 1.442 . S
C598 C599 1.381 . S
C598 H625 0.931 . S
C599 C598 1.381 . S
C599 C600 1.321 . S
C600 C599 1.321 . S
C600 C601 1.403 . S
C600 H626 0.934 . S
C601 C596 1.413 . S
C601 C600 1.403 . S
C601 H627 0.930 . S
C602 O616 1.275 . S
C602 O617 1.256 . S
C603 O618 1.259 . S
C603 O619 1.268 . S
C604 Ho593 2.811 . S
C604 C605 1.488 . S
C604 O620 1.215 . S
C604 O621 1.289 . S
C605 C604 1.488 . S
C605 C606 1.348 . S
C605 C610 1.413 . S
C606 C605 1.348 . S
C606 C607 1.442 . S
C606 H628 0.930 . S
C607 C606 1.442 . S
C607 C608 1.381 . S
C607 H629 0.931 . S
C608 C607 1.381 . S
C608 C609 1.321 . S
C609 C608 1.321 . S
C609 C610 1.403 . S
C609 H630 0.934 . S
C610 C605 1.413 . S
C610 C609 1.403 . S
C610 H631 0.930 . S
C611 O622 1.275 . S
C611 O623 1.256 . S
O612 Ho592 2.322 . S
O612 C594 1.259 . S
O613 Ho593 2.346 . S
O613 C594 1.268 . S
O614 Ho592 2.378 . S
O614 C595 1.215 . S
O615 Ho592 2.524 . S
O615 C595 1.289 . S
O616 Ho592 2.381 . S
O616 C602 1.275 . S
O617 Ho592 2.669 . S
O617 Ho593 2.305 . S
O617 C602 1.256 . S
O618 Ho593 2.322 . S
O618 C603 1.259 . S
O619 Ho592 2.346 . S
O619 C603 1.268 . S
O620 Ho593 2.378 . S
O620 C604 1.215 . S
O621 Ho593 2.524 . S
O621 C604 1.289 . S
O622 Ho593 2.381 . S
O622 C611 1.275 . S
O623 Ho592 2.305 . S
O623 Ho593 2.669 . S
O623 C611 1.256 . S
H624 C597 0.930 . S
H625 C598 0.931 . S
H626 C600 0.934 . S
H627 C601 0.930 . S
H628 C606 0.930 . S
H629 C607 0.931 . S
H630 C609 0.934 . S
H631 C610 0.930 . S
Ho632 C635 2.811 . S
Ho632 O652 2.322 1_554 S
Ho632 O654 2.378 . S
Ho632 O655 2.524 . S
Ho632 O656 2.381 . S
Ho632 O657 2.669 . S
Ho632 O659 2.346 . S
Ho632 O663 2.305 . S
Ho633 C644 2.811 . S
Ho633 O653 2.346 1_554 S
Ho633 O657 2.305 . S
Ho633 O658 2.322 . S
Ho633 O660 2.378 . S
Ho633 O661 2.524 . S
Ho633 O662 2.381 . S
Ho633 O663 2.669 . S
C634 O652 1.259 . S
C634 O653 1.268 . S
C635 Ho632 2.811 . S
C635 C636 1.488 1_554 S
C635 O654 1.215 . S
C635 O655 1.289 . S
C636 C635 1.488 1_556 S
C636 C637 1.348 . S
C636 C641 1.413 . S
C637 C636 1.348 . S
C637 C638 1.442 . S
C637 H664 0.930 . S
C638 C637 1.442 . S
C638 C639 1.381 . S
C638 H665 0.931 . S
C639 C638 1.381 . S
C639 C640 1.321 . S
C640 C639 1.321 . S
C640 C641 1.403 . S
C640 H666 0.934 . S
C641 C636 1.413 . S
C641 C640 1.403 . S
C641 H667 0.893 1_556 S
C642 O656 1.275 . S
C642 O657 1.256 . S
C643 O658 1.259 . S
C643 O659 1.268 . S
C644 Ho633 2.811 . S
C644 C645 1.488 . S
C644 O660 1.215 . S
C644 O661 1.289 . S
C645 C644 1.488 . S
C645 C646 1.348 . S
C645 C650 1.413 . S
C646 C645 1.348 . S
C646 C647 1.442 . S
C646 H668 0.930 . S
C647 C646 1.442 . S
C647 C648 1.381 . S
C647 H669 0.931 . S
C648 C647 1.381 . S
C648 C649 1.321 . S
C649 C648 1.321 . S
C649 C650 1.403 . S
C649 H670 0.934 . S
C650 C645 1.413 . S
C650 C649 1.403 . S
C650 H671 0.930 . S
C651 O662 1.275 . S
C651 O663 1.256 . S
O652 Ho632 2.322 1_556 S
O652 C634 1.259 . S
O653 Ho633 2.346 1_556 S
O653 C634 1.268 . S
O654 Ho632 2.378 . S
O654 C635 1.215 . S
O655 Ho632 2.524 . S
O655 C635 1.289 . S
O656 Ho632 2.381 . S
O656 C642 1.275 . S
O657 Ho632 2.669 . S
O657 Ho633 2.305 . S
O657 C642 1.256 . S
O658 Ho633 2.322 . S
O658 C643 1.259 . S
O659 Ho632 2.346 . S
O659 C643 1.268 . S
O660 Ho633 2.378 . S
O660 C644 1.215 . S
O661 Ho633 2.524 . S
O661 C644 1.289 . S
O662 Ho633 2.381 . S
O662 C651 1.275 . S
O663 Ho632 2.305 . S
O663 Ho633 2.669 . S
O663 C651 1.256 . S
H664 C637 0.930 . S
H665 C638 0.931 . S
H666 C640 0.934 . S
H667 C641 0.893 1_554 S
H668 C646 0.930 . S
H669 C647 0.931 . S
H670 C649 0.934 . S
H671 C650 0.930 . S
Ho672 C675 2.811 . S
Ho672 O692 2.322 . S
Ho672 O694 2.378 . S
Ho672 O695 2.524 . S
Ho672 O696 2.381 . S
Ho672 O697 2.669 . S
Ho672 O699 2.346 . S
Ho672 O703 2.305 . S
Ho673 C684 2.811 . S
Ho673 O693 2.346 . S
Ho673 O697 2.305 . S
Ho673 O698 2.322 . S
Ho673 O700 2.378 . S
Ho673 O701 2.524 . S
Ho673 O702 2.381 . S
Ho673 O703 2.669 . S
C674 O692 1.259 . S
C674 O693 1.268 . S
C675 Ho672 2.811 . S
C675 C676 1.488 . S
C675 O694 1.215 . S
C675 O695 1.289 . S
C676 C675 1.488 . S
C676 C677 1.348 . S
C676 C681 1.413 . S
C677 C676 1.348 . S
C677 C678 1.442 . S
C677 H704 0.930 . S
C678 C677 1.442 . S
C678 C679 1.381 . S
C678 H705 0.931 . S
C679 C678 1.381 . S
C679 C680 1.321 . S
C680 C679 1.321 . S
C680 C681 1.403 . S
C680 H706 0.934 . S
C681 C676 1.413 . S
C681 C680 1.403 . S
C681 H707 0.930 . S
C682 O696 1.275 . S
C682 O697 1.256 . S
C683 O698 1.259 . S
C683 O699 1.268 . S
C684 Ho673 2.811 . S
C684 C685 1.488 . S
C684 O700 1.215 . S
C684 O701 1.289 . S
C685 C684 1.488 . S
C685 C686 1.348 . S
C685 C690 1.413 . S
C686 C685 1.348 . S
C686 C687 1.442 . S
C686 H708 0.930 . S
C687 C686 1.442 . S
C687 C688 1.381 . S
C687 H709 0.931 . S
C688 C687 1.381 . S
C688 C689 1.321 . S
C689 C688 1.321 . S
C689 C690 1.403 . S
C689 H710 0.934 . S
C690 C685 1.413 . S
C690 C689 1.403 . S
C690 H711 0.930 . S
C691 O702 1.275 . S
C691 O703 1.256 . S
O692 Ho672 2.322 . S
O692 C674 1.259 . S
O693 Ho673 2.346 . S
O693 C674 1.268 . S
O694 Ho672 2.378 . S
O694 C675 1.215 . S
O695 Ho672 2.524 . S
O695 C675 1.289 . S
O696 Ho672 2.381 . S
O696 C682 1.275 . S
O697 Ho672 2.669 . S
O697 Ho673 2.305 . S
O697 C682 1.256 . S
O698 Ho673 2.322 . S
O698 C683 1.259 . S
O699 Ho672 2.346 . S
O699 C683 1.268 . S
O700 Ho673 2.378 . S
O700 C684 1.215 . S
O701 Ho673 2.524 . S
O701 C684 1.289 . S
O702 Ho673 2.381 . S
O702 C691 1.275 . S
O703 Ho672 2.305 . S
O703 Ho673 2.669 . S
O703 C691 1.256 . S
H704 C677 0.930 . S
H705 C678 0.931 . S
H706 C680 0.934 . S
H707 C681 0.930 . S
H708 C686 0.930 . S
H709 C687 0.931 . S
H710 C689 0.934 . S
H711 C690 0.930 . S
Ho712 C715 2.811 . S
Ho712 O732 2.322 . S
Ho712 O734 2.378 . S
Ho712 O735 2.524 . S
Ho712 O736 2.381 . S
Ho712 O737 2.669 . S
Ho712 O739 2.346 . S
Ho712 O743 2.305 . S
Ho713 C724 2.811 . S
Ho713 O733 2.346 . S
Ho713 O737 2.305 . S
Ho713 O738 2.322 . S
Ho713 O740 2.378 . S
Ho713 O741 2.524 . S
Ho713 O742 2.381 . S
Ho713 O743 2.669 . S
C714 O732 1.259 . S
C714 O733 1.268 . S
C715 Ho712 2.811 . S
C715 C716 1.488 . S
C715 O734 1.215 . S
C715 O735 1.289 . S
C716 C715 1.488 . S
C716 C717 1.348 . S
C716 C721 1.413 . S
C717 C716 1.348 . S
C717 C718 1.442 1_455 S
C717 H744 0.949 . S
C718 C717 1.442 1_655 S
C718 C719 1.381 . S
C718 H745 0.931 . S
C719 C718 1.381 . S
C719 C720 1.321 1_655 S
C720 C719 1.321 1_455 S
C720 C721 1.403 . S
C720 H746 0.934 . S
C721 C716 1.413 . S
C721 C720 1.403 . S
C721 H747 0.930 . S
C722 O736 1.275 . S
C722 O737 1.256 . S
C723 O738 1.259 . S
C723 O739 1.268 . S
C724 Ho713 2.811 . S
C724 C725 1.488 . S
C724 O740 1.215 . S
C724 O741 1.289 . S
C725 C724 1.488 . S
C725 C726 1.348 . S
C725 C730 1.413 . S
C726 C725 1.348 . S
C726 C727 1.442 . S
C726 H748 0.930 . S
C727 C726 1.442 . S
C727 C728 1.381 . S
C727 H749 0.931 . S
C728 C727 1.381 . S
C728 C729 1.321 . S
C729 C728 1.321 . S
C729 C730 1.403 . S
C729 H750 0.934 . S
C730 C725 1.413 . S
C730 C729 1.403 . S
C730 H751 0.930 . S
C731 O742 1.275 . S
C731 O743 1.256 . S
O732 Ho712 2.322 . S
O732 C714 1.259 . S
O733 Ho713 2.346 . S
O733 C714 1.268 . S
O734 Ho712 2.378 . S
O734 C715 1.215 . S
O735 Ho712 2.524 . S
O735 C715 1.289 . S
O736 Ho712 2.381 . S
O736 C722 1.275 . S
O737 Ho712 2.669 . S
O737 Ho713 2.305 . S
O737 C722 1.256 . S
O738 Ho713 2.322 . S
O738 C723 1.259 . S
O739 Ho712 2.346 . S
O739 C723 1.268 . S
O740 Ho713 2.378 . S
O740 C724 1.215 . S
O741 Ho713 2.524 . S
O741 C724 1.289 . S
O742 Ho713 2.381 . S
O742 C731 1.275 . S
O743 Ho712 2.305 . S
O743 Ho713 2.669 . S
O743 C731 1.256 . S
H744 C717 0.949 . S
H745 C718 0.931 . S
H746 C720 0.934 . S
H747 C721 0.930 . S
H748 C726 0.930 . S
H749 C727 0.931 . S
H750 C729 0.934 . S
H751 C730 0.930 . S
Ho752 C755 2.811 . S
Ho752 O772 2.322 . S
Ho752 O774 2.378 . S
Ho752 O775 2.524 . S
Ho752 O776 2.381 . S
Ho752 O777 2.669 . S
Ho752 O779 2.346 . S
Ho752 O783 2.305 . S
Ho753 C764 2.811 . S
Ho753 O773 2.346 . S
Ho753 O777 2.305 . S
Ho753 O778 2.322 . S
Ho753 O780 2.378 . S
Ho753 O781 2.524 . S
Ho753 O782 2.381 . S
Ho753 O783 2.669 . S
C754 O772 1.259 . S
C754 O773 1.268 . S
C755 Ho752 2.811 . S
C755 C756 1.488 . S
C755 O774 1.215 . S
C755 O775 1.289 . S
C756 C755 1.488 . S
C756 C757 1.348 . S
C756 C761 1.413 . S
C757 C756 1.348 . S
C757 C758 1.442 . S
C757 H784 0.930 . S
C758 C757 1.442 . S
C758 C759 1.381 . S
C758 H785 0.931 . S
C759 C758 1.381 . S
C759 C760 1.321 . S
C760 C759 1.321 . S
C760 C761 1.403 . S
C760 H786 0.934 . S
C761 C756 1.413 . S
C761 C760 1.403 . S
C761 H787 0.930 . S
C762 O776 1.275 . S
C762 O777 1.256 . S
C763 O778 1.259 . S
C763 O779 1.268 . S
C764 Ho753 2.811 . S
C764 C765 1.488 . S
C764 O780 1.215 . S
C764 O781 1.289 . S
C765 C764 1.488 . S
C765 C766 1.348 . S
C765 C770 1.413 . S
C766 C765 1.348 . S
C766 C767 1.442 . S
C766 H788 0.930 . S
C767 C766 1.442 . S
C767 C768 1.381 . S
C767 H789 0.931 . S
C768 C767 1.381 . S
C768 C769 1.321 . S
C769 C768 1.321 . S
C769 C770 1.403 . S
C769 H790 0.934 . S
C770 C765 1.413 . S
C770 C769 1.403 . S
C770 H791 0.930 . S
C771 O782 1.275 . S
C771 O783 1.256 . S
O772 Ho752 2.322 . S
O772 C754 1.259 . S
O773 Ho753 2.346 . S
O773 C754 1.268 . S
O774 Ho752 2.378 . S
O774 C755 1.215 . S
O775 Ho752 2.524 . S
O775 C755 1.289 . S
O776 Ho752 2.381 . S
O776 C762 1.275 . S
O777 Ho752 2.669 . S
O777 Ho753 2.305 . S
O777 C762 1.256 . S
O778 Ho753 2.322 . S
O778 C763 1.259 . S
O779 Ho752 2.346 . S
O779 C763 1.268 . S
O780 Ho753 2.378 . S
O780 C764 1.215 . S
O781 Ho753 2.524 . S
O781 C764 1.289 . S
O782 Ho753 2.381 . S
O782 C771 1.275 . S
O783 Ho752 2.305 . S
O783 Ho753 2.669 . S
O783 C771 1.256 . S
H784 C757 0.930 . S
H785 C758 0.931 . S
H786 C760 0.934 . S
H787 C761 0.930 . S
H788 C766 0.930 . S
H789 C767 0.931 . S
H790 C769 0.934 . S
H791 C770 0.930 . S
Ho792 C795 2.811 . S
Ho792 O812 2.322 . S
Ho792 O814 2.378 . S
Ho792 O815 2.524 . S
Ho792 O816 2.381 . S
Ho792 O817 2.669 . S
Ho792 O819 2.346 . S
Ho792 O823 2.305 . S
Ho793 C804 2.811 . S
Ho793 O813 2.346 . S
Ho793 O817 2.305 . S
Ho793 O818 2.322 . S
Ho793 O820 2.378 . S
Ho793 O821 2.524 . S
Ho793 O822 2.381 . S
Ho793 O823 2.669 . S
C794 O812 1.259 . S
C794 O813 1.268 . S
C795 Ho792 2.811 . S
C795 C796 1.488 . S
C795 O814 1.215 . S
C795 O815 1.289 . S
C796 C795 1.488 . S
C796 C797 1.348 . S
C796 C801 1.413 . S
C797 C796 1.348 . S
C797 C798 1.442 . S
C797 H824 0.930 . S
C798 C797 1.442 . S
C798 C799 1.381 . S
C798 H825 0.931 . S
C799 C798 1.381 . S
C799 C800 1.321 . S
C800 C799 1.321 . S
C800 C801 1.403 . S
C800 H826 0.934 . S
C801 C796 1.413 . S
C801 C800 1.403 . S
C801 H827 0.930 . S
C802 O816 1.275 . S
C802 O817 1.256 . S
C803 O818 1.259 . S
C803 O819 1.268 . S
C804 Ho793 2.811 . S
C804 C805 1.488 . S
C804 O820 1.215 . S
C804 O821 1.289 . S
C805 C804 1.488 . S
C805 C806 1.348 . S
C805 C810 1.413 . S
C806 C805 1.348 . S
C806 C807 1.442 . S
C806 H828 0.930 . S
C807 C806 1.442 . S
C807 C808 1.381 . S
C807 H829 0.931 . S
C808 C807 1.381 . S
C808 C809 1.321 . S
C809 C808 1.321 . S
C809 C810 1.403 . S
C809 H830 0.934 . S
C810 C805 1.413 . S
C810 C809 1.403 . S
C810 H831 0.930 . S
C811 O822 1.275 . S
C811 O823 1.256 . S
O812 Ho792 2.322 . S
O812 C794 1.259 . S
O813 Ho793 2.346 . S
O813 C794 1.268 . S
O814 Ho792 2.378 . S
O814 C795 1.215 . S
O815 Ho792 2.524 . S
O815 C795 1.289 . S
O816 Ho792 2.381 . S
O816 C802 1.275 . S
O817 Ho792 2.669 . S
O817 Ho793 2.305 . S
O817 C802 1.256 . S
O818 Ho793 2.322 . S
O818 C803 1.259 . S
O819 Ho792 2.346 . S
O819 C803 1.268 . S
O820 Ho793 2.378 . S
O820 C804 1.215 . S
O821 Ho793 2.524 . S
O821 C804 1.289 . S
O822 Ho793 2.381 . S
O822 C811 1.275 . S
O823 Ho792 2.305 . S
O823 Ho793 2.669 . S
O823 C811 1.256 . S
H824 C797 0.930 . S
H825 C798 0.931 . S
H826 C800 0.934 . S
H827 C801 0.930 . S
H828 C806 0.930 . S
H829 C807 0.931 . S
H830 C809 0.934 . S
H831 C810 0.930 . S
Ho832 C835 2.811 . S
Ho832 O852 2.322 . S
Ho832 O854 2.378 . S
Ho832 O855 2.524 . S
Ho832 O856 2.381 . S
Ho832 O857 2.669 . S
Ho832 O859 2.346 . S
Ho832 O863 2.305 . S
Ho833 C844 2.811 . S
Ho833 O853 2.346 . S
Ho833 O857 2.305 . S
Ho833 O858 2.322 . S
Ho833 O860 2.378 . S
Ho833 O861 2.524 . S
Ho833 O862 2.381 . S
Ho833 O863 2.669 . S
C834 O852 1.259 . S
C834 O853 1.268 . S
C835 Ho832 2.811 . S
C835 C836 1.488 . S
C835 O854 1.215 . S
C835 O855 1.289 . S
C836 C835 1.488 . S
C836 C837 1.348 . S
C836 C841 1.413 . S
C837 C836 1.348 . S
C837 C838 1.442 . S
C837 H864 0.930 . S
C838 C837 1.442 . S
C838 C839 1.381 . S
C838 H865 0.931 . S
C839 C838 1.381 . S
C839 C840 1.321 . S
C840 C839 1.321 . S
C840 C841 1.403 . S
C840 H866 0.934 . S
C841 C836 1.413 . S
C841 C840 1.403 . S
C841 H867 0.930 . S
C842 O856 1.275 . S
C842 O857 1.256 . S
C843 O858 1.259 . S
C843 O859 1.268 . S
C844 Ho833 2.811 . S
C844 C845 1.488 . S
C844 O860 1.215 . S
C844 O861 1.289 . S
C845 C844 1.488 . S
C845 C846 1.348 . S
C845 C850 1.413 . S
C846 C845 1.348 . S
C846 C847 1.442 . S
C846 H868 0.930 . S
C847 C846 1.442 . S
C847 C848 1.381 . S
C847 H869 0.931 . S
C848 C847 1.381 . S
C848 C849 1.321 . S
C849 C848 1.321 . S
C849 C850 1.403 . S
C849 H870 0.934 . S
C850 C845 1.413 . S
C850 C849 1.403 . S
C850 H871 0.930 . S
C851 O862 1.275 . S
C851 O863 1.256 . S
O852 Ho832 2.322 . S
O852 C834 1.259 . S
O853 Ho833 2.346 . S
O853 C834 1.268 . S
O854 Ho832 2.378 . S
O854 C835 1.215 . S
O855 Ho832 2.524 . S
O855 C835 1.289 . S
O856 Ho832 2.381 . S
O856 C842 1.275 . S
O857 Ho832 2.669 . S
O857 Ho833 2.305 . S
O857 C842 1.256 . S
O858 Ho833 2.322 . S
O858 C843 1.259 . S
O859 Ho832 2.346 . S
O859 C843 1.268 . S
O860 Ho833 2.378 . S
O860 C844 1.215 . S
O861 Ho833 2.524 . S
O861 C844 1.289 . S
O862 Ho833 2.381 . S
O862 C851 1.275 . S
O863 Ho832 2.305 . S
O863 Ho833 2.669 . S
O863 C851 1.256 . S
H864 C837 0.930 . S
H865 C838 0.931 . S
H866 C840 0.934 . S
H867 C841 0.930 . S
H868 C846 0.930 . S
H869 C847 0.931 . S
H870 C849 0.934 . S
H871 C850 0.930 . S
Ho872 C875 2.811 . S
Ho872 O892 2.322 . S
Ho872 O894 2.378 . S
Ho872 O895 2.524 . S
Ho872 O896 2.381 . S
Ho872 O897 2.669 . S
Ho872 O899 2.346 . S
Ho872 O903 2.305 . S
Ho873 C884 2.811 . S
Ho873 O893 2.346 . S
Ho873 O897 2.305 . S
Ho873 O898 2.322 . S
Ho873 O900 2.378 . S
Ho873 O901 2.524 . S
Ho873 O902 2.381 . S
Ho873 O903 2.669 . S
C874 O892 1.259 . S
C874 O893 1.268 . S
C875 Ho872 2.811 . S
C875 C876 1.488 . S
C875 O894 1.215 . S
C875 O895 1.289 . S
C876 C875 1.488 . S
C876 C877 1.348 . S
C876 C881 1.413 . S
C877 C876 1.348 . S
C877 C878 1.442 . S
C877 H904 0.930 . S
C878 C877 1.442 . S
C878 C879 1.381 . S
C878 H905 0.931 . S
C879 C878 1.381 . S
C879 C880 1.321 . S
C880 C879 1.321 . S
C880 C881 1.403 . S
C880 H906 0.934 . S
C881 C876 1.413 . S
C881 C880 1.403 . S
C881 H907 0.930 . S
C882 O896 1.275 . S
C882 O897 1.256 . S
C883 O898 1.259 . S
C883 O899 1.268 . S
C884 Ho873 2.811 . S
C884 C885 1.488 . S
C884 O900 1.215 . S
C884 O901 1.289 . S
C885 C884 1.488 . S
C885 C886 1.348 . S
C885 C890 1.413 . S
C886 C885 1.348 . S
C886 C887 1.442 . S
C886 H908 0.930 . S
C887 C886 1.442 . S
C887 C888 1.381 . S
C887 H909 0.931 . S
C888 C887 1.381 . S
C888 C889 1.321 . S
C889 C888 1.321 . S
C889 C890 1.403 . S
C889 H910 0.934 . S
C890 C885 1.413 . S
C890 C889 1.403 . S
C890 H911 0.930 . S
C891 O902 1.275 . S
C891 O903 1.256 . S
O892 Ho872 2.322 . S
O892 C874 1.259 . S
O893 Ho873 2.346 . S
O893 C874 1.268 . S
O894 Ho872 2.378 . S
O894 C875 1.215 . S
O895 Ho872 2.524 . S
O895 C875 1.289 . S
O896 Ho872 2.381 . S
O896 C882 1.275 . S
O897 Ho872 2.669 . S
O897 Ho873 2.305 . S
O897 C882 1.256 . S
O898 Ho873 2.322 . S
O898 C883 1.259 . S
O899 Ho872 2.346 . S
O899 C883 1.268 . S
O900 Ho873 2.378 . S
O900 C884 1.215 . S
O901 Ho873 2.524 . S
O901 C884 1.289 . S
O902 Ho873 2.381 . S
O902 C891 1.275 . S
O903 Ho872 2.305 . S
O903 Ho873 2.669 . S
O903 C891 1.256 . S
H904 C877 0.930 . S
H905 C878 0.931 . S
H906 C880 0.934 . S
H907 C881 0.930 . S
H908 C886 0.930 . S
H909 C887 0.931 . S
H910 C889 0.934 . S
H911 C890 0.930 . S
Ho912 C915 2.811 . S
Ho912 O932 2.322 . S
Ho912 O934 2.378 . S
Ho912 O935 2.524 1_556 S
Ho912 O936 2.381 . S
Ho912 O937 2.669 . S
Ho912 O939 2.346 1_556 S
Ho912 O943 2.305 1_556 S
Ho913 C924 2.811 1_455 S
Ho913 O933 2.346 . S
Ho913 O937 2.305 1_554 S
Ho913 O938 2.322 . S
Ho913 O940 2.378 1_455 S
Ho913 O941 2.524 1_455 S
Ho913 O942 2.381 . S
Ho913 O943 2.669 . S
C914 O932 1.259 . S
C914 O933 1.268 1_556 S
C915 Ho912 2.811 . S
C915 C916 1.488 . S
C915 O934 1.215 . S
C915 O935 1.289 1_556 S
C916 C915 1.488 . S
C916 C917 1.348 1_556 S
C916 C921 1.413 . S
C917 C916 1.348 1_554 S
C917 C918 1.442 1_554 S
C917 H944 0.930 . S
C918 C917 1.442 1_556 S
C918 C919 1.381 . S
C918 H945 0.931 1_556 S
C919 C918 1.381 . S
C919 C920 1.321 . S
C920 C919 1.321 . S
C920 C921 1.403 . S
C920 H946 0.934 . S
C921 C916 1.413 . S
C921 C920 1.403 . S
C921 H947 0.930 . S
C922 O936 1.275 . S
C922 O937 1.256 . S
C923 O938 1.259 . S
C923 O939 1.268 . S
C924 Ho913 2.811 1_655 S
C924 C925 1.488 . S
C924 O940 1.215 . S
C924 O941 1.289 . S
C925 C924 1.488 . S
C925 C926 1.348 . S
C925 C930 1.413 . S
C926 C925 1.348 . S
C926 C927 1.442 . S
C926 H948 0.949 . S
C927 C926 1.442 . S
C927 C928 1.381 . S
C927 H949 0.931 . S
C928 C927 1.381 . S
C928 C929 1.321 . S
C929 C928 1.321 . S
C929 C930 1.403 . S
C929 H950 0.934 . S
C930 C925 1.413 . S
C930 C929 1.403 . S
C930 H951 0.930 . S
C931 O942 1.275 . S
C931 O943 1.256 . S
O932 Ho912 2.322 . S
O932 C914 1.259 . S
O933 Ho913 2.346 . S
O933 C914 1.268 1_554 S
O934 Ho912 2.378 . S
O934 C915 1.215 . S
O935 Ho912 2.524 1_554 S
O935 C915 1.289 1_554 S
O936 Ho912 2.381 . S
O936 C922 1.275 . S
O937 Ho912 2.669 . S
O937 Ho913 2.305 1_556 S
O937 C922 1.256 . S
O938 Ho913 2.322 . S
O938 C923 1.259 . S
O939 Ho912 2.346 1_554 S
O939 C923 1.268 . S
O940 Ho913 2.378 1_655 S
O940 C924 1.215 . S
O941 Ho913 2.524 1_655 S
O941 C924 1.289 . S
O942 Ho913 2.381 . S
O942 C931 1.275 . S
O943 Ho912 2.305 1_554 S
O943 Ho913 2.669 . S
O943 C931 1.256 . S
H944 C917 0.930 . S
H945 C918 0.931 1_554 S
H946 C920 0.934 . S
H947 C921 0.930 . S
H948 C926 0.949 . S
H949 C927 0.931 . S
H950 C929 0.934 . S
H951 C930 0.930 . S
H952 C970 0.951 . S
H953 C972 0.951 . S
H954 C974 0.950 . S
H955 C975 0.950 . S
H956 C977 0.950 . S
H957 C980 0.950 . S
H958 C981 0.950 . S
H959 C983 0.950 . S
H960 C984 0.950 . S
H961 C985 0.951 . S
H962 C987 0.951 . S
H963 C989 0.950 . S
H964 C990 0.950 . S
H965 C992 0.950 1_655 S
H966 C995 0.950 . S
H967 C996 0.950 . S
H968 C998 0.950 . S
H969 C999 0.950 . S
C970 H952 0.951 . S
C970 C971 1.366 . S
C970 C972 1.388 . S
C971 C970 1.366 . S
C971 C975 1.385 . S
C972 H953 0.951 . S
C972 C970 1.388 . S
C972 C973 1.366 . S
C973 C972 1.366 . S
C973 C974 1.414 . S
C973 C976 1.499 . S
C974 H954 0.950 . S
C974 C973 1.414 . S
C974 C975 1.374 . S
C975 H955 0.950 . S
C975 C971 1.385 . S
C975 C974 1.374 . S
C976 C973 1.499 . S
C976 C977 1.373 . S
C976 C978 1.389 . S
C977 H956 0.950 . S
C977 C976 1.373 . S
C977 C993 1.377 . S
C978 C976 1.389 . S
C978 C979 1.524 1_455 S
C978 C992 1.377 . S
C979 C978 1.524 1_655 S
C979 C980 1.397 . S
C979 C984 1.363 . S
C980 H957 0.950 . S
C980 C979 1.397 . S
C980 C981 1.334 . S
C981 H958 0.950 . S
C981 C980 1.334 . S
C981 C982 1.287 . S
C982 C981 1.287 . S
C982 C983 1.524 . S
C982 H1001 0.913 . S
C983 H959 0.950 . S
C983 C982 1.524 . S
C983 C984 1.415 . S
C984 H960 0.950 . S
C984 C979 1.363 . S
C984 C983 1.415 . S
C985 H961 0.951 . S
C985 C986 1.366 1_554 S
C985 C987 1.388 . S
C986 C985 1.366 1_556 S
C986 C990 1.385 . S
C987 H962 0.951 . S
C987 C985 1.388 . S
C987 C988 1.366 1_554 S
C988 C987 1.366 1_556 S
C988 C989 1.414 . S
C988 C991 1.499 . S
C989 H963 0.950 . S
C989 C988 1.414 . S
C989 C990 1.374 . S
C990 H964 0.950 . S
C990 C986 1.385 . S
C990 C989 1.374 . S
C991 C988 1.499 . S
C991 C992 1.373 . S
C991 C993 1.389 . S
C992 H965 0.950 1_455 S
C992 C978 1.377 . S
C992 C991 1.373 . S
C993 C977 1.377 . S
C993 C991 1.389 . S
C993 C994 1.524 . S
C994 C993 1.524 . S
C994 C995 1.397 . S
C994 C999 1.363 1_556 S
C995 H966 0.950 . S
C995 C994 1.397 . S
C995 C996 1.334 . S
C996 H967 0.950 . S
C996 C995 1.334 . S
C996 C997 1.287 1_556 S
C997 C996 1.287 1_554 S
C997 C998 1.524 . S
C997 H1000 0.999 . S
C998 H968 0.950 . S
C998 C997 1.524 . S
C998 C999 1.415 . S
C999 H969 0.950 . S
C999 C994 1.363 1_554 S
C999 C998 1.415 . S
H1000 C997 0.999 . S
H1001 C982 0.913 . S
H1002 C1020 0.951 . S
H1003 C1022 0.951 . S
H1004 C1024 0.950 . S
H1005 C1025 0.950 . S
H1006 C1027 0.950 . S
H1007 C1030 0.950 . S
H1008 C1031 0.950 . S
H1009 C1033 0.950 . S
H1010 C1034 0.950 . S
H1011 C1035 0.951 . S
H1012 C1037 0.951 . S
H1013 C1039 0.950 . S
H1014 C1040 0.950 . S
H1015 C1042 0.950 . S
H1016 C1045 0.950 . S
H1017 C1046 0.950 . S
H1018 C1048 0.950 . S
H1019 C1049 0.950 . S
C1020 H1002 0.951 . S
C1020 C1021 1.366 . S
C1020 C1022 1.388 . S
C1021 C1020 1.366 . S
C1021 C1025 1.385 . S
C1022 H1003 0.951 . S
C1022 C1020 1.388 . S
C1022 C1023 1.366 . S
C1023 C1022 1.366 . S
C1023 C1024 1.414 . S
C1023 C1026 1.499 . S
C1024 H1004 0.950 . S
C1024 C1023 1.414 . S
C1024 C1025 1.374 . S
C1025 H1005 0.950 . S
C1025 C1021 1.385 . S
C1025 C1024 1.374 . S
C1026 C1023 1.499 . S
C1026 C1027 1.373 . S
C1026 C1028 1.389 . S
C1027 H1006 0.950 . S
C1027 C1026 1.373 . S
C1027 C1043 1.377 . S
C1028 C1026 1.389 . S
C1028 C1029 1.524 . S
C1028 C1042 1.377 . S
C1029 C1028 1.524 . S
C1029 C1030 1.397 . S
C1029 C1034 1.363 . S
C1030 H1007 0.950 . S
C1030 C1029 1.397 . S
C1030 C1031 1.334 . S
C1031 H1008 0.950 . S
C1031 C1030 1.334 . S
C1031 C1032 1.287 . S
C1032 C1031 1.287 . S
C1032 C1033 1.524 . S
C1032 H1051 0.913 . S
C1033 H1009 0.950 . S
C1033 C1032 1.524 . S
C1033 C1034 1.415 . S
C1034 H1010 0.950 . S
C1034 C1029 1.363 . S
C1034 C1033 1.415 . S
C1035 H1011 0.951 . S
C1035 C1036 1.366 . S
C1035 C1037 1.388 . S
C1036 C1035 1.366 . S
C1036 C1040 1.385 . S
C1037 H1012 0.951 . S
C1037 C1035 1.388 . S
C1037 C1038 1.366 . S
C1038 C1037 1.366 . S
C1038 C1039 1.414 . S
C1038 C1041 1.499 . S
C1039 H1013 0.950 . S
C1039 C1038 1.414 . S
C1039 C1040 1.374 . S
C1040 H1014 0.950 . S
C1040 C1036 1.385 . S
C1040 C1039 1.374 . S
C1041 C1038 1.499 . S
C1041 C1042 1.373 . S
C1041 C1043 1.389 . S
C1042 H1015 0.950 . S
C1042 C1028 1.377 . S
C1042 C1041 1.373 . S
C1043 C1027 1.377 . S
C1043 C1041 1.389 . S
C1043 C1044 1.524 . S
C1044 C1043 1.524 . S
C1044 C1045 1.397 . S
C1044 C1049 1.363 . S
C1045 H1016 0.950 . S
C1045 C1044 1.397 . S
C1045 C1046 1.334 . S
C1046 H1017 0.950 . S
C1046 C1045 1.334 . S
C1046 C1047 1.287 . S
C1047 C1046 1.287 . S
C1047 C1048 1.524 . S
C1047 H1050 0.999 . S
C1048 H1018 0.950 . S
C1048 C1047 1.524 . S
C1048 C1049 1.415 . S
C1049 H1019 0.950 . S
C1049 C1044 1.363 . S
C1049 C1048 1.415 . S
H1050 C1047 0.999 . S
H1051 C1032 0.913 . S
H1052 C1070 0.951 . S
H1053 C1072 0.951 . S
H1054 C1074 0.950 . S
H1055 C1075 0.950 . S
H1056 C1077 0.950 . S
H1057 C1080 0.950 . S
H1058 C1081 0.950 . S
H1059 C1083 0.950 . S
H1060 C1084 0.950 . S
H1061 C1085 0.951 . S
H1062 C1087 0.951 . S
H1063 C1089 0.950 . S
H1064 C1090 0.950 . S
H1065 C1092 0.950 . S
H1066 C1095 0.950 . S
H1067 C1096 0.950 . S
H1068 C1098 0.950 . S
H1069 C1099 0.950 . S
C1070 H1052 0.951 . S
C1070 C1071 1.366 . S
C1070 C1072 1.388 . S
C1071 C1070 1.366 . S
C1071 C1075 1.385 . S
C1072 H1053 0.951 . S
C1072 C1070 1.388 . S
C1072 C1073 1.366 . S
C1073 C1072 1.366 . S
C1073 C1074 1.414 . S
C1073 C1076 1.499 . S
C1074 H1054 0.950 . S
C1074 C1073 1.414 . S
C1074 C1075 1.374 . S
C1075 H1055 0.950 . S
C1075 C1071 1.385 . S
C1075 C1074 1.374 . S
C1076 C1073 1.499 . S
C1076 C1077 1.373 . S
C1076 C1078 1.389 . S
C1077 H1056 0.950 . S
C1077 C1076 1.373 . S
C1077 C1093 1.377 . S
C1078 C1076 1.389 . S
C1078 C1079 1.524 . S
C1078 C1092 1.377 . S
C1079 C1078 1.524 . S
C1079 C1080 1.397 . S
C1079 C1084 1.363 . S
C1080 H1057 0.950 . S
C1080 C1079 1.397 . S
C1080 C1081 1.334 . S
C1081 H1058 0.950 . S
C1081 C1080 1.334 . S
C1081 C1082 1.287 . S
C1082 C1081 1.287 . S
C1082 C1083 1.524 . S
C1082 H1101 0.913 . S
C1083 H1059 0.950 . S
C1083 C1082 1.524 . S
C1083 C1084 1.415 . S
C1084 H1060 0.950 . S
C1084 C1079 1.363 . S
C1084 C1083 1.415 . S
C1085 H1061 0.951 . S
C1085 C1086 1.366 . S
C1085 C1087 1.388 . S
C1086 C1085 1.366 . S
C1086 C1090 1.385 . S
C1087 H1062 0.951 . S
C1087 C1085 1.388 . S
C1087 C1088 1.366 . S
C1088 C1087 1.366 . S
C1088 C1089 1.414 . S
C1088 C1091 1.499 . S
C1089 H1063 0.950 . S
C1089 C1088 1.414 . S
C1089 C1090 1.374 . S
C1090 H1064 0.950 . S
C1090 C1086 1.385 . S
C1090 C1089 1.374 . S
C1091 C1088 1.499 . S
C1091 C1092 1.373 . S
C1091 C1093 1.389 . S
C1092 H1065 0.950 . S
C1092 C1078 1.377 . S
C1092 C1091 1.373 . S
C1093 C1077 1.377 . S
C1093 C1091 1.389 . S
C1093 C1094 1.524 . S
C1094 C1093 1.524 . S
C1094 C1095 1.397 . S
C1094 C1099 1.363 . S
C1095 H1066 0.950 . S
C1095 C1094 1.397 . S
C1095 C1096 1.334 . S
C1096 H1067 0.950 . S
C1096 C1095 1.334 . S
C1096 C1097 1.287 . S
C1097 C1096 1.287 . S
C1097 C1098 1.524 . S
C1097 H1100 0.999 . S
C1098 H1068 0.950 . S
C1098 C1097 1.524 . S
C1098 C1099 1.415 . S
C1099 H1069 0.950 . S
C1099 C1094 1.363 . S
C1099 C1098 1.415 . S
H1100 C1097 0.999 . S
H1101 C1082 0.913 . S
H1102 C1120 0.951 . S
H1103 C1122 0.951 . S
H1104 C1124 0.950 . S
H1105 C1125 0.950 . S
H1106 C1127 0.950 . S
H1107 C1130 0.950 . S
H1108 C1131 0.950 . S
H1109 C1133 0.950 . S
H1110 C1134 0.950 . S
H1111 C1135 0.951 . S
H1112 C1137 0.951 . S
H1113 C1139 0.950 . S
H1114 C1140 0.950 . S
H1115 C1142 0.950 . S
H1116 C1145 0.950 . S
H1117 C1146 0.950 . S
H1118 C1148 0.950 . S
H1119 C1149 0.950 . S
C1120 H1102 0.951 . S
C1120 C1121 1.366 . S
C1120 C1122 1.388 . S
C1121 C1120 1.366 . S
C1121 C1125 1.385 . S
C1122 H1103 0.951 . S
C1122 C1120 1.388 . S
C1122 C1123 1.366 . S
C1123 C1122 1.366 . S
C1123 C1124 1.414 . S
C1123 C1126 1.499 . S
C1124 H1104 0.950 . S
C1124 C1123 1.414 . S
C1124 C1125 1.374 . S
C1125 H1105 0.950 . S
C1125 C1121 1.385 . S
C1125 C1124 1.374 . S
C1126 C1123 1.499 . S
C1126 C1127 1.373 . S
C1126 C1128 1.389 . S
C1127 H1106 0.950 . S
C1127 C1126 1.373 . S
C1127 C1143 1.377 . S
C1128 C1126 1.389 . S
C1128 C1129 1.524 . S
C1128 C1142 1.377 . S
C1129 C1128 1.524 . S
C1129 C1130 1.397 . S
C1129 C1134 1.363 . S
C1130 H1107 0.950 . S
C1130 C1129 1.397 . S
C1130 C1131 1.334 . S
C1131 H1108 0.950 . S
C1131 C1130 1.334 . S
C1131 C1132 1.287 . S
C1132 C1131 1.287 . S
C1132 C1133 1.524 . S
C1132 H1151 0.913 . S
C1133 H1109 0.950 . S
C1133 C1132 1.524 . S
C1133 C1134 1.415 . S
C1134 H1110 0.950 . S
C1134 C1129 1.363 . S
C1134 C1133 1.415 . S
C1135 H1111 0.951 . S
C1135 C1136 1.366 . S
C1135 C1137 1.388 . S
C1136 C1135 1.366 . S
C1136 C1140 1.385 . S
C1137 H1112 0.951 . S
C1137 C1135 1.388 . S
C1137 C1138 1.366 . S
C1138 C1137 1.366 . S
C1138 C1139 1.414 . S
C1138 C1141 1.499 . S
C1139 H1113 0.950 . S
C1139 C1138 1.414 . S
C1139 C1140 1.374 . S
C1140 H1114 0.950 . S
C1140 C1136 1.385 . S
C1140 C1139 1.374 . S
C1141 C1138 1.499 . S
C1141 C1142 1.373 . S
C1141 C1143 1.389 . S
C1142 H1115 0.950 . S
C1142 C1128 1.377 . S
C1142 C1141 1.373 . S
C1143 C1127 1.377 . S
C1143 C1141 1.389 . S
C1143 C1144 1.524 . S
C1144 C1143 1.524 . S
C1144 C1145 1.397 . S
C1144 C1149 1.363 . S
C1145 H1116 0.950 . S
C1145 C1144 1.397 . S
C1145 C1146 1.334 . S
C1146 H1117 0.950 . S
C1146 C1145 1.334 . S
C1146 C1147 1.287 . S
C1147 C1146 1.287 . S
C1147 C1148 1.524 . S
C1147 H1150 0.999 . S
C1148 H1118 0.950 . S
C1148 C1147 1.524 . S
C1148 C1149 1.415 . S
C1149 H1119 0.950 . S
C1149 C1144 1.363 . S
C1149 C1148 1.415 . S
H1150 C1147 0.999 . S
H1151 C1132 0.913 . S
H1152 C1170 0.951 . S
H1153 C1172 0.951 . S
H1154 C1174 0.950 . S
H1155 C1175 0.950 . S
H1156 C1177 0.950 . S
H1157 C1180 0.950 1_455 S
H1158 C1181 0.950 . S
H1159 C1183 0.950 . S
H1160 C1184 0.950 . S
H1161 C1185 0.951 . S
H1162 C1187 0.951 . S
H1163 C1189 0.950 . S
H1164 C1190 0.950 . S
H1165 C1192 0.950 . S
H1166 C1195 0.950 . S
H1167 C1196 0.950 . S
H1168 C1198 0.950 . S
H1169 C1199 0.950 . S
C1170 H1152 0.951 . S
C1170 C1171 1.366 1_655 S
C1170 C1172 1.388 . S
C1171 C1170 1.366 1_455 S
C1171 C1175 1.385 . S
C1172 H1153 0.951 . S
C1172 C1170 1.388 . S
C1172 C1173 1.366 1_655 S
C1173 C1172 1.366 1_455 S
C1173 C1174 1.414 . S
C1173 C1176 1.499 . S
C1174 H1154 0.950 . S
C1174 C1173 1.414 . S
C1174 C1175 1.374 . S
C1175 H1155 0.950 . S
C1175 C1171 1.385 . S
C1175 C1174 1.374 . S
C1176 C1173 1.499 . S
C1176 C1177 1.373 . S
C1176 C1178 1.389 . S
C1177 H1156 0.950 . S
C1177 C1176 1.373 . S
C1177 C1193 1.377 . S
C1178 C1176 1.389 . S
C1178 C1179 1.524 1_455 S
C1178 C1192 1.377 . S
C1179 C1178 1.524 1_655 S
C1179 C1180 1.397 . S
C1179 C1184 1.363 . S
C1180 H1157 0.950 1_655 S
C1180 C1179 1.397 . S
C1180 C1181 1.334 . S
C1181 H1158 0.950 . S
C1181 C1180 1.334 . S
C1181 C1182 1.287 . S
C1182 C1181 1.287 . S
C1182 C1183 1.524 . S
C1182 H1201 0.913 . S
C1183 H1159 0.950 . S
C1183 C1182 1.524 . S
C1183 C1184 1.415 . S
C1184 H1160 0.950 . S
C1184 C1179 1.363 . S
C1184 C1183 1.415 . S
C1185 H1161 0.951 . S
C1185 C1186 1.366 . S
C1185 C1187 1.388 . S
C1186 C1185 1.366 . S
C1186 C1190 1.385 . S
C1187 H1162 0.951 . S
C1187 C1185 1.388 . S
C1187 C1188 1.366 . S
C1188 C1187 1.366 . S
C1188 C1189 1.414 . S
C1188 C1191 1.499 . S
C1189 H1163 0.950 . S
C1189 C1188 1.414 . S
C1189 C1190 1.374 . S
C1190 H1164 0.950 . S
C1190 C1186 1.385 . S
C1190 C1189 1.374 . S
C1191 C1188 1.499 . S
C1191 C1192 1.373 . S
C1191 C1193 1.389 . S
C1192 H1165 0.950 . S
C1192 C1178 1.377 . S
C1192 C1191 1.373 . S
C1193 C1177 1.377 . S
C1193 C1191 1.389 . S
C1193 C1194 1.524 . S
C1194 C1193 1.524 . S
C1194 C1195 1.397 . S
C1194 C1199 1.363 . S
C1195 H1166 0.950 . S
C1195 C1194 1.397 . S
C1195 C1196 1.334 . S
C1196 H1167 0.950 . S
C1196 C1195 1.334 . S
C1196 C1197 1.287 . S
C1197 C1196 1.287 . S
C1197 C1198 1.524 . S
C1197 H1200 0.999 . S
C1198 H1168 0.950 . S
C1198 C1197 1.524 . S
C1198 C1199 1.415 . S
C1199 H1169 0.950 . S
C1199 C1194 1.363 . S
C1199 C1198 1.415 . S
H1200 C1197 0.999 . S
H1201 C1182 0.913 . S
H1202 C1220 0.951 . S
H1203 C1222 0.951 . S
H1204 C1224 0.950 . S
H1205 C1225 0.950 . S
H1206 C1227 0.950 . S
H1207 C1230 0.950 . S
H1208 C1231 0.950 . S
H1209 C1233 0.950 . S
H1210 C1234 0.950 . S
H1211 C1235 0.951 . S
H1212 C1237 0.951 . S
H1213 C1239 0.950 . S
H1214 C1240 0.950 . S
H1215 C1242 0.950 . S
H1216 C1245 0.950 . S
H1217 C1246 0.950 . S
H1218 C1248 0.950 . S
H1219 C1249 0.950 . S
C1220 H1202 0.951 . S
C1220 C1221 1.366 . S
C1220 C1222 1.388 . S
C1221 C1220 1.366 . S
C1221 C1225 1.385 . S
C1222 H1203 0.951 . S
C1222 C1220 1.388 . S
C1222 C1223 1.366 . S
C1223 C1222 1.366 . S
C1223 C1224 1.414 . S
C1223 C1226 1.499 . S
C1224 H1204 0.950 . S
C1224 C1223 1.414 . S
C1224 C1225 1.374 . S
C1225 H1205 0.950 . S
C1225 C1221 1.385 . S
C1225 C1224 1.374 . S
C1226 C1223 1.499 . S
C1226 C1227 1.373 . S
C1226 C1228 1.389 . S
C1227 H1206 0.950 . S
C1227 C1226 1.373 . S
C1227 C1243 1.377 . S
C1228 C1226 1.389 . S
C1228 C1229 1.524 . S
C1228 C1242 1.377 . S
C1229 C1228 1.524 . S
C1229 C1230 1.397 . S
C1229 C1234 1.363 . S
C1230 H1207 0.950 . S
C1230 C1229 1.397 . S
C1230 C1231 1.334 . S
C1231 H1208 0.950 . S
C1231 C1230 1.334 . S
C1231 C1232 1.287 . S
C1232 C1231 1.287 . S
C1232 C1233 1.524 . S
C1232 H1251 0.913 . S
C1233 H1209 0.950 . S
C1233 C1232 1.524 . S
C1233 C1234 1.415 . S
C1234 H1210 0.950 . S
C1234 C1229 1.363 . S
C1234 C1233 1.415 . S
C1235 H1211 0.951 . S
C1235 C1236 1.366 . S
C1235 C1237 1.388 . S
C1236 C1235 1.366 . S
C1236 C1240 1.385 . S
C1237 H1212 0.951 . S
C1237 C1235 1.388 . S
C1237 C1238 1.366 . S
C1238 C1237 1.366 . S
C1238 C1239 1.414 . S
C1238 C1241 1.499 . S
C1239 H1213 0.950 . S
C1239 C1238 1.414 . S
C1239 C1240 1.374 . S
C1240 H1214 0.950 . S
C1240 C1236 1.385 . S
C1240 C1239 1.374 . S
C1241 C1238 1.499 . S
C1241 C1242 1.373 . S
C1241 C1243 1.389 . S
C1242 H1215 0.950 . S
C1242 C1228 1.377 . S
C1242 C1241 1.373 . S
C1243 C1227 1.377 . S
C1243 C1241 1.389 . S
C1243 C1244 1.524 . S
C1244 C1243 1.524 . S
C1244 C1245 1.397 . S
C1244 C1249 1.363 . S
C1245 H1216 0.950 . S
C1245 C1244 1.397 . S
C1245 C1246 1.334 . S
C1246 H1217 0.950 . S
C1246 C1245 1.334 . S
C1246 C1247 1.287 . S
C1247 C1246 1.287 . S
C1247 C1248 1.524 . S
C1247 H1250 0.999 . S
C1248 H1218 0.950 . S
C1248 C1247 1.524 . S
C1248 C1249 1.415 . S
C1249 H1219 0.950 . S
C1249 C1244 1.363 . S
C1249 C1248 1.415 . S
H1250 C1247 0.999 . S
H1251 C1232 0.913 . S
H1252 C1270 0.951 . S
H1253 C1272 0.951 . S
H1254 C1274 0.950 . S
H1255 C1275 0.950 . S
H1256 C1277 0.950 . S
H1257 C1280 0.950 . S
H1258 C1281 0.950 . S
H1259 C1283 0.950 . S
H1260 C1284 0.950 . S
H1261 C1285 0.951 . S
H1262 C1287 0.951 . S
H1263 C1289 0.950 . S
H1264 C1290 0.950 . S
H1265 C1292 0.950 . S
H1266 C1295 0.950 . S
H1267 C1296 0.950 . S
H1268 C1298 0.950 . S
H1269 C1299 0.950 . S
C1270 H1252 0.951 . S
C1270 C1271 1.366 . S
C1270 C1272 1.388 . S
C1271 C1270 1.366 . S
C1271 C1275 1.385 . S
C1272 H1253 0.951 . S
C1272 C1270 1.388 . S
C1272 C1273 1.366 . S
C1273 C1272 1.366 . S
C1273 C1274 1.414 . S
C1273 C1276 1.499 . S
C1274 H1254 0.950 . S
C1274 C1273 1.414 . S
C1274 C1275 1.374 . S
C1275 H1255 0.950 . S
C1275 C1271 1.385 . S
C1275 C1274 1.374 . S
C1276 C1273 1.499 . S
C1276 C1277 1.373 . S
C1276 C1278 1.389 . S
C1277 H1256 0.950 . S
C1277 C1276 1.373 . S
C1277 C1293 1.377 . S
C1278 C1276 1.389 . S
C1278 C1279 1.524 . S
C1278 C1292 1.377 . S
C1279 C1278 1.524 . S
C1279 C1280 1.397 . S
C1279 C1284 1.363 . S
C1280 H1257 0.950 . S
C1280 C1279 1.397 . S
C1280 C1281 1.334 . S
C1281 H1258 0.950 . S
C1281 C1280 1.334 . S
C1281 C1282 1.287 . S
C1282 C1281 1.287 . S
C1282 C1283 1.524 . S
C1282 H1301 0.913 . S
C1283 H1259 0.950 . S
C1283 C1282 1.524 . S
C1283 C1284 1.415 . S
C1284 H1260 0.950 . S
C1284 C1279 1.363 . S
C1284 C1283 1.415 . S
C1285 H1261 0.951 . S
C1285 C1286 1.366 . S
C1285 C1287 1.388 . S
C1286 C1285 1.366 . S
C1286 C1290 1.385 . S
C1287 H1262 0.951 . S
C1287 C1285 1.388 . S
C1287 C1288 1.366 . S
C1288 C1287 1.366 . S
C1288 C1289 1.414 . S
C1288 C1291 1.499 . S
C1289 H1263 0.950 . S
C1289 C1288 1.414 . S
C1289 C1290 1.374 . S
C1290 H1264 0.950 . S
C1290 C1286 1.385 . S
C1290 C1289 1.374 . S
C1291 C1288 1.499 . S
C1291 C1292 1.373 . S
C1291 C1293 1.389 . S
C1292 H1265 0.950 . S
C1292 C1278 1.377 . S
C1292 C1291 1.373 . S
C1293 C1277 1.377 . S
C1293 C1291 1.389 . S
C1293 C1294 1.524 . S
C1294 C1293 1.524 . S
C1294 C1295 1.397 . S
C1294 C1299 1.363 . S
C1295 H1266 0.950 . S
C1295 C1294 1.397 . S
C1295 C1296 1.334 . S
C1296 H1267 0.950 . S
C1296 C1295 1.334 . S
C1296 C1297 1.287 . S
C1297 C1296 1.287 . S
C1297 C1298 1.524 . S
C1297 H1300 0.999 . S
C1298 H1268 0.950 . S
C1298 C1297 1.524 . S
C1298 C1299 1.415 . S
C1299 H1269 0.950 . S
C1299 C1294 1.363 . S
C1299 C1298 1.415 . S
H1300 C1297 0.999 . S
H1301 C1282 0.913 . S
H1302 C1320 0.951 . S
H1303 C1322 0.951 . S
H1304 C1324 0.950 . S
H1305 C1325 0.950 . S
H1306 C1327 0.950 . S
H1307 C1330 0.950 . S
H1308 C1331 0.950 . S
H1309 C1333 0.950 . S
H1310 C1334 0.950 . S
H1311 C1335 0.951 . S
H1312 C1337 0.951 . S
H1313 C1339 0.950 . S
H1314 C1340 0.950 . S
H1315 C1342 0.950 . S
H1316 C1345 0.950 . S
H1317 C1346 0.950 . S
H1318 C1348 0.950 . S
H1319 C1349 0.950 . S
C1320 H1302 0.951 . S
C1320 C1321 1.366 . S
C1320 C1322 1.388 . S
C1321 C1320 1.366 . S
C1321 C1325 1.385 . S
C1322 H1303 0.951 . S
C1322 C1320 1.388 . S
C1322 C1323 1.366 . S
C1323 C1322 1.366 . S
C1323 C1324 1.414 . S
C1323 C1326 1.499 . S
C1324 H1304 0.950 . S
C1324 C1323 1.414 . S
C1324 C1325 1.374 . S
C1325 H1305 0.950 . S
C1325 C1321 1.385 . S
C1325 C1324 1.374 . S
C1326 C1323 1.499 . S
C1326 C1327 1.373 . S
C1326 C1328 1.389 . S
C1327 H1306 0.950 . S
C1327 C1326 1.373 . S
C1327 C1343 1.377 . S
C1328 C1326 1.389 . S
C1328 C1329 1.524 . S
C1328 C1342 1.377 . S
C1329 C1328 1.524 . S
C1329 C1330 1.397 . S
C1329 C1334 1.363 . S
C1330 H1307 0.950 . S
C1330 C1329 1.397 . S
C1330 C1331 1.334 . S
C1331 H1308 0.950 . S
C1331 C1330 1.334 . S
C1331 C1332 1.287 . S
C1332 C1331 1.287 . S
C1332 C1333 1.524 . S
C1332 H1351 0.913 . S
C1333 H1309 0.950 . S
C1333 C1332 1.524 . S
C1333 C1334 1.415 . S
C1334 H1310 0.950 . S
C1334 C1329 1.363 . S
C1334 C1333 1.415 . S
C1335 H1311 0.951 . S
C1335 C1336 1.366 . S
C1335 C1337 1.388 . S
C1336 C1335 1.366 . S
C1336 C1340 1.385 . S
C1337 H1312 0.951 . S
C1337 C1335 1.388 . S
C1337 C1338 1.366 . S
C1338 C1337 1.366 . S
C1338 C1339 1.414 . S
C1338 C1341 1.499 . S
C1339 H1313 0.950 . S
C1339 C1338 1.414 . S
C1339 C1340 1.374 . S
C1340 H1314 0.950 . S
C1340 C1336 1.385 . S
C1340 C1339 1.374 . S
C1341 C1338 1.499 . S
C1341 C1342 1.373 . S
C1341 C1343 1.389 . S
C1342 H1315 0.950 . S
C1342 C1328 1.377 . S
C1342 C1341 1.373 . S
C1343 C1327 1.377 . S
C1343 C1341 1.389 . S
C1343 C1344 1.524 . S
C1344 C1343 1.524 . S
C1344 C1345 1.397 . S
C1344 C1349 1.363 . S
C1345 H1316 0.950 . S
C1345 C1344 1.397 . S
C1345 C1346 1.334 . S
C1346 H1317 0.950 . S
C1346 C1345 1.334 . S
C1346 C1347 1.287 . S
C1347 C1346 1.287 . S
C1347 C1348 1.524 . S
C1347 H1350 0.999 . S
C1348 H1318 0.950 . S
C1348 C1347 1.524 . S
C1348 C1349 1.415 . S
C1349 H1319 0.950 . S
C1349 C1344 1.363 . S
C1349 C1348 1.415 . S
H1350 C1347 0.999 . S
H1351 C1332 0.913 . S
H1352 C1370 0.951 . S
H1353 C1372 0.951 . S
H1354 C1374 0.950 . S
H1355 C1375 0.950 . S
H1356 C1377 0.950 . S
H1357 C1380 0.950 . S
H1358 C1381 0.950 . S
H1359 C1383 0.950 . S
H1360 C1384 0.965 . S
H1361 C1385 0.951 . S
H1362 C1387 0.951 . S
H1363 C1389 0.950 . S
H1364 C1390 0.956 . S
H1365 C1392 0.950 . S
H1366 C1395 0.950 . S
H1367 C1396 0.950 . S
H1368 C1398 0.950 . S
H1369 C1399 0.950 . S
C1370 H1352 0.951 . S
C1370 C1371 1.366 . S
C1370 C1372 1.388 . S
C1371 C1370 1.366 . S
C1371 C1375 1.385 . S
C1372 H1353 0.951 . S
C1372 C1370 1.388 . S
C1372 C1373 1.366 . S
C1373 C1372 1.366 . S
C1373 C1374 1.414 . S
C1373 C1376 1.499 . S
C1374 H1354 0.950 . S
C1374 C1373 1.414 . S
C1374 C1375 1.374 . S
C1375 H1355 0.950 . S
C1375 C1371 1.385 . S
C1375 C1374 1.374 . S
C1376 C1373 1.499 . S
C1376 C1377 1.373 . S
C1376 C1378 1.389 . S
C1377 H1356 0.950 . S
C1377 C1376 1.373 . S
C1377 C1393 1.377 . S
C1378 C1376 1.389 . S
C1378 C1379 1.524 . S
C1378 C1392 1.377 . S
C1379 C1378 1.524 . S
C1379 C1380 1.397 . S
C1379 C1384 1.379 . S
C1380 H1357 0.950 . S
C1380 C1379 1.397 . S
C1380 C1381 1.334 1_545 S
C1381 H1358 0.950 . S
C1381 C1380 1.334 1_565 S
C1381 C1382 1.287 . S
C1382 C1381 1.287 . S
C1382 C1383 1.524 . S
C1382 H1401 0.913 . S
C1383 H1359 0.950 . S
C1383 C1382 1.524 . S
C1383 C1384 1.385 1_565 S
C1384 H1360 0.965 . S
C1384 C1379 1.379 . S
C1384 C1383 1.385 1_545 S
C1385 H1361 0.951 . S
C1385 C1386 1.366 . S
C1385 C1387 1.388 . S
C1386 C1385 1.366 . S
C1386 C1390 1.371 1_455 S
C1387 H1362 0.951 . S
C1387 C1385 1.388 . S
C1387 C1388 1.366 . S
C1388 C1387 1.366 . S
C1388 C1389 1.414 1_455 S
C1388 C1391 1.499 1_455 S
C1389 H1363 0.950 . S
C1389 C1388 1.414 1_655 S
C1389 C1390 1.382 . S
C1390 H1364 0.956 . S
C1390 C1386 1.371 1_655 S
C1390 C1389 1.382 . S
C1391 C1388 1.499 1_655 S
C1391 C1392 1.373 . S
C1391 C1393 1.389 . S
C1392 H1365 0.950 . S
C1392 C1378 1.377 . S
C1392 C1391 1.373 . S
C1393 C1377 1.377 . S
C1393 C1391 1.389 . S
C1393 C1394 1.524 1_655 S
C1394 C1393 1.524 1_455 S
C1394 C1395 1.397 1_455 S
C1394 C1399 1.363 . S
C1395 H1366 0.950 . S
C1395 C1394 1.397 1_655 S
C1395 C1396 1.334 1_655 S
C1396 H1367 0.950 . S
C1396 C1395 1.334 1_455 S
C1396 C1397 1.287 . S
C1397 C1396 1.287 . S
C1397 C1398 1.524 . S
C1397 H1400 0.999 . S
C1398 H1368 0.950 . S
C1398 C1397 1.524 . S
C1398 C1399 1.415 . S
C1399 H1369 0.950 . S
C1399 C1394 1.363 . S
C1399 C1398 1.415 . S
H1400 C1397 0.999 . S
H1401 C1382 0.913 . S
H1402 C1420 0.951 . S
H1403 C1422 0.951 . S
H1404 C1424 0.950 . S
H1405 C1425 0.950 . S
H1406 C1427 0.950 . S
H1407 C1430 0.950 . S
H1408 C1431 0.950 . S
H1409 C1433 0.950 . S
H1410 C1434 0.950 . S
H1411 C1435 0.951 . S
H1412 C1437 0.951 . S
H1413 C1439 0.950 . S
H1414 C1440 0.950 . S
H1415 C1442 0.950 . S
H1416 C1445 0.950 . S
H1417 C1446 0.950 . S
H1418 C1448 0.950 . S
H1419 C1449 0.950 . S
C1420 H1402 0.951 . S
C1420 C1421 1.366 . S
C1420 C1422 1.388 . S
C1421 C1420 1.366 . S
C1421 C1425 1.385 . S
C1422 H1403 0.951 . S
C1422 C1420 1.388 . S
C1422 C1423 1.366 . S
C1423 C1422 1.366 . S
C1423 C1424 1.414 . S
C1423 C1426 1.499 . S
C1424 H1404 0.950 . S
C1424 C1423 1.414 . S
C1424 C1425 1.374 . S
C1425 H1405 0.950 . S
C1425 C1421 1.385 . S
C1425 C1424 1.374 . S
C1426 C1423 1.499 . S
C1426 C1427 1.373 . S
C1426 C1428 1.389 . S
C1427 H1406 0.950 . S
C1427 C1426 1.373 . S
C1427 C1443 1.377 . S
C1428 C1426 1.389 . S
C1428 C1429 1.524 . S
C1428 C1442 1.377 . S
C1429 C1428 1.524 . S
C1429 C1430 1.397 . S
C1429 C1434 1.363 . S
C1430 H1407 0.950 . S
C1430 C1429 1.397 . S
C1430 C1431 1.334 . S
C1431 H1408 0.950 . S
C1431 C1430 1.334 . S
C1431 C1432 1.287 . S
C1432 C1431 1.287 . S
C1432 C1433 1.524 . S
C1432 H1451 0.913 . S
C1433 H1409 0.950 . S
C1433 C1432 1.524 . S
C1433 C1434 1.415 . S
C1434 H1410 0.950 . S
C1434 C1429 1.363 . S
C1434 C1433 1.415 . S
C1435 H1411 0.951 . S
C1435 C1436 1.366 . S
C1435 C1437 1.388 . S
C1436 C1435 1.366 . S
C1436 C1440 1.385 . S
C1437 H1412 0.951 . S
C1437 C1435 1.388 . S
C1437 C1438 1.366 . S
C1438 C1437 1.366 . S
C1438 C1439 1.414 . S
C1438 C1441 1.499 . S
C1439 H1413 0.950 . S
C1439 C1438 1.414 . S
C1439 C1440 1.374 . S
C1440 H1414 0.950 . S
C1440 C1436 1.385 . S
C1440 C1439 1.374 . S
C1441 C1438 1.499 . S
C1441 C1442 1.373 . S
C1441 C1443 1.389 . S
C1442 H1415 0.950 . S
C1442 C1428 1.377 . S
C1442 C1441 1.373 . S
C1443 C1427 1.377 . S
C1443 C1441 1.389 . S
C1443 C1444 1.524 . S
C1444 C1443 1.524 . S
C1444 C1445 1.397 . S
C1444 C1449 1.363 . S
C1445 H1416 0.950 . S
C1445 C1444 1.397 . S
C1445 C1446 1.334 . S
C1446 H1417 0.950 . S
C1446 C1445 1.334 . S
C1446 C1447 1.287 . S
C1447 C1446 1.287 . S
C1447 C1448 1.524 . S
C1447 H1450 0.999 . S
C1448 H1418 0.950 . S
C1448 C1447 1.524 . S
C1448 C1449 1.415 . S
C1449 H1419 0.950 . S
C1449 C1444 1.363 . S
C1449 C1448 1.415 . S
H1450 C1447 0.999 . S
H1451 C1432 0.913 . S
H1452 C1470 0.951 . S
H1453 C1472 0.951 . S
H1454 C1474 0.950 . S
H1455 C1475 0.950 . S
H1456 C1477 0.950 . S
H1457 C1480 0.950 . S
H1458 C1481 0.950 . S
H1459 C1483 0.950 . S
H1460 C1484 0.950 . S
H1461 C1485 0.951 . S
H1462 C1487 0.951 . S
H1463 C1489 0.950 . S
H1464 C1490 0.950 . S
H1465 C1492 0.950 . S
H1466 C1495 0.950 . S
H1467 C1496 0.950 . S
H1468 C1498 0.950 . S
H1469 C1499 0.950 1_565 S
C1470 H1452 0.951 . S
C1470 C1471 1.366 . S
C1470 C1472 1.388 . S
C1471 C1470 1.366 . S
C1471 C1475 1.385 . S
C1472 H1453 0.951 . S
C1472 C1470 1.388 . S
C1472 C1473 1.366 . S
C1473 C1472 1.366 . S
C1473 C1474 1.414 . S
C1473 C1476 1.499 . S
C1474 H1454 0.950 . S
C1474 C1473 1.414 . S
C1474 C1475 1.374 . S
C1475 H1455 0.950 . S
C1475 C1471 1.385 . S
C1475 C1474 1.374 . S
C1476 C1473 1.499 . S
C1476 C1477 1.373 . S
C1476 C1478 1.389 . S
C1477 H1456 0.950 . S
C1477 C1476 1.373 . S
C1477 C1493 1.377 . S
C1478 C1476 1.389 . S
C1478 C1479 1.524 . S
C1478 C1492 1.377 . S
C1479 C1478 1.524 . S
C1479 C1480 1.397 . S
C1479 C1484 1.363 . S
C1480 H1457 0.950 . S
C1480 C1479 1.397 . S
C1480 C1481 1.334 . S
C1481 H1458 0.950 . S
C1481 C1480 1.334 . S
C1481 C1482 1.287 . S
C1482 C1481 1.287 . S
C1482 C1483 1.524 . S
C1482 H1501 0.913 . S
C1483 H1459 0.950 . S
C1483 C1482 1.524 . S
C1483 C1484 1.415 . S
C1484 H1460 0.950 . S
C1484 C1479 1.363 . S
C1484 C1483 1.415 . S
C1485 H1461 0.951 . S
C1485 C1486 1.366 . S
C1485 C1487 1.388 . S
C1486 C1485 1.366 . S
C1486 C1490 1.385 . S
C1487 H1462 0.951 . S
C1487 C1485 1.388 . S
C1487 C1488 1.366 . S
C1488 C1487 1.366 . S
C1488 C1489 1.414 . S
C1488 C1491 1.499 . S
C1489 H1463 0.950 . S
C1489 C1488 1.414 . S
C1489 C1490 1.374 . S
C1490 H1464 0.950 . S
C1490 C1486 1.385 . S
C1490 C1489 1.374 . S
C1491 C1488 1.499 . S
C1491 C1492 1.373 . S
C1491 C1493 1.389 . S
C1492 H1465 0.950 . S
C1492 C1478 1.377 . S
C1492 C1491 1.373 . S
C1493 C1477 1.377 . S
C1493 C1491 1.389 . S
C1493 C1494 1.524 . S
C1494 C1493 1.524 . S
C1494 C1495 1.397 . S
C1494 C1499 1.363 . S
C1495 H1466 0.950 . S
C1495 C1494 1.397 . S
C1495 C1496 1.334 . S
C1496 H1467 0.950 . S
C1496 C1495 1.334 . S
C1496 C1497 1.287 . S
C1497 C1496 1.287 . S
C1497 C1498 1.524 1_545 S
C1497 H1500 0.999 1_545 S
C1498 H1468 0.950 . S
C1498 C1497 1.524 1_565 S
C1498 C1499 1.415 1_565 S
C1499 H1469 0.950 1_545 S
C1499 C1494 1.363 . S
C1499 C1498 1.415 1_545 S
H1500 C1497 0.999 1_565 S
H1501 C1482 0.913 . S
H1502 C1520 0.951 . S
H1503 C1522 0.951 . S
H1504 C1524 0.950 . S
H1505 C1525 0.950 . S
H1506 C1527 0.950 . S
H1507 C1530 0.950 . S
H1508 C1531 0.950 . S
H1509 C1533 0.950 . S
H1510 C1534 0.950 . S
H1511 C1535 0.951 . S
H1512 C1537 0.951 . S
H1513 C1539 0.950 . S
H1514 C1540 0.950 . S
H1515 C1542 0.950 . S
H1516 C1545 0.950 . S
H1517 C1546 0.950 . S
H1518 C1548 0.950 . S
H1519 C1549 0.950 . S
C1520 H1502 0.951 . S
C1520 C1521 1.366 . S
C1520 C1522 1.388 . S
C1521 C1520 1.366 . S
C1521 C1525 1.385 . S
C1522 H1503 0.951 . S
C1522 C1520 1.388 . S
C1522 C1523 1.366 . S
C1523 C1522 1.366 . S
C1523 C1524 1.414 . S
C1523 C1526 1.499 . S
C1524 H1504 0.950 . S
C1524 C1523 1.414 . S
C1524 C1525 1.374 . S
C1525 H1505 0.950 . S
C1525 C1521 1.385 . S
C1525 C1524 1.374 . S
C1526 C1523 1.499 . S
C1526 C1527 1.373 . S
C1526 C1528 1.389 . S
C1527 H1506 0.950 . S
C1527 C1526 1.373 . S
C1527 C1543 1.377 . S
C1528 C1526 1.389 . S
C1528 C1529 1.524 . S
C1528 C1542 1.377 . S
C1529 C1528 1.524 . S
C1529 C1530 1.397 . S
C1529 C1534 1.363 . S
C1530 H1507 0.950 . S
C1530 C1529 1.397 . S
C1530 C1531 1.334 . S
C1531 H1508 0.950 . S
C1531 C1530 1.334 . S
C1531 C1532 1.287 . S
C1532 C1531 1.287 . S
C1532 C1533 1.524 . S
C1532 H1551 0.913 . S
C1533 H1509 0.950 . S
C1533 C1532 1.524 . S
C1533 C1534 1.415 . S
C1534 H1510 0.950 . S
C1534 C1529 1.363 . S
C1534 C1533 1.415 . S
C1535 H1511 0.951 . S
C1535 C1536 1.366 . S
C1535 C1537 1.388 . S
C1536 C1535 1.366 . S
C1536 C1540 1.385 . S
C1537 H1512 0.951 . S
C1537 C1535 1.388 . S
C1537 C1538 1.366 . S
C1538 C1537 1.366 . S
C1538 C1539 1.414 . S
C1538 C1541 1.499 . S
C1539 H1513 0.950 . S
C1539 C1538 1.414 . S
C1539 C1540 1.374 . S
C1540 H1514 0.950 . S
C1540 C1536 1.385 . S
C1540 C1539 1.374 . S
C1541 C1538 1.499 . S
C1541 C1542 1.373 . S
C1541 C1543 1.389 . S
C1542 H1515 0.950 . S
C1542 C1528 1.377 . S
C1542 C1541 1.373 . S
C1543 C1527 1.377 . S
C1543 C1541 1.389 . S
C1543 C1544 1.524 . S
C1544 C1543 1.524 . S
C1544 C1545 1.397 . S
C1544 C1549 1.363 . S
C1545 H1516 0.950 . S
C1545 C1544 1.397 . S
C1545 C1546 1.334 . S
C1546 H1517 0.950 . S
C1546 C1545 1.334 . S
C1546 C1547 1.287 . S
C1547 C1546 1.287 . S
C1547 C1548 1.524 . S
C1547 H1550 0.999 . S
C1548 H1518 0.950 . S
C1548 C1547 1.524 . S
C1548 C1549 1.415 . S
C1549 H1519 0.950 . S
C1549 C1544 1.363 . S
C1549 C1548 1.415 . S
H1550 C1547 0.999 . S
H1551 C1532 0.913 . S
H1552 C1570 0.951 . S
H1553 C1572 0.951 . S
H1554 C1574 0.950 . S
H1555 C1575 0.950 . S
H1556 C1577 0.950 . S
H1557 C1580 0.950 . S
H1558 C1581 0.950 . S
H1559 C1583 0.950 . S
H1560 C1584 0.950 . S
H1561 C1585 0.951 . S
H1562 C1587 0.951 . S
H1563 C1589 1.002 . S
H1564 C1590 0.950 . S
H1565 C1592 0.950 . S
H1566 C1595 0.950 . S
H1567 C1596 0.950 . S
H1568 C1598 0.950 . S
H1569 C1599 0.950 . S
C1570 H1552 0.951 . S
C1570 C1571 1.366 . S
C1570 C1572 1.388 . S
C1571 C1570 1.366 . S
C1571 C1575 1.385 . S
C1572 H1553 0.951 . S
C1572 C1570 1.388 . S
C1572 C1573 1.366 . S
C1573 C1572 1.366 . S
C1573 C1574 1.414 . S
C1573 C1576 1.499 . S
C1574 H1554 0.950 . S
C1574 C1573 1.414 . S
C1574 C1575 1.374 . S
C1575 H1555 0.950 . S
C1575 C1571 1.385 . S
C1575 C1574 1.374 . S
C1576 C1573 1.499 . S
C1576 C1577 1.373 . S
C1576 C1578 1.389 . S
C1577 H1556 0.950 . S
C1577 C1576 1.373 . S
C1577 C1593 1.377 . S
C1578 C1576 1.389 . S
C1578 C1579 1.524 . S
C1578 C1592 1.377 . S
C1579 C1578 1.524 . S
C1579 C1580 1.397 1_655 S
C1579 C1584 1.363 . S
C1580 H1557 0.950 . S
C1580 C1579 1.397 1_455 S
C1580 C1581 1.334 . S
C1581 H1558 0.950 . S
C1581 C1580 1.334 . S
C1581 C1582 1.288 1_455 S
C1582 C1581 1.288 1_655 S
C1582 C1583 1.522 . S
C1582 H1601 0.913 1_655 S
C1583 H1559 0.950 . S
C1583 C1582 1.522 . S
C1583 C1584 1.415 . S
C1584 H1560 0.950 . S
C1584 C1579 1.363 . S
C1584 C1583 1.415 . S
C1585 H1561 0.951 . S
C1585 C1586 1.366 . S
C1585 C1587 1.388 . S
C1586 C1585 1.366 . S
C1586 C1590 1.385 . S
C1587 H1562 0.951 . S
C1587 C1585 1.388 . S
C1587 C1588 1.366 . S
C1588 C1587 1.366 . S
C1588 C1589 1.389 1_455 S
C1588 C1591 1.499 1_455 S
C1589 H1563 1.002 . S
C1589 C1588 1.389 1_655 S
C1589 C1590 1.351 1_655 S
C1590 H1564 0.950 . S
C1590 C1586 1.385 . S
C1590 C1589 1.351 1_455 S
C1591 C1588 1.499 1_655 S
C1591 C1592 1.373 . S
C1591 C1593 1.389 . S
C1592 H1565 0.950 . S
C1592 C1578 1.377 . S
C1592 C1591 1.373 . S
C1593 C1577 1.377 . S
C1593 C1591 1.389 . S
C1593 C1594 1.524 . S
C1594 C1593 1.524 . S
C1594 C1595 1.397 . S
C1594 C1599 1.363 . S
C1595 H1566 0.950 . S
C1595 C1594 1.397 . S
C1595 C1596 1.334 1_545 S
C1596 H1567 0.950 . S
C1596 C1595 1.334 1_565 S
C1596 C1597 1.287 . S
C1597 C1596 1.287 . S
C1597 C1598 1.524 . S
C1597 H1600 0.999 . S
C1598 H1568 0.950 . S
C1598 C1597 1.524 . S
C1598 C1599 1.415 1_565 S
C1599 H1569 0.950 . S
C1599 C1594 1.363 . S
C1599 C1598 1.415 1_545 S
H1600 C1597 0.999 . S
H1601 C1582 0.913 1_455 S
H1602 C1620 0.951 . S
H1603 C1622 0.951 . S
H1604 C1624 0.950 . S
H1605 C1625 0.950 . S
H1606 C1627 0.950 . S
H1607 C1630 0.950 . S
H1608 C1631 0.950 . S
H1609 C1633 0.950 . S
H1610 C1634 0.950 . S
H1611 C1635 0.951 . S
H1612 C1637 0.951 . S
H1613 C1639 0.950 . S
H1614 C1640 0.950 . S
H1615 C1642 0.950 . S
H1616 C1645 0.950 . S
H1617 C1646 0.950 . S
H1618 C1648 0.950 . S
H1619 C1649 0.950 . S
C1620 H1602 0.951 . S
C1620 C1621 1.366 . S
C1620 C1622 1.388 . S
C1621 C1620 1.366 . S
C1621 C1625 1.385 . S
C1622 H1603 0.951 . S
C1622 C1620 1.388 . S
C1622 C1623 1.366 . S
C1623 C1622 1.366 . S
C1623 C1624 1.414 . S
C1623 C1626 1.499 . S
C1624 H1604 0.950 . S
C1624 C1623 1.414 . S
C1624 C1625 1.374 . S
C1625 H1605 0.950 . S
C1625 C1621 1.385 . S
C1625 C1624 1.374 . S
C1626 C1623 1.499 . S
C1626 C1627 1.373 . S
C1626 C1628 1.389 . S
C1627 H1606 0.950 . S
C1627 C1626 1.373 . S
C1627 C1643 1.377 . S
C1628 C1626 1.389 . S
C1628 C1629 1.524 . S
C1628 C1642 1.377 . S
C1629 C1628 1.524 . S
C1629 C1630 1.397 . S
C1629 C1634 1.363 . S
C1630 H1607 0.950 . S
C1630 C1629 1.397 . S
C1630 C1631 1.334 . S
C1631 H1608 0.950 . S
C1631 C1630 1.334 . S
C1631 C1632 1.287 . S
C1632 C1631 1.287 . S
C1632 C1633 1.524 . S
C1632 H1651 0.913 . S
C1633 H1609 0.950 . S
C1633 C1632 1.524 . S
C1633 C1634 1.415 . S
C1634 H1610 0.950 . S
C1634 C1629 1.363 . S
C1634 C1633 1.415 . S
C1635 H1611 0.951 . S
C1635 C1636 1.366 . S
C1635 C1637 1.388 . S
C1636 C1635 1.366 . S
C1636 C1640 1.385 . S
C1637 H1612 0.951 . S
C1637 C1635 1.388 . S
C1637 C1638 1.366 . S
C1638 C1637 1.366 . S
C1638 C1639 1.414 . S
C1638 C1641 1.499 . S
C1639 H1613 0.950 . S
C1639 C1638 1.414 . S
C1639 C1640 1.374 . S
C1640 H1614 0.950 . S
C1640 C1636 1.385 . S
C1640 C1639 1.374 . S
C1641 C1638 1.499 . S
C1641 C1642 1.373 . S
C1641 C1643 1.389 . S
C1642 H1615 0.950 . S
C1642 C1628 1.377 . S
C1642 C1641 1.373 . S
C1643 C1627 1.377 . S
C1643 C1641 1.389 . S
C1643 C1644 1.524 . S
C1644 C1643 1.524 . S
C1644 C1645 1.397 . S
C1644 C1649 1.363 . S
C1645 H1616 0.950 . S
C1645 C1644 1.397 . S
C1645 C1646 1.334 . S
C1646 H1617 0.950 . S
C1646 C1645 1.334 . S
C1646 C1647 1.287 . S
C1647 C1646 1.287 . S
C1647 C1648 1.524 . S
C1647 H1650 0.999 . S
C1648 H1618 0.950 . S
C1648 C1647 1.524 . S
C1648 C1649 1.415 . S
C1649 H1619 0.950 . S
C1649 C1644 1.363 . S
C1649 C1648 1.415 . S
H1650 C1647 0.999 . S
H1651 C1632 0.913 . S
H1652 C1670 0.951 . S
H1653 C1672 0.951 . S
H1654 C1674 0.950 . S
H1655 C1675 0.950 . S
H1656 C1677 0.950 . S
H1657 C1680 0.950 . S
H1658 C1681 0.950 . S
H1659 C1683 0.950 . S
H1660 C1684 0.950 . S
H1661 C1685 0.951 . S
H1662 C1687 0.951 . S
H1663 C1689 0.950 . S
H1664 C1690 0.950 . S
H1665 C1692 0.950 . S
H1666 C1695 0.950 . S
H1667 C1696 0.950 . S
H1668 C1698 0.950 . S
H1669 C1699 0.950 . S
C1670 H1652 0.951 . S
C1670 C1671 1.366 . S
C1670 C1672 1.388 . S
C1671 C1670 1.366 . S
C1671 C1675 1.385 . S
C1672 H1653 0.951 . S
C1672 C1670 1.388 . S
C1672 C1673 1.366 . S
C1673 C1672 1.366 . S
C1673 C1674 1.414 . S
C1673 C1676 1.499 . S
C1674 H1654 0.950 . S
C1674 C1673 1.414 . S
C1674 C1675 1.374 . S
C1675 H1655 0.950 . S
C1675 C1671 1.385 . S
C1675 C1674 1.374 . S
C1676 C1673 1.499 . S
C1676 C1677 1.373 . S
C1676 C1678 1.389 . S
C1677 H1656 0.950 . S
C1677 C1676 1.373 . S
C1677 C1693 1.377 . S
C1678 C1676 1.389 . S
C1678 C1679 1.524 . S
C1678 C1692 1.377 . S
C1679 C1678 1.524 . S
C1679 C1680 1.397 . S
C1679 C1684 1.363 . S
C1680 H1657 0.950 . S
C1680 C1679 1.397 . S
C1680 C1681 1.334 . S
C1681 H1658 0.950 . S
C1681 C1680 1.334 . S
C1681 C1682 1.287 . S
C1682 C1681 1.287 . S
C1682 C1683 1.524 . S
C1682 H1701 0.913 . S
C1683 H1659 0.950 . S
C1683 C1682 1.524 . S
C1683 C1684 1.415 . S
C1684 H1660 0.950 . S
C1684 C1679 1.363 . S
C1684 C1683 1.415 . S
C1685 H1661 0.951 . S
C1685 C1686 1.366 . S
C1685 C1687 1.388 . S
C1686 C1685 1.366 . S
C1686 C1690 1.385 . S
C1687 H1662 0.951 . S
C1687 C1685 1.388 . S
C1687 C1688 1.366 . S
C1688 C1687 1.366 . S
C1688 C1689 1.414 . S
C1688 C1691 1.499 . S
C1689 H1663 0.950 . S
C1689 C1688 1.414 . S
C1689 C1690 1.374 . S
C1690 H1664 0.950 . S
C1690 C1686 1.385 . S
C1690 C1689 1.374 . S
C1691 C1688 1.499 . S
C1691 C1692 1.373 . S
C1691 C1693 1.389 . S
C1692 H1665 0.950 . S
C1692 C1678 1.377 . S
C1692 C1691 1.373 . S
C1693 C1677 1.377 . S
C1693 C1691 1.389 . S
C1693 C1694 1.524 . S
C1694 C1693 1.524 . S
C1694 C1695 1.397 . S
C1694 C1699 1.363 . S
C1695 H1666 0.950 . S
C1695 C1694 1.397 . S
C1695 C1696 1.334 . S
C1696 H1667 0.950 . S
C1696 C1695 1.334 . S
C1696 C1697 1.287 . S
C1697 C1696 1.287 . S
C1697 C1698 1.524 . S
C1697 H1700 0.999 . S
C1698 H1668 0.950 . S
C1698 C1697 1.524 . S
C1698 C1699 1.415 . S
C1699 H1669 0.950 . S
C1699 C1694 1.363 . S
C1699 C1698 1.415 . S
H1700 C1697 0.999 . S
H1701 C1682 0.913 . S
H1702 C1720 0.951 . S
H1703 C1722 0.951 . S
H1704 C1724 0.950 . S
H1705 C1725 0.950 . S
H1706 C1727 0.950 . S
H1707 C1730 0.950 . S
H1708 C1731 0.950 . S
H1709 C1733 0.950 . S
H1710 C1734 0.950 . S
H1711 C1735 0.951 . S
H1712 C1737 0.951 . S
H1713 C1739 0.950 . S
H1714 C1740 0.950 . S
H1715 C1742 0.950 . S
H1716 C1745 0.950 . S
H1717 C1746 0.950 . S
H1718 C1748 0.950 . S
H1719 C1749 0.950 . S
C1720 H1702 0.951 . S
C1720 C1721 1.366 . S
C1720 C1722 1.388 . S
C1721 C1720 1.366 . S
C1721 C1725 1.385 . S
C1722 H1703 0.951 . S
C1722 C1720 1.388 . S
C1722 C1723 1.366 . S
C1723 C1722 1.366 . S
C1723 C1724 1.414 . S
C1723 C1726 1.499 . S
C1724 H1704 0.950 . S
C1724 C1723 1.414 . S
C1724 C1725 1.374 . S
C1725 H1705 0.950 . S
C1725 C1721 1.385 . S
C1725 C1724 1.374 . S
C1726 C1723 1.499 . S
C1726 C1727 1.373 . S
C1726 C1728 1.389 . S
C1727 H1706 0.950 . S
C1727 C1726 1.373 . S
C1727 C1743 1.377 . S
C1728 C1726 1.389 . S
C1728 C1729 1.524 . S
C1728 C1742 1.377 . S
C1729 C1728 1.524 . S
C1729 C1730 1.397 . S
C1729 C1734 1.363 . S
C1730 H1707 0.950 . S
C1730 C1729 1.397 . S
C1730 C1731 1.334 . S
C1731 H1708 0.950 . S
C1731 C1730 1.334 . S
C1731 C1732 1.287 . S
C1732 C1731 1.287 . S
C1732 C1733 1.524 . S
C1732 H1751 0.913 . S
C1733 H1709 0.950 . S
C1733 C1732 1.524 . S
C1733 C1734 1.415 . S
C1734 H1710 0.950 . S
C1734 C1729 1.363 . S
C1734 C1733 1.415 . S
C1735 H1711 0.951 . S
C1735 C1736 1.366 . S
C1735 C1737 1.388 . S
C1736 C1735 1.366 . S
C1736 C1740 1.385 . S
C1737 H1712 0.951 . S
C1737 C1735 1.388 . S
C1737 C1738 1.366 . S
C1738 C1737 1.366 . S
C1738 C1739 1.414 . S
C1738 C1741 1.499 . S
C1739 H1713 0.950 . S
C1739 C1738 1.414 . S
C1739 C1740 1.374 . S
C1740 H1714 0.950 . S
C1740 C1736 1.385 . S
C1740 C1739 1.374 . S
C1741 C1738 1.499 . S
C1741 C1742 1.373 . S
C1741 C1743 1.389 . S
C1742 H1715 0.950 . S
C1742 C1728 1.377 . S
C1742 C1741 1.373 . S
C1743 C1727 1.377 . S
C1743 C1741 1.389 . S
C1743 C1744 1.524 . S
C1744 C1743 1.524 . S
C1744 C1745 1.397 . S
C1744 C1749 1.363 . S
C1745 H1716 0.950 . S
C1745 C1744 1.397 . S
C1745 C1746 1.334 . S
C1746 H1717 0.950 . S
C1746 C1745 1.334 . S
C1746 C1747 1.287 . S
C1747 C1746 1.287 . S
C1747 C1748 1.524 . S
C1747 H1750 0.999 . S
C1748 H1718 0.950 . S
C1748 C1747 1.524 . S
C1748 C1749 1.415 . S
C1749 H1719 0.950 . S
C1749 C1744 1.363 . S
C1749 C1748 1.415 . S
H1750 C1747 0.999 . S
H1751 C1732 0.913 . S
H1752 C1770 0.951 1_556 S
H1753 C1772 0.951 1_556 S
H1754 C1774 0.950 . S
H1755 C1775 0.950 . S
H1756 C1777 0.950 . S
H1757 C1780 0.950 1_554 S
H1758 C1781 0.950 1_545 S
H1759 C1783 0.950 . S
H1760 C1784 0.950 . S
H1761 C1785 0.951 . S
H1762 C1787 0.951 1_545 S
H1763 C1789 0.950 . S
H1764 C1790 0.950 . S
H1765 C1792 0.950 . S
H1766 C1795 0.950 . S
H1767 C1796 0.950 . S
H1768 C1798 0.950 . S
H1769 C1799 0.950 . S
C1770 H1752 0.951 1_554 S
C1770 C1771 1.366 . S
C1770 C1772 1.388 . S
C1771 C1770 1.366 . S
C1771 C1775 1.385 . S
C1772 H1753 0.951 1_554 S
C1772 C1770 1.388 . S
C1772 C1773 1.366 . S
C1773 C1772 1.366 . S
C1773 C1774 1.414 . S
C1773 C1776 1.499 . S
C1774 H1754 0.950 . S
C1774 C1773 1.414 . S
C1774 C1775 1.374 . S
C1775 H1755 0.950 . S
C1775 C1771 1.385 . S
C1775 C1774 1.374 . S
C1776 C1773 1.499 . S
C1776 C1777 1.373 . S
C1776 C1778 1.389 . S
C1777 H1756 0.950 . S
C1777 C1776 1.373 . S
C1777 C1793 1.377 . S
C1778 C1776 1.389 . S
C1778 C1779 1.524 1_554 S
C1778 C1792 1.377 . S
C1779 C1778 1.524 1_556 S
C1779 C1780 1.397 . S
C1779 C1784 1.363 . S
C1780 H1757 0.950 1_556 S
C1780 C1779 1.397 . S
C1780 C1781 1.334 . S
C1781 H1758 0.950 1_565 S
C1781 C1780 1.334 . S
C1781 C1782 1.287 . S
C1782 C1781 1.287 . S
C1782 C1783 1.524 . S
C1782 H1801 0.913 . S
C1783 H1759 0.950 . S
C1783 C1782 1.524 . S
C1783 C1784 1.415 . S
C1784 H1760 0.950 . S
C1784 C1779 1.363 . S
C1784 C1783 1.415 . S
C1785 H1761 0.951 . S
C1785 C1786 1.366 1_545 S
C1785 C1787 1.388 1_545 S
C1786 C1785 1.366 1_565 S
C1786 C1790 1.385 . S
C1787 H1762 0.951 1_565 S
C1787 C1785 1.388 1_565 S
C1787 C1788 1.366 . S
C1788 C1787 1.366 . S
C1788 C1789 1.414 . S
C1788 C1791 1.499 . S
C1789 H1763 0.950 . S
C1789 C1788 1.414 . S
C1789 C1790 1.374 . S
C1790 H1764 0.950 . S
C1790 C1786 1.385 . S
C1790 C1789 1.374 . S
C1791 C1788 1.499 . S
C1791 C1792 1.373 . S
C1791 C1793 1.389 . S
C1792 H1765 0.950 . S
C1792 C1778 1.377 . S
C1792 C1791 1.373 . S
C1793 C1777 1.377 . S
C1793 C1791 1.389 . S
C1793 C1794 1.524 . S
C1794 C1793 1.524 . S
C1794 C1795 1.397 . S
C1794 C1799 1.363 . S
C1795 H1766 0.950 . S
C1795 C1794 1.397 . S
C1795 C1796 1.334 . S
C1796 H1767 0.950 . S
C1796 C1795 1.334 . S
C1796 C1797 1.287 . S
C1797 C1796 1.287 . S
C1797 C1798 1.524 . S
C1797 H1800 0.999 . S
C1798 H1768 0.950 . S
C1798 C1797 1.524 . S
C1798 C1799 1.415 . S
C1799 H1769 0.950 . S
C1799 C1794 1.363 . S
C1799 C1798 1.415 . S
H1800 C1797 0.999 . S
H1801 C1782 0.913 . S
H1802 C1820 0.951 . S
H1803 C1822 0.951 . S
H1804 C1824 0.950 . S
H1805 C1825 0.950 . S
H1806 C1827 0.950 . S
H1807 C1830 0.950 . S
H1808 C1831 0.950 . S
H1809 C1833 0.943 1_554 S
H1810 C1834 0.950 . S
H1811 C1835 0.951 . S
H1812 C1837 0.951 . S
H1813 C1839 0.950 . S
H1814 C1840 0.950 . S
H1815 C1842 0.950 . S
H1816 C1845 0.950 . S
H1817 C1846 0.950 . S
H1818 C1848 0.950 . S
H1819 C1849 0.950 1_556 S
C1820 H1802 0.951 . S
C1820 C1821 1.366 . S
C1820 C1822 1.388 . S
C1821 C1820 1.366 . S
C1821 C1825 1.385 1_554 S
C1822 H1803 0.951 . S
C1822 C1820 1.388 . S
C1822 C1823 1.366 . S
C1823 C1822 1.366 . S
C1823 C1824 1.414 1_554 S
C1823 C1826 1.499 . S
C1824 H1804 0.950 . S
C1824 C1823 1.414 1_556 S
C1824 C1825 1.374 . S
C1825 H1805 0.950 . S
C1825 C1821 1.385 1_556 S
C1825 C1824 1.374 . S
C1826 C1823 1.499 . S
C1826 C1827 1.373 . S
C1826 C1828 1.385 . S
C1827 H1806 0.950 . S
C1827 C1826 1.373 . S
C1827 C1843 1.377 . S
C1828 C1826 1.385 . S
C1828 C1829 1.512 1_554 S
C1828 C1842 1.394 . S
C1829 C1828 1.512 1_556 S
C1829 C1830 1.397 . S
C1829 C1834 1.363 1_556 S
C1830 H1807 0.950 . S
C1830 C1829 1.397 . S
C1830 C1831 1.334 . S
C1831 H1808 0.950 . S
C1831 C1830 1.334 . S
C1831 C1832 1.287 . S
C1832 C1831 1.287 . S
C1832 C1833 1.534 . S
C1832 H1851 0.913 . S
C1833 H1809 0.943 1_556 S
C1833 C1832 1.534 . S
C1833 C1834 1.412 1_556 S
C1834 H1810 0.950 . S
C1834 C1829 1.363 1_554 S
C1834 C1833 1.412 1_554 S
C1835 H1811 0.951 . S
C1835 C1836 1.366 1_556 S
C1835 C1837 1.388 . S
C1836 C1835 1.366 1_554 S
C1836 C1840 1.385 . S
C1837 H1812 0.951 . S
C1837 C1835 1.388 . S
C1837 C1838 1.366 1_556 S
C1838 C1837 1.366 1_554 S
C1838 C1839 1.414 . S
C1838 C1841 1.499 . S
C1839 H1813 0.950 . S
C1839 C1838 1.414 . S
C1839 C1840 1.374 . S
C1840 H1814 0.950 . S
C1840 C1836 1.385 . S
C1840 C1839 1.374 . S
C1841 C1838 1.499 . S
C1841 C1842 1.373 . S
C1841 C1843 1.389 . S
C1842 H1815 0.950 . S
C1842 C1828 1.394 . S
C1842 C1841 1.373 . S
C1843 C1827 1.377 . S
C1843 C1841 1.389 . S
C1843 C1844 1.524 . S
C1844 C1843 1.524 . S
C1844 C1845 1.397 . S
C1844 C1849 1.363 . S
C1845 H1816 0.950 . S
C1845 C1844 1.397 . S
C1845 C1846 1.334 . S
C1846 H1817 0.950 . S
C1846 C1845 1.334 . S
C1846 C1847 1.287 . S
C1847 C1846 1.287 . S
C1847 C1848 1.524 . S
C1847 H1850 0.999 . S
C1848 H1818 0.950 . S
C1848 C1847 1.524 . S
C1848 C1849 1.415 . S
C1849 H1819 0.950 1_554 S
C1849 C1844 1.363 . S
C1849 C1848 1.415 . S
H1850 C1847 0.999 . S
H1851 C1832 0.913 . S
H1852 C1870 0.951 . S
H1853 C1872 0.951 . S
H1854 C1874 0.950 . S
H1855 C1875 0.950 . S
H1856 C1877 0.950 . S
H1857 C1880 0.950 . S
H1858 C1881 0.950 . S
H1859 C1883 0.950 . S
H1860 C1884 0.950 . S
H1861 C1885 0.951 . S
H1862 C1887 0.951 . S
H1863 C1889 0.950 . S
H1864 C1890 0.950 . S
H1865 C1892 0.950 . S
H1866 C1895 0.950 . S
H1867 C1896 0.950 . S
H1868 C1898 0.950 . S
H1869 C1899 0.950 . S
C1870 H1852 0.951 . S
C1870 C1871 1.366 . S
C1870 C1872 1.388 . S
C1871 C1870 1.366 . S
C1871 C1875 1.385 . S
C1872 H1853 0.951 . S
C1872 C1870 1.388 . S
C1872 C1873 1.366 . S
C1873 C1872 1.366 . S
C1873 C1874 1.414 . S
C1873 C1876 1.499 . S
C1874 H1854 0.950 . S
C1874 C1873 1.414 . S
C1874 C1875 1.374 . S
C1875 H1855 0.950 . S
C1875 C1871 1.385 . S
C1875 C1874 1.374 . S
C1876 C1873 1.499 . S
C1876 C1877 1.373 . S
C1876 C1878 1.389 . S
C1877 H1856 0.950 . S
C1877 C1876 1.373 . S
C1877 C1893 1.377 . S
C1878 C1876 1.389 . S
C1878 C1879 1.524 . S
C1878 C1892 1.377 . S
C1879 C1878 1.524 . S
C1879 C1880 1.397 . S
C1879 C1884 1.363 . S
C1880 H1857 0.950 . S
C1880 C1879 1.397 . S
C1880 C1881 1.334 . S
C1881 H1858 0.950 . S
C1881 C1880 1.334 . S
C1881 C1882 1.287 . S
C1882 C1881 1.287 . S
C1882 C1883 1.524 . S
C1882 H1901 0.913 . S
C1883 H1859 0.950 . S
C1883 C1882 1.524 . S
C1883 C1884 1.415 . S
C1884 H1860 0.950 . S
C1884 C1879 1.363 . S
C1884 C1883 1.415 . S
C1885 H1861 0.951 . S
C1885 C1886 1.366 . S
C1885 C1887 1.388 . S
C1886 C1885 1.366 . S
C1886 C1890 1.385 . S
C1887 H1862 0.951 . S
C1887 C1885 1.388 . S
C1887 C1888 1.366 . S
C1888 C1887 1.366 . S
C1888 C1889 1.414 . S
C1888 C1891 1.499 . S
C1889 H1863 0.950 . S
C1889 C1888 1.414 . S
C1889 C1890 1.374 . S
C1890 H1864 0.950 . S
C1890 C1886 1.385 . S
C1890 C1889 1.374 . S
C1891 C1888 1.499 . S
C1891 C1892 1.373 . S
C1891 C1893 1.389 . S
C1892 H1865 0.950 . S
C1892 C1878 1.377 . S
C1892 C1891 1.373 . S
C1893 C1877 1.377 . S
C1893 C1891 1.389 . S
C1893 C1894 1.524 . S
C1894 C1893 1.524 . S
C1894 C1895 1.397 . S
C1894 C1899 1.363 . S
C1895 H1866 0.950 . S
C1895 C1894 1.397 . S
C1895 C1896 1.334 . S
C1896 H1867 0.950 . S
C1896 C1895 1.334 . S
C1896 C1897 1.287 . S
C1897 C1896 1.287 . S
C1897 C1898 1.524 . S
C1897 H1900 0.999 . S
C1898 H1868 0.950 . S
C1898 C1897 1.524 . S
C1898 C1899 1.415 . S
C1899 H1869 0.950 . S
C1899 C1894 1.363 . S
C1899 C1898 1.415 . S
H1900 C1897 0.999 . S
H1901 C1882 0.913 . S
H1902 C1920 0.951 . S
H1903 C1922 0.951 . S
H1904 C1924 0.950 . S
H1905 C1925 0.950 . S
H1906 C1927 0.950 . S
H1907 C1930 0.950 . S
H1908 C1931 0.950 . S
H1909 C1933 0.950 . S
H1910 C1934 0.950 . S
H1911 C1935 0.951 . S
H1912 C1937 0.951 . S
H1913 C1939 0.950 . S
H1914 C1940 0.957 . S
H1915 C1942 0.950 . S
H1916 C1945 0.950 . S
H1917 C1946 0.950 . S
H1918 C1948 0.950 . S
H1919 C1949 0.950 . S
C1920 H1902 0.951 . S
C1920 C1921 1.366 . S
C1920 C1922 1.388 . S
C1921 C1920 1.366 . S
C1921 C1925 1.385 . S
C1922 H1903 0.951 . S
C1922 C1920 1.388 . S
C1922 C1923 1.366 . S
C1923 C1922 1.366 . S
C1923 C1924 1.414 . S
C1923 C1926 1.499 . S
C1924 H1904 0.950 . S
C1924 C1923 1.414 . S
C1924 C1925 1.374 . S
C1925 H1905 0.950 . S
C1925 C1921 1.385 . S
C1925 C1924 1.374 . S
C1926 C1923 1.499 . S
C1926 C1927 1.373 . S
C1926 C1928 1.389 . S
C1927 H1906 0.950 . S
C1927 C1926 1.373 . S
C1927 C1943 1.377 . S
C1928 C1926 1.389 . S
C1928 C1929 1.524 . S
C1928 C1942 1.377 . S
C1929 C1928 1.524 . S
C1929 C1930 1.397 . S
C1929 C1934 1.363 . S
C1930 H1907 0.950 . S
C1930 C1929 1.397 . S
C1930 C1931 1.334 . S
C1931 H1908 0.950 . S
C1931 C1930 1.334 . S
C1931 C1932 1.287 . S
C1932 C1931 1.287 . S
C1932 C1933 1.524 . S
C1932 H1951 0.913 . S
C1933 H1909 0.950 . S
C1933 C1932 1.524 . S
C1933 C1934 1.415 . S
C1934 H1910 0.950 . S
C1934 C1929 1.363 . S
C1934 C1933 1.415 . S
C1935 H1911 0.951 . S
C1935 C1936 1.366 . S
C1935 C1937 1.388 . S
C1936 C1935 1.366 . S
C1936 C1940 1.385 . S
C1937 H1912 0.951 . S
C1937 C1935 1.388 . S
C1937 C1938 1.366 . S
C1938 C1937 1.366 . S
C1938 C1939 1.414 . S
C1938 C1941 1.499 . S
C1939 H1913 0.950 . S
C1939 C1938 1.414 . S
C1939 C1940 1.374 . S
C1940 H1914 0.957 . S
C1940 C1936 1.385 . S
C1940 C1939 1.374 . S
C1941 C1938 1.499 . S
C1941 C1942 1.373 . S
C1941 C1943 1.389 . S
C1942 H1915 0.950 . S
C1942 C1928 1.377 . S
C1942 C1941 1.373 . S
C1943 C1927 1.377 . S
C1943 C1941 1.389 . S
C1943 C1944 1.524 . S
C1944 C1943 1.524 . S
C1944 C1945 1.397 . S
C1944 C1949 1.363 . S
C1945 H1916 0.950 . S
C1945 C1944 1.397 . S
C1945 C1946 1.334 . S
C1946 H1917 0.950 . S
C1946 C1945 1.334 . S
C1946 C1947 1.287 . S
C1947 C1946 1.287 . S
C1947 C1948 1.524 . S
C1947 H1950 0.999 . S
C1948 H1918 0.950 . S
C1948 C1947 1.524 . S
C1948 C1949 1.415 . S
C1949 H1919 0.950 . S
C1949 C1944 1.363 . S
C1949 C1948 1.415 . S
H1950 C1947 0.999 . S
H1951 C1932 0.913 . S
H1952 C1970 0.951 . S
H1953 C1972 0.951 . S
H1954 C1974 0.950 . S
H1955 C1975 0.950 . S
H1956 C1977 0.950 . S
H1957 C1980 0.950 . S
H1958 C1981 0.950 . S
H1959 C1983 0.950 . S
H1960 C1984 0.950 . S
H1961 C1985 0.951 . S
H1962 C1987 0.951 . S
H1963 C1989 0.950 . S
H1964 C1990 0.950 . S
H1965 C1992 0.950 . S
H1966 C1995 0.950 . S
H1967 C1996 0.950 . S
H1968 C1998 0.950 . S
H1969 C1999 0.950 . S
C1970 H1952 0.951 . S
C1970 C1971 1.366 . S
C1970 C1972 1.388 . S
C1971 C1970 1.366 . S
C1971 C1975 1.385 . S
C1972 H1953 0.951 . S
C1972 C1970 1.388 . S
C1972 C1973 1.366 . S
C1973 C1972 1.366 . S
C1973 C1974 1.414 . S
C1973 C1976 1.499 . S
C1974 H1954 0.950 . S
C1974 C1973 1.414 . S
C1974 C1975 1.374 . S
C1975 H1955 0.950 . S
C1975 C1971 1.385 . S
C1975 C1974 1.374 . S
C1976 C1973 1.499 . S
C1976 C1977 1.373 . S
C1976 C1978 1.389 . S
C1977 H1956 0.950 . S
C1977 C1976 1.373 . S
C1977 C1993 1.377 . S
C1978 C1976 1.389 . S
C1978 C1979 1.524 . S
C1978 C1992 1.377 . S
C1979 C1978 1.524 . S
C1979 C1980 1.397 . S
C1979 C1984 1.363 . S
C1980 H1957 0.950 . S
C1980 C1979 1.397 . S
C1980 C1981 1.334 . S
C1981 H1958 0.950 . S
C1981 C1980 1.334 . S
C1981 C1982 1.287 . S
C1982 C1981 1.287 . S
C1982 C1983 1.524 . S
C1982 H2001 0.913 . S
C1983 H1959 0.950 . S
C1983 C1982 1.524 . S
C1983 C1984 1.415 . S
C1984 H1960 0.950 . S
C1984 C1979 1.363 . S
C1984 C1983 1.415 . S
C1985 H1961 0.951 . S
C1985 C1986 1.366 . S
C1985 C1987 1.388 . S
C1986 C1985 1.366 . S
C1986 C1990 1.385 . S
C1987 H1962 0.951 . S
C1987 C1985 1.388 . S
C1987 C1988 1.366 . S
C1988 C1987 1.366 . S
C1988 C1989 1.414 . S
C1988 C1991 1.499 . S
C1989 H1963 0.950 . S
C1989 C1988 1.414 . S
C1989 C1990 1.374 . S
C1990 H1964 0.950 . S
C1990 C1986 1.385 . S
C1990 C1989 1.374 . S
C1991 C1988 1.499 . S
C1991 C1992 1.373 . S
C1991 C1993 1.389 . S
C1992 H1965 0.950 . S
C1992 C1978 1.377 . S
C1992 C1991 1.373 . S
C1993 C1977 1.377 . S
C1993 C1991 1.389 . S
C1993 C1994 1.524 . S
C1994 C1993 1.524 . S
C1994 C1995 1.397 . S
C1994 C1999 1.363 . S
C1995 H1966 0.950 . S
C1995 C1994 1.397 . S
C1995 C1996 1.334 . S
C1996 H1967 0.950 . S
C1996 C1995 1.334 . S
C1996 C1997 1.287 . S
C1997 C1996 1.287 . S
C1997 C1998 1.524 . S
C1997 H2000 0.999 . S
C1998 H1968 0.950 . S
C1998 C1997 1.524 . S
C1998 C1999 1.415 . S
C1999 H1969 0.950 . S
C1999 C1994 1.363 . S
C1999 C1998 1.415 . S
H2000 C1997 0.999 . S
H2001 C1982 0.913 . S
H2002 C2020 0.951 . S
H2003 C2022 0.951 . S
H2004 C2024 0.950 . S
H2005 C2025 0.950 . S
H2006 C2027 0.950 . S
H2007 C2030 0.950 . S
H2008 C2031 0.950 . S
H2009 C2033 0.950 . S
H2010 C2034 0.950 . S
H2011 C2035 0.951 . S
H2012 C2037 0.951 . S
H2013 C2039 0.950 . S
H2014 C2040 0.950 . S
H2015 C2042 0.950 . S
H2016 C2045 0.950 . S
H2017 C2046 0.950 . S
H2018 C2048 0.950 . S
H2019 C2049 0.950 . S
C2020 H2002 0.951 . S
C2020 C2021 1.366 . S
C2020 C2022 1.388 . S
C2021 C2020 1.366 . S
C2021 C2025 1.385 . S
C2022 H2003 0.951 . S
C2022 C2020 1.388 . S
C2022 C2023 1.366 . S
C2023 C2022 1.366 . S
C2023 C2024 1.414 . S
C2023 C2026 1.499 . S
C2024 H2004 0.950 . S
C2024 C2023 1.414 . S
C2024 C2025 1.374 . S
C2025 H2005 0.950 . S
C2025 C2021 1.385 . S
C2025 C2024 1.374 . S
C2026 C2023 1.499 . S
C2026 C2027 1.373 . S
C2026 C2028 1.389 . S
C2027 H2006 0.950 . S
C2027 C2026 1.373 . S
C2027 C2043 1.377 . S
C2028 C2026 1.389 . S
C2028 C2029 1.524 . S
C2028 C2042 1.377 . S
C2029 C2028 1.524 . S
C2029 C2030 1.397 . S
C2029 C2034 1.363 . S
C2030 H2007 0.950 . S
C2030 C2029 1.397 . S
C2030 C2031 1.334 . S
C2031 H2008 0.950 . S
C2031 C2030 1.334 . S
C2031 C2032 1.287 . S
C2032 C2031 1.287 . S
C2032 C2033 1.524 . S
C2032 H2051 0.913 . S
C2033 H2009 0.950 . S
C2033 C2032 1.524 . S
C2033 C2034 1.415 . S
C2034 H2010 0.950 . S
C2034 C2029 1.363 . S
C2034 C2033 1.415 . S
C2035 H2011 0.951 . S
C2035 C2036 1.366 . S
C2035 C2037 1.388 . S
C2036 C2035 1.366 . S
C2036 C2040 1.385 . S
C2037 H2012 0.951 . S
C2037 C2035 1.388 . S
C2037 C2038 1.366 . S
C2038 C2037 1.366 . S
C2038 C2039 1.414 . S
C2038 C2041 1.499 . S
C2039 H2013 0.950 . S
C2039 C2038 1.414 . S
C2039 C2040 1.374 . S
C2040 H2014 0.950 . S
C2040 C2036 1.385 . S
C2040 C2039 1.374 . S
C2041 C2038 1.499 . S
C2041 C2042 1.373 . S
C2041 C2043 1.389 . S
C2042 H2015 0.950 . S
C2042 C2028 1.377 . S
C2042 C2041 1.373 . S
C2043 C2027 1.377 . S
C2043 C2041 1.389 . S
C2043 C2044 1.524 . S
C2044 C2043 1.524 . S
C2044 C2045 1.397 . S
C2044 C2049 1.363 . S
C2045 H2016 0.950 . S
C2045 C2044 1.397 . S
C2045 C2046 1.334 . S
C2046 H2017 0.950 . S
C2046 C2045 1.334 . S
C2046 C2047 1.287 . S
C2047 C2046 1.287 . S
C2047 C2048 1.524 . S
C2047 H2050 0.999 . S
C2048 H2018 0.950 . S
C2048 C2047 1.524 . S
C2048 C2049 1.415 . S
C2049 H2019 0.950 . S
C2049 C2044 1.363 . S
C2049 C2048 1.415 . S
H2050 C2047 0.999 . S
H2051 C2032 0.913 . S
H2052 C2070 0.951 . S
H2053 C2072 0.951 . S
H2054 C2074 0.950 . S
H2055 C2075 0.950 . S
H2056 C2077 0.950 . S
H2057 C2080 0.950 . S
H2058 C2081 0.950 . S
H2059 C2083 0.950 . S
H2060 C2084 0.950 . S
H2061 C2085 0.951 . S
H2062 C2087 0.951 . S
H2063 C2089 0.950 . S
H2064 C2090 0.950 . S
H2065 C2092 0.950 . S
H2066 C2095 0.950 . S
H2067 C2096 0.950 . S
H2068 C2098 0.950 . S
H2069 C2099 0.950 . S
C2070 H2052 0.951 . S
C2070 C2071 1.366 . S
C2070 C2072 1.388 . S
C2071 C2070 1.366 . S
C2071 C2075 1.385 . S
C2072 H2053 0.951 . S
C2072 C2070 1.388 . S
C2072 C2073 1.366 . S
C2073 C2072 1.366 . S
C2073 C2074 1.414 . S
C2073 C2076 1.499 . S
C2074 H2054 0.950 . S
C2074 C2073 1.414 . S
C2074 C2075 1.374 . S
C2075 H2055 0.950 . S
C2075 C2071 1.385 . S
C2075 C2074 1.374 . S
C2076 C2073 1.499 . S
C2076 C2077 1.373 . S
C2076 C2078 1.389 . S
C2077 H2056 0.950 . S
C2077 C2076 1.373 . S
C2077 C2093 1.377 . S
C2078 C2076 1.389 . S
C2078 C2079 1.524 . S
C2078 C2092 1.377 . S
C2079 C2078 1.524 . S
C2079 C2080 1.397 . S
C2079 C2084 1.363 . S
C2080 H2057 0.950 . S
C2080 C2079 1.397 . S
C2080 C2081 1.334 . S
C2081 H2058 0.950 . S
C2081 C2080 1.334 . S
C2081 C2082 1.287 . S
C2082 C2081 1.287 . S
C2082 C2083 1.524 . S
C2082 H2101 0.913 . S
C2083 H2059 0.950 . S
C2083 C2082 1.524 . S
C2083 C2084 1.415 . S
C2084 H2060 0.950 . S
C2084 C2079 1.363 . S
C2084 C2083 1.415 . S
C2085 H2061 0.951 . S
C2085 C2086 1.366 . S
C2085 C2087 1.388 . S
C2086 C2085 1.366 . S
C2086 C2090 1.385 . S
C2087 H2062 0.951 . S
C2087 C2085 1.388 . S
C2087 C2088 1.366 . S
C2088 C2087 1.366 . S
C2088 C2089 1.414 . S
C2088 C2091 1.499 . S
C2089 H2063 0.950 . S
C2089 C2088 1.414 . S
C2089 C2090 1.374 . S
C2090 H2064 0.950 . S
C2090 C2086 1.385 . S
C2090 C2089 1.374 . S
C2091 C2088 1.499 . S
C2091 C2092 1.373 . S
C2091 C2093 1.389 . S
C2092 H2065 0.950 . S
C2092 C2078 1.377 . S
C2092 C2091 1.373 . S
C2093 C2077 1.377 . S
C2093 C2091 1.389 . S
C2093 C2094 1.524 . S
C2094 C2093 1.524 . S
C2094 C2095 1.397 . S
C2094 C2099 1.363 . S
C2095 H2066 0.950 . S
C2095 C2094 1.397 . S
C2095 C2096 1.334 . S
C2096 H2067 0.950 . S
C2096 C2095 1.334 . S
C2096 C2097 1.287 . S
C2097 C2096 1.287 . S
C2097 C2098 1.524 . S
C2097 H2100 0.999 . S
C2098 H2068 0.950 . S
C2098 C2097 1.524 . S
C2098 C2099 1.415 . S
C2099 H2069 0.950 . S
C2099 C2094 1.363 . S
C2099 C2098 1.415 . S
H2100 C2097 0.999 . S
H2101 C2082 0.913 . S
H2102 C2120 0.951 . S
H2103 C2122 0.951 . S
H2104 C2124 0.950 . S
H2105 C2125 0.950 . S
H2106 C2127 0.950 . S
H2107 C2130 0.950 . S
H2108 C2131 0.950 . S
H2109 C2133 0.950 . S
H2110 C2134 0.950 . S
H2111 C2135 0.951 . S
H2112 C2137 0.951 . S
H2113 C2139 0.950 . S
H2114 C2140 0.950 . S
H2115 C2142 0.950 . S
H2116 C2145 0.950 . S
H2117 C2146 0.950 . S
H2118 C2148 0.950 . S
H2119 C2149 0.950 . S
C2120 H2102 0.951 . S
C2120 C2121 1.366 . S
C2120 C2122 1.388 . S
C2121 C2120 1.366 . S
C2121 C2125 1.385 . S
C2122 H2103 0.951 . S
C2122 C2120 1.388 . S
C2122 C2123 1.366 . S
C2123 C2122 1.366 . S
C2123 C2124 1.414 . S
C2123 C2126 1.499 . S
C2124 H2104 0.950 . S
C2124 C2123 1.414 . S
C2124 C2125 1.374 . S
C2125 H2105 0.950 . S
C2125 C2121 1.385 . S
C2125 C2124 1.374 . S
C2126 C2123 1.499 . S
C2126 C2127 1.373 . S
C2126 C2128 1.389 . S
C2127 H2106 0.950 . S
C2127 C2126 1.373 . S
C2127 C2143 1.377 . S
C2128 C2126 1.389 . S
C2128 C2129 1.524 . S
C2128 C2142 1.377 . S
C2129 C2128 1.524 . S
C2129 C2130 1.397 . S
C2129 C2134 1.363 . S
C2130 H2107 0.950 . S
C2130 C2129 1.397 . S
C2130 C2131 1.334 . S
C2131 H2108 0.950 . S
C2131 C2130 1.334 . S
C2131 C2132 1.287 . S
C2132 C2131 1.287 . S
C2132 C2133 1.524 . S
C2132 H2151 0.913 . S
C2133 H2109 0.950 . S
C2133 C2132 1.524 . S
C2133 C2134 1.415 . S
C2134 H2110 0.950 . S
C2134 C2129 1.363 . S
C2134 C2133 1.415 . S
C2135 H2111 0.951 . S
C2135 C2136 1.366 . S
C2135 C2137 1.388 . S
C2136 C2135 1.366 . S
C2136 C2140 1.385 . S
C2137 H2112 0.951 . S
C2137 C2135 1.388 . S
C2137 C2138 1.366 . S
C2138 C2137 1.366 . S
C2138 C2139 1.414 . S
C2138 C2141 1.499 . S
C2139 H2113 0.950 . S
C2139 C2138 1.414 . S
C2139 C2140 1.374 . S
C2140 H2114 0.950 . S
C2140 C2136 1.385 . S
C2140 C2139 1.374 . S
C2141 C2138 1.499 . S
C2141 C2142 1.373 . S
C2141 C2143 1.389 . S
C2142 H2115 0.950 . S
C2142 C2128 1.377 . S
C2142 C2141 1.373 . S
C2143 C2127 1.377 . S
C2143 C2141 1.389 . S
C2143 C2144 1.524 . S
C2144 C2143 1.524 . S
C2144 C2145 1.397 . S
C2144 C2149 1.363 . S
C2145 H2116 0.950 . S
C2145 C2144 1.397 . S
C2145 C2146 1.334 . S
C2146 H2117 0.950 . S
C2146 C2145 1.334 . S
C2146 C2147 1.287 . S
C2147 C2146 1.287 . S
C2147 C2148 1.524 . S
C2147 H2150 0.999 . S
C2148 H2118 0.950 . S
C2148 C2147 1.524 . S
C2148 C2149 1.415 . S
C2149 H2119 0.950 . S
C2149 C2144 1.363 . S
C2149 C2148 1.415 . S
H2150 C2147 0.999 . S
H2151 C2132 0.913 . S
H2152 C2170 0.951 . S
H2153 C2172 0.951 . S
H2154 C2174 0.950 . S
H2155 C2175 0.950 . S
H2156 C2177 0.950 . S
H2157 C2180 0.950 . S
H2158 C2181 0.950 . S
H2159 C2183 0.950 . S
H2160 C2184 0.950 . S
H2161 C2185 0.951 . S
H2162 C2187 0.951 . S
H2163 C2189 0.950 . S
H2164 C2190 0.950 1_556 S
H2165 C2192 0.950 . S
H2166 C2195 0.950 . S
H2167 C2196 0.950 . S
H2168 C2198 0.950 . S
H2169 C2199 0.950 . S
C2170 H2152 0.951 . S
C2170 C2171 1.366 . S
C2170 C2172 1.388 . S
C2171 C2170 1.366 . S
C2171 C2175 1.385 . S
C2172 H2153 0.951 . S
C2172 C2170 1.388 . S
C2172 C2173 1.366 . S
C2173 C2172 1.366 . S
C2173 C2174 1.414 . S
C2173 C2176 1.499 . S
C2174 H2154 0.950 . S
C2174 C2173 1.414 . S
C2174 C2175 1.374 . S
C2175 H2155 0.950 . S
C2175 C2171 1.385 . S
C2175 C2174 1.374 . S
C2176 C2173 1.499 . S
C2176 C2177 1.373 . S
C2176 C2178 1.389 . S
C2177 H2156 0.950 . S
C2177 C2176 1.373 . S
C2177 C2193 1.377 . S
C2178 C2176 1.389 . S
C2178 C2179 1.524 . S
C2178 C2192 1.377 . S
C2179 C2178 1.524 . S
C2179 C2180 1.397 . S
C2179 C2184 1.363 . S
C2180 H2157 0.950 . S
C2180 C2179 1.397 . S
C2180 C2181 1.334 . S
C2181 H2158 0.950 . S
C2181 C2180 1.334 . S
C2181 C2182 1.287 . S
C2182 C2181 1.287 . S
C2182 C2183 1.524 . S
C2182 H2201 0.913 . S
C2183 H2159 0.950 . S
C2183 C2182 1.524 . S
C2183 C2184 1.415 . S
C2184 H2160 0.950 . S
C2184 C2179 1.363 . S
C2184 C2183 1.415 . S
C2185 H2161 0.951 . S
C2185 C2186 1.366 . S
C2185 C2187 1.388 . S
C2186 C2185 1.366 . S
C2186 C2190 1.385 . S
C2187 H2162 0.951 . S
C2187 C2185 1.388 . S
C2187 C2188 1.366 . S
C2188 C2187 1.366 . S
C2188 C2189 1.414 . S
C2188 C2191 1.499 . S
C2189 H2163 0.950 . S
C2189 C2188 1.414 . S
C2189 C2190 1.374 . S
C2190 H2164 0.950 1_554 S
C2190 C2186 1.385 . S
C2190 C2189 1.374 . S
C2191 C2188 1.499 . S
C2191 C2192 1.373 . S
C2191 C2193 1.389 . S
C2192 H2165 0.950 . S
C2192 C2178 1.377 . S
C2192 C2191 1.373 . S
C2193 C2177 1.377 . S
C2193 C2191 1.389 . S
C2193 C2194 1.524 . S
C2194 C2193 1.524 . S
C2194 C2195 1.397 . S
C2194 C2199 1.363 . S
C2195 H2166 0.950 . S
C2195 C2194 1.397 . S
C2195 C2196 1.334 1_455 S
C2196 H2167 0.950 . S
C2196 C2195 1.334 1_655 S
C2196 C2197 1.287 . S
C2197 C2196 1.287 . S
C2197 C2198 1.524 . S
C2197 H2200 0.999 . S
C2198 H2168 0.950 . S
C2198 C2197 1.524 . S
C2198 C2199 1.415 1_655 S
C2199 H2169 0.950 . S
C2199 C2194 1.363 . S
C2199 C2198 1.415 1_455 S
H2200 C2197 0.999 . S
H2201 C2182 0.913 . S
H2202 C2220 0.951 . S
H2203 C2222 0.951 . S
H2204 C2224 0.950 . S
H2205 C2225 0.950 . S
H2206 C2227 0.950 . S
H2207 C2230 0.950 . S
H2208 C2231 0.950 . S
H2209 C2233 0.950 . S
H2210 C2234 0.950 . S
H2211 C2235 0.951 . S
H2212 C2237 0.951 . S
H2213 C2239 0.950 . S
H2214 C2240 0.950 . S
H2215 C2242 0.950 . S
H2216 C2245 0.950 . S
H2217 C2246 0.950 . S
H2218 C2248 0.950 . S
H2219 C2249 0.950 . S
C2220 H2202 0.951 . S
C2220 C2221 1.366 . S
C2220 C2222 1.388 . S
C2221 C2220 1.366 . S
C2221 C2225 1.385 . S
C2222 H2203 0.951 . S
C2222 C2220 1.388 . S
C2222 C2223 1.366 . S
C2223 C2222 1.366 . S
C2223 C2224 1.414 . S
C2223 C2226 1.499 . S
C2224 H2204 0.950 . S
C2224 C2223 1.414 . S
C2224 C2225 1.374 . S
C2225 H2205 0.950 . S
C2225 C2221 1.385 . S
C2225 C2224 1.374 . S
C2226 C2223 1.499 . S
C2226 C2227 1.373 . S
C2226 C2228 1.389 . S
C2227 H2206 0.950 . S
C2227 C2226 1.373 . S
C2227 C2243 1.377 . S
C2228 C2226 1.389 . S
C2228 C2229 1.524 . S
C2228 C2242 1.377 . S
C2229 C2228 1.524 . S
C2229 C2230 1.397 . S
C2229 C2234 1.363 . S
C2230 H2207 0.950 . S
C2230 C2229 1.397 . S
C2230 C2231 1.334 . S
C2231 H2208 0.950 . S
C2231 C2230 1.334 . S
C2231 C2232 1.287 . S
C2232 C2231 1.287 . S
C2232 C2233 1.524 . S
C2232 H2251 0.913 . S
C2233 H2209 0.950 . S
C2233 C2232 1.524 . S
C2233 C2234 1.415 . S
C2234 H2210 0.950 . S
C2234 C2229 1.363 . S
C2234 C2233 1.415 . S
C2235 H2211 0.951 . S
C2235 C2236 1.366 . S
C2235 C2237 1.388 . S
C2236 C2235 1.366 . S
C2236 C2240 1.385 . S
C2237 H2212 0.951 . S
C2237 C2235 1.388 . S
C2237 C2238 1.366 . S
C2238 C2237 1.366 . S
C2238 C2239 1.414 . S
C2238 C2241 1.499 . S
C2239 H2213 0.950 . S
C2239 C2238 1.414 . S
C2239 C2240 1.374 . S
C2240 H2214 0.950 . S
C2240 C2236 1.385 . S
C2240 C2239 1.374 . S
C2241 C2238 1.499 . S
C2241 C2242 1.373 . S
C2241 C2243 1.389 . S
C2242 H2215 0.950 . S
C2242 C2228 1.377 . S
C2242 C2241 1.373 . S
C2243 C2227 1.377 . S
C2243 C2241 1.389 . S
C2243 C2244 1.524 . S
C2244 C2243 1.524 . S
C2244 C2245 1.397 . S
C2244 C2249 1.363 . S
C2245 H2216 0.950 . S
C2245 C2244 1.397 . S
C2245 C2246 1.334 . S
C2246 H2217 0.950 . S
C2246 C2245 1.334 . S
C2246 C2247 1.287 . S
C2247 C2246 1.287 . S
C2247 C2248 1.524 . S
C2247 H2250 0.999 . S
C2248 H2218 0.950 . S
C2248 C2247 1.524 . S
C2248 C2249 1.415 . S
C2249 H2219 0.950 . S
C2249 C2244 1.363 . S
C2249 C2248 1.415 . S
H2250 C2247 0.999 . S
H2251 C2232 0.913 . S
H2252 C2270 0.951 . S
H2253 C2272 0.951 . S
H2254 C2274 0.950 . S
H2255 C2275 0.950 . S
H2256 C2277 0.950 . S
H2257 C2280 0.950 . S
H2258 C2281 0.950 . S
H2259 C2283 0.950 . S
H2260 C2284 0.950 . S
H2261 C2285 0.951 . S
H2262 C2287 0.951 . S
H2263 C2289 0.950 . S
H2264 C2290 0.950 . S
H2265 C2292 0.950 . S
H2266 C2295 0.950 . S
H2267 C2296 0.950 . S
H2268 C2298 0.950 . S
H2269 C2299 0.950 . S
C2270 H2252 0.951 . S
C2270 C2271 1.366 . S
C2270 C2272 1.388 . S
C2271 C2270 1.366 . S
C2271 C2275 1.385 . S
C2272 H2253 0.951 . S
C2272 C2270 1.388 . S
C2272 C2273 1.366 . S
C2273 C2272 1.366 . S
C2273 C2274 1.414 . S
C2273 C2276 1.499 . S
C2274 H2254 0.950 . S
C2274 C2273 1.414 . S
C2274 C2275 1.374 . S
C2275 H2255 0.950 . S
C2275 C2271 1.385 . S
C2275 C2274 1.374 . S
C2276 C2273 1.499 . S
C2276 C2277 1.373 . S
C2276 C2278 1.389 . S
C2277 H2256 0.950 . S
C2277 C2276 1.373 . S
C2277 C2293 1.377 . S
C2278 C2276 1.389 . S
C2278 C2279 1.524 . S
C2278 C2292 1.377 . S
C2279 C2278 1.524 . S
C2279 C2280 1.397 . S
C2279 C2284 1.363 . S
C2280 H2257 0.950 . S
C2280 C2279 1.397 . S
C2280 C2281 1.334 . S
C2281 H2258 0.950 . S
C2281 C2280 1.334 . S
C2281 C2282 1.287 . S
C2282 C2281 1.287 . S
C2282 C2283 1.524 . S
C2282 H2301 0.913 . S
C2283 H2259 0.950 . S
C2283 C2282 1.524 . S
C2283 C2284 1.415 . S
C2284 H2260 0.950 . S
C2284 C2279 1.363 . S
C2284 C2283 1.415 . S
C2285 H2261 0.951 . S
C2285 C2286 1.366 . S
C2285 C2287 1.388 . S
C2286 C2285 1.366 . S
C2286 C2290 1.385 . S
C2287 H2262 0.951 . S
C2287 C2285 1.388 . S
C2287 C2288 1.366 . S
C2288 C2287 1.366 . S
C2288 C2289 1.414 . S
C2288 C2291 1.499 . S
C2289 H2263 0.950 . S
C2289 C2288 1.414 . S
C2289 C2290 1.374 . S
C2290 H2264 0.950 . S
C2290 C2286 1.385 . S
C2290 C2289 1.374 . S
C2291 C2288 1.499 . S
C2291 C2292 1.373 . S
C2291 C2293 1.389 . S
C2292 H2265 0.950 . S
C2292 C2278 1.377 . S
C2292 C2291 1.373 . S
C2293 C2277 1.377 . S
C2293 C2291 1.389 . S
C2293 C2294 1.524 . S
C2294 C2293 1.524 . S
C2294 C2295 1.397 . S
C2294 C2299 1.363 . S
C2295 H2266 0.950 . S
C2295 C2294 1.397 . S
C2295 C2296 1.334 . S
C2296 H2267 0.950 . S
C2296 C2295 1.334 . S
C2296 C2297 1.287 . S
C2297 C2296 1.287 . S
C2297 C2298 1.524 . S
C2297 H2300 0.999 . S
C2298 H2268 0.950 . S
C2298 C2297 1.524 . S
C2298 C2299 1.415 . S
C2299 H2269 0.950 . S
C2299 C2294 1.363 . S
C2299 C2298 1.415 . S
H2300 C2297 0.999 . S
H2301 C2282 0.913 . S
H2302 C2320 0.951 . S
H2303 C2322 0.951 . S
H2304 C2324 0.950 . S
H2305 C2325 0.950 . S
H2306 C2327 0.950 . S
H2307 C2330 0.950 . S
H2308 C2331 0.950 . S
H2309 C2333 0.950 . S
H2310 C2334 0.950 . S
H2311 C2335 0.951 . S
H2312 C2337 0.951 . S
H2313 C2339 0.950 . S
H2314 C2340 0.950 . S
H2315 C2342 0.950 . S
H2316 C2345 0.950 . S
H2317 C2346 0.950 . S
H2318 C2348 0.950 . S
H2319 C2349 0.950 . S
C2320 H2302 0.951 . S
C2320 C2321 1.366 . S
C2320 C2322 1.388 . S
C2321 C2320 1.366 . S
C2321 C2325 1.385 . S
C2322 H2303 0.951 . S
C2322 C2320 1.388 . S
C2322 C2323 1.366 . S
C2323 C2322 1.366 . S
C2323 C2324 1.414 . S
C2323 C2326 1.499 . S
C2324 H2304 0.950 . S
C2324 C2323 1.414 . S
C2324 C2325 1.374 . S
C2325 H2305 0.950 . S
C2325 C2321 1.385 . S
C2325 C2324 1.374 . S
C2326 C2323 1.499 . S
C2326 C2327 1.373 . S
C2326 C2328 1.389 . S
C2327 H2306 0.950 . S
C2327 C2326 1.373 . S
C2327 C2343 1.377 . S
C2328 C2326 1.389 . S
C2328 C2329 1.524 . S
C2328 C2342 1.377 . S
C2329 C2328 1.524 . S
C2329 C2330 1.397 . S
C2329 C2334 1.363 . S
C2330 H2307 0.950 . S
C2330 C2329 1.397 . S
C2330 C2331 1.334 . S
C2331 H2308 0.950 . S
C2331 C2330 1.334 . S
C2331 C2332 1.287 . S
C2332 C2331 1.287 . S
C2332 C2333 1.524 . S
C2332 H2351 0.913 . S
C2333 H2309 0.950 . S
C2333 C2332 1.524 . S
C2333 C2334 1.415 . S
C2334 H2310 0.950 . S
C2334 C2329 1.363 . S
C2334 C2333 1.415 . S
C2335 H2311 0.951 . S
C2335 C2336 1.366 . S
C2335 C2337 1.388 . S
C2336 C2335 1.366 . S
C2336 C2340 1.385 . S
C2337 H2312 0.951 . S
C2337 C2335 1.388 . S
C2337 C2338 1.366 . S
C2338 C2337 1.366 . S
C2338 C2339 1.414 . S
C2338 C2341 1.499 . S
C2339 H2313 0.950 . S
C2339 C2338 1.414 . S
C2339 C2340 1.374 . S
C2340 H2314 0.950 . S
C2340 C2336 1.385 . S
C2340 C2339 1.374 . S
C2341 C2338 1.499 . S
C2341 C2342 1.373 . S
C2341 C2343 1.389 . S
C2342 H2315 0.950 . S
C2342 C2328 1.377 . S
C2342 C2341 1.373 . S
C2343 C2327 1.377 . S
C2343 C2341 1.389 . S
C2343 C2344 1.524 . S
C2344 C2343 1.524 . S
C2344 C2345 1.397 . S
C2344 C2349 1.363 . S
C2345 H2316 0.950 . S
C2345 C2344 1.397 . S
C2345 C2346 1.334 . S
C2346 H2317 0.950 . S
C2346 C2345 1.334 . S
C2346 C2347 1.287 . S
C2347 C2346 1.287 . S
C2347 C2348 1.524 . S
C2347 H2350 0.999 . S
C2348 H2318 0.950 . S
C2348 C2347 1.524 . S
C2348 C2349 1.415 . S
C2349 H2319 0.950 . S
C2349 C2344 1.363 . S
C2349 C2348 1.415 . S
H2350 C2347 0.999 . S
H2351 C2332 0.913 . S
H2352 C2370 0.951 . S
H2353 C2372 0.951 . S
H2354 C2374 0.950 . S
H2355 C2375 0.950 . S
H2356 C2377 0.950 . S
H2357 C2380 0.950 . S
H2358 C2381 0.950 . S
H2359 C2383 0.950 . S
H2360 C2384 0.950 . S
H2361 C2385 0.951 . S
H2362 C2387 0.951 . S
H2363 C2389 0.950 . S
H2364 C2390 0.950 . S
H2365 C2392 0.950 . S
H2366 C2395 0.952 . S
H2367 C2396 0.950 . S
H2368 C2398 0.956 . S
H2369 C2399 0.950 . S
C2370 H2352 0.951 . S
C2370 C2371 1.366 . S
C2370 C2372 1.388 . S
C2371 C2370 1.366 . S
C2371 C2375 1.385 . S
C2372 H2353 0.951 . S
C2372 C2370 1.388 . S
C2372 C2373 1.366 . S
C2373 C2372 1.366 . S
C2373 C2374 1.414 . S
C2373 C2376 1.499 . S
C2374 H2354 0.950 . S
C2374 C2373 1.414 . S
C2374 C2375 1.374 . S
C2375 H2355 0.950 . S
C2375 C2371 1.385 . S
C2375 C2374 1.374 . S
C2376 C2373 1.499 . S
C2376 C2377 1.373 . S
C2376 C2378 1.389 . S
C2377 H2356 0.950 . S
C2377 C2376 1.373 . S
C2377 C2393 1.377 . S
C2378 C2376 1.389 . S
C2378 C2379 1.524 . S
C2378 C2392 1.377 . S
C2379 C2378 1.524 . S
C2379 C2380 1.397 . S
C2379 C2384 1.363 . S
C2380 H2357 0.950 . S
C2380 C2379 1.397 . S
C2380 C2381 1.334 . S
C2381 H2358 0.950 . S
C2381 C2380 1.334 . S
C2381 C2382 1.287 . S
C2382 C2381 1.287 . S
C2382 C2383 1.524 . S
C2382 H2401 0.913 . S
C2383 H2359 0.950 . S
C2383 C2382 1.524 . S
C2383 C2384 1.415 . S
C2384 H2360 0.950 . S
C2384 C2379 1.363 . S
C2384 C2383 1.415 . S
C2385 H2361 0.951 . S
C2385 C2386 1.366 . S
C2385 C2387 1.388 . S
C2386 C2385 1.366 . S
C2386 C2390 1.385 . S
C2387 H2362 0.951 . S
C2387 C2385 1.388 . S
C2387 C2388 1.366 . S
C2388 C2387 1.366 . S
C2388 C2389 1.414 . S
C2388 C2391 1.499 . S
C2389 H2363 0.950 . S
C2389 C2388 1.414 . S
C2389 C2390 1.374 . S
C2390 H2364 0.950 . S
C2390 C2386 1.385 . S
C2390 C2389 1.374 . S
C2391 C2388 1.499 . S
C2391 C2392 1.373 . S
C2391 C2393 1.389 . S
C2392 H2365 0.950 . S
C2392 C2378 1.377 . S
C2392 C2391 1.373 . S
C2393 C2377 1.377 . S
C2393 C2391 1.389 . S
C2393 C2394 1.524 . S
C2394 C2393 1.524 . S
C2394 C2395 1.337 1_455 S
C2394 C2399 1.363 . S
C2395 H2366 0.952 . S
C2395 C2394 1.337 1_655 S
C2395 C2396 1.381 . S
C2396 H2367 0.950 . S
C2396 C2395 1.381 . S
C2396 C2397 1.287 . S
C2397 C2396 1.287 . S
C2397 C2398 1.542 . S
C2397 H2400 0.999 . S
C2398 H2368 0.956 . S
C2398 C2397 1.542 . S
C2398 C2399 1.401 1_655 S
C2399 H2369 0.950 . S
C2399 C2394 1.363 . S
C2399 C2398 1.401 1_455 S
H2400 C2397 0.999 . S
H2401 C2382 0.913 . S
H2402 C2420 0.951 . S
H2403 C2422 0.951 . S
H2404 C2424 0.950 . S
H2405 C2425 0.950 . S
H2406 C2427 0.950 . S
H2407 C2430 0.950 . S
H2408 C2431 0.950 . S
H2409 C2433 0.950 . S
H2410 C2434 0.950 . S
H2411 C2435 0.951 . S
H2412 C2437 0.951 . S
H2413 C2439 0.950 . S
H2414 C2440 0.950 . S
H2415 C2442 0.950 . S
H2416 C2445 0.950 . S
H2417 C2446 0.950 . S
H2418 C2448 0.950 . S
H2419 C2449 0.950 . S
C2420 H2402 0.951 . S
C2420 C2421 1.366 . S
C2420 C2422 1.388 . S
C2421 C2420 1.366 . S
C2421 C2425 1.385 . S
C2422 H2403 0.951 . S
C2422 C2420 1.388 . S
C2422 C2423 1.366 . S
C2423 C2422 1.366 . S
C2423 C2424 1.414 . S
C2423 C2426 1.499 . S
C2424 H2404 0.950 . S
C2424 C2423 1.414 . S
C2424 C2425 1.374 . S
C2425 H2405 0.950 . S
C2425 C2421 1.385 . S
C2425 C2424 1.374 . S
C2426 C2423 1.499 . S
C2426 C2427 1.373 . S
C2426 C2428 1.389 . S
C2427 H2406 0.950 . S
C2427 C2426 1.373 . S
C2427 C2443 1.377 . S
C2428 C2426 1.389 . S
C2428 C2429 1.524 . S
C2428 C2442 1.377 . S
C2429 C2428 1.524 . S
C2429 C2430 1.397 . S
C2429 C2434 1.363 . S
C2430 H2407 0.950 . S
C2430 C2429 1.397 . S
C2430 C2431 1.334 . S
C2431 H2408 0.950 . S
C2431 C2430 1.334 . S
C2431 C2432 1.287 . S
C2432 C2431 1.287 . S
C2432 C2433 1.524 . S
C2432 H2451 0.913 . S
C2433 H2409 0.950 . S
C2433 C2432 1.524 . S
C2433 C2434 1.415 . S
C2434 H2410 0.950 . S
C2434 C2429 1.363 . S
C2434 C2433 1.415 . S
C2435 H2411 0.951 . S
C2435 C2436 1.366 . S
C2435 C2437 1.388 . S
C2436 C2435 1.366 . S
C2436 C2440 1.385 . S
C2437 H2412 0.951 . S
C2437 C2435 1.388 . S
C2437 C2438 1.366 . S
C2438 C2437 1.366 . S
C2438 C2439 1.414 . S
C2438 C2441 1.499 . S
C2439 H2413 0.950 . S
C2439 C2438 1.414 . S
C2439 C2440 1.374 . S
C2440 H2414 0.950 . S
C2440 C2436 1.385 . S
C2440 C2439 1.374 . S
C2441 C2438 1.499 . S
C2441 C2442 1.373 . S
C2441 C2443 1.389 . S
C2442 H2415 0.950 . S
C2442 C2428 1.377 . S
C2442 C2441 1.373 . S
C2443 C2427 1.377 . S
C2443 C2441 1.389 . S
C2443 C2444 1.524 . S
C2444 C2443 1.524 . S
C2444 C2445 1.397 . S
C2444 C2449 1.363 . S
C2445 H2416 0.950 . S
C2445 C2444 1.397 . S
C2445 C2446 1.334 . S
C2446 H2417 0.950 . S
C2446 C2445 1.334 . S
C2446 C2447 1.287 . S
C2447 C2446 1.287 . S
C2447 C2448 1.524 . S
C2447 H2450 0.999 . S
C2448 H2418 0.950 . S
C2448 C2447 1.524 . S
C2448 C2449 1.415 . S
C2449 H2419 0.950 . S
C2449 C2444 1.363 . S
C2449 C2448 1.415 . S
H2450 C2447 0.999 . S
H2451 C2432 0.913 . S
H2452 C2470 0.951 . S
H2453 C2472 0.951 . S
H2454 C2474 0.950 . S
H2455 C2475 0.950 . S
H2456 C2477 0.950 . S
H2457 C2480 0.950 . S
H2458 C2481 0.950 . S
H2459 C2483 0.950 . S
H2460 C2484 0.950 . S
H2461 C2485 0.951 . S
H2462 C2487 0.951 . S
H2463 C2489 0.950 . S
H2464 C2490 0.950 . S
H2465 C2492 0.950 . S
H2466 C2495 0.953 . S
H2467 C2496 0.950 . S
H2468 C2498 0.946 . S
H2469 C2499 0.950 . S
C2470 H2452 0.951 . S
C2470 C2471 1.366 . S
C2470 C2472 1.388 . S
C2471 C2470 1.366 . S
C2471 C2475 1.385 . S
C2472 H2453 0.951 . S
C2472 C2470 1.388 . S
C2472 C2473 1.366 . S
C2473 C2472 1.366 . S
C2473 C2474 1.414 . S
C2473 C2476 1.499 . S
C2474 H2454 0.950 . S
C2474 C2473 1.414 . S
C2474 C2475 1.374 . S
C2475 H2455 0.950 . S
C2475 C2471 1.385 . S
C2475 C2474 1.374 . S
C2476 C2473 1.499 . S
C2476 C2477 1.373 . S
C2476 C2478 1.389 . S
C2477 H2456 0.950 . S
C2477 C2476 1.373 . S
C2477 C2493 1.377 . S
C2478 C2476 1.389 . S
C2478 C2479 1.524 . S
C2478 C2492 1.377 . S
C2479 C2478 1.524 . S
C2479 C2480 1.397 . S
C2479 C2484 1.363 . S
C2480 H2457 0.950 . S
C2480 C2479 1.397 . S
C2480 C2481 1.334 . S
C2481 H2458 0.950 . S
C2481 C2480 1.334 . S
C2481 C2482 1.287 . S
C2482 C2481 1.287 . S
C2482 C2483 1.524 . S
C2482 H2501 0.913 . S
C2483 H2459 0.950 . S
C2483 C2482 1.524 . S
C2483 C2484 1.415 . S
C2484 H2460 0.950 . S
C2484 C2479 1.363 . S
C2484 C2483 1.415 . S
C2485 H2461 0.951 . S
C2485 C2486 1.366 . S
C2485 C2487 1.388 . S
C2486 C2485 1.366 . S
C2486 C2490 1.385 . S
C2487 H2462 0.951 . S
C2487 C2485 1.388 . S
C2487 C2488 1.366 . S
C2488 C2487 1.366 . S
C2488 C2489 1.414 . S
C2488 C2491 1.499 . S
C2489 H2463 0.950 . S
C2489 C2488 1.414 . S
C2489 C2490 1.374 . S
C2490 H2464 0.950 . S
C2490 C2486 1.385 . S
C2490 C2489 1.374 . S
C2491 C2488 1.499 . S
C2491 C2492 1.373 . S
C2491 C2493 1.389 . S
C2492 H2465 0.950 . S
C2492 C2478 1.377 . S
C2492 C2491 1.373 . S
C2493 C2477 1.377 . S
C2493 C2491 1.389 . S
C2493 C2494 1.524 . S
C2494 C2493 1.524 . S
C2494 C2495 1.433 . S
C2494 C2499 1.363 . S
C2495 H2466 0.953 . S
C2495 C2494 1.433 . S
C2495 C2496 1.303 1_556 S
C2496 H2467 0.950 . S
C2496 C2495 1.303 1_554 S
C2496 C2497 1.287 . S
C2497 C2496 1.287 . S
C2497 C2498 1.524 1_554 S
C2497 H2500 0.999 . S
C2498 H2468 0.946 . S
C2498 C2497 1.524 1_556 S
C2498 C2499 1.415 . S
C2499 H2469 0.950 . S
C2499 C2494 1.363 . S
C2499 C2498 1.415 . S
H2500 C2497 0.999 . S
H2501 C2482 0.913 . S
H2502 C2520 0.951 . S
H2503 C2522 0.951 . S
H2504 C2524 0.950 . S
H2505 C2525 0.950 . S
H2506 C2527 0.950 . S
H2507 C2530 0.950 . S
H2508 C2531 0.950 . S
H2509 C2533 0.950 . S
H2510 C2534 0.950 . S
H2511 C2535 0.951 . S
H2512 C2537 0.951 . S
H2513 C2539 0.950 . S
H2514 C2540 0.950 . S
H2515 C2542 0.950 . S
H2516 C2545 0.950 . S
H2517 C2546 0.950 . S
H2518 C2548 0.950 . S
H2519 C2549 0.950 . S
C2520 H2502 0.951 . S
C2520 C2521 1.366 . S
C2520 C2522 1.388 . S
C2521 C2520 1.366 . S
C2521 C2525 1.385 . S
C2522 H2503 0.951 . S
C2522 C2520 1.388 . S
C2522 C2523 1.366 . S
C2523 C2522 1.366 . S
C2523 C2524 1.414 . S
C2523 C2526 1.499 . S
C2524 H2504 0.950 . S
C2524 C2523 1.414 . S
C2524 C2525 1.374 . S
C2525 H2505 0.950 . S
C2525 C2521 1.385 . S
C2525 C2524 1.374 . S
C2526 C2523 1.499 . S
C2526 C2527 1.373 . S
C2526 C2528 1.389 . S
C2527 H2506 0.950 . S
C2527 C2526 1.373 . S
C2527 C2543 1.377 . S
C2528 C2526 1.389 . S
C2528 C2529 1.524 . S
C2528 C2542 1.377 . S
C2529 C2528 1.524 . S
C2529 C2530 1.397 . S
C2529 C2534 1.363 . S
C2530 H2507 0.950 . S
C2530 C2529 1.397 . S
C2530 C2531 1.334 . S
C2531 H2508 0.950 . S
C2531 C2530 1.334 . S
C2531 C2532 1.287 . S
C2532 C2531 1.287 . S
C2532 C2533 1.524 . S
C2532 H2551 0.913 . S
C2533 H2509 0.950 . S
C2533 C2532 1.524 . S
C2533 C2534 1.415 . S
C2534 H2510 0.950 . S
C2534 C2529 1.363 . S
C2534 C2533 1.415 . S
C2535 H2511 0.951 . S
C2535 C2536 1.366 . S
C2535 C2537 1.388 . S
C2536 C2535 1.366 . S
C2536 C2540 1.385 . S
C2537 H2512 0.951 . S
C2537 C2535 1.388 . S
C2537 C2538 1.366 . S
C2538 C2537 1.366 . S
C2538 C2539 1.414 . S
C2538 C2541 1.499 . S
C2539 H2513 0.950 . S
C2539 C2538 1.414 . S
C2539 C2540 1.374 . S
C2540 H2514 0.950 . S
C2540 C2536 1.385 . S
C2540 C2539 1.374 . S
C2541 C2538 1.499 . S
C2541 C2542 1.373 . S
C2541 C2543 1.389 . S
C2542 H2515 0.950 . S
C2542 C2528 1.377 . S
C2542 C2541 1.373 . S
C2543 C2527 1.377 . S
C2543 C2541 1.389 . S
C2543 C2544 1.524 . S
C2544 C2543 1.524 . S
C2544 C2545 1.397 . S
C2544 C2549 1.363 . S
C2545 H2516 0.950 . S
C2545 C2544 1.397 . S
C2545 C2546 1.334 . S
C2546 H2517 0.950 . S
C2546 C2545 1.334 . S
C2546 C2547 1.287 . S
C2547 C2546 1.287 . S
C2547 C2548 1.524 . S
C2547 H2550 0.999 . S
C2548 H2518 0.950 . S
C2548 C2547 1.524 . S
C2548 C2549 1.415 . S
C2549 H2519 0.950 . S
C2549 C2544 1.363 . S
C2549 C2548 1.415 . S
H2550 C2547 0.999 . S
H2551 C2532 0.913 . S
H2552 C2570 0.951 . S
H2553 C2572 0.951 . S
H2554 C2574 0.950 . S
H2555 C2575 0.950 . S
H2556 C2577 0.950 . S
H2557 C2580 0.950 . S
H2558 C2581 0.950 . S
H2559 C2583 0.950 . S
H2560 C2584 0.950 . S
H2561 C2585 0.930 1_565 S
H2562 C2587 0.951 . S
H2563 C2589 0.950 . S
H2564 C2590 0.950 . S
H2565 C2592 0.950 . S
H2566 C2595 0.950 . S
H2567 C2596 0.950 . S
H2568 C2598 0.950 . S
H2569 C2599 0.950 . S
C2570 H2552 0.951 . S
C2570 C2571 1.366 . S
C2570 C2572 1.388 . S
C2571 C2570 1.366 . S
C2571 C2575 1.385 1_545 S
C2572 H2553 0.951 . S
C2572 C2570 1.388 . S
C2572 C2573 1.366 . S
C2573 C2572 1.366 . S
C2573 C2574 1.414 1_545 S
C2573 C2576 1.499 . S
C2574 H2554 0.950 . S
C2574 C2573 1.414 1_565 S
C2574 C2575 1.374 . S
C2575 H2555 0.950 . S
C2575 C2571 1.385 1_565 S
C2575 C2574 1.374 . S
C2576 C2573 1.499 . S
C2576 C2577 1.373 1_545 S
C2576 C2578 1.389 . S
C2577 H2556 0.950 . S
C2577 C2576 1.373 1_565 S
C2577 C2593 1.377 . S
C2578 C2576 1.389 . S
C2578 C2579 1.524 . S
C2578 C2592 1.377 . S
C2579 C2578 1.524 . S
C2579 C2580 1.397 . S
C2579 C2584 1.363 . S
C2580 H2557 0.950 . S
C2580 C2579 1.397 . S
C2580 C2581 1.334 . S
C2581 H2558 0.950 . S
C2581 C2580 1.334 . S
C2581 C2582 1.287 . S
C2582 C2581 1.287 . S
C2582 C2583 1.524 . S
C2582 H2601 0.913 . S
C2583 H2559 0.950 . S
C2583 C2582 1.524 . S
C2583 C2584 1.415 . S
C2584 H2560 0.950 . S
C2584 C2579 1.363 . S
C2584 C2583 1.415 . S
C2585 H2561 0.930 1_545 S
C2585 C2586 1.389 . S
C2585 C2587 1.386 1_545 S
C2586 C2585 1.389 . S
C2586 C2590 1.385 . S
C2587 H2562 0.951 . S
C2587 C2585 1.386 1_565 S
C2587 C2588 1.366 1_565 S
C2588 C2587 1.366 1_545 S
C2588 C2589 1.414 . S
C2588 C2591 1.499 . S
C2589 H2563 0.950 . S
C2589 C2588 1.414 . S
C2589 C2590 1.374 . S
C2590 H2564 0.950 . S
C2590 C2586 1.385 . S
C2590 C2589 1.374 . S
C2591 C2588 1.499 . S
C2591 C2592 1.373 . S
C2591 C2593 1.389 1_545 S
C2592 H2565 0.950 . S
C2592 C2578 1.377 . S
C2592 C2591 1.373 . S
C2593 C2577 1.377 . S
C2593 C2591 1.389 1_565 S
C2593 C2594 1.524 . S
C2594 C2593 1.524 . S
C2594 C2595 1.397 . S
C2594 C2599 1.363 . S
C2595 H2566 0.950 . S
C2595 C2594 1.397 . S
C2595 C2596 1.334 . S
C2596 H2567 0.950 . S
C2596 C2595 1.334 . S
C2596 C2597 1.287 . S
C2597 C2596 1.287 . S
C2597 C2598 1.524 . S
C2597 H2600 0.999 . S
C2598 H2568 0.950 . S
C2598 C2597 1.524 . S
C2598 C2599 1.415 . S
C2599 H2569 0.950 . S
C2599 C2594 1.363 . S
C2599 C2598 1.415 . S
H2600 C2597 0.999 . S
H2601 C2582 0.913 . S
H2602 C2620 0.951 . S
H2603 C2622 0.951 . S
H2604 C2624 0.950 . S
H2605 C2625 0.950 . S
H2606 C2627 0.950 . S
H2607 C2630 0.950 . S
H2608 C2631 0.950 . S
H2609 C2633 0.950 . S
H2610 C2634 0.950 . S
H2611 C2635 0.951 . S
H2612 C2637 0.951 . S
H2613 C2639 0.950 . S
H2614 C2640 0.950 . S
H2615 C2642 0.950 . S
H2616 C2645 0.950 . S
H2617 C2646 0.950 . S
H2618 C2648 0.950 . S
H2619 C2649 0.950 . S
C2620 H2602 0.951 . S
C2620 C2621 1.366 . S
C2620 C2622 1.388 . S
C2621 C2620 1.366 . S
C2621 C2625 1.385 . S
C2622 H2603 0.951 . S
C2622 C2620 1.388 . S
C2622 C2623 1.366 . S
C2623 C2622 1.366 . S
C2623 C2624 1.414 . S
C2623 C2626 1.499 . S
C2624 H2604 0.950 . S
C2624 C2623 1.414 . S
C2624 C2625 1.374 . S
C2625 H2605 0.950 . S
C2625 C2621 1.385 . S
C2625 C2624 1.374 . S
C2626 C2623 1.499 . S
C2626 C2627 1.373 . S
C2626 C2628 1.389 . S
C2627 H2606 0.950 . S
C2627 C2626 1.373 . S
C2627 C2643 1.377 . S
C2628 C2626 1.389 . S
C2628 C2629 1.524 . S
C2628 C2642 1.377 . S
C2629 C2628 1.524 . S
C2629 C2630 1.397 . S
C2629 C2634 1.363 . S
C2630 H2607 0.950 . S
C2630 C2629 1.397 . S
C2630 C2631 1.334 . S
C2631 H2608 0.950 . S
C2631 C2630 1.334 . S
C2631 C2632 1.287 . S
C2632 C2631 1.287 . S
C2632 C2633 1.524 . S
C2632 H2651 0.913 . S
C2633 H2609 0.950 . S
C2633 C2632 1.524 . S
C2633 C2634 1.415 . S
C2634 H2610 0.950 . S
C2634 C2629 1.363 . S
C2634 C2633 1.415 . S
C2635 H2611 0.951 . S
C2635 C2636 1.366 . S
C2635 C2637 1.388 . S
C2636 C2635 1.366 . S
C2636 C2640 1.385 . S
C2637 H2612 0.951 . S
C2637 C2635 1.388 . S
C2637 C2638 1.366 . S
C2638 C2637 1.366 . S
C2638 C2639 1.414 . S
C2638 C2641 1.499 . S
C2639 H2613 0.950 . S
C2639 C2638 1.414 . S
C2639 C2640 1.374 . S
C2640 H2614 0.950 . S
C2640 C2636 1.385 . S
C2640 C2639 1.374 . S
C2641 C2638 1.499 . S
C2641 C2642 1.373 . S
C2641 C2643 1.389 . S
C2642 H2615 0.950 . S
C2642 C2628 1.377 . S
C2642 C2641 1.373 . S
C2643 C2627 1.377 . S
C2643 C2641 1.389 . S
C2643 C2644 1.524 . S
C2644 C2643 1.524 . S
C2644 C2645 1.397 . S
C2644 C2649 1.363 . S
C2645 H2616 0.950 . S
C2645 C2644 1.397 . S
C2645 C2646 1.334 . S
C2646 H2617 0.950 . S
C2646 C2645 1.334 . S
C2646 C2647 1.287 . S
C2647 C2646 1.287 . S
C2647 C2648 1.524 . S
C2647 H2650 0.999 . S
C2648 H2618 0.950 . S
C2648 C2647 1.524 . S
C2648 C2649 1.415 . S
C2649 H2619 0.950 . S
C2649 C2644 1.363 . S
C2649 C2648 1.415 . S
H2650 C2647 0.999 . S
H2651 C2632 0.913 . S
H2652 C2670 0.951 . S
H2653 C2672 0.951 . S
H2654 C2674 0.950 . S
H2655 C2675 0.950 . S
H2656 C2677 0.950 . S
H2657 C2680 0.950 . S
H2658 C2681 0.950 . S
H2659 C2683 0.950 . S
H2660 C2684 0.950 1_545 S
H2661 C2685 0.951 . S
H2662 C2687 0.951 . S
H2663 C2689 0.950 . S
H2664 C2690 0.950 . S
H2665 C2692 0.950 . S
H2666 C2695 0.950 . S
H2667 C2696 0.950 . S
H2668 C2698 0.950 . S
H2669 C2699 0.950 . S
C2670 H2652 0.951 . S
C2670 C2671 1.366 . S
C2670 C2672 1.388 . S
C2671 C2670 1.366 . S
C2671 C2675 1.385 . S
C2672 H2653 0.951 . S
C2672 C2670 1.388 . S
C2672 C2673 1.366 . S
C2673 C2672 1.366 . S
C2673 C2674 1.414 . S
C2673 C2676 1.499 . S
C2674 H2654 0.950 . S
C2674 C2673 1.414 . S
C2674 C2675 1.374 . S
C2675 H2655 0.950 . S
C2675 C2671 1.385 . S
C2675 C2674 1.374 . S
C2676 C2673 1.499 . S
C2676 C2677 1.373 . S
C2676 C2678 1.389 . S
C2677 H2656 0.950 . S
C2677 C2676 1.373 . S
C2677 C2693 1.377 . S
C2678 C2676 1.389 . S
C2678 C2679 1.524 1_545 S
C2678 C2692 1.377 . S
C2679 C2678 1.524 1_565 S
C2679 C2680 1.397 . S
C2679 C2684 1.363 . S
C2680 H2657 0.950 . S
C2680 C2679 1.397 . S
C2680 C2681 1.334 . S
C2681 H2658 0.950 . S
C2681 C2680 1.334 . S
C2681 C2682 1.287 . S
C2682 C2681 1.287 . S
C2682 C2683 1.524 . S
C2682 H2701 0.913 . S
C2683 H2659 0.950 . S
C2683 C2682 1.524 . S
C2683 C2684 1.415 . S
C2684 H2660 0.950 1_565 S
C2684 C2679 1.363 . S
C2684 C2683 1.415 . S
C2685 H2661 0.951 . S
C2685 C2686 1.366 . S
C2685 C2687 1.388 . S
C2686 C2685 1.366 . S
C2686 C2690 1.385 . S
C2687 H2662 0.951 . S
C2687 C2685 1.388 . S
C2687 C2688 1.366 . S
C2688 C2687 1.366 . S
C2688 C2689 1.414 . S
C2688 C2691 1.499 . S
C2689 H2663 0.950 . S
C2689 C2688 1.414 . S
C2689 C2690 1.374 . S
C2690 H2664 0.950 . S
C2690 C2686 1.385 . S
C2690 C2689 1.374 . S
C2691 C2688 1.499 . S
C2691 C2692 1.373 . S
C2691 C2693 1.389 . S
C2692 H2665 0.950 . S
C2692 C2678 1.377 . S
C2692 C2691 1.373 . S
C2693 C2677 1.377 . S
C2693 C2691 1.389 . S
C2693 C2694 1.524 . S
C2694 C2693 1.524 . S
C2694 C2695 1.397 . S
C2694 C2699 1.363 . S
C2695 H2666 0.950 . S
C2695 C2694 1.397 . S
C2695 C2696 1.334 . S
C2696 H2667 0.950 . S
C2696 C2695 1.334 . S
C2696 C2697 1.287 . S
C2697 C2696 1.287 . S
C2697 C2698 1.524 . S
C2697 H2700 0.999 . S
C2698 H2668 0.950 . S
C2698 C2697 1.524 . S
C2698 C2699 1.415 . S
C2699 H2669 0.950 . S
C2699 C2694 1.363 . S
C2699 C2698 1.415 . S
H2700 C2697 0.999 . S
H2701 C2682 0.913 . S
H2702 C2720 0.951 . S
H2703 C2722 0.951 . S
H2704 C2724 0.950 . S
H2705 C2725 0.950 . S
H2706 C2727 0.950 . S
H2707 C2730 0.950 . S
H2708 C2731 0.950 . S
H2709 C2733 0.950 . S
H2710 C2734 0.950 . S
H2711 C2735 0.951 . S
H2712 C2737 0.951 . S
H2713 C2739 0.950 . S
H2714 C2740 0.950 . S
H2715 C2742 0.950 . S
H2716 C2745 0.950 . S
H2717 C2746 0.950 . S
H2718 C2748 0.950 . S
H2719 C2749 0.950 . S
C2720 H2702 0.951 . S
C2720 C2721 1.366 . S
C2720 C2722 1.388 . S
C2721 C2720 1.366 . S
C2721 C2725 1.385 . S
C2722 H2703 0.951 . S
C2722 C2720 1.388 . S
C2722 C2723 1.366 . S
C2723 C2722 1.366 . S
C2723 C2724 1.414 . S
C2723 C2726 1.499 . S
C2724 H2704 0.950 . S
C2724 C2723 1.414 . S
C2724 C2725 1.374 . S
C2725 H2705 0.950 . S
C2725 C2721 1.385 . S
C2725 C2724 1.374 . S
C2726 C2723 1.499 . S
C2726 C2727 1.373 . S
C2726 C2728 1.389 . S
C2727 H2706 0.950 . S
C2727 C2726 1.373 . S
C2727 C2743 1.377 . S
C2728 C2726 1.389 . S
C2728 C2729 1.524 . S
C2728 C2742 1.377 . S
C2729 C2728 1.524 . S
C2729 C2730 1.397 . S
C2729 C2734 1.363 . S
C2730 H2707 0.950 . S
C2730 C2729 1.397 . S
C2730 C2731 1.334 . S
C2731 H2708 0.950 . S
C2731 C2730 1.334 . S
C2731 C2732 1.287 . S
C2732 C2731 1.287 . S
C2732 C2733 1.524 . S
C2732 H2751 0.913 . S
C2733 H2709 0.950 . S
C2733 C2732 1.524 . S
C2733 C2734 1.415 . S
C2734 H2710 0.950 . S
C2734 C2729 1.363 . S
C2734 C2733 1.415 . S
C2735 H2711 0.951 . S
C2735 C2736 1.366 . S
C2735 C2737 1.388 . S
C2736 C2735 1.366 . S
C2736 C2740 1.385 . S
C2737 H2712 0.951 . S
C2737 C2735 1.388 . S
C2737 C2738 1.366 . S
C2738 C2737 1.366 . S
C2738 C2739 1.414 . S
C2738 C2741 1.499 . S
C2739 H2713 0.950 . S
C2739 C2738 1.414 . S
C2739 C2740 1.374 . S
C2740 H2714 0.950 . S
C2740 C2736 1.385 . S
C2740 C2739 1.374 . S
C2741 C2738 1.499 . S
C2741 C2742 1.373 . S
C2741 C2743 1.389 . S
C2742 H2715 0.950 . S
C2742 C2728 1.377 . S
C2742 C2741 1.373 . S
C2743 C2727 1.377 . S
C2743 C2741 1.389 . S
C2743 C2744 1.524 . S
C2744 C2743 1.524 . S
C2744 C2745 1.397 . S
C2744 C2749 1.363 . S
C2745 H2716 0.950 . S
C2745 C2744 1.397 . S
C2745 C2746 1.334 . S
C2746 H2717 0.950 . S
C2746 C2745 1.334 . S
C2746 C2747 1.287 . S
C2747 C2746 1.287 . S
C2747 C2748 1.524 . S
C2747 H2750 0.999 . S
C2748 H2718 0.950 . S
C2748 C2747 1.524 . S
C2748 C2749 1.415 . S
C2749 H2719 0.950 . S
C2749 C2744 1.363 . S
C2749 C2748 1.415 . S
H2750 C2747 0.999 . S
H2751 C2732 0.913 . S
H2752 C2770 0.951 . S
H2753 C2772 0.951 . S
H2754 C2774 0.950 . S
H2755 C2775 0.950 . S
H2756 C2777 0.950 . S
H2757 C2780 0.950 . S
H2758 C2781 0.950 . S
H2759 C2783 0.950 . S
H2760 C2784 0.950 . S
H2761 C2785 0.951 . S
H2762 C2787 0.951 . S
H2763 C2789 0.950 1_565 S
H2764 C2790 0.950 1_565 S
H2765 C2792 0.950 . S
H2766 C2795 0.950 . S
H2767 C2796 0.950 . S
H2768 C2798 0.950 . S
H2769 C2799 0.950 . S
C2770 H2752 0.951 . S
C2770 C2771 1.366 . S
C2770 C2772 1.388 . S
C2771 C2770 1.366 . S
C2771 C2775 1.385 1_565 S
C2772 H2753 0.951 . S
C2772 C2770 1.388 . S
C2772 C2773 1.366 1_565 S
C2773 C2772 1.366 1_545 S
C2773 C2774 1.414 . S
C2773 C2776 1.499 . S
C2774 H2754 0.950 . S
C2774 C2773 1.414 . S
C2774 C2775 1.374 . S
C2775 H2755 0.950 . S
C2775 C2771 1.385 1_545 S
C2775 C2774 1.374 . S
C2776 C2773 1.499 . S
C2776 C2777 1.373 . S
C2776 C2778 1.389 1_545 S
C2777 H2756 0.950 . S
C2777 C2776 1.373 . S
C2777 C2793 1.377 . S
C2778 C2776 1.389 1_565 S
C2778 C2779 1.524 . S
C2778 C2792 1.377 . S
C2779 C2778 1.524 . S
C2779 C2780 1.397 . S
C2779 C2784 1.363 . S
C2780 H2757 0.950 . S
C2780 C2779 1.397 . S
C2780 C2781 1.334 . S
C2781 H2758 0.950 . S
C2781 C2780 1.334 . S
C2781 C2782 1.287 . S
C2782 C2781 1.287 . S
C2782 C2783 1.524 . S
C2782 H2801 0.913 . S
C2783 H2759 0.950 . S
C2783 C2782 1.524 . S
C2783 C2784 1.415 . S
C2784 H2760 0.950 . S
C2784 C2779 1.363 . S
C2784 C2783 1.415 . S
C2785 H2761 0.951 . S
C2785 C2786 1.366 . S
C2785 C2787 1.388 . S
C2786 C2785 1.366 . S
C2786 C2790 1.385 . S
C2787 H2762 0.951 . S
C2787 C2785 1.388 . S
C2787 C2788 1.366 . S
C2788 C2787 1.366 . S
C2788 C2789 1.414 . S
C2788 C2791 1.499 . S
C2789 H2763 0.950 1_545 S
C2789 C2788 1.414 . S
C2789 C2790 1.374 . S
C2790 H2764 0.950 1_545 S
C2790 C2786 1.385 . S
C2790 C2789 1.374 . S
C2791 C2788 1.499 . S
C2791 C2792 1.373 1_545 S
C2791 C2793 1.389 . S
C2792 H2765 0.950 . S
C2792 C2778 1.377 . S
C2792 C2791 1.373 1_565 S
C2793 C2777 1.377 . S
C2793 C2791 1.389 . S
C2793 C2794 1.524 . S
C2794 C2793 1.524 . S
C2794 C2795 1.397 . S
C2794 C2799 1.363 . S
C2795 H2766 0.950 . S
C2795 C2794 1.397 . S
C2795 C2796 1.334 . S
C2796 H2767 0.950 . S
C2796 C2795 1.334 . S
C2796 C2797 1.287 . S
C2797 C2796 1.287 . S
C2797 C2798 1.524 . S
C2797 H2800 0.999 . S
C2798 H2768 0.950 . S
C2798 C2797 1.524 . S
C2798 C2799 1.415 . S
C2799 H2769 0.950 . S
C2799 C2794 1.363 . S
C2799 C2798 1.415 . S
H2800 C2797 0.999 . S
H2801 C2782 0.913 . S
H2802 C2820 0.951 . S
H2803 C2822 0.951 . S
H2804 C2824 0.950 . S
H2805 C2825 0.950 . S
H2806 C2827 0.950 . S
H2807 C2830 0.950 . S
H2808 C2831 0.950 . S
H2809 C2833 0.950 . S
H2810 C2834 0.950 . S
H2811 C2835 0.951 . S
H2812 C2837 0.951 . S
H2813 C2839 0.950 . S
H2814 C2840 0.950 . S
H2815 C2842 0.950 . S
H2816 C2845 0.950 . S
H2817 C2846 0.950 . S
H2818 C2848 0.950 . S
H2819 C2849 0.950 . S
C2820 H2802 0.951 . S
C2820 C2821 1.366 . S
C2820 C2822 1.388 . S
C2821 C2820 1.366 . S
C2821 C2825 1.385 . S
C2822 H2803 0.951 . S
C2822 C2820 1.388 . S
C2822 C2823 1.366 . S
C2823 C2822 1.366 . S
C2823 C2824 1.414 . S
C2823 C2826 1.499 . S
C2824 H2804 0.950 . S
C2824 C2823 1.414 . S
C2824 C2825 1.374 . S
C2825 H2805 0.950 . S
C2825 C2821 1.385 . S
C2825 C2824 1.374 . S
C2826 C2823 1.499 . S
C2826 C2827 1.373 . S
C2826 C2828 1.389 . S
C2827 H2806 0.950 . S
C2827 C2826 1.373 . S
C2827 C2843 1.377 . S
C2828 C2826 1.389 . S
C2828 C2829 1.524 . S
C2828 C2842 1.377 . S
C2829 C2828 1.524 . S
C2829 C2830 1.397 . S
C2829 C2834 1.363 . S
C2830 H2807 0.950 . S
C2830 C2829 1.397 . S
C2830 C2831 1.334 . S
C2831 H2808 0.950 . S
C2831 C2830 1.334 . S
C2831 C2832 1.287 . S
C2832 C2831 1.287 . S
C2832 C2833 1.524 . S
C2832 H2851 0.913 . S
C2833 H2809 0.950 . S
C2833 C2832 1.524 . S
C2833 C2834 1.415 . S
C2834 H2810 0.950 . S
C2834 C2829 1.363 . S
C2834 C2833 1.415 . S
C2835 H2811 0.951 . S
C2835 C2836 1.366 . S
C2835 C2837 1.388 . S
C2836 C2835 1.366 . S
C2836 C2840 1.385 . S
C2837 H2812 0.951 . S
C2837 C2835 1.388 . S
C2837 C2838 1.366 . S
C2838 C2837 1.366 . S
C2838 C2839 1.414 . S
C2838 C2841 1.499 . S
C2839 H2813 0.950 . S
C2839 C2838 1.414 . S
C2839 C2840 1.374 . S
C2840 H2814 0.950 . S
C2840 C2836 1.385 . S
C2840 C2839 1.374 . S
C2841 C2838 1.499 . S
C2841 C2842 1.373 . S
C2841 C2843 1.389 . S
C2842 H2815 0.950 . S
C2842 C2828 1.377 . S
C2842 C2841 1.373 . S
C2843 C2827 1.377 . S
C2843 C2841 1.389 . S
C2843 C2844 1.524 . S
C2844 C2843 1.524 . S
C2844 C2845 1.397 . S
C2844 C2849 1.363 . S
C2845 H2816 0.950 . S
C2845 C2844 1.397 . S
C2845 C2846 1.334 . S
C2846 H2817 0.950 . S
C2846 C2845 1.334 . S
C2846 C2847 1.287 . S
C2847 C2846 1.287 . S
C2847 C2848 1.524 . S
C2847 H2850 0.999 . S
C2848 H2818 0.950 . S
C2848 C2847 1.524 . S
C2848 C2849 1.415 . S
C2849 H2819 0.950 . S
C2849 C2844 1.363 . S
C2849 C2848 1.415 . S
H2850 C2847 0.999 . S
H2851 C2832 0.913 . S
H2852 C2870 0.951 . S
H2853 C2872 0.930 1_565 S
H2854 C2874 0.950 . S
H2855 C2875 0.950 . S
H2856 C2877 0.950 . S
H2857 C2880 0.950 . S
H2858 C2881 0.950 . S
H2859 C2883 0.950 . S
H2860 C2884 0.950 . S
H2861 C2885 0.951 . S
H2862 C2887 0.951 . S
H2863 C2889 0.950 . S
H2864 C2890 0.950 . S
H2865 C2892 0.950 . S
H2866 C2895 0.950 . S
H2867 C2896 0.950 . S
H2868 C2898 0.950 . S
H2869 C2899 0.950 . S
C2870 H2852 0.951 . S
C2870 C2871 1.366 . S
C2870 C2872 1.388 . S
C2871 C2870 1.366 . S
C2871 C2875 1.385 . S
C2872 H2853 0.930 1_545 S
C2872 C2870 1.388 . S
C2872 C2873 1.366 . S
C2873 C2872 1.366 . S
C2873 C2874 1.414 . S
C2873 C2876 1.499 . S
C2874 H2854 0.950 . S
C2874 C2873 1.414 . S
C2874 C2875 1.374 . S
C2875 H2855 0.950 . S
C2875 C2871 1.385 . S
C2875 C2874 1.374 . S
C2876 C2873 1.499 . S
C2876 C2877 1.372 1_545 S
C2876 C2878 1.390 . S
C2877 H2856 0.950 . S
C2877 C2876 1.372 1_565 S
C2877 C2893 1.377 . S
C2878 C2876 1.390 . S
C2878 C2879 1.524 . S
C2878 C2892 1.377 . S
C2879 C2878 1.524 . S
C2879 C2880 1.397 . S
C2879 C2884 1.363 . S
C2880 H2857 0.950 . S
C2880 C2879 1.397 . S
C2880 C2881 1.334 . S
C2881 H2858 0.950 . S
C2881 C2880 1.334 . S
C2881 C2882 1.287 . S
C2882 C2881 1.287 . S
C2882 C2883 1.524 . S
C2882 H2901 0.913 . S
C2883 H2859 0.950 . S
C2883 C2882 1.524 . S
C2883 C2884 1.415 . S
C2884 H2860 0.950 . S
C2884 C2879 1.363 . S
C2884 C2883 1.415 . S
C2885 H2861 0.951 . S
C2885 C2886 1.366 . S
C2885 C2887 1.388 . S
C2886 C2885 1.366 . S
C2886 C2890 1.385 . S
C2887 H2862 0.951 . S
C2887 C2885 1.388 . S
C2887 C2888 1.366 . S
C2888 C2887 1.366 . S
C2888 C2889 1.414 . S
C2888 C2891 1.499 . S
C2889 H2863 0.950 . S
C2889 C2888 1.414 . S
C2889 C2890 1.374 . S
C2890 H2864 0.950 . S
C2890 C2886 1.385 . S
C2890 C2889 1.374 . S
C2891 C2888 1.499 . S
C2891 C2892 1.373 1_565 S
C2891 C2893 1.389 . S
C2892 H2865 0.950 . S
C2892 C2878 1.377 . S
C2892 C2891 1.373 1_545 S
C2893 C2877 1.377 . S
C2893 C2891 1.389 . S
C2893 C2894 1.524 . S
C2894 C2893 1.524 . S
C2894 C2895 1.397 . S
C2894 C2899 1.363 . S
C2895 H2866 0.950 . S
C2895 C2894 1.397 . S
C2895 C2896 1.334 . S
C2896 H2867 0.950 . S
C2896 C2895 1.334 . S
C2896 C2897 1.287 . S
C2897 C2896 1.287 . S
C2897 C2898 1.524 . S
C2897 H2900 0.999 . S
C2898 H2868 0.950 . S
C2898 C2897 1.524 . S
C2898 C2899 1.415 . S
C2899 H2869 0.950 . S
C2899 C2894 1.363 . S
C2899 C2898 1.415 . S
H2900 C2897 0.999 . S
H2901 C2882 0.913 . S
H2902 C2920 0.951 . S
H2903 C2922 0.951 . S
H2904 C2924 0.950 . S
H2905 C2925 0.950 . S
H2906 C2927 0.950 . S
H2907 C2930 0.950 . S
H2908 C2931 0.950 . S
H2909 C2933 0.950 . S
H2910 C2934 0.950 . S
H2911 C2935 0.951 . S
H2912 C2937 0.951 . S
H2913 C2939 0.950 . S
H2914 C2940 0.950 . S
H2915 C2942 0.950 . S
H2916 C2945 0.950 . S
H2917 C2946 0.950 . S
H2918 C2948 0.950 . S
H2919 C2949 0.950 . S
C2920 H2902 0.951 . S
C2920 C2921 1.366 . S
C2920 C2922 1.388 . S
C2921 C2920 1.366 . S
C2921 C2925 1.385 . S
C2922 H2903 0.951 . S
C2922 C2920 1.388 . S
C2922 C2923 1.366 . S
C2923 C2922 1.366 . S
C2923 C2924 1.414 . S
C2923 C2926 1.499 . S
C2924 H2904 0.950 . S
C2924 C2923 1.414 . S
C2924 C2925 1.374 . S
C2925 H2905 0.950 . S
C2925 C2921 1.385 . S
C2925 C2924 1.374 . S
C2926 C2923 1.499 . S
C2926 C2927 1.373 . S
C2926 C2928 1.389 . S
C2927 H2906 0.950 . S
C2927 C2926 1.373 . S
C2927 C2943 1.377 . S
C2928 C2926 1.389 . S
C2928 C2929 1.524 . S
C2928 C2942 1.377 . S
C2929 C2928 1.524 . S
C2929 C2930 1.397 . S
C2929 C2934 1.363 . S
C2930 H2907 0.950 . S
C2930 C2929 1.397 . S
C2930 C2931 1.334 . S
C2931 H2908 0.950 . S
C2931 C2930 1.334 . S
C2931 C2932 1.287 . S
C2932 C2931 1.287 . S
C2932 C2933 1.524 . S
C2932 H2951 0.913 . S
C2933 H2909 0.950 . S
C2933 C2932 1.524 . S
C2933 C2934 1.415 . S
C2934 H2910 0.950 . S
C2934 C2929 1.363 . S
C2934 C2933 1.415 . S
C2935 H2911 0.951 . S
C2935 C2936 1.366 . S
C2935 C2937 1.388 . S
C2936 C2935 1.366 . S
C2936 C2940 1.385 . S
C2937 H2912 0.951 . S
C2937 C2935 1.388 . S
C2937 C2938 1.366 . S
C2938 C2937 1.366 . S
C2938 C2939 1.414 . S
C2938 C2941 1.499 . S
C2939 H2913 0.950 . S
C2939 C2938 1.414 . S
C2939 C2940 1.374 . S
C2940 H2914 0.950 . S
C2940 C2936 1.385 . S
C2940 C2939 1.374 . S
C2941 C2938 1.499 . S
C2941 C2942 1.373 . S
C2941 C2943 1.389 . S
C2942 H2915 0.950 . S
C2942 C2928 1.377 . S
C2942 C2941 1.373 . S
C2943 C2927 1.377 . S
C2943 C2941 1.389 . S
C2943 C2944 1.524 . S
C2944 C2943 1.524 . S
C2944 C2945 1.397 . S
C2944 C2949 1.363 . S
C2945 H2916 0.950 . S
C2945 C2944 1.397 . S
C2945 C2946 1.334 . S
C2946 H2917 0.950 . S
C2946 C2945 1.334 . S
C2946 C2947 1.287 . S
C2947 C2946 1.287 . S
C2947 C2948 1.524 . S
C2947 H2950 0.999 . S
C2948 H2918 0.950 . S
C2948 C2947 1.524 . S
C2948 C2949 1.415 . S
C2949 H2919 0.950 . S
C2949 C2944 1.363 . S
C2949 C2948 1.415 . S
H2950 C2947 0.999 . S
H2951 C2932 0.913 . S
H2952 C2970 0.951 . S
H2953 C2972 0.951 . S
H2954 C2974 0.950 . S
H2955 C2975 0.950 . S
H2956 C2977 0.950 . S
H2957 C2980 0.950 . S
H2958 C2981 0.950 . S
H2959 C2983 0.950 . S
H2960 C2984 0.950 . S
H2961 C2985 0.951 . S
H2962 C2987 0.951 . S
H2963 C2989 0.950 1_554 S
H2964 C2990 0.935 1_554 S
H2965 C2992 0.950 . S
H2966 C2995 0.950 . S
H2967 C2996 0.950 . S
H2968 C2998 0.950 . S
H2969 C2999 0.950 . S
C2970 H2952 0.951 . S
C2970 C2971 1.366 . S
C2970 C2972 1.388 . S
C2971 C2970 1.366 . S
C2971 C2975 1.385 1_554 S
C2972 H2953 0.951 . S
C2972 C2970 1.388 . S
C2972 C2973 1.366 1_554 S
C2973 C2972 1.366 1_556 S
C2973 C2974 1.414 . S
C2973 C2976 1.499 . S
C2974 H2954 0.950 . S
C2974 C2973 1.414 . S
C2974 C2975 1.374 . S
C2975 H2955 0.950 . S
C2975 C2971 1.385 1_556 S
C2975 C2974 1.374 . S
C2976 C2973 1.499 . S
C2976 C2977 1.373 . S
C2976 C2978 1.389 1_556 S
C2977 H2956 0.950 . S
C2977 C2976 1.373 . S
C2977 C2993 1.377 . S
C2978 C2976 1.389 1_554 S
C2978 C2979 1.524 . S
C2978 C2992 1.377 . S
C2979 C2978 1.524 . S
C2979 C2980 1.397 . S
C2979 C2984 1.363 . S
C2980 H2957 0.950 . S
C2980 C2979 1.397 . S
C2980 C2981 1.334 . S
C2981 H2958 0.950 . S
C2981 C2980 1.334 . S
C2981 C2982 1.287 . S
C2982 C2981 1.287 . S
C2982 C2983 1.524 . S
C2982 H3001 0.913 . S
C2983 H2959 0.950 . S
C2983 C2982 1.524 . S
C2983 C2984 1.415 . S
C2984 H2960 0.950 . S
C2984 C2979 1.363 . S
C2984 C2983 1.415 . S
C2985 H2961 0.951 . S
C2985 C2986 1.366 . S
C2985 C2987 1.388 . S
C2986 C2985 1.366 . S
C2986 C2990 1.385 . S
C2987 H2962 0.951 . S
C2987 C2985 1.388 . S
C2987 C2988 1.366 . S
C2988 C2987 1.366 . S
C2988 C2989 1.414 . S
C2988 C2991 1.499 . S
C2989 H2963 0.950 1_556 S
C2989 C2988 1.414 . S
C2989 C2990 1.374 . S
C2990 H2964 0.935 1_556 S
C2990 C2986 1.385 . S
C2990 C2989 1.374 . S
C2991 C2988 1.499 . S
C2991 C2992 1.373 1_556 S
C2991 C2993 1.389 . S
C2992 H2965 0.950 . S
C2992 C2978 1.377 . S
C2992 C2991 1.373 1_554 S
C2993 C2977 1.377 . S
C2993 C2991 1.389 . S
C2993 C2994 1.524 . S
C2994 C2993 1.524 . S
C2994 C2995 1.397 . S
C2994 C2999 1.363 . S
C2995 H2966 0.950 . S
C2995 C2994 1.397 . S
C2995 C2996 1.334 . S
C2996 H2967 0.950 . S
C2996 C2995 1.334 . S
C2996 C2997 1.287 . S
C2997 C2996 1.287 . S
C2997 C2998 1.524 . S
C2997 H3000 0.999 . S
C2998 H2968 0.950 . S
C2998 C2997 1.524 . S
C2998 C2999 1.415 . S
C2999 H2969 0.950 . S
C2999 C2994 1.363 . S
C2999 C2998 1.415 . S
H3000 C2997 0.999 . S
H3001 C2982 0.913 . S
H3002 C3020 0.951 . S
H3003 C3022 0.951 . S
H3004 C3024 0.950 . S
H3005 C3025 0.950 . S
H3006 C3027 0.968 . S
H3007 C3030 0.950 . S
H3008 C3031 0.950 . S
H3009 C3033 0.950 . S
H3010 C3034 0.950 . S
H3011 C3035 0.951 . S
H3012 C3037 0.951 . S
H3013 C3039 0.950 . S
H3014 C3040 0.950 . S
H3015 C3042 0.950 . S
H3016 C3045 0.950 . S
H3017 C3046 0.950 . S
H3018 C3048 0.950 . S
H3019 C3049 0.950 . S
C3020 H3002 0.951 . S
C3020 C3021 1.366 . S
C3020 C3022 1.388 . S
C3021 C3020 1.366 . S
C3021 C3025 1.385 . S
C3022 H3003 0.951 . S
C3022 C3020 1.388 . S
C3022 C3023 1.366 . S
C3023 C3022 1.366 . S
C3023 C3024 1.414 . S
C3023 C3026 1.499 . S
C3024 H3004 0.950 . S
C3024 C3023 1.414 . S
C3024 C3025 1.374 . S
C3025 H3005 0.950 . S
C3025 C3021 1.385 . S
C3025 C3024 1.374 . S
C3026 C3023 1.499 . S
C3026 C3027 1.373 . S
C3026 C3028 1.389 . S
C3027 H3006 0.968 . S
C3027 C3026 1.373 . S
C3027 C3043 1.377 . S
C3028 C3026 1.389 . S
C3028 C3029 1.524 . S
C3028 C3042 1.377 . S
C3029 C3028 1.524 . S
C3029 C3030 1.397 . S
C3029 C3034 1.363 . S
C3030 H3007 0.950 . S
C3030 C3029 1.397 . S
C3030 C3031 1.334 . S
C3031 H3008 0.950 . S
C3031 C3030 1.334 . S
C3031 C3032 1.287 . S
C3032 C3031 1.287 . S
C3032 C3033 1.524 . S
C3032 H3051 0.913 . S
C3033 H3009 0.950 . S
C3033 C3032 1.524 . S
C3033 C3034 1.415 . S
C3034 H3010 0.950 . S
C3034 C3029 1.363 . S
C3034 C3033 1.415 . S
C3035 H3011 0.951 . S
C3035 C3036 1.366 . S
C3035 C3037 1.388 . S
C3036 C3035 1.366 . S
C3036 C3040 1.385 . S
C3037 H3012 0.951 . S
C3037 C3035 1.388 . S
C3037 C3038 1.366 . S
C3038 C3037 1.366 . S
C3038 C3039 1.414 . S
C3038 C3041 1.499 . S
C3039 H3013 0.950 . S
C3039 C3038 1.414 . S
C3039 C3040 1.374 . S
C3040 H3014 0.950 . S
C3040 C3036 1.385 . S
C3040 C3039 1.374 . S
C3041 C3038 1.499 . S
C3041 C3042 1.373 . S
C3041 C3043 1.389 . S
C3042 H3015 0.950 . S
C3042 C3028 1.377 . S
C3042 C3041 1.373 . S
C3043 C3027 1.377 . S
C3043 C3041 1.389 . S
C3043 C3044 1.524 1_554 S
C3044 C3043 1.524 1_556 S
C3044 C3045 1.397 . S
C3044 C3049 1.363 . S
C3045 H3016 0.950 . S
C3045 C3044 1.397 . S
C3045 C3046 1.334 . S
C3046 H3017 0.950 . S
C3046 C3045 1.334 . S
C3046 C3047 1.287 . S
C3047 C3046 1.287 . S
C3047 C3048 1.524 . S
C3047 H3050 0.999 . S
C3048 H3018 0.950 . S
C3048 C3047 1.524 . S
C3048 C3049 1.415 . S
C3049 H3019 0.950 . S
C3049 C3044 1.363 . S
C3049 C3048 1.415 . S
H3050 C3047 0.999 . S
H3051 C3032 0.913 . S
H3052 C3070 0.951 . S
H3053 C3072 0.951 . S
H3054 C3074 0.950 . S
H3055 C3075 0.950 . S
H3056 C3077 0.950 . S
H3057 C3080 0.950 . S
H3058 C3081 0.950 . S
H3059 C3083 0.950 . S
H3060 C3084 0.950 . S
H3061 C3085 0.951 . S
H3062 C3087 0.951 . S
H3063 C3089 0.950 . S
H3064 C3090 0.950 . S
H3065 C3092 0.950 . S
H3066 C3095 0.950 . S
H3067 C3096 0.950 . S
H3068 C3098 0.950 . S
H3069 C3099 0.950 . S
C3070 H3052 0.951 . S
C3070 C3071 1.366 . S
C3070 C3072 1.388 . S
C3071 C3070 1.366 . S
C3071 C3075 1.385 . S
C3072 H3053 0.951 . S
C3072 C3070 1.388 . S
C3072 C3073 1.366 . S
C3073 C3072 1.366 . S
C3073 C3074 1.414 . S
C3073 C3076 1.499 . S
C3074 H3054 0.950 . S
C3074 C3073 1.414 . S
C3074 C3075 1.374 . S
C3075 H3055 0.950 . S
C3075 C3071 1.385 . S
C3075 C3074 1.374 . S
C3076 C3073 1.499 . S
C3076 C3077 1.373 . S
C3076 C3078 1.389 . S
C3077 H3056 0.950 . S
C3077 C3076 1.373 . S
C3077 C3093 1.377 . S
C3078 C3076 1.389 . S
C3078 C3079 1.524 . S
C3078 C3092 1.377 . S
C3079 C3078 1.524 . S
C3079 C3080 1.397 . S
C3079 C3084 1.363 . S
C3080 H3057 0.950 . S
C3080 C3079 1.397 . S
C3080 C3081 1.334 . S
C3081 H3058 0.950 . S
C3081 C3080 1.334 . S
C3081 C3082 1.287 . S
C3082 C3081 1.287 . S
C3082 C3083 1.524 . S
C3082 H3101 0.913 . S
C3083 H3059 0.950 . S
C3083 C3082 1.524 . S
C3083 C3084 1.415 . S
C3084 H3060 0.950 . S
C3084 C3079 1.363 . S
C3084 C3083 1.415 . S
C3085 H3061 0.951 . S
C3085 C3086 1.366 . S
C3085 C3087 1.388 . S
C3086 C3085 1.366 . S
C3086 C3090 1.385 . S
C3087 H3062 0.951 . S
C3087 C3085 1.388 . S
C3087 C3088 1.366 . S
C3088 C3087 1.366 . S
C3088 C3089 1.414 . S
C3088 C3091 1.499 . S
C3089 H3063 0.950 . S
C3089 C3088 1.414 . S
C3089 C3090 1.374 . S
C3090 H3064 0.950 . S
C3090 C3086 1.385 . S
C3090 C3089 1.374 . S
C3091 C3088 1.499 . S
C3091 C3092 1.373 . S
C3091 C3093 1.389 . S
C3092 H3065 0.950 . S
C3092 C3078 1.377 . S
C3092 C3091 1.373 . S
C3093 C3077 1.377 . S
C3093 C3091 1.389 . S
C3093 C3094 1.524 . S
C3094 C3093 1.524 . S
C3094 C3095 1.397 . S
C3094 C3099 1.363 . S
C3095 H3066 0.950 . S
C3095 C3094 1.397 . S
C3095 C3096 1.334 . S
C3096 H3067 0.950 . S
C3096 C3095 1.334 . S
C3096 C3097 1.287 . S
C3097 C3096 1.287 . S
C3097 C3098 1.524 . S
C3097 H3100 0.999 . S
C3098 H3068 0.950 . S
C3098 C3097 1.524 . S
C3098 C3099 1.415 . S
C3099 H3069 0.950 . S
C3099 C3094 1.363 . S
C3099 C3098 1.415 . S
H3100 C3097 0.999 . S
H3101 C3082 0.913 . S
H3102 C3120 0.951 . S
H3103 C3122 0.951 . S
H3104 C3124 0.950 . S
H3105 C3125 0.950 . S
H3106 C3127 0.950 . S
H3107 C3130 0.950 . S
H3108 C3131 0.950 . S
H3109 C3133 0.950 . S
H3110 C3134 0.950 . S
H3111 C3135 0.951 . S
H3112 C3137 0.951 . S
H3113 C3139 0.950 . S
H3114 C3140 0.950 . S
H3115 C3142 0.950 . S
H3116 C3145 0.950 . S
H3117 C3146 0.950 . S
H3118 C3148 0.950 . S
H3119 C3149 0.950 . S
C3120 H3102 0.951 . S
C3120 C3121 1.366 . S
C3120 C3122 1.388 . S
C3121 C3120 1.366 . S
C3121 C3125 1.385 . S
C3122 H3103 0.951 . S
C3122 C3120 1.388 . S
C3122 C3123 1.366 . S
C3123 C3122 1.366 . S
C3123 C3124 1.414 . S
C3123 C3126 1.499 . S
C3124 H3104 0.950 . S
C3124 C3123 1.414 . S
C3124 C3125 1.374 . S
C3125 H3105 0.950 . S
C3125 C3121 1.385 . S
C3125 C3124 1.374 . S
C3126 C3123 1.499 . S
C3126 C3127 1.373 . S
C3126 C3128 1.389 . S
C3127 H3106 0.950 . S
C3127 C3126 1.373 . S
C3127 C3143 1.377 . S
C3128 C3126 1.389 . S
C3128 C3129 1.524 . S
C3128 C3142 1.377 . S
C3129 C3128 1.524 . S
C3129 C3130 1.397 . S
C3129 C3134 1.363 . S
C3130 H3107 0.950 . S
C3130 C3129 1.397 . S
C3130 C3131 1.334 . S
C3131 H3108 0.950 . S
C3131 C3130 1.334 . S
C3131 C3132 1.287 . S
C3132 C3131 1.287 . S
C3132 C3133 1.524 . S
C3132 H3151 0.913 . S
C3133 H3109 0.950 . S
C3133 C3132 1.524 . S
C3133 C3134 1.415 . S
C3134 H3110 0.950 . S
C3134 C3129 1.363 . S
C3134 C3133 1.415 . S
C3135 H3111 0.951 . S
C3135 C3136 1.366 . S
C3135 C3137 1.388 . S
C3136 C3135 1.366 . S
C3136 C3140 1.385 . S
C3137 H3112 0.951 . S
C3137 C3135 1.388 . S
C3137 C3138 1.366 . S
C3138 C3137 1.366 . S
C3138 C3139 1.414 . S
C3138 C3141 1.499 . S
C3139 H3113 0.950 . S
C3139 C3138 1.414 . S
C3139 C3140 1.374 . S
C3140 H3114 0.950 . S
C3140 C3136 1.385 . S
C3140 C3139 1.374 . S
C3141 C3138 1.499 . S
C3141 C3142 1.373 . S
C3141 C3143 1.389 . S
C3142 H3115 0.950 . S
C3142 C3128 1.377 . S
C3142 C3141 1.373 . S
C3143 C3127 1.377 . S
C3143 C3141 1.389 . S
C3143 C3144 1.524 . S
C3144 C3143 1.524 . S
C3144 C3145 1.397 . S
C3144 C3149 1.363 . S
C3145 H3116 0.950 . S
C3145 C3144 1.397 . S
C3145 C3146 1.334 . S
C3146 H3117 0.950 . S
C3146 C3145 1.334 . S
C3146 C3147 1.287 . S
C3147 C3146 1.287 . S
C3147 C3148 1.524 . S
C3147 H3150 0.999 . S
C3148 H3118 0.950 . S
C3148 C3147 1.524 . S
C3148 C3149 1.415 . S
C3149 H3119 0.950 . S
C3149 C3144 1.363 . S
C3149 C3148 1.415 . S
H3150 C3147 0.999 . S
H3151 C3132 0.913 . S
H3152 C3170 0.951 . S
H3153 C3172 0.950 . S
H3154 C3174 0.950 . S
H3155 C3175 0.950 . S
H3156 C3177 0.950 . S
H3157 C3180 0.950 1_565 S
H3158 C3181 0.950 . S
H3159 C3183 0.950 . S
H3160 C3184 0.950 1_565 S
H3161 C3185 0.951 . S
H3162 C3187 0.951 . S
H3163 C3189 0.950 . S
H3164 C3190 0.950 . S
H3165 C3192 0.950 . S
H3166 C3195 0.950 . S
H3167 C3196 0.950 . S
H3168 C3198 0.950 . S
H3169 C3199 0.950 . S
C3170 H3152 0.951 . S
C3170 C3171 1.366 . S
C3170 C3172 1.388 1_545 S
C3171 C3170 1.366 . S
C3171 C3175 1.385 1_545 S
C3172 H3153 0.950 . S
C3172 C3170 1.388 1_565 S
C3172 C3173 1.366 . S
C3173 C3172 1.366 . S
C3173 C3174 1.414 . S
C3173 C3176 1.499 . S
C3174 H3154 0.950 . S
C3174 C3173 1.414 . S
C3174 C3175 1.374 . S
C3175 H3155 0.950 . S
C3175 C3171 1.385 1_565 S
C3175 C3174 1.374 . S
C3176 C3173 1.499 . S
C3176 C3177 1.373 . S
C3176 C3178 1.389 . S
C3177 H3156 0.950 . S
C3177 C3176 1.373 . S
C3177 C3193 1.377 . S
C3178 C3176 1.389 . S
C3178 C3179 1.524 . S
C3178 C3192 1.377 . S
C3179 C3178 1.524 . S
C3179 C3180 1.397 1_565 S
C3179 C3184 1.363 1_565 S
C3180 H3157 0.950 1_545 S
C3180 C3179 1.397 1_545 S
C3180 C3181 1.334 . S
C3181 H3158 0.950 . S
C3181 C3180 1.334 . S
C3181 C3182 1.287 . S
C3182 C3181 1.287 . S
C3182 C3183 1.524 . S
C3182 H3201 0.913 . S
C3183 H3159 0.950 . S
C3183 C3182 1.524 . S
C3183 C3184 1.415 . S
C3184 H3160 0.950 1_545 S
C3184 C3179 1.363 1_545 S
C3184 C3183 1.415 . S
C3185 H3161 0.951 . S
C3185 C3186 1.366 . S
C3185 C3187 1.388 . S
C3186 C3185 1.366 . S
C3186 C3190 1.385 . S
C3187 H3162 0.951 . S
C3187 C3185 1.388 . S
C3187 C3188 1.366 . S
C3188 C3187 1.366 . S
C3188 C3189 1.414 . S
C3188 C3191 1.499 . S
C3189 H3163 0.950 . S
C3189 C3188 1.414 . S
C3189 C3190 1.374 . S
C3190 H3164 0.950 . S
C3190 C3186 1.385 . S
C3190 C3189 1.374 . S
C3191 C3188 1.499 . S
C3191 C3192 1.373 . S
C3191 C3193 1.389 . S
C3192 H3165 0.950 . S
C3192 C3178 1.377 . S
C3192 C3191 1.373 . S
C3193 C3177 1.377 . S
C3193 C3191 1.389 . S
C3193 C3194 1.524 . S
C3194 C3193 1.524 . S
C3194 C3195 1.397 . S
C3194 C3199 1.363 . S
C3195 H3166 0.950 . S
C3195 C3194 1.397 . S
C3195 C3196 1.334 . S
C3196 H3167 0.950 . S
C3196 C3195 1.334 . S
C3196 C3197 1.287 . S
C3197 C3196 1.287 . S
C3197 C3198 1.524 . S
C3197 H3200 0.999 . S
C3198 H3168 0.950 . S
C3198 C3197 1.524 . S
C3198 C3199 1.415 . S
C3199 H3169 0.950 . S
C3199 C3194 1.363 . S
C3199 C3198 1.415 . S
H3200 C3197 0.999 . S
H3201 C3182 0.913 . S
H3202 C3220 0.951 . S
H3203 C3222 0.951 . S
H3204 C3224 0.950 . S
H3205 C3225 0.950 . S
H3206 C3227 0.950 . S
H3207 C3230 0.950 . S
H3208 C3231 0.950 . S
H3209 C3233 0.950 . S
H3210 C3234 0.950 . S
H3211 C3235 0.951 . S
H3212 C3237 0.951 . S
H3213 C3239 0.950 . S
H3214 C3240 0.950 . S
H3215 C3242 0.950 . S
H3216 C3245 0.950 . S
H3217 C3246 0.950 . S
H3218 C3248 0.972 . S
H3219 C3249 0.950 . S
C3220 H3202 0.951 . S
C3220 C3221 1.366 . S
C3220 C3222 1.388 . S
C3221 C3220 1.366 . S
C3221 C3225 1.385 . S
C3222 H3203 0.951 . S
C3222 C3220 1.388 . S
C3222 C3223 1.366 . S
C3223 C3222 1.366 . S
C3223 C3224 1.414 . S
C3223 C3226 1.499 . S
C3224 H3204 0.950 . S
C3224 C3223 1.414 . S
C3224 C3225 1.374 . S
C3225 H3205 0.950 . S
C3225 C3221 1.385 . S
C3225 C3224 1.374 . S
C3226 C3223 1.499 . S
C3226 C3227 1.373 . S
C3226 C3228 1.389 . S
C3227 H3206 0.950 . S
C3227 C3226 1.373 . S
C3227 C3243 1.377 . S
C3228 C3226 1.389 . S
C3228 C3229 1.524 . S
C3228 C3242 1.377 . S
C3229 C3228 1.524 . S
C3229 C3230 1.397 . S
C3229 C3234 1.363 . S
C3230 H3207 0.950 . S
C3230 C3229 1.397 . S
C3230 C3231 1.334 . S
C3231 H3208 0.950 . S
C3231 C3230 1.334 . S
C3231 C3232 1.287 . S
C3232 C3231 1.287 . S
C3232 C3233 1.524 . S
C3232 H3251 0.913 . S
C3233 H3209 0.950 . S
C3233 C3232 1.524 . S
C3233 C3234 1.415 . S
C3234 H3210 0.950 . S
C3234 C3229 1.363 . S
C3234 C3233 1.415 . S
C3235 H3211 0.951 . S
C3235 C3236 1.366 . S
C3235 C3237 1.388 . S
C3236 C3235 1.366 . S
C3236 C3240 1.385 . S
C3237 H3212 0.951 . S
C3237 C3235 1.388 . S
C3237 C3238 1.366 . S
C3238 C3237 1.366 . S
C3238 C3239 1.414 . S
C3238 C3241 1.499 . S
C3239 H3213 0.950 . S
C3239 C3238 1.414 . S
C3239 C3240 1.374 . S
C3240 H3214 0.950 . S
C3240 C3236 1.385 . S
C3240 C3239 1.374 . S
C3241 C3238 1.499 . S
C3241 C3242 1.373 . S
C3241 C3243 1.389 . S
C3242 H3215 0.950 . S
C3242 C3228 1.377 . S
C3242 C3241 1.373 . S
C3243 C3227 1.377 . S
C3243 C3241 1.389 . S
C3243 C3244 1.524 . S
C3244 C3243 1.524 . S
C3244 C3245 1.397 . S
C3244 C3249 1.363 . S
C3245 H3216 0.950 . S
C3245 C3244 1.397 . S
C3245 C3246 1.334 1_565 S
C3246 H3217 0.950 . S
C3246 C3245 1.334 1_545 S
C3246 C3247 1.287 . S
C3247 C3246 1.287 . S
C3247 C3248 1.561 . S
C3247 H3250 0.999 . S
C3248 H3218 0.972 . S
C3248 C3247 1.561 . S
C3248 C3249 1.356 1_545 S
C3249 H3219 0.950 . S
C3249 C3244 1.363 . S
C3249 C3248 1.356 1_565 S
H3250 C3247 0.999 . S
H3251 C3232 0.913 . S
H3252 C3270 0.951 . S
H3253 C3272 0.951 . S
H3254 C3274 0.950 . S
H3255 C3275 0.950 . S
H3256 C3277 0.950 . S
H3257 C3280 0.950 . S
H3258 C3281 0.950 . S
H3259 C3283 0.950 . S
H3260 C3284 0.950 . S
H3261 C3285 0.951 . S
H3262 C3287 0.951 . S
H3263 C3289 0.950 . S
H3264 C3290 0.950 . S
H3265 C3292 0.950 . S
H3266 C3295 0.950 . S
H3267 C3296 0.950 . S
H3268 C3298 0.950 . S
H3269 C3299 0.950 . S
C3270 H3252 0.951 . S
C3270 C3271 1.366 . S
C3270 C3272 1.388 . S
C3271 C3270 1.366 . S
C3271 C3275 1.385 . S
C3272 H3253 0.951 . S
C3272 C3270 1.388 . S
C3272 C3273 1.366 . S
C3273 C3272 1.366 . S
C3273 C3274 1.414 . S
C3273 C3276 1.499 . S
C3274 H3254 0.950 . S
C3274 C3273 1.414 . S
C3274 C3275 1.374 . S
C3275 H3255 0.950 . S
C3275 C3271 1.385 . S
C3275 C3274 1.374 . S
C3276 C3273 1.499 . S
C3276 C3277 1.373 . S
C3276 C3278 1.389 . S
C3277 H3256 0.950 . S
C3277 C3276 1.373 . S
C3277 C3293 1.377 . S
C3278 C3276 1.389 . S
C3278 C3279 1.524 . S
C3278 C3292 1.377 . S
C3279 C3278 1.524 . S
C3279 C3280 1.397 . S
C3279 C3284 1.363 . S
C3280 H3257 0.950 . S
C3280 C3279 1.397 . S
C3280 C3281 1.334 . S
C3281 H3258 0.950 . S
C3281 C3280 1.334 . S
C3281 C3282 1.287 . S
C3282 C3281 1.287 . S
C3282 C3283 1.524 . S
C3282 H3301 0.913 . S
C3283 H3259 0.950 . S
C3283 C3282 1.524 . S
C3283 C3284 1.415 . S
C3284 H3260 0.950 . S
C3284 C3279 1.363 . S
C3284 C3283 1.415 . S
C3285 H3261 0.951 . S
C3285 C3286 1.366 . S
C3285 C3287 1.388 . S
C3286 C3285 1.366 . S
C3286 C3290 1.385 . S
C3287 H3262 0.951 . S
C3287 C3285 1.388 . S
C3287 C3288 1.366 . S
C3288 C3287 1.366 . S
C3288 C3289 1.414 . S
C3288 C3291 1.499 . S
C3289 H3263 0.950 . S
C3289 C3288 1.414 . S
C3289 C3290 1.374 . S
C3290 H3264 0.950 . S
C3290 C3286 1.385 . S
C3290 C3289 1.374 . S
C3291 C3288 1.499 . S
C3291 C3292 1.373 . S
C3291 C3293 1.389 . S
C3292 H3265 0.950 . S
C3292 C3278 1.377 . S
C3292 C3291 1.373 . S
C3293 C3277 1.377 . S
C3293 C3291 1.389 . S
C3293 C3294 1.524 . S
C3294 C3293 1.524 . S
C3294 C3295 1.397 . S
C3294 C3299 1.363 . S
C3295 H3266 0.950 . S
C3295 C3294 1.397 . S
C3295 C3296 1.334 . S
C3296 H3267 0.950 . S
C3296 C3295 1.334 . S
C3296 C3297 1.287 . S
C3297 C3296 1.287 . S
C3297 C3298 1.524 . S
C3297 H3300 0.999 . S
C3298 H3268 0.950 . S
C3298 C3297 1.524 . S
C3298 C3299 1.415 . S
C3299 H3269 0.950 . S
C3299 C3294 1.363 . S
C3299 C3298 1.415 . S
H3300 C3297 0.999 . S
H3301 C3282 0.913 . S
H3302 C3320 0.951 . S
H3303 C3322 0.951 . S
H3304 C3324 0.950 . S
H3305 C3325 0.950 . S
H3306 C3327 0.950 . S
H3307 C3330 0.950 . S
H3308 C3331 0.950 . S
H3309 C3333 0.950 . S
H3310 C3334 0.950 . S
H3311 C3335 0.951 . S
H3312 C3337 0.951 . S
H3313 C3339 0.950 . S
H3314 C3340 0.950 . S
H3315 C3342 0.950 . S
H3316 C3345 0.950 . S
H3317 C3346 0.950 . S
H3318 C3348 0.950 . S
H3319 C3349 0.950 . S
C3320 H3302 0.951 . S
C3320 C3321 1.366 . S
C3320 C3322 1.388 . S
C3321 C3320 1.366 . S
C3321 C3325 1.385 . S
C3322 H3303 0.951 . S
C3322 C3320 1.388 . S
C3322 C3323 1.366 . S
C3323 C3322 1.366 . S
C3323 C3324 1.414 . S
C3323 C3326 1.499 . S
C3324 H3304 0.950 . S
C3324 C3323 1.414 . S
C3324 C3325 1.374 . S
C3325 H3305 0.950 . S
C3325 C3321 1.385 . S
C3325 C3324 1.374 . S
C3326 C3323 1.499 . S
C3326 C3327 1.373 . S
C3326 C3328 1.389 . S
C3327 H3306 0.950 . S
C3327 C3326 1.373 . S
C3327 C3343 1.377 . S
C3328 C3326 1.389 . S
C3328 C3329 1.524 . S
C3328 C3342 1.377 . S
C3329 C3328 1.524 . S
C3329 C3330 1.397 . S
C3329 C3334 1.363 . S
C3330 H3307 0.950 . S
C3330 C3329 1.397 . S
C3330 C3331 1.334 . S
C3331 H3308 0.950 . S
C3331 C3330 1.334 . S
C3331 C3332 1.287 . S
C3332 C3331 1.287 . S
C3332 C3333 1.524 . S
C3332 H3351 0.913 . S
C3333 H3309 0.950 . S
C3333 C3332 1.524 . S
C3333 C3334 1.415 . S
C3334 H3310 0.950 . S
C3334 C3329 1.363 . S
C3334 C3333 1.415 . S
C3335 H3311 0.951 . S
C3335 C3336 1.366 . S
C3335 C3337 1.388 . S
C3336 C3335 1.366 . S
C3336 C3340 1.385 . S
C3337 H3312 0.951 . S
C3337 C3335 1.388 . S
C3337 C3338 1.366 . S
C3338 C3337 1.366 . S
C3338 C3339 1.414 . S
C3338 C3341 1.499 . S
C3339 H3313 0.950 . S
C3339 C3338 1.414 . S
C3339 C3340 1.374 . S
C3340 H3314 0.950 . S
C3340 C3336 1.385 . S
C3340 C3339 1.374 . S
C3341 C3338 1.499 . S
C3341 C3342 1.373 . S
C3341 C3343 1.389 . S
C3342 H3315 0.950 . S
C3342 C3328 1.377 . S
C3342 C3341 1.373 . S
C3343 C3327 1.377 . S
C3343 C3341 1.389 . S
C3343 C3344 1.524 . S
C3344 C3343 1.524 . S
C3344 C3345 1.397 . S
C3344 C3349 1.363 . S
C3345 H3316 0.950 . S
C3345 C3344 1.397 . S
C3345 C3346 1.334 . S
C3346 H3317 0.950 . S
C3346 C3345 1.334 . S
C3346 C3347 1.287 . S
C3347 C3346 1.287 . S
C3347 C3348 1.524 . S
C3347 H3350 0.999 . S
C3348 H3318 0.950 . S
C3348 C3347 1.524 . S
C3348 C3349 1.415 . S
C3349 H3319 0.950 . S
C3349 C3344 1.363 . S
C3349 C3348 1.415 . S
H3350 C3347 0.999 . S
H3351 C3332 0.913 . S
H3352 C3370 0.951 . S
H3353 C3372 0.951 . S
H3354 C3374 0.950 . S
H3355 C3375 0.950 . S
H3356 C3377 0.950 . S
H3357 C3380 0.950 . S
H3358 C3381 0.950 . S
H3359 C3383 0.950 . S
H3360 C3384 0.950 . S
H3361 C3385 0.951 . S
H3362 C3387 0.951 . S
H3363 C3389 0.950 . S
H3364 C3390 0.950 . S
H3365 C3392 0.950 . S
H3366 C3395 0.950 . S
H3367 C3396 0.950 . S
H3368 C3398 0.950 . S
H3369 C3399 0.950 . S
C3370 H3352 0.951 . S
C3370 C3371 1.366 . S
C3370 C3372 1.388 . S
C3371 C3370 1.366 . S
C3371 C3375 1.385 . S
C3372 H3353 0.951 . S
C3372 C3370 1.388 . S
C3372 C3373 1.366 . S
C3373 C3372 1.366 . S
C3373 C3374 1.414 . S
C3373 C3376 1.499 . S
C3374 H3354 0.950 . S
C3374 C3373 1.414 . S
C3374 C3375 1.374 . S
C3375 H3355 0.950 . S
C3375 C3371 1.385 . S
C3375 C3374 1.374 . S
C3376 C3373 1.499 . S
C3376 C3377 1.373 . S
C3376 C3378 1.389 . S
C3377 H3356 0.950 . S
C3377 C3376 1.373 . S
C3377 C3393 1.377 . S
C3378 C3376 1.389 . S
C3378 C3379 1.524 . S
C3378 C3392 1.377 . S
C3379 C3378 1.524 . S
C3379 C3380 1.397 . S
C3379 C3384 1.363 . S
C3380 H3357 0.950 . S
C3380 C3379 1.397 . S
C3380 C3381 1.334 . S
C3381 H3358 0.950 . S
C3381 C3380 1.334 . S
C3381 C3382 1.287 . S
C3382 C3381 1.287 . S
C3382 C3383 1.524 . S
C3382 H3401 0.913 . S
C3383 H3359 0.950 . S
C3383 C3382 1.524 . S
C3383 C3384 1.415 . S
C3384 H3360 0.950 . S
C3384 C3379 1.363 . S
C3384 C3383 1.415 . S
C3385 H3361 0.951 . S
C3385 C3386 1.366 . S
C3385 C3387 1.388 . S
C3386 C3385 1.366 . S
C3386 C3390 1.385 . S
C3387 H3362 0.951 . S
C3387 C3385 1.388 . S
C3387 C3388 1.366 . S
C3388 C3387 1.366 . S
C3388 C3389 1.414 . S
C3388 C3391 1.499 . S
C3389 H3363 0.950 . S
C3389 C3388 1.414 . S
C3389 C3390 1.374 . S
C3390 H3364 0.950 . S
C3390 C3386 1.385 . S
C3390 C3389 1.374 . S
C3391 C3388 1.499 . S
C3391 C3392 1.373 . S
C3391 C3393 1.389 . S
C3392 H3365 0.950 . S
C3392 C3378 1.377 . S
C3392 C3391 1.373 . S
C3393 C3377 1.377 . S
C3393 C3391 1.389 . S
C3393 C3394 1.524 . S
C3394 C3393 1.524 . S
C3394 C3395 1.397 . S
C3394 C3399 1.363 . S
C3395 H3366 0.950 . S
C3395 C3394 1.397 . S
C3395 C3396 1.334 . S
C3396 H3367 0.950 . S
C3396 C3395 1.334 . S
C3396 C3397 1.287 . S
C3397 C3396 1.287 . S
C3397 C3398 1.524 . S
C3397 H3400 0.999 . S
C3398 H3368 0.950 . S
C3398 C3397 1.524 . S
C3398 C3399 1.415 . S
C3399 H3369 0.950 . S
C3399 C3394 1.363 . S
C3399 C3398 1.415 . S
H3400 C3397 0.999 . S
H3401 C3382 0.913 . S
H3402 C3420 0.951 . S
H3403 C3422 0.951 . S
H3404 C3424 0.950 . S
H3405 C3425 0.950 . S
H3406 C3427 0.950 . S
H3407 C3430 0.950 . S
H3408 C3431 0.950 . S
H3409 C3433 0.950 . S
H3410 C3434 0.950 . S
H3411 C3435 0.951 . S
H3412 C3437 0.951 . S
H3413 C3439 0.950 . S
H3414 C3440 0.950 . S
H3415 C3442 0.950 . S
H3416 C3445 0.950 . S
H3417 C3446 0.950 . S
H3418 C3448 0.950 . S
H3419 C3449 0.950 . S
C3420 H3402 0.951 . S
C3420 C3421 1.366 . S
C3420 C3422 1.388 . S
C3421 C3420 1.366 . S
C3421 C3425 1.385 . S
C3422 H3403 0.951 . S
C3422 C3420 1.388 . S
C3422 C3423 1.366 . S
C3423 C3422 1.366 . S
C3423 C3424 1.414 . S
C3423 C3426 1.499 . S
C3424 H3404 0.950 . S
C3424 C3423 1.414 . S
C3424 C3425 1.374 . S
C3425 H3405 0.950 . S
C3425 C3421 1.385 . S
C3425 C3424 1.374 . S
C3426 C3423 1.499 . S
C3426 C3427 1.373 . S
C3426 C3428 1.389 . S
C3427 H3406 0.950 . S
C3427 C3426 1.373 . S
C3427 C3443 1.377 . S
C3428 C3426 1.389 . S
C3428 C3429 1.524 . S
C3428 C3442 1.377 . S
C3429 C3428 1.524 . S
C3429 C3430 1.397 . S
C3429 C3434 1.363 . S
C3430 H3407 0.950 . S
C3430 C3429 1.397 . S
C3430 C3431 1.334 . S
C3431 H3408 0.950 . S
C3431 C3430 1.334 . S
C3431 C3432 1.287 . S
C3432 C3431 1.287 . S
C3432 C3433 1.524 . S
C3432 H3451 0.913 . S
C3433 H3409 0.950 . S
C3433 C3432 1.524 . S
C3433 C3434 1.415 . S
C3434 H3410 0.950 . S
C3434 C3429 1.363 . S
C3434 C3433 1.415 . S
C3435 H3411 0.951 . S
C3435 C3436 1.366 . S
C3435 C3437 1.388 . S
C3436 C3435 1.366 . S
C3436 C3440 1.385 . S
C3437 H3412 0.951 . S
C3437 C3435 1.388 . S
C3437 C3438 1.366 . S
C3438 C3437 1.366 . S
C3438 C3439 1.414 . S
C3438 C3441 1.499 . S
C3439 H3413 0.950 . S
C3439 C3438 1.414 . S
C3439 C3440 1.374 . S
C3440 H3414 0.950 . S
C3440 C3436 1.385 . S
C3440 C3439 1.374 . S
C3441 C3438 1.499 . S
C3441 C3442 1.373 . S
C3441 C3443 1.389 . S
C3442 H3415 0.950 . S
C3442 C3428 1.377 . S
C3442 C3441 1.373 . S
C3443 C3427 1.377 . S
C3443 C3441 1.389 . S
C3443 C3444 1.524 . S
C3444 C3443 1.524 . S
C3444 C3445 1.397 . S
C3444 C3449 1.363 . S
C3445 H3416 0.950 . S
C3445 C3444 1.397 . S
C3445 C3446 1.334 . S
C3446 H3417 0.950 . S
C3446 C3445 1.334 . S
C3446 C3447 1.287 . S
C3447 C3446 1.287 . S
C3447 C3448 1.524 . S
C3447 H3450 0.999 . S
C3448 H3418 0.950 . S
C3448 C3447 1.524 . S
C3448 C3449 1.415 . S
C3449 H3419 0.950 . S
C3449 C3444 1.363 . S
C3449 C3448 1.415 . S
H3450 C3447 0.999 . S
H3451 C3432 0.913 . S
H3452 C3470 0.951 . S
H3453 C3472 0.951 . S
H3454 C3474 0.950 . S
H3455 C3475 0.950 . S
H3456 C3477 0.950 . S
H3457 C3480 0.950 . S
H3458 C3481 0.950 . S
H3459 C3483 0.950 . S
H3460 C3484 0.950 . S
H3461 C3485 0.951 . S
H3462 C3487 0.985 . S
H3463 C3489 0.950 . S
H3464 C3490 0.950 . S
H3465 C3492 0.950 . S
H3466 C3495 0.950 . S
H3467 C3496 0.950 1_655 S
H3468 C3498 0.950 . S
H3469 C3499 0.950 . S
C3470 H3452 0.951 . S
C3470 C3471 1.366 . S
C3470 C3472 1.388 . S
C3471 C3470 1.366 . S
C3471 C3475 1.385 . S
C3472 H3453 0.951 . S
C3472 C3470 1.388 . S
C3472 C3473 1.366 . S
C3473 C3472 1.366 . S
C3473 C3474 1.414 . S
C3473 C3476 1.499 . S
C3474 H3454 0.950 . S
C3474 C3473 1.414 . S
C3474 C3475 1.374 . S
C3475 H3455 0.950 . S
C3475 C3471 1.385 . S
C3475 C3474 1.374 . S
C3476 C3473 1.499 . S
C3476 C3477 1.373 . S
C3476 C3478 1.389 . S
C3477 H3456 0.950 . S
C3477 C3476 1.373 . S
C3477 C3493 1.377 . S
C3478 C3476 1.389 . S
C3478 C3479 1.524 . S
C3478 C3492 1.377 . S
C3479 C3478 1.524 . S
C3479 C3480 1.397 . S
C3479 C3484 1.363 . S
C3480 H3457 0.950 . S
C3480 C3479 1.397 . S
C3480 C3481 1.334 . S
C3481 H3458 0.950 . S
C3481 C3480 1.334 . S
C3481 C3482 1.287 . S
C3482 C3481 1.287 . S
C3482 C3483 1.524 . S
C3482 H3501 0.913 . S
C3483 H3459 0.950 . S
C3483 C3482 1.524 . S
C3483 C3484 1.415 . S
C3484 H3460 0.950 . S
C3484 C3479 1.363 . S
C3484 C3483 1.415 . S
C3485 H3461 0.951 . S
C3485 C3486 1.366 1_554 S
C3485 C3487 1.397 . S
C3486 C3485 1.366 1_556 S
C3486 C3490 1.385 . S
C3487 H3462 0.985 . S
C3487 C3485 1.397 . S
C3487 C3488 1.326 1_554 S
C3488 C3487 1.326 1_556 S
C3488 C3489 1.414 . S
C3488 C3491 1.499 . S
C3489 H3463 0.950 . S
C3489 C3488 1.414 . S
C3489 C3490 1.374 . S
C3490 H3464 0.950 . S
C3490 C3486 1.385 . S
C3490 C3489 1.374 . S
C3491 C3488 1.499 . S
C3491 C3492 1.373 . S
C3491 C3493 1.389 . S
C3492 H3465 0.950 . S
C3492 C3478 1.377 . S
C3492 C3491 1.373 . S
C3493 C3477 1.377 . S
C3493 C3491 1.389 . S
C3493 C3494 1.524 1_556 S
C3494 C3493 1.524 1_554 S
C3494 C3495 1.397 . S
C3494 C3499 1.363 . S
C3495 H3466 0.950 . S
C3495 C3494 1.397 . S
C3495 C3496 1.334 . S
C3496 H3467 0.950 1_455 S
C3496 C3495 1.334 . S
C3496 C3497 1.287 . S
C3497 C3496 1.287 . S
C3497 C3498 1.524 . S
C3497 H3500 0.999 . S
C3498 H3468 0.950 . S
C3498 C3497 1.524 . S
C3498 C3499 1.415 . S
C3499 H3469 0.950 . S
C3499 C3494 1.363 . S
C3499 C3498 1.415 . S
H3500 C3497 0.999 . S
H3501 C3482 0.913 . S
H3502 C3520 0.951 . S
H3503 C3522 0.951 . S
H3504 C3524 0.950 . S
H3505 C3525 0.950 . S
H3506 C3527 0.950 . S
H3507 C3530 0.950 . S
H3508 C3531 0.950 . S
H3509 C3533 0.950 . S
H3510 C3534 0.950 . S
H3511 C3535 0.951 . S
H3512 C3537 0.951 . S
H3513 C3539 0.950 . S
H3514 C3540 0.950 . S
H3515 C3542 0.950 . S
H3516 C3545 0.950 . S
H3517 C3546 0.950 . S
H3518 C3548 0.950 . S
H3519 C3549 0.950 . S
C3520 H3502 0.951 . S
C3520 C3521 1.366 1_655 S
C3520 C3522 1.388 . S
C3521 C3520 1.366 1_455 S
C3521 C3525 1.385 . S
C3522 H3503 0.951 . S
C3522 C3520 1.388 . S
C3522 C3523 1.366 . S
C3523 C3522 1.366 . S
C3523 C3524 1.414 . S
C3523 C3526 1.499 . S
C3524 H3504 0.950 . S
C3524 C3523 1.414 . S
C3524 C3525 1.374 1_655 S
C3525 H3505 0.950 . S
C3525 C3521 1.385 . S
C3525 C3524 1.374 1_455 S
C3526 C3523 1.499 . S
C3526 C3527 1.373 . S
C3526 C3528 1.389 . S
C3527 H3506 0.950 . S
C3527 C3526 1.373 . S
C3527 C3543 1.377 . S
C3528 C3526 1.389 . S
C3528 C3529 1.524 . S
C3528 C3542 1.377 . S
C3529 C3528 1.524 . S
C3529 C3530 1.397 . S
C3529 C3534 1.363 . S
C3530 H3507 0.950 . S
C3530 C3529 1.397 . S
C3530 C3531 1.334 . S
C3531 H3508 0.950 . S
C3531 C3530 1.334 . S
C3531 C3532 1.287 . S
C3532 C3531 1.287 . S
C3532 C3533 1.524 . S
C3532 H3551 0.913 . S
C3533 H3509 0.950 . S
C3533 C3532 1.524 . S
C3533 C3534 1.415 . S
C3534 H3510 0.950 . S
C3534 C3529 1.363 . S
C3534 C3533 1.415 . S
C3535 H3511 0.951 . S
C3535 C3536 1.366 . S
C3535 C3537 1.388 . S
C3536 C3535 1.366 . S
C3536 C3540 1.385 . S
C3537 H3512 0.951 . S
C3537 C3535 1.388 . S
C3537 C3538 1.366 . S
C3538 C3537 1.366 . S
C3538 C3539 1.414 . S
C3538 C3541 1.499 . S
C3539 H3513 0.950 . S
C3539 C3538 1.414 . S
C3539 C3540 1.374 . S
C3540 H3514 0.950 . S
C3540 C3536 1.385 . S
C3540 C3539 1.374 . S
C3541 C3538 1.499 . S
C3541 C3542 1.373 . S
C3541 C3543 1.389 . S
C3542 H3515 0.950 . S
C3542 C3528 1.377 . S
C3542 C3541 1.373 . S
C3543 C3527 1.377 . S
C3543 C3541 1.389 . S
C3543 C3544 1.524 . S
C3544 C3543 1.524 . S
C3544 C3545 1.397 . S
C3544 C3549 1.363 . S
C3545 H3516 0.950 . S
C3545 C3544 1.397 . S
C3545 C3546 1.334 . S
C3546 H3517 0.950 . S
C3546 C3545 1.334 . S
C3546 C3547 1.287 . S
C3547 C3546 1.287 . S
C3547 C3548 1.524 . S
C3547 H3550 0.999 . S
C3548 H3518 0.950 . S
C3548 C3547 1.524 . S
C3548 C3549 1.415 . S
C3549 H3519 0.950 . S
C3549 C3544 1.363 . S
C3549 C3548 1.415 . S
H3550 C3547 0.999 . S
H3551 C3532 0.913 . S
H3552 C3570 0.951 . S
H3553 C3572 0.951 . S
H3554 C3574 0.950 . S
H3555 C3575 0.950 . S
H3556 C3577 0.950 . S
H3557 C3580 0.950 . S
H3558 C3581 0.950 . S
H3559 C3583 0.950 . S
H3560 C3584 0.950 . S
H3561 C3585 0.951 . S
H3562 C3587 0.951 . S
H3563 C3589 0.950 . S
H3564 C3590 0.950 . S
H3565 C3592 0.950 . S
H3566 C3595 0.950 . S
H3567 C3596 0.950 . S
H3568 C3598 0.950 . S
H3569 C3599 0.950 . S
C3570 H3552 0.951 . S
C3570 C3571 1.366 . S
C3570 C3572 1.388 . S
C3571 C3570 1.366 . S
C3571 C3575 1.385 . S
C3572 H3553 0.951 . S
C3572 C3570 1.388 . S
C3572 C3573 1.366 . S
C3573 C3572 1.366 . S
C3573 C3574 1.414 . S
C3573 C3576 1.499 . S
C3574 H3554 0.950 . S
C3574 C3573 1.414 . S
C3574 C3575 1.374 . S
C3575 H3555 0.950 . S
C3575 C3571 1.385 . S
C3575 C3574 1.374 . S
C3576 C3573 1.499 . S
C3576 C3577 1.373 . S
C3576 C3578 1.389 . S
C3577 H3556 0.950 . S
C3577 C3576 1.373 . S
C3577 C3593 1.377 . S
C3578 C3576 1.389 . S
C3578 C3579 1.524 . S
C3578 C3592 1.377 . S
C3579 C3578 1.524 . S
C3579 C3580 1.397 . S
C3579 C3584 1.363 . S
C3580 H3557 0.950 . S
C3580 C3579 1.397 . S
C3580 C3581 1.334 . S
C3581 H3558 0.950 . S
C3581 C3580 1.334 . S
C3581 C3582 1.287 . S
C3582 C3581 1.287 . S
C3582 C3583 1.524 . S
C3582 H3601 0.913 . S
C3583 H3559 0.950 . S
C3583 C3582 1.524 . S
C3583 C3584 1.415 . S
C3584 H3560 0.950 . S
C3584 C3579 1.363 . S
C3584 C3583 1.415 . S
C3585 H3561 0.951 . S
C3585 C3586 1.366 . S
C3585 C3587 1.388 . S
C3586 C3585 1.366 . S
C3586 C3590 1.385 . S
C3587 H3562 0.951 . S
C3587 C3585 1.388 . S
C3587 C3588 1.366 . S
C3588 C3587 1.366 . S
C3588 C3589 1.414 . S
C3588 C3591 1.499 . S
C3589 H3563 0.950 . S
C3589 C3588 1.414 . S
C3589 C3590 1.374 . S
C3590 H3564 0.950 . S
C3590 C3586 1.385 . S
C3590 C3589 1.374 . S
C3591 C3588 1.499 . S
C3591 C3592 1.373 . S
C3591 C3593 1.389 . S
C3592 H3565 0.950 . S
C3592 C3578 1.377 . S
C3592 C3591 1.373 . S
C3593 C3577 1.377 . S
C3593 C3591 1.389 . S
C3593 C3594 1.524 . S
C3594 C3593 1.524 . S
C3594 C3595 1.397 . S
C3594 C3599 1.363 . S
C3595 H3566 0.950 . S
C3595 C3594 1.397 . S
C3595 C3596 1.334 . S
C3596 H3567 0.950 . S
C3596 C3595 1.334 . S
C3596 C3597 1.287 . S
C3597 C3596 1.287 . S
C3597 C3598 1.524 . S
C3597 H3600 0.999 . S
C3598 H3568 0.950 . S
C3598 C3597 1.524 . S
C3598 C3599 1.415 . S
C3599 H3569 0.950 . S
C3599 C3594 1.363 . S
C3599 C3598 1.415 . S
H3600 C3597 0.999 . S
H3601 C3582 0.913 . S
H3602 C3620 0.951 . S
H3603 C3622 0.951 1_655 S
H3604 C3624 0.950 . S
H3605 C3625 0.950 . S
H3606 C3627 0.950 . S
H3607 C3630 0.950 . S
H3608 C3631 0.950 . S
H3609 C3633 0.950 . S
H3610 C3634 0.950 . S
H3611 C3635 0.951 . S
H3612 C3637 0.951 . S
H3613 C3639 0.950 . S
H3614 C3640 0.950 . S
H3615 C3642 0.950 . S
H3616 C3645 0.950 . S
H3617 C3646 0.950 . S
H3618 C3648 0.950 . S
H3619 C3649 0.950 . S
C3620 H3602 0.951 . S
C3620 C3621 1.366 . S
C3620 C3622 1.388 . S
C3621 C3620 1.366 . S
C3621 C3625 1.385 . S
C3622 H3603 0.951 1_455 S
C3622 C3620 1.388 . S
C3622 C3623 1.366 . S
C3623 C3622 1.366 . S
C3623 C3624 1.414 . S
C3623 C3626 1.499 1_455 S
C3624 H3604 0.950 . S
C3624 C3623 1.414 . S
C3624 C3625 1.374 . S
C3625 H3605 0.950 . S
C3625 C3621 1.385 . S
C3625 C3624 1.374 . S
C3626 C3623 1.499 1_655 S
C3626 C3627 1.373 . S
C3626 C3628 1.389 . S
C3627 H3606 0.950 . S
C3627 C3626 1.373 . S
C3627 C3643 1.377 . S
C3628 C3626 1.389 . S
C3628 C3629 1.524 . S
C3628 C3642 1.377 . S
C3629 C3628 1.524 . S
C3629 C3630 1.397 . S
C3629 C3634 1.363 . S
C3630 H3607 0.950 . S
C3630 C3629 1.397 . S
C3630 C3631 1.334 . S
C3631 H3608 0.950 . S
C3631 C3630 1.334 . S
C3631 C3632 1.287 . S
C3632 C3631 1.287 . S
C3632 C3633 1.524 . S
C3632 H3651 0.913 . S
C3633 H3609 0.950 . S
C3633 C3632 1.524 . S
C3633 C3634 1.415 . S
C3634 H3610 0.950 . S
C3634 C3629 1.363 . S
C3634 C3633 1.415 . S
C3635 H3611 0.951 . S
C3635 C3636 1.366 . S
C3635 C3637 1.388 . S
C3636 C3635 1.366 . S
C3636 C3640 1.385 . S
C3637 H3612 0.951 . S
C3637 C3635 1.388 . S
C3637 C3638 1.366 . S
C3638 C3637 1.366 . S
C3638 C3639 1.414 . S
C3638 C3641 1.499 . S
C3639 H3613 0.950 . S
C3639 C3638 1.414 . S
C3639 C3640 1.374 . S
C3640 H3614 0.950 . S
C3640 C3636 1.385 . S
C3640 C3639 1.374 . S
C3641 C3638 1.499 . S
C3641 C3642 1.373 . S
C3641 C3643 1.389 . S
C3642 H3615 0.950 . S
C3642 C3628 1.377 . S
C3642 C3641 1.373 . S
C3643 C3627 1.377 . S
C3643 C3641 1.389 . S
C3643 C3644 1.524 . S
C3644 C3643 1.524 . S
C3644 C3645 1.397 . S
C3644 C3649 1.363 . S
C3645 H3616 0.950 . S
C3645 C3644 1.397 . S
C3645 C3646 1.334 . S
C3646 H3617 0.950 . S
C3646 C3645 1.334 . S
C3646 C3647 1.287 . S
C3647 C3646 1.287 . S
C3647 C3648 1.524 . S
C3647 H3650 0.999 . S
C3648 H3618 0.950 . S
C3648 C3647 1.524 . S
C3648 C3649 1.415 . S
C3649 H3619 0.950 . S
C3649 C3644 1.363 . S
C3649 C3648 1.415 . S
H3650 C3647 0.999 . S
H3651 C3632 0.913 . S
H3652 C3670 0.951 . S
H3653 C3672 0.951 . S
H3654 C3674 0.950 . S
H3655 C3675 0.950 . S
H3656 C3677 0.950 . S
H3657 C3680 0.950 1_455 S
H3658 C3681 0.950 . S
H3659 C3683 0.950 . S
H3660 C3684 0.950 . S
H3661 C3685 0.951 . S
H3662 C3687 0.951 . S
H3663 C3689 0.881 1_655 S
H3664 C3690 0.950 . S
H3665 C3692 0.950 1_655 S
H3666 C3695 0.950 . S
H3667 C3696 0.950 . S
H3668 C3698 0.950 . S
H3669 C3699 0.950 . S
C3670 H3652 0.951 . S
C3670 C3671 1.366 . S
C3670 C3672 1.388 . S
C3671 C3670 1.366 . S
C3671 C3675 1.385 1_655 S
C3672 H3653 0.951 . S
C3672 C3670 1.388 . S
C3672 C3673 1.366 1_655 S
C3673 C3672 1.366 1_455 S
C3673 C3674 1.414 . S
C3673 C3676 1.499 . S
C3674 H3654 0.950 . S
C3674 C3673 1.414 . S
C3674 C3675 1.374 . S
C3675 H3655 0.950 . S
C3675 C3671 1.385 1_455 S
C3675 C3674 1.374 . S
C3676 C3673 1.499 . S
C3676 C3677 1.373 . S
C3676 C3678 1.389 . S
C3677 H3656 0.950 . S
C3677 C3676 1.373 . S
C3677 C3693 1.377 . S
C3678 C3676 1.389 . S
C3678 C3679 1.524 1_455 S
C3678 C3692 1.377 . S
C3679 C3678 1.524 1_655 S
C3679 C3680 1.397 . S
C3679 C3684 1.363 . S
C3680 H3657 0.950 1_655 S
C3680 C3679 1.397 . S
C3680 C3681 1.334 . S
C3681 H3658 0.950 . S
C3681 C3680 1.334 . S
C3681 C3682 1.287 . S
C3682 C3681 1.287 . S
C3682 C3683 1.524 . S
C3682 H3701 0.913 . S
C3683 H3659 0.950 . S
C3683 C3682 1.524 . S
C3683 C3684 1.415 . S
C3684 H3660 0.950 . S
C3684 C3679 1.363 . S
C3684 C3683 1.415 . S
C3685 H3661 0.951 . S
C3685 C3686 1.366 . S
C3685 C3687 1.388 . S
C3686 C3685 1.366 . S
C3686 C3690 1.385 . S
C3687 H3662 0.951 . S
C3687 C3685 1.388 . S
C3687 C3688 1.366 . S
C3688 C3687 1.366 . S
C3688 C3689 1.414 . S
C3688 C3691 1.499 . S
C3689 H3663 0.881 1_455 S
C3689 C3688 1.414 . S
C3689 C3690 1.374 . S
C3690 H3664 0.950 . S
C3690 C3686 1.385 . S
C3690 C3689 1.374 . S
C3691 C3688 1.499 . S
C3691 C3692 1.373 . S
C3691 C3693 1.389 . S
C3692 H3665 0.950 1_455 S
C3692 C3678 1.377 . S
C3692 C3691 1.373 . S
C3693 C3677 1.377 . S
C3693 C3691 1.389 . S
C3693 C3694 1.524 . S
C3694 C3693 1.524 . S
C3694 C3695 1.397 . S
C3694 C3699 1.363 . S
C3695 H3666 0.950 . S
C3695 C3694 1.397 . S
C3695 C3696 1.334 . S
C3696 H3667 0.950 . S
C3696 C3695 1.334 . S
C3696 C3697 1.287 . S
C3697 C3696 1.287 . S
C3697 C3698 1.524 . S
C3697 H3700 0.999 . S
C3698 H3668 0.950 . S
C3698 C3697 1.524 . S
C3698 C3699 1.415 . S
C3699 H3669 0.950 . S
C3699 C3694 1.363 . S
C3699 C3698 1.415 . S
H3700 C3697 0.999 . S
H3701 C3682 0.913 . S
H3702 C3720 0.951 . S
H3703 C3722 0.951 . S
H3704 C3724 0.950 . S
H3705 C3725 0.950 . S
H3706 C3727 0.950 . S
H3707 C3730 0.950 . S
H3708 C3731 0.950 . S
H3709 C3733 0.950 . S
H3710 C3734 0.950 . S
H3711 C3735 0.951 . S
H3712 C3737 0.951 . S
H3713 C3739 0.950 . S
H3714 C3740 0.950 . S
H3715 C3742 0.950 . S
H3716 C3745 0.950 . S
H3717 C3746 0.950 . S
H3718 C3748 0.950 . S
H3719 C3749 0.950 . S
C3720 H3702 0.951 . S
C3720 C3721 1.366 . S
C3720 C3722 1.388 . S
C3721 C3720 1.366 . S
C3721 C3725 1.385 . S
C3722 H3703 0.951 . S
C3722 C3720 1.388 . S
C3722 C3723 1.366 . S
C3723 C3722 1.366 . S
C3723 C3724 1.414 . S
C3723 C3726 1.499 . S
C3724 H3704 0.950 . S
C3724 C3723 1.414 . S
C3724 C3725 1.374 . S
C3725 H3705 0.950 . S
C3725 C3721 1.385 . S
C3725 C3724 1.374 . S
C3726 C3723 1.499 . S
C3726 C3727 1.373 . S
C3726 C3728 1.389 . S
C3727 H3706 0.950 . S
C3727 C3726 1.373 . S
C3727 C3743 1.377 . S
C3728 C3726 1.389 . S
C3728 C3729 1.524 . S
C3728 C3742 1.377 . S
C3729 C3728 1.524 . S
C3729 C3730 1.397 . S
C3729 C3734 1.363 . S
C3730 H3707 0.950 . S
C3730 C3729 1.397 . S
C3730 C3731 1.334 . S
C3731 H3708 0.950 . S
C3731 C3730 1.334 . S
C3731 C3732 1.287 . S
C3732 C3731 1.287 . S
C3732 C3733 1.524 . S
C3732 H3751 0.913 . S
C3733 H3709 0.950 . S
C3733 C3732 1.524 . S
C3733 C3734 1.415 . S
C3734 H3710 0.950 . S
C3734 C3729 1.363 . S
C3734 C3733 1.415 . S
C3735 H3711 0.951 . S
C3735 C3736 1.366 . S
C3735 C3737 1.388 . S
C3736 C3735 1.366 . S
C3736 C3740 1.385 . S
C3737 H3712 0.951 . S
C3737 C3735 1.388 . S
C3737 C3738 1.366 . S
C3738 C3737 1.366 . S
C3738 C3739 1.414 . S
C3738 C3741 1.499 . S
C3739 H3713 0.950 . S
C3739 C3738 1.414 . S
C3739 C3740 1.374 . S
C3740 H3714 0.950 . S
C3740 C3736 1.385 . S
C3740 C3739 1.374 . S
C3741 C3738 1.499 . S
C3741 C3742 1.373 . S
C3741 C3743 1.389 . S
C3742 H3715 0.950 . S
C3742 C3728 1.377 . S
C3742 C3741 1.373 . S
C3743 C3727 1.377 . S
C3743 C3741 1.389 . S
C3743 C3744 1.524 . S
C3744 C3743 1.524 . S
C3744 C3745 1.397 . S
C3744 C3749 1.363 . S
C3745 H3716 0.950 . S
C3745 C3744 1.397 . S
C3745 C3746 1.334 . S
C3746 H3717 0.950 . S
C3746 C3745 1.334 . S
C3746 C3747 1.287 . S
C3747 C3746 1.287 . S
C3747 C3748 1.524 . S
C3747 H3750 0.999 . S
C3748 H3718 0.950 . S
C3748 C3747 1.524 . S
C3748 C3749 1.415 . S
C3749 H3719 0.950 . S
C3749 C3744 1.363 . S
C3749 C3748 1.415 . S
H3750 C3747 0.999 . S
H3751 C3732 0.913 . S
H3752 C3770 0.951 . S
H3753 C3772 0.951 . S
H3754 C3774 0.950 . S
H3755 C3775 0.950 . S
H3756 C3777 0.950 . S
H3757 C3780 0.950 . S
H3758 C3781 0.950 . S
H3759 C3783 0.950 . S
H3760 C3784 0.950 . S
H3761 C3785 0.951 . S
H3762 C3787 0.951 . S
H3763 C3789 0.950 . S
H3764 C3790 0.950 . S
H3765 C3792 0.950 . S
H3766 C3795 0.950 . S
H3767 C3796 0.950 . S
H3768 C3798 0.950 . S
H3769 C3799 0.950 . S
C3770 H3752 0.951 . S
C3770 C3771 1.366 . S
C3770 C3772 1.388 . S
C3771 C3770 1.366 . S
C3771 C3775 1.385 . S
C3772 H3753 0.951 . S
C3772 C3770 1.388 . S
C3772 C3773 1.366 . S
C3773 C3772 1.366 . S
C3773 C3774 1.414 . S
C3773 C3776 1.499 . S
C3774 H3754 0.950 . S
C3774 C3773 1.414 . S
C3774 C3775 1.374 . S
C3775 H3755 0.950 . S
C3775 C3771 1.385 . S
C3775 C3774 1.374 . S
C3776 C3773 1.499 . S
C3776 C3777 1.373 . S
C3776 C3778 1.389 . S
C3777 H3756 0.950 . S
C3777 C3776 1.373 . S
C3777 C3793 1.377 . S
C3778 C3776 1.389 . S
C3778 C3779 1.524 . S
C3778 C3792 1.377 . S
C3779 C3778 1.524 . S
C3779 C3780 1.397 . S
C3779 C3784 1.363 . S
C3780 H3757 0.950 . S
C3780 C3779 1.397 . S
C3780 C3781 1.334 . S
C3781 H3758 0.950 . S
C3781 C3780 1.334 . S
C3781 C3782 1.287 . S
C3782 C3781 1.287 . S
C3782 C3783 1.524 . S
C3782 H3801 0.913 . S
C3783 H3759 0.950 . S
C3783 C3782 1.524 . S
C3783 C3784 1.415 . S
C3784 H3760 0.950 . S
C3784 C3779 1.363 . S
C3784 C3783 1.415 . S
C3785 H3761 0.951 . S
C3785 C3786 1.366 . S
C3785 C3787 1.388 . S
C3786 C3785 1.366 . S
C3786 C3790 1.385 . S
C3787 H3762 0.951 . S
C3787 C3785 1.388 . S
C3787 C3788 1.366 . S
C3788 C3787 1.366 . S
C3788 C3789 1.414 . S
C3788 C3791 1.499 . S
C3789 H3763 0.950 . S
C3789 C3788 1.414 . S
C3789 C3790 1.374 . S
C3790 H3764 0.950 . S
C3790 C3786 1.385 . S
C3790 C3789 1.374 . S
C3791 C3788 1.499 . S
C3791 C3792 1.373 . S
C3791 C3793 1.389 . S
C3792 H3765 0.950 . S
C3792 C3778 1.377 . S
C3792 C3791 1.373 . S
C3793 C3777 1.377 . S
C3793 C3791 1.389 . S
C3793 C3794 1.524 . S
C3794 C3793 1.524 . S
C3794 C3795 1.397 . S
C3794 C3799 1.363 . S
C3795 H3766 0.950 . S
C3795 C3794 1.397 . S
C3795 C3796 1.334 . S
C3796 H3767 0.950 . S
C3796 C3795 1.334 . S
C3796 C3797 1.287 . S
C3797 C3796 1.287 . S
C3797 C3798 1.524 . S
C3797 H3800 0.999 . S
C3798 H3768 0.950 . S
C3798 C3797 1.524 . S
C3798 C3799 1.415 . S
C3799 H3769 0.950 . S
C3799 C3794 1.363 . S
C3799 C3798 1.415 . S
H3800 C3797 0.999 . S
H3801 C3782 0.913 . S
H3802 C3820 0.951 . S
H3803 C3822 0.951 . S
H3804 C3824 0.950 . S
H3805 C3825 0.950 . S
H3806 C3827 0.950 . S
H3807 C3830 0.950 . S
H3808 C3831 0.950 . S
H3809 C3833 0.950 . S
H3810 C3834 0.950 . S
H3811 C3835 0.951 . S
H3812 C3837 0.951 . S
H3813 C3839 0.950 . S
H3814 C3840 0.950 . S
H3815 C3842 0.950 . S
H3816 C3845 0.950 . S
H3817 C3846 0.950 . S
H3818 C3848 0.950 . S
H3819 C3849 0.950 . S
C3820 H3802 0.951 . S
C3820 C3821 1.366 . S
C3820 C3822 1.388 . S
C3821 C3820 1.366 . S
C3821 C3825 1.385 . S
C3822 H3803 0.951 . S
C3822 C3820 1.388 . S
C3822 C3823 1.366 . S
C3823 C3822 1.366 . S
C3823 C3824 1.414 . S
C3823 C3826 1.499 . S
C3824 H3804 0.950 . S
C3824 C3823 1.414 . S
C3824 C3825 1.374 . S
C3825 H3805 0.950 . S
C3825 C3821 1.385 . S
C3825 C3824 1.374 . S
C3826 C3823 1.499 . S
C3826 C3827 1.373 . S
C3826 C3828 1.389 . S
C3827 H3806 0.950 . S
C3827 C3826 1.373 . S
C3827 C3843 1.377 . S
C3828 C3826 1.389 . S
C3828 C3829 1.524 . S
C3828 C3842 1.377 . S
C3829 C3828 1.524 . S
C3829 C3830 1.397 . S
C3829 C3834 1.363 . S
C3830 H3807 0.950 . S
C3830 C3829 1.397 . S
C3830 C3831 1.334 . S
C3831 H3808 0.950 . S
C3831 C3830 1.334 . S
C3831 C3832 1.287 . S
C3832 C3831 1.287 . S
C3832 C3833 1.524 . S
C3832 H3851 0.913 . S
C3833 H3809 0.950 . S
C3833 C3832 1.524 . S
C3833 C3834 1.415 . S
C3834 H3810 0.950 . S
C3834 C3829 1.363 . S
C3834 C3833 1.415 . S
C3835 H3811 0.951 . S
C3835 C3836 1.366 . S
C3835 C3837 1.388 . S
C3836 C3835 1.366 . S
C3836 C3840 1.385 . S
C3837 H3812 0.951 . S
C3837 C3835 1.388 . S
C3837 C3838 1.366 . S
C3838 C3837 1.366 . S
C3838 C3839 1.414 . S
C3838 C3841 1.499 . S
C3839 H3813 0.950 . S
C3839 C3838 1.414 . S
C3839 C3840 1.374 . S
C3840 H3814 0.950 . S
C3840 C3836 1.385 . S
C3840 C3839 1.374 . S
C3841 C3838 1.499 . S
C3841 C3842 1.373 . S
C3841 C3843 1.389 . S
C3842 H3815 0.950 . S
C3842 C3828 1.377 . S
C3842 C3841 1.373 . S
C3843 C3827 1.377 . S
C3843 C3841 1.389 . S
C3843 C3844 1.524 . S
C3844 C3843 1.524 . S
C3844 C3845 1.397 . S
C3844 C3849 1.363 . S
C3845 H3816 0.950 . S
C3845 C3844 1.397 . S
C3845 C3846 1.334 . S
C3846 H3817 0.950 . S
C3846 C3845 1.334 . S
C3846 C3847 1.287 . S
C3847 C3846 1.287 . S
C3847 C3848 1.524 . S
C3847 H3850 0.999 . S
C3848 H3818 0.950 . S
C3848 C3847 1.524 . S
C3848 C3849 1.415 . S
C3849 H3819 0.950 . S
C3849 C3844 1.363 . S
C3849 C3848 1.415 . S
H3850 C3847 0.999 . S
H3851 C3832 0.913 . S
H3852 C3870 0.951 . S
H3853 C3872 0.951 . S
H3854 C3874 0.950 . S
H3855 C3875 0.950 . S
H3856 C3877 0.950 . S
H3857 C3880 0.950 . S
H3858 C3881 0.950 . S
H3859 C3883 0.950 . S
H3860 C3884 0.950 . S
H3861 C3885 0.951 . S
H3862 C3887 0.951 . S
H3863 C3889 0.950 . S
H3864 C3890 0.950 . S
H3865 C3892 0.950 . S
H3866 C3895 0.950 . S
H3867 C3896 0.950 . S
H3868 C3898 0.950 . S
H3869 C3899 0.950 . S
C3870 H3852 0.951 . S
C3870 C3871 1.366 . S
C3870 C3872 1.388 . S
C3871 C3870 1.366 . S
C3871 C3875 1.385 . S
C3872 H3853 0.951 . S
C3872 C3870 1.388 . S
C3872 C3873 1.366 . S
C3873 C3872 1.366 . S
C3873 C3874 1.414 . S
C3873 C3876 1.499 . S
C3874 H3854 0.950 . S
C3874 C3873 1.414 . S
C3874 C3875 1.374 . S
C3875 H3855 0.950 . S
C3875 C3871 1.385 . S
C3875 C3874 1.374 . S
C3876 C3873 1.499 . S
C3876 C3877 1.373 . S
C3876 C3878 1.389 . S
C3877 H3856 0.950 . S
C3877 C3876 1.373 . S
C3877 C3893 1.377 . S
C3878 C3876 1.389 . S
C3878 C3879 1.524 . S
C3878 C3892 1.377 . S
C3879 C3878 1.524 . S
C3879 C3880 1.397 . S
C3879 C3884 1.363 . S
C3880 H3857 0.950 . S
C3880 C3879 1.397 . S
C3880 C3881 1.334 . S
C3881 H3858 0.950 . S
C3881 C3880 1.334 . S
C3881 C3882 1.287 . S
C3882 C3881 1.287 . S
C3882 C3883 1.524 . S
C3882 H3901 0.913 . S
C3883 H3859 0.950 . S
C3883 C3882 1.524 . S
C3883 C3884 1.415 . S
C3884 H3860 0.950 . S
C3884 C3879 1.363 . S
C3884 C3883 1.415 . S
C3885 H3861 0.951 . S
C3885 C3886 1.366 . S
C3885 C3887 1.388 . S
C3886 C3885 1.366 . S
C3886 C3890 1.385 . S
C3887 H3862 0.951 . S
C3887 C3885 1.388 . S
C3887 C3888 1.366 . S
C3888 C3887 1.366 . S
C3888 C3889 1.414 . S
C3888 C3891 1.499 . S
C3889 H3863 0.950 . S
C3889 C3888 1.414 . S
C3889 C3890 1.374 . S
C3890 H3864 0.950 . S
C3890 C3886 1.385 . S
C3890 C3889 1.374 . S
C3891 C3888 1.499 . S
C3891 C3892 1.373 . S
C3891 C3893 1.389 . S
C3892 H3865 0.950 . S
C3892 C3878 1.377 . S
C3892 C3891 1.373 . S
C3893 C3877 1.377 . S
C3893 C3891 1.389 . S
C3893 C3894 1.524 . S
C3894 C3893 1.524 . S
C3894 C3895 1.397 . S
C3894 C3899 1.363 . S
C3895 H3866 0.950 . S
C3895 C3894 1.397 . S
C3895 C3896 1.334 . S
C3896 H3867 0.950 . S
C3896 C3895 1.334 . S
C3896 C3897 1.287 . S
C3897 C3896 1.287 . S
C3897 C3898 1.524 . S
C3897 H3900 0.999 . S
C3898 H3868 0.950 . S
C3898 C3897 1.524 . S
C3898 C3899 1.415 . S
C3899 H3869 0.950 . S
C3899 C3894 1.363 . S
C3899 C3898 1.415 . S
H3900 C3897 0.999 . S
H3901 C3882 0.913 . S
H3902 C3920 0.951 . S
H3903 C3922 0.951 . S
H3904 C3924 0.950 . S
H3905 C3925 0.950 . S
H3906 C3927 0.950 . S
H3907 C3930 0.950 . S
H3908 C3931 0.950 . S
H3909 C3933 0.950 . S
H3910 C3934 0.950 . S
H3911 C3935 0.951 . S
H3912 C3937 0.951 . S
H3913 C3939 0.950 . S
H3914 C3940 0.950 . S
H3915 C3942 0.950 . S
H3916 C3945 0.950 . S
H3917 C3946 0.950 . S
H3918 C3948 0.950 . S
H3919 C3949 0.950 . S
C3920 H3902 0.951 . S
C3920 C3921 1.366 . S
C3920 C3922 1.388 . S
C3921 C3920 1.366 . S
C3921 C3925 1.385 . S
C3922 H3903 0.951 . S
C3922 C3920 1.388 . S
C3922 C3923 1.366 . S
C3923 C3922 1.366 . S
C3923 C3924 1.414 . S
C3923 C3926 1.499 . S
C3924 H3904 0.950 . S
C3924 C3923 1.414 . S
C3924 C3925 1.374 . S
C3925 H3905 0.950 . S
C3925 C3921 1.385 . S
C3925 C3924 1.374 . S
C3926 C3923 1.499 . S
C3926 C3927 1.373 . S
C3926 C3928 1.389 . S
C3927 H3906 0.950 . S
C3927 C3926 1.373 . S
C3927 C3943 1.377 . S
C3928 C3926 1.389 . S
C3928 C3929 1.524 . S
C3928 C3942 1.377 . S
C3929 C3928 1.524 . S
C3929 C3930 1.397 . S
C3929 C3934 1.363 . S
C3930 H3907 0.950 . S
C3930 C3929 1.397 . S
C3930 C3931 1.334 . S
C3931 H3908 0.950 . S
C3931 C3930 1.334 . S
C3931 C3932 1.287 . S
C3932 C3931 1.287 . S
C3932 C3933 1.524 . S
C3932 H3951 0.913 . S
C3933 H3909 0.950 . S
C3933 C3932 1.524 . S
C3933 C3934 1.415 . S
C3934 H3910 0.950 . S
C3934 C3929 1.363 . S
C3934 C3933 1.415 . S
C3935 H3911 0.951 . S
C3935 C3936 1.366 . S
C3935 C3937 1.388 . S
C3936 C3935 1.366 . S
C3936 C3940 1.385 . S
C3937 H3912 0.951 . S
C3937 C3935 1.388 . S
C3937 C3938 1.366 . S
C3938 C3937 1.366 . S
C3938 C3939 1.414 . S
C3938 C3941 1.499 . S
C3939 H3913 0.950 . S
C3939 C3938 1.414 . S
C3939 C3940 1.374 . S
C3940 H3914 0.950 . S
C3940 C3936 1.385 . S
C3940 C3939 1.374 . S
C3941 C3938 1.499 . S
C3941 C3942 1.373 . S
C3941 C3943 1.389 . S
C3942 H3915 0.950 . S
C3942 C3928 1.377 . S
C3942 C3941 1.373 . S
C3943 C3927 1.377 . S
C3943 C3941 1.389 . S
C3943 C3944 1.524 . S
C3944 C3943 1.524 . S
C3944 C3945 1.397 . S
C3944 C3949 1.363 . S
C3945 H3916 0.950 . S
C3945 C3944 1.397 . S
C3945 C3946 1.334 . S
C3946 H3917 0.950 . S
C3946 C3945 1.334 . S
C3946 C3947 1.287 . S
C3947 C3946 1.287 . S
C3947 C3948 1.524 . S
C3947 H3950 0.999 . S
C3948 H3918 0.950 . S
C3948 C3947 1.524 . S
C3948 C3949 1.415 . S
C3949 H3919 0.950 . S
C3949 C3944 1.363 . S
C3949 C3948 1.415 . S
H3950 C3947 0.999 . S
H3951 C3932 0.913 . S
H3952 C3970 0.951 . S
H3953 C3972 0.951 . S
H3954 C3974 0.950 . S
H3955 C3975 0.950 . S
H3956 C3977 0.950 . S
H3957 C3980 0.950 . S
H3958 C3981 0.950 . S
H3959 C3983 0.950 . S
H3960 C3984 0.950 . S
H3961 C3985 0.951 . S
H3962 C3987 0.951 . S
H3963 C3989 0.950 . S
H3964 C3990 0.950 . S
H3965 C3992 0.950 . S
H3966 C3995 0.950 . S
H3967 C3996 0.950 . S
H3968 C3998 0.950 . S
H3969 C3999 0.950 . S
C3970 H3952 0.951 . S
C3970 C3971 1.366 . S
C3970 C3972 1.388 . S
C3971 C3970 1.366 . S
C3971 C3975 1.385 . S
C3972 H3953 0.951 . S
C3972 C3970 1.388 . S
C3972 C3973 1.366 . S
C3973 C3972 1.366 . S
C3973 C3974 1.414 . S
C3973 C3976 1.499 . S
C3974 H3954 0.950 . S
C3974 C3973 1.414 . S
C3974 C3975 1.374 . S
C3975 H3955 0.950 . S
C3975 C3971 1.385 . S
C3975 C3974 1.374 . S
C3976 C3973 1.499 . S
C3976 C3977 1.373 . S
C3976 C3978 1.389 . S
C3977 H3956 0.950 . S
C3977 C3976 1.373 . S
C3977 C3993 1.377 . S
C3978 C3976 1.389 . S
C3978 C3979 1.524 . S
C3978 C3992 1.377 . S
C3979 C3978 1.524 . S
C3979 C3980 1.397 . S
C3979 C3984 1.363 . S
C3980 H3957 0.950 . S
C3980 C3979 1.397 . S
C3980 C3981 1.334 . S
C3981 H3958 0.950 . S
C3981 C3980 1.334 . S
C3981 C3982 1.287 . S
C3982 C3981 1.287 . S
C3982 C3983 1.524 . S
C3982 H4001 0.913 . S
C3983 H3959 0.950 . S
C3983 C3982 1.524 . S
C3983 C3984 1.415 . S
C3984 H3960 0.950 . S
C3984 C3979 1.363 . S
C3984 C3983 1.415 . S
C3985 H3961 0.951 . S
C3985 C3986 1.366 . S
C3985 C3987 1.388 . S
C3986 C3985 1.366 . S
C3986 C3990 1.385 . S
C3987 H3962 0.951 . S
C3987 C3985 1.388 . S
C3987 C3988 1.366 . S
C3988 C3987 1.366 . S
C3988 C3989 1.414 . S
C3988 C3991 1.499 . S
C3989 H3963 0.950 . S
C3989 C3988 1.414 . S
C3989 C3990 1.374 . S
C3990 H3964 0.950 . S
C3990 C3986 1.385 . S
C3990 C3989 1.374 . S
C3991 C3988 1.499 . S
C3991 C3992 1.373 . S
C3991 C3993 1.389 . S
C3992 H3965 0.950 . S
C3992 C3978 1.377 . S
C3992 C3991 1.373 . S
C3993 C3977 1.377 . S
C3993 C3991 1.389 . S
C3993 C3994 1.524 . S
C3994 C3993 1.524 . S
C3994 C3995 1.397 . S
C3994 C3999 1.363 . S
C3995 H3966 0.950 . S
C3995 C3994 1.397 . S
C3995 C3996 1.334 . S
C3996 H3967 0.950 . S
C3996 C3995 1.334 . S
C3996 C3997 1.287 . S
C3997 C3996 1.287 . S
C3997 C3998 1.524 . S
C3997 H4000 0.999 . S
C3998 H3968 0.950 . S
C3998 C3997 1.524 . S
C3998 C3999 1.415 . S
C3999 H3969 0.950 . S
C3999 C3994 1.363 . S
C3999 C3998 1.415 . S
H4000 C3997 0.999 . S
H4001 C3982 0.913 . S
H4002 C4020 0.951 . S
H4003 C4022 0.951 . S
H4004 C4024 0.950 . S
H4005 C4025 0.950 . S
H4006 C4027 0.950 . S
H4007 C4030 0.950 . S
H4008 C4031 0.950 . S
H4009 C4033 0.950 . S
H4010 C4034 0.950 . S
H4011 C4035 0.951 . S
H4012 C4037 0.951 . S
H4013 C4039 0.950 . S
H4014 C4040 0.950 . S
H4015 C4042 0.950 . S
H4016 C4045 0.950 . S
H4017 C4046 0.950 . S
H4018 C4048 0.950 . S
H4019 C4049 0.950 . S
C4020 H4002 0.951 . S
C4020 C4021 1.366 . S
C4020 C4022 1.388 . S
C4021 C4020 1.366 . S
C4021 C4025 1.385 . S
C4022 H4003 0.951 . S
C4022 C4020 1.388 . S
C4022 C4023 1.366 . S
C4023 C4022 1.366 . S
C4023 C4024 1.414 . S
C4023 C4026 1.499 . S
C4024 H4004 0.950 . S
C4024 C4023 1.414 . S
C4024 C4025 1.374 . S
C4025 H4005 0.950 . S
C4025 C4021 1.385 . S
C4025 C4024 1.374 . S
C4026 C4023 1.499 . S
C4026 C4027 1.373 . S
C4026 C4028 1.389 . S
C4027 H4006 0.950 . S
C4027 C4026 1.373 . S
C4027 C4043 1.377 . S
C4028 C4026 1.389 . S
C4028 C4029 1.524 . S
C4028 C4042 1.377 . S
C4029 C4028 1.524 . S
C4029 C4030 1.397 . S
C4029 C4034 1.363 . S
C4030 H4007 0.950 . S
C4030 C4029 1.397 . S
C4030 C4031 1.334 . S
C4031 H4008 0.950 . S
C4031 C4030 1.334 . S
C4031 C4032 1.287 . S
C4032 C4031 1.287 . S
C4032 C4033 1.524 . S
C4032 H4051 0.913 . S
C4033 H4009 0.950 . S
C4033 C4032 1.524 . S
C4033 C4034 1.415 . S
C4034 H4010 0.950 . S
C4034 C4029 1.363 . S
C4034 C4033 1.415 . S
C4035 H4011 0.951 . S
C4035 C4036 1.366 . S
C4035 C4037 1.388 . S
C4036 C4035 1.366 . S
C4036 C4040 1.385 . S
C4037 H4012 0.951 . S
C4037 C4035 1.388 . S
C4037 C4038 1.366 . S
C4038 C4037 1.366 . S
C4038 C4039 1.414 . S
C4038 C4041 1.499 . S
C4039 H4013 0.950 . S
C4039 C4038 1.414 . S
C4039 C4040 1.374 . S
C4040 H4014 0.950 . S
C4040 C4036 1.385 . S
C4040 C4039 1.374 . S
C4041 C4038 1.499 . S
C4041 C4042 1.373 . S
C4041 C4043 1.389 . S
C4042 H4015 0.950 . S
C4042 C4028 1.377 . S
C4042 C4041 1.373 . S
C4043 C4027 1.377 . S
C4043 C4041 1.389 . S
C4043 C4044 1.524 . S
C4044 C4043 1.524 . S
C4044 C4045 1.397 . S
C4044 C4049 1.363 . S
C4045 H4016 0.950 . S
C4045 C4044 1.397 . S
C4045 C4046 1.334 . S
C4046 H4017 0.950 . S
C4046 C4045 1.334 . S
C4046 C4047 1.287 . S
C4047 C4046 1.287 . S
C4047 C4048 1.524 . S
C4047 H4050 0.999 . S
C4048 H4018 0.950 . S
C4048 C4047 1.524 . S
C4048 C4049 1.415 . S
C4049 H4019 0.950 . S
C4049 C4044 1.363 . S
C4049 C4048 1.415 . S
H4050 C4047 0.999 . S
H4051 C4032 0.913 . S
H4052 C4070 0.951 . S
H4053 C4072 0.951 . S
H4054 C4074 0.950 . S
H4055 C4075 0.950 . S
H4056 C4077 0.950 . S
H4057 C4080 0.950 . S
H4058 C4081 0.950 . S
H4059 C4083 0.950 . S
H4060 C4084 0.950 . S
H4061 C4085 0.951 . S
H4062 C4087 0.951 . S
H4063 C4089 0.950 . S
H4064 C4090 0.950 . S
H4065 C4092 0.950 . S
H4066 C4095 0.950 . S
H4067 C4096 0.950 . S
H4068 C4098 0.950 . S
H4069 C4099 0.950 . S
C4070 H4052 0.951 . S
C4070 C4071 1.366 . S
C4070 C4072 1.388 . S
C4071 C4070 1.366 . S
C4071 C4075 1.385 . S
C4072 H4053 0.951 . S
C4072 C4070 1.388 . S
C4072 C4073 1.366 . S
C4073 C4072 1.366 . S
C4073 C4074 1.414 . S
C4073 C4076 1.499 . S
C4074 H4054 0.950 . S
C4074 C4073 1.414 . S
C4074 C4075 1.374 . S
C4075 H4055 0.950 . S
C4075 C4071 1.385 . S
C4075 C4074 1.374 . S
C4076 C4073 1.499 . S
C4076 C4077 1.373 . S
C4076 C4078 1.389 . S
C4077 H4056 0.950 . S
C4077 C4076 1.373 . S
C4077 C4093 1.377 . S
C4078 C4076 1.389 . S
C4078 C4079 1.524 . S
C4078 C4092 1.377 . S
C4079 C4078 1.524 . S
C4079 C4080 1.397 . S
C4079 C4084 1.363 . S
C4080 H4057 0.950 . S
C4080 C4079 1.397 . S
C4080 C4081 1.334 . S
C4081 H4058 0.950 . S
C4081 C4080 1.334 . S
C4081 C4082 1.287 . S
C4082 C4081 1.287 . S
C4082 C4083 1.524 . S
C4082 H4101 0.913 . S
C4083 H4059 0.950 . S
C4083 C4082 1.524 . S
C4083 C4084 1.415 . S
C4084 H4060 0.950 . S
C4084 C4079 1.363 . S
C4084 C4083 1.415 . S
C4085 H4061 0.951 . S
C4085 C4086 1.366 . S
C4085 C4087 1.388 . S
C4086 C4085 1.366 . S
C4086 C4090 1.385 . S
C4087 H4062 0.951 . S
C4087 C4085 1.388 . S
C4087 C4088 1.366 . S
C4088 C4087 1.366 . S
C4088 C4089 1.414 . S
C4088 C4091 1.499 . S
C4089 H4063 0.950 . S
C4089 C4088 1.414 . S
C4089 C4090 1.374 . S
C4090 H4064 0.950 . S
C4090 C4086 1.385 . S
C4090 C4089 1.374 . S
C4091 C4088 1.499 . S
C4091 C4092 1.373 . S
C4091 C4093 1.389 . S
C4092 H4065 0.950 . S
C4092 C4078 1.377 . S
C4092 C4091 1.373 . S
C4093 C4077 1.377 . S
C4093 C4091 1.389 . S
C4093 C4094 1.524 . S
C4094 C4093 1.524 . S
C4094 C4095 1.397 . S
C4094 C4099 1.363 . S
C4095 H4066 0.950 . S
C4095 C4094 1.397 . S
C4095 C4096 1.334 . S
C4096 H4067 0.950 . S
C4096 C4095 1.334 . S
C4096 C4097 1.287 . S
C4097 C4096 1.287 . S
C4097 C4098 1.524 . S
C4097 H4100 0.999 . S
C4098 H4068 0.950 . S
C4098 C4097 1.524 . S
C4098 C4099 1.415 . S
C4099 H4069 0.950 . S
C4099 C4094 1.363 . S
C4099 C4098 1.415 . S
H4100 C4097 0.999 . S
H4101 C4082 0.913 . S
H4102 C4120 0.951 . S
H4103 C4122 0.951 . S
H4104 C4124 0.950 . S
H4105 C4125 0.950 . S
H4106 C4127 0.950 . S
H4107 C4130 0.950 . S
H4108 C4131 0.950 . S
H4109 C4133 0.950 . S
H4110 C4134 0.950 . S
H4111 C4135 0.951 . S
H4112 C4137 0.951 . S
H4113 C4139 0.950 . S
H4114 C4140 0.950 . S
H4115 C4142 0.950 . S
H4116 C4145 0.950 . S
H4117 C4146 0.950 . S
H4118 C4148 0.950 . S
H4119 C4149 0.950 . S
C4120 H4102 0.951 . S
C4120 C4121 1.366 . S
C4120 C4122 1.388 . S
C4121 C4120 1.366 . S
C4121 C4125 1.385 . S
C4122 H4103 0.951 . S
C4122 C4120 1.388 . S
C4122 C4123 1.366 . S
C4123 C4122 1.366 . S
C4123 C4124 1.414 . S
C4123 C4126 1.499 . S
C4124 H4104 0.950 . S
C4124 C4123 1.414 . S
C4124 C4125 1.374 . S
C4125 H4105 0.950 . S
C4125 C4121 1.385 . S
C4125 C4124 1.374 . S
C4126 C4123 1.499 . S
C4126 C4127 1.373 . S
C4126 C4128 1.389 . S
C4127 H4106 0.950 . S
C4127 C4126 1.373 . S
C4127 C4143 1.377 . S
C4128 C4126 1.389 . S
C4128 C4129 1.524 . S
C4128 C4142 1.377 . S
C4129 C4128 1.524 . S
C4129 C4130 1.397 . S
C4129 C4134 1.363 . S
C4130 H4107 0.950 . S
C4130 C4129 1.397 . S
C4130 C4131 1.334 . S
C4131 H4108 0.950 . S
C4131 C4130 1.334 . S
C4131 C4132 1.287 . S
C4132 C4131 1.287 . S
C4132 C4133 1.524 . S
C4132 H4151 0.913 . S
C4133 H4109 0.950 . S
C4133 C4132 1.524 . S
C4133 C4134 1.415 . S
C4134 H4110 0.950 . S
C4134 C4129 1.363 . S
C4134 C4133 1.415 . S
C4135 H4111 0.951 . S
C4135 C4136 1.366 . S
C4135 C4137 1.388 . S
C4136 C4135 1.366 . S
C4136 C4140 1.385 . S
C4137 H4112 0.951 . S
C4137 C4135 1.388 . S
C4137 C4138 1.366 . S
C4138 C4137 1.366 . S
C4138 C4139 1.414 . S
C4138 C4141 1.499 . S
C4139 H4113 0.950 . S
C4139 C4138 1.414 . S
C4139 C4140 1.374 . S
C4140 H4114 0.950 . S
C4140 C4136 1.385 . S
C4140 C4139 1.374 . S
C4141 C4138 1.499 . S
C4141 C4142 1.373 . S
C4141 C4143 1.389 . S
C4142 H4115 0.950 . S
C4142 C4128 1.377 . S
C4142 C4141 1.373 . S
C4143 C4127 1.377 . S
C4143 C4141 1.389 . S
C4143 C4144 1.524 . S
C4144 C4143 1.524 . S
C4144 C4145 1.397 . S
C4144 C4149 1.363 . S
C4145 H4116 0.950 . S
C4145 C4144 1.397 . S
C4145 C4146 1.334 . S
C4146 H4117 0.950 . S
C4146 C4145 1.334 . S
C4146 C4147 1.287 . S
C4147 C4146 1.287 . S
C4147 C4148 1.524 . S
C4147 H4150 0.999 . S
C4148 H4118 0.950 . S
C4148 C4147 1.524 . S
C4148 C4149 1.415 . S
C4149 H4119 0.950 . S
C4149 C4144 1.363 . S
C4149 C4148 1.415 . S
H4150 C4147 0.999 . S
H4151 C4132 0.913 . S
H4152 C4170 0.951 . S
H4153 C4172 0.951 . S
H4154 C4174 0.950 . S
H4155 C4175 0.950 . S
H4156 C4177 0.950 . S
H4157 C4180 0.950 . S
H4158 C4181 0.950 . S
H4159 C4183 0.950 . S
H4160 C4184 0.950 . S
H4161 C4185 0.951 . S
H4162 C4187 0.951 . S
H4163 C4189 0.950 . S
H4164 C4190 0.950 . S
H4165 C4192 0.950 . S
H4166 C4195 0.950 . S
H4167 C4196 0.950 . S
H4168 C4198 0.950 . S
H4169 C4199 0.950 . S
C4170 H4152 0.951 . S
C4170 C4171 1.366 . S
C4170 C4172 1.388 . S
C4171 C4170 1.366 . S
C4171 C4175 1.385 . S
C4172 H4153 0.951 . S
C4172 C4170 1.388 . S
C4172 C4173 1.366 . S
C4173 C4172 1.366 . S
C4173 C4174 1.414 . S
C4173 C4176 1.499 . S
C4174 H4154 0.950 . S
C4174 C4173 1.414 . S
C4174 C4175 1.374 . S
C4175 H4155 0.950 . S
C4175 C4171 1.385 . S
C4175 C4174 1.374 . S
C4176 C4173 1.499 . S
C4176 C4177 1.373 . S
C4176 C4178 1.389 . S
C4177 H4156 0.950 . S
C4177 C4176 1.373 . S
C4177 C4193 1.377 . S
C4178 C4176 1.389 . S
C4178 C4179 1.524 . S
C4178 C4192 1.377 . S
C4179 C4178 1.524 . S
C4179 C4180 1.397 . S
C4179 C4184 1.363 . S
C4180 H4157 0.950 . S
C4180 C4179 1.397 . S
C4180 C4181 1.334 . S
C4181 H4158 0.950 . S
C4181 C4180 1.334 . S
C4181 C4182 1.287 . S
C4182 C4181 1.287 . S
C4182 C4183 1.524 . S
C4182 H4201 0.913 . S
C4183 H4159 0.950 . S
C4183 C4182 1.524 . S
C4183 C4184 1.415 . S
C4184 H4160 0.950 . S
C4184 C4179 1.363 . S
C4184 C4183 1.415 . S
C4185 H4161 0.951 . S
C4185 C4186 1.366 . S
C4185 C4187 1.388 . S
C4186 C4185 1.366 . S
C4186 C4190 1.385 . S
C4187 H4162 0.951 . S
C4187 C4185 1.388 . S
C4187 C4188 1.366 . S
C4188 C4187 1.366 . S
C4188 C4189 1.414 . S
C4188 C4191 1.499 . S
C4189 H4163 0.950 . S
C4189 C4188 1.414 . S
C4189 C4190 1.374 . S
C4190 H4164 0.950 . S
C4190 C4186 1.385 . S
C4190 C4189 1.374 . S
C4191 C4188 1.499 . S
C4191 C4192 1.373 . S
C4191 C4193 1.389 . S
C4192 H4165 0.950 . S
C4192 C4178 1.377 . S
C4192 C4191 1.373 . S
C4193 C4177 1.377 . S
C4193 C4191 1.389 . S
C4193 C4194 1.524 . S
C4194 C4193 1.524 . S
C4194 C4195 1.397 . S
C4194 C4199 1.363 . S
C4195 H4166 0.950 . S
C4195 C4194 1.397 . S
C4195 C4196 1.334 . S
C4196 H4167 0.950 . S
C4196 C4195 1.334 . S
C4196 C4197 1.287 . S
C4197 C4196 1.287 . S
C4197 C4198 1.524 . S
C4197 H4200 0.999 . S
C4198 H4168 0.950 . S
C4198 C4197 1.524 . S
C4198 C4199 1.415 . S
C4199 H4169 0.950 . S
C4199 C4194 1.363 . S
C4199 C4198 1.415 . S
H4200 C4197 0.999 . S
H4201 C4182 0.913 . S
H4202 C4220 0.951 . S
H4203 C4222 0.951 . S
H4204 C4224 0.950 . S
H4205 C4225 0.950 . S
H4206 C4227 0.950 . S
H4207 C4230 0.950 . S
H4208 C4231 0.950 . S
H4209 C4233 0.950 . S
H4210 C4234 0.950 . S
H4211 C4235 0.951 . S
H4212 C4237 0.951 . S
H4213 C4239 0.950 . S
H4214 C4240 0.950 . S
H4215 C4242 0.950 . S
H4216 C4245 0.950 . S
H4217 C4246 0.950 . S
H4218 C4248 0.950 . S
H4219 C4249 0.950 . S
C4220 H4202 0.951 . S
C4220 C4221 1.366 . S
C4220 C4222 1.388 . S
C4221 C4220 1.366 . S
C4221 C4225 1.385 . S
C4222 H4203 0.951 . S
C4222 C4220 1.388 . S
C4222 C4223 1.366 . S
C4223 C4222 1.366 . S
C4223 C4224 1.414 . S
C4223 C4226 1.499 . S
C4224 H4204 0.950 . S
C4224 C4223 1.414 . S
C4224 C4225 1.374 . S
C4225 H4205 0.950 . S
C4225 C4221 1.385 . S
C4225 C4224 1.374 . S
C4226 C4223 1.499 . S
C4226 C4227 1.373 . S
C4226 C4228 1.389 . S
C4227 H4206 0.950 . S
C4227 C4226 1.373 . S
C4227 C4243 1.377 . S
C4228 C4226 1.389 . S
C4228 C4229 1.524 . S
C4228 C4242 1.377 . S
C4229 C4228 1.524 . S
C4229 C4230 1.397 . S
C4229 C4234 1.363 . S
C4230 H4207 0.950 . S
C4230 C4229 1.397 . S
C4230 C4231 1.334 . S
C4231 H4208 0.950 . S
C4231 C4230 1.334 . S
C4231 C4232 1.287 . S
C4232 C4231 1.287 . S
C4232 C4233 1.524 . S
C4232 H4251 0.913 . S
C4233 H4209 0.950 . S
C4233 C4232 1.524 . S
C4233 C4234 1.415 . S
C4234 H4210 0.950 . S
C4234 C4229 1.363 . S
C4234 C4233 1.415 . S
C4235 H4211 0.951 . S
C4235 C4236 1.366 . S
C4235 C4237 1.388 . S
C4236 C4235 1.366 . S
C4236 C4240 1.385 . S
C4237 H4212 0.951 . S
C4237 C4235 1.388 . S
C4237 C4238 1.366 . S
C4238 C4237 1.366 . S
C4238 C4239 1.414 . S
C4238 C4241 1.499 . S
C4239 H4213 0.950 . S
C4239 C4238 1.414 . S
C4239 C4240 1.374 . S
C4240 H4214 0.950 . S
C4240 C4236 1.385 . S
C4240 C4239 1.374 . S
C4241 C4238 1.499 . S
C4241 C4242 1.373 . S
C4241 C4243 1.389 . S
C4242 H4215 0.950 . S
C4242 C4228 1.377 . S
C4242 C4241 1.373 . S
C4243 C4227 1.377 . S
C4243 C4241 1.389 . S
C4243 C4244 1.524 . S
C4244 C4243 1.524 . S
C4244 C4245 1.397 . S
C4244 C4249 1.363 . S
C4245 H4216 0.950 . S
C4245 C4244 1.397 . S
C4245 C4246 1.334 . S
C4246 H4217 0.950 . S
C4246 C4245 1.334 . S
C4246 C4247 1.287 . S
C4247 C4246 1.287 . S
C4247 C4248 1.524 . S
C4247 H4250 0.999 . S
C4248 H4218 0.950 . S
C4248 C4247 1.524 . S
C4248 C4249 1.415 . S
C4249 H4219 0.950 . S
C4249 C4244 1.363 . S
C4249 C4248 1.415 . S
H4250 C4247 0.999 . S
H4251 C4232 0.913 . S
H4252 C4270 0.951 . S
H4253 C4272 0.951 . S
H4254 C4274 0.950 . S
H4255 C4275 0.950 . S
H4256 C4277 0.950 . S
H4257 C4280 0.950 . S
H4258 C4281 0.950 . S
H4259 C4283 0.950 . S
H4260 C4284 0.950 . S
H4261 C4285 0.951 . S
H4262 C4287 0.951 . S
H4263 C4289 0.950 . S
H4264 C4290 0.950 . S
H4265 C4292 0.950 . S
H4266 C4295 0.950 . S
H4267 C4296 0.950 . S
H4268 C4298 0.950 . S
H4269 C4299 0.950 . S
C4270 H4252 0.951 . S
C4270 C4271 1.366 . S
C4270 C4272 1.388 . S
C4271 C4270 1.366 . S
C4271 C4275 1.385 . S
C4272 H4253 0.951 . S
C4272 C4270 1.388 . S
C4272 C4273 1.366 . S
C4273 C4272 1.366 . S
C4273 C4274 1.414 . S
C4273 C4276 1.499 . S
C4274 H4254 0.950 . S
C4274 C4273 1.414 . S
C4274 C4275 1.374 . S
C4275 H4255 0.950 . S
C4275 C4271 1.385 . S
C4275 C4274 1.374 . S
C4276 C4273 1.499 . S
C4276 C4277 1.373 . S
C4276 C4278 1.389 . S
C4277 H4256 0.950 . S
C4277 C4276 1.373 . S
C4277 C4293 1.377 . S
C4278 C4276 1.389 . S
C4278 C4279 1.524 . S
C4278 C4292 1.377 . S
C4279 C4278 1.524 . S
C4279 C4280 1.397 . S
C4279 C4284 1.363 . S
C4280 H4257 0.950 . S
C4280 C4279 1.397 . S
C4280 C4281 1.334 . S
C4281 H4258 0.950 . S
C4281 C4280 1.334 . S
C4281 C4282 1.287 . S
C4282 C4281 1.287 . S
C4282 C4283 1.524 . S
C4282 H4301 0.913 . S
C4283 H4259 0.950 . S
C4283 C4282 1.524 . S
C4283 C4284 1.415 . S
C4284 H4260 0.950 . S
C4284 C4279 1.363 . S
C4284 C4283 1.415 . S
C4285 H4261 0.951 . S
C4285 C4286 1.366 . S
C4285 C4287 1.388 . S
C4286 C4285 1.366 . S
C4286 C4290 1.385 . S
C4287 H4262 0.951 . S
C4287 C4285 1.388 . S
C4287 C4288 1.366 . S
C4288 C4287 1.366 . S
C4288 C4289 1.414 . S
C4288 C4291 1.499 . S
C4289 H4263 0.950 . S
C4289 C4288 1.414 . S
C4289 C4290 1.374 . S
C4290 H4264 0.950 . S
C4290 C4286 1.385 . S
C4290 C4289 1.374 . S
C4291 C4288 1.499 . S
C4291 C4292 1.373 . S
C4291 C4293 1.389 . S
C4292 H4265 0.950 . S
C4292 C4278 1.377 . S
C4292 C4291 1.373 . S
C4293 C4277 1.377 . S
C4293 C4291 1.389 . S
C4293 C4294 1.524 . S
C4294 C4293 1.524 . S
C4294 C4295 1.397 . S
C4294 C4299 1.363 . S
C4295 H4266 0.950 . S
C4295 C4294 1.397 . S
C4295 C4296 1.334 . S
C4296 H4267 0.950 . S
C4296 C4295 1.334 . S
C4296 C4297 1.287 . S
C4297 C4296 1.287 . S
C4297 C4298 1.524 . S
C4297 H4300 0.999 . S
C4298 H4268 0.950 . S
C4298 C4297 1.524 . S
C4298 C4299 1.415 . S
C4299 H4269 0.950 . S
C4299 C4294 1.363 . S
C4299 C4298 1.415 . S
H4300 C4297 0.999 . S
H4301 C4282 0.913 . S
H4302 C4320 0.951 . S
H4303 C4322 0.951 . S
H4304 C4324 0.950 . S
H4305 C4325 0.950 . S
H4306 C4327 0.950 . S
H4307 C4330 0.950 . S
H4308 C4331 0.950 . S
H4309 C4333 0.950 . S
H4310 C4334 0.950 . S
H4311 C4335 0.951 . S
H4312 C4337 0.951 . S
H4313 C4339 0.950 . S
H4314 C4340 0.950 . S
H4315 C4342 0.950 1_546 S
H4316 C4345 0.928 1_545 S
H4317 C4346 0.950 . S
H4318 C4348 0.950 . S
H4319 C4349 0.950 . S
C4320 H4302 0.951 . S
C4320 C4321 1.366 . S
C4320 C4322 1.388 . S
C4321 C4320 1.366 . S
C4321 C4325 1.385 . S
C4322 H4303 0.951 . S
C4322 C4320 1.388 . S
C4322 C4323 1.366 . S
C4323 C4322 1.366 . S
C4323 C4324 1.414 . S
C4323 C4326 1.499 . S
C4324 H4304 0.950 . S
C4324 C4323 1.414 . S
C4324 C4325 1.374 . S
C4325 H4305 0.950 . S
C4325 C4321 1.385 . S
C4325 C4324 1.374 . S
C4326 C4323 1.499 . S
C4326 C4327 1.373 . S
C4326 C4328 1.389 . S
C4327 H4306 0.950 . S
C4327 C4326 1.373 . S
C4327 C4343 1.377 . S
C4328 C4326 1.389 . S
C4328 C4329 1.524 1_554 S
C4328 C4342 1.377 . S
C4329 C4328 1.524 1_556 S
C4329 C4330 1.397 . S
C4329 C4334 1.363 1_565 S
C4330 H4307 0.950 . S
C4330 C4329 1.397 . S
C4330 C4331 1.334 . S
C4331 H4308 0.950 . S
C4331 C4330 1.334 . S
C4331 C4332 1.287 . S
C4332 C4331 1.287 . S
C4332 C4333 1.524 1_565 S
C4332 H4351 0.913 . S
C4333 H4309 0.950 . S
C4333 C4332 1.524 1_545 S
C4333 C4334 1.415 . S
C4334 H4310 0.950 . S
C4334 C4329 1.363 1_545 S
C4334 C4333 1.415 . S
C4335 H4311 0.951 . S
C4335 C4336 1.366 1_565 S
C4335 C4337 1.388 . S
C4336 C4335 1.366 1_545 S
C4336 C4340 1.385 . S
C4337 H4312 0.951 . S
C4337 C4335 1.388 . S
C4337 C4338 1.366 . S
C4338 C4337 1.366 . S
C4338 C4339 1.414 1_565 S
C4338 C4341 1.499 . S
C4339 H4313 0.950 . S
C4339 C4338 1.414 1_545 S
C4339 C4340 1.374 . S
C4340 H4314 0.950 . S
C4340 C4336 1.385 . S
C4340 C4339 1.374 . S
C4341 C4338 1.499 . S
C4341 C4342 1.373 . S
C4341 C4343 1.389 . S
C4342 H4315 0.950 1_564 S
C4342 C4328 1.377 . S
C4342 C4341 1.373 . S
C4343 C4327 1.377 . S
C4343 C4341 1.389 . S
C4343 C4344 1.524 . S
C4344 C4343 1.524 . S
C4344 C4345 1.397 . S
C4344 C4349 1.363 . S
C4345 H4316 0.928 1_565 S
C4345 C4344 1.397 . S
C4345 C4346 1.334 . S
C4346 H4317 0.950 . S
C4346 C4345 1.334 . S
C4346 C4347 1.287 . S
C4347 C4346 1.287 . S
C4347 C4348 1.524 . S
C4347 H4350 0.999 . S
C4348 H4318 0.950 . S
C4348 C4347 1.524 . S
C4348 C4349 1.415 . S
C4349 H4319 0.950 . S
C4349 C4344 1.363 . S
C4349 C4348 1.415 . S
H4350 C4347 0.999 . S
H4351 C4332 0.913 . S
H4352 C4370 0.951 . S
H4353 C4372 0.951 . S
H4354 C4374 0.950 . S
H4355 C4375 0.950 . S
H4356 C4377 0.950 . S
H4357 C4380 0.950 . S
H4358 C4381 0.950 . S
H4359 C4383 0.950 . S
H4360 C4384 0.950 . S
H4361 C4385 0.951 . S
H4362 C4387 0.951 . S
H4363 C4389 0.950 . S
H4364 C4390 0.950 . S
H4365 C4392 0.950 . S
H4366 C4395 0.950 . S
H4367 C4396 0.950 . S
H4368 C4398 0.950 . S
H4369 C4399 0.950 . S
C4370 H4352 0.951 . S
C4370 C4371 1.366 . S
C4370 C4372 1.388 . S
C4371 C4370 1.366 . S
C4371 C4375 1.385 . S
C4372 H4353 0.951 . S
C4372 C4370 1.388 . S
C4372 C4373 1.366 . S
C4373 C4372 1.366 . S
C4373 C4374 1.414 . S
C4373 C4376 1.499 . S
C4374 H4354 0.950 . S
C4374 C4373 1.414 . S
C4374 C4375 1.374 . S
C4375 H4355 0.950 . S
C4375 C4371 1.385 . S
C4375 C4374 1.374 . S
C4376 C4373 1.499 . S
C4376 C4377 1.373 . S
C4376 C4378 1.389 . S
C4377 H4356 0.950 . S
C4377 C4376 1.373 . S
C4377 C4393 1.377 . S
C4378 C4376 1.389 . S
C4378 C4379 1.524 . S
C4378 C4392 1.377 . S
C4379 C4378 1.524 . S
C4379 C4380 1.397 . S
C4379 C4384 1.363 . S
C4380 H4357 0.950 . S
C4380 C4379 1.397 . S
C4380 C4381 1.334 . S
C4381 H4358 0.950 . S
C4381 C4380 1.334 . S
C4381 C4382 1.287 . S
C4382 C4381 1.287 . S
C4382 C4383 1.524 . S
C4382 H4401 0.913 . S
C4383 H4359 0.950 . S
C4383 C4382 1.524 . S
C4383 C4384 1.415 . S
C4384 H4360 0.950 . S
C4384 C4379 1.363 . S
C4384 C4383 1.415 . S
C4385 H4361 0.951 . S
C4385 C4386 1.366 . S
C4385 C4387 1.388 . S
C4386 C4385 1.366 . S
C4386 C4390 1.385 . S
C4387 H4362 0.951 . S
C4387 C4385 1.388 . S
C4387 C4388 1.366 . S
C4388 C4387 1.366 . S
C4388 C4389 1.414 . S
C4388 C4391 1.499 . S
C4389 H4363 0.950 . S
C4389 C4388 1.414 . S
C4389 C4390 1.374 . S
C4390 H4364 0.950 . S
C4390 C4386 1.385 . S
C4390 C4389 1.374 . S
C4391 C4388 1.499 . S
C4391 C4392 1.373 . S
C4391 C4393 1.389 . S
C4392 H4365 0.950 . S
C4392 C4378 1.377 . S
C4392 C4391 1.373 . S
C4393 C4377 1.377 . S
C4393 C4391 1.389 . S
C4393 C4394 1.524 . S
C4394 C4393 1.524 . S
C4394 C4395 1.397 . S
C4394 C4399 1.363 . S
C4395 H4366 0.950 . S
C4395 C4394 1.397 . S
C4395 C4396 1.334 . S
C4396 H4367 0.950 . S
C4396 C4395 1.334 . S
C4396 C4397 1.287 . S
C4397 C4396 1.287 . S
C4397 C4398 1.524 . S
C4397 H4400 0.999 . S
C4398 H4368 0.950 . S
C4398 C4397 1.524 . S
C4398 C4399 1.415 . S
C4399 H4369 0.950 . S
C4399 C4394 1.363 . S
C4399 C4398 1.415 . S
H4400 C4397 0.999 . S
H4401 C4382 0.913 . S
H4402 C4420 0.951 . S
H4403 C4422 0.951 . S
H4404 C4424 0.950 . S
H4405 C4425 0.950 . S
H4406 C4427 0.950 . S
H4407 C4430 0.950 . S
H4408 C4431 0.950 . S
H4409 C4433 0.950 . S
H4410 C4434 0.950 . S
H4411 C4435 0.951 . S
H4412 C4437 0.951 . S
H4413 C4439 0.950 . S
H4414 C4440 0.950 . S
H4415 C4442 0.950 . S
H4416 C4445 0.950 . S
H4417 C4446 0.950 . S
H4418 C4448 0.950 . S
H4419 C4449 0.950 . S
C4420 H4402 0.951 . S
C4420 C4421 1.366 . S
C4420 C4422 1.388 . S
C4421 C4420 1.366 . S
C4421 C4425 1.385 . S
C4422 H4403 0.951 . S
C4422 C4420 1.388 . S
C4422 C4423 1.366 . S
C4423 C4422 1.366 . S
C4423 C4424 1.414 . S
C4423 C4426 1.499 . S
C4424 H4404 0.950 . S
C4424 C4423 1.414 . S
C4424 C4425 1.374 . S
C4425 H4405 0.950 . S
C4425 C4421 1.385 . S
C4425 C4424 1.374 . S
C4426 C4423 1.499 . S
C4426 C4427 1.373 . S
C4426 C4428 1.389 . S
C4427 H4406 0.950 . S
C4427 C4426 1.373 . S
C4427 C4443 1.377 . S
C4428 C4426 1.389 . S
C4428 C4429 1.524 1_554 S
C4428 C4442 1.377 . S
C4429 C4428 1.524 1_556 S
C4429 C4430 1.397 . S
C4429 C4434 1.363 . S
C4430 H4407 0.950 . S
C4430 C4429 1.397 . S
C4430 C4431 1.334 . S
C4431 H4408 0.950 . S
C4431 C4430 1.334 . S
C4431 C4432 1.287 . S
C4432 C4431 1.287 . S
C4432 C4433 1.524 . S
C4432 H4451 0.913 . S
C4433 H4409 0.950 . S
C4433 C4432 1.524 . S
C4433 C4434 1.415 . S
C4434 H4410 0.950 . S
C4434 C4429 1.363 . S
C4434 C4433 1.415 . S
C4435 H4411 0.951 . S
C4435 C4436 1.366 . S
C4435 C4437 1.388 . S
C4436 C4435 1.366 . S
C4436 C4440 1.385 . S
C4437 H4412 0.951 . S
C4437 C4435 1.388 . S
C4437 C4438 1.366 . S
C4438 C4437 1.366 . S
C4438 C4439 1.414 . S
C4438 C4441 1.499 . S
C4439 H4413 0.950 . S
C4439 C4438 1.414 . S
C4439 C4440 1.374 . S
C4440 H4414 0.950 . S
C4440 C4436 1.385 . S
C4440 C4439 1.374 . S
C4441 C4438 1.499 . S
C4441 C4442 1.373 . S
C4441 C4443 1.389 . S
C4442 H4415 0.950 . S
C4442 C4428 1.377 . S
C4442 C4441 1.373 . S
C4443 C4427 1.377 . S
C4443 C4441 1.389 . S
C4443 C4444 1.524 . S
C4444 C4443 1.524 . S
C4444 C4445 1.397 . S
C4444 C4449 1.363 . S
C4445 H4416 0.950 . S
C4445 C4444 1.397 . S
C4445 C4446 1.334 . S
C4446 H4417 0.950 . S
C4446 C4445 1.334 . S
C4446 C4447 1.287 . S
C4447 C4446 1.287 . S
C4447 C4448 1.524 . S
C4447 H4450 0.999 . S
C4448 H4418 0.950 . S
C4448 C4447 1.524 . S
C4448 C4449 1.415 . S
C4449 H4419 0.950 . S
C4449 C4444 1.363 . S
C4449 C4448 1.415 . S
H4450 C4447 0.999 . S
H4451 C4432 0.913 . S
H4452 C4470 0.951 . S
H4453 C4472 0.951 . S
H4454 C4474 0.950 . S
H4455 C4475 0.950 . S
H4456 C4477 0.950 . S
H4457 C4480 0.950 . S
H4458 C4481 0.950 . S
H4459 C4483 0.950 . S
H4460 C4484 0.950 . S
H4461 C4485 0.951 . S
H4462 C4487 0.951 . S
H4463 C4489 0.950 . S
H4464 C4490 0.950 . S
H4465 C4492 0.950 . S
H4466 C4495 0.950 . S
H4467 C4496 0.950 . S
H4468 C4498 0.950 . S
H4469 C4499 0.950 . S
C4470 H4452 0.951 . S
C4470 C4471 1.366 . S
C4470 C4472 1.388 . S
C4471 C4470 1.366 . S
C4471 C4475 1.385 . S
C4472 H4453 0.951 . S
C4472 C4470 1.388 . S
C4472 C4473 1.366 . S
C4473 C4472 1.366 . S
C4473 C4474 1.414 . S
C4473 C4476 1.499 . S
C4474 H4454 0.950 . S
C4474 C4473 1.414 . S
C4474 C4475 1.374 . S
C4475 H4455 0.950 . S
C4475 C4471 1.385 . S
C4475 C4474 1.374 . S
C4476 C4473 1.499 . S
C4476 C4477 1.373 . S
C4476 C4478 1.389 . S
C4477 H4456 0.950 . S
C4477 C4476 1.373 . S
C4477 C4493 1.377 . S
C4478 C4476 1.389 . S
C4478 C4479 1.524 . S
C4478 C4492 1.377 . S
C4479 C4478 1.524 . S
C4479 C4480 1.397 . S
C4479 C4484 1.363 . S
C4480 H4457 0.950 . S
C4480 C4479 1.397 . S
C4480 C4481 1.334 . S
C4481 H4458 0.950 . S
C4481 C4480 1.334 . S
C4481 C4482 1.287 . S
C4482 C4481 1.287 . S
C4482 C4483 1.524 . S
C4482 H4501 0.913 . S
C4483 H4459 0.950 . S
C4483 C4482 1.524 . S
C4483 C4484 1.415 . S
C4484 H4460 0.950 . S
C4484 C4479 1.363 . S
C4484 C4483 1.415 . S
C4485 H4461 0.951 . S
C4485 C4486 1.366 . S
C4485 C4487 1.388 . S
C4486 C4485 1.366 . S
C4486 C4490 1.385 . S
C4487 H4462 0.951 . S
C4487 C4485 1.388 . S
C4487 C4488 1.366 . S
C4488 C4487 1.366 . S
C4488 C4489 1.414 . S
C4488 C4491 1.499 . S
C4489 H4463 0.950 . S
C4489 C4488 1.414 . S
C4489 C4490 1.374 . S
C4490 H4464 0.950 . S
C4490 C4486 1.385 . S
C4490 C4489 1.374 . S
C4491 C4488 1.499 . S
C4491 C4492 1.373 . S
C4491 C4493 1.389 . S
C4492 H4465 0.950 . S
C4492 C4478 1.377 . S
C4492 C4491 1.373 . S
C4493 C4477 1.377 . S
C4493 C4491 1.389 . S
C4493 C4494 1.524 . S
C4494 C4493 1.524 . S
C4494 C4495 1.397 . S
C4494 C4499 1.363 . S
C4495 H4466 0.950 . S
C4495 C4494 1.397 . S
C4495 C4496 1.334 . S
C4496 H4467 0.950 . S
C4496 C4495 1.334 . S
C4496 C4497 1.287 . S
C4497 C4496 1.287 . S
C4497 C4498 1.524 . S
C4497 H4500 0.999 . S
C4498 H4468 0.950 . S
C4498 C4497 1.524 . S
C4498 C4499 1.415 . S
C4499 H4469 0.950 . S
C4499 C4494 1.363 . S
C4499 C4498 1.415 . S
H4500 C4497 0.999 . S
H4501 C4482 0.913 . S
H4502 C4520 0.951 . S
H4503 C4522 0.951 . S
H4504 C4524 0.950 . S
H4505 C4525 0.950 . S
H4506 C4527 0.950 . S
H4507 C4530 0.950 . S
H4508 C4531 0.950 . S
H4509 C4533 0.950 . S
H4510 C4534 0.950 . S
H4511 C4535 0.951 . S
H4512 C4537 0.951 . S
H4513 C4539 0.950 . S
H4514 C4540 0.950 . S
H4515 C4542 0.950 . S
H4516 C4545 0.950 . S
H4517 C4546 0.950 . S
H4518 C4548 0.950 . S
H4519 C4549 0.950 . S
C4520 H4502 0.951 . S
C4520 C4521 1.366 . S
C4520 C4522 1.388 . S
C4521 C4520 1.366 . S
C4521 C4525 1.385 . S
C4522 H4503 0.951 . S
C4522 C4520 1.388 . S
C4522 C4523 1.366 . S
C4523 C4522 1.366 . S
C4523 C4524 1.414 . S
C4523 C4526 1.499 . S
C4524 H4504 0.950 . S
C4524 C4523 1.414 . S
C4524 C4525 1.374 . S
C4525 H4505 0.950 . S
C4525 C4521 1.385 . S
C4525 C4524 1.374 . S
C4526 C4523 1.499 . S
C4526 C4527 1.373 . S
C4526 C4528 1.389 . S
C4527 H4506 0.950 . S
C4527 C4526 1.373 . S
C4527 C4543 1.377 . S
C4528 C4526 1.389 . S
C4528 C4529 1.524 . S
C4528 C4542 1.377 . S
C4529 C4528 1.524 . S
C4529 C4530 1.397 . S
C4529 C4534 1.363 . S
C4530 H4507 0.950 . S
C4530 C4529 1.397 . S
C4530 C4531 1.334 . S
C4531 H4508 0.950 . S
C4531 C4530 1.334 . S
C4531 C4532 1.287 . S
C4532 C4531 1.287 . S
C4532 C4533 1.524 . S
C4532 H4551 0.913 . S
C4533 H4509 0.950 . S
C4533 C4532 1.524 . S
C4533 C4534 1.415 . S
C4534 H4510 0.950 . S
C4534 C4529 1.363 . S
C4534 C4533 1.415 . S
C4535 H4511 0.951 . S
C4535 C4536 1.366 . S
C4535 C4537 1.388 . S
C4536 C4535 1.366 . S
C4536 C4540 1.385 . S
C4537 H4512 0.951 . S
C4537 C4535 1.388 . S
C4537 C4538 1.366 . S
C4538 C4537 1.366 . S
C4538 C4539 1.414 . S
C4538 C4541 1.499 . S
C4539 H4513 0.950 . S
C4539 C4538 1.414 . S
C4539 C4540 1.374 . S
C4540 H4514 0.950 . S
C4540 C4536 1.385 . S
C4540 C4539 1.374 . S
C4541 C4538 1.499 . S
C4541 C4542 1.373 . S
C4541 C4543 1.389 . S
C4542 H4515 0.950 . S
C4542 C4528 1.377 . S
C4542 C4541 1.373 . S
C4543 C4527 1.377 . S
C4543 C4541 1.389 . S
C4543 C4544 1.524 . S
C4544 C4543 1.524 . S
C4544 C4545 1.397 . S
C4544 C4549 1.363 . S
C4545 H4516 0.950 . S
C4545 C4544 1.397 . S
C4545 C4546 1.334 . S
C4546 H4517 0.950 . S
C4546 C4545 1.334 . S
C4546 C4547 1.287 . S
C4547 C4546 1.287 . S
C4547 C4548 1.524 . S
C4547 H4550 0.999 . S
C4548 H4518 0.950 . S
C4548 C4547 1.524 . S
C4548 C4549 1.415 . S
C4549 H4519 0.950 . S
C4549 C4544 1.363 . S
C4549 C4548 1.415 . S
H4550 C4547 0.999 . S
H4551 C4532 0.913 . S
H4552 C4570 0.951 . S
H4553 C4572 0.951 . S
H4554 C4574 0.950 . S
H4555 C4575 0.950 . S
H4556 C4577 0.950 . S
H4557 C4580 0.950 . S
H4558 C4581 0.950 . S
H4559 C4583 0.950 . S
H4560 C4584 0.950 . S
H4561 C4585 0.951 . S
H4562 C4587 0.951 . S
H4563 C4589 0.950 . S
H4564 C4590 0.950 . S
H4565 C4592 0.950 . S
H4566 C4595 0.950 . S
H4567 C4596 0.950 . S
H4568 C4598 0.950 . S
H4569 C4599 0.950 . S
C4570 H4552 0.951 . S
C4570 C4571 1.366 . S
C4570 C4572 1.388 . S
C4571 C4570 1.366 . S
C4571 C4575 1.385 . S
C4572 H4553 0.951 . S
C4572 C4570 1.388 . S
C4572 C4573 1.366 . S
C4573 C4572 1.366 . S
C4573 C4574 1.414 . S
C4573 C4576 1.499 . S
C4574 H4554 0.950 . S
C4574 C4573 1.414 . S
C4574 C4575 1.374 . S
C4575 H4555 0.950 . S
C4575 C4571 1.385 . S
C4575 C4574 1.374 . S
C4576 C4573 1.499 . S
C4576 C4577 1.373 . S
C4576 C4578 1.389 . S
C4577 H4556 0.950 . S
C4577 C4576 1.373 . S
C4577 C4593 1.377 . S
C4578 C4576 1.389 . S
C4578 C4579 1.524 . S
C4578 C4592 1.377 . S
C4579 C4578 1.524 . S
C4579 C4580 1.397 . S
C4579 C4584 1.363 . S
C4580 H4557 0.950 . S
C4580 C4579 1.397 . S
C4580 C4581 1.334 . S
C4581 H4558 0.950 . S
C4581 C4580 1.334 . S
C4581 C4582 1.287 . S
C4582 C4581 1.287 . S
C4582 C4583 1.524 . S
C4582 H4601 0.913 . S
C4583 H4559 0.950 . S
C4583 C4582 1.524 . S
C4583 C4584 1.415 . S
C4584 H4560 0.950 . S
C4584 C4579 1.363 . S
C4584 C4583 1.415 . S
C4585 H4561 0.951 . S
C4585 C4586 1.366 . S
C4585 C4587 1.388 . S
C4586 C4585 1.366 . S
C4586 C4590 1.385 . S
C4587 H4562 0.951 . S
C4587 C4585 1.388 . S
C4587 C4588 1.366 . S
C4588 C4587 1.366 . S
C4588 C4589 1.414 . S
C4588 C4591 1.499 . S
C4589 H4563 0.950 . S
C4589 C4588 1.414 . S
C4589 C4590 1.374 . S
C4590 H4564 0.950 . S
C4590 C4586 1.385 . S
C4590 C4589 1.374 . S
C4591 C4588 1.499 . S
C4591 C4592 1.373 . S
C4591 C4593 1.389 . S
C4592 H4565 0.950 . S
C4592 C4578 1.377 . S
C4592 C4591 1.373 . S
C4593 C4577 1.377 . S
C4593 C4591 1.389 . S
C4593 C4594 1.524 . S
C4594 C4593 1.524 . S
C4594 C4595 1.397 . S
C4594 C4599 1.363 . S
C4595 H4566 0.950 . S
C4595 C4594 1.397 . S
C4595 C4596 1.334 . S
C4596 H4567 0.950 . S
C4596 C4595 1.334 . S
C4596 C4597 1.287 . S
C4597 C4596 1.287 . S
C4597 C4598 1.524 . S
C4597 H4600 0.999 . S
C4598 H4568 0.950 . S
C4598 C4597 1.524 . S
C4598 C4599 1.415 . S
C4599 H4569 0.950 . S
C4599 C4594 1.363 . S
C4599 C4598 1.415 . S
H4600 C4597 0.999 . S
H4601 C4582 0.913 . S
H4602 C4620 0.951 . S
H4603 C4622 0.951 . S
H4604 C4624 0.950 . S
H4605 C4625 0.950 . S
H4606 C4627 0.950 . S
H4607 C4630 0.950 . S
H4608 C4631 0.950 . S
H4609 C4633 0.950 . S
H4610 C4634 0.950 . S
H4611 C4635 0.951 . S
H4612 C4637 0.951 . S
H4613 C4639 0.950 . S
H4614 C4640 0.950 . S
H4615 C4642 0.950 . S
H4616 C4645 0.950 . S
H4617 C4646 0.950 . S
H4618 C4648 0.950 . S
H4619 C4649 0.950 . S
C4620 H4602 0.951 . S
C4620 C4621 1.366 . S
C4620 C4622 1.388 . S
C4621 C4620 1.366 . S
C4621 C4625 1.385 . S
C4622 H4603 0.951 . S
C4622 C4620 1.388 . S
C4622 C4623 1.366 . S
C4623 C4622 1.366 . S
C4623 C4624 1.414 . S
C4623 C4626 1.499 . S
C4624 H4604 0.950 . S
C4624 C4623 1.414 . S
C4624 C4625 1.374 . S
C4625 H4605 0.950 . S
C4625 C4621 1.385 . S
C4625 C4624 1.374 . S
C4626 C4623 1.499 . S
C4626 C4627 1.373 . S
C4626 C4628 1.389 . S
C4627 H4606 0.950 . S
C4627 C4626 1.373 . S
C4627 C4643 1.377 . S
C4628 C4626 1.389 . S
C4628 C4629 1.524 . S
C4628 C4642 1.377 . S
C4629 C4628 1.524 . S
C4629 C4630 1.397 . S
C4629 C4634 1.363 . S
C4630 H4607 0.950 . S
C4630 C4629 1.397 . S
C4630 C4631 1.334 . S
C4631 H4608 0.950 . S
C4631 C4630 1.334 . S
C4631 C4632 1.287 . S
C4632 C4631 1.287 . S
C4632 C4633 1.524 . S
C4632 H4651 0.913 . S
C4633 H4609 0.950 . S
C4633 C4632 1.524 . S
C4633 C4634 1.415 . S
C4634 H4610 0.950 . S
C4634 C4629 1.363 . S
C4634 C4633 1.415 . S
C4635 H4611 0.951 . S
C4635 C4636 1.366 . S
C4635 C4637 1.388 . S
C4636 C4635 1.366 . S
C4636 C4640 1.385 . S
C4637 H4612 0.951 . S
C4637 C4635 1.388 . S
C4637 C4638 1.366 . S
C4638 C4637 1.366 . S
C4638 C4639 1.414 . S
C4638 C4641 1.499 . S
C4639 H4613 0.950 . S
C4639 C4638 1.414 . S
C4639 C4640 1.374 . S
C4640 H4614 0.950 . S
C4640 C4636 1.385 . S
C4640 C4639 1.374 . S
C4641 C4638 1.499 . S
C4641 C4642 1.373 . S
C4641 C4643 1.389 . S
C4642 H4615 0.950 . S
C4642 C4628 1.377 . S
C4642 C4641 1.373 . S
C4643 C4627 1.377 . S
C4643 C4641 1.389 . S
C4643 C4644 1.524 . S
C4644 C4643 1.524 . S
C4644 C4645 1.397 . S
C4644 C4649 1.363 . S
C4645 H4616 0.950 . S
C4645 C4644 1.397 . S
C4645 C4646 1.334 . S
C4646 H4617 0.950 . S
C4646 C4645 1.334 . S
C4646 C4647 1.287 . S
C4647 C4646 1.287 . S
C4647 C4648 1.524 . S
C4647 H4650 0.999 . S
C4648 H4618 0.950 . S
C4648 C4647 1.524 . S
C4648 C4649 1.415 . S
C4649 H4619 0.950 . S
C4649 C4644 1.363 . S
C4649 C4648 1.415 . S
H4650 C4647 0.999 . S
H4651 C4632 0.913 . S
H4652 C4670 0.951 . S
H4653 C4672 0.951 . S
H4654 C4674 0.950 . S
H4655 C4675 0.950 . S
H4656 C4677 0.950 . S
H4657 C4680 0.950 . S
H4658 C4681 0.950 . S
H4659 C4683 0.950 . S
H4660 C4684 0.950 . S
H4661 C4685 0.951 . S
H4662 C4687 0.951 . S
H4663 C4689 0.950 . S
H4664 C4690 0.950 1_556 S
H4665 C4692 0.950 . S
H4666 C4695 0.950 . S
H4667 C4696 0.950 . S
H4668 C4698 0.950 . S
H4669 C4699 0.950 . S
C4670 H4652 0.951 . S
C4670 C4671 1.366 . S
C4670 C4672 1.388 . S
C4671 C4670 1.366 . S
C4671 C4675 1.385 . S
C4672 H4653 0.951 . S
C4672 C4670 1.388 . S
C4672 C4673 1.366 . S
C4673 C4672 1.366 . S
C4673 C4674 1.414 . S
C4673 C4676 1.499 . S
C4674 H4654 0.950 . S
C4674 C4673 1.414 . S
C4674 C4675 1.374 . S
C4675 H4655 0.950 . S
C4675 C4671 1.385 . S
C4675 C4674 1.374 . S
C4676 C4673 1.499 . S
C4676 C4677 1.373 . S
C4676 C4678 1.389 . S
C4677 H4656 0.950 . S
C4677 C4676 1.373 . S
C4677 C4693 1.377 . S
C4678 C4676 1.389 . S
C4678 C4679 1.524 . S
C4678 C4692 1.377 . S
C4679 C4678 1.524 . S
C4679 C4680 1.397 . S
C4679 C4684 1.363 . S
C4680 H4657 0.950 . S
C4680 C4679 1.397 . S
C4680 C4681 1.334 1_455 S
C4681 H4658 0.950 . S
C4681 C4680 1.334 1_655 S
C4681 C4682 1.287 . S
C4682 C4681 1.287 . S
C4682 C4683 1.524 . S
C4682 H4701 0.913 . S
C4683 H4659 0.950 . S
C4683 C4682 1.524 . S
C4683 C4684 1.415 1_655 S
C4684 H4660 0.950 . S
C4684 C4679 1.363 . S
C4684 C4683 1.415 1_455 S
C4685 H4661 0.951 . S
C4685 C4686 1.366 . S
C4685 C4687 1.388 . S
C4686 C4685 1.366 . S
C4686 C4690 1.385 . S
C4687 H4662 0.951 . S
C4687 C4685 1.388 . S
C4687 C4688 1.366 . S
C4688 C4687 1.366 . S
C4688 C4689 1.414 . S
C4688 C4691 1.499 . S
C4689 H4663 0.950 . S
C4689 C4688 1.414 . S
C4689 C4690 1.374 . S
C4690 H4664 0.950 1_554 S
C4690 C4686 1.385 . S
C4690 C4689 1.374 . S
C4691 C4688 1.499 . S
C4691 C4692 1.373 . S
C4691 C4693 1.389 . S
C4692 H4665 0.950 . S
C4692 C4678 1.377 . S
C4692 C4691 1.373 . S
C4693 C4677 1.377 . S
C4693 C4691 1.389 . S
C4693 C4694 1.524 . S
C4694 C4693 1.524 . S
C4694 C4695 1.397 . S
C4694 C4699 1.363 . S
C4695 H4666 0.950 . S
C4695 C4694 1.397 . S
C4695 C4696 1.334 . S
C4696 H4667 0.950 . S
C4696 C4695 1.334 . S
C4696 C4697 1.287 . S
C4697 C4696 1.287 . S
C4697 C4698 1.524 . S
C4697 H4700 0.999 . S
C4698 H4668 0.950 . S
C4698 C4697 1.524 . S
C4698 C4699 1.415 . S
C4699 H4669 0.950 . S
C4699 C4694 1.363 . S
C4699 C4698 1.415 . S
H4700 C4697 0.999 . S
H4701 C4682 0.913 . S
H4702 C4720 0.951 . S
H4703 C4722 0.951 . S
H4704 C4724 0.950 . S
H4705 C4725 0.950 . S
H4706 C4727 0.950 . S
H4707 C4730 0.950 . S
H4708 C4731 0.950 . S
H4709 C4733 0.950 . S
H4710 C4734 0.950 . S
H4711 C4735 0.951 . S
H4712 C4737 0.951 . S
H4713 C4739 0.950 . S
H4714 C4740 0.950 . S
H4715 C4742 0.950 . S
H4716 C4745 0.950 . S
H4717 C4746 0.950 . S
H4718 C4748 0.950 . S
H4719 C4749 0.950 . S
C4720 H4702 0.951 . S
C4720 C4721 1.366 . S
C4720 C4722 1.388 . S
C4721 C4720 1.366 . S
C4721 C4725 1.385 . S
C4722 H4703 0.951 . S
C4722 C4720 1.388 . S
C4722 C4723 1.366 . S
C4723 C4722 1.366 . S
C4723 C4724 1.414 . S
C4723 C4726 1.499 . S
C4724 H4704 0.950 . S
C4724 C4723 1.414 . S
C4724 C4725 1.374 . S
C4725 H4705 0.950 . S
C4725 C4721 1.385 . S
C4725 C4724 1.374 . S
C4726 C4723 1.499 . S
C4726 C4727 1.373 . S
C4726 C4728 1.389 . S
C4727 H4706 0.950 . S
C4727 C4726 1.373 . S
C4727 C4743 1.377 . S
C4728 C4726 1.389 . S
C4728 C4729 1.524 . S
C4728 C4742 1.377 . S
C4729 C4728 1.524 . S
C4729 C4730 1.397 . S
C4729 C4734 1.363 . S
C4730 H4707 0.950 . S
C4730 C4729 1.397 . S
C4730 C4731 1.334 . S
C4731 H4708 0.950 . S
C4731 C4730 1.334 . S
C4731 C4732 1.287 . S
C4732 C4731 1.287 . S
C4732 C4733 1.524 . S
C4732 H4751 0.913 . S
C4733 H4709 0.950 . S
C4733 C4732 1.524 . S
C4733 C4734 1.415 . S
C4734 H4710 0.950 . S
C4734 C4729 1.363 . S
C4734 C4733 1.415 . S
C4735 H4711 0.951 . S
C4735 C4736 1.366 . S
C4735 C4737 1.388 . S
C4736 C4735 1.366 . S
C4736 C4740 1.385 . S
C4737 H4712 0.951 . S
C4737 C4735 1.388 . S
C4737 C4738 1.366 . S
C4738 C4737 1.366 . S
C4738 C4739 1.414 . S
C4738 C4741 1.499 . S
C4739 H4713 0.950 . S
C4739 C4738 1.414 . S
C4739 C4740 1.374 . S
C4740 H4714 0.950 . S
C4740 C4736 1.385 . S
C4740 C4739 1.374 . S
C4741 C4738 1.499 . S
C4741 C4742 1.373 . S
C4741 C4743 1.389 . S
C4742 H4715 0.950 . S
C4742 C4728 1.377 . S
C4742 C4741 1.373 . S
C4743 C4727 1.377 . S
C4743 C4741 1.389 . S
C4743 C4744 1.524 . S
C4744 C4743 1.524 . S
C4744 C4745 1.397 . S
C4744 C4749 1.363 . S
C4745 H4716 0.950 . S
C4745 C4744 1.397 . S
C4745 C4746 1.334 . S
C4746 H4717 0.950 . S
C4746 C4745 1.334 . S
C4746 C4747 1.287 . S
C4747 C4746 1.287 . S
C4747 C4748 1.524 . S
C4747 H4750 0.999 . S
C4748 H4718 0.950 . S
C4748 C4747 1.524 . S
C4748 C4749 1.415 . S
C4749 H4719 0.950 . S
C4749 C4744 1.363 . S
C4749 C4748 1.415 . S
H4750 C4747 0.999 . S
H4751 C4732 0.913 . S
H4752 C4770 0.951 . S
H4753 C4772 0.951 . S
H4754 C4774 0.950 . S
H4755 C4775 0.950 . S
H4756 C4777 0.950 . S
H4757 C4780 0.950 . S
H4758 C4781 0.950 . S
H4759 C4783 0.950 . S
H4760 C4784 0.950 . S
H4761 C4785 0.951 . S
H4762 C4787 0.951 . S
H4763 C4789 0.950 . S
H4764 C4790 0.950 . S
H4765 C4792 0.950 . S
H4766 C4795 0.950 . S
H4767 C4796 0.987 . S
H4768 C4798 0.950 . S
H4769 C4799 0.950 . S
C4770 H4752 0.951 . S
C4770 C4771 1.366 . S
C4770 C4772 1.388 . S
C4771 C4770 1.366 . S
C4771 C4775 1.385 . S
C4772 H4753 0.951 . S
C4772 C4770 1.388 . S
C4772 C4773 1.366 . S
C4773 C4772 1.366 . S
C4773 C4774 1.414 . S
C4773 C4776 1.499 . S
C4774 H4754 0.950 . S
C4774 C4773 1.414 . S
C4774 C4775 1.374 . S
C4775 H4755 0.950 . S
C4775 C4771 1.385 . S
C4775 C4774 1.374 . S
C4776 C4773 1.499 . S
C4776 C4777 1.373 . S
C4776 C4778 1.389 . S
C4777 H4756 0.950 . S
C4777 C4776 1.373 . S
C4777 C4793 1.377 . S
C4778 C4776 1.389 . S
C4778 C4779 1.524 . S
C4778 C4792 1.377 . S
C4779 C4778 1.524 . S
C4779 C4780 1.397 . S
C4779 C4784 1.363 . S
C4780 H4757 0.950 . S
C4780 C4779 1.397 . S
C4780 C4781 1.334 . S
C4781 H4758 0.950 . S
C4781 C4780 1.334 . S
C4781 C4782 1.287 . S
C4782 C4781 1.287 . S
C4782 C4783 1.524 . S
C4782 H4801 0.913 . S
C4783 H4759 0.950 . S
C4783 C4782 1.524 . S
C4783 C4784 1.415 . S
C4784 H4760 0.950 . S
C4784 C4779 1.363 . S
C4784 C4783 1.415 . S
C4785 H4761 0.951 . S
C4785 C4786 1.366 . S
C4785 C4787 1.388 . S
C4786 C4785 1.366 . S
C4786 C4790 1.385 . S
C4787 H4762 0.951 . S
C4787 C4785 1.388 . S
C4787 C4788 1.366 . S
C4788 C4787 1.366 . S
C4788 C4789 1.414 . S
C4788 C4791 1.499 . S
C4789 H4763 0.950 . S
C4789 C4788 1.414 . S
C4789 C4790 1.374 . S
C4790 H4764 0.950 . S
C4790 C4786 1.385 . S
C4790 C4789 1.374 . S
C4791 C4788 1.499 . S
C4791 C4792 1.373 . S
C4791 C4793 1.389 . S
C4792 H4765 0.950 . S
C4792 C4778 1.377 . S
C4792 C4791 1.373 . S
C4793 C4777 1.377 . S
C4793 C4791 1.389 . S
C4793 C4794 1.524 . S
C4794 C4793 1.524 . S
C4794 C4795 1.397 . S
C4794 C4799 1.363 . S
C4795 H4766 0.950 . S
C4795 C4794 1.397 . S
C4795 C4796 1.296 1_556 S
C4796 H4767 0.987 . S
C4796 C4795 1.296 1_554 S
C4796 C4797 1.287 . S
C4797 C4796 1.287 . S
C4797 C4798 1.483 1_554 S
C4797 H4800 1.045 . S
C4798 H4768 0.950 . S
C4798 C4797 1.483 1_556 S
C4798 C4799 1.415 . S
C4799 H4769 0.950 . S
C4799 C4794 1.363 . S
C4799 C4798 1.415 . S
H4800 C4797 1.045 . S
H4801 C4782 0.913 . S
H4802 C4820 0.951 . S
H4803 C4822 0.951 . S
H4804 C4824 0.950 . S
H4805 C4825 0.950 . S
H4806 C4827 0.950 . S
H4807 C4830 0.950 . S
H4808 C4831 0.950 . S
H4809 C4833 0.950 . S
H4810 C4834 0.950 . S
H4811 C4835 0.951 . S
H4812 C4837 0.951 . S
H4813 C4839 0.950 . S
H4814 C4840 0.950 . S
H4815 C4842 0.950 . S
H4816 C4845 0.950 . S
H4817 C4846 0.950 . S
H4818 C4848 0.950 . S
H4819 C4849 0.950 . S
C4820 H4802 0.951 . S
C4820 C4821 1.366 . S
C4820 C4822 1.388 . S
C4821 C4820 1.366 . S
C4821 C4825 1.385 . S
C4822 H4803 0.951 . S
C4822 C4820 1.388 . S
C4822 C4823 1.366 . S
C4823 C4822 1.366 . S
C4823 C4824 1.414 . S
C4823 C4826 1.499 . S
C4824 H4804 0.950 . S
C4824 C4823 1.414 . S
C4824 C4825 1.374 . S
C4825 H4805 0.950 . S
C4825 C4821 1.385 . S
C4825 C4824 1.374 . S
C4826 C4823 1.499 . S
C4826 C4827 1.373 . S
C4826 C4828 1.389 . S
C4827 H4806 0.950 . S
C4827 C4826 1.373 . S
C4827 C4843 1.377 . S
C4828 C4826 1.389 . S
C4828 C4829 1.524 . S
C4828 C4842 1.377 . S
C4829 C4828 1.524 . S
C4829 C4830 1.397 . S
C4829 C4834 1.363 . S
C4830 H4807 0.950 . S
C4830 C4829 1.397 . S
C4830 C4831 1.334 . S
C4831 H4808 0.950 . S
C4831 C4830 1.334 . S
C4831 C4832 1.287 . S
C4832 C4831 1.287 . S
C4832 C4833 1.524 . S
C4832 H4851 0.913 . S
C4833 H4809 0.950 . S
C4833 C4832 1.524 . S
C4833 C4834 1.415 . S
C4834 H4810 0.950 . S
C4834 C4829 1.363 . S
C4834 C4833 1.415 . S
C4835 H4811 0.951 . S
C4835 C4836 1.366 . S
C4835 C4837 1.388 . S
C4836 C4835 1.366 . S
C4836 C4840 1.385 . S
C4837 H4812 0.951 . S
C4837 C4835 1.388 . S
C4837 C4838 1.366 . S
C4838 C4837 1.366 . S
C4838 C4839 1.414 . S
C4838 C4841 1.499 . S
C4839 H4813 0.950 . S
C4839 C4838 1.414 . S
C4839 C4840 1.374 . S
C4840 H4814 0.950 . S
C4840 C4836 1.385 . S
C4840 C4839 1.374 . S
C4841 C4838 1.499 . S
C4841 C4842 1.373 . S
C4841 C4843 1.389 . S
C4842 H4815 0.950 . S
C4842 C4828 1.377 . S
C4842 C4841 1.373 . S
C4843 C4827 1.377 . S
C4843 C4841 1.389 . S
C4843 C4844 1.524 . S
C4844 C4843 1.524 . S
C4844 C4845 1.397 . S
C4844 C4849 1.363 . S
C4845 H4816 0.950 . S
C4845 C4844 1.397 . S
C4845 C4846 1.334 . S
C4846 H4817 0.950 . S
C4846 C4845 1.334 . S
C4846 C4847 1.287 . S
C4847 C4846 1.287 . S
C4847 C4848 1.524 . S
C4847 H4850 0.999 . S
C4848 H4818 0.950 . S
C4848 C4847 1.524 . S
C4848 C4849 1.415 . S
C4849 H4819 0.950 . S
C4849 C4844 1.363 . S
C4849 C4848 1.415 . S
H4850 C4847 0.999 . S
H4851 C4832 0.913 . S
H4852 C4870 0.951 . S
H4853 C4872 0.951 . S
H4854 C4874 0.950 . S
H4855 C4875 0.950 . S
H4856 C4877 0.950 . S
H4857 C4880 0.950 . S
H4858 C4881 0.950 . S
H4859 C4883 0.950 . S
H4860 C4884 0.950 . S
H4861 C4885 0.951 . S
H4862 C4887 0.951 . S
H4863 C4889 0.950 . S
H4864 C4890 0.950 . S
H4865 C4892 0.950 . S
H4866 C4895 0.950 . S
H4867 C4896 0.950 . S
H4868 C4898 0.950 . S
H4869 C4899 0.950 . S
C4870 H4852 0.951 . S
C4870 C4871 1.366 . S
C4870 C4872 1.388 . S
C4871 C4870 1.366 . S
C4871 C4875 1.385 . S
C4872 H4853 0.951 . S
C4872 C4870 1.388 . S
C4872 C4873 1.366 . S
C4873 C4872 1.366 . S
C4873 C4874 1.414 . S
C4873 C4876 1.499 . S
C4874 H4854 0.950 . S
C4874 C4873 1.414 . S
C4874 C4875 1.374 . S
C4875 H4855 0.950 . S
C4875 C4871 1.385 . S
C4875 C4874 1.374 . S
C4876 C4873 1.499 . S
C4876 C4877 1.373 . S
C4876 C4878 1.389 . S
C4877 H4856 0.950 . S
C4877 C4876 1.373 . S
C4877 C4893 1.377 . S
C4878 C4876 1.389 . S
C4878 C4879 1.524 . S
C4878 C4892 1.377 . S
C4879 C4878 1.524 . S
C4879 C4880 1.397 . S
C4879 C4884 1.363 . S
C4880 H4857 0.950 . S
C4880 C4879 1.397 . S
C4880 C4881 1.334 . S
C4881 H4858 0.950 . S
C4881 C4880 1.334 . S
C4881 C4882 1.287 . S
C4882 C4881 1.287 . S
C4882 C4883 1.524 . S
C4882 H4901 0.913 . S
C4883 H4859 0.950 . S
C4883 C4882 1.524 . S
C4883 C4884 1.415 . S
C4884 H4860 0.950 . S
C4884 C4879 1.363 . S
C4884 C4883 1.415 . S
C4885 H4861 0.951 . S
C4885 C4886 1.366 . S
C4885 C4887 1.388 . S
C4886 C4885 1.366 . S
C4886 C4890 1.385 . S
C4887 H4862 0.951 . S
C4887 C4885 1.388 . S
C4887 C4888 1.366 . S
C4888 C4887 1.366 . S
C4888 C4889 1.414 . S
C4888 C4891 1.499 . S
C4889 H4863 0.950 . S
C4889 C4888 1.414 . S
C4889 C4890 1.374 . S
C4890 H4864 0.950 . S
C4890 C4886 1.385 . S
C4890 C4889 1.374 . S
C4891 C4888 1.499 . S
C4891 C4892 1.373 . S
C4891 C4893 1.389 . S
C4892 H4865 0.950 . S
C4892 C4878 1.377 . S
C4892 C4891 1.373 . S
C4893 C4877 1.377 . S
C4893 C4891 1.389 . S
C4893 C4894 1.524 . S
C4894 C4893 1.524 . S
C4894 C4895 1.397 . S
C4894 C4899 1.363 . S
C4895 H4866 0.950 . S
C4895 C4894 1.397 . S
C4895 C4896 1.334 . S
C4896 H4867 0.950 . S
C4896 C4895 1.334 . S
C4896 C4897 1.290 . S
C4897 C4896 1.290 . S
C4897 C4898 1.524 1_455 S
C4897 H4900 0.995 1_455 S
C4898 H4868 0.950 . S
C4898 C4897 1.524 1_655 S
C4898 C4899 1.415 1_655 S
C4899 H4869 0.950 . S
C4899 C4894 1.363 . S
C4899 C4898 1.415 1_455 S
H4900 C4897 0.995 1_655 S
H4901 C4882 0.913 . S
H4902 C4920 0.951 . S
H4903 C4922 0.951 . S
H4904 C4924 0.950 . S
H4905 C4925 0.950 . S
H4906 C4927 0.950 . S
H4907 C4930 0.950 . S
H4908 C4931 0.950 . S
H4909 C4933 0.950 . S
H4910 C4934 0.950 . S
H4911 C4935 0.951 . S
H4912 C4937 0.951 . S
H4913 C4939 0.950 . S
H4914 C4940 0.950 . S
H4915 C4942 0.950 . S
H4916 C4945 0.950 . S
H4917 C4946 0.950 . S
H4918 C4948 0.950 . S
H4919 C4949 0.950 . S
C4920 H4902 0.951 . S
C4920 C4921 1.366 . S
C4920 C4922 1.388 . S
C4921 C4920 1.366 . S
C4921 C4925 1.385 . S
C4922 H4903 0.951 . S
C4922 C4920 1.388 . S
C4922 C4923 1.366 . S
C4923 C4922 1.366 . S
C4923 C4924 1.414 . S
C4923 C4926 1.499 . S
C4924 H4904 0.950 . S
C4924 C4923 1.414 . S
C4924 C4925 1.374 . S
C4925 H4905 0.950 . S
C4925 C4921 1.385 . S
C4925 C4924 1.374 . S
C4926 C4923 1.499 . S
C4926 C4927 1.373 . S
C4926 C4928 1.389 . S
C4927 H4906 0.950 . S
C4927 C4926 1.373 . S
C4927 C4943 1.377 . S
C4928 C4926 1.389 . S
C4928 C4929 1.524 . S
C4928 C4942 1.377 . S
C4929 C4928 1.524 . S
C4929 C4930 1.397 . S
C4929 C4934 1.363 . S
C4930 H4907 0.950 . S
C4930 C4929 1.397 . S
C4930 C4931 1.334 . S
C4931 H4908 0.950 . S
C4931 C4930 1.334 . S
C4931 C4932 1.287 . S
C4932 C4931 1.287 . S
C4932 C4933 1.524 . S
C4932 H4951 0.913 . S
C4933 H4909 0.950 . S
C4933 C4932 1.524 . S
C4933 C4934 1.415 . S
C4934 H4910 0.950 . S
C4934 C4929 1.363 . S
C4934 C4933 1.415 . S
C4935 H4911 0.951 . S
C4935 C4936 1.366 . S
C4935 C4937 1.388 . S
C4936 C4935 1.366 . S
C4936 C4940 1.385 . S
C4937 H4912 0.951 . S
C4937 C4935 1.388 . S
C4937 C4938 1.366 . S
C4938 C4937 1.366 . S
C4938 C4939 1.414 . S
C4938 C4941 1.499 . S
C4939 H4913 0.950 . S
C4939 C4938 1.414 . S
C4939 C4940 1.374 . S
C4940 H4914 0.950 . S
C4940 C4936 1.385 . S
C4940 C4939 1.374 . S
C4941 C4938 1.499 . S
C4941 C4942 1.373 . S
C4941 C4943 1.389 . S
C4942 H4915 0.950 . S
C4942 C4928 1.377 . S
C4942 C4941 1.373 . S
C4943 C4927 1.377 . S
C4943 C4941 1.389 . S
C4943 C4944 1.524 . S
C4944 C4943 1.524 . S
C4944 C4945 1.397 . S
C4944 C4949 1.363 . S
C4945 H4916 0.950 . S
C4945 C4944 1.397 . S
C4945 C4946 1.334 . S
C4946 H4917 0.950 . S
C4946 C4945 1.334 . S
C4946 C4947 1.287 . S
C4947 C4946 1.287 . S
C4947 C4948 1.524 . S
C4947 H4950 0.999 . S
C4948 H4918 0.950 . S
C4948 C4947 1.524 . S
C4948 C4949 1.415 . S
C4949 H4919 0.950 . S
C4949 C4944 1.363 . S
C4949 C4948 1.415 . S
H4950 C4947 0.999 . S
H4951 C4932 0.913 . S
H4952 C4970 0.951 . S
H4953 C4972 0.951 . S
H4954 C4974 0.950 . S
H4955 C4975 0.950 . S
H4956 C4977 0.950 . S
H4957 C4980 0.950 . S
H4958 C4981 0.950 . S
H4959 C4983 0.950 . S
H4960 C4984 0.950 . S
H4961 C4985 0.951 . S
H4962 C4987 0.951 . S
H4963 C4989 0.950 . S
H4964 C4990 0.950 . S
H4965 C4992 0.950 . S
H4966 C4995 0.950 . S
H4967 C4996 0.950 . S
H4968 C4998 0.950 . S
H4969 C4999 0.950 . S
C4970 H4952 0.951 . S
C4970 C4971 1.366 . S
C4970 C4972 1.388 . S
C4971 C4970 1.366 . S
C4971 C4975 1.385 . S
C4972 H4953 0.951 . S
C4972 C4970 1.388 . S
C4972 C4973 1.366 . S
C4973 C4972 1.366 . S
C4973 C4974 1.414 . S
C4973 C4976 1.499 . S
C4974 H4954 0.950 . S
C4974 C4973 1.414 . S
C4974 C4975 1.374 . S
C4975 H4955 0.950 . S
C4975 C4971 1.385 . S
C4975 C4974 1.374 . S
C4976 C4973 1.499 . S
C4976 C4977 1.373 . S
C4976 C4978 1.389 . S
C4977 H4956 0.950 . S
C4977 C4976 1.373 . S
C4977 C4993 1.377 . S
C4978 C4976 1.389 . S
C4978 C4979 1.524 . S
C4978 C4992 1.377 . S
C4979 C4978 1.524 . S
C4979 C4980 1.397 . S
C4979 C4984 1.363 . S
C4980 H4957 0.950 . S
C4980 C4979 1.397 . S
C4980 C4981 1.334 . S
C4981 H4958 0.950 . S
C4981 C4980 1.334 . S
C4981 C4982 1.287 . S
C4982 C4981 1.287 . S
C4982 C4983 1.524 . S
C4982 H5001 0.913 . S
C4983 H4959 0.950 . S
C4983 C4982 1.524 . S
C4983 C4984 1.415 . S
C4984 H4960 0.950 . S
C4984 C4979 1.363 . S
C4984 C4983 1.415 . S
C4985 H4961 0.951 . S
C4985 C4986 1.366 . S
C4985 C4987 1.388 . S
C4986 C4985 1.366 . S
C4986 C4990 1.385 . S
C4987 H4962 0.951 . S
C4987 C4985 1.388 . S
C4987 C4988 1.366 . S
C4988 C4987 1.366 . S
C4988 C4989 1.414 . S
C4988 C4991 1.499 . S
C4989 H4963 0.950 . S
C4989 C4988 1.414 . S
C4989 C4990 1.374 . S
C4990 H4964 0.950 . S
C4990 C4986 1.385 . S
C4990 C4989 1.374 . S
C4991 C4988 1.499 . S
C4991 C4992 1.373 . S
C4991 C4993 1.389 . S
C4992 H4965 0.950 . S
C4992 C4978 1.377 . S
C4992 C4991 1.373 . S
C4993 C4977 1.377 . S
C4993 C4991 1.389 . S
C4993 C4994 1.524 . S
C4994 C4993 1.524 . S
C4994 C4995 1.397 . S
C4994 C4999 1.363 . S
C4995 H4966 0.950 . S
C4995 C4994 1.397 . S
C4995 C4996 1.334 . S
C4996 H4967 0.950 . S
C4996 C4995 1.334 . S
C4996 C4997 1.287 . S
C4997 C4996 1.287 . S
C4997 C4998 1.524 . S
C4997 H5000 0.999 . S
C4998 H4968 0.950 . S
C4998 C4997 1.524 . S
C4998 C4999 1.415 . S
C4999 H4969 0.950 . S
C4999 C4994 1.363 . S
C4999 C4998 1.415 . S
H5000 C4997 0.999 . S
H5001 C4982 0.913 . S
H5002 C5020 0.951 . S
H5003 C5022 0.951 . S
H5004 C5024 0.950 . S
H5005 C5025 0.950 . S
H5006 C5027 0.950 . S
H5007 C5030 0.950 . S
H5008 C5031 0.950 . S
H5009 C5033 0.950 . S
H5010 C5034 0.950 . S
H5011 C5035 0.951 . S
H5012 C5037 0.951 . S
H5013 C5039 0.950 . S
H5014 C5040 0.950 . S
H5015 C5042 0.950 . S
H5016 C5045 0.950 . S
H5017 C5046 0.950 . S
H5018 C5048 0.950 . S
H5019 C5049 0.950 . S
C5020 H5002 0.951 . S
C5020 C5021 1.366 . S
C5020 C5022 1.388 . S
C5021 C5020 1.366 . S
C5021 C5025 1.385 . S
C5022 H5003 0.951 . S
C5022 C5020 1.388 . S
C5022 C5023 1.366 . S
C5023 C5022 1.366 . S
C5023 C5024 1.414 . S
C5023 C5026 1.499 . S
C5024 H5004 0.950 . S
C5024 C5023 1.414 . S
C5024 C5025 1.374 . S
C5025 H5005 0.950 . S
C5025 C5021 1.385 . S
C5025 C5024 1.374 . S
C5026 C5023 1.499 . S
C5026 C5027 1.373 . S
C5026 C5028 1.389 . S
C5027 H5006 0.950 . S
C5027 C5026 1.373 . S
C5027 C5043 1.377 . S
C5028 C5026 1.389 . S
C5028 C5029 1.524 . S
C5028 C5042 1.377 . S
C5029 C5028 1.524 . S
C5029 C5030 1.397 . S
C5029 C5034 1.363 . S
C5030 H5007 0.950 . S
C5030 C5029 1.397 . S
C5030 C5031 1.334 . S
C5031 H5008 0.950 . S
C5031 C5030 1.334 . S
C5031 C5032 1.287 . S
C5032 C5031 1.287 . S
C5032 C5033 1.524 . S
C5032 H5051 0.913 . S
C5033 H5009 0.950 . S
C5033 C5032 1.524 . S
C5033 C5034 1.415 . S
C5034 H5010 0.950 . S
C5034 C5029 1.363 . S
C5034 C5033 1.415 . S
C5035 H5011 0.951 . S
C5035 C5036 1.366 . S
C5035 C5037 1.388 . S
C5036 C5035 1.366 . S
C5036 C5040 1.385 . S
C5037 H5012 0.951 . S
C5037 C5035 1.388 . S
C5037 C5038 1.366 . S
C5038 C5037 1.366 . S
C5038 C5039 1.414 . S
C5038 C5041 1.499 . S
C5039 H5013 0.950 . S
C5039 C5038 1.414 . S
C5039 C5040 1.374 . S
C5040 H5014 0.950 . S
C5040 C5036 1.385 . S
C5040 C5039 1.374 . S
C5041 C5038 1.499 . S
C5041 C5042 1.373 . S
C5041 C5043 1.389 . S
C5042 H5015 0.950 . S
C5042 C5028 1.377 . S
C5042 C5041 1.373 . S
C5043 C5027 1.377 . S
C5043 C5041 1.389 . S
C5043 C5044 1.524 . S
C5044 C5043 1.524 . S
C5044 C5045 1.397 . S
C5044 C5049 1.363 . S
C5045 H5016 0.950 . S
C5045 C5044 1.397 . S
C5045 C5046 1.334 . S
C5046 H5017 0.950 . S
C5046 C5045 1.334 . S
C5046 C5047 1.287 . S
C5047 C5046 1.287 . S
C5047 C5048 1.524 . S
C5047 H5050 0.999 . S
C5048 H5018 0.950 . S
C5048 C5047 1.524 . S
C5048 C5049 1.415 . S
C5049 H5019 0.950 . S
C5049 C5044 1.363 . S
C5049 C5048 1.415 . S
H5050 C5047 0.999 . S
H5051 C5032 0.913 . S
H5052 C5070 0.951 . S
H5053 C5072 0.951 . S
H5054 C5074 0.950 . S
H5055 C5075 0.950 . S
H5056 C5077 0.950 . S
H5057 C5080 0.950 . S
H5058 C5081 0.950 . S
H5059 C5083 0.950 . S
H5060 C5084 0.950 . S
H5061 C5085 0.951 1_655 S
H5062 C5087 0.951 . S
H5063 C5089 0.950 . S
H5064 C5090 0.950 . S
H5065 C5092 0.950 1_455 S
H5066 C5095 0.950 . S
H5067 C5096 0.950 . S
H5068 C5098 0.950 . S
H5069 C5099 0.950 . S
C5070 H5052 0.951 . S
C5070 C5071 1.366 . S
C5070 C5072 1.388 . S
C5071 C5070 1.366 . S
C5071 C5075 1.385 . S
C5072 H5053 0.951 . S
C5072 C5070 1.388 . S
C5072 C5073 1.366 . S
C5073 C5072 1.366 . S
C5073 C5074 1.414 . S
C5073 C5076 1.499 . S
C5074 H5054 0.950 . S
C5074 C5073 1.414 . S
C5074 C5075 1.374 . S
C5075 H5055 0.950 . S
C5075 C5071 1.385 . S
C5075 C5074 1.374 . S
C5076 C5073 1.499 . S
C5076 C5077 1.373 . S
C5076 C5078 1.389 . S
C5077 H5056 0.950 . S
C5077 C5076 1.373 . S
C5077 C5093 1.377 . S
C5078 C5076 1.389 . S
C5078 C5079 1.524 . S
C5078 C5092 1.377 . S
C5079 C5078 1.524 . S
C5079 C5080 1.397 . S
C5079 C5084 1.363 1_655 S
C5080 H5057 0.950 . S
C5080 C5079 1.397 . S
C5080 C5081 1.334 . S
C5081 H5058 0.950 . S
C5081 C5080 1.334 . S
C5081 C5082 1.287 1_655 S
C5082 C5081 1.287 1_455 S
C5082 C5083 1.524 . S
C5082 H5101 0.913 . S
C5083 H5059 0.950 . S
C5083 C5082 1.524 . S
C5083 C5084 1.415 . S
C5084 H5060 0.950 . S
C5084 C5079 1.363 1_455 S
C5084 C5083 1.415 . S
C5085 H5061 0.951 1_455 S
C5085 C5086 1.366 . S
C5085 C5087 1.388 1_455 S
C5086 C5085 1.366 . S
C5086 C5090 1.385 . S
C5087 H5062 0.951 . S
C5087 C5085 1.388 1_655 S
C5087 C5088 1.349 1_655 S
C5088 C5087 1.349 1_455 S
C5088 C5089 1.451 . S
C5088 C5091 1.481 1_455 S
C5089 H5063 0.950 . S
C5089 C5088 1.451 . S
C5089 C5090 1.374 . S
C5090 H5064 0.950 . S
C5090 C5086 1.385 . S
C5090 C5089 1.374 . S
C5091 C5088 1.481 1_655 S
C5091 C5092 1.373 . S
C5091 C5093 1.389 . S
C5092 H5065 0.950 1_655 S
C5092 C5078 1.377 . S
C5092 C5091 1.373 . S
C5093 C5077 1.377 . S
C5093 C5091 1.389 . S
C5093 C5094 1.524 . S
C5094 C5093 1.524 . S
C5094 C5095 1.397 . S
C5094 C5099 1.363 . S
C5095 H5066 0.950 . S
C5095 C5094 1.397 . S
C5095 C5096 1.334 . S
C5096 H5067 0.950 . S
C5096 C5095 1.334 . S
C5096 C5097 1.287 . S
C5097 C5096 1.287 . S
C5097 C5098 1.524 . S
C5097 H5100 0.999 . S
C5098 H5068 0.950 . S
C5098 C5097 1.524 . S
C5098 C5099 1.415 . S
C5099 H5069 0.950 . S
C5099 C5094 1.363 . S
C5099 C5098 1.415 . S
H5100 C5097 0.999 . S
H5101 C5082 0.913 . S
H5102 C5120 0.951 . S
H5103 C5122 0.951 . S
H5104 C5124 0.950 . S
H5105 C5125 0.950 . S
H5106 C5127 0.950 . S
H5107 C5130 0.950 . S
H5108 C5131 0.950 . S
H5109 C5133 0.950 . S
H5110 C5134 0.950 . S
H5111 C5135 0.951 . S
H5112 C5137 0.951 . S
H5113 C5139 0.950 . S
H5114 C5140 0.950 . S
H5115 C5142 0.950 . S
H5116 C5145 0.950 . S
H5117 C5146 0.950 . S
H5118 C5148 0.950 . S
H5119 C5149 0.950 . S
C5120 H5102 0.951 . S
C5120 C5121 1.366 . S
C5120 C5122 1.388 . S
C5121 C5120 1.366 . S
C5121 C5125 1.385 . S
C5122 H5103 0.951 . S
C5122 C5120 1.388 . S
C5122 C5123 1.366 . S
C5123 C5122 1.366 . S
C5123 C5124 1.414 . S
C5123 C5126 1.499 . S
C5124 H5104 0.950 . S
C5124 C5123 1.414 . S
C5124 C5125 1.374 . S
C5125 H5105 0.950 . S
C5125 C5121 1.385 . S
C5125 C5124 1.374 . S
C5126 C5123 1.499 . S
C5126 C5127 1.373 . S
C5126 C5128 1.389 . S
C5127 H5106 0.950 . S
C5127 C5126 1.373 . S
C5127 C5143 1.377 . S
C5128 C5126 1.389 . S
C5128 C5129 1.524 . S
C5128 C5142 1.377 . S
C5129 C5128 1.524 . S
C5129 C5130 1.397 . S
C5129 C5134 1.363 . S
C5130 H5107 0.950 . S
C5130 C5129 1.397 . S
C5130 C5131 1.334 . S
C5131 H5108 0.950 . S
C5131 C5130 1.334 . S
C5131 C5132 1.287 . S
C5132 C5131 1.287 . S
C5132 C5133 1.524 . S
C5132 H5151 0.913 . S
C5133 H5109 0.950 . S
C5133 C5132 1.524 . S
C5133 C5134 1.415 . S
C5134 H5110 0.950 . S
C5134 C5129 1.363 . S
C5134 C5133 1.415 . S
C5135 H5111 0.951 . S
C5135 C5136 1.366 . S
C5135 C5137 1.388 . S
C5136 C5135 1.366 . S
C5136 C5140 1.385 . S
C5137 H5112 0.951 . S
C5137 C5135 1.388 . S
C5137 C5138 1.366 . S
C5138 C5137 1.366 . S
C5138 C5139 1.414 . S
C5138 C5141 1.499 . S
C5139 H5113 0.950 . S
C5139 C5138 1.414 . S
C5139 C5140 1.374 . S
C5140 H5114 0.950 . S
C5140 C5136 1.385 . S
C5140 C5139 1.374 . S
C5141 C5138 1.499 . S
C5141 C5142 1.373 . S
C5141 C5143 1.389 . S
C5142 H5115 0.950 . S
C5142 C5128 1.377 . S
C5142 C5141 1.373 . S
C5143 C5127 1.377 . S
C5143 C5141 1.389 . S
C5143 C5144 1.524 . S
C5144 C5143 1.524 . S
C5144 C5145 1.397 . S
C5144 C5149 1.363 . S
C5145 H5116 0.950 . S
C5145 C5144 1.397 . S
C5145 C5146 1.334 . S
C5146 H5117 0.950 . S
C5146 C5145 1.334 . S
C5146 C5147 1.287 . S
C5147 C5146 1.287 . S
C5147 C5148 1.524 . S
C5147 H5150 0.999 . S
C5148 H5118 0.950 . S
C5148 C5147 1.524 . S
C5148 C5149 1.415 . S
C5149 H5119 0.950 . S
C5149 C5144 1.363 . S
C5149 C5148 1.415 . S
H5150 C5147 0.999 . S
H5151 C5132 0.913 . S
H5152 C5170 0.951 . S
H5153 C5172 0.951 . S
H5154 C5174 0.950 . S
H5155 C5175 0.950 . S
H5156 C5177 0.950 . S
H5157 C5180 0.950 . S
H5158 C5181 0.950 . S
H5159 C5183 0.950 . S
H5160 C5184 0.950 . S
H5161 C5185 0.951 . S
H5162 C5187 0.951 . S
H5163 C5189 0.950 . S
H5164 C5190 0.950 . S
H5165 C5192 0.950 . S
H5166 C5195 0.950 . S
H5167 C5196 0.950 . S
H5168 C5198 0.950 . S
H5169 C5199 0.950 . S
C5170 H5152 0.951 . S
C5170 C5171 1.366 . S
C5170 C5172 1.388 . S
C5171 C5170 1.366 . S
C5171 C5175 1.385 . S
C5172 H5153 0.951 . S
C5172 C5170 1.388 . S
C5172 C5173 1.366 . S
C5173 C5172 1.366 . S
C5173 C5174 1.414 . S
C5173 C5176 1.499 . S
C5174 H5154 0.950 . S
C5174 C5173 1.414 . S
C5174 C5175 1.374 . S
C5175 H5155 0.950 . S
C5175 C5171 1.385 . S
C5175 C5174 1.374 . S
C5176 C5173 1.499 . S
C5176 C5177 1.373 . S
C5176 C5178 1.389 . S
C5177 H5156 0.950 . S
C5177 C5176 1.373 . S
C5177 C5193 1.377 . S
C5178 C5176 1.389 . S
C5178 C5179 1.524 . S
C5178 C5192 1.377 . S
C5179 C5178 1.524 . S
C5179 C5180 1.397 . S
C5179 C5184 1.363 . S
C5180 H5157 0.950 . S
C5180 C5179 1.397 . S
C5180 C5181 1.334 . S
C5181 H5158 0.950 . S
C5181 C5180 1.334 . S
C5181 C5182 1.287 . S
C5182 C5181 1.287 . S
C5182 C5183 1.524 . S
C5182 H5201 0.913 . S
C5183 H5159 0.950 . S
C5183 C5182 1.524 . S
C5183 C5184 1.415 . S
C5184 H5160 0.950 . S
C5184 C5179 1.363 . S
C5184 C5183 1.415 . S
C5185 H5161 0.951 . S
C5185 C5186 1.366 . S
C5185 C5187 1.388 . S
C5186 C5185 1.366 . S
C5186 C5190 1.385 . S
C5187 H5162 0.951 . S
C5187 C5185 1.388 . S
C5187 C5188 1.366 . S
C5188 C5187 1.366 . S
C5188 C5189 1.414 . S
C5188 C5191 1.499 . S
C5189 H5163 0.950 . S
C5189 C5188 1.414 . S
C5189 C5190 1.374 . S
C5190 H5164 0.950 . S
C5190 C5186 1.385 . S
C5190 C5189 1.374 . S
C5191 C5188 1.499 . S
C5191 C5192 1.373 . S
C5191 C5193 1.389 . S
C5192 H5165 0.950 . S
C5192 C5178 1.377 . S
C5192 C5191 1.373 . S
C5193 C5177 1.377 . S
C5193 C5191 1.389 . S
C5193 C5194 1.524 . S
C5194 C5193 1.524 . S
C5194 C5195 1.397 . S
C5194 C5199 1.363 . S
C5195 H5166 0.950 . S
C5195 C5194 1.397 . S
C5195 C5196 1.334 . S
C5196 H5167 0.950 . S
C5196 C5195 1.334 . S
C5196 C5197 1.287 . S
C5197 C5196 1.287 . S
C5197 C5198 1.524 . S
C5197 H5200 0.999 . S
C5198 H5168 0.950 . S
C5198 C5197 1.524 . S
C5198 C5199 1.415 . S
C5199 H5169 0.950 . S
C5199 C5194 1.363 . S
C5199 C5198 1.415 . S
H5200 C5197 0.999 . S
H5201 C5182 0.913 . S
H5202 C5220 0.951 . S
H5203 C5222 0.951 . S
H5204 C5224 0.950 . S
H5205 C5225 0.950 . S
H5206 C5227 0.950 . S
H5207 C5230 0.950 . S
H5208 C5231 0.950 . S
H5209 C5233 0.950 . S
H5210 C5234 0.950 . S
H5211 C5235 0.951 . S
H5212 C5237 0.951 . S
H5213 C5239 0.950 . S
H5214 C5240 0.950 . S
H5215 C5242 0.950 . S
H5216 C5245 0.950 . S
H5217 C5246 0.950 . S
H5218 C5248 0.950 . S
H5219 C5249 0.950 . S
C5220 H5202 0.951 . S
C5220 C5221 1.366 . S
C5220 C5222 1.388 . S
C5221 C5220 1.366 . S
C5221 C5225 1.385 . S
C5222 H5203 0.951 . S
C5222 C5220 1.388 . S
C5222 C5223 1.366 . S
C5223 C5222 1.366 . S
C5223 C5224 1.414 . S
C5223 C5226 1.499 . S
C5224 H5204 0.950 . S
C5224 C5223 1.414 . S
C5224 C5225 1.374 . S
C5225 H5205 0.950 . S
C5225 C5221 1.385 . S
C5225 C5224 1.374 . S
C5226 C5223 1.499 . S
C5226 C5227 1.373 . S
C5226 C5228 1.389 . S
C5227 H5206 0.950 . S
C5227 C5226 1.373 . S
C5227 C5243 1.377 . S
C5228 C5226 1.389 . S
C5228 C5229 1.524 . S
C5228 C5242 1.377 . S
C5229 C5228 1.524 . S
C5229 C5230 1.397 . S
C5229 C5234 1.363 . S
C5230 H5207 0.950 . S
C5230 C5229 1.397 . S
C5230 C5231 1.334 . S
C5231 H5208 0.950 . S
C5231 C5230 1.334 . S
C5231 C5232 1.287 . S
C5232 C5231 1.287 . S
C5232 C5233 1.524 . S
C5232 H5251 0.913 . S
C5233 H5209 0.950 . S
C5233 C5232 1.524 . S
C5233 C5234 1.415 . S
C5234 H5210 0.950 . S
C5234 C5229 1.363 . S
C5234 C5233 1.415 . S
C5235 H5211 0.951 . S
C5235 C5236 1.366 . S
C5235 C5237 1.388 . S
C5236 C5235 1.366 . S
C5236 C5240 1.385 . S
C5237 H5212 0.951 . S
C5237 C5235 1.388 . S
C5237 C5238 1.366 . S
C5238 C5237 1.366 . S
C5238 C5239 1.414 . S
C5238 C5241 1.499 . S
C5239 H5213 0.950 . S
C5239 C5238 1.414 . S
C5239 C5240 1.374 . S
C5240 H5214 0.950 . S
C5240 C5236 1.385 . S
C5240 C5239 1.374 . S
C5241 C5238 1.499 . S
C5241 C5242 1.373 . S
C5241 C5243 1.389 . S
C5242 H5215 0.950 . S
C5242 C5228 1.377 . S
C5242 C5241 1.373 . S
C5243 C5227 1.377 . S
C5243 C5241 1.389 . S
C5243 C5244 1.524 . S
C5244 C5243 1.524 . S
C5244 C5245 1.397 . S
C5244 C5249 1.363 . S
C5245 H5216 0.950 . S
C5245 C5244 1.397 . S
C5245 C5246 1.334 . S
C5246 H5217 0.950 . S
C5246 C5245 1.334 . S
C5246 C5247 1.287 . S
C5247 C5246 1.287 . S
C5247 C5248 1.524 . S
C5247 H5250 0.999 . S
C5248 H5218 0.950 . S
C5248 C5247 1.524 . S
C5248 C5249 1.415 . S
C5249 H5219 0.950 . S
C5249 C5244 1.363 . S
C5249 C5248 1.415 . S
H5250 C5247 0.999 . S
H5251 C5232 0.913 . S
H5252 C5270 0.951 . S
H5253 C5272 0.951 . S
H5254 C5274 0.950 . S
H5255 C5275 0.950 . S
H5256 C5277 0.950 . S
H5257 C5280 0.950 . S
H5258 C5281 0.950 . S
H5259 C5283 0.950 . S
H5260 C5284 0.952 . S
H5261 C5285 0.951 . S
H5262 C5287 0.951 . S
H5263 C5289 0.950 . S
H5264 C5290 0.950 1_455 S
H5265 C5292 0.950 . S
H5266 C5295 0.950 . S
H5267 C5296 0.950 . S
H5268 C5298 0.950 . S
H5269 C5299 0.950 . S
C5270 H5252 0.951 . S
C5270 C5271 1.366 . S
C5270 C5272 1.388 . S
C5271 C5270 1.366 . S
C5271 C5275 1.385 . S
C5272 H5253 0.951 . S
C5272 C5270 1.388 . S
C5272 C5273 1.366 . S
C5273 C5272 1.366 . S
C5273 C5274 1.414 . S
C5273 C5276 1.499 . S
C5274 H5254 0.950 . S
C5274 C5273 1.414 . S
C5274 C5275 1.374 . S
C5275 H5255 0.950 . S
C5275 C5271 1.385 . S
C5275 C5274 1.374 . S
C5276 C5273 1.499 . S
C5276 C5277 1.373 . S
C5276 C5278 1.389 . S
C5277 H5256 0.950 . S
C5277 C5276 1.373 . S
C5277 C5293 1.377 . S
C5278 C5276 1.389 . S
C5278 C5279 1.524 . S
C5278 C5292 1.377 . S
C5279 C5278 1.524 . S
C5279 C5280 1.397 . S
C5279 C5284 1.363 . S
C5280 H5257 0.950 . S
C5280 C5279 1.397 . S
C5280 C5281 1.334 . S
C5281 H5258 0.950 . S
C5281 C5280 1.334 . S
C5281 C5282 1.287 1_655 S
C5282 C5281 1.287 1_455 S
C5282 C5283 1.524 . S
C5282 H5301 0.913 . S
C5283 H5259 0.950 . S
C5283 C5282 1.524 . S
C5283 C5284 1.415 1_455 S
C5284 H5260 0.952 . S
C5284 C5279 1.363 . S
C5284 C5283 1.415 1_655 S
C5285 H5261 0.951 . S
C5285 C5286 1.366 . S
C5285 C5287 1.388 . S
C5286 C5285 1.366 . S
C5286 C5290 1.385 . S
C5287 H5262 0.951 . S
C5287 C5285 1.388 . S
C5287 C5288 1.366 . S
C5288 C5287 1.366 . S
C5288 C5289 1.414 . S
C5288 C5291 1.499 . S
C5289 H5263 0.950 . S
C5289 C5288 1.414 . S
C5289 C5290 1.374 . S
C5290 H5264 0.950 1_655 S
C5290 C5286 1.385 . S
C5290 C5289 1.374 . S
C5291 C5288 1.499 . S
C5291 C5292 1.373 . S
C5291 C5293 1.389 . S
C5292 H5265 0.950 . S
C5292 C5278 1.377 . S
C5292 C5291 1.373 . S
C5293 C5277 1.377 . S
C5293 C5291 1.389 . S
C5293 C5294 1.524 . S
C5294 C5293 1.524 . S
C5294 C5295 1.397 . S
C5294 C5299 1.363 . S
C5295 H5266 0.950 . S
C5295 C5294 1.397 . S
C5295 C5296 1.334 . S
C5296 H5267 0.950 . S
C5296 C5295 1.334 . S
C5296 C5297 1.287 . S
C5297 C5296 1.287 . S
C5297 C5298 1.524 . S
C5297 H5300 0.999 . S
C5298 H5268 0.950 . S
C5298 C5297 1.524 . S
C5298 C5299 1.415 . S
C5299 H5269 0.950 . S
C5299 C5294 1.363 . S
C5299 C5298 1.415 . S
H5300 C5297 0.999 . S
H5301 C5282 0.913 . S
H5302 C5320 0.951 . S
H5303 C5322 0.951 . S
H5304 C5324 0.950 . S
H5305 C5325 0.950 . S
H5306 C5327 0.950 . S
H5307 C5330 0.950 . S
H5308 C5331 0.950 . S
H5309 C5333 0.950 . S
H5310 C5334 0.950 . S
H5311 C5335 0.951 . S
H5312 C5337 0.951 . S
H5313 C5339 0.950 . S
H5314 C5340 0.950 . S
H5315 C5342 0.950 . S
H5316 C5345 0.950 . S
H5317 C5346 0.950 . S
H5318 C5348 0.950 . S
H5319 C5349 0.950 . S
C5320 H5302 0.951 . S
C5320 C5321 1.366 . S
C5320 C5322 1.388 . S
C5321 C5320 1.366 . S
C5321 C5325 1.385 . S
C5322 H5303 0.951 . S
C5322 C5320 1.388 . S
C5322 C5323 1.366 . S
C5323 C5322 1.366 . S
C5323 C5324 1.414 . S
C5323 C5326 1.499 . S
C5324 H5304 0.950 . S
C5324 C5323 1.414 . S
C5324 C5325 1.374 . S
C5325 H5305 0.950 . S
C5325 C5321 1.385 . S
C5325 C5324 1.374 . S
C5326 C5323 1.499 . S
C5326 C5327 1.373 . S
C5326 C5328 1.389 . S
C5327 H5306 0.950 . S
C5327 C5326 1.373 . S
C5327 C5343 1.377 . S
C5328 C5326 1.389 . S
C5328 C5329 1.524 . S
C5328 C5342 1.377 . S
C5329 C5328 1.524 . S
C5329 C5330 1.397 . S
C5329 C5334 1.363 . S
C5330 H5307 0.950 . S
C5330 C5329 1.397 . S
C5330 C5331 1.334 . S
C5331 H5308 0.950 . S
C5331 C5330 1.334 . S
C5331 C5332 1.287 . S
C5332 C5331 1.287 . S
C5332 C5333 1.524 . S
C5332 H5351 0.913 . S
C5333 H5309 0.950 . S
C5333 C5332 1.524 . S
C5333 C5334 1.415 . S
C5334 H5310 0.950 . S
C5334 C5329 1.363 . S
C5334 C5333 1.415 . S
C5335 H5311 0.951 . S
C5335 C5336 1.366 . S
C5335 C5337 1.388 . S
C5336 C5335 1.366 . S
C5336 C5340 1.385 . S
C5337 H5312 0.951 . S
C5337 C5335 1.388 . S
C5337 C5338 1.366 . S
C5338 C5337 1.366 . S
C5338 C5339 1.414 . S
C5338 C5341 1.499 . S
C5339 H5313 0.950 . S
C5339 C5338 1.414 . S
C5339 C5340 1.374 . S
C5340 H5314 0.950 . S
C5340 C5336 1.385 . S
C5340 C5339 1.374 . S
C5341 C5338 1.499 . S
C5341 C5342 1.373 . S
C5341 C5343 1.389 . S
C5342 H5315 0.950 . S
C5342 C5328 1.377 . S
C5342 C5341 1.373 . S
C5343 C5327 1.377 . S
C5343 C5341 1.389 . S
C5343 C5344 1.524 . S
C5344 C5343 1.524 . S
C5344 C5345 1.397 . S
C5344 C5349 1.363 . S
C5345 H5316 0.950 . S
C5345 C5344 1.397 . S
C5345 C5346 1.334 . S
C5346 H5317 0.950 . S
C5346 C5345 1.334 . S
C5346 C5347 1.287 . S
C5347 C5346 1.287 . S
C5347 C5348 1.524 . S
C5347 H5350 0.999 . S
C5348 H5318 0.950 . S
C5348 C5347 1.524 . S
C5348 C5349 1.415 . S
C5349 H5319 0.950 . S
C5349 C5344 1.363 . S
C5349 C5348 1.415 . S
H5350 C5347 0.999 . S
H5351 C5332 0.913 . S
H5352 C5370 0.951 . S
H5353 C5372 0.951 . S
H5354 C5374 0.950 . S
H5355 C5375 0.950 . S
H5356 C5377 0.950 . S
H5357 C5380 0.950 . S
H5358 C5381 0.950 . S
H5359 C5383 0.950 . S
H5360 C5384 0.950 . S
H5361 C5385 0.951 . S
H5362 C5387 0.951 . S
H5363 C5389 0.950 . S
H5364 C5390 0.950 . S
H5365 C5392 0.950 . S
H5366 C5395 0.950 . S
H5367 C5396 0.950 . S
H5368 C5398 0.950 . S
H5369 C5399 0.950 . S
C5370 H5352 0.951 . S
C5370 C5371 1.366 . S
C5370 C5372 1.388 . S
C5371 C5370 1.366 . S
C5371 C5375 1.385 . S
C5372 H5353 0.951 . S
C5372 C5370 1.388 . S
C5372 C5373 1.366 . S
C5373 C5372 1.366 . S
C5373 C5374 1.414 . S
C5373 C5376 1.499 . S
C5374 H5354 0.950 . S
C5374 C5373 1.414 . S
C5374 C5375 1.374 . S
C5375 H5355 0.950 . S
C5375 C5371 1.385 . S
C5375 C5374 1.374 . S
C5376 C5373 1.499 . S
C5376 C5377 1.373 . S
C5376 C5378 1.389 . S
C5377 H5356 0.950 . S
C5377 C5376 1.373 . S
C5377 C5393 1.377 . S
C5378 C5376 1.389 . S
C5378 C5379 1.524 . S
C5378 C5392 1.377 . S
C5379 C5378 1.524 . S
C5379 C5380 1.397 . S
C5379 C5384 1.363 . S
C5380 H5357 0.950 . S
C5380 C5379 1.397 . S
C5380 C5381 1.334 . S
C5381 H5358 0.950 . S
C5381 C5380 1.334 . S
C5381 C5382 1.287 . S
C5382 C5381 1.287 . S
C5382 C5383 1.524 . S
C5382 H5401 0.913 . S
C5383 H5359 0.950 . S
C5383 C5382 1.524 . S
C5383 C5384 1.415 . S
C5384 H5360 0.950 . S
C5384 C5379 1.363 . S
C5384 C5383 1.415 . S
C5385 H5361 0.951 . S
C5385 C5386 1.366 . S
C5385 C5387 1.388 . S
C5386 C5385 1.366 . S
C5386 C5390 1.385 . S
C5387 H5362 0.951 . S
C5387 C5385 1.388 . S
C5387 C5388 1.366 . S
C5388 C5387 1.366 . S
C5388 C5389 1.414 . S
C5388 C5391 1.499 . S
C5389 H5363 0.950 . S
C5389 C5388 1.414 . S
C5389 C5390 1.374 . S
C5390 H5364 0.950 . S
C5390 C5386 1.385 . S
C5390 C5389 1.374 . S
C5391 C5388 1.499 . S
C5391 C5392 1.373 . S
C5391 C5393 1.389 . S
C5392 H5365 0.950 . S
C5392 C5378 1.377 . S
C5392 C5391 1.373 . S
C5393 C5377 1.377 . S
C5393 C5391 1.389 . S
C5393 C5394 1.524 . S
C5394 C5393 1.524 . S
C5394 C5395 1.397 . S
C5394 C5399 1.363 . S
C5395 H5366 0.950 . S
C5395 C5394 1.397 . S
C5395 C5396 1.334 . S
C5396 H5367 0.950 . S
C5396 C5395 1.334 . S
C5396 C5397 1.287 . S
C5397 C5396 1.287 . S
C5397 C5398 1.524 . S
C5397 H5400 0.999 . S
C5398 H5368 0.950 . S
C5398 C5397 1.524 . S
C5398 C5399 1.415 . S
C5399 H5369 0.950 . S
C5399 C5394 1.363 . S
C5399 C5398 1.415 . S
H5400 C5397 0.999 . S
H5401 C5382 0.913 . S
H5402 C5420 0.951 . S
H5403 C5422 0.951 . S
H5404 C5424 0.950 . S
H5405 C5425 0.950 . S
H5406 C5427 0.950 . S
H5407 C5430 0.950 . S
H5408 C5431 0.950 . S
H5409 C5433 0.950 . S
H5410 C5434 0.950 . S
H5411 C5435 0.951 . S
H5412 C5437 0.951 . S
H5413 C5439 0.950 . S
H5414 C5440 0.950 . S
H5415 C5442 0.950 . S
H5416 C5445 0.950 . S
H5417 C5446 0.950 . S
H5418 C5448 0.915 1_545 S
H5419 C5449 0.950 . S
C5420 H5402 0.951 . S
C5420 C5421 1.366 . S
C5420 C5422 1.388 . S
C5421 C5420 1.366 . S
C5421 C5425 1.385 . S
C5422 H5403 0.951 . S
C5422 C5420 1.388 . S
C5422 C5423 1.366 . S
C5423 C5422 1.366 . S
C5423 C5424 1.414 . S
C5423 C5426 1.499 . S
C5424 H5404 0.950 . S
C5424 C5423 1.414 . S
C5424 C5425 1.374 . S
C5425 H5405 0.950 . S
C5425 C5421 1.385 . S
C5425 C5424 1.374 . S
C5426 C5423 1.499 . S
C5426 C5427 1.373 . S
C5426 C5428 1.389 . S
C5427 H5406 0.950 . S
C5427 C5426 1.373 . S
C5427 C5443 1.377 . S
C5428 C5426 1.389 . S
C5428 C5429 1.524 . S
C5428 C5442 1.377 . S
C5429 C5428 1.524 . S
C5429 C5430 1.397 . S
C5429 C5434 1.363 . S
C5430 H5407 0.950 . S
C5430 C5429 1.397 . S
C5430 C5431 1.334 . S
C5431 H5408 0.950 . S
C5431 C5430 1.334 . S
C5431 C5432 1.287 . S
C5432 C5431 1.287 . S
C5432 C5433 1.524 . S
C5432 H5451 0.913 . S
C5433 H5409 0.950 . S
C5433 C5432 1.524 . S
C5433 C5434 1.415 . S
C5434 H5410 0.950 . S
C5434 C5429 1.363 . S
C5434 C5433 1.415 . S
C5435 H5411 0.951 . S
C5435 C5436 1.366 . S
C5435 C5437 1.388 . S
C5436 C5435 1.366 . S
C5436 C5440 1.385 1_545 S
C5437 H5412 0.951 . S
C5437 C5435 1.388 . S
C5437 C5438 1.366 1_545 S
C5438 C5437 1.366 1_565 S
C5438 C5439 1.414 . S
C5438 C5441 1.499 . S
C5439 H5413 0.950 . S
C5439 C5438 1.414 . S
C5439 C5440 1.374 . S
C5440 H5414 0.950 . S
C5440 C5436 1.385 1_565 S
C5440 C5439 1.374 . S
C5441 C5438 1.499 . S
C5441 C5442 1.373 . S
C5441 C5443 1.389 . S
C5442 H5415 0.950 . S
C5442 C5428 1.377 . S
C5442 C5441 1.373 . S
C5443 C5427 1.377 . S
C5443 C5441 1.389 . S
C5443 C5444 1.524 . S
C5444 C5443 1.524 . S
C5444 C5445 1.397 . S
C5444 C5449 1.363 . S
C5445 H5416 0.950 . S
C5445 C5444 1.397 . S
C5445 C5446 1.334 . S
C5446 H5417 0.950 . S
C5446 C5445 1.334 . S
C5446 C5447 1.287 . S
C5447 C5446 1.287 . S
C5447 C5448 1.524 . S
C5447 H5450 0.999 . S
C5448 H5418 0.915 1_565 S
C5448 C5447 1.524 . S
C5448 C5449 1.415 . S
C5449 H5419 0.950 . S
C5449 C5444 1.363 . S
C5449 C5448 1.415 . S
H5450 C5447 0.999 . S
H5451 C5432 0.913 . S
H5452 C5470 0.951 . S
H5453 C5472 0.951 . S
H5454 C5474 0.950 . S
H5455 C5475 0.950 . S
H5456 C5477 0.950 . S
H5457 C5480 0.950 . S
H5458 C5481 0.950 . S
H5459 C5483 0.950 . S
H5460 C5484 0.950 . S
H5461 C5485 0.951 . S
H5462 C5487 0.951 . S
H5463 C5489 0.950 . S
H5464 C5490 0.950 . S
H5465 C5492 0.950 . S
H5466 C5495 0.950 . S
H5467 C5496 0.950 . S
H5468 C5498 0.950 . S
H5469 C5499 0.950 . S
C5470 H5452 0.951 . S
C5470 C5471 1.366 . S
C5470 C5472 1.388 . S
C5471 C5470 1.366 . S
C5471 C5475 1.385 . S
C5472 H5453 0.951 . S
C5472 C5470 1.388 . S
C5472 C5473 1.366 . S
C5473 C5472 1.366 . S
C5473 C5474 1.414 . S
C5473 C5476 1.499 . S
C5474 H5454 0.950 . S
C5474 C5473 1.414 . S
C5474 C5475 1.374 . S
C5475 H5455 0.950 . S
C5475 C5471 1.385 . S
C5475 C5474 1.374 . S
C5476 C5473 1.499 . S
C5476 C5477 1.373 . S
C5476 C5478 1.389 . S
C5477 H5456 0.950 . S
C5477 C5476 1.373 . S
C5477 C5493 1.377 . S
C5478 C5476 1.389 . S
C5478 C5479 1.524 . S
C5478 C5492 1.377 . S
C5479 C5478 1.524 . S
C5479 C5480 1.397 . S
C5479 C5484 1.363 . S
C5480 H5457 0.950 . S
C5480 C5479 1.397 . S
C5480 C5481 1.334 . S
C5481 H5458 0.950 . S
C5481 C5480 1.334 . S
C5481 C5482 1.287 . S
C5482 C5481 1.287 . S
C5482 C5483 1.524 . S
C5482 H5501 0.913 . S
C5483 H5459 0.950 . S
C5483 C5482 1.524 . S
C5483 C5484 1.415 . S
C5484 H5460 0.950 . S
C5484 C5479 1.363 . S
C5484 C5483 1.415 . S
C5485 H5461 0.951 . S
C5485 C5486 1.366 . S
C5485 C5487 1.388 . S
C5486 C5485 1.366 . S
C5486 C5490 1.385 . S
C5487 H5462 0.951 . S
C5487 C5485 1.388 . S
C5487 C5488 1.366 . S
C5488 C5487 1.366 . S
C5488 C5489 1.414 . S
C5488 C5491 1.499 . S
C5489 H5463 0.950 . S
C5489 C5488 1.414 . S
C5489 C5490 1.374 . S
C5490 H5464 0.950 . S
C5490 C5486 1.385 . S
C5490 C5489 1.374 . S
C5491 C5488 1.499 . S
C5491 C5492 1.373 . S
C5491 C5493 1.389 . S
C5492 H5465 0.950 . S
C5492 C5478 1.377 . S
C5492 C5491 1.373 . S
C5493 C5477 1.377 . S
C5493 C5491 1.389 . S
C5493 C5494 1.524 . S
C5494 C5493 1.524 . S
C5494 C5495 1.397 . S
C5494 C5499 1.363 . S
C5495 H5466 0.950 . S
C5495 C5494 1.397 . S
C5495 C5496 1.334 . S
C5496 H5467 0.950 . S
C5496 C5495 1.334 . S
C5496 C5497 1.287 . S
C5497 C5496 1.287 . S
C5497 C5498 1.524 . S
C5497 H5500 0.999 . S
C5498 H5468 0.950 . S
C5498 C5497 1.524 . S
C5498 C5499 1.415 . S
C5499 H5469 0.950 . S
C5499 C5494 1.363 . S
C5499 C5498 1.415 . S
H5500 C5497 0.999 . S
H5501 C5482 0.913 . S
H5502 C5520 0.951 . S
H5503 C5522 0.951 . S
H5504 C5524 0.950 . S
H5505 C5525 0.950 . S
H5506 C5527 0.950 . S
H5507 C5530 0.950 . S
H5508 C5531 0.950 . S
H5509 C5533 0.950 . S
H5510 C5534 0.950 . S
H5511 C5535 0.951 . S
H5512 C5537 0.951 . S
H5513 C5539 0.950 1_556 S
H5514 C5540 0.950 1_556 S
H5515 C5542 0.950 . S
H5516 C5545 0.950 . S
H5517 C5546 0.950 . S
H5518 C5548 0.950 . S
H5519 C5549 0.950 . S
C5520 H5502 0.951 . S
C5520 C5521 1.366 1_556 S
C5520 C5522 1.388 . S
C5521 C5520 1.366 1_554 S
C5521 C5525 1.385 . S
C5522 H5503 0.951 . S
C5522 C5520 1.388 . S
C5522 C5523 1.366 1_556 S
C5523 C5522 1.366 1_554 S
C5523 C5524 1.414 . S
C5523 C5526 1.499 . S
C5524 H5504 0.950 . S
C5524 C5523 1.414 . S
C5524 C5525 1.374 . S
C5525 H5505 0.950 . S
C5525 C5521 1.385 . S
C5525 C5524 1.374 . S
C5526 C5523 1.499 . S
C5526 C5527 1.373 . S
C5526 C5528 1.389 1_554 S
C5527 H5506 0.950 . S
C5527 C5526 1.373 . S
C5527 C5543 1.377 . S
C5528 C5526 1.389 1_556 S
C5528 C5529 1.524 . S
C5528 C5542 1.377 . S
C5529 C5528 1.524 . S
C5529 C5530 1.397 . S
C5529 C5534 1.363 . S
C5530 H5507 0.950 . S
C5530 C5529 1.397 . S
C5530 C5531 1.334 . S
C5531 H5508 0.950 . S
C5531 C5530 1.334 . S
C5531 C5532 1.287 . S
C5532 C5531 1.287 . S
C5532 C5533 1.524 . S
C5532 H5551 0.913 . S
C5533 H5509 0.950 . S
C5533 C5532 1.524 . S
C5533 C5534 1.415 . S
C5534 H5510 0.950 . S
C5534 C5529 1.363 . S
C5534 C5533 1.415 . S
C5535 H5511 0.951 . S
C5535 C5536 1.366 . S
C5535 C5537 1.388 . S
C5536 C5535 1.366 . S
C5536 C5540 1.385 . S
C5537 H5512 0.951 . S
C5537 C5535 1.388 . S
C5537 C5538 1.366 . S
C5538 C5537 1.366 . S
C5538 C5539 1.414 . S
C5538 C5541 1.499 . S
C5539 H5513 0.950 1_554 S
C5539 C5538 1.414 . S
C5539 C5540 1.374 . S
C5540 H5514 0.950 1_554 S
C5540 C5536 1.385 . S
C5540 C5539 1.374 . S
C5541 C5538 1.499 . S
C5541 C5542 1.373 1_554 S
C5541 C5543 1.389 . S
C5542 H5515 0.950 . S
C5542 C5528 1.377 . S
C5542 C5541 1.373 1_556 S
C5543 C5527 1.377 . S
C5543 C5541 1.389 . S
C5543 C5544 1.524 . S
C5544 C5543 1.524 . S
C5544 C5545 1.397 . S
C5544 C5549 1.363 . S
C5545 H5516 0.950 . S
C5545 C5544 1.397 . S
C5545 C5546 1.334 . S
C5546 H5517 0.950 . S
C5546 C5545 1.334 . S
C5546 C5547 1.287 . S
C5547 C5546 1.287 . S
C5547 C5548 1.524 . S
C5547 H5550 0.999 . S
C5548 H5518 0.950 . S
C5548 C5547 1.524 . S
C5548 C5549 1.415 . S
C5549 H5519 0.950 . S
C5549 C5544 1.363 . S
C5549 C5548 1.415 . S
H5550 C5547 0.999 . S
H5551 C5532 0.913 . S
H5552 C5570 0.951 . S
H5553 C5572 0.951 . S
H5554 C5574 0.950 . S
H5555 C5575 0.950 . S
H5556 C5577 0.950 . S
H5557 C5580 0.950 . S
H5558 C5581 0.950 . S
H5559 C5583 0.950 . S
H5560 C5584 0.950 . S
H5561 C5585 0.951 . S
H5562 C5587 0.951 . S
H5563 C5589 0.950 . S
H5564 C5590 0.950 . S
H5565 C5592 0.950 . S
H5566 C5595 0.950 . S
H5567 C5596 0.950 . S
H5568 C5598 0.950 . S
H5569 C5599 0.950 . S
C5570 H5552 0.951 . S
C5570 C5571 1.366 . S
C5570 C5572 1.388 . S
C5571 C5570 1.366 . S
C5571 C5575 1.385 . S
C5572 H5553 0.951 . S
C5572 C5570 1.388 . S
C5572 C5573 1.366 . S
C5573 C5572 1.366 . S
C5573 C5574 1.414 . S
C5573 C5576 1.499 . S
C5574 H5554 0.950 . S
C5574 C5573 1.414 . S
C5574 C5575 1.374 . S
C5575 H5555 0.950 . S
C5575 C5571 1.385 . S
C5575 C5574 1.374 . S
C5576 C5573 1.499 . S
C5576 C5577 1.373 . S
C5576 C5578 1.389 . S
C5577 H5556 0.950 . S
C5577 C5576 1.373 . S
C5577 C5593 1.377 . S
C5578 C5576 1.389 . S
C5578 C5579 1.524 . S
C5578 C5592 1.377 . S
C5579 C5578 1.524 . S
C5579 C5580 1.397 . S
C5579 C5584 1.363 . S
C5580 H5557 0.950 . S
C5580 C5579 1.397 . S
C5580 C5581 1.334 . S
C5581 H5558 0.950 . S
C5581 C5580 1.334 . S
C5581 C5582 1.287 . S
C5582 C5581 1.287 . S
C5582 C5583 1.524 . S
C5582 H5601 0.913 . S
C5583 H5559 0.950 . S
C5583 C5582 1.524 . S
C5583 C5584 1.415 . S
C5584 H5560 0.950 . S
C5584 C5579 1.363 . S
C5584 C5583 1.415 . S
C5585 H5561 0.951 . S
C5585 C5586 1.366 . S
C5585 C5587 1.388 . S
C5586 C5585 1.366 . S
C5586 C5590 1.385 . S
C5587 H5562 0.951 . S
C5587 C5585 1.388 . S
C5587 C5588 1.366 . S
C5588 C5587 1.366 . S
C5588 C5589 1.414 . S
C5588 C5591 1.499 . S
C5589 H5563 0.950 . S
C5589 C5588 1.414 . S
C5589 C5590 1.374 . S
C5590 H5564 0.950 . S
C5590 C5586 1.385 . S
C5590 C5589 1.374 . S
C5591 C5588 1.499 . S
C5591 C5592 1.373 . S
C5591 C5593 1.389 . S
C5592 H5565 0.950 . S
C5592 C5578 1.377 . S
C5592 C5591 1.373 . S
C5593 C5577 1.377 . S
C5593 C5591 1.389 . S
C5593 C5594 1.524 . S
C5594 C5593 1.524 . S
C5594 C5595 1.397 . S
C5594 C5599 1.363 . S
C5595 H5566 0.950 . S
C5595 C5594 1.397 . S
C5595 C5596 1.334 . S
C5596 H5567 0.950 . S
C5596 C5595 1.334 . S
C5596 C5597 1.287 . S
C5597 C5596 1.287 . S
C5597 C5598 1.524 . S
C5597 H5600 0.999 . S
C5598 H5568 0.950 . S
C5598 C5597 1.524 . S
C5598 C5599 1.415 . S
C5599 H5569 0.950 . S
C5599 C5594 1.363 . S
C5599 C5598 1.415 . S
H5600 C5597 0.999 . S
H5601 C5582 0.913 . S
H5602 C5620 0.951 . S
H5603 C5622 0.951 . S
H5604 C5624 0.950 . S
H5605 C5625 0.950 1_556 S
H5606 C5627 0.950 . S
H5607 C5630 0.950 . S
H5608 C5631 0.950 . S
H5609 C5633 0.950 . S
H5610 C5634 0.950 1_554 S
H5611 C5635 0.951 . S
H5612 C5637 0.951 . S
H5613 C5639 0.950 1_554 S
H5614 C5640 0.950 . S
H5615 C5642 0.950 . S
H5616 C5645 0.950 . S
H5617 C5646 0.950 . S
H5618 C5648 0.950 1_556 S
H5619 C5649 0.950 . S
C5620 H5602 0.951 . S
C5620 C5621 1.366 . S
C5620 C5622 1.388 . S
C5621 C5620 1.366 . S
C5621 C5625 1.385 . S
C5622 H5603 0.951 . S
C5622 C5620 1.388 . S
C5622 C5623 1.366 . S
C5623 C5622 1.366 . S
C5623 C5624 1.414 1_554 S
C5623 C5626 1.490 1_554 S
C5624 H5604 0.950 . S
C5624 C5623 1.414 1_556 S
C5624 C5625 1.374 1_556 S
C5625 H5605 0.950 1_554 S
C5625 C5621 1.385 . S
C5625 C5624 1.374 1_554 S
C5626 C5623 1.490 1_556 S
C5626 C5627 1.375 1_556 S
C5626 C5628 1.395 . S
C5627 H5606 0.950 . S
C5627 C5626 1.375 1_554 S
C5627 C5643 1.374 1_554 S
C5628 C5626 1.395 . S
C5628 C5629 1.524 . S
C5628 C5642 1.377 . S
C5629 C5628 1.524 . S
C5629 C5630 1.397 . S
C5629 C5634 1.363 . S
C5630 H5607 0.950 . S
C5630 C5629 1.397 . S
C5630 C5631 1.334 . S
C5631 H5608 0.950 . S
C5631 C5630 1.334 . S
C5631 C5632 1.287 . S
C5632 C5631 1.287 . S
C5632 C5633 1.524 . S
C5632 H5651 0.913 . S
C5633 H5609 0.950 . S
C5633 C5632 1.524 . S
C5633 C5634 1.415 . S
C5634 H5610 0.950 1_556 S
C5634 C5629 1.363 . S
C5634 C5633 1.415 . S
C5635 H5611 0.951 . S
C5635 C5636 1.366 . S
C5635 C5637 1.388 . S
C5636 C5635 1.366 . S
C5636 C5640 1.385 . S
C5637 H5612 0.951 . S
C5637 C5635 1.388 . S
C5637 C5638 1.366 . S
C5638 C5637 1.366 . S
C5638 C5639 1.414 . S
C5638 C5641 1.499 . S
C5639 H5613 0.950 1_556 S
C5639 C5638 1.414 . S
C5639 C5640 1.374 . S
C5640 H5614 0.950 . S
C5640 C5636 1.385 . S
C5640 C5639 1.374 . S
C5641 C5638 1.499 . S
C5641 C5642 1.373 . S
C5641 C5643 1.392 . S
C5642 H5615 0.950 . S
C5642 C5628 1.377 . S
C5642 C5641 1.373 . S
C5643 C5627 1.374 1_556 S
C5643 C5641 1.392 . S
C5643 C5644 1.524 1_556 S
C5644 C5643 1.524 1_554 S
C5644 C5645 1.397 . S
C5644 C5649 1.363 1_554 S
C5645 H5616 0.950 . S
C5645 C5644 1.397 . S
C5645 C5646 1.334 . S
C5646 H5617 0.950 . S
C5646 C5645 1.334 . S
C5646 C5647 1.287 . S
C5647 C5646 1.287 . S
C5647 C5648 1.524 . S
C5647 H5650 0.999 . S
C5648 H5618 0.950 1_554 S
C5648 C5647 1.524 . S
C5648 C5649 1.415 1_554 S
C5649 H5619 0.950 . S
C5649 C5644 1.363 1_556 S
C5649 C5648 1.415 1_556 S
H5650 C5647 0.999 . S
H5651 C5632 0.913 . S
H5652 C5670 0.951 . S
H5653 C5672 0.951 . S
H5654 C5674 0.950 . S
H5655 C5675 0.950 . S
H5656 C5677 0.950 . S
H5657 C5680 0.950 . S
H5658 C5681 0.950 . S
H5659 C5683 0.950 . S
H5660 C5684 0.950 . S
H5661 C5685 0.951 . S
H5662 C5687 0.951 . S
H5663 C5689 0.950 . S
H5664 C5690 0.950 . S
H5665 C5692 0.950 . S
H5666 C5695 0.950 . S
H5667 C5696 0.950 . S
H5668 C5698 0.950 . S
H5669 C5699 0.950 . S
C5670 H5652 0.951 . S
C5670 C5671 1.366 . S
C5670 C5672 1.388 . S
C5671 C5670 1.366 . S
C5671 C5675 1.385 . S
C5672 H5653 0.951 . S
C5672 C5670 1.388 . S
C5672 C5673 1.366 . S
C5673 C5672 1.366 . S
C5673 C5674 1.414 . S
C5673 C5676 1.499 . S
C5674 H5654 0.950 . S
C5674 C5673 1.414 . S
C5674 C5675 1.374 . S
C5675 H5655 0.950 . S
C5675 C5671 1.385 . S
C5675 C5674 1.374 . S
C5676 C5673 1.499 . S
C5676 C5677 1.373 . S
C5676 C5678 1.389 . S
C5677 H5656 0.950 . S
C5677 C5676 1.373 . S
C5677 C5693 1.377 . S
C5678 C5676 1.389 . S
C5678 C5679 1.524 . S
C5678 C5692 1.377 . S
C5679 C5678 1.524 . S
C5679 C5680 1.397 . S
C5679 C5684 1.363 . S
C5680 H5657 0.950 . S
C5680 C5679 1.397 . S
C5680 C5681 1.334 . S
C5681 H5658 0.950 . S
C5681 C5680 1.334 . S
C5681 C5682 1.287 . S
C5682 C5681 1.287 . S
C5682 C5683 1.524 . S
C5682 H5701 0.913 . S
C5683 H5659 0.950 . S
C5683 C5682 1.524 . S
C5683 C5684 1.415 . S
C5684 H5660 0.950 . S
C5684 C5679 1.363 . S
C5684 C5683 1.415 . S
C5685 H5661 0.951 . S
C5685 C5686 1.366 . S
C5685 C5687 1.388 . S
C5686 C5685 1.366 . S
C5686 C5690 1.385 . S
C5687 H5662 0.951 . S
C5687 C5685 1.388 . S
C5687 C5688 1.366 . S
C5688 C5687 1.366 . S
C5688 C5689 1.414 . S
C5688 C5691 1.499 . S
C5689 H5663 0.950 . S
C5689 C5688 1.414 . S
C5689 C5690 1.374 . S
C5690 H5664 0.950 . S
C5690 C5686 1.385 . S
C5690 C5689 1.374 . S
C5691 C5688 1.499 . S
C5691 C5692 1.373 . S
C5691 C5693 1.389 . S
C5692 H5665 0.950 . S
C5692 C5678 1.377 . S
C5692 C5691 1.373 . S
C5693 C5677 1.377 . S
C5693 C5691 1.389 . S
C5693 C5694 1.524 . S
C5694 C5693 1.524 . S
C5694 C5695 1.397 . S
C5694 C5699 1.363 . S
C5695 H5666 0.950 . S
C5695 C5694 1.397 . S
C5695 C5696 1.334 . S
C5696 H5667 0.950 . S
C5696 C5695 1.334 . S
C5696 C5697 1.287 . S
C5697 C5696 1.287 . S
C5697 C5698 1.524 . S
C5697 H5700 0.999 . S
C5698 H5668 0.950 . S
C5698 C5697 1.524 . S
C5698 C5699 1.415 . S
C5699 H5669 0.950 . S
C5699 C5694 1.363 . S
C5699 C5698 1.415 . S
H5700 C5697 0.999 . S
H5701 C5682 0.913 . S
H5702 C5720 0.951 . S
H5703 C5722 0.951 . S
H5704 C5724 0.950 . S
H5705 C5725 0.950 . S
H5706 C5727 0.950 . S
H5707 C5730 0.950 . S
H5708 C5731 0.950 . S
H5709 C5733 0.950 . S
H5710 C5734 0.950 . S
H5711 C5735 0.951 . S
H5712 C5737 0.951 . S
H5713 C5739 0.950 . S
H5714 C5740 0.950 . S
H5715 C5742 0.950 . S
H5716 C5745 0.950 . S
H5717 C5746 0.950 . S
H5718 C5748 0.950 . S
H5719 C5749 0.950 . S
C5720 H5702 0.951 . S
C5720 C5721 1.366 . S
C5720 C5722 1.388 . S
C5721 C5720 1.366 . S
C5721 C5725 1.385 . S
C5722 H5703 0.951 . S
C5722 C5720 1.388 . S
C5722 C5723 1.366 . S
C5723 C5722 1.366 . S
C5723 C5724 1.414 . S
C5723 C5726 1.499 . S
C5724 H5704 0.950 . S
C5724 C5723 1.414 . S
C5724 C5725 1.374 . S
C5725 H5705 0.950 . S
C5725 C5721 1.385 . S
C5725 C5724 1.374 . S
C5726 C5723 1.499 . S
C5726 C5727 1.373 . S
C5726 C5728 1.389 . S
C5727 H5706 0.950 . S
C5727 C5726 1.373 . S
C5727 C5743 1.377 . S
C5728 C5726 1.389 . S
C5728 C5729 1.524 . S
C5728 C5742 1.377 . S
C5729 C5728 1.524 . S
C5729 C5730 1.397 . S
C5729 C5734 1.363 . S
C5730 H5707 0.950 . S
C5730 C5729 1.397 . S
C5730 C5731 1.334 . S
C5731 H5708 0.950 . S
C5731 C5730 1.334 . S
C5731 C5732 1.287 . S
C5732 C5731 1.287 . S
C5732 C5733 1.524 . S
C5732 H5751 0.913 . S
C5733 H5709 0.950 . S
C5733 C5732 1.524 . S
C5733 C5734 1.415 . S
C5734 H5710 0.950 . S
C5734 C5729 1.363 . S
C5734 C5733 1.415 . S
C5735 H5711 0.951 . S
C5735 C5736 1.366 . S
C5735 C5737 1.388 . S
C5736 C5735 1.366 . S
C5736 C5740 1.385 . S
C5737 H5712 0.951 . S
C5737 C5735 1.388 . S
C5737 C5738 1.366 . S
C5738 C5737 1.366 . S
C5738 C5739 1.414 . S
C5738 C5741 1.499 . S
C5739 H5713 0.950 . S
C5739 C5738 1.414 . S
C5739 C5740 1.374 . S
C5740 H5714 0.950 . S
C5740 C5736 1.385 . S
C5740 C5739 1.374 . S
C5741 C5738 1.499 . S
C5741 C5742 1.373 . S
C5741 C5743 1.389 . S
C5742 H5715 0.950 . S
C5742 C5728 1.377 . S
C5742 C5741 1.373 . S
C5743 C5727 1.377 . S
C5743 C5741 1.389 . S
C5743 C5744 1.524 . S
C5744 C5743 1.524 . S
C5744 C5745 1.397 . S
C5744 C5749 1.363 . S
C5745 H5716 0.950 . S
C5745 C5744 1.397 . S
C5745 C5746 1.334 . S
C5746 H5717 0.950 . S
C5746 C5745 1.334 . S
C5746 C5747 1.287 . S
C5747 C5746 1.287 . S
C5747 C5748 1.524 . S
C5747 H5750 0.999 . S
C5748 H5718 0.950 . S
C5748 C5747 1.524 . S
C5748 C5749 1.415 . S
C5749 H5719 0.950 . S
C5749 C5744 1.363 . S
C5749 C5748 1.415 . S
H5750 C5747 0.999 . S
H5751 C5732 0.913 . S
C971 C101 2.239 . S
C986 C314 2.213 1_556 S
C1021 C57 2.052 . S
C1036 C371 2.088 . S
C1071 C73 1.061 . S
C1086 C394 1.088 . S
C1136 C448 1.387 . S
C1121 C78 1.355 . S
C1171 C21 1.185 . S
C1186 C488 1.218 . S
C1236 C519 0.270 . S
C1221 C31 0.392 . S
C1286 C571 1.223 . S
C1271 C49 1.210 . S
C1321 C0 1.592 . S
C1336 C594 1.623 . S
C1386 C331 2.429 . S
C1371 C218 2.442 . S
C1421 C229 0.387 . S
C1436 C368 0.326 . S
C1486 C411 1.370 . S
C1471 C257 1.381 . S
C1536 C434 1.166 . S
C1521 C164 1.122 . S
C1571 C216 1.616 . S
C1586 C474 1.704 . S
C1636 C522 1.480 . S
C1621 C231 1.505 . S
C1686 C568 0.260 . S
C1671 C255 0.366 . S
C1736 C611 1.950 . S
C1721 C166 1.975 . S
C1786 C328 1.397 1_565 S
C1771 C143 1.355 . S
C1821 C265 1.999 . S
C1836 C651 2.034 . S
C1886 C683 2.497 . S
C1871 C299 2.521 . S
C1936 C714 0.569 1_655 S
C1921 C291 0.598 . S
C1971 C104 1.132 . S
C1986 C608 1.165 . S
C2021 C117 1.430 . S
C2036 C408 1.470 . S
C2071 C304 2.238 . S
C2086 C771 2.268 . S
C2136 C794 0.391 . S
C2121 C278 0.348 . S
C2186 C323 2.170 . S
C2171 C60 2.185 . S
C2236 C802 1.979 . S
C2221 C96 1.975 . S
C2271 C88 0.965 . S
C2286 C403 0.951 . S
C2321 C65 1.299 . S
C2336 C759 1.307 . S
C2386 C479 1.164 . S
C2371 C10 1.181 . S
C2421 C44 0.378 . S
C2436 C688 0.227 . S
C2486 C562 1.082 1_556 S
C2471 C34 1.026 . S
C2536 C843 1.573 . S
C2521 C13 1.630 . S
C2586 C322 2.357 . S
C2571 C138 2.310 . S
C2636 C799 0.331 . S
C2621 C296 0.232 . S
C2671 C112 1.257 . S
C2686 C402 1.279 . S
C2721 C270 1.056 . S
C2736 C763 1.045 . S
C2771 C140 1.613 . S
C2786 C483 1.597 . S
C2836 C691 1.425 . S
C2821 C294 1.417 . S
C2871 C114 0.155 . S
C2886 C559 0.298 . S
C2921 C268 1.858 . S
C2936 C842 1.879 . S
C2971 C169 1.373 . S
C2986 C319 1.362 . S
C3021 C161 1.928 . S
C3036 C642 1.939 . S
C3071 C234 2.464 . S
C3086 C514 2.433 . S
C3121 C226 0.486 . S
C3136 C723 0.406 . S
C3186 C839 1.162 . S
C3171 C247 1.192 . S
C3221 C195 1.452 . S
C3236 C399 1.433 . S
C3286 C442 2.167 . S
C3271 C239 2.155 . S
C3336 C363 0.370 . S
C3321 C187 0.289 . S
C3371 C75 2.239 . S
C3386 C874 2.213 . S
C3436 C811 2.088 . S
C3421 C83 2.052 . S
C3471 C99 1.061 . S
C3486 C914 1.088 . S
C3521 C52 1.355 . S
C3536 C768 1.387 . S
C3571 C47 1.186 . S
C3586 C648 1.217 . S
C3636 C679 0.269 . S
C3621 C5 0.391 . S
C3686 C731 1.222 . S
C3671 C23 1.207 . S
C3736 C834 1.623 . S
C3721 C26 1.593 . S
C3786 C891 2.429 . S
C3771 C244 2.442 . S
C3821 C177 0.387 . S
C3836 C808 0.326 . S
C3886 C931 1.370 . S
C3871 C192 1.381 . S
C3936 C754 1.167 . S
C3921 C203 1.121 . S
C3986 C634 1.704 . S
C3971 C242 1.618 . S
C4021 C179 1.504 . S
C4036 C682 1.480 . S
C4086 C728 0.259 . S
C4071 C190 0.364 . S
C4121 C205 1.975 . S
C4136 C851 1.951 . S
C4186 C888 1.402 . S
C4171 C286 1.355 . S
C4221 C122 2.000 . S
C4236 C491 2.034 . S
C4286 C523 2.498 . S
C4271 C130 2.528 . S
C4336 C554 0.568 . S
C4321 C148 0.598 . S
C4386 C848 1.166 . S
C4371 C273 1.134 . S
C4421 C260 1.429 . S
C4436 C928 1.469 . S
C4486 C451 2.267 . S
C4471 C135 2.231 . S
C4536 C354 0.390 . S
C4521 C109 0.350 . S
C4571 C86 2.185 . S
C4586 C883 2.169 . S
C4636 C362 1.979 . S
C4621 C70 1.975 . S
C4671 C62 0.964 . S
C4686 C923 0.952 . S
C4721 C91 1.298 . S
C4736 C439 1.307 . S
C4771 C36 1.181 . S
C4786 C639 1.164 . S
C4836 C528 0.226 . S
C4821 C18 0.380 . S
C4871 C8 1.024 . S
C4886 C722 1.082 . S
C4921 C39 1.624 . S
C4936 C603 1.574 . S
C4986 C882 2.357 . S
C4971 C307 2.309 . S
C5021 C153 0.229 . S
C5036 C359 0.329 . S
C5086 C922 1.279 . S
C5071 C281 1.257 . S
C5121 C127 1.056 . S
C5136 C443 1.044 . S
C5171 C309 1.614 . S
C5186 C643 1.601 . S
C5236 C531 1.424 . S
C5221 C151 1.417 . S
C5271 C283 0.156 . S
C5286 C719 0.298 . S
C5336 C602 1.879 . S
C5321 C125 1.858 . S
C5386 C879 1.362 . S
C5371 C221 1.373 . S
C5436 C482 1.940 1_655 S
C5421 C200 1.928 . S
C5471 C208 2.464 . S
C5486 C674 2.433 . S
C5536 C563 0.407 . S
C5521 C174 0.484 . S
C5571 C182 1.191 . S
C5586 C599 1.162 . S
C5621 C156 1.452 . S
C5636 C919 1.433 . S
C5686 C762 2.168 . S
C5671 C213 2.156 1_565 S
C5736 C803 0.369 . S
C5721 C252 0.290 . S
