# Generated by pormake.
# Topology tsx, (6,3)-cn, num edge types: 1
# Building blocks:
#     Node 0, Type 0, BuildingBlock: VOLQOD_clean_sbu_1, # of connection points: 6
#     Node 1, Type 0, BuildingBlock: VOLQOD_clean_sbu_1, # of connection points: 6
#     Node 2, Type 1, BuildingBlock: WUSLED_clean_sbu_0, # of connection points: 3
#     Node 3, Type 1, BuildingBlock: WUSLED_clean_sbu_0, # of connection points: 3
#     Node 4, Type 1, BuildingBlock: WUSLED_clean_sbu_0, # of connection points: 3
#     Node 5, Type 1, BuildingBlock: WUSLED_clean_sbu_0, # of connection points: 3
#     Edge 6, Type (0, 1), BuildingBlock: XUDNAN_clean_linker_2, # of connection points: 2
#     Edge 7, Type (0, 1), BuildingBlock: XUDNAN_clean_linker_2, # of connection points: 2
#     Edge 8, Type (0, 1), BuildingBlock: XUDNAN_clean_linker_2, # of connection points: 2
#     Edge 9, Type (0, 1), BuildingBlock: XUDNAN_clean_linker_2, # of connection points: 2
#     Edge 10, Type (0, 1), BuildingBlock: XUDNAN_clean_linker_2, # of connection points: 2
#     Edge 11, Type (0, 1), BuildingBlock: XUDNAN_clean_linker_2, # of connection points: 2
#     Edge 12, Type (0, 1), BuildingBlock: XUDNAN_clean_linker_2, # of connection points: 2
#     Edge 13, Type (0, 1), BuildingBlock: XUDNAN_clean_linker_2, # of connection points: 2
#     Edge 14, Type (0, 1), BuildingBlock: XUDNAN_clean_linker_2, # of connection points: 2
#     Edge 15, Type (0, 1), BuildingBlock: XUDNAN_clean_linker_2, # of connection points: 2
#     Edge 16, Type (0, 1), BuildingBlock: XUDNAN_clean_linker_2, # of connection points: 2
#     Edge 17, Type (0, 1), BuildingBlock: XUDNAN_clean_linker_2, # of connection points: 2
# Relax obj value: 0.070
# Max RMSD: 0.104
# Mean RMSD: 0.078
data_MOF--net-tsx--node1-VOLQOD_clean_sbu_1--node2-WUSLED_clean_sbu_0--edge1-XUDNAN_clean_linker_2
_symmetry_space_group_name_H-M    P1
_symmetry_Int_Tables_number       1
_symmetry_cell_setting            triclinic
loop_
_symmetry_equiv_pos_as_xyz
'x, y, z'
_cell_length_a     26.091482
_cell_length_b     27.118003
_cell_length_c     51.66741
_cell_angle_alpha  90.508043
_cell_angle_beta   89.901996
_cell_angle_gamma 89.990849
loop_
_atom_site_label
_atom_site_type_symbol
_atom_site_fract_x
_atom_site_fract_y
_atom_site_fract_z
_atom_type_partial_charge
O0 O 0.03037 1.00969 0.07478 0.0
Zn1 Zn 0.06499 1.00866 0.03965 0.0
O2 O 0.01611 0.02267 0.01206 0.0
Zn3 Zn 0.01164 0.96504 0.98892 0.0
Zn4 Zn 0.94845 0.03588 0.02671 0.0
Zn5 Zn 0.0387 0.08097 0.99312 0.0
O6 O 0.01821 0.98663 0.95145 0.0
O7 O 0.04884 0.06294 0.9555 0.0
O8 O 0.10187 0.94392 0.03322 0.0
O9 O 0.07004 0.91781 0.9957 0.0
O10 O 0.945 0.9271 0.99492 0.0
O11 O 0.89975 0.98056 0.0185 0.0
O12 O 0.91787 0.09966 0.01364 0.0
O13 O 0.11977 0.06092 0.0409 0.0
O14 O 0.98392 0.1337 0.99339 0.0
O15 O 0.10373 0.11114 0.00821 0.0
C16 C 0.98632 0.02491 0.08203 0.0
C17 C 0.03638 0.02589 0.94147 0.0
C18 C 0.90383 0.93933 1.00671 0.0
C19 C 0.10143 0.91317 0.01439 0.0
C20 C 0.93765 0.13539 1.00128 0.0
C21 C 0.13097 0.09872 0.02757 0.0
O22 O 0.95275 0.03848 0.06566 0.0
O23 O 0.56474 0.4852 0.57237 0.0
Zn24 Zn 0.58942 0.50118 0.53663 0.0
O25 O 0.53362 0.50982 0.5126 0.0
Zn26 Zn 0.53328 0.45406 0.48795 0.0
Zn27 Zn 0.47077 0.51235 0.53319 0.0
Zn28 Zn 0.54228 0.57203 0.4941 0.0
O29 O 0.53393 0.47933 0.45091 0.0
O30 O 0.55388 0.55862 0.45604 0.0
O31 O 0.63746 0.44787 0.52495 0.0
O32 O 0.59773 0.41198 0.49186 0.0
O33 O 0.47103 0.41026 0.4945 0.0
O34 O 0.42966 0.45149 0.52553 0.0
O35 O 0.42773 0.57163 0.52406 0.0
O36 O 0.62831 0.56413 0.54033 0.0
O37 O 0.47675 0.61197 0.49615 0.0
O38 O 0.60015 0.61387 0.50949 0.0
C39 C 0.52314 0.4952 0.58419 0.0
C40 C 0.54589 0.52117 0.44146 0.0
C41 C 0.43358 0.41441 0.51033 0.0
C42 C 0.63576 0.41488 0.50729 0.0
C43 C 0.43498 0.6076 0.50876 0.0
C44 C 0.62959 0.60518 0.52861 0.0
O45 O 0.48423 0.51138 0.57203 0.0
C46 C 0.95541 0.07847 0.45143 0.0
C47 C 0.92915 0.10776 0.43353 0.0
C48 C 0.89017 0.15501 0.46877 0.0
C49 C 0.89675 0.1457 0.44213 0.0
C50 C 0.91594 0.12479 0.48657 0.0
C51 C 0.94828 0.08693 0.47796 0.0
U52 U 0.01684 1.00347 0.39721 0.0
O53 O 0.0966 0.97884 0.39172 0.0
O54 O 0.03466 0.92438 0.39428 0.0
C55 C 0.08446 0.93192 0.39363 0.0
C56 C 0.99084 0.03958 0.44267 0.0
C57 C 0.11635 0.90188 0.41131 0.0
C58 C 0.12677 0.83115 0.43961 0.0
C59 C 0.09563 0.86112 0.42433 0.0
C60 C 0.20008 0.88203 0.42934 0.0
C61 C 0.17947 0.84102 0.4422 0.0
C62 C 0.16894 0.91194 0.41401 0.0
C63 C 0.97335 0.03161 0.32712 0.0
C64 C 0.92641 1.00769 0.28834 0.0
C65 C 1.00963 0.04632 0.28436 0.0
C66 C 0.01342 0.04901 0.31138 0.0
C67 C 0.9656 0.02648 0.27254 0.0
C68 C 0.93013 0.01046 0.31527 0.0
C69 C 0.97349 0.03924 0.35556 0.0
O70 O 0.96912 1.00039 0.43233 0.0
O71 O 0.03084 0.055 0.42953 0.0
O72 O 0.01506 0.05821 0.36604 0.0
O73 O 0.95308 1.00387 0.36945 0.0
H74 H 0.93424 0.10164 0.41293 0.0
H75 H 0.8779 0.16851 0.42791 0.0
H76 H 0.91109 0.13038 0.50721 0.0
H77 H 0.96801 0.06445 0.49203 0.0
H78 H 0.10971 0.79941 0.44883 0.0
H79 H 0.05547 0.85172 0.42243 0.0
H80 H 0.24035 0.89106 0.43109 0.0
H81 H 0.18624 0.94271 0.40401 0.0
H82 H 0.89233 0.99145 0.27989 0.0
H83 H 0.04031 0.06153 0.27276 0.0
H84 H 0.04709 0.06597 0.31985 0.0
H85 H 0.89847 0.99709 0.32684 0.0
C86 C 0.96052 0.93401 0.57763 0.0
C87 C 0.96235 0.88988 0.59161 0.0
C88 C 0.88402 0.86127 0.57077 0.0
C89 C 0.92486 0.85384 0.58805 0.0
C90 C 0.88296 0.9049 0.55622 0.0
C91 C 0.92093 0.94097 0.55965 0.0
U92 U 0.03444 1.00935 0.6265 0.0
O93 O 0.11491 0.03311 0.6281 0.0
O94 O 0.05335 0.08837 0.62876 0.0
C95 C 0.103 0.08019 0.62798 0.0
C96 C 0.99771 0.97387 0.58298 0.0
C97 C 0.13271 0.11094 0.61014 0.0
C98 C 0.1597 0.13405 0.56684 0.0
C99 C 0.12981 0.10464 0.58319 0.0
C100 C 0.1952 0.1761 0.60431 0.0
C101 C 0.1927 0.17022 0.57725 0.0
C102 C 0.16547 0.14679 0.62054 0.0
C103 C 0.01131 0.98128 0.69791 0.0
C104 C 0.06479 0.01395 0.73248 0.0
C105 C 0.98296 0.97655 0.74264 0.0
C106 C 0.97476 0.96715 0.7163 0.0
C107 C 0.02801 1.00026 0.75107 0.0
C108 C 0.05642 1.00473 0.70614 0.0
C109 C 1.00128 0.97229 0.67025 0.0
O110 O 0.97859 0.01311 0.59459 0.0
O111 O 0.04183 0.95986 0.59279 0.0
O112 O 0.03941 0.95319 0.65685 0.0
O113 O 0.97792 1.00831 0.65819 0.0
H114 H 0.99226 0.88347 0.6057 0.0
H115 H 0.9276 0.82026 0.59916 0.0
H116 H 0.85192 0.91193 0.54286 0.0
H117 H 0.91865 0.97485 0.54875 0.0
H118 H 0.15665 0.12881 0.5461 0.0
H119 H 0.10464 0.07699 0.57487 0.0
H120 H 0.22088 0.20283 0.61303 0.0
H121 H 0.16841 0.15189 0.64131 0.0
H122 H 0.10022 0.03164 0.73826 0.0
H123 H 0.95346 0.96618 0.75631 0.0
H124 H 0.93956 0.94927 0.71027 0.0
H125 H 0.08506 0.01604 0.69219 0.0
C126 C 0.41887 0.5794 0.95198 0.0
C127 C 0.39988 0.6172 0.93626 0.0
C128 C 0.34892 0.64939 0.9723 0.0
C129 C 0.36522 0.65192 0.94633 0.0
C130 C 0.36709 0.61051 0.98767 0.0
C131 C 0.40175 0.57598 0.9776 0.0
U132 U 0.49117 0.51149 0.89747 0.0
O133 O 0.57345 0.49626 0.89332 0.0
O134 O 0.51906 0.43468 0.89587 0.0
C135 C 0.5674 0.44826 0.8951 0.0
C136 C 0.45781 0.54432 0.94243 0.0
C137 C 0.60313 0.42176 0.9123 0.0
C138 C 0.67148 0.42154 0.94433 0.0
C139 C 0.6334 0.44674 0.9307 0.0
C140 C 0.64807 0.34563 0.92236 0.0
C141 C 0.67992 0.37087 0.93995 0.0
C142 C 0.61025 0.37088 0.90863 0.0
C143 C 0.46092 0.53158 0.82645 0.0
C144 C 0.43043 0.51966 0.78235 0.0
C145 C 0.52108 0.51317 0.7917 0.0
C146 C 0.51121 0.52297 0.81783 0.0
C147 C 0.48082 0.51104 0.77359 0.0
C148 C 0.42064 0.5299 0.80852 0.0
C149 C 0.45011 0.5416 0.85404 0.0
O150 O 0.44033 0.50389 0.93134 0.0
O151 O 0.49683 0.5638 0.93004 0.0
O152 O 0.4856 0.56647 0.86662 0.0
O153 O 0.43207 0.50412 0.8672 0.0
H154 H 0.41257 0.62038 0.91636 0.0
H155 H 0.35239 0.68153 0.934 0.0
H156 H 0.35466 0.60681 1.00756 0.0
H157 H 0.41576 0.54689 0.98998 0.0
H158 H 0.69495 0.4419 0.958 0.0
H159 H 0.62867 0.48595 0.93406 0.0
H160 H 0.65387 0.30677 0.91831 0.0
H161 H 0.58761 0.35088 0.89445 0.0
H162 H 0.39841 0.51769 0.76908 0.0
H163 H 0.56046 0.50766 0.78569 0.0
H164 H 0.54298 0.52386 0.83131 0.0
H165 H 0.38153 0.53615 0.81481 0.0
C166 C 0.45759 0.4313 0.07841 0.0
C167 C 0.43951 0.40367 0.09934 0.0
C168 C 0.39103 0.3506 0.06995 0.0
C169 C 0.40658 0.36375 0.09516 0.0
C170 C 0.40834 0.37916 0.04906 0.0
C171 C 0.44148 0.41912 0.05327 0.0
U172 U 0.53378 0.51082 0.12498 0.0
O173 O 0.61374 0.53713 0.12341 0.0
O174 O 0.55032 0.59027 0.12578 0.0
C175 C 0.59999 0.58375 0.12297 0.0
C176 C 0.49408 0.47193 0.0828 0.0
C177 C 0.62612 0.61517 0.1038 0.0
C178 C 0.70139 0.66313 0.09213 0.0
C179 C 0.67696 0.6295 0.10841 0.0
C180 C 0.62489 0.66762 0.06581 0.0
C181 C 0.67535 0.68339 0.07091 0.0
C182 C 0.60052 0.63375 0.08206 0.0
C183 C 0.51625 0.48491 0.19758 0.0
C184 C 0.56657 0.52324 0.23182 0.0
C185 C 0.49183 0.47456 0.24262 0.0
C186 C 0.48339 0.46522 0.21631 0.0
C187 C 0.53344 0.50382 0.25075 0.0
C188 C 0.55798 0.51395 0.20546 0.0
C189 C 0.50571 0.47526 0.17002 0.0
O190 O 0.47502 0.51118 0.09441 0.0
O191 O 0.53864 0.45854 0.09227 0.0
O192 O 0.54393 0.45721 0.15629 0.0
O193 O 0.48032 0.51002 0.15798 0.0
H194 H 0.45132 0.41272 0.11891 0.0
H195 H 0.39331 0.34313 0.11173 0.0
H196 H 0.39739 0.36984 0.02941 0.0
H197 H 0.45507 0.4401 0.03688 0.0
H198 H 0.73997 0.67483 0.09686 0.0
H199 H 0.69737 0.61575 0.12511 0.0
H200 H 0.60395 0.68202 0.04945 0.0
H201 H 0.56134 0.62305 0.07799 0.0
H202 H 0.59934 0.54541 0.23735 0.0
H203 H 0.46504 0.45967 0.25655 0.0
H204 H 0.45082 0.44291 0.21056 0.0
H205 H 0.58377 0.5295 0.19124 0.0
H206 H 0.15752 0.19237 0.01142 0.0
H207 H 0.20618 0.07371 0.0617 0.0
H208 H 0.27893 0.1242 0.07659 0.0
H209 H 0.28574 0.23462 0.99361 0.0
H210 H 0.2681 0.29889 0.99409 0.0
H211 H 0.22092 0.25264 0.98621 0.0
H212 H 0.16221 0.28587 0.0229 0.0
H213 H 0.20922 0.33213 0.03091 0.0
H214 H 0.18683 0.29039 0.05542 0.0
H215 H 0.34462 0.18769 0.08729 0.0
H216 H 0.39955 0.26082 0.09318 0.0
H217 H 0.30855 0.33987 0.03679 0.0
C218 C 0.18381 0.1768 0.02533 0.0
C219 C 0.17604 0.12889 0.03532 0.0
C220 C 0.21109 0.11023 0.05375 0.0
C221 C 0.25269 0.13861 0.06232 0.0
C222 C 0.2589 0.18574 0.05235 0.0
C223 C 0.22557 0.20482 0.03425 0.0
C224 C 0.24025 0.2573 0.0274 0.0
C225 C 0.25461 0.26107 0.99862 0.0
C226 C 0.19705 0.29355 0.03459 0.0
C227 C 0.28677 0.26471 0.04461 0.0
C228 C 0.29684 0.22282 0.05874 0.0
C229 C 0.33714 0.22073 0.07633 0.0
C230 C 0.36792 0.26263 0.07968 0.0
C231 C 0.35829 0.30628 0.06559 0.0
C232 C 0.31726 0.307 0.04768 0.0
H233 H 0.1212 0.84778 0.97448 0.0
H234 H 0.16914 0.88705 0.05246 0.0
H235 H 0.23579 0.82259 0.05048 0.0
H236 H 0.14181 0.71546 0.97992 0.0
H237 H 0.1652 0.70904 0.94721 0.0
H238 H 0.11967 0.75678 0.95518 0.0
H239 H 0.1817 0.82245 0.93686 0.0
H240 H 0.22752 0.77497 0.92896 0.0
H241 H 0.24616 0.82632 0.94924 0.0
H242 H 0.29932 0.7561 0.03953 0.0
H243 H 0.35505 0.6919 0.02052 0.0
H244 H 0.26565 0.69502 0.94973 0.0
C245 C 0.1453 0.84255 0.99128 0.0
C246 C 0.13967 0.87255 0.01368 0.0
C247 C 0.17251 0.86464 0.03509 0.0
C248 C 0.21053 0.82806 0.03416 0.0
C249 C 0.21536 0.7996 0.0117 0.0
C250 C 0.1836 0.8063 0.99066 0.0
C251 C 0.19782 0.77162 0.96859 0.0
C252 C 0.15349 0.73612 0.96237 0.0
C253 C 0.21428 0.80058 0.94449 0.0
C254 C 0.24279 0.74463 0.98045 0.0
C255 C 0.2521 0.76124 1.00536 0.0
C256 C 0.2921 0.74249 0.02012 0.0
C257 C 0.32339 0.70576 0.00918 0.0
C258 C 0.31465 0.68796 0.98366 0.0
C259 C 0.27366 0.7079 0.9692 0.0
H260 H 0.90923 0.83956 0.01441 0.0
H261 H 0.80198 0.96038 1.00595 0.0
H262 H 0.73023 0.90452 0.01642 0.0
H263 H 0.82291 0.73803 0.99099 0.0
H264 H 0.84631 0.69585 0.01502 0.0
H265 H 0.88806 0.74279 1.00231 0.0
H266 H 0.9057 0.77434 0.04891 0.0
H267 H 0.86377 0.7279 0.06174 0.0
H268 H 0.85257 0.792 0.06934 0.0
H269 H 0.67152 0.83853 0.03221 0.0
H270 H 0.63029 0.76821 0.05384 0.0
H271 H 0.77555 0.69016 0.05389 0.0
C272 C 0.87041 0.85366 0.01385 0.0
C273 C 0.86089 0.904 0.00885 0.0
C274 C 0.80988 0.92177 0.00938 0.0
C275 C 0.76893 0.89029 0.01527 0.0
C276 C 0.77961 0.84117 0.02084 0.0
C277 C 0.82909 0.82285 0.02021 0.0
C278 C 0.83071 0.77018 0.02988 0.0
C279 C 0.84802 0.73461 0.00826 0.0
C280 C 0.86522 0.76589 0.05389 0.0
C281 C 0.77474 0.7623 0.03671 0.0
C282 C 0.74582 0.80339 0.03087 0.0
C283 C 0.69362 0.80585 0.0365 0.0
C284 C 0.67046 0.76555 0.04871 0.0
C285 C 0.69948 0.7234 0.05545 0.0
C286 C 0.75225 0.72177 0.04901 0.0
H287 H 0.83267 0.14096 0.99769 0.0
H288 H 0.97121 0.22812 0.98978 0.0
H289 H 0.91933 0.29973 0.97657 0.0
H290 H 0.7719 0.18696 0.94203 0.0
H291 H 0.70818 0.18675 0.95557 0.0
H292 H 0.75541 0.14387 0.96708 0.0
H293 H 0.74164 0.17581 0.01399 0.0
H294 H 0.69421 0.21877 1.00262 0.0
H295 H 0.74838 0.24073 0.021 0.0
H296 H 0.85315 0.36058 0.96219 0.0
H297 H 0.77791 0.40509 0.94539 0.0
H298 H 0.68219 0.278 0.96132 0.0
C299 C 0.85199 0.17539 0.99365 0.0
C300 C 0.906 0.17908 0.995 0.0
C301 C 0.92991 0.22446 0.98895 0.0
C302 C 0.90074 0.26541 0.98152 0.0
C303 C 0.84768 0.26036 0.98005 0.0
C304 C 0.82348 0.21648 0.98584 0.0
C305 C 0.7663 0.21984 0.98089 0.0
C306 C 0.74948 0.18212 0.96016 0.0
C307 C 0.73584 0.21341 1.00613 0.0
C308 C 0.76228 0.27219 0.97103 0.0
C309 C 0.80957 0.29512 0.97107 0.0
C310 C 0.81584 0.34316 0.96227 0.0
C311 C 0.77278 0.36826 0.9529 0.0
C312 C 0.72405 0.3452 0.95215 0.0
C313 C 0.71891 0.29662 0.96159 0.0
H314 H 0.68058 0.67932 0.50238 0.0
H315 H 0.65554 0.61829 0.57878 0.0
H316 H 0.71344 0.68039 0.59763 0.0
H317 H 0.81442 0.70141 0.51124 0.0
H318 H 0.81581 0.7581 0.4933 0.0
H319 H 0.76884 0.7116 0.48565 0.0
H320 H 0.69617 0.77552 0.49245 0.0
H321 H 0.74298 0.82225 0.50016 0.0
H322 H 0.69204 0.80906 0.52267 0.0
H323 H 0.77427 0.74658 0.6085 0.0
H324 H 0.84004 0.81129 0.61066 0.0
H325 H 0.83186 0.82812 0.52721 0.0
C326 C 0.68693 0.67959 0.52309 0.0
C327 C 0.66347 0.64411 0.53915 0.0
C328 C 0.67328 0.64498 0.56611 0.0
C329 C 0.70589 0.68027 0.57705 0.0
C330 C 0.72889 0.71433 0.56077 0.0
C331 C 0.72034 0.71428 0.53437 0.0
C332 C 0.75289 0.7533 0.52129 0.0
C333 C 0.7902 0.72968 0.50172 0.0
C334 C 0.71898 0.79235 0.50838 0.0
C335 C 0.78119 0.77474 0.54447 0.0
C336 C 0.76609 0.75195 0.56702 0.0
C337 C 0.78671 0.76461 0.59097 0.0
C338 C 0.82444 0.80117 0.59195 0.0
C339 C 0.84187 0.82438 0.56908 0.0
C340 C 0.81928 0.81131 0.54505 0.0
H341 H 0.64808 0.33781 0.47228 0.0
H342 H 0.72203 0.41189 0.53714 0.0
H343 H 0.79434 0.35403 0.53399 0.0
H344 H 0.68599 0.21453 0.48938 0.0
H345 H 0.69657 0.19464 0.45642 0.0
H346 H 0.65024 0.24218 0.46344 0.0
H347 H 0.6965 0.30069 0.43165 0.0
H348 H 0.74301 0.25333 0.42456 0.0
H349 H 0.76386 0.3131 0.43587 0.0
H350 H 0.85864 0.28871 0.52428 0.0
H351 H 0.91138 0.21941 0.50835 0.0
H352 H 0.79646 0.18605 0.45006 0.0
C353 C 0.67947 0.3419 0.48581 0.0
C354 C 0.67913 0.37957 0.50497 0.0
C355 C 0.72113 0.38349 0.52228 0.0
C356 C 0.76253 0.35076 0.52067 0.0
C357 C 0.76164 0.31416 0.50164 0.0
C358 C 0.72133 0.30943 0.48449 0.0
C359 C 0.73016 0.26654 0.46594 0.0
C360 C 0.68825 0.22714 0.46899 0.0
C361 C 0.73359 0.2845 0.43784 0.0
C362 C 0.78164 0.248 0.47543 0.0
C363 C 0.79899 0.27609 0.49604 0.0
C364 C 0.84541 0.26627 0.50821 0.0
C365 C 0.87494 0.22658 0.49912 0.0
C366 C 0.85802 0.19697 0.47807 0.0
C367 C 0.8107 0.20814 0.46606 0.0
H368 H 0.35252 0.4102 0.54383 0.0
H369 H 0.42916 0.3264 0.48312 0.0
H370 H 0.3703 0.25645 0.4909 0.0
H371 H 0.33884 0.3133 0.58673 0.0
H372 H 0.2771 0.33245 0.59887 0.0
H373 H 0.321 0.37752 0.58639 0.0
H374 H 0.25212 0.40714 0.55394 0.0
H375 H 0.20778 0.36228 0.56644 0.0
H376 H 0.2224 0.36315 0.53234 0.0
H377 H 0.30723 0.1929 0.50832 0.0
H378 H 0.24716 0.14205 0.53388 0.0
H379 H 0.21273 0.26893 0.58262 0.0
C380 C 0.35653 0.37759 0.53175 0.0
C381 C 0.39548 0.374 0.51276 0.0
C382 C 0.3995 0.33022 0.49769 0.0
C383 C 0.3662 0.29029 0.50196 0.0
C384 C 0.32896 0.29483 0.52127 0.0
C385 C 0.3239 0.33758 0.5358 0.0
C386 C 0.28333 0.33237 0.55654 0.0
C387 C 0.30647 0.33931 0.58373 0.0
C388 C 0.23876 0.36837 0.55203 0.0
C389 C 0.26698 0.27959 0.55185 0.0
C390 C 0.29324 0.25855 0.53129 0.0
C391 C 0.28603 0.20926 0.52424 0.0
C392 C 0.25165 0.18071 0.5388 0.0
C393 C 0.22522 0.20144 0.56028 0.0
C394 C 0.23257 0.2518 0.56646 0.0
H395 H 0.42667 0.67575 0.46996 0.0
H396 H 0.34782 0.62042 0.53784 0.0
H397 H 0.27585 0.67725 0.52951 0.0
H398 H 0.38507 0.80393 0.47603 0.0
H399 H 0.37771 0.81121 0.44159 0.0
H400 H 0.4246 0.76874 0.45396 0.0
H401 H 0.38395 0.69805 0.42687 0.0
H402 H 0.33697 0.74024 0.41445 0.0
H403 H 0.31662 0.68482 0.43049 0.0
H404 H 0.21085 0.73791 0.51277 0.0
H405 H 0.15723 0.79649 0.48849 0.0
H406 H 0.2774 0.80975 0.43072 0.0
C407 C 0.39466 0.67604 0.48332 0.0
C408 C 0.39312 0.64376 0.50467 0.0
C409 C 0.34999 0.64482 0.52139 0.0
C410 C 0.30894 0.67707 0.51686 0.0
C411 C 0.31146 0.70795 0.49547 0.0
C412 C 0.35319 0.70768 0.47897 0.0
C413 C 0.3453 0.7427 0.45663 0.0
C414 C 0.38556 0.7841 0.4571 0.0
C415 C 0.34572 0.71477 0.43058 0.0
C416 C 0.2924 0.76239 0.46301 0.0
C417 C 0.27369 0.74218 0.48558 0.0
C418 C 0.22516 0.754 0.49508 0.0
C419 C 0.19483 0.78708 0.48104 0.0
C420 C 0.21291 0.8078 0.45763 0.0
C421 C 0.26261 0.79532 0.44872 0.0
H422 H 0.04965 1.00594 0.12352 0.0
H423 H 0.89402 0.04883 0.10404 0.0
H424 H 0.87226 0.05305 0.15039 0.0
H425 H 0.01687 0.92973 0.17803 0.0
H426 H 0.07161 0.94845 0.19695 0.0
H427 H 0.07523 0.94829 0.16213 0.0
H428 H 0.10192 0.04031 0.16304 0.0
H429 H 0.09833 0.04077 0.19786 0.0
H430 H 0.06176 0.08469 0.17953 0.0
H431 H 0.86704 0.05333 0.19856 0.0
H432 H 0.87889 0.05029 0.2458 0.0
H433 H 0.03758 1.00662 0.23456 0.0
C434 C 1.01094 0.0161 0.12896 0.0
C435 C 0.97356 0.02701 0.11002 0.0
C436 C 0.92342 0.04034 0.11808 0.0
C437 C 0.91061 0.04281 0.1444 0.0
C438 C 0.94831 0.03194 0.16251 0.0
C439 C 0.99746 0.0189 0.15521 0.0
C440 C 0.0308 1.0095 0.17868 0.0
C441 C 0.04973 0.9558 0.17896 0.0
C442 C 0.07586 0.046 0.17984 0.0
C443 C 0.99263 0.01933 0.20028 0.0
C444 C 0.94529 0.03213 0.19046 0.0
C445 C 0.90385 0.04309 0.2065 0.0
C446 C 0.9109 0.04091 0.23333 0.0
C447 C 0.95903 0.0278 0.24395 0.0
C448 C 1.00041 0.017 0.22708 0.0
H449 H 1.00764 0.95798 0.90407 0.0
H450 H 0.07777 0.10221 0.91412 0.0
H451 H 0.085 0.11014 0.86683 0.0
H452 H 0.08433 0.91948 0.84865 0.0
H453 H 0.0318 0.88827 0.8329 0.0
H454 H 0.03349 0.89303 0.86769 0.0
H455 H 0.94365 0.93377 0.86756 0.0
H456 H 0.94177 0.9293 0.83278 0.0
H457 H 0.93316 0.98827 0.84855 0.0
H458 H 0.0822 0.10408 0.81853 0.0
H459 H 0.06996 0.08403 0.77234 0.0
H460 H 1.00335 0.94308 0.79328 0.0
C461 C 0.02486 0.9911 0.89636 0.0
C462 C 0.04216 0.02943 0.91294 0.0
C463 C 0.06418 0.07226 0.90194 0.0
C464 C 0.06852 0.07716 0.87505 0.0
C465 C 0.05077 0.03893 0.85931 0.0
C466 C 0.02948 0.99667 0.86951 0.0
C467 C 0.01252 0.96153 0.84819 0.0
C468 C 0.04233 0.91269 0.84944 0.0
C469 C 0.95432 0.95272 0.84935 0.0
C470 C 0.0273 0.99086 0.82447 0.0
C471 C 0.0494 0.03533 0.83135 0.0
C472 C 0.06536 0.06915 0.81288 0.0
C473 C 0.05854 0.05725 0.78665 0.0
C474 C 0.03599 0.01182 0.77903 0.0
C475 C 0.02034 0.97827 0.79836 0.0
H476 H 0.45728 0.53866 0.6195 0.0
H477 H 0.58482 0.43637 0.61316 0.0
H478 H 0.58477 0.42651 0.66051 0.0
H479 H 0.50192 0.59955 0.67643 0.0
H480 H 0.43923 0.60798 0.69051 0.0
H481 H 0.4464 0.60439 0.65588 0.0
H482 H 0.38119 0.5324 0.65408 0.0
H483 H 0.3738 0.53578 0.68873 0.0
H484 H 0.39203 0.47841 0.67343 0.0
H485 H 0.5726 0.42875 0.70836 0.0
H486 H 0.5513 0.44541 0.75403 0.0
H487 H 0.43472 0.54988 0.73008 0.0
C488 C 0.4847 0.5137 0.62807 0.0
C489 C 0.52089 0.48808 0.61258 0.0
C490 C 0.55676 0.45641 0.62459 0.0
C491 C 0.55694 0.45041 0.65149 0.0
C492 C 0.52123 0.47654 0.66621 0.0
C493 C 0.48588 0.50772 0.65502 0.0
C494 C 0.45354 0.53341 0.67552 0.0
C495 C 0.46073 0.58966 0.67452 0.0
C496 C 0.39677 0.51913 0.67277 0.0
C497 C 0.4766 0.51208 0.69993 0.0
C498 C 0.51523 0.479 0.69405 0.0
C499 C 0.54255 0.45474 0.71323 0.0
C500 C 0.53041 0.46483 0.73917 0.0
C501 C 0.49163 0.49937 0.74584 0.0
C502 C 0.4642 0.52292 0.72578 0.0
H503 H 0.5265 0.45185 0.4032 0.0
H504 H 0.5734 0.60414 0.41493 0.0
H505 H 0.5776 0.61532 0.36772 0.0
H506 H 0.60637 0.42768 0.34682 0.0
H507 H 0.55885 0.38988 0.33095 0.0
H508 H 0.56095 0.39319 0.36577 0.0
H509 H 0.46574 0.42034 0.36679 0.0
H510 H 0.46339 0.41722 0.33198 0.0
H511 H 0.44611 0.47353 0.34861 0.0
H512 H 0.57442 0.61106 0.31923 0.0
H513 H 0.56362 0.59155 0.27285 0.0
H514 H 0.5203 0.44174 0.29233 0.0
C515 C 0.53797 0.48749 0.39589 0.0
C516 C 0.54968 0.52707 0.41293 0.0
C517 C 0.56425 0.57315 0.40241 0.0
C518 C 0.56681 0.57992 0.37556 0.0
C519 C 0.55477 0.5403 0.35937 0.0
C520 C 0.54071 0.49496 0.36909 0.0
C521 C 0.52875 0.45874 0.34739 0.0
C522 C 0.56596 0.41478 0.34776 0.0
C523 C 0.47266 0.44146 0.34878 0.0
C524 C 0.53791 0.49097 0.32399 0.0
C525 C 0.55306 0.53782 0.33134 0.0
C526 C 0.56296 0.57436 0.31322 0.0
C527 C 0.55704 0.5628 0.28687 0.0
C528 C 0.54134 0.51503 0.27879 0.0
C529 C 0.53193 0.47873 0.29777 0.0
loop_
_geom_bond_atom_site_label_1
_geom_bond_atom_site_label_2
_geom_bond_distance
_geom_bond_site_symmetry_2
_ccdc_geom_bond_type
O0 Zn1 1.953 . S
O0 C16 1.225 1_565 S
Zn1 O0 1.953 . S
Zn1 O2 1.949 1_565 S
Zn1 O8 1.919 . S
Zn1 O13 1.924 1_565 S
O2 Zn1 1.949 1_545 S
O2 Zn3 1.923 1_444 S
O2 Zn4 1.950 1_455 S
O2 Zn5 1.945 1_554 S
Zn3 O2 1.923 1_666 S
Zn3 O6 1.933 . S
Zn3 O9 1.941 1_655 S
Zn3 O10 1.965 . S
Zn4 O2 1.950 1_655 S
Zn4 O11 1.938 1_545 S
Zn4 O12 1.906 . S
Zn4 O22 1.953 . S
Zn5 O2 1.945 1_556 S
Zn5 O7 1.932 . S
Zn5 O14 1.977 1_455 S
Zn5 O15 1.910 . S
O6 Zn3 1.933 . S
O6 C17 1.226 1_665 S
O7 Zn5 1.932 . S
O7 C17 1.307 . S
O8 Zn1 1.919 . S
O8 C19 1.253 1_554 S
O9 Zn3 1.941 1_455 S
O9 C19 1.283 . S
O10 Zn3 1.965 . S
O10 C18 1.303 1_556 S
O11 Zn4 1.938 1_565 S
O11 C18 1.247 . S
O12 Zn4 1.906 . S
O12 C20 1.304 1_554 S
O13 Zn1 1.924 1_545 S
O13 C21 1.311 . S
O14 Zn5 1.977 1_655 S
O14 C20 1.272 . S
O15 Zn5 1.910 . S
O15 C21 1.231 1_556 S
C16 O0 1.225 1_545 S
C16 O22 1.298 1_455 S
C17 O6 1.226 1_445 S
C17 O7 1.307 . S
C18 O10 1.303 1_554 S
C18 O11 1.247 . S
C19 O8 1.253 1_556 S
C19 O9 1.283 . S
C20 O12 1.304 1_556 S
C20 O14 1.272 . S
C21 O13 1.311 . S
C21 O15 1.231 1_554 S
O22 Zn4 1.953 . S
O22 C16 1.298 1_655 S
O23 Zn24 1.953 . S
O23 C39 1.225 . S
Zn24 O23 1.953 . S
Zn24 O25 1.949 . S
Zn24 O31 1.919 . S
Zn24 O36 1.924 . S
O25 Zn24 1.949 . S
O25 Zn26 1.923 . S
O25 Zn27 1.950 . S
O25 Zn28 1.945 . S
Zn26 O25 1.923 . S
Zn26 O29 1.933 . S
Zn26 O32 1.941 . S
Zn26 O33 1.965 . S
Zn27 O25 1.950 . S
Zn27 O34 1.938 . S
Zn27 O35 1.906 . S
Zn27 O45 1.953 . S
Zn28 O25 1.945 . S
Zn28 O30 1.932 . S
Zn28 O37 1.977 . S
Zn28 O38 1.910 . S
O29 Zn26 1.933 . S
O29 C40 1.226 . S
O30 Zn28 1.932 . S
O30 C40 1.307 . S
O31 Zn24 1.919 . S
O31 C42 1.253 . S
O32 Zn26 1.941 . S
O32 C42 1.283 . S
O33 Zn26 1.965 . S
O33 C41 1.303 . S
O34 Zn27 1.938 . S
O34 C41 1.247 . S
O35 Zn27 1.906 . S
O35 C43 1.304 . S
O36 Zn24 1.924 . S
O36 C44 1.311 . S
O37 Zn28 1.977 . S
O37 C43 1.272 . S
O38 Zn28 1.910 . S
O38 C44 1.231 . S
C39 O23 1.225 . S
C39 O45 1.298 . S
C40 O29 1.226 . S
C40 O30 1.307 . S
C41 O33 1.303 . S
C41 O34 1.247 . S
C42 O31 1.253 . S
C42 O32 1.283 . S
C43 O35 1.304 . S
C43 O37 1.272 . S
C44 O36 1.311 . S
C44 O38 1.231 . S
O45 Zn27 1.953 . S
O45 C39 1.298 . S
C46 C47 1.264 . S
C46 C51 1.479 . S
C46 C56 1.465 . S
C47 C46 1.264 . S
C47 C49 1.339 . S
C47 H74 0.931 . S
C48 C49 1.395 . S
C48 C50 1.320 . S
C49 C47 1.339 . S
C49 C48 1.395 . S
C49 H75 0.929 . S
C50 C48 1.320 . S
C50 C51 1.405 . S
C50 H76 0.930 . S
C51 C46 1.479 . S
C51 C50 1.405 . S
C51 H77 0.931 . S
U52 O53 2.454 1_545 S
U52 O54 2.458 1_545 S
U52 C55 2.984 1_545 S
U52 C56 2.847 1_455 S
U52 C69 2.882 . S
U52 O70 2.441 1_455 S
U52 O71 2.420 1_455 S
U52 O72 2.455 1_545 S
U52 O73 2.449 . S
O53 U52 2.454 1_565 S
O53 C55 1.353 . S
O54 U52 2.458 1_565 S
O54 C55 1.286 . S
C55 U52 2.984 1_565 S
C55 O53 1.353 . S
C55 O54 1.286 . S
C55 C57 1.363 . S
C56 C46 1.465 . S
C56 U52 2.847 1_655 S
C56 O70 1.249 . S
C56 O71 1.202 . S
C57 C55 1.363 . S
C57 C59 1.408 . S
C57 C62 1.342 . S
C58 C59 1.310 . S
C58 C61 1.461 . S
C58 H78 0.932 . S
C59 C57 1.408 . S
C59 C58 1.310 . S
C59 H79 0.930 . S
C60 C61 1.474 . S
C60 C62 1.285 . S
C60 H80 0.929 . S
C61 C58 1.461 . S
C61 C60 1.474 . S
C62 C57 1.342 . S
C62 C60 1.285 . S
C62 H81 0.930 . S
C63 C66 1.424 1_455 S
C63 C68 1.245 1_545 S
C63 C69 1.428 . S
C64 C67 1.260 1_565 S
C64 C68 1.477 . S
C64 H82 0.932 . S
C65 C66 1.384 . S
C65 C67 1.479 1_655 S
C65 H83 0.929 . S
C66 C63 1.424 1_655 S
C66 C65 1.384 . S
C66 H84 0.928 . S
C67 C64 1.260 1_545 S
C67 C65 1.479 1_455 S
C68 C63 1.245 1_565 S
C68 C64 1.477 . S
C68 H85 0.932 . S
C69 U52 2.882 . S
C69 C63 1.428 . S
C69 O72 1.301 1_545 S
C69 O73 1.282 . S
O70 U52 2.441 1_655 S
O70 C56 1.249 . S
O71 U52 2.420 1_655 S
O71 C56 1.202 . S
O72 U52 2.455 1_565 S
O72 C69 1.301 1_565 S
O73 U52 2.449 . S
O73 C69 1.282 . S
H74 C47 0.931 . S
H75 C49 0.929 . S
H76 C50 0.930 . S
H77 C51 0.931 . S
H78 C58 0.932 . S
H79 C59 0.930 . S
H80 C60 0.929 . S
H81 C62 0.930 . S
H82 C64 0.932 . S
H83 C65 0.929 . S
H84 C66 0.928 . S
H85 C68 0.932 . S
C86 C87 1.264 . S
C86 C91 1.479 . S
C86 C96 1.465 . S
C87 C86 1.264 . S
C87 C89 1.339 . S
C87 H114 0.931 . S
C88 C89 1.395 . S
C88 C90 1.320 . S
C89 C87 1.339 . S
C89 C88 1.395 . S
C89 H115 0.929 . S
C90 C88 1.320 . S
C90 C91 1.405 . S
C90 H116 0.930 . S
C91 C86 1.479 . S
C91 C90 1.405 . S
C91 H117 0.931 . S
U92 O93 2.454 1_565 S
U92 O94 2.458 1_565 S
U92 C95 2.984 1_565 S
U92 C96 2.847 1_455 S
U92 C109 2.882 . S
U92 O110 2.441 1_455 S
U92 O111 2.420 1_455 S
U92 O112 2.455 1_565 S
U92 O113 2.449 . S
O93 U92 2.454 1_545 S
O93 C95 1.353 . S
O94 U92 2.458 1_545 S
O94 C95 1.286 . S
C95 U92 2.984 1_545 S
C95 O93 1.353 . S
C95 O94 1.286 . S
C95 C97 1.363 . S
C96 C86 1.465 . S
C96 U92 2.847 1_655 S
C96 O110 1.249 . S
C96 O111 1.202 . S
C97 C95 1.363 . S
C97 C99 1.408 . S
C97 C102 1.342 . S
C98 C99 1.310 . S
C98 C101 1.461 . S
C98 H118 0.932 . S
C99 C97 1.408 . S
C99 C98 1.310 . S
C99 H119 0.930 . S
C100 C101 1.474 . S
C100 C102 1.285 . S
C100 H120 0.929 . S
C101 C98 1.461 . S
C101 C100 1.474 . S
C102 C97 1.342 . S
C102 C100 1.285 . S
C102 H121 0.930 . S
C103 C106 1.424 1_455 S
C103 C108 1.245 1_565 S
C103 C109 1.428 . S
C104 C107 1.260 1_545 S
C104 C108 1.477 . S
C104 H122 0.932 . S
C105 C106 1.384 . S
C105 C107 1.479 1_655 S
C105 H123 0.929 . S
C106 C103 1.424 1_655 S
C106 C105 1.384 . S
C106 H124 0.928 . S
C107 C104 1.260 1_565 S
C107 C105 1.479 1_455 S
C108 C103 1.245 1_545 S
C108 C104 1.477 . S
C108 H125 0.932 . S
C109 U92 2.882 . S
C109 C103 1.428 . S
C109 O112 1.301 1_565 S
C109 O113 1.282 . S
O110 U92 2.441 1_655 S
O110 C96 1.249 . S
O111 U92 2.420 1_655 S
O111 C96 1.202 . S
O112 U92 2.455 1_545 S
O112 C109 1.301 1_545 S
O113 U92 2.449 . S
O113 C109 1.282 . S
H114 C87 0.931 . S
H115 C89 0.929 . S
H116 C90 0.930 . S
H117 C91 0.931 . S
H118 C98 0.932 . S
H119 C99 0.930 . S
H120 C100 0.929 . S
H121 C102 0.930 . S
H122 C104 0.932 . S
H123 C105 0.929 . S
H124 C106 0.928 . S
H125 C108 0.932 . S
C126 C127 1.264 . S
C126 C131 1.479 . S
C126 C136 1.465 . S
C127 C126 1.264 . S
C127 C129 1.339 . S
C127 H154 0.931 . S
C128 C129 1.395 . S
C128 C130 1.320 . S
C129 C127 1.339 . S
C129 C128 1.395 . S
C129 H155 0.929 . S
C130 C128 1.320 . S
C130 C131 1.405 . S
C130 H156 0.930 . S
C131 C126 1.479 . S
C131 C130 1.405 . S
C131 H157 0.931 . S
U132 O133 2.454 . S
U132 O134 2.458 . S
U132 C135 2.984 . S
U132 C136 2.847 . S
U132 C149 2.882 . S
U132 O150 2.441 . S
U132 O151 2.420 . S
U132 O152 2.455 . S
U132 O153 2.449 . S
O133 U132 2.454 . S
O133 C135 1.353 . S
O134 U132 2.458 . S
O134 C135 1.286 . S
C135 U132 2.984 . S
C135 O133 1.353 . S
C135 O134 1.286 . S
C135 C137 1.363 . S
C136 C126 1.465 . S
C136 U132 2.847 . S
C136 O150 1.249 . S
C136 O151 1.202 . S
C137 C135 1.363 . S
C137 C139 1.408 . S
C137 C142 1.342 . S
C138 C139 1.310 . S
C138 C141 1.461 . S
C138 H158 0.932 . S
C139 C137 1.408 . S
C139 C138 1.310 . S
C139 H159 0.930 . S
C140 C141 1.474 . S
C140 C142 1.285 . S
C140 H160 0.929 . S
C141 C138 1.461 . S
C141 C140 1.474 . S
C142 C137 1.342 . S
C142 C140 1.285 . S
C142 H161 0.930 . S
C143 C146 1.424 . S
C143 C148 1.245 . S
C143 C149 1.428 . S
C144 C147 1.260 . S
C144 C148 1.477 . S
C144 H162 0.932 . S
C145 C146 1.384 . S
C145 C147 1.479 . S
C145 H163 0.929 . S
C146 C143 1.424 . S
C146 C145 1.384 . S
C146 H164 0.928 . S
C147 C144 1.260 . S
C147 C145 1.479 . S
C148 C143 1.245 . S
C148 C144 1.477 . S
C148 H165 0.932 . S
C149 U132 2.882 . S
C149 C143 1.428 . S
C149 O152 1.301 . S
C149 O153 1.282 . S
O150 U132 2.441 . S
O150 C136 1.249 . S
O151 U132 2.420 . S
O151 C136 1.202 . S
O152 U132 2.455 . S
O152 C149 1.301 . S
O153 U132 2.449 . S
O153 C149 1.282 . S
H154 C127 0.931 . S
H155 C129 0.929 . S
H156 C130 0.930 . S
H157 C131 0.931 . S
H158 C138 0.932 . S
H159 C139 0.930 . S
H160 C140 0.929 . S
H161 C142 0.930 . S
H162 C144 0.932 . S
H163 C145 0.929 . S
H164 C146 0.928 . S
H165 C148 0.932 . S
C166 C167 1.264 . S
C166 C171 1.479 . S
C166 C176 1.465 . S
C167 C166 1.264 . S
C167 C169 1.339 . S
C167 H194 0.931 . S
C168 C169 1.395 . S
C168 C170 1.320 . S
C169 C167 1.339 . S
C169 C168 1.395 . S
C169 H195 0.929 . S
C170 C168 1.320 . S
C170 C171 1.405 . S
C170 H196 0.930 . S
C171 C166 1.479 . S
C171 C170 1.405 . S
C171 H197 0.931 . S
U172 O173 2.454 . S
U172 O174 2.458 . S
U172 C175 2.984 . S
U172 C176 2.847 . S
U172 C189 2.882 . S
U172 O190 2.441 . S
U172 O191 2.420 . S
U172 O192 2.455 . S
U172 O193 2.449 . S
O173 U172 2.454 . S
O173 C175 1.353 . S
O174 U172 2.458 . S
O174 C175 1.286 . S
C175 U172 2.984 . S
C175 O173 1.353 . S
C175 O174 1.286 . S
C175 C177 1.363 . S
C176 C166 1.465 . S
C176 U172 2.847 . S
C176 O190 1.249 . S
C176 O191 1.202 . S
C177 C175 1.363 . S
C177 C179 1.408 . S
C177 C182 1.342 . S
C178 C179 1.310 . S
C178 C181 1.461 . S
C178 H198 0.932 . S
C179 C177 1.408 . S
C179 C178 1.310 . S
C179 H199 0.930 . S
C180 C181 1.474 . S
C180 C182 1.285 . S
C180 H200 0.929 . S
C181 C178 1.461 . S
C181 C180 1.474 . S
C182 C177 1.342 . S
C182 C180 1.285 . S
C182 H201 0.930 . S
C183 C186 1.424 . S
C183 C188 1.245 . S
C183 C189 1.428 . S
C184 C187 1.260 . S
C184 C188 1.477 . S
C184 H202 0.932 . S
C185 C186 1.384 . S
C185 C187 1.479 . S
C185 H203 0.929 . S
C186 C183 1.424 . S
C186 C185 1.384 . S
C186 H204 0.928 . S
C187 C184 1.260 . S
C187 C185 1.479 . S
C188 C183 1.245 . S
C188 C184 1.477 . S
C188 H205 0.932 . S
C189 U172 2.882 . S
C189 C183 1.428 . S
C189 O192 1.301 . S
C189 O193 1.282 . S
O190 U172 2.441 . S
O190 C176 1.249 . S
O191 U172 2.420 . S
O191 C176 1.202 . S
O192 U172 2.455 . S
O192 C189 1.301 . S
O193 U172 2.449 . S
O193 C189 1.282 . S
H194 C167 0.931 . S
H195 C169 0.929 . S
H196 C170 0.930 . S
H197 C171 0.931 . S
H198 C178 0.932 . S
H199 C179 0.930 . S
H200 C180 0.929 . S
H201 C182 0.930 . S
H202 C184 0.932 . S
H203 C185 0.929 . S
H204 C186 0.928 . S
H205 C188 0.932 . S
H206 C218 0.930 . S
H207 C220 0.930 . S
H208 C221 0.930 . S
H209 C225 0.932 1_556 S
H210 C225 0.959 . S
H211 C225 0.961 . S
H212 C226 0.960 . S
H213 C226 0.961 . S
H214 C226 0.959 . S
H215 C229 0.929 . S
H216 C230 0.931 . S
H217 C232 0.930 . S
C218 H206 0.930 . S
C218 C219 1.399 . S
C218 C223 1.399 . S
C219 C218 1.399 . S
C219 C220 1.376 . S
C220 H207 0.930 . S
C220 C219 1.376 . S
C220 C221 1.388 . S
C221 H208 0.930 . S
C221 C220 1.388 . S
C221 C222 1.390 . S
C222 C221 1.390 . S
C222 C223 1.394 . S
C222 C228 1.465 . S
C223 C218 1.399 . S
C223 C222 1.394 . S
C223 C224 1.516 . S
C224 C223 1.516 . S
C224 C225 1.502 . S
C224 C226 1.561 . S
C224 C227 1.526 . S
C225 H209 0.932 1_554 S
C225 H210 0.959 . S
C225 H211 0.961 . S
C225 C224 1.502 . S
C226 H212 0.960 . S
C226 H213 0.961 . S
C226 H214 0.959 . S
C226 C224 1.561 . S
C227 C224 1.526 . S
C227 C228 1.396 . S
C227 C232 1.390 . S
C228 C222 1.465 . S
C228 C227 1.396 . S
C228 C229 1.399 . S
C229 H215 0.929 . S
C229 C228 1.399 . S
C229 C230 1.385 . S
C230 H216 0.931 . S
C230 C229 1.385 . S
C230 C231 1.389 . S
C231 C230 1.389 . S
C231 C232 1.387 . S
C232 H217 0.930 . S
C232 C227 1.390 . S
C232 C231 1.387 . S
H233 C245 0.930 . S
H234 C247 0.930 . S
H235 C248 0.930 . S
H236 C252 0.959 . S
H237 C252 0.959 . S
H238 C252 0.961 . S
H239 C253 0.960 . S
H240 C253 0.961 . S
H241 C253 0.959 . S
H242 C256 0.929 . S
H243 C257 0.931 1_554 S
H244 C259 0.930 . S
C245 H233 0.930 . S
C245 C246 1.399 . S
C245 C250 1.399 . S
C246 C245 1.399 . S
C246 C247 1.376 1_556 S
C247 H234 0.930 . S
C247 C246 1.376 1_554 S
C247 C248 1.388 . S
C248 H235 0.930 . S
C248 C247 1.388 . S
C248 C249 1.390 1_554 S
C249 C248 1.390 1_556 S
C249 C250 1.394 . S
C249 C255 1.465 . S
C250 C245 1.399 . S
C250 C249 1.394 . S
C250 C251 1.516 . S
C251 C250 1.516 . S
C251 C252 1.502 . S
C251 C253 1.561 . S
C251 C254 1.526 . S
C252 H236 0.959 . S
C252 H237 0.959 . S
C252 H238 0.961 . S
C252 C251 1.502 . S
C253 H239 0.960 . S
C253 H240 0.961 . S
C253 H241 0.959 . S
C253 C251 1.561 . S
C254 C251 1.526 . S
C254 C255 1.396 . S
C254 C259 1.390 . S
C255 C249 1.465 . S
C255 C254 1.396 . S
C255 C256 1.399 1_556 S
C256 H242 0.929 . S
C256 C255 1.399 1_554 S
C256 C257 1.385 1_554 S
C257 H243 0.931 1_556 S
C257 C256 1.385 1_556 S
C257 C258 1.389 . S
C258 C257 1.389 . S
C258 C259 1.387 . S
C259 H244 0.930 . S
C259 C254 1.390 . S
C259 C258 1.387 . S
H260 C272 0.930 1_556 S
H261 C274 0.930 . S
H262 C275 0.930 . S
H263 C279 0.959 . S
H264 C279 0.959 . S
H265 C279 0.961 . S
H266 C280 0.960 . S
H267 C280 0.961 . S
H268 C280 0.959 . S
H269 C283 0.929 . S
H270 C284 0.931 . S
H271 C286 0.930 . S
C272 H260 0.930 1_554 S
C272 C273 1.399 . S
C272 C277 1.399 . S
C273 C272 1.399 . S
C273 C274 1.376 . S
C274 H261 0.930 . S
C274 C273 1.376 . S
C274 C275 1.388 . S
C275 H262 0.930 . S
C275 C274 1.388 . S
C275 C276 1.390 . S
C276 C275 1.390 . S
C276 C277 1.394 . S
C276 C282 1.465 . S
C277 C272 1.399 . S
C277 C276 1.394 . S
C277 C278 1.516 . S
C278 C277 1.516 . S
C278 C279 1.502 1_554 S
C278 C280 1.561 1_554 S
C278 C281 1.526 . S
C279 H263 0.959 . S
C279 H264 0.959 . S
C279 H265 0.961 . S
C279 C278 1.502 1_556 S
C280 H266 0.960 . S
C280 H267 0.961 . S
C280 H268 0.959 . S
C280 C278 1.561 1_556 S
C281 C278 1.526 . S
C281 C282 1.396 . S
C281 C286 1.390 . S
C282 C276 1.465 . S
C282 C281 1.396 . S
C282 C283 1.399 . S
C283 H269 0.929 . S
C283 C282 1.399 . S
C283 C284 1.385 . S
C284 H270 0.931 . S
C284 C283 1.385 . S
C284 C285 1.389 . S
C285 C284 1.389 . S
C285 C286 1.387 . S
C286 H271 0.930 . S
C286 C281 1.390 . S
C286 C285 1.387 . S
H287 C299 0.930 1_554 S
H288 C301 0.930 . S
H289 C302 0.930 . S
H290 C306 0.959 . S
H291 C306 0.959 . S
H292 C306 0.961 . S
H293 C307 0.960 . S
H294 C307 0.961 . S
H295 C307 0.959 . S
H296 C310 0.929 . S
H297 C311 0.931 . S
H298 C313 0.930 . S
C299 H287 0.930 1_556 S
C299 C300 1.399 . S
C299 C304 1.399 . S
C300 C299 1.399 . S
C300 C301 1.376 . S
C301 H288 0.930 . S
C301 C300 1.376 . S
C301 C302 1.388 . S
C302 H289 0.930 . S
C302 C301 1.388 . S
C302 C303 1.390 . S
C303 C302 1.390 . S
C303 C304 1.394 . S
C303 C309 1.465 . S
C304 C299 1.399 . S
C304 C303 1.394 . S
C304 C305 1.516 . S
C305 C304 1.516 . S
C305 C306 1.502 . S
C305 C307 1.561 1_556 S
C305 C308 1.526 . S
C306 H290 0.959 . S
C306 H291 0.959 . S
C306 H292 0.961 . S
C306 C305 1.502 . S
C307 H293 0.960 . S
C307 H294 0.961 . S
C307 H295 0.959 . S
C307 C305 1.561 1_554 S
C308 C305 1.526 . S
C308 C309 1.396 . S
C308 C313 1.390 . S
C309 C303 1.465 . S
C309 C308 1.396 . S
C309 C310 1.399 . S
C310 H296 0.929 . S
C310 C309 1.399 . S
C310 C311 1.385 . S
C311 H297 0.931 . S
C311 C310 1.385 . S
C311 C312 1.389 . S
C312 C311 1.389 . S
C312 C313 1.387 . S
C313 H298 0.930 . S
C313 C308 1.390 . S
C313 C312 1.387 . S
H314 C326 0.930 . S
H315 C328 0.930 . S
H316 C329 0.930 . S
H317 C333 0.959 . S
H318 C333 0.959 . S
H319 C333 0.961 . S
H320 C334 0.960 . S
H321 C334 0.961 . S
H322 C334 0.959 . S
H323 C337 0.929 . S
H324 C338 0.931 . S
H325 C340 0.930 . S
C326 H314 0.930 . S
C326 C327 1.399 . S
C326 C331 1.399 . S
C327 C326 1.399 . S
C327 C328 1.376 . S
C328 H315 0.930 . S
C328 C327 1.376 . S
C328 C329 1.388 . S
C329 H316 0.930 . S
C329 C328 1.388 . S
C329 C330 1.390 . S
C330 C329 1.390 . S
C330 C331 1.394 . S
C330 C336 1.465 . S
C331 C326 1.399 . S
C331 C330 1.394 . S
C331 C332 1.516 . S
C332 C331 1.516 . S
C332 C333 1.502 . S
C332 C334 1.561 . S
C332 C335 1.526 . S
C333 H317 0.959 . S
C333 H318 0.959 . S
C333 H319 0.961 . S
C333 C332 1.502 . S
C334 H320 0.960 . S
C334 H321 0.961 . S
C334 H322 0.959 . S
C334 C332 1.561 . S
C335 C332 1.526 . S
C335 C336 1.396 . S
C335 C340 1.390 . S
C336 C330 1.465 . S
C336 C335 1.396 . S
C336 C337 1.399 . S
C337 H323 0.929 . S
C337 C336 1.399 . S
C337 C338 1.385 . S
C338 H324 0.931 . S
C338 C337 1.385 . S
C338 C339 1.389 . S
C339 C338 1.389 . S
C339 C340 1.387 . S
C340 H325 0.930 . S
C340 C335 1.390 . S
C340 C339 1.387 . S
H341 C353 0.930 . S
H342 C355 0.930 . S
H343 C356 0.930 . S
H344 C360 0.959 . S
H345 C360 0.959 . S
H346 C360 0.961 . S
H347 C361 0.960 . S
H348 C361 0.961 . S
H349 C361 0.959 . S
H350 C364 0.929 . S
H351 C365 0.931 . S
H352 C367 0.930 . S
C353 H341 0.930 . S
C353 C354 1.399 . S
C353 C358 1.399 . S
C354 C353 1.399 . S
C354 C355 1.376 . S
C355 H342 0.930 . S
C355 C354 1.376 . S
C355 C356 1.388 . S
C356 H343 0.930 . S
C356 C355 1.388 . S
C356 C357 1.390 . S
C357 C356 1.390 . S
C357 C358 1.394 . S
C357 C363 1.465 . S
C358 C353 1.399 . S
C358 C357 1.394 . S
C358 C359 1.516 . S
C359 C358 1.516 . S
C359 C360 1.502 . S
C359 C361 1.561 . S
C359 C362 1.526 . S
C360 H344 0.959 . S
C360 H345 0.959 . S
C360 H346 0.961 . S
C360 C359 1.502 . S
C361 H347 0.960 . S
C361 H348 0.961 . S
C361 H349 0.959 . S
C361 C359 1.561 . S
C362 C359 1.526 . S
C362 C363 1.396 . S
C362 C367 1.390 . S
C363 C357 1.465 . S
C363 C362 1.396 . S
C363 C364 1.399 . S
C364 H350 0.929 . S
C364 C363 1.399 . S
C364 C365 1.385 . S
C365 H351 0.931 . S
C365 C364 1.385 . S
C365 C366 1.389 . S
C366 C365 1.389 . S
C366 C367 1.387 . S
C367 H352 0.930 . S
C367 C362 1.390 . S
C367 C366 1.387 . S
H368 C380 0.930 . S
H369 C382 0.930 . S
H370 C383 0.930 . S
H371 C387 0.959 . S
H372 C387 0.959 . S
H373 C387 0.961 . S
H374 C388 0.960 . S
H375 C388 0.961 . S
H376 C388 0.959 . S
H377 C391 0.929 . S
H378 C392 0.931 . S
H379 C394 0.930 . S
C380 H368 0.930 . S
C380 C381 1.399 . S
C380 C385 1.399 . S
C381 C380 1.399 . S
C381 C382 1.376 . S
C382 H369 0.930 . S
C382 C381 1.376 . S
C382 C383 1.388 . S
C383 H370 0.930 . S
C383 C382 1.388 . S
C383 C384 1.390 . S
C384 C383 1.390 . S
C384 C385 1.394 . S
C384 C390 1.465 . S
C385 C380 1.399 . S
C385 C384 1.394 . S
C385 C386 1.516 . S
C386 C385 1.516 . S
C386 C387 1.502 . S
C386 C388 1.561 . S
C386 C389 1.526 . S
C387 H371 0.959 . S
C387 H372 0.959 . S
C387 H373 0.961 . S
C387 C386 1.502 . S
C388 H374 0.960 . S
C388 H375 0.961 . S
C388 H376 0.959 . S
C388 C386 1.561 . S
C389 C386 1.526 . S
C389 C390 1.396 . S
C389 C394 1.390 . S
C390 C384 1.465 . S
C390 C389 1.396 . S
C390 C391 1.399 . S
C391 H377 0.929 . S
C391 C390 1.399 . S
C391 C392 1.385 . S
C392 H378 0.931 . S
C392 C391 1.385 . S
C392 C393 1.389 . S
C393 C392 1.389 . S
C393 C394 1.387 . S
C394 H379 0.930 . S
C394 C389 1.390 . S
C394 C393 1.387 . S
H395 C407 0.930 . S
H396 C409 0.930 . S
H397 C410 0.930 . S
H398 C414 0.959 . S
H399 C414 0.959 . S
H400 C414 0.961 . S
H401 C415 0.960 . S
H402 C415 0.961 . S
H403 C415 0.959 . S
H404 C418 0.929 . S
H405 C419 0.931 . S
H406 C421 0.930 . S
C407 H395 0.930 . S
C407 C408 1.399 . S
C407 C412 1.399 . S
C408 C407 1.399 . S
C408 C409 1.376 . S
C409 H396 0.930 . S
C409 C408 1.376 . S
C409 C410 1.388 . S
C410 H397 0.930 . S
C410 C409 1.388 . S
C410 C411 1.390 . S
C411 C410 1.390 . S
C411 C412 1.394 . S
C411 C417 1.465 . S
C412 C407 1.399 . S
C412 C411 1.394 . S
C412 C413 1.516 . S
C413 C412 1.516 . S
C413 C414 1.502 . S
C413 C415 1.561 . S
C413 C416 1.526 . S
C414 H398 0.959 . S
C414 H399 0.959 . S
C414 H400 0.961 . S
C414 C413 1.502 . S
C415 H401 0.960 . S
C415 H402 0.961 . S
C415 H403 0.959 . S
C415 C413 1.561 . S
C416 C413 1.526 . S
C416 C417 1.396 . S
C416 C421 1.390 . S
C417 C411 1.465 . S
C417 C416 1.396 . S
C417 C418 1.399 . S
C418 H404 0.929 . S
C418 C417 1.399 . S
C418 C419 1.385 . S
C419 H405 0.931 . S
C419 C418 1.385 . S
C419 C420 1.389 . S
C420 C419 1.389 . S
C420 C421 1.387 . S
C421 H406 0.930 . S
C421 C416 1.390 . S
C421 C420 1.387 . S
H422 C434 0.930 . S
H423 C436 0.930 . S
H424 C437 0.930 . S
H425 C441 0.959 . S
H426 C441 0.959 . S
H427 C441 0.961 . S
H428 C442 0.960 . S
H429 C442 0.961 . S
H430 C442 0.959 1_655 S
H431 C445 0.929 . S
H432 C446 0.931 . S
H433 C448 0.930 . S
C434 H422 0.930 . S
C434 C435 1.399 . S
C434 C439 1.399 . S
C435 C434 1.399 . S
C435 C436 1.376 1_445 S
C436 H423 0.930 . S
C436 C435 1.376 1_665 S
C436 C437 1.388 . S
C437 H424 0.930 . S
C437 C436 1.388 . S
C437 C438 1.390 . S
C438 C437 1.390 . S
C438 C439 1.394 1_665 S
C438 C444 1.465 . S
C439 C434 1.399 . S
C439 C438 1.394 1_445 S
C439 C440 1.516 . S
C440 C439 1.516 . S
C440 C441 1.502 . S
C440 C442 1.561 . S
C440 C443 1.526 . S
C441 H425 0.959 . S
C441 H426 0.959 . S
C441 H427 0.961 . S
C441 C440 1.502 . S
C442 H428 0.960 . S
C442 H429 0.961 . S
C442 H430 0.959 1_455 S
C442 C440 1.561 . S
C443 C440 1.526 . S
C443 C444 1.396 1_445 S
C443 C448 1.390 . S
C444 C438 1.465 . S
C444 C443 1.396 1_665 S
C444 C445 1.399 . S
C445 H431 0.929 . S
C445 C444 1.399 . S
C445 C446 1.385 . S
C446 H432 0.931 . S
C446 C445 1.385 . S
C446 C447 1.389 . S
C447 C446 1.389 . S
C447 C448 1.387 1_665 S
C448 H433 0.930 . S
C448 C443 1.390 . S
C448 C447 1.387 1_445 S
H449 C461 0.930 . S
H450 C463 0.930 . S
H451 C464 0.930 . S
H452 C468 0.959 . S
H453 C468 0.959 . S
H454 C468 0.961 . S
H455 C469 0.960 . S
H456 C469 0.961 . S
H457 C469 0.959 . S
H458 C472 0.929 . S
H459 C473 0.931 . S
H460 C475 0.930 . S
C461 H449 0.930 . S
C461 C462 1.399 1_565 S
C461 C466 1.399 . S
C462 C461 1.399 1_545 S
C462 C463 1.376 . S
C463 H450 0.930 . S
C463 C462 1.376 . S
C463 C464 1.388 . S
C464 H451 0.930 . S
C464 C463 1.388 . S
C464 C465 1.390 . S
C465 C464 1.390 . S
C465 C466 1.394 1_545 S
C465 C471 1.465 . S
C466 C461 1.399 . S
C466 C465 1.394 1_565 S
C466 C467 1.516 1_455 S
C467 C466 1.516 1_655 S
C467 C468 1.502 1_655 S
C467 C469 1.561 . S
C467 C470 1.526 1_655 S
C468 H452 0.959 . S
C468 H453 0.959 . S
C468 H454 0.961 . S
C468 C467 1.502 1_455 S
C469 H455 0.960 . S
C469 H456 0.961 . S
C469 H457 0.959 . S
C469 C467 1.561 . S
C470 C467 1.526 1_455 S
C470 C471 1.396 1_565 S
C470 C475 1.390 . S
C471 C465 1.465 . S
C471 C470 1.396 1_545 S
C471 C472 1.399 . S
C472 H458 0.929 . S
C472 C471 1.399 . S
C472 C473 1.385 . S
C473 H459 0.931 . S
C473 C472 1.385 . S
C473 C474 1.389 . S
C474 C473 1.389 . S
C474 C475 1.387 1_545 S
C475 H460 0.930 . S
C475 C470 1.390 . S
C475 C474 1.387 1_565 S
H476 C488 0.930 . S
H477 C490 0.930 . S
H478 C491 0.930 . S
H479 C495 0.959 . S
H480 C495 0.959 . S
H481 C495 0.961 . S
H482 C496 0.960 . S
H483 C496 0.961 . S
H484 C496 0.959 . S
H485 C499 0.929 . S
H486 C500 0.931 . S
H487 C502 0.930 . S
C488 H476 0.930 . S
C488 C489 1.399 . S
C488 C493 1.399 . S
C489 C488 1.399 . S
C489 C490 1.376 . S
C490 H477 0.930 . S
C490 C489 1.376 . S
C490 C491 1.388 . S
C491 H478 0.930 . S
C491 C490 1.388 . S
C491 C492 1.390 . S
C492 C491 1.390 . S
C492 C493 1.394 . S
C492 C498 1.465 . S
C493 C488 1.399 . S
C493 C492 1.394 . S
C493 C494 1.516 . S
C494 C493 1.516 . S
C494 C495 1.502 . S
C494 C496 1.561 . S
C494 C497 1.526 . S
C495 H479 0.959 . S
C495 H480 0.959 . S
C495 H481 0.961 . S
C495 C494 1.502 . S
C496 H482 0.960 . S
C496 H483 0.961 . S
C496 H484 0.959 . S
C496 C494 1.561 . S
C497 C494 1.526 . S
C497 C498 1.396 . S
C497 C502 1.390 . S
C498 C492 1.465 . S
C498 C497 1.396 . S
C498 C499 1.399 . S
C499 H485 0.929 . S
C499 C498 1.399 . S
C499 C500 1.385 . S
C500 H486 0.931 . S
C500 C499 1.385 . S
C500 C501 1.389 . S
C501 C500 1.389 . S
C501 C502 1.387 . S
C502 H487 0.930 . S
C502 C497 1.390 . S
C502 C501 1.387 . S
H503 C515 0.930 . S
H504 C517 0.930 . S
H505 C518 0.930 . S
H506 C522 0.959 . S
H507 C522 0.959 . S
H508 C522 0.961 . S
H509 C523 0.960 . S
H510 C523 0.961 . S
H511 C523 0.959 . S
H512 C526 0.929 . S
H513 C527 0.931 . S
H514 C529 0.930 . S
C515 H503 0.930 . S
C515 C516 1.399 . S
C515 C520 1.399 . S
C516 C515 1.399 . S
C516 C517 1.376 . S
C517 H504 0.930 . S
C517 C516 1.376 . S
C517 C518 1.388 . S
C518 H505 0.930 . S
C518 C517 1.388 . S
C518 C519 1.390 . S
C519 C518 1.390 . S
C519 C520 1.394 . S
C519 C525 1.465 . S
C520 C515 1.399 . S
C520 C519 1.394 . S
C520 C521 1.516 . S
C521 C520 1.516 . S
C521 C522 1.502 . S
C521 C523 1.561 . S
C521 C524 1.526 . S
C522 H506 0.959 . S
C522 H507 0.959 . S
C522 H508 0.961 . S
C522 C521 1.502 . S
C523 H509 0.960 . S
C523 H510 0.961 . S
C523 H511 0.959 . S
C523 C521 1.561 . S
C524 C521 1.526 . S
C524 C525 1.396 . S
C524 C529 1.390 . S
C525 C519 1.465 . S
C525 C524 1.396 . S
C525 C526 1.399 . S
C526 H512 0.929 . S
C526 C525 1.399 . S
C526 C527 1.385 . S
C527 H513 0.931 . S
C527 C526 1.385 . S
C527 C528 1.389 . S
C528 C527 1.389 . S
C528 C529 1.387 . S
C529 H514 0.930 . S
C529 C524 1.390 . S
C529 C528 1.387 . S
C231 C168 1.447 . S
C219 C21 1.462 . S
C246 C19 1.444 . S
C258 C128 1.460 . S
C273 C18 1.449 . S
C285 C181 1.403 . S
C300 C20 1.435 . S
C312 C141 1.427 . S
C327 C44 1.484 . S
C339 C88 1.456 . S
C354 C42 1.441 . S
C366 C48 1.464 . S
C393 C101 1.450 . S
C381 C41 1.405 . S
C420 C61 1.464 . S
C408 C43 1.437 . S
C435 C16 1.487 . S
C447 C67 1.493 1_665 S
C462 C17 1.449 . S
C474 C107 1.453 1_545 S
C501 C147 1.453 . S
C489 C39 1.487 . S
C516 C40 1.447 . S
C528 C187 1.456 . S
