# Generated by pormake.
# Topology pth, (4,4)-cn, num edge types: 1
# Building blocks:
#     Node 0, Type 0, BuildingBlock: KUFVIS_clean_sbu_0, # of connection points: 4
#     Node 1, Type 0, BuildingBlock: KUFVIS_clean_sbu_0, # of connection points: 4
#     Node 2, Type 0, BuildingBlock: KUFVIS_clean_sbu_0, # of connection points: 4
#     Node 3, Type 1, BuildingBlock: MUDLON_clean_sbu_0, # of connection points: 4
#     Node 4, Type 1, BuildingBlock: MUDLON_clean_sbu_0, # of connection points: 4
#     Node 5, Type 1, BuildingBlock: MUDLON_clean_sbu_0, # of connection points: 4
#     Edge 6, Type (0, 1), BuildingBlock: EZIPEK_clean_linker_0, # of connection points: 2
#     Edge 7, Type (0, 1), BuildingBlock: EZIPEK_clean_linker_0, # of connection points: 2
#     Edge 8, Type (0, 1), BuildingBlock: EZIPEK_clean_linker_0, # of connection points: 2
#     Edge 9, Type (0, 1), BuildingBlock: EZIPEK_clean_linker_0, # of connection points: 2
#     Edge 10, Type (0, 1), BuildingBlock: EZIPEK_clean_linker_0, # of connection points: 2
#     Edge 11, Type (0, 1), BuildingBlock: EZIPEK_clean_linker_0, # of connection points: 2
#     Edge 12, Type (0, 1), BuildingBlock: EZIPEK_clean_linker_0, # of connection points: 2
#     Edge 13, Type (0, 1), BuildingBlock: EZIPEK_clean_linker_0, # of connection points: 2
#     Edge 14, Type (0, 1), BuildingBlock: EZIPEK_clean_linker_0, # of connection points: 2
#     Edge 15, Type (0, 1), BuildingBlock: EZIPEK_clean_linker_0, # of connection points: 2
#     Edge 16, Type (0, 1), BuildingBlock: EZIPEK_clean_linker_0, # of connection points: 2
#     Edge 17, Type (0, 1), BuildingBlock: EZIPEK_clean_linker_0, # of connection points: 2
# Relax obj value: 0.022
# Max RMSD: 0.096
# Mean RMSD: 0.069
data_MOF--net-pth--node1-KUFVIS_clean_sbu_0--node2-MUDLON_clean_sbu_0--edge1-EZIPEK_clean_linker_0
_symmetry_space_group_name_H-M    P1
_symmetry_Int_Tables_number       1
_symmetry_cell_setting            triclinic
loop_
_symmetry_equiv_pos_as_xyz
'x, y, z'
_cell_length_a     16.208073
_cell_length_b     16.291721
_cell_length_c     44.418142
_cell_angle_alpha  90.444744
_cell_angle_beta   92.313318
_cell_angle_gamma 119.59895
loop_
_atom_site_label
_atom_site_type_symbol
_atom_site_fract_x
_atom_site_fract_y
_atom_site_fract_z
_atom_type_partial_charge
Mn0 Mn 0.11498 0.15713 0.08383 0.0
Mn1 Mn 1.01644 0.2616 0.04134 0.0
C2 C 1.01645 0.07848 0.04131 0.0
C3 C 0.11767 0.06468 0.12338 0.0
C4 C 0.22346 0.31169 0.03886 0.0
O5 O 0.12365 0.26057 0.1125 0.0
O6 O 0.05003 0.31965 0.08288 0.0
C7 C 0.84039 0.19742 0.07425 0.0
N8 N 0.88364 0.20297 0.04807 0.0
C9 C 0.73273 0.11594 0.02054 0.0
C10 C 0.68668 0.10991 0.04716 0.0
C11 C 0.74077 0.15055 0.07414 0.0
C12 C 0.83221 0.16317 0.02204 0.0
H13 H 0.88147 0.22813 0.09509 0.0
C14 C 0.08841 0.3149 0.10815 0.0
O15 O 0.19507 0.12785 0.11195 0.0
O16 O 0.03833 0.05752 0.11277 0.0
N17 N 0.97765 0.21115 1.00091 0.0
C18 C 0.03278 0.22183 0.97723 0.0
C19 C 0.98943 0.18408 0.94866 0.0
C20 C 0.89002 0.13757 0.94453 0.0
C21 C 0.83481 0.12919 0.96906 0.0
C22 C 0.882 0.16843 0.99701 0.0
H23 H 0.10926 0.25787 0.98013 0.0
O24 O 0.07767 0.05503 0.05183 0.0
O25 O 1.01577 0.1477 0.05569 0.0
O26 O 0.22012 0.2541 0.05859 0.0
O27 O 0.15284 0.32349 0.03168 0.0
C28 C 0.73477 0.08259 0.96693 0.0
C29 C 0.68376 0.07571 0.99267 0.0
H30 H 0.60984 0.07365 0.0472 0.0
H31 H 0.70575 0.14568 0.09483 0.0
H32 H 0.03257 0.19009 0.92994 0.0
H33 H 0.85685 0.10796 0.9225 0.0
H34 H 0.69632 0.05094 0.94567 0.0
H35 H 0.60683 0.03866 0.99084 0.0
Mn36 Mn 0.03968 0.11043 0.41506 0.0
Mn37 Mn 0.21187 0.30364 0.45301 0.0
C38 C 0.12835 0.09337 0.4543 0.0
C39 C 0.99101 0.99941 0.37507 0.0
C40 C 1.00104 0.22862 0.4608 0.0
O41 O 0.06292 0.2179 0.38706 0.0
O42 O 0.1856 0.34096 0.41266 0.0
C43 C 0.37191 0.34306 0.41473 0.0
N44 N 0.33322 0.32362 0.4422 0.0
C45 C 0.47506 0.33447 0.46548 0.0
C46 C 0.51666 0.35515 0.43747 0.0
C47 C 0.46463 0.35892 0.41195 0.0
C48 C 0.38202 0.31819 0.46678 0.0
H49 H 0.3323 0.3465 0.3951 0.0
C50 C 0.12658 0.30501 0.38985 0.0
O51 O 0.93036 0.01583 0.38831 0.0
O52 O 0.07939 0.04975 0.38426 0.0
N53 N 0.24525 0.27841 0.49232 0.0
C54 C 0.19497 0.25793 0.51769 0.0
C55 C 0.23658 0.25058 0.54516 0.0
C56 C 0.32987 0.26584 0.54634 0.0
C57 C 0.38074 0.28827 0.52005 0.0
C58 C 0.33563 0.29473 0.49335 0.0
H59 H 0.12365 0.24724 0.51698 0.0
O60 O 0.04562 0.02354 0.44567 0.0
O61 O 0.15568 0.17102 0.43983 0.0
O62 O 0.97234 0.15498 0.44372 0.0
O63 O 0.08918 0.28741 0.46601 0.0
C64 C 0.47475 0.30529 0.51937 0.0
C65 C 0.52188 0.32835 0.4921 0.0
H66 H 0.58825 0.36766 0.43525 0.0
H67 H 0.49609 0.37442 0.39023 0.0
H68 H 0.19704 0.23375 0.56541 0.0
H69 H 0.36227 0.26132 0.56759 0.0
H70 H 0.51133 0.30049 0.53966 0.0
H71 H 0.59382 0.34041 0.49178 0.0
Mn72 Mn 0.10355 0.16324 0.75156 0.0
Mn73 Mn 0.97554 0.25267 0.78183 0.0
C74 C 0.16884 0.27233 0.79155 0.0
C75 C 0.207 0.17076 0.71526 0.0
C76 C 0.94523 0.05792 0.79599 0.0
O77 O 0.99805 0.12863 0.71947 0.0
O78 O 0.91789 0.19111 0.7414 0.0
C79 C 1.02184 0.40129 0.73709 0.0
N80 N 1.02167 0.37614 0.76628 0.0
C81 C 0.10238 0.53883 0.78364 0.0
C82 C 0.10278 0.56635 0.7538 0.0
C83 C 0.06245 0.49725 0.73042 0.0
C84 C 0.0611 0.44213 0.78891 0.0
H85 H 0.99178 0.34864 0.71898 0.0
C86 C 0.93062 0.1474 0.71952 0.0
O87 O 0.1527 0.09229 0.72835 0.0
O88 O 0.20077 0.24425 0.72295 0.0
N89 N 1.02154 0.31585 0.82042 0.0
C90 C 1.00827 0.27729 0.84815 0.0
C91 C 0.04224 0.33687 0.87405 0.0
C92 C 0.08795 0.43525 0.87124 0.0
C93 C 0.0966 0.47311 0.84256 0.0
C94 C 0.06009 0.41018 0.81759 0.0
H95 H 0.97264 0.20166 0.85049 0.0
O96 O 0.20269 0.21716 0.7853 0.0
O97 O 0.09777 0.26214 0.77407 0.0
O98 O 1.00731 0.06017 0.77851 0.0
O99 O 0.92949 0.12707 0.79949 0.0
C100 C 0.13871 0.57073 0.8378 0.0
C101 C 0.14203 0.6036 0.80835 0.0
H102 H 0.13418 0.64032 0.74856 0.0
H103 H 0.06294 0.51793 0.70731 0.0
H104 H 0.03348 0.3072 0.89614 0.0
H105 H 0.11479 0.48093 0.89127 0.0
H106 H 0.16835 0.62111 0.85666 0.0
H107 H 0.17471 0.67883 0.80496 0.0
Mg108 Mg 0.07266 0.6546 0.25566 0.0
C109 C 0.09766 0.53026 0.29544 0.0
O110 O 1.00757 0.48772 0.28634 0.0
C111 C 0.08177 0.78482 0.20872 0.0
O112 O 0.9958 0.71183 0.20505 0.0
C113 C 0.08136 0.53922 0.20873 0.0
O114 O 0.16864 0.60204 0.21772 0.0
O115 O 1.01248 0.54011 0.2214 0.0
O116 O 0.1539 0.6112 0.2853 0.0
O117 O 0.99986 0.68947 0.2897 0.0
C118 C 0.9379 0.71509 0.28586 0.0
O119 O 0.89329 0.70139 0.25942 0.0
O120 O 0.13882 0.78258 0.22896 0.0
Mg121 Mg 0.5595 0.14996 0.57961 0.0
C122 C 0.40059 0.04007 0.52797 0.0
O123 O 0.44732 0.99798 0.51931 0.0
C124 C 0.68378 0.13425 0.62255 0.0
O125 O 0.71452 0.22397 0.61766 0.0
C126 C 0.44956 0.15461 0.62678 0.0
O127 O 0.42088 0.06593 0.61945 0.0
O128 O 0.51912 0.21934 0.61334 0.0
O129 O 0.42872 0.09294 0.55155 0.0
O130 O 0.6761 0.22576 0.54947 0.0
C131 C 0.70712 0.17392 0.53864 0.0
O132 O 0.66883 0.08555 0.54657 0.0
O133 O 0.60881 0.07251 0.60797 0.0
Mg134 Mg 0.58949 0.68409 0.91438 0.0
C135 C 0.4372 0.55202 0.87543 0.0
O136 O 0.48441 0.51158 0.88635 0.0
C137 C 0.72102 0.8108 0.95829 0.0
O138 O 0.73339 0.73734 0.95547 0.0
C139 C 0.54043 0.52248 0.96362 0.0
O140 O 0.61842 0.51816 0.96044 0.0
O141 O 0.5241 0.57872 0.94831 0.0
O142 O 0.46601 0.63789 0.88314 0.0
O143 O 0.71302 0.71431 0.88844 0.0
C144 C 0.70605 0.71478 0.85981 0.0
O145 O 0.62382 0.65756 0.84596 0.0
O146 O 0.65498 0.8129 0.94227 0.0
C147 C 0.03168 0.3245 0.15961 0.0
C148 C 0.084 0.37102 0.13415 0.0
C149 C 0.10605 0.52121 0.1547 0.0
C150 C 0.06763 0.4775 0.18204 0.0
N151 N 1.00158 0.33859 0.21197 0.0
N152 N 0.18153 0.51664 0.10943 0.0
C153 C 0.03206 0.37922 0.1849 0.0
C154 C 0.12366 0.47026 0.13218 0.0
N155 N 0.97771 0.22826 0.1591 0.0
N156 N 0.12361 0.61111 0.15003 0.0
H157 H 0.19764 0.48163 0.09305 0.0
H158 H 0.22058 0.58996 0.10851 0.0
H159 H 0.1077 0.64858 0.16572 0.0
H160 H 0.14369 0.64419 0.12951 0.0
H161 H 0.9309 0.19124 0.17573 0.0
H162 H 0.97276 0.18572 0.14067 0.0
H163 H 0.98578 0.26976 0.21642 0.0
H164 H 0.99814 0.37584 0.23063 0.0
C165 C 0.8309 0.18887 0.46614 0.0
C166 C 0.92732 0.2417 0.47667 0.0
C167 C 0.87673 0.2769 0.5243 0.0
C168 C 0.78128 0.20843 0.51594 0.0
N169 N 0.66656 0.09825 0.47861 0.0
N170 N 0.03582 0.37825 0.50796 0.0
C171 C 0.75798 0.16511 0.48661 0.0
C172 C 0.94924 0.29863 0.50353 0.0
N173 N 0.80931 0.16791 0.43601 0.0
N174 N 0.89907 0.31762 0.55264 0.0
H175 H 0.08415 0.40628 0.4911 0.0
H176 H 0.05363 0.42544 0.52621 0.0
H177 H 0.84795 0.30676 0.568 0.0
H178 H 0.96847 0.35721 0.56164 0.0
H179 H 0.7404 0.13656 0.42641 0.0
H180 H 0.86145 0.19413 0.42013 0.0
H181 H 0.6475 0.05565 0.45911 0.0
H182 H 0.61039 0.08092 0.49247 0.0
C183 C 0.92676 0.91963 0.8274 0.0
C184 C 0.88566 0.96971 0.81276 0.0
C185 C 0.73364 0.86224 0.83456 0.0
C186 C 0.77038 0.80393 0.84481 0.0
N187 N 0.90019 0.77198 0.84873 0.0
N188 N 0.74114 0.97229 0.7976 0.0
C189 C 0.86657 0.83113 0.84058 0.0
C190 C 0.78667 0.93649 0.81501 0.0
N191 N 1.02322 0.95846 0.83032 0.0
N192 N 0.64942 0.84953 0.84446 0.0
H193 H 0.77454 0.0248 0.78213 0.0
H194 H 0.66743 0.94238 0.79618 0.0
H195 H 0.6102 0.79912 0.86005 0.0
H196 H 0.62446 0.8964 0.84002 0.0
H197 H 0.05667 0.92949 0.84338 0.0
H198 H 0.07046 0.02461 0.82243 0.0
H199 H 0.96665 0.78293 0.84317 0.0
H200 H 0.85853 0.70804 0.85906 0.0
C201 C 0.16591 0.94812 0.14288 0.0
C202 C 0.11977 1.00206 0.14725 0.0
C203 C 0.05747 0.92072 0.19403 0.0
C204 C 0.10667 0.86944 0.19042 0.0
N205 N 0.22671 0.85212 0.16549 0.0
N206 N 0.04683 0.05962 0.1814 0.0
C207 C 0.16782 0.88964 0.1663 0.0
C208 C 0.07312 0.99437 0.17419 0.0
N209 N 0.20225 0.94741 0.1157 0.0
N210 N 0.99377 0.89785 0.21596 0.0
H211 H 0.06121 0.11692 0.16797 0.0
H212 H 1.02078 0.06309 0.20216 0.0
H213 H 0.98286 0.84721 0.23171 0.0
H214 H 0.94748 0.92472 0.21727 0.0
H215 H 0.22726 0.9016 0.11021 0.0
H216 H 0.19914 0.98582 0.09747 0.0
H217 H 0.27912 0.87128 0.14993 0.0
H218 H 0.22947 0.80879 0.18219 0.0
C219 C 0.17383 0.04102 0.50248 0.0
C220 C 0.19543 0.07463 0.47283 0.0
C221 C 0.34859 0.07887 0.47846 0.0
C222 C 0.32629 0.0425 0.5078 0.0
N223 N 0.21078 0.97156 0.54555 0.0
N224 N 0.28952 0.09682 0.42958 0.0
C225 C 0.23662 0.01832 0.51916 0.0
C226 C 0.27838 0.08439 0.45986 0.0
N227 N 0.09505 0.03393 0.51508 0.0
N228 N 0.43877 0.11441 0.46894 0.0
H229 H 0.23982 0.10046 0.4149 0.0
H230 H 0.34347 0.09396 0.41848 0.0
H231 H 0.49477 0.11935 0.48256 0.0
H232 H 0.46104 0.14941 0.44882 0.0
H233 H 0.08082 0.02031 0.53769 0.0
H234 H 0.04748 0.04959 0.5035 0.0
H235 H 0.1433 0.94404 0.55382 0.0
H236 H 0.25466 0.9529 0.55801 0.0
C237 C 0.27615 0.44534 0.80459 0.0
C238 C 0.22112 0.35092 0.81421 0.0
C239 C 0.28486 0.40343 0.86603 0.0
C240 C 0.35066 0.49351 0.8557 0.0
N241 N 0.40935 0.60306 0.8154 0.0
N242 N 0.1777 0.23814 0.85368 0.0
C243 C 0.34493 0.51619 0.82517 0.0
C244 C 0.22667 0.32956 0.84486 0.0
N245 N 0.2648 0.46669 0.77555 0.0
N246 N 0.27731 0.38938 0.89634 0.0
H247 H 0.12888 0.18301 0.83936 0.0
H248 H 0.18811 0.21647 0.87481 0.0
H249 H 0.31753 0.44344 0.91232 0.0
H250 H 0.22482 0.32803 0.90556 0.0
H251 H 0.29389 0.5353 0.76799 0.0
H252 H 0.22056 0.41617 0.7592 0.0
H253 H 0.41807 0.62049 0.79283 0.0
H254 H 0.45757 0.65779 0.82991 0.0
C255 C 0.76737 0.06411 0.6941 0.0
C256 C 0.86667 0.12347 0.69199 0.0
C257 C 0.83915 0.15022 0.63929 0.0
C258 C 0.74082 0.11006 0.64388 0.0
N259 N 0.60996 0.03004 0.67637 0.0
N260 N 0.99828 0.22809 0.66236 0.0
C261 C 0.70398 0.06579 0.67132 0.0
C262 C 0.9033 0.16669 0.66433 0.0
N263 N 0.73421 1.0043 0.71747 0.0
N264 N 0.87078 0.1724 0.61086 0.0
H265 H 0.04809 0.2438 0.68019 0.0
H266 H 0.0268 0.26939 0.64371 0.0
H267 H 0.8242 0.15786 0.59211 0.0
H268 H 0.94065 0.19484 0.60556 0.0
H269 H 0.66284 0.95431 0.71924 0.0
H270 H 0.78035 0.99717 0.73288 0.0
H271 H 0.58184 1.00706 0.69733 0.0
H272 H 0.56109 0.02874 0.66011 0.0
C273 C 0.84297 0.96846 0.02752 0.0
C274 C 0.93911 0.01583 0.01889 0.0
C275 C 0.88733 0.94008 0.96838 0.0
C276 C 0.79213 0.89227 0.97722 0.0
N277 N 0.67528 0.87197 1.01238 0.0
N278 N 0.05464 0.03914 0.98253 0.0
C279 C 0.76873 0.9102 1.00594 0.0
C280 C 0.96173 0.99926 0.9897 0.0
N281 N 0.82327 0.97375 0.05692 0.0
N282 N 0.90546 0.93219 0.93898 0.0
H283 H 0.11024 0.08857 0.99658 0.0
H284 H 0.07748 0.02131 0.96326 0.0
H285 H 0.85184 0.89167 0.92269 0.0
H286 H 0.97146 0.97182 0.92987 0.0
H287 H 0.75638 0.93402 0.06544 0.0
H288 H 0.87521 1.01234 0.07379 0.0
H289 H 0.65205 0.88968 0.03159 0.0
H290 H 0.61978 0.82823 0.9971 0.0
C291 C 0.89448 0.83072 0.35398 0.0
C292 C 0.96319 0.92724 0.35024 0.0
C293 C 1.01472 0.88352 0.30482 0.0
C294 C 0.94238 0.78795 0.30727 0.0
N295 N 0.80198 0.67324 0.33083 0.0
N296 N 0.06658 0.04721 0.31713 0.0
C297 C 0.87804 0.76254 0.33069 0.0
C298 C 1.01623 0.95404 0.32405 0.0
N299 N 0.84942 0.8029 0.3804 0.0
N300 N 0.08494 0.90696 0.28509 0.0
H301 H 0.06573 0.10039 0.33012 0.0
H302 H 0.09964 0.07023 0.29683 0.0
H303 H 0.08824 0.8576 0.27094 0.0
H304 H 0.14466 0.97394 0.28476 0.0
H305 H 0.80684 0.73238 0.38564 0.0
H306 H 0.86032 0.84971 0.3982 0.0
H307 H 0.74729 0.65297 0.34558 0.0
H308 H 0.78981 0.62151 0.31451 0.0
C309 C 0.37122 0.22203 0.69828 0.0
C310 C 0.27152 0.17587 0.6917 0.0
C311 C 0.29479 0.13975 0.64007 0.0
C312 C 0.3927 0.17502 0.64783 0.0
N313 N 0.52428 0.24377 0.6846 0.0
N314 N 0.13654 0.08916 0.6569 0.0
C315 C 0.43142 0.21596 0.67688 0.0
C316 C 0.23281 0.13457 0.66268 0.0
N317 N 0.40824 0.27127 0.72506 0.0
N318 N 0.26176 0.11312 0.61078 0.0
H319 H 0.08928 0.08857 0.67227 0.0
H320 H 0.10253 0.04775 0.63756 0.0
H321 H 0.30532 0.11613 0.59369 0.0
H322 H 0.19369 0.09573 0.60275 0.0
H323 H 0.48067 0.31507 0.7299 0.0
H324 H 0.3662 0.2736 0.74184 0.0
H325 H 0.55412 0.26338 0.70646 0.0
H326 H 0.57069 0.24173 0.66941 0.0
C327 C 0.36357 0.46562 0.0239 0.0
C328 C 0.31308 0.36521 0.02249 0.0
C329 C 0.41914 0.3669 0.98395 0.0
C330 C 0.47128 0.46677 0.98641 0.0
N331 N 0.50924 0.60951 0.01422 0.0
N332 N 0.30882 0.2205 1.00625 0.0
C333 C 0.44832 0.51553 1.00813 0.0
C334 C 0.34633 0.31592 1.00431 0.0
N335 N 0.33023 0.51376 0.04003 0.0
N336 N 0.43486 0.32066 0.96101 0.0
H337 H 0.25444 0.17897 0.02017 0.0
H338 H 0.33777 0.18336 0.99604 0.0
H339 H 0.48765 0.35507 0.94572 0.0
H340 H 0.39063 0.24916 0.95561 0.0
H341 H 0.35688 0.58631 0.03885 0.0
H342 H 0.27162 0.48015 0.05314 0.0
H343 H 0.50148 0.64745 0.0318 0.0
H344 H 0.57329 0.6474 1.00367 0.0
C345 C 0.15656 0.36036 0.33656 0.0
C346 C 0.13041 0.37001 0.36596 0.0
C347 C 0.11437 0.50578 0.35011 0.0
C348 C 0.12701 0.48738 0.31992 0.0
N349 N 0.15597 0.39558 0.28352 0.0
N350 N 0.07472 0.44548 0.4003 0.0
C351 C 0.14767 0.41458 0.31291 0.0
C352 C 0.10785 0.44184 0.37276 0.0
N353 N 0.19238 0.3014 0.33151 0.0
N354 N 0.108 0.58432 0.35702 0.0
H355 H 0.06728 0.39912 0.41739 0.0
H356 H 0.04695 0.48914 0.40548 0.0
H357 H 0.11157 0.63187 0.34082 0.0
H358 H 0.10804 0.60709 0.37899 0.0
H359 H 0.22104 0.29761 0.31134 0.0
H360 H 0.20073 0.26164 0.34843 0.0
H361 H 0.15913 0.33622 0.27637 0.0
H362 H 0.15511 0.43741 0.26595 0.0
loop_
_geom_bond_atom_site_label_1
_geom_bond_atom_site_label_2
_geom_bond_distance
_geom_bond_site_symmetry_2
_ccdc_geom_bond_type
Mn0 O5 2.095 . S
Mn0 O15 2.162 . S
Mn0 O16 2.297 . S
Mn0 O24 2.385 . S
Mn0 O25 2.209 1_455 S
Mn0 O26 2.094 . S
Mn1 O6 2.121 1_655 S
Mn1 N8 2.257 . S
Mn1 N17 2.282 1_554 S
Mn1 O25 2.215 . S
Mn1 O27 2.117 1_655 S
C2 O24 1.234 1_655 S
C2 O25 1.283 . S
C3 O15 1.281 . S
C3 O16 1.236 . S
C4 O26 1.240 . S
C4 O27 1.264 . S
O5 Mn0 2.095 . S
O5 C14 1.250 . S
O6 Mn1 2.121 1_455 S
O6 C14 1.258 . S
C7 N8 1.326 . S
C7 C11 1.460 . S
C7 H13 0.929 . S
N8 Mn1 2.257 . S
N8 C7 1.326 . S
N8 C12 1.346 1_554 S
C9 C10 1.258 1_556 S
C9 C12 1.434 . S
C9 C29 1.449 . S
C10 C9 1.258 1_554 S
C10 C11 1.477 . S
C10 H30 0.931 . S
C11 C7 1.460 . S
C11 C10 1.477 . S
C11 H31 0.930 . S
C12 N8 1.346 1_556 S
C12 C9 1.434 . S
C12 C22 1.489 . S
H13 C7 0.929 . S
C14 O5 1.250 . S
C14 O6 1.258 . S
O15 Mn0 2.162 . S
O15 C3 1.281 . S
O16 Mn0 2.297 . S
O16 C3 1.236 . S
N17 Mn1 2.282 1_556 S
N17 C18 1.328 . S
N17 C22 1.318 . S
C18 N17 1.328 . S
C18 C19 1.457 . S
C18 H23 0.929 1_655 S
C19 C18 1.457 . S
C19 C20 1.291 . S
C19 H32 0.931 . S
C20 C19 1.291 . S
C20 C21 1.373 . S
C20 H33 0.929 . S
C21 C20 1.373 . S
C21 C22 1.396 . S
C21 C28 1.403 . S
C22 C12 1.489 . S
C22 N17 1.318 . S
C22 C21 1.396 . S
H23 C18 0.929 1_455 S
O24 Mn0 2.385 . S
O24 C2 1.234 1_455 S
O25 Mn0 2.209 1_655 S
O25 Mn1 2.215 . S
O25 C2 1.283 . S
O26 Mn0 2.094 . S
O26 C4 1.240 . S
O27 Mn1 2.117 1_455 S
O27 C4 1.264 . S
C28 C21 1.403 . S
C28 C29 1.399 . S
C28 H34 0.929 . S
C29 C9 1.449 . S
C29 C28 1.399 . S
C29 H35 0.930 . S
H30 C10 0.931 . S
H31 C11 0.930 . S
H32 C19 0.931 . S
H33 C20 0.929 . S
H34 C28 0.929 . S
H35 C29 0.930 . S
Mn36 O41 2.095 1_455 S
Mn36 O51 2.162 1_445 S
Mn36 O52 2.297 . S
Mn36 O60 2.385 . S
Mn36 O61 2.209 . S
Mn36 O62 2.094 1_455 S
Mn37 O42 2.121 . S
Mn37 N44 2.257 . S
Mn37 N53 2.282 . S
Mn37 O61 2.215 . S
Mn37 O63 2.117 1_455 S
C38 O60 1.234 . S
C38 O61 1.283 . S
C39 O51 1.281 1_455 S
C39 O52 1.236 1_565 S
C40 O62 1.240 . S
C40 O63 1.264 . S
O41 Mn36 2.095 1_655 S
O41 C50 1.250 1_655 S
O42 Mn37 2.121 . S
O42 C50 1.258 . S
C43 N44 1.326 . S
C43 C47 1.460 . S
C43 H49 0.929 . S
N44 Mn37 2.257 . S
N44 C43 1.326 . S
N44 C48 1.362 . S
C45 C46 1.258 . S
C45 C48 1.431 . S
C45 C65 1.449 . S
C46 C45 1.258 . S
C46 C47 1.477 . S
C46 H66 0.931 . S
C47 C43 1.460 . S
C47 C46 1.477 . S
C47 H67 0.930 . S
C48 N44 1.362 . S
C48 C45 1.431 . S
C48 C58 1.476 . S
H49 C43 0.929 . S
C50 O41 1.250 1_455 S
C50 O42 1.258 . S
O51 Mn36 2.162 1_665 S
O51 C39 1.281 1_655 S
O52 Mn36 2.297 . S
O52 C39 1.236 1_545 S
N53 Mn37 2.282 . S
N53 C54 1.328 . S
N53 C58 1.318 . S
C54 N53 1.328 . S
C54 C55 1.457 . S
C54 H59 0.929 . S
C55 C54 1.457 . S
C55 C56 1.291 . S
C55 H68 0.931 . S
C56 C55 1.291 . S
C56 C57 1.373 . S
C56 H69 0.929 . S
C57 C56 1.373 . S
C57 C58 1.396 . S
C57 C64 1.403 . S
C58 C48 1.476 . S
C58 N53 1.318 . S
C58 C57 1.396 . S
H59 C54 0.929 . S
O60 Mn36 2.385 . S
O60 C38 1.234 . S
O61 Mn36 2.209 . S
O61 Mn37 2.215 . S
O61 C38 1.283 . S
O62 Mn36 2.094 1_655 S
O62 C40 1.240 . S
O63 Mn37 2.117 1_655 S
O63 C40 1.264 . S
C64 C57 1.403 . S
C64 C65 1.399 . S
C64 H70 0.929 . S
C65 C45 1.449 . S
C65 C64 1.399 . S
C65 H71 0.930 . S
H66 C46 0.931 . S
H67 C47 0.930 . S
H68 C55 0.931 . S
H69 C56 0.929 . S
H70 C64 0.929 . S
H71 C65 0.930 . S
Mn72 O77 2.095 1_455 S
Mn72 O87 2.162 . S
Mn72 O88 2.297 . S
Mn72 O96 2.385 . S
Mn72 O97 2.209 . S
Mn72 O98 2.094 1_455 S
Mn73 O78 2.121 . S
Mn73 N80 2.260 1_655 S
Mn73 N89 2.282 1_655 S
Mn73 O97 2.215 1_655 S
Mn73 O99 2.117 . S
C74 O96 1.234 . S
C74 O97 1.283 . S
C75 O87 1.281 . S
C75 O88 1.236 . S
C76 O98 1.240 . S
C76 O99 1.264 . S
O77 Mn72 2.095 1_655 S
O77 C86 1.250 . S
O78 Mn73 2.121 . S
O78 C86 1.258 . S
C79 N80 1.322 1_655 S
C79 C83 1.460 1_655 S
C79 H85 0.929 . S
N80 Mn73 2.260 1_455 S
N80 C79 1.322 1_455 S
N80 C84 1.364 . S
C81 C82 1.258 . S
C81 C84 1.431 . S
C81 C101 1.449 . S
C82 C81 1.258 . S
C82 C83 1.477 . S
C82 H102 0.931 . S
C83 C79 1.460 1_455 S
C83 C82 1.477 . S
C83 H103 0.930 . S
C84 N80 1.364 . S
C84 C81 1.431 . S
C84 C94 1.476 . S
H85 C79 0.929 . S
C86 O77 1.250 . S
C86 O78 1.258 . S
O87 Mn72 2.162 . S
O87 C75 1.281 . S
O88 Mn72 2.297 . S
O88 C75 1.236 . S
N89 Mn73 2.282 1_455 S
N89 C90 1.328 . S
N89 C94 1.318 . S
C90 N89 1.328 . S
C90 C91 1.457 . S
C90 H95 0.929 . S
C91 C90 1.457 . S
C91 C92 1.291 . S
C91 H104 0.931 . S
C92 C91 1.291 . S
C92 C93 1.373 . S
C92 H105 0.929 . S
C93 C92 1.373 . S
C93 C94 1.396 . S
C93 C100 1.403 . S
C94 C84 1.476 . S
C94 N89 1.318 . S
C94 C93 1.396 . S
H95 C90 0.929 . S
O96 Mn72 2.385 . S
O96 C74 1.234 . S
O97 Mn72 2.209 . S
O97 Mn73 2.215 1_455 S
O97 C74 1.283 . S
O98 Mn72 2.094 1_655 S
O98 C76 1.240 . S
O99 Mn73 2.117 . S
O99 C76 1.264 . S
C100 C93 1.403 . S
C100 C101 1.399 . S
C100 H106 0.929 . S
C101 C81 1.449 . S
C101 C100 1.399 . S
C101 H107 0.930 . S
H102 C82 0.931 . S
H103 C83 0.930 . S
H104 C91 0.931 . S
H105 C92 0.929 . S
H106 C100 0.929 . S
H107 C101 0.930 . S
Mg108 O115 2.141 . S
Mg108 O116 2.048 . S
Mg108 O117 2.048 . S
Mg108 O120 2.141 . S
C109 O110 1.313 1_455 S
C109 O116 1.195 . S
O110 C109 1.313 1_655 S
C111 O112 1.245 1_455 S
C111 O120 1.289 . S
O112 C111 1.245 1_655 S
C113 O114 1.245 1_455 S
C113 O115 1.289 . S
O114 C113 1.245 1_655 S
O115 Mg108 2.141 . S
O115 C113 1.289 . S
O116 Mg108 2.048 . S
O116 C109 1.195 . S
O117 Mg108 2.048 . S
O117 C118 1.195 . S
C118 O117 1.195 . S
C118 O119 1.313 1_455 S
O119 C118 1.313 1_655 S
O120 Mg108 2.141 . S
O120 C111 1.289 . S
Mg121 O128 2.141 . S
Mg121 O129 2.048 . S
Mg121 O130 2.048 . S
Mg121 O133 2.141 . S
C122 O123 1.313 . S
C122 O129 1.195 . S
O123 C122 1.313 . S
C124 O125 1.245 . S
C124 O133 1.289 . S
O125 C124 1.245 . S
C126 O127 1.245 . S
C126 O128 1.289 . S
O127 C126 1.245 . S
O128 Mg121 2.141 . S
O128 C126 1.289 . S
O129 Mg121 2.048 . S
O129 C122 1.195 . S
O130 Mg121 2.048 . S
O130 C131 1.195 . S
C131 O130 1.195 . S
C131 O132 1.313 . S
O132 C131 1.313 . S
O133 Mg121 2.141 . S
O133 C124 1.289 . S
Mg134 O141 2.141 . S
Mg134 O142 2.048 . S
Mg134 O143 2.048 . S
Mg134 O146 2.141 . S
C135 O136 1.313 . S
C135 O142 1.195 . S
O136 C135 1.313 . S
C137 O138 1.245 . S
C137 O146 1.289 . S
O138 C137 1.245 . S
C139 O140 1.245 . S
C139 O141 1.289 . S
O140 C139 1.245 . S
O141 Mg134 2.141 . S
O141 C139 1.289 . S
O142 Mg134 2.048 . S
O142 C135 1.195 . S
O143 Mg134 2.048 . S
O143 C144 1.195 . S
C144 O143 1.195 . S
C144 O145 1.313 . S
O145 C144 1.313 . S
O146 Mg134 2.141 . S
O146 C137 1.289 . S
C147 C148 1.363 1_655 S
C147 C153 1.379 . S
C147 N155 1.356 . S
C148 C147 1.363 1_455 S
C148 C154 1.363 . S
C149 C150 1.363 . S
C149 C154 1.379 . S
C149 N156 1.356 . S
C150 C149 1.363 . S
C150 C153 1.363 1_455 S
N151 C153 1.356 . S
N151 H163 0.984 . S
N151 H164 0.985 . S
N152 C154 1.356 . S
N152 H157 0.984 . S
N152 H158 0.985 . S
C153 C147 1.379 . S
C153 C150 1.363 1_655 S
C153 N151 1.356 . S
C154 C148 1.363 . S
C154 C149 1.379 . S
C154 N152 1.356 . S
N155 C147 1.356 . S
N155 H161 0.984 . S
N155 H162 0.984 . S
N156 C149 1.356 . S
N156 H159 0.984 . S
N156 H160 0.985 . S
H157 N152 0.984 . S
H158 N152 0.985 . S
H159 N156 0.984 . S
H160 N156 0.985 . S
H161 N155 0.984 . S
H162 N155 0.984 . S
H163 N151 0.984 . S
H164 N151 0.985 . S
C165 C166 1.363 . S
C165 C171 1.379 . S
C165 N173 1.356 1_545 S
C166 C165 1.363 . S
C166 C172 1.363 . S
C167 C168 1.363 . S
C167 C172 1.379 . S
C167 N174 1.356 . S
C168 C167 1.363 . S
C168 C171 1.363 . S
N169 C171 1.356 . S
N169 H181 0.984 1_545 S
N169 H182 0.985 . S
N170 C172 1.356 . S
N170 H175 0.984 . S
N170 H176 0.985 1_655 S
C171 C165 1.379 . S
C171 C168 1.363 . S
C171 N169 1.356 . S
C172 C166 1.363 . S
C172 C167 1.379 . S
C172 N170 1.356 . S
N173 C165 1.356 1_565 S
N173 H179 0.984 . S
N173 H180 0.984 1_565 S
N174 C167 1.356 . S
N174 H177 0.984 . S
N174 H178 0.985 . S
H175 N170 0.984 . S
H176 N170 0.985 1_455 S
H177 N174 0.984 . S
H178 N174 0.985 . S
H179 N173 0.984 . S
H180 N173 0.984 1_545 S
H181 N169 0.984 1_565 S
H182 N169 0.985 . S
C183 C184 1.363 . S
C183 C189 1.379 . S
C183 N191 1.356 . S
C184 C183 1.363 . S
C184 C190 1.363 . S
C185 C186 1.363 . S
C185 C190 1.379 . S
C185 N192 1.356 . S
C186 C185 1.363 . S
C186 C189 1.363 . S
N187 C189 1.356 . S
N187 H199 0.984 . S
N187 H200 0.985 . S
N188 C190 1.356 1_545 S
N188 H193 0.984 . S
N188 H194 0.985 . S
C189 C183 1.379 . S
C189 C186 1.363 . S
C189 N187 1.356 . S
C190 C184 1.363 . S
C190 C185 1.379 . S
C190 N188 1.356 1_565 S
N191 C183 1.356 . S
N191 H197 0.984 . S
N191 H198 0.984 . S
N192 C185 1.356 . S
N192 H195 0.984 . S
N192 H196 0.985 . S
H193 N188 0.984 . S
H194 N188 0.985 . S
H195 N192 0.984 . S
H196 N192 0.985 . S
H197 N191 0.984 . S
H198 N191 0.984 . S
H199 N187 0.984 . S
H200 N187 0.985 . S
C201 C202 1.363 . S
C201 C207 1.379 . S
C201 N209 1.356 . S
C202 C201 1.363 . S
C202 C208 1.363 . S
C203 C204 1.363 1_655 S
C203 C208 1.379 1_655 S
C203 N210 1.356 . S
C204 C203 1.363 1_455 S
C204 C207 1.363 . S
N205 C207 1.356 . S
N205 H217 0.984 . S
N205 H218 0.985 . S
N206 C208 1.356 1_655 S
N206 H211 0.984 . S
N206 H212 0.985 . S
C207 C201 1.379 . S
C207 C204 1.363 . S
C207 N205 1.356 . S
C208 C202 1.363 . S
C208 C203 1.379 1_455 S
C208 N206 1.356 1_455 S
N209 C201 1.356 . S
N209 H215 0.984 . S
N209 H216 0.984 1_565 S
N210 C203 1.356 . S
N210 H213 0.984 . S
N210 H214 0.985 . S
H211 N206 0.984 . S
H212 N206 0.985 . S
H213 N210 0.984 . S
H214 N210 0.985 . S
H215 N209 0.984 . S
H216 N209 0.984 1_545 S
H217 N205 0.984 . S
H218 N205 0.985 . S
C219 C220 1.363 . S
C219 C225 1.379 . S
C219 N227 1.356 . S
C220 C219 1.363 . S
C220 C226 1.363 . S
C221 C222 1.363 . S
C221 C226 1.379 . S
C221 N228 1.356 . S
C222 C221 1.363 . S
C222 C225 1.363 . S
N223 C225 1.356 . S
N223 H235 0.984 1_545 S
N223 H236 0.985 . S
N224 C226 1.356 . S
N224 H229 0.984 . S
N224 H230 0.985 . S
C225 C219 1.379 . S
C225 C222 1.363 . S
C225 N223 1.356 . S
C226 C220 1.363 . S
C226 C221 1.379 . S
C226 N224 1.356 . S
N227 C219 1.356 . S
N227 H233 0.984 1_545 S
N227 H234 0.984 . S
N228 C221 1.356 . S
N228 H231 0.984 . S
N228 H232 0.985 . S
H229 N224 0.984 . S
H230 N224 0.985 . S
H231 N228 0.984 . S
H232 N228 0.985 . S
H233 N227 0.984 1_565 S
H234 N227 0.984 . S
H235 N223 0.984 1_565 S
H236 N223 0.985 . S
C237 C238 1.363 . S
C237 C243 1.379 . S
C237 N245 1.356 . S
C238 C237 1.363 . S
C238 C244 1.363 . S
C239 C240 1.363 . S
C239 C244 1.379 . S
C239 N246 1.356 . S
C240 C239 1.363 . S
C240 C243 1.363 . S
N241 C243 1.356 . S
N241 H253 0.984 . S
N241 H254 0.985 . S
N242 C244 1.356 . S
N242 H247 0.984 . S
N242 H248 0.985 . S
C243 C237 1.379 . S
C243 C240 1.363 . S
C243 N241 1.356 . S
C244 C238 1.363 . S
C244 C239 1.379 . S
C244 N242 1.356 . S
N245 C237 1.356 . S
N245 H251 0.984 . S
N245 H252 0.984 . S
N246 C239 1.356 . S
N246 H249 0.984 . S
N246 H250 0.985 . S
H247 N242 0.984 . S
H248 N242 0.985 . S
H249 N246 0.984 . S
H250 N246 0.985 . S
H251 N245 0.984 . S
H252 N245 0.984 . S
H253 N241 0.984 . S
H254 N241 0.985 . S
C255 C256 1.363 . S
C255 C261 1.379 . S
C255 N263 1.356 . S
C256 C255 1.363 . S
C256 C262 1.363 . S
C257 C258 1.363 . S
C257 C262 1.379 . S
C257 N264 1.356 . S
C258 C257 1.363 . S
C258 C261 1.363 . S
N259 C261 1.356 . S
N259 H271 0.984 1_545 S
N259 H272 0.985 . S
N260 C262 1.356 . S
N260 H265 0.984 . S
N260 H266 0.985 . S
C261 C255 1.379 . S
C261 C258 1.363 . S
C261 N259 1.356 . S
C262 C256 1.363 . S
C262 C257 1.379 . S
C262 N260 1.356 . S
N263 C255 1.356 . S
N263 H269 0.984 1_545 S
N263 H270 0.984 . S
N264 C257 1.356 . S
N264 H267 0.984 . S
N264 H268 0.985 . S
H265 N260 0.984 . S
H266 N260 0.985 . S
H267 N264 0.984 . S
H268 N264 0.985 . S
H269 N263 0.984 1_565 S
H270 N263 0.984 . S
H271 N259 0.984 1_565 S
H272 N259 0.985 . S
C273 C274 1.363 . S
C273 C279 1.379 1_554 S
C273 N281 1.356 1_565 S
C274 C273 1.363 . S
C274 C280 1.363 1_554 S
C275 C276 1.363 . S
C275 C280 1.379 . S
C275 N282 1.356 . S
C276 C275 1.363 . S
C276 C279 1.363 . S
N277 C279 1.356 . S
N277 H289 0.984 . S
N277 H290 0.985 . S
N278 C280 1.356 1_554 S
N278 H283 0.984 1_655 S
N278 H284 0.985 1_655 S
C279 C273 1.379 1_556 S
C279 C276 1.363 . S
C279 N277 1.356 . S
C280 C274 1.363 1_556 S
C280 C275 1.379 . S
C280 N278 1.356 1_556 S
N281 C273 1.356 1_545 S
N281 H287 0.984 . S
N281 H288 0.984 . S
N282 C275 1.356 . S
N282 H285 0.984 . S
N282 H286 0.985 . S
H283 N278 0.984 1_455 S
H284 N278 0.985 1_455 S
H285 N282 0.984 . S
H286 N282 0.985 . S
H287 N281 0.984 . S
H288 N281 0.984 . S
H289 N277 0.984 . S
H290 N277 0.985 . S
C291 C292 1.363 . S
C291 C297 1.379 . S
C291 N299 1.356 1_455 S
C292 C291 1.363 . S
C292 C298 1.363 . S
C293 C294 1.363 . S
C293 C298 1.379 . S
C293 N300 1.356 . S
C294 C293 1.363 . S
C294 C297 1.363 . S
N295 C297 1.356 1_655 S
N295 H307 0.984 . S
N295 H308 0.985 1_655 S
N296 C298 1.356 1_545 S
N296 H301 0.984 . S
N296 H302 0.985 . S
C297 C291 1.379 . S
C297 C294 1.363 . S
C297 N295 1.356 1_455 S
C298 C292 1.363 . S
C298 C293 1.379 . S
C298 N296 1.356 1_565 S
N299 C291 1.356 1_655 S
N299 H305 0.984 . S
N299 H306 0.984 . S
N300 C293 1.356 . S
N300 H303 0.984 . S
N300 H304 0.985 . S
H301 N296 0.984 . S
H302 N296 0.985 . S
H303 N300 0.984 . S
H304 N300 0.985 . S
H305 N299 0.984 . S
H306 N299 0.984 . S
H307 N295 0.984 . S
H308 N295 0.985 1_455 S
C309 C310 1.363 . S
C309 C315 1.379 . S
C309 N317 1.356 . S
C310 C309 1.363 . S
C310 C316 1.363 . S
C311 C312 1.363 . S
C311 C316 1.379 . S
C311 N318 1.356 . S
C312 C311 1.363 . S
C312 C315 1.363 . S
N313 C315 1.356 . S
N313 H325 0.984 . S
N313 H326 0.985 . S
N314 C316 1.356 . S
N314 H319 0.984 . S
N314 H320 0.985 . S
C315 C309 1.379 . S
C315 C312 1.363 . S
C315 N313 1.356 . S
C316 C310 1.363 . S
C316 C311 1.379 . S
C316 N314 1.356 . S
N317 C309 1.356 . S
N317 H323 0.984 . S
N317 H324 0.984 . S
N318 C311 1.356 . S
N318 H321 0.984 . S
N318 H322 0.985 . S
H319 N314 0.984 . S
H320 N314 0.985 . S
H321 N318 0.984 . S
H322 N318 0.985 . S
H323 N317 0.984 . S
H324 N317 0.984 . S
H325 N313 0.984 . S
H326 N313 0.985 . S
C327 C328 1.363 . S
C327 C333 1.379 1_554 S
C327 N335 1.356 . S
C328 C327 1.363 . S
C328 C334 1.363 1_554 S
C329 C330 1.363 . S
C329 C334 1.379 . S
C329 N336 1.356 . S
C330 C329 1.363 . S
C330 C333 1.363 . S
N331 C333 1.356 . S
N331 H343 0.984 1_556 S
N331 H344 0.985 . S
N332 C334 1.356 . S
N332 H337 0.984 . S
N332 H338 0.985 . S
C333 C327 1.379 1_556 S
C333 C330 1.363 . S
C333 N331 1.356 . S
C334 C328 1.363 1_556 S
C334 C329 1.379 . S
C334 N332 1.356 . S
N335 C327 1.356 . S
N335 H341 0.984 . S
N335 H342 0.984 . S
N336 C329 1.356 . S
N336 H339 0.984 . S
N336 H340 0.985 . S
H337 N332 0.984 . S
H338 N332 0.985 . S
H339 N336 0.984 . S
H340 N336 0.985 . S
H341 N335 0.984 . S
H342 N335 0.984 . S
H343 N331 0.984 1_554 S
H344 N331 0.985 . S
C345 C346 1.363 . S
C345 C351 1.379 . S
C345 N353 1.356 . S
C346 C345 1.363 . S
C346 C352 1.363 . S
C347 C348 1.363 . S
C347 C352 1.379 . S
C347 N354 1.356 . S
C348 C347 1.363 . S
C348 C351 1.363 . S
N349 C351 1.356 . S
N349 H361 0.984 1_455 S
N349 H362 0.985 . S
N350 C352 1.356 . S
N350 H355 0.984 . S
N350 H356 0.985 . S
C351 C345 1.379 . S
C351 C348 1.363 . S
C351 N349 1.356 . S
C352 C346 1.363 . S
C352 C347 1.379 . S
C352 N350 1.356 . S
N353 C345 1.356 . S
N353 H359 0.984 . S
N353 H360 0.984 . S
N354 C347 1.356 . S
N354 H357 0.984 . S
N354 H358 0.985 . S
H355 N350 0.984 . S
H356 N350 0.985 . S
H357 N354 0.984 . S
H358 N354 0.985 . S
H359 N353 0.984 . S
H360 N353 0.984 . S
H361 N349 0.984 1_655 S
H362 N349 0.985 . S
C150 C113 1.439 . S
C148 C14 1.425 . S
C166 C40 1.483 . S
C168 C131 1.491 . S
C184 C76 1.474 1_565 S
C186 C144 1.482 . S
C202 C3 1.413 1_565 S
C204 C111 1.412 . S
C222 C122 1.502 . S
C220 C38 1.490 . S
C238 C74 1.473 . S
C240 C135 1.488 . S
C258 C124 1.402 . S
C256 C86 1.386 . S
C274 C2 1.417 1_565 S
C276 C137 1.428 . S
C294 C118 1.461 . S
C292 C39 1.469 . S
C312 C126 1.410 . S
C310 C75 1.428 . S
C330 C139 1.423 . S
C328 C4 1.419 . S
C346 C50 1.473 . S
C348 C109 1.506 . S
