# Generated by pormake.
# Topology soc, (4,6)-cn, num edge types: 1
# Building blocks:
#     Node 0, Type 0, BuildingBlock: ESEHIV_clean_sbu_0, # of connection points: 4
#     Node 1, Type 0, BuildingBlock: ESEHIV_clean_sbu_0, # of connection points: 4
#     Node 2, Type 0, BuildingBlock: ESEHIV_clean_sbu_0, # of connection points: 4
#     Node 3, Type 0, BuildingBlock: ESEHIV_clean_sbu_0, # of connection points: 4
#     Node 4, Type 0, BuildingBlock: ESEHIV_clean_sbu_0, # of connection points: 4
#     Node 5, Type 0, BuildingBlock: ESEHIV_clean_sbu_0, # of connection points: 4
#     Node 6, Type 0, BuildingBlock: ESEHIV_clean_sbu_0, # of connection points: 4
#     Node 7, Type 0, BuildingBlock: ESEHIV_clean_sbu_0, # of connection points: 4
#     Node 8, Type 0, BuildingBlock: ESEHIV_clean_sbu_0, # of connection points: 4
#     Node 9, Type 0, BuildingBlock: ESEHIV_clean_sbu_0, # of connection points: 4
#     Node 10, Type 0, BuildingBlock: ESEHIV_clean_sbu_0, # of connection points: 4
#     Node 11, Type 0, BuildingBlock: ESEHIV_clean_sbu_0, # of connection points: 4
#     Node 12, Type 1, BuildingBlock: KUMBUR_clean_sbu_0, # of connection points: 6
#     Node 13, Type 1, BuildingBlock: KUMBUR_clean_sbu_0, # of connection points: 6
#     Node 14, Type 1, BuildingBlock: KUMBUR_clean_sbu_0, # of connection points: 6
#     Node 15, Type 1, BuildingBlock: KUMBUR_clean_sbu_0, # of connection points: 6
#     Node 16, Type 1, BuildingBlock: KUMBUR_clean_sbu_0, # of connection points: 6
#     Node 17, Type 1, BuildingBlock: KUMBUR_clean_sbu_0, # of connection points: 6
#     Node 18, Type 1, BuildingBlock: KUMBUR_clean_sbu_0, # of connection points: 6
#     Node 19, Type 1, BuildingBlock: KUMBUR_clean_sbu_0, # of connection points: 6
#     Edge 20, Type (0, 1), BuildingBlock: TEMPAE_clean_linker_10, # of connection points: 2
#     Edge 21, Type (0, 1), BuildingBlock: TEMPAE_clean_linker_10, # of connection points: 2
#     Edge 22, Type (0, 1), BuildingBlock: TEMPAE_clean_linker_10, # of connection points: 2
#     Edge 23, Type (0, 1), BuildingBlock: TEMPAE_clean_linker_10, # of connection points: 2
#     Edge 24, Type (0, 1), BuildingBlock: TEMPAE_clean_linker_10, # of connection points: 2
#     Edge 25, Type (0, 1), BuildingBlock: TEMPAE_clean_linker_10, # of connection points: 2
#     Edge 26, Type (0, 1), BuildingBlock: TEMPAE_clean_linker_10, # of connection points: 2
#     Edge 27, Type (0, 1), BuildingBlock: TEMPAE_clean_linker_10, # of connection points: 2
#     Edge 28, Type (0, 1), BuildingBlock: TEMPAE_clean_linker_10, # of connection points: 2
#     Edge 29, Type (0, 1), BuildingBlock: TEMPAE_clean_linker_10, # of connection points: 2
#     Edge 30, Type (0, 1), BuildingBlock: TEMPAE_clean_linker_10, # of connection points: 2
#     Edge 31, Type (0, 1), BuildingBlock: TEMPAE_clean_linker_10, # of connection points: 2
#     Edge 32, Type (0, 1), BuildingBlock: TEMPAE_clean_linker_10, # of connection points: 2
#     Edge 33, Type (0, 1), BuildingBlock: TEMPAE_clean_linker_10, # of connection points: 2
#     Edge 34, Type (0, 1), BuildingBlock: TEMPAE_clean_linker_10, # of connection points: 2
#     Edge 35, Type (0, 1), BuildingBlock: TEMPAE_clean_linker_10, # of connection points: 2
#     Edge 36, Type (0, 1), BuildingBlock: TEMPAE_clean_linker_10, # of connection points: 2
#     Edge 37, Type (0, 1), BuildingBlock: TEMPAE_clean_linker_10, # of connection points: 2
#     Edge 38, Type (0, 1), BuildingBlock: TEMPAE_clean_linker_10, # of connection points: 2
#     Edge 39, Type (0, 1), BuildingBlock: TEMPAE_clean_linker_10, # of connection points: 2
#     Edge 40, Type (0, 1), BuildingBlock: TEMPAE_clean_linker_10, # of connection points: 2
#     Edge 41, Type (0, 1), BuildingBlock: TEMPAE_clean_linker_10, # of connection points: 2
#     Edge 42, Type (0, 1), BuildingBlock: TEMPAE_clean_linker_10, # of connection points: 2
#     Edge 43, Type (0, 1), BuildingBlock: TEMPAE_clean_linker_10, # of connection points: 2
#     Edge 44, Type (0, 1), BuildingBlock: TEMPAE_clean_linker_10, # of connection points: 2
#     Edge 45, Type (0, 1), BuildingBlock: TEMPAE_clean_linker_10, # of connection points: 2
#     Edge 46, Type (0, 1), BuildingBlock: TEMPAE_clean_linker_10, # of connection points: 2
#     Edge 47, Type (0, 1), BuildingBlock: TEMPAE_clean_linker_10, # of connection points: 2
#     Edge 48, Type (0, 1), BuildingBlock: TEMPAE_clean_linker_10, # of connection points: 2
#     Edge 49, Type (0, 1), BuildingBlock: TEMPAE_clean_linker_10, # of connection points: 2
#     Edge 50, Type (0, 1), BuildingBlock: TEMPAE_clean_linker_10, # of connection points: 2
#     Edge 51, Type (0, 1), BuildingBlock: TEMPAE_clean_linker_10, # of connection points: 2
#     Edge 52, Type (0, 1), BuildingBlock: TEMPAE_clean_linker_10, # of connection points: 2
#     Edge 53, Type (0, 1), BuildingBlock: TEMPAE_clean_linker_10, # of connection points: 2
#     Edge 54, Type (0, 1), BuildingBlock: TEMPAE_clean_linker_10, # of connection points: 2
#     Edge 55, Type (0, 1), BuildingBlock: TEMPAE_clean_linker_10, # of connection points: 2
#     Edge 56, Type (0, 1), BuildingBlock: TEMPAE_clean_linker_10, # of connection points: 2
#     Edge 57, Type (0, 1), BuildingBlock: TEMPAE_clean_linker_10, # of connection points: 2
#     Edge 58, Type (0, 1), BuildingBlock: TEMPAE_clean_linker_10, # of connection points: 2
#     Edge 59, Type (0, 1), BuildingBlock: TEMPAE_clean_linker_10, # of connection points: 2
#     Edge 60, Type (0, 1), BuildingBlock: TEMPAE_clean_linker_10, # of connection points: 2
#     Edge 61, Type (0, 1), BuildingBlock: TEMPAE_clean_linker_10, # of connection points: 2
#     Edge 62, Type (0, 1), BuildingBlock: TEMPAE_clean_linker_10, # of connection points: 2
#     Edge 63, Type (0, 1), BuildingBlock: TEMPAE_clean_linker_10, # of connection points: 2
#     Edge 64, Type (0, 1), BuildingBlock: TEMPAE_clean_linker_10, # of connection points: 2
#     Edge 65, Type (0, 1), BuildingBlock: TEMPAE_clean_linker_10, # of connection points: 2
#     Edge 66, Type (0, 1), BuildingBlock: TEMPAE_clean_linker_10, # of connection points: 2
#     Edge 67, Type (0, 1), BuildingBlock: TEMPAE_clean_linker_10, # of connection points: 2
# Relax obj value: 0.068
# Max RMSD: 0.199
# Mean RMSD: 0.141
data_MOF--net-soc--node1-ESEHIV_clean_sbu_0--node2-KUMBUR_clean_sbu_0--edge1-TEMPAE_clean_linker_10
_symmetry_space_group_name_H-M    P1
_symmetry_Int_Tables_number       1
_symmetry_cell_setting            triclinic
loop_
_symmetry_equiv_pos_as_xyz
'x, y, z'
_cell_length_a     52.123853
_cell_length_b     50.231685
_cell_length_c     41.871421
_cell_angle_alpha  83.992595
_cell_angle_beta   82.430353
_cell_angle_gamma 73.390641
loop_
_atom_site_label
_atom_site_type_symbol
_atom_site_fract_x
_atom_site_fract_y
_atom_site_fract_z
_atom_type_partial_charge
Cu0 Cu 0.04511 0.04915 0.34707 0.0
N1 N 0.05626 0.07067 0.37367 0.0
N2 N 0.07772 0.09881 0.39006 0.0
C3 C 0.07722 0.08187 0.36717 0.0
C4 C 0.0564 0.09785 0.41189 0.0
C5 C 0.04322 0.08063 0.40168 0.0
O6 O 0.07703 0.02244 0.3266 0.0
C7 C 1.01637 0.10051 0.31463 0.0
O8 O 0.03533 0.11068 0.32174 0.0
H9 H 0.09097 0.07872 0.34528 0.0
H10 H 0.0249 0.07634 0.41336 0.0
N11 N 0.025 0.0272 0.37145 0.0
N12 N 0.99702 1.00005 0.38172 0.0
C13 C 1.00775 0.01642 0.35938 0.0
C14 C 0.02525 0.01745 0.40261 0.0
C15 C 1.008 1.00074 0.40903 0.0
C16 C 0.09175 0.00629 0.34686 0.0
O17 O 0.08522 0.01056 0.37766 0.0
H18 H 1.00321 0.02066 0.33457 0.0
H19 H 0.03748 0.02172 0.41933 0.0
O20 O 1.01909 0.07438 0.3197 0.0
H21 H 0.05047 0.10906 0.43358 0.0
H22 H 1.00437 0.9895 0.43188 0.0
Cu23 Cu 0.05575 0.04379 0.76109 0.0
N24 N 0.04224 0.02337 0.73579 0.0
N25 N 1.01747 0.99755 0.72183 0.0
C26 C 1.0222 0.01133 0.74547 0.0
C27 C 0.03532 1.00094 0.69638 0.0
C28 C 0.05068 0.01668 0.70514 0.0
O29 O 0.0252 0.07054 0.78345 0.0
C30 C 0.10439 1.00561 0.77116 0.0
O31 O 0.10799 0.01269 0.74016 0.0
H32 H 1.01131 0.0127 0.76938 0.0
H33 H 0.06722 0.02232 0.69038 0.0
N34 N 0.0749 0.06639 0.73607 0.0
N35 N 0.10204 0.09427 0.7257 0.0
C36 C 0.09157 0.07787 0.74815 0.0
C37 C 0.07458 0.07598 0.70483 0.0
C38 C 0.09147 0.09307 0.6983 0.0
C39 C 1.01058 0.08745 0.76371 0.0
O40 O 1.01594 0.08314 0.73283 0.0
H41 H 0.09614 0.07389 0.77297 0.0
H42 H 0.06256 0.0714 0.6881 0.0
O43 O 0.08176 0.01672 0.78699 0.0
H44 H 0.03763 0.99199 0.6734 0.0
H45 H 0.09526 0.10413 0.67536 0.0
Cu46 Cu 0.29514 0.07021 0.10687 0.0
N47 N 0.2668 0.06518 0.08749 0.0
N48 N 0.24837 0.04571 0.05442 0.0
C49 C 0.27129 0.04675 0.06508 0.0
C50 C 0.22841 0.06427 0.07093 0.0
C51 C 0.23992 0.07655 0.09121 0.0
O52 O 0.31459 0.03243 0.12399 0.0
C53 C 0.29759 0.11324 0.06152 0.0
O54 O 0.27297 0.12113 0.076 0.0
H55 H 0.29114 0.03357 0.05763 0.0
H56 H 0.22942 0.09244 0.10749 0.0
N57 N 0.28292 0.09263 0.14163 0.0
N58 N 0.28232 0.12218 0.17841 0.0
C59 C 0.29611 0.10884 0.1523 0.0
C60 C 0.26009 0.09552 0.16165 0.0
C61 C 0.25955 0.11382 0.18417 0.0
C62 C 0.29957 0.01784 0.13901 0.0
O63 O 0.2734 0.02897 0.1424 0.0
H64 H 0.31565 0.11033 0.14126 0.0
H65 H 0.24498 0.08491 0.1602 0.0
O66 O 0.3134 0.09047 0.07231 0.0
H67 H 0.20715 0.06854 0.06862 0.0
H68 H 0.24339 0.12048 0.20311 0.0
Cu69 Cu 0.07058 0.30442 0.10399 0.0
N70 N 0.08853 0.32328 0.07095 0.0
N71 N 0.11716 0.32998 0.02771 0.0
C72 C 0.10811 0.31112 0.04819 0.0
C73 C 0.10249 0.355 0.03804 0.0
C74 C 0.08495 0.35082 0.06454 0.0
O75 O 0.09432 0.29316 0.13924 0.0
C76 C 0.0487 0.28573 0.05662 0.0
O77 O 0.05054 0.30998 0.04315 0.0
H78 H 0.11563 0.2888 0.04689 0.0
H79 H 0.07048 0.36681 0.07794 0.0
N80 N 0.03784 0.32676 0.12319 0.0
N81 N 0.99665 0.33645 0.15106 0.0
C82 C 1.01628 0.31735 0.13462 0.0
C83 C 0.03172 0.35276 0.13282 0.0
C84 C 1.00637 0.35884 0.14978 0.0
C85 C 0.12001 0.28397 0.1355 0.0
O86 O 0.13201 0.27599 0.10714 0.0
H87 H 1.01568 0.29627 0.13242 0.0
H88 H 0.04513 0.36597 0.1291 0.0
O89 O 0.05819 0.27713 0.08374 0.0
H90 H 0.10393 0.37505 0.027 0.0
H91 H 0.99618 0.37812 0.16085 0.0
Cu92 Cu 0.79034 0.02026 1.00532 0.0
N93 N 0.81108 0.04052 0.97988 0.0
N94 N 0.81753 0.07893 0.95235 0.0
C95 C 0.79981 0.06417 0.96283 0.0
C96 C 0.84106 0.06377 0.96308 0.0
C97 C 0.83697 0.04005 0.98025 0.0
O98 O 0.76915 0.04704 0.03647 0.0
C99 C 0.78784 0.9912 0.95436 0.0
O100 O 0.81307 0.99187 0.95068 0.0
H101 H 0.77841 0.07153 0.96068 0.0
H102 H 0.85129 0.02472 0.99389 0.0
N103 N 0.81058 0.98977 0.02859 0.0
N104 N 0.81731 0.95479 0.06669 0.0
C105 C 0.80001 0.97833 0.05563 0.0
C106 C 0.83557 0.97297 0.02202 0.0
C107 C 0.83986 0.95134 0.04574 0.0
C108 C 0.78274 0.05159 0.05764 0.0
O109 O 0.80802 0.03704 0.05809 0.0
H110 H 0.77975 0.9871 0.06664 0.0
H111 H 0.84926 0.97563 1.00096 0.0
O112 O 0.77207 1.0042 0.97724 0.0
H113 H 0.85953 0.06997 0.96005 0.0
H114 H 0.85772 0.93391 0.04669 0.0
Cu115 Cu 0.03643 0.76378 0.02342 0.0
N116 N 1.01957 0.74817 0.99584 0.0
N117 N 0.98924 0.74489 0.96401 0.0
C118 C 0.99676 0.76151 0.98228 0.0
C119 C 1.00817 0.72017 0.96617 0.0
C120 C 0.02677 0.72225 0.98568 0.0
O121 O 1.00681 0.78192 0.05726 0.0
C122 C 0.08026 0.76544 0.97646 0.0
O123 O 0.07892 0.73969 0.97698 0.0
H124 H 0.9857 0.78289 0.98619 0.0
H125 H 0.04445 0.70601 0.99167 0.0
N126 N 0.05995 0.73748 0.04861 0.0
N127 N 0.09139 0.72414 0.08295 0.0
C128 C 0.07587 0.74561 0.066 0.0
C129 C 0.06541 0.70968 0.05475 0.0
C130 C 0.08509 0.70133 0.07581 0.0
C131 C 0.99457 0.76461 0.07255 0.0
O132 O 1.00221 0.73908 0.06325 0.0
H133 H 0.0764 0.76703 0.06561 0.0
H134 H 0.05577 0.69642 0.04497 0.0
O135 O 0.06235 0.78201 0.99507 0.0
H136 H 1.00884 0.70193 0.95407 0.0
H137 H 0.09387 0.68024 0.08529 0.0
Cu138 Cu 0.54548 0.53848 0.85361 0.0
N139 N 0.55583 0.56182 0.87833 0.0
N140 N 0.57592 0.59231 0.89156 0.0
C141 C 0.57475 0.5754 0.86907 0.0
C142 C 0.55707 0.58914 0.91591 0.0
C143 C 0.54472 0.57037 0.90767 0.0
O144 O 0.57813 0.51427 0.83123 0.0
C145 C 0.49474 0.57295 0.84573 0.0
O146 O 0.49354 0.56633 0.87697 0.0
H147 H 0.58675 0.57358 0.84583 0.0
H148 H 0.52836 0.56391 0.92183 0.0
N149 N 0.5299 0.51364 0.87997 0.0
N150 N 0.50611 0.48281 0.89334 0.0
C151 C 0.51433 0.49983 0.86964 0.0
C152 C 0.53181 0.505 0.91133 0.0
C153 C 0.517 0.48604 0.91971 0.0
C154 C 0.59466 0.49991 0.85077 0.0
O155 O 0.58922 0.50488 0.88146 0.0
H156 H 0.5087 0.50275 0.84527 0.0
H157 H 0.54328 0.51181 0.92694 0.0
O158 O 0.51689 0.56269 0.82843 0.0
H159 H 0.55244 0.59971 0.93807 0.0
H160 H 0.51463 0.47535 0.94326 0.0
Cu161 Cu 0.5572 0.55411 0.26258 0.0
N162 N 0.54011 0.53599 0.23844 0.0
N163 N 0.51302 0.51164 0.22678 0.0
C164 C 0.52114 0.52296 0.25022 0.0
C165 C 0.52756 0.51768 0.19928 0.0
C166 C 0.54431 0.53252 0.20655 0.0
O167 O 0.52916 0.58251 0.28621 0.0
C168 C 0.60148 0.51006 0.26801 0.0
O169 O 0.60039 0.51517 0.23672 0.0
H170 H 0.5134 0.52191 0.27547 0.0
H171 H 0.55892 0.53969 0.18978 0.0
N172 N 0.57855 0.57412 0.2366 0.0
N173 N 0.6102 0.59685 0.22466 0.0
C174 C 0.59902 0.58095 0.24708 0.0
C175 C 0.5766 0.58617 0.20641 0.0
C176 C 0.59616 0.60011 0.19894 0.0
C177 C 0.51465 0.60043 0.2672 0.0
O178 O 0.51868 0.59638 0.23625 0.0
H179 H 0.6055 0.57428 0.27084 0.0
H180 H 0.5616 0.58563 0.19116 0.0
O181 O 0.58278 0.52502 0.2868 0.0
H182 H 0.52671 0.51116 0.1757 0.0
H183 H 0.59924 0.61233 0.17665 0.0
Cu184 Cu 0.82575 0.56336 0.60106 0.0
N185 N 0.84911 0.57359 0.56741 0.0
N186 N 0.86274 0.59683 0.52319 0.0
C187 C 0.84175 0.59446 0.54477 0.0
C188 C 0.8842 0.57666 0.53269 0.0
C189 C 0.87569 0.56225 0.55995 0.0
O190 O 0.81004 0.59587 0.6272 0.0
C191 C 0.81352 0.52982 0.56089 0.0
O192 O 0.83996 0.52275 0.55686 0.0
H193 H 0.82138 0.6078 0.54442 0.0
H194 H 0.88796 0.54453 0.57308 0.0
N195 N 0.84492 0.53428 0.62737 0.0
N196 N 0.85532 0.49372 0.65684 0.0
C197 C 0.83716 0.51147 0.63885 0.0
C198 C 0.86872 0.53107 0.63859 0.0
C199 C 0.87522 0.50604 0.65675 0.0
C200 C 0.82685 0.60842 0.63327 0.0
O201 O 0.85221 0.59878 0.62195 0.0
H202 H 0.81834 0.50824 0.63434 0.0
H203 H 0.88063 0.54576 0.63373 0.0
O204 O 0.80132 0.54834 0.58065 0.0
H205 H 0.90444 0.5723 0.52048 0.0
H206 H 0.89338 0.49747 0.66854 0.0
Cu207 Cu 0.56726 0.80282 0.5885 0.0
N208 N 0.59289 0.78392 0.55494 0.0
N209 N 0.6268 0.77555 0.51376 0.0
C210 C 0.61469 0.79138 0.53906 0.0
C211 C 0.61182 0.75747 0.51411 0.0
C212 C 0.59121 0.76268 0.53906 0.0
O213 O 0.58775 0.81451 0.6177 0.0
C214 C 0.54006 0.83616 0.53795 0.0
O215 O 0.56262 0.83005 0.51868 0.0
H216 H 0.62101 0.80868 0.54544 0.0
H217 H 0.57537 0.7524 0.5443 0.0
N218 N 0.54376 0.78297 0.61321 0.0
N219 N 0.50605 0.77577 0.64267 0.0
C220 C 0.51996 0.79457 0.63096 0.0
C221 C 0.54495 0.7558 0.61406 0.0
C222 C 0.52201 0.75136 0.63195 0.0
C223 C 0.60443 0.79522 0.63276 0.0
O224 O 0.60585 0.76923 0.62867 0.0
H225 H 0.51245 0.81667 0.63408 0.0
H226 H 0.56109 0.74029 0.6019 0.0
O227 O 0.54112 0.83345 0.56835 0.0
H228 H 0.61465 0.74217 0.49667 0.0
H229 H 0.51744 0.73151 0.63655 0.0
Cu230 Cu 0.28203 0.52867 0.51721 0.0
N231 N 0.30189 0.55241 0.49437 0.0
N232 N 0.30994 0.59113 0.46761 0.0
C233 C 0.29146 0.5768 0.47739 0.0
C234 C 0.3329 0.57492 0.47885 0.0
C235 C 0.32788 0.55129 0.49532 0.0
O236 O 0.25768 0.55182 0.54888 0.0
C237 C 0.27983 0.50336 0.46289 0.0
O238 O 0.30462 0.5055 0.45814 0.0
H239 H 0.27038 0.5845 0.47366 0.0
H240 H 0.342 0.53501 0.50815 0.0
N241 N 0.30213 0.49688 0.54051 0.0
N242 N 0.31037 0.46045 0.57762 0.0
C243 C 0.29195 0.48342 0.56663 0.0
C244 C 0.32786 0.48172 0.53447 0.0
C245 C 0.33303 0.45943 0.55734 0.0
C246 C 0.26975 0.55661 0.57129 0.0
O247 O 0.29569 0.5445 0.57128 0.0
H248 H 0.27134 0.4905 0.57735 0.0
H249 H 0.34173 0.48614 0.51444 0.0
O250 O 0.26466 0.51403 0.48738 0.0
H251 H 0.35198 0.5799 0.47583 0.0
H252 H 0.35187 0.4433 0.55831 0.0
Cu253 Cu 0.52651 0.2823 0.52263 0.0
N254 N 0.55655 0.26231 0.49594 0.0
N255 N 0.59664 0.25335 0.46552 0.0
C256 C 0.57772 0.272 0.4834 0.0
C257 C 0.58684 0.23102 0.46691 0.0
C258 C 0.56226 0.23658 0.48559 0.0
O259 O 0.54205 0.3052 0.54602 0.0
C260 C 0.48727 0.28106 0.48491 0.0
O261 O 0.49864 0.2547 0.49271 0.0
H262 H 0.57901 0.29253 0.48719 0.0
H263 H 0.54957 0.22269 0.49123 0.0
N264 N 0.51242 0.2601 0.55563 0.0
N265 N 0.48725 0.24973 0.60044 0.0
C266 C 0.49286 0.27017 0.57935 0.0
C267 C 0.51955 0.2323 0.56194 0.0
C268 C 0.50406 0.22586 0.58942 0.0
C269 C 0.55958 0.28933 0.56351 0.0
O270 O 0.56382 0.26229 0.56305 0.0
H271 H 0.48291 0.29214 0.58095 0.0
H272 H 0.53523 0.21773 0.54799 0.0
O273 O 0.49664 0.29918 0.49528 0.0
H274 H 0.59686 0.21177 0.45569 0.0
H275 H 0.50557 0.20519 0.60078 0.0
Tb276 Tb 0.2714 0.29689 0.35273 0.0
C277 C 0.30868 0.31352 0.20995 0.0
C278 C 0.34243 0.26992 0.20087 0.0
C279 C 0.31612 0.29439 0.15751 0.0
C280 C 0.32806 0.29104 0.22132 0.0
C281 C 0.30304 0.31606 0.17762 0.0
C282 C 0.33577 0.27128 0.16917 0.0
C283 C 0.27441 0.36239 0.18672 0.0
N284 N 0.29667 0.33389 0.2302 0.0
C285 C 0.28058 0.35873 0.21871 0.0
C286 C 0.28523 0.34073 0.16625 0.0
Tb287 Tb 0.30661 0.32548 0.28272 0.0
N288 N 0.33391 0.2908 0.25195 0.0
C289 C 0.35579 0.27119 0.26266 0.0
C290 C 0.36356 0.24866 0.2126 0.0
C291 C 0.37061 0.24961 0.24341 0.0
H292 H 0.27175 0.37537 0.23456 0.0
H293 H 0.38734 0.23365 0.25245 0.0
H294 H 0.34631 0.25506 0.15319 0.0
H295 H 0.26109 0.38179 0.17797 0.0
H296 H 0.36138 0.27136 0.28652 0.0
H297 H 0.18713 0.38609 0.38102 0.0
H298 H 0.37504 0.23194 0.19774 0.0
H299 H 0.30959 0.24977 0.40075 0.0
H300 H 0.21563 0.34935 0.34709 0.0
H301 H 0.32006 0.24496 0.45735 0.0
H302 H 0.31181 0.2957 0.13269 0.0
H303 H 0.19748 0.38832 0.43652 0.0
H304 H 0.22597 0.3668 0.48174 0.0
H305 H 0.28036 0.34357 0.14153 0.0
H306 H 0.26224 0.32827 0.50262 0.0
N307 N 0.24237 0.33093 0.38272 0.0
C308 C 0.22032 0.34976 0.37133 0.0
C309 C 0.21003 0.37201 0.42177 0.0
C310 C 0.23163 0.35167 0.43396 0.0
C311 C 0.20409 0.37076 0.3905 0.0
C312 C 0.24738 0.33101 0.41366 0.0
H313 H 0.29718 0.28237 0.49385 0.0
N314 N 0.2815 0.28972 0.40512 0.0
C315 C 0.30538 0.26333 0.4486 0.0
C316 C 0.26773 0.30962 0.42531 0.0
C317 C 0.29933 0.26605 0.41662 0.0
C318 C 0.29246 0.28452 0.46911 0.0
C319 C 0.27303 0.30785 0.4577 0.0
O320 O 0.26751 0.2563 0.36439 0.0
O321 O 0.29397 0.29049 0.30621 0.0
O322 O 0.27018 0.32046 0.26571 0.0
O323 O 0.24417 0.31288 0.3142 0.0
O324 O 0.30226 0.25835 0.34015 0.0
O325 O 0.23281 0.29082 0.35629 0.0
O326 O 0.31323 0.36503 0.27061 0.0
O327 O 0.28342 0.33214 0.32892 0.0
O328 O 0.30664 0.30448 0.36947 0.0
O329 O 0.33385 0.30695 0.32085 0.0
O330 O 0.27656 0.36459 0.29525 0.0
O331 O 0.34582 0.3293 0.28172 0.0
C332 C 0.30743 0.26544 0.31009 0.0
C333 C 0.22554 0.25261 0.39058 0.0
C334 C 0.19676 0.22191 0.40928 0.0
C335 C 0.21201 0.23349 0.38417 0.0
C336 C 0.19525 0.22999 0.44083 0.0
C337 C 0.22367 0.26034 0.42217 0.0
C338 C 0.20861 0.24904 0.44714 0.0
C339 C 0.24757 0.317 0.28214 0.0
C340 C 0.24148 0.2642 0.364 0.0
C341 C 0.25827 0.32901 0.47774 0.0
C342 C 0.23761 0.35093 0.46586 0.0
C343 C 0.27012 0.35724 0.32486 0.0
C344 C 0.3568 0.36443 0.24543 0.0
C345 C 0.37271 0.38163 0.25083 0.0
C346 C 0.39093 0.38882 0.22571 0.0
C347 C 0.39257 0.37893 0.19508 0.0
C348 C 0.35889 0.35479 0.2147 0.0
C349 C 0.37659 0.36213 0.18966 0.0
C350 C 0.33003 0.30518 0.35302 0.0
C351 C 0.33905 0.35566 0.27232 0.0
H352 H 0.21362 0.22742 0.35972 0.0
H353 H 0.18337 0.22193 0.46064 0.0
H354 H 0.23376 0.27512 0.42754 0.0
H355 H 0.20718 0.25516 0.47149 0.0
H356 H 0.3714 0.38882 0.27467 0.0
H357 H 0.40611 0.38436 0.1752 0.0
H358 H 0.34708 0.34141 0.2101 0.0
H359 H 0.37806 0.35463 0.166 0.0
Tb360 Tb 0.80973 0.30821 0.34328 0.0
C361 C 0.72506 0.28667 0.27093 0.0
C362 C 0.71619 0.24477 0.29844 0.0
C363 C 0.68156 0.27814 0.26992 0.0
C364 C 0.73348 0.262 0.28971 0.0
C365 C 0.69911 0.29486 0.26055 0.0
C366 C 0.69014 0.25308 0.28863 0.0
C367 C 0.71061 0.33415 0.2299 0.0
N368 N 0.74266 0.30213 0.2619 0.0
C369 C 0.73627 0.32495 0.24037 0.0
C370 C 0.69184 0.31919 0.24028 0.0
Tb371 Tb 0.7845 0.28372 0.27886 0.0
N372 N 0.75884 0.25451 0.29866 0.0
C373 C 0.76845 0.22958 0.31559 0.0
C374 C 0.72579 0.21946 0.31621 0.0
C375 C 0.752 0.21187 0.32489 0.0
H376 H 0.75092 0.33633 0.232 0.0
H377 H 0.75961 0.19228 0.33853 0.0
H378 H 0.67658 0.2401 0.29505 0.0
H379 H 0.70539 0.35263 0.21364 0.0
H380 H 0.78874 0.2233 0.32223 0.0
H381 H 0.85017 0.39027 0.28283 0.0
H382 H 0.71328 0.20545 0.32298 0.0
H383 H 0.83159 0.26161 0.40288 0.0
H384 H 0.81578 0.36499 0.29757 0.0
H385 H 0.8736 0.24236 0.42864 0.0
H386 H 0.66152 0.2841 0.26224 0.0
H387 H 0.89463 0.37225 0.30345 0.0
H388 H 0.92641 0.33478 0.33497 0.0
H389 H 0.67205 0.32622 0.2319 0.0
H390 H 0.93315 0.2938 0.37395 0.0
N391 N 0.84112 0.33164 0.32445 0.0
C392 C 0.8354 0.35632 0.30591 0.0
C393 C 0.88001 0.3604 0.30891 0.0
C394 C 0.88566 0.3355 0.32835 0.0
C395 C 0.85481 0.37083 0.29758 0.0
C396 C 0.86534 0.32175 0.33636 0.0
H397 H 0.91341 0.25941 0.40944 0.0
N398 N 0.84791 0.28818 0.3681 0.0
C399 C 0.87264 0.25816 0.40881 0.0
C400 C 0.86894 0.29911 0.35875 0.0
C401 C 0.84886 0.2691 0.39411 0.0
C402 C 0.8951 0.26776 0.39783 0.0
C403 C 0.89321 0.28903 0.37311 0.0
O404 O 0.79176 0.31439 0.39133 0.0
O405 O 0.77939 0.29149 0.32928 0.0
O406 O 0.754 0.32041 0.29658 0.0
O407 O 0.7801 0.34264 0.31896 0.0
O408 O 0.79101 0.27903 0.37401 0.0
O409 O 0.80398 0.34705 0.36168 0.0
O410 O 0.79445 0.2854 0.22859 0.0
O411 O 0.81546 0.29967 0.29265 0.0
O412 O 0.83958 0.26876 0.33212 0.0
O413 O 0.81876 0.25021 0.29667 0.0
O414 O 0.80132 0.31486 0.24947 0.0
O415 O 0.79402 0.24634 0.25508 0.0
C416 C 0.77478 0.27672 0.3545 0.0
C417 C 0.76951 0.36143 0.40345 0.0
C418 C 0.75225 0.40242 0.43531 0.0
C419 C 0.77372 0.38026 0.42354 0.0
C420 C 0.72638 0.40532 0.42653 0.0
C421 C 0.74353 0.36456 0.39531 0.0
C422 C 0.72211 0.38646 0.40679 0.0
C423 C 0.75738 0.34272 0.3078 0.0
C424 C 0.79297 0.34005 0.38968 0.0
C425 C 0.91425 0.3014 0.36344 0.0
C426 C 0.91041 0.32473 0.34125 0.0
C427 C 0.8192 0.31523 0.2678 0.0
C428 C 0.77864 0.25401 0.20265 0.0
C429 C 0.78023 0.22657 0.19558 0.0
C430 C 0.76386 0.22201 0.17343 0.0
C431 C 0.74582 0.24492 0.15886 0.0
C432 C 0.76133 0.27647 0.18613 0.0
C433 C 0.74475 0.27193 0.165 0.0
C434 C 0.83844 0.24844 0.31487 0.0
C435 C 0.79513 0.25944 0.22652 0.0
H436 H 0.79395 0.37808 0.42926 0.0
H437 H 0.70939 0.42202 0.43515 0.0
H438 H 0.73991 0.35033 0.37983 0.0
H439 H 0.70211 0.38895 0.40021 0.0
H440 H 0.79409 0.20896 0.2071 0.0
H441 H 0.73315 0.24192 0.14178 0.0
H442 H 0.76067 0.29773 0.18918 0.0
H443 H 0.73131 0.28947 0.1529 0.0
Tb444 Tb 0.80743 0.75855 0.27964 0.0
C445 C 0.81475 0.81496 0.39713 0.0
C446 C 0.7685 0.83935 0.41394 0.0
C447 C 0.80051 0.82286 0.4538 0.0
C448 C 0.78893 0.82796 0.38959 0.0
C449 C 0.82101 0.81262 0.42921 0.0
C450 C 0.7743 0.83624 0.44617 0.0
C451 C 0.86759 0.79193 0.40988 0.0
N452 N 0.83395 0.80524 0.37272 0.0
C453 C 0.86039 0.79482 0.37841 0.0
C454 C 0.84776 0.80057 0.43546 0.0
Tb455 Tb 0.81998 0.81083 0.32223 0.0
N456 N 0.7841 0.83043 0.3582 0.0
C457 C 0.75958 0.84586 0.34924 0.0
C458 C 0.74306 0.85406 0.40504 0.0
C459 C 0.73867 0.85755 0.37252 0.0
H460 H 0.87576 0.78795 0.35872 0.0
H461 H 0.71917 0.86925 0.36534 0.0
H462 H 0.75879 0.84455 0.46527 0.0
H463 H 0.88839 0.78302 0.41438 0.0
H464 H 0.75577 0.84884 0.32425 0.0
H465 H 0.90573 0.69581 0.2348 0.0
H466 H 0.7269 0.86336 0.42296 0.0
H467 H 0.75089 0.78449 0.24492 0.0
H468 H 0.87212 0.72163 0.27525 0.0
H469 H 0.73608 0.78714 0.19082 0.0
H470 H 0.80484 0.82105 0.47868 0.0
H471 H 0.89453 0.69587 0.17928 0.0
H472 H 0.86158 0.71396 0.13811 0.0
H473 H 0.8534 0.79833 0.4598 0.0
H474 H 0.81569 0.73952 0.12585 0.0
N475 N 0.84199 0.73765 0.24286 0.0
C476 C 0.86688 0.72259 0.25104 0.0
C477 C 0.87984 0.70806 0.19672 0.0
C478 C 0.85452 0.72364 0.18832 0.0
C479 C 0.88614 0.70777 0.22811 0.0
C480 C 0.83566 0.738 0.21237 0.0
H481 H 0.76872 0.76675 0.14539 0.0
N482 N 0.79184 0.76377 0.23008 0.0
C483 C 0.7569 0.7772 0.19463 0.0
C484 C 0.80977 0.75172 0.20567 0.0
C485 C 0.76537 0.77564 0.22528 0.0
C486 C 0.77539 0.76571 0.16904 0.0
C487 C 0.8021 0.75238 0.17448 0.0
O488 O 0.77809 0.73652 0.28419 0.0
O489 O 0.79519 0.78281 0.32185 0.0
O490 O 0.82715 0.77255 0.35342 0.0
O491 O 0.8365 0.73997 0.31508 0.0
O492 O 0.76544 0.77652 0.3 0.0
O493 O 0.81913 0.71572 0.29315 0.0
O494 O 0.84899 0.83311 0.32027 0.0
O495 O 0.83233 0.78624 0.2805 0.0
O496 O 0.80202 0.79599 0.24741 0.0
O497 O 0.79257 0.82952 0.2847 0.0
O498 O 0.86206 0.79418 0.30046 0.0
O499 O 0.80826 0.85383 0.31003 0.0
C500 C 0.76986 0.78731 0.32446 0.0
C501 C 0.79612 0.69065 0.26762 0.0
C502 C 0.77218 0.66251 0.24557 0.0
C503 C 0.77228 0.68331 0.26566 0.0
C504 C 0.7962 0.64945 0.22709 0.0
C505 C 0.81993 0.67693 0.24922 0.0
C506 C 0.81985 0.65665 0.22896 0.0
C507 C 0.83717 0.74682 0.34459 0.0
C508 C 0.79586 0.71261 0.28876 0.0
C509 C 0.82114 0.73917 0.15002 0.0
C510 C 0.84726 0.72464 0.15699 0.0
C511 C 0.85757 0.78259 0.27661 0.0
C512 C 0.83014 0.87891 0.3372 0.0
C513 C 0.85271 0.88901 0.33751 0.0
C514 C 0.8515 0.91043 0.35744 0.0
C515 C 0.82768 0.9211 0.37754 0.0
C516 C 0.8065 0.89027 0.35732 0.0
C517 C 0.80542 0.91101 0.37749 0.0
C518 C 0.79307 0.82217 0.25502 0.0
C519 C 0.83125 0.85701 0.31551 0.0
H520 H 0.75395 0.69349 0.28015 0.0
H521 H 0.79667 0.63373 0.211 0.0
H522 H 0.83869 0.68175 0.2504 0.0
H523 H 0.83824 0.64641 0.21468 0.0
H524 H 0.87093 0.88067 0.32181 0.0
H525 H 0.82631 0.93723 0.39347 0.0
H526 H 0.78869 0.88337 0.35744 0.0
H527 H 0.78715 0.91946 0.39299 0.0
Tb528 Tb 0.29566 0.79047 0.27486 0.0
C529 C 0.3067 0.88665 0.34133 0.0
C530 C 0.34125 0.9023 0.30647 0.0
C531 C 0.30609 0.93543 0.33765 0.0
C532 C 0.32942 0.88094 0.31922 0.0
C533 C 0.29503 0.91384 0.35124 0.0
C534 C 0.32918 0.92966 0.31535 0.0
C535 C 0.26357 0.89593 0.3889 0.0
N536 N 0.29638 0.86532 0.35368 0.0
C537 C 0.27595 0.86927 0.37844 0.0
C538 C 0.27291 0.91839 0.37494 0.0
Tb539 Tb 0.31812 0.82277 0.33435 0.0
N540 N 0.34032 0.85432 0.31085 0.0
C541 C 0.36427 0.84729 0.29163 0.0
C542 C 0.36509 0.89542 0.28562 0.0
C543 C 0.37678 0.86775 0.27843 0.0
H544 H 0.26859 0.85194 0.38914 0.0
H545 H 0.39542 0.86217 0.26269 0.0
H546 H 0.33779 0.94641 0.30552 0.0
H547 H 0.24682 0.89916 0.40768 0.0
H548 H 0.37352 0.82598 0.28582 0.0
H549 H 0.21944 0.75005 0.34755 0.0
H550 H 0.37492 0.91117 0.2755 0.0
H551 H 0.34416 0.7624 0.21815 0.0
H552 H 0.24146 0.78625 0.32567 0.0
H553 H 0.36401 0.71626 0.19639 0.0
H554 H 0.29725 0.95654 0.34469 0.0
H555 H 0.23838 0.70184 0.33129 0.0
H556 H 0.27389 0.66756 0.29822 0.0
H557 H 0.26329 0.93902 0.3831 0.0
H558 H 0.3133 0.6583 0.25738 0.0
N559 N 0.27345 0.75877 0.29781 0.0
C560 C 0.25018 0.76535 0.31832 0.0
C561 C 0.24838 0.7176 0.32175 0.0
C562 C 0.27159 0.71118 0.29983 0.0
C563 C 0.23756 0.74483 0.33088 0.0
C564 C 0.28366 0.73255 0.28788 0.0
H565 H 0.34684 0.67637 0.21905 0.0
N566 N 0.31652 0.74859 0.25347 0.0
C567 C 0.34778 0.71904 0.21581 0.0
C568 C 0.30586 0.7273 0.26493 0.0
C569 C 0.33645 0.74516 0.22814 0.0
C570 C 0.33803 0.69658 0.22866 0.0
C571 C 0.31657 0.70061 0.25321 0.0
O572 O 0.29058 0.80829 0.22771 0.0
O573 O 0.30906 0.82528 0.28519 0.0
O574 O 0.28024 0.85096 0.3206 0.0
O575 O 0.26085 0.82152 0.29881 0.0
O576 O 0.32401 0.80857 0.24226 0.0
O577 O 0.26023 0.7913 0.25458 0.0
O578 O 0.32081 0.81751 0.38435 0.0
O579 O 0.30483 0.78813 0.32404 0.0
O580 O 0.33409 0.76225 0.28633 0.0
O581 O 0.35268 0.78989 0.31283 0.0
O582 O 0.29311 0.80154 0.36872 0.0
O583 O 0.35614 0.81634 0.35018 0.0
C584 C 0.32362 0.82865 0.25931 0.0
C585 C 0.26958 0.78438 0.19832 0.0
C586 C 0.24713 0.76186 0.16591 0.0
C587 C 0.24667 0.77656 0.193 0.0
C588 C 0.27098 0.75427 0.14489 0.0
C589 C 0.2929 0.7772 0.17622 0.0
C590 C 0.29365 0.76192 0.15007 0.0
C591 C 0.25931 0.84556 0.31064 0.0
C592 C 0.26911 0.80047 0.22626 0.0
C593 C 0.3052 0.67902 0.26585 0.0
C594 C 0.28275 0.6843 0.2891 0.0
C595 C 0.29246 0.78255 0.35073 0.0
C596 C 0.36341 0.7935 0.40165 0.0
C597 C 0.38138 0.80164 0.41803 0.0
C598 C 0.39745 0.78279 0.43955 0.0
C599 C 0.39543 0.75523 0.44392 0.0
C600 C 0.3617 0.76601 0.40607 0.0
C601 C 0.37774 0.74695 0.42717 0.0
C602 C 0.3544 0.76664 0.29897 0.0
C603 C 0.34671 0.8146 0.38051 0.0
H604 H 0.22837 0.78258 0.20933 0.0
H605 H 0.27202 0.74258 0.12422 0.0
H606 H 0.31069 0.78339 0.17896 0.0
H607 H 0.31181 0.75626 0.13351 0.0
H608 H 0.38294 0.82282 0.41366 0.0
H609 H 0.40724 0.74015 0.46052 0.0
H610 H 0.348 0.7594 0.3934 0.0
H611 H 0.37634 0.72573 0.43074 0.0
Tb612 Tb 0.30396 0.79374 0.84129 0.0
C613 C 0.21958 0.76676 0.78152 0.0
C614 C 0.21806 0.72443 0.8143 0.0
C615 C 0.17806 0.7527 0.79074 0.0
C616 C 0.23246 0.74329 0.79979 0.0
C617 C 0.1924 0.77134 0.77619 0.0
C618 C 0.19088 0.72928 0.80968 0.0
C619 C 0.19647 0.81031 0.73901 0.0
N620 N 0.23397 0.78434 0.7676 0.0
C621 C 0.22337 0.80464 0.74473 0.0
C622 C 0.18073 0.79388 0.75531 0.0
Tb623 Tb 0.2783 0.7724 0.77679 0.0
N624 N 0.25904 0.73882 0.80312 0.0
C625 C 0.27201 0.71585 0.82148 0.0
C626 C 0.23136 0.70111 0.83293 0.0
C627 C 0.25841 0.69688 0.83659 0.0
H628 H 0.2358 0.81669 0.73111 0.0
H629 H 0.26884 0.67903 0.85127 0.0
H630 H 0.17966 0.71486 0.8204 0.0
H631 H 0.18806 0.82704 0.72167 0.0
H632 H 0.29255 0.71208 0.826 0.0
H633 H 0.35449 0.86761 0.77852 0.0
H634 H 0.22093 0.68631 0.84465 0.0
H635 H 0.32267 0.74343 0.89862 0.0
H636 H 0.31598 0.84861 0.79568 0.0
H637 H 0.3639 0.71999 0.92476 0.0
H638 H 0.15717 0.75594 0.78702 0.0
H639 H 0.39871 0.84439 0.7982 0.0
H640 H 0.42642 0.8064 0.83356 0.0
H641 H 0.15994 0.79806 0.75061 0.0
H642 H 0.42894 0.76642 0.87363 0.0
N643 N 0.33808 0.8141 0.82429 0.0
C644 C 0.33502 0.83811 0.80465 0.0
C645 C 0.38182 0.83585 0.80586 0.0
C646 C 0.38448 0.81222 0.82737 0.0
C647 C 0.35689 0.84904 0.79476 0.0
C648 C 0.36191 0.80186 0.8364 0.0
H649 H 0.40562 0.73431 0.90811 0.0
N650 N 0.34111 0.77026 0.86681 0.0
C651 C 0.36408 0.73655 0.90606 0.0
C652 C 0.36345 0.77927 0.85856 0.0
C653 C 0.34077 0.74988 0.89124 0.0
C654 C 0.38759 0.7447 0.89661 0.0
C655 C 0.38741 0.76652 0.87285 0.0
O656 O 0.29067 0.79803 0.89061 0.0
O657 O 0.26953 0.78397 0.82632 0.0
O658 O 0.25199 0.81392 0.78714 0.0
O659 O 0.27831 0.83101 0.81616 0.0
O660 O 0.28059 0.7679 0.87054 0.0
O661 O 0.29379 0.83371 0.85838 0.0
O662 O 0.28467 0.78082 0.72694 0.0
O663 O 0.31156 0.78423 0.79126 0.0
O664 O 0.3319 0.75299 0.82985 0.0
O665 O 0.3143 0.73779 0.7887 0.0
O666 O 0.29965 0.80048 0.74783 0.0
O667 O 0.28198 0.74011 0.74631 0.0
C668 C 0.26231 0.77062 0.85168 0.0
C669 C 0.29976 0.83535 0.91282 0.0
C670 C 0.29501 0.8714 0.9497 0.0
C671 C 0.28464 0.86007 0.9266 0.0
C672 C 0.32092 0.85754 0.95858 0.0
C673 C 0.32519 0.82158 0.92266 0.0
C674 C 0.33574 0.83272 0.9453 0.0
C675 C 0.25713 0.83461 0.80002 0.0
C676 C 0.28853 0.82464 0.88813 0.0
C677 C 0.41023 0.77616 0.86325 0.0
C678 C 0.40879 0.79892 0.84046 0.0
C679 C 0.31806 0.79853 0.76636 0.0
C680 C 0.26434 0.75771 0.69576 0.0
C681 C 0.25775 0.73357 0.68967 0.0
C682 C 0.24176 0.73433 0.66483 0.0
C683 C 0.23149 0.75951 0.64695 0.0
C684 C 0.25452 0.78254 0.67667 0.0
C685 C 0.23775 0.78351 0.65302 0.0
C686 C 0.33253 0.73408 0.80959 0.0
C687 C 0.28276 0.7568 0.72028 0.0
H688 H 0.26474 0.87027 0.91942 0.0
H689 H 0.32995 0.86602 0.97553 0.0
H690 H 0.33696 0.80229 0.91305 0.0
H691 H 0.35554 0.82215 0.95247 0.0
H692 H 0.26609 0.71399 0.70307 0.0
H693 H 0.21929 0.76034 0.62762 0.0
H694 H 0.25984 0.80135 0.67984 0.0
H695 H 0.23017 0.80278 0.63876 0.0
Tb696 Tb 0.29657 0.25923 0.7962 0.0
C697 C 0.3059 0.3198 0.91217 0.0
C698 C 0.26316 0.3545 0.92155 0.0
C699 C 0.291 0.337 0.96554 0.0
C700 C 0.28232 0.33634 0.90101 0.0
C701 C 0.31065 0.32003 0.94449 0.0
C702 C 0.26741 0.35441 0.954 0.0
C703 C 0.35499 0.289 0.93189 0.0
N704 N 0.32473 0.3044 0.89086 0.0
C705 C 0.34954 0.28992 0.8999 0.0
C706 C 0.33536 0.30393 0.95437 0.0
Tb707 Tb 0.31439 0.30878 0.83879 0.0
N708 N 0.27888 0.33583 0.86953 0.0
C709 C 0.25691 0.35372 0.85682 0.0
C710 C 0.24082 0.37291 0.90855 0.0
C711 C 0.23749 0.37227 0.87618 0.0
H712 H 0.36486 0.27852 0.88253 0.0
H713 H 0.22023 0.38643 0.86594 0.0
H714 H 0.25278 0.36803 0.97023 0.0
H715 H 0.37437 0.27696 0.93911 0.0
H716 H 0.25426 0.35407 0.83167 0.0
H717 H 0.39178 0.18265 0.76979 0.0
H718 H 0.22626 0.38803 0.92316 0.0
H719 H 0.24668 0.28935 0.75152 0.0
H720 H 0.35668 0.21392 0.8041 0.0
H721 H 0.23811 0.29133 0.6945 0.0
H722 H 0.29421 0.33742 0.99051 0.0
H723 H 0.387 0.18187 0.71204 0.0
H724 H 0.36067 0.20154 0.6647 0.0
H725 H 0.33974 0.30345 0.97905 0.0
H726 H 0.31931 0.23183 0.64393 0.0
N727 N 0.33246 0.23219 0.76589 0.0
C728 C 0.3544 0.21447 0.77882 0.0
C729 C 0.3718 0.19635 0.72676 0.0
C730 C 0.34931 0.21435 0.71363 0.0
C731 C 0.37446 0.19656 0.75942 0.0
C732 C 0.32955 0.23192 0.73419 0.0
H733 H 0.27345 0.26535 0.65488 0.0
N734 N 0.28693 0.26362 0.7438 0.0
C735 C 0.25738 0.27928 0.70207 0.0
C736 C 0.30611 0.24842 0.72267 0.0
C737 C 0.26228 0.27811 0.73431 0.0
C738 C 0.27739 0.26462 0.67977 0.0
C739 C 0.30195 0.24852 0.69007 0.0
O740 O 0.26377 0.24259 0.79515 0.0
O741 O 0.28529 0.28648 0.83521 0.0
O742 O 0.31375 0.27277 0.87311 0.0
O743 O 0.31856 0.23823 0.83797 0.0
O744 O 0.255 0.28338 0.81169 0.0
O745 O 0.30035 0.21798 0.81433 0.0
O746 O 0.34704 0.32577 0.83929 0.0
O747 O 0.32561 0.28143 0.80001 0.0
O748 O 0.29739 0.29526 0.76203 0.0
O749 O 0.29219 0.32977 0.79723 0.0
O750 O 0.35604 0.285 0.82276 0.0
O751 O 0.31021 0.35 0.82035 0.0
C752 C 0.26008 0.29462 0.83542 0.0
C753 C 0.2785 0.19466 0.78501 0.0
C754 C 0.25546 0.16639 0.76174 0.0
C755 C 0.25458 0.18865 0.78016 0.0
C756 C 0.28045 0.15083 0.74741 0.0
C757 C 0.30326 0.17813 0.77117 0.0
C758 C 0.30413 0.15669 0.75217 0.0
C759 C 0.31876 0.24622 0.86722 0.0
C760 C 0.27757 0.21771 0.80487 0.0
C761 C 0.32206 0.23198 0.66911 0.0
C762 C 0.34561 0.21475 0.68093 0.0
C763 C 0.35087 0.27362 0.79919 0.0
C764 C 0.33217 0.37384 0.84877 0.0
C765 C 0.35605 0.38037 0.85256 0.0
C766 C 0.35521 0.40298 0.87035 0.0
C767 C 0.33036 0.41832 0.88524 0.0
C768 C 0.30751 0.39022 0.86299 0.0
C769 C 0.30671 0.41194 0.88151 0.0
C770 C 0.29272 0.32177 0.76781 0.0
C771 C 0.33305 0.35052 0.82939 0.0
H772 H 0.23546 0.20081 0.79136 0.0
H773 H 0.28168 0.13397 0.73261 0.0
H774 H 0.32207 0.18148 0.77512 0.0
H775 H 0.3233 0.14437 0.74136 0.0
H776 H 0.37508 0.36841 0.84092 0.0
H777 H 0.32921 0.43544 0.89959 0.0
H778 H 0.2887 0.38659 0.85965 0.0
H779 H 0.28761 0.42413 0.89264 0.0
Tb780 Tb 0.79172 0.28239 0.77526 0.0
C781 C 0.80837 0.3704 0.85627 0.0
C782 C 0.84704 0.38513 0.83107 0.0
C783 C 0.81141 0.41674 0.86346 0.0
C784 C 0.83246 0.3651 0.83661 0.0
C785 C 0.79758 0.39621 0.87008 0.0
C786 C 0.83621 0.41114 0.84419 0.0
C787 C 0.76141 0.3787 0.89793 0.0
N788 N 0.79586 0.34985 0.86254 0.0
C789 C 0.77317 0.35324 0.88416 0.0
C790 C 0.77356 0.40036 0.89067 0.0
Tb791 Tb 0.81736 0.30892 0.83915 0.0
N792 N 0.84215 0.33988 0.82401 0.0
C793 C 0.86693 0.33298 0.80656 0.0
C794 C 0.87238 0.37813 0.81328 0.0
C795 C 0.8823 0.35202 0.80079 0.0
H796 H 0.76371 0.33657 0.89001 0.0
H797 H 0.9019 0.34643 0.78699 0.0
H798 H 0.84699 0.42691 0.8399 0.0
H799 H 0.74308 0.38155 0.91425 0.0
H800 H 0.87503 0.31272 0.79713 0.0
H801 H 0.7138 0.242 0.84333 0.0
H802 H 0.88466 0.39253 0.80956 0.0
H803 H 0.83905 0.2557 0.71694 0.0
H804 H 0.73661 0.27807 0.82284 0.0
H805 H 0.85884 0.21018 0.69355 0.0
H806 H 0.80342 0.43677 0.87372 0.0
H807 H 0.73261 0.19392 0.82637 0.0
H808 H 0.76803 0.16001 0.79243 0.0
H809 H 0.76453 0.41997 0.90159 0.0
H810 H 0.80767 0.15128 0.75178 0.0
N811 N 0.76865 0.25059 0.7952 0.0
C812 C 0.74511 0.2572 0.81519 0.0
C813 C 0.74279 0.20966 0.81735 0.0
C814 C 0.76613 0.20335 0.79562 0.0
C815 C 0.73208 0.23679 0.82691 0.0
C816 C 0.77855 0.22463 0.78466 0.0
H817 H 0.84153 0.16997 0.71448 0.0
N818 N 0.81144 0.24113 0.75161 0.0
C819 C 0.84261 0.21253 0.71296 0.0
C820 C 0.8008 0.21967 0.76209 0.0
C821 C 0.83135 0.23829 0.72623 0.0
C822 C 0.8328 0.18987 0.72485 0.0
C823 C 0.81134 0.19338 0.74936 0.0
O824 O 0.78645 0.29646 0.72667 0.0
O825 O 0.81026 0.31187 0.78925 0.0
O826 O 0.78265 0.34118 0.82275 0.0
O827 O 0.75995 0.31393 0.80254 0.0
O828 O 0.81929 0.30153 0.74269 0.0
O829 O 0.75228 0.29585 0.76107 0.0
O830 O 0.81939 0.29455 0.88803 0.0
O831 O 0.80055 0.27816 0.82476 0.0
O832 O 0.82979 0.2525 0.78553 0.0
O833 O 0.85044 0.27771 0.81307 0.0
O834 O 0.78868 0.29015 0.8701 0.0
O835 O 0.85548 0.29576 0.85716 0.0
C836 C 0.82384 0.31651 0.76321 0.0
C837 C 0.74925 0.2871 0.7072 0.0
C838 C 0.71544 0.28908 0.67041 0.0
C839 C 0.72518 0.30157 0.69341 0.0
C840 C 0.72957 0.2618 0.66255 0.0
C841 C 0.76288 0.26019 0.698 0.0
C842 C 0.75303 0.2476 0.67617 0.0
C843 C 0.76069 0.33779 0.81295 0.0
C844 C 0.76049 0.29986 0.73068 0.0
C845 C 0.7997 0.17175 0.76098 0.0
C846 C 0.77713 0.17672 0.7841 0.0
C847 C 0.78687 0.2729 0.85045 0.0
C848 C 0.85384 0.30499 0.91222 0.0
C849 C 0.87979 0.29426 0.92293 0.0
C850 C 0.88745 0.30693 0.94754 0.0
C851 C 0.86862 0.33004 0.9613 0.0
C852 C 0.83579 0.32813 0.92666 0.0
C853 C 0.84316 0.34052 0.95087 0.0
C854 C 0.85082 0.2554 0.79817 0.0
C855 C 0.84516 0.29187 0.88676 0.0
H856 H 0.71449 0.32246 0.70002 0.0
H857 H 0.72236 0.25125 0.64582 0.0
H858 H 0.78135 0.24876 0.70739 0.0
H859 H 0.76374 0.22671 0.66965 0.0
H860 H 0.89393 0.27642 0.91204 0.0
H861 H 0.87345 0.33992 0.98061 0.0
H862 H 0.81572 0.33655 0.91968 0.0
H863 H 0.82892 0.35824 0.96183 0.0
Tb864 Tb 0.76786 0.79114 0.83327 0.0
C865 C 0.80927 0.8106 0.69152 0.0
C866 C 0.84364 0.76826 0.67858 0.0
C867 C 0.81851 0.79679 0.63632 0.0
C868 C 0.8282 0.78688 0.70136 0.0
C869 C 0.8044 0.81612 0.65883 0.0
C870 C 0.83827 0.77299 0.64614 0.0
C871 C 0.7744 0.86079 0.67251 0.0
N872 N 0.79682 0.82914 0.7138 0.0
C873 C 0.7803 0.85455 0.70454 0.0
C874 C 0.78627 0.84136 0.6496 0.0
Tb875 Tb 0.80721 0.81691 0.76583 0.0
N876 N 0.8329 0.78322 0.73284 0.0
C877 C 0.85359 0.7616 0.74287 0.0
C878 C 0.86468 0.7461 0.68885 0.0
C879 C 0.86958 0.74268 0.72116 0.0
H880 H 0.771 0.86968 0.7221 0.0
H881 H 0.88586 0.7256 0.72932 0.0
H882 H 0.8497 0.75872 0.62836 0.0
H883 H 0.76077 0.88061 0.6655 0.0
H884 H 0.85798 0.75856 0.76762 0.0
H885 H 0.69261 0.88493 0.86997 0.0
H886 H 0.8776 0.73187 0.67192 0.0
H887 H 0.80228 0.73738 0.87746 0.0
H888 H 0.71654 0.84898 0.83269 0.0
H889 H 0.81391 0.72698 0.93363 0.0
H890 H 0.81494 0.80052 0.61111 0.0
H891 H 0.70518 0.88134 0.92551 0.0
H892 H 0.73344 0.85378 0.96854 0.0
H893 H 0.78188 0.84634 0.62474 0.0
H894 H 0.76652 0.81061 0.98601 0.0
N895 N 0.74319 0.82525 0.86632 0.0
C896 C 0.7223 0.8469 0.85683 0.0
C897 C 0.71587 0.86545 0.9092 0.0
C898 C 0.73616 0.84243 0.9194 0.0
C899 C 0.70864 0.86747 0.87792 0.0
C900 C 0.74937 0.82234 0.8972 0.0
H901 H 0.79626 0.76285 0.97331 0.0
N902 N 0.7788 0.77894 0.88512 0.0
C903 C 0.80101 0.74717 0.92642 0.0
C904 C 0.76783 0.79824 0.90701 0.0
C905 C 0.7943 0.75309 0.89467 0.0
C906 C 0.79106 0.7675 0.94873 0.0
C907 C 0.77385 0.79327 0.93929 0.0
O908 O 0.75804 0.75299 0.84232 0.0
O909 O 0.79005 0.78392 0.78629 0.0
O910 O 0.77053 0.81424 0.74791 0.0
O911 O 0.74197 0.81467 0.79581 0.0
O912 O 0.7939 0.75048 0.81846 0.0
O913 O 0.72711 0.79162 0.83661 0.0
O914 O 0.81737 0.85483 0.75475 0.0
O915 O 0.7847 0.82424 0.81247 0.0
O916 O 0.80488 0.79281 0.85112 0.0
O917 O 0.833 0.7926 0.80294 0.0
O918 O 0.78064 0.85748 0.77998 0.0
O919 O 0.84737 0.81698 0.767 0.0
C920 C 0.80067 0.758 0.789 0.0
C921 C 0.7156 0.75553 0.8712 0.0
C922 C 0.68761 0.72515 0.89398 0.0
C923 C 0.70303 0.73488 0.86758 0.0
C924 C 0.68495 0.73641 0.92401 0.0
C925 C 0.71243 0.76666 0.90128 0.0
C926 C 0.69724 0.75708 0.92753 0.0
C927 C 0.74628 0.8167 0.76371 0.0
C928 C 0.73226 0.76484 0.84357 0.0
C929 C 0.7619 0.81383 0.96117 0.0
C930 C 0.74307 0.8384 0.95123 0.0
C931 C 0.7737 0.85006 0.80937 0.0
C932 C 0.86223 0.85071 0.73189 0.0
C933 C 0.87754 0.86831 0.73785 0.0
C934 C 0.89725 0.87425 0.71394 0.0
C935 C 0.90108 0.86271 0.68391 0.0
C936 C 0.86639 0.83955 0.70171 0.0
C937 C 0.88564 0.8456 0.67785 0.0
C938 C 0.82904 0.7898 0.835 0.0
C939 C 0.8428 0.84334 0.75769 0.0
H940 H 0.70551 0.7262 0.84435 0.0
H941 H 0.67296 0.72958 0.94465 0.0
H942 H 0.72156 0.78277 0.9045 0.0
H943 H 0.6949 0.76578 0.95067 0.0
H944 H 0.87456 0.87682 0.76124 0.0
H945 H 0.9159 0.86714 0.66499 0.0
H946 H 0.85499 0.82598 0.69663 0.0
H947 H 0.88871 0.83685 0.65464 0.0
C948 C 0.08751 0.14056 0.4064 0.0
C949 C 0.09587 0.1159 0.39021 0.0
C950 C 0.1049 0.15722 0.40734 0.0
C951 C 0.13145 0.14919 0.39167 0.0
C952 C 0.13996 0.12457 0.37484 0.0
C953 C 0.12209 0.10825 0.3743 0.0
C954 C 0.0949 0.18334 0.42546 0.0
C955 C 0.16809 0.11525 0.35785 0.0
C956 C 0.16742 0.2064 0.37598 0.0
C957 C 0.18202 0.20183 0.40287 0.0
C958 C 0.15164 0.18885 0.37133 0.0
C959 C 0.15041 0.16615 0.39408 0.0
C960 C 0.16593 0.16083 0.42056 0.0
C961 C 0.18151 0.17867 0.4246 0.0
C962 C 0.13548 0.19526 0.34272 0.0
C963 C 0.1654 0.13679 0.44528 0.0
H964 H 0.06718 0.14707 0.41819 0.0
H965 H 0.12885 0.08919 0.36192 0.0
H966 H 0.10732 0.1818 0.44551 0.0
H967 H 0.09697 0.20167 0.40915 0.0
H968 H 0.0735 0.18708 0.43569 0.0
H969 H 0.17125 0.09632 0.34462 0.0
H970 H 0.17225 0.13214 0.34047 0.0
H971 H 0.18299 0.11072 0.37571 0.0
H972 H 0.16752 0.22431 0.35915 0.0
H973 H 0.19313 0.17462 0.4451 0.0
H974 H 0.11368 0.2019 0.35127 0.0
H975 H 0.13908 0.17633 0.32941 0.0
H976 H 0.14046 0.21203 0.32573 0.0
H977 H 0.14491 0.14009 0.45833 0.0
H978 H 0.17995 0.13436 0.46325 0.0
H979 H 0.17013 0.11707 0.43318 0.0
C980 C 0.9663 0.11127 0.31229 0.0
C981 C 0.9899 0.12006 0.30737 0.0
C982 C 0.94069 0.13054 0.31112 0.0
C983 C 0.9385 0.15934 0.30452 0.0
C984 C 0.96231 0.16811 0.29765 0.0
C985 C 0.98762 0.14846 0.29935 0.0
C986 C 0.91591 0.12023 0.31874 0.0
C987 C 0.96104 0.19849 0.29001 0.0
C988 C 0.87212 0.21117 0.2836 0.0
C989 C 0.86229 0.22358 0.31294 0.0
C990 C 0.89659 0.18988 0.28054 0.0
C991 C 0.9115 0.18054 0.30754 0.0
C992 C 0.90107 0.19237 0.33746 0.0
C993 C 0.87671 0.21365 0.33971 0.0
C994 C 0.90699 0.17814 0.24812 0.0
C995 C 0.91597 0.18303 0.36703 0.0
H996 H 0.96772 0.08946 0.31869 0.0
H997 H 1.00565 0.15553 0.29536 0.0
H998 H 0.90509 0.12777 0.34214 0.0
H999 H 0.90191 0.12865 0.30003 0.0
H1000 H 0.92091 0.09712 0.32038 0.0
H1001 H 0.98124 0.20165 0.28217 0.0
H1002 H 0.94777 0.2076 0.2707 0.0
H1003 H 0.95225 0.2102 0.31173 0.0
H1004 H 0.86124 0.21888 0.26266 0.0
H1005 H 0.86896 0.22256 0.36256 0.0
H1006 H 0.9121 0.15506 0.25057 0.0
H1007 H 0.92575 0.18386 0.23865 0.0
H1008 H 0.89216 0.18602 0.23018 0.0
H1009 H 0.92015 0.16014 0.37195 0.0
H1010 H 0.90453 0.19329 0.38884 0.0
H1011 H 0.93566 0.1879 0.36273 0.0
C1012 C 0.97524 0.97852 0.34619 0.0
C1013 C 0.97797 0.98503 0.3772 0.0
C1014 C 0.95608 0.96496 0.34128 0.0
C1015 C 0.9393 0.95746 0.36802 0.0
C1016 C 0.9424 0.96324 0.39945 0.0
C1017 C 0.96158 0.97702 0.40364 0.0
C1018 C 0.95339 0.95923 0.30737 0.0
C1019 C 0.92496 0.95551 0.42864 0.0
C1020 C 0.87039 0.95111 0.35589 0.0
C1021 C 0.87468 0.92215 0.35742 0.0
C1022 C 0.89139 0.9628 0.35852 0.0
C1023 C 0.91739 0.94512 0.363 0.0
C1024 C 0.92206 0.91584 0.3637 0.0
C1025 C 0.90065 0.90469 0.36074 0.0
C1026 C 0.88558 0.9941 0.3572 0.0
C1027 C 0.94946 0.89631 0.36857 0.0
H1028 H 0.98808 0.984 0.32561 0.0
H1029 H 0.96323 0.98208 0.42764 0.0
H1030 H 0.95531 0.93679 0.30604 0.0
H1031 H 0.93312 0.97099 0.30064 0.0
H1032 H 0.96876 0.96522 0.28933 0.0
H1033 H 0.93104 0.95979 0.45161 0.0
H1034 H 0.90365 0.96746 0.4269 0.0
H1035 H 0.92599 0.93308 0.42947 0.0
H1036 H 0.85041 0.96469 0.35288 0.0
H1037 H 0.90401 0.88231 0.36215 0.0
H1038 H 0.89957 1.00123 0.33817 0.0
H1039 H 0.88893 1.00049 0.38053 0.0
H1040 H 0.86458 1.00493 0.35219 0.0
H1041 H 0.96497 0.90171 0.35032 0.0
H1042 H 0.95015 0.87419 0.36686 0.0
H1043 H 0.9549 0.89857 0.39269 0.0
C1044 C 0.12742 0.96324 0.3618 0.0
C1045 C 0.11511 0.98217 0.33742 0.0
C1046 C 0.1497 0.94044 0.35463 0.0
C1047 C 0.16038 0.93619 0.32212 0.0
C1048 C 0.1479 0.95489 0.2972 0.0
C1049 C 0.12535 0.97762 0.30511 0.0
C1050 C 0.16221 0.9212 0.38209 0.0
C1051 C 0.15876 0.95123 0.26225 0.0
C1052 C 0.23452 0.89605 0.31375 0.0
C1053 C 0.23378 0.86864 0.31101 0.0
C1054 C 0.211 0.91831 0.31572 0.0
C1055 C 0.18571 0.91331 0.31498 0.0
C1056 C 0.18478 0.88587 0.31097 0.0
C1057 C 0.20882 0.86387 0.30891 0.0
C1058 C 0.21323 0.94704 0.31993 0.0
C1059 C 0.15828 0.87956 0.31014 0.0
H1060 H 0.11969 0.96623 0.38688 0.0
H1061 H 0.11602 0.992 0.28607 0.0
H1062 H 0.1634 0.89933 0.37831 0.0
H1063 H 0.18308 0.92235 0.38276 0.0
H1064 H 0.15068 0.92649 0.40592 0.0
H1065 H 0.14593 0.96639 0.2456 0.0
H1066 H 0.17936 0.95395 0.25814 0.0
H1067 H 0.16034 0.92982 0.25612 0.0
H1068 H 0.25363 0.90027 0.31467 0.0
H1069 H 0.20798 0.84286 0.30655 0.0
H1070 H 0.20408 0.95334 0.34441 0.0
H1071 H 0.20201 0.96249 0.3022 0.0
H1072 H 0.23446 0.94796 0.317 0.0
H1073 H 0.1465 0.88222 0.33424 0.0
H1074 H 0.16105 0.85797 0.30358 0.0
H1075 H 0.1462 0.89436 0.29257 0.0
C1076 C 0.15328 0.98487 0.77494 0.0
C1077 C 0.12674 0.98447 0.78577 0.0
C1078 C 0.1753 0.96227 0.7821 0.0
C1079 C 0.17076 0.93825 0.80006 0.0
C1080 C 0.14408 0.93847 0.81299 0.0
C1081 C 0.12234 0.96173 0.80586 0.0
C1082 C 0.20327 0.9633 0.76819 0.0
C1083 C 0.1383 0.9133 0.83215 0.0
C1084 C 0.21966 0.86991 0.77454 0.0
C1085 C 0.23647 0.86217 0.79938 0.0
C1086 C 0.19804 0.89415 0.77497 0.0
C1087 C 0.19319 0.91177 0.80068 0.0
C1088 C 0.21052 0.90459 0.82557 0.0
C1089 C 0.23192 0.87984 0.82466 0.0
C1090 C 0.18038 0.90089 0.7477 0.0
C1091 C 0.2063 0.92287 0.85325 0.0
H1092 H 0.15678 1.0025 0.7595 0.0
H1093 H 0.10186 0.96122 0.81404 0.0
H1094 H 0.21767 0.95547 0.78657 0.0
H1095 H 0.21025 0.94964 0.74779 0.0
H1096 H 0.20387 0.98473 0.75914 0.0
H1097 H 0.11739 0.91803 0.84431 0.0
H1098 H 0.14111 0.89649 0.81573 0.0
H1099 H 0.15257 0.90519 0.85064 0.0
H1100 H 0.22345 0.85711 0.75443 0.0
H1101 H 0.24465 0.87403 0.84416 0.0
H1102 H 0.18174 0.92082 0.73442 0.0
H1103 H 0.15902 0.90354 0.7575 0.0
H1104 H 0.18613 0.88439 0.73029 0.0
H1105 H 0.20666 0.94427 0.8439 0.0
H1106 H 0.22187 0.91479 0.87027 0.0
H1107 H 0.1862 0.92442 0.86677 0.0
C1108 C 0.12203 0.11766 0.7608 0.0
C1109 C 0.12111 0.10908 0.73023 0.0
C1110 C 0.142 0.12981 0.76638 0.0
C1111 C 0.16152 0.13353 0.74075 0.0
C1112 C 0.15997 0.12612 0.70948 0.0
C1113 C 0.13977 0.11399 0.70459 0.0
C1114 C 0.14287 0.13756 0.80003 0.0
C1115 C 0.18043 0.12977 0.68152 0.0
C1116 C 0.20724 0.17876 0.74988 0.0
C1117 C 0.2307 0.15856 0.75795 0.0
C1118 C 0.18437 0.17103 0.74446 0.0
C1119 C 0.18504 0.14249 0.74732 0.0
C1120 C 0.20848 0.12212 0.7562 0.0
C1121 C 0.23096 0.13041 0.76144 0.0
C1122 C 0.15969 0.19329 0.73509 0.0
C1123 C 0.20995 0.09149 0.75982 0.0
H1124 H 0.10731 0.11454 0.78056 0.0
H1125 H 0.13928 0.10731 0.68097 0.0
H1126 H 0.16102 0.12365 0.81022 0.0
H1127 H 0.1444 0.15919 0.79937 0.0
H1128 H 0.12482 0.13578 0.81654 0.0
H1129 H 0.17496 0.1255 0.65818 0.0
H1130 H 0.18251 0.15127 0.67954 0.0
H1131 H 0.20041 0.11536 0.68577 0.0
H1132 H 0.20703 0.20052 0.74699 0.0
H1133 H 0.24888 0.11477 0.76826 0.0
H1134 H 0.14183 0.19167 0.75196 0.0
H1135 H 0.15559 0.19024 0.71059 0.0
H1136 H 0.16202 0.21459 0.73514 0.0
H1137 H 0.19365 0.08774 0.77804 0.0
H1138 H 0.22957 0.07835 0.76729 0.0
H1139 H 0.20692 0.08464 0.73658 0.0
C1140 C 0.97654 0.11565 0.80525 0.0
C1141 C 0.98917 0.11285 0.77357 0.0
C1142 C 0.95499 0.13931 0.81301 0.0
C1143 C 0.94622 0.16071 0.78864 0.0
C1144 C 0.95973 0.15838 0.75705 0.0
C1145 C 0.98082 0.13458 0.74995 0.0
C1146 C 0.94099 0.14095 0.84694 0.0
C1147 C 0.95128 0.18062 0.73028 0.0
C1148 C 0.87384 0.20528 0.78934 0.0
C1149 C 0.87542 0.23124 0.7972 0.0
C1150 C 0.89636 0.18194 0.78816 0.0
C1151 C 0.92148 0.18437 0.79481 0.0
C1152 C 0.9232 0.21027 0.80369 0.0
C1153 C 0.90013 0.23337 0.80491 0.0
C1154 C 0.89335 0.15486 0.77869 0.0
C1155 C 0.94961 0.21381 0.81085 0.0
H1156 H 0.98289 0.09904 0.82365 0.0
H1157 H 0.99067 0.13292 0.72548 0.0
H1158 H 0.93949 0.1613 0.8562 0.0
H1159 H 0.92014 0.1395 0.8469 0.0
H1160 H 0.95159 0.12399 0.86375 0.0
H1161 H 0.96511 0.17667 0.70765 0.0
H1162 H 0.93072 0.18156 0.72498 0.0
H1163 H 0.95058 0.20134 0.73787 0.0
H1164 H 0.85488 0.20303 0.78401 0.0
H1165 H 0.9016 0.2532 0.81133 0.0
H1166 H 0.90161 0.13758 0.7965 0.0
H1167 H 0.90499 0.1498 0.75489 0.0
H1168 H 0.87203 0.15576 0.77697 0.0
H1169 H 0.95905 0.19698 0.82851 0.0
H1170 H 0.94712 0.23425 0.82057 0.0
H1171 H 0.96371 0.21218 0.78839 0.0
C1172 C 0.98587 0.98036 0.69619 0.0
C1173 C 0.99829 0.98152 0.72354 0.0
C1174 C 0.96813 0.96383 0.69692 0.0
C1175 C 0.96296 0.94766 0.72557 0.0
C1176 C 0.97507 0.94912 0.75347 0.0
C1177 C 0.99244 0.96621 0.75219 0.0
C1178 C 0.95532 0.96324 0.66678 0.0
C1179 C 0.97042 0.93193 0.78434 0.0
C1180 C 0.90225 0.91868 0.73144 0.0
C1181 C 0.9141 0.89222 0.71993 0.0
C1182 C 0.91794 0.9368 0.73413 0.0
C1183 C 0.94616 0.92806 0.72556 0.0
C1184 C 0.95829 0.9009 0.71522 0.0
C1185 C 0.94211 0.88343 0.71232 0.0
C1186 C 0.9042 0.96566 0.74494 0.0
C1187 C 0.98833 0.89054 0.70639 0.0
H1188 H 0.99005 0.99247 0.67417 0.0
H1189 H 1.00219 0.96684 0.77329 0.0
H1190 H 0.96257 0.94208 0.65778 0.0
H1191 H 0.93313 0.96798 0.67231 0.0
H1192 H 0.95999 0.97839 0.64719 0.0
H1193 H 0.98011 0.93656 0.80439 0.0
H1194 H 0.94854 0.93573 0.79187 0.0
H1195 H 0.97864 0.90946 0.78021 0.0
H1196 H 0.88058 0.92558 0.73715 0.0
H1197 H 0.95135 0.86285 0.70379 0.0
H1198 H 0.90646 0.98134 0.72483 0.0
H1199 H 0.91384 0.9698 0.76528 0.0
H1200 H 0.8824 0.96866 0.75265 0.0
H1201 H 0.99448 0.90302 0.68483 0.0
H1202 H 0.99481 0.86826 0.70099 0.0
H1203 H 0.99921 0.89316 0.72638 0.0
C1204 C 0.27677 0.14844 0.22696 0.0
C1205 C 0.29012 0.14127 0.19636 0.0
C1206 C 0.2831 0.16789 0.24402 0.0
C1207 C 0.30375 0.18018 0.2306 0.0
C1208 C 0.31802 0.17246 0.20034 0.0
C1209 C 0.31089 0.15331 0.18345 0.0
C1210 C 0.26701 0.17599 0.27601 0.0
C1211 C 0.34033 0.18496 0.18542 0.0
C1212 C 0.29465 0.25105 0.26037 0.0
C1213 C 0.31051 0.24469 0.28613 0.0
C1214 C 0.29352 0.23054 0.24088 0.0
C1215 C 0.30867 0.20271 0.24731 0.0
C1216 C 0.32601 0.19627 0.2721 0.0
C1217 C 0.32649 0.21733 0.29149 0.0
C1218 C 0.27474 0.23847 0.21475 0.0
C1219 C 0.34294 0.16692 0.27921 0.0
H1220 H 0.26112 0.13907 0.23771 0.0
H1221 H 0.32134 0.14833 0.15983 0.0
H1222 H 0.25596 0.19845 0.27421 0.0
H1223 H 0.2522 0.16384 0.28365 0.0
H1224 H 0.28067 0.17279 0.29511 0.0
H1225 H 0.35172 0.17423 0.16388 0.0
H1226 H 0.33172 0.20726 0.17797 0.0
H1227 H 0.35457 0.18394 0.20331 0.0
H1228 H 0.2821 0.27182 0.25604 0.0
H1229 H 0.33873 0.21226 0.31148 0.0
H1230 H 0.25921 0.22698 0.21987 0.0
H1231 H 0.28604 0.23248 0.19106 0.0
H1232 H 0.26446 0.26116 0.21278 0.0
H1233 H 0.32974 0.15388 0.29041 0.0
H1234 H 0.35807 0.16607 0.29593 0.0
H1235 H 0.35353 0.15763 0.25654 0.0
C1236 C 0.95943 0.34843 0.1952 0.0
C1237 C 0.97169 0.3329 0.16856 0.0
C1238 C 0.93523 0.34541 0.21245 0.0
C1239 C 0.92272 0.32618 0.20328 0.0
C1240 C 0.93511 0.31018 0.17657 0.0
C1241 C 0.95933 0.31373 0.15956 0.0
C1242 C 0.92353 0.36245 0.24107 0.0
C1243 C 0.92252 0.28961 0.16558 0.0
C1244 C 0.87025 0.30139 0.26288 0.0
C1245 C 0.84589 0.31863 0.25288 0.0
C1246 C 0.89533 0.30386 0.24747 0.0
C1247 C 0.89624 0.32359 0.22074 0.0
C1248 C 0.87166 0.3409 0.21049 0.0
C1249 C 0.84692 0.3382 0.2266 0.0
C1250 C 0.92084 0.28526 0.25976 0.0
C1251 C 0.87147 0.36236 0.1824 0.0
H1252 H 0.96897 0.36279 0.20301 0.0
H1253 H 0.96835 0.30176 0.13888 0.0
H1254 H 0.90142 0.37118 0.24118 0.0
H1255 H 0.9276 0.34868 0.26337 0.0
H1256 H 0.93261 0.37988 0.24155 0.0
H1257 H 0.93566 0.27709 0.14627 0.0
H1258 H 0.91816 0.27523 0.1862 0.0
H1259 H 0.90306 0.30094 0.15628 0.0
H1260 H 0.86977 0.2858 0.28266 0.0
H1261 H 0.82822 0.35142 0.21852 0.0
H1262 H 0.93286 0.29817 0.26708 0.0
H1263 H 0.93333 0.27256 0.24023 0.0
H1264 H 0.91675 0.27105 0.28078 0.0
H1265 H 0.88209 0.37742 0.18763 0.0
H1266 H 0.85073 0.37406 0.17716 0.0
H1267 H 0.88245 0.3521 0.16043 0.0
C1268 C 0.78519 0.93585 0.10416 0.0
C1269 C 0.81178 0.93657 0.094 0.0
C1270 C 0.77924 0.91869 0.13096 0.0
C1271 C 0.80042 0.90157 0.14784 0.0
C1272 C 0.82734 0.90197 0.13769 0.0
C1273 C 0.8327 0.91954 0.11088 0.0
C1274 C 0.75032 0.91863 0.14097 0.0
C1275 C 0.85046 0.88378 0.15513 0.0
C1276 C 0.78697 0.87169 0.23329 0.0
C1277 C 0.78942 0.84391 0.22804 0.0
C1278 C 0.78966 0.89105 0.20727 0.0
C1279 C 0.79459 0.88241 0.17539 0.0
C1280 C 0.79519 0.85497 0.16985 0.0
C1281 C 0.79256 0.83608 0.19622 0.0
C1282 C 0.78867 0.9203 0.21399 0.0
C1283 C 0.80005 0.84508 0.13613 0.0
H1284 H 0.76894 0.94843 0.09086 0.0
H1285 H 0.85321 0.92018 0.10334 0.0
H1286 H 0.74799 0.89763 0.1389 0.0
H1287 H 0.7446 0.92343 0.16664 0.0
H1288 H 0.73609 0.934 0.12598 0.0
H1289 H 0.87026 0.88627 0.14392 0.0
H1290 H 0.84764 0.88895 0.18071 0.0
H1291 H 0.85088 0.86157 0.15518 0.0
H1292 H 0.78429 0.87806 0.2577 0.0
H1293 H 0.79441 0.81476 0.19175 0.0
H1294 H 0.77442 0.93574 0.19915 0.0
H1295 H 0.80885 0.92372 0.20717 0.0
H1296 H 0.78251 0.92434 0.23986 0.0
H1297 H 0.78517 0.85896 0.12076 0.0
H1298 H 0.79872 0.8234 0.13596 0.0
H1299 H 0.82033 0.84596 0.12495 0.0
C1300 C 0.10789 0.75021 0.11849 0.0
C1301 C 0.11146 0.72596 0.10261 0.0
C1302 C 0.1288 0.75457 0.13332 0.0
C1303 C 0.15394 0.73409 0.13236 0.0
C1304 C 0.15705 0.70865 0.11848 0.0
C1305 C 0.13573 0.70487 0.10374 0.0
C1306 C 0.12452 0.78194 0.14797 0.0
C1307 C 0.18349 0.68622 0.11719 0.0
C1308 C 0.21546 0.76091 0.12662 0.0
C1309 C 0.22268 0.75534 0.15823 0.0
C1310 C 0.19325 0.75394 0.11803 0.0
C1311 C 0.17778 0.741 0.14163 0.0
C1312 C 0.18476 0.73552 0.17373 0.0
C1313 C 0.20712 0.7429 0.18172 0.0
C1314 C 0.18632 0.76054 0.08362 0.0
C1315 C 0.16878 0.72169 0.19947 0.0
H1316 H 0.08892 0.76629 0.11836 0.0
H1317 H 0.13859 0.6861 0.09152 0.0
H1318 H 0.13195 0.77843 0.17211 0.0
H1319 H 0.13617 0.79465 0.13241 0.0
H1320 H 0.10298 0.79408 0.15043 0.0
H1321 H 0.18153 0.6663 0.10992 0.0
H1322 H 0.19848 0.69314 0.09945 0.0
H1323 H 0.19151 0.68243 0.14102 0.0
H1324 H 0.22721 0.7709 0.10852 0.0
H1325 H 0.21278 0.73841 0.20612 0.0
H1326 H 0.16567 0.77474 0.08321 0.0
H1327 H 0.18659 0.74118 0.07286 0.0
H1328 H 0.20052 0.7705 0.06818 0.0
H1329 H 0.14743 0.73428 0.20217 0.0
H1330 H 0.17678 0.71892 0.22327 0.0
H1331 H 0.16907 0.70098 0.1922 0.0
C1332 C 0.26807 0.01692 1.00889 0.0
C1333 C 0.24657 0.02623 0.03256 0.0
C1334 C 0.27038 0.99333 0.99259 0.0
C1335 C 0.25026 0.97908 0.99958 0.0
C1336 C 0.22689 0.99027 0.02064 0.0
C1337 C 0.22541 0.0137 0.03721 0.0
C1338 C 0.29563 0.98223 0.97025 0.0
C1339 C 0.20446 0.97636 0.02755 0.0
C1340 C 0.26396 0.92 0.94514 0.0
C1341 C 0.27941 0.89792 0.96398 0.0
C1342 C 0.25192 0.94614 0.95749 0.0
C1343 C 0.2562 0.95048 0.98898 0.0
C1344 C 0.27021 0.92782 1.00881 0.0
C1345 C 0.28125 0.90175 0.99622 0.0
C1346 C 0.23615 0.96947 0.93606 0.0
C1347 C 0.27532 0.93152 0.04257 0.0
H1348 H 0.284 0.02718 1.00453 0.0
H1349 H 0.20861 0.021 0.05528 0.0
H1350 H 0.30773 0.9622 0.98109 0.0
H1351 H 0.29047 0.97807 0.94676 0.0
H1352 H 0.30835 0.99689 0.96566 0.0
H1353 H 0.1854 0.99094 0.03748 0.0
H1354 H 0.2009 0.96822 1.00538 0.0
H1355 H 0.21011 0.95848 0.04561 0.0
H1356 H 0.26226 0.91737 0.92022 0.0
H1357 H 0.29224 0.88457 1.01137 0.0
H1358 H 0.24936 0.98239 0.92454 0.0
H1359 H 0.21882 0.98318 0.95023 0.0
H1360 H 0.22859 0.96132 0.91658 0.0
H1361 H 0.28855 0.94553 0.04134 0.0
H1362 H 0.28514 0.91146 0.05548 0.0
H1363 H 0.25617 0.94141 0.05699 0.0
C1364 C 0.15188 0.34477 0.98945 0.0
C1365 C 0.13815 0.32475 1.00075 0.0
C1366 C 0.17193 0.34044 0.96305 0.0
C1367 C 0.17901 0.31526 0.94742 0.0
C1368 C 0.16544 0.29476 0.95885 0.0
C1369 C 0.14523 0.29973 0.98525 0.0
C1370 C 0.18587 0.36277 0.9524 0.0
C1371 C 0.17213 0.26763 0.94298 0.0
C1372 C 0.21279 0.31402 0.86039 0.0
C1373 C 0.23994 0.30112 0.86446 0.0
C1374 C 0.19291 0.31894 0.88707 0.0
C1375 C 0.20017 0.31059 0.91883 0.0
C1376 C 0.22761 0.29761 0.92309 0.0
C1377 C 0.247 0.29274 0.89593 0.0
C1378 C 0.16404 0.33304 0.88124 0.0
C1379 C 0.23655 0.2886 0.95633 0.0
H1380 H 0.14719 0.36389 1.0015 0.0
H1381 H 0.1347 0.28414 0.99338 0.0
H1382 H 0.20663 0.35546 0.95949 0.0
H1383 H 0.18709 0.36685 0.92577 0.0
H1384 H 0.17552 0.38264 0.96368 0.0
H1385 H 0.16005 0.25366 0.95487 0.0
H1386 H 0.16842 0.2718 0.91719 0.0
H1387 H 0.1938 0.2566 0.94367 0.0
H1388 H 0.20709 0.32027 0.83616 0.0
H1389 H 0.26762 0.28204 0.89951 0.0
H1390 H 0.15658 0.35249 0.89406 0.0
H1391 H 0.15115 0.3193 0.89113 0.0
H1392 H 0.16161 0.33829 0.85517 0.0
H1393 H 0.2307 0.30674 0.97138 0.0
H1394 H 0.25868 0.2793 0.95561 0.0
H1395 H 0.22631 0.27309 0.9684 0.0
C1396 C 0.82465 0.12576 0.94382 0.0
C1397 C 0.81104 0.10686 0.93747 0.0
C1398 C 0.81772 0.15332 0.93043 0.0
C1399 C 0.79671 0.16216 0.91015 0.0
C1400 C 0.78274 0.14326 0.90385 0.0
C1401 C 0.7901 0.11584 0.91756 0.0
C1402 C 0.83324 0.17285 0.93749 0.0
C1403 C 0.76088 0.15164 0.88147 0.0
C1404 C 0.77025 0.24037 0.89192 0.0
C1405 C 0.7864 0.24435 0.86331 0.0
C1406 C 0.77256 0.21353 0.90703 0.0
C1407 C 0.79138 0.19027 0.89301 0.0
C1408 C 0.80678 0.1941 0.86345 0.0
C1409 C 0.80456 0.22105 0.84958 0.0
C1410 C 0.75576 0.21015 0.93859 0.0
C1411 C 0.82686 0.17001 0.84713 0.0
H1412 H 0.84051 0.11911 0.95962 0.0
H1413 H 0.77973 0.10121 0.91227 0.0
H1414 H 0.84476 0.17864 0.91492 0.0
H1415 H 0.81916 0.19234 0.94646 0.0
H1416 H 0.84757 0.16341 0.95567 0.0
H1417 H 0.74953 0.13586 0.88253 0.0
H1418 H 0.74652 0.17195 0.88741 0.0
H1419 H 0.77011 0.15416 0.85631 0.0
H1420 H 0.75644 0.25833 0.90299 0.0
H1421 H 0.81774 0.22356 0.82836 0.0
H1422 H 0.76906 0.20277 0.9582 0.0
H1423 H 0.74507 0.19417 0.93727 0.0
H1424 H 0.7407 0.22996 0.9451 0.0
H1425 H 0.84604 0.16488 0.85821 0.0
H1426 H 0.83115 0.17528 0.82094 0.0
H1427 H 0.81958 0.15113 0.84988 0.0
C1428 C 0.95436 0.73114 0.93989 0.0
C1429 C 0.96602 0.75187 0.94593 0.0
C1430 C 0.93208 0.73741 0.92198 0.0
C1431 C 0.92109 0.76511 0.90952 0.0
C1432 C 0.93267 0.78618 0.91559 0.0
C1433 C 0.95488 0.77934 0.93376 0.0
C1434 C 0.92024 0.71434 0.91644 0.0
C1435 C 0.92171 0.81594 0.90265 0.0
C1436 C 0.8791 0.77587 0.83853 0.0
C1437 C 0.85269 0.78355 0.85386 0.0
C1438 C 0.90149 0.7701 0.85625 0.0
C1439 C 0.89748 0.77196 0.89021 0.0
C1440 C 0.87087 0.77994 0.90575 0.0
C1441 C 0.8489 0.78578 0.88743 0.0
C1442 C 0.92947 0.76187 0.83863 0.0
C1443 C 0.86554 0.78219 0.94184 0.0
H1444 H 0.96247 0.70996 0.94954 0.0
H1445 H 0.96385 0.79546 0.93793 0.0
H1446 H 0.89871 0.71944 0.92632 0.0
H1447 H 0.92111 0.71234 0.89016 0.0
H1448 H 0.93097 0.69393 0.92789 0.0
H1449 H 0.93284 0.82992 0.90958 0.0
H1450 H 0.92291 0.81698 0.87591 0.0
H1451 H 0.90015 0.82386 0.91181 0.0
H1452 H 0.88236 0.77423 0.81263 0.0
H1453 H 0.82869 0.79233 0.89953 0.0
H1454 H 0.9405 0.74069 0.84773 0.0
H1455 H 0.94091 0.77634 0.84334 0.0
H1456 H 0.92923 0.76201 0.81212 0.0
H1457 H 0.87436 0.76169 0.95447 0.0
H1458 H 0.84368 0.78911 0.95017 0.0
H1459 H 0.87538 0.79714 0.94913 0.0
C1460 C 0.12654 0.30631 0.18413 0.0
C1461 C 0.13669 0.28643 0.16105 0.0
C1462 C 0.14329 0.31153 0.2053 0.0
C1463 C 0.17084 0.29615 0.20402 0.0
C1464 C 0.18086 0.27525 0.18168 0.0
C1465 C 0.16384 0.27088 0.16035 0.0
C1466 C 0.13171 0.33429 0.22824 0.0
C1467 C 0.20972 0.25762 0.18005 0.0
C1468 C 0.22283 0.32683 0.2323 0.0
C1469 C 0.22619 0.31377 0.26336 0.0
C1470 C 0.20459 0.32176 0.21316 0.0
C1471 C 0.18945 0.30267 0.22496 0.0
C1472 C 0.19265 0.28948 0.25642 0.0
C1473 C 0.21072 0.29534 0.27523 0.0
C1474 C 0.20184 0.33659 0.18001 0.0
C1475 C 0.17763 0.26846 0.26989 0.0
H1476 H 0.10574 0.31871 0.18471 0.0
H1477 H 0.17194 0.25541 0.14276 0.0
H1478 H 0.13516 0.32597 0.25338 0.0
H1479 H 0.14212 0.35089 0.22224 0.0
H1480 H 0.10977 0.34375 0.22718 0.0
H1481 H 0.21454 0.24228 0.16135 0.0
H1482 H 0.22358 0.27104 0.17475 0.0
H1483 H 0.21364 0.24619 0.20383 0.0
H1484 H 0.23447 0.34111 0.22289 0.0
H1485 H 0.21347 0.28459 0.29888 0.0
H1486 H 0.18042 0.3478 0.17764 0.0
H1487 H 0.20843 0.32119 0.16135 0.0
H1488 H 0.21401 0.35176 0.17493 0.0
H1489 H 0.15567 0.27766 0.26903 0.0
H1490 H 0.18138 0.2609 0.29522 0.0
H1491 H 0.1839 0.25032 0.25482 0.0
C1492 C 0.11744 0.79073 0.96259 0.0
C1493 C 0.10323 0.77283 0.95455 0.0
C1494 C 0.14202 0.79278 0.94422 0.0
C1495 C 0.15288 0.77668 0.91694 0.0
C1496 C 0.13782 0.75965 0.90812 0.0
C1497 C 0.11358 0.75798 0.92675 0.0
C1498 C 0.15701 0.81132 0.95483 0.0
C1499 C 0.1477 0.74241 0.8793 0.0
C1500 C 0.21093 0.79115 0.85519 0.0
C1501 C 0.23382 0.77125 0.86575 0.0
C1502 C 0.18469 0.79339 0.87146 0.0
C1503 C 0.18085 0.77549 0.89936 0.0
C1504 C 0.20397 0.75524 0.90974 0.0
C1505 C 0.22982 0.75349 0.89308 0.0
C1506 C 0.16105 0.81511 0.8588 0.0
C1507 C 0.20143 0.73523 0.93871 0.0
H1508 H 0.11013 0.8021 0.98408 0.0
H1509 H 0.10294 0.74416 0.91992 0.0
H1510 H 0.17607 0.79833 0.96383 0.0
H1511 H 0.16242 0.82502 0.93404 0.0
H1512 H 0.14504 0.82449 0.9743 0.0
H1513 H 0.13454 0.72911 0.87635 0.0
H1514 H 0.14844 0.75644 0.85715 0.0
H1515 H 0.16842 0.72884 0.8815 0.0
H1516 H 0.21354 0.80544 0.83461 0.0
H1517 H 0.24721 0.73818 0.90177 0.0
H1518 H 0.14914 0.82795 0.87852 0.0
H1519 H 0.14759 0.80474 0.84969 0.0
H1520 H 0.16741 0.82905 0.83885 0.0
H1521 H 0.19191 0.74697 0.96023 0.0
H1522 H 0.22122 0.72103 0.94425 0.0
H1523 H 0.18821 0.72246 0.93434 0.0
C1524 C 0.28405 0.14794 0.01532 0.0
C1525 C 0.30488 0.13019 0.032 0.0
C1526 C 0.28927 0.16532 0.9882 0.0
C1527 C 0.3161 0.16553 0.97733 0.0
C1528 C 0.33738 0.14751 0.9938 0.0
C1529 C 0.33156 0.12984 0.02077 0.0
C1530 C 0.26587 0.18369 0.97132 0.0
C1531 C 0.36622 0.1474 0.98336 0.0
C1532 C 0.32531 0.19655 0.89061 0.0
C1533 C 0.32191 0.22474 0.89517 0.0
C1534 C 0.32485 0.17675 0.91705 0.0
C1535 C 0.3213 0.18508 0.94905 0.0
C1536 C 0.3193 0.21319 0.95376 0.0
C1537 C 0.31934 0.23262 0.92694 0.0
C1538 C 0.32658 0.14723 0.91068 0.0
C1539 C 0.3157 0.22318 0.98726 0.0
H1540 H 0.26335 0.14825 0.02344 0.0
H1541 H 0.34777 0.11633 0.0335 0.0
H1542 H 0.26472 0.20592 0.97284 0.0
H1543 H 0.26886 0.17972 0.94532 0.0
H1544 H 0.2463 0.18022 0.98192 0.0
H1545 H 0.38053 0.13186 0.99809 0.0
H1546 H 0.37159 0.1428 0.95761 0.0
H1547 H 0.36867 0.16836 0.98548 0.0
H1548 H 0.32737 0.19001 0.86633 0.0
H1549 H 0.31639 0.25425 0.93108 0.0
H1550 H 0.30682 0.14306 0.91852 0.0
H1551 H 0.34165 0.13222 0.92488 0.0
H1552 H 0.33203 0.14331 0.8847 0.0
H1553 H 0.29503 0.22409 0.99864 0.0
H1554 H 0.31871 0.24424 0.98689 0.0
H1555 H 0.33001 0.20847 1.00268 0.0
C1556 C 0.03399 0.26963 1.0099 0.0
C1557 C 0.0303 0.27322 0.04312 0.0
C1558 C 1.01258 0.26849 0.99329 0.0
C1559 C 0.98653 0.27194 1.0101 0.0
C1560 C 0.98331 0.27302 0.04421 0.0
C1561 C 1.00531 0.27344 0.06034 0.0
C1562 C 1.01732 0.26651 0.95717 0.0
C1563 C 0.95602 0.27691 0.06329 0.0
C1564 C 0.9277 0.31631 0.96596 0.0
C1565 C 0.91463 0.29682 0.95969 0.0
C1566 C 0.95106 0.30833 0.98197 0.0
C1567 C 0.96228 0.27991 0.99162 0.0
C1568 C 0.95007 0.25982 0.98391 0.0
C1569 C 0.92633 0.26851 0.96814 0.0
C1570 C 0.96327 0.3306 0.98936 0.0
C1571 C 0.96159 0.2293 0.99318 0.0
H1572 H 0.05318 0.26987 0.99639 0.0
H1573 H 1.00213 0.27688 0.08587 0.0
H1574 H 1.00614 0.25294 0.94948 0.0
H1575 H 1.00988 0.28754 0.94499 0.0
H1576 H 0.03905 0.25826 0.94884 0.0
H1577 H 0.95765 0.27205 0.08955 0.0
H1578 H 0.944 0.2989 0.05951 0.0
H1579 H 0.94489 0.26356 0.05503 0.0
H1580 H 0.9192 0.33816 0.95897 0.0
H1581 H 0.91638 0.25328 0.96356 0.0
H1582 H 0.98442 0.32634 0.97819 0.0
H1583 H 0.96355 0.33044 0.01584 0.0
H1584 H 0.95201 0.35178 0.98039 0.0
H1585 H 0.98353 0.22269 0.98538 0.0
H1586 H 0.95167 0.21606 0.98241 0.0
H1587 H 0.95896 0.22559 0.01984 0.0
C1588 C 0.75818 0.9617 0.94348 0.0
C1589 C 0.77972 0.97328 0.9336 0.0
C1590 C 0.75339 0.94164 0.92542 0.0
C1591 C 0.77045 0.93312 0.89682 0.0
C1592 C 0.79153 0.94561 0.88626 0.0
C1593 C 0.79587 0.96538 0.90469 0.0
C1594 C 0.73074 0.92882 0.93754 0.0
C1595 C 0.81016 0.93746 0.85588 0.0
C1596 C 0.78379 0.86281 0.86202 0.0
C1597 C 0.76952 0.86991 0.83481 0.0
C1598 C 0.78252 0.88269 0.88391 0.0
C1599 C 0.76721 0.91068 0.87802 0.0
C1600 C 0.75197 0.91771 0.85119 0.0
C1601 C 0.75346 0.89731 0.82983 0.0
C1602 C 0.79889 0.87398 0.9123 0.0
C1603 C 0.73528 0.94715 0.84395 0.0
H1604 H 0.74575 0.96745 0.9659 0.0
H1605 H 0.81247 0.9743 0.89669 0.0
H1606 H 0.71815 0.92958 0.91788 0.0
H1607 H 0.73921 0.90657 0.94536 0.0
H1608 H 0.7177 0.93949 0.95823 0.0
H1609 H 0.82501 0.9498 0.85037 0.0
H1610 H 0.82132 0.91507 0.85849 0.0
H1611 H 0.79835 0.94038 0.83497 0.0
H1612 H 0.79676 0.84197 0.86572 0.0
H1613 H 0.74259 0.90297 0.80866 0.0
H1614 H 0.78668 0.88222 0.93471 0.0
H1615 H 0.81639 0.88279 0.90811 0.0
H1616 H 0.80648 0.85096 0.9161 0.0
H1617 H 0.72278 0.95567 0.86608 0.0
H1618 H 0.72188 0.94848 0.82494 0.0
H1619 H 0.74881 0.96057 0.83559 0.0
C1620 C 0.96335 0.79645 0.11527 0.0
C1621 C 0.97281 0.77079 0.10095 0.0
C1622 C 0.9435 0.80027 0.14271 0.0
C1623 C 0.93286 0.77794 0.15665 0.0
C1624 C 0.94228 0.7523 0.14192 0.0
C1625 C 0.96158 0.7492 0.11463 0.0
C1626 C 0.93402 0.82818 0.15702 0.0
C1627 C 0.93174 0.72783 0.15466 0.0
C1628 C 0.90416 0.77347 0.24645 0.0
C1629 C 0.87615 0.78048 0.24527 0.0
C1630 C 0.9225 0.77323 0.2182 0.0
C1631 C 0.91299 0.78047 0.18728 0.0
C1632 C 0.88465 0.78772 0.1859 0.0
C1633 C 0.86674 0.78785 0.21466 0.0
C1634 C 0.95229 0.7646 0.22144 0.0
C1635 C 0.87313 0.79523 0.15393 0.0
H1636 H 0.97152 0.81347 0.10526 0.0
H1637 H 0.96808 0.72924 0.1041 0.0
H1638 H 0.91175 0.83598 0.1582 0.0
H1639 H 0.9394 0.82595 0.18212 0.0
H1640 H 0.94299 0.84388 0.14283 0.0
H1641 H 0.94404 0.70814 0.14422 0.0
H1642 H 0.93115 0.7248 0.18134 0.0
H1643 H 0.91095 0.73205 0.14818 0.0
H1644 H 0.91187 0.76805 0.26979 0.0
H1645 H 0.84533 0.79403 0.21301 0.0
H1646 H 0.96158 0.78092 0.20965 0.0
H1647 H 0.96209 0.74524 0.20894 0.0
H1648 H 0.9566 0.76079 0.24706 0.0
H1649 H 0.88095 0.8119 0.14017 0.0
H1650 H 0.85078 0.80232 0.15689 0.0
H1651 H 0.87953 0.77684 0.13927 0.0
C1652 C 0.29634 0.96909 0.14708 0.0
C1653 C 0.31 0.98845 0.15197 0.0
C1654 C 0.3017 0.94255 0.16359 0.0
C1655 C 0.32084 0.93511 0.18639 0.0
C1656 C 0.33549 0.9542 0.19056 0.0
C1657 C 0.33004 0.98059 0.17312 0.0
C1658 C 0.28591 0.92293 0.15762 0.0
C1659 C 0.35568 0.94755 0.21493 0.0
C1660 C 0.30637 0.88124 0.2526 0.0
C1661 C 0.32467 0.85633 0.24269 0.0
C1662 C 0.30612 0.90708 0.23573 0.0
C1663 C 0.32383 0.90822 0.20716 0.0
C1664 C 0.34248 0.88315 0.19704 0.0
C1665 C 0.34269 0.85762 0.21489 0.0
C1666 C 0.28617 0.93311 0.24804 0.0
C1667 C 0.36158 0.88316 0.16667 0.0
H1668 H 0.28074 0.97509 0.13084 0.0
H1669 H 0.34028 0.99563 0.17752 0.0
H1670 H 0.29969 0.90206 0.15281 0.0
H1671 H 0.27205 0.92034 0.17948 0.0
H1672 H 0.27381 0.93064 0.13689 0.0
H1673 H 0.36857 0.96204 0.21151 0.0
H1674 H 0.34476 0.9493 0.23955 0.0
H1675 H 0.36875 0.92589 0.2135 0.0
H1676 H 0.29185 0.88064 0.2733 0.0
H1677 H 0.35669 0.83848 0.20674 0.0
H1678 H 0.2701 0.94081 0.23168 0.0
H1679 H 0.2962 0.9498 0.24832 0.0
H1680 H 0.27664 0.92935 0.27279 0.0
H1681 H 0.34996 0.88943 0.14543 0.0
H1682 H 0.3761 0.86238 0.1632 0.0
H1683 H 0.37301 0.8986 0.16736 0.0
C1684 C 0.76005 0.10188 0.06656 0.0
C1685 C 0.77264 0.07498 0.07896 0.0
C1686 C 0.75695 0.12521 0.08428 0.0
C1687 C 0.76623 0.12145 0.1153 0.0
C1688 C 0.77722 0.09409 0.1287 0.0
C1689 C 0.7806 0.0713 0.11023 0.0
C1690 C 0.7454 0.15399 0.06888 0.0
C1691 C 0.78679 0.08893 0.16188 0.0
C1692 C 0.78898 0.18006 0.14375 0.0
C1693 C 0.76611 0.1939 0.16324 0.0
C1694 C 0.78932 0.1564 0.1282 0.0
C1695 C 0.76636 0.14601 0.13271 0.0
C1696 C 0.74365 0.15927 0.15359 0.0
C1697 C 0.74365 0.18327 0.16822 0.0
C1698 C 0.81387 0.14318 0.1059 0.0
C1699 C 0.71905 0.14857 0.15976 0.0
H1700 H 0.7544 0.10485 0.04215 0.0
H1701 H 0.79052 0.05051 0.11979 0.0
H1702 H 0.72913 0.1664 0.08558 0.0
H1703 H 0.76135 0.16497 0.06388 0.0
H1704 H 0.73721 0.1534 0.04585 0.0
H1705 H 0.79183 0.06651 0.17032 0.0
H1706 H 0.80502 0.09624 0.16142 0.0
H1707 H 0.77117 0.10086 0.17965 0.0
H1708 H 0.8061 0.18864 0.13932 0.0
H1709 H 0.72581 0.19421 0.18297 0.0
H1710 H 0.80823 0.14412 0.08107 0.0
H1711 H 0.82194 0.12088 0.11377 0.0
H1712 H 0.83009 0.15362 0.10511 0.0
H1713 H 0.70953 0.15081 0.13709 0.0
H1714 H 0.70389 0.15993 0.17844 0.0
H1715 H 0.72486 0.12607 0.16768 0.0
C1716 C 0.58376 0.63585 0.90491 0.0
C1717 C 0.59284 0.61083 0.88954 0.0
C1718 C 0.60004 0.65394 0.90366 0.0
C1719 C 0.62619 0.64679 0.88679 0.0
C1720 C 0.63543 0.62169 0.87093 0.0
C1721 C 0.61859 0.60406 0.87239 0.0
C1722 C 0.58932 0.68063 0.92063 0.0
C1723 C 0.66325 0.61325 0.85293 0.0
C1724 C 0.65858 0.70611 0.86448 0.0
C1725 C 0.67383 0.70366 0.89038 0.0
C1726 C 0.64356 0.68725 0.86243 0.0
C1727 C 0.64402 0.66531 0.88673 0.0
C1728 C 0.66024 0.66211 0.91222 0.0
C1729 C 0.67485 0.68138 0.9138 0.0
C1730 C 0.62641 0.69145 0.83496 0.0
C1731 C 0.66154 0.63882 0.9384 0.0
H1732 H 0.56373 0.64145 0.9177 0.0
H1733 H 0.6258 0.58465 0.86071 0.0
H1734 H 0.60212 0.68063 0.9398 0.0
H1735 H 0.59009 0.69874 0.90328 0.0
H1736 H 0.56824 0.68355 0.93181 0.0
H1737 H 0.66709 0.59351 0.84103 0.0
H1738 H 0.66599 0.62987 0.83427 0.0
H1739 H 0.67861 0.61054 0.86988 0.0
H1740 H 0.65758 0.72341 0.84644 0.0
H1741 H 0.68694 0.67918 0.93361 0.0
H1742 H 0.60482 0.6969 0.84459 0.0
H1743 H 0.63075 0.6719 0.82264 0.0
H1744 H 0.62974 0.70828 0.81684 0.0
H1745 H 0.6415 0.64161 0.95253 0.0
H1746 H 0.67656 0.63806 0.95523 0.0
H1747 H 0.66676 0.61847 0.92754 0.0
C1748 C 0.47192 0.60837 0.80289 0.0
C1749 C 0.47058 0.59299 0.83276 0.0
C1750 C 0.44941 0.62993 0.79362 0.0
C1751 C 0.42509 0.63627 0.81472 0.0
C1752 C 0.42333 0.6197 0.84396 0.0
C1753 C 0.4459 0.59837 0.85247 0.0
C1754 C 0.45206 0.64686 0.76204 0.0
C1755 C 0.39806 0.62558 0.86742 0.0
C1756 C 0.37993 0.71012 0.82105 0.0
C1757 C 0.35667 0.70927 0.80812 0.0
C1758 C 0.40273 0.6871 0.82165 0.0
C1759 C 0.40266 0.66214 0.80885 0.0
C1760 C 0.37979 0.66141 0.79422 0.0
C1761 C 0.35707 0.68498 0.79401 0.0
C1762 C 0.42642 0.68921 0.83753 0.0
C1763 C 0.37898 0.63543 0.77981 0.0
H1764 H 0.4908 0.60438 0.78742 0.0
H1765 H 0.44437 0.58642 0.87539 0.0
H1766 H 0.43425 0.64968 0.74884 0.0
H1767 H 0.45291 0.66789 0.76683 0.0
H1768 H 0.47053 0.637 0.74632 0.0
H1769 H 0.39914 0.60942 0.88784 0.0
H1770 H 0.39482 0.64604 0.87743 0.0
H1771 H 0.38025 0.6268 0.8549 0.0
H1772 H 0.38044 0.72889 0.83097 0.0
H1773 H 0.33941 0.6841 0.78353 0.0
H1774 H 0.44556 0.68105 0.82218 0.0
H1775 H 0.42752 0.6764 0.86083 0.0
H1776 H 0.42482 0.71099 0.84239 0.0
H1777 H 0.39789 0.62704 0.76411 0.0
H1778 H 0.36165 0.63929 0.76542 0.0
H1779 H 0.37729 0.61917 0.79942 0.0
C1780 C 0.48676 0.45635 0.86127 0.0
C1781 C 0.48814 0.46615 0.891 0.0
C1782 C 0.46734 0.44282 0.85765 0.0
C1783 C 0.44886 0.43895 0.88445 0.0
C1784 C 0.45108 0.44739 0.91495 0.0
C1785 C 0.47071 0.4609 0.91787 0.0
C1786 C 0.46572 0.43399 0.82476 0.0
C1787 C 0.43175 0.44359 0.94411 0.0
C1788 C 0.37894 0.43986 0.86799 0.0
C1789 C 0.37982 0.41157 0.87259 0.0
C1790 C 0.40137 0.44889 0.87151 0.0
C1791 C 0.42538 0.42914 0.87975 0.0
C1792 C 0.42667 0.40046 0.88376 0.0
C1793 C 0.40382 0.39197 0.88006 0.0
C1794 C 0.39924 0.47966 0.86672 0.0
C1795 C 0.45198 0.37885 0.89249 0.0
H1796 H 0.50058 0.45975 0.8406 0.0
H1797 H 0.47157 0.46849 0.94086 0.0
H1798 H 0.46448 0.41219 0.82657 0.0
H1799 H 0.44716 0.44735 0.81494 0.0
H1800 H 0.48331 0.43567 0.80736 0.0
H1801 H 0.43798 0.44841 0.96672 0.0
H1802 H 0.41139 0.45754 0.94071 0.0
H1803 H 0.43013 0.4219 0.94695 0.0
H1804 H 0.36057 0.45501 0.86161 0.0
H1805 H 0.4045 0.3701 0.88377 0.0
H1806 H 0.41485 0.48344 0.84749 0.0
H1807 H 0.4029 0.48716 0.88925 0.0
H1808 H 0.37918 0.49224 0.85998 0.0
H1809 H 0.46926 0.38056 0.87464 0.0
H1810 H 0.45004 0.35732 0.89348 0.0
H1811 H 0.45678 0.38259 0.91639 0.0
C1812 C 0.63111 0.45755 0.86523 0.0
C1813 C 0.61852 0.47646 0.841 0.0
C1814 C 0.65369 0.43515 0.85786 0.0
C1815 C 0.6645 0.4314 0.82532 0.0
C1816 C 0.65194 0.45025 0.80056 0.0
C1817 C 0.62895 0.47247 0.80866 0.0
C1818 C 0.66611 0.41554 0.88511 0.0
C1819 C 0.66305 0.44717 0.76561 0.0
C1820 C 0.73803 0.38878 0.81733 0.0
C1821 C 0.7361 0.36194 0.81371 0.0
C1822 C 0.71509 0.41178 0.81933 0.0
C1823 C 0.68934 0.40804 0.81791 0.0
C1824 C 0.68732 0.38118 0.81318 0.0
C1825 C 0.7107 0.35851 0.81098 0.0
C1826 C 0.7184 0.43993 0.82422 0.0
C1827 C 0.66031 0.37611 0.81188 0.0
H1828 H 0.62319 0.46011 0.89033 0.0
H1829 H 0.61943 0.48691 0.78978 0.0
H1830 H 0.66683 0.39383 0.88113 0.0
H1831 H 0.68714 0.41617 0.88573 0.0
H1832 H 0.65477 0.4208 0.90905 0.0
H1833 H 0.65077 0.46312 0.74914 0.0
H1834 H 0.68396 0.44903 0.76213 0.0
H1835 H 0.66391 0.4262 0.75866 0.0
H1836 H 0.75754 0.39188 0.81893 0.0
H1837 H 0.70894 0.33794 0.80801 0.0
H1838 H 0.70977 0.44586 0.84898 0.0
H1839 H 0.70729 0.45607 0.80702 0.0
H1840 H 0.73987 0.44004 0.82104 0.0
H1841 H 0.64844 0.37894 0.83591 0.0
H1842 H 0.66228 0.35479 0.80501 0.0
H1843 H 0.64873 0.39145 0.79434 0.0
C1844 C 0.6462 0.47571 0.25693 0.0
C1845 C 0.62463 0.4876 0.27962 0.0
C1846 C 0.66785 0.45344 0.26575 0.0
C1847 C 0.66828 0.44248 0.29825 0.0
C1848 C 0.6471 0.45488 0.32167 0.0
C1849 C 0.62548 0.47735 0.31209 0.0
C1850 C 0.6899 0.44103 0.23987 0.0
C1851 C 0.6469 0.44385 0.35659 0.0
C1852 C 0.70852 0.36651 0.30399 0.0
C1853 C 0.73414 0.36821 0.3089 0.0
C1854 C 0.68653 0.39031 0.30251 0.0
C1855 C 0.68993 0.4167 0.30649 0.0
C1856 C 0.71526 0.41838 0.31369 0.0
C1857 C 0.7371 0.39413 0.3147 0.0
C1858 C 0.66004 0.38729 0.29481 0.0
C1859 C 0.71969 0.44597 0.3187 0.0
H1860 H 0.64608 0.48356 0.23182 0.0
H1861 H 0.60902 0.48643 0.32982 0.0
H1862 H 0.70983 0.44061 0.24683 0.0
H1863 H 0.69015 0.41919 0.23728 0.0
H1864 H 0.68726 0.45282 0.21601 0.0
H1865 H 0.63088 0.45761 0.37241 0.0
H1866 H 0.64353 0.42287 0.35893 0.0
H1867 H 0.66668 0.44153 0.36533 0.0
H1868 H 0.70563 0.34654 0.3006 0.0
H1869 H 0.75663 0.39564 0.31918 0.0
H1870 H 0.65631 0.39652 0.27001 0.0
H1871 H 0.64321 0.3987 0.31165 0.0
H1872 H 0.65979 0.36515 0.29615 0.0
H1873 H 0.72053 0.45821 0.29513 0.0
H1874 H 0.73877 0.44331 0.32936 0.0
H1875 H 0.70273 0.45827 0.33471 0.0
C1876 C 0.6486 0.61465 0.20056 0.0
C1877 C 0.63217 0.60824 0.22789 0.0
C1878 C 0.67055 0.62487 0.20349 0.0
C1879 C 0.67631 0.62874 0.23453 0.0
C1880 C 0.65953 0.62284 0.26218 0.0
C1881 C 0.63767 0.61274 0.25853 0.0
C1882 C 0.68797 0.63094 0.17341 0.0
C1883 C 0.66495 0.62672 0.2957 0.0
C1884 C 0.74851 0.62578 0.24429 0.0
C1885 C 0.74729 0.65408 0.24388 0.0
C1886 C 0.72554 0.61731 0.24149 0.0
C1887 C 0.70065 0.63761 0.23818 0.0
C1888 C 0.69916 0.66623 0.23817 0.0
C1889 C 0.7225 0.67412 0.2411 0.0
C1890 C 0.72794 0.58658 0.24191 0.0
C1891 C 0.673 0.68849 0.23463 0.0
H1892 H 0.64471 0.61104 0.17684 0.0
H1893 H 0.62483 0.60844 0.27977 0.0
H1894 H 0.68957 0.65256 0.17258 0.0
H1895 H 0.70863 0.61678 0.17385 0.0
H1896 H 0.67997 0.62828 0.15099 0.0
H1897 H 0.64943 0.62217 0.31463 0.0
H1898 H 0.6849 0.61278 0.30091 0.0
H1899 H 0.66564 0.64841 0.29729 0.0
H1900 H 0.76751 0.61017 0.24694 0.0
H1901 H 0.72149 0.69603 0.24048 0.0
H1902 H 0.72208 0.58192 0.21903 0.0
H1903 H 0.71397 0.58062 0.26188 0.0
H1904 H 0.74871 0.57344 0.24498 0.0
H1905 H 0.66574 0.6873 0.21121 0.0
H1906 H 0.67508 0.70976 0.23575 0.0
H1907 H 0.65733 0.68503 0.25397 0.0
C1908 C 0.48648 0.64858 0.25491 0.0
C1909 C 0.4943 0.62623 0.27796 0.0
C1910 C 0.4655 0.67237 0.26239 0.0
C1911 C 0.45164 0.6741 0.29383 0.0
C1912 C 0.46025 0.65228 0.31783 0.0
C1913 C 0.4816 0.62856 0.30964 0.0
C1914 C 0.45722 0.69501 0.23597 0.0
C1915 C 0.44606 0.65336 0.35166 0.0
C1916 C 0.40334 0.74601 0.30881 0.0
C1917 C 0.37935 0.74296 0.29989 0.0
C1918 C 0.42683 0.72336 0.30882 0.0
C1919 C 0.42628 0.69707 0.29977 0.0
C1920 C 0.40177 0.69368 0.29226 0.0
C1921 C 0.37881 0.71649 0.29246 0.0
C1922 C 0.45244 0.72782 0.31734 0.0
C1923 C 0.39998 0.66617 0.28254 0.0
H1924 H 0.49644 0.64728 0.23047 0.0
H1925 H 0.48757 0.61147 0.32762 0.0
H1926 H 0.43695 0.69565 0.22988 0.0
H1927 H 0.4559 0.71565 0.2443 0.0
H1928 H 0.47149 0.69167 0.21364 0.0
H1929 H 0.45737 0.63701 0.36856 0.0
H1930 H 0.44311 0.67406 0.36091 0.0
H1931 H 0.42582 0.65033 0.35146 0.0
H1932 H 0.40396 0.76617 0.31515 0.0
H1933 H 0.36035 0.71343 0.2865 0.0
H1934 H 0.46672 0.7277 0.29518 0.0
H1935 H 0.46231 0.71067 0.33438 0.0
H1936 H 0.44875 0.74796 0.32833 0.0
H1937 H 0.41203 0.66147 0.25889 0.0
H1938 H 0.37893 0.66626 0.28037 0.0
H1939 H 0.40846 0.64907 0.30043 0.0
C1940 C 0.47808 0.49652 0.20501 0.0
C1941 C 0.49369 0.49557 0.23017 0.0
C1942 C 0.46029 0.47988 0.20698 0.0
C1943 C 0.4582 0.46151 0.23467 0.0
C1944 C 0.47345 0.4609 0.2605 0.0
C1945 C 0.49089 0.47806 0.25802 0.0
C1946 C 0.44416 0.48152 0.17905 0.0
C1947 C 0.47206 0.44142 0.29028 0.0
C1948 C 0.39773 0.43159 0.24578 0.0
C1949 C 0.40849 0.40638 0.23101 0.0
C1950 C 0.4138 0.44948 0.24798 0.0
C1951 C 0.44134 0.4418 0.23546 0.0
C1952 C 0.4525 0.4158 0.22178 0.0
C1953 C 0.43594 0.39852 0.21959 0.0
C1954 C 0.40107 0.47706 0.26256 0.0
C1955 C 0.4818 0.40654 0.20857 0.0
H1956 H 0.47984 0.51032 0.18366 0.0
H1957 H 0.50305 0.47705 0.27743 0.0
H1958 H 0.45049 0.4613 0.16777 0.0
H1959 H 0.42245 0.48555 0.18779 0.0
H1960 H 0.44675 0.49813 0.16023 0.0
H1961 H 0.4838 0.44473 0.30909 0.0
H1962 H 0.45084 0.44425 0.30073 0.0
H1963 H 0.48007 0.41954 0.28365 0.0
H1964 H 0.3765 0.43783 0.2545 0.0
H1965 H 0.44444 0.37886 0.20857 0.0
H1966 H 0.40106 0.49427 0.24363 0.0
H1967 H 0.41295 0.47972 0.28151 0.0
H1968 H 0.38001 0.47908 0.27331 0.0
H1969 H 0.48576 0.42071 0.18752 0.0
H1970 H 0.4878 0.38494 0.20081 0.0
H1971 H 0.49478 0.40769 0.22708 0.0
C1972 C 0.79664 0.63886 0.67594 0.0
C1973 C 0.81932 0.63315 0.65296 0.0
C1974 C 0.79206 0.66054 0.69685 0.0
C1975 C 0.81047 0.67696 0.69457 0.0
C1976 C 0.83265 0.67187 0.67042 0.0
C1977 C 0.83674 0.65023 0.65008 0.0
C1978 C 0.76809 0.66525 0.72215 0.0
C1979 C 0.85243 0.68904 0.66628 0.0
C1980 C 0.79171 0.74598 0.735 0.0
C1981 C 0.80469 0.73829 0.76325 0.0
C1982 C 0.79335 0.72643 0.71244 0.0
C1983 C 0.80782 0.69817 0.71852 0.0
C1984 C 0.82093 0.6903 0.74707 0.0
C1985 C 0.81916 0.71037 0.76899 0.0
C1986 C 0.77923 0.73604 0.68232 0.0
C1987 C 0.83688 0.66058 0.7545 0.0
H1988 H 0.78307 0.62578 0.6784 0.0
H1989 H 0.85409 0.64637 0.63206 0.0
H1990 H 0.77511 0.66053 0.74655 0.0
H1991 H 0.75618 0.68743 0.72058 0.0
H1992 H 0.75476 0.65202 0.71961 0.0
H1993 H 0.86936 0.68168 0.64736 0.0
H1994 H 0.84179 0.71094 0.65945 0.0
H1995 H 0.86084 0.68857 0.6894 0.0
H1996 H 0.77978 0.76714 0.73064 0.0
H1997 H 0.82892 0.70414 0.79097 0.0
H1998 H 0.76307 0.72567 0.68246 0.0
H1999 H 0.79358 0.73007 0.66054 0.0
H2000 H 0.77015 0.75896 0.68025 0.0
H2001 H 0.82391 0.64644 0.7549 0.0
H2002 H 0.84527 0.65763 0.77808 0.0
H2003 H 0.85376 0.65427 0.73526 0.0
C2004 C 0.4697 0.8015 0.68304 0.0
C2005 C 0.47941 0.78036 0.6613 0.0
C2006 C 0.44427 0.80529 0.70191 0.0
C2007 C 0.42751 0.78793 0.69889 0.0
C2008 C 0.43715 0.76678 0.67674 0.0
C2009 C 0.46272 0.7632 0.65858 0.0
C2010 C 0.4355 0.82764 0.7256 0.0
C2011 C 0.42027 0.74789 0.672 0.0
C2012 C 0.36957 0.77951 0.76396 0.0
C2013 C 0.34652 0.79747 0.75141 0.0
C2014 C 0.39589 0.77704 0.74809 0.0
C2015 C 0.39971 0.7922 0.718 0.0
C2016 C 0.37651 0.81052 0.70534 0.0
C2017 C 0.35053 0.81298 0.7221 0.0
C2018 C 0.41955 0.7575 0.76331 0.0
C2019 C 0.37901 0.82704 0.67342 0.0
H2020 H 0.48226 0.81476 0.68585 0.0
H2021 H 0.46951 0.74704 0.64173 0.0
H2022 H 0.41567 0.84201 0.72063 0.0
H2023 H 0.43297 0.81796 0.75046 0.0
H2024 H 0.45024 0.83995 0.72473 0.0
H2025 H 0.43028 0.73263 0.65373 0.0
H2026 H 0.41603 0.7363 0.69521 0.0
H2027 H 0.40061 0.76048 0.66419 0.0
H2028 H 0.36715 0.76697 0.78607 0.0
H2029 H 0.33309 0.82677 0.71175 0.0
H2030 H 0.43622 0.76733 0.76219 0.0
H2031 H 0.42718 0.73846 0.74978 0.0
H2032 H 0.41402 0.7512 0.78894 0.0
H2033 H 0.39304 0.83989 0.67408 0.0
H2034 H 0.35933 0.84096 0.66712 0.0
H2035 H 0.3876 0.81263 0.65394 0.0
C2036 C 0.32852 0.42474 0.62086 0.0
C2037 C 0.30657 0.44085 0.60476 0.0
C2038 C 0.32519 0.4056 0.64715 0.0
C2039 C 0.29925 0.40224 0.65783 0.0
C2040 C 0.27703 0.41833 0.64166 0.0
C2041 C 0.28092 0.4374 0.61549 0.0
C2042 C 0.34948 0.38904 0.66366 0.0
C2043 C 0.24909 0.41526 0.6519 0.0
C2044 C 0.2963 0.33467 0.70785 0.0
C2045 C 0.29144 0.34295 0.73966 0.0
C2046 C 0.29827 0.35375 0.68109 0.0
C2047 C 0.29546 0.382 0.68598 0.0
C2048 C 0.28985 0.39068 0.71794 0.0
C2049 C 0.28783 0.37116 0.74427 0.0
C2050 C 0.30421 0.3434 0.64761 0.0
C2051 C 0.28676 0.42049 0.72443 0.0
H2052 H 0.34837 0.42735 0.61321 0.0
H2053 H 0.26384 0.4493 0.60311 0.0
H2054 H 0.34639 0.39335 0.68955 0.0
H2055 H 0.35214 0.36642 0.66261 0.0
H2056 H 0.36828 0.39397 0.65249 0.0
H2057 H 0.23389 0.42918 0.63688 0.0
H2058 H 0.24899 0.3934 0.65014 0.0
H2059 H 0.24296 0.42006 0.67752 0.0
H2060 H 0.29936 0.313 0.70373 0.0
H2061 H 0.28403 0.37799 0.76857 0.0
H2062 H 0.32462 0.34448 0.6372 0.0
H2063 H 0.28968 0.35682 0.6315 0.0
H2064 H 0.30335 0.32154 0.64763 0.0
H2065 H 0.30581 0.42598 0.71598 0.0
H2066 H 0.28155 0.4242 0.75048 0.0
H2067 H 0.27084 0.43476 0.71073 0.0
C2068 C 0.58134 0.32558 0.57735 0.0
C2069 C 0.57671 0.2992 0.5829 0.0
C2070 C 0.60113 0.33213 0.59289 0.0
C2071 C 0.61693 0.31163 0.61384 0.0
C2072 C 0.61109 0.28567 0.62078 0.0
C2073 C 0.59099 0.28002 0.60566 0.0
C2074 C 0.60583 0.36048 0.58558 0.0
C2075 C 0.6273 0.26289 0.64258 0.0
C2076 C 0.6908 0.3005 0.62111 0.0
C2077 C 0.69058 0.30316 0.65424 0.0
C2078 C 0.6668 0.30599 0.6067 0.0
C2079 C 0.64172 0.3151 0.62561 0.0
C2080 C 0.64147 0.32141 0.65796 0.0
C2081 C 0.66591 0.31507 0.67207 0.0
C2082 C 0.66835 0.29908 0.57212 0.0
C2083 C 0.61529 0.33271 0.67847 0.0
H2084 H 0.57036 0.34066 0.56001 0.0
H2085 H 0.5873 0.25975 0.61077 0.0
H2086 H 0.61303 0.3672 0.60637 0.0
H2087 H 0.62135 0.35976 0.5646 0.0
H2088 H 0.58715 0.37632 0.57918 0.0
H2089 H 0.61985 0.24405 0.64596 0.0
H2090 H 0.6487 0.25673 0.63217 0.0
H2091 H 0.62666 0.27051 0.66666 0.0
H2092 H 0.70984 0.29207 0.60689 0.0
H2093 H 0.66547 0.31758 0.69755 0.0
H2094 H 0.65511 0.3164 0.55825 0.0
H2095 H 0.66121 0.28033 0.5716 0.0
H2096 H 0.68919 0.29485 0.5598 0.0
H2097 H 0.60058 0.34797 0.66399 0.0
H2098 H 0.61832 0.34287 0.69945 0.0
H2099 H 0.60645 0.31541 0.68778 0.0
C2100 C 0.77517 0.50972 0.55493 0.0
C2101 C 0.7994 0.51564 0.54239 0.0
C2102 C 0.76439 0.49266 0.53881 0.0
C2103 C 0.77799 0.48165 0.50933 0.0
C2104 C 0.80173 0.4888 0.49596 0.0
C2105 C 0.81215 0.50545 0.51268 0.0
C2106 C 0.73911 0.48546 0.55398 0.0
C2107 C 0.81676 0.47803 0.46444 0.0
C2108 C 0.77375 0.41346 0.48093 0.0
C2109 C 0.75703 0.42274 0.45602 0.0
C2110 C 0.77956 0.43237 0.49955 0.0
C2111 C 0.76862 0.46142 0.49303 0.0
C2112 C 0.75106 0.47091 0.46856 0.0
C2113 C 0.74543 0.45151 0.45046 0.0
C2114 C 0.79819 0.42123 0.52553 0.0
C2115 C 0.73915 0.50162 0.46051 0.0
H2116 H 0.76533 0.51732 0.57797 0.0
H2117 H 0.83078 0.51013 0.50266 0.0
H2118 H 0.72427 0.48945 0.5361 0.0
H2119 H 0.74399 0.46293 0.56175 0.0
H2120 H 0.72964 0.49752 0.5753 0.0
H2121 H 0.83387 0.48701 0.45622 0.0
H2122 H 0.82473 0.45503 0.46725 0.0
H2123 H 0.80295 0.48295 0.4453 0.0
H2124 H 0.78246 0.3913 0.4858 0.0
H2125 H 0.73265 0.45895 0.43114 0.0
H2126 H 0.78898 0.43064 0.5486 0.0
H2127 H 0.81727 0.42703 0.51854 0.0
H2128 H 0.80304 0.3982 0.52965 0.0
H2129 H 0.7297 0.5123 0.48275 0.0
H2130 H 0.72382 0.50562 0.4432 0.0
H2131 H 0.75538 0.51109 0.4497 0.0
C2132 C 0.66326 0.75595 0.47024 0.0
C2133 C 0.6495 0.77801 0.48979 0.0
C2134 C 0.68401 0.75832 0.44552 0.0
C2135 C 0.6919 0.78336 0.43965 0.0
C2136 C 0.67876 0.80546 0.45985 0.0
C2137 C 0.65793 0.80256 0.48447 0.0
C2138 C 0.69714 0.73402 0.42506 0.0
C2139 C 0.68656 0.83239 0.45523 0.0
C2140 C 0.75929 0.7794 0.38576 0.0
C2141 C 0.75066 0.78887 0.35509 0.0
C2142 C 0.74061 0.77858 0.41362 0.0
C2143 C 0.71239 0.78682 0.41101 0.0
C2144 C 0.70373 0.79675 0.3801 0.0
C2145 C 0.72277 0.79754 0.35284 0.0
C2146 C 0.75122 0.76817 0.44574 0.0
C2147 C 0.67416 0.80588 0.37554 0.0
H2148 H 0.65779 0.73656 0.4741 0.0
H2149 H 0.64784 0.81989 0.49904 0.0
H2150 H 0.69312 0.74015 0.39957 0.0
H2151 H 0.7193 0.728 0.42556 0.0
H2152 H 0.6897 0.71555 0.43331 0.0
H2153 H 0.67384 0.8481 0.47173 0.0
H2154 H 0.70789 0.8283 0.45974 0.0
H2155 H 0.68489 0.84127 0.42994 0.0
H2156 H 0.78066 0.77201 0.38796 0.0
H2157 H 0.71576 0.80465 0.32934 0.0
H2158 H 0.74695 0.74797 0.45383 0.0
H2159 H 0.74088 0.78302 0.46428 0.0
H2160 H 0.77328 0.76521 0.44453 0.0
H2161 H 0.66553 0.78793 0.38136 0.0
H2162 H 0.67049 0.81434 0.35045 0.0
H2163 H 0.6632 0.82207 0.39233 0.0
C2164 C 0.28619 0.62839 0.42897 0.0
C2165 C 0.30592 0.61858 0.45051 0.0
C2166 C 0.28259 0.65476 0.41177 0.0
C2167 C 0.2989 0.6721 0.41624 0.0
C2168 C 0.31865 0.66241 0.4382 0.0
C2169 C 0.32196 0.63592 0.45487 0.0
C2170 C 0.26179 0.6637 0.38807 0.0
C2171 C 0.3364 0.68008 0.44411 0.0
C2172 C 0.31016 0.72974 0.35292 0.0
C2173 C 0.29243 0.75393 0.3655 0.0
C2174 C 0.31158 0.70305 0.36824 0.0
C2175 C 0.29564 0.70021 0.39789 0.0
C2176 C 0.27767 0.72455 0.41082 0.0
C2177 C 0.27627 0.75096 0.39452 0.0
C2178 C 0.33081 0.67797 0.35298 0.0
C2179 C 0.26037 0.72278 0.4424 0.0
H2180 H 0.27391 0.61518 0.42499 0.0
H2181 H 0.33699 0.62893 0.47172 0.0
H2182 H 0.24881 0.68506 0.39214 0.0
H2183 H 0.27216 0.66414 0.3632 0.0
H2184 H 0.24883 0.64938 0.38969 0.0
H2185 H 0.35032 0.66999 0.46254 0.0
H2186 H 0.34854 0.68422 0.42129 0.0
H2187 H 0.32382 0.70053 0.45226 0.0
H2188 H 0.32335 0.73147 0.33128 0.0
H2189 H 0.26278 0.76946 0.40483 0.0
H2190 H 0.32112 0.6609 0.35357 0.0
H2191 H 0.34856 0.67014 0.36679 0.0
H2192 H 0.33798 0.683 0.3275 0.0
H2193 H 0.24798 0.70834 0.44113 0.0
H2194 H 0.24678 0.74339 0.44877 0.0
H2195 H 0.27339 0.7142 0.46209 0.0
C2196 C 0.45085 0.31536 0.454 0.0
C2197 C 0.46386 0.28805 0.46508 0.0
C2198 C 0.42887 0.32081 0.43524 0.0
C2199 C 0.41956 0.29851 0.42746 0.0
C2200 C 0.43262 0.27104 0.43873 0.0
C2201 C 0.4544 0.26622 0.45714 0.0
C2202 C 0.4156 0.35042 0.4237 0.0
C2203 C 0.42355 0.24652 0.43142 0.0
C2204 C 0.34846 0.30765 0.40516 0.0
C2205 C 0.35288 0.3047 0.37168 0.0
C2206 C 0.36964 0.30691 0.42331 0.0
C2207 C 0.39617 0.30334 0.40779 0.0
C2208 C 0.40062 0.30135 0.37382 0.0
C2209 C 0.37905 0.30201 0.35626 0.0
C2210 C 0.36368 0.30905 0.45936 0.0
C2211 C 0.42842 0.29765 0.35608 0.0
H2212 H 0.45785 0.33242 0.45986 0.0
H2213 H 0.46401 0.24497 0.46546 0.0
H2214 H 0.41677 0.35233 0.39694 0.0
H2215 H 0.39394 0.3562 0.43299 0.0
H2216 H 0.42509 0.36546 0.4316 0.0
H2217 H 0.43574 0.22642 0.44201 0.0
H2218 H 0.40214 0.24928 0.44102 0.0
H2219 H 0.42497 0.24532 0.40491 0.0
H2220 H 0.32834 0.31048 0.4174 0.0
H2221 H 0.38284 0.30002 0.33043 0.0
H2222 H 0.37207 0.32502 0.46704 0.0
H2223 H 0.3735 0.28886 0.47195 0.0
H2224 H 0.34173 0.31444 0.46734 0.0
H2225 H 0.43748 0.31359 0.36249 0.0
H2226 H 0.4282 0.29917 0.32945 0.0
H2227 H 0.44163 0.27694 0.36347 0.0
C2228 C 0.6243 0.82858 0.65573 0.0
C2229 C 0.62309 0.8013 0.65334 0.0
C2230 C 0.64299 0.8339 0.67398 0.0
C2231 C 0.66088 0.81145 0.69028 0.0
C2232 C 0.65941 0.78396 0.68835 0.0
C2233 C 0.64062 0.77925 0.67 0.0
C2234 C 0.64397 0.86349 0.67534 0.0
C2235 C 0.67804 0.75936 0.70527 0.0
C2236 C 0.7284 0.81601 0.71106 0.0
C2237 C 0.72352 0.81882 0.74452 0.0
C2238 C 0.70796 0.8148 0.69294 0.0
C2239 C 0.68181 0.81629 0.70854 0.0
C2240 C 0.67645 0.82009 0.7421 0.0
C2241 C 0.69732 0.82131 0.75966 0.0
C2242 C 0.71476 0.81061 0.6573 0.0
C2243 C 0.64893 0.82169 0.75975 0.0
H2244 H 0.61093 0.84576 0.64296 0.0
H2245 H 0.6399 0.75808 0.66846 0.0
H2246 H 0.64152 0.8688 0.70083 0.0
H2247 H 0.66391 0.86564 0.66439 0.0
H2248 H 0.62809 0.87874 0.6624 0.0
H2249 H 0.67383 0.73937 0.70217 0.0
H2250 H 0.69926 0.75784 0.69569 0.0
H2251 H 0.67609 0.76224 0.73148 0.0
H2252 H 0.74852 0.8137 0.69899 0.0
H2253 H 0.69322 0.82347 0.78546 0.0
H2254 H 0.69972 0.82583 0.64323 0.0
H2255 H 0.71409 0.78947 0.65273 0.0
H2256 H 0.73512 0.81281 0.64818 0.0
H2257 H 0.63322 0.83742 0.74713 0.0
H2258 H 0.64734 0.8271 0.78513 0.0
H2259 H 0.64458 0.8013 0.75991 0.0
C2260 C 0.63457 0.24065 0.42225 0.0
C2261 C 0.62197 0.25644 0.44863 0.0
C2262 C 0.65924 0.24313 0.40579 0.0
C2263 C 0.67186 0.262 0.4156 0.0
C2264 C 0.65927 0.27807 0.44217 0.0
C2265 C 0.63458 0.27512 0.45829 0.0
C2266 C 0.67163 0.22574 0.37758 0.0
C2267 C 0.67201 0.29825 0.45379 0.0
C2268 C 0.74759 0.25125 0.39314 0.0
C2269 C 0.74839 0.27151 0.36756 0.0
C2270 C 0.72296 0.24764 0.40859 0.0
C2271 C 0.6983 0.26474 0.39834 0.0
C2272 C 0.699 0.28495 0.37216 0.0
C2273 C 0.72392 0.28841 0.3576 0.0
C2274 C 0.72334 0.22589 0.4364 0.0
C2275 C 0.6734 0.30341 0.35989 0.0
H2276 H 0.62497 0.2265 0.4141 0.0
H2277 H 0.62539 0.28719 0.47884 0.0
H2278 H 0.6723 0.23967 0.35537 0.0
H2279 H 0.69263 0.21375 0.38112 0.0
H2280 H 0.66016 0.21096 0.37393 0.0
H2281 H 0.65982 0.30913 0.47485 0.0
H2282 H 0.69234 0.28703 0.46073 0.0
H2283 H 0.67458 0.31407 0.43399 0.0
H2284 H 0.76637 0.23841 0.40142 0.0
H2285 H 0.72402 0.30477 0.33884 0.0
H2286 H 0.71228 0.21118 0.43142 0.0
H2287 H 0.71292 0.23603 0.45867 0.0
H2288 H 0.74414 0.21386 0.44103 0.0
H2289 H 0.66053 0.2906 0.35455 0.0
H2290 H 0.6774 0.31641 0.33767 0.0
H2291 H 0.66183 0.31737 0.37879 0.0
C2292 C 0.83861 0.62721 0.48034 0.0
C2293 C 0.86209 0.6168 0.49584 0.0
C2294 C 0.83709 0.64764 0.45466 0.0
C2295 C 0.85962 0.65792 0.44422 0.0
C2296 C 0.88362 0.6471 0.45924 0.0
C2297 C 0.88458 0.62658 0.48489 0.0
C2298 C 0.81116 0.65858 0.43911 0.0
C2299 C 0.90796 0.65773 0.4488 0.0
C2300 C 0.85784 0.69678 0.36156 0.0
C2301 C 0.84636 0.72437 0.36971 0.0
C2302 C 0.86341 0.67492 0.38562 0.0
C2303 C 0.85743 0.68089 0.41851 0.0
C2304 C 0.84706 0.70881 0.42685 0.0
C2305 C 0.84157 0.73018 0.40236 0.0
C2306 C 0.87445 0.64536 0.37586 0.0
C2307 C 0.8404 0.71608 0.46165 0.0
H2308 H 0.82137 0.61933 0.48829 0.0
H2309 H 0.90268 0.61876 0.49697 0.0
H2310 H 0.80257 0.68113 0.44259 0.0
H2311 H 0.81515 0.65629 0.41271 0.0
H2312 H 0.79587 0.64761 0.44929 0.0
H2313 H 0.92554 0.64608 0.46177 0.0
H2314 H 0.91374 0.65613 0.42246 0.0
H2315 H 0.90303 0.68008 0.45343 0.0
H2316 H 0.86172 0.6921 0.33639 0.0
H2317 H 0.83243 0.75135 0.409 0.0
H2318 H 0.85895 0.63398 0.38277 0.0
H2319 H 0.89218 0.63428 0.38876 0.0
H2320 H 0.88042 0.64444 0.34944 0.0
H2321 H 0.82295 0.70858 0.47269 0.0
H2322 H 0.83528 0.73889 0.46399 0.0
H2323 H 0.85759 0.7056 0.47569 0.0
C2324 C 0.49531 0.82583 0.54611 0.0
C2325 C 0.51503 0.83509 0.52548 0.0
C2326 C 0.4746 0.81866 0.53377 0.0
C2327 C 0.47313 0.82149 0.50001 0.0
C2328 C 0.49182 0.8327 0.47928 0.0
C2329 C 0.5127 0.83911 0.49223 0.0
C2330 C 0.45535 0.80644 0.55671 0.0
C2331 C 0.49054 0.83669 0.44322 0.0
C2332 C 0.44195 0.77442 0.46172 0.0
C2333 C 0.4163 0.79207 0.45689 0.0
C2334 C 0.46036 0.78354 0.47642 0.0
C2335 C 0.45316 0.81114 0.48613 0.0
C2336 C 0.42721 0.82893 0.48183 0.0
C2337 C 0.40904 0.81911 0.46762 0.0
C2338 C 0.48772 0.76377 0.48102 0.0
C2339 C 0.41883 0.85853 0.49164 0.0
H2340 H 0.49694 0.82253 0.57183 0.0
H2341 H 0.52778 0.84633 0.47616 0.0
H2342 H 0.43421 0.81754 0.55275 0.0
H2343 H 0.45862 0.78431 0.552 0.0
H2344 H 0.45802 0.8074 0.58243 0.0
H2345 H 0.50482 0.84814 0.43086 0.0
H2346 H 0.49546 0.81609 0.43302 0.0
H2347 H 0.46987 0.84828 0.43774 0.0
H2348 H 0.44795 0.75364 0.45327 0.0
H2349 H 0.38909 0.83276 0.46476 0.0
H2350 H 0.49159 0.76226 0.50668 0.0
H2351 H 0.50359 0.77186 0.46638 0.0
H2352 H 0.48965 0.74254 0.47388 0.0
H2353 H 0.42065 0.85878 0.5177 0.0
H2354 H 0.3978 0.86963 0.48701 0.0
H2355 H 0.43245 0.87021 0.47811 0.0
C2356 C 0.28714 0.47804 0.41298 0.0
C2357 C 0.27166 0.48549 0.44236 0.0
C2358 C 0.28268 0.45802 0.39508 0.0
C2359 C 0.26222 0.44494 0.40679 0.0
C2360 C 0.24564 0.45324 0.43569 0.0
C2361 C 0.2505 0.47352 0.45314 0.0
C2362 C 0.30078 0.44994 0.36431 0.0
C2363 C 0.22368 0.43972 0.44896 0.0
C2364 C 0.24675 0.40457 0.3434 0.0
C2365 C 0.26424 0.37805 0.34939 0.0
C2366 C 0.24428 0.42622 0.36336 0.0
C2367 C 0.25988 0.42125 0.38974 0.0
C2368 C 0.27641 0.39408 0.3969 0.0
C2369 C 0.2787 0.37303 0.37634 0.0
C2370 C 0.22629 0.4548 0.35497 0.0
C2371 C 0.2932 0.38757 0.42497 0.0
H2372 H 0.3034 0.48731 0.40434 0.0
H2373 H 0.23854 0.47905 0.47591 0.0
H2374 H 0.31309 0.42799 0.36742 0.0
H2375 H 0.28854 0.45138 0.34411 0.0
H2376 H 0.31459 0.46332 0.35744 0.0
H2377 H 0.21052 0.4507 0.46939 0.0
H2378 H 0.21107 0.43922 0.42977 0.0
H2379 H 0.23286 0.41783 0.4576 0.0
H2380 H 0.23573 0.40864 0.32237 0.0
H2381 H 0.29276 0.35302 0.38082 0.0
H2382 H 0.23887 0.46875 0.34473 0.0
H2383 H 0.21404 0.46397 0.37693 0.0
H2384 H 0.21256 0.45432 0.337 0.0
H2385 H 0.3102 0.39709 0.41934 0.0
H2386 H 0.3016 0.36479 0.43016 0.0
H2387 H 0.28107 0.39653 0.44707 0.0
C2388 C 0.45655 0.23076 0.64075 0.0
C2389 C 0.46772 0.25264 0.62886 0.0
C2390 C 0.43774 0.23304 0.6684 0.0
C2391 C 0.42957 0.25788 0.6848 0.0
C2392 C 0.44076 0.2801 0.67296 0.0
C2393 C 0.45961 0.27724 0.64521 0.0
C2394 C 0.42603 0.20906 0.67936 0.0
C2395 C 0.43286 0.30691 0.6897 0.0
C2396 C 0.36264 0.2764 0.73849 0.0
C2397 C 0.37055 0.26798 0.76959 0.0
C2398 C 0.38139 0.27245 0.71076 0.0
C2399 C 0.40914 0.26079 0.71404 0.0
C2400 C 0.41738 0.25248 0.7454 0.0
C2401 C 0.39803 0.25615 0.77269 0.0
C2402 C 0.3714 0.28126 0.67799 0.0
C2403 C 0.44671 0.23997 0.75014 0.0
H2404 H 0.46216 0.21189 0.62808 0.0
H2405 H 0.46828 0.29419 0.63659 0.0
H2406 H 0.4257 0.20461 0.70589 0.0
H2407 H 0.405 0.21481 0.67323 0.0
H2408 H 0.4374 0.18977 0.66744 0.0
H2409 H 0.41094 0.31684 0.68952 0.0
H2410 H 0.43697 0.30249 0.71534 0.0
H2411 H 0.44386 0.32194 0.67804 0.0
H2412 H 0.34185 0.2864 0.73551 0.0
H2413 H 0.40443 0.24996 0.79662 0.0
H2414 H 0.37991 0.26429 0.66143 0.0
H2415 H 0.37817 0.29958 0.66726 0.0
H2416 H 0.34908 0.28687 0.6793 0.0
H2417 H 0.45498 0.2209 0.73674 0.0
H2418 H 0.44988 0.2345 0.77599 0.0
H2419 H 0.45834 0.25489 0.74016 0.0
C2420 C 0.86737 0.45636 0.70003 0.0
C2421 C 0.8535 0.46741 0.67301 0.0
C2422 C 0.8652 0.43118 0.7165 0.0
C2423 C 0.84838 0.41686 0.7061 0.0
C2424 C 0.8346 0.42768 0.67856 0.0
C2425 C 0.83744 0.4527 0.66228 0.0
C2426 C 0.88016 0.42066 0.74574 0.0
C2427 C 0.81657 0.413 0.66649 0.0
C2428 C 0.85439 0.34036 0.72903 0.0
C2429 C 0.83234 0.34189 0.75249 0.0
C2430 C 0.86079 0.36459 0.71492 0.0
C2431 C 0.84446 0.39095 0.72419 0.0
C2432 C 0.82272 0.39252 0.7487 0.0
C2433 C 0.81663 0.368 0.76209 0.0
C2434 C 0.8844 0.36205 0.68924 0.0
C2435 C 0.80508 0.42015 0.75977 0.0
H2436 H 0.8795 0.46769 0.70886 0.0
H2437 H 0.82707 0.46069 0.64104 0.0
H2438 H 0.86594 0.42643 0.76765 0.0
H2439 H 0.88836 0.39768 0.74687 0.0
H2440 H 0.89701 0.43005 0.74599 0.0
H2441 H 0.80766 0.4239 0.64438 0.0
H2442 H 0.82813 0.39142 0.66108 0.0
H2443 H 0.79997 0.41155 0.68552 0.0
H2444 H 0.86629 0.32016 0.72126 0.0
H2445 H 0.79898 0.36951 0.77914 0.0
H2446 H 0.89783 0.37405 0.69512 0.0
H2447 H 0.87707 0.37104 0.66567 0.0
H2448 H 0.89634 0.34005 0.6866 0.0
H2449 H 0.81763 0.433 0.76588 0.0
H2450 H 0.79075 0.41763 0.78124 0.0
H2451 H 0.79339 0.43176 0.73991 0.0
C2452 C 0.23245 0.59851 0.58807 0.0
C2453 C 0.257 0.57892 0.5934 0.0
C2454 C 0.2239 0.62321 0.60427 0.0
C2455 C 0.24061 0.62843 0.62559 0.0
C2456 C 0.26394 0.60741 0.63342 0.0
C2457 C 0.27164 0.58279 0.6175 0.0
C2458 C 0.19823 0.64466 0.59652 0.0
C2459 C 0.28245 0.61206 0.65588 0.0
C2460 C 0.24996 0.70036 0.62349 0.0
C2461 C 0.23883 0.70834 0.65443 0.0
C2462 C 0.24957 0.67484 0.61338 0.0
C2463 C 0.23711 0.65717 0.63455 0.0
C2464 C 0.22447 0.66588 0.66526 0.0
C2465 C 0.22595 0.69126 0.67515 0.0
C2466 C 0.26382 0.66619 0.58069 0.0
C2467 C 0.21022 0.64809 0.68807 0.0
H2468 H 0.22078 0.59544 0.56986 0.0
H2469 H 0.29033 0.56741 0.62234 0.0
H2470 H 0.1873 0.65493 0.61852 0.0
H2471 H 0.20312 0.661 0.57883 0.0
H2472 H 0.18472 0.63525 0.58587 0.0
H2473 H 0.29818 0.59265 0.66201 0.0
H2474 H 0.2926 0.62778 0.64418 0.0
H2475 H 0.27088 0.62027 0.67859 0.0
H2476 H 0.25998 0.71368 0.60764 0.0
H2477 H 0.21717 0.69771 0.69902 0.0
H2478 H 0.24987 0.66101 0.56609 0.0
H2479 H 0.28082 0.64721 0.58378 0.0
H2480 H 0.27189 0.68273 0.56691 0.0
H2481 H 0.19907 0.63781 0.67475 0.0
H2482 H 0.19591 0.66053 0.70664 0.0
H2483 H 0.22524 0.63152 0.70068 0.0
loop_
_geom_bond_atom_site_label_1
_geom_bond_atom_site_label_2
_geom_bond_distance
_geom_bond_site_symmetry_2
_ccdc_geom_bond_type
Cu0 N1 1.999 . S
Cu0 O6 1.974 . S
Cu0 N11 1.985 . S
Cu0 O20 1.959 1_455 S
N1 Cu0 1.999 . S
N1 C3 1.263 . S
N1 C5 1.389 . S
N2 C3 1.358 . S
N2 C4 1.400 . S
C3 N1 1.263 . S
C3 N2 1.358 . S
C3 H9 0.930 . S
C4 N2 1.400 . S
C4 C5 1.351 . S
C4 H21 0.930 . S
C5 N1 1.389 . S
C5 C4 1.351 . S
C5 H10 0.930 . S
O6 Cu0 1.974 . S
O6 C16 1.282 1_545 S
C7 O8 1.261 . S
C7 O20 1.251 . S
O8 C7 1.261 . S
H9 C3 0.930 . S
H10 C5 0.930 . S
N11 Cu0 1.985 . S
N11 C13 1.335 1_455 S
N11 C14 1.390 1_545 S
N12 C13 1.345 1_565 S
N12 C15 1.336 . S
C13 N11 1.335 1_655 S
C13 N12 1.345 1_545 S
C13 H18 0.930 . S
C14 N11 1.390 1_565 S
C14 C15 1.346 1_455 S
C14 H19 0.930 . S
C15 N12 1.336 . S
C15 C14 1.346 1_655 S
C15 H22 0.923 . S
C16 O6 1.282 1_565 S
C16 O17 1.216 1_565 S
O17 C16 1.216 1_545 S
H18 C13 0.930 . S
H19 C14 0.930 . S
O20 Cu0 1.959 1_655 S
O20 C7 1.251 . S
H21 C4 0.930 . S
H22 C15 0.923 . S
Cu23 N24 1.999 . S
Cu23 O29 1.974 1_455 S
Cu23 N34 1.985 . S
Cu23 O43 1.959 . S
N24 Cu23 1.999 . S
N24 C26 1.263 1_455 S
N24 C28 1.389 1_545 S
N25 C26 1.358 1_565 S
N25 C27 1.400 . S
C26 N24 1.263 1_655 S
C26 N25 1.358 1_545 S
C26 H32 0.930 . S
C27 N25 1.400 . S
C27 C28 1.351 1_655 S
C27 H44 0.930 . S
C28 N24 1.389 1_565 S
C28 C27 1.351 1_455 S
C28 H33 0.930 . S
O29 Cu23 1.974 1_655 S
O29 C39 1.282 . S
C30 O31 1.261 . S
C30 O43 1.251 . S
O31 C30 1.261 . S
H32 C26 0.930 . S
H33 C28 0.930 . S
N34 Cu23 1.985 . S
N34 C36 1.335 . S
N34 C37 1.390 . S
N35 C36 1.345 . S
N35 C38 1.336 . S
C36 N34 1.335 . S
C36 N35 1.345 . S
C36 H41 0.930 . S
C37 N34 1.390 . S
C37 C38 1.346 . S
C37 H42 0.930 . S
C38 N35 1.336 . S
C38 C37 1.346 . S
C38 H45 0.929 . S
C39 O29 1.282 . S
C39 O40 1.216 . S
O40 C39 1.216 . S
H41 C36 0.930 . S
H42 C37 0.930 . S
O43 Cu23 1.959 . S
O43 C30 1.251 . S
H44 C27 0.930 . S
H45 C38 0.929 . S
Cu46 N47 1.999 . S
Cu46 O52 1.974 . S
Cu46 N57 1.985 . S
Cu46 O66 1.959 . S
N47 Cu46 1.999 . S
N47 C49 1.263 . S
N47 C51 1.389 . S
N48 C49 1.358 . S
N48 C50 1.400 . S
C49 N47 1.263 . S
C49 N48 1.358 . S
C49 H55 0.930 . S
C50 N48 1.400 . S
C50 C51 1.351 . S
C50 H67 0.930 1_554 S
C51 N47 1.389 . S
C51 C50 1.351 . S
C51 H56 0.930 . S
O52 Cu46 1.974 . S
O52 C62 1.282 . S
C53 O54 1.261 . S
C53 O66 1.251 . S
O54 C53 1.261 . S
H55 C49 0.930 . S
H56 C51 0.930 . S
N57 Cu46 1.985 . S
N57 C59 1.335 . S
N57 C60 1.390 . S
N58 C59 1.345 . S
N58 C61 1.336 . S
C59 N57 1.335 . S
C59 N58 1.345 . S
C59 H64 0.930 . S
C60 N57 1.390 . S
C60 C61 1.346 . S
C60 H65 0.930 . S
C61 N58 1.336 . S
C61 C60 1.346 . S
C61 H68 0.929 . S
C62 O52 1.282 . S
C62 O63 1.216 . S
O63 C62 1.216 . S
H64 C59 0.930 . S
H65 C60 0.930 . S
O66 Cu46 1.959 . S
O66 C53 1.251 . S
H67 C50 0.930 1_556 S
H68 C61 0.929 . S
Cu69 N70 1.999 . S
Cu69 O75 1.974 . S
Cu69 N80 1.985 . S
Cu69 O89 1.959 . S
N70 Cu69 1.999 . S
N70 C72 1.263 . S
N70 C74 1.389 . S
N71 C72 1.358 . S
N71 C73 1.400 1_554 S
C72 N70 1.263 . S
C72 N71 1.358 . S
C72 H78 0.930 . S
C73 N71 1.400 1_556 S
C73 C74 1.351 1_556 S
C73 H90 0.930 . S
C74 N70 1.389 . S
C74 C73 1.351 1_554 S
C74 H79 0.930 . S
O75 Cu69 1.974 . S
O75 C85 1.282 . S
C76 O77 1.261 . S
C76 O89 1.251 . S
O77 C76 1.261 . S
H78 C72 0.930 . S
H79 C74 0.930 . S
N80 Cu69 1.985 . S
N80 C82 1.335 1_455 S
N80 C83 1.390 . S
N81 C82 1.345 . S
N81 C84 1.336 1_655 S
C82 N80 1.335 1_655 S
C82 N81 1.345 . S
C82 H87 0.930 . S
C83 N80 1.390 . S
C83 C84 1.346 . S
C83 H88 0.930 . S
C84 N81 1.336 1_455 S
C84 C83 1.346 . S
C84 H91 0.929 . S
C85 O75 1.282 . S
C85 O86 1.216 . S
O86 C85 1.216 . S
H87 C82 0.930 . S
H88 C83 0.930 . S
O89 Cu69 1.959 . S
O89 C76 1.251 . S
H90 C73 0.930 . S
H91 C84 0.929 . S
Cu92 N93 1.999 1_554 S
Cu92 O98 1.974 . S
Cu92 N103 1.985 1_545 S
Cu92 O112 1.959 1_544 S
N93 Cu92 1.999 1_556 S
N93 C95 1.263 . S
N93 C97 1.389 . S
N94 C95 1.358 . S
N94 C96 1.400 . S
C95 N93 1.263 . S
C95 N94 1.358 . S
C95 H101 0.930 . S
C96 N94 1.400 . S
C96 C97 1.351 . S
C96 H113 0.930 . S
C97 N93 1.389 . S
C97 C96 1.351 . S
C97 H102 0.930 . S
O98 Cu92 1.974 . S
O98 C108 1.282 . S
C99 O100 1.261 . S
C99 O112 1.251 . S
O100 C99 1.261 . S
H101 C95 0.930 . S
H102 C97 0.930 . S
N103 Cu92 1.985 1_565 S
N103 C105 1.335 . S
N103 C106 1.390 . S
N104 C105 1.345 . S
N104 C107 1.336 . S
C105 N103 1.335 . S
C105 N104 1.345 . S
C105 H110 0.930 . S
C106 N103 1.390 . S
C106 C107 1.346 . S
C106 H111 0.930 . S
C107 N104 1.336 . S
C107 C106 1.346 . S
C107 H114 0.929 . S
C108 O98 1.282 . S
C108 O109 1.216 . S
O109 C108 1.216 . S
H110 C105 0.930 . S
H111 C106 0.930 . S
O112 Cu92 1.959 1_566 S
O112 C99 1.251 . S
H113 C96 0.930 . S
H114 C107 0.929 . S
Cu115 N116 1.999 1_454 S
Cu115 O121 1.974 1_455 S
Cu115 N126 1.985 . S
Cu115 O135 1.959 1_554 S
N116 Cu115 1.999 1_656 S
N116 C118 1.263 . S
N116 C120 1.389 . S
N117 C118 1.358 . S
N117 C119 1.400 . S
C118 N116 1.263 . S
C118 N117 1.358 . S
C118 H124 0.930 . S
C119 N117 1.400 . S
C119 C120 1.351 . S
C119 H136 0.930 . S
C120 N116 1.389 . S
C120 C119 1.351 . S
C120 H125 0.930 1_655 S
O121 Cu115 1.974 1_655 S
O121 C131 1.282 . S
C122 O123 1.261 . S
C122 O135 1.251 . S
O123 C122 1.261 . S
H124 C118 0.930 . S
H125 C120 0.930 1_455 S
N126 Cu115 1.985 . S
N126 C128 1.335 . S
N126 C129 1.390 . S
N127 C128 1.345 . S
N127 C130 1.336 . S
C128 N126 1.335 . S
C128 N127 1.345 . S
C128 H133 0.930 . S
C129 N126 1.390 . S
C129 C130 1.346 . S
C129 H134 0.930 1_455 S
C130 N127 1.336 . S
C130 C129 1.346 . S
C130 H137 0.929 . S
C131 O121 1.282 . S
C131 O132 1.216 . S
O132 C131 1.216 . S
H133 C128 0.930 . S
H134 C129 0.930 1_655 S
O135 Cu115 1.959 1_556 S
O135 C122 1.251 . S
H136 C119 0.930 . S
H137 C130 0.929 . S
Cu138 N139 1.999 . S
Cu138 O144 1.974 . S
Cu138 N149 1.985 . S
Cu138 O158 1.959 . S
N139 Cu138 1.999 . S
N139 C141 1.263 . S
N139 C143 1.389 . S
N140 C141 1.358 . S
N140 C142 1.400 . S
C141 N139 1.263 . S
C141 N140 1.358 . S
C141 H147 0.930 . S
C142 N140 1.400 . S
C142 C143 1.351 . S
C142 H159 0.930 . S
C143 N139 1.389 . S
C143 C142 1.351 . S
C143 H148 0.930 . S
O144 Cu138 1.974 . S
O144 C154 1.282 . S
C145 O146 1.261 . S
C145 O158 1.251 . S
O146 C145 1.261 . S
H147 C141 0.930 . S
H148 C143 0.930 . S
N149 Cu138 1.985 . S
N149 C151 1.335 . S
N149 C152 1.390 . S
N150 C151 1.345 . S
N150 C153 1.336 . S
C151 N149 1.335 . S
C151 N150 1.345 . S
C151 H156 0.930 . S
C152 N149 1.390 . S
C152 C153 1.346 . S
C152 H157 0.930 . S
C153 N150 1.336 . S
C153 C152 1.346 . S
C153 H160 0.929 . S
C154 O144 1.282 . S
C154 O155 1.216 . S
O155 C154 1.216 . S
H156 C151 0.930 . S
H157 C152 0.930 . S
O158 Cu138 1.959 . S
O158 C145 1.251 . S
H159 C142 0.930 . S
H160 C153 0.929 . S
Cu161 N162 1.999 . S
Cu161 O167 1.974 . S
Cu161 N172 1.985 . S
Cu161 O181 1.959 . S
N162 Cu161 1.999 . S
N162 C164 1.263 . S
N162 C166 1.389 . S
N163 C164 1.358 . S
N163 C165 1.400 . S
C164 N162 1.263 . S
C164 N163 1.358 . S
C164 H170 0.930 . S
C165 N163 1.400 . S
C165 C166 1.351 . S
C165 H182 0.930 . S
C166 N162 1.389 . S
C166 C165 1.351 . S
C166 H171 0.930 . S
O167 Cu161 1.974 . S
O167 C177 1.282 . S
C168 O169 1.261 . S
C168 O181 1.251 . S
O169 C168 1.261 . S
H170 C164 0.930 . S
H171 C166 0.930 . S
N172 Cu161 1.985 . S
N172 C174 1.335 . S
N172 C175 1.390 . S
N173 C174 1.345 . S
N173 C176 1.336 . S
C174 N172 1.335 . S
C174 N173 1.345 . S
C174 H179 0.930 . S
C175 N172 1.390 . S
C175 C176 1.346 . S
C175 H180 0.930 . S
C176 N173 1.336 . S
C176 C175 1.346 . S
C176 H183 0.929 . S
C177 O167 1.282 . S
C177 O178 1.216 . S
O178 C177 1.216 . S
H179 C174 0.930 . S
H180 C175 0.930 . S
O181 Cu161 1.959 . S
O181 C168 1.251 . S
H182 C165 0.930 . S
H183 C176 0.929 . S
Cu184 N185 1.999 . S
Cu184 O190 1.974 . S
Cu184 N195 1.985 . S
Cu184 O204 1.959 . S
N185 Cu184 1.999 . S
N185 C187 1.263 . S
N185 C189 1.389 . S
N186 C187 1.358 . S
N186 C188 1.400 . S
C187 N185 1.263 . S
C187 N186 1.358 . S
C187 H193 0.930 . S
C188 N186 1.400 . S
C188 C189 1.351 . S
C188 H205 0.930 . S
C189 N185 1.389 . S
C189 C188 1.351 . S
C189 H194 0.930 . S
O190 Cu184 1.974 . S
O190 C200 1.282 . S
C191 O192 1.261 . S
C191 O204 1.251 . S
O192 C191 1.261 . S
H193 C187 0.930 . S
H194 C189 0.930 . S
N195 Cu184 1.985 . S
N195 C197 1.335 . S
N195 C198 1.390 . S
N196 C197 1.345 . S
N196 C199 1.336 . S
C197 N195 1.335 . S
C197 N196 1.345 . S
C197 H202 0.930 . S
C198 N195 1.390 . S
C198 C199 1.346 . S
C198 H203 0.930 . S
C199 N196 1.336 . S
C199 C198 1.346 . S
C199 H206 0.929 . S
C200 O190 1.282 . S
C200 O201 1.216 . S
O201 C200 1.216 . S
H202 C197 0.930 . S
H203 C198 0.930 . S
O204 Cu184 1.959 . S
O204 C191 1.251 . S
H205 C188 0.930 . S
H206 C199 0.929 . S
Cu207 N208 1.999 . S
Cu207 O213 1.974 . S
Cu207 N218 1.985 . S
Cu207 O227 1.959 . S
N208 Cu207 1.999 . S
N208 C210 1.263 . S
N208 C212 1.389 . S
N209 C210 1.358 . S
N209 C211 1.400 . S
C210 N208 1.263 . S
C210 N209 1.358 . S
C210 H216 0.930 . S
C211 N209 1.400 . S
C211 C212 1.351 . S
C211 H228 0.930 . S
C212 N208 1.389 . S
C212 C211 1.351 . S
C212 H217 0.930 . S
O213 Cu207 1.974 . S
O213 C223 1.282 . S
C214 O215 1.261 . S
C214 O227 1.251 . S
O215 C214 1.261 . S
H216 C210 0.930 . S
H217 C212 0.930 . S
N218 Cu207 1.985 . S
N218 C220 1.335 . S
N218 C221 1.390 . S
N219 C220 1.345 . S
N219 C222 1.336 . S
C220 N218 1.335 . S
C220 N219 1.345 . S
C220 H225 0.930 . S
C221 N218 1.390 . S
C221 C222 1.346 . S
C221 H226 0.930 . S
C222 N219 1.336 . S
C222 C221 1.346 . S
C222 H229 0.929 . S
C223 O213 1.282 . S
C223 O224 1.216 . S
O224 C223 1.216 . S
H225 C220 0.930 . S
H226 C221 0.930 . S
O227 Cu207 1.959 . S
O227 C214 1.251 . S
H228 C211 0.930 . S
H229 C222 0.929 . S
Cu230 N231 1.999 . S
Cu230 O236 1.974 . S
Cu230 N241 1.985 . S
Cu230 O250 1.959 . S
N231 Cu230 1.999 . S
N231 C233 1.263 . S
N231 C235 1.389 . S
N232 C233 1.358 . S
N232 C234 1.400 . S
C233 N231 1.263 . S
C233 N232 1.358 . S
C233 H239 0.930 . S
C234 N232 1.400 . S
C234 C235 1.351 . S
C234 H251 0.930 . S
C235 N231 1.389 . S
C235 C234 1.351 . S
C235 H240 0.930 . S
O236 Cu230 1.974 . S
O236 C246 1.282 . S
C237 O238 1.261 . S
C237 O250 1.251 . S
O238 C237 1.261 . S
H239 C233 0.930 . S
H240 C235 0.930 . S
N241 Cu230 1.985 . S
N241 C243 1.335 . S
N241 C244 1.390 . S
N242 C243 1.345 . S
N242 C245 1.336 . S
C243 N241 1.335 . S
C243 N242 1.345 . S
C243 H248 0.930 . S
C244 N241 1.390 . S
C244 C245 1.346 . S
C244 H249 0.930 . S
C245 N242 1.336 . S
C245 C244 1.346 . S
C245 H252 0.929 . S
C246 O236 1.282 . S
C246 O247 1.216 . S
O247 C246 1.216 . S
H248 C243 0.930 . S
H249 C244 0.930 . S
O250 Cu230 1.959 . S
O250 C237 1.251 . S
H251 C234 0.930 . S
H252 C245 0.929 . S
Cu253 N254 1.999 . S
Cu253 O259 1.974 . S
Cu253 N264 1.985 . S
Cu253 O273 1.959 . S
N254 Cu253 1.999 . S
N254 C256 1.263 . S
N254 C258 1.389 . S
N255 C256 1.358 . S
N255 C257 1.400 . S
C256 N254 1.263 . S
C256 N255 1.358 . S
C256 H262 0.930 . S
C257 N255 1.400 . S
C257 C258 1.351 . S
C257 H274 0.930 . S
C258 N254 1.389 . S
C258 C257 1.351 . S
C258 H263 0.930 . S
O259 Cu253 1.974 . S
O259 C269 1.282 . S
C260 O261 1.261 . S
C260 O273 1.251 . S
O261 C260 1.261 . S
H262 C256 0.930 . S
H263 C258 0.930 . S
N264 Cu253 1.985 . S
N264 C266 1.335 . S
N264 C267 1.390 . S
N265 C266 1.345 . S
N265 C268 1.336 . S
C266 N264 1.335 . S
C266 N265 1.345 . S
C266 H271 0.930 . S
C267 N264 1.390 . S
C267 C268 1.346 . S
C267 H272 0.930 . S
C268 N265 1.336 . S
C268 C267 1.346 . S
C268 H275 0.929 . S
C269 O259 1.282 . S
C269 O270 1.216 . S
O270 C269 1.216 . S
H271 C266 0.930 . S
H272 C267 0.930 . S
O273 Cu253 1.959 . S
O273 C260 1.251 . S
H274 C257 0.930 . S
H275 C268 0.929 . S
Tb276 N307 2.660 . S
Tb276 N314 2.600 . S
Tb276 O320 2.546 . S
Tb276 O321 2.610 . S
Tb276 O323 2.320 . S
Tb276 O324 2.552 . S
Tb276 O325 2.413 . S
Tb276 O327 2.362 . S
Tb276 O328 2.421 . S
Tb276 C340 2.833 . S
C277 C280 1.432 . S
C277 C281 1.414 . S
C277 N284 1.359 . S
C278 C280 1.417 . S
C278 C282 1.432 . S
C278 C290 1.410 . S
C279 C281 1.444 . S
C279 C282 1.317 . S
C279 H302 0.929 . S
C280 C277 1.432 . S
C280 C278 1.417 . S
C280 N288 1.360 . S
C281 C277 1.414 . S
C281 C279 1.444 . S
C281 C286 1.385 . S
C282 C278 1.432 . S
C282 C279 1.317 . S
C282 H294 0.930 . S
C283 C285 1.392 . S
C283 C286 1.370 . S
C283 H295 0.931 . S
N284 C277 1.359 . S
N284 C285 1.327 . S
N284 Tb287 2.600 . S
C285 C283 1.392 . S
C285 N284 1.327 . S
C285 H292 0.930 . S
C286 C281 1.385 . S
C286 C283 1.370 . S
C286 H305 0.930 . S
Tb287 N284 2.600 . S
Tb287 N288 2.660 . S
Tb287 O321 2.362 . S
Tb287 O322 2.421 . S
Tb287 O326 2.546 . S
Tb287 O327 2.610 . S
Tb287 O329 2.320 . S
Tb287 O330 2.552 . S
Tb287 O331 2.413 . S
Tb287 C351 2.833 . S
N288 C280 1.360 . S
N288 Tb287 2.660 . S
N288 C289 1.305 . S
C289 N288 1.305 . S
C289 C291 1.407 . S
C289 H296 0.930 . S
C290 C278 1.410 . S
C290 C291 1.345 . S
C290 H298 0.930 . S
C291 C289 1.407 . S
C291 C290 1.345 . S
C291 H293 0.930 . S
H292 C285 0.930 . S
H293 C291 0.930 . S
H294 C282 0.930 . S
H295 C283 0.931 . S
H296 C289 0.930 . S
H297 C311 0.930 . S
H298 C290 0.930 . S
H299 C317 0.930 . S
H300 C308 0.930 . S
H301 C315 0.931 . S
H302 C279 0.929 . S
H303 C309 0.930 . S
H304 C342 0.930 . S
H305 C286 0.930 . S
H306 C341 0.929 . S
N307 Tb276 2.660 . S
N307 C308 1.305 . S
N307 C312 1.360 . S
C308 H300 0.930 . S
C308 N307 1.305 . S
C308 C311 1.407 . S
C309 H303 0.930 . S
C309 C310 1.410 . S
C309 C311 1.345 . S
C310 C309 1.410 . S
C310 C312 1.417 . S
C310 C342 1.432 . S
C311 H297 0.930 . S
C311 C308 1.407 . S
C311 C309 1.345 . S
C312 N307 1.360 . S
C312 C310 1.417 . S
C312 C316 1.432 . S
H313 C318 0.930 . S
N314 Tb276 2.600 . S
N314 C316 1.359 . S
N314 C317 1.327 . S
C315 H301 0.931 . S
C315 C317 1.392 . S
C315 C318 1.370 . S
C316 C312 1.432 . S
C316 N314 1.359 . S
C316 C319 1.414 . S
C317 H299 0.930 . S
C317 N314 1.327 . S
C317 C315 1.392 . S
C318 H313 0.930 . S
C318 C315 1.370 . S
C318 C319 1.385 . S
C319 C316 1.414 . S
C319 C318 1.385 . S
C319 C341 1.444 . S
O320 Tb276 2.546 . S
O320 C340 1.251 . S
O321 Tb276 2.610 . S
O321 Tb287 2.362 . S
O321 C332 1.283 . S
O322 Tb287 2.421 . S
O322 C339 1.262 . S
O323 Tb276 2.320 . S
O323 C339 1.260 . S
O324 Tb276 2.552 . S
O324 C332 1.243 . S
O325 Tb276 2.413 . S
O325 C340 1.256 . S
O326 Tb287 2.546 . S
O326 C351 1.251 . S
O327 Tb276 2.362 . S
O327 Tb287 2.610 . S
O327 C343 1.283 . S
O328 Tb276 2.421 . S
O328 C350 1.262 . S
O329 Tb287 2.320 . S
O329 C350 1.260 . S
O330 Tb287 2.552 . S
O330 C343 1.243 . S
O331 Tb287 2.413 . S
O331 C351 1.256 . S
C332 O321 1.283 . S
C332 O324 1.243 . S
C333 C335 1.382 . S
C333 C337 1.393 . S
C333 C340 1.500 . S
C334 C335 1.400 . S
C334 C336 1.384 . S
C335 C333 1.382 . S
C335 C334 1.400 . S
C335 H352 0.930 . S
C336 C334 1.384 . S
C336 C338 1.392 . S
C336 H353 0.931 . S
C337 C333 1.393 . S
C337 C338 1.401 . S
C337 H354 0.930 . S
C338 C336 1.392 . S
C338 C337 1.401 . S
C338 H355 0.930 . S
C339 O322 1.262 . S
C339 O323 1.260 . S
C340 Tb276 2.833 . S
C340 O320 1.251 . S
C340 O325 1.256 . S
C340 C333 1.500 . S
C341 H306 0.929 . S
C341 C319 1.444 . S
C341 C342 1.317 . S
C342 H304 0.930 . S
C342 C310 1.432 . S
C342 C341 1.317 . S
C343 O327 1.283 . S
C343 O330 1.243 . S
C344 C345 1.382 . S
C344 C348 1.393 . S
C344 C351 1.500 . S
C345 C344 1.382 . S
C345 C346 1.400 . S
C345 H356 0.930 . S
C346 C345 1.400 . S
C346 C347 1.384 . S
C347 C346 1.384 . S
C347 C349 1.392 . S
C347 H357 0.931 . S
C348 C344 1.393 . S
C348 C349 1.401 . S
C348 H358 0.930 . S
C349 C347 1.392 . S
C349 C348 1.401 . S
C349 H359 0.930 . S
C350 O328 1.262 . S
C350 O329 1.260 . S
C351 Tb287 2.833 . S
C351 O326 1.251 . S
C351 O331 1.256 . S
C351 C344 1.500 . S
H352 C335 0.930 . S
H353 C336 0.931 . S
H354 C337 0.930 . S
H355 C338 0.930 . S
H356 C345 0.930 . S
H357 C347 0.931 . S
H358 C348 0.930 . S
H359 C349 0.930 . S
Tb360 N391 2.660 . S
Tb360 N398 2.600 . S
Tb360 O404 2.546 . S
Tb360 O405 2.610 . S
Tb360 O407 2.320 . S
Tb360 O408 2.552 . S
Tb360 O409 2.413 . S
Tb360 O411 2.362 . S
Tb360 O412 2.421 . S
Tb360 C424 2.833 . S
C361 C364 1.432 . S
C361 C365 1.414 . S
C361 N368 1.359 . S
C362 C364 1.417 . S
C362 C366 1.432 . S
C362 C374 1.410 . S
C363 C365 1.444 . S
C363 C366 1.317 . S
C363 H386 0.929 . S
C364 C361 1.432 . S
C364 C362 1.417 . S
C364 N372 1.360 . S
C365 C361 1.414 . S
C365 C363 1.444 . S
C365 C370 1.385 . S
C366 C362 1.432 . S
C366 C363 1.317 . S
C366 H378 0.930 . S
C367 C369 1.392 . S
C367 C370 1.370 . S
C367 H379 0.931 . S
N368 C361 1.359 . S
N368 C369 1.327 . S
N368 Tb371 2.600 . S
C369 C367 1.392 . S
C369 N368 1.327 . S
C369 H376 0.930 . S
C370 C365 1.385 . S
C370 C367 1.370 . S
C370 H389 0.930 . S
Tb371 N368 2.600 . S
Tb371 N372 2.660 . S
Tb371 O405 2.362 . S
Tb371 O406 2.421 . S
Tb371 O410 2.546 . S
Tb371 O411 2.610 . S
Tb371 O413 2.320 . S
Tb371 O414 2.552 . S
Tb371 O415 2.413 . S
Tb371 C435 2.833 . S
N372 C364 1.360 . S
N372 Tb371 2.660 . S
N372 C373 1.305 . S
C373 N372 1.305 . S
C373 C375 1.407 . S
C373 H380 0.930 . S
C374 C362 1.410 . S
C374 C375 1.345 . S
C374 H382 0.930 . S
C375 C373 1.407 . S
C375 C374 1.345 . S
C375 H377 0.930 . S
H376 C369 0.930 . S
H377 C375 0.930 . S
H378 C366 0.930 . S
H379 C367 0.931 . S
H380 C373 0.930 . S
H381 C395 0.930 . S
H382 C374 0.930 . S
H383 C401 0.930 . S
H384 C392 0.930 . S
H385 C399 0.931 . S
H386 C363 0.929 . S
H387 C393 0.930 . S
H388 C426 0.930 . S
H389 C370 0.930 . S
H390 C425 0.929 . S
N391 Tb360 2.660 . S
N391 C392 1.305 . S
N391 C396 1.360 . S
C392 H384 0.930 . S
C392 N391 1.305 . S
C392 C395 1.407 . S
C393 H387 0.930 . S
C393 C394 1.410 . S
C393 C395 1.345 . S
C394 C393 1.410 . S
C394 C396 1.417 . S
C394 C426 1.432 . S
C395 H381 0.930 . S
C395 C392 1.407 . S
C395 C393 1.345 . S
C396 N391 1.360 . S
C396 C394 1.417 . S
C396 C400 1.432 . S
H397 C402 0.930 . S
N398 Tb360 2.600 . S
N398 C400 1.359 . S
N398 C401 1.327 . S
C399 H385 0.931 . S
C399 C401 1.392 . S
C399 C402 1.370 . S
C400 C396 1.432 . S
C400 N398 1.359 . S
C400 C403 1.414 . S
C401 H383 0.930 . S
C401 N398 1.327 . S
C401 C399 1.392 . S
C402 H397 0.930 . S
C402 C399 1.370 . S
C402 C403 1.385 . S
C403 C400 1.414 . S
C403 C402 1.385 . S
C403 C425 1.444 . S
O404 Tb360 2.546 . S
O404 C424 1.251 . S
O405 Tb360 2.610 . S
O405 Tb371 2.362 . S
O405 C416 1.283 . S
O406 Tb371 2.421 . S
O406 C423 1.262 . S
O407 Tb360 2.320 . S
O407 C423 1.260 . S
O408 Tb360 2.552 . S
O408 C416 1.243 . S
O409 Tb360 2.413 . S
O409 C424 1.256 . S
O410 Tb371 2.546 . S
O410 C435 1.251 . S
O411 Tb360 2.362 . S
O411 Tb371 2.610 . S
O411 C427 1.283 . S
O412 Tb360 2.421 . S
O412 C434 1.262 . S
O413 Tb371 2.320 . S
O413 C434 1.260 . S
O414 Tb371 2.552 . S
O414 C427 1.243 . S
O415 Tb371 2.413 . S
O415 C435 1.256 . S
C416 O405 1.283 . S
C416 O408 1.243 . S
C417 C419 1.382 . S
C417 C421 1.393 . S
C417 C424 1.500 . S
C418 C419 1.400 . S
C418 C420 1.384 . S
C419 C417 1.382 . S
C419 C418 1.400 . S
C419 H436 0.930 . S
C420 C418 1.384 . S
C420 C422 1.392 . S
C420 H437 0.931 . S
C421 C417 1.393 . S
C421 C422 1.401 . S
C421 H438 0.930 . S
C422 C420 1.392 . S
C422 C421 1.401 . S
C422 H439 0.930 . S
C423 O406 1.262 . S
C423 O407 1.260 . S
C424 Tb360 2.833 . S
C424 O404 1.251 . S
C424 O409 1.256 . S
C424 C417 1.500 . S
C425 H390 0.929 . S
C425 C403 1.444 . S
C425 C426 1.317 . S
C426 H388 0.930 . S
C426 C394 1.432 . S
C426 C425 1.317 . S
C427 O411 1.283 . S
C427 O414 1.243 . S
C428 C429 1.382 . S
C428 C432 1.393 . S
C428 C435 1.500 . S
C429 C428 1.382 . S
C429 C430 1.400 . S
C429 H440 0.930 . S
C430 C429 1.400 . S
C430 C431 1.384 . S
C431 C430 1.384 . S
C431 C433 1.392 . S
C431 H441 0.931 . S
C432 C428 1.393 . S
C432 C433 1.401 . S
C432 H442 0.930 . S
C433 C431 1.392 . S
C433 C432 1.401 . S
C433 H443 0.930 . S
C434 O412 1.262 . S
C434 O413 1.260 . S
C435 Tb371 2.833 . S
C435 O410 1.251 . S
C435 O415 1.256 . S
C435 C428 1.500 . S
H436 C419 0.930 . S
H437 C420 0.931 . S
H438 C421 0.930 . S
H439 C422 0.930 . S
H440 C429 0.930 . S
H441 C431 0.931 . S
H442 C432 0.930 . S
H443 C433 0.930 . S
Tb444 N475 2.660 . S
Tb444 N482 2.600 . S
Tb444 O488 2.546 . S
Tb444 O489 2.610 . S
Tb444 O491 2.320 . S
Tb444 O492 2.552 . S
Tb444 O493 2.413 . S
Tb444 O495 2.362 . S
Tb444 O496 2.421 . S
Tb444 C508 2.833 . S
C445 C448 1.432 . S
C445 C449 1.414 . S
C445 N452 1.359 . S
C446 C448 1.417 . S
C446 C450 1.432 . S
C446 C458 1.410 . S
C447 C449 1.444 . S
C447 C450 1.317 . S
C447 H470 0.929 . S
C448 C445 1.432 . S
C448 C446 1.417 . S
C448 N456 1.360 . S
C449 C445 1.414 . S
C449 C447 1.444 . S
C449 C454 1.385 . S
C450 C446 1.432 . S
C450 C447 1.317 . S
C450 H462 0.930 . S
C451 C453 1.392 . S
C451 C454 1.370 . S
C451 H463 0.931 . S
N452 C445 1.359 . S
N452 C453 1.327 . S
N452 Tb455 2.600 . S
C453 C451 1.392 . S
C453 N452 1.327 . S
C453 H460 0.930 . S
C454 C449 1.385 . S
C454 C451 1.370 . S
C454 H473 0.930 . S
Tb455 N452 2.600 . S
Tb455 N456 2.660 . S
Tb455 O489 2.362 . S
Tb455 O490 2.421 . S
Tb455 O494 2.546 . S
Tb455 O495 2.610 . S
Tb455 O497 2.320 . S
Tb455 O498 2.552 . S
Tb455 O499 2.413 . S
Tb455 C519 2.833 . S
N456 C448 1.360 . S
N456 Tb455 2.660 . S
N456 C457 1.305 . S
C457 N456 1.305 . S
C457 C459 1.407 . S
C457 H464 0.930 . S
C458 C446 1.410 . S
C458 C459 1.345 . S
C458 H466 0.930 . S
C459 C457 1.407 . S
C459 C458 1.345 . S
C459 H461 0.930 . S
H460 C453 0.930 . S
H461 C459 0.930 . S
H462 C450 0.930 . S
H463 C451 0.931 . S
H464 C457 0.930 . S
H465 C479 0.930 . S
H466 C458 0.930 . S
H467 C485 0.930 . S
H468 C476 0.930 . S
H469 C483 0.931 . S
H470 C447 0.929 . S
H471 C477 0.930 . S
H472 C510 0.930 . S
H473 C454 0.930 . S
H474 C509 0.929 . S
N475 Tb444 2.660 . S
N475 C476 1.305 . S
N475 C480 1.360 . S
C476 H468 0.930 . S
C476 N475 1.305 . S
C476 C479 1.407 . S
C477 H471 0.930 . S
C477 C478 1.410 . S
C477 C479 1.345 . S
C478 C477 1.410 . S
C478 C480 1.417 . S
C478 C510 1.432 . S
C479 H465 0.930 . S
C479 C476 1.407 . S
C479 C477 1.345 . S
C480 N475 1.360 . S
C480 C478 1.417 . S
C480 C484 1.432 . S
H481 C486 0.930 . S
N482 Tb444 2.600 . S
N482 C484 1.359 . S
N482 C485 1.327 . S
C483 H469 0.931 . S
C483 C485 1.392 . S
C483 C486 1.370 . S
C484 C480 1.432 . S
C484 N482 1.359 . S
C484 C487 1.414 . S
C485 H467 0.930 . S
C485 N482 1.327 . S
C485 C483 1.392 . S
C486 H481 0.930 . S
C486 C483 1.370 . S
C486 C487 1.385 . S
C487 C484 1.414 . S
C487 C486 1.385 . S
C487 C509 1.444 . S
O488 Tb444 2.546 . S
O488 C508 1.251 . S
O489 Tb444 2.610 . S
O489 Tb455 2.362 . S
O489 C500 1.283 . S
O490 Tb455 2.421 . S
O490 C507 1.262 . S
O491 Tb444 2.320 . S
O491 C507 1.260 . S
O492 Tb444 2.552 . S
O492 C500 1.243 . S
O493 Tb444 2.413 . S
O493 C508 1.256 . S
O494 Tb455 2.546 . S
O494 C519 1.251 . S
O495 Tb444 2.362 . S
O495 Tb455 2.610 . S
O495 C511 1.283 . S
O496 Tb444 2.421 . S
O496 C518 1.262 . S
O497 Tb455 2.320 . S
O497 C518 1.260 . S
O498 Tb455 2.552 . S
O498 C511 1.243 . S
O499 Tb455 2.413 . S
O499 C519 1.256 . S
C500 O489 1.283 . S
C500 O492 1.243 . S
C501 C503 1.382 . S
C501 C505 1.393 . S
C501 C508 1.500 . S
C502 C503 1.400 . S
C502 C504 1.384 . S
C503 C501 1.382 . S
C503 C502 1.400 . S
C503 H520 0.930 . S
C504 C502 1.384 . S
C504 C506 1.392 . S
C504 H521 0.931 . S
C505 C501 1.393 . S
C505 C506 1.401 . S
C505 H522 0.930 . S
C506 C504 1.392 . S
C506 C505 1.401 . S
C506 H523 0.930 . S
C507 O490 1.262 . S
C507 O491 1.260 . S
C508 Tb444 2.833 . S
C508 O488 1.251 . S
C508 O493 1.256 . S
C508 C501 1.500 . S
C509 H474 0.929 . S
C509 C487 1.444 . S
C509 C510 1.317 . S
C510 H472 0.930 . S
C510 C478 1.432 . S
C510 C509 1.317 . S
C511 O495 1.283 . S
C511 O498 1.243 . S
C512 C513 1.382 . S
C512 C516 1.393 . S
C512 C519 1.500 . S
C513 C512 1.382 . S
C513 C514 1.400 . S
C513 H524 0.930 . S
C514 C513 1.400 . S
C514 C515 1.384 . S
C515 C514 1.384 . S
C515 C517 1.392 . S
C515 H525 0.931 . S
C516 C512 1.393 . S
C516 C517 1.401 . S
C516 H526 0.930 . S
C517 C515 1.392 . S
C517 C516 1.401 . S
C517 H527 0.930 . S
C518 O496 1.262 . S
C518 O497 1.260 . S
C519 Tb455 2.833 . S
C519 O494 1.251 . S
C519 O499 1.256 . S
C519 C512 1.500 . S
H520 C503 0.930 . S
H521 C504 0.931 . S
H522 C505 0.930 . S
H523 C506 0.930 . S
H524 C513 0.930 . S
H525 C515 0.931 . S
H526 C516 0.930 . S
H527 C517 0.930 . S
Tb528 N559 2.660 . S
Tb528 N566 2.600 . S
Tb528 O572 2.546 . S
Tb528 O573 2.610 . S
Tb528 O575 2.320 . S
Tb528 O576 2.552 . S
Tb528 O577 2.413 . S
Tb528 O579 2.362 . S
Tb528 O580 2.421 . S
Tb528 C592 2.833 . S
C529 C532 1.432 . S
C529 C533 1.414 . S
C529 N536 1.359 . S
C530 C532 1.417 . S
C530 C534 1.432 . S
C530 C542 1.410 . S
C531 C533 1.444 . S
C531 C534 1.317 . S
C531 H554 0.929 . S
C532 C529 1.432 . S
C532 C530 1.417 . S
C532 N540 1.360 . S
C533 C529 1.414 . S
C533 C531 1.444 . S
C533 C538 1.385 . S
C534 C530 1.432 . S
C534 C531 1.317 . S
C534 H546 0.930 . S
C535 C537 1.392 . S
C535 C538 1.370 . S
C535 H547 0.931 . S
N536 C529 1.359 . S
N536 C537 1.327 . S
N536 Tb539 2.600 . S
C537 C535 1.392 . S
C537 N536 1.327 . S
C537 H544 0.930 . S
C538 C533 1.385 . S
C538 C535 1.370 . S
C538 H557 0.930 . S
Tb539 N536 2.600 . S
Tb539 N540 2.660 . S
Tb539 O573 2.362 . S
Tb539 O574 2.421 . S
Tb539 O578 2.546 . S
Tb539 O579 2.610 . S
Tb539 O581 2.320 . S
Tb539 O582 2.552 . S
Tb539 O583 2.413 . S
Tb539 C603 2.833 . S
N540 C532 1.360 . S
N540 Tb539 2.660 . S
N540 C541 1.305 . S
C541 N540 1.305 . S
C541 C543 1.407 . S
C541 H548 0.930 . S
C542 C530 1.410 . S
C542 C543 1.345 . S
C542 H550 0.930 . S
C543 C541 1.407 . S
C543 C542 1.345 . S
C543 H545 0.930 . S
H544 C537 0.930 . S
H545 C543 0.930 . S
H546 C534 0.930 . S
H547 C535 0.931 . S
H548 C541 0.930 . S
H549 C563 0.930 . S
H550 C542 0.930 . S
H551 C569 0.930 . S
H552 C560 0.930 . S
H553 C567 0.931 . S
H554 C531 0.929 . S
H555 C561 0.930 . S
H556 C594 0.930 . S
H557 C538 0.930 . S
H558 C593 0.929 . S
N559 Tb528 2.660 . S
N559 C560 1.305 . S
N559 C564 1.360 . S
C560 H552 0.930 . S
C560 N559 1.305 . S
C560 C563 1.407 . S
C561 H555 0.930 . S
C561 C562 1.410 . S
C561 C563 1.345 . S
C562 C561 1.410 . S
C562 C564 1.417 . S
C562 C594 1.432 . S
C563 H549 0.930 . S
C563 C560 1.407 . S
C563 C561 1.345 . S
C564 N559 1.360 . S
C564 C562 1.417 . S
C564 C568 1.432 . S
H565 C570 0.930 . S
N566 Tb528 2.600 . S
N566 C568 1.359 . S
N566 C569 1.327 . S
C567 H553 0.931 . S
C567 C569 1.392 . S
C567 C570 1.370 . S
C568 C564 1.432 . S
C568 N566 1.359 . S
C568 C571 1.414 . S
C569 H551 0.930 . S
C569 N566 1.327 . S
C569 C567 1.392 . S
C570 H565 0.930 . S
C570 C567 1.370 . S
C570 C571 1.385 . S
C571 C568 1.414 . S
C571 C570 1.385 . S
C571 C593 1.444 . S
O572 Tb528 2.546 . S
O572 C592 1.251 . S
O573 Tb528 2.610 . S
O573 Tb539 2.362 . S
O573 C584 1.283 . S
O574 Tb539 2.421 . S
O574 C591 1.262 . S
O575 Tb528 2.320 . S
O575 C591 1.260 . S
O576 Tb528 2.552 . S
O576 C584 1.243 . S
O577 Tb528 2.413 . S
O577 C592 1.256 . S
O578 Tb539 2.546 . S
O578 C603 1.251 . S
O579 Tb528 2.362 . S
O579 Tb539 2.610 . S
O579 C595 1.283 . S
O580 Tb528 2.421 . S
O580 C602 1.262 . S
O581 Tb539 2.320 . S
O581 C602 1.260 . S
O582 Tb539 2.552 . S
O582 C595 1.243 . S
O583 Tb539 2.413 . S
O583 C603 1.256 . S
C584 O573 1.283 . S
C584 O576 1.243 . S
C585 C587 1.382 . S
C585 C589 1.393 . S
C585 C592 1.500 . S
C586 C587 1.400 . S
C586 C588 1.384 . S
C587 C585 1.382 . S
C587 C586 1.400 . S
C587 H604 0.930 . S
C588 C586 1.384 . S
C588 C590 1.392 . S
C588 H605 0.931 . S
C589 C585 1.393 . S
C589 C590 1.401 . S
C589 H606 0.930 . S
C590 C588 1.392 . S
C590 C589 1.401 . S
C590 H607 0.930 . S
C591 O574 1.262 . S
C591 O575 1.260 . S
C592 Tb528 2.833 . S
C592 O572 1.251 . S
C592 O577 1.256 . S
C592 C585 1.500 . S
C593 H558 0.929 . S
C593 C571 1.444 . S
C593 C594 1.317 . S
C594 H556 0.930 . S
C594 C562 1.432 . S
C594 C593 1.317 . S
C595 O579 1.283 . S
C595 O582 1.243 . S
C596 C597 1.382 . S
C596 C600 1.393 . S
C596 C603 1.500 . S
C597 C596 1.382 . S
C597 C598 1.400 . S
C597 H608 0.930 . S
C598 C597 1.400 . S
C598 C599 1.384 . S
C599 C598 1.384 . S
C599 C601 1.392 . S
C599 H609 0.931 . S
C600 C596 1.393 . S
C600 C601 1.401 . S
C600 H610 0.930 . S
C601 C599 1.392 . S
C601 C600 1.401 . S
C601 H611 0.930 . S
C602 O580 1.262 . S
C602 O581 1.260 . S
C603 Tb539 2.833 . S
C603 O578 1.251 . S
C603 O583 1.256 . S
C603 C596 1.500 . S
H604 C587 0.930 . S
H605 C588 0.931 . S
H606 C589 0.930 . S
H607 C590 0.930 . S
H608 C597 0.930 . S
H609 C599 0.931 . S
H610 C600 0.930 . S
H611 C601 0.930 . S
Tb612 N643 2.660 . S
Tb612 N650 2.600 . S
Tb612 O656 2.546 . S
Tb612 O657 2.610 . S
Tb612 O659 2.320 . S
Tb612 O660 2.552 . S
Tb612 O661 2.413 . S
Tb612 O663 2.362 . S
Tb612 O664 2.421 . S
Tb612 C676 2.833 . S
C613 C616 1.432 . S
C613 C617 1.414 . S
C613 N620 1.359 . S
C614 C616 1.417 . S
C614 C618 1.432 . S
C614 C626 1.410 . S
C615 C617 1.444 . S
C615 C618 1.317 . S
C615 H638 0.929 . S
C616 C613 1.432 . S
C616 C614 1.417 . S
C616 N624 1.360 . S
C617 C613 1.414 . S
C617 C615 1.444 . S
C617 C622 1.385 . S
C618 C614 1.432 . S
C618 C615 1.317 . S
C618 H630 0.930 . S
C619 C621 1.392 . S
C619 C622 1.370 . S
C619 H631 0.931 . S
N620 C613 1.359 . S
N620 C621 1.327 . S
N620 Tb623 2.600 . S
C621 C619 1.392 . S
C621 N620 1.327 . S
C621 H628 0.930 . S
C622 C617 1.385 . S
C622 C619 1.370 . S
C622 H641 0.930 . S
Tb623 N620 2.600 . S
Tb623 N624 2.660 . S
Tb623 O657 2.362 . S
Tb623 O658 2.421 . S
Tb623 O662 2.546 . S
Tb623 O663 2.610 . S
Tb623 O665 2.320 . S
Tb623 O666 2.552 . S
Tb623 O667 2.413 . S
Tb623 C687 2.833 . S
N624 C616 1.360 . S
N624 Tb623 2.660 . S
N624 C625 1.305 . S
C625 N624 1.305 . S
C625 C627 1.407 . S
C625 H632 0.930 . S
C626 C614 1.410 . S
C626 C627 1.345 . S
C626 H634 0.930 . S
C627 C625 1.407 . S
C627 C626 1.345 . S
C627 H629 0.930 . S
H628 C621 0.930 . S
H629 C627 0.930 . S
H630 C618 0.930 . S
H631 C619 0.931 . S
H632 C625 0.930 . S
H633 C647 0.930 . S
H634 C626 0.930 . S
H635 C653 0.930 . S
H636 C644 0.930 . S
H637 C651 0.931 . S
H638 C615 0.929 . S
H639 C645 0.930 . S
H640 C678 0.930 . S
H641 C622 0.930 . S
H642 C677 0.929 . S
N643 Tb612 2.660 . S
N643 C644 1.305 . S
N643 C648 1.360 . S
C644 H636 0.930 . S
C644 N643 1.305 . S
C644 C647 1.407 . S
C645 H639 0.930 . S
C645 C646 1.410 . S
C645 C647 1.345 . S
C646 C645 1.410 . S
C646 C648 1.417 . S
C646 C678 1.432 . S
C647 H633 0.930 . S
C647 C644 1.407 . S
C647 C645 1.345 . S
C648 N643 1.360 . S
C648 C646 1.417 . S
C648 C652 1.432 . S
H649 C654 0.930 . S
N650 Tb612 2.600 . S
N650 C652 1.359 . S
N650 C653 1.327 . S
C651 H637 0.931 . S
C651 C653 1.392 . S
C651 C654 1.370 . S
C652 C648 1.432 . S
C652 N650 1.359 . S
C652 C655 1.414 . S
C653 H635 0.930 . S
C653 N650 1.327 . S
C653 C651 1.392 . S
C654 H649 0.930 . S
C654 C651 1.370 . S
C654 C655 1.385 . S
C655 C652 1.414 . S
C655 C654 1.385 . S
C655 C677 1.444 . S
O656 Tb612 2.546 . S
O656 C676 1.251 . S
O657 Tb612 2.610 . S
O657 Tb623 2.362 . S
O657 C668 1.283 . S
O658 Tb623 2.421 . S
O658 C675 1.262 . S
O659 Tb612 2.320 . S
O659 C675 1.260 . S
O660 Tb612 2.552 . S
O660 C668 1.243 . S
O661 Tb612 2.413 . S
O661 C676 1.256 . S
O662 Tb623 2.546 . S
O662 C687 1.251 . S
O663 Tb612 2.362 . S
O663 Tb623 2.610 . S
O663 C679 1.283 . S
O664 Tb612 2.421 . S
O664 C686 1.262 . S
O665 Tb623 2.320 . S
O665 C686 1.260 . S
O666 Tb623 2.552 . S
O666 C679 1.243 . S
O667 Tb623 2.413 . S
O667 C687 1.256 . S
C668 O657 1.283 . S
C668 O660 1.243 . S
C669 C671 1.382 . S
C669 C673 1.393 . S
C669 C676 1.500 . S
C670 C671 1.400 . S
C670 C672 1.384 . S
C671 C669 1.382 . S
C671 C670 1.400 . S
C671 H688 0.930 . S
C672 C670 1.384 . S
C672 C674 1.392 . S
C672 H689 0.931 . S
C673 C669 1.393 . S
C673 C674 1.401 . S
C673 H690 0.930 . S
C674 C672 1.392 . S
C674 C673 1.401 . S
C674 H691 0.930 . S
C675 O658 1.262 . S
C675 O659 1.260 . S
C676 Tb612 2.833 . S
C676 O656 1.251 . S
C676 O661 1.256 . S
C676 C669 1.500 . S
C677 H642 0.929 . S
C677 C655 1.444 . S
C677 C678 1.317 . S
C678 H640 0.930 . S
C678 C646 1.432 . S
C678 C677 1.317 . S
C679 O663 1.283 . S
C679 O666 1.243 . S
C680 C681 1.382 . S
C680 C684 1.393 . S
C680 C687 1.500 . S
C681 C680 1.382 . S
C681 C682 1.400 . S
C681 H692 0.930 . S
C682 C681 1.400 . S
C682 C683 1.384 . S
C683 C682 1.384 . S
C683 C685 1.392 . S
C683 H693 0.931 . S
C684 C680 1.393 . S
C684 C685 1.401 . S
C684 H694 0.930 . S
C685 C683 1.392 . S
C685 C684 1.401 . S
C685 H695 0.930 . S
C686 O664 1.262 . S
C686 O665 1.260 . S
C687 Tb623 2.833 . S
C687 O662 1.251 . S
C687 O667 1.256 . S
C687 C680 1.500 . S
H688 C671 0.930 . S
H689 C672 0.931 . S
H690 C673 0.930 . S
H691 C674 0.930 . S
H692 C681 0.930 . S
H693 C683 0.931 . S
H694 C684 0.930 . S
H695 C685 0.930 . S
Tb696 N727 2.660 . S
Tb696 N734 2.600 . S
Tb696 O740 2.546 . S
Tb696 O741 2.610 . S
Tb696 O743 2.320 . S
Tb696 O744 2.552 . S
Tb696 O745 2.413 . S
Tb696 O747 2.362 . S
Tb696 O748 2.421 . S
Tb696 C760 2.833 . S
C697 C700 1.432 . S
C697 C701 1.414 . S
C697 N704 1.359 . S
C698 C700 1.417 . S
C698 C702 1.432 . S
C698 C710 1.410 . S
C699 C701 1.444 . S
C699 C702 1.317 . S
C699 H722 0.929 . S
C700 C697 1.432 . S
C700 C698 1.417 . S
C700 N708 1.360 . S
C701 C697 1.414 . S
C701 C699 1.444 . S
C701 C706 1.385 . S
C702 C698 1.432 . S
C702 C699 1.317 . S
C702 H714 0.930 . S
C703 C705 1.392 . S
C703 C706 1.370 . S
C703 H715 0.931 . S
N704 C697 1.359 . S
N704 C705 1.327 . S
N704 Tb707 2.600 . S
C705 C703 1.392 . S
C705 N704 1.327 . S
C705 H712 0.930 . S
C706 C701 1.385 . S
C706 C703 1.370 . S
C706 H725 0.930 . S
Tb707 N704 2.600 . S
Tb707 N708 2.660 . S
Tb707 O741 2.362 . S
Tb707 O742 2.421 . S
Tb707 O746 2.546 . S
Tb707 O747 2.610 . S
Tb707 O749 2.320 . S
Tb707 O750 2.552 . S
Tb707 O751 2.413 . S
Tb707 C771 2.833 . S
N708 C700 1.360 . S
N708 Tb707 2.660 . S
N708 C709 1.305 . S
C709 N708 1.305 . S
C709 C711 1.407 . S
C709 H716 0.930 . S
C710 C698 1.410 . S
C710 C711 1.345 . S
C710 H718 0.930 . S
C711 C709 1.407 . S
C711 C710 1.345 . S
C711 H713 0.930 . S
H712 C705 0.930 . S
H713 C711 0.930 . S
H714 C702 0.930 . S
H715 C703 0.931 . S
H716 C709 0.930 . S
H717 C731 0.930 . S
H718 C710 0.930 . S
H719 C737 0.930 . S
H720 C728 0.930 . S
H721 C735 0.931 . S
H722 C699 0.929 . S
H723 C729 0.930 . S
H724 C762 0.930 . S
H725 C706 0.930 . S
H726 C761 0.929 . S
N727 Tb696 2.660 . S
N727 C728 1.305 . S
N727 C732 1.360 . S
C728 H720 0.930 . S
C728 N727 1.305 . S
C728 C731 1.407 . S
C729 H723 0.930 . S
C729 C730 1.410 . S
C729 C731 1.345 . S
C730 C729 1.410 . S
C730 C732 1.417 . S
C730 C762 1.432 . S
C731 H717 0.930 . S
C731 C728 1.407 . S
C731 C729 1.345 . S
C732 N727 1.360 . S
C732 C730 1.417 . S
C732 C736 1.432 . S
H733 C738 0.930 . S
N734 Tb696 2.600 . S
N734 C736 1.359 . S
N734 C737 1.327 . S
C735 H721 0.931 . S
C735 C737 1.392 . S
C735 C738 1.370 . S
C736 C732 1.432 . S
C736 N734 1.359 . S
C736 C739 1.414 . S
C737 H719 0.930 . S
C737 N734 1.327 . S
C737 C735 1.392 . S
C738 H733 0.930 . S
C738 C735 1.370 . S
C738 C739 1.385 . S
C739 C736 1.414 . S
C739 C738 1.385 . S
C739 C761 1.444 . S
O740 Tb696 2.546 . S
O740 C760 1.251 . S
O741 Tb696 2.610 . S
O741 Tb707 2.362 . S
O741 C752 1.283 . S
O742 Tb707 2.421 . S
O742 C759 1.262 . S
O743 Tb696 2.320 . S
O743 C759 1.260 . S
O744 Tb696 2.552 . S
O744 C752 1.243 . S
O745 Tb696 2.413 . S
O745 C760 1.256 . S
O746 Tb707 2.546 . S
O746 C771 1.251 . S
O747 Tb696 2.362 . S
O747 Tb707 2.610 . S
O747 C763 1.283 . S
O748 Tb696 2.421 . S
O748 C770 1.262 . S
O749 Tb707 2.320 . S
O749 C770 1.260 . S
O750 Tb707 2.552 . S
O750 C763 1.243 . S
O751 Tb707 2.413 . S
O751 C771 1.256 . S
C752 O741 1.283 . S
C752 O744 1.243 . S
C753 C755 1.382 . S
C753 C757 1.393 . S
C753 C760 1.500 . S
C754 C755 1.400 . S
C754 C756 1.384 . S
C755 C753 1.382 . S
C755 C754 1.400 . S
C755 H772 0.930 . S
C756 C754 1.384 . S
C756 C758 1.392 . S
C756 H773 0.931 . S
C757 C753 1.393 . S
C757 C758 1.401 . S
C757 H774 0.930 . S
C758 C756 1.392 . S
C758 C757 1.401 . S
C758 H775 0.930 . S
C759 O742 1.262 . S
C759 O743 1.260 . S
C760 Tb696 2.833 . S
C760 O740 1.251 . S
C760 O745 1.256 . S
C760 C753 1.500 . S
C761 H726 0.929 . S
C761 C739 1.444 . S
C761 C762 1.317 . S
C762 H724 0.930 . S
C762 C730 1.432 . S
C762 C761 1.317 . S
C763 O747 1.283 . S
C763 O750 1.243 . S
C764 C765 1.382 . S
C764 C768 1.393 . S
C764 C771 1.500 . S
C765 C764 1.382 . S
C765 C766 1.400 . S
C765 H776 0.930 . S
C766 C765 1.400 . S
C766 C767 1.384 . S
C767 C766 1.384 . S
C767 C769 1.392 . S
C767 H777 0.931 . S
C768 C764 1.393 . S
C768 C769 1.401 . S
C768 H778 0.930 . S
C769 C767 1.392 . S
C769 C768 1.401 . S
C769 H779 0.930 . S
C770 O748 1.262 . S
C770 O749 1.260 . S
C771 Tb707 2.833 . S
C771 O746 1.251 . S
C771 O751 1.256 . S
C771 C764 1.500 . S
H772 C755 0.930 . S
H773 C756 0.931 . S
H774 C757 0.930 . S
H775 C758 0.930 . S
H776 C765 0.930 . S
H777 C767 0.931 . S
H778 C768 0.930 . S
H779 C769 0.930 . S
Tb780 N811 2.660 . S
Tb780 N818 2.600 . S
Tb780 O824 2.546 . S
Tb780 O825 2.610 . S
Tb780 O827 2.320 . S
Tb780 O828 2.552 . S
Tb780 O829 2.413 . S
Tb780 O831 2.362 . S
Tb780 O832 2.421 . S
Tb780 C844 2.833 . S
C781 C784 1.432 . S
C781 C785 1.414 . S
C781 N788 1.359 . S
C782 C784 1.417 . S
C782 C786 1.432 . S
C782 C794 1.410 . S
C783 C785 1.444 . S
C783 C786 1.317 . S
C783 H806 0.929 . S
C784 C781 1.432 . S
C784 C782 1.417 . S
C784 N792 1.360 . S
C785 C781 1.414 . S
C785 C783 1.444 . S
C785 C790 1.385 . S
C786 C782 1.432 . S
C786 C783 1.317 . S
C786 H798 0.930 . S
C787 C789 1.392 . S
C787 C790 1.370 . S
C787 H799 0.931 . S
N788 C781 1.359 . S
N788 C789 1.327 . S
N788 Tb791 2.600 . S
C789 C787 1.392 . S
C789 N788 1.327 . S
C789 H796 0.930 . S
C790 C785 1.385 . S
C790 C787 1.370 . S
C790 H809 0.930 . S
Tb791 N788 2.600 . S
Tb791 N792 2.660 . S
Tb791 O825 2.362 . S
Tb791 O826 2.421 . S
Tb791 O830 2.546 . S
Tb791 O831 2.610 . S
Tb791 O833 2.320 . S
Tb791 O834 2.552 . S
Tb791 O835 2.413 . S
Tb791 C855 2.833 . S
N792 C784 1.360 . S
N792 Tb791 2.660 . S
N792 C793 1.305 . S
C793 N792 1.305 . S
C793 C795 1.407 . S
C793 H800 0.930 . S
C794 C782 1.410 . S
C794 C795 1.345 . S
C794 H802 0.930 . S
C795 C793 1.407 . S
C795 C794 1.345 . S
C795 H797 0.930 . S
H796 C789 0.930 . S
H797 C795 0.930 . S
H798 C786 0.930 . S
H799 C787 0.931 . S
H800 C793 0.930 . S
H801 C815 0.930 . S
H802 C794 0.930 . S
H803 C821 0.930 . S
H804 C812 0.930 . S
H805 C819 0.931 . S
H806 C783 0.929 . S
H807 C813 0.930 . S
H808 C846 0.930 . S
H809 C790 0.930 . S
H810 C845 0.929 . S
N811 Tb780 2.660 . S
N811 C812 1.305 . S
N811 C816 1.360 . S
C812 H804 0.930 . S
C812 N811 1.305 . S
C812 C815 1.407 . S
C813 H807 0.930 . S
C813 C814 1.410 . S
C813 C815 1.345 . S
C814 C813 1.410 . S
C814 C816 1.417 . S
C814 C846 1.432 . S
C815 H801 0.930 . S
C815 C812 1.407 . S
C815 C813 1.345 . S
C816 N811 1.360 . S
C816 C814 1.417 . S
C816 C820 1.432 . S
H817 C822 0.930 . S
N818 Tb780 2.600 . S
N818 C820 1.359 . S
N818 C821 1.327 . S
C819 H805 0.931 . S
C819 C821 1.392 . S
C819 C822 1.370 . S
C820 C816 1.432 . S
C820 N818 1.359 . S
C820 C823 1.414 . S
C821 H803 0.930 . S
C821 N818 1.327 . S
C821 C819 1.392 . S
C822 H817 0.930 . S
C822 C819 1.370 . S
C822 C823 1.385 . S
C823 C820 1.414 . S
C823 C822 1.385 . S
C823 C845 1.444 . S
O824 Tb780 2.546 . S
O824 C844 1.251 . S
O825 Tb780 2.610 . S
O825 Tb791 2.362 . S
O825 C836 1.283 . S
O826 Tb791 2.421 . S
O826 C843 1.262 . S
O827 Tb780 2.320 . S
O827 C843 1.260 . S
O828 Tb780 2.552 . S
O828 C836 1.243 . S
O829 Tb780 2.413 . S
O829 C844 1.256 . S
O830 Tb791 2.546 . S
O830 C855 1.251 . S
O831 Tb780 2.362 . S
O831 Tb791 2.610 . S
O831 C847 1.283 . S
O832 Tb780 2.421 . S
O832 C854 1.262 . S
O833 Tb791 2.320 . S
O833 C854 1.260 . S
O834 Tb791 2.552 . S
O834 C847 1.243 . S
O835 Tb791 2.413 . S
O835 C855 1.256 . S
C836 O825 1.283 . S
C836 O828 1.243 . S
C837 C839 1.382 . S
C837 C841 1.393 . S
C837 C844 1.500 . S
C838 C839 1.400 . S
C838 C840 1.384 . S
C839 C837 1.382 . S
C839 C838 1.400 . S
C839 H856 0.930 . S
C840 C838 1.384 . S
C840 C842 1.392 . S
C840 H857 0.931 . S
C841 C837 1.393 . S
C841 C842 1.401 . S
C841 H858 0.930 . S
C842 C840 1.392 . S
C842 C841 1.401 . S
C842 H859 0.930 . S
C843 O826 1.262 . S
C843 O827 1.260 . S
C844 Tb780 2.833 . S
C844 O824 1.251 . S
C844 O829 1.256 . S
C844 C837 1.500 . S
C845 H810 0.929 . S
C845 C823 1.444 . S
C845 C846 1.317 . S
C846 H808 0.930 . S
C846 C814 1.432 . S
C846 C845 1.317 . S
C847 O831 1.283 . S
C847 O834 1.243 . S
C848 C849 1.382 . S
C848 C852 1.393 . S
C848 C855 1.500 . S
C849 C848 1.382 . S
C849 C850 1.400 . S
C849 H860 0.930 . S
C850 C849 1.400 . S
C850 C851 1.384 . S
C851 C850 1.384 . S
C851 C853 1.392 . S
C851 H861 0.931 . S
C852 C848 1.393 . S
C852 C853 1.401 . S
C852 H862 0.930 . S
C853 C851 1.392 . S
C853 C852 1.401 . S
C853 H863 0.930 . S
C854 O832 1.262 . S
C854 O833 1.260 . S
C855 Tb791 2.833 . S
C855 O830 1.251 . S
C855 O835 1.256 . S
C855 C848 1.500 . S
H856 C839 0.930 . S
H857 C840 0.931 . S
H858 C841 0.930 . S
H859 C842 0.930 . S
H860 C849 0.930 . S
H861 C851 0.931 . S
H862 C852 0.930 . S
H863 C853 0.930 . S
Tb864 N895 2.660 . S
Tb864 N902 2.600 . S
Tb864 O908 2.546 . S
Tb864 O909 2.610 . S
Tb864 O911 2.320 . S
Tb864 O912 2.552 . S
Tb864 O913 2.413 . S
Tb864 O915 2.362 . S
Tb864 O916 2.421 . S
Tb864 C928 2.833 . S
C865 C868 1.432 . S
C865 C869 1.414 . S
C865 N872 1.359 . S
C866 C868 1.417 . S
C866 C870 1.432 . S
C866 C878 1.410 . S
C867 C869 1.444 . S
C867 C870 1.317 . S
C867 H890 0.929 . S
C868 C865 1.432 . S
C868 C866 1.417 . S
C868 N876 1.360 . S
C869 C865 1.414 . S
C869 C867 1.444 . S
C869 C874 1.385 . S
C870 C866 1.432 . S
C870 C867 1.317 . S
C870 H882 0.930 . S
C871 C873 1.392 . S
C871 C874 1.370 . S
C871 H883 0.931 . S
N872 C865 1.359 . S
N872 C873 1.327 . S
N872 Tb875 2.600 . S
C873 C871 1.392 . S
C873 N872 1.327 . S
C873 H880 0.930 . S
C874 C869 1.385 . S
C874 C871 1.370 . S
C874 H893 0.930 . S
Tb875 N872 2.600 . S
Tb875 N876 2.660 . S
Tb875 O909 2.362 . S
Tb875 O910 2.421 . S
Tb875 O914 2.546 . S
Tb875 O915 2.610 . S
Tb875 O917 2.320 . S
Tb875 O918 2.552 . S
Tb875 O919 2.413 . S
Tb875 C939 2.833 . S
N876 C868 1.360 . S
N876 Tb875 2.660 . S
N876 C877 1.305 . S
C877 N876 1.305 . S
C877 C879 1.407 . S
C877 H884 0.930 . S
C878 C866 1.410 . S
C878 C879 1.345 . S
C878 H886 0.930 . S
C879 C877 1.407 . S
C879 C878 1.345 . S
C879 H881 0.930 . S
H880 C873 0.930 . S
H881 C879 0.930 . S
H882 C870 0.930 . S
H883 C871 0.931 . S
H884 C877 0.930 . S
H885 C899 0.930 . S
H886 C878 0.930 . S
H887 C905 0.930 . S
H888 C896 0.930 . S
H889 C903 0.931 . S
H890 C867 0.929 . S
H891 C897 0.930 . S
H892 C930 0.930 . S
H893 C874 0.930 . S
H894 C929 0.929 . S
N895 Tb864 2.660 . S
N895 C896 1.305 . S
N895 C900 1.360 . S
C896 H888 0.930 . S
C896 N895 1.305 . S
C896 C899 1.407 . S
C897 H891 0.930 . S
C897 C898 1.410 . S
C897 C899 1.345 . S
C898 C897 1.410 . S
C898 C900 1.417 . S
C898 C930 1.432 . S
C899 H885 0.930 . S
C899 C896 1.407 . S
C899 C897 1.345 . S
C900 N895 1.360 . S
C900 C898 1.417 . S
C900 C904 1.432 . S
H901 C906 0.930 . S
N902 Tb864 2.600 . S
N902 C904 1.359 . S
N902 C905 1.327 . S
C903 H889 0.931 . S
C903 C905 1.392 . S
C903 C906 1.370 . S
C904 C900 1.432 . S
C904 N902 1.359 . S
C904 C907 1.414 . S
C905 H887 0.930 . S
C905 N902 1.327 . S
C905 C903 1.392 . S
C906 H901 0.930 . S
C906 C903 1.370 . S
C906 C907 1.385 . S
C907 C904 1.414 . S
C907 C906 1.385 . S
C907 C929 1.444 . S
O908 Tb864 2.546 . S
O908 C928 1.251 . S
O909 Tb864 2.610 . S
O909 Tb875 2.362 . S
O909 C920 1.283 . S
O910 Tb875 2.421 . S
O910 C927 1.262 . S
O911 Tb864 2.320 . S
O911 C927 1.260 . S
O912 Tb864 2.552 . S
O912 C920 1.243 . S
O913 Tb864 2.413 . S
O913 C928 1.256 . S
O914 Tb875 2.546 . S
O914 C939 1.251 . S
O915 Tb864 2.362 . S
O915 Tb875 2.610 . S
O915 C931 1.283 . S
O916 Tb864 2.421 . S
O916 C938 1.262 . S
O917 Tb875 2.320 . S
O917 C938 1.260 . S
O918 Tb875 2.552 . S
O918 C931 1.243 . S
O919 Tb875 2.413 . S
O919 C939 1.256 . S
C920 O909 1.283 . S
C920 O912 1.243 . S
C921 C923 1.382 . S
C921 C925 1.393 . S
C921 C928 1.500 . S
C922 C923 1.400 . S
C922 C924 1.384 . S
C923 C921 1.382 . S
C923 C922 1.400 . S
C923 H940 0.930 . S
C924 C922 1.384 . S
C924 C926 1.392 . S
C924 H941 0.931 . S
C925 C921 1.393 . S
C925 C926 1.401 . S
C925 H942 0.930 . S
C926 C924 1.392 . S
C926 C925 1.401 . S
C926 H943 0.930 . S
C927 O910 1.262 . S
C927 O911 1.260 . S
C928 Tb864 2.833 . S
C928 O908 1.251 . S
C928 O913 1.256 . S
C928 C921 1.500 . S
C929 H894 0.929 . S
C929 C907 1.444 . S
C929 C930 1.317 . S
C930 H892 0.930 . S
C930 C898 1.432 . S
C930 C929 1.317 . S
C931 O915 1.283 . S
C931 O918 1.243 . S
C932 C933 1.382 . S
C932 C936 1.393 . S
C932 C939 1.500 . S
C933 C932 1.382 . S
C933 C934 1.400 . S
C933 H944 0.930 . S
C934 C933 1.400 . S
C934 C935 1.384 . S
C935 C934 1.384 . S
C935 C937 1.392 . S
C935 H945 0.931 . S
C936 C932 1.393 . S
C936 C937 1.401 . S
C936 H946 0.930 . S
C937 C935 1.392 . S
C937 C936 1.401 . S
C937 H947 0.930 . S
C938 O916 1.262 . S
C938 O917 1.260 . S
C939 Tb875 2.833 . S
C939 O914 1.251 . S
C939 O919 1.256 . S
C939 C932 1.500 . S
H940 C923 0.930 . S
H941 C924 0.931 . S
H942 C925 0.930 . S
H943 C926 0.930 . S
H944 C933 0.930 . S
H945 C935 0.931 . S
H946 C936 0.930 . S
H947 C937 0.930 . S
C948 C949 1.391 . S
C948 C950 1.394 . S
C948 H964 0.931 . S
C949 C948 1.391 . S
C949 C953 1.376 . S
C950 C948 1.394 . S
C950 C951 1.369 . S
C950 C954 1.531 . S
C951 C950 1.369 . S
C951 C952 1.410 . S
C951 C959 1.503 . S
C952 C951 1.410 . S
C952 C953 1.392 . S
C952 C955 1.511 . S
C953 C949 1.376 . S
C953 C952 1.392 . S
C953 H965 0.929 . S
C954 C950 1.531 . S
C954 H966 0.960 . S
C954 H967 0.962 . S
C954 H968 0.960 . S
C955 C952 1.511 . S
C955 H969 0.961 . S
C955 H970 0.961 . S
C955 H971 0.961 . S
C956 C957 1.370 . S
C956 C958 1.363 . S
C956 H972 0.931 . S
C957 C956 1.370 . S
C957 C961 1.408 . S
C958 C956 1.363 . S
C958 C959 1.370 . S
C958 C962 1.524 . S
C959 C951 1.503 . S
C959 C958 1.370 . S
C959 C960 1.403 . S
C960 C959 1.403 . S
C960 C961 1.404 . S
C960 C963 1.539 . S
C961 C957 1.408 . S
C961 C960 1.404 . S
C961 H973 0.930 . S
C962 C958 1.524 . S
C962 H974 0.956 . S
C962 H975 0.961 . S
C962 H976 0.961 . S
C963 C960 1.539 . S
C963 H977 0.958 . S
C963 H978 0.961 . S
C963 H979 0.960 . S
H964 C948 0.931 . S
H965 C953 0.929 . S
H966 C954 0.960 . S
H967 C954 0.962 . S
H968 C954 0.960 . S
H969 C955 0.961 . S
H970 C955 0.961 . S
H971 C955 0.961 . S
H972 C956 0.931 . S
H973 C961 0.930 . S
H974 C962 0.956 . S
H975 C962 0.961 . S
H976 C962 0.961 . S
H977 C963 0.958 . S
H978 C963 0.961 . S
H979 C963 0.960 . S
C980 C981 1.391 . S
C980 C982 1.394 . S
C980 H996 0.931 . S
C981 C980 1.391 . S
C981 C985 1.376 . S
C982 C980 1.394 . S
C982 C983 1.369 . S
C982 C986 1.531 . S
C983 C982 1.369 . S
C983 C984 1.410 . S
C983 C991 1.503 . S
C984 C983 1.410 . S
C984 C985 1.392 . S
C984 C987 1.511 . S
C985 C981 1.376 . S
C985 C984 1.392 . S
C985 H997 0.929 . S
C986 C982 1.531 . S
C986 H998 0.960 . S
C986 H999 0.962 . S
C986 H1000 0.960 . S
C987 C984 1.511 . S
C987 H1001 0.961 . S
C987 H1002 0.961 . S
C987 H1003 0.961 . S
C988 C989 1.370 . S
C988 C990 1.363 . S
C988 H1004 0.931 . S
C989 C988 1.370 . S
C989 C993 1.408 . S
C990 C988 1.363 . S
C990 C991 1.370 . S
C990 C994 1.524 . S
C991 C983 1.503 . S
C991 C990 1.370 . S
C991 C992 1.403 . S
C992 C991 1.403 . S
C992 C993 1.404 . S
C992 C995 1.539 . S
C993 C989 1.408 . S
C993 C992 1.404 . S
C993 H1005 0.930 . S
C994 C990 1.524 . S
C994 H1006 0.956 . S
C994 H1007 0.961 . S
C994 H1008 0.961 . S
C995 C992 1.539 . S
C995 H1009 0.958 . S
C995 H1010 0.961 . S
C995 H1011 0.960 . S
H996 C980 0.931 . S
H997 C985 0.929 . S
H998 C986 0.960 . S
H999 C986 0.962 . S
H1000 C986 0.960 . S
H1001 C987 0.961 . S
H1002 C987 0.961 . S
H1003 C987 0.961 . S
H1004 C988 0.931 . S
H1005 C993 0.930 . S
H1006 C994 0.956 . S
H1007 C994 0.961 . S
H1008 C994 0.961 . S
H1009 C995 0.958 . S
H1010 C995 0.961 . S
H1011 C995 0.960 . S
C1012 C1013 1.391 . S
C1012 C1014 1.394 . S
C1012 H1028 0.931 . S
C1013 C1012 1.391 . S
C1013 C1017 1.376 . S
C1014 C1012 1.394 . S
C1014 C1015 1.369 . S
C1014 C1018 1.531 . S
C1015 C1014 1.369 . S
C1015 C1016 1.410 . S
C1015 C1023 1.503 . S
C1016 C1015 1.410 . S
C1016 C1017 1.392 . S
C1016 C1019 1.511 . S
C1017 C1013 1.376 . S
C1017 C1016 1.392 . S
C1017 H1029 0.929 . S
C1018 C1014 1.531 . S
C1018 H1030 0.960 . S
C1018 H1031 0.962 . S
C1018 H1032 0.960 . S
C1019 C1016 1.511 . S
C1019 H1033 0.961 . S
C1019 H1034 0.961 . S
C1019 H1035 0.961 . S
C1020 C1021 1.370 . S
C1020 C1022 1.363 . S
C1020 H1036 0.931 . S
C1021 C1020 1.370 . S
C1021 C1025 1.408 . S
C1022 C1020 1.363 . S
C1022 C1023 1.370 . S
C1022 C1026 1.524 . S
C1023 C1015 1.503 . S
C1023 C1022 1.370 . S
C1023 C1024 1.403 . S
C1024 C1023 1.403 . S
C1024 C1025 1.404 . S
C1024 C1027 1.539 . S
C1025 C1021 1.408 . S
C1025 C1024 1.404 . S
C1025 H1037 0.930 . S
C1026 C1022 1.524 . S
C1026 H1038 0.956 . S
C1026 H1039 0.961 . S
C1026 H1040 0.961 . S
C1027 C1024 1.539 . S
C1027 H1041 0.958 . S
C1027 H1042 0.961 . S
C1027 H1043 0.960 . S
H1028 C1012 0.931 . S
H1029 C1017 0.929 . S
H1030 C1018 0.960 . S
H1031 C1018 0.962 . S
H1032 C1018 0.960 . S
H1033 C1019 0.961 . S
H1034 C1019 0.961 . S
H1035 C1019 0.961 . S
H1036 C1020 0.931 . S
H1037 C1025 0.930 . S
H1038 C1026 0.956 . S
H1039 C1026 0.961 . S
H1040 C1026 0.961 . S
H1041 C1027 0.958 . S
H1042 C1027 0.961 . S
H1043 C1027 0.960 . S
C1044 C1045 1.391 . S
C1044 C1046 1.394 . S
C1044 H1060 0.931 . S
C1045 C1044 1.391 . S
C1045 C1049 1.376 . S
C1046 C1044 1.394 . S
C1046 C1047 1.369 . S
C1046 C1050 1.531 . S
C1047 C1046 1.369 . S
C1047 C1048 1.410 . S
C1047 C1055 1.503 . S
C1048 C1047 1.410 . S
C1048 C1049 1.392 . S
C1048 C1051 1.511 . S
C1049 C1045 1.376 . S
C1049 C1048 1.392 . S
C1049 H1061 0.929 . S
C1050 C1046 1.531 . S
C1050 H1062 0.960 . S
C1050 H1063 0.962 . S
C1050 H1064 0.960 . S
C1051 C1048 1.511 . S
C1051 H1065 0.961 . S
C1051 H1066 0.961 . S
C1051 H1067 0.961 . S
C1052 C1053 1.370 . S
C1052 C1054 1.363 . S
C1052 H1068 0.931 . S
C1053 C1052 1.370 . S
C1053 C1057 1.408 . S
C1054 C1052 1.363 . S
C1054 C1055 1.370 . S
C1054 C1058 1.524 . S
C1055 C1047 1.503 . S
C1055 C1054 1.370 . S
C1055 C1056 1.403 . S
C1056 C1055 1.403 . S
C1056 C1057 1.404 . S
C1056 C1059 1.539 . S
C1057 C1053 1.408 . S
C1057 C1056 1.404 . S
C1057 H1069 0.930 . S
C1058 C1054 1.524 . S
C1058 H1070 0.956 . S
C1058 H1071 0.961 . S
C1058 H1072 0.961 . S
C1059 C1056 1.539 . S
C1059 H1073 0.958 . S
C1059 H1074 0.961 . S
C1059 H1075 0.960 . S
H1060 C1044 0.931 . S
H1061 C1049 0.929 . S
H1062 C1050 0.960 . S
H1063 C1050 0.962 . S
H1064 C1050 0.960 . S
H1065 C1051 0.961 . S
H1066 C1051 0.961 . S
H1067 C1051 0.961 . S
H1068 C1052 0.931 . S
H1069 C1057 0.930 . S
H1070 C1058 0.956 . S
H1071 C1058 0.961 . S
H1072 C1058 0.961 . S
H1073 C1059 0.958 . S
H1074 C1059 0.961 . S
H1075 C1059 0.960 . S
C1076 C1077 1.391 . S
C1076 C1078 1.394 . S
C1076 H1092 0.931 . S
C1077 C1076 1.391 . S
C1077 C1081 1.376 . S
C1078 C1076 1.394 . S
C1078 C1079 1.369 . S
C1078 C1082 1.531 . S
C1079 C1078 1.369 . S
C1079 C1080 1.410 . S
C1079 C1087 1.503 . S
C1080 C1079 1.410 . S
C1080 C1081 1.392 . S
C1080 C1083 1.511 . S
C1081 C1077 1.376 . S
C1081 C1080 1.392 . S
C1081 H1093 0.929 . S
C1082 C1078 1.531 . S
C1082 H1094 0.960 . S
C1082 H1095 0.962 . S
C1082 H1096 0.960 . S
C1083 C1080 1.511 . S
C1083 H1097 0.961 . S
C1083 H1098 0.961 . S
C1083 H1099 0.961 . S
C1084 C1085 1.370 . S
C1084 C1086 1.363 . S
C1084 H1100 0.931 . S
C1085 C1084 1.370 . S
C1085 C1089 1.408 . S
C1086 C1084 1.363 . S
C1086 C1087 1.370 . S
C1086 C1090 1.524 . S
C1087 C1079 1.503 . S
C1087 C1086 1.370 . S
C1087 C1088 1.403 . S
C1088 C1087 1.403 . S
C1088 C1089 1.404 . S
C1088 C1091 1.539 . S
C1089 C1085 1.408 . S
C1089 C1088 1.404 . S
C1089 H1101 0.930 . S
C1090 C1086 1.524 . S
C1090 H1102 0.956 . S
C1090 H1103 0.961 . S
C1090 H1104 0.961 . S
C1091 C1088 1.539 . S
C1091 H1105 0.958 . S
C1091 H1106 0.961 . S
C1091 H1107 0.960 . S
H1092 C1076 0.931 . S
H1093 C1081 0.929 . S
H1094 C1082 0.960 . S
H1095 C1082 0.962 . S
H1096 C1082 0.960 . S
H1097 C1083 0.961 . S
H1098 C1083 0.961 . S
H1099 C1083 0.961 . S
H1100 C1084 0.931 . S
H1101 C1089 0.930 . S
H1102 C1090 0.956 . S
H1103 C1090 0.961 . S
H1104 C1090 0.961 . S
H1105 C1091 0.958 . S
H1106 C1091 0.961 . S
H1107 C1091 0.960 . S
C1108 C1109 1.391 . S
C1108 C1110 1.394 . S
C1108 H1124 0.931 . S
C1109 C1108 1.391 . S
C1109 C1113 1.376 . S
C1110 C1108 1.394 . S
C1110 C1111 1.369 . S
C1110 C1114 1.531 . S
C1111 C1110 1.369 . S
C1111 C1112 1.410 . S
C1111 C1119 1.503 . S
C1112 C1111 1.410 . S
C1112 C1113 1.392 . S
C1112 C1115 1.511 . S
C1113 C1109 1.376 . S
C1113 C1112 1.392 . S
C1113 H1125 0.929 . S
C1114 C1110 1.531 . S
C1114 H1126 0.960 . S
C1114 H1127 0.962 . S
C1114 H1128 0.960 . S
C1115 C1112 1.511 . S
C1115 H1129 0.961 . S
C1115 H1130 0.961 . S
C1115 H1131 0.961 . S
C1116 C1117 1.370 . S
C1116 C1118 1.363 . S
C1116 H1132 0.931 . S
C1117 C1116 1.370 . S
C1117 C1121 1.408 . S
C1118 C1116 1.363 . S
C1118 C1119 1.370 . S
C1118 C1122 1.524 . S
C1119 C1111 1.503 . S
C1119 C1118 1.370 . S
C1119 C1120 1.403 . S
C1120 C1119 1.403 . S
C1120 C1121 1.404 . S
C1120 C1123 1.539 . S
C1121 C1117 1.408 . S
C1121 C1120 1.404 . S
C1121 H1133 0.930 . S
C1122 C1118 1.524 . S
C1122 H1134 0.956 . S
C1122 H1135 0.961 . S
C1122 H1136 0.961 . S
C1123 C1120 1.539 . S
C1123 H1137 0.958 . S
C1123 H1138 0.961 . S
C1123 H1139 0.960 . S
H1124 C1108 0.931 . S
H1125 C1113 0.929 . S
H1126 C1114 0.960 . S
H1127 C1114 0.962 . S
H1128 C1114 0.960 . S
H1129 C1115 0.961 . S
H1130 C1115 0.961 . S
H1131 C1115 0.961 . S
H1132 C1116 0.931 . S
H1133 C1121 0.930 . S
H1134 C1122 0.956 . S
H1135 C1122 0.961 . S
H1136 C1122 0.961 . S
H1137 C1123 0.958 . S
H1138 C1123 0.961 . S
H1139 C1123 0.960 . S
C1140 C1141 1.391 . S
C1140 C1142 1.394 . S
C1140 H1156 0.931 . S
C1141 C1140 1.391 . S
C1141 C1145 1.376 . S
C1142 C1140 1.394 . S
C1142 C1143 1.369 . S
C1142 C1146 1.531 . S
C1143 C1142 1.369 . S
C1143 C1144 1.410 . S
C1143 C1151 1.503 . S
C1144 C1143 1.410 . S
C1144 C1145 1.392 . S
C1144 C1147 1.511 . S
C1145 C1141 1.376 . S
C1145 C1144 1.392 . S
C1145 H1157 0.929 . S
C1146 C1142 1.531 . S
C1146 H1158 0.960 . S
C1146 H1159 0.962 . S
C1146 H1160 0.960 . S
C1147 C1144 1.511 . S
C1147 H1161 0.961 . S
C1147 H1162 0.961 . S
C1147 H1163 0.961 . S
C1148 C1149 1.370 . S
C1148 C1150 1.363 . S
C1148 H1164 0.931 . S
C1149 C1148 1.370 . S
C1149 C1153 1.408 . S
C1150 C1148 1.363 . S
C1150 C1151 1.370 . S
C1150 C1154 1.524 . S
C1151 C1143 1.503 . S
C1151 C1150 1.370 . S
C1151 C1152 1.403 . S
C1152 C1151 1.403 . S
C1152 C1153 1.404 . S
C1152 C1155 1.539 . S
C1153 C1149 1.408 . S
C1153 C1152 1.404 . S
C1153 H1165 0.930 . S
C1154 C1150 1.524 . S
C1154 H1166 0.956 . S
C1154 H1167 0.961 . S
C1154 H1168 0.961 . S
C1155 C1152 1.539 . S
C1155 H1169 0.958 . S
C1155 H1170 0.961 . S
C1155 H1171 0.960 . S
H1156 C1140 0.931 . S
H1157 C1145 0.929 . S
H1158 C1146 0.960 . S
H1159 C1146 0.962 . S
H1160 C1146 0.960 . S
H1161 C1147 0.961 . S
H1162 C1147 0.961 . S
H1163 C1147 0.961 . S
H1164 C1148 0.931 . S
H1165 C1153 0.930 . S
H1166 C1154 0.956 . S
H1167 C1154 0.961 . S
H1168 C1154 0.961 . S
H1169 C1155 0.958 . S
H1170 C1155 0.961 . S
H1171 C1155 0.960 . S
C1172 C1173 1.390 . S
C1172 C1174 1.390 . S
C1172 H1188 0.935 1_565 S
C1173 C1172 1.390 . S
C1173 C1177 1.376 . S
C1174 C1172 1.390 . S
C1174 C1175 1.369 . S
C1174 C1178 1.531 . S
C1175 C1174 1.369 . S
C1175 C1176 1.410 . S
C1175 C1183 1.503 . S
C1176 C1175 1.410 . S
C1176 C1177 1.392 . S
C1176 C1179 1.511 . S
C1177 C1173 1.376 . S
C1177 C1176 1.392 . S
C1177 H1189 0.929 . S
C1178 C1174 1.531 . S
C1178 H1190 0.960 . S
C1178 H1191 0.962 . S
C1178 H1192 0.960 1_565 S
C1179 C1176 1.511 . S
C1179 H1193 0.961 . S
C1179 H1194 0.961 . S
C1179 H1195 0.961 . S
C1180 C1181 1.370 . S
C1180 C1182 1.363 . S
C1180 H1196 0.931 . S
C1181 C1180 1.370 . S
C1181 C1185 1.408 . S
C1182 C1180 1.363 . S
C1182 C1183 1.370 . S
C1182 C1186 1.524 . S
C1183 C1175 1.503 . S
C1183 C1182 1.370 . S
C1183 C1184 1.403 . S
C1184 C1183 1.403 . S
C1184 C1185 1.404 . S
C1184 C1187 1.539 . S
C1185 C1181 1.408 . S
C1185 C1184 1.404 . S
C1185 H1197 0.930 . S
C1186 C1182 1.524 . S
C1186 H1198 0.956 . S
C1186 H1199 0.961 . S
C1186 H1200 0.961 . S
C1187 C1184 1.539 . S
C1187 H1201 0.958 . S
C1187 H1202 0.961 . S
C1187 H1203 0.960 . S
H1188 C1172 0.935 1_545 S
H1189 C1177 0.929 . S
H1190 C1178 0.960 . S
H1191 C1178 0.962 . S
H1192 C1178 0.960 1_545 S
H1193 C1179 0.961 . S
H1194 C1179 0.961 . S
H1195 C1179 0.961 . S
H1196 C1180 0.931 . S
H1197 C1185 0.930 . S
H1198 C1186 0.956 . S
H1199 C1186 0.961 . S
H1200 C1186 0.961 . S
H1201 C1187 0.958 . S
H1202 C1187 0.961 . S
H1203 C1187 0.960 . S
C1204 C1205 1.391 . S
C1204 C1206 1.394 . S
C1204 H1220 0.931 . S
C1205 C1204 1.391 . S
C1205 C1209 1.376 . S
C1206 C1204 1.394 . S
C1206 C1207 1.369 . S
C1206 C1210 1.531 . S
C1207 C1206 1.369 . S
C1207 C1208 1.410 . S
C1207 C1215 1.503 . S
C1208 C1207 1.410 . S
C1208 C1209 1.392 . S
C1208 C1211 1.511 . S
C1209 C1205 1.376 . S
C1209 C1208 1.392 . S
C1209 H1221 0.929 . S
C1210 C1206 1.531 . S
C1210 H1222 0.960 . S
C1210 H1223 0.962 . S
C1210 H1224 0.960 . S
C1211 C1208 1.511 . S
C1211 H1225 0.961 . S
C1211 H1226 0.961 . S
C1211 H1227 0.961 . S
C1212 C1213 1.370 . S
C1212 C1214 1.363 . S
C1212 H1228 0.931 . S
C1213 C1212 1.370 . S
C1213 C1217 1.408 . S
C1214 C1212 1.363 . S
C1214 C1215 1.370 . S
C1214 C1218 1.524 . S
C1215 C1207 1.503 . S
C1215 C1214 1.370 . S
C1215 C1216 1.403 . S
C1216 C1215 1.403 . S
C1216 C1217 1.404 . S
C1216 C1219 1.539 . S
C1217 C1213 1.408 . S
C1217 C1216 1.404 . S
C1217 H1229 0.930 . S
C1218 C1214 1.524 . S
C1218 H1230 0.956 . S
C1218 H1231 0.961 . S
C1218 H1232 0.961 . S
C1219 C1216 1.539 . S
C1219 H1233 0.958 . S
C1219 H1234 0.961 . S
C1219 H1235 0.960 . S
H1220 C1204 0.931 . S
H1221 C1209 0.929 . S
H1222 C1210 0.960 . S
H1223 C1210 0.962 . S
H1224 C1210 0.960 . S
H1225 C1211 0.961 . S
H1226 C1211 0.961 . S
H1227 C1211 0.961 . S
H1228 C1212 0.931 . S
H1229 C1217 0.930 . S
H1230 C1218 0.956 . S
H1231 C1218 0.961 . S
H1232 C1218 0.961 . S
H1233 C1219 0.958 . S
H1234 C1219 0.961 . S
H1235 C1219 0.960 . S
C1236 C1237 1.391 . S
C1236 C1238 1.394 . S
C1236 H1252 0.931 . S
C1237 C1236 1.391 . S
C1237 C1241 1.376 . S
C1238 C1236 1.394 . S
C1238 C1239 1.369 . S
C1238 C1242 1.531 . S
C1239 C1238 1.369 . S
C1239 C1240 1.410 . S
C1239 C1247 1.503 . S
C1240 C1239 1.410 . S
C1240 C1241 1.392 . S
C1240 C1243 1.511 . S
C1241 C1237 1.376 . S
C1241 C1240 1.392 . S
C1241 H1253 0.929 . S
C1242 C1238 1.531 . S
C1242 H1254 0.960 . S
C1242 H1255 0.962 . S
C1242 H1256 0.960 . S
C1243 C1240 1.511 . S
C1243 H1257 0.961 . S
C1243 H1258 0.961 . S
C1243 H1259 0.961 . S
C1244 C1245 1.370 . S
C1244 C1246 1.363 . S
C1244 H1260 0.931 . S
C1245 C1244 1.370 . S
C1245 C1249 1.408 . S
C1246 C1244 1.363 . S
C1246 C1247 1.370 . S
C1246 C1250 1.524 . S
C1247 C1239 1.503 . S
C1247 C1246 1.370 . S
C1247 C1248 1.403 . S
C1248 C1247 1.403 . S
C1248 C1249 1.404 . S
C1248 C1251 1.539 . S
C1249 C1245 1.408 . S
C1249 C1248 1.404 . S
C1249 H1261 0.930 . S
C1250 C1246 1.524 . S
C1250 H1262 0.956 . S
C1250 H1263 0.961 . S
C1250 H1264 0.961 . S
C1251 C1248 1.539 . S
C1251 H1265 0.958 . S
C1251 H1266 0.961 . S
C1251 H1267 0.960 . S
H1252 C1236 0.931 . S
H1253 C1241 0.929 . S
H1254 C1242 0.960 . S
H1255 C1242 0.962 . S
H1256 C1242 0.960 . S
H1257 C1243 0.961 . S
H1258 C1243 0.961 . S
H1259 C1243 0.961 . S
H1260 C1244 0.931 . S
H1261 C1249 0.930 . S
H1262 C1250 0.956 . S
H1263 C1250 0.961 . S
H1264 C1250 0.961 . S
H1265 C1251 0.958 . S
H1266 C1251 0.961 . S
H1267 C1251 0.960 . S
C1268 C1269 1.391 . S
C1268 C1270 1.394 . S
C1268 H1284 0.931 . S
C1269 C1268 1.391 . S
C1269 C1273 1.376 . S
C1270 C1268 1.394 . S
C1270 C1271 1.369 . S
C1270 C1274 1.531 . S
C1271 C1270 1.369 . S
C1271 C1272 1.410 . S
C1271 C1279 1.503 . S
C1272 C1271 1.410 . S
C1272 C1273 1.392 . S
C1272 C1275 1.511 . S
C1273 C1269 1.376 . S
C1273 C1272 1.392 . S
C1273 H1285 0.929 . S
C1274 C1270 1.531 . S
C1274 H1286 0.960 . S
C1274 H1287 0.962 . S
C1274 H1288 0.960 . S
C1275 C1272 1.511 . S
C1275 H1289 0.961 . S
C1275 H1290 0.961 . S
C1275 H1291 0.961 . S
C1276 C1277 1.370 . S
C1276 C1278 1.363 . S
C1276 H1292 0.931 . S
C1277 C1276 1.370 . S
C1277 C1281 1.408 . S
C1278 C1276 1.363 . S
C1278 C1279 1.370 . S
C1278 C1282 1.524 . S
C1279 C1271 1.503 . S
C1279 C1278 1.370 . S
C1279 C1280 1.403 . S
C1280 C1279 1.403 . S
C1280 C1281 1.404 . S
C1280 C1283 1.539 . S
C1281 C1277 1.408 . S
C1281 C1280 1.404 . S
C1281 H1293 0.930 . S
C1282 C1278 1.524 . S
C1282 H1294 0.956 . S
C1282 H1295 0.961 . S
C1282 H1296 0.961 . S
C1283 C1280 1.539 . S
C1283 H1297 0.958 . S
C1283 H1298 0.961 . S
C1283 H1299 0.960 . S
H1284 C1268 0.931 . S
H1285 C1273 0.929 . S
H1286 C1274 0.960 . S
H1287 C1274 0.962 . S
H1288 C1274 0.960 . S
H1289 C1275 0.961 . S
H1290 C1275 0.961 . S
H1291 C1275 0.961 . S
H1292 C1276 0.931 . S
H1293 C1281 0.930 . S
H1294 C1282 0.956 . S
H1295 C1282 0.961 . S
H1296 C1282 0.961 . S
H1297 C1283 0.958 . S
H1298 C1283 0.961 . S
H1299 C1283 0.960 . S
C1300 C1301 1.391 . S
C1300 C1302 1.394 . S
C1300 H1316 0.931 . S
C1301 C1300 1.391 . S
C1301 C1305 1.376 . S
C1302 C1300 1.394 . S
C1302 C1303 1.369 . S
C1302 C1306 1.531 . S
C1303 C1302 1.369 . S
C1303 C1304 1.410 . S
C1303 C1311 1.503 . S
C1304 C1303 1.410 . S
C1304 C1305 1.392 . S
C1304 C1307 1.511 . S
C1305 C1301 1.376 . S
C1305 C1304 1.392 . S
C1305 H1317 0.929 . S
C1306 C1302 1.531 . S
C1306 H1318 0.960 . S
C1306 H1319 0.962 . S
C1306 H1320 0.960 . S
C1307 C1304 1.511 . S
C1307 H1321 0.961 . S
C1307 H1322 0.961 . S
C1307 H1323 0.961 . S
C1308 C1309 1.370 . S
C1308 C1310 1.363 . S
C1308 H1324 0.931 . S
C1309 C1308 1.370 . S
C1309 C1313 1.408 . S
C1310 C1308 1.363 . S
C1310 C1311 1.370 . S
C1310 C1314 1.524 . S
C1311 C1303 1.503 . S
C1311 C1310 1.370 . S
C1311 C1312 1.403 . S
C1312 C1311 1.403 . S
C1312 C1313 1.404 . S
C1312 C1315 1.539 . S
C1313 C1309 1.408 . S
C1313 C1312 1.404 . S
C1313 H1325 0.930 . S
C1314 C1310 1.524 . S
C1314 H1326 0.956 . S
C1314 H1327 0.961 . S
C1314 H1328 0.961 . S
C1315 C1312 1.539 . S
C1315 H1329 0.958 . S
C1315 H1330 0.961 . S
C1315 H1331 0.960 . S
H1316 C1300 0.931 . S
H1317 C1305 0.929 . S
H1318 C1306 0.960 . S
H1319 C1306 0.962 . S
H1320 C1306 0.960 . S
H1321 C1307 0.961 . S
H1322 C1307 0.961 . S
H1323 C1307 0.961 . S
H1324 C1308 0.931 . S
H1325 C1313 0.930 . S
H1326 C1314 0.956 . S
H1327 C1314 0.961 . S
H1328 C1314 0.961 . S
H1329 C1315 0.958 . S
H1330 C1315 0.961 . S
H1331 C1315 0.960 . S
C1332 C1333 1.381 1_565 S
C1332 C1334 1.394 1_554 S
C1332 H1348 0.931 . S
C1333 C1332 1.381 1_545 S
C1333 C1337 1.369 1_545 S
C1334 C1332 1.394 1_556 S
C1334 C1335 1.369 . S
C1334 C1338 1.531 . S
C1335 C1334 1.369 . S
C1335 C1336 1.410 1_556 S
C1335 C1343 1.503 . S
C1336 C1335 1.410 1_554 S
C1336 C1337 1.392 . S
C1336 C1339 1.511 . S
C1337 C1333 1.369 1_565 S
C1337 C1336 1.392 . S
C1337 H1349 0.929 1_565 S
C1338 C1334 1.531 . S
C1338 H1350 0.960 . S
C1338 H1351 0.962 . S
C1338 H1352 0.960 . S
C1339 C1336 1.511 . S
C1339 H1353 0.961 . S
C1339 H1354 0.961 1_554 S
C1339 H1355 0.961 . S
C1340 C1341 1.370 . S
C1340 C1342 1.363 . S
C1340 H1356 0.931 . S
C1341 C1340 1.370 . S
C1341 C1345 1.408 . S
C1342 C1340 1.363 . S
C1342 C1343 1.370 . S
C1342 C1346 1.524 . S
C1343 C1335 1.503 . S
C1343 C1342 1.370 . S
C1343 C1344 1.403 . S
C1344 C1343 1.403 . S
C1344 C1345 1.404 . S
C1344 C1347 1.539 1_556 S
C1345 C1341 1.408 . S
C1345 C1344 1.404 . S
C1345 H1357 0.930 . S
C1346 C1342 1.524 . S
C1346 H1358 0.956 . S
C1346 H1359 0.961 . S
C1346 H1360 0.961 . S
C1347 C1344 1.539 1_554 S
C1347 H1361 0.958 . S
C1347 H1362 0.961 . S
C1347 H1363 0.960 . S
H1348 C1332 0.931 . S
H1349 C1337 0.929 1_545 S
H1350 C1338 0.960 . S
H1351 C1338 0.962 . S
H1352 C1338 0.960 . S
H1353 C1339 0.961 . S
H1354 C1339 0.961 1_556 S
H1355 C1339 0.961 . S
H1356 C1340 0.931 . S
H1357 C1345 0.930 . S
H1358 C1346 0.956 . S
H1359 C1346 0.961 . S
H1360 C1346 0.961 . S
H1361 C1347 0.958 . S
H1362 C1347 0.961 . S
H1363 C1347 0.960 . S
C1364 C1365 1.391 . S
C1364 C1366 1.394 . S
C1364 H1380 0.931 1_556 S
C1365 C1364 1.391 . S
C1365 C1369 1.376 . S
C1366 C1364 1.394 . S
C1366 C1367 1.369 . S
C1366 C1370 1.531 . S
C1367 C1366 1.369 . S
C1367 C1368 1.410 . S
C1367 C1375 1.503 . S
C1368 C1367 1.410 . S
C1368 C1369 1.392 . S
C1368 C1371 1.511 . S
C1369 C1365 1.376 . S
C1369 C1368 1.392 . S
C1369 H1381 0.929 . S
C1370 C1366 1.531 . S
C1370 H1382 0.960 . S
C1370 H1383 0.962 . S
C1370 H1384 0.960 . S
C1371 C1368 1.511 . S
C1371 H1385 0.961 . S
C1371 H1386 0.961 . S
C1371 H1387 0.961 . S
C1372 C1373 1.370 . S
C1372 C1374 1.363 . S
C1372 H1388 0.931 . S
C1373 C1372 1.370 . S
C1373 C1377 1.408 . S
C1374 C1372 1.363 . S
C1374 C1375 1.370 . S
C1374 C1378 1.524 . S
C1375 C1367 1.503 . S
C1375 C1374 1.370 . S
C1375 C1376 1.403 . S
C1376 C1375 1.403 . S
C1376 C1377 1.404 . S
C1376 C1379 1.539 . S
C1377 C1373 1.408 . S
C1377 C1376 1.404 . S
C1377 H1389 0.930 . S
C1378 C1374 1.524 . S
C1378 H1390 0.956 . S
C1378 H1391 0.961 . S
C1378 H1392 0.961 . S
C1379 C1376 1.539 . S
C1379 H1393 0.958 . S
C1379 H1394 0.961 . S
C1379 H1395 0.960 . S
H1380 C1364 0.931 1_554 S
H1381 C1369 0.929 . S
H1382 C1370 0.960 . S
H1383 C1370 0.962 . S
H1384 C1370 0.960 . S
H1385 C1371 0.961 . S
H1386 C1371 0.961 . S
H1387 C1371 0.961 . S
H1388 C1372 0.931 . S
H1389 C1377 0.930 . S
H1390 C1378 0.956 . S
H1391 C1378 0.961 . S
H1392 C1378 0.961 . S
H1393 C1379 0.958 . S
H1394 C1379 0.961 . S
H1395 C1379 0.960 . S
C1396 C1397 1.391 . S
C1396 C1398 1.394 . S
C1396 H1412 0.931 . S
C1397 C1396 1.391 . S
C1397 C1401 1.376 . S
C1398 C1396 1.394 . S
C1398 C1399 1.369 . S
C1398 C1402 1.531 . S
C1399 C1398 1.369 . S
C1399 C1400 1.410 . S
C1399 C1407 1.503 . S
C1400 C1399 1.410 . S
C1400 C1401 1.392 . S
C1400 C1403 1.511 . S
C1401 C1397 1.376 . S
C1401 C1400 1.392 . S
C1401 H1413 0.929 . S
C1402 C1398 1.531 . S
C1402 H1414 0.960 . S
C1402 H1415 0.962 . S
C1402 H1416 0.960 . S
C1403 C1400 1.511 . S
C1403 H1417 0.961 . S
C1403 H1418 0.961 . S
C1403 H1419 0.961 . S
C1404 C1405 1.370 . S
C1404 C1406 1.363 . S
C1404 H1420 0.931 . S
C1405 C1404 1.370 . S
C1405 C1409 1.408 . S
C1406 C1404 1.363 . S
C1406 C1407 1.370 . S
C1406 C1410 1.524 . S
C1407 C1399 1.503 . S
C1407 C1406 1.370 . S
C1407 C1408 1.403 . S
C1408 C1407 1.403 . S
C1408 C1409 1.404 . S
C1408 C1411 1.539 . S
C1409 C1405 1.408 . S
C1409 C1408 1.404 . S
C1409 H1421 0.930 . S
C1410 C1406 1.524 . S
C1410 H1422 0.956 . S
C1410 H1423 0.961 . S
C1410 H1424 0.961 . S
C1411 C1408 1.539 . S
C1411 H1425 0.958 . S
C1411 H1426 0.961 . S
C1411 H1427 0.960 . S
H1412 C1396 0.931 . S
H1413 C1401 0.929 . S
H1414 C1402 0.960 . S
H1415 C1402 0.962 . S
H1416 C1402 0.960 . S
H1417 C1403 0.961 . S
H1418 C1403 0.961 . S
H1419 C1403 0.961 . S
H1420 C1404 0.931 . S
H1421 C1409 0.930 . S
H1422 C1410 0.956 . S
H1423 C1410 0.961 . S
H1424 C1410 0.961 . S
H1425 C1411 0.958 . S
H1426 C1411 0.961 . S
H1427 C1411 0.960 . S
C1428 C1429 1.391 . S
C1428 C1430 1.394 . S
C1428 H1444 0.931 . S
C1429 C1428 1.391 . S
C1429 C1433 1.376 . S
C1430 C1428 1.394 . S
C1430 C1431 1.369 . S
C1430 C1434 1.531 . S
C1431 C1430 1.369 . S
C1431 C1432 1.410 . S
C1431 C1439 1.503 . S
C1432 C1431 1.410 . S
C1432 C1433 1.392 . S
C1432 C1435 1.511 . S
C1433 C1429 1.376 . S
C1433 C1432 1.392 . S
C1433 H1445 0.929 . S
C1434 C1430 1.531 . S
C1434 H1446 0.960 . S
C1434 H1447 0.962 . S
C1434 H1448 0.960 . S
C1435 C1432 1.511 . S
C1435 H1449 0.961 . S
C1435 H1450 0.961 . S
C1435 H1451 0.961 . S
C1436 C1437 1.370 . S
C1436 C1438 1.363 . S
C1436 H1452 0.931 . S
C1437 C1436 1.370 . S
C1437 C1441 1.408 . S
C1438 C1436 1.363 . S
C1438 C1439 1.370 . S
C1438 C1442 1.524 . S
C1439 C1431 1.503 . S
C1439 C1438 1.370 . S
C1439 C1440 1.403 . S
C1440 C1439 1.403 . S
C1440 C1441 1.404 . S
C1440 C1443 1.539 . S
C1441 C1437 1.408 . S
C1441 C1440 1.404 . S
C1441 H1453 0.930 . S
C1442 C1438 1.524 . S
C1442 H1454 0.956 . S
C1442 H1455 0.961 . S
C1442 H1456 0.961 . S
C1443 C1440 1.539 . S
C1443 H1457 0.958 . S
C1443 H1458 0.961 . S
C1443 H1459 0.960 . S
H1444 C1428 0.931 . S
H1445 C1433 0.929 . S
H1446 C1434 0.960 . S
H1447 C1434 0.962 . S
H1448 C1434 0.960 . S
H1449 C1435 0.961 . S
H1450 C1435 0.961 . S
H1451 C1435 0.961 . S
H1452 C1436 0.931 . S
H1453 C1441 0.930 . S
H1454 C1442 0.956 . S
H1455 C1442 0.961 . S
H1456 C1442 0.961 . S
H1457 C1443 0.958 . S
H1458 C1443 0.961 . S
H1459 C1443 0.960 . S
C1460 C1461 1.391 . S
C1460 C1462 1.394 . S
C1460 H1476 0.931 . S
C1461 C1460 1.391 . S
C1461 C1465 1.376 . S
C1462 C1460 1.394 . S
C1462 C1463 1.369 . S
C1462 C1466 1.531 . S
C1463 C1462 1.369 . S
C1463 C1464 1.410 . S
C1463 C1471 1.503 . S
C1464 C1463 1.410 . S
C1464 C1465 1.392 . S
C1464 C1467 1.511 . S
C1465 C1461 1.376 . S
C1465 C1464 1.392 . S
C1465 H1477 0.929 . S
C1466 C1462 1.531 . S
C1466 H1478 0.960 . S
C1466 H1479 0.962 . S
C1466 H1480 0.960 . S
C1467 C1464 1.511 . S
C1467 H1481 0.961 . S
C1467 H1482 0.961 . S
C1467 H1483 0.961 . S
C1468 C1469 1.370 . S
C1468 C1470 1.363 . S
C1468 H1484 0.931 . S
C1469 C1468 1.370 . S
C1469 C1473 1.408 . S
C1470 C1468 1.363 . S
C1470 C1471 1.370 . S
C1470 C1474 1.524 . S
C1471 C1463 1.503 . S
C1471 C1470 1.370 . S
C1471 C1472 1.403 . S
C1472 C1471 1.403 . S
C1472 C1473 1.404 . S
C1472 C1475 1.539 . S
C1473 C1469 1.408 . S
C1473 C1472 1.404 . S
C1473 H1485 0.930 . S
C1474 C1470 1.524 . S
C1474 H1486 0.956 . S
C1474 H1487 0.961 . S
C1474 H1488 0.961 . S
C1475 C1472 1.539 . S
C1475 H1489 0.958 . S
C1475 H1490 0.961 . S
C1475 H1491 0.960 . S
H1476 C1460 0.931 . S
H1477 C1465 0.929 . S
H1478 C1466 0.960 . S
H1479 C1466 0.962 . S
H1480 C1466 0.960 . S
H1481 C1467 0.961 . S
H1482 C1467 0.961 . S
H1483 C1467 0.961 . S
H1484 C1468 0.931 . S
H1485 C1473 0.930 . S
H1486 C1474 0.956 . S
H1487 C1474 0.961 . S
H1488 C1474 0.961 . S
H1489 C1475 0.958 . S
H1490 C1475 0.961 . S
H1491 C1475 0.960 . S
C1492 C1493 1.391 . S
C1492 C1494 1.394 . S
C1492 H1508 0.931 . S
C1493 C1492 1.391 . S
C1493 C1497 1.376 . S
C1494 C1492 1.394 . S
C1494 C1495 1.369 . S
C1494 C1498 1.531 . S
C1495 C1494 1.369 . S
C1495 C1496 1.410 . S
C1495 C1503 1.503 . S
C1496 C1495 1.410 . S
C1496 C1497 1.392 . S
C1496 C1499 1.511 . S
C1497 C1493 1.376 . S
C1497 C1496 1.392 . S
C1497 H1509 0.929 . S
C1498 C1494 1.531 . S
C1498 H1510 0.960 . S
C1498 H1511 0.962 . S
C1498 H1512 0.960 . S
C1499 C1496 1.511 . S
C1499 H1513 0.961 . S
C1499 H1514 0.961 . S
C1499 H1515 0.961 . S
C1500 C1501 1.370 . S
C1500 C1502 1.363 . S
C1500 H1516 0.931 . S
C1501 C1500 1.370 . S
C1501 C1505 1.408 . S
C1502 C1500 1.363 . S
C1502 C1503 1.370 . S
C1502 C1506 1.524 . S
C1503 C1495 1.503 . S
C1503 C1502 1.370 . S
C1503 C1504 1.403 . S
C1504 C1503 1.403 . S
C1504 C1505 1.404 . S
C1504 C1507 1.539 . S
C1505 C1501 1.408 . S
C1505 C1504 1.404 . S
C1505 H1517 0.930 . S
C1506 C1502 1.524 . S
C1506 H1518 0.956 . S
C1506 H1519 0.961 . S
C1506 H1520 0.961 . S
C1507 C1504 1.539 . S
C1507 H1521 0.958 . S
C1507 H1522 0.961 . S
C1507 H1523 0.960 . S
H1508 C1492 0.931 . S
H1509 C1497 0.929 . S
H1510 C1498 0.960 . S
H1511 C1498 0.962 . S
H1512 C1498 0.960 . S
H1513 C1499 0.961 . S
H1514 C1499 0.961 . S
H1515 C1499 0.961 . S
H1516 C1500 0.931 . S
H1517 C1505 0.930 . S
H1518 C1506 0.956 . S
H1519 C1506 0.961 . S
H1520 C1506 0.961 . S
H1521 C1507 0.958 . S
H1522 C1507 0.961 . S
H1523 C1507 0.960 . S
C1524 C1525 1.391 . S
C1524 C1526 1.394 1_554 S
C1524 H1540 0.931 . S
C1525 C1524 1.391 . S
C1525 C1529 1.376 . S
C1526 C1524 1.394 1_556 S
C1526 C1527 1.369 . S
C1526 C1530 1.531 . S
C1527 C1526 1.369 . S
C1527 C1528 1.410 . S
C1527 C1535 1.503 . S
C1528 C1527 1.410 . S
C1528 C1529 1.392 1_556 S
C1528 C1531 1.511 . S
C1529 C1525 1.376 . S
C1529 C1528 1.392 1_554 S
C1529 H1541 0.929 . S
C1530 C1526 1.531 . S
C1530 H1542 0.960 . S
C1530 H1543 0.962 . S
C1530 H1544 0.960 . S
C1531 C1528 1.511 . S
C1531 H1545 0.961 . S
C1531 H1546 0.961 . S
C1531 H1547 0.961 . S
C1532 C1533 1.370 . S
C1532 C1534 1.363 . S
C1532 H1548 0.931 . S
C1533 C1532 1.370 . S
C1533 C1537 1.408 . S
C1534 C1532 1.363 . S
C1534 C1535 1.370 . S
C1534 C1538 1.524 . S
C1535 C1527 1.503 . S
C1535 C1534 1.370 . S
C1535 C1536 1.403 . S
C1536 C1535 1.403 . S
C1536 C1537 1.404 . S
C1536 C1539 1.539 . S
C1537 C1533 1.408 . S
C1537 C1536 1.404 . S
C1537 H1549 0.930 . S
C1538 C1534 1.524 . S
C1538 H1550 0.956 . S
C1538 H1551 0.961 . S
C1538 H1552 0.961 . S
C1539 C1536 1.539 . S
C1539 H1553 0.958 . S
C1539 H1554 0.961 . S
C1539 H1555 0.960 . S
H1540 C1524 0.931 . S
H1541 C1529 0.929 . S
H1542 C1530 0.960 . S
H1543 C1530 0.962 . S
H1544 C1530 0.960 . S
H1545 C1531 0.961 . S
H1546 C1531 0.961 . S
H1547 C1531 0.961 . S
H1548 C1532 0.931 . S
H1549 C1537 0.930 . S
H1550 C1538 0.956 . S
H1551 C1538 0.961 . S
H1552 C1538 0.961 . S
H1553 C1539 0.958 . S
H1554 C1539 0.961 . S
H1555 C1539 0.960 . S
C1556 C1557 1.391 1_456 S
C1556 C1558 1.394 1_455 S
C1556 H1572 0.931 . S
C1557 C1556 1.391 1_654 S
C1557 C1561 1.376 . S
C1558 C1556 1.394 1_655 S
C1558 C1559 1.369 . S
C1558 C1562 1.531 . S
C1559 C1558 1.369 . S
C1559 C1560 1.410 1_556 S
C1559 C1567 1.503 . S
C1560 C1559 1.410 1_554 S
C1560 C1561 1.392 . S
C1560 C1563 1.511 . S
C1561 C1557 1.376 . S
C1561 C1560 1.392 . S
C1561 H1573 0.929 . S
C1562 C1558 1.531 . S
C1562 H1574 0.960 . S
C1562 H1575 0.962 . S
C1562 H1576 0.960 1_655 S
C1563 C1560 1.511 . S
C1563 H1577 0.961 . S
C1563 H1578 0.961 . S
C1563 H1579 0.961 . S
C1564 C1565 1.370 . S
C1564 C1566 1.363 . S
C1564 H1580 0.931 . S
C1565 C1564 1.370 . S
C1565 C1569 1.408 . S
C1566 C1564 1.363 . S
C1566 C1567 1.370 . S
C1566 C1570 1.524 . S
C1567 C1559 1.503 . S
C1567 C1566 1.370 . S
C1567 C1568 1.403 . S
C1568 C1567 1.403 . S
C1568 C1569 1.404 . S
C1568 C1571 1.539 . S
C1569 C1565 1.408 . S
C1569 C1568 1.404 . S
C1569 H1581 0.930 . S
C1570 C1566 1.524 . S
C1570 H1582 0.956 . S
C1570 H1583 0.961 . S
C1570 H1584 0.961 . S
C1571 C1568 1.539 . S
C1571 H1585 0.958 . S
C1571 H1586 0.961 . S
C1571 H1587 0.960 . S
H1572 C1556 0.931 . S
H1573 C1561 0.929 . S
H1574 C1562 0.960 . S
H1575 C1562 0.962 . S
H1576 C1562 0.960 1_455 S
H1577 C1563 0.961 . S
H1578 C1563 0.961 . S
H1579 C1563 0.961 . S
H1580 C1564 0.931 . S
H1581 C1569 0.930 . S
H1582 C1570 0.956 . S
H1583 C1570 0.961 . S
H1584 C1570 0.961 . S
H1585 C1571 0.958 . S
H1586 C1571 0.961 . S
H1587 C1571 0.960 . S
C1588 C1589 1.391 . S
C1588 C1590 1.394 . S
C1588 H1604 0.931 . S
C1589 C1588 1.391 . S
C1589 C1593 1.376 . S
C1590 C1588 1.394 . S
C1590 C1591 1.369 . S
C1590 C1594 1.531 . S
C1591 C1590 1.369 . S
C1591 C1592 1.410 . S
C1591 C1599 1.503 . S
C1592 C1591 1.410 . S
C1592 C1593 1.392 . S
C1592 C1595 1.511 . S
C1593 C1589 1.376 . S
C1593 C1592 1.392 . S
C1593 H1605 0.929 . S
C1594 C1590 1.531 . S
C1594 H1606 0.960 . S
C1594 H1607 0.962 . S
C1594 H1608 0.960 . S
C1595 C1592 1.511 . S
C1595 H1609 0.961 . S
C1595 H1610 0.961 . S
C1595 H1611 0.961 . S
C1596 C1597 1.370 . S
C1596 C1598 1.363 . S
C1596 H1612 0.931 . S
C1597 C1596 1.370 . S
C1597 C1601 1.408 . S
C1598 C1596 1.363 . S
C1598 C1599 1.370 . S
C1598 C1602 1.524 . S
C1599 C1591 1.503 . S
C1599 C1598 1.370 . S
C1599 C1600 1.403 . S
C1600 C1599 1.403 . S
C1600 C1601 1.404 . S
C1600 C1603 1.539 . S
C1601 C1597 1.408 . S
C1601 C1600 1.404 . S
C1601 H1613 0.930 . S
C1602 C1598 1.524 . S
C1602 H1614 0.956 . S
C1602 H1615 0.961 . S
C1602 H1616 0.961 . S
C1603 C1600 1.539 . S
C1603 H1617 0.958 . S
C1603 H1618 0.961 . S
C1603 H1619 0.960 . S
H1604 C1588 0.931 . S
H1605 C1593 0.929 . S
H1606 C1594 0.960 . S
H1607 C1594 0.962 . S
H1608 C1594 0.960 . S
H1609 C1595 0.961 . S
H1610 C1595 0.961 . S
H1611 C1595 0.961 . S
H1612 C1596 0.931 . S
H1613 C1601 0.930 . S
H1614 C1602 0.956 . S
H1615 C1602 0.961 . S
H1616 C1602 0.961 . S
H1617 C1603 0.958 . S
H1618 C1603 0.961 . S
H1619 C1603 0.960 . S
C1620 C1621 1.391 . S
C1620 C1622 1.394 . S
C1620 H1636 0.931 . S
C1621 C1620 1.391 . S
C1621 C1625 1.376 . S
C1622 C1620 1.394 . S
C1622 C1623 1.369 . S
C1622 C1626 1.531 . S
C1623 C1622 1.369 . S
C1623 C1624 1.410 . S
C1623 C1631 1.503 . S
C1624 C1623 1.410 . S
C1624 C1625 1.392 . S
C1624 C1627 1.511 . S
C1625 C1621 1.376 . S
C1625 C1624 1.392 . S
C1625 H1637 0.929 . S
C1626 C1622 1.531 . S
C1626 H1638 0.960 . S
C1626 H1639 0.962 . S
C1626 H1640 0.960 . S
C1627 C1624 1.511 . S
C1627 H1641 0.961 . S
C1627 H1642 0.961 . S
C1627 H1643 0.961 . S
C1628 C1629 1.370 . S
C1628 C1630 1.363 . S
C1628 H1644 0.931 . S
C1629 C1628 1.370 . S
C1629 C1633 1.408 . S
C1630 C1628 1.363 . S
C1630 C1631 1.370 . S
C1630 C1634 1.524 . S
C1631 C1623 1.503 . S
C1631 C1630 1.370 . S
C1631 C1632 1.403 . S
C1632 C1631 1.403 . S
C1632 C1633 1.404 . S
C1632 C1635 1.539 . S
C1633 C1629 1.408 . S
C1633 C1632 1.404 . S
C1633 H1645 0.930 . S
C1634 C1630 1.524 . S
C1634 H1646 0.956 . S
C1634 H1647 0.961 . S
C1634 H1648 0.961 . S
C1635 C1632 1.539 . S
C1635 H1649 0.958 . S
C1635 H1650 0.961 . S
C1635 H1651 0.960 . S
H1636 C1620 0.931 . S
H1637 C1625 0.929 . S
H1638 C1626 0.960 . S
H1639 C1626 0.962 . S
H1640 C1626 0.960 . S
H1641 C1627 0.961 . S
H1642 C1627 0.961 . S
H1643 C1627 0.961 . S
H1644 C1628 0.931 . S
H1645 C1633 0.930 . S
H1646 C1634 0.956 . S
H1647 C1634 0.961 . S
H1648 C1634 0.961 . S
H1649 C1635 0.958 . S
H1650 C1635 0.961 . S
H1651 C1635 0.960 . S
C1652 C1653 1.390 1_565 S
C1652 C1654 1.394 . S
C1652 H1668 0.931 . S
C1653 C1652 1.390 1_545 S
C1653 C1657 1.376 1_545 S
C1654 C1652 1.394 . S
C1654 C1655 1.369 . S
C1654 C1658 1.531 . S
C1655 C1654 1.369 . S
C1655 C1656 1.410 . S
C1655 C1663 1.503 . S
C1656 C1655 1.410 . S
C1656 C1657 1.392 . S
C1656 C1659 1.511 . S
C1657 C1653 1.376 1_565 S
C1657 C1656 1.392 . S
C1657 H1669 0.929 1_565 S
C1658 C1654 1.531 . S
C1658 H1670 0.960 . S
C1658 H1671 0.962 . S
C1658 H1672 0.960 . S
C1659 C1656 1.511 . S
C1659 H1673 0.961 . S
C1659 H1674 0.961 . S
C1659 H1675 0.961 . S
C1660 C1661 1.370 . S
C1660 C1662 1.363 . S
C1660 H1676 0.931 . S
C1661 C1660 1.370 . S
C1661 C1665 1.408 . S
C1662 C1660 1.363 . S
C1662 C1663 1.370 . S
C1662 C1666 1.524 . S
C1663 C1655 1.503 . S
C1663 C1662 1.370 . S
C1663 C1664 1.403 . S
C1664 C1663 1.403 . S
C1664 C1665 1.404 . S
C1664 C1667 1.539 . S
C1665 C1661 1.408 . S
C1665 C1664 1.404 . S
C1665 H1677 0.930 . S
C1666 C1662 1.524 . S
C1666 H1678 0.956 . S
C1666 H1679 0.961 . S
C1666 H1680 0.961 . S
C1667 C1664 1.539 . S
C1667 H1681 0.958 . S
C1667 H1682 0.961 . S
C1667 H1683 0.960 . S
H1668 C1652 0.931 . S
H1669 C1657 0.929 1_545 S
H1670 C1658 0.960 . S
H1671 C1658 0.962 . S
H1672 C1658 0.960 . S
H1673 C1659 0.961 . S
H1674 C1659 0.961 . S
H1675 C1659 0.961 . S
H1676 C1660 0.931 . S
H1677 C1665 0.930 . S
H1678 C1666 0.956 . S
H1679 C1666 0.961 . S
H1680 C1666 0.961 . S
H1681 C1667 0.958 . S
H1682 C1667 0.961 . S
H1683 C1667 0.960 . S
C1684 C1685 1.391 . S
C1684 C1686 1.394 . S
C1684 H1700 0.931 . S
C1685 C1684 1.391 . S
C1685 C1689 1.376 . S
C1686 C1684 1.394 . S
C1686 C1687 1.369 . S
C1686 C1690 1.531 . S
C1687 C1686 1.369 . S
C1687 C1688 1.410 . S
C1687 C1695 1.503 . S
C1688 C1687 1.410 . S
C1688 C1689 1.392 . S
C1688 C1691 1.511 . S
C1689 C1685 1.376 . S
C1689 C1688 1.392 . S
C1689 H1701 0.929 . S
C1690 C1686 1.531 . S
C1690 H1702 0.960 . S
C1690 H1703 0.962 . S
C1690 H1704 0.960 . S
C1691 C1688 1.511 . S
C1691 H1705 0.961 . S
C1691 H1706 0.961 . S
C1691 H1707 0.961 . S
C1692 C1693 1.370 . S
C1692 C1694 1.363 . S
C1692 H1708 0.931 . S
C1693 C1692 1.370 . S
C1693 C1697 1.408 . S
C1694 C1692 1.363 . S
C1694 C1695 1.370 . S
C1694 C1698 1.524 . S
C1695 C1687 1.503 . S
C1695 C1694 1.370 . S
C1695 C1696 1.403 . S
C1696 C1695 1.403 . S
C1696 C1697 1.404 . S
C1696 C1699 1.539 . S
C1697 C1693 1.408 . S
C1697 C1696 1.404 . S
C1697 H1709 0.930 . S
C1698 C1694 1.524 . S
C1698 H1710 0.956 . S
C1698 H1711 0.961 . S
C1698 H1712 0.961 . S
C1699 C1696 1.539 . S
C1699 H1713 0.958 . S
C1699 H1714 0.961 . S
C1699 H1715 0.960 . S
H1700 C1684 0.931 . S
H1701 C1689 0.929 . S
H1702 C1690 0.960 . S
H1703 C1690 0.962 . S
H1704 C1690 0.960 . S
H1705 C1691 0.961 . S
H1706 C1691 0.961 . S
H1707 C1691 0.961 . S
H1708 C1692 0.931 . S
H1709 C1697 0.930 . S
H1710 C1698 0.956 . S
H1711 C1698 0.961 . S
H1712 C1698 0.961 . S
H1713 C1699 0.958 . S
H1714 C1699 0.961 . S
H1715 C1699 0.960 . S
C1716 C1717 1.391 . S
C1716 C1718 1.394 . S
C1716 H1732 0.931 . S
C1717 C1716 1.391 . S
C1717 C1721 1.376 . S
C1718 C1716 1.394 . S
C1718 C1719 1.369 . S
C1718 C1722 1.531 . S
C1719 C1718 1.369 . S
C1719 C1720 1.410 . S
C1719 C1727 1.503 . S
C1720 C1719 1.410 . S
C1720 C1721 1.392 . S
C1720 C1723 1.511 . S
C1721 C1717 1.376 . S
C1721 C1720 1.392 . S
C1721 H1733 0.929 . S
C1722 C1718 1.531 . S
C1722 H1734 0.960 . S
C1722 H1735 0.962 . S
C1722 H1736 0.960 . S
C1723 C1720 1.511 . S
C1723 H1737 0.961 . S
C1723 H1738 0.961 . S
C1723 H1739 0.961 . S
C1724 C1725 1.370 . S
C1724 C1726 1.363 . S
C1724 H1740 0.931 . S
C1725 C1724 1.370 . S
C1725 C1729 1.408 . S
C1726 C1724 1.363 . S
C1726 C1727 1.370 . S
C1726 C1730 1.524 . S
C1727 C1719 1.503 . S
C1727 C1726 1.370 . S
C1727 C1728 1.403 . S
C1728 C1727 1.403 . S
C1728 C1729 1.404 . S
C1728 C1731 1.539 . S
C1729 C1725 1.408 . S
C1729 C1728 1.404 . S
C1729 H1741 0.930 . S
C1730 C1726 1.524 . S
C1730 H1742 0.956 . S
C1730 H1743 0.961 . S
C1730 H1744 0.961 . S
C1731 C1728 1.539 . S
C1731 H1745 0.958 . S
C1731 H1746 0.961 . S
C1731 H1747 0.960 . S
H1732 C1716 0.931 . S
H1733 C1721 0.929 . S
H1734 C1722 0.960 . S
H1735 C1722 0.962 . S
H1736 C1722 0.960 . S
H1737 C1723 0.961 . S
H1738 C1723 0.961 . S
H1739 C1723 0.961 . S
H1740 C1724 0.931 . S
H1741 C1729 0.930 . S
H1742 C1730 0.956 . S
H1743 C1730 0.961 . S
H1744 C1730 0.961 . S
H1745 C1731 0.958 . S
H1746 C1731 0.961 . S
H1747 C1731 0.960 . S
C1748 C1749 1.391 . S
C1748 C1750 1.394 . S
C1748 H1764 0.931 . S
C1749 C1748 1.391 . S
C1749 C1753 1.376 . S
C1750 C1748 1.394 . S
C1750 C1751 1.369 . S
C1750 C1754 1.531 . S
C1751 C1750 1.369 . S
C1751 C1752 1.410 . S
C1751 C1759 1.503 . S
C1752 C1751 1.410 . S
C1752 C1753 1.392 . S
C1752 C1755 1.511 . S
C1753 C1749 1.376 . S
C1753 C1752 1.392 . S
C1753 H1765 0.929 . S
C1754 C1750 1.531 . S
C1754 H1766 0.960 . S
C1754 H1767 0.962 . S
C1754 H1768 0.960 . S
C1755 C1752 1.511 . S
C1755 H1769 0.961 . S
C1755 H1770 0.961 . S
C1755 H1771 0.961 . S
C1756 C1757 1.370 . S
C1756 C1758 1.363 . S
C1756 H1772 0.931 . S
C1757 C1756 1.370 . S
C1757 C1761 1.408 . S
C1758 C1756 1.363 . S
C1758 C1759 1.370 . S
C1758 C1762 1.524 . S
C1759 C1751 1.503 . S
C1759 C1758 1.370 . S
C1759 C1760 1.403 . S
C1760 C1759 1.403 . S
C1760 C1761 1.404 . S
C1760 C1763 1.539 . S
C1761 C1757 1.408 . S
C1761 C1760 1.404 . S
C1761 H1773 0.930 . S
C1762 C1758 1.524 . S
C1762 H1774 0.956 . S
C1762 H1775 0.961 . S
C1762 H1776 0.961 . S
C1763 C1760 1.539 . S
C1763 H1777 0.958 . S
C1763 H1778 0.961 . S
C1763 H1779 0.960 . S
H1764 C1748 0.931 . S
H1765 C1753 0.929 . S
H1766 C1754 0.960 . S
H1767 C1754 0.962 . S
H1768 C1754 0.960 . S
H1769 C1755 0.961 . S
H1770 C1755 0.961 . S
H1771 C1755 0.961 . S
H1772 C1756 0.931 . S
H1773 C1761 0.930 . S
H1774 C1762 0.956 . S
H1775 C1762 0.961 . S
H1776 C1762 0.961 . S
H1777 C1763 0.958 . S
H1778 C1763 0.961 . S
H1779 C1763 0.960 . S
C1780 C1781 1.391 . S
C1780 C1782 1.394 . S
C1780 H1796 0.931 . S
C1781 C1780 1.391 . S
C1781 C1785 1.376 . S
C1782 C1780 1.394 . S
C1782 C1783 1.369 . S
C1782 C1786 1.531 . S
C1783 C1782 1.369 . S
C1783 C1784 1.410 . S
C1783 C1791 1.503 . S
C1784 C1783 1.410 . S
C1784 C1785 1.392 . S
C1784 C1787 1.511 . S
C1785 C1781 1.376 . S
C1785 C1784 1.392 . S
C1785 H1797 0.929 . S
C1786 C1782 1.531 . S
C1786 H1798 0.960 . S
C1786 H1799 0.962 . S
C1786 H1800 0.960 . S
C1787 C1784 1.511 . S
C1787 H1801 0.961 . S
C1787 H1802 0.961 . S
C1787 H1803 0.961 . S
C1788 C1789 1.370 . S
C1788 C1790 1.363 . S
C1788 H1804 0.931 . S
C1789 C1788 1.370 . S
C1789 C1793 1.408 . S
C1790 C1788 1.363 . S
C1790 C1791 1.370 . S
C1790 C1794 1.524 . S
C1791 C1783 1.503 . S
C1791 C1790 1.370 . S
C1791 C1792 1.403 . S
C1792 C1791 1.403 . S
C1792 C1793 1.404 . S
C1792 C1795 1.539 . S
C1793 C1789 1.408 . S
C1793 C1792 1.404 . S
C1793 H1805 0.930 . S
C1794 C1790 1.524 . S
C1794 H1806 0.956 . S
C1794 H1807 0.961 . S
C1794 H1808 0.961 . S
C1795 C1792 1.539 . S
C1795 H1809 0.958 . S
C1795 H1810 0.961 . S
C1795 H1811 0.960 . S
H1796 C1780 0.931 . S
H1797 C1785 0.929 . S
H1798 C1786 0.960 . S
H1799 C1786 0.962 . S
H1800 C1786 0.960 . S
H1801 C1787 0.961 . S
H1802 C1787 0.961 . S
H1803 C1787 0.961 . S
H1804 C1788 0.931 . S
H1805 C1793 0.930 . S
H1806 C1794 0.956 . S
H1807 C1794 0.961 . S
H1808 C1794 0.961 . S
H1809 C1795 0.958 . S
H1810 C1795 0.961 . S
H1811 C1795 0.960 . S
C1812 C1813 1.391 . S
C1812 C1814 1.394 . S
C1812 H1828 0.931 . S
C1813 C1812 1.391 . S
C1813 C1817 1.376 . S
C1814 C1812 1.394 . S
C1814 C1815 1.369 . S
C1814 C1818 1.531 . S
C1815 C1814 1.369 . S
C1815 C1816 1.410 . S
C1815 C1823 1.503 . S
C1816 C1815 1.410 . S
C1816 C1817 1.392 . S
C1816 C1819 1.511 . S
C1817 C1813 1.376 . S
C1817 C1816 1.392 . S
C1817 H1829 0.929 . S
C1818 C1814 1.531 . S
C1818 H1830 0.960 . S
C1818 H1831 0.962 . S
C1818 H1832 0.960 . S
C1819 C1816 1.511 . S
C1819 H1833 0.961 . S
C1819 H1834 0.961 . S
C1819 H1835 0.961 . S
C1820 C1821 1.370 . S
C1820 C1822 1.363 . S
C1820 H1836 0.931 . S
C1821 C1820 1.370 . S
C1821 C1825 1.408 . S
C1822 C1820 1.363 . S
C1822 C1823 1.370 . S
C1822 C1826 1.524 . S
C1823 C1815 1.503 . S
C1823 C1822 1.370 . S
C1823 C1824 1.403 . S
C1824 C1823 1.403 . S
C1824 C1825 1.404 . S
C1824 C1827 1.539 . S
C1825 C1821 1.408 . S
C1825 C1824 1.404 . S
C1825 H1837 0.930 . S
C1826 C1822 1.524 . S
C1826 H1838 0.956 . S
C1826 H1839 0.961 . S
C1826 H1840 0.961 . S
C1827 C1824 1.539 . S
C1827 H1841 0.958 . S
C1827 H1842 0.961 . S
C1827 H1843 0.960 . S
H1828 C1812 0.931 . S
H1829 C1817 0.929 . S
H1830 C1818 0.960 . S
H1831 C1818 0.962 . S
H1832 C1818 0.960 . S
H1833 C1819 0.961 . S
H1834 C1819 0.961 . S
H1835 C1819 0.961 . S
H1836 C1820 0.931 . S
H1837 C1825 0.930 . S
H1838 C1826 0.956 . S
H1839 C1826 0.961 . S
H1840 C1826 0.961 . S
H1841 C1827 0.958 . S
H1842 C1827 0.961 . S
H1843 C1827 0.960 . S
C1844 C1845 1.391 . S
C1844 C1846 1.394 . S
C1844 H1860 0.931 . S
C1845 C1844 1.391 . S
C1845 C1849 1.376 . S
C1846 C1844 1.394 . S
C1846 C1847 1.369 . S
C1846 C1850 1.531 . S
C1847 C1846 1.369 . S
C1847 C1848 1.410 . S
C1847 C1855 1.503 . S
C1848 C1847 1.410 . S
C1848 C1849 1.392 . S
C1848 C1851 1.511 . S
C1849 C1845 1.376 . S
C1849 C1848 1.392 . S
C1849 H1861 0.929 . S
C1850 C1846 1.531 . S
C1850 H1862 0.960 . S
C1850 H1863 0.962 . S
C1850 H1864 0.960 . S
C1851 C1848 1.511 . S
C1851 H1865 0.961 . S
C1851 H1866 0.961 . S
C1851 H1867 0.961 . S
C1852 C1853 1.370 . S
C1852 C1854 1.363 . S
C1852 H1868 0.931 . S
C1853 C1852 1.370 . S
C1853 C1857 1.408 . S
C1854 C1852 1.363 . S
C1854 C1855 1.370 . S
C1854 C1858 1.524 . S
C1855 C1847 1.503 . S
C1855 C1854 1.370 . S
C1855 C1856 1.403 . S
C1856 C1855 1.403 . S
C1856 C1857 1.404 . S
C1856 C1859 1.539 . S
C1857 C1853 1.408 . S
C1857 C1856 1.404 . S
C1857 H1869 0.930 . S
C1858 C1854 1.524 . S
C1858 H1870 0.956 . S
C1858 H1871 0.961 . S
C1858 H1872 0.961 . S
C1859 C1856 1.539 . S
C1859 H1873 0.958 . S
C1859 H1874 0.961 . S
C1859 H1875 0.960 . S
H1860 C1844 0.931 . S
H1861 C1849 0.929 . S
H1862 C1850 0.960 . S
H1863 C1850 0.962 . S
H1864 C1850 0.960 . S
H1865 C1851 0.961 . S
H1866 C1851 0.961 . S
H1867 C1851 0.961 . S
H1868 C1852 0.931 . S
H1869 C1857 0.930 . S
H1870 C1858 0.956 . S
H1871 C1858 0.961 . S
H1872 C1858 0.961 . S
H1873 C1859 0.958 . S
H1874 C1859 0.961 . S
H1875 C1859 0.960 . S
C1876 C1877 1.391 . S
C1876 C1878 1.394 . S
C1876 H1892 0.931 . S
C1877 C1876 1.391 . S
C1877 C1881 1.376 . S
C1878 C1876 1.394 . S
C1878 C1879 1.369 . S
C1878 C1882 1.531 . S
C1879 C1878 1.369 . S
C1879 C1880 1.410 . S
C1879 C1887 1.503 . S
C1880 C1879 1.410 . S
C1880 C1881 1.392 . S
C1880 C1883 1.511 . S
C1881 C1877 1.376 . S
C1881 C1880 1.392 . S
C1881 H1893 0.929 . S
C1882 C1878 1.531 . S
C1882 H1894 0.960 . S
C1882 H1895 0.962 . S
C1882 H1896 0.960 . S
C1883 C1880 1.511 . S
C1883 H1897 0.961 . S
C1883 H1898 0.961 . S
C1883 H1899 0.961 . S
C1884 C1885 1.370 . S
C1884 C1886 1.363 . S
C1884 H1900 0.931 . S
C1885 C1884 1.370 . S
C1885 C1889 1.408 . S
C1886 C1884 1.363 . S
C1886 C1887 1.370 . S
C1886 C1890 1.524 . S
C1887 C1879 1.503 . S
C1887 C1886 1.370 . S
C1887 C1888 1.403 . S
C1888 C1887 1.403 . S
C1888 C1889 1.404 . S
C1888 C1891 1.539 . S
C1889 C1885 1.408 . S
C1889 C1888 1.404 . S
C1889 H1901 0.930 . S
C1890 C1886 1.524 . S
C1890 H1902 0.956 . S
C1890 H1903 0.961 . S
C1890 H1904 0.961 . S
C1891 C1888 1.539 . S
C1891 H1905 0.958 . S
C1891 H1906 0.961 . S
C1891 H1907 0.960 . S
H1892 C1876 0.931 . S
H1893 C1881 0.929 . S
H1894 C1882 0.960 . S
H1895 C1882 0.962 . S
H1896 C1882 0.960 . S
H1897 C1883 0.961 . S
H1898 C1883 0.961 . S
H1899 C1883 0.961 . S
H1900 C1884 0.931 . S
H1901 C1889 0.930 . S
H1902 C1890 0.956 . S
H1903 C1890 0.961 . S
H1904 C1890 0.961 . S
H1905 C1891 0.958 . S
H1906 C1891 0.961 . S
H1907 C1891 0.960 . S
C1908 C1909 1.391 . S
C1908 C1910 1.394 . S
C1908 H1924 0.931 . S
C1909 C1908 1.391 . S
C1909 C1913 1.376 . S
C1910 C1908 1.394 . S
C1910 C1911 1.369 . S
C1910 C1914 1.531 . S
C1911 C1910 1.369 . S
C1911 C1912 1.410 . S
C1911 C1919 1.503 . S
C1912 C1911 1.410 . S
C1912 C1913 1.392 . S
C1912 C1915 1.511 . S
C1913 C1909 1.376 . S
C1913 C1912 1.392 . S
C1913 H1925 0.929 . S
C1914 C1910 1.531 . S
C1914 H1926 0.960 . S
C1914 H1927 0.962 . S
C1914 H1928 0.960 . S
C1915 C1912 1.511 . S
C1915 H1929 0.961 . S
C1915 H1930 0.961 . S
C1915 H1931 0.961 . S
C1916 C1917 1.370 . S
C1916 C1918 1.363 . S
C1916 H1932 0.931 . S
C1917 C1916 1.370 . S
C1917 C1921 1.408 . S
C1918 C1916 1.363 . S
C1918 C1919 1.370 . S
C1918 C1922 1.524 . S
C1919 C1911 1.503 . S
C1919 C1918 1.370 . S
C1919 C1920 1.403 . S
C1920 C1919 1.403 . S
C1920 C1921 1.404 . S
C1920 C1923 1.539 . S
C1921 C1917 1.408 . S
C1921 C1920 1.404 . S
C1921 H1933 0.930 . S
C1922 C1918 1.524 . S
C1922 H1934 0.956 . S
C1922 H1935 0.961 . S
C1922 H1936 0.961 . S
C1923 C1920 1.539 . S
C1923 H1937 0.958 . S
C1923 H1938 0.961 . S
C1923 H1939 0.960 . S
H1924 C1908 0.931 . S
H1925 C1913 0.929 . S
H1926 C1914 0.960 . S
H1927 C1914 0.962 . S
H1928 C1914 0.960 . S
H1929 C1915 0.961 . S
H1930 C1915 0.961 . S
H1931 C1915 0.961 . S
H1932 C1916 0.931 . S
H1933 C1921 0.930 . S
H1934 C1922 0.956 . S
H1935 C1922 0.961 . S
H1936 C1922 0.961 . S
H1937 C1923 0.958 . S
H1938 C1923 0.961 . S
H1939 C1923 0.960 . S
C1940 C1941 1.391 . S
C1940 C1942 1.394 . S
C1940 H1956 0.931 . S
C1941 C1940 1.391 . S
C1941 C1945 1.376 . S
C1942 C1940 1.394 . S
C1942 C1943 1.369 . S
C1942 C1946 1.531 . S
C1943 C1942 1.369 . S
C1943 C1944 1.410 . S
C1943 C1951 1.503 . S
C1944 C1943 1.410 . S
C1944 C1945 1.392 . S
C1944 C1947 1.511 . S
C1945 C1941 1.376 . S
C1945 C1944 1.392 . S
C1945 H1957 0.929 . S
C1946 C1942 1.531 . S
C1946 H1958 0.960 . S
C1946 H1959 0.962 . S
C1946 H1960 0.960 . S
C1947 C1944 1.511 . S
C1947 H1961 0.961 . S
C1947 H1962 0.961 . S
C1947 H1963 0.961 . S
C1948 C1949 1.370 . S
C1948 C1950 1.363 . S
C1948 H1964 0.931 . S
C1949 C1948 1.370 . S
C1949 C1953 1.408 . S
C1950 C1948 1.363 . S
C1950 C1951 1.370 . S
C1950 C1954 1.524 . S
C1951 C1943 1.503 . S
C1951 C1950 1.370 . S
C1951 C1952 1.403 . S
C1952 C1951 1.403 . S
C1952 C1953 1.404 . S
C1952 C1955 1.539 . S
C1953 C1949 1.408 . S
C1953 C1952 1.404 . S
C1953 H1965 0.930 . S
C1954 C1950 1.524 . S
C1954 H1966 0.956 . S
C1954 H1967 0.961 . S
C1954 H1968 0.961 . S
C1955 C1952 1.539 . S
C1955 H1969 0.958 . S
C1955 H1970 0.961 . S
C1955 H1971 0.960 . S
H1956 C1940 0.931 . S
H1957 C1945 0.929 . S
H1958 C1946 0.960 . S
H1959 C1946 0.962 . S
H1960 C1946 0.960 . S
H1961 C1947 0.961 . S
H1962 C1947 0.961 . S
H1963 C1947 0.961 . S
H1964 C1948 0.931 . S
H1965 C1953 0.930 . S
H1966 C1954 0.956 . S
H1967 C1954 0.961 . S
H1968 C1954 0.961 . S
H1969 C1955 0.958 . S
H1970 C1955 0.961 . S
H1971 C1955 0.960 . S
C1972 C1973 1.391 . S
C1972 C1974 1.394 . S
C1972 H1988 0.931 . S
C1973 C1972 1.391 . S
C1973 C1977 1.376 . S
C1974 C1972 1.394 . S
C1974 C1975 1.369 . S
C1974 C1978 1.531 . S
C1975 C1974 1.369 . S
C1975 C1976 1.410 . S
C1975 C1983 1.503 . S
C1976 C1975 1.410 . S
C1976 C1977 1.392 . S
C1976 C1979 1.511 . S
C1977 C1973 1.376 . S
C1977 C1976 1.392 . S
C1977 H1989 0.929 . S
C1978 C1974 1.531 . S
C1978 H1990 0.960 . S
C1978 H1991 0.962 . S
C1978 H1992 0.960 . S
C1979 C1976 1.511 . S
C1979 H1993 0.961 . S
C1979 H1994 0.961 . S
C1979 H1995 0.961 . S
C1980 C1981 1.370 . S
C1980 C1982 1.363 . S
C1980 H1996 0.931 . S
C1981 C1980 1.370 . S
C1981 C1985 1.408 . S
C1982 C1980 1.363 . S
C1982 C1983 1.370 . S
C1982 C1986 1.524 . S
C1983 C1975 1.503 . S
C1983 C1982 1.370 . S
C1983 C1984 1.403 . S
C1984 C1983 1.403 . S
C1984 C1985 1.404 . S
C1984 C1987 1.539 . S
C1985 C1981 1.408 . S
C1985 C1984 1.404 . S
C1985 H1997 0.930 . S
C1986 C1982 1.524 . S
C1986 H1998 0.956 . S
C1986 H1999 0.961 . S
C1986 H2000 0.961 . S
C1987 C1984 1.539 . S
C1987 H2001 0.958 . S
C1987 H2002 0.961 . S
C1987 H2003 0.960 . S
H1988 C1972 0.931 . S
H1989 C1977 0.929 . S
H1990 C1978 0.960 . S
H1991 C1978 0.962 . S
H1992 C1978 0.960 . S
H1993 C1979 0.961 . S
H1994 C1979 0.961 . S
H1995 C1979 0.961 . S
H1996 C1980 0.931 . S
H1997 C1985 0.930 . S
H1998 C1986 0.956 . S
H1999 C1986 0.961 . S
H2000 C1986 0.961 . S
H2001 C1987 0.958 . S
H2002 C1987 0.961 . S
H2003 C1987 0.960 . S
C2004 C2005 1.391 . S
C2004 C2006 1.394 . S
C2004 H2020 0.931 . S
C2005 C2004 1.391 . S
C2005 C2009 1.376 . S
C2006 C2004 1.394 . S
C2006 C2007 1.369 . S
C2006 C2010 1.531 . S
C2007 C2006 1.369 . S
C2007 C2008 1.410 . S
C2007 C2015 1.503 . S
C2008 C2007 1.410 . S
C2008 C2009 1.392 . S
C2008 C2011 1.511 . S
C2009 C2005 1.376 . S
C2009 C2008 1.392 . S
C2009 H2021 0.929 . S
C2010 C2006 1.531 . S
C2010 H2022 0.960 . S
C2010 H2023 0.962 . S
C2010 H2024 0.960 . S
C2011 C2008 1.511 . S
C2011 H2025 0.961 . S
C2011 H2026 0.961 . S
C2011 H2027 0.961 . S
C2012 C2013 1.370 . S
C2012 C2014 1.363 . S
C2012 H2028 0.931 . S
C2013 C2012 1.370 . S
C2013 C2017 1.408 . S
C2014 C2012 1.363 . S
C2014 C2015 1.370 . S
C2014 C2018 1.524 . S
C2015 C2007 1.503 . S
C2015 C2014 1.370 . S
C2015 C2016 1.403 . S
C2016 C2015 1.403 . S
C2016 C2017 1.404 . S
C2016 C2019 1.539 . S
C2017 C2013 1.408 . S
C2017 C2016 1.404 . S
C2017 H2029 0.930 . S
C2018 C2014 1.524 . S
C2018 H2030 0.956 . S
C2018 H2031 0.961 . S
C2018 H2032 0.961 . S
C2019 C2016 1.539 . S
C2019 H2033 0.958 . S
C2019 H2034 0.961 . S
C2019 H2035 0.960 . S
H2020 C2004 0.931 . S
H2021 C2009 0.929 . S
H2022 C2010 0.960 . S
H2023 C2010 0.962 . S
H2024 C2010 0.960 . S
H2025 C2011 0.961 . S
H2026 C2011 0.961 . S
H2027 C2011 0.961 . S
H2028 C2012 0.931 . S
H2029 C2017 0.930 . S
H2030 C2018 0.956 . S
H2031 C2018 0.961 . S
H2032 C2018 0.961 . S
H2033 C2019 0.958 . S
H2034 C2019 0.961 . S
H2035 C2019 0.960 . S
C2036 C2037 1.391 . S
C2036 C2038 1.394 . S
C2036 H2052 0.931 . S
C2037 C2036 1.391 . S
C2037 C2041 1.376 . S
C2038 C2036 1.394 . S
C2038 C2039 1.369 . S
C2038 C2042 1.531 . S
C2039 C2038 1.369 . S
C2039 C2040 1.410 . S
C2039 C2047 1.503 . S
C2040 C2039 1.410 . S
C2040 C2041 1.392 . S
C2040 C2043 1.511 . S
C2041 C2037 1.376 . S
C2041 C2040 1.392 . S
C2041 H2053 0.929 . S
C2042 C2038 1.531 . S
C2042 H2054 0.960 . S
C2042 H2055 0.962 . S
C2042 H2056 0.960 . S
C2043 C2040 1.511 . S
C2043 H2057 0.961 . S
C2043 H2058 0.961 . S
C2043 H2059 0.961 . S
C2044 C2045 1.370 . S
C2044 C2046 1.363 . S
C2044 H2060 0.931 . S
C2045 C2044 1.370 . S
C2045 C2049 1.408 . S
C2046 C2044 1.363 . S
C2046 C2047 1.370 . S
C2046 C2050 1.524 . S
C2047 C2039 1.503 . S
C2047 C2046 1.370 . S
C2047 C2048 1.403 . S
C2048 C2047 1.403 . S
C2048 C2049 1.404 . S
C2048 C2051 1.539 . S
C2049 C2045 1.408 . S
C2049 C2048 1.404 . S
C2049 H2061 0.930 . S
C2050 C2046 1.524 . S
C2050 H2062 0.956 . S
C2050 H2063 0.961 . S
C2050 H2064 0.961 . S
C2051 C2048 1.539 . S
C2051 H2065 0.958 . S
C2051 H2066 0.961 . S
C2051 H2067 0.960 . S
H2052 C2036 0.931 . S
H2053 C2041 0.929 . S
H2054 C2042 0.960 . S
H2055 C2042 0.962 . S
H2056 C2042 0.960 . S
H2057 C2043 0.961 . S
H2058 C2043 0.961 . S
H2059 C2043 0.961 . S
H2060 C2044 0.931 . S
H2061 C2049 0.930 . S
H2062 C2050 0.956 . S
H2063 C2050 0.961 . S
H2064 C2050 0.961 . S
H2065 C2051 0.958 . S
H2066 C2051 0.961 . S
H2067 C2051 0.960 . S
C2068 C2069 1.391 . S
C2068 C2070 1.394 . S
C2068 H2084 0.931 . S
C2069 C2068 1.391 . S
C2069 C2073 1.376 . S
C2070 C2068 1.394 . S
C2070 C2071 1.369 . S
C2070 C2074 1.531 . S
C2071 C2070 1.369 . S
C2071 C2072 1.410 . S
C2071 C2079 1.503 . S
C2072 C2071 1.410 . S
C2072 C2073 1.392 . S
C2072 C2075 1.511 . S
C2073 C2069 1.376 . S
C2073 C2072 1.392 . S
C2073 H2085 0.929 . S
C2074 C2070 1.531 . S
C2074 H2086 0.960 . S
C2074 H2087 0.962 . S
C2074 H2088 0.960 . S
C2075 C2072 1.511 . S
C2075 H2089 0.961 . S
C2075 H2090 0.961 . S
C2075 H2091 0.961 . S
C2076 C2077 1.370 . S
C2076 C2078 1.363 . S
C2076 H2092 0.931 . S
C2077 C2076 1.370 . S
C2077 C2081 1.408 . S
C2078 C2076 1.363 . S
C2078 C2079 1.370 . S
C2078 C2082 1.524 . S
C2079 C2071 1.503 . S
C2079 C2078 1.370 . S
C2079 C2080 1.403 . S
C2080 C2079 1.403 . S
C2080 C2081 1.404 . S
C2080 C2083 1.539 . S
C2081 C2077 1.408 . S
C2081 C2080 1.404 . S
C2081 H2093 0.930 . S
C2082 C2078 1.524 . S
C2082 H2094 0.956 . S
C2082 H2095 0.961 . S
C2082 H2096 0.961 . S
C2083 C2080 1.539 . S
C2083 H2097 0.958 . S
C2083 H2098 0.961 . S
C2083 H2099 0.960 . S
H2084 C2068 0.931 . S
H2085 C2073 0.929 . S
H2086 C2074 0.960 . S
H2087 C2074 0.962 . S
H2088 C2074 0.960 . S
H2089 C2075 0.961 . S
H2090 C2075 0.961 . S
H2091 C2075 0.961 . S
H2092 C2076 0.931 . S
H2093 C2081 0.930 . S
H2094 C2082 0.956 . S
H2095 C2082 0.961 . S
H2096 C2082 0.961 . S
H2097 C2083 0.958 . S
H2098 C2083 0.961 . S
H2099 C2083 0.960 . S
C2100 C2101 1.391 . S
C2100 C2102 1.394 . S
C2100 H2116 0.931 . S
C2101 C2100 1.391 . S
C2101 C2105 1.376 . S
C2102 C2100 1.394 . S
C2102 C2103 1.369 . S
C2102 C2106 1.531 . S
C2103 C2102 1.369 . S
C2103 C2104 1.410 . S
C2103 C2111 1.503 . S
C2104 C2103 1.410 . S
C2104 C2105 1.392 . S
C2104 C2107 1.511 . S
C2105 C2101 1.376 . S
C2105 C2104 1.392 . S
C2105 H2117 0.929 . S
C2106 C2102 1.531 . S
C2106 H2118 0.960 . S
C2106 H2119 0.962 . S
C2106 H2120 0.960 . S
C2107 C2104 1.511 . S
C2107 H2121 0.961 . S
C2107 H2122 0.961 . S
C2107 H2123 0.961 . S
C2108 C2109 1.370 . S
C2108 C2110 1.363 . S
C2108 H2124 0.931 . S
C2109 C2108 1.370 . S
C2109 C2113 1.408 . S
C2110 C2108 1.363 . S
C2110 C2111 1.370 . S
C2110 C2114 1.524 . S
C2111 C2103 1.503 . S
C2111 C2110 1.370 . S
C2111 C2112 1.403 . S
C2112 C2111 1.403 . S
C2112 C2113 1.404 . S
C2112 C2115 1.539 . S
C2113 C2109 1.408 . S
C2113 C2112 1.404 . S
C2113 H2125 0.930 . S
C2114 C2110 1.524 . S
C2114 H2126 0.956 . S
C2114 H2127 0.961 . S
C2114 H2128 0.961 . S
C2115 C2112 1.539 . S
C2115 H2129 0.958 . S
C2115 H2130 0.961 . S
C2115 H2131 0.960 . S
H2116 C2100 0.931 . S
H2117 C2105 0.929 . S
H2118 C2106 0.960 . S
H2119 C2106 0.962 . S
H2120 C2106 0.960 . S
H2121 C2107 0.961 . S
H2122 C2107 0.961 . S
H2123 C2107 0.961 . S
H2124 C2108 0.931 . S
H2125 C2113 0.930 . S
H2126 C2114 0.956 . S
H2127 C2114 0.961 . S
H2128 C2114 0.961 . S
H2129 C2115 0.958 . S
H2130 C2115 0.961 . S
H2131 C2115 0.960 . S
C2132 C2133 1.391 . S
C2132 C2134 1.394 . S
C2132 H2148 0.931 . S
C2133 C2132 1.391 . S
C2133 C2137 1.376 . S
C2134 C2132 1.394 . S
C2134 C2135 1.369 . S
C2134 C2138 1.531 . S
C2135 C2134 1.369 . S
C2135 C2136 1.410 . S
C2135 C2143 1.503 . S
C2136 C2135 1.410 . S
C2136 C2137 1.392 . S
C2136 C2139 1.511 . S
C2137 C2133 1.376 . S
C2137 C2136 1.392 . S
C2137 H2149 0.929 . S
C2138 C2134 1.531 . S
C2138 H2150 0.960 . S
C2138 H2151 0.962 . S
C2138 H2152 0.960 . S
C2139 C2136 1.511 . S
C2139 H2153 0.961 . S
C2139 H2154 0.961 . S
C2139 H2155 0.961 . S
C2140 C2141 1.370 . S
C2140 C2142 1.363 . S
C2140 H2156 0.931 . S
C2141 C2140 1.370 . S
C2141 C2145 1.408 . S
C2142 C2140 1.363 . S
C2142 C2143 1.370 . S
C2142 C2146 1.524 . S
C2143 C2135 1.503 . S
C2143 C2142 1.370 . S
C2143 C2144 1.403 . S
C2144 C2143 1.403 . S
C2144 C2145 1.404 . S
C2144 C2147 1.539 . S
C2145 C2141 1.408 . S
C2145 C2144 1.404 . S
C2145 H2157 0.930 . S
C2146 C2142 1.524 . S
C2146 H2158 0.956 . S
C2146 H2159 0.961 . S
C2146 H2160 0.961 . S
C2147 C2144 1.539 . S
C2147 H2161 0.958 . S
C2147 H2162 0.961 . S
C2147 H2163 0.960 . S
H2148 C2132 0.931 . S
H2149 C2137 0.929 . S
H2150 C2138 0.960 . S
H2151 C2138 0.962 . S
H2152 C2138 0.960 . S
H2153 C2139 0.961 . S
H2154 C2139 0.961 . S
H2155 C2139 0.961 . S
H2156 C2140 0.931 . S
H2157 C2145 0.930 . S
H2158 C2146 0.956 . S
H2159 C2146 0.961 . S
H2160 C2146 0.961 . S
H2161 C2147 0.958 . S
H2162 C2147 0.961 . S
H2163 C2147 0.960 . S
C2164 C2165 1.391 . S
C2164 C2166 1.394 . S
C2164 H2180 0.931 . S
C2165 C2164 1.391 . S
C2165 C2169 1.376 . S
C2166 C2164 1.394 . S
C2166 C2167 1.369 . S
C2166 C2170 1.531 . S
C2167 C2166 1.369 . S
C2167 C2168 1.410 . S
C2167 C2175 1.503 . S
C2168 C2167 1.410 . S
C2168 C2169 1.392 . S
C2168 C2171 1.511 . S
C2169 C2165 1.376 . S
C2169 C2168 1.392 . S
C2169 H2181 0.929 . S
C2170 C2166 1.531 . S
C2170 H2182 0.960 . S
C2170 H2183 0.962 . S
C2170 H2184 0.960 . S
C2171 C2168 1.511 . S
C2171 H2185 0.961 . S
C2171 H2186 0.961 . S
C2171 H2187 0.961 . S
C2172 C2173 1.370 . S
C2172 C2174 1.363 . S
C2172 H2188 0.931 . S
C2173 C2172 1.370 . S
C2173 C2177 1.408 . S
C2174 C2172 1.363 . S
C2174 C2175 1.370 . S
C2174 C2178 1.524 . S
C2175 C2167 1.503 . S
C2175 C2174 1.370 . S
C2175 C2176 1.403 . S
C2176 C2175 1.403 . S
C2176 C2177 1.404 . S
C2176 C2179 1.539 . S
C2177 C2173 1.408 . S
C2177 C2176 1.404 . S
C2177 H2189 0.930 . S
C2178 C2174 1.524 . S
C2178 H2190 0.956 . S
C2178 H2191 0.961 . S
C2178 H2192 0.961 . S
C2179 C2176 1.539 . S
C2179 H2193 0.958 . S
C2179 H2194 0.961 . S
C2179 H2195 0.960 . S
H2180 C2164 0.931 . S
H2181 C2169 0.929 . S
H2182 C2170 0.960 . S
H2183 C2170 0.962 . S
H2184 C2170 0.960 . S
H2185 C2171 0.961 . S
H2186 C2171 0.961 . S
H2187 C2171 0.961 . S
H2188 C2172 0.931 . S
H2189 C2177 0.930 . S
H2190 C2178 0.956 . S
H2191 C2178 0.961 . S
H2192 C2178 0.961 . S
H2193 C2179 0.958 . S
H2194 C2179 0.961 . S
H2195 C2179 0.960 . S
C2196 C2197 1.391 . S
C2196 C2198 1.394 . S
C2196 H2212 0.931 . S
C2197 C2196 1.391 . S
C2197 C2201 1.376 . S
C2198 C2196 1.394 . S
C2198 C2199 1.369 . S
C2198 C2202 1.531 . S
C2199 C2198 1.369 . S
C2199 C2200 1.410 . S
C2199 C2207 1.503 . S
C2200 C2199 1.410 . S
C2200 C2201 1.392 . S
C2200 C2203 1.511 . S
C2201 C2197 1.376 . S
C2201 C2200 1.392 . S
C2201 H2213 0.929 . S
C2202 C2198 1.531 . S
C2202 H2214 0.960 . S
C2202 H2215 0.962 . S
C2202 H2216 0.960 . S
C2203 C2200 1.511 . S
C2203 H2217 0.961 . S
C2203 H2218 0.961 . S
C2203 H2219 0.961 . S
C2204 C2205 1.370 . S
C2204 C2206 1.363 . S
C2204 H2220 0.931 . S
C2205 C2204 1.370 . S
C2205 C2209 1.408 . S
C2206 C2204 1.363 . S
C2206 C2207 1.370 . S
C2206 C2210 1.524 . S
C2207 C2199 1.503 . S
C2207 C2206 1.370 . S
C2207 C2208 1.403 . S
C2208 C2207 1.403 . S
C2208 C2209 1.404 . S
C2208 C2211 1.539 . S
C2209 C2205 1.408 . S
C2209 C2208 1.404 . S
C2209 H2221 0.930 . S
C2210 C2206 1.524 . S
C2210 H2222 0.956 . S
C2210 H2223 0.961 . S
C2210 H2224 0.961 . S
C2211 C2208 1.539 . S
C2211 H2225 0.958 . S
C2211 H2226 0.961 . S
C2211 H2227 0.960 . S
H2212 C2196 0.931 . S
H2213 C2201 0.929 . S
H2214 C2202 0.960 . S
H2215 C2202 0.962 . S
H2216 C2202 0.960 . S
H2217 C2203 0.961 . S
H2218 C2203 0.961 . S
H2219 C2203 0.961 . S
H2220 C2204 0.931 . S
H2221 C2209 0.930 . S
H2222 C2210 0.956 . S
H2223 C2210 0.961 . S
H2224 C2210 0.961 . S
H2225 C2211 0.958 . S
H2226 C2211 0.961 . S
H2227 C2211 0.960 . S
C2228 C2229 1.391 . S
C2228 C2230 1.394 . S
C2228 H2244 0.931 . S
C2229 C2228 1.391 . S
C2229 C2233 1.376 . S
C2230 C2228 1.394 . S
C2230 C2231 1.369 . S
C2230 C2234 1.531 . S
C2231 C2230 1.369 . S
C2231 C2232 1.410 . S
C2231 C2239 1.503 . S
C2232 C2231 1.410 . S
C2232 C2233 1.392 . S
C2232 C2235 1.511 . S
C2233 C2229 1.376 . S
C2233 C2232 1.392 . S
C2233 H2245 0.929 . S
C2234 C2230 1.531 . S
C2234 H2246 0.960 . S
C2234 H2247 0.962 . S
C2234 H2248 0.960 . S
C2235 C2232 1.511 . S
C2235 H2249 0.961 . S
C2235 H2250 0.961 . S
C2235 H2251 0.961 . S
C2236 C2237 1.370 . S
C2236 C2238 1.363 . S
C2236 H2252 0.931 . S
C2237 C2236 1.370 . S
C2237 C2241 1.408 . S
C2238 C2236 1.363 . S
C2238 C2239 1.370 . S
C2238 C2242 1.524 . S
C2239 C2231 1.503 . S
C2239 C2238 1.370 . S
C2239 C2240 1.403 . S
C2240 C2239 1.403 . S
C2240 C2241 1.404 . S
C2240 C2243 1.539 . S
C2241 C2237 1.408 . S
C2241 C2240 1.404 . S
C2241 H2253 0.930 . S
C2242 C2238 1.524 . S
C2242 H2254 0.956 . S
C2242 H2255 0.961 . S
C2242 H2256 0.961 . S
C2243 C2240 1.539 . S
C2243 H2257 0.958 . S
C2243 H2258 0.961 . S
C2243 H2259 0.960 . S
H2244 C2228 0.931 . S
H2245 C2233 0.929 . S
H2246 C2234 0.960 . S
H2247 C2234 0.962 . S
H2248 C2234 0.960 . S
H2249 C2235 0.961 . S
H2250 C2235 0.961 . S
H2251 C2235 0.961 . S
H2252 C2236 0.931 . S
H2253 C2241 0.930 . S
H2254 C2242 0.956 . S
H2255 C2242 0.961 . S
H2256 C2242 0.961 . S
H2257 C2243 0.958 . S
H2258 C2243 0.961 . S
H2259 C2243 0.960 . S
C2260 C2261 1.391 . S
C2260 C2262 1.394 . S
C2260 H2276 0.931 . S
C2261 C2260 1.391 . S
C2261 C2265 1.376 . S
C2262 C2260 1.394 . S
C2262 C2263 1.369 . S
C2262 C2266 1.531 . S
C2263 C2262 1.369 . S
C2263 C2264 1.410 . S
C2263 C2271 1.503 . S
C2264 C2263 1.410 . S
C2264 C2265 1.392 . S
C2264 C2267 1.511 . S
C2265 C2261 1.376 . S
C2265 C2264 1.392 . S
C2265 H2277 0.929 . S
C2266 C2262 1.531 . S
C2266 H2278 0.960 . S
C2266 H2279 0.962 . S
C2266 H2280 0.960 . S
C2267 C2264 1.511 . S
C2267 H2281 0.961 . S
C2267 H2282 0.961 . S
C2267 H2283 0.961 . S
C2268 C2269 1.370 . S
C2268 C2270 1.363 . S
C2268 H2284 0.931 . S
C2269 C2268 1.370 . S
C2269 C2273 1.408 . S
C2270 C2268 1.363 . S
C2270 C2271 1.370 . S
C2270 C2274 1.524 . S
C2271 C2263 1.503 . S
C2271 C2270 1.370 . S
C2271 C2272 1.403 . S
C2272 C2271 1.403 . S
C2272 C2273 1.404 . S
C2272 C2275 1.539 . S
C2273 C2269 1.408 . S
C2273 C2272 1.404 . S
C2273 H2285 0.930 . S
C2274 C2270 1.524 . S
C2274 H2286 0.956 . S
C2274 H2287 0.961 . S
C2274 H2288 0.961 . S
C2275 C2272 1.539 . S
C2275 H2289 0.958 . S
C2275 H2290 0.961 . S
C2275 H2291 0.960 . S
H2276 C2260 0.931 . S
H2277 C2265 0.929 . S
H2278 C2266 0.960 . S
H2279 C2266 0.962 . S
H2280 C2266 0.960 . S
H2281 C2267 0.961 . S
H2282 C2267 0.961 . S
H2283 C2267 0.961 . S
H2284 C2268 0.931 . S
H2285 C2273 0.930 . S
H2286 C2274 0.956 . S
H2287 C2274 0.961 . S
H2288 C2274 0.961 . S
H2289 C2275 0.958 . S
H2290 C2275 0.961 . S
H2291 C2275 0.960 . S
C2292 C2293 1.391 . S
C2292 C2294 1.394 . S
C2292 H2308 0.931 . S
C2293 C2292 1.391 . S
C2293 C2297 1.376 . S
C2294 C2292 1.394 . S
C2294 C2295 1.369 . S
C2294 C2298 1.531 . S
C2295 C2294 1.369 . S
C2295 C2296 1.410 . S
C2295 C2303 1.503 . S
C2296 C2295 1.410 . S
C2296 C2297 1.392 . S
C2296 C2299 1.511 . S
C2297 C2293 1.376 . S
C2297 C2296 1.392 . S
C2297 H2309 0.929 . S
C2298 C2294 1.531 . S
C2298 H2310 0.960 . S
C2298 H2311 0.962 . S
C2298 H2312 0.960 . S
C2299 C2296 1.511 . S
C2299 H2313 0.961 . S
C2299 H2314 0.961 . S
C2299 H2315 0.961 . S
C2300 C2301 1.370 . S
C2300 C2302 1.363 . S
C2300 H2316 0.931 . S
C2301 C2300 1.370 . S
C2301 C2305 1.408 . S
C2302 C2300 1.363 . S
C2302 C2303 1.370 . S
C2302 C2306 1.524 . S
C2303 C2295 1.503 . S
C2303 C2302 1.370 . S
C2303 C2304 1.403 . S
C2304 C2303 1.403 . S
C2304 C2305 1.404 . S
C2304 C2307 1.539 . S
C2305 C2301 1.408 . S
C2305 C2304 1.404 . S
C2305 H2317 0.930 . S
C2306 C2302 1.524 . S
C2306 H2318 0.956 . S
C2306 H2319 0.961 . S
C2306 H2320 0.961 . S
C2307 C2304 1.539 . S
C2307 H2321 0.958 . S
C2307 H2322 0.961 . S
C2307 H2323 0.960 . S
H2308 C2292 0.931 . S
H2309 C2297 0.929 . S
H2310 C2298 0.960 . S
H2311 C2298 0.962 . S
H2312 C2298 0.960 . S
H2313 C2299 0.961 . S
H2314 C2299 0.961 . S
H2315 C2299 0.961 . S
H2316 C2300 0.931 . S
H2317 C2305 0.930 . S
H2318 C2306 0.956 . S
H2319 C2306 0.961 . S
H2320 C2306 0.961 . S
H2321 C2307 0.958 . S
H2322 C2307 0.961 . S
H2323 C2307 0.960 . S
C2324 C2325 1.391 . S
C2324 C2326 1.394 . S
C2324 H2340 0.931 . S
C2325 C2324 1.391 . S
C2325 C2329 1.376 . S
C2326 C2324 1.394 . S
C2326 C2327 1.369 . S
C2326 C2330 1.531 . S
C2327 C2326 1.369 . S
C2327 C2328 1.410 . S
C2327 C2335 1.503 . S
C2328 C2327 1.410 . S
C2328 C2329 1.392 . S
C2328 C2331 1.511 . S
C2329 C2325 1.376 . S
C2329 C2328 1.392 . S
C2329 H2341 0.929 . S
C2330 C2326 1.531 . S
C2330 H2342 0.960 . S
C2330 H2343 0.962 . S
C2330 H2344 0.960 . S
C2331 C2328 1.511 . S
C2331 H2345 0.961 . S
C2331 H2346 0.961 . S
C2331 H2347 0.961 . S
C2332 C2333 1.370 . S
C2332 C2334 1.363 . S
C2332 H2348 0.931 . S
C2333 C2332 1.370 . S
C2333 C2337 1.408 . S
C2334 C2332 1.363 . S
C2334 C2335 1.370 . S
C2334 C2338 1.524 . S
C2335 C2327 1.503 . S
C2335 C2334 1.370 . S
C2335 C2336 1.403 . S
C2336 C2335 1.403 . S
C2336 C2337 1.404 . S
C2336 C2339 1.539 . S
C2337 C2333 1.408 . S
C2337 C2336 1.404 . S
C2337 H2349 0.930 . S
C2338 C2334 1.524 . S
C2338 H2350 0.956 . S
C2338 H2351 0.961 . S
C2338 H2352 0.961 . S
C2339 C2336 1.539 . S
C2339 H2353 0.958 . S
C2339 H2354 0.961 . S
C2339 H2355 0.960 . S
H2340 C2324 0.931 . S
H2341 C2329 0.929 . S
H2342 C2330 0.960 . S
H2343 C2330 0.962 . S
H2344 C2330 0.960 . S
H2345 C2331 0.961 . S
H2346 C2331 0.961 . S
H2347 C2331 0.961 . S
H2348 C2332 0.931 . S
H2349 C2337 0.930 . S
H2350 C2338 0.956 . S
H2351 C2338 0.961 . S
H2352 C2338 0.961 . S
H2353 C2339 0.958 . S
H2354 C2339 0.961 . S
H2355 C2339 0.960 . S
C2356 C2357 1.391 . S
C2356 C2358 1.394 . S
C2356 H2372 0.931 . S
C2357 C2356 1.391 . S
C2357 C2361 1.376 . S
C2358 C2356 1.394 . S
C2358 C2359 1.369 . S
C2358 C2362 1.531 . S
C2359 C2358 1.369 . S
C2359 C2360 1.410 . S
C2359 C2367 1.503 . S
C2360 C2359 1.410 . S
C2360 C2361 1.392 . S
C2360 C2363 1.511 . S
C2361 C2357 1.376 . S
C2361 C2360 1.392 . S
C2361 H2373 0.929 . S
C2362 C2358 1.531 . S
C2362 H2374 0.960 . S
C2362 H2375 0.962 . S
C2362 H2376 0.960 . S
C2363 C2360 1.511 . S
C2363 H2377 0.961 . S
C2363 H2378 0.961 . S
C2363 H2379 0.961 . S
C2364 C2365 1.370 . S
C2364 C2366 1.363 . S
C2364 H2380 0.931 . S
C2365 C2364 1.370 . S
C2365 C2369 1.408 . S
C2366 C2364 1.363 . S
C2366 C2367 1.370 . S
C2366 C2370 1.524 . S
C2367 C2359 1.503 . S
C2367 C2366 1.370 . S
C2367 C2368 1.403 . S
C2368 C2367 1.403 . S
C2368 C2369 1.404 . S
C2368 C2371 1.539 . S
C2369 C2365 1.408 . S
C2369 C2368 1.404 . S
C2369 H2381 0.930 . S
C2370 C2366 1.524 . S
C2370 H2382 0.956 . S
C2370 H2383 0.961 . S
C2370 H2384 0.961 . S
C2371 C2368 1.539 . S
C2371 H2385 0.958 . S
C2371 H2386 0.961 . S
C2371 H2387 0.960 . S
H2372 C2356 0.931 . S
H2373 C2361 0.929 . S
H2374 C2362 0.960 . S
H2375 C2362 0.962 . S
H2376 C2362 0.960 . S
H2377 C2363 0.961 . S
H2378 C2363 0.961 . S
H2379 C2363 0.961 . S
H2380 C2364 0.931 . S
H2381 C2369 0.930 . S
H2382 C2370 0.956 . S
H2383 C2370 0.961 . S
H2384 C2370 0.961 . S
H2385 C2371 0.958 . S
H2386 C2371 0.961 . S
H2387 C2371 0.960 . S
C2388 C2389 1.391 . S
C2388 C2390 1.394 . S
C2388 H2404 0.931 . S
C2389 C2388 1.391 . S
C2389 C2393 1.376 . S
C2390 C2388 1.394 . S
C2390 C2391 1.369 . S
C2390 C2394 1.531 . S
C2391 C2390 1.369 . S
C2391 C2392 1.410 . S
C2391 C2399 1.503 . S
C2392 C2391 1.410 . S
C2392 C2393 1.392 . S
C2392 C2395 1.511 . S
C2393 C2389 1.376 . S
C2393 C2392 1.392 . S
C2393 H2405 0.929 . S
C2394 C2390 1.531 . S
C2394 H2406 0.960 . S
C2394 H2407 0.962 . S
C2394 H2408 0.960 . S
C2395 C2392 1.511 . S
C2395 H2409 0.961 . S
C2395 H2410 0.961 . S
C2395 H2411 0.961 . S
C2396 C2397 1.370 . S
C2396 C2398 1.363 . S
C2396 H2412 0.931 . S
C2397 C2396 1.370 . S
C2397 C2401 1.408 . S
C2398 C2396 1.363 . S
C2398 C2399 1.370 . S
C2398 C2402 1.524 . S
C2399 C2391 1.503 . S
C2399 C2398 1.370 . S
C2399 C2400 1.403 . S
C2400 C2399 1.403 . S
C2400 C2401 1.404 . S
C2400 C2403 1.539 . S
C2401 C2397 1.408 . S
C2401 C2400 1.404 . S
C2401 H2413 0.930 . S
C2402 C2398 1.524 . S
C2402 H2414 0.956 . S
C2402 H2415 0.961 . S
C2402 H2416 0.961 . S
C2403 C2400 1.539 . S
C2403 H2417 0.958 . S
C2403 H2418 0.961 . S
C2403 H2419 0.960 . S
H2404 C2388 0.931 . S
H2405 C2393 0.929 . S
H2406 C2394 0.960 . S
H2407 C2394 0.962 . S
H2408 C2394 0.960 . S
H2409 C2395 0.961 . S
H2410 C2395 0.961 . S
H2411 C2395 0.961 . S
H2412 C2396 0.931 . S
H2413 C2401 0.930 . S
H2414 C2402 0.956 . S
H2415 C2402 0.961 . S
H2416 C2402 0.961 . S
H2417 C2403 0.958 . S
H2418 C2403 0.961 . S
H2419 C2403 0.960 . S
C2420 C2421 1.391 . S
C2420 C2422 1.394 . S
C2420 H2436 0.931 . S
C2421 C2420 1.391 . S
C2421 C2425 1.376 . S
C2422 C2420 1.394 . S
C2422 C2423 1.369 . S
C2422 C2426 1.531 . S
C2423 C2422 1.369 . S
C2423 C2424 1.410 . S
C2423 C2431 1.503 . S
C2424 C2423 1.410 . S
C2424 C2425 1.392 . S
C2424 C2427 1.511 . S
C2425 C2421 1.376 . S
C2425 C2424 1.392 . S
C2425 H2437 0.929 . S
C2426 C2422 1.531 . S
C2426 H2438 0.960 . S
C2426 H2439 0.962 . S
C2426 H2440 0.960 . S
C2427 C2424 1.511 . S
C2427 H2441 0.961 . S
C2427 H2442 0.961 . S
C2427 H2443 0.961 . S
C2428 C2429 1.370 . S
C2428 C2430 1.363 . S
C2428 H2444 0.931 . S
C2429 C2428 1.370 . S
C2429 C2433 1.408 . S
C2430 C2428 1.363 . S
C2430 C2431 1.370 . S
C2430 C2434 1.524 . S
C2431 C2423 1.503 . S
C2431 C2430 1.370 . S
C2431 C2432 1.403 . S
C2432 C2431 1.403 . S
C2432 C2433 1.404 . S
C2432 C2435 1.539 . S
C2433 C2429 1.408 . S
C2433 C2432 1.404 . S
C2433 H2445 0.930 . S
C2434 C2430 1.524 . S
C2434 H2446 0.956 . S
C2434 H2447 0.961 . S
C2434 H2448 0.961 . S
C2435 C2432 1.539 . S
C2435 H2449 0.958 . S
C2435 H2450 0.961 . S
C2435 H2451 0.960 . S
H2436 C2420 0.931 . S
H2437 C2425 0.929 . S
H2438 C2426 0.960 . S
H2439 C2426 0.962 . S
H2440 C2426 0.960 . S
H2441 C2427 0.961 . S
H2442 C2427 0.961 . S
H2443 C2427 0.961 . S
H2444 C2428 0.931 . S
H2445 C2433 0.930 . S
H2446 C2434 0.956 . S
H2447 C2434 0.961 . S
H2448 C2434 0.961 . S
H2449 C2435 0.958 . S
H2450 C2435 0.961 . S
H2451 C2435 0.960 . S
C2452 C2453 1.391 . S
C2452 C2454 1.394 . S
C2452 H2468 0.931 . S
C2453 C2452 1.391 . S
C2453 C2457 1.376 . S
C2454 C2452 1.394 . S
C2454 C2455 1.369 . S
C2454 C2458 1.531 . S
C2455 C2454 1.369 . S
C2455 C2456 1.410 . S
C2455 C2463 1.503 . S
C2456 C2455 1.410 . S
C2456 C2457 1.392 . S
C2456 C2459 1.511 . S
C2457 C2453 1.376 . S
C2457 C2456 1.392 . S
C2457 H2469 0.929 . S
C2458 C2454 1.531 . S
C2458 H2470 0.960 . S
C2458 H2471 0.962 . S
C2458 H2472 0.960 . S
C2459 C2456 1.511 . S
C2459 H2473 0.961 . S
C2459 H2474 0.961 . S
C2459 H2475 0.961 . S
C2460 C2461 1.370 . S
C2460 C2462 1.363 . S
C2460 H2476 0.931 . S
C2461 C2460 1.370 . S
C2461 C2465 1.408 . S
C2462 C2460 1.363 . S
C2462 C2463 1.370 . S
C2462 C2466 1.524 . S
C2463 C2455 1.503 . S
C2463 C2462 1.370 . S
C2463 C2464 1.403 . S
C2464 C2463 1.403 . S
C2464 C2465 1.404 . S
C2464 C2467 1.539 . S
C2465 C2461 1.408 . S
C2465 C2464 1.404 . S
C2465 H2477 0.930 . S
C2466 C2462 1.524 . S
C2466 H2478 0.956 . S
C2466 H2479 0.961 . S
C2466 H2480 0.961 . S
C2467 C2464 1.539 . S
C2467 H2481 0.958 . S
C2467 H2482 0.961 . S
C2467 H2483 0.960 . S
H2468 C2452 0.931 . S
H2469 C2457 0.929 . S
H2470 C2458 0.960 . S
H2471 C2458 0.962 . S
H2472 C2458 0.960 . S
H2473 C2459 0.961 . S
H2474 C2459 0.961 . S
H2475 C2459 0.961 . S
H2476 C2460 0.931 . S
H2477 C2465 0.930 . S
H2478 C2466 0.956 . S
H2479 C2466 0.961 . S
H2480 C2466 0.961 . S
H2481 C2467 0.958 . S
H2482 C2467 0.961 . S
H2483 C2467 0.960 . S
C957 C334 1.181 . S
C949 N2 1.345 . S
C989 C434 2.154 . S
C981 C7 2.141 . S
C1021 C514 1.222 . S
C1013 N12 1.373 . S
C1045 C16 1.905 . S
C1053 C591 1.965 . S
C1085 C675 2.190 . S
C1077 C30 2.177 1_565 S
C1117 C754 1.084 . S
C1109 N35 1.288 . S
C1141 C39 2.034 . S
C1149 C854 2.034 . S
C1181 C934 1.121 . S
C1173 N25 1.231 . S
C1213 C332 1.102 . S
C1205 N58 1.089 . S
C1237 N81 1.868 . S
C1245 C427 1.870 . S
C1277 C518 1.175 . S
C1269 N104 1.165 . S
C1301 N127 1.124 . S
C1309 C586 0.963 . S
C1341 C670 0.779 . S
C1333 N48 0.907 . S
C1373 C752 1.445 . S
C1365 N71 1.434 1_556 S
C1397 N94 1.413 . S
C1405 C847 1.436 . S
C1437 C938 1.536 . S
C1429 N117 1.482 . S
C1461 C85 2.107 . S
C1469 C339 2.121 . S
C1493 C122 2.369 . S
C1501 C668 2.335 . S
C1525 C53 1.772 . S
C1533 C759 1.804 . S
C1565 C850 1.251 . S
C1557 C76 1.478 1_655 S
C1597 C931 1.734 . S
C1589 C99 1.807 . S
C1629 C511 1.918 . S
C1621 C131 1.953 . S
C1661 C584 1.910 . S
C1653 C62 1.941 . S
C1685 C108 1.151 . S
C1693 C430 1.020 . S
C1725 C922 1.187 . S
C1717 N140 1.387 . S
C1749 C145 2.149 . S
C1757 C686 2.139 . S
C1789 C766 1.160 . S
C1781 N150 1.260 . S
C1813 C154 1.904 . S
C1821 C843 1.966 . S
C1853 C423 2.190 . S
C1845 C168 2.175 . S
C1877 N173 1.147 . S
C1885 C502 1.046 . S
C1917 C602 2.027 . S
C1909 C177 2.053 . S
C1949 C346 1.126 . S
C1941 N163 1.254 . S
C1981 C920 1.539 . S
C1973 C200 1.556 . S
C2013 C679 2.164 . S
C2005 N219 2.164 . S
C2037 N242 1.372 . S
C2045 C770 1.466 . S
C2077 C838 1.185 . S
C2069 C269 1.456 . S
C2109 C418 0.974 . S
C2101 C191 1.125 . S
C2133 N209 1.649 . S
C2141 C500 1.712 . S
C2165 N232 1.700 . S
C2173 C595 1.747 . S
C2197 C260 2.016 . S
C2205 C350 2.021 . S
C2229 C223 1.787 . S
C2237 C927 1.798 . S
C2261 N255 1.940 . S
C2269 C416 1.944 . S
C2293 N186 1.387 . S
C2301 C507 1.409 . S
C2333 C598 0.963 . S
C2325 C214 1.167 . S
C2365 C343 1.444 . S
C2357 C237 1.494 . S
C2397 C763 1.518 . S
C2389 N265 1.451 . S
C2429 C836 1.525 . S
C2421 N196 1.525 . S
C2461 C682 0.829 . S
C2453 C246 0.835 . S
