# Generated by pormake.
# Topology scu, (8,4)-cn, num edge types: 1
# Building blocks:
#     Node 0, Type 0, BuildingBlock: TAGTUT_clean_sbu_3, # of connection points: 8
#     Node 1, Type 1, BuildingBlock: MUDLON_clean_sbu_0, # of connection points: 4
#     Node 2, Type 1, BuildingBlock: MUDLON_clean_sbu_0, # of connection points: 4
#     Edge 3, Type (0, 1), BuildingBlock: MIFKUJ_clean_linker_0, # of connection points: 2
#     Edge 4, Type (0, 1), BuildingBlock: MIFKUJ_clean_linker_0, # of connection points: 2
#     Edge 5, Type (0, 1), BuildingBlock: MIFKUJ_clean_linker_0, # of connection points: 2
#     Edge 6, Type (0, 1), BuildingBlock: MIFKUJ_clean_linker_0, # of connection points: 2
#     Edge 7, Type (0, 1), BuildingBlock: MIFKUJ_clean_linker_0, # of connection points: 2
#     Edge 8, Type (0, 1), BuildingBlock: MIFKUJ_clean_linker_0, # of connection points: 2
#     Edge 9, Type (0, 1), BuildingBlock: MIFKUJ_clean_linker_0, # of connection points: 2
#     Edge 10, Type (0, 1), BuildingBlock: MIFKUJ_clean_linker_0, # of connection points: 2
# Relax obj value: 0.056
# Max RMSD: 0.118
# Mean RMSD: 0.087
data_MOF--net-scu--node1-TAGTUT_clean_sbu_3--node2-MUDLON_clean_sbu_0--edge1-MIFKUJ_clean_linker_0
_symmetry_space_group_name_H-M    P1
_symmetry_Int_Tables_number       1
_symmetry_cell_setting            triclinic
loop_
_symmetry_equiv_pos_as_xyz
'x, y, z'
_cell_length_a     34.141723
_cell_length_b     28.902347
_cell_length_c     26.499954
_cell_angle_alpha  90.135879
_cell_angle_beta   90.801803
_cell_angle_gamma 90.055589
loop_
_atom_site_label
_atom_site_type_symbol
_atom_site_fract_x
_atom_site_fract_y
_atom_site_fract_z
_atom_type_partial_charge
C0 C 0.99908 0.92473 0.08423 0.0
C1 C 0.85666 0.99214 0.07691 0.0
C2 C 0.88888 0.03654 0.92623 0.0
Mg3 Mg 0.07897 0.95567 0.02694 0.0
Mg4 Mg 0.0937 0.06451 0.99305 0.0
O5 O 0.06021 0.01305 0.99104 0.0
Mg6 Mg 1.00472 0.01624 0.01449 0.0
O7 O 0.94911 0.01362 0.03814 0.0
Mg8 Mg 0.93086 0.95567 1.00293 0.0
Mg9 Mg 0.91501 0.06428 0.03296 0.0
C10 C 0.01558 0.10844 0.94377 0.0
O11 O 0.01436 0.07876 0.06938 0.0
O12 O 0.13425 0.95912 0.97451 0.0
O13 O 0.95528 0.11434 0.06663 0.0
O14 O 0.11238 0.99719 0.08852 0.0
O15 O 0.13903 0.03302 0.94861 0.0
O16 O 0.11704 0.07199 0.06944 0.0
O17 O 0.98949 0.95741 0.95924 0.0
O18 O 0.04443 0.91584 0.96727 0.0
C19 C 0.01022 0.92196 0.94814 0.0
C20 C 0.15065 0.9908 0.94785 0.0
O21 O 0.99418 0.07372 0.95617 0.0
O22 O 0.87453 0.96011 0.05244 0.0
O23 O 0.05171 0.11277 0.95788 0.0
O24 O 0.89874 0.99543 0.93891 0.0
O25 O 0.8678 0.03453 0.07567 0.0
O26 O 0.8954 0.07087 0.95554 0.0
O27 O 0.02054 0.95914 0.07152 0.0
O28 O 0.96465 0.91856 0.06561 0.0
C29 C 0.12352 0.03829 0.09955 0.0
C30 C 0.99163 0.11304 0.08007 0.0
Mg31 Mg 1.00278 0.5109 0.5033 0.0
C32 C 0.06452 0.47291 0.43081 0.0
O33 O 0.06851 0.51651 0.41785 0.0
C34 C 0.02443 0.60803 0.53635 0.0
O35 O 0.00892 0.61759 0.49197 0.0
C36 C 0.98388 0.46568 0.59821 0.0
O37 O 0.01621 0.48896 0.60783 0.0
O38 O 0.96833 0.46898 0.55446 0.0
O39 O 0.04287 0.46292 0.46789 0.0
O40 O 0.97076 0.54601 0.44329 0.0
C41 C 0.97329 0.53322 0.39753 0.0
O42 O 0.98632 0.49154 0.38743 0.0
O43 O 0.02904 0.56589 0.54891 0.0
Mg44 Mg 0.5075 0.98073 0.51446 0.0
C45 C 0.43539 0.99147 0.45763 0.0
O46 O 0.43741 0.94813 0.47232 0.0
C47 C 0.57948 0.99177 0.57164 0.0
O48 O 0.57597 0.94764 0.56033 0.0
C49 C 0.47602 0.94629 0.61604 0.0
O50 O 0.50661 0.96876 0.63407 0.0
O51 O 0.47161 0.94231 0.56841 0.0
O52 O 0.46333 0.01857 0.4703 0.0
O53 O 0.54291 0.94141 0.46074 0.0
C54 C 0.53655 0.94292 0.41329 0.0
O55 O 0.50448 0.96279 0.39622 0.0
O56 O 0.55238 0.01915 0.55703 0.0
H57 H 0.06854 0.1371 0.09919 0.0
H58 H 0.0928 0.20268 0.14946 0.0
H59 H 0.97383 0.24462 0.1777 0.0
H60 H 0.94961 0.18043 0.12676 0.0
H61 H 0.01696 0.3187 0.16557 0.0
H62 H 0.0265 0.17662 0.25935 0.0
H63 H 0.04903 0.09584 0.26674 0.0
H64 H 0.1686 0.14214 0.2682 0.0
H65 H 0.14686 0.22269 0.2582 0.0
H66 H 0.05403 0.37991 0.44247 0.0
H67 H 0.054 0.32142 0.37638 0.0
H68 H 0.09749 0.42187 0.27073 0.0
H69 H 0.09616 0.48137 0.33652 0.0
H70 H 0.09969 0.27945 0.31489 0.0
H71 H 0.05326 0.4065 0.15784 0.0
H72 H 0.02181 0.48306 0.14884 0.0
H73 H 0.96008 0.4616 0.28688 0.0
H74 H 0.99105 0.38499 0.29661 0.0
C75 C 0.04763 0.16038 0.11596 0.0
C76 C 0.00716 0.15302 0.10944 0.0
C77 C 0.0615 0.19803 0.14448 0.0
C78 C 0.03512 0.22844 0.16782 0.0
C79 C 0.9948 0.2219 0.15995 0.0
C80 C 0.98099 0.18478 0.13105 0.0
C81 C 0.04881 0.26464 0.20403 0.0
C82 C 0.03551 0.31026 0.19783 0.0
C83 C 0.07213 0.25354 0.24692 0.0
C84 C 0.0851 0.20554 0.25705 0.0
C85 C 0.05762 0.16944 0.26093 0.0
C86 C 0.07024 0.12364 0.26516 0.0
C87 C 0.11023 0.11368 0.26671 0.0
C88 C 0.13765 0.14961 0.26566 0.0
C89 C 0.12522 0.19538 0.26062 0.0
C90 C 0.06436 0.38951 0.40548 0.0
C91 C 0.07441 0.43562 0.39463 0.0
C92 C 0.06443 0.35586 0.36763 0.0
C93 C 0.07481 0.36742 0.31817 0.0
C94 C 0.08845 0.41237 0.30832 0.0
C95 C 0.08801 0.44629 0.34614 0.0
C96 C 0.06764 0.33354 0.27666 0.0
C97 C 0.08198 0.28825 0.28198 0.0
C98 C 0.04389 0.34454 0.23403 0.0
C99 C 0.02482 0.39032 0.2282 0.0
C100 C 0.03293 0.41815 0.18619 0.0
C101 C 0.01522 0.46155 0.18101 0.0
C102 C 0.9891 0.47723 0.21739 0.0
C103 C 0.98045 0.44948 0.25887 0.0
C104 C 0.99814 0.40614 0.2643 0.0
H105 H 0.97556 0.51087 0.21352 0.0
H106 H 0.11989 0.07811 0.26888 0.0
H107 H 0.82105 0.90722 0.08775 0.0
H108 H 0.76487 0.88811 0.1404 0.0
H109 H 0.7598 0.02966 0.19174 0.0
H110 H 0.81509 0.04922 0.13883 0.0
H111 H 0.75264 0.89076 0.23959 0.0
H112 H 0.66741 0.06274 0.20923 0.0
H113 H 0.65748 0.12126 0.14267 0.0
H114 H 0.6845 0.02029 0.02929 0.0
H115 H 0.69405 0.96102 0.09508 0.0
H116 H 0.61509 0.93359 0.43338 0.0
H117 H 0.66776 0.92999 0.3721 0.0
H118 H 0.58232 0.9227 0.25074 0.0
H119 H 0.52958 0.92815 0.31183 0.0
H120 H 0.63139 0.98484 0.22902 0.0
H121 H 0.64555 0.82932 0.2844 0.0
H122 H 0.65286 0.76541 0.34527 0.0
H123 H 0.76209 0.82257 0.39819 0.0
H124 H 0.7552 0.88719 0.3381 0.0
C125 C 0.80788 0.93435 0.11008 0.0
C126 C 0.82252 0.97989 0.1086 0.0
C127 C 0.77585 0.92328 0.14035 0.0
C128 C 0.75772 0.95753 0.16959 0.0
C129 C 0.77273 0.00277 0.1688 0.0
C130 C 0.80453 0.01389 0.13851 0.0
C131 C 0.7231 0.94644 0.20098 0.0
C132 C 0.72603 0.91116 0.2372 0.0
C133 C 0.68795 0.97222 0.19708 0.0
C134 C 0.68176 0.00754 0.15717 0.0
C135 C 0.67104 0.05297 0.17008 0.0
C136 C 0.66552 0.08629 0.13249 0.0
C137 C 0.67046 0.07453 0.0818 0.0
C138 C 0.68081 0.02939 0.06858 0.0
C139 C 0.68633 0.99594 0.10601 0.0
C140 C 0.6075 0.93012 0.39372 0.0
C141 C 0.56811 0.93135 0.37747 0.0
C142 C 0.63772 0.92794 0.35859 0.0
C143 C 0.62921 0.92594 0.30654 0.0
C144 C 0.58979 0.92453 0.29056 0.0
C145 C 0.55961 0.92741 0.32558 0.0
C146 C 0.66108 0.92977 0.26875 0.0
C147 C 0.65773 0.96395 0.2313 0.0
C148 C 0.69537 0.90217 0.27081 0.0
C149 C 0.6997 0.8633 0.30696 0.0
C150 C 0.671 0.82845 0.30925 0.0
C151 C 0.67509 0.79206 0.34358 0.0
C152 C 0.70788 0.78998 0.37564 0.0
C153 C 0.7367 0.82424 0.37335 0.0
C154 C 0.73274 0.86072 0.33911 0.0
H155 H 0.71099 0.76178 0.40219 0.0
H156 H 0.6662 0.10039 0.05276 0.0
H157 H 0.96765 0.91261 0.17515 0.0
H158 H 0.97476 0.8448 0.22902 0.0
H159 H 0.06413 0.79135 0.13115 0.0
H160 H 0.05674 0.85993 0.07674 0.0
H161 H 0.00542 0.72949 0.14524 0.0
H162 H 0.08705 0.82135 0.25214 0.0
H163 H 0.10658 0.89087 0.30032 0.0
H164 H 0.00636 0.87545 0.39494 0.0
H165 H 0.98575 0.80636 0.34672 0.0
H166 H 0.01507 0.5327 0.31069 0.0
H167 H 0.02798 0.59842 0.25579 0.0
H168 H 0.94833 0.68214 0.34203 0.0
H169 H 0.93603 0.61661 0.39785 0.0
H170 H 0.01489 0.72571 0.33209 0.0
H171 H 0.92774 0.64364 0.21693 0.0
H172 H 0.90533 0.5762 0.16708 0.0
H173 H 0.01446 0.5742 0.08853 0.0
H174 H 0.03761 0.64149 0.13816 0.0
C175 C 0.98993 0.88727 0.16638 0.0
C176 C 0.01219 0.89159 0.1226 0.0
C177 C 0.99394 0.84846 0.19704 0.0
C178 C 0.02016 0.81306 0.18433 0.0
C179 C 0.04391 0.81841 0.14178 0.0
C180 C 0.04006 0.85768 0.11113 0.0
C181 C 0.01896 0.76877 0.2125 0.0
C182 C 0.00844 0.72836 0.18604 0.0
C183 C 0.02203 0.76757 0.26577 0.0
C184 C 0.03475 0.80869 0.29558 0.0
C185 C 0.06903 0.8329 0.28304 0.0
C186 C 0.08031 0.87226 0.31038 0.0
C187 C 0.05769 0.88759 0.35064 0.0
C188 C 0.02385 0.86352 0.36375 0.0
C189 C 0.01238 0.82421 0.33645 0.0
C190 C 0.99926 0.56463 0.31693 0.0
C191 C 0.97417 0.56937 0.35827 0.0
C192 C 0.00689 0.60235 0.28565 0.0
C193 C 0.98914 0.64534 0.29469 0.0
C194 C 0.96258 0.64942 0.33449 0.0
C195 C 0.95528 0.61187 0.36609 0.0
C196 C 0.99994 0.68689 0.26498 0.0
C197 C 0.01245 0.72666 0.29124 0.0
C198 C 0.99851 0.68757 0.21158 0.0
C199 C 0.98452 0.64732 0.18154 0.0
C200 C 0.94702 0.62866 0.1892 0.0
C201 C 0.93415 0.59056 0.16088 0.0
C202 C 0.95845 0.57094 0.12465 0.0
C203 C 0.99565 0.58947 0.11656 0.0
C204 C 0.00863 0.62763 0.1447 0.0
H205 H 0.9485 0.54133 0.10292 0.0
H206 H 0.06636 0.91812 0.37171 0.0
H207 H 0.1378 0.97627 0.17518 0.0
H208 H 0.187 0.98112 0.24177 0.0
H209 H 0.21591 0.11989 0.19568 0.0
H210 H 0.16706 0.11474 0.12738 0.0
H211 H 0.27938 0.07478 0.20743 0.0
H212 H 0.18006 0.09897 0.34628 0.0
H213 H 0.11695 0.0822 0.38698 0.0
H214 H 0.13988 0.93645 0.37612 0.0
H215 H 0.20269 0.95265 0.33464 0.0
H216 H 0.42113 0.07701 0.41422 0.0
H217 H 0.36542 0.09825 0.35898 0.0
H218 H 0.31961 0.95964 0.37156 0.0
H219 H 0.37393 0.9387 0.42668 0.0
H220 H 0.26302 0.02001 0.38302 0.0
H221 H 0.36972 0.99797 0.26634 0.0
H222 H 0.43474 0.01464 0.23123 0.0
H223 H 0.4005 0.15537 0.2037 0.0
H224 H 0.3354 0.13964 0.2393 0.0
C225 C 0.15389 0.00836 0.17976 0.0
C226 C 0.14833 0.04511 0.14565 0.0
C227 C 0.18186 0.01133 0.21865 0.0
C228 C 0.2047 0.0514 0.22524 0.0
C229 C 0.1985 0.08869 0.19197 0.0
C230 C 0.17033 0.08582 0.15301 0.0
C231 C 0.23782 0.05204 0.2628 0.0
C232 C 0.27553 0.06383 0.24617 0.0
C233 C 0.23354 0.037 0.31331 0.0
C234 C 0.19504 0.02701 0.33554 0.0
C235 C 0.17105 0.06341 0.3515 0.0
C236 C 0.13552 0.054 0.37506 0.0
C237 C 0.12407 0.00825 0.38343 0.0
C238 C 0.14838 0.97185 0.36884 0.0
C239 C 0.18391 0.98113 0.34532 0.0
C240 C 0.39904 0.05125 0.40526 0.0
C241 C 0.40204 0.00618 0.42493 0.0
C242 C 0.36734 0.06333 0.37353 0.0
C243 C 0.33835 0.03045 0.3609 0.0
C244 C 0.3414 0.98571 0.38086 0.0
C245 C 0.37272 0.97375 0.41238 0.0
C246 C 0.30443 0.04158 0.32719 0.0
C247 C 0.26668 0.03202 0.34458 0.0
C248 C 0.30885 0.05839 0.27748 0.0
C249 C 0.34791 0.06779 0.25606 0.0
C250 C 0.37618 0.03256 0.25319 0.0
C251 C 0.41302 0.04182 0.23313 0.0
C252 C 0.42179 0.08608 0.21541 0.0
C253 C 0.39369 0.12114 0.21756 0.0
C254 C 0.35683 0.11207 0.23766 0.0
H255 H 0.45032 0.09318 0.19987 0.0
H256 H 0.09659 0.00102 0.40171 0.0
H257 H 0.02022 0.82939 0.94742 0.0
H258 H 0.01818 0.77911 0.87331 0.0
H259 H 0.97319 0.89187 0.78326 0.0
H260 H 0.97403 0.94214 0.85822 0.0
H261 H 0.94463 0.8075 0.75101 0.0
H262 H 0.06878 0.87476 0.7913 0.0
H263 H 0.12457 0.89523 0.84707 0.0
H264 H 0.15142 0.75131 0.86702 0.0
H265 H 0.09505 0.72986 0.81264 0.0
H266 H 0.00831 0.70018 0.52532 0.0
H267 H 1.0045 0.75846 0.59203 0.0
H268 H 0.04514 0.65827 0.70109 0.0
H269 H 0.04927 0.59977 0.63464 0.0
H270 H 0.07704 0.74429 0.71782 0.0
H271 H 0.94853 0.67836 0.68416 0.0
H272 H 0.89124 0.6586 0.6306 0.0
H273 H 0.87363 0.80242 0.59691 0.0
H274 H 0.9312 0.82296 0.64969 0.0
C275 C 0.0086 0.84296 0.91218 0.0
C276 C 0.99766 0.88961 0.9082 0.0
C277 C 0.00772 0.81436 0.86984 0.0
C278 C 0.99681 0.83226 0.82254 0.0
C279 C 0.98213 0.87759 0.81938 0.0
C280 C 0.98242 0.90618 0.86218 0.0
C281 C 1.00475 0.80508 0.77632 0.0
C282 C 0.97367 0.79427 0.74327 0.0
C283 C 0.04275 0.7878 0.76639 0.0
C284 C 0.07735 0.80066 0.79821 0.0
C285 C 0.0863 0.84743 0.80798 0.0
C286 C 0.11797 0.85922 0.83952 0.0
C287 C 0.14139 0.82457 0.86079 0.0
C288 C 0.13316 0.77809 0.85064 0.0
C289 C 0.10132 0.76609 0.81952 0.0
C290 C 0.01712 0.69068 0.56333 0.0
C291 C 0.02871 0.64512 0.57474 0.0
C292 C 0.01472 0.72403 0.60144 0.0
C293 C 0.02381 0.71243 0.65163 0.0
C294 C 0.03777 0.66786 0.66261 0.0
C295 C 0.04012 0.63445 0.62456 0.0
C296 C 0.0167 0.74566 0.69324 0.0
C297 C 0.04807 0.75787 0.7253 0.0
C298 C 0.97907 0.76449 0.70203 0.0
C299 C 0.94446 0.75212 0.67033 0.0
C300 C 0.93265 0.70572 0.66495 0.0
C301 C 0.9001 0.69439 0.6348 0.0
C302 C 0.87889 0.72922 0.61022 0.0
C303 C 0.89014 0.77546 0.61586 0.0
C304 C 0.92273 0.78697 0.64588 0.0
H305 H 0.85368 0.72038 0.58692 0.0
H306 H 0.16609 0.83371 0.88483 0.0
H307 H 0.18918 0.04808 0.88346 0.0
H308 H 0.24283 0.02971 0.82769 0.0
H309 H 0.24129 0.88803 0.87841 0.0
H310 H 0.18677 0.90617 0.93456 0.0
H311 H 0.31353 0.00454 0.84845 0.0
H312 H 0.27558 0.81849 0.78217 0.0
H313 H 0.2181 0.77011 0.76044 0.0
H314 H 0.15042 0.89204 0.72893 0.0
H315 H 0.20742 0.94109 0.75053 0.0
H316 H 0.47964 0.93367 0.71815 0.0
H317 H 0.42475 0.92824 0.77612 0.0
H318 H 0.34365 0.93018 0.64981 0.0
H319 H 0.39852 0.9335 0.59162 0.0
H320 H 0.31361 0.87941 0.72006 0.0
H321 H 0.37104 0.03092 0.71572 0.0
H322 H 0.42444 0.08826 0.72244 0.0
H323 H 0.44439 0.05069 0.87736 0.0
H324 H 0.3914 0.99268 0.87133 0.0
C325 C 0.20005 0.0129 0.88299 0.0
C326 C 0.18358 0.97867 0.91393 0.0
C327 C 0.23089 0.00244 0.8509 0.0
C328 C 0.24627 0.95748 0.84863 0.0
C329 C 0.22976 0.92292 0.87903 0.0
C330 C 0.19871 0.9334 0.91136 0.0
C331 C 0.28056 0.94803 0.81585 0.0
C332 C 0.31354 0.9769 0.82067 0.0
C333 C 0.28062 0.91252 0.77891 0.0
C334 C 0.24566 0.88341 0.76845 0.0
C335 C 0.24837 0.83494 0.77081 0.0
C336 C 0.21591 0.80742 0.75843 0.0
C337 C 0.18071 0.828 0.74309 0.0
C338 C 0.17774 0.87616 0.74071 0.0
C339 C 0.21003 0.90384 0.75335 0.0
C340 C 0.45014 0.93187 0.70268 0.0
C341 C 0.44346 0.93448 0.65029 0.0
C342 C 0.41872 0.92904 0.7359 0.0
C343 C 0.37988 0.93009 0.71755 0.0
C344 C 0.37325 0.92954 0.66507 0.0
C345 C 0.40472 0.93147 0.63176 0.0
C346 C 0.34641 0.93599 0.75273 0.0
C347 C 0.31375 0.90651 0.74846 0.0
C348 C 0.34591 0.97208 0.78904 0.0
C349 C 0.37758 0.00714 0.7929 0.0
C350 C 0.38699 0.03471 0.75112 0.0
C351 C 0.41716 0.06734 0.75481 0.0
C352 C 0.43788 0.07301 0.80025 0.0
C353 C 0.42837 0.04618 0.84215 0.0
C354 C 0.39827 0.01344 0.83863 0.0
H355 H 0.46124 0.09827 0.80303 0.0
H356 H 0.15568 0.80663 0.73324 0.0
H357 H 0.04116 0.19706 0.9323 0.0
H358 H 0.01472 0.2562 0.87593 0.0
H359 H 0.9245 0.1618 0.82492 0.0
H360 H 0.95091 0.10206 0.88151 0.0
H361 H 0.96526 0.20532 0.74637 0.0
H362 H 0.89624 0.24899 0.89285 0.0
H363 H 0.88793 0.26602 0.98326 0.0
H364 H 0.96793 0.38017 0.97257 0.0
H365 H 0.97725 0.36341 0.88227 0.0
H366 H 0.92613 0.39944 0.58729 0.0
H367 H 0.90991 0.33829 0.64778 0.0
H368 H 0.99401 0.39529 0.75403 0.0
H369 H 0.00933 0.45653 0.69506 0.0
H370 H 0.93343 0.36442 0.80316 0.0
H371 H 0.01623 0.30612 0.66741 0.0
H372 H 0.03031 0.28733 0.57861 0.0
H373 H 0.92855 0.19999 0.57096 0.0
H374 H 0.91365 0.21876 0.6596 0.0
C375 C 0.01556 0.18886 0.90937 0.0
C376 C 0.99817 0.14485 0.91136 0.0
C377 C 1.00029 0.22282 0.87744 0.0
C378 C 0.96743 0.2135 0.84665 0.0
C379 C 0.94973 0.16973 0.84865 0.0
C380 C 0.96478 0.13576 0.88111 0.0
C381 C 0.95369 0.24902 0.81034 0.0
C382 C 0.95715 0.23982 0.75862 0.0
C383 C 0.94348 0.29402 0.8265 0.0
C384 C 0.93751 0.30483 0.8807 0.0
C385 C 0.91222 0.27759 0.9098 0.0
C386 C 0.90733 0.28721 0.96105 0.0
C387 C 0.92741 0.32414 0.98365 0.0
C388 C 0.95236 0.3516 0.955 0.0
C389 C 0.95741 0.34211 0.90374 0.0
C390 C 0.94051 0.39936 0.62397 0.0
C391 C 0.9694 0.43246 0.63611 0.0
C392 C 0.93136 0.36431 0.6584 0.0
C393 C 0.95121 0.36172 0.70519 0.0
C394 C 0.97828 0.39642 0.71825 0.0
C395 C 0.98723 0.43136 0.68421 0.0
C396 C 0.94704 0.32134 0.73932 0.0
C397 C 0.94015 0.32958 0.79071 0.0
C398 C 0.95458 0.27553 0.72294 0.0
C399 C 0.96352 0.26435 0.66977 0.0
C400 C 0.99672 0.2832 0.64663 0.0
C401 C 1.00486 0.27251 0.59638 0.0
C402 C 0.98025 0.24263 0.5691 0.0
C403 C 0.94751 0.22325 0.59208 0.0
C404 C 0.93919 0.23391 0.6423 0.0
H405 H 0.98661 0.23438 0.53021 0.0
H406 H 0.92361 0.33149 0.02335 0.0
H407 H 0.86487 0.97023 0.85913 0.0
H408 H 0.81847 0.97836 0.78953 0.0
H409 H 0.8131 0.12562 0.81548 0.0
H410 H 0.85919 0.11759 0.88674 0.0
H411 H 0.74143 0.09079 0.80706 0.0
H412 H 0.85575 0.08018 0.7071 0.0
H413 H 0.91931 0.04857 0.68063 0.0
H414 H 0.86478 0.91826 0.64552 0.0
H415 H 0.80096 0.94887 0.67233 0.0
H416 H 0.60002 0.08065 0.601 0.0
H417 H 0.65808 0.104 0.651 0.0
H418 H 0.69436 0.96128 0.66021 0.0
H419 H 0.63768 0.93812 0.61016 0.0
H420 H 0.75532 0.01383 0.64084 0.0
H421 H 0.6462 0.01914 0.75803 0.0
H422 H 0.58259 0.04803 0.7879 0.0
H423 H 0.62794 0.18665 0.79183 0.0
H424 H 0.69169 0.15859 0.76139 0.0
C425 C 0.85447 0.00458 0.84973 0.0
C426 C 0.86567 0.04321 0.87894 0.0
C427 C 0.82796 0.00922 0.80952 0.0
C428 C 0.81243 0.05269 0.79676 0.0
C429 C 0.82467 0.09172 0.82455 0.0
C430 C 0.85115 0.08707 0.86517 0.0
C431 C 0.78119 0.05609 0.75711 0.0
C432 C 0.7448 0.07504 0.77018 0.0
C433 C 0.7853 0.03515 0.7091 0.0
C434 C 0.82353 0.01685 0.69187 0.0
C435 C 0.85731 0.04474 0.69389 0.0
C436 C 0.8934 0.02699 0.67882 0.0
C437 C 0.89608 0.98143 0.66144 0.0
C438 C 0.86265 0.95357 0.65893 0.0
C439 C 0.82648 0.97115 0.67394 0.0
C440 C 0.6205 0.0544 0.61365 0.0
C441 C 0.6141 0.00752 0.60161 0.0
C442 C 0.65362 0.06774 0.64227 0.0
C443 C 0.68063 0.03436 0.65957 0.0
C444 C 0.67423 0.98777 0.6471 0.0
C445 C 0.64152 0.97454 0.61857 0.0
C446 C 0.71525 0.04664 0.69176 0.0
C447 C 0.7523 0.03072 0.67718 0.0
C448 C 0.71171 0.07013 0.73842 0.0
C449 C 0.67348 0.08688 0.75684 0.0
C450 C 0.64248 0.05582 0.76491 0.0
C451 C 0.60644 0.07203 0.782 0.0
C452 C 0.60118 0.11917 0.79158 0.0
C453 C 0.63201 0.15017 0.78426 0.0
C454 C 0.6681 0.13414 0.76711 0.0
H455 H 0.57325 0.13165 0.80481 0.0
H456 H 0.92407 0.96773 0.64989 0.0
loop_
_geom_bond_atom_site_label_1
_geom_bond_atom_site_label_2
_geom_bond_distance
_geom_bond_site_symmetry_2
_ccdc_geom_bond_type
C0 O27 1.312 1_655 S
C0 O28 1.208 . S
C1 O22 1.331 . S
C1 O25 1.244 1_565 S
C2 O24 1.264 1_545 S
C2 O26 1.273 . S
Mg3 O5 1.939 1_565 S
Mg3 O12 2.093 . S
Mg3 O14 2.011 1_556 S
Mg3 O18 2.042 . S
Mg3 O27 2.282 1_556 S
Mg4 O5 1.963 . S
Mg4 O15 1.942 . S
Mg4 O16 1.955 1_556 S
Mg4 O23 1.986 . S
O5 Mg3 1.939 1_545 S
O5 Mg4 1.963 . S
O5 Mg6 1.937 1_556 S
Mg6 O5 1.937 1_554 S
Mg6 O7 1.893 1_455 S
Mg6 O11 2.017 . S
Mg6 O17 2.107 1_444 S
Mg6 O21 2.008 1_454 S
Mg6 O27 2.121 1_545 S
O7 Mg6 1.893 1_655 S
O7 Mg8 1.936 1_545 S
O7 Mg9 1.963 . S
Mg8 O7 1.936 1_565 S
Mg8 O17 2.291 1_554 S
Mg8 O22 2.081 . S
Mg8 O24 2.023 1_554 S
Mg8 O28 2.031 . S
Mg9 O7 1.963 . S
Mg9 O13 1.986 . S
Mg9 O25 1.942 . S
Mg9 O26 1.955 1_554 S
C10 O21 1.191 1_455 S
C10 O23 1.307 . S
O11 Mg6 2.017 . S
O11 C30 1.191 1_455 S
O12 Mg3 2.093 . S
O12 C20 1.331 . S
O13 Mg9 1.986 . S
O13 C30 1.307 . S
O14 Mg3 2.011 1_554 S
O14 C29 1.264 1_565 S
O15 Mg4 1.942 . S
O15 C20 1.244 1_545 S
O16 Mg4 1.955 1_554 S
O16 C29 1.273 . S
O17 Mg6 2.107 1_666 S
O17 Mg8 2.291 1_556 S
O17 C19 1.312 1_655 S
O18 Mg3 2.042 . S
O18 C19 1.208 . S
C19 O17 1.312 1_455 S
C19 O18 1.208 . S
C20 O12 1.331 . S
C20 O15 1.244 1_565 S
O21 Mg6 2.008 1_656 S
O21 C10 1.191 1_655 S
O22 C1 1.331 . S
O22 Mg8 2.081 . S
O23 Mg4 1.986 . S
O23 C10 1.307 . S
O24 C2 1.264 1_565 S
O24 Mg8 2.023 1_556 S
O25 C1 1.244 1_545 S
O25 Mg9 1.942 . S
O26 C2 1.273 . S
O26 Mg9 1.955 1_556 S
O27 C0 1.312 1_455 S
O27 Mg3 2.282 1_554 S
O27 Mg6 2.121 1_565 S
O28 C0 1.208 . S
O28 Mg8 2.031 . S
C29 O14 1.264 1_545 S
C29 O16 1.273 . S
C30 O11 1.191 1_655 S
C30 O13 1.307 . S
Mg31 O38 2.141 . S
Mg31 O39 2.048 . S
Mg31 O40 2.048 . S
Mg31 O43 2.141 . S
C32 O33 1.313 . S
C32 O39 1.195 1_455 S
O33 C32 1.313 . S
C34 O35 1.245 . S
C34 O43 1.289 1_455 S
O35 C34 1.245 . S
C36 O37 1.245 . S
C36 O38 1.289 1_455 S
O37 C36 1.245 . S
O38 Mg31 2.141 . S
O38 C36 1.289 1_655 S
O39 Mg31 2.048 . S
O39 C32 1.195 1_655 S
O40 Mg31 2.048 . S
O40 C41 1.195 1_655 S
C41 O40 1.195 1_455 S
C41 O42 1.313 . S
O42 C41 1.313 . S
O43 Mg31 2.141 . S
O43 C34 1.289 1_655 S
Mg44 O51 2.141 . S
Mg44 O52 2.048 . S
Mg44 O53 2.048 . S
Mg44 O56 2.141 . S
C45 O46 1.313 . S
C45 O52 1.195 1_565 S
O46 C45 1.313 . S
C47 O48 1.245 . S
C47 O56 1.289 1_565 S
O48 C47 1.245 . S
C49 O50 1.245 . S
C49 O51 1.289 1_565 S
O50 C49 1.245 . S
O51 Mg44 2.141 . S
O51 C49 1.289 1_545 S
O52 Mg44 2.048 . S
O52 C45 1.195 1_545 S
O53 Mg44 2.048 . S
O53 C54 1.195 1_545 S
C54 O53 1.195 1_565 S
C54 O55 1.313 . S
O55 C54 1.313 . S
O56 Mg44 2.141 . S
O56 C47 1.289 1_545 S
H57 C75 0.951 . S
H58 C77 0.951 . S
H59 C79 0.950 . S
H60 C80 0.950 . S
H61 C82 0.950 . S
H62 C85 0.950 1_655 S
H63 C86 0.950 . S
H64 C88 0.950 . S
H65 C89 0.950 . S
H66 C90 0.951 . S
H67 C92 0.951 . S
H68 C94 0.950 . S
H69 C95 0.950 . S
H70 C97 0.950 . S
H71 C100 0.950 1_455 S
H72 C101 0.950 . S
H73 C103 0.950 . S
H74 C104 0.950 . S
C75 H57 0.951 . S
C75 C76 1.356 1_455 S
C75 C77 1.388 . S
C76 C75 1.356 1_655 S
C76 C80 1.395 . S
C77 H58 0.951 . S
C77 C75 1.388 . S
C77 C78 1.360 1_455 S
C78 C77 1.360 1_655 S
C78 C79 1.419 . S
C78 C81 1.499 . S
C79 H59 0.950 . S
C79 C78 1.419 . S
C79 C80 1.374 . S
C80 H60 0.950 . S
C80 C76 1.395 . S
C80 C79 1.374 . S
C81 C78 1.499 . S
C81 C82 1.373 . S
C81 C83 1.389 1_655 S
C82 H61 0.950 . S
C82 C81 1.373 . S
C82 C98 1.377 . S
C83 C81 1.389 1_455 S
C83 C84 1.524 . S
C83 C97 1.377 . S
C84 C83 1.524 . S
C84 C85 1.397 . S
C84 C89 1.363 . S
C85 H62 0.950 1_455 S
C85 C84 1.397 . S
C85 C86 1.334 . S
C86 H63 0.950 . S
C86 C85 1.334 . S
C86 C87 1.287 . S
C87 C86 1.287 . S
C87 C88 1.524 . S
C87 H106 0.913 . S
C88 H64 0.950 . S
C88 C87 1.524 . S
C88 C89 1.415 . S
C89 H65 0.950 . S
C89 C84 1.363 . S
C89 C88 1.415 . S
C90 H66 0.951 . S
C90 C91 1.347 1_655 S
C90 C92 1.388 . S
C91 C90 1.347 1_455 S
C91 C95 1.404 . S
C92 H67 0.951 . S
C92 C90 1.388 . S
C92 C93 1.351 1_655 S
C93 C92 1.351 1_455 S
C93 C94 1.428 . S
C93 C96 1.499 . S
C94 H68 0.950 . S
C94 C93 1.428 . S
C94 C95 1.374 . S
C95 H69 0.950 . S
C95 C91 1.404 . S
C95 C94 1.374 . S
C96 C93 1.499 . S
C96 C97 1.373 . S
C96 C98 1.389 1_455 S
C97 H70 0.950 . S
C97 C83 1.377 . S
C97 C96 1.373 . S
C98 C82 1.377 . S
C98 C96 1.389 1_655 S
C98 C99 1.524 . S
C99 C98 1.524 . S
C99 C100 1.397 . S
C99 C104 1.363 . S
C100 H71 0.950 1_655 S
C100 C99 1.397 . S
C100 C101 1.334 . S
C101 H72 0.950 . S
C101 C100 1.334 . S
C101 C102 1.287 . S
C102 C101 1.287 . S
C102 C103 1.524 . S
C102 H105 0.999 . S
C103 H73 0.950 . S
C103 C102 1.524 . S
C103 C104 1.415 . S
C104 H74 0.950 . S
C104 C99 1.363 . S
C104 C103 1.415 . S
H105 C102 0.999 . S
H106 C87 0.913 . S
H107 C125 0.951 . S
H108 C127 0.951 . S
H109 C129 0.950 . S
H110 C130 0.950 . S
H111 C132 0.950 . S
H112 C135 0.950 . S
H113 C136 0.950 . S
H114 C138 0.950 . S
H115 C139 0.950 . S
H116 C140 0.951 . S
H117 C142 0.951 . S
H118 C144 0.950 . S
H119 C145 0.950 . S
H120 C147 0.950 . S
H121 C150 0.950 . S
H122 C151 0.950 . S
H123 C153 0.950 . S
H124 C154 0.950 . S
C125 H107 0.951 . S
C125 C126 1.366 . S
C125 C127 1.388 . S
C126 C125 1.366 . S
C126 C130 1.385 1_565 S
C127 H108 0.951 . S
C127 C125 1.388 . S
C127 C128 1.366 . S
C128 C127 1.366 . S
C128 C129 1.414 1_565 S
C128 C131 1.499 1_565 S
C129 H109 0.950 . S
C129 C128 1.414 1_545 S
C129 C130 1.374 . S
C130 H110 0.950 . S
C130 C126 1.385 1_545 S
C130 C129 1.374 . S
C131 C128 1.499 1_545 S
C131 C132 1.373 1_545 S
C131 C133 1.389 . S
C132 H111 0.950 . S
C132 C131 1.373 1_565 S
C132 C148 1.377 . S
C133 C131 1.389 . S
C133 C134 1.524 . S
C133 C147 1.377 . S
C134 C133 1.524 . S
C134 C135 1.397 . S
C134 C139 1.363 . S
C135 H112 0.950 . S
C135 C134 1.397 . S
C135 C136 1.334 . S
C136 H113 0.950 . S
C136 C135 1.334 . S
C136 C137 1.287 . S
C137 C136 1.287 . S
C137 C138 1.524 . S
C137 H156 0.913 . S
C138 H114 0.950 . S
C138 C137 1.524 . S
C138 C139 1.415 . S
C139 H115 0.950 . S
C139 C134 1.363 . S
C139 C138 1.415 . S
C140 H116 0.951 . S
C140 C141 1.366 . S
C140 C142 1.388 . S
C141 C140 1.366 . S
C141 C145 1.385 1_545 S
C142 H117 0.951 . S
C142 C140 1.388 . S
C142 C143 1.366 1_545 S
C143 C142 1.366 1_565 S
C143 C144 1.414 . S
C143 C146 1.499 . S
C144 H118 0.950 . S
C144 C143 1.414 . S
C144 C145 1.374 . S
C145 H119 0.950 . S
C145 C141 1.385 1_565 S
C145 C144 1.374 . S
C146 C143 1.499 . S
C146 C147 1.373 1_565 S
C146 C148 1.389 . S
C147 H120 0.950 . S
C147 C133 1.377 . S
C147 C146 1.373 1_545 S
C148 C132 1.377 . S
C148 C146 1.389 . S
C148 C149 1.524 . S
C149 C148 1.524 . S
C149 C150 1.397 . S
C149 C154 1.363 . S
C150 H121 0.950 . S
C150 C149 1.397 . S
C150 C151 1.334 . S
C151 H122 0.950 . S
C151 C150 1.334 . S
C151 C152 1.287 . S
C152 C151 1.287 . S
C152 C153 1.524 . S
C152 H155 0.999 . S
C153 H123 0.950 . S
C153 C152 1.524 . S
C153 C154 1.415 . S
C154 H124 0.950 . S
C154 C149 1.363 . S
C154 C153 1.415 . S
H155 C152 0.999 . S
H156 C137 0.913 . S
H157 C175 0.951 . S
H158 C177 0.951 . S
H159 C179 0.950 . S
H160 C180 0.950 . S
H161 C182 0.950 . S
H162 C185 0.950 . S
H163 C186 0.950 . S
H164 C188 0.950 . S
H165 C189 0.950 1_655 S
H166 C190 0.951 . S
H167 C192 0.951 . S
H168 C194 0.950 . S
H169 C195 0.950 . S
H170 C197 0.950 . S
H171 C200 0.950 . S
H172 C201 0.950 . S
H173 C203 0.943 1_455 S
H174 C204 0.959 . S
C175 H157 0.951 . S
C175 C176 1.366 1_655 S
C175 C177 1.388 . S
C176 C175 1.366 1_455 S
C176 C180 1.385 . S
C177 H158 0.951 . S
C177 C175 1.388 . S
C177 C178 1.366 1_655 S
C178 C177 1.366 1_455 S
C178 C179 1.414 . S
C178 C181 1.499 . S
C179 H159 0.950 . S
C179 C178 1.414 . S
C179 C180 1.374 . S
C180 H160 0.950 . S
C180 C176 1.385 . S
C180 C179 1.374 . S
C181 C178 1.499 . S
C181 C182 1.373 1_455 S
C181 C183 1.389 . S
C182 H161 0.950 . S
C182 C181 1.373 1_655 S
C182 C198 1.377 . S
C183 C181 1.389 . S
C183 C184 1.524 . S
C183 C197 1.377 . S
C184 C183 1.524 . S
C184 C185 1.397 . S
C184 C189 1.363 . S
C185 H162 0.950 . S
C185 C184 1.397 . S
C185 C186 1.334 . S
C186 H163 0.950 . S
C186 C185 1.334 . S
C186 C187 1.287 . S
C187 C186 1.287 . S
C187 C188 1.524 . S
C187 H206 0.913 . S
C188 H164 0.950 . S
C188 C187 1.524 . S
C188 C189 1.415 . S
C189 H165 0.950 1_455 S
C189 C184 1.363 . S
C189 C188 1.415 . S
C190 H166 0.951 . S
C190 C191 1.382 . S
C190 C192 1.388 . S
C191 C190 1.382 . S
C191 C195 1.369 1_455 S
C192 H167 0.951 . S
C192 C190 1.388 . S
C192 C193 1.362 1_455 S
C193 C192 1.362 1_655 S
C193 C194 1.417 . S
C193 C196 1.499 . S
C194 H168 0.950 . S
C194 C193 1.417 . S
C194 C195 1.374 . S
C195 H169 0.950 . S
C195 C191 1.369 1_655 S
C195 C194 1.374 . S
C196 C193 1.499 . S
C196 C197 1.369 1_655 S
C196 C198 1.392 . S
C197 H170 0.950 . S
C197 C183 1.377 . S
C197 C196 1.369 1_455 S
C198 C182 1.377 . S
C198 C196 1.392 . S
C198 C199 1.524 . S
C199 C198 1.524 . S
C199 C200 1.397 . S
C199 C204 1.358 1_655 S
C200 H171 0.950 . S
C200 C199 1.397 . S
C200 C201 1.334 . S
C201 H172 0.950 . S
C201 C200 1.334 . S
C201 C202 1.287 . S
C202 C201 1.287 . S
C202 C203 1.524 . S
C202 H205 0.999 . S
C203 H173 0.943 1_655 S
C203 C202 1.524 . S
C203 C204 1.412 1_655 S
C204 H174 0.959 . S
C204 C199 1.358 1_455 S
C204 C203 1.412 1_455 S
H205 C202 0.999 . S
H206 C187 0.913 . S
H207 C225 0.951 . S
H208 C227 0.951 . S
H209 C229 0.950 . S
H210 C230 0.950 . S
H211 C232 0.950 . S
H212 C235 0.950 . S
H213 C236 0.937 1_545 S
H214 C238 0.950 . S
H215 C239 0.950 . S
H216 C240 0.951 . S
H217 C242 0.951 . S
H218 C244 0.950 . S
H219 C245 0.950 . S
H220 C247 0.950 . S
H221 C250 0.950 1_565 S
H222 C251 0.944 1_565 S
H223 C253 0.950 . S
H224 C254 0.950 . S
C225 H207 0.951 . S
C225 C226 1.366 1_565 S
C225 C227 1.388 . S
C226 C225 1.366 1_545 S
C226 C230 1.385 . S
C227 H208 0.951 . S
C227 C225 1.388 . S
C227 C228 1.366 1_565 S
C228 C227 1.366 1_545 S
C228 C229 1.414 . S
C228 C231 1.499 . S
C229 H209 0.950 . S
C229 C228 1.414 . S
C229 C230 1.374 . S
C230 H210 0.950 . S
C230 C226 1.385 . S
C230 C229 1.374 . S
C231 C228 1.499 . S
C231 C232 1.373 . S
C231 C233 1.389 1_545 S
C232 H211 0.950 . S
C232 C231 1.373 . S
C232 C248 1.377 . S
C233 C231 1.389 1_565 S
C233 C234 1.524 . S
C233 C247 1.377 . S
C234 C233 1.524 . S
C234 C235 1.397 1_565 S
C234 C239 1.363 . S
C235 H212 0.950 . S
C235 C234 1.397 1_545 S
C235 C236 1.329 1_545 S
C236 H213 0.937 1_565 S
C236 C235 1.329 1_565 S
C236 C237 1.306 . S
C237 C236 1.306 . S
C237 C238 1.524 . S
C237 H256 0.913 . S
C238 H214 0.950 . S
C238 C237 1.524 . S
C238 C239 1.415 . S
C239 H215 0.950 . S
C239 C234 1.363 . S
C239 C238 1.415 . S
C240 H216 0.951 . S
C240 C241 1.366 . S
C240 C242 1.388 . S
C241 C240 1.366 . S
C241 C245 1.385 1_545 S
C242 H217 0.951 . S
C242 C240 1.388 . S
C242 C243 1.366 . S
C243 C242 1.366 . S
C243 C244 1.414 1_545 S
C243 C246 1.499 . S
C244 H218 0.950 . S
C244 C243 1.414 1_565 S
C244 C245 1.374 . S
C245 H219 0.950 . S
C245 C241 1.385 1_565 S
C245 C244 1.374 . S
C246 C243 1.499 . S
C246 C247 1.373 1_545 S
C246 C248 1.389 . S
C247 H220 0.950 . S
C247 C233 1.377 . S
C247 C246 1.373 1_565 S
C248 C232 1.377 . S
C248 C246 1.389 . S
C248 C249 1.524 . S
C249 C248 1.524 . S
C249 C250 1.397 . S
C249 C254 1.363 . S
C250 H221 0.950 1_545 S
C250 C249 1.397 . S
C250 C251 1.334 . S
C251 H222 0.944 1_545 S
C251 C250 1.334 . S
C251 C252 1.287 . S
C252 C251 1.287 . S
C252 C253 1.524 . S
C252 H255 0.999 . S
C253 H223 0.950 . S
C253 C252 1.524 . S
C253 C254 1.415 . S
C254 H224 0.950 . S
C254 C249 1.363 . S
C254 C253 1.415 . S
H255 C252 0.999 . S
H256 C237 0.913 . S
H257 C275 0.952 . S
H258 C277 0.951 . S
H259 C279 0.951 . S
H260 C280 0.950 . S
H261 C282 0.950 . S
H262 C285 0.950 . S
H263 C286 0.950 . S
H264 C288 0.950 . S
H265 C289 0.950 . S
H266 C290 0.951 1_455 S
H267 C292 0.951 . S
H268 C294 0.951 1_455 S
H269 C295 0.950 . S
H270 C297 0.950 . S
H271 C300 0.950 . S
H272 C301 0.950 . S
H273 C303 0.950 . S
H274 C304 0.950 . S
C275 H257 0.952 . S
C275 C276 1.366 . S
C275 C277 1.387 1_655 S
C276 C275 1.366 . S
C276 C280 1.385 . S
C277 H258 0.951 . S
C277 C275 1.387 1_455 S
C277 C278 1.366 . S
C278 C277 1.366 . S
C278 C279 1.413 1_455 S
C278 C281 1.499 . S
C279 H259 0.951 . S
C279 C278 1.413 1_655 S
C279 C280 1.374 . S
C280 H260 0.950 . S
C280 C276 1.385 . S
C280 C279 1.374 . S
C281 C278 1.499 . S
C281 C282 1.373 1_455 S
C281 C283 1.389 . S
C282 H261 0.950 . S
C282 C281 1.373 1_655 S
C282 C298 1.377 . S
C283 C281 1.389 . S
C283 C284 1.524 . S
C283 C297 1.377 . S
C284 C283 1.524 . S
C284 C285 1.397 . S
C284 C289 1.363 . S
C285 H262 0.950 . S
C285 C284 1.397 . S
C285 C286 1.334 . S
C286 H263 0.950 . S
C286 C285 1.334 . S
C286 C287 1.287 . S
C287 C286 1.287 . S
C287 C288 1.524 . S
C287 H306 0.913 . S
C288 H264 0.950 . S
C288 C287 1.524 . S
C288 C289 1.415 . S
C289 H265 0.950 . S
C289 C284 1.363 . S
C289 C288 1.415 . S
C290 H266 0.951 1_655 S
C290 C291 1.366 1_655 S
C290 C292 1.388 . S
C291 C290 1.366 1_455 S
C291 C295 1.384 . S
C292 H267 0.951 . S
C292 C290 1.388 . S
C292 C293 1.366 . S
C293 C292 1.366 . S
C293 C294 1.414 . S
C293 C296 1.499 . S
C294 H268 0.951 1_655 S
C294 C293 1.414 . S
C294 C295 1.373 1_655 S
C295 H269 0.950 . S
C295 C291 1.384 . S
C295 C294 1.373 1_455 S
C296 C293 1.499 . S
C296 C297 1.373 1_655 S
C296 C298 1.389 . S
C297 H270 0.950 . S
C297 C283 1.377 . S
C297 C296 1.373 1_455 S
C298 C282 1.377 . S
C298 C296 1.389 . S
C298 C299 1.524 . S
C299 C298 1.524 . S
C299 C300 1.397 . S
C299 C304 1.363 . S
C300 H271 0.950 . S
C300 C299 1.397 . S
C300 C301 1.334 . S
C301 H272 0.950 . S
C301 C300 1.334 . S
C301 C302 1.287 . S
C302 C301 1.287 . S
C302 C303 1.524 . S
C302 H305 0.999 . S
C303 H273 0.950 . S
C303 C302 1.524 . S
C303 C304 1.415 . S
C304 H274 0.950 . S
C304 C299 1.363 . S
C304 C303 1.415 . S
H305 C302 0.999 . S
H306 C287 0.913 . S
H307 C325 0.953 . S
H308 C327 0.952 . S
H309 C329 0.950 . S
H310 C330 0.950 . S
H311 C332 0.950 . S
H312 C335 0.950 . S
H313 C336 0.950 . S
H314 C338 0.950 . S
H315 C339 0.950 . S
H316 C340 0.951 . S
H317 C342 0.951 . S
H318 C344 0.950 . S
H319 C345 0.950 . S
H320 C347 0.950 . S
H321 C350 0.950 . S
H322 C351 0.950 . S
H323 C353 0.950 . S
H324 C354 0.950 . S
C325 H307 0.953 . S
C325 C326 1.364 1_545 S
C325 C327 1.388 . S
C326 C325 1.364 1_565 S
C326 C330 1.385 . S
C327 H308 0.952 . S
C327 C325 1.388 . S
C327 C328 1.364 1_545 S
C328 C327 1.364 1_565 S
C328 C329 1.414 . S
C328 C331 1.499 . S
C329 H309 0.950 . S
C329 C328 1.414 . S
C329 C330 1.374 . S
C330 H310 0.950 . S
C330 C326 1.385 . S
C330 C329 1.374 . S
C331 C328 1.499 . S
C331 C332 1.373 1_565 S
C331 C333 1.389 . S
C332 H311 0.950 . S
C332 C331 1.373 1_545 S
C332 C348 1.377 . S
C333 C331 1.389 . S
C333 C334 1.524 . S
C333 C347 1.377 . S
C334 C333 1.524 . S
C334 C335 1.397 . S
C334 C339 1.363 . S
C335 H312 0.950 . S
C335 C334 1.397 . S
C335 C336 1.334 . S
C336 H313 0.950 . S
C336 C335 1.334 . S
C336 C337 1.287 . S
C337 C336 1.287 . S
C337 C338 1.524 . S
C337 H356 0.913 . S
C338 H314 0.950 . S
C338 C337 1.524 . S
C338 C339 1.415 . S
C339 H315 0.950 . S
C339 C334 1.363 . S
C339 C338 1.415 . S
C340 H316 0.951 . S
C340 C341 1.366 1_565 S
C340 C342 1.388 . S
C341 C340 1.366 1_545 S
C341 C345 1.385 . S
C342 H317 0.951 . S
C342 C340 1.388 . S
C342 C343 1.366 1_565 S
C343 C342 1.366 1_545 S
C343 C344 1.414 . S
C343 C346 1.499 . S
C344 H318 0.950 . S
C344 C343 1.414 . S
C344 C345 1.374 . S
C345 H319 0.950 . S
C345 C341 1.385 . S
C345 C344 1.374 . S
C346 C343 1.499 . S
C346 C347 1.373 1_545 S
C346 C348 1.389 . S
C347 H320 0.950 . S
C347 C333 1.377 . S
C347 C346 1.373 1_565 S
C348 C332 1.377 . S
C348 C346 1.389 . S
C348 C349 1.524 . S
C349 C348 1.524 . S
C349 C350 1.397 . S
C349 C354 1.363 . S
C350 H321 0.950 . S
C350 C349 1.397 . S
C350 C351 1.334 . S
C351 H322 0.950 . S
C351 C350 1.334 . S
C351 C352 1.287 . S
C352 C351 1.287 . S
C352 C353 1.524 . S
C352 H355 0.999 . S
C353 H323 0.950 . S
C353 C352 1.524 . S
C353 C354 1.415 . S
C354 H324 0.950 . S
C354 C349 1.363 . S
C354 C353 1.415 . S
H355 C352 0.999 . S
H356 C337 0.913 . S
H357 C375 0.951 . S
H358 C377 0.951 . S
H359 C379 0.950 . S
H360 C380 0.950 . S
H361 C382 0.950 . S
H362 C385 0.950 . S
H363 C386 0.950 . S
H364 C388 0.950 . S
H365 C389 0.950 . S
H366 C390 0.951 . S
H367 C392 0.951 . S
H368 C394 0.950 . S
H369 C395 0.950 . S
H370 C397 0.950 . S
H371 C400 0.950 . S
H372 C401 0.950 . S
H373 C403 0.950 . S
H374 C404 0.950 . S
C375 H357 0.951 . S
C375 C376 1.366 . S
C375 C377 1.388 . S
C376 C375 1.366 . S
C376 C380 1.385 1_455 S
C377 H358 0.951 . S
C377 C375 1.388 . S
C377 C378 1.376 . S
C378 C377 1.376 . S
C378 C379 1.403 1_455 S
C378 C381 1.499 1_455 S
C379 H359 0.950 . S
C379 C378 1.403 1_655 S
C379 C380 1.374 . S
C380 H360 0.950 . S
C380 C376 1.385 1_655 S
C380 C379 1.374 . S
C381 C378 1.499 1_655 S
C381 C382 1.376 . S
C381 C383 1.386 1_655 S
C382 H361 0.950 . S
C382 C381 1.376 . S
C382 C398 1.377 . S
C383 C381 1.386 1_455 S
C383 C384 1.524 . S
C383 C397 1.377 . S
C384 C383 1.524 . S
C384 C385 1.397 1_455 S
C384 C389 1.363 . S
C385 H362 0.950 . S
C385 C384 1.397 1_655 S
C385 C386 1.334 . S
C386 H363 0.950 . S
C386 C385 1.334 . S
C386 C387 1.287 1_655 S
C387 C386 1.287 1_455 S
C387 C388 1.524 . S
C387 H406 0.913 . S
C388 H364 0.950 . S
C388 C387 1.524 . S
C388 C389 1.415 . S
C389 H365 0.950 . S
C389 C384 1.363 . S
C389 C388 1.415 . S
C390 H366 0.951 . S
C390 C391 1.348 1_655 S
C390 C392 1.388 . S
C391 C390 1.348 1_455 S
C391 C395 1.403 . S
C392 H367 0.951 . S
C392 C390 1.388 . S
C392 C393 1.366 1_655 S
C393 C392 1.366 1_455 S
C393 C394 1.414 . S
C393 C396 1.499 . S
C394 H368 0.950 . S
C394 C393 1.414 . S
C394 C395 1.374 . S
C395 H369 0.950 . S
C395 C391 1.403 . S
C395 C394 1.374 . S
C396 C393 1.499 . S
C396 C397 1.373 . S
C396 C398 1.389 1_455 S
C397 H370 0.950 . S
C397 C383 1.377 . S
C397 C396 1.373 . S
C398 C382 1.377 . S
C398 C396 1.389 1_655 S
C398 C399 1.524 . S
C399 C398 1.524 . S
C399 C400 1.397 1_655 S
C399 C404 1.363 . S
C400 H371 0.950 . S
C400 C399 1.397 1_455 S
C400 C401 1.334 . S
C401 H372 0.950 . S
C401 C400 1.334 . S
C401 C402 1.287 1_455 S
C402 C401 1.287 1_655 S
C402 C403 1.524 . S
C402 H405 0.999 . S
C403 H373 0.950 . S
C403 C402 1.524 . S
C403 C404 1.415 . S
C404 H374 0.950 . S
C404 C399 1.363 . S
C404 C403 1.415 . S
H405 C402 0.999 . S
H406 C387 0.913 . S
H407 C425 0.951 . S
H408 C427 0.951 . S
H409 C429 0.950 . S
H410 C430 0.950 . S
H411 C432 0.950 . S
H412 C435 0.950 . S
H413 C436 0.950 . S
H414 C438 0.950 . S
H415 C439 0.950 . S
H416 C440 0.951 . S
H417 C442 0.951 . S
H418 C444 0.950 . S
H419 C445 0.950 . S
H420 C447 0.950 . S
H421 C450 0.950 . S
H422 C451 0.950 . S
H423 C453 0.950 . S
H424 C454 0.950 . S
C425 H407 0.951 . S
C425 C426 1.366 1_565 S
C425 C427 1.388 . S
C426 C425 1.366 1_545 S
C426 C430 1.385 . S
C427 H408 0.951 . S
C427 C425 1.388 . S
C427 C428 1.366 1_565 S
C428 C427 1.366 1_545 S
C428 C429 1.414 . S
C428 C431 1.499 . S
C429 H409 0.950 . S
C429 C428 1.414 . S
C429 C430 1.374 . S
C430 H410 0.950 . S
C430 C426 1.385 . S
C430 C429 1.374 . S
C431 C428 1.499 . S
C431 C432 1.373 . S
C431 C433 1.389 1_545 S
C432 H411 0.950 . S
C432 C431 1.373 . S
C432 C448 1.377 . S
C433 C431 1.389 1_565 S
C433 C434 1.524 . S
C433 C447 1.377 . S
C434 C433 1.524 . S
C434 C435 1.397 . S
C434 C439 1.363 . S
C435 H412 0.950 . S
C435 C434 1.397 . S
C435 C436 1.334 . S
C436 H413 0.950 . S
C436 C435 1.334 . S
C436 C437 1.287 . S
C437 C436 1.287 . S
C437 C438 1.524 . S
C437 H456 0.913 . S
C438 H414 0.950 . S
C438 C437 1.524 . S
C438 C439 1.415 . S
C439 H415 0.950 . S
C439 C434 1.363 . S
C439 C438 1.415 . S
C440 H416 0.951 . S
C440 C441 1.366 . S
C440 C442 1.388 . S
C441 C440 1.366 . S
C441 C445 1.385 1_545 S
C442 H417 0.951 . S
C442 C440 1.388 . S
C442 C443 1.366 . S
C443 C442 1.366 . S
C443 C444 1.414 1_545 S
C443 C446 1.499 . S
C444 H418 0.950 . S
C444 C443 1.414 1_565 S
C444 C445 1.374 . S
C445 H419 0.950 . S
C445 C441 1.385 1_565 S
C445 C444 1.374 . S
C446 C443 1.499 . S
C446 C447 1.373 1_545 S
C446 C448 1.389 . S
C447 H420 0.950 . S
C447 C433 1.377 . S
C447 C446 1.373 1_565 S
C448 C432 1.377 . S
C448 C446 1.389 . S
C448 C449 1.524 . S
C449 C448 1.524 . S
C449 C450 1.397 . S
C449 C454 1.363 . S
C450 H421 0.950 . S
C450 C449 1.397 . S
C450 C451 1.334 . S
C451 H422 0.950 . S
C451 C450 1.334 . S
C451 C452 1.287 . S
C452 C451 1.287 . S
C452 C453 1.524 . S
C452 H455 0.999 . S
C453 H423 0.950 . S
C453 C452 1.524 . S
C453 C454 1.415 . S
C454 H424 0.950 . S
C454 C449 1.363 . S
C454 C453 1.415 . S
H455 C452 0.999 . S
H456 C437 0.913 . S
C76 C30 1.279 . S
C91 C32 1.306 . S
C126 C1 1.560 . S
C141 C54 1.578 1_545 S
C176 C0 1.271 1_455 S
C191 C41 1.319 . S
C226 C29 1.598 . S
C241 C45 1.622 1_545 S
C276 C19 1.204 1_655 S
C291 C34 1.244 . S
C326 C20 1.477 . S
C341 C49 1.489 1_545 S
C391 C36 1.231 . S
C376 C10 1.207 . S
C426 C2 1.515 . S
C441 C47 1.533 1_545 S
