# Generated by pormake.
# Topology nia, (6,6)-cn, num edge types: 1
# Building blocks:
#     Node 0, Type 0, BuildingBlock: CUKXOW_clean_sbu_0, # of connection points: 6
#     Node 1, Type 0, BuildingBlock: CUKXOW_clean_sbu_0, # of connection points: 6
#     Node 2, Type 1, BuildingBlock: MIDCAF_clean_sbu_0, # of connection points: 6
#     Node 3, Type 1, BuildingBlock: MIDCAF_clean_sbu_0, # of connection points: 6
#     Edge 4, Type (0, 1), BuildingBlock: KIFKEQ_clean_linker_1, # of connection points: 2
#     Edge 5, Type (0, 1), BuildingBlock: KIFKEQ_clean_linker_1, # of connection points: 2
#     Edge 6, Type (0, 1), BuildingBlock: KIFKEQ_clean_linker_1, # of connection points: 2
#     Edge 7, Type (0, 1), BuildingBlock: KIFKEQ_clean_linker_1, # of connection points: 2
#     Edge 8, Type (0, 1), BuildingBlock: KIFKEQ_clean_linker_1, # of connection points: 2
#     Edge 9, Type (0, 1), BuildingBlock: KIFKEQ_clean_linker_1, # of connection points: 2
#     Edge 10, Type (0, 1), BuildingBlock: KIFKEQ_clean_linker_1, # of connection points: 2
#     Edge 11, Type (0, 1), BuildingBlock: KIFKEQ_clean_linker_1, # of connection points: 2
#     Edge 12, Type (0, 1), BuildingBlock: KIFKEQ_clean_linker_1, # of connection points: 2
#     Edge 13, Type (0, 1), BuildingBlock: KIFKEQ_clean_linker_1, # of connection points: 2
#     Edge 14, Type (0, 1), BuildingBlock: KIFKEQ_clean_linker_1, # of connection points: 2
#     Edge 15, Type (0, 1), BuildingBlock: KIFKEQ_clean_linker_1, # of connection points: 2
# Relax obj value: 0.196
# Max RMSD: 0.252
# Mean RMSD: 0.209
data_MOF--net-nia--node1-CUKXOW_clean_sbu_0--node2-MIDCAF_clean_sbu_0--edge1-KIFKEQ_clean_linker_1
_symmetry_space_group_name_H-M    P1
_symmetry_Int_Tables_number       1
_symmetry_cell_setting            triclinic
loop_
_symmetry_equiv_pos_as_xyz
'x, y, z'
_cell_length_a     25.789583
_cell_length_b     25.737183
_cell_length_c     26.033801
_cell_angle_alpha  86.322645
_cell_angle_beta   86.481023
_cell_angle_gamma 123.70573
loop_
_atom_site_label
_atom_site_type_symbol
_atom_site_fract_x
_atom_site_fract_y
_atom_site_fract_z
_atom_type_partial_charge
Tb0 Tb -0.01853 0.02915 0.14562 0.0
C1 C 0.06574 0.02944 1.05145 0.0
Tb2 Tb 0.92583 0.91842 1.08355 0.0
O3 O -0.0258 -0.02992 0.21378 0.0
O4 O -0.01074 0.95195 0.13984 0.0
O5 O 0.05587 0.06432 1.08077 0.0
C6 C 0.87947 0.80829 1.04678 0.0
O7 O 0.02315 -0.03137 1.05075 0.0
C8 C 0.92811 0.01554 1.04166 0.0
C9 C 0.84133 0.9198 0.17686 0.0
O10 O 0.85505 0.84077 1.04421 0.0
O11 O 0.9289 0.83713 1.0708 0.0
O12 O 0.93209 -0.02343 1.01519 0.0
O13 O 0.91816 -0.00445 1.08903 0.0
O14 O 0.85153 0.88432 0.14858 0.0
O15 O 0.88403 -0.01935 0.17698 0.0
C16 C 0.03016 0.1373 0.18615 0.0
O17 O 0.04895 0.10006 0.19119 0.0
O18 O -0.01496 0.11463 0.15699 0.0
C19 C -0.02086 0.93184 0.18716 0.0
Tb20 Tb 0.89352 -0.04589 0.5907 0.0
C21 C 0.895 0.85729 0.66667 0.0
Tb22 Tb 0.01451 -0.00412 0.6335 0.0
O23 O 0.89559 0.88378 0.55044 0.0
O24 O -0.02043 -0.03307 0.56184 0.0
O25 O 0.85873 0.87445 0.64926 0.0
C26 C 0.11541 0.01097 0.6705 0.0
O27 O -0.04288 0.89479 0.65841 0.0
C28 C -0.04787 0.03672 0.67789 0.0
C29 C 0.01301 0.09264 0.55722 0.0
O30 O 0.0654 -0.00178 0.69808 0.0
O31 O 0.10883 0.01518 0.62167 0.0
O32 O 0.01268 0.06677 0.67297 0.0
O33 O 0.92867 -0.01655 0.66223 0.0
O34 O 0.04954 0.07596 0.57499 0.0
O35 O -0.04908 0.05485 0.56539 0.0
C36 C 0.79218 0.93889 0.55449 0.0
O37 O 0.84178 0.95108 0.52661 0.0
O38 O 0.79947 0.93547 0.60324 0.0
C39 C -0.04384 0.91396 0.54561 0.0
Zn40 Zn 0.26845 0.68216 0.26415 0.0
Zn41 Zn 0.23853 0.66521 0.4693 0.0
Zn42 Zn 0.26008 0.67675 0.36624 0.0
C43 C 0.3695 0.7461 0.43725 0.0
C44 C 0.19443 0.54603 0.44502 0.0
O45 O 0.21043 0.71814 0.33552 0.0
O46 O 0.21478 0.7129 0.25087 0.0
C47 C 0.39112 0.75088 0.29067 0.0
O48 O 0.35323 0.73135 0.39189 0.0
O49 O 0.32882 0.72557 0.47624 0.0
O50 O 0.19998 0.57397 0.48447 0.0
O51 O 0.21301 0.57675 0.39922 0.0
O52 O 0.36083 0.73805 0.25184 0.0
O53 O 0.36193 0.73284 0.33698 0.0
O54 O 0.21611 0.58026 0.34529 0.0
O55 O 0.23276 0.59256 0.25953 0.0
C56 C 0.21148 0.55732 0.30196 0.0
O57 O 0.20726 0.71852 0.38979 0.0
O58 O 0.18384 0.6957 0.47515 0.0
C59 C 0.19611 0.72647 0.29051 0.0
C60 C 0.18098 0.72026 0.4329 0.0
Zn61 Zn 0.63536 0.25646 0.95727 0.0
Zn62 Zn 0.6639 0.28431 0.75895 0.0
Zn63 Zn 0.64791 0.27211 0.85834 0.0
C64 C 0.705 0.40235 0.78433 0.0
C65 C 0.53701 0.19938 0.78766 0.0
O66 O 0.69518 0.22616 0.88638 0.0
O67 O 0.66313 0.20014 0.97035 0.0
C68 C 0.70861 0.38493 0.929 0.0
O69 O 0.69703 0.37387 0.82967 0.0
O70 O 0.68931 0.37213 0.74554 0.0
O71 O 0.57727 0.21722 0.74891 0.0
O72 O 0.5541 0.21819 0.83204 0.0
O73 O 0.69395 0.34545 0.9678 0.0
O74 O 0.6932 0.36651 0.88422 0.0
O75 O 0.54521 0.21827 0.88587 0.0
O76 O 0.54564 0.22286 0.97039 0.0
C77 C 0.51591 0.20775 0.93131 0.0
O78 O 0.70098 0.23182 0.83148 0.0
O79 O 0.7276 0.26555 0.74768 0.0
C80 C 0.69375 0.19984 0.93085 0.0
C81 C 0.72983 0.2364 0.78737 0.0
H82 H 0.01173 0.86517 0.13356 0.0
H83 H -0.00748 0.90906 0.28799 0.0
H84 H 0.05536 0.80816 0.16564 0.0
H85 H 0.03785 0.85268 0.3202 0.0
H86 H 0.09018 0.67142 0.24393 0.0
H87 H 0.02703 0.71288 0.22534 0.0
H88 H 0.14869 0.8749 0.303 0.0
H89 H 0.21297 0.83389 0.31978 0.0
C90 C 0.0154 0.86132 0.17459 0.0
C91 C -0.0018 0.89107 0.20828 0.0
C92 C 0.04059 0.82879 0.19299 0.0
C93 C 0.04995 0.826 0.24541 0.0
C94 C 0.03135 0.85441 0.27955 0.0
C95 C 0.00519 0.88631 0.26118 0.0
C96 C 0.1027 0.71544 0.2576 0.0
C97 C 0.15526 0.74899 0.28445 0.0
C98 C 0.06669 0.7391 0.24703 0.0
C99 C 0.08279 0.79691 0.26296 0.0
C100 C 0.13446 0.8296 0.29118 0.0
C101 C 0.17086 0.80606 0.30128 0.0
H102 H 0.22381 0.03928 0.6173 0.0
H103 H 0.13629 0.01652 0.77143 0.0
H104 H 0.32301 0.07552 0.65199 0.0
H105 H 0.23538 0.05256 0.8062 0.0
H106 H 0.44536 0.21566 0.81947 0.0
H107 H 0.33823 0.15872 0.79591 0.0
H108 H 0.37458 0.04124 0.71085 0.0
H109 H 0.48142 0.09794 0.73502 0.0
C110 C 0.22568 0.04114 0.65865 0.0
C111 C 0.17289 0.02566 0.6917 0.0
C112 C 0.2822 0.06152 0.67855 0.0
C113 C 0.28674 0.06703 0.73174 0.0
C114 C 0.23318 0.04926 0.765 0.0
C115 C 0.17659 0.02847 0.74514 0.0
C116 C 0.42956 0.17639 0.7971 0.0
C117 C 0.47064 0.16007 0.77984 0.0
C118 C 0.36853 0.14396 0.7835 0.0
C119 C 0.3483 0.09563 0.75154 0.0
C120 C 0.38919 0.07852 0.73528 0.0
C121 C 0.44997 0.11065 0.74921 0.0
H122 H -0.01524 0.21072 0.18816 0.0
H123 H 0.12741 0.19026 0.24423 0.0
H124 H 0.02562 0.30636 0.23043 0.0
H125 H 0.16836 0.28597 0.28634 0.0
H126 H 0.26963 0.50774 0.25988 0.0
H127 H 0.22223 0.39904 0.24285 0.0
H128 H 0.04486 0.34812 0.32126 0.0
H129 H 0.09336 0.45773 0.33925 0.0
C130 C 0.02457 0.22655 0.2098 0.0
C131 C 0.0536 0.19391 0.21244 0.0
C132 C 0.04739 0.28066 0.23448 0.0
C133 C 0.0999 0.30317 0.26175 0.0
C134 C 0.12784 0.26949 0.26547 0.0
C135 C 0.10467 0.21509 0.24121 0.0
C136 C 0.22093 0.47285 0.27453 0.0
C137 C 0.18479 0.49039 0.30057 0.0
C138 C 0.19391 0.41077 0.26506 0.0
C139 C 0.12989 0.36549 0.28051 0.0
C140 C 0.09429 0.38246 0.30878 0.0
C141 C 0.12185 0.44469 0.3192 0.0
H142 H 0.00285 0.14865 0.71478 0.0
H143 H 0.82447 -0.02041 0.69645 0.0
H144 H -0.05061 0.19404 0.75049 0.0
H145 H 0.77038 0.02614 0.7312 0.0
H146 H 0.83982 0.2846 0.72845 0.0
H147 H 0.89205 0.23231 0.70847 0.0
H148 H 0.74909 0.06746 0.81078 0.0
H149 H 0.69594 0.12025 0.83025 0.0
C150 C -0.04797 0.12107 0.71852 0.0
C151 C 0.91774 0.06099 0.70209 0.0
C152 C 0.92145 0.14717 0.73892 0.0
C153 C 0.85579 0.11397 0.74311 0.0
C154 C 0.82108 0.05268 0.72863 0.0
C155 C 0.85192 0.02633 0.70824 0.0
C156 C 0.82004 0.23752 0.74723 0.0
C157 C 0.76442 0.20664 0.7813 0.0
C158 C 0.85002 0.20762 0.73598 0.0
C159 C 0.82475 0.14582 0.75819 0.0
C160 C 0.76938 0.11499 0.79293 0.0
C161 C 0.73943 0.14529 0.80448 0.0
H162 H 0.74364 0.79561 0.19732 0.0
H163 H 0.79595 -0.0169 0.21972 0.0
H164 H 0.63648 0.7534 0.23407 0.0
H165 H 0.68867 0.9414 0.25425 0.0
H166 H 0.49023 0.84411 0.33622 0.0
H167 H 0.60107 0.88086 0.31956 0.0
H168 H 0.55312 0.75394 0.20268 0.0
H169 H 0.44366 0.71531 0.22183 0.0
C170 C 0.73243 0.82776 0.21036 0.0
C171 C 0.77825 0.89274 0.20496 0.0
C172 C 0.67088 0.80368 0.23118 0.0
C173 C 0.65347 0.8441 0.24632 0.0
C174 C 0.7002 0.90872 0.24343 0.0
C175 C 0.76186 0.9327 0.22322 0.0
C176 C 0.50373 0.82336 0.308 0.0
C177 C 0.4585 0.77613 0.28113 0.0
C178 C 0.56712 0.8448 0.29788 0.0
C179 C 0.58616 0.81975 0.26018 0.0
C180 C 0.54041 0.77313 0.23299 0.0
C181 C 0.4776 0.75163 0.24339 0.0
H182 H 0.77037 0.76841 0.69836 0.0
H183 H -0.04615 0.80053 0.69551 0.0
H184 H 0.72253 0.66011 0.73623 0.0
H185 H 0.906 0.6921 0.73172 0.0
H186 H 0.80562 0.4998 0.82371 0.0
H187 H 0.84922 0.61226 0.80475 0.0
H188 H 0.7059 0.56773 0.70417 0.0
H189 H 0.6615 0.45633 0.725 0.0
C190 C 0.80053 0.75252 0.70597 0.0
C191 C 0.86587 0.79303 0.6934 0.0
C192 C 0.77311 0.69036 0.72753 0.0
C193 C 0.81036 0.66715 0.73663 0.0
C194 C 0.87588 0.70845 0.72586 0.0
C195 C 0.90331 0.77065 0.70463 0.0
C196 C 0.78294 0.51443 0.79854 0.0
C197 C 0.72979 0.46974 0.77643 0.0
C198 C 0.80812 0.57866 0.78721 0.0
C199 C 0.78093 0.59912 0.75303 0.0
C200 C 0.72733 0.55386 0.73147 0.0
C201 C 0.70221 0.49001 0.74296 0.0
H202 H 0.90827 0.81276 0.49262 0.0
H203 H 0.08259 -0.03406 0.53658 0.0
H204 H -0.03712 0.77069 0.45252 0.0
H205 H 0.13714 0.92156 0.49982 0.0
H206 H 0.22905 0.84446 0.41072 0.0
H207 H 0.17504 0.89666 0.42696 0.0
H208 H 0.00479 0.71585 0.48307 0.0
H209 H 0.05822 0.66455 0.46375 0.0
C210 C -0.04159 0.8373 0.49392 0.0
C211 C -0.00888 0.89186 0.51872 0.0
C212 C -0.01029 0.81299 0.47117 0.0
C213 C 0.05429 0.84189 0.4737 0.0
C214 C 0.08748 0.89812 0.49674 0.0
C215 C 0.05619 0.92318 0.51858 0.0
C216 C 0.17943 0.81616 0.4246 0.0
C217 C 0.14695 0.75064 0.43454 0.0
C218 C 0.14873 0.84594 0.43478 0.0
C219 C 0.08544 0.81061 0.45643 0.0
C220 C 0.05301 0.74467 0.46532 0.0
C221 C 0.08353 0.7151 0.45453 0.0
H222 H 0.11544 -0.03224 1.01372 0.0
H223 H 0.15785 0.15423 1.0235 0.0
H224 H 0.22248 0.01261 0.97646 0.0
H225 H 0.26452 0.19954 0.98355 0.0
H226 H 0.46425 0.25271 0.99075 0.0
H227 H 0.35425 0.21159 1.01123 0.0
H228 H 0.30546 0.0686 0.90905 0.0
H229 H 0.41674 0.10792 0.89177 0.0
C230 C 0.14728 0.0185 1.00676 0.0
C231 C 0.12837 0.05748 1.02227 0.0
C232 C 0.2088 0.04431 0.98495 0.0
C233 C 0.25279 0.10984 0.97745 0.0
C234 C 0.23255 0.14882 0.99001 0.0
C235 C 0.17125 0.12294 1.01266 0.0
C236 C 0.42996 0.21264 0.97245 0.0
C237 C 0.44888 0.18407 0.93895 0.0
C238 C 0.36675 0.18947 0.98363 0.0
C239 C 0.32047 0.13706 0.96141 0.0
C240 C 0.33961 0.10883 0.92717 0.0
C241 C 0.4033 0.13178 0.91653 0.0
H242 H -0.04874 0.14225 0.51951 0.0
H243 H 0.13813 0.18836 0.53416 0.0
H244 H -0.00482 0.25007 0.48407 0.0
H245 H 0.18202 0.29715 0.49822 0.0
H246 H 0.09393 0.4597 0.51221 0.0
H247 H 0.05095 0.34808 0.53116 0.0
H248 H 0.18964 0.36717 0.41541 0.0
H249 H 0.23313 0.4799 0.39661 0.0
C250 C 0.00181 0.1751 0.51469 0.0
C251 C 0.04115 0.15672 0.53042 0.0
C252 C 0.02685 0.23694 0.49432 0.0
C253 C 0.09184 0.28191 0.48884 0.0
C254 C 0.13168 0.26316 0.50186 0.0
C255 C 0.10652 0.20105 0.5227 0.0
C256 C 0.11474 0.43987 0.49042 0.0
C257 C 0.16615 0.47789 0.45251 0.0
C258 C 0.09005 0.37605 0.50106 0.0
C259 C 0.11686 0.34905 0.47458 0.0
C260 C 0.16824 0.38697 0.43637 0.0
C261 C 0.19257 0.45103 0.42525 0.0
H262 H 0.88328 0.07198 1.09588 0.0
H263 H 0.92431 0.04593 0.93992 0.0
H264 H 0.83055 0.11953 1.06295 0.0
H265 H 0.87125 0.094 0.90685 0.0
H266 H 0.80896 0.23908 0.88149 0.0
H267 H 0.87394 0.2001 0.90335 0.0
H268 H 0.7266 0.06255 1.02124 0.0
H269 H 0.66149 0.09983 0.9985 0.0
C270 C 0.88217 0.07761 1.05445 0.0
C271 C 0.9072 0.05463 1.0205 0.0
C272 C 0.85165 0.10444 1.03566 0.0
C273 C 0.84599 0.10932 0.98252 0.0
C274 C 0.87492 0.09055 0.948 0.0
C275 C 0.90513 0.06309 0.96692 0.0
C276 C 0.78992 0.19922 0.91086 0.0
C277 C 0.72996 0.17187 0.93787 0.0
C278 C 0.82723 0.17742 0.92368 0.0
C279 C 0.80551 0.12911 0.96452 0.0
C280 C 0.74482 0.1006 0.99019 0.0
C281 C 0.70748 0.1217 0.977 0.0
H282 H 0.68293 0.90755 0.60839 0.0
H283 H 0.77104 0.93436 0.45362 0.0
H284 H 0.58316 0.8695 0.57417 0.0
H285 H 0.67146 0.89678 0.41925 0.0
H286 H 0.46326 0.73369 0.40285 0.0
H287 H 0.57021 0.79107 0.42702 0.0
H288 H 0.5294 0.90177 0.51769 0.0
H289 H 0.42275 0.84433 0.49331 0.0
C290 C 0.68106 0.90624 0.567 0.0
C291 C 0.73423 0.92337 0.53364 0.0
C292 C 0.62418 0.88477 0.54735 0.0
C293 C 0.61964 0.87993 0.49407 0.0
C294 C 0.67356 0.89939 0.46053 0.0
C295 C 0.73047 0.92114 0.48016 0.0
C296 C 0.47799 0.77142 0.42682 0.0
C297 C 0.43568 0.78554 0.44569 0.0
C298 C 0.53893 0.80417 0.44071 0.0
C299 C 0.55792 0.85075 0.47435 0.0
C300 C 0.51579 0.86576 0.49208 0.0
C301 C 0.45508 0.83321 0.47802 0.0
H302 H 0.94399 0.7558 1.02841 0.0
H303 H 0.76599 0.73041 1.01216 0.0
H304 H 0.90859 0.65887 0.99076 0.0
H305 H 0.72866 0.63108 0.97705 0.0
H306 H 0.68872 0.47136 0.8866 0.0
H307 H 0.73534 0.57894 0.9076 0.0
H308 H 0.84015 0.55122 1.01685 0.0
H309 H 0.797 0.44629 0.99295 0.0
C310 C 0.89698 0.729 1.01708 0.0
C311 C 0.85735 0.7499 1.0236 0.0
C312 C 0.87654 0.67333 0.99567 0.0
C313 C 0.81545 0.63659 0.98136 0.0
C314 C 0.77624 0.65845 0.98699 0.0
C315 C 0.79725 0.71493 1.00758 0.0
C316 C 0.72346 0.48948 0.91368 0.0
C317 C 0.74068 0.45148 0.93716 0.0
C318 C 0.74928 0.55055 0.92648 0.0
C319 C 0.79165 0.57398 0.96394 0.0
C320 C 0.80892 0.53561 0.98699 0.0
C321 C 0.78382 0.47519 0.97366 0.0
loop_
_geom_bond_atom_site_label_1
_geom_bond_atom_site_label_2
_geom_bond_distance
_geom_bond_site_symmetry_2
_ccdc_geom_bond_type
Tb0 O3 2.453 1_545 S
Tb0 O4 2.596 1_545 S
Tb0 O5 2.354 1_554 S
Tb0 O13 2.343 1_454 S
Tb0 O15 2.353 1_455 S
Tb0 O17 2.427 . S
Tb0 O18 2.513 . S
C1 O5 1.273 . S
C1 O7 1.263 . S
Tb2 O4 2.343 1_656 S
Tb2 O7 2.353 1_665 S
Tb2 O10 2.427 . S
Tb2 O11 2.513 . S
Tb2 O12 2.453 1_565 S
Tb2 O13 2.596 1_565 S
Tb2 O14 2.374 1_556 S
O3 Tb0 2.453 1_565 S
O3 C19 1.245 . S
O4 Tb0 2.596 1_565 S
O4 Tb2 2.343 1_454 S
O4 C19 1.259 . S
O5 Tb0 2.354 1_556 S
O5 C1 1.273 . S
C6 O10 1.275 . S
C6 O11 1.246 . S
O7 C1 1.263 . S
O7 Tb2 2.353 1_445 S
C8 O12 1.245 . S
C8 O13 1.259 . S
C9 O14 1.250 . S
C9 O15 1.263 1_565 S
O10 Tb2 2.427 . S
O10 C6 1.275 . S
O11 Tb2 2.513 . S
O11 C6 1.246 . S
O12 Tb2 2.453 1_545 S
O12 C8 1.245 . S
O13 Tb0 2.343 1_656 S
O13 Tb2 2.596 1_545 S
O13 C8 1.259 . S
O14 Tb2 2.374 1_554 S
O14 C9 1.250 . S
O15 Tb0 2.353 1_655 S
O15 C9 1.263 1_545 S
C16 O17 1.275 . S
C16 O18 1.246 . S
O17 Tb0 2.427 . S
O17 C16 1.275 . S
O18 Tb0 2.513 . S
O18 C16 1.246 . S
C19 O3 1.245 . S
C19 O4 1.259 . S
Tb20 O23 2.453 1_655 S
Tb20 O24 2.596 1_665 S
Tb20 O25 2.374 . S
Tb20 O33 2.343 1_565 S
Tb20 O35 2.353 1_665 S
Tb20 O37 2.427 1_565 S
Tb20 O38 2.513 . S
C21 O25 1.251 . S
C21 O27 1.263 . S
Tb22 O24 2.343 . S
Tb22 O27 2.353 1_445 S
Tb22 O30 2.427 . S
Tb22 O31 2.513 . S
Tb22 O32 2.453 1_455 S
Tb22 O33 2.596 1_455 S
Tb22 O34 2.374 . S
O23 Tb20 2.453 1_455 S
O23 C39 1.245 . S
O24 Tb20 2.596 1_445 S
O24 Tb22 2.343 . S
O24 C39 1.259 1_545 S
O25 Tb20 2.374 . S
O25 C21 1.251 . S
C26 O30 1.275 . S
C26 O31 1.246 . S
O27 C21 1.263 . S
O27 Tb22 2.353 1_665 S
C28 O32 1.245 . S
C28 O33 1.259 . S
C29 O34 1.250 . S
C29 O35 1.263 . S
O30 Tb22 2.427 . S
O30 C26 1.275 . S
O31 Tb22 2.513 . S
O31 C26 1.246 . S
O32 Tb22 2.453 1_655 S
O32 C28 1.245 . S
O33 Tb20 2.343 1_545 S
O33 Tb22 2.596 1_655 S
O33 C28 1.259 . S
O34 Tb22 2.374 . S
O34 C29 1.250 . S
O35 Tb20 2.353 1_445 S
O35 C29 1.263 . S
C36 O37 1.275 1_565 S
C36 O38 1.246 . S
O37 Tb20 2.427 1_545 S
O37 C36 1.275 1_545 S
O38 Tb20 2.513 . S
O38 C36 1.246 . S
C39 O23 1.245 . S
C39 O24 1.259 1_565 S
Zn40 O46 1.920 . S
Zn40 O52 1.898 . S
Zn40 O55 1.905 . S
Zn41 O49 1.905 . S
Zn41 O50 1.898 . S
Zn41 O58 1.920 . S
Zn42 O45 2.080 . S
Zn42 O48 2.114 . S
Zn42 O51 2.120 . S
Zn42 O53 2.120 . S
Zn42 O54 2.114 . S
Zn42 O57 2.080 . S
C43 O48 1.166 . S
C43 O49 1.182 . S
C44 O50 1.167 . S
C44 O51 1.299 . S
O45 Zn42 2.080 . S
O45 C59 1.305 . S
O46 Zn40 1.920 . S
O46 C59 1.234 . S
C47 O52 1.167 . S
C47 O53 1.299 . S
O48 Zn42 2.114 . S
O48 C43 1.166 . S
O49 Zn41 1.905 . S
O49 C43 1.182 . S
O50 Zn41 1.898 . S
O50 C44 1.167 . S
O51 Zn42 2.120 . S
O51 C44 1.299 . S
O52 Zn40 1.898 . S
O52 C47 1.167 . S
O53 Zn42 2.120 . S
O53 C47 1.299 . S
O54 Zn42 2.114 . S
O54 C56 1.166 . S
O55 Zn40 1.905 . S
O55 C56 1.182 . S
C56 O54 1.166 . S
C56 O55 1.182 . S
O57 Zn42 2.080 . S
O57 C60 1.305 . S
O58 Zn41 1.920 . S
O58 C60 1.234 . S
C59 O45 1.305 . S
C59 O46 1.234 . S
C60 O57 1.305 . S
C60 O58 1.234 . S
Zn61 O67 1.920 . S
Zn61 O73 1.898 . S
Zn61 O76 1.905 . S
Zn62 O70 1.905 . S
Zn62 O71 1.898 . S
Zn62 O79 1.920 . S
Zn63 O66 2.080 . S
Zn63 O69 2.114 . S
Zn63 O72 2.120 . S
Zn63 O74 2.120 . S
Zn63 O75 2.114 . S
Zn63 O78 2.080 . S
C64 O69 1.166 . S
C64 O70 1.182 . S
C65 O71 1.167 . S
C65 O72 1.299 . S
O66 Zn63 2.080 . S
O66 C80 1.305 . S
O67 Zn61 1.920 . S
O67 C80 1.234 . S
C68 O73 1.167 . S
C68 O74 1.299 . S
O69 Zn63 2.114 . S
O69 C64 1.166 . S
O70 Zn62 1.905 . S
O70 C64 1.182 . S
O71 Zn62 1.898 . S
O71 C65 1.167 . S
O72 Zn63 2.120 . S
O72 C65 1.299 . S
O73 Zn61 1.898 . S
O73 C68 1.167 . S
O74 Zn63 2.120 . S
O74 C68 1.299 . S
O75 Zn63 2.114 . S
O75 C77 1.166 . S
O76 Zn61 1.905 . S
O76 C77 1.182 . S
C77 O75 1.166 . S
C77 O76 1.182 . S
O78 Zn63 2.080 . S
O78 C81 1.305 . S
O79 Zn62 1.920 . S
O79 C81 1.234 . S
C80 O66 1.305 . S
C80 O67 1.234 . S
C81 O78 1.305 . S
C81 O79 1.234 . S
H82 C90 0.950 1_545 S
H83 C95 0.950 1_655 S
H84 C92 0.950 . S
H85 C94 0.950 . S
H86 C96 0.950 . S
H87 C98 0.950 . S
H88 C100 0.950 . S
H89 C101 0.950 . S
C90 H82 0.950 1_565 S
C90 C91 1.386 . S
C90 C92 1.391 . S
C91 C90 1.386 . S
C91 C95 1.393 . S
C92 H84 0.950 . S
C92 C90 1.391 . S
C92 C93 1.400 . S
C93 C92 1.400 . S
C93 C94 1.398 . S
C93 C99 1.491 . S
C94 H85 0.950 . S
C94 C93 1.398 . S
C94 C95 1.391 . S
C95 H83 0.950 1_455 S
C95 C91 1.393 . S
C95 C94 1.391 . S
C96 H86 0.950 . S
C96 C97 1.386 . S
C96 C98 1.391 . S
C97 C96 1.386 . S
C97 C101 1.393 . S
C98 H87 0.950 . S
C98 C96 1.391 . S
C98 C99 1.400 . S
C99 C93 1.491 . S
C99 C98 1.400 . S
C99 C100 1.398 . S
C100 H88 0.950 . S
C100 C99 1.398 . S
C100 C101 1.391 . S
C101 H89 0.950 . S
C101 C97 1.393 . S
C101 C100 1.391 . S
H102 C110 0.950 . S
H103 C115 0.950 . S
H104 C112 0.950 . S
H105 C114 0.950 . S
H106 C116 0.950 . S
H107 C118 0.950 . S
H108 C120 0.950 . S
H109 C121 0.950 . S
C110 H102 0.950 . S
C110 C111 1.386 . S
C110 C112 1.391 . S
C111 C110 1.386 . S
C111 C115 1.393 . S
C112 H104 0.950 . S
C112 C110 1.391 . S
C112 C113 1.400 . S
C113 C112 1.400 . S
C113 C114 1.398 . S
C113 C119 1.491 . S
C114 H105 0.950 . S
C114 C113 1.398 . S
C114 C115 1.391 . S
C115 H103 0.950 . S
C115 C111 1.393 . S
C115 C114 1.391 . S
C116 H106 0.950 . S
C116 C117 1.386 . S
C116 C118 1.391 . S
C117 C116 1.386 . S
C117 C121 1.393 . S
C118 H107 0.950 . S
C118 C116 1.391 . S
C118 C119 1.400 . S
C119 C113 1.491 . S
C119 C118 1.400 . S
C119 C120 1.398 . S
C120 H108 0.950 . S
C120 C119 1.398 . S
C120 C121 1.391 . S
C121 H109 0.950 . S
C121 C117 1.393 . S
C121 C120 1.391 . S
H122 C130 0.950 . S
H123 C135 0.950 . S
H124 C132 0.950 . S
H125 C134 0.950 . S
H126 C136 0.950 . S
H127 C138 0.950 . S
H128 C140 0.950 . S
H129 C141 0.950 . S
C130 H122 0.950 . S
C130 C131 1.386 . S
C130 C132 1.391 . S
C131 C130 1.386 . S
C131 C135 1.393 . S
C132 H124 0.950 . S
C132 C130 1.391 . S
C132 C133 1.400 . S
C133 C132 1.400 . S
C133 C134 1.398 . S
C133 C139 1.491 . S
C134 H125 0.950 . S
C134 C133 1.398 . S
C134 C135 1.391 . S
C135 H123 0.950 . S
C135 C131 1.393 . S
C135 C134 1.391 . S
C136 H126 0.950 . S
C136 C137 1.386 . S
C136 C138 1.391 . S
C137 C136 1.386 . S
C137 C141 1.393 . S
C138 H127 0.950 . S
C138 C136 1.391 . S
C138 C139 1.400 . S
C139 C133 1.491 . S
C139 C138 1.400 . S
C139 C140 1.398 . S
C140 H128 0.950 . S
C140 C139 1.398 . S
C140 C141 1.391 . S
C141 H129 0.950 . S
C141 C137 1.393 . S
C141 C140 1.391 . S
H142 C150 0.950 . S
H143 C155 0.950 . S
H144 C152 0.950 . S
H145 C154 0.950 . S
H146 C156 0.950 . S
H147 C158 0.950 . S
H148 C160 0.950 . S
H149 C161 0.950 . S
C150 H142 0.950 . S
C150 C151 1.386 . S
C150 C152 1.391 . S
C151 C150 1.386 . S
C151 C155 1.393 . S
C152 H144 0.950 . S
C152 C150 1.391 . S
C152 C153 1.400 . S
C153 C152 1.400 . S
C153 C154 1.398 . S
C153 C159 1.491 . S
C154 H145 0.950 . S
C154 C153 1.398 . S
C154 C155 1.391 . S
C155 H143 0.950 . S
C155 C151 1.393 . S
C155 C154 1.391 . S
C156 H146 0.950 . S
C156 C157 1.386 . S
C156 C158 1.391 . S
C157 C156 1.386 . S
C157 C161 1.393 . S
C158 H147 0.950 . S
C158 C156 1.391 . S
C158 C159 1.400 . S
C159 C153 1.491 . S
C159 C158 1.400 . S
C159 C160 1.398 . S
C160 H148 0.950 . S
C160 C159 1.398 . S
C160 C161 1.391 . S
C161 H149 0.950 . S
C161 C157 1.393 . S
C161 C160 1.391 . S
H162 C170 0.950 . S
H163 C175 0.950 . S
H164 C172 0.950 . S
H165 C174 0.950 . S
H166 C176 0.950 . S
H167 C178 0.950 . S
H168 C180 0.950 . S
H169 C181 0.950 . S
C170 H162 0.950 . S
C170 C171 1.386 . S
C170 C172 1.391 . S
C171 C170 1.386 . S
C171 C175 1.393 . S
C172 H164 0.950 . S
C172 C170 1.391 . S
C172 C173 1.400 . S
C173 C172 1.400 . S
C173 C174 1.398 . S
C173 C179 1.491 . S
C174 H165 0.950 . S
C174 C173 1.398 . S
C174 C175 1.391 . S
C175 H163 0.950 . S
C175 C171 1.393 . S
C175 C174 1.391 . S
C176 H166 0.950 . S
C176 C177 1.386 . S
C176 C178 1.391 . S
C177 C176 1.386 . S
C177 C181 1.393 . S
C178 H167 0.950 . S
C178 C176 1.391 . S
C178 C179 1.400 . S
C179 C173 1.491 . S
C179 C178 1.400 . S
C179 C180 1.398 . S
C180 H168 0.950 . S
C180 C179 1.398 . S
C180 C181 1.391 . S
C181 H169 0.950 . S
C181 C177 1.393 . S
C181 C180 1.391 . S
H182 C190 0.950 . S
H183 C195 0.950 . S
H184 C192 0.950 . S
H185 C194 0.950 . S
H186 C196 0.950 . S
H187 C198 0.950 . S
H188 C200 0.950 . S
H189 C201 0.950 . S
C190 H182 0.950 . S
C190 C191 1.386 . S
C190 C192 1.391 . S
C191 C190 1.386 . S
C191 C195 1.393 . S
C192 H184 0.950 . S
C192 C190 1.391 . S
C192 C193 1.400 . S
C193 C192 1.400 . S
C193 C194 1.398 . S
C193 C199 1.491 . S
C194 H185 0.950 . S
C194 C193 1.398 . S
C194 C195 1.391 . S
C195 H183 0.950 . S
C195 C191 1.393 . S
C195 C194 1.391 . S
C196 H186 0.950 . S
C196 C197 1.386 . S
C196 C198 1.391 . S
C197 C196 1.386 . S
C197 C201 1.393 . S
C198 H187 0.950 . S
C198 C196 1.391 . S
C198 C199 1.400 . S
C199 C193 1.491 . S
C199 C198 1.400 . S
C199 C200 1.398 . S
C200 H188 0.950 . S
C200 C199 1.398 . S
C200 C201 1.391 . S
C201 H189 0.950 . S
C201 C197 1.393 . S
C201 C200 1.391 . S
H202 C210 0.950 . S
H203 C215 0.950 . S
H204 C212 0.950 . S
H205 C214 0.950 . S
H206 C216 0.950 . S
H207 C218 0.950 . S
H208 C220 0.950 . S
H209 C221 0.950 . S
C210 H202 0.950 . S
C210 C211 1.386 . S
C210 C212 1.391 . S
C211 C210 1.386 . S
C211 C215 1.393 . S
C212 H204 0.950 . S
C212 C210 1.391 . S
C212 C213 1.400 . S
C213 C212 1.400 . S
C213 C214 1.398 . S
C213 C219 1.491 . S
C214 H205 0.950 . S
C214 C213 1.398 . S
C214 C215 1.391 . S
C215 H203 0.950 . S
C215 C211 1.393 . S
C215 C214 1.391 . S
C216 H206 0.950 . S
C216 C217 1.386 . S
C216 C218 1.391 . S
C217 C216 1.386 . S
C217 C221 1.393 . S
C218 H207 0.950 . S
C218 C216 1.391 . S
C218 C219 1.400 . S
C219 C213 1.491 . S
C219 C218 1.400 . S
C219 C220 1.398 . S
C220 H208 0.950 . S
C220 C219 1.398 . S
C220 C221 1.391 . S
C221 H209 0.950 . S
C221 C217 1.393 . S
C221 C220 1.391 . S
H222 C230 0.950 . S
H223 C235 0.950 . S
H224 C232 0.950 . S
H225 C234 0.950 . S
H226 C236 0.950 . S
H227 C238 0.950 . S
H228 C240 0.950 . S
H229 C241 0.950 . S
C230 H222 0.950 . S
C230 C231 1.386 . S
C230 C232 1.391 . S
C231 C230 1.386 . S
C231 C235 1.393 . S
C232 H224 0.950 . S
C232 C230 1.391 . S
C232 C233 1.400 . S
C233 C232 1.400 . S
C233 C234 1.398 . S
C233 C239 1.491 . S
C234 H225 0.950 . S
C234 C233 1.398 . S
C234 C235 1.391 . S
C235 H223 0.950 . S
C235 C231 1.393 . S
C235 C234 1.391 . S
C236 H226 0.950 . S
C236 C237 1.386 . S
C236 C238 1.391 . S
C237 C236 1.386 . S
C237 C241 1.393 . S
C238 H227 0.950 . S
C238 C236 1.391 . S
C238 C239 1.400 . S
C239 C233 1.491 . S
C239 C238 1.400 . S
C239 C240 1.398 . S
C240 H228 0.950 . S
C240 C239 1.398 . S
C240 C241 1.391 . S
C241 H229 0.950 . S
C241 C237 1.393 . S
C241 C240 1.391 . S
H242 C250 0.950 . S
H243 C255 0.950 . S
H244 C252 0.950 . S
H245 C254 0.950 . S
H246 C256 0.950 . S
H247 C258 0.950 . S
H248 C260 0.950 . S
H249 C261 0.950 . S
C250 H242 0.950 . S
C250 C251 1.386 . S
C250 C252 1.391 . S
C251 C250 1.386 . S
C251 C255 1.393 . S
C252 H244 0.950 . S
C252 C250 1.391 . S
C252 C253 1.400 . S
C253 C252 1.400 . S
C253 C254 1.398 . S
C253 C259 1.491 . S
C254 H245 0.950 . S
C254 C253 1.398 . S
C254 C255 1.391 . S
C255 H243 0.950 . S
C255 C251 1.393 . S
C255 C254 1.391 . S
C256 H246 0.950 . S
C256 C257 1.386 . S
C256 C258 1.391 . S
C257 C256 1.386 . S
C257 C261 1.393 . S
C258 H247 0.950 . S
C258 C256 1.391 . S
C258 C259 1.400 . S
C259 C253 1.491 . S
C259 C258 1.400 . S
C259 C260 1.398 . S
C260 H248 0.950 . S
C260 C259 1.398 . S
C260 C261 1.391 . S
C261 H249 0.950 . S
C261 C257 1.393 . S
C261 C260 1.391 . S
H262 C270 0.950 . S
H263 C275 0.950 1_455 S
H264 C272 0.950 . S
H265 C274 0.950 . S
H266 C276 0.950 . S
H267 C278 0.950 . S
H268 C280 0.950 . S
H269 C281 0.950 . S
C270 H262 0.950 . S
C270 C271 1.386 . S
C270 C272 1.391 . S
C271 C270 1.386 . S
C271 C275 1.393 . S
C272 H264 0.950 . S
C272 C270 1.391 . S
C272 C273 1.400 . S
C273 C272 1.400 . S
C273 C274 1.398 . S
C273 C279 1.491 . S
C274 H265 0.950 . S
C274 C273 1.398 . S
C274 C275 1.391 . S
C275 H263 0.950 1_655 S
C275 C271 1.393 . S
C275 C274 1.391 . S
C276 H266 0.950 . S
C276 C277 1.386 . S
C276 C278 1.391 . S
C277 C276 1.386 . S
C277 C281 1.393 . S
C278 H267 0.950 . S
C278 C276 1.391 . S
C278 C279 1.400 . S
C279 C273 1.491 . S
C279 C278 1.400 . S
C279 C280 1.398 . S
C280 H268 0.950 . S
C280 C279 1.398 . S
C280 C281 1.391 . S
C281 H269 0.950 . S
C281 C277 1.393 . S
C281 C280 1.391 . S
H282 C290 0.950 . S
H283 C295 0.950 . S
H284 C292 0.950 . S
H285 C294 0.950 . S
H286 C296 0.950 . S
H287 C298 0.950 . S
H288 C300 0.950 . S
H289 C301 0.950 . S
C290 H282 0.950 . S
C290 C291 1.386 . S
C290 C292 1.391 . S
C291 C290 1.386 . S
C291 C295 1.393 . S
C292 H284 0.950 . S
C292 C290 1.391 . S
C292 C293 1.400 . S
C293 C292 1.400 . S
C293 C294 1.398 . S
C293 C299 1.491 . S
C294 H285 0.950 . S
C294 C293 1.398 . S
C294 C295 1.391 . S
C295 H283 0.950 . S
C295 C291 1.393 . S
C295 C294 1.391 . S
C296 H286 0.950 . S
C296 C297 1.386 . S
C296 C298 1.391 . S
C297 C296 1.386 . S
C297 C301 1.393 . S
C298 H287 0.950 . S
C298 C296 1.391 . S
C298 C299 1.400 . S
C299 C293 1.491 . S
C299 C298 1.400 . S
C299 C300 1.398 . S
C300 H288 0.950 . S
C300 C299 1.398 . S
C300 C301 1.391 . S
C301 H289 0.950 . S
C301 C297 1.393 . S
C301 C300 1.391 . S
H302 C310 0.950 1_455 S
H303 C315 0.950 . S
H304 C312 0.950 . S
H305 C314 0.950 . S
H306 C316 0.950 . S
H307 C318 0.950 . S
H308 C320 0.950 . S
H309 C321 0.950 . S
C310 H302 0.950 1_655 S
C310 C311 1.386 . S
C310 C312 1.391 . S
C311 C310 1.386 . S
C311 C315 1.393 . S
C312 H304 0.950 . S
C312 C310 1.391 . S
C312 C313 1.400 . S
C313 C312 1.400 . S
C313 C314 1.398 . S
C313 C319 1.491 . S
C314 H305 0.950 . S
C314 C313 1.398 . S
C314 C315 1.391 . S
C315 H303 0.950 . S
C315 C311 1.393 . S
C315 C314 1.391 . S
C316 H306 0.950 . S
C316 C317 1.386 . S
C316 C318 1.391 . S
C317 C316 1.386 . S
C317 C321 1.393 . S
C318 H307 0.950 . S
C318 C316 1.391 . S
C318 C319 1.400 . S
C319 C313 1.491 . S
C319 C318 1.400 . S
C319 C320 1.398 . S
C320 H308 0.950 . S
C320 C319 1.398 . S
C320 C321 1.391 . S
C321 H309 0.950 . S
C321 C317 1.393 . S
C321 C320 1.391 . S
C91 C19 1.472 . S
C97 C59 1.430 . S
C111 C26 1.243 . S
C117 C65 1.176 . S
C131 C16 1.186 . S
C137 C56 1.144 . S
C151 C28 1.517 . S
C157 C81 1.494 . S
C171 C9 1.823 . S
C177 C47 1.680 . S
C197 C64 1.586 . S
C191 C21 1.661 . S
C211 C39 1.484 . S
C217 C60 1.437 . S
C237 C77 1.566 . S
C231 C1 1.665 . S
C257 C44 1.657 . S
C251 C29 1.827 . S
C277 C80 1.528 . S
C271 C8 1.549 . S
C297 C43 1.153 . S
C291 C36 1.198 . S
C317 C68 1.204 . S
C311 C6 1.266 . S
