# Generated by pormake.
# Topology cor, (4,6)-cn, num edge types: 1
# Building blocks:
#     Node 0, Type 0, BuildingBlock: ESEHIV_clean_sbu_0, # of connection points: 4
#     Node 1, Type 0, BuildingBlock: ESEHIV_clean_sbu_0, # of connection points: 4
#     Node 2, Type 0, BuildingBlock: ESEHIV_clean_sbu_0, # of connection points: 4
#     Node 3, Type 0, BuildingBlock: ESEHIV_clean_sbu_0, # of connection points: 4
#     Node 4, Type 0, BuildingBlock: ESEHIV_clean_sbu_0, # of connection points: 4
#     Node 5, Type 0, BuildingBlock: ESEHIV_clean_sbu_0, # of connection points: 4
#     Node 6, Type 0, BuildingBlock: ESEHIV_clean_sbu_0, # of connection points: 4
#     Node 7, Type 0, BuildingBlock: ESEHIV_clean_sbu_0, # of connection points: 4
#     Node 8, Type 0, BuildingBlock: ESEHIV_clean_sbu_0, # of connection points: 4
#     Node 9, Type 0, BuildingBlock: ESEHIV_clean_sbu_0, # of connection points: 4
#     Node 10, Type 0, BuildingBlock: ESEHIV_clean_sbu_0, # of connection points: 4
#     Node 11, Type 0, BuildingBlock: ESEHIV_clean_sbu_0, # of connection points: 4
#     Node 12, Type 0, BuildingBlock: ESEHIV_clean_sbu_0, # of connection points: 4
#     Node 13, Type 0, BuildingBlock: ESEHIV_clean_sbu_0, # of connection points: 4
#     Node 14, Type 0, BuildingBlock: ESEHIV_clean_sbu_0, # of connection points: 4
#     Node 15, Type 0, BuildingBlock: ESEHIV_clean_sbu_0, # of connection points: 4
#     Node 16, Type 0, BuildingBlock: ESEHIV_clean_sbu_0, # of connection points: 4
#     Node 17, Type 0, BuildingBlock: ESEHIV_clean_sbu_0, # of connection points: 4
#     Node 18, Type 1, BuildingBlock: MIDCAF_clean_sbu_0, # of connection points: 6
#     Node 19, Type 1, BuildingBlock: MIDCAF_clean_sbu_0, # of connection points: 6
#     Node 20, Type 1, BuildingBlock: MIDCAF_clean_sbu_0, # of connection points: 6
#     Node 21, Type 1, BuildingBlock: MIDCAF_clean_sbu_0, # of connection points: 6
#     Node 22, Type 1, BuildingBlock: MIDCAF_clean_sbu_0, # of connection points: 6
#     Node 23, Type 1, BuildingBlock: MIDCAF_clean_sbu_0, # of connection points: 6
#     Node 24, Type 1, BuildingBlock: MIDCAF_clean_sbu_0, # of connection points: 6
#     Node 25, Type 1, BuildingBlock: MIDCAF_clean_sbu_0, # of connection points: 6
#     Node 26, Type 1, BuildingBlock: MIDCAF_clean_sbu_0, # of connection points: 6
#     Node 27, Type 1, BuildingBlock: MIDCAF_clean_sbu_0, # of connection points: 6
#     Node 28, Type 1, BuildingBlock: MIDCAF_clean_sbu_0, # of connection points: 6
#     Node 29, Type 1, BuildingBlock: MIDCAF_clean_sbu_0, # of connection points: 6
#     Edge 30, Type (0, 1), BuildingBlock: AJUNOK_clean_linker_0, # of connection points: 2
#     Edge 31, Type (0, 1), BuildingBlock: AJUNOK_clean_linker_0, # of connection points: 2
#     Edge 32, Type (0, 1), BuildingBlock: AJUNOK_clean_linker_0, # of connection points: 2
#     Edge 33, Type (0, 1), BuildingBlock: AJUNOK_clean_linker_0, # of connection points: 2
#     Edge 34, Type (0, 1), BuildingBlock: AJUNOK_clean_linker_0, # of connection points: 2
#     Edge 35, Type (0, 1), BuildingBlock: AJUNOK_clean_linker_0, # of connection points: 2
#     Edge 36, Type (0, 1), BuildingBlock: AJUNOK_clean_linker_0, # of connection points: 2
#     Edge 37, Type (0, 1), BuildingBlock: AJUNOK_clean_linker_0, # of connection points: 2
#     Edge 38, Type (0, 1), BuildingBlock: AJUNOK_clean_linker_0, # of connection points: 2
#     Edge 39, Type (0, 1), BuildingBlock: AJUNOK_clean_linker_0, # of connection points: 2
#     Edge 40, Type (0, 1), BuildingBlock: AJUNOK_clean_linker_0, # of connection points: 2
#     Edge 41, Type (0, 1), BuildingBlock: AJUNOK_clean_linker_0, # of connection points: 2
#     Edge 42, Type (0, 1), BuildingBlock: AJUNOK_clean_linker_0, # of connection points: 2
#     Edge 43, Type (0, 1), BuildingBlock: AJUNOK_clean_linker_0, # of connection points: 2
#     Edge 44, Type (0, 1), BuildingBlock: AJUNOK_clean_linker_0, # of connection points: 2
#     Edge 45, Type (0, 1), BuildingBlock: AJUNOK_clean_linker_0, # of connection points: 2
#     Edge 46, Type (0, 1), BuildingBlock: AJUNOK_clean_linker_0, # of connection points: 2
#     Edge 47, Type (0, 1), BuildingBlock: AJUNOK_clean_linker_0, # of connection points: 2
#     Edge 48, Type (0, 1), BuildingBlock: AJUNOK_clean_linker_0, # of connection points: 2
#     Edge 49, Type (0, 1), BuildingBlock: AJUNOK_clean_linker_0, # of connection points: 2
#     Edge 50, Type (0, 1), BuildingBlock: AJUNOK_clean_linker_0, # of connection points: 2
#     Edge 51, Type (0, 1), BuildingBlock: AJUNOK_clean_linker_0, # of connection points: 2
#     Edge 52, Type (0, 1), BuildingBlock: AJUNOK_clean_linker_0, # of connection points: 2
#     Edge 53, Type (0, 1), BuildingBlock: AJUNOK_clean_linker_0, # of connection points: 2
#     Edge 54, Type (0, 1), BuildingBlock: AJUNOK_clean_linker_0, # of connection points: 2
#     Edge 55, Type (0, 1), BuildingBlock: AJUNOK_clean_linker_0, # of connection points: 2
#     Edge 56, Type (0, 1), BuildingBlock: AJUNOK_clean_linker_0, # of connection points: 2
#     Edge 57, Type (0, 1), BuildingBlock: AJUNOK_clean_linker_0, # of connection points: 2
#     Edge 58, Type (0, 1), BuildingBlock: AJUNOK_clean_linker_0, # of connection points: 2
#     Edge 59, Type (0, 1), BuildingBlock: AJUNOK_clean_linker_0, # of connection points: 2
#     Edge 60, Type (0, 1), BuildingBlock: AJUNOK_clean_linker_0, # of connection points: 2
#     Edge 61, Type (0, 1), BuildingBlock: AJUNOK_clean_linker_0, # of connection points: 2
#     Edge 62, Type (0, 1), BuildingBlock: AJUNOK_clean_linker_0, # of connection points: 2
#     Edge 63, Type (0, 1), BuildingBlock: AJUNOK_clean_linker_0, # of connection points: 2
#     Edge 64, Type (0, 1), BuildingBlock: AJUNOK_clean_linker_0, # of connection points: 2
#     Edge 65, Type (0, 1), BuildingBlock: AJUNOK_clean_linker_0, # of connection points: 2
#     Edge 66, Type (0, 1), BuildingBlock: AJUNOK_clean_linker_0, # of connection points: 2
#     Edge 67, Type (0, 1), BuildingBlock: AJUNOK_clean_linker_0, # of connection points: 2
#     Edge 68, Type (0, 1), BuildingBlock: AJUNOK_clean_linker_0, # of connection points: 2
#     Edge 69, Type (0, 1), BuildingBlock: AJUNOK_clean_linker_0, # of connection points: 2
#     Edge 70, Type (0, 1), BuildingBlock: AJUNOK_clean_linker_0, # of connection points: 2
#     Edge 71, Type (0, 1), BuildingBlock: AJUNOK_clean_linker_0, # of connection points: 2
#     Edge 72, Type (0, 1), BuildingBlock: AJUNOK_clean_linker_0, # of connection points: 2
#     Edge 73, Type (0, 1), BuildingBlock: AJUNOK_clean_linker_0, # of connection points: 2
#     Edge 74, Type (0, 1), BuildingBlock: AJUNOK_clean_linker_0, # of connection points: 2
#     Edge 75, Type (0, 1), BuildingBlock: AJUNOK_clean_linker_0, # of connection points: 2
#     Edge 76, Type (0, 1), BuildingBlock: AJUNOK_clean_linker_0, # of connection points: 2
#     Edge 77, Type (0, 1), BuildingBlock: AJUNOK_clean_linker_0, # of connection points: 2
#     Edge 78, Type (0, 1), BuildingBlock: AJUNOK_clean_linker_0, # of connection points: 2
#     Edge 79, Type (0, 1), BuildingBlock: AJUNOK_clean_linker_0, # of connection points: 2
#     Edge 80, Type (0, 1), BuildingBlock: AJUNOK_clean_linker_0, # of connection points: 2
#     Edge 81, Type (0, 1), BuildingBlock: AJUNOK_clean_linker_0, # of connection points: 2
#     Edge 82, Type (0, 1), BuildingBlock: AJUNOK_clean_linker_0, # of connection points: 2
#     Edge 83, Type (0, 1), BuildingBlock: AJUNOK_clean_linker_0, # of connection points: 2
#     Edge 84, Type (0, 1), BuildingBlock: AJUNOK_clean_linker_0, # of connection points: 2
#     Edge 85, Type (0, 1), BuildingBlock: AJUNOK_clean_linker_0, # of connection points: 2
#     Edge 86, Type (0, 1), BuildingBlock: AJUNOK_clean_linker_0, # of connection points: 2
#     Edge 87, Type (0, 1), BuildingBlock: AJUNOK_clean_linker_0, # of connection points: 2
#     Edge 88, Type (0, 1), BuildingBlock: AJUNOK_clean_linker_0, # of connection points: 2
#     Edge 89, Type (0, 1), BuildingBlock: AJUNOK_clean_linker_0, # of connection points: 2
#     Edge 90, Type (0, 1), BuildingBlock: AJUNOK_clean_linker_0, # of connection points: 2
#     Edge 91, Type (0, 1), BuildingBlock: AJUNOK_clean_linker_0, # of connection points: 2
#     Edge 92, Type (0, 1), BuildingBlock: AJUNOK_clean_linker_0, # of connection points: 2
#     Edge 93, Type (0, 1), BuildingBlock: AJUNOK_clean_linker_0, # of connection points: 2
#     Edge 94, Type (0, 1), BuildingBlock: AJUNOK_clean_linker_0, # of connection points: 2
#     Edge 95, Type (0, 1), BuildingBlock: AJUNOK_clean_linker_0, # of connection points: 2
#     Edge 96, Type (0, 1), BuildingBlock: AJUNOK_clean_linker_0, # of connection points: 2
#     Edge 97, Type (0, 1), BuildingBlock: AJUNOK_clean_linker_0, # of connection points: 2
#     Edge 98, Type (0, 1), BuildingBlock: AJUNOK_clean_linker_0, # of connection points: 2
#     Edge 99, Type (0, 1), BuildingBlock: AJUNOK_clean_linker_0, # of connection points: 2
#     Edge 100, Type (0, 1), BuildingBlock: AJUNOK_clean_linker_0, # of connection points: 2
#     Edge 101, Type (0, 1), BuildingBlock: AJUNOK_clean_linker_0, # of connection points: 2
# Relax obj value: 0.151
# Max RMSD: 0.301
# Mean RMSD: 0.237
data_MOF--net-cor--node1-ESEHIV_clean_sbu_0--node2-MIDCAF_clean_sbu_0--edge1-AJUNOK_clean_linker_0
_symmetry_space_group_name_H-M    P1
_symmetry_Int_Tables_number       1
_symmetry_cell_setting            triclinic
loop_
_symmetry_equiv_pos_as_xyz
'x, y, z'
_cell_length_a     29.893685
_cell_length_b     28.377526
_cell_length_c     85.139759
_cell_angle_alpha  92.72615
_cell_angle_beta   92.742589
_cell_angle_gamma 120.17125
loop_
_atom_site_label
_atom_site_type_symbol
_atom_site_fract_x
_atom_site_fract_y
_atom_site_fract_z
_atom_type_partial_charge
Cu0 Cu 0.75901 0.04202 0.27556 0.0
N1 N 0.76874 1.00938 0.2572 0.0
N2 N 0.79468 0.99864 0.23359 0.0
C3 C 0.79217 0.03382 0.24431 0.0
C4 C 0.77205 0.95016 0.24007 0.0
C5 C 0.75596 0.95686 0.25452 0.0
O6 O 0.75879 0.10792 0.26952 0.0
C7 C 0.80311 0.0595 0.30724 0.0
O8 O 0.7687 0.07343 0.31065 0.0
H9 H 0.80779 0.07666 0.2428 0.0
H10 H 0.73769 0.92597 0.26274 0.0
N11 N 0.69469 0.99526 0.28335 0.0
N12 N 0.63928 0.94203 0.30031 0.0
C13 C 0.68449 0.95718 0.2938 0.0
C14 C 0.65407 1.00343 0.28311 0.0
C15 C 0.61984 0.97059 0.29347 0.0
C16 C 0.79424 0.14929 0.26338 0.0
O17 O 0.84074 0.15547 0.263 0.0
H18 H 0.71132 0.94387 0.29739 0.0
H19 H 0.65116 0.03372 0.27659 0.0
O20 O 0.80909 0.05125 0.29279 0.0
H21 H 0.76969 0.91302 0.23516 0.0
H22 H 0.58401 0.96889 0.29612 0.0
Cu23 Cu 0.03145 0.75908 0.27932 0.0
N24 N 0.06307 0.7939 0.26137 0.0
N25 N 0.0697 0.82801 0.2377 0.0
C26 C 0.03959 0.78775 0.24681 0.0
C27 C 0.11456 0.85958 0.2468 0.0
C28 C 0.11028 0.83867 0.26131 0.0
O29 O 0.96254 0.69689 0.27243 0.0
C30 C 0.02948 0.80767 0.30944 0.0
O31 O 0.01785 0.76029 0.31461 0.0
H32 H 1.00055 0.75549 0.24316 0.0
H33 H 0.13811 0.85718 0.27151 0.0
N34 N 0.0666 0.72879 0.28976 0.0
N35 N 0.12314 0.71663 0.30485 0.0
C36 C 0.11682 0.75027 0.29531 0.0
C37 C 0.04063 0.68071 0.29613 0.0
C38 C 0.07488 0.67338 0.30548 0.0
C39 C 0.92525 0.6939 0.26364 0.0
O40 O 0.92723 0.73886 0.2595 0.0
H41 H 0.14771 0.79004 0.29271 0.0
H42 H 0.99889 0.65427 0.29482 0.0
O43 O 0.03285 0.81354 0.29467 0.0
H44 H 0.14669 0.89774 0.24369 0.0
H45 H 0.06424 0.63973 0.31278 0.0
Cu46 Cu 0.31111 0.31671 0.27698 0.0
N47 N 0.2906 0.27337 0.29432 0.0
N48 N 0.25601 0.24247 0.31717 0.0
C49 C 0.27609 0.28516 0.30809 0.0
C50 C 0.25869 0.20234 0.30884 0.0
C51 C 0.28008 0.22151 0.29483 0.0
O52 O 0.3181 0.38675 0.28418 0.0
C53 C 0.2708 0.28161 0.24428 0.0
O54 O 0.31899 0.31145 0.24079 0.0
H55 H 0.27825 0.32356 0.31126 0.0
H56 H 0.28473 0.19821 0.28528 0.0
N57 N 0.37683 0.33197 0.27113 0.0
N58 N 0.439 0.3327 0.25723 0.0
C59 C 0.39061 0.30176 0.26194 0.0
C60 C 0.41842 0.38286 0.27255 0.0
C61 C 0.45656 0.38346 0.26401 0.0
C62 C 0.28351 0.394 0.29021 0.0
O63 O 0.23583 0.35259 0.29005 0.0
H64 H 0.36441 0.25939 0.25774 0.0
H65 H 0.41968 0.41797 0.27858 0.0
O66 O 0.25981 0.28024 0.25866 0.0
H67 H 0.24264 0.16074 0.31204 0.0
H68 H 0.49385 0.41895 0.26246 0.0
Cu69 Cu 0.30906 0.03081 0.77848 0.0
N70 N 0.29408 0.05481 0.79747 0.0
N71 N 0.25167 0.0487 0.81913 0.0
C72 C 0.24813 0.02977 0.80394 0.0
C73 C 0.30185 0.08876 0.82211 0.0
C74 C 0.32786 0.092 0.80884 0.0
O75 O 0.31164 0.96494 0.78343 0.0
C76 C 0.26614 0.01964 0.74663 0.0
O77 O 0.30041 1.00648 0.74243 0.0
H78 H 0.21316 0.99643 0.79779 0.0
H79 H 0.36898 0.11814 0.80777 0.0
N80 N 0.37493 0.08215 0.77239 0.0
N81 N 0.43531 0.13842 0.75708 0.0
C82 C 0.38621 0.11811 0.76121 0.0
C83 C 0.41877 0.08076 0.77555 0.0
C84 C 0.45595 0.11532 0.76616 0.0
C85 C 0.27967 0.92644 0.79131 0.0
O86 O 0.23452 0.92172 0.79352 0.0
H87 H 0.35818 0.12645 0.75545 0.0
H88 H 0.42245 0.05396 0.78345 0.0
O89 O 0.26005 0.02456 0.76126 0.0
H90 H 0.319 0.1141 0.83306 0.0
H91 H 0.49471 0.12168 0.76564 0.0
Cu92 Cu 0.04475 0.31432 0.77836 0.0
N93 N 0.02186 0.27359 0.79596 0.0
N94 N 0.02454 0.23056 0.8171 0.0
C95 C 0.04995 0.25798 0.80484 0.0
C96 C 0.97874 0.22936 0.81588 0.0
C97 C 0.97717 0.25587 0.80283 0.0
O98 O 0.11455 0.3762 0.78482 0.0
C99 C 0.04304 0.27485 0.74652 0.0
O100 O 0.05322 0.3233 0.74263 0.0
H101 H 0.08885 0.26787 0.80251 0.0
H102 H 0.94582 0.26196 0.79868 0.0
N103 N 1.00087 0.33966 0.77129 0.0
N104 N 0.94023 0.34462 0.75612 0.0
C105 C 0.95636 0.31144 0.76181 0.0
C106 C 0.01309 0.39226 0.77162 0.0
C107 C 0.97578 0.39542 0.76233 0.0
C108 C 0.12352 0.40069 0.7986 0.0
O109 O 0.08503 0.38473 0.80771 0.0
H110 H 0.93791 0.26805 0.75843 0.0
H111 H 0.04803 0.42624 0.7776 0.0
O112 O 0.04207 0.26536 0.76104 0.0
H113 H 0.94813 0.20985 0.82371 0.0
H114 H 0.97517 0.43236 0.76012 0.0
Cu115 Cu 0.75971 0.75856 0.777 0.0
N116 N 0.77029 0.79064 0.75764 0.0
N117 N 0.80879 0.8165 0.73506 0.0
C118 C 0.81563 0.81444 0.7508 0.0
C119 C 0.75722 0.79512 0.73198 0.0
C120 C 0.73359 0.77869 0.74586 0.0
O121 O 0.7573 0.68897 0.77179 0.0
C122 C 0.80818 0.80059 0.80809 0.0
O123 O 0.76964 0.7544 0.81212 0.0
H124 H 0.85265 0.82706 0.75714 0.0
H125 H 0.69225 0.75546 0.747 0.0
N126 N 0.69519 0.74166 0.78437 0.0
N127 N 0.63569 0.74144 0.79956 0.0
C128 C 0.68348 0.77182 0.79437 0.0
C129 C 0.65324 0.69105 0.78317 0.0
C130 C 0.61669 0.69078 0.79247 0.0
C131 C 0.78981 0.68428 0.76359 0.0
O132 O 0.83364 0.72827 0.76131 0.0
H133 H 0.71038 0.81416 0.79842 0.0
H134 H 0.65044 0.65607 0.77653 0.0
O135 O 0.81317 0.80827 0.79346 0.0
H136 H 0.73765 0.7883 0.72036 0.0
H137 H 0.57913 0.65577 0.79407 0.0
Cu138 Cu 0.42454 0.36712 0.60946 0.0
N139 N 0.43541 0.33569 0.59109 0.0
N140 N 0.46199 0.32806 0.56733 0.0
C141 C 0.45187 0.35909 0.57744 0.0
C142 C 0.45024 0.28276 0.5748 0.0
C143 C 0.43403 0.28762 0.58939 0.0
O144 O 0.42471 0.43337 0.60354 0.0
C145 C 0.46897 0.38583 0.64111 0.0
O146 O 0.43205 0.39613 0.64434 0.0
H147 H 0.45702 0.39833 0.57495 0.0
H148 H 0.42407 0.25919 0.59843 0.0
N149 N 0.35987 0.31975 0.61696 0.0
N150 N 0.30202 0.2614 0.63252 0.0
C151 C 0.34774 0.27787 0.62614 0.0
C152 C 0.32035 0.32953 0.61752 0.0
C153 C 0.28472 0.29371 0.62705 0.0
C154 C 0.46005 0.47324 0.59687 0.0
O155 O 0.50533 0.47682 0.59579 0.0
H156 H 0.37332 0.26219 0.62887 0.0
H157 H 0.31895 0.36248 0.61207 0.0
O158 O 0.47522 0.37742 0.6267 0.0
H159 H 0.45581 0.2498 0.57038 0.0
H160 H 0.24918 0.29214 0.62999 0.0
Cu161 Cu 0.70138 0.09043 0.60949 0.0
N162 N 0.73008 0.13283 0.5925 0.0
N163 N 0.73585 0.17029 0.56949 0.0
C164 C 0.70543 0.12959 0.57841 0.0
C165 C 0.78173 0.19949 0.57828 0.0
C166 C 0.77802 0.17643 0.5924 0.0
O167 O 0.6388 0.02286 0.60104 0.0
C168 C 0.68343 0.11965 0.64002 0.0
O169 O 0.67238 0.07016 0.64305 0.0
H170 H 0.66578 0.09847 0.57489 0.0
H171 H 0.80748 0.19172 0.60219 0.0
N172 N 0.74705 0.07108 0.61894 0.0
N173 N 0.81027 0.07386 0.63486 0.0
C174 C 0.79286 0.10353 0.6275 0.0
C175 C 0.73536 0.01952 0.62096 0.0
C176 C 0.77422 0.02109 0.63073 0.0
C177 C 0.59771 0.01761 0.594 0.0
O178 O 0.5913 0.06011 0.59379 0.0
H179 H 0.81188 0.14771 0.62884 0.0
H180 H 0.70005 0.98327 0.61611 0.0
O181 O 0.6921 0.13412 0.626 0.0
H182 H 0.81479 0.23684 0.57512 0.0
H183 H 0.77594 0.9861 0.63451 0.0
Cu184 Cu 0.97887 0.65155 0.61096 0.0
N185 N 0.96163 0.60587 0.62768 0.0
N186 N 0.93024 0.57084 0.6505 0.0
C187 C 0.93539 0.60734 0.64004 0.0
C188 C 0.95381 0.54498 0.64432 0.0
C189 C 0.97336 0.56687 0.63036 0.0
O190 O 0.98279 0.71784 0.62038 0.0
C191 C 0.93684 0.6151 0.57844 0.0
O192 O 0.98534 0.64003 0.57498 0.0
H193 H 0.92022 0.63464 0.64135 0.0
H194 H 0.99411 0.55473 0.62263 0.0
N195 N 0.04446 0.67073 0.60401 0.0
N196 N 0.10567 0.66965 0.59 0.0
C197 C 0.06119 0.63916 0.59697 0.0
C198 C 0.08042 0.72251 0.60174 0.0
C199 C 0.11808 0.722 0.59318 0.0
C200 C 0.94357 0.72281 0.62282 0.0
O201 O 0.89714 0.68443 0.61694 0.0
H202 H 0.03939 0.59489 0.59595 0.0
H203 H 0.0778 0.75809 0.6053 0.0
O204 O 0.92622 0.61657 0.5928 0.0
H205 H 0.95515 0.5111 0.64916 0.0
H206 H 0.15158 0.75737 0.5893 0.0
Cu207 Cu 0.97478 0.35776 0.11403 0.0
N208 N 0.96606 0.38776 0.13315 0.0
N209 N 0.93954 0.39149 0.15726 0.0
C210 C 0.9504 0.36256 0.14659 0.0
C211 C 0.94962 0.43727 0.1503 0.0
C212 C 0.96604 0.43492 0.13553 0.0
O213 O 0.97415 0.29032 0.11897 0.0
C214 C 0.92755 0.34945 0.08288 0.0
O215 O 0.96773 0.34813 0.0778 0.0
H216 H 0.94476 0.32262 0.14837 0.0
H217 H 0.97407 0.46386 0.12674 0.0
N218 N 0.03906 0.40538 0.10625 0.0
N219 N 0.09603 0.46256 0.09025 0.0
C220 C 0.05098 0.44702 0.09697 0.0
C221 C 0.07835 0.39527 0.10554 0.0
C222 C 0.11336 0.43029 0.09573 0.0
C223 C 0.93897 0.24977 0.12549 0.0
O224 O 0.89402 0.24649 0.12709 0.0
H225 H 0.02533 0.46261 0.09423 0.0
H226 H 0.07975 0.36233 0.11099 0.0
O227 O 0.92166 0.34864 0.09769 0.0
H228 H 0.94148 0.46811 0.15494 0.0
H229 H 0.14824 0.43094 0.09249 0.0
Cu230 Cu 0.70197 0.64726 0.11045 0.0
N231 N 0.67973 0.61014 0.12877 0.0
N232 N 0.68568 0.57981 0.15224 0.0
C233 C 0.70962 0.61919 0.14225 0.0
C234 C 0.63816 0.54546 0.14487 0.0
C235 C 0.63467 0.56414 0.13042 0.0
O236 O 0.76788 0.71373 0.1169 0.0
C237 C 0.7049 0.60632 0.07935 0.0
O238 O 0.71344 0.6538 0.07504 0.0
H239 H 0.74886 0.65305 0.14446 0.0
H240 H 0.60279 0.54381 0.12137 0.0
N241 N 0.6557 0.66787 0.10227 0.0
N242 N 0.59457 0.66876 0.08626 0.0
C243 C 0.61244 0.63765 0.0924 0.0
C244 C 0.66519 0.71951 0.1024 0.0
C245 C 0.62758 0.72018 0.09258 0.0
C246 C 0.80957 0.71622 0.12232 0.0
O247 O 0.8134 0.67206 0.12134 0.0
H248 H 0.59606 0.59441 0.08917 0.0
H249 H 0.69847 0.7546 0.10869 0.0
O250 O 0.70345 0.59797 0.09398 0.0
H251 H 0.60934 0.5073 0.14907 0.0
H252 H 0.62484 0.75581 0.09018 0.0
Cu253 Cu 0.42324 0.08668 0.1116 0.0
N254 N 0.43531 0.11867 0.0922 0.0
N255 N 0.47664 0.1469 0.07016 0.0
C256 C 0.48169 0.14541 0.08601 0.0
C257 C 0.42503 0.12208 0.06635 0.0
C258 C 0.39973 0.10429 0.07989 0.0
O259 O 0.42318 0.01814 0.10722 0.0
C260 C 0.46839 0.12719 0.14302 0.0
O261 O 0.4338 0.07824 0.14669 0.0
H262 H 0.51832 0.16032 0.09289 0.0
H263 H 0.3583 0.07857 0.08048 0.0
N264 N 0.35773 0.06838 0.1182 0.0
N265 N 0.29772 0.06645 0.13339 0.0
C266 C 0.34562 0.09752 0.12843 0.0
C267 C 0.31579 0.01774 0.11654 0.0
C268 C 0.27877 0.01647 0.12582 0.0
C269 C 0.4553 0.01398 0.09871 0.0
O270 O 0.49719 0.05846 0.09546 0.0
H271 H 0.37234 0.13954 0.13284 0.0
H272 H 0.31339 0.98338 0.10966 0.0
O273 O 0.4732 0.13708 0.12853 0.0
H274 H 0.40678 0.1139 0.05447 0.0
H275 H 0.24103 0.98128 0.12712 0.0
Cu276 Cu 0.08665 0.69517 0.94274 0.0
N277 N 0.0996 0.67124 0.92333 0.0
N278 N 0.13568 0.68289 0.90016 0.0
C279 C 0.14319 0.699 0.91578 0.0
C280 C 0.08573 0.64206 0.89792 0.0
C281 C 0.06352 0.63546 0.91213 0.0
O282 O 0.0836 0.76029 0.9376 0.0
C283 C 0.13067 0.71631 0.9742 0.0
O284 O 0.09375 0.72734 0.97672 0.0
H285 H 0.17922 0.73186 0.92155 0.0
H286 H 0.02287 0.6094 0.91389 0.0
N287 N 0.02193 0.64402 0.94957 0.0
N288 N 0.96421 0.58542 0.96514 0.0
C289 C 1.01185 0.60523 0.95978 0.0
C290 C 0.97905 0.64823 0.94841 0.0
C291 C 0.94354 0.61229 0.95796 0.0
C292 C 0.1202 0.80219 0.93201 0.0
O293 O 0.16717 0.80928 0.93286 0.0
H294 H 0.03998 0.59437 0.96397 0.0
H295 H 0.97511 0.67773 0.94179 0.0
O296 O 0.1374 0.70587 0.96002 0.0
H297 H 0.0658 0.62076 0.88664 0.0
H298 H 0.90578 0.60712 0.95978 0.0
Cu299 Cu 0.36132 0.41494 0.94416 0.0
N300 N 0.3828 0.45808 0.92701 0.0
N301 N 0.37619 0.49443 0.90478 0.0
C302 C 0.35088 0.45584 0.91487 0.0
C303 C 0.42634 0.52139 0.91075 0.0
C304 C 0.43028 0.49897 0.92445 0.0
O305 O 0.29999 0.34682 0.93566 0.0
C306 C 0.35817 0.45405 0.97577 0.0
O307 O 0.37797 0.42451 0.98047 0.0
H308 H 0.30972 0.42669 0.91359 0.0
H309 H 0.46494 0.51261 0.93223 0.0
N310 N 0.41133 0.39893 0.95216 0.0
N311 N 0.47772 0.40388 0.96698 0.0
C312 C 0.45862 0.4325 0.95985 0.0
C313 C 0.40096 0.34787 0.95434 0.0
C314 C 0.44166 0.35077 0.96344 0.0
C315 C 0.25495 0.3408 0.93332 0.0
O316 O 0.24679 0.38004 0.93842 0.0
H317 H 0.47699 0.47663 0.96107 0.0
H318 H 0.36494 0.31106 0.95027 0.0
O319 O 0.34651 0.45314 0.96107 0.0
H320 H 0.45759 0.55659 0.90598 0.0
H321 H 0.44426 0.31648 0.96741 0.0
Cu322 Cu 0.6462 0.97879 0.94889 0.0
N323 N 0.63341 0.93935 0.96691 0.0
N324 N 0.60219 0.90747 0.99004 0.0
C325 C 0.60864 0.94361 0.9793 0.0
C326 C 0.62382 0.87929 0.98404 0.0
C327 C 0.6432 0.89918 0.96988 0.0
O328 O 0.64578 0.04523 0.95592 0.0
C329 C 0.60343 0.9436 0.91682 0.0
O330 O 0.63996 0.99238 0.91367 0.0
H331 H 0.59424 0.97165 0.98022 0.0
H332 H 0.66126 0.88395 0.962 0.0
N333 N 0.71153 0.99905 0.94187 0.0
N334 N 0.77084 0.99863 0.92684 0.0
C335 C 0.72497 0.9679 0.93303 0.0
C336 C 0.75052 0.05085 0.94137 0.0
C337 C 0.7872 0.0507 0.9322 0.0
C338 C 0.60596 0.04833 0.95898 0.0
O339 O 0.5593 1.00644 0.95497 0.0
H340 H 0.7004 0.92411 0.93048 0.0
H341 H 0.75099 0.0865 0.94668 0.0
O342 O 0.5966 0.93235 0.93119 0.0
H343 H 0.62286 0.84435 0.98895 0.0
H344 H 0.82299 0.0862 0.92953 0.0
Cu345 Cu 0.65599 0.71111 0.4471 0.0
N346 N 0.64431 0.73867 0.46616 0.0
N347 N 0.61444 0.74054 0.48986 0.0
C348 C 0.62232 0.71044 0.47871 0.0
C349 C 0.63241 0.78987 0.48405 0.0
C350 C 0.65088 0.78863 0.46954 0.0
O351 O 0.65723 0.64461 0.45204 0.0
C352 C 0.61193 0.7004 0.41558 0.0
O353 O 0.64709 0.68872 0.41127 0.0
H354 H 0.61079 0.66808 0.47954 0.0
H355 H 0.66572 0.82104 0.46166 0.0
N356 N 0.7205 0.76065 0.4398 0.0
N357 N 0.77635 0.81912 0.4238 0.0
C358 C 0.73103 0.8019 0.43048 0.0
C359 C 0.76101 0.75249 0.43913 0.0
C360 C 0.79548 0.7885 0.42936 0.0
C361 C 0.62113 0.60147 0.45731 0.0
O362 O 0.57394 0.59385 0.45695 0.0
H363 H 0.70448 0.81639 0.42781 0.0
H364 H 0.76376 0.72031 0.44459 0.0
O365 O 0.60558 0.7043 0.43024 0.0
H366 H 0.62926 0.82341 0.48933 0.0
H367 H 0.83138 0.79119 0.4263 0.0
Cu368 Cu 0.36236 0.98089 0.44455 0.0
N369 N 0.33723 0.94437 0.46275 0.0
N370 N 0.33631 0.90602 0.48531 0.0
C371 C 0.36476 0.93367 0.47354 0.0
C372 C 0.2886 0.89875 0.48165 0.0
C373 C 0.28941 0.9227 0.46781 0.0
O374 O 0.42716 0.04832 0.45151 0.0
C375 C 0.36691 0.93775 0.41402 0.0
O376 O 0.37518 0.98454 0.4092 0.0
H377 H 0.40475 0.94503 0.47263 0.0
H378 H 0.25707 0.92305 0.46166 0.0
N379 N 0.31754 1.00183 0.43536 0.0
N380 N 0.25624 1.00233 0.41934 0.0
C381 C 0.27216 0.97099 0.42644 0.0
C382 C 0.33034 0.05402 0.43387 0.0
C383 C 0.29269 0.05446 0.42405 0.0
C384 C 0.46948 0.0544 0.45782 0.0
O385 O 0.47671 0.01242 0.45771 0.0
H386 H 0.25252 0.92683 0.42464 0.0
H387 H 0.36571 0.0894 0.43909 0.0
O388 O 0.36567 0.93096 0.42874 0.0
H389 H 0.2547 0.87544 0.488 0.0
H390 H 0.2921 0.09039 0.42059 0.0
Cu391 Cu 0.09223 0.44049 0.44363 0.0
N392 N 0.12174 0.48447 0.42694 0.0
N393 N 0.15935 0.51334 0.40442 0.0
C394 C 0.14037 0.47245 0.41414 0.0
C395 C 0.1526 0.55275 0.41147 0.0
C396 C 0.12922 0.53474 0.42526 0.0
O397 O 0.08008 0.36823 0.4361 0.0
C398 C 0.13271 0.45162 0.4759 0.0
O399 O 0.09776 0.39963 0.47618 0.0
H400 H 0.14066 0.43477 0.41201 0.0
H401 H 0.11938 0.55718 0.43367 0.0
N402 N 0.03011 0.43897 0.44754 0.0
N403 N 0.96883 0.44483 0.46028 0.0
C404 C 1.00985 0.43691 0.46156 0.0
C405 C 1.00078 0.44835 0.43713 0.0
C406 C 0.9631 0.45198 0.44492 0.0
C407 C 0.1178 0.3602 0.43398 0.0
O408 O 0.16498 0.3983 0.43936 0.0
H409 H 0.02597 0.43189 0.47256 0.0
H410 H 1.00738 0.45387 0.4248 0.0
O411 O 0.13824 0.47441 0.463 0.0
H412 H 0.16596 0.59291 0.4074 0.0
H413 H 0.93369 0.45937 0.43968 0.0
Zn414 Zn 0.03728 0.03052 0.14705 0.0
Zn415 Zn 0.02151 0.02958 0.19903 0.0
Zn416 Zn 0.03013 0.03469 0.17432 0.0
C417 C 0.03617 0.94877 0.19408 0.0
C418 C 0.10269 0.1264 0.19935 0.0
O419 O 0.98788 0.07654 0.16497 0.0
O420 O 0.02164 0.08752 0.14208 0.0
C421 C 0.97168 0.9239 0.15178 0.0
O422 O 1.01122 0.95084 0.18153 0.0
O423 O 0.05783 0.98974 0.20401 0.0
O424 O 0.05928 0.10887 0.20492 0.0
O425 O 0.1057 0.09771 0.18761 0.0
O426 O 0.98438 0.95401 0.14048 0.0
O427 O 0.98929 0.94534 0.16606 0.0
O428 O 0.11643 0.08088 0.17232 0.0
O429 O 0.11022 0.05129 0.14739 0.0
C430 C 0.13791 0.07632 0.15997 0.0
O431 O 0.96935 0.05529 0.18086 0.0
O432 O 0.94459 0.98944 0.19671 0.0
C433 C 0.99665 0.09851 0.15166 0.0
C434 C 0.93517 0.02198 0.18968 0.0
Zn435 Zn 0.03174 0.06576 0.3481 0.0
Zn436 Zn 0.02976 0.04933 0.40383 0.0
Zn437 Zn 0.02623 0.05342 0.37467 0.0
C438 C 0.07874 0.15884 0.40087 0.0
C439 C 0.92466 0.99413 0.39411 0.0
O440 O 0.05008 0.99718 0.36293 0.0
O441 O 0.07424 0.03572 0.34074 0.0
C442 C 0.09477 0.16543 0.35728 0.0
O443 O 0.06994 0.13987 0.38625 0.0
O444 O 0.06559 0.1265 0.41161 0.0
O445 O 0.95553 1.00755 0.40627 0.0
O446 O 0.9426 1.00942 0.3806 0.0
O447 O 0.06034 0.14427 0.34594 0.0
O448 O 0.08763 0.13904 0.36977 0.0
O449 O 0.94576 0.02909 0.36419 0.0
O450 O 0.96043 0.02058 0.33946 0.0
C451 C 0.92946 0.01733 0.3494 0.0
O452 O 0.06402 1.00464 0.38004 0.0
O453 O 0.06781 1.01011 0.40605 0.0
C454 C 0.06727 0.99784 0.34924 0.0
C455 C 0.07834 0.99451 0.39337 0.0
Zn456 Zn 0.03228 0.02106 0.91229 0.0
Zn457 Zn 0.03184 0.01832 0.82924 0.0
Zn458 Zn 0.03222 0.01953 0.88377 0.0
C459 C 0.05961 0.10056 0.86005 0.0
C460 C 0.95409 0.96651 0.85636 0.0
O461 O 0.07201 0.97299 0.89041 0.0
O462 O 0.05951 0.9718 0.91581 0.0
C463 C 0.09186 0.13025 0.90611 0.0
O464 O 0.06185 0.10236 0.87516 0.0
O465 O 0.04627 0.05434 0.85286 0.0
O466 O 0.99825 0.99786 0.85128 0.0
O467 O 0.95287 0.96735 0.87141 0.0
O468 O 0.0787 0.10065 0.91756 0.0
O469 O 0.07629 0.10819 0.89186 0.0
O470 O 0.94784 0.97885 0.88793 0.0
O471 O 0.95751 0.99102 0.91395 0.0
C472 C 0.92827 0.97515 0.90132 0.0
O473 O 0.08293 0.99009 0.87406 0.0
O474 O 0.05073 1.00295 0.85239 0.0
C475 C 0.0753 0.95699 0.90415 0.0
C476 C 0.08387 0.99284 0.85906 0.0
Zn477 Zn 0.04198 0.02592 0.70702 0.0
Zn478 Zn 0.04231 0.03631 0.65107 0.0
Zn479 Zn 0.0444 0.03273 0.68045 0.0
C480 C 0.98846 0.92653 0.6549 0.0
C481 C 0.1469 0.08867 0.66116 0.0
O482 O 0.02067 0.09013 0.69143 0.0
O483 O 0.99632 0.05254 0.71372 0.0
C484 C 0.98148 0.92358 0.69898 0.0
O485 O 0.99819 0.94631 0.66943 0.0
O486 O 1.00341 0.95825 0.644 0.0
O487 O 0.11685 0.07537 0.64881 0.0
O488 O 0.12797 0.07484 0.67463 0.0
O489 O 0.01603 0.94866 0.71016 0.0
O490 O 0.98515 0.94757 0.68618 0.0
O491 O 0.12466 0.05601 0.69118 0.0
O492 O 0.11341 0.07413 0.71554 0.0
C493 C 0.14255 0.07163 0.70578 0.0
O494 O 1.00651 0.08092 0.67431 0.0
O495 O 1.00589 0.07716 0.64836 0.0
C496 C 1.00273 0.08963 0.70498 0.0
C497 C 0.99337 0.09149 0.66086 0.0
Zn498 Zn 0.68835 0.37153 0.53171 0.0
Zn499 Zn 0.69949 0.37233 0.48076 0.0
Zn500 Zn 0.6953 0.37738 0.50707 0.0
C501 C 0.79832 0.40919 0.49293 0.0
C502 C 0.62789 0.26916 0.4852 0.0
O503 O 0.6333 0.39546 0.51359 0.0
O504 O 0.61141 0.32853 0.52887 0.0
C505 C 0.76778 0.46835 0.53228 0.0
O506 O 0.78031 0.42515 0.50417 0.0
O507 O 0.76748 0.37616 0.4818 0.0
O508 O 0.6358 0.30157 0.47466 0.0
O509 O 0.6539 0.28784 0.49881 0.0
O510 O 0.72413 0.45079 0.5377 0.0
O511 O 0.77087 0.44027 0.5204 0.0
O512 O 0.67796 0.29383 0.5137 0.0
O513 O 0.72753 0.33367 0.53564 0.0
C514 C 0.70489 0.29242 0.52582 0.0
O515 O 0.65356 0.41963 0.49814 0.0
O516 O 0.69791 0.4398 0.47716 0.0
C517 C 0.5998 0.35997 0.52211 0.0
C518 C 0.6693 0.44773 0.48603 0.0
Zn519 Zn 0.69121 0.35873 0.73483 0.0
Zn520 Zn 0.69205 0.37042 0.68298 0.0
Zn521 Zn 0.69313 0.36896 0.70807 0.0
C522 C 0.61037 0.37476 0.6864 0.0
C523 C 0.78143 0.45703 0.69169 0.0
O524 O 0.73931 0.32768 0.71312 0.0
O525 O 0.74737 0.34343 0.73903 0.0
C526 C 0.58994 0.29399 0.72462 0.0
O527 O 0.61333 0.34537 0.69711 0.0
O528 O 0.65089 0.40639 0.68002 0.0
O529 O 0.76766 0.41523 0.68244 0.0
O530 O 0.75171 0.45435 0.70259 0.0
O531 O 0.6209 0.29882 0.73597 0.0
O532 O 0.6077 0.32162 0.71249 0.0
O533 O 0.73472 0.45603 0.71875 0.0
O534 O 0.70379 0.43155 0.74179 0.0
C535 C 0.72697 0.46885 0.73271 0.0
O536 O 0.71552 0.31029 0.69739 0.0
O537 O 0.65869 0.29071 0.67723 0.0
C538 C 0.75984 0.3275 0.72681 0.0
C539 C 0.68792 0.27873 0.68505 0.0
Zn540 Zn 0.69861 0.36558 0.24057 0.0
Zn541 Zn 0.71795 0.36985 0.187 0.0
Zn542 Zn 0.70741 0.36782 0.21402 0.0
C543 C 0.74825 0.47444 0.19407 0.0
C544 C 0.61445 0.30372 0.18646 0.0
O545 O 0.74847 0.32493 0.22392 0.0
O546 O 0.7034 0.30138 0.24469 0.0
C547 C 0.76843 0.47216 0.23836 0.0
O548 O 0.73152 0.45268 0.20712 0.0
O549 O 0.7554 0.44744 0.18335 0.0
O550 O 0.64769 0.33157 0.1772 0.0
O551 O 0.62802 0.30968 0.20141 0.0
O552 O 0.75822 0.43684 0.24814 0.0
O553 O 0.7464 0.45603 0.22418 0.0
O554 O 0.62133 0.32161 0.21765 0.0
O555 O 0.63005 0.35608 0.24212 0.0
C556 C 0.6011 0.32894 0.22996 0.0
O557 O 0.76821 0.34455 0.20848 0.0
O558 O 0.7548 0.3316 0.18259 0.0
C559 C 0.73371 0.29615 0.23597 0.0
C560 C 0.77975 0.33235 0.19499 0.0
Zn561 Zn 0.70529 0.3617 0.04038 0.0
Zn562 Zn 0.70785 0.36421 0.98495 0.0
Zn563 Zn 0.70884 0.36321 1.0142 0.0
C564 C 0.65197 0.25498 0.98934 0.0
C565 C 0.81242 0.41687 0.9957 0.0
O566 O 0.68493 0.42167 1.02473 0.0
O567 O 0.65217 0.3796 0.04581 0.0
C568 C 0.65055 0.25826 0.03393 0.0
O569 O 0.66157 0.27593 1.00375 0.0
O570 O 0.66792 0.2858 0.97824 0.0
O571 O 0.78279 0.40207 0.98319 0.0
O572 O 0.79293 0.40459 1.00914 0.0
O573 O 0.68699 0.28614 0.04445 0.0
O574 O 0.65098 0.2794 1.02079 0.0
O575 O 0.78574 0.38261 1.0265 0.0
O576 O 0.77633 0.42134 0.04778 0.0
C577 C 0.80215 0.40424 0.04077 0.0
O578 O 0.67251 0.41221 1.00739 0.0
O579 O 0.67277 0.4062 0.98148 0.0
C580 C 0.66311 0.41936 0.03767 0.0
C581 C 0.66021 0.42205 0.9937 0.0
Zn582 Zn 0.3607 0.71411 0.86951 0.0
Zn583 Zn 0.37711 0.71259 0.8147 0.0
Zn584 Zn 0.37029 0.71467 0.84289 0.0
C585 C 0.4773 0.75484 0.82671 0.0
C586 C 0.31086 0.60568 0.81904 0.0
O587 O 0.31141 0.73922 0.84932 0.0
O588 O 0.33706 0.76594 0.87434 0.0
C589 C 0.46327 0.77102 0.87078 0.0
O590 O 0.45637 0.75806 0.83937 0.0
O591 O 0.44921 0.73201 0.81406 0.0
O592 O 0.32388 0.63671 0.80795 0.0
O593 O 0.32861 0.62647 0.83334 0.0
O594 O 0.42972 0.73897 0.87933 0.0
O595 O 0.4498 0.77057 0.85607 0.0
O596 O 0.34212 0.63001 0.85054 0.0
O597 O 0.31175 0.63722 0.87296 0.0
C598 C 0.32076 0.60886 0.8632 0.0
O599 O 0.33081 0.75894 0.83322 0.0
O600 O 0.36245 0.77023 0.80994 0.0
C601 C 0.3054 0.75749 0.8628 0.0
C602 C 0.33873 0.78121 0.81998 0.0
Zn603 Zn 0.35063 0.68591 0.06902 0.0
Zn604 Zn 0.35101 0.71185 1.01754 0.0
Zn605 Zn 0.35103 0.69934 0.04216 0.0
C606 C 0.26907 0.71248 1.02239 0.0
C607 C 0.44195 0.7926 1.02704 0.0
O608 O 0.39398 0.65413 0.04518 0.0
O609 O 0.40227 0.6632 0.07122 0.0
C610 C 0.24805 0.62658 0.05927 0.0
O611 O 0.2719 0.67856 0.03142 0.0
O612 O 0.31041 0.7496 1.01757 0.0
O613 O 0.42566 0.75529 1.01602 0.0
O614 O 0.41355 0.78601 0.03867 0.0
O615 O 0.2789 0.63037 0.07051 0.0
O616 O 0.26599 0.65349 0.04704 0.0
O617 O 0.39515 0.78505 0.05412 0.0
O618 O 0.37011 0.75951 0.07767 0.0
C619 C 0.39165 0.79736 0.06865 0.0
O620 O 0.36958 0.64084 0.02941 0.0
O621 O 0.31704 0.63419 1.00948 0.0
C622 C 0.4135 0.64912 0.05843 0.0
C623 C 0.3426 0.61553 1.01627 0.0
Zn624 Zn 0.37237 0.69821 0.57485 0.0
Zn625 Zn 0.36719 0.677 0.52207 0.0
Zn626 Zn 0.37098 0.68917 0.54749 0.0
C627 C 0.36617 0.76909 0.52552 0.0
C628 C 0.28252 0.59152 0.52582 0.0
O629 O 0.41235 0.64536 0.55615 0.0
O630 O 0.38367 0.63836 0.57977 0.0
C631 C 0.4395 0.8024 0.56755 0.0
O632 O 0.39241 0.76939 0.53806 0.0
O633 O 0.33909 0.72495 0.51698 0.0
O634 O 0.32139 0.59652 0.51928 0.0
O635 O 0.28956 0.62868 0.53665 0.0
O636 O 0.43121 0.77352 0.57906 0.0
O637 O 0.41514 0.77984 0.55392 0.0
O638 O 0.28681 0.64809 0.55274 0.0
O639 O 0.30209 0.68387 0.57736 0.0
C640 C 0.27017 0.65667 0.56569 0.0
O641 O 0.43142 0.66671 0.54122 0.0
O642 O 0.44035 0.70689 0.51917 0.0
C643 C 0.40526 0.62457 0.56965 0.0
C644 C 0.4577 0.68782 0.52924 0.0
Zn645 Zn 0.39053 0.71862 0.32141 0.0
Zn646 Zn 0.37939 0.69152 0.37488 0.0
Zn647 Zn 0.38493 0.70489 0.34848 0.0
C648 C 0.48118 0.74204 0.37471 0.0
C649 C 0.31979 0.59085 0.3647 0.0
O650 O 0.33947 0.74592 0.34262 0.0
O651 O 0.33252 0.73019 0.31681 0.0
C652 C 0.48931 0.78264 0.33219 0.0
O653 O 0.46572 0.73109 0.35984 0.0
O654 O 0.44931 0.73718 0.38451 0.0
O655 O 0.35314 0.61305 0.3763 0.0
O656 O 0.32644 0.61764 0.35233 0.0
O657 O 0.45928 0.78048 0.32096 0.0
O658 O 0.47052 0.75245 0.3438 0.0
O659 O 0.34329 0.62087 0.33593 0.0
O660 O 0.38066 0.64724 0.31386 0.0
C661 C 0.35336 0.60902 0.32223 0.0
O662 O 0.35659 0.75779 0.35965 0.0
O663 O 0.33427 0.71864 0.38187 0.0
C664 C 0.31823 0.74445 0.32891 0.0
C665 C 0.33841 0.7553 0.37327 0.0
C666 C 0.23857 0.21725 0.21967 0.0
C667 C 0.22985 0.24753 0.23152 0.0
C668 C 0.19834 0.18051 0.20838 0.0
C669 C 0.14838 0.17373 0.20842 0.0
H670 H 0.27602 0.21993 0.21961 0.0
H671 H 0.20571 0.15534 0.20016 0.0
S672 S 0.10912 0.25192 0.23516 0.0
N673 N 0.16988 0.27325 0.24145 0.0
N674 N 0.09515 0.20689 0.22001 0.0
C675 C 0.14084 0.20751 0.21945 0.0
C676 C 0.18125 0.24358 0.23109 0.0
C677 C 0.8704 0.06126 0.21929 0.0
C678 C 0.82304 0.01158 0.21955 0.0
C679 C 0.90433 0.0691 0.20744 0.0
C680 C 0.8921 0.02762 0.19543 0.0
H681 H 0.88355 0.09233 0.22904 0.0
H682 H 0.94281 0.10508 0.20878 0.0
S683 S 0.76817 0.89571 0.18868 0.0
N684 N 0.76176 0.92497 0.20498 0.0
N685 N 0.82607 0.93916 0.18313 0.0
C686 C 0.84245 0.98078 0.19456 0.0
C687 C 0.80789 0.97277 0.20654 0.0
C688 C 0.09311 0.87407 0.21294 0.0
C689 C 0.05479 0.84277 0.22305 0.0
C690 C 0.08381 0.90195 0.20119 0.0
C691 C 0.03564 0.89922 0.1989 0.0
H692 H 0.13193 0.8806 0.21494 0.0
H693 H 0.11626 0.93051 0.19502 0.0
S694 S 0.91926 0.81594 0.22012 0.0
N695 N 0.96414 0.80526 0.22839 0.0
N696 N 0.94715 0.8572 0.20615 0.0
C697 C 0.99521 0.8631 0.20757 0.0
C698 C 1.00463 0.83499 0.2197 0.0
C699 C 0.19271 0.25778 0.33101 0.0
C700 C 0.22607 0.23618 0.33063 0.0
C701 C 0.1542 0.24121 0.34175 0.0
C702 C 0.14788 0.20292 0.35267 0.0
H703 H 0.19308 0.28372 0.32204 0.0
H704 H 0.12577 0.25404 0.3404 0.0
S705 S 0.23265 0.14352 0.35873 0.0
N706 N 0.25584 0.18173 0.34381 0.0
N707 N 0.1839 0.15085 0.36401 0.0
C708 C 0.1852 0.1865 0.35368 0.0
C709 C 0.22392 0.20273 0.34259 0.0
C710 C 0.83328 0.99764 0.31689 0.0
C711 C 0.82726 0.04317 0.31991 0.0
C712 C 0.85921 0.98317 0.32809 0.0
C713 C 0.88153 0.01448 0.34263 0.0
H714 H 0.81936 0.97397 0.30556 0.0
H715 H 0.86646 0.95047 0.32467 0.0
S716 S 0.86995 0.13276 0.3572 0.0
N717 N 0.83915 0.11486 0.33938 0.0
N718 N 0.8904 0.08929 0.36014 0.0
C719 C 0.87155 0.05695 0.34639 0.0
C720 C 0.84413 0.07114 0.33505 0.0
C721 C 0.07517 0.90865 0.31644 0.0
C722 C 0.04324 0.85539 0.32084 0.0
C723 C 0.08736 0.95464 0.32655 0.0
C724 C 0.06739 0.94969 0.34146 0.0
H725 H 0.09032 0.91506 0.30493 0.0
H726 H 0.11041 0.99456 0.32221 0.0
S727 S 0.98626 0.81923 0.35936 0.0
N728 N 0.99585 0.80016 0.3418 0.0
N729 N 0.01753 0.88674 0.36064 0.0
C730 C 0.03806 0.89669 0.34645 0.0
C731 C 0.02612 0.84958 0.33616 0.0
C732 C 0.84523 0.83197 0.83637 0.0
C733 C 0.84294 0.8445 0.82059 0.0
C734 C 0.87847 0.87244 0.84833 0.0
C735 C 0.91039 0.92705 0.84497 0.0
H736 H 0.82231 0.79022 0.83946 0.0
H737 H 0.88109 0.86035 0.86006 0.0
S738 S 0.91307 0.98338 0.80634 0.0
N739 N 0.87183 0.91712 0.80281 0.0
N740 N 0.933 0.99278 0.82524 0.0
C741 C 0.90607 0.9407 0.82951 0.0
C742 C 0.8728 0.89961 0.81734 0.0
C743 C 0.15818 1.00461 0.82341 0.0
C744 C 0.21013 0.02906 0.82968 0.0
C745 C 0.11733 0.98829 0.83317 0.0
C746 C 0.12617 0.99624 0.84974 0.0
H747 H 0.14884 0.99985 0.81079 0.0
H748 H 0.07844 0.97129 0.82759 0.0
S749 S 0.25355 0.05051 0.87246 0.0
N750 N 0.26716 0.05351 0.85383 0.0
N751 N 0.1902 0.02509 0.8721 0.0
C752 C 0.17731 0.01735 0.85629 0.0
C753 C 0.21927 0.03353 0.84631 0.0
C754 C 0.02602 0.20216 0.84419 0.0
C755 C 0.0412 0.20541 0.82865 0.0
C756 C 0.03683 0.17258 0.85508 0.0
C757 C 0.06285 0.14484 0.85075 0.0
H758 H 1.00421 0.22124 0.84782 0.0
H759 H 0.02155 0.16829 0.86654 0.0
S760 S 0.11473 0.14374 0.81212 0.0
N761 N 0.0864 0.18043 0.80996 0.0
N762 N 0.10746 0.12626 0.83044 0.0
C763 C 0.08097 0.15052 0.83562 0.0
C764 C 0.06997 0.18041 0.82456 0.0
C765 C 0.84557 0.86155 0.71079 0.0
C766 C 0.84743 0.83296 0.72366 0.0
C767 C 0.88666 0.88458 0.70091 0.0
C768 C 0.93095 0.87959 0.70353 0.0
H769 H 0.81392 0.86949 0.70902 0.0
H770 H 0.88598 0.91102 0.69224 0.0
S771 S 0.94939 0.79813 0.73318 0.0
N772 N 0.8932 0.79288 0.73656 0.0
N773 N 0.97007 0.83637 0.71818 0.0
C774 C 0.9304 0.84598 0.7152 0.0
C775 C 0.88895 0.82291 0.72528 0.0
C776 C 0.22259 0.01115 0.71962 0.0
C777 C 0.24213 0.03887 0.73474 0.0
C778 C 0.19578 0.02671 0.70888 0.0
C779 C 0.18877 0.07126 0.71281 0.0
H780 H 0.22518 0.97523 0.71644 0.0
H781 H 0.1766 1.00081 0.6981 0.0
S782 S 0.24318 0.16467 0.7494 0.0
N783 N 0.25967 0.11794 0.75201 0.0
N784 N 0.21126 0.14804 0.73178 0.0
C785 C 0.21342 0.10274 0.72716 0.0
C786 C 0.23931 0.08619 0.73818 0.0
C787 C 0.99089 0.1758 0.73746 0.0
C788 C 0.02702 0.22932 0.73417 0.0
C789 C 0.97801 0.13098 0.72678 0.0
C790 C 1.00168 0.13744 0.71249 0.0
H791 H 0.97337 0.1682 0.7486 0.0
H792 H 0.95203 0.09047 0.73034 0.0
S793 S 0.09319 0.26997 0.69726 0.0
N794 N 0.08121 0.28722 0.7147 0.0
N795 N 0.05851 0.20251 0.69481 0.0
C796 C 0.03459 0.19112 0.70844 0.0
C797 C 0.04709 0.23714 0.71928 0.0
C798 C 0.90339 0.55412 0.55316 0.0
C799 C 0.89522 0.5829 0.56562 0.0
C800 C 0.86315 0.51979 0.54156 0.0
C801 C 0.81359 0.51386 0.54187 0.0
H802 H 0.94049 0.55615 0.55278 0.0
H803 H 0.87021 0.49575 0.53283 0.0
S804 S 0.77555 0.58865 0.57035 0.0
N805 N 0.83601 0.60812 0.5765 0.0
N806 N 0.76121 0.54608 0.55454 0.0
C807 C 0.8065 0.54606 0.55359 0.0
C808 C 0.84698 0.57979 0.56553 0.0
C809 C 0.47601 0.30201 0.54071 0.0
C810 C 0.48794 0.34281 0.55289 0.0
C811 C 0.50873 0.3114 0.52848 0.0
C812 C 0.55497 0.36185 0.528 0.0
H813 H 0.44318 0.26125 0.54128 0.0
H814 H 0.50094 0.27693 0.52041 0.0
S815 S 0.59996 0.485 0.55554 0.0
N816 N 0.5459 0.43817 0.56244 0.0
N817 N 0.60732 0.45527 0.53951 0.0
C818 C 0.56414 0.40487 0.539 0.0
C819 C 0.53079 0.39543 0.5515 0.0
C820 C 0.75972 0.21599 0.5447 0.0
C821 C 0.72143 0.18595 0.55496 0.0
C822 C 0.751 0.24406 0.5329 0.0
C823 C 0.70341 0.24263 0.53074 0.0
H824 H 0.7981 0.22125 0.54657 0.0
H825 H 0.7835 0.27167 0.52655 0.0
S826 S 0.58744 0.16341 0.55252 0.0
N827 N 0.63155 0.1514 0.56071 0.0
N828 N 0.61545 0.20342 0.53832 0.0
C829 C 0.66289 0.20774 0.53958 0.0
C830 C 0.6718 0.17961 0.55178 0.0
C831 C 0.85401 0.55968 0.66403 0.0
C832 C 0.89998 0.55717 0.66416 0.0
C833 C 0.81818 0.53525 0.67542 0.0
C834 C 0.82692 0.50749 0.68737 0.0
H835 H 0.84328 0.57616 0.6543 0.0
H836 H 0.78065 0.53227 0.67369 0.0
S837 S 0.94638 0.50074 0.69524 0.0
N838 N 0.95658 0.5341 0.67919 0.0
N839 N 0.88853 0.48703 0.70018 0.0
C840 C 0.87539 0.51072 0.68874 0.0
C841 C 0.91194 0.53552 0.6772 0.0
C842 C 0.51542 0.33968 0.65176 0.0
C843 C 0.49894 0.37781 0.65413 0.0
C844 C 0.54576 0.33297 0.66356 0.0
C845 C 0.56141 0.36452 0.67815 0.0
H846 H 0.50598 0.31578 0.64053 0.0
H847 H 0.56071 0.30607 0.66075 0.0
S848 S 0.52633 0.46767 0.69072 0.0
N849 N 0.49742 0.44471 0.67272 0.0
N850 N 0.55654 0.43368 0.69456 0.0
C851 C 0.54318 0.40081 0.68098 0.0
C852 C 0.5114 0.40701 0.66907 0.0
C853 C 0.6559 0.1432 0.66523 0.0
C854 C 0.68982 0.15962 0.65309 0.0
C855 C 0.65885 0.18162 0.67695 0.0
C856 C 0.69717 0.23723 0.67731 0.0
H857 H 0.62502 0.101 0.66514 0.0
H858 H 0.6291 0.16833 0.6852 0.0
S859 S 0.79918 0.29989 0.64946 0.0
N860 N 0.76549 0.23456 0.64297 0.0
N861 N 0.77185 0.30601 0.66524 0.0
C862 C 0.73349 0.25328 0.66593 0.0
C863 C 0.72965 0.21468 0.65376 0.0
C864 C 0.51475 0.1615 0.17024 0.0
C865 C 0.49816 0.17189 0.15569 0.0
C866 C 0.54769 0.20463 0.18162 0.0
C867 C 0.5642 0.2593 0.17888 0.0
H868 H 0.50496 0.12023 0.17242 0.0
H869 H 0.56388 0.19553 0.1919 0.0
S870 S 0.52214 0.30678 0.14436 0.0
N871 N 0.49405 0.23995 0.14039 0.0
N872 N 0.55481 0.32034 0.16177 0.0
C873 C 0.54319 0.26926 0.16516 0.0
C874 C 0.51067 0.2258 0.15353 0.0
C875 C 0.86911 0.31628 0.1703 0.0
C876 C 0.90959 0.3712 0.17081 0.0
C877 C 0.83023 0.2995 0.18091 0.0
C878 C 0.83031 0.3369 0.19242 0.0
H879 H 0.86418 0.28736 0.16066 0.0
H880 H 0.79632 0.25898 0.1787 0.0
S881 S 0.93526 0.48092 0.20152 0.0
N882 N 0.95334 0.45955 0.18599 0.0
N883 N 0.88012 0.42794 0.20581 0.0
C884 C 0.87475 0.38932 0.1946 0.0
C885 C 0.91413 0.4067 0.18371 0.0
C886 C 0.67728 0.5401 0.178 0.0
C887 C 0.70856 0.56889 0.16601 0.0
C888 C 0.69434 0.51673 0.18932 0.0
C889 C 0.74311 0.52069 0.1889 0.0
H890 H 0.63789 0.53226 0.17796 0.0
H891 H 0.6668 0.49009 0.19719 0.0
S892 S 0.84391 0.6001 0.16204 0.0
N893 N 0.79414 0.60675 0.15609 0.0
N894 N 0.82555 0.56271 0.17728 0.0
C895 C 0.77701 0.55479 0.17824 0.0
C896 C 0.75987 0.57874 0.16675 0.0
C897 C 0.51381 0.19157 0.04589 0.0
C898 C 0.51702 0.16576 0.05929 0.0
C899 C 0.55524 0.21567 0.03618 0.0
C900 C 0.60144 0.21477 0.0395 0.0
H901 H 0.48036 0.19611 0.04345 0.0
H902 H 0.55277 0.23931 1.0269 0.0
S903 S 0.62491 0.14188 0.07094 0.0
N904 N 0.56681 0.13272 0.07361 0.0
N905 N 0.64459 0.17874 0.05562 0.0
C906 C 0.60298 0.18455 0.05191 0.0
C907 C 0.56097 0.16011 0.06178 0.0
C908 C 0.90833 0.37604 0.05645 0.0
C909 C 0.89354 0.3594 0.07171 0.0
C910 C 0.8789 0.39014 0.04626 0.0
C911 C 0.83401 0.3889 0.05105 0.0
H912 H 0.94353 0.3793 0.05243 0.0
H913 H 0.89193 0.40317 0.03476 0.0
S914 S 0.77462 0.34116 0.08888 0.0
N915 N 0.82809 0.33772 0.0903 0.0
N916 N 0.77338 0.36411 0.07153 0.0
C917 C 0.81788 0.37026 0.06604 0.0
C918 C 0.84744 0.35564 0.07626 0.0
C919 C 0.65465 0.50666 0.07078 0.0
C920 C 0.68995 0.56018 0.06728 0.0
C921 C 0.6414 0.46163 0.06013 0.0
C922 C 0.66388 0.46778 0.04561 0.0
H923 H 0.63769 0.49925 0.08202 0.0
H924 H 0.61571 0.42126 0.06382 0.0
S925 S 0.75347 0.60017 0.02991 0.0
N926 N 0.74252 0.61766 0.04748 0.0
N927 N 0.71923 0.53267 1.02763 0.0
C928 C 0.69641 0.52143 0.04145 0.0
C929 C 0.70922 0.56764 0.05226 0.0
C930 C 0.5597 0.9122 0.88916 0.0
C931 C 0.57455 0.90014 0.90372 0.0
C932 C 0.52852 0.87034 0.87722 0.0
C933 C 0.51208 0.81522 0.87934 0.0
H934 H 0.56963 0.95377 0.88735 0.0
H935 H 0.51371 0.8807 0.86689 0.0
S936 S 0.55031 0.76397 0.91379 0.0
N937 N 0.57716 0.83029 0.91849 0.0
N938 N 0.52001 0.75237 0.89608 0.0
C939 C 0.53141 0.80379 0.89317 0.0
C940 C 0.56204 0.84594 0.90538 0.0
C941 C 0.17235 0.67212 0.87556 0.0
C942 C 0.17222 0.70598 0.8882 0.0
C943 C 0.21233 0.69203 0.86525 0.0
C944 C 0.25384 0.74653 0.86722 0.0
H945 H 0.1435 0.62897 0.87432 0.0
H946 H 0.21368 0.66298 0.85683 0.0
S947 S 0.26497 0.85508 0.8959 0.0
N948 N 0.21168 0.79944 0.89998 0.0
N949 N 0.28761 0.83594 0.88109 0.0
C950 C 0.25098 0.78202 0.87869 0.0
C951 C 0.2102 0.76197 0.88911 0.0
C952 C 0.38385 0.53384 0.87898 0.0
C953 C 0.35426 0.5096 0.89175 0.0
C954 C 0.36834 0.55921 0.86791 0.0
C955 C 0.32292 0.56188 0.8693 0.0
H956 H 0.42084 0.53604 0.87808 0.0
H957 H 0.39493 0.58176 0.85925 0.0
S958 S 0.22706 0.49702 0.8988 0.0
N959 N 0.27358 0.48399 0.90376 0.0
N960 N 0.24473 0.53122 0.88294 0.0
C961 C 0.29026 0.53272 0.88093 0.0
C962 C 0.30592 0.50689 0.89221 0.0
C963 C 0.52581 0.90031 1.00255 0.0
C964 C 0.56983 0.89414 1.00322 0.0
C965 C 0.48698 0.87535 1.01303 0.0
C966 C 0.49046 0.84309 1.02454 0.0
H967 H 0.51861 0.91997 0.99297 0.0
H968 H 0.45101 0.87538 1.01076 0.0
S969 S 0.60365 0.82654 0.03409 0.0
N970 N 0.61956 0.86357 1.01872 0.0
N971 N 0.5456 0.81527 0.03795 0.0
C972 C 0.53723 0.84298 1.0267 0.0
C973 C 0.57698 0.86848 1.01609 0.0
C974 C 0.17621 0.6717 0.98673 0.0
C975 C 0.16023 0.71063 0.98784 0.0
C976 C 0.20567 0.66689 0.99928 0.0
C977 C 0.22095 0.7013 1.01333 0.0
H978 H 0.16694 0.64559 0.97595 0.0
H979 H 0.22024 0.63912 0.99745 0.0
S980 S 0.18717 0.80792 1.02257 0.0
N981 N 0.15898 0.7816 1.00465 0.0
N982 N 0.21645 0.77417 1.02782 0.0
C983 C 0.20336 0.73864 1.01485 0.0
C984 C 0.17246 0.74286 1.00223 0.0
C985 C 0.31514 0.50618 0.98376 0.0
C986 C 0.35188 0.49063 0.98738 0.0
C987 C 0.31091 0.54408 0.99373 0.0
C988 C 0.34392 0.56922 1.00771 0.0
H989 H 0.28974 0.48948 0.97297 0.0
H990 H 0.28229 0.55496 0.99008 0.0
S991 S 0.44523 0.54043 1.02305 0.0
N992 N 0.42032 0.50084 1.00641 0.0
N993 N 0.41311 0.5734 1.02499 0.0
C994 C 0.37965 0.55254 1.01182 0.0
C995 C 0.3835 0.51305 1.0017 0.0
C996 C 0.17834 0.54019 0.49297 0.0
C997 C 0.1636 0.48459 0.49067 0.0
C998 C 0.21137 0.57358 0.50612 0.0
C999 C 0.23168 0.55291 0.51733 0.0
H1000 H 0.16571 0.55857 0.48425 0.0
H1001 H 0.22489 0.61699 0.50673 0.0
S1002 S 0.20224 0.40958 0.51747 0.0
N1003 N 0.16837 0.40942 0.50153 0.0
N1004 N 0.23242 0.4729 0.52576 0.0
C1005 C 0.21492 0.49683 0.51565 0.0
C1006 C 0.18039 0.46249 0.50245 0.0
C1007 C 0.54006 0.66748 0.50239 0.0
C1008 C 0.58343 0.72095 0.50327 0.0
C1009 C 0.50224 0.65209 0.51336 0.0
C1010 C 0.50623 0.6894 0.52563 0.0
H1011 H 0.53254 0.63891 0.49236 0.0
H1012 H 0.46653 0.61311 0.51101 0.0
S1013 S 0.61802 0.82935 0.53544 0.0
N1014 N 0.63296 0.80729 0.51934 0.0
N1015 N 0.56122 0.77859 0.53958 0.0
C1016 C 0.55252 0.74022 0.5278 0.0
C1017 C 0.59107 0.75608 0.51666 0.0
C1018 C 0.38849 0.86592 0.4948 0.0
C1019 C 0.35178 0.88203 0.49757 0.0
C1020 C 0.39816 0.83486 0.50529 0.0
C1021 C 0.37189 0.81884 0.51903 0.0
H1022 H 0.40726 0.87379 0.4839 0.0
H1023 H 0.4232 0.81935 0.50194 0.0
S1024 S 0.27911 0.8579 0.53334 0.0
N1025 N 0.29477 0.88605 0.51642 0.0
N1026 N 0.312 0.82592 0.53582 0.0
C1027 C 0.33835 0.83812 0.52266 0.0
C1028 C 0.3285 0.87009 0.512 0.0
C1029 C 0.22364 0.4984 0.39109 0.0
C1030 C 0.18891 0.51827 0.39097 0.0
C1031 C 0.26195 0.5147 0.3803 0.0
C1032 C 0.26687 0.5513 0.36896 0.0
H1033 H 0.22454 0.4744 0.40048 0.0
H1034 H 0.29159 0.50369 0.38204 0.0
S1035 S 0.17725 0.60392 0.36135 0.0
N1036 N 0.15536 0.56744 0.37665 0.0
N1037 N 0.22749 0.59859 0.35655 0.0
C1038 C 0.22783 0.56512 0.36738 0.0
C1039 C 0.1891 0.54889 0.37844 0.0
C1040 C 0.56865 0.69069 0.38843 0.0
C1041 C 0.58617 0.71782 0.40369 0.0
C1042 C 0.54029 0.70419 0.37763 0.0
C1043 C 0.52959 0.74608 0.38163 0.0
H1044 H 0.57402 0.6566 0.38518 0.0
H1045 H 0.52265 0.67841 0.36674 0.0
S1046 S 0.57742 0.83761 0.41862 0.0
N1047 N 0.59795 0.79406 0.42118 0.0
N1048 N 0.54627 0.82016 0.40087 0.0
C1049 C 0.55218 0.7773 0.39614 0.0
C1050 C 0.57976 0.76283 0.40721 0.0
C1051 C 0.3776 0.89964 0.38807 0.0
C1052 C 0.35358 0.89118 0.40233 0.0
C1053 C 0.36828 0.85518 0.37754 0.0
C1054 C 0.33399 0.80087 0.38084 0.0
H1055 H 0.40587 0.94065 0.38543 0.0
H1056 H 0.39091 0.86331 0.36741 0.0
S1057 S 0.25249 0.75788 0.41477 0.0
N1058 N 0.28811 0.82509 0.41791 0.0
N1059 N 0.26968 0.74205 0.39809 0.0
C1060 C 0.30597 0.79253 0.39428 0.0
C1061 C 0.31613 0.83749 0.40507 0.0
C1062 C 0.26087 0.12404 0.14118 0.0
C1063 C 0.27086 0.08188 0.1443 0.0
C1064 C 0.22233 0.12895 0.14874 0.0
C1065 C 0.19317 0.09247 0.15985 0.0
H1066 H 0.27904 0.14963 0.13171 0.0
H1067 H 0.21118 0.15734 0.14453 0.0
S1068 S 0.21247 0.98255 0.17439 0.0
N1069 N 0.25458 1.0087 0.16092 0.0
N1070 N 0.18288 0.01846 0.17524 0.0
C1071 C 0.20771 0.05489 0.16446 0.0
C1072 C 0.24618 0.04923 0.15659 0.0
C1073 C 0.99799 0.21209 0.12963 0.0
C1074 C 0.95158 0.21042 0.13282 0.0
C1075 C 0.01236 0.17721 0.13641 0.0
C1076 C 0.98132 0.13866 0.14682 0.0
H1077 H 0.02362 0.2404 0.12167 0.0
H1078 H 0.04834 0.18022 0.13325 0.0
S1079 S 0.85729 0.11922 0.16002 0.0
N1080 N 0.87527 0.16822 0.14786 0.0
N1081 N 0.90276 0.10232 0.16053 0.0
C1082 C 0.93549 0.1373 0.15058 0.0
C1083 C 0.92045 0.173 0.14355 0.0
C1084 C 0.90268 0.77946 0.13277 0.0
C1085 C 0.85057 0.76687 0.13156 0.0
C1086 C 0.94218 0.82891 0.14068 0.0
C1087 C 0.93063 0.86635 0.14814 0.0
H1088 H 0.91336 0.7522 0.12695 0.0
H1089 H 0.98222 0.83908 0.14032 0.0
S1090 S 0.80042 0.85095 0.14971 0.0
N1091 N 0.78958 0.79488 0.13944 0.0
N1092 N 0.86365 0.88669 0.15447 0.0
C1093 C 0.87858 0.85289 0.14777 0.0
C1094 C 0.83858 0.8034 0.13946 0.0
C1095 C 0.14357 0.29076 0.42689 0.0
C1096 C 0.11015 0.31149 0.4241 0.0
C1097 C 0.13628 0.24375 0.41816 0.0
C1098 C 0.0965 0.21666 0.4059 0.0
H1099 H 0.17424 0.30956 0.43637 0.0
H1100 H 0.16044 0.22687 0.42154 0.0
S1101 S 1.00184 0.25744 0.39264 0.0
N1102 N 0.03786 0.30329 0.40737 0.0
N1103 N 0.02521 0.21582 0.39078 0.0
C1104 C 0.06486 0.23885 0.40232 0.0
C1105 C 0.07136 0.28594 0.41147 0.0
C1106 C 0.81046 0.91426 0.41683 0.0
C1107 C 0.80017 0.86089 0.41289 0.0
C1108 C 0.84551 0.95839 0.40864 0.0
C1109 C 0.87072 0.95058 0.39602 0.0
H1110 H 0.79532 0.92265 0.42724 0.0
H1111 H 0.85723 0.99952 0.4133 0.0
S1112 S 0.84852 0.81708 0.37915 0.0
N1113 N 0.81159 0.8015 0.3941 0.0
N1114 N 0.8766 0.88409 0.37861 0.0
C1115 C 0.85554 0.89653 0.39079 0.0
C1116 C 0.82074 0.85179 0.39931 0.0
C1117 C 0.21123 0.01498 0.39627 0.0
C1118 C 0.20948 0.9857 0.40937 0.0
C1119 C 0.16584 1.01041 0.38901 0.0
C1120 C 0.11739 0.97732 0.39487 0.0
H1121 H 0.24836 0.04466 0.39239 0.0
H1122 H 0.16962 0.03785 0.38007 0.0
S1123 S 0.09082 0.88509 0.42694 0.0
N1124 N 0.15445 0.91626 0.42623 0.0
N1125 N 0.06935 0.9087 0.41288 0.0
C1126 C 0.11456 0.94329 0.40674 0.0
C1127 C 0.16062 0.94733 0.41397 0.0
C1128 C 0.80942 0.94071 0.92201 0.0
C1129 C 0.79854 0.98069 0.91709 0.0
C1130 C 0.8473 0.93297 0.9151 0.0
C1131 C 0.87478 0.96411 0.90282 0.0
H1132 H 0.79212 0.91902 0.9322 0.0
H1133 H 0.85864 0.90616 0.9204 0.0
S1134 S 0.85287 0.06613 0.88368 0.0
N1135 N 0.81244 0.04593 0.89775 0.0
N1136 N 0.8829 0.0307 0.8846 0.0
C1137 C 0.85971 0.99945 0.8966 0.0
C1138 C 0.82191 1.00812 0.90383 0.0
C1139 C 0.14962 0.89262 0.92042 0.0
C1140 C 0.10909 0.83994 0.92316 0.0
C1141 C 0.13961 0.92954 0.91262 0.0
C1142 C 0.08901 0.91453 0.9068 0.0
H1143 H 0.18911 0.90635 0.92494 0.0
H1144 H 0.17117 0.97098 0.91191 0.0
S1145 S 0.97004 0.78031 0.90933 0.0
N1146 N 0.01671 0.7739 0.91827 0.0
N1147 N 0.99855 0.84286 0.90351 0.0
C1148 C 0.0488 0.86118 0.90865 0.0
C1149 C 0.05863 0.824 0.91682 0.0
C1150 C 0.16086 0.26935 0.92846 0.0
C1151 C 0.21232 0.29041 0.92455 0.0
C1152 C 0.12065 0.21897 0.92139 0.0
C1153 C 0.13008 0.18887 0.90975 0.0
H1154 H 0.15204 0.29043 0.93765 0.0
H1155 H 0.08231 0.2022 0.92558 0.0
S1156 S 0.25662 0.22893 0.89399 0.0
N1157 N 0.26974 0.27912 0.90742 0.0
N1158 N 0.19366 0.18531 0.89385 0.0
C1159 C 0.18055 0.21119 0.90496 0.0
C1160 C 0.22182 0.26174 0.91244 0.0
C1161 C 0.91984 0.79427 0.62914 0.0
C1162 C 0.94997 0.77041 0.63287 0.0
C1163 C 0.92904 0.84266 0.63749 0.0
C1164 C 0.96735 0.86785 0.65023 0.0
H1165 H 0.89106 0.77729 0.61912 0.0
H1166 H 0.90799 0.86222 0.63339 0.0
S1167 S 0.05165 0.81739 0.66613 0.0
N1168 N 0.01636 0.77272 0.65109 0.0
N1169 N 0.03235 0.86268 0.66703 0.0
C1170 C 0.9948 0.842 0.65486 0.0
C1171 C 0.9865 0.79357 0.6461 0.0
C1172 C 0.25336 0.22856 0.65614 0.0
C1173 C 0.27611 0.21912 0.64314 0.0
C1174 C 0.21721 0.18514 0.66429 0.0
C1175 C 0.20157 0.13055 0.65948 0.0
H1176 H 0.26087 0.26946 0.65931 0.0
H1177 H 0.19677 0.1939 0.67309 0.0
S1178 S 0.2551 0.08474 0.6277 0.0
N1179 N 0.28567 0.15194 0.62729 0.0
N1180 N 0.21645 0.07025 0.64218 0.0
C1181 C 0.22801 0.12128 0.64757 0.0
C1182 C 0.26548 0.16555 0.63946 0.0
C1183 C 0.85833 0.06574 0.65798 0.0
C1184 C 0.85808 0.09264 0.64452 0.0
C1185 C 0.90485 0.07288 0.66521 0.0
C1186 C 0.95254 0.10617 0.65894 0.0
H1187 H 0.82192 0.03604 0.66226 0.0
H1188 H 0.9026 0.04724 0.67453 0.0
S1189 S 0.9738 0.19269 0.62562 0.0
N1190 N 0.9103 0.16003 0.62674 0.0
N1191 N 0.99754 0.17236 0.64 0.0
C1192 C 0.95329 0.13776 0.64659 0.0
C1193 C 0.90605 0.13114 0.63941 0.0
C1194 C 0.91845 0.48233 0.47242 0.0
C1195 C 0.93651 0.44503 0.47239 0.0
C1196 C 0.87816 0.47592 0.4816 0.0
C1197 C 0.85406 0.43167 0.49099 0.0
H1198 H 0.93335 0.51467 0.4645 0.0
H1199 H 0.86207 0.50228 0.47999 0.0
S1200 S 0.89061 0.32631 0.49653 0.0
N1201 N 0.93078 0.36575 0.48393 0.0
N1202 N 0.85435 0.35311 0.50087 0.0
C1203 C 0.87484 0.39707 0.49215 0.0
C1204 C 0.91623 0.40385 0.48293 0.0
C1205 C 0.59406 0.51456 0.47102 0.0
C1206 C 0.63376 0.56367 0.46569 0.0
C1207 C 0.60537 0.47846 0.47887 0.0
C1208 C 0.65684 0.49032 0.48176 0.0
H1209 H 0.55377 0.50318 0.4688 0.0
H1210 H 0.57361 0.43994 0.48196 0.0
S1211 S 0.77539 0.61542 0.47195 0.0
N1212 N 0.72715 0.62338 0.46519 0.0
N1213 N 0.74787 0.55614 0.4798 0.0
C1214 C 0.69679 0.54023 0.47718 0.0
C1215 C 0.68546 0.57668 0.46919 0.0
C1216 C 0.55878 0.11844 0.47144 0.0
C1217 C 0.50877 0.10806 0.46627 0.0
C1218 C 0.59681 0.16964 0.47891 0.0
C1219 C 0.58585 0.2119 0.4816 0.0
H1220 H 0.56926 0.08744 0.46926 0.0
H1221 H 0.63561 0.17709 0.48184 0.0
S1222 S 0.46027 0.20484 0.47215 0.0
N1223 N 0.44988 0.14403 0.46578 0.0
N1224 N 0.52123 0.23942 0.47964 0.0
C1225 C 0.53561 0.20131 0.47724 0.0
C1226 C 0.49709 0.14966 0.46964 0.0
C1227 C 0.73048 0.58298 0.75879 0.0
C1228 C 0.77554 0.63037 0.75524 0.0
C1229 C 0.71476 0.53195 0.75094 0.0
C1230 C 0.743 0.52548 0.73903 0.0
H1231 H 0.70705 0.58504 0.76783 0.0
H1232 H 0.68001 0.49689 0.7544 0.0
S1233 S 0.86264 0.63651 0.72453 0.0
N1234 N 0.84764 0.66762 0.73844 0.0
N1235 N 0.81745 0.57118 0.72369 0.0
C1236 C 0.7874 0.57244 0.73499 0.0
C1237 C 0.80389 0.62484 0.74312 0.0
C1238 C 0.47167 0.22861 0.74618 0.0
C1239 C 0.46049 0.17412 0.74485 0.0
C1240 C 0.50853 0.26785 0.73704 0.0
C1241 C 0.53479 0.25369 0.72613 0.0
H1242 H 0.45573 0.24196 0.75537 0.0
H1243 H 0.52089 0.31052 0.73984 0.0
S1244 S 0.5118 0.11431 0.71632 0.0
N1245 N 0.47282 0.10649 0.73035 0.0
N1246 N 0.54128 0.17979 0.71311 0.0
C1247 C 0.51904 0.19808 0.72345 0.0
C1248 C 0.48232 0.15844 0.7329 0.0
C1249 C 0.89792 0.36461 0.73378 0.0
C1250 C 0.89503 0.33023 0.74559 0.0
C1251 C 0.85285 0.3579 0.72557 0.0
C1252 C 0.80328 0.31707 0.72906 0.0
H1253 H 0.93518 0.39888 0.73152 0.0
H1254 H 0.85668 0.38832 0.71767 0.0
S1255 S 0.77463 0.21272 0.75758 0.0
N1256 N 0.83866 0.25031 0.75908 0.0
N1257 N 0.75411 0.2387 0.74398 0.0
C1258 C 0.80014 0.27974 0.73986 0.0
C1259 C 0.84596 0.28606 0.74806 0.0
C1260 C 0.4915 0.3522 0.23434 0.0
C1261 C 0.4664 0.31795 0.24634 0.0
C1262 C 0.53015 0.34861 0.2265 0.0
C1263 C 0.54561 0.31115 0.23054 0.0
H1264 H 0.48403 0.38484 0.2319 0.0
H1265 H 0.55232 0.37972 0.21865 0.0
S1266 S 0.48672 0.20719 0.25944 0.0
N1267 N 0.45484 0.24072 0.26033 0.0
N1268 N 0.52842 0.23485 0.24593 0.0
C1269 C 0.51694 0.27297 0.24129 0.0
C1270 C 0.47714 0.27621 0.24915 0.0
C1271 C 0.73043 0.17869 0.25611 0.0
C1272 C 0.78076 0.18703 0.25541 0.0
C1273 C 0.71551 0.21245 0.24888 0.0
C1274 C 0.74996 0.25658 0.24055 0.0
H1275 H 0.70205 0.14607 0.26248 0.0
H1276 H 0.67648 0.2045 0.2502 0.0
S1277 S 0.88521 0.29441 0.23401 0.0
N1278 N 0.86463 0.24132 0.24472 0.0
N1279 N 0.83611 0.30527 0.2313 0.0
C1280 C 0.79984 0.26448 0.23915 0.0
C1281 C 0.81536 0.22981 0.24658 0.0
C1282 C 0.87691 0.59243 0.26391 0.0
C1283 C 0.88269 0.63889 0.25698 0.0
C1284 C 0.84028 0.53967 0.25758 0.0
C1285 C 0.80729 0.53015 0.24392 0.0
H1286 H 0.9012 0.5966 0.27436 0.0
H1287 H 0.83832 0.50583 0.26352 0.0
S1288 S 0.80606 0.63767 0.22109 0.0
N1289 N 0.8521 0.67216 0.23552 0.0
N1290 N 0.78247 0.57228 0.22373 0.0
C1291 C 0.81227 0.57611 0.2368 0.0
C1292 C 0.84991 0.6305 0.24333 0.0
C1293 C 0.58246 0.12061 0.96444 0.0
C1294 C 0.61248 0.09694 0.96851 0.0
C1295 C 0.592 0.16982 0.97239 0.0
C1296 C 0.63042 0.19592 0.98509 0.0
H1297 H 0.55355 0.10278 0.95446 0.0
H1298 H 0.57109 0.18919 0.96801 0.0
S1299 S 0.71456 0.14636 1.00174 0.0
N1300 N 0.67901 0.10056 0.98696 0.0
N1301 N 0.69546 0.19181 1.00218 0.0
C1302 C 0.65775 0.17028 0.99005 0.0
C1303 C 0.6492 0.12113 0.98168 0.0
C1304 C 0.91576 0.55628 0.98893 0.0
C1305 C 0.93972 0.54554 0.97651 0.0
C1306 C 0.88057 0.51413 0.99766 0.0
C1307 C 0.86691 0.45938 0.99398 0.0
H1308 H 0.9215 0.59693 0.99114 0.0
H1309 H 0.85909 0.5235 1.00592 0.0
S1310 S 0.9242 0.41106 0.96406 0.0
N1311 N 0.95267 0.47763 0.96246 0.0
N1312 N 0.885 0.39809 0.97834 0.0
C1313 C 0.8946 0.44923 0.98267 0.0
C1314 C 0.93121 0.49233 0.97401 0.0
C1315 C 0.52614 0.39933 0.9906 0.0
C1316 C 0.52575 0.42375 0.9766 0.0
C1317 C 0.57257 0.4066 0.99793 0.0
C1318 C 0.62001 0.43747 0.99125 0.0
H1319 H 0.48979 0.37124 0.99524 0.0
H1320 H 0.57027 0.3827 1.00773 0.0
S1321 S 0.64094 0.51759 0.9564 0.0
N1322 N 0.57761 0.48668 0.95782 0.0
N1323 N 0.66476 0.49924 0.97127 0.0
C1324 C 0.62074 0.46688 0.9783 0.0
C1325 C 0.57357 0.46017 0.97101 0.0
C1326 C 0.58159 0.72289 0.82213 0.0
C1327 C 0.60895 0.75744 0.81043 0.0
C1328 C 0.54425 0.72902 0.83001 0.0
C1329 C 0.53214 0.7693 0.82627 0.0
H1330 H 0.58639 0.68836 0.82434 0.0
H1331 H 0.52035 0.69787 0.83761 0.0
S1332 S 0.59766 0.87472 0.79818 0.0
N1333 N 0.62607 0.83768 0.79705 0.0
N1334 N 0.55485 0.84813 0.81144 0.0
C1335 C 0.56297 0.80741 0.81579 0.0
C1336 C 0.60154 0.80168 0.80794 0.0
C1337 C 0.2584 0.84394 0.80652 0.0
C1338 C 0.29545 0.89099 0.79961 0.0
C1339 C 0.27262 0.81013 0.81444 0.0
C1340 C 0.32451 0.82256 0.81588 0.0
H1341 H 0.21781 0.83224 0.80546 0.0
H1342 H 0.24259 0.77279 0.81872 0.0
S1343 S 0.43742 0.94368 0.80171 0.0
N1344 N 0.38715 0.94987 0.79608 0.0
N1345 N 0.41347 0.88706 0.8109 0.0
C1346 C 0.36207 0.87074 0.80976 0.0
C1347 C 0.34773 0.9047 0.80163 0.0
C1348 C 0.18376 0.47254 0.81991 0.0
C1349 C 0.17549 0.44829 0.80435 0.0
C1350 C 0.22997 0.52111 0.82523 0.0
C1351 C 0.26972 0.54757 0.81516 0.0
H1352 H 0.15347 0.45511 0.82794 0.0
H1353 H 0.23298 0.53986 0.83691 0.0
S1354 S 0.27146 0.49717 0.77424 0.0
N1355 N 0.21411 0.45163 0.77964 0.0
N1356 N 0.30053 0.54268 0.78955 0.0
C1357 C 0.2636 0.52173 0.8 0.0
C1358 C 0.21668 0.47224 0.79461 0.0
C1359 C 0.40271 0.91189 0.09653 0.0
C1360 C 0.44206 0.95982 0.09094 0.0
C1361 C 0.38706 0.86039 0.08904 0.0
C1362 C 0.40954 0.854 0.07547 0.0
H1363 H 0.38358 0.914 0.10681 0.0
H1364 H 0.35644 0.82507 0.09398 0.0
S1365 S 0.51364 0.96655 0.05572 0.0
N1366 N 0.50312 0.99782 0.07073 0.0
N1367 N 0.47315 0.90049 0.05667 0.0
C1368 C 0.44869 0.9015 0.0696 0.0
C1369 C 0.46517 0.95439 0.07735 0.0
C1370 C 0.14115 0.49012 0.06583 0.0
C1371 C 0.1203 0.50241 0.07885 0.0
C1372 C 0.17634 0.53146 0.05692 0.0
C1373 C 0.19278 0.58681 0.06085 0.0
H1374 H 0.13315 0.44873 0.06327 0.0
H1375 H 0.19576 0.52071 0.04822 0.0
S1376 S 0.14369 0.63955 0.09224 0.0
N1377 N 0.11302 0.57284 0.09376 0.0
N1378 N 0.1803 0.65066 0.07733 0.0
C1379 C 0.16778 0.59871 0.07269 0.0
C1380 C 0.13143 0.55653 0.08166 0.0
C1381 C 0.55105 0.68564 0.06362 0.0
C1382 C 0.5493 0.65205 0.07553 0.0
C1383 C 0.50532 0.67814 0.05568 0.0
C1384 C 0.45635 0.63754 0.05965 0.0
H1385 H 0.58786 0.72028 0.06121 0.0
H1386 H 0.50823 0.70824 0.0478 0.0
S1387 S 0.43082 0.53345 0.088 0.0
N1388 N 0.49477 0.57182 0.08917 0.0
N1389 N 0.40893 0.5588 0.07459 0.0
C1390 C 0.45437 0.60018 0.07026 0.0
C1391 C 0.50086 0.60725 0.07816 0.0
C1392 C 0.15315 0.61968 0.58765 0.0
C1393 C 0.13501 0.65187 0.58098 0.0
C1394 C 0.19305 0.61462 0.58113 0.0
C1395 C 0.21546 0.64066 0.56753 0.0
H1396 H 0.13991 0.60267 0.59877 0.0
H1397 H 0.20982 0.59446 0.5876 0.0
S1398 S 0.17418 0.72048 0.54394 0.0
N1399 N 0.13685 0.7034 0.5588 0.0
N1400 N 0.21137 0.69331 0.54648 0.0
C1401 C 0.19349 0.66768 0.55979 0.0
C1402 C 0.15346 0.67357 0.56657 0.0
C1403 C 0.39994 0.5087 0.59118 0.0
C1404 C 0.4475 0.51164 0.58891 0.0
C1405 C 0.38611 0.54342 0.58403 0.0
C1406 C 0.41888 0.58297 0.57415 0.0
H1407 H 0.37313 0.47979 0.59879 0.0
H1408 H 0.34948 0.54002 0.5866 0.0
S1409 S 0.54611 0.60541 0.56316 0.0
N1410 N 0.5265 0.55567 0.57511 0.0
N1411 N 0.50003 0.62135 0.56177 0.0
C1412 C 0.46568 0.58528 0.57118 0.0
C1413 C 0.48015 0.54974 0.57857 0.0
C1414 C 0.50855 0.95358 0.5803 0.0
C1415 C 0.55882 0.96433 0.58528 0.0
C1416 C 0.47041 0.90209 0.57301 0.0
C1417 C 0.48158 0.86004 0.5702 0.0
H1418 H 0.49783 0.9843 0.58265 0.0
H1419 H 0.43129 0.89418 0.57041 0.0
S1420 S 0.60788 0.86818 0.57923 0.0
N1421 N 0.61821 0.92906 0.58549 0.0
N1422 N 0.5467 0.83317 0.57193 0.0
C1423 C 0.5322 0.87118 0.57428 0.0
C1424 C 0.57078 0.92306 0.58176 0.0
C1425 C 0.34717 0.49343 0.29633 0.0
C1426 C 0.29919 0.44767 0.29885 0.0
C1427 C 0.36443 0.5444 0.30442 0.0
C1428 C 0.33488 0.55229 0.31555 0.0
H1429 H 0.37169 0.49018 0.28789 0.0
H1430 H 0.40146 0.57826 0.30178 0.0
S1431 S 0.2074 0.44553 0.3272 0.0
N1432 N 0.2228 0.41311 0.31382 0.0
N1433 N 0.25571 0.50963 0.32901 0.0
C1434 C 0.28733 0.50683 0.31854 0.0
C1435 C 0.26932 0.45449 0.31016 0.0
C1436 C 0.6048 0.85022 0.31003 0.0
C1437 C 0.6162 0.90463 0.31236 0.0
C1438 C 0.56946 0.80966 0.31917 0.0
C1439 C 0.54478 0.82229 0.33101 0.0
H1440 H 0.61902 0.83801 0.30008 0.0
H1441 H 0.5564 0.76726 0.31559 0.0
S1442 S 0.57126 0.96093 0.34404 0.0
N1443 N 0.60759 0.97068 0.32913 0.0
N1444 N 0.5416 0.89469 0.34626 0.0
C1445 C 0.56164 0.87772 0.33479 0.0
C1446 C 0.59693 0.91881 0.32539 0.0
C1447 C 0.21317 0.77688 0.31746 0.0
C1448 C 0.17067 0.72413 0.31275 0.0
C1449 C 0.26057 0.7843 0.32427 0.0
C1450 C 0.26655 0.73915 0.32687 0.0
H1451 H 0.21025 0.81268 0.31551 0.0
H1452 H 0.29333 0.82541 0.32676 0.0
S1453 S 0.16938 0.59319 0.31607 0.0
N1454 N 0.13977 0.62641 0.31073 0.0
N1455 N 0.22719 0.64061 0.324 0.0
C1456 C 0.2241 0.68652 0.32268 0.0
C1457 C 0.17661 0.67889 0.31552 0.0
loop_
_geom_bond_atom_site_label_1
_geom_bond_atom_site_label_2
_geom_bond_distance
_geom_bond_site_symmetry_2
_ccdc_geom_bond_type
Cu0 N1 1.999 . S
Cu0 O6 1.974 . S
Cu0 N11 1.985 . S
Cu0 O20 1.959 1_545 S
N1 Cu0 1.999 . S
N1 C3 1.263 . S
N1 C5 1.382 1_545 S
N2 C3 1.358 . S
N2 C4 1.400 . S
C3 N1 1.263 . S
C3 N2 1.358 . S
C3 H9 0.930 . S
C4 N2 1.400 . S
C4 C5 1.350 1_545 S
C4 H21 0.930 . S
C5 N1 1.382 1_565 S
C5 C4 1.350 1_565 S
C5 H10 0.937 . S
O6 Cu0 1.974 . S
O6 C16 1.282 . S
C7 O8 1.261 . S
C7 O20 1.251 1_545 S
O8 C7 1.261 . S
H9 C3 0.930 . S
H10 C5 0.937 . S
N11 Cu0 1.985 . S
N11 C13 1.335 1_545 S
N11 C14 1.390 . S
N12 C13 1.345 . S
N12 C15 1.336 1_565 S
C13 N11 1.335 1_565 S
C13 N12 1.345 . S
C13 H18 0.930 . S
C14 N11 1.390 . S
C14 C15 1.346 . S
C14 H19 0.930 . S
C15 N12 1.336 1_545 S
C15 C14 1.346 . S
C15 H22 0.929 . S
C16 O6 1.282 . S
C16 O17 1.216 . S
O17 C16 1.216 . S
H18 C13 0.930 . S
H19 C14 0.930 . S
O20 Cu0 1.959 1_565 S
O20 C7 1.251 1_565 S
H21 C4 0.930 . S
H22 C15 0.929 . S
Cu23 N24 1.999 . S
Cu23 O29 1.974 . S
Cu23 N34 1.985 . S
Cu23 O43 1.959 . S
N24 Cu23 1.999 . S
N24 C26 1.263 1_455 S
N24 C28 1.389 . S
N25 C26 1.358 . S
N25 C27 1.400 1_655 S
C26 N24 1.263 1_655 S
C26 N25 1.358 . S
C26 H32 0.930 . S
C27 N25 1.400 1_455 S
C27 C28 1.351 . S
C27 H44 0.930 . S
C28 N24 1.389 . S
C28 C27 1.351 . S
C28 H33 0.930 . S
O29 Cu23 1.974 . S
O29 C39 1.282 1_455 S
C30 O31 1.261 1_455 S
C30 O43 1.251 . S
O31 C30 1.261 1_655 S
H32 C26 0.930 . S
H33 C28 0.930 . S
N34 Cu23 1.985 . S
N34 C36 1.335 . S
N34 C37 1.390 . S
N35 C36 1.345 . S
N35 C38 1.336 . S
C36 N34 1.335 . S
C36 N35 1.345 . S
C36 H41 0.930 . S
C37 N34 1.390 . S
C37 C38 1.346 . S
C37 H42 0.930 1_455 S
C38 N35 1.336 . S
C38 C37 1.346 . S
C38 H45 0.929 . S
C39 O29 1.282 1_655 S
C39 O40 1.216 . S
O40 C39 1.216 . S
H41 C36 0.930 . S
H42 C37 0.930 1_655 S
O43 Cu23 1.959 . S
O43 C30 1.251 . S
H44 C27 0.930 . S
H45 C38 0.929 . S
Cu46 N47 1.999 . S
Cu46 O52 1.974 . S
Cu46 N57 1.985 . S
Cu46 O66 1.959 . S
N47 Cu46 1.999 . S
N47 C49 1.263 . S
N47 C51 1.389 . S
N48 C49 1.358 . S
N48 C50 1.400 . S
C49 N47 1.263 . S
C49 N48 1.358 . S
C49 H55 0.930 . S
C50 N48 1.400 . S
C50 C51 1.351 . S
C50 H67 0.930 . S
C51 N47 1.389 . S
C51 C50 1.351 . S
C51 H56 0.930 . S
O52 Cu46 1.974 . S
O52 C62 1.282 . S
C53 O54 1.261 . S
C53 O66 1.251 . S
O54 C53 1.261 . S
H55 C49 0.930 . S
H56 C51 0.930 . S
N57 Cu46 1.985 . S
N57 C59 1.335 . S
N57 C60 1.390 . S
N58 C59 1.345 . S
N58 C61 1.336 . S
C59 N57 1.335 . S
C59 N58 1.345 . S
C59 H64 0.930 . S
C60 N57 1.390 . S
C60 C61 1.346 . S
C60 H65 0.930 . S
C61 N58 1.336 . S
C61 C60 1.346 . S
C61 H68 0.929 . S
C62 O52 1.282 . S
C62 O63 1.216 . S
O63 C62 1.216 . S
H64 C59 0.930 . S
H65 C60 0.930 . S
O66 Cu46 1.959 . S
O66 C53 1.251 . S
H67 C50 0.930 . S
H68 C61 0.929 . S
Cu69 N70 1.999 . S
Cu69 O75 1.974 . S
Cu69 N80 1.985 . S
Cu69 O89 1.959 . S
N70 Cu69 1.999 . S
N70 C72 1.263 1_545 S
N70 C74 1.389 . S
N71 C72 1.358 . S
N71 C73 1.400 1_565 S
C72 N70 1.263 1_565 S
C72 N71 1.358 . S
C72 H78 0.930 . S
C73 N71 1.400 1_545 S
C73 C74 1.351 . S
C73 H90 0.930 . S
C74 N70 1.389 . S
C74 C73 1.351 . S
C74 H79 0.930 . S
O75 Cu69 1.974 . S
O75 C85 1.282 1_545 S
C76 O77 1.261 1_545 S
C76 O89 1.251 . S
O77 C76 1.261 1_565 S
H78 C72 0.930 . S
H79 C74 0.930 . S
N80 Cu69 1.985 . S
N80 C82 1.335 . S
N80 C83 1.390 . S
N81 C82 1.345 . S
N81 C84 1.336 . S
C82 N80 1.335 . S
C82 N81 1.345 . S
C82 H87 0.930 . S
C83 N80 1.390 . S
C83 C84 1.346 . S
C83 H88 0.930 1_545 S
C84 N81 1.336 . S
C84 C83 1.346 . S
C84 H91 0.929 . S
C85 O75 1.282 1_565 S
C85 O86 1.216 . S
O86 C85 1.216 . S
H87 C82 0.930 . S
H88 C83 0.930 1_565 S
O89 Cu69 1.959 . S
O89 C76 1.251 . S
H90 C73 0.930 . S
H91 C84 0.929 . S
Cu92 N93 1.999 . S
Cu92 O98 1.974 . S
Cu92 N103 1.994 . S
Cu92 O112 1.959 1_455 S
N93 Cu92 1.999 . S
N93 C95 1.263 . S
N93 C97 1.389 . S
N94 C95 1.358 . S
N94 C96 1.400 . S
C95 N93 1.263 . S
C95 N94 1.358 . S
C95 H101 0.930 . S
C96 N94 1.400 . S
C96 C97 1.351 . S
C96 H113 0.930 . S
C97 N93 1.389 . S
C97 C96 1.351 . S
C97 H102 0.930 1_455 S
O98 Cu92 1.974 . S
O98 C108 1.282 . S
C99 O100 1.261 . S
C99 O112 1.251 1_455 S
O100 C99 1.261 . S
H101 C95 0.930 . S
H102 C97 0.930 1_655 S
N103 Cu92 1.994 . S
N103 C105 1.325 1_455 S
N103 C106 1.388 . S
N104 C105 1.345 . S
N104 C107 1.336 1_655 S
C105 N103 1.325 1_655 S
C105 N104 1.345 . S
C105 H110 0.930 . S
C106 N103 1.388 . S
C106 C107 1.346 . S
C106 H111 0.930 . S
C107 N104 1.336 1_455 S
C107 C106 1.346 . S
C107 H114 0.929 . S
C108 O98 1.282 . S
C108 O109 1.216 . S
O109 C108 1.216 . S
H110 C105 0.930 . S
H111 C106 0.930 . S
O112 Cu92 1.959 1_655 S
O112 C99 1.251 1_655 S
H113 C96 0.930 . S
H114 C107 0.929 . S
Cu115 N116 1.999 . S
Cu115 O121 1.974 . S
Cu115 N126 1.985 . S
Cu115 O135 1.959 . S
N116 Cu115 1.999 . S
N116 C118 1.263 . S
N116 C120 1.389 . S
N117 C118 1.358 . S
N117 C119 1.400 . S
C118 N116 1.263 . S
C118 N117 1.358 . S
C118 H124 0.930 . S
C119 N117 1.400 . S
C119 C120 1.351 . S
C119 H136 0.930 . S
C120 N116 1.389 . S
C120 C119 1.351 . S
C120 H125 0.930 . S
O121 Cu115 1.974 . S
O121 C131 1.282 . S
C122 O123 1.261 . S
C122 O135 1.251 . S
O123 C122 1.261 . S
H124 C118 0.930 . S
H125 C120 0.930 . S
N126 Cu115 1.985 . S
N126 C128 1.335 . S
N126 C129 1.390 . S
N127 C128 1.345 . S
N127 C130 1.336 . S
C128 N126 1.335 . S
C128 N127 1.345 . S
C128 H133 0.930 . S
C129 N126 1.390 . S
C129 C130 1.346 . S
C129 H134 0.930 . S
C130 N127 1.336 . S
C130 C129 1.346 . S
C130 H137 0.929 . S
C131 O121 1.282 . S
C131 O132 1.216 . S
O132 C131 1.216 . S
H133 C128 0.930 . S
H134 C129 0.930 . S
O135 Cu115 1.959 . S
O135 C122 1.251 . S
H136 C119 0.930 . S
H137 C130 0.929 . S
Cu138 N139 1.999 . S
Cu138 O144 1.974 . S
Cu138 N149 1.985 . S
Cu138 O158 1.959 . S
N139 Cu138 1.999 . S
N139 C141 1.263 . S
N139 C143 1.389 . S
N140 C141 1.358 . S
N140 C142 1.400 . S
C141 N139 1.263 . S
C141 N140 1.358 . S
C141 H147 0.930 . S
C142 N140 1.400 . S
C142 C143 1.351 . S
C142 H159 0.930 . S
C143 N139 1.389 . S
C143 C142 1.351 . S
C143 H148 0.930 . S
O144 Cu138 1.974 . S
O144 C154 1.282 . S
C145 O146 1.261 . S
C145 O158 1.251 . S
O146 C145 1.261 . S
H147 C141 0.930 . S
H148 C143 0.930 . S
N149 Cu138 1.985 . S
N149 C151 1.335 . S
N149 C152 1.390 . S
N150 C151 1.345 . S
N150 C153 1.336 . S
C151 N149 1.335 . S
C151 N150 1.345 . S
C151 H156 0.930 . S
C152 N149 1.390 . S
C152 C153 1.346 . S
C152 H157 0.930 . S
C153 N150 1.336 . S
C153 C152 1.346 . S
C153 H160 0.929 . S
C154 O144 1.282 . S
C154 O155 1.216 . S
O155 C154 1.216 . S
H156 C151 0.930 . S
H157 C152 0.930 . S
O158 Cu138 1.959 . S
O158 C145 1.251 . S
H159 C142 0.930 . S
H160 C153 0.929 . S
Cu161 N162 1.999 . S
Cu161 O167 1.974 . S
Cu161 N172 1.985 . S
Cu161 O181 1.959 . S
N162 Cu161 1.999 . S
N162 C164 1.263 . S
N162 C166 1.389 . S
N163 C164 1.358 . S
N163 C165 1.400 . S
C164 N162 1.263 . S
C164 N163 1.358 . S
C164 H170 0.930 . S
C165 N163 1.400 . S
C165 C166 1.351 . S
C165 H182 0.930 . S
C166 N162 1.389 . S
C166 C165 1.351 . S
C166 H171 0.930 . S
O167 Cu161 1.974 . S
O167 C177 1.282 1_545 S
C168 O169 1.261 . S
C168 O181 1.251 . S
O169 C168 1.261 . S
H170 C164 0.930 . S
H171 C166 0.930 . S
N172 Cu161 1.985 . S
N172 C174 1.335 . S
N172 C175 1.390 1_545 S
N173 C174 1.345 . S
N173 C176 1.336 1_545 S
C174 N172 1.335 . S
C174 N173 1.345 . S
C174 H179 0.930 . S
C175 N172 1.390 1_565 S
C175 C176 1.346 . S
C175 H180 0.930 . S
C176 N173 1.336 1_565 S
C176 C175 1.346 . S
C176 H183 0.929 . S
C177 O167 1.282 1_565 S
C177 O178 1.216 . S
O178 C177 1.216 . S
H179 C174 0.930 . S
H180 C175 0.930 . S
O181 Cu161 1.959 . S
O181 C168 1.251 . S
H182 C165 0.930 . S
H183 C176 0.929 . S
Cu184 N185 1.999 . S
Cu184 O190 1.974 1_655 S
Cu184 N195 1.985 1_655 S
Cu184 O204 1.959 . S
N185 Cu184 1.999 . S
N185 C187 1.263 . S
N185 C189 1.389 . S
N186 C187 1.358 . S
N186 C188 1.400 . S
C187 N185 1.263 . S
C187 N186 1.358 . S
C187 H193 0.930 . S
C188 N186 1.400 . S
C188 C189 1.351 . S
C188 H205 0.930 . S
C189 N185 1.389 . S
C189 C188 1.351 . S
C189 H194 0.930 . S
O190 Cu184 1.974 1_455 S
O190 C200 1.282 . S
C191 O192 1.261 . S
C191 O204 1.251 . S
O192 C191 1.261 . S
H193 C187 0.930 . S
H194 C189 0.930 . S
N195 Cu184 1.985 1_455 S
N195 C197 1.335 . S
N195 C198 1.390 . S
N196 C197 1.345 . S
N196 C199 1.336 . S
C197 N195 1.335 . S
C197 N196 1.345 . S
C197 H202 0.930 . S
C198 N195 1.390 . S
C198 C199 1.346 . S
C198 H203 0.930 . S
C199 N196 1.336 . S
C199 C198 1.346 . S
C199 H206 0.929 . S
C200 O190 1.282 . S
C200 O201 1.216 1_455 S
O201 C200 1.216 1_655 S
H202 C197 0.930 . S
H203 C198 0.930 . S
O204 Cu184 1.959 . S
O204 C191 1.251 . S
H205 C188 0.930 . S
H206 C199 0.929 . S
Cu207 N208 1.999 . S
Cu207 O213 1.974 1_655 S
Cu207 N218 1.985 1_655 S
Cu207 O227 1.959 . S
N208 Cu207 1.999 . S
N208 C210 1.263 . S
N208 C212 1.389 . S
N209 C210 1.358 . S
N209 C211 1.400 . S
C210 N208 1.263 . S
C210 N209 1.358 . S
C210 H216 0.930 . S
C211 N209 1.400 . S
C211 C212 1.351 . S
C211 H228 0.930 . S
C212 N208 1.389 . S
C212 C211 1.351 . S
C212 H217 0.930 . S
O213 Cu207 1.974 1_455 S
O213 C223 1.282 1_455 S
C214 O215 1.261 . S
C214 O227 1.251 . S
O215 C214 1.261 . S
H216 C210 0.930 . S
H217 C212 0.930 . S
N218 Cu207 1.985 1_455 S
N218 C220 1.335 . S
N218 C221 1.390 . S
N219 C220 1.345 . S
N219 C222 1.336 . S
C220 N218 1.335 . S
C220 N219 1.345 . S
C220 H225 0.930 . S
C221 N218 1.390 . S
C221 C222 1.346 . S
C221 H226 0.930 . S
C222 N219 1.336 . S
C222 C221 1.346 . S
C222 H229 0.929 . S
C223 O213 1.282 1_655 S
C223 O224 1.216 . S
O224 C223 1.216 . S
H225 C220 0.930 . S
H226 C221 0.930 . S
O227 Cu207 1.959 . S
O227 C214 1.251 . S
H228 C211 0.930 . S
H229 C222 0.929 . S
Cu230 N231 1.999 . S
Cu230 O236 1.974 . S
Cu230 N241 1.985 . S
Cu230 O250 1.959 . S
N231 Cu230 1.999 . S
N231 C233 1.263 . S
N231 C235 1.389 . S
N232 C233 1.358 . S
N232 C234 1.400 . S
C233 N231 1.263 . S
C233 N232 1.358 . S
C233 H239 0.930 . S
C234 N232 1.400 . S
C234 C235 1.351 . S
C234 H251 0.930 . S
C235 N231 1.389 . S
C235 C234 1.351 . S
C235 H240 0.930 . S
O236 Cu230 1.974 . S
O236 C246 1.282 . S
C237 O238 1.261 . S
C237 O250 1.251 . S
O238 C237 1.261 . S
H239 C233 0.930 . S
H240 C235 0.930 . S
N241 Cu230 1.985 . S
N241 C243 1.335 . S
N241 C244 1.390 . S
N242 C243 1.345 . S
N242 C245 1.336 . S
C243 N241 1.335 . S
C243 N242 1.345 . S
C243 H248 0.930 . S
C244 N241 1.390 . S
C244 C245 1.346 . S
C244 H249 0.930 . S
C245 N242 1.336 . S
C245 C244 1.346 . S
C245 H252 0.929 . S
C246 O236 1.282 . S
C246 O247 1.216 . S
O247 C246 1.216 . S
H248 C243 0.930 . S
H249 C244 0.930 . S
O250 Cu230 1.959 . S
O250 C237 1.251 . S
H251 C234 0.930 . S
H252 C245 0.929 . S
Cu253 N254 1.999 . S
Cu253 O259 1.974 . S
Cu253 N264 1.985 . S
Cu253 O273 1.959 . S
N254 Cu253 1.999 . S
N254 C256 1.263 . S
N254 C258 1.389 . S
N255 C256 1.358 . S
N255 C257 1.400 . S
C256 N254 1.263 . S
C256 N255 1.358 . S
C256 H262 0.930 . S
C257 N255 1.400 . S
C257 C258 1.351 . S
C257 H274 0.930 . S
C258 N254 1.389 . S
C258 C257 1.351 . S
C258 H263 0.930 . S
O259 Cu253 1.974 . S
O259 C269 1.282 1_545 S
C260 O261 1.261 . S
C260 O273 1.251 . S
O261 C260 1.261 . S
H262 C256 0.930 . S
H263 C258 0.930 . S
N264 Cu253 1.985 . S
N264 C266 1.335 . S
N264 C267 1.390 1_545 S
N265 C266 1.345 . S
N265 C268 1.336 1_545 S
C266 N264 1.335 . S
C266 N265 1.345 . S
C266 H271 0.930 . S
C267 N264 1.390 1_565 S
C267 C268 1.346 . S
C267 H272 0.930 . S
C268 N265 1.336 1_565 S
C268 C267 1.346 . S
C268 H275 0.929 . S
C269 O259 1.282 1_565 S
C269 O270 1.216 . S
O270 C269 1.216 . S
H271 C266 0.930 . S
H272 C267 0.930 . S
O273 Cu253 1.959 . S
O273 C260 1.251 . S
H274 C257 0.930 . S
H275 C268 0.929 . S
Cu276 N277 1.999 . S
Cu276 O282 1.974 . S
Cu276 N287 1.985 . S
Cu276 O296 1.959 . S
N277 Cu276 1.999 . S
N277 C279 1.263 . S
N277 C281 1.389 . S
N278 C279 1.358 . S
N278 C280 1.400 . S
C279 N277 1.263 . S
C279 N278 1.358 . S
C279 H285 0.930 . S
C280 N278 1.400 . S
C280 C281 1.351 . S
C280 H297 0.930 . S
C281 N277 1.389 . S
C281 C280 1.351 . S
C281 H286 0.930 . S
O282 Cu276 1.974 . S
O282 C292 1.282 . S
C283 O284 1.261 . S
C283 O296 1.251 . S
O284 C283 1.261 . S
H285 C279 0.930 . S
H286 C281 0.930 . S
N287 Cu276 1.985 . S
N287 C289 1.335 1_455 S
N287 C290 1.390 1_455 S
N288 C289 1.345 . S
N288 C291 1.336 . S
C289 N287 1.335 1_655 S
C289 N288 1.345 . S
C289 H294 0.930 1_655 S
C290 N287 1.390 1_655 S
C290 C291 1.346 . S
C290 H295 0.930 . S
C291 N288 1.336 . S
C291 C290 1.346 . S
C291 H298 0.929 . S
C292 O282 1.282 . S
C292 O293 1.216 . S
O293 C292 1.216 . S
H294 C289 0.930 1_455 S
H295 C290 0.930 . S
O296 Cu276 1.959 . S
O296 C283 1.251 . S
H297 C280 0.930 . S
H298 C291 0.929 . S
Cu299 N300 1.999 . S
Cu299 O305 1.974 . S
Cu299 N310 1.985 . S
Cu299 O319 1.959 . S
N300 Cu299 1.999 . S
N300 C302 1.263 . S
N300 C304 1.389 . S
N301 C302 1.358 . S
N301 C303 1.400 . S
C302 N300 1.263 . S
C302 N301 1.358 . S
C302 H308 0.930 . S
C303 N301 1.400 . S
C303 C304 1.351 . S
C303 H320 0.930 . S
C304 N300 1.389 . S
C304 C303 1.351 . S
C304 H309 0.930 . S
O305 Cu299 1.974 . S
O305 C315 1.282 . S
C306 O307 1.261 . S
C306 O319 1.251 . S
O307 C306 1.261 . S
H308 C302 0.930 . S
H309 C304 0.930 . S
N310 Cu299 1.985 . S
N310 C312 1.335 . S
N310 C313 1.390 . S
N311 C312 1.345 . S
N311 C314 1.336 . S
C312 N310 1.335 . S
C312 N311 1.345 . S
C312 H317 0.930 . S
C313 N310 1.390 . S
C313 C314 1.346 . S
C313 H318 0.930 . S
C314 N311 1.336 . S
C314 C313 1.346 . S
C314 H321 0.929 . S
C315 O305 1.282 . S
C315 O316 1.216 . S
O316 C315 1.216 . S
H317 C312 0.930 . S
H318 C313 0.930 . S
O319 Cu299 1.959 . S
O319 C306 1.251 . S
H320 C303 0.930 . S
H321 C314 0.929 . S
Cu322 N323 1.999 . S
Cu322 O328 1.974 1_565 S
Cu322 N333 1.985 1_565 S
Cu322 O342 1.959 . S
N323 Cu322 1.999 . S
N323 C325 1.263 . S
N323 C327 1.389 . S
N324 C325 1.358 . S
N324 C326 1.400 . S
C325 N323 1.263 . S
C325 N324 1.358 . S
C325 H331 0.930 . S
C326 N324 1.400 . S
C326 C327 1.351 . S
C326 H343 0.930 . S
C327 N323 1.389 . S
C327 C326 1.351 . S
C327 H332 0.930 . S
O328 Cu322 1.974 1_545 S
O328 C338 1.282 . S
C329 O330 1.261 . S
C329 O342 1.251 . S
O330 C329 1.261 . S
H331 C325 0.930 . S
H332 C327 0.930 . S
N333 Cu322 1.985 1_545 S
N333 C335 1.335 1_545 S
N333 C336 1.390 . S
N334 C335 1.345 1_545 S
N334 C337 1.336 . S
C335 N333 1.335 1_565 S
C335 N334 1.345 1_565 S
C335 H340 0.930 . S
C336 N333 1.390 . S
C336 C337 1.346 . S
C336 H341 0.930 . S
C337 N334 1.336 . S
C337 C336 1.346 . S
C337 H344 0.929 . S
C338 O328 1.282 . S
C338 O339 1.216 . S
O339 C338 1.216 . S
H340 C335 0.930 . S
H341 C336 0.930 . S
O342 Cu322 1.959 . S
O342 C329 1.251 . S
H343 C326 0.930 . S
H344 C337 0.929 . S
Cu345 N346 1.999 . S
Cu345 O351 1.974 . S
Cu345 N356 1.985 . S
Cu345 O365 1.959 . S
N346 Cu345 1.999 . S
N346 C348 1.263 . S
N346 C350 1.389 . S
N347 C348 1.358 . S
N347 C349 1.400 . S
C348 N346 1.263 . S
C348 N347 1.358 . S
C348 H354 0.930 . S
C349 N347 1.400 . S
C349 C350 1.351 . S
C349 H366 0.930 . S
C350 N346 1.389 . S
C350 C349 1.351 . S
C350 H355 0.930 . S
O351 Cu345 1.974 . S
O351 C361 1.282 . S
C352 O353 1.261 . S
C352 O365 1.251 . S
O353 C352 1.261 . S
H354 C348 0.930 . S
H355 C350 0.930 . S
N356 Cu345 1.985 . S
N356 C358 1.335 . S
N356 C359 1.390 . S
N357 C358 1.345 . S
N357 C360 1.336 . S
C358 N356 1.335 . S
C358 N357 1.345 . S
C358 H363 0.930 . S
C359 N356 1.390 . S
C359 C360 1.346 . S
C359 H364 0.930 . S
C360 N357 1.336 . S
C360 C359 1.346 . S
C360 H367 0.929 . S
C361 O351 1.282 . S
C361 O362 1.216 . S
O362 C361 1.216 . S
H363 C358 0.930 . S
H364 C359 0.930 . S
O365 Cu345 1.959 . S
O365 C352 1.251 . S
H366 C349 0.930 . S
H367 C360 0.929 . S
Cu368 N369 1.999 . S
Cu368 O374 1.974 1_565 S
Cu368 N379 1.985 1_565 S
Cu368 O388 1.959 . S
N369 Cu368 1.999 . S
N369 C371 1.263 . S
N369 C373 1.389 . S
N370 C371 1.358 . S
N370 C372 1.400 . S
C371 N369 1.263 . S
C371 N370 1.358 . S
C371 H377 0.930 . S
C372 N370 1.400 . S
C372 C373 1.351 . S
C372 H389 0.930 . S
C373 N369 1.389 . S
C373 C372 1.351 . S
C373 H378 0.930 . S
O374 Cu368 1.974 1_545 S
O374 C384 1.282 . S
C375 O376 1.261 . S
C375 O388 1.251 . S
O376 C375 1.261 . S
H377 C371 0.930 . S
H378 C373 0.930 . S
N379 Cu368 1.985 1_545 S
N379 C381 1.335 1_545 S
N379 C382 1.390 . S
N380 C381 1.345 1_545 S
N380 C383 1.336 . S
C381 N379 1.335 1_565 S
C381 N380 1.345 1_565 S
C381 H386 0.930 . S
C382 N379 1.390 . S
C382 C383 1.346 . S
C382 H387 0.930 . S
C383 N380 1.336 . S
C383 C382 1.346 . S
C383 H390 0.929 . S
C384 O374 1.282 . S
C384 O385 1.216 . S
O385 C384 1.216 . S
H386 C381 0.930 . S
H387 C382 0.930 . S
O388 Cu368 1.959 . S
O388 C375 1.251 . S
H389 C372 0.930 . S
H390 C383 0.929 . S
Cu391 N392 1.999 . S
Cu391 O397 1.974 . S
Cu391 N402 1.985 . S
Cu391 O411 1.959 . S
N392 Cu391 1.999 . S
N392 C394 1.263 . S
N392 C396 1.389 . S
N393 C394 1.358 . S
N393 C395 1.400 . S
C394 N392 1.263 . S
C394 N393 1.358 . S
C394 H400 0.930 . S
C395 N393 1.400 . S
C395 C396 1.351 . S
C395 H412 0.930 . S
C396 N392 1.389 . S
C396 C395 1.351 . S
C396 H401 0.930 . S
O397 Cu391 1.974 . S
O397 C407 1.282 . S
C398 O399 1.261 . S
C398 O411 1.251 . S
O399 C398 1.261 . S
H400 C394 0.930 . S
H401 C396 0.930 . S
N402 Cu391 1.985 . S
N402 C404 1.335 1_455 S
N402 C405 1.390 1_455 S
N403 C404 1.345 . S
N403 C406 1.336 . S
C404 N402 1.335 1_655 S
C404 N403 1.345 . S
C404 H409 0.930 1_655 S
C405 N402 1.390 1_655 S
C405 C406 1.346 . S
C405 H410 0.930 . S
C406 N403 1.336 . S
C406 C405 1.346 . S
C406 H413 0.929 . S
C407 O397 1.282 . S
C407 O408 1.216 . S
O408 C407 1.216 . S
H409 C404 0.930 1_455 S
H410 C405 0.930 . S
O411 Cu391 1.959 . S
O411 C398 1.251 . S
H412 C395 0.930 . S
H413 C406 0.929 . S
Zn414 O420 1.920 1_455 S
Zn414 O426 1.898 1_445 S
Zn414 O429 1.905 . S
Zn415 O423 1.905 1_545 S
Zn415 O424 1.898 . S
Zn415 O432 1.920 1_455 S
Zn416 O419 2.080 . S
Zn416 O422 2.114 1_545 S
Zn416 O425 2.120 . S
Zn416 O427 2.120 1_445 S
Zn416 O428 2.114 . S
Zn416 O431 2.080 1_455 S
C417 O422 1.166 . S
C417 O423 1.182 . S
C418 O424 1.167 . S
C418 O425 1.299 . S
O419 Zn416 2.080 . S
O419 C433 1.305 1_455 S
O420 Zn414 1.920 1_655 S
O420 C433 1.234 . S
C421 O426 1.167 . S
C421 O427 1.299 . S
O422 Zn416 2.114 1_565 S
O422 C417 1.166 . S
O423 Zn415 1.905 1_565 S
O423 C417 1.182 . S
O424 Zn415 1.898 . S
O424 C418 1.167 . S
O425 Zn416 2.120 . S
O425 C418 1.299 . S
O426 Zn414 1.898 1_665 S
O426 C421 1.167 . S
O427 Zn416 2.120 1_665 S
O427 C421 1.299 . S
O428 Zn416 2.114 . S
O428 C430 1.166 . S
O429 Zn414 1.905 . S
O429 C430 1.182 . S
C430 O428 1.166 . S
C430 O429 1.182 . S
O431 Zn416 2.080 1_655 S
O431 C434 1.305 . S
O432 Zn415 1.920 1_655 S
O432 C434 1.234 . S
C433 O419 1.305 1_655 S
C433 O420 1.234 . S
C434 O431 1.305 . S
C434 O432 1.234 . S
Zn435 O441 1.920 1_545 S
Zn435 O447 1.898 . S
Zn435 O450 1.905 1_455 S
Zn436 O444 1.905 . S
Zn436 O445 1.898 1_445 S
Zn436 O453 1.920 1_545 S
Zn437 O440 2.080 1_545 S
Zn437 O443 2.114 . S
Zn437 O446 2.120 1_445 S
Zn437 O448 2.120 . S
Zn437 O449 2.114 1_455 S
Zn437 O452 2.080 . S
C438 O443 1.166 . S
C438 O444 1.182 . S
C439 O445 1.167 . S
C439 O446 1.299 . S
O440 Zn437 2.080 1_565 S
O440 C454 1.305 . S
O441 Zn435 1.920 1_565 S
O441 C454 1.234 . S
C442 O447 1.167 . S
C442 O448 1.299 . S
O443 Zn437 2.114 . S
O443 C438 1.166 . S
O444 Zn436 1.905 . S
O444 C438 1.182 . S
O445 Zn436 1.898 1_665 S
O445 C439 1.167 . S
O446 Zn437 2.120 1_665 S
O446 C439 1.299 . S
O447 Zn435 1.898 . S
O447 C442 1.167 . S
O448 Zn437 2.120 . S
O448 C442 1.299 . S
O449 Zn437 2.114 1_655 S
O449 C451 1.166 . S
O450 Zn435 1.905 1_655 S
O450 C451 1.182 . S
C451 O449 1.166 . S
C451 O450 1.182 . S
O452 Zn437 2.080 . S
O452 C455 1.305 . S
O453 Zn436 1.920 1_565 S
O453 C455 1.234 1_565 S
C454 O440 1.305 . S
C454 O441 1.234 . S
C455 O452 1.305 . S
C455 O453 1.234 1_545 S
Zn456 O462 1.920 1_545 S
Zn456 O468 1.898 . S
Zn456 O471 1.905 1_445 S
Zn457 O465 1.905 . S
Zn457 O466 1.898 1_445 S
Zn457 O474 1.920 1_545 S
Zn458 O461 2.080 1_545 S
Zn458 O464 2.114 . S
Zn458 O467 2.120 1_445 S
Zn458 O469 2.120 . S
Zn458 O470 2.114 1_455 S
Zn458 O473 2.080 . S
C459 O464 1.166 . S
C459 O465 1.182 . S
C460 O466 1.167 . S
C460 O467 1.299 . S
O461 Zn458 2.080 1_565 S
O461 C475 1.305 . S
O462 Zn456 1.920 1_565 S
O462 C475 1.234 . S
C463 O468 1.167 . S
C463 O469 1.299 . S
O464 Zn458 2.114 . S
O464 C459 1.166 . S
O465 Zn457 1.905 . S
O465 C459 1.182 . S
O466 Zn457 1.898 1_665 S
O466 C460 1.167 . S
O467 Zn458 2.120 1_665 S
O467 C460 1.299 . S
O468 Zn456 1.898 . S
O468 C463 1.167 . S
O469 Zn458 2.120 . S
O469 C463 1.299 . S
O470 Zn458 2.114 1_655 S
O470 C472 1.166 1_545 S
O471 Zn456 1.905 1_665 S
O471 C472 1.182 . S
C472 O470 1.166 1_565 S
C472 O471 1.182 . S
O473 Zn458 2.080 . S
O473 C476 1.305 1_545 S
O474 Zn457 1.920 1_565 S
O474 C476 1.234 . S
C475 O461 1.305 . S
C475 O462 1.234 . S
C476 O473 1.305 1_565 S
C476 O474 1.234 . S
Zn477 O483 1.920 . S
Zn477 O489 1.898 1_445 S
Zn477 O492 1.905 . S
Zn478 O486 1.905 1_445 S
Zn478 O487 1.898 . S
Zn478 O495 1.920 1_455 S
Zn479 O482 2.080 . S
Zn479 O485 2.114 1_545 S
Zn479 O488 2.120 . S
Zn479 O490 2.120 1_445 S
Zn479 O491 2.114 . S
Zn479 O494 2.080 1_455 S
C480 O485 1.166 . S
C480 O486 1.182 1_455 S
C481 O487 1.167 . S
C481 O488 1.299 . S
O482 Zn479 2.080 . S
O482 C496 1.305 . S
O483 Zn477 1.920 . S
O483 C496 1.234 . S
C484 O489 1.167 . S
C484 O490 1.299 . S
O485 Zn479 2.114 1_565 S
O485 C480 1.166 . S
O486 Zn478 1.905 1_665 S
O486 C480 1.182 1_655 S
O487 Zn478 1.898 . S
O487 C481 1.167 . S
O488 Zn479 2.120 . S
O488 C481 1.299 . S
O489 Zn477 1.898 1_665 S
O489 C484 1.167 . S
O490 Zn479 2.120 1_665 S
O490 C484 1.299 . S
O491 Zn479 2.114 . S
O491 C493 1.166 . S
O492 Zn477 1.905 . S
O492 C493 1.182 . S
C493 O491 1.166 . S
C493 O492 1.182 . S
O494 Zn479 2.080 1_655 S
O494 C497 1.305 . S
O495 Zn478 1.920 1_655 S
O495 C497 1.234 . S
C496 O482 1.305 . S
C496 O483 1.234 . S
C497 O494 1.305 . S
C497 O495 1.234 . S
Zn498 O504 1.920 . S
Zn498 O510 1.898 . S
Zn498 O513 1.905 . S
Zn499 O507 1.905 . S
Zn499 O508 1.898 . S
Zn499 O516 1.920 . S
Zn500 O503 2.080 . S
Zn500 O506 2.114 . S
Zn500 O509 2.120 . S
Zn500 O511 2.120 . S
Zn500 O512 2.114 . S
Zn500 O515 2.080 . S
C501 O506 1.166 . S
C501 O507 1.182 . S
C502 O508 1.167 . S
C502 O509 1.299 . S
O503 Zn500 2.080 . S
O503 C517 1.305 . S
O504 Zn498 1.920 . S
O504 C517 1.234 . S
C505 O510 1.167 . S
C505 O511 1.299 . S
O506 Zn500 2.114 . S
O506 C501 1.166 . S
O507 Zn499 1.905 . S
O507 C501 1.182 . S
O508 Zn499 1.898 . S
O508 C502 1.167 . S
O509 Zn500 2.120 . S
O509 C502 1.299 . S
O510 Zn498 1.898 . S
O510 C505 1.167 . S
O511 Zn500 2.120 . S
O511 C505 1.299 . S
O512 Zn500 2.114 . S
O512 C514 1.166 . S
O513 Zn498 1.905 . S
O513 C514 1.182 . S
C514 O512 1.166 . S
C514 O513 1.182 . S
O515 Zn500 2.080 . S
O515 C518 1.305 . S
O516 Zn499 1.920 . S
O516 C518 1.234 . S
C517 O503 1.305 . S
C517 O504 1.234 . S
C518 O515 1.305 . S
C518 O516 1.234 . S
Zn519 O525 1.920 . S
Zn519 O531 1.898 . S
Zn519 O534 1.905 . S
Zn520 O528 1.905 . S
Zn520 O529 1.898 . S
Zn520 O537 1.920 . S
Zn521 O524 2.080 . S
Zn521 O527 2.114 . S
Zn521 O530 2.120 . S
Zn521 O532 2.120 . S
Zn521 O533 2.114 . S
Zn521 O536 2.080 . S
C522 O527 1.166 . S
C522 O528 1.182 . S
C523 O529 1.167 . S
C523 O530 1.299 . S
O524 Zn521 2.080 . S
O524 C538 1.305 . S
O525 Zn519 1.920 . S
O525 C538 1.234 . S
C526 O531 1.167 . S
C526 O532 1.299 . S
O527 Zn521 2.114 . S
O527 C522 1.166 . S
O528 Zn520 1.905 . S
O528 C522 1.182 . S
O529 Zn520 1.898 . S
O529 C523 1.167 . S
O530 Zn521 2.120 . S
O530 C523 1.299 . S
O531 Zn519 1.898 . S
O531 C526 1.167 . S
O532 Zn521 2.120 . S
O532 C526 1.299 . S
O533 Zn521 2.114 . S
O533 C535 1.166 . S
O534 Zn519 1.905 . S
O534 C535 1.182 . S
C535 O533 1.166 . S
C535 O534 1.182 . S
O536 Zn521 2.080 . S
O536 C539 1.305 . S
O537 Zn520 1.920 . S
O537 C539 1.234 . S
C538 O524 1.305 . S
C538 O525 1.234 . S
C539 O536 1.305 . S
C539 O537 1.234 . S
Zn540 O546 1.920 . S
Zn540 O552 1.898 . S
Zn540 O555 1.905 . S
Zn541 O549 1.905 . S
Zn541 O550 1.898 . S
Zn541 O558 1.920 . S
Zn542 O545 2.080 . S
Zn542 O548 2.114 . S
Zn542 O551 2.120 . S
Zn542 O553 2.120 . S
Zn542 O554 2.114 . S
Zn542 O557 2.080 . S
C543 O548 1.166 . S
C543 O549 1.182 . S
C544 O550 1.167 . S
C544 O551 1.299 . S
O545 Zn542 2.080 . S
O545 C559 1.305 . S
O546 Zn540 1.920 . S
O546 C559 1.234 . S
C547 O552 1.167 . S
C547 O553 1.299 . S
O548 Zn542 2.114 . S
O548 C543 1.166 . S
O549 Zn541 1.905 . S
O549 C543 1.182 . S
O550 Zn541 1.898 . S
O550 C544 1.167 . S
O551 Zn542 2.120 . S
O551 C544 1.299 . S
O552 Zn540 1.898 . S
O552 C547 1.167 . S
O553 Zn542 2.120 . S
O553 C547 1.299 . S
O554 Zn542 2.114 . S
O554 C556 1.166 . S
O555 Zn540 1.905 . S
O555 C556 1.182 . S
C556 O554 1.166 . S
C556 O555 1.182 . S
O557 Zn542 2.080 . S
O557 C560 1.305 . S
O558 Zn541 1.920 . S
O558 C560 1.234 . S
C559 O545 1.305 . S
C559 O546 1.234 . S
C560 O557 1.305 . S
C560 O558 1.234 . S
Zn561 O567 1.920 . S
Zn561 O573 1.898 . S
Zn561 O576 1.905 . S
Zn562 O570 1.905 . S
Zn562 O571 1.898 . S
Zn562 O579 1.920 . S
Zn563 O566 2.080 1_556 S
Zn563 O569 2.114 . S
Zn563 O572 2.120 . S
Zn563 O574 2.120 1_556 S
Zn563 O575 2.114 1_556 S
Zn563 O578 2.080 . S
C564 O569 1.166 . S
C564 O570 1.182 . S
C565 O571 1.167 . S
C565 O572 1.299 . S
O566 Zn563 2.080 1_554 S
O566 C580 1.305 . S
O567 Zn561 1.920 . S
O567 C580 1.234 . S
C568 O573 1.167 . S
C568 O574 1.299 . S
O569 Zn563 2.114 . S
O569 C564 1.166 . S
O570 Zn562 1.905 . S
O570 C564 1.182 . S
O571 Zn562 1.898 . S
O571 C565 1.167 . S
O572 Zn563 2.120 . S
O572 C565 1.299 . S
O573 Zn561 1.898 . S
O573 C568 1.167 . S
O574 Zn563 2.120 1_554 S
O574 C568 1.299 . S
O575 Zn563 2.114 1_554 S
O575 C577 1.166 . S
O576 Zn561 1.905 . S
O576 C577 1.182 . S
C577 O575 1.166 . S
C577 O576 1.182 . S
O578 Zn563 2.080 . S
O578 C581 1.305 . S
O579 Zn562 1.920 . S
O579 C581 1.234 . S
C580 O566 1.305 . S
C580 O567 1.234 . S
C581 O578 1.305 . S
C581 O579 1.234 . S
Zn582 O588 1.920 . S
Zn582 O594 1.898 . S
Zn582 O597 1.905 . S
Zn583 O591 1.905 . S
Zn583 O592 1.898 . S
Zn583 O600 1.920 . S
Zn584 O587 2.080 . S
Zn584 O590 2.114 . S
Zn584 O593 2.120 . S
Zn584 O595 2.120 . S
Zn584 O596 2.114 . S
Zn584 O599 2.080 . S
C585 O590 1.166 . S
C585 O591 1.182 . S
C586 O592 1.167 . S
C586 O593 1.299 . S
O587 Zn584 2.080 . S
O587 C601 1.305 . S
O588 Zn582 1.920 . S
O588 C601 1.234 . S
C589 O594 1.167 . S
C589 O595 1.299 . S
O590 Zn584 2.114 . S
O590 C585 1.166 . S
O591 Zn583 1.905 . S
O591 C585 1.182 . S
O592 Zn583 1.898 . S
O592 C586 1.167 . S
O593 Zn584 2.120 . S
O593 C586 1.299 . S
O594 Zn582 1.898 . S
O594 C589 1.167 . S
O595 Zn584 2.120 . S
O595 C589 1.299 . S
O596 Zn584 2.114 . S
O596 C598 1.166 . S
O597 Zn582 1.905 . S
O597 C598 1.182 . S
C598 O596 1.166 . S
C598 O597 1.182 . S
O599 Zn584 2.080 . S
O599 C602 1.305 . S
O600 Zn583 1.920 . S
O600 C602 1.234 . S
C601 O587 1.305 . S
C601 O588 1.234 . S
C602 O599 1.305 . S
C602 O600 1.234 . S
Zn603 O609 1.920 . S
Zn603 O615 1.898 . S
Zn603 O618 1.905 . S
Zn604 O612 1.905 . S
Zn604 O613 1.898 . S
Zn604 O621 1.920 . S
Zn605 O608 2.080 . S
Zn605 O611 2.114 1_554 S
Zn605 O614 2.120 1_554 S
Zn605 O616 2.120 . S
Zn605 O617 2.114 . S
Zn605 O620 2.080 1_554 S
C606 O611 1.166 . S
C606 O612 1.182 . S
C607 O613 1.167 . S
C607 O614 1.299 . S
O608 Zn605 2.080 . S
O608 C622 1.305 . S
O609 Zn603 1.920 . S
O609 C622 1.234 . S
C610 O615 1.167 . S
C610 O616 1.299 . S
O611 Zn605 2.114 1_556 S
O611 C606 1.166 . S
O612 Zn604 1.905 . S
O612 C606 1.182 . S
O613 Zn604 1.898 . S
O613 C607 1.167 . S
O614 Zn605 2.120 1_556 S
O614 C607 1.299 . S
O615 Zn603 1.898 . S
O615 C610 1.167 . S
O616 Zn605 2.120 . S
O616 C610 1.299 . S
O617 Zn605 2.114 . S
O617 C619 1.166 . S
O618 Zn603 1.905 . S
O618 C619 1.182 . S
C619 O617 1.166 . S
C619 O618 1.182 . S
O620 Zn605 2.080 1_556 S
O620 C623 1.305 . S
O621 Zn604 1.920 . S
O621 C623 1.234 . S
C622 O608 1.305 . S
C622 O609 1.234 . S
C623 O620 1.305 . S
C623 O621 1.234 . S
Zn624 O630 1.920 . S
Zn624 O636 1.898 . S
Zn624 O639 1.905 . S
Zn625 O633 1.905 . S
Zn625 O634 1.898 . S
Zn625 O642 1.920 . S
Zn626 O629 2.080 . S
Zn626 O632 2.114 . S
Zn626 O635 2.120 . S
Zn626 O637 2.120 . S
Zn626 O638 2.114 . S
Zn626 O641 2.080 . S
C627 O632 1.166 . S
C627 O633 1.182 . S
C628 O634 1.167 . S
C628 O635 1.299 . S
O629 Zn626 2.080 . S
O629 C643 1.305 . S
O630 Zn624 1.920 . S
O630 C643 1.234 . S
C631 O636 1.167 . S
C631 O637 1.299 . S
O632 Zn626 2.114 . S
O632 C627 1.166 . S
O633 Zn625 1.905 . S
O633 C627 1.182 . S
O634 Zn625 1.898 . S
O634 C628 1.167 . S
O635 Zn626 2.120 . S
O635 C628 1.299 . S
O636 Zn624 1.898 . S
O636 C631 1.167 . S
O637 Zn626 2.120 . S
O637 C631 1.299 . S
O638 Zn626 2.114 . S
O638 C640 1.166 . S
O639 Zn624 1.905 . S
O639 C640 1.182 . S
C640 O638 1.166 . S
C640 O639 1.182 . S
O641 Zn626 2.080 . S
O641 C644 1.305 . S
O642 Zn625 1.920 . S
O642 C644 1.234 . S
C643 O629 1.305 . S
C643 O630 1.234 . S
C644 O641 1.305 . S
C644 O642 1.234 . S
Zn645 O651 1.920 . S
Zn645 O657 1.898 . S
Zn645 O660 1.905 . S
Zn646 O654 1.905 . S
Zn646 O655 1.898 . S
Zn646 O663 1.920 . S
Zn647 O650 2.080 . S
Zn647 O653 2.114 . S
Zn647 O656 2.120 . S
Zn647 O658 2.120 . S
Zn647 O659 2.114 . S
Zn647 O662 2.080 . S
C648 O653 1.166 . S
C648 O654 1.182 . S
C649 O655 1.167 . S
C649 O656 1.299 . S
O650 Zn647 2.080 . S
O650 C664 1.305 . S
O651 Zn645 1.920 . S
O651 C664 1.234 . S
C652 O657 1.167 . S
C652 O658 1.299 . S
O653 Zn647 2.114 . S
O653 C648 1.166 . S
O654 Zn646 1.905 . S
O654 C648 1.182 . S
O655 Zn646 1.898 . S
O655 C649 1.167 . S
O656 Zn647 2.120 . S
O656 C649 1.299 . S
O657 Zn645 1.898 . S
O657 C652 1.167 . S
O658 Zn647 2.120 . S
O658 C652 1.299 . S
O659 Zn647 2.114 . S
O659 C661 1.166 . S
O660 Zn645 1.905 . S
O660 C661 1.182 . S
C661 O659 1.166 . S
C661 O660 1.182 . S
O662 Zn647 2.080 . S
O662 C665 1.305 . S
O663 Zn646 1.920 . S
O663 C665 1.234 . S
C664 O650 1.305 . S
C664 O651 1.234 . S
C665 O662 1.305 . S
C665 O663 1.234 . S
C666 C667 1.369 . S
C666 C668 1.419 . S
C666 H670 0.930 . S
C667 C666 1.369 . S
C667 C676 1.429 . S
C668 C666 1.419 . S
C668 C669 1.363 . S
C668 H671 0.929 . S
C669 C668 1.363 . S
C669 C675 1.428 . S
H670 C666 0.930 . S
H671 C668 0.929 . S
S672 N673 1.613 . S
S672 N674 1.610 . S
N673 S672 1.613 . S
N673 C676 1.350 . S
N674 S672 1.610 . S
N674 C675 1.351 . S
C675 C669 1.428 . S
C675 N674 1.351 . S
C675 C676 1.434 . S
C676 C667 1.429 . S
C676 N673 1.350 . S
C676 C675 1.434 . S
C677 C678 1.369 . S
C677 C679 1.419 . S
C677 H681 0.930 . S
C678 C677 1.369 . S
C678 C687 1.429 . S
C679 C677 1.419 . S
C679 C680 1.363 . S
C679 H682 0.929 . S
C680 C679 1.363 . S
C680 C686 1.428 . S
H681 C677 0.930 . S
H682 C679 0.929 . S
S683 N684 1.613 . S
S683 N685 1.610 . S
N684 S683 1.613 . S
N684 C687 1.350 . S
N685 S683 1.610 . S
N685 C686 1.351 . S
C686 C680 1.428 . S
C686 N685 1.351 . S
C686 C687 1.434 . S
C687 C678 1.429 . S
C687 N684 1.350 . S
C687 C686 1.434 . S
C688 C689 1.369 1_455 S
C688 C690 1.419 . S
C688 H692 0.930 . S
C689 C688 1.369 1_655 S
C689 C698 1.429 . S
C690 C688 1.419 . S
C690 C691 1.363 1_455 S
C690 H693 0.929 . S
C691 C690 1.363 1_655 S
C691 C697 1.428 . S
H692 C688 0.930 . S
H693 C690 0.929 . S
S694 N695 1.613 . S
S694 N696 1.610 . S
N695 S694 1.613 . S
N695 C698 1.350 . S
N696 S694 1.610 . S
N696 C697 1.351 . S
C697 C691 1.428 . S
C697 N696 1.351 . S
C697 C698 1.434 . S
C698 C689 1.429 . S
C698 N695 1.350 . S
C698 C697 1.434 . S
C699 C700 1.369 . S
C699 C701 1.419 . S
C699 H703 0.930 . S
C700 C699 1.369 . S
C700 C709 1.429 . S
C701 C699 1.419 . S
C701 C702 1.363 . S
C701 H704 0.929 . S
C702 C701 1.363 . S
C702 C708 1.428 . S
H703 C699 0.930 . S
H704 C701 0.929 . S
S705 N706 1.613 . S
S705 N707 1.610 . S
N706 S705 1.613 . S
N706 C709 1.350 . S
N707 S705 1.610 . S
N707 C708 1.351 . S
C708 C702 1.428 . S
C708 N707 1.351 . S
C708 C709 1.434 . S
C709 C700 1.429 . S
C709 N706 1.350 . S
C709 C708 1.434 . S
C710 C711 1.369 1_565 S
C710 C712 1.419 . S
C710 H714 0.930 . S
C711 C710 1.369 1_545 S
C711 C720 1.429 . S
C712 C710 1.419 . S
C712 C713 1.363 1_565 S
C712 H715 0.929 . S
C713 C712 1.363 1_545 S
C713 C719 1.428 . S
H714 C710 0.930 . S
H715 C712 0.929 . S
S716 N717 1.613 . S
S716 N718 1.610 . S
N717 S716 1.613 . S
N717 C720 1.350 . S
N718 S716 1.610 . S
N718 C719 1.351 . S
C719 C713 1.428 . S
C719 N718 1.351 . S
C719 C720 1.434 . S
C720 C711 1.429 . S
C720 N717 1.350 . S
C720 C719 1.434 . S
C721 C722 1.369 . S
C721 C723 1.419 . S
C721 H725 0.930 . S
C722 C721 1.369 . S
C722 C731 1.429 . S
C723 C721 1.419 . S
C723 C724 1.363 . S
C723 H726 0.929 . S
C724 C723 1.363 . S
C724 C730 1.428 . S
H725 C721 0.930 . S
H726 C723 0.929 . S
S727 N728 1.613 1_655 S
S727 N729 1.610 . S
N728 S727 1.613 1_455 S
N728 C731 1.350 . S
N729 S727 1.610 . S
N729 C730 1.351 1_655 S
C730 C724 1.428 . S
C730 N729 1.351 1_455 S
C730 C731 1.434 . S
C731 C722 1.429 . S
C731 N728 1.350 . S
C731 C730 1.434 . S
C732 C733 1.369 . S
C732 C734 1.419 . S
C732 H736 0.930 . S
C733 C732 1.369 . S
C733 C742 1.429 . S
C734 C732 1.419 . S
C734 C735 1.363 . S
C734 H737 0.929 . S
C735 C734 1.363 . S
C735 C741 1.428 . S
H736 C732 0.930 . S
H737 C734 0.929 . S
S738 N739 1.613 . S
S738 N740 1.610 . S
N739 S738 1.613 . S
N739 C742 1.350 . S
N740 S738 1.610 . S
N740 C741 1.351 . S
C741 C735 1.428 . S
C741 N740 1.351 . S
C741 C742 1.434 . S
C742 C733 1.429 . S
C742 N739 1.350 . S
C742 C741 1.434 . S
C743 C744 1.369 . S
C743 C745 1.419 . S
C743 H747 0.930 . S
C744 C743 1.369 . S
C744 C753 1.429 1_565 S
C745 C743 1.419 . S
C745 C746 1.363 . S
C745 H748 0.929 . S
C746 C745 1.363 . S
C746 C752 1.428 1_565 S
H747 C743 0.930 . S
H748 C745 0.929 . S
S749 N750 1.613 . S
S749 N751 1.610 . S
N750 S749 1.613 . S
N750 C753 1.350 . S
N751 S749 1.610 . S
N751 C752 1.351 . S
C752 C746 1.428 1_545 S
C752 N751 1.351 . S
C752 C753 1.434 . S
C753 C744 1.429 1_545 S
C753 N750 1.350 . S
C753 C752 1.434 . S
C754 C755 1.369 . S
C754 C756 1.419 . S
C754 H758 0.930 . S
C755 C754 1.369 . S
C755 C764 1.429 . S
C756 C754 1.419 . S
C756 C757 1.363 . S
C756 H759 0.929 . S
C757 C756 1.363 . S
C757 C763 1.428 . S
H758 C754 0.930 . S
H759 C756 0.929 . S
S760 N761 1.613 . S
S760 N762 1.610 . S
N761 S760 1.613 . S
N761 C764 1.350 . S
N762 S760 1.610 . S
N762 C763 1.351 . S
C763 C757 1.428 . S
C763 N762 1.351 . S
C763 C764 1.434 . S
C764 C755 1.429 . S
C764 N761 1.350 . S
C764 C763 1.434 . S
C765 C766 1.369 . S
C765 C767 1.419 . S
C765 H769 0.930 . S
C766 C765 1.369 . S
C766 C775 1.429 . S
C767 C765 1.419 . S
C767 C768 1.363 . S
C767 H770 0.929 . S
C768 C767 1.363 . S
C768 C774 1.428 . S
H769 C765 0.930 . S
H770 C767 0.929 . S
S771 N772 1.613 . S
S771 N773 1.610 . S
N772 S771 1.613 . S
N772 C775 1.350 . S
N773 S771 1.610 . S
N773 C774 1.351 . S
C774 C768 1.428 . S
C774 N773 1.351 . S
C774 C775 1.434 . S
C775 C766 1.429 . S
C775 N772 1.350 . S
C775 C774 1.434 . S
C776 C777 1.369 . S
C776 C778 1.419 . S
C776 H780 0.930 . S
C777 C776 1.369 . S
C777 C786 1.429 . S
C778 C776 1.419 . S
C778 C779 1.363 . S
C778 H781 0.929 . S
C779 C778 1.363 . S
C779 C785 1.428 . S
H780 C776 0.930 . S
H781 C778 0.929 . S
S782 N783 1.613 . S
S782 N784 1.610 . S
N783 S782 1.613 . S
N783 C786 1.350 . S
N784 S782 1.610 . S
N784 C785 1.351 . S
C785 C779 1.428 . S
C785 N784 1.351 . S
C785 C786 1.434 . S
C786 C777 1.429 . S
C786 N783 1.350 . S
C786 C785 1.434 . S
C787 C788 1.362 1_455 S
C787 C789 1.419 . S
C787 H791 0.930 . S
C788 C787 1.362 1_655 S
C788 C797 1.431 . S
C789 C787 1.419 . S
C789 C790 1.363 . S
C789 H792 0.929 . S
C790 C789 1.363 . S
C790 C796 1.428 1_455 S
H791 C787 0.930 . S
H792 C789 0.929 . S
S793 N794 1.613 . S
S793 N795 1.610 . S
N794 S793 1.613 . S
N794 C797 1.350 . S
N795 S793 1.610 . S
N795 C796 1.351 . S
C796 C790 1.428 1_655 S
C796 N795 1.351 . S
C796 C797 1.434 . S
C797 C788 1.431 . S
C797 N794 1.350 . S
C797 C796 1.434 . S
C798 C799 1.369 . S
C798 C800 1.419 . S
C798 H802 0.930 . S
C799 C798 1.369 . S
C799 C808 1.429 . S
C800 C798 1.419 . S
C800 C801 1.363 . S
C800 H803 0.929 . S
C801 C800 1.363 . S
C801 C807 1.428 . S
H802 C798 0.930 . S
H803 C800 0.929 . S
S804 N805 1.613 . S
S804 N806 1.610 . S
N805 S804 1.613 . S
N805 C808 1.350 . S
N806 S804 1.610 . S
N806 C807 1.351 . S
C807 C801 1.428 . S
C807 N806 1.351 . S
C807 C808 1.434 . S
C808 C799 1.429 . S
C808 N805 1.350 . S
C808 C807 1.434 . S
C809 C810 1.369 . S
C809 C811 1.419 . S
C809 H813 0.930 . S
C810 C809 1.369 . S
C810 C819 1.429 . S
C811 C809 1.419 . S
C811 C812 1.363 . S
C811 H814 0.929 . S
C812 C811 1.363 . S
C812 C818 1.428 . S
H813 C809 0.930 . S
H814 C811 0.929 . S
S815 N816 1.613 . S
S815 N817 1.610 . S
N816 S815 1.613 . S
N816 C819 1.350 . S
N817 S815 1.610 . S
N817 C818 1.351 . S
C818 C812 1.428 . S
C818 N817 1.351 . S
C818 C819 1.434 . S
C819 C810 1.429 . S
C819 N816 1.350 . S
C819 C818 1.434 . S
C820 C821 1.369 . S
C820 C822 1.419 . S
C820 H824 0.930 . S
C821 C820 1.369 . S
C821 C830 1.429 . S
C822 C820 1.419 . S
C822 C823 1.363 . S
C822 H825 0.929 . S
C823 C822 1.363 . S
C823 C829 1.428 . S
H824 C820 0.930 . S
H825 C822 0.929 . S
S826 N827 1.613 . S
S826 N828 1.610 . S
N827 S826 1.613 . S
N827 C830 1.350 . S
N828 S826 1.610 . S
N828 C829 1.351 . S
C829 C823 1.428 . S
C829 N828 1.351 . S
C829 C830 1.434 . S
C830 C821 1.429 . S
C830 N827 1.350 . S
C830 C829 1.434 . S
C831 C832 1.369 . S
C831 C833 1.419 . S
C831 H835 0.930 . S
C832 C831 1.369 . S
C832 C841 1.429 . S
C833 C831 1.419 . S
C833 C834 1.363 . S
C833 H836 0.929 . S
C834 C833 1.363 . S
C834 C840 1.428 . S
H835 C831 0.930 . S
H836 C833 0.929 . S
S837 N838 1.613 . S
S837 N839 1.610 . S
N838 S837 1.613 . S
N838 C841 1.350 . S
N839 S837 1.610 . S
N839 C840 1.351 . S
C840 C834 1.428 . S
C840 N839 1.351 . S
C840 C841 1.434 . S
C841 C832 1.429 . S
C841 N838 1.350 . S
C841 C840 1.434 . S
C842 C843 1.369 . S
C842 C844 1.419 . S
C842 H846 0.930 . S
C843 C842 1.369 . S
C843 C852 1.429 . S
C844 C842 1.419 . S
C844 C845 1.363 . S
C844 H847 0.929 . S
C845 C844 1.363 . S
C845 C851 1.428 . S
H846 C842 0.930 . S
H847 C844 0.929 . S
S848 N849 1.613 . S
S848 N850 1.610 . S
N849 S848 1.613 . S
N849 C852 1.350 . S
N850 S848 1.610 . S
N850 C851 1.351 . S
C851 C845 1.428 . S
C851 N850 1.351 . S
C851 C852 1.434 . S
C852 C843 1.429 . S
C852 N849 1.350 . S
C852 C851 1.434 . S
C853 C854 1.369 . S
C853 C855 1.419 . S
C853 H857 0.930 . S
C854 C853 1.369 . S
C854 C863 1.429 . S
C855 C853 1.419 . S
C855 C856 1.363 . S
C855 H858 0.929 . S
C856 C855 1.363 . S
C856 C862 1.428 . S
H857 C853 0.930 . S
H858 C855 0.929 . S
S859 N860 1.613 . S
S859 N861 1.610 . S
N860 S859 1.613 . S
N860 C863 1.350 . S
N861 S859 1.610 . S
N861 C862 1.351 . S
C862 C856 1.428 . S
C862 N861 1.351 . S
C862 C863 1.434 . S
C863 C854 1.429 . S
C863 N860 1.350 . S
C863 C862 1.434 . S
C864 C865 1.369 . S
C864 C866 1.419 . S
C864 H868 0.930 . S
C865 C864 1.369 . S
C865 C874 1.429 . S
C866 C864 1.419 . S
C866 C867 1.363 . S
C866 H869 0.929 . S
C867 C866 1.363 . S
C867 C873 1.428 . S
H868 C864 0.930 . S
H869 C866 0.929 . S
S870 N871 1.613 . S
S870 N872 1.610 . S
N871 S870 1.613 . S
N871 C874 1.350 . S
N872 S870 1.610 . S
N872 C873 1.351 . S
C873 C867 1.428 . S
C873 N872 1.351 . S
C873 C874 1.434 . S
C874 C865 1.429 . S
C874 N871 1.350 . S
C874 C873 1.434 . S
C875 C876 1.369 . S
C875 C877 1.419 . S
C875 H879 0.930 . S
C876 C875 1.369 . S
C876 C885 1.429 . S
C877 C875 1.419 . S
C877 C878 1.363 . S
C877 H880 0.929 . S
C878 C877 1.363 . S
C878 C884 1.428 . S
H879 C875 0.930 . S
H880 C877 0.929 . S
S881 N882 1.613 . S
S881 N883 1.610 . S
N882 S881 1.613 . S
N882 C885 1.350 . S
N883 S881 1.610 . S
N883 C884 1.351 . S
C884 C878 1.428 . S
C884 N883 1.351 . S
C884 C885 1.434 . S
C885 C876 1.429 . S
C885 N882 1.350 . S
C885 C884 1.434 . S
C886 C887 1.369 . S
C886 C888 1.419 . S
C886 H890 0.930 . S
C887 C886 1.369 . S
C887 C896 1.429 . S
C888 C886 1.419 . S
C888 C889 1.363 . S
C888 H891 0.929 . S
C889 C888 1.363 . S
C889 C895 1.428 . S
H890 C886 0.930 . S
H891 C888 0.929 . S
S892 N893 1.613 . S
S892 N894 1.610 . S
N893 S892 1.613 . S
N893 C896 1.350 . S
N894 S892 1.610 . S
N894 C895 1.351 . S
C895 C889 1.428 . S
C895 N894 1.351 . S
C895 C896 1.434 . S
C896 C887 1.429 . S
C896 N893 1.350 . S
C896 C895 1.434 . S
C897 C898 1.369 . S
C897 C899 1.419 . S
C897 H901 0.930 . S
C898 C897 1.369 . S
C898 C907 1.429 . S
C899 C897 1.419 . S
C899 C900 1.363 . S
C899 H902 0.929 . S
C900 C899 1.363 . S
C900 C906 1.428 . S
H901 C897 0.930 . S
H902 C899 0.929 . S
S903 N904 1.613 . S
S903 N905 1.610 . S
N904 S903 1.613 . S
N904 C907 1.350 . S
N905 S903 1.610 . S
N905 C906 1.351 . S
C906 C900 1.428 . S
C906 N905 1.351 . S
C906 C907 1.434 . S
C907 C898 1.429 . S
C907 N904 1.350 . S
C907 C906 1.434 . S
C908 C909 1.369 . S
C908 C910 1.419 . S
C908 H912 0.930 . S
C909 C908 1.369 . S
C909 C918 1.429 . S
C910 C908 1.419 . S
C910 C911 1.363 . S
C910 H913 0.929 . S
C911 C910 1.363 . S
C911 C917 1.428 . S
H912 C908 0.930 . S
H913 C910 0.929 . S
S914 N915 1.613 . S
S914 N916 1.610 . S
N915 S914 1.613 . S
N915 C918 1.350 . S
N916 S914 1.610 . S
N916 C917 1.351 . S
C917 C911 1.428 . S
C917 N916 1.351 . S
C917 C918 1.434 . S
C918 C909 1.429 . S
C918 N915 1.350 . S
C918 C917 1.434 . S
C919 C920 1.369 . S
C919 C921 1.419 . S
C919 H923 0.930 . S
C920 C919 1.369 . S
C920 C929 1.429 . S
C921 C919 1.419 . S
C921 C922 1.363 . S
C921 H924 0.929 . S
C922 C921 1.363 . S
C922 C928 1.428 . S
H923 C919 0.930 . S
H924 C921 0.929 . S
S925 N926 1.613 . S
S925 N927 1.610 . S
N926 S925 1.613 . S
N926 C929 1.350 . S
N927 S925 1.610 . S
N927 C928 1.351 . S
C928 C922 1.428 . S
C928 N927 1.351 . S
C928 C929 1.434 . S
C929 C920 1.429 . S
C929 N926 1.350 . S
C929 C928 1.434 . S
C930 C931 1.369 . S
C930 C932 1.419 . S
C930 H934 0.930 . S
C931 C930 1.369 . S
C931 C940 1.429 . S
C932 C930 1.419 . S
C932 C933 1.363 . S
C932 H935 0.929 . S
C933 C932 1.363 . S
C933 C939 1.428 . S
H934 C930 0.930 . S
H935 C932 0.929 . S
S936 N937 1.613 . S
S936 N938 1.610 . S
N937 S936 1.613 . S
N937 C940 1.350 . S
N938 S936 1.610 . S
N938 C939 1.351 . S
C939 C933 1.428 . S
C939 N938 1.351 . S
C939 C940 1.434 . S
C940 C931 1.429 . S
C940 N937 1.350 . S
C940 C939 1.434 . S
C941 C942 1.369 . S
C941 C943 1.419 . S
C941 H945 0.930 . S
C942 C941 1.369 . S
C942 C951 1.429 . S
C943 C941 1.419 . S
C943 C944 1.363 . S
C943 H946 0.929 . S
C944 C943 1.363 . S
C944 C950 1.428 . S
H945 C941 0.930 . S
H946 C943 0.929 . S
S947 N948 1.613 . S
S947 N949 1.610 . S
N948 S947 1.613 . S
N948 C951 1.350 . S
N949 S947 1.610 . S
N949 C950 1.351 . S
C950 C944 1.428 . S
C950 N949 1.351 . S
C950 C951 1.434 . S
C951 C942 1.429 . S
C951 N948 1.350 . S
C951 C950 1.434 . S
C952 C953 1.369 . S
C952 C954 1.419 . S
C952 H956 0.930 . S
C953 C952 1.369 . S
C953 C962 1.429 . S
C954 C952 1.419 . S
C954 C955 1.363 . S
C954 H957 0.929 . S
C955 C954 1.363 . S
C955 C961 1.428 . S
H956 C952 0.930 . S
H957 C954 0.929 . S
S958 N959 1.613 . S
S958 N960 1.610 . S
N959 S958 1.613 . S
N959 C962 1.350 . S
N960 S958 1.610 . S
N960 C961 1.351 . S
C961 C955 1.428 . S
C961 N960 1.351 . S
C961 C962 1.434 . S
C962 C953 1.429 . S
C962 N959 1.350 . S
C962 C961 1.434 . S
C963 C964 1.369 . S
C963 C965 1.419 . S
C963 H967 0.930 . S
C964 C963 1.369 . S
C964 C973 1.429 . S
C965 C963 1.419 . S
C965 C966 1.363 . S
C965 H968 0.929 . S
C966 C965 1.363 . S
C966 C972 1.428 . S
H967 C963 0.930 . S
H968 C965 0.929 . S
S969 N970 1.613 . S
S969 N971 1.610 . S
N970 S969 1.613 . S
N970 C973 1.350 . S
N971 S969 1.610 . S
N971 C972 1.351 . S
C972 C966 1.428 . S
C972 N971 1.351 . S
C972 C973 1.434 . S
C973 C964 1.429 . S
C973 N970 1.350 . S
C973 C972 1.434 . S
C974 C975 1.369 . S
C974 C976 1.419 . S
C974 H978 0.930 . S
C975 C974 1.369 . S
C975 C984 1.429 . S
C976 C974 1.419 . S
C976 C977 1.363 . S
C976 H979 0.929 . S
C977 C976 1.363 . S
C977 C983 1.428 . S
H978 C974 0.930 . S
H979 C976 0.929 . S
S980 N981 1.613 . S
S980 N982 1.610 . S
N981 S980 1.613 . S
N981 C984 1.350 . S
N982 S980 1.610 . S
N982 C983 1.351 . S
C983 C977 1.428 . S
C983 N982 1.351 . S
C983 C984 1.434 . S
C984 C975 1.429 . S
C984 N981 1.350 . S
C984 C983 1.434 . S
C985 C986 1.369 . S
C985 C987 1.419 . S
C985 H989 0.930 . S
C986 C985 1.369 . S
C986 C995 1.429 . S
C987 C985 1.419 . S
C987 C988 1.363 . S
C987 H990 0.929 . S
C988 C987 1.363 . S
C988 C994 1.428 . S
H989 C985 0.930 . S
H990 C987 0.929 . S
S991 N992 1.613 . S
S991 N993 1.610 . S
N992 S991 1.613 . S
N992 C995 1.350 . S
N993 S991 1.610 . S
N993 C994 1.351 . S
C994 C988 1.428 . S
C994 N993 1.351 . S
C994 C995 1.434 . S
C995 C986 1.429 . S
C995 N992 1.350 . S
C995 C994 1.434 . S
C996 C997 1.369 . S
C996 C998 1.419 . S
C996 H1000 0.930 . S
C997 C996 1.369 . S
C997 C1006 1.429 . S
C998 C996 1.419 . S
C998 C999 1.363 . S
C998 H1001 0.929 . S
C999 C998 1.363 . S
C999 C1005 1.428 . S
H1000 C996 0.930 . S
H1001 C998 0.929 . S
S1002 N1003 1.613 . S
S1002 N1004 1.610 . S
N1003 S1002 1.613 . S
N1003 C1006 1.350 . S
N1004 S1002 1.610 . S
N1004 C1005 1.351 . S
C1005 C999 1.428 . S
C1005 N1004 1.351 . S
C1005 C1006 1.434 . S
C1006 C997 1.429 . S
C1006 N1003 1.350 . S
C1006 C1005 1.434 . S
C1007 C1008 1.369 . S
C1007 C1009 1.419 . S
C1007 H1011 0.930 . S
C1008 C1007 1.369 . S
C1008 C1017 1.429 . S
C1009 C1007 1.419 . S
C1009 C1010 1.363 . S
C1009 H1012 0.929 . S
C1010 C1009 1.363 . S
C1010 C1016 1.428 . S
H1011 C1007 0.930 . S
H1012 C1009 0.929 . S
S1013 N1014 1.613 . S
S1013 N1015 1.610 . S
N1014 S1013 1.613 . S
N1014 C1017 1.350 . S
N1015 S1013 1.610 . S
N1015 C1016 1.351 . S
C1016 C1010 1.428 . S
C1016 N1015 1.351 . S
C1016 C1017 1.434 . S
C1017 C1008 1.429 . S
C1017 N1014 1.350 . S
C1017 C1016 1.434 . S
C1018 C1019 1.369 . S
C1018 C1020 1.419 . S
C1018 H1022 0.930 . S
C1019 C1018 1.369 . S
C1019 C1028 1.429 . S
C1020 C1018 1.419 . S
C1020 C1021 1.363 . S
C1020 H1023 0.929 . S
C1021 C1020 1.363 . S
C1021 C1027 1.428 . S
H1022 C1018 0.930 . S
H1023 C1020 0.929 . S
S1024 N1025 1.613 . S
S1024 N1026 1.610 . S
N1025 S1024 1.613 . S
N1025 C1028 1.350 . S
N1026 S1024 1.610 . S
N1026 C1027 1.351 . S
C1027 C1021 1.428 . S
C1027 N1026 1.351 . S
C1027 C1028 1.434 . S
C1028 C1019 1.429 . S
C1028 N1025 1.350 . S
C1028 C1027 1.434 . S
C1029 C1030 1.369 . S
C1029 C1031 1.419 . S
C1029 H1033 0.930 . S
C1030 C1029 1.369 . S
C1030 C1039 1.429 . S
C1031 C1029 1.419 . S
C1031 C1032 1.363 . S
C1031 H1034 0.929 . S
C1032 C1031 1.363 . S
C1032 C1038 1.428 . S
H1033 C1029 0.930 . S
H1034 C1031 0.929 . S
S1035 N1036 1.613 . S
S1035 N1037 1.610 . S
N1036 S1035 1.613 . S
N1036 C1039 1.350 . S
N1037 S1035 1.610 . S
N1037 C1038 1.351 . S
C1038 C1032 1.428 . S
C1038 N1037 1.351 . S
C1038 C1039 1.434 . S
C1039 C1030 1.429 . S
C1039 N1036 1.350 . S
C1039 C1038 1.434 . S
C1040 C1041 1.369 . S
C1040 C1042 1.419 . S
C1040 H1044 0.930 . S
C1041 C1040 1.369 . S
C1041 C1050 1.429 . S
C1042 C1040 1.419 . S
C1042 C1043 1.363 . S
C1042 H1045 0.929 . S
C1043 C1042 1.363 . S
C1043 C1049 1.428 . S
H1044 C1040 0.930 . S
H1045 C1042 0.929 . S
S1046 N1047 1.613 . S
S1046 N1048 1.610 . S
N1047 S1046 1.613 . S
N1047 C1050 1.350 . S
N1048 S1046 1.610 . S
N1048 C1049 1.351 . S
C1049 C1043 1.428 . S
C1049 N1048 1.351 . S
C1049 C1050 1.434 . S
C1050 C1041 1.429 . S
C1050 N1047 1.350 . S
C1050 C1049 1.434 . S
C1051 C1052 1.369 . S
C1051 C1053 1.419 . S
C1051 H1055 0.930 . S
C1052 C1051 1.369 . S
C1052 C1061 1.429 . S
C1053 C1051 1.419 . S
C1053 C1054 1.363 . S
C1053 H1056 0.929 . S
C1054 C1053 1.363 . S
C1054 C1060 1.428 . S
H1055 C1051 0.930 . S
H1056 C1053 0.929 . S
S1057 N1058 1.613 . S
S1057 N1059 1.610 . S
N1058 S1057 1.613 . S
N1058 C1061 1.350 . S
N1059 S1057 1.610 . S
N1059 C1060 1.351 . S
C1060 C1054 1.428 . S
C1060 N1059 1.351 . S
C1060 C1061 1.434 . S
C1061 C1052 1.429 . S
C1061 N1058 1.350 . S
C1061 C1060 1.434 . S
C1062 C1063 1.369 . S
C1062 C1064 1.419 . S
C1062 H1066 0.930 . S
C1063 C1062 1.369 . S
C1063 C1072 1.429 1_545 S
C1064 C1062 1.419 . S
C1064 C1065 1.363 . S
C1064 H1067 0.929 . S
C1065 C1064 1.363 . S
C1065 C1071 1.428 1_545 S
H1066 C1062 0.930 . S
H1067 C1064 0.929 . S
S1068 N1069 1.613 . S
S1068 N1070 1.610 . S
N1069 S1068 1.613 . S
N1069 C1072 1.350 . S
N1070 S1068 1.610 . S
N1070 C1071 1.351 . S
C1071 C1065 1.428 1_565 S
C1071 N1070 1.351 . S
C1071 C1072 1.434 . S
C1072 C1063 1.429 1_565 S
C1072 N1069 1.350 . S
C1072 C1071 1.434 . S
C1073 C1074 1.369 . S
C1073 C1075 1.419 . S
C1073 H1077 0.930 . S
C1074 C1073 1.369 . S
C1074 C1083 1.429 1_455 S
C1075 C1073 1.419 . S
C1075 C1076 1.363 1_455 S
C1075 H1078 0.929 . S
C1076 C1075 1.363 1_655 S
C1076 C1082 1.428 . S
H1077 C1073 0.930 . S
H1078 C1075 0.929 . S
S1079 N1080 1.613 . S
S1079 N1081 1.610 . S
N1080 S1079 1.613 . S
N1080 C1083 1.350 . S
N1081 S1079 1.610 . S
N1081 C1082 1.351 . S
C1082 C1076 1.428 . S
C1082 N1081 1.351 . S
C1082 C1083 1.434 . S
C1083 C1074 1.429 1_655 S
C1083 N1080 1.350 . S
C1083 C1082 1.434 . S
C1084 C1085 1.369 . S
C1084 C1086 1.419 . S
C1084 H1088 0.930 . S
C1085 C1084 1.369 . S
C1085 C1094 1.429 . S
C1086 C1084 1.419 . S
C1086 C1087 1.363 . S
C1086 H1089 0.929 . S
C1087 C1086 1.363 . S
C1087 C1093 1.428 . S
H1088 C1084 0.930 . S
H1089 C1086 0.929 . S
S1090 N1091 1.613 . S
S1090 N1092 1.610 . S
N1091 S1090 1.613 . S
N1091 C1094 1.350 . S
N1092 S1090 1.610 . S
N1092 C1093 1.351 . S
C1093 C1087 1.428 . S
C1093 N1092 1.351 . S
C1093 C1094 1.434 . S
C1094 C1085 1.429 . S
C1094 N1091 1.350 . S
C1094 C1093 1.434 . S
C1095 C1096 1.369 . S
C1095 C1097 1.419 . S
C1095 H1099 0.930 . S
C1096 C1095 1.369 . S
C1096 C1105 1.429 1_455 S
C1097 C1095 1.419 . S
C1097 C1098 1.363 . S
C1097 H1100 0.929 . S
C1098 C1097 1.363 . S
C1098 C1104 1.428 . S
H1099 C1095 0.930 . S
H1100 C1097 0.929 . S
S1101 N1102 1.613 . S
S1101 N1103 1.610 . S
N1102 S1101 1.613 . S
N1102 C1105 1.350 . S
N1103 S1101 1.610 . S
N1103 C1104 1.351 1_655 S
C1104 C1098 1.428 . S
C1104 N1103 1.351 1_455 S
C1104 C1105 1.434 1_455 S
C1105 C1096 1.429 1_655 S
C1105 N1102 1.350 . S
C1105 C1104 1.434 1_655 S
C1106 C1107 1.369 . S
C1106 C1108 1.419 . S
C1106 H1110 0.930 . S
C1107 C1106 1.369 . S
C1107 C1116 1.429 . S
C1108 C1106 1.419 . S
C1108 C1109 1.363 . S
C1108 H1111 0.929 . S
C1109 C1108 1.363 . S
C1109 C1115 1.428 . S
H1110 C1106 0.930 . S
H1111 C1108 0.929 . S
S1112 N1113 1.613 . S
S1112 N1114 1.610 . S
N1113 S1112 1.613 . S
N1113 C1116 1.350 . S
N1114 S1112 1.610 . S
N1114 C1115 1.351 . S
C1115 C1109 1.428 . S
C1115 N1114 1.351 . S
C1115 C1116 1.434 . S
C1116 C1107 1.429 . S
C1116 N1113 1.350 . S
C1116 C1115 1.434 . S
C1117 C1118 1.369 . S
C1117 C1119 1.419 . S
C1117 H1121 0.930 . S
C1118 C1117 1.369 . S
C1118 C1127 1.429 1_545 S
C1119 C1117 1.419 . S
C1119 C1120 1.362 1_545 S
C1119 H1122 0.929 . S
C1120 C1119 1.362 1_565 S
C1120 C1126 1.433 . S
H1121 C1117 0.930 . S
H1122 C1119 0.929 . S
S1123 N1124 1.613 . S
S1123 N1125 1.610 . S
N1124 S1123 1.613 . S
N1124 C1127 1.350 . S
N1125 S1123 1.610 . S
N1125 C1126 1.351 . S
C1126 C1120 1.433 . S
C1126 N1125 1.351 . S
C1126 C1127 1.434 . S
C1127 C1118 1.429 1_565 S
C1127 N1124 1.350 . S
C1127 C1126 1.434 . S
C1128 C1129 1.369 1_565 S
C1128 C1130 1.419 . S
C1128 H1132 0.930 . S
C1129 C1128 1.369 1_545 S
C1129 C1138 1.429 . S
C1130 C1128 1.419 . S
C1130 C1131 1.363 . S
C1130 H1133 0.929 . S
C1131 C1130 1.363 . S
C1131 C1137 1.428 1_565 S
H1132 C1128 0.930 . S
H1133 C1130 0.929 . S
S1134 N1135 1.613 . S
S1134 N1136 1.610 . S
N1135 S1134 1.613 . S
N1135 C1138 1.350 . S
N1136 S1134 1.610 . S
N1136 C1137 1.351 . S
C1137 C1131 1.428 1_545 S
C1137 N1136 1.351 . S
C1137 C1138 1.434 . S
C1138 C1129 1.429 . S
C1138 N1135 1.350 . S
C1138 C1137 1.434 . S
C1139 C1140 1.369 . S
C1139 C1141 1.419 . S
C1139 H1143 0.930 . S
C1140 C1139 1.369 . S
C1140 C1149 1.406 1_455 S
C1141 C1139 1.419 . S
C1141 C1142 1.363 . S
C1141 H1144 0.929 . S
C1142 C1141 1.363 . S
C1142 C1148 1.428 . S
H1143 C1139 0.930 . S
H1144 C1141 0.929 . S
S1145 N1146 1.613 . S
S1145 N1147 1.610 . S
N1146 S1145 1.613 . S
N1146 C1149 1.365 . S
N1147 S1145 1.610 . S
N1147 C1148 1.351 1_655 S
C1148 C1142 1.428 . S
C1148 N1147 1.351 1_455 S
C1148 C1149 1.443 1_455 S
C1149 C1140 1.406 1_655 S
C1149 N1146 1.365 . S
C1149 C1148 1.443 1_655 S
C1150 C1151 1.369 . S
C1150 C1152 1.419 . S
C1150 H1154 0.930 . S
C1151 C1150 1.369 . S
C1151 C1160 1.429 . S
C1152 C1150 1.419 . S
C1152 C1153 1.363 . S
C1152 H1155 0.929 . S
C1153 C1152 1.363 . S
C1153 C1159 1.428 . S
H1154 C1150 0.930 . S
H1155 C1152 0.929 . S
S1156 N1157 1.613 . S
S1156 N1158 1.610 . S
N1157 S1156 1.613 . S
N1157 C1160 1.350 . S
N1158 S1156 1.610 . S
N1158 C1159 1.351 . S
C1159 C1153 1.428 . S
C1159 N1158 1.351 . S
C1159 C1160 1.434 . S
C1160 C1151 1.429 . S
C1160 N1157 1.350 . S
C1160 C1159 1.434 . S
C1161 C1162 1.369 1_655 S
C1161 C1163 1.419 . S
C1161 H1165 0.930 . S
C1162 C1161 1.369 1_455 S
C1162 C1171 1.429 . S
C1163 C1161 1.419 . S
C1163 C1164 1.363 . S
C1163 H1166 0.929 . S
C1164 C1163 1.363 . S
C1164 C1170 1.428 1_655 S
H1165 C1161 0.930 . S
H1166 C1163 0.929 . S
S1167 N1168 1.613 . S
S1167 N1169 1.610 . S
N1168 S1167 1.613 . S
N1168 C1171 1.350 . S
N1169 S1167 1.610 . S
N1169 C1170 1.351 . S
C1170 C1164 1.428 1_455 S
C1170 N1169 1.351 . S
C1170 C1171 1.434 . S
C1171 C1162 1.429 . S
C1171 N1168 1.350 . S
C1171 C1170 1.434 . S
C1172 C1173 1.369 . S
C1172 C1174 1.419 . S
C1172 H1176 0.930 . S
C1173 C1172 1.369 . S
C1173 C1182 1.429 . S
C1174 C1172 1.419 . S
C1174 C1175 1.363 . S
C1174 H1177 0.929 . S
C1175 C1174 1.363 . S
C1175 C1181 1.428 . S
H1176 C1172 0.930 . S
H1177 C1174 0.929 . S
S1178 N1179 1.613 . S
S1178 N1180 1.610 . S
N1179 S1178 1.613 . S
N1179 C1182 1.350 . S
N1180 S1178 1.610 . S
N1180 C1181 1.351 . S
C1181 C1175 1.428 . S
C1181 N1180 1.351 . S
C1181 C1182 1.434 . S
C1182 C1173 1.429 . S
C1182 N1179 1.350 . S
C1182 C1181 1.434 . S
C1183 C1184 1.369 . S
C1183 C1185 1.419 . S
C1183 H1187 0.930 . S
C1184 C1183 1.369 . S
C1184 C1193 1.429 . S
C1185 C1183 1.419 . S
C1185 C1186 1.363 . S
C1185 H1188 0.929 . S
C1186 C1185 1.363 . S
C1186 C1192 1.428 . S
H1187 C1183 0.930 . S
H1188 C1185 0.929 . S
S1189 N1190 1.613 . S
S1189 N1191 1.610 1_565 S
N1190 S1189 1.613 . S
N1190 C1193 1.350 1_565 S
N1191 S1189 1.610 1_545 S
N1191 C1192 1.351 . S
C1192 C1186 1.428 . S
C1192 N1191 1.351 . S
C1192 C1193 1.434 . S
C1193 C1184 1.429 . S
C1193 N1190 1.350 1_545 S
C1193 C1192 1.434 . S
C1194 C1195 1.369 . S
C1194 C1196 1.419 . S
C1194 H1198 0.930 . S
C1195 C1194 1.369 . S
C1195 C1204 1.429 . S
C1196 C1194 1.419 . S
C1196 C1197 1.363 . S
C1196 H1199 0.929 . S
C1197 C1196 1.363 . S
C1197 C1203 1.428 . S
H1198 C1194 0.930 . S
H1199 C1196 0.929 . S
S1200 N1201 1.613 . S
S1200 N1202 1.610 . S
N1201 S1200 1.613 . S
N1201 C1204 1.350 . S
N1202 S1200 1.610 . S
N1202 C1203 1.351 . S
C1203 C1197 1.428 . S
C1203 N1202 1.351 . S
C1203 C1204 1.434 . S
C1204 C1195 1.429 . S
C1204 N1201 1.350 . S
C1204 C1203 1.434 . S
C1205 C1206 1.369 . S
C1205 C1207 1.419 . S
C1205 H1209 0.930 . S
C1206 C1205 1.369 . S
C1206 C1215 1.429 . S
C1207 C1205 1.419 . S
C1207 C1208 1.363 . S
C1207 H1210 0.929 . S
C1208 C1207 1.363 . S
C1208 C1214 1.428 . S
H1209 C1205 0.930 . S
H1210 C1207 0.929 . S
S1211 N1212 1.613 . S
S1211 N1213 1.610 . S
N1212 S1211 1.613 . S
N1212 C1215 1.350 . S
N1213 S1211 1.610 . S
N1213 C1214 1.351 . S
C1214 C1208 1.428 . S
C1214 N1213 1.351 . S
C1214 C1215 1.434 . S
C1215 C1206 1.429 . S
C1215 N1212 1.350 . S
C1215 C1214 1.434 . S
C1216 C1217 1.369 . S
C1216 C1218 1.419 . S
C1216 H1220 0.930 . S
C1217 C1216 1.369 . S
C1217 C1226 1.429 . S
C1218 C1216 1.419 . S
C1218 C1219 1.363 . S
C1218 H1221 0.929 . S
C1219 C1218 1.363 . S
C1219 C1225 1.428 . S
H1220 C1216 0.930 . S
H1221 C1218 0.929 . S
S1222 N1223 1.613 . S
S1222 N1224 1.610 . S
N1223 S1222 1.613 . S
N1223 C1226 1.350 . S
N1224 S1222 1.610 . S
N1224 C1225 1.351 . S
C1225 C1219 1.428 . S
C1225 N1224 1.351 . S
C1225 C1226 1.434 . S
C1226 C1217 1.429 . S
C1226 N1223 1.350 . S
C1226 C1225 1.434 . S
C1227 C1228 1.369 . S
C1227 C1229 1.419 . S
C1227 H1231 0.930 . S
C1228 C1227 1.369 . S
C1228 C1237 1.429 . S
C1229 C1227 1.419 . S
C1229 C1230 1.363 . S
C1229 H1232 0.929 . S
C1230 C1229 1.363 . S
C1230 C1236 1.428 . S
H1231 C1227 0.930 . S
H1232 C1229 0.929 . S
S1233 N1234 1.613 . S
S1233 N1235 1.610 . S
N1234 S1233 1.613 . S
N1234 C1237 1.350 . S
N1235 S1233 1.610 . S
N1235 C1236 1.351 . S
C1236 C1230 1.428 . S
C1236 N1235 1.351 . S
C1236 C1237 1.434 . S
C1237 C1228 1.429 . S
C1237 N1234 1.350 . S
C1237 C1236 1.434 . S
C1238 C1239 1.369 . S
C1238 C1240 1.419 . S
C1238 H1242 0.930 . S
C1239 C1238 1.369 . S
C1239 C1248 1.429 . S
C1240 C1238 1.419 . S
C1240 C1241 1.363 . S
C1240 H1243 0.929 . S
C1241 C1240 1.363 . S
C1241 C1247 1.428 . S
H1242 C1238 0.930 . S
H1243 C1240 0.929 . S
S1244 N1245 1.613 . S
S1244 N1246 1.610 . S
N1245 S1244 1.613 . S
N1245 C1248 1.350 . S
N1246 S1244 1.610 . S
N1246 C1247 1.351 . S
C1247 C1241 1.428 . S
C1247 N1246 1.351 . S
C1247 C1248 1.434 . S
C1248 C1239 1.429 . S
C1248 N1245 1.350 . S
C1248 C1247 1.434 . S
C1249 C1250 1.369 . S
C1249 C1251 1.419 . S
C1249 H1253 0.930 . S
C1250 C1249 1.369 . S
C1250 C1259 1.429 . S
C1251 C1249 1.419 . S
C1251 C1252 1.363 . S
C1251 H1254 0.929 . S
C1252 C1251 1.363 . S
C1252 C1258 1.428 . S
H1253 C1249 0.930 . S
H1254 C1251 0.929 . S
S1255 N1256 1.613 . S
S1255 N1257 1.610 . S
N1256 S1255 1.613 . S
N1256 C1259 1.350 . S
N1257 S1255 1.610 . S
N1257 C1258 1.351 . S
C1258 C1252 1.428 . S
C1258 N1257 1.351 . S
C1258 C1259 1.434 . S
C1259 C1250 1.429 . S
C1259 N1256 1.350 . S
C1259 C1258 1.434 . S
C1260 C1261 1.369 . S
C1260 C1262 1.419 . S
C1260 H1264 0.930 . S
C1261 C1260 1.369 . S
C1261 C1270 1.429 . S
C1262 C1260 1.419 . S
C1262 C1263 1.363 . S
C1262 H1265 0.929 . S
C1263 C1262 1.363 . S
C1263 C1269 1.428 . S
H1264 C1260 0.930 . S
H1265 C1262 0.929 . S
S1266 N1267 1.613 . S
S1266 N1268 1.610 . S
N1267 S1266 1.613 . S
N1267 C1270 1.350 . S
N1268 S1266 1.610 . S
N1268 C1269 1.351 . S
C1269 C1263 1.428 . S
C1269 N1268 1.351 . S
C1269 C1270 1.434 . S
C1270 C1261 1.429 . S
C1270 N1267 1.350 . S
C1270 C1269 1.434 . S
C1271 C1272 1.369 . S
C1271 C1273 1.419 . S
C1271 H1275 0.930 . S
C1272 C1271 1.369 . S
C1272 C1281 1.429 . S
C1273 C1271 1.419 . S
C1273 C1274 1.363 . S
C1273 H1276 0.929 . S
C1274 C1273 1.363 . S
C1274 C1280 1.428 . S
H1275 C1271 0.930 . S
H1276 C1273 0.929 . S
S1277 N1278 1.613 . S
S1277 N1279 1.610 . S
N1278 S1277 1.613 . S
N1278 C1281 1.350 . S
N1279 S1277 1.610 . S
N1279 C1280 1.351 . S
C1280 C1274 1.428 . S
C1280 N1279 1.351 . S
C1280 C1281 1.434 . S
C1281 C1272 1.429 . S
C1281 N1278 1.350 . S
C1281 C1280 1.434 . S
C1282 C1283 1.369 . S
C1282 C1284 1.419 . S
C1282 H1286 0.930 . S
C1283 C1282 1.369 . S
C1283 C1292 1.429 . S
C1284 C1282 1.419 . S
C1284 C1285 1.363 . S
C1284 H1287 0.929 . S
C1285 C1284 1.363 . S
C1285 C1291 1.428 . S
H1286 C1282 0.930 . S
H1287 C1284 0.929 . S
S1288 N1289 1.613 . S
S1288 N1290 1.610 . S
N1289 S1288 1.613 . S
N1289 C1292 1.350 . S
N1290 S1288 1.610 . S
N1290 C1291 1.351 . S
C1291 C1285 1.428 . S
C1291 N1290 1.351 . S
C1291 C1292 1.434 . S
C1292 C1283 1.429 . S
C1292 N1289 1.350 . S
C1292 C1291 1.434 . S
C1293 C1294 1.369 . S
C1293 C1295 1.419 . S
C1293 H1297 0.930 . S
C1294 C1293 1.369 . S
C1294 C1303 1.429 . S
C1295 C1293 1.419 . S
C1295 C1296 1.363 . S
C1295 H1298 0.929 . S
C1296 C1295 1.363 . S
C1296 C1302 1.428 . S
H1297 C1293 0.930 . S
H1298 C1295 0.929 . S
S1299 N1300 1.613 . S
S1299 N1301 1.610 . S
N1300 S1299 1.613 . S
N1300 C1303 1.350 . S
N1301 S1299 1.610 . S
N1301 C1302 1.351 . S
C1302 C1296 1.428 . S
C1302 N1301 1.351 . S
C1302 C1303 1.434 . S
C1303 C1294 1.429 . S
C1303 N1300 1.350 . S
C1303 C1302 1.434 . S
C1304 C1305 1.369 . S
C1304 C1306 1.419 . S
C1304 H1308 0.930 . S
C1305 C1304 1.369 . S
C1305 C1314 1.429 . S
C1306 C1304 1.419 . S
C1306 C1307 1.363 . S
C1306 H1309 0.929 . S
C1307 C1306 1.363 . S
C1307 C1313 1.428 . S
H1308 C1304 0.930 . S
H1309 C1306 0.929 . S
S1310 N1311 1.613 . S
S1310 N1312 1.610 . S
N1311 S1310 1.613 . S
N1311 C1314 1.350 . S
N1312 S1310 1.610 . S
N1312 C1313 1.351 . S
C1313 C1307 1.428 . S
C1313 N1312 1.351 . S
C1313 C1314 1.434 . S
C1314 C1305 1.429 . S
C1314 N1311 1.350 . S
C1314 C1313 1.434 . S
C1315 C1316 1.369 . S
C1315 C1317 1.419 . S
C1315 H1319 0.930 . S
C1316 C1315 1.369 . S
C1316 C1325 1.429 . S
C1317 C1315 1.419 . S
C1317 C1318 1.363 . S
C1317 H1320 0.929 . S
C1318 C1317 1.363 . S
C1318 C1324 1.428 . S
H1319 C1315 0.930 . S
H1320 C1317 0.929 . S
S1321 N1322 1.613 . S
S1321 N1323 1.610 . S
N1322 S1321 1.613 . S
N1322 C1325 1.350 . S
N1323 S1321 1.610 . S
N1323 C1324 1.351 . S
C1324 C1318 1.428 . S
C1324 N1323 1.351 . S
C1324 C1325 1.434 . S
C1325 C1316 1.429 . S
C1325 N1322 1.350 . S
C1325 C1324 1.434 . S
C1326 C1327 1.369 . S
C1326 C1328 1.419 . S
C1326 H1330 0.930 . S
C1327 C1326 1.369 . S
C1327 C1336 1.429 . S
C1328 C1326 1.419 . S
C1328 C1329 1.363 . S
C1328 H1331 0.929 . S
C1329 C1328 1.363 . S
C1329 C1335 1.428 . S
H1330 C1326 0.930 . S
H1331 C1328 0.929 . S
S1332 N1333 1.613 . S
S1332 N1334 1.610 . S
N1333 S1332 1.613 . S
N1333 C1336 1.350 . S
N1334 S1332 1.610 . S
N1334 C1335 1.351 . S
C1335 C1329 1.428 . S
C1335 N1334 1.351 . S
C1335 C1336 1.434 . S
C1336 C1327 1.429 . S
C1336 N1333 1.350 . S
C1336 C1335 1.434 . S
C1337 C1338 1.369 . S
C1337 C1339 1.419 . S
C1337 H1341 0.930 . S
C1338 C1337 1.369 . S
C1338 C1347 1.429 . S
C1339 C1337 1.419 . S
C1339 C1340 1.363 . S
C1339 H1342 0.929 . S
C1340 C1339 1.363 . S
C1340 C1346 1.428 . S
H1341 C1337 0.930 . S
H1342 C1339 0.929 . S
S1343 N1344 1.613 . S
S1343 N1345 1.610 . S
N1344 S1343 1.613 . S
N1344 C1347 1.350 . S
N1345 S1343 1.610 . S
N1345 C1346 1.351 . S
C1346 C1340 1.428 . S
C1346 N1345 1.351 . S
C1346 C1347 1.434 . S
C1347 C1338 1.429 . S
C1347 N1344 1.350 . S
C1347 C1346 1.434 . S
C1348 C1349 1.369 . S
C1348 C1350 1.419 . S
C1348 H1352 0.930 . S
C1349 C1348 1.369 . S
C1349 C1358 1.429 . S
C1350 C1348 1.419 . S
C1350 C1351 1.363 . S
C1350 H1353 0.929 . S
C1351 C1350 1.363 . S
C1351 C1357 1.428 . S
H1352 C1348 0.930 . S
H1353 C1350 0.929 . S
S1354 N1355 1.613 . S
S1354 N1356 1.610 . S
N1355 S1354 1.613 . S
N1355 C1358 1.350 . S
N1356 S1354 1.610 . S
N1356 C1357 1.351 . S
C1357 C1351 1.428 . S
C1357 N1356 1.351 . S
C1357 C1358 1.434 . S
C1358 C1349 1.429 . S
C1358 N1355 1.350 . S
C1358 C1357 1.434 . S
C1359 C1360 1.369 . S
C1359 C1361 1.419 . S
C1359 H1363 0.930 . S
C1360 C1359 1.369 . S
C1360 C1369 1.429 . S
C1361 C1359 1.419 . S
C1361 C1362 1.363 . S
C1361 H1364 0.929 . S
C1362 C1361 1.363 . S
C1362 C1368 1.428 . S
H1363 C1359 0.930 . S
H1364 C1361 0.929 . S
S1365 N1366 1.613 . S
S1365 N1367 1.610 . S
N1366 S1365 1.613 . S
N1366 C1369 1.350 . S
N1367 S1365 1.610 . S
N1367 C1368 1.351 . S
C1368 C1362 1.428 . S
C1368 N1367 1.351 . S
C1368 C1369 1.434 . S
C1369 C1360 1.429 . S
C1369 N1366 1.350 . S
C1369 C1368 1.434 . S
C1370 C1371 1.369 . S
C1370 C1372 1.419 . S
C1370 H1374 0.930 . S
C1371 C1370 1.369 . S
C1371 C1380 1.429 . S
C1372 C1370 1.419 . S
C1372 C1373 1.363 . S
C1372 H1375 0.929 . S
C1373 C1372 1.363 . S
C1373 C1379 1.428 . S
H1374 C1370 0.930 . S
H1375 C1372 0.929 . S
S1376 N1377 1.613 . S
S1376 N1378 1.610 . S
N1377 S1376 1.613 . S
N1377 C1380 1.350 . S
N1378 S1376 1.610 . S
N1378 C1379 1.351 . S
C1379 C1373 1.428 . S
C1379 N1378 1.351 . S
C1379 C1380 1.434 . S
C1380 C1371 1.429 . S
C1380 N1377 1.350 . S
C1380 C1379 1.434 . S
C1381 C1382 1.369 . S
C1381 C1383 1.419 . S
C1381 H1385 0.930 . S
C1382 C1381 1.369 . S
C1382 C1391 1.429 . S
C1383 C1381 1.419 . S
C1383 C1384 1.363 . S
C1383 H1386 0.929 . S
C1384 C1383 1.363 . S
C1384 C1390 1.428 . S
H1385 C1381 0.930 . S
H1386 C1383 0.929 . S
S1387 N1388 1.613 . S
S1387 N1389 1.610 . S
N1388 S1387 1.613 . S
N1388 C1391 1.350 . S
N1389 S1387 1.610 . S
N1389 C1390 1.351 . S
C1390 C1384 1.428 . S
C1390 N1389 1.351 . S
C1390 C1391 1.434 . S
C1391 C1382 1.429 . S
C1391 N1388 1.350 . S
C1391 C1390 1.434 . S
C1392 C1393 1.369 . S
C1392 C1394 1.419 . S
C1392 H1396 0.930 . S
C1393 C1392 1.369 . S
C1393 C1402 1.429 . S
C1394 C1392 1.419 . S
C1394 C1395 1.363 . S
C1394 H1397 0.929 . S
C1395 C1394 1.363 . S
C1395 C1401 1.428 . S
H1396 C1392 0.930 . S
H1397 C1394 0.929 . S
S1398 N1399 1.613 . S
S1398 N1400 1.610 . S
N1399 S1398 1.613 . S
N1399 C1402 1.350 . S
N1400 S1398 1.610 . S
N1400 C1401 1.351 . S
C1401 C1395 1.428 . S
C1401 N1400 1.351 . S
C1401 C1402 1.434 . S
C1402 C1393 1.429 . S
C1402 N1399 1.350 . S
C1402 C1401 1.434 . S
C1403 C1404 1.369 . S
C1403 C1405 1.419 . S
C1403 H1407 0.930 . S
C1404 C1403 1.369 . S
C1404 C1413 1.429 . S
C1405 C1403 1.419 . S
C1405 C1406 1.363 . S
C1405 H1408 0.929 . S
C1406 C1405 1.363 . S
C1406 C1412 1.428 . S
H1407 C1403 0.930 . S
H1408 C1405 0.929 . S
S1409 N1410 1.613 . S
S1409 N1411 1.610 . S
N1410 S1409 1.613 . S
N1410 C1413 1.350 . S
N1411 S1409 1.610 . S
N1411 C1412 1.351 . S
C1412 C1406 1.428 . S
C1412 N1411 1.351 . S
C1412 C1413 1.434 . S
C1413 C1404 1.429 . S
C1413 N1410 1.350 . S
C1413 C1412 1.434 . S
C1414 C1415 1.369 . S
C1414 C1416 1.419 . S
C1414 H1418 0.930 . S
C1415 C1414 1.369 . S
C1415 C1424 1.429 . S
C1416 C1414 1.419 . S
C1416 C1417 1.363 . S
C1416 H1419 0.929 . S
C1417 C1416 1.363 . S
C1417 C1423 1.428 . S
H1418 C1414 0.930 . S
H1419 C1416 0.929 . S
S1420 N1421 1.613 . S
S1420 N1422 1.610 . S
N1421 S1420 1.613 . S
N1421 C1424 1.350 . S
N1422 S1420 1.610 . S
N1422 C1423 1.351 . S
C1423 C1417 1.428 . S
C1423 N1422 1.351 . S
C1423 C1424 1.434 . S
C1424 C1415 1.429 . S
C1424 N1421 1.350 . S
C1424 C1423 1.434 . S
C1425 C1426 1.369 . S
C1425 C1427 1.419 . S
C1425 H1429 0.930 . S
C1426 C1425 1.369 . S
C1426 C1435 1.429 . S
C1427 C1425 1.419 . S
C1427 C1428 1.363 . S
C1427 H1430 0.929 . S
C1428 C1427 1.363 . S
C1428 C1434 1.428 . S
H1429 C1425 0.930 . S
H1430 C1427 0.929 . S
S1431 N1432 1.613 . S
S1431 N1433 1.610 . S
N1432 S1431 1.613 . S
N1432 C1435 1.350 . S
N1433 S1431 1.610 . S
N1433 C1434 1.351 . S
C1434 C1428 1.428 . S
C1434 N1433 1.351 . S
C1434 C1435 1.434 . S
C1435 C1426 1.429 . S
C1435 N1432 1.350 . S
C1435 C1434 1.434 . S
C1436 C1437 1.369 . S
C1436 C1438 1.419 . S
C1436 H1440 0.930 . S
C1437 C1436 1.369 . S
C1437 C1446 1.429 . S
C1438 C1436 1.419 . S
C1438 C1439 1.363 . S
C1438 H1441 0.929 . S
C1439 C1438 1.363 . S
C1439 C1445 1.428 . S
H1440 C1436 0.930 . S
H1441 C1438 0.929 . S
S1442 N1443 1.613 . S
S1442 N1444 1.610 . S
N1443 S1442 1.613 . S
N1443 C1446 1.350 . S
N1444 S1442 1.610 . S
N1444 C1445 1.351 . S
C1445 C1439 1.428 . S
C1445 N1444 1.351 . S
C1445 C1446 1.434 . S
C1446 C1437 1.429 . S
C1446 N1443 1.350 . S
C1446 C1445 1.434 . S
C1447 C1448 1.369 . S
C1447 C1449 1.419 . S
C1447 H1451 0.930 . S
C1448 C1447 1.369 . S
C1448 C1457 1.429 . S
C1449 C1447 1.419 . S
C1449 C1450 1.363 . S
C1449 H1452 0.929 . S
C1450 C1449 1.363 . S
C1450 C1456 1.428 . S
H1451 C1447 0.930 . S
H1452 C1449 0.929 . S
S1453 N1454 1.613 . S
S1453 N1455 1.610 . S
N1454 S1453 1.613 . S
N1454 C1457 1.350 . S
N1455 S1453 1.610 . S
N1455 C1456 1.351 . S
C1456 C1450 1.428 . S
C1456 N1455 1.351 . S
C1456 C1457 1.434 . S
C1457 C1448 1.429 . S
C1457 N1454 1.350 . S
C1457 C1456 1.434 . S
C667 C53 1.552 . S
C669 C418 1.331 . S
C678 N2 1.359 . S
C680 C434 1.259 . S
C691 C417 1.319 1_655 S
C689 N25 1.333 . S
C702 C442 1.279 . S
C700 N48 1.341 . S
C711 C7 1.601 . S
C713 C451 1.384 . S
C724 C454 1.340 . S
C722 C30 1.498 . S
C733 C122 1.552 . S
C735 C460 1.330 . S
C746 C476 1.256 . S
C744 N71 1.357 . S
C757 C459 1.309 . S
C755 N94 1.321 . S
C766 N117 1.331 . S
C768 C484 1.267 . S
C779 C493 1.379 . S
C777 C76 1.601 . S
C790 C496 1.342 . S
C788 C99 1.507 1_655 S
C801 C505 1.330 . S
C799 C191 1.552 . S
C812 C517 1.260 . S
C810 N140 1.370 . S
C823 C514 1.322 . S
C821 N163 1.331 . S
C832 N186 1.335 . S
C834 C523 1.276 . S
C845 C522 1.390 . S
C843 C145 1.603 . S
C854 C168 1.506 . S
C856 C539 1.337 . S
C867 C544 1.337 . S
C865 C260 1.558 . S
C878 C560 1.261 . S
C876 N209 1.362 . S
C887 N232 1.333 . S
C889 C543 1.315 . S
C900 C568 1.267 . S
C898 N255 1.332 . S
C911 C577 1.379 . S
C909 C214 1.601 . S
C920 C237 1.497 . S
C922 C580 1.335 . S
C931 C329 1.554 . S
C933 C589 1.330 . S
C944 C601 1.248 . S
C942 N278 1.361 . S
C955 C598 1.310 . S
C953 N301 1.328 . S
C964 N324 1.332 . S
C966 C607 1.273 . S
C977 C606 1.383 . S
C975 C283 1.601 . S
C986 C306 1.499 . S
C988 C623 1.341 . S
C999 C628 1.336 . S
C997 C398 1.551 . S
C1010 C644 1.251 . S
C1008 N347 1.356 . S
C1019 N370 1.326 . S
C1021 C627 1.322 . S
C1032 C649 1.279 . S
C1030 N393 1.345 . S
C1043 C648 1.379 . S
C1041 C352 1.603 . S
C1054 C665 1.332 . S
C1052 C375 1.497 . S
C1065 C430 1.893 . S
C1063 N265 1.921 . S
C1074 C223 1.744 1_455 S
C1076 C433 1.718 . S
C1087 C421 1.707 . S
C1085 C246 1.673 . S
C1096 C407 1.677 . S
C1098 C438 1.648 . S
C1107 N357 1.869 . S
C1109 C439 1.767 . S
C1120 C455 1.801 1_565 S
C1118 N380 1.821 . S
C1131 C472 1.896 . S
C1129 N334 1.927 . S
C1142 C475 1.714 . S
C1140 C292 1.746 . S
C1151 C315 1.664 . S
C1153 C463 1.702 . S
C1164 C480 1.654 1_655 S
C1162 C200 1.684 . S
C1173 N150 1.862 . S
C1175 C481 1.762 . S
C1184 N173 1.821 . S
C1186 C497 1.801 . S
C1195 N403 1.922 . S
C1197 C501 1.893 . S
C1206 C361 1.737 . S
C1208 C518 1.711 . S
C1219 C502 1.702 . S
C1217 C384 1.666 . S
C1230 C535 1.656 . S
C1228 C131 1.684 . S
C1241 C526 1.762 . S
C1239 N81 1.866 . S
C1250 N104 1.822 . S
C1252 C538 1.806 . S
C1263 C556 1.897 . S
C1261 N58 1.920 . S
C1274 C559 1.711 . S
C1272 C16 1.738 . S
C1283 C39 1.663 . S
C1285 C547 1.709 . S
C1296 C564 1.649 . S
C1294 C338 1.675 . S
C1307 C565 1.767 . S
C1305 N288 1.866 . S
C1318 C581 1.804 . S
C1316 N311 1.820 . S
C1329 C585 1.895 . S
C1327 N127 1.919 . S
C1340 C602 1.712 . S
C1338 C85 1.737 . S
C1349 C108 1.673 . S
C1351 C586 1.707 . S
C1360 C269 1.684 . S
C1362 C619 1.656 . S
C1371 N219 1.865 . S
C1373 C610 1.766 . S
C1384 C622 1.808 . S
C1382 N242 1.824 . S
C1393 N196 1.924 . S
C1395 C640 1.894 . S
C1404 C154 1.737 . S
C1406 C643 1.711 . S
C1417 C631 1.703 . S
C1415 C177 1.669 . S
C1428 C661 1.657 . S
C1426 C62 1.681 . S
C1439 C652 1.768 . S
C1437 N12 1.867 . S
C1448 N35 1.822 . S
C1450 C664 1.801 . S
