# Generated by pormake.
# Topology iac, (4,6)-cn, num edge types: 1
# Building blocks:
#     Node 0, Type 0, BuildingBlock: CEKHIL_clean_sbu_0, # of connection points: 4
#     Node 1, Type 0, BuildingBlock: CEKHIL_clean_sbu_0, # of connection points: 4
#     Node 2, Type 0, BuildingBlock: CEKHIL_clean_sbu_0, # of connection points: 4
#     Node 3, Type 0, BuildingBlock: CEKHIL_clean_sbu_0, # of connection points: 4
#     Node 4, Type 0, BuildingBlock: CEKHIL_clean_sbu_0, # of connection points: 4
#     Node 5, Type 0, BuildingBlock: CEKHIL_clean_sbu_0, # of connection points: 4
#     Node 6, Type 0, BuildingBlock: CEKHIL_clean_sbu_0, # of connection points: 4
#     Node 7, Type 0, BuildingBlock: CEKHIL_clean_sbu_0, # of connection points: 4
#     Node 8, Type 0, BuildingBlock: CEKHIL_clean_sbu_0, # of connection points: 4
#     Node 9, Type 0, BuildingBlock: CEKHIL_clean_sbu_0, # of connection points: 4
#     Node 10, Type 0, BuildingBlock: CEKHIL_clean_sbu_0, # of connection points: 4
#     Node 11, Type 0, BuildingBlock: CEKHIL_clean_sbu_0, # of connection points: 4
#     Node 12, Type 0, BuildingBlock: CEKHIL_clean_sbu_0, # of connection points: 4
#     Node 13, Type 0, BuildingBlock: CEKHIL_clean_sbu_0, # of connection points: 4
#     Node 14, Type 0, BuildingBlock: CEKHIL_clean_sbu_0, # of connection points: 4
#     Node 15, Type 0, BuildingBlock: CEKHIL_clean_sbu_0, # of connection points: 4
#     Node 16, Type 0, BuildingBlock: CEKHIL_clean_sbu_0, # of connection points: 4
#     Node 17, Type 0, BuildingBlock: CEKHIL_clean_sbu_0, # of connection points: 4
#     Node 18, Type 0, BuildingBlock: CEKHIL_clean_sbu_0, # of connection points: 4
#     Node 19, Type 0, BuildingBlock: CEKHIL_clean_sbu_0, # of connection points: 4
#     Node 20, Type 0, BuildingBlock: CEKHIL_clean_sbu_0, # of connection points: 4
#     Node 21, Type 0, BuildingBlock: CEKHIL_clean_sbu_0, # of connection points: 4
#     Node 22, Type 0, BuildingBlock: CEKHIL_clean_sbu_0, # of connection points: 4
#     Node 23, Type 0, BuildingBlock: CEKHIL_clean_sbu_0, # of connection points: 4
#     Node 24, Type 1, BuildingBlock: VOLQOD_clean_sbu_1, # of connection points: 6
#     Node 25, Type 1, BuildingBlock: VOLQOD_clean_sbu_1, # of connection points: 6
#     Node 26, Type 1, BuildingBlock: VOLQOD_clean_sbu_1, # of connection points: 6
#     Node 27, Type 1, BuildingBlock: VOLQOD_clean_sbu_1, # of connection points: 6
#     Node 28, Type 1, BuildingBlock: VOLQOD_clean_sbu_1, # of connection points: 6
#     Node 29, Type 1, BuildingBlock: VOLQOD_clean_sbu_1, # of connection points: 6
#     Node 30, Type 1, BuildingBlock: VOLQOD_clean_sbu_1, # of connection points: 6
#     Node 31, Type 1, BuildingBlock: VOLQOD_clean_sbu_1, # of connection points: 6
#     Node 32, Type 1, BuildingBlock: VOLQOD_clean_sbu_1, # of connection points: 6
#     Node 33, Type 1, BuildingBlock: VOLQOD_clean_sbu_1, # of connection points: 6
#     Node 34, Type 1, BuildingBlock: VOLQOD_clean_sbu_1, # of connection points: 6
#     Node 35, Type 1, BuildingBlock: VOLQOD_clean_sbu_1, # of connection points: 6
#     Node 36, Type 1, BuildingBlock: VOLQOD_clean_sbu_1, # of connection points: 6
#     Node 37, Type 1, BuildingBlock: VOLQOD_clean_sbu_1, # of connection points: 6
#     Node 38, Type 1, BuildingBlock: VOLQOD_clean_sbu_1, # of connection points: 6
#     Node 39, Type 1, BuildingBlock: VOLQOD_clean_sbu_1, # of connection points: 6
#     Edge 40, Type (0, 1), BuildingBlock: KIFKEQ_clean_linker_1, # of connection points: 2
#     Edge 41, Type (0, 1), BuildingBlock: KIFKEQ_clean_linker_1, # of connection points: 2
#     Edge 42, Type (0, 1), BuildingBlock: KIFKEQ_clean_linker_1, # of connection points: 2
#     Edge 43, Type (0, 1), BuildingBlock: KIFKEQ_clean_linker_1, # of connection points: 2
#     Edge 44, Type (0, 1), BuildingBlock: KIFKEQ_clean_linker_1, # of connection points: 2
#     Edge 45, Type (0, 1), BuildingBlock: KIFKEQ_clean_linker_1, # of connection points: 2
#     Edge 46, Type (0, 1), BuildingBlock: KIFKEQ_clean_linker_1, # of connection points: 2
#     Edge 47, Type (0, 1), BuildingBlock: KIFKEQ_clean_linker_1, # of connection points: 2
#     Edge 48, Type (0, 1), BuildingBlock: KIFKEQ_clean_linker_1, # of connection points: 2
#     Edge 49, Type (0, 1), BuildingBlock: KIFKEQ_clean_linker_1, # of connection points: 2
#     Edge 50, Type (0, 1), BuildingBlock: KIFKEQ_clean_linker_1, # of connection points: 2
#     Edge 51, Type (0, 1), BuildingBlock: KIFKEQ_clean_linker_1, # of connection points: 2
#     Edge 52, Type (0, 1), BuildingBlock: KIFKEQ_clean_linker_1, # of connection points: 2
#     Edge 53, Type (0, 1), BuildingBlock: KIFKEQ_clean_linker_1, # of connection points: 2
#     Edge 54, Type (0, 1), BuildingBlock: KIFKEQ_clean_linker_1, # of connection points: 2
#     Edge 55, Type (0, 1), BuildingBlock: KIFKEQ_clean_linker_1, # of connection points: 2
#     Edge 56, Type (0, 1), BuildingBlock: KIFKEQ_clean_linker_1, # of connection points: 2
#     Edge 57, Type (0, 1), BuildingBlock: KIFKEQ_clean_linker_1, # of connection points: 2
#     Edge 58, Type (0, 1), BuildingBlock: KIFKEQ_clean_linker_1, # of connection points: 2
#     Edge 59, Type (0, 1), BuildingBlock: KIFKEQ_clean_linker_1, # of connection points: 2
#     Edge 60, Type (0, 1), BuildingBlock: KIFKEQ_clean_linker_1, # of connection points: 2
#     Edge 61, Type (0, 1), BuildingBlock: KIFKEQ_clean_linker_1, # of connection points: 2
#     Edge 62, Type (0, 1), BuildingBlock: KIFKEQ_clean_linker_1, # of connection points: 2
#     Edge 63, Type (0, 1), BuildingBlock: KIFKEQ_clean_linker_1, # of connection points: 2
#     Edge 64, Type (0, 1), BuildingBlock: KIFKEQ_clean_linker_1, # of connection points: 2
#     Edge 65, Type (0, 1), BuildingBlock: KIFKEQ_clean_linker_1, # of connection points: 2
#     Edge 66, Type (0, 1), BuildingBlock: KIFKEQ_clean_linker_1, # of connection points: 2
#     Edge 67, Type (0, 1), BuildingBlock: KIFKEQ_clean_linker_1, # of connection points: 2
#     Edge 68, Type (0, 1), BuildingBlock: KIFKEQ_clean_linker_1, # of connection points: 2
#     Edge 69, Type (0, 1), BuildingBlock: KIFKEQ_clean_linker_1, # of connection points: 2
#     Edge 70, Type (0, 1), BuildingBlock: KIFKEQ_clean_linker_1, # of connection points: 2
#     Edge 71, Type (0, 1), BuildingBlock: KIFKEQ_clean_linker_1, # of connection points: 2
#     Edge 72, Type (0, 1), BuildingBlock: KIFKEQ_clean_linker_1, # of connection points: 2
#     Edge 73, Type (0, 1), BuildingBlock: KIFKEQ_clean_linker_1, # of connection points: 2
#     Edge 74, Type (0, 1), BuildingBlock: KIFKEQ_clean_linker_1, # of connection points: 2
#     Edge 75, Type (0, 1), BuildingBlock: KIFKEQ_clean_linker_1, # of connection points: 2
#     Edge 76, Type (0, 1), BuildingBlock: KIFKEQ_clean_linker_1, # of connection points: 2
#     Edge 77, Type (0, 1), BuildingBlock: KIFKEQ_clean_linker_1, # of connection points: 2
#     Edge 78, Type (0, 1), BuildingBlock: KIFKEQ_clean_linker_1, # of connection points: 2
#     Edge 79, Type (0, 1), BuildingBlock: KIFKEQ_clean_linker_1, # of connection points: 2
#     Edge 80, Type (0, 1), BuildingBlock: KIFKEQ_clean_linker_1, # of connection points: 2
#     Edge 81, Type (0, 1), BuildingBlock: KIFKEQ_clean_linker_1, # of connection points: 2
#     Edge 82, Type (0, 1), BuildingBlock: KIFKEQ_clean_linker_1, # of connection points: 2
#     Edge 83, Type (0, 1), BuildingBlock: KIFKEQ_clean_linker_1, # of connection points: 2
#     Edge 84, Type (0, 1), BuildingBlock: KIFKEQ_clean_linker_1, # of connection points: 2
#     Edge 85, Type (0, 1), BuildingBlock: KIFKEQ_clean_linker_1, # of connection points: 2
#     Edge 86, Type (0, 1), BuildingBlock: KIFKEQ_clean_linker_1, # of connection points: 2
#     Edge 87, Type (0, 1), BuildingBlock: KIFKEQ_clean_linker_1, # of connection points: 2
#     Edge 88, Type (0, 1), BuildingBlock: KIFKEQ_clean_linker_1, # of connection points: 2
#     Edge 89, Type (0, 1), BuildingBlock: KIFKEQ_clean_linker_1, # of connection points: 2
#     Edge 90, Type (0, 1), BuildingBlock: KIFKEQ_clean_linker_1, # of connection points: 2
#     Edge 91, Type (0, 1), BuildingBlock: KIFKEQ_clean_linker_1, # of connection points: 2
#     Edge 92, Type (0, 1), BuildingBlock: KIFKEQ_clean_linker_1, # of connection points: 2
#     Edge 93, Type (0, 1), BuildingBlock: KIFKEQ_clean_linker_1, # of connection points: 2
#     Edge 94, Type (0, 1), BuildingBlock: KIFKEQ_clean_linker_1, # of connection points: 2
#     Edge 95, Type (0, 1), BuildingBlock: KIFKEQ_clean_linker_1, # of connection points: 2
#     Edge 96, Type (0, 1), BuildingBlock: KIFKEQ_clean_linker_1, # of connection points: 2
#     Edge 97, Type (0, 1), BuildingBlock: KIFKEQ_clean_linker_1, # of connection points: 2
#     Edge 98, Type (0, 1), BuildingBlock: KIFKEQ_clean_linker_1, # of connection points: 2
#     Edge 99, Type (0, 1), BuildingBlock: KIFKEQ_clean_linker_1, # of connection points: 2
#     Edge 100, Type (0, 1), BuildingBlock: KIFKEQ_clean_linker_1, # of connection points: 2
#     Edge 101, Type (0, 1), BuildingBlock: KIFKEQ_clean_linker_1, # of connection points: 2
#     Edge 102, Type (0, 1), BuildingBlock: KIFKEQ_clean_linker_1, # of connection points: 2
#     Edge 103, Type (0, 1), BuildingBlock: KIFKEQ_clean_linker_1, # of connection points: 2
#     Edge 104, Type (0, 1), BuildingBlock: KIFKEQ_clean_linker_1, # of connection points: 2
#     Edge 105, Type (0, 1), BuildingBlock: KIFKEQ_clean_linker_1, # of connection points: 2
#     Edge 106, Type (0, 1), BuildingBlock: KIFKEQ_clean_linker_1, # of connection points: 2
#     Edge 107, Type (0, 1), BuildingBlock: KIFKEQ_clean_linker_1, # of connection points: 2
#     Edge 108, Type (0, 1), BuildingBlock: KIFKEQ_clean_linker_1, # of connection points: 2
#     Edge 109, Type (0, 1), BuildingBlock: KIFKEQ_clean_linker_1, # of connection points: 2
#     Edge 110, Type (0, 1), BuildingBlock: KIFKEQ_clean_linker_1, # of connection points: 2
#     Edge 111, Type (0, 1), BuildingBlock: KIFKEQ_clean_linker_1, # of connection points: 2
#     Edge 112, Type (0, 1), BuildingBlock: KIFKEQ_clean_linker_1, # of connection points: 2
#     Edge 113, Type (0, 1), BuildingBlock: KIFKEQ_clean_linker_1, # of connection points: 2
#     Edge 114, Type (0, 1), BuildingBlock: KIFKEQ_clean_linker_1, # of connection points: 2
#     Edge 115, Type (0, 1), BuildingBlock: KIFKEQ_clean_linker_1, # of connection points: 2
#     Edge 116, Type (0, 1), BuildingBlock: KIFKEQ_clean_linker_1, # of connection points: 2
#     Edge 117, Type (0, 1), BuildingBlock: KIFKEQ_clean_linker_1, # of connection points: 2
#     Edge 118, Type (0, 1), BuildingBlock: KIFKEQ_clean_linker_1, # of connection points: 2
#     Edge 119, Type (0, 1), BuildingBlock: KIFKEQ_clean_linker_1, # of connection points: 2
#     Edge 120, Type (0, 1), BuildingBlock: KIFKEQ_clean_linker_1, # of connection points: 2
#     Edge 121, Type (0, 1), BuildingBlock: KIFKEQ_clean_linker_1, # of connection points: 2
#     Edge 122, Type (0, 1), BuildingBlock: KIFKEQ_clean_linker_1, # of connection points: 2
#     Edge 123, Type (0, 1), BuildingBlock: KIFKEQ_clean_linker_1, # of connection points: 2
#     Edge 124, Type (0, 1), BuildingBlock: KIFKEQ_clean_linker_1, # of connection points: 2
#     Edge 125, Type (0, 1), BuildingBlock: KIFKEQ_clean_linker_1, # of connection points: 2
#     Edge 126, Type (0, 1), BuildingBlock: KIFKEQ_clean_linker_1, # of connection points: 2
#     Edge 127, Type (0, 1), BuildingBlock: KIFKEQ_clean_linker_1, # of connection points: 2
#     Edge 128, Type (0, 1), BuildingBlock: KIFKEQ_clean_linker_1, # of connection points: 2
#     Edge 129, Type (0, 1), BuildingBlock: KIFKEQ_clean_linker_1, # of connection points: 2
#     Edge 130, Type (0, 1), BuildingBlock: KIFKEQ_clean_linker_1, # of connection points: 2
#     Edge 131, Type (0, 1), BuildingBlock: KIFKEQ_clean_linker_1, # of connection points: 2
#     Edge 132, Type (0, 1), BuildingBlock: KIFKEQ_clean_linker_1, # of connection points: 2
#     Edge 133, Type (0, 1), BuildingBlock: KIFKEQ_clean_linker_1, # of connection points: 2
#     Edge 134, Type (0, 1), BuildingBlock: KIFKEQ_clean_linker_1, # of connection points: 2
#     Edge 135, Type (0, 1), BuildingBlock: KIFKEQ_clean_linker_1, # of connection points: 2
# Relax obj value: 0.303
# Max RMSD: 0.289
# Mean RMSD: 0.141
data_MOF--net-iac--node1-CEKHIL_clean_sbu_0--node2-VOLQOD_clean_sbu_1--edge1-KIFKEQ_clean_linker_1
_symmetry_space_group_name_H-M    P1
_symmetry_Int_Tables_number       1
_symmetry_cell_setting            triclinic
loop_
_symmetry_equiv_pos_as_xyz
'x, y, z'
_cell_length_a     56.144351
_cell_length_b     55.492693
_cell_length_c     54.767006
_cell_angle_alpha  90.036901
_cell_angle_beta   90.273484
_cell_angle_gamma 90.595778
loop_
_atom_site_label
_atom_site_type_symbol
_atom_site_fract_x
_atom_site_fract_y
_atom_site_fract_z
_atom_type_partial_charge
Co0 Co 7e-05 0.26875 0.12591 0.0
O1 O 0.96602 0.26638 0.12673 0.0
O2 O 0.99034 0.25249 0.15539 0.0
C3 C 0.00328 0.3074 0.11436 0.0
O4 O 0.03587 0.26877 0.13154 0.0
Co5 Co 0.02588 0.27752 0.07671 0.0
O6 O 0.05355 0.28459 0.09835 0.0
C7 C 0.00449 0.23011 0.0866 0.0
C8 C 0.9687 0.25487 0.1472 0.0
C9 C 0.05421 0.27749 0.12047 0.0
O10 O 0.00099 0.2368 0.10871 0.0
O11 O 0.01287 0.24422 0.07019 0.0
O12 O -0.00066 0.30209 0.13713 0.0
O13 O 0.00211 0.28953 0.0992 0.0
Co14 Co 0.00925 0.76307 0.38112 0.0
O15 O 0.04255 0.75633 0.37663 0.0
O16 O 0.01382 0.7481 0.34986 0.0
C17 C 0.01354 0.80063 0.39578 0.0
O18 O 0.9737 0.768 0.37785 0.0
Co19 Co 0.98611 0.77349 0.43113 0.0
O20 O 0.95667 0.78099 0.41236 0.0
C21 C 0.00494 0.72534 0.42003 0.0
C22 C 0.03625 0.7472 0.35564 0.0
C23 C 0.95574 0.77601 0.38968 0.0
O24 O 0.00519 0.73066 0.39717 0.0
O25 O 0.0 0.74074 0.43663 0.0
O26 O 0.01406 0.797 0.3723 0.0
O27 O 0.01225 0.78166 0.4093 0.0
Co28 Co 0.49718 0.76704 0.62171 0.0
O29 O 0.46458 0.75689 0.61997 0.0
O30 O 0.48801 0.75275 0.65252 0.0
C31 C 0.49337 0.8035 0.60511 0.0
O32 O 0.53152 0.77612 0.62939 0.0
Co33 Co 0.52387 0.77403 0.57266 0.0
O34 O 0.55054 0.78495 0.59422 0.0
C35 C 0.5041 0.7276 0.58723 0.0
C36 C 0.4674 0.74905 0.64209 0.0
C37 C 0.54991 0.7836 0.61748 0.0
O38 O 0.50664 0.73476 0.60927 0.0
O39 O 0.50737 0.74164 0.56901 0.0
O40 O 0.48829 0.80018 0.62803 0.0
O41 O 0.49719 0.78418 0.59257 0.0
Co42 Co 0.51275 0.26011 0.8888 0.0
O43 O 0.54711 0.26008 0.88541 0.0
O44 O 0.52111 0.24551 0.85846 0.0
C45 C 0.50824 0.2981 0.90209 0.0
O46 O 0.47715 0.25751 0.88366 0.0
Co47 Co 0.4852 0.26634 0.93708 0.0
O48 O 0.45595 0.26794 0.91648 0.0
C49 C 0.51406 0.22318 0.92887 0.0
C50 C 0.54314 0.24929 0.86459 0.0
C51 C 0.45729 0.26222 0.89402 0.0
O52 O 0.5145 0.228 0.90589 0.0
O53 O 0.50507 0.23743 0.94464 0.0
O54 O 0.51143 0.29404 0.87892 0.0
O55 O 0.51018 0.2797 0.91634 0.0
Co56 Co 0.12716 0.01234 0.271 0.0
O57 O 0.1217 0.97827 0.26721 0.0
O58 O 0.15514 -0.00242 0.25756 0.0
C59 C 0.11235 0.01596 0.30875 0.0
O60 O 0.14007 0.04666 0.27327 0.0
Co61 Co 0.08584 0.04871 0.27815 0.0
O62 O 0.11179 0.07138 0.28737 0.0
C63 C 0.09271 0.02456 0.23071 0.0
C64 C 0.14319 0.97743 0.25855 0.0
C65 C 0.13334 0.06707 0.28187 0.0
O66 O 0.11347 0.01742 0.23738 0.0
O67 O 0.07847 0.0357 0.24488 0.0
O68 O 0.13397 0.00829 0.30578 0.0
O69 O 0.10001 0.01888 0.28909 0.0
Co70 Co 0.27622 0.8891 0.49493 0.0
O71 O 0.24411 0.88153 0.50467 0.0
O72 O 0.26115 0.91766 0.50723 0.0
C73 C 0.27401 0.86882 0.45949 0.0
O74 O 0.30805 0.90453 0.48564 0.0
Co75 Co 0.3146 0.85042 0.4866 0.0
O76 O 0.33375 0.87685 0.47223 0.0
C77 C 0.29641 0.86048 0.53611 0.0
C78 C 0.24242 0.90411 0.5106 0.0
C79 C 0.32791 0.89868 0.4757 0.0
O80 O 0.28756 0.88042 0.52859 0.0
O81 O 0.30634 0.84533 0.52184 0.0
O82 O 0.26597 0.89069 0.4609 0.0
O83 O 0.28205 0.85975 0.47953 0.0
Co84 Co 0.36308 0.99118 0.76863 0.0
O85 O 0.3658 0.02572 0.76685 0.0
O86 O 0.33269 0.00485 0.75959 0.0
C87 C 0.38333 0.98684 0.80391 0.0
O88 O 0.35298 0.95569 0.76988 0.0
Co89 Co 0.40769 0.9582 0.76796 0.0
O90 O 0.38488 0.93302 0.77864 0.0
C91 C 0.39272 0.98414 0.72343 0.0
C92 C 0.34348 0.0257 0.76051 0.0
C93 C 0.36248 0.93551 0.77605 0.0
O94 O 0.37259 0.98936 0.73317 0.0
O95 O 0.40942 0.9734 0.73494 0.0
O96 O 0.36088 0.99253 0.80438 0.0
O97 O 0.39282 0.98593 0.78261 0.0
Co98 Co 0.23933 0.12352 0.98499 0.0
O99 O 0.27275 0.13011 0.98179 0.0
O100 O 0.25709 0.09687 -0.0021 0.0
C101 C 0.22813 0.13487 0.94752 0.0
O102 O 0.20592 0.11012 0.99013 0.0
Co103 Co 0.20323 0.16554 0.98255 0.0
O104 O 0.17991 0.1387 0.97903 0.0
C105 C 0.2353 0.16112 0.02473 0.0
C106 C 0.276 0.1094 0.99225 0.0
C107 C 0.18472 0.11701 0.9847 0.0
O108 O 0.24014 0.13955 0.01798 0.0
O109 O 0.22239 0.17529 0.01199 0.0
O110 O 0.23712 0.11361 0.95083 0.0
O111 O 0.22893 0.14918 0.9661 0.0
Co112 Co 0.77168 0.37745 -0.00324 0.0
O113 O 0.73803 0.37202 0.00152 0.0
O114 O 0.75811 0.40475 0.01302 0.0
C115 C 0.77265 0.36457 0.95789 0.0
O116 O 0.80551 0.39063 0.99423 0.0
Co117 Co 0.80738 0.33687 0.98501 0.0
O118 O 0.83055 0.36331 0.97891 0.0
C119 C 0.78505 0.3399 0.03362 0.0
C120 C 0.73795 0.39309 0.01193 0.0
C121 C 0.82599 0.38465 0.98589 0.0
O122 O 0.77815 0.36145 0.029 0.0
O123 O 0.79531 0.32656 0.01783 0.0
O124 O 0.76593 0.38644 0.96272 0.0
O125 O 0.777 0.35108 0.97651 0.0
Co126 Co 0.86978 0.48576 0.2739 0.0
O127 O 0.8697 0.51997 0.27966 0.0
O128 O 0.84107 0.49956 0.26053 0.0
C129 C 0.88191 0.47406 0.31102 0.0
O130 O 0.86303 0.45041 0.26598 0.0
Co131 Co 0.91709 0.45704 0.27609 0.0
O132 O 0.89545 0.42856 0.27517 0.0
C133 C 0.90971 0.4947 0.23962 0.0
C134 C 0.84948 0.52022 0.26801 0.0
C135 C 0.87345 0.43009 0.26954 0.0
O136 O 0.88709 0.49195 0.24226 0.0
O137 O 0.92491 0.48418 0.25329 0.0
O138 O 0.85959 0.47931 0.30755 0.0
O139 O 0.89598 0.47874 0.29311 0.0
Co140 Co 0.74044 0.63705 0.49927 0.0
O141 O 0.77463 0.63815 0.49948 0.0
O142 O 0.75263 0.60856 0.51509 0.0
C143 C 0.73532 0.64774 0.46019 0.0
O144 O 0.70492 0.62936 0.50141 0.0
Co145 Co 0.71119 0.68344 0.48975 0.0
O146 O 0.6839 0.66063 0.48694 0.0
C147 C 0.73754 0.67756 0.53599 0.0
C148 C 0.77366 0.61763 0.5108 0.0
C149 C 0.68521 0.63893 0.4944 0.0
O150 O 0.74054 0.6551 0.53118 0.0
O151 O 0.72803 0.69226 0.5209 0.0
O152 O 0.73987 0.62543 0.46558 0.0
O153 O 0.73634 0.66284 0.47808 0.0
Co154 Co 0.63096 0.5081 0.77521 0.0
O155 O 0.62963 0.47398 0.76959 0.0
O156 O 0.65902 0.49833 0.75769 0.0
C157 C 0.62002 0.50733 0.81457 0.0
O158 O 0.63911 0.54377 0.77822 0.0
Co159 Co 0.58617 0.53732 0.78926 0.0
O160 O 0.60983 0.56277 0.79804 0.0
C161 C 0.5908 0.51678 0.73975 0.0
C162 C 0.64976 0.47678 0.75827 0.0
C163 C 0.63088 0.56224 0.78947 0.0
O164 O 0.61302 0.51279 0.74368 0.0
O165 O 0.57678 0.52487 0.75614 0.0
O166 O 0.64215 0.50356 0.80883 0.0
O167 O 0.60534 0.50937 0.79657 0.0
Co168 Co 0.01043 0.76184 0.86924 0.0
O169 O 0.04205 0.749 0.87055 0.0
O170 O 0.01681 0.74469 0.83949 0.0
C171 C 0.02145 0.79853 0.88236 0.0
O172 O 0.97714 0.77247 0.86038 0.0
Co173 Co 0.9836 0.78318 0.91356 0.0
O174 O 0.95939 0.79391 0.88964 0.0
C175 C 0.98457 0.73005 0.90526 0.0
C176 C 0.03799 0.74139 0.84846 0.0
C177 C 0.9596 0.78485 0.86829 0.0
O178 O 0.99685 0.73234 0.88557 0.0
O179 O 0.97874 0.74775 0.91894 0.0
O180 O 0.02334 0.79312 0.8594 0.0
O181 O 0.01371 0.78179 0.89665 0.0
Co182 Co 0.99045 0.26283 0.64135 0.0
O183 O 0.95868 0.25054 0.63859 0.0
O184 O 0.98228 0.24533 0.67071 0.0
C185 C 0.98091 0.29999 0.62889 0.0
O186 O 0.02403 0.27325 0.65073 0.0
Co187 Co 0.01745 0.28199 0.59612 0.0
O188 O 0.04138 0.29363 0.62009 0.0
C189 C 0.0149 0.22954 0.60564 0.0
C190 C 0.96138 0.24251 0.66064 0.0
C191 C 0.04152 0.28551 0.64183 0.0
O192 O 0.0032 0.23322 0.62539 0.0
O193 O 0.02132 0.24636 0.59101 0.0
O194 O 0.97829 0.29381 0.65155 0.0
O195 O 0.98797 0.28327 0.61421 0.0
Co196 Co 0.51498 0.28699 0.37398 0.0
O197 O 0.54878 0.28409 0.37844 0.0
O198 O 0.52746 0.26595 0.3494 0.0
C199 C 0.51436 0.32713 0.37775 0.0
O200 O 0.48052 0.28558 0.36305 0.0
Co201 Co 0.48263 0.30745 0.41486 0.0
O202 O 0.45611 0.29934 0.39226 0.0
C203 C 0.49926 0.25731 0.41784 0.0
C204 C 0.54818 0.27042 0.35918 0.0
C205 C 0.45968 0.28965 0.37153 0.0
O206 O 0.50883 0.25916 0.3966 0.0
O207 O 0.48983 0.27504 0.42906 0.0
O208 O 0.51993 0.31754 0.35696 0.0
O209 O 0.51116 0.31254 0.39578 0.0
Co210 Co 0.48911 0.76443 0.14395 0.0
O211 O 0.45622 0.75524 0.14187 0.0
O212 O 0.47908 0.74996 0.17446 0.0
C213 C 0.48218 0.80121 0.12842 0.0
O214 O 0.5236 0.7716 0.15309 0.0
Co215 Co 0.51865 0.77938 0.09915 0.0
O216 O 0.5437 0.78937 0.12264 0.0
C217 C 0.51212 0.72747 0.11153 0.0
C218 C 0.45801 0.74863 0.16448 0.0
C219 C 0.54259 0.78142 0.14438 0.0
O220 O 0.49921 0.73262 0.13013 0.0
O221 O 0.52055 0.74331 0.09681 0.0
O222 O 0.47994 0.79727 0.15163 0.0
O223 O 0.48833 0.78303 0.11521 0.0
Co224 Co 0.88385 0.02983 0.76243 0.0
O225 O 0.88678 0.06277 0.75206 0.0
O226 O 0.86177 0.03578 0.73622 0.0
C227 C 0.88255 0.03824 0.80242 0.0
O228 O 0.87469 0.99508 0.76836 0.0
Co229 Co 0.92124 0.00493 0.79591 0.0
O230 O 0.8998 0.97634 0.79395 0.0
C231 C 0.92949 0.00855 0.74259 0.0
C232 C 0.86907 0.05805 0.73738 0.0
C233 C 0.88148 0.97639 0.78015 0.0
O234 O 0.90929 0.01893 0.73923 0.0
O235 O 0.93787 0.0034 0.76371 0.0
O236 O 0.8634 0.03983 0.78924 0.0
O237 O 0.90196 0.03322 0.79107 0.0
Co238 Co 0.77058 0.12029 0.49624 0.0
O239 O 0.80394 0.12816 0.4948 0.0
O240 O 0.78714 0.105 0.52293 0.0
C241 C 0.76734 0.11121 0.45637 0.0
O242 O 0.7373 0.10744 0.50353 0.0
Co243 Co 0.73288 0.14839 0.466 0.0
O244 O 0.71052 0.12318 0.47766 0.0
C245 C 0.75162 0.1689 0.51228 0.0
C246 C 0.80647 0.11414 0.51358 0.0
C247 C 0.71594 0.10913 0.49518 0.0
O248 O 0.76402 0.14987 0.51634 0.0
O249 O 0.7394 0.17222 0.49279 0.0
O250 O 0.77535 0.09526 0.47157 0.0
O251 O 0.76309 0.13221 0.46529 0.0
Co252 Co 0.61556 0.9838 0.27699 0.0
O253 O 0.60926 0.95021 0.28355 0.0
O254 O 0.6341 0.96431 0.25545 0.0
C255 C 0.61998 0.99483 0.3162 0.0
O256 O 0.628 0.01608 0.26538 0.0
Co257 Co 0.5833 0.02514 0.29556 0.0
O258 O 0.60809 0.04691 0.28179 0.0
C259 C 0.56966 -0.00203 0.2511 0.0
C260 C 0.62519 0.94591 0.26699 0.0
C261 C 0.62455 0.03871 0.26827 0.0
O262 O 0.58898 0.98566 0.25226 0.0
O263 O 0.56339 0.01291 0.26764 0.0
O264 O 0.63748 0.98471 0.30484 0.0
O265 O 0.6001 -0.00385 0.30438 0.0
Co266 Co 0.72737 0.86786 0.01118 0.0
O267 O 0.6963 0.85686 0.02086 0.0
O268 O 0.71513 0.88879 0.0361 0.0
C269 C 0.71894 0.8647 0.97112 0.0
O270 O 0.75855 0.88565 0.00584 0.0
Co271 Co 0.76175 0.83761 0.98016 0.0
O272 O 0.78242 0.86676 0.97957 0.0
C273 C 0.75868 0.82952 0.0336 0.0
C274 C 0.69571 0.87587 0.03468 0.0
C275 C 0.77797 0.88437 0.9937 0.0
O276 O 0.74353 0.84667 0.03581 0.0
O277 O 0.76666 0.82234 0.013 0.0
O278 O 0.71312 0.88393 0.9831 0.0
O279 O 0.72913 0.84793 0.98358 0.0
Co280 Co 0.27853 0.63165 0.99163 0.0
O281 O 0.3125 0.63525 0.993 0.0
O282 O 0.29164 0.60883 0.01463 0.0
C283 C 0.27735 0.63222 0.9506 0.0
O284 O 0.24353 0.62228 0.99477 0.0
Co285 Co 0.24675 0.67039 0.96735 0.0
O286 O 0.22032 0.64711 0.97301 0.0
C287 C 0.2661 0.67834 0.01708 0.0
C288 C 0.31237 0.6174 0.00827 0.0
C289 C 0.223 0.62886 0.98682 0.0
O290 O 0.27445 0.6568 0.01765 0.0
O291 O 0.25651 0.68763 -0.00193 0.0
O292 O 0.28144 0.61217 0.96201 0.0
O293 O 0.27488 0.65102 0.96414 0.0
Co294 Co 0.12587 0.49368 0.77706 0.0
O295 O 0.12466 0.45999 0.78521 0.0
O296 O 0.15102 0.47715 0.76045 0.0
C297 C 0.12185 0.5068 0.81565 0.0
O298 O 0.13358 0.52724 0.76493 0.0
Co299 Co 0.08305 0.52737 0.78709 0.0
O300 O 0.10284 0.55229 0.77056 0.0
C301 C 0.08241 0.49601 0.74379 0.0
C302 C 0.1436 0.45799 0.77187 0.0
C303 C 0.1235 0.54774 0.76231 0.0
O304 O 0.10387 0.48925 0.74822 0.0
O305 O 0.07016 0.50865 0.75859 0.0
O306 O 0.14252 0.50013 0.80777 0.0
O307 O 0.10416 0.50361 0.80083 0.0
Co308 Co 0.23268 0.36799 0.49627 0.0
O309 O 0.19908 0.36214 0.50102 0.0
O310 O 0.21991 0.39195 0.51791 0.0
C311 C 0.23077 0.36373 0.45539 0.0
O312 O 0.2666 0.3808 0.49585 0.0
Co313 Co 0.26693 0.33152 0.4724 0.0
O314 O 0.29162 0.35724 0.47516 0.0
C315 C 0.25413 0.32665 0.5248 0.0
C316 C 0.19931 0.38169 0.51409 0.0
C317 C 0.28742 0.37606 0.48767 0.0
O318 O 0.24161 0.34604 0.52414 0.0
O319 O 0.26375 0.31736 0.50589 0.0
O320 O 0.22566 0.38423 0.4654 0.0
O321 O 0.23609 0.34647 0.47013 0.0
Co322 Co 0.38269 0.52075 0.27114 0.0
O323 O 0.38794 0.55474 0.26612 0.0
O324 O 0.36283 0.5317 0.24493 0.0
C325 C 0.37946 0.52295 0.31187 0.0
O326 O 0.37122 0.48623 0.27073 0.0
Co327 Co 0.41595 0.48798 0.30194 0.0
O328 O 0.39211 0.46209 0.29543 0.0
C329 C 0.42797 0.49943 0.25052 0.0
C330 C 0.37111 0.55312 0.24975 0.0
C331 C 0.37536 0.46553 0.2801 0.0
O332 O 0.4088 0.51178 0.24794 0.0
O333 O 0.43457 0.49018 0.27084 0.0
O334 O 0.36137 0.52825 0.29814 0.0
O335 O 0.39913 0.51822 0.30085 0.0
O336 O 0.98211 0.05313 0.01871 0.0
Zn337 Zn 0.98762 0.02375 -0.001 0.0
O338 O 0.98119 0.99596 0.01894 0.0
Zn339 Zn 0.01005 0.97767 0.024 0.0
Zn340 Zn 0.96569 0.00444 0.04938 0.0
Zn341 Zn 0.95981 0.97625 0.00077 0.0
O342 O 0.01014 0.94669 0.0046 0.0
O343 O 0.97757 0.95171 0.98203 0.0
O344 O 0.02168 0.02474 0.98828 0.0
O345 O 0.03808 -0.00354 0.01142 0.0
O346 O 0.01596 0.97266 0.05967 0.0
O347 O 0.98611 0.99228 0.07711 0.0
O348 O 0.93235 0.98897 0.05107 0.0
O349 O 0.96534 0.02635 0.97051 0.0
O350 O 0.93677 0.96051 0.02284 0.0
O351 O 0.94094 0.99539 0.97678 0.0
C352 C 0.97266 0.05774 0.03922 0.0
C353 C 0.99682 0.94076 0.98664 0.0
C354 C 0.0053 0.98022 0.07863 0.0
C355 C 0.03992 0.01369 -0.00378 0.0
C356 C 0.92533 0.96961 0.0405 0.0
C357 C 0.94642 0.01457 0.96537 0.0
O358 O 0.96475 0.04102 0.0531 0.0
O359 O 0.22061 0.72802 0.19482 0.0
Zn360 Zn 0.22124 0.72247 0.23091 0.0
O361 O 0.23458 0.75088 0.24713 0.0
Zn362 Zn 0.25997 0.74065 0.26887 0.0
Zn363 Zn 0.2467 0.77465 0.22363 0.0
Zn364 Zn 0.21031 0.76558 0.26637 0.0
O365 O 0.25664 0.754 0.30269 0.0
O366 O 0.2213 0.77135 0.30067 0.0
O367 O 0.24299 0.69426 0.23598 0.0
O368 O 0.26372 0.70482 0.26897 0.0
O369 O 0.29124 0.75206 0.25607 0.0
O370 O 0.28273 0.77659 0.22535 0.0
O371 O 0.23129 0.80759 0.2277 0.0
O372 O 0.18793 0.7139 0.24294 0.0
O373 O 0.20238 0.79788 0.25347 0.0
O374 O 0.18081 0.74562 0.26662 0.0
C375 C 0.22906 0.7444 0.18095 0.0
C376 C 0.24011 0.76614 0.31248 0.0
C377 C 0.29786 0.7659 0.23888 0.0
C378 C 0.25813 0.68944 0.25261 0.0
C379 C 0.21255 0.81305 0.2395 0.0
C380 C 0.17431 0.7258 0.25693 0.0
O381 O 0.2395 0.76303 0.18962 0.0
O382 O 0.51448 0.97693 0.52063 0.0
Zn383 Zn 0.51207 0.00764 0.50179 0.0
O384 O 0.5126 0.03494 0.52406 0.0
Zn385 Zn 0.48166 0.05081 0.52403 0.0
Zn386 Zn 0.52241 0.02475 0.55651 0.0
Zn387 Zn 0.53636 0.05748 0.51359 0.0
O388 O 0.48341 0.08443 0.5089 0.0
O389 O 0.52171 0.08614 0.49925 0.0
O390 O 0.4807 0.00506 0.48386 0.0
O391 O 0.45836 0.03124 0.5039 0.0
O392 O 0.46872 0.05173 0.55838 0.0
O393 O 0.49798 0.0359 0.58062 0.0
O394 O 0.55576 0.03678 0.5654 0.0
O395 O 0.53976 0.00873 0.47858 0.0
O396 O 0.55759 0.06822 0.5406 0.0
O397 O 0.55753 0.04335 0.48822 0.0
C398 C 0.5186 0.97205 0.54293 0.0
C399 C 0.50106 0.09518 0.49894 0.0
C400 C 0.47738 0.0453 0.57892 0.0
C401 C 0.46055 0.0145 0.48815 0.0
C402 C 0.5659 0.05616 0.55832 0.0
C403 C 0.55666 0.02397 0.47585 0.0
O404 O 0.52227 0.98864 0.55861 0.0
O405 O 0.23975 0.23763 0.79995 0.0
Zn406 Zn 0.25896 0.26032 0.7797 0.0
O407 O 0.25928 0.24956 0.74609 0.0
Zn408 Zn 0.29058 0.23927 0.73553 0.0
Zn409 Zn 0.23589 0.2235 0.74109 0.0
Zn410 Zn 0.2512 0.2777 0.72772 0.0
O411 O 0.29963 0.25395 0.70254 0.0
O412 O 0.27225 0.28237 0.69959 0.0
O413 O 0.29243 0.26112 0.79261 0.0
O414 O 0.31469 0.24724 0.76217 0.0
O415 O 0.29002 0.20343 0.73082 0.0
O416 O 0.25168 0.19305 0.72864 0.0
O417 O 0.20813 0.23521 0.72045 0.0
O418 O 0.24431 0.29322 0.78365 0.0
O419 O 0.21836 0.27361 0.71479 0.0
O420 O 0.25095 0.30817 0.74686 0.0
C421 C 0.22573 0.2201 0.7951 0.0
C422 C 0.29035 0.27168 0.69133 0.0
C423 C 0.27369 0.18764 0.72743 0.0
C424 C 0.31262 0.25546 0.78386 0.0
C425 C 0.2035 0.2563 0.71251 0.0
C426 C 0.24471 0.31091 0.7689 0.0
O427 O 0.2222 0.21299 0.77329 0.0
O428 O 0.01969 0.02177 0.47529 0.0
Zn429 Zn 0.00256 0.00469 0.50249 0.0
O430 O 0.02274 0.00283 0.53171 0.0
Zn431 Zn 0.02903 0.96919 0.54049 0.0
Zn432 Zn 0.05258 0.02011 0.52596 0.0
Zn433 Zn 0.0069 0.01827 0.55858 0.0
O434 O 0.01578 0.96016 0.57373 0.0
O435 O 0.00332 0.99599 0.58632 0.0
O436 O 0.99613 0.97143 0.48891 0.0
O437 O 0.01474 0.94722 0.51501 0.0
O438 O 0.06454 0.96331 0.5416 0.0
O439 O 0.08046 -0.00077 0.53352 0.0
O440 O 0.0551 0.05089 0.54511 0.0
O441 O 0.97153 0.02177 0.50941 0.0
O442 O 0.02445 0.04747 0.5703 0.0
O443 O 0.97441 0.02946 0.5491 0.0
C444 C 0.04099 0.02953 0.47309 0.0
C445 C 0.00685 0.97373 0.58994 0.0
C446 C 0.08268 0.97703 0.53882 0.0
C447 C 0.00241 0.95048 0.49571 0.0
C448 C 0.04276 0.05878 0.56274 0.0
C449 C 0.96289 0.03028 0.52908 0.0
O450 O 0.05553 0.02918 0.49094 0.0
O451 O 0.30756 0.72244 0.73023 0.0
Zn452 Zn 0.28003 0.72978 0.75172 0.0
O453 O 0.25096 0.72695 0.73293 0.0
Zn454 Zn 0.23369 0.75708 0.73176 0.0
Zn455 Zn 0.25684 0.71462 0.70017 0.0
Zn456 Zn 0.23098 0.70497 0.74987 0.0
O457 O 0.19979 0.7531 0.74442 0.0
O458 O 0.20593 0.72161 0.76861 0.0
O459 O 0.28369 0.76344 0.76552 0.0
O460 O 0.25096 0.78171 0.75236 0.0
O461 O 0.23469 0.77088 0.69781 0.0
O462 O 0.25194 0.74176 0.67658 0.0
O463 O 0.2342 0.68674 0.69115 0.0
O464 O 0.28183 0.70476 0.77822 0.0
O465 O 0.21408 0.68476 0.72598 0.0
O466 O 0.24873 0.68347 0.77239 0.0
C467 C 0.30974 0.71183 0.70976 0.0
C468 C 0.1932 0.73909 0.76161 0.0
C469 C 0.24328 0.76286 0.67795 0.0
C470 C 0.27058 0.78205 0.76416 0.0
C471 C 0.21705 0.67846 0.70395 0.0
C472 C 0.26871 0.68653 0.78296 0.0
O473 O 0.29168 0.70601 0.69668 0.0
O474 O 0.52512 0.02782 0.06595 0.0
Zn475 Zn 0.52623 0.0212 0.02977 0.0
O476 O 0.4952 0.00861 0.01854 0.0
Zn477 Zn 0.49799 0.97597 0.00568 0.0
Zn478 Zn 0.47207 0.00868 0.04534 0.0
Zn479 Zn 0.48397 0.02879 0.99247 0.0
O480 O 0.48668 0.97241 0.97068 0.0
O481 O 0.47726 0.01023 0.96219 0.0
O482 O 0.551 0.99538 0.02657 0.0
O483 O 0.53129 0.96406 0.01066 0.0
O484 O 0.47809 0.95343 0.02496 0.0
O485 O 0.4597 0.97523 0.05287 0.0
O486 O 0.44422 0.03002 0.0379 0.0
O487 O 0.53694 0.05141 0.01124 0.0
O488 O 0.45356 0.04482 0.0015 0.0
O489 O 0.50773 0.05386 0.98392 0.0
C490 C 0.50891 0.02583 0.08207 0.0
C491 C 0.47888 0.98827 0.956 0.0
C492 C 0.46405 0.95501 0.04298 0.0
C493 C 0.55024 0.97351 0.01946 0.0
C494 C 0.43956 0.04342 0.01965 0.0
C495 C 0.5275 0.06129 0.99259 0.0
O496 O 0.48781 0.0193 0.0764 0.0
O497 O 0.21165 0.26898 0.23 0.0
Zn498 Zn 0.23711 0.26169 0.25435 0.0
O499 O 0.26781 0.26316 0.23862 0.0
Zn500 Zn 0.28289 0.23159 0.23711 0.0
Zn501 Zn 0.26557 0.27841 0.20687 0.0
Zn502 Zn 0.28743 0.28336 0.25814 0.0
O503 O 0.31349 0.23029 0.25756 0.0
O504 O 0.30852 0.26404 0.27866 0.0
O505 O 0.23113 0.22845 0.26746 0.0
O506 O 0.26059 0.20692 0.25173 0.0
O507 O 0.28849 0.22242 0.20182 0.0
O508 O 0.2784 0.25574 0.18178 0.0
O509 O 0.28396 0.3102 0.20577 0.0
O510 O 0.23391 0.28631 0.28112 0.0
O511 O 0.30762 0.30442 0.23775 0.0
O512 O 0.26904 0.30472 0.28035 0.0
C513 C 0.21171 0.27805 0.20866 0.0
C514 C 0.31891 0.24412 0.27539 0.0
C515 C 0.28608 0.2342 0.18197 0.0
C516 C 0.24144 0.20839 0.26404 0.0
C517 C 0.30217 0.31595 0.21855 0.0
C518 C 0.24794 0.30297 0.28848 0.0
O519 O 0.23108 0.28341 0.19779 0.0
O520 O 0.52925 0.51898 0.98071 0.0
Zn521 Zn 0.50822 0.50299 0.00589 0.0
O522 O 0.52514 0.50005 0.03718 0.0
Zn523 Zn 0.52979 0.46626 0.04612 0.0
Zn524 Zn 0.55589 0.51671 0.03535 0.0
Zn525 Zn 0.5065 0.51509 0.06223 0.0
O526 O 0.51503 0.45752 0.07884 0.0
O527 O 0.50042 0.49302 0.08964 0.0
O528 O 0.50103 0.46987 0.9921 0.0
O529 O 0.51596 0.44493 0.01988 0.0
O530 O 0.5648 0.45918 0.04867 0.0
O531 O 0.58249 0.49508 0.04604 0.0
O532 O 0.55615 0.5479 0.05456 0.0
O533 O 0.4771 0.52112 0.00944 0.0
O534 O 0.5225 0.54445 0.07545 0.0
O535 O 0.47501 0.52574 0.04962 0.0
C536 C 0.55114 0.5253 0.98103 0.0
C537 C 0.50426 0.47095 0.09393 0.0
C538 C 0.58351 0.47237 0.0492 0.0
C539 C 0.50537 0.44862 -0.0004 0.0
C540 C 0.54158 0.55581 0.07035 0.0
C541 C 0.466 0.52803 0.02844 0.0
O542 O 0.56345 0.5246 0.00057 0.0
O543 O 0.81372 0.21096 0.24473 0.0
Zn544 Zn 0.785 0.21927 0.2644 0.0
O545 O 0.75699 0.21704 0.24317 0.0
Zn546 Zn 0.74139 0.24796 0.24011 0.0
Zn547 Zn 0.76466 0.2034 0.21132 0.0
Zn548 Zn 0.73469 0.1958 0.25794 0.0
O549 O 0.70961 0.24903 0.25757 0.0
O550 O 0.70922 0.21313 0.27532 0.0
O551 O 0.79092 0.25404 0.27535 0.0
O552 O 0.76242 0.27313 0.25503 0.0
O553 O 0.73824 0.25749 0.20489 0.0
O554 O 0.75635 0.22763 0.18551 0.0
O555 O 0.74598 0.1726 0.20368 0.0
O556 O 0.78349 0.19466 0.29215 0.0
O557 O 0.71926 0.17485 0.23336 0.0
O558 O 0.75052 0.17465 0.28189 0.0
C559 C 0.81729 0.2026 0.22343 0.0
C560 C 0.70033 0.23385 0.27227 0.0
C561 C 0.74584 0.24788 0.18533 0.0
C562 C 0.78089 0.27352 0.26859 0.0
C563 C 0.72655 0.16576 0.21352 0.0
C564 C 0.76917 0.17685 0.29494 0.0
O565 O 0.80005 0.19804 0.20885 0.0
O566 O 0.02733 0.52826 0.55875 0.0
Zn567 Zn 0.02114 0.52088 0.52347 0.0
O568 O 0.98934 0.50665 0.51982 0.0
Zn569 Zn 0.99187 0.47256 0.51158 0.0
Zn570 Zn 0.97125 0.51117 0.55015 0.0
Zn571 Zn 0.97273 0.52232 0.49356 0.0
O572 O 0.97689 0.46404 0.47926 0.0
O573 O 0.96566 0.49999 0.46599 0.0
O574 O 0.04641 0.49633 0.51653 0.0
O575 O 0.0262 0.46194 0.51183 0.0
O576 O 0.97413 0.45323 0.53597 0.0
O577 O 0.95923 0.4792 0.56267 0.0
O578 O 0.94235 0.5322 0.54538 0.0
O579 O 0.02549 0.55082 0.50225 0.0
O580 O 0.94139 0.53502 0.50491 0.0
O581 O 0.99192 0.54968 0.48057 0.0
C582 C 0.01468 0.5281 0.57797 0.0
C583 C 0.96758 0.4774 0.46309 0.0
C584 C 0.9619 0.45783 0.55484 0.0
C585 C 0.04584 0.47355 0.5136 0.0
C586 C 0.93205 0.53867 0.5257 0.0
C587 C 0.01205 0.55926 0.48552 0.0
O588 O 0.99249 0.52325 0.57718 0.0
O589 O 0.73918 0.7358 0.29892 0.0
Zn590 Zn 0.75635 0.7587 0.27686 0.0
O591 O 0.75955 0.74455 0.2445 0.0
Zn592 Zn 0.79233 0.73613 0.23753 0.0
Zn593 Zn 0.73937 0.71575 0.24164 0.0
Zn594 Zn 0.74971 0.76877 0.22148 0.0
O595 O 0.80379 0.74985 0.20515 0.0
O596 O 0.77448 0.77523 0.19685 0.0
O597 O 0.78896 0.76552 0.29146 0.0
O598 O 0.8134 0.74875 0.2646 0.0
O599 O 0.79531 0.70011 0.23576 0.0
O600 O 0.75816 0.68663 0.23082 0.0
O601 O 0.71038 0.72273 0.2207 0.0
O602 O 0.73689 0.78907 0.27594 0.0
O603 O 0.71983 0.7583 0.20449 0.0
O604 O 0.74065 0.79983 0.23716 0.0
C605 C 0.72862 0.71568 0.29551 0.0
C606 C 0.79461 0.76626 0.19201 0.0
C607 C 0.78054 0.68292 0.23186 0.0
C608 C 0.8099 0.76004 0.28456 0.0
C609 C 0.70561 0.74046 0.20675 0.0
C610 C 0.73369 0.80412 0.25875 0.0
O611 O 0.72745 0.70582 0.2746 0.0
O612 O 0.71854 0.23347 0.6856 0.0
Zn613 Zn 0.72137 0.22835 0.72206 0.0
O614 O 0.73743 0.25579 0.73702 0.0
Zn615 Zn 0.76138 0.24428 0.75952 0.0
Zn616 Zn 0.75119 0.27756 0.71303 0.0
Zn617 Zn 0.715 0.27348 0.75527 0.0
O618 O 0.76022 0.26093 0.79229 0.0
O619 O 0.72909 0.28461 0.78678 0.0
O620 O 0.74227 0.19947 0.72656 0.0
O621 O 0.76173 0.20807 0.76095 0.0
O622 O 0.7932 0.25196 0.74601 0.0
O623 O 0.78725 0.27675 0.71483 0.0
O624 O 0.73745 0.31148 0.71545 0.0
O625 O 0.68942 0.22122 0.73838 0.0
O626 O 0.70538 0.30284 0.73752 0.0
O627 O 0.68679 0.25327 0.76268 0.0
C628 C 0.72942 0.24816 0.67148 0.0
C629 C 0.74669 0.27773 0.79958 0.0
C630 C 0.80118 0.2648 0.72864 0.0
C631 C 0.75633 0.19343 0.74377 0.0
C632 C 0.71723 0.3173 0.72413 0.0
C633 C 0.6787 0.2333 0.75474 0.0
O634 O 0.74274 0.26498 0.67984 0.0
O635 O 0.69394 0.78107 0.73929 0.0
Zn636 Zn 0.71483 0.77164 0.76686 0.0
O637 O 0.7473 0.77523 0.75652 0.0
Zn638 Zn 0.76326 0.7446 0.75455 0.0
Zn639 Zn 0.74993 0.79328 0.72609 0.0
Zn640 Zn 0.76346 0.79196 0.78188 0.0
O641 O 0.79506 0.74716 0.77212 0.0
O642 O 0.78345 0.77054 0.80243 0.0
O643 O 0.70833 0.73725 0.77626 0.0
O644 O 0.74252 0.71848 0.76949 0.0
O645 O 0.76878 0.73616 0.71932 0.0
O646 O 0.76249 0.77096 0.70032 0.0
O647 O 0.77319 0.82189 0.72951 0.0
O648 O 0.70639 0.79384 0.79479 0.0
O649 O 0.78556 0.81538 0.76749 0.0
O650 O 0.74156 0.81066 0.80251 0.0
C651 C 0.69638 0.79432 0.72047 0.0
C652 C 0.79886 0.75691 0.79287 0.0
C653 C 0.76839 0.74884 0.69993 0.0
C654 C 0.72093 0.71826 0.7767 0.0
C655 C 0.78721 0.82656 0.74737 0.0
C656 C 0.71928 0.80923 0.8061 0.0
O657 O 0.71677 0.8025 0.71399 0.0
O658 O 0.46782 0.55967 0.52968 0.0
Zn659 Zn 0.48063 0.53532 0.50732 0.0
O660 O 0.4811 0.50571 0.52537 0.0
Zn661 Zn 0.51289 0.49318 0.52679 0.0
Zn662 Zn 0.46492 0.50689 0.5564 0.0
Zn663 Zn 0.46282 0.48395 0.50706 0.0
O664 O 0.51891 0.46865 0.49971 0.0
O665 O 0.48302 0.4688 0.48254 0.0
O666 O 0.51423 0.54672 0.49878 0.0
O667 O 0.5355 0.52015 0.51975 0.0
O668 O 0.51998 0.48213 0.56111 0.0
O669 O 0.48796 0.4942 0.58167 0.0
O670 O 0.43456 0.48575 0.55513 0.0
O671 O 0.45738 0.53421 0.47887 0.0
O672 O 0.44739 0.45941 0.52799 0.0
O673 O 0.43754 0.50089 0.48868 0.0
C674 C 0.4593 0.56066 0.55112 0.0
C675 C 0.50486 0.4632 0.48213 0.0
C676 C 0.50868 0.48487 0.5811 0.0
C677 C 0.53413 0.53946 0.50731 0.0
C678 C 0.43246 0.46552 0.54412 0.0
C679 C 0.43938 0.52017 0.47631 0.0
O680 O 0.4572 0.54191 0.5645 0.0
O681 O 0.0243 0.47863 0.03218 0.0
Zn682 Zn 0.01476 0.50653 0.01178 0.0
O683 O 0.01404 0.53474 0.03226 0.0
Zn684 Zn 0.98144 0.54425 0.03738 0.0
Zn685 Zn 0.0312 0.52946 0.0625 0.0
Zn686 Zn 0.03048 0.5604 0.01633 0.0
O687 O 0.97262 0.57307 0.0167 0.0
O688 O 0.00766 0.58209 0.00011 0.0
O689 O 0.98176 0.49772 -0.00033 0.0
O690 O 0.95945 0.5176 0.02624 0.0
O691 O 0.97638 0.55085 0.073 0.0
O692 O 0.01125 0.54214 0.09032 0.0
O693 O 0.06369 0.54638 0.06038 0.0
O694 O 0.03846 0.51013 0.98436 0.0
O695 O 0.05228 0.57814 0.03904 0.0
O696 O 0.05099 0.5478 0.98987 0.0
C697 C 0.0315 0.47562 0.05401 0.0
C698 C 0.9854 0.5853 0.00203 0.0
C699 C 0.98976 0.54935 0.09182 0.0
C700 C 0.96164 0.50183 0.00948 0.0
C701 C 0.06796 0.56731 0.05164 0.0
C702 C 0.052 0.52781 0.97863 0.0
O703 O 0.03518 0.4935 0.06824 0.0
H704 H 0.97629 0.19856 0.11194 0.0
H705 H 0.01841 0.20477 0.04634 0.0
H706 H 0.96541 0.15737 0.10094 0.0
H707 H 0.00824 0.16334 0.03578 0.0
H708 H 0.97044 0.09716 0.01024 0.0
H709 H 0.97594 0.13907 0.02202 0.0
H710 H 0.98132 0.11767 0.09773 0.0
H711 H 0.97483 0.07561 0.08585 0.0
C712 C 0.9834 0.19107 0.09526 0.0
C713 C -0.00176 0.20496 0.07999 0.0
C714 C 0.97721 0.1674 0.08901 0.0
C715 C 0.98584 0.15701 0.06744 0.0
C716 C 0.00082 0.1709 0.05228 0.0
C717 C 0.00681 0.19463 0.0584 0.0
C718 C 0.97245 0.10146 0.02945 0.0
C719 C 0.97238 0.08314 0.04714 0.0
C720 C 0.97582 0.12546 0.03619 0.0
C721 C 0.9796 0.13174 0.06077 0.0
C722 C 0.97837 0.11351 0.07863 0.0
C723 C 0.97465 0.08941 0.07188 0.0
H724 H 0.02958 0.73343 0.30814 0.0
H725 H 0.08228 0.73579 0.36586 0.0
H726 H 0.05959 0.71836 0.27988 0.0
H727 H 0.11212 0.72077 0.33774 0.0
H728 H 0.16305 0.68989 0.2884 0.0
H729 H 0.12539 0.68691 0.31069 0.0
H730 H 0.09507 0.74063 0.26305 0.0
H731 H 0.13262 0.74352 0.24107 0.0
C732 C 0.04748 0.73042 0.31487 0.0
C733 C 0.05374 0.73619 0.33909 0.0
C734 C 0.06459 0.72171 0.29872 0.0
C735 C 0.08816 0.71831 0.30661 0.0
C736 C 0.09402 0.72284 0.33119 0.0
C737 C 0.07701 0.73178 0.34724 0.0
C738 C 0.14788 0.70005 0.28199 0.0
C739 C 0.15049 0.71686 0.26309 0.0
C740 C 0.12645 0.69856 0.29486 0.0
C741 C 0.10747 0.71386 0.28887 0.0
C742 C 0.10931 0.72853 0.26805 0.0
C743 C 0.13077 0.73018 0.2554 0.0
H744 H 0.48489 0.8462 0.6275 0.0
H745 H 0.51059 0.81555 0.56016 0.0
H746 H 0.49256 0.88651 0.61177 0.0
H747 H 0.51893 0.85596 0.54461 0.0
H748 H 0.50385 0.9328 0.51657 0.0
H749 H 0.49832 0.89172 0.5311 0.0
H750 H 0.52578 0.91268 0.60194 0.0
H751 H 0.5307 0.95396 0.58765 0.0
C752 C 0.49224 0.8481 0.60934 0.0
C753 C 0.49715 0.82779 0.59504 0.0
C754 C 0.49684 0.87118 0.60042 0.0
C755 C 0.50656 0.87441 0.57704 0.0
C756 C 0.51126 0.85405 0.56262 0.0
C757 C 0.50654 0.83093 0.57153 0.0
C758 C 0.50892 0.92862 0.53519 0.0
C759 C 0.51754 0.9467 0.55103 0.0
C760 C 0.50583 0.90504 0.54347 0.0
C761 C 0.51141 0.89901 0.56772 0.0
C762 C 0.52085 0.91689 0.58329 0.0
C763 C 0.52382 0.94051 0.57506 0.0
H764 H 0.45527 0.26378 0.84454 0.0
H765 H 0.41035 0.25991 0.90832 0.0
H766 H 0.42043 0.26314 0.81839 0.0
H767 H 0.37512 0.25835 0.88184 0.0
H768 H 0.317 0.27981 0.82711 0.0
H769 H 0.35154 0.28182 0.85416 0.0
H770 H 0.39038 0.23639 0.80443 0.0
H771 H 0.3562 0.23513 0.77702 0.0
C772 C 0.43791 0.26249 0.85302 0.0
C773 C 0.4356 0.26167 0.87856 0.0
C774 C 0.41788 0.26201 0.83794 0.0
C775 C 0.39493 0.26041 0.84793 0.0
C776 C 0.39253 0.25981 0.87353 0.0
C777 C 0.41269 0.26056 0.88872 0.0
C778 C 0.33297 0.27036 0.82189 0.0
C779 C 0.3339 0.25742 0.79982 0.0
C780 C 0.35271 0.27135 0.83752 0.0
C781 C 0.37377 0.25927 0.83152 0.0
C782 C 0.37462 0.24629 0.80945 0.0
C783 C 0.35499 0.24551 0.79372 0.0
H784 H 0.99096 0.84109 0.37878 0.0
H785 H 0.03293 0.81368 0.43862 0.0
H786 H 0.98405 0.87836 0.40193 0.0
H787 H 0.02711 0.85075 0.46111 0.0
H788 H 0.99512 0.9039 0.50901 0.0
H789 H 0.99547 0.86864 0.48261 0.0
H790 H 0.00185 0.91475 0.41933 0.0
H791 H 0.00021 0.95016 0.44587 0.0
C792 C -0.00089 0.84332 0.39661 0.0
C793 C 0.0123 0.82459 0.40709 0.0
C794 C 0.99511 0.86454 0.4099 0.0
C795 C 0.00446 0.86727 0.43369 0.0
C796 C 0.01883 0.84894 0.44329 0.0
C797 C 0.02246 0.8278 0.43028 0.0
C798 C 0.99608 0.90648 0.48942 0.0
C799 C -0.00206 0.92968 0.4795 0.0
C800 C 0.99652 0.88631 0.47428 0.0
C801 C -0.00048 0.88885 0.44889 0.0
C802 C -0.00037 0.91213 0.43878 0.0
C803 C -0.00131 0.93241 0.45398 0.0
H804 H 0.43774 0.7162 0.62162 0.0
H805 H 0.45324 0.7528 0.68943 0.0
H806 H 0.40159 0.69897 0.63913 0.0
H807 H 0.41626 0.73705 0.70666 0.0
H808 H 0.3504 0.70511 0.73602 0.0
H809 H 0.39115 0.70665 0.72097 0.0
H810 H 0.36426 0.71423 0.64721 0.0
H811 H 0.32375 0.71129 0.66225 0.0
C812 C 0.43334 0.72043 0.64039 0.0
C813 C 0.44787 0.73608 0.65415 0.0
C814 C 0.41258 0.7107 0.65039 0.0
C815 C 0.40557 0.71704 0.67413 0.0
C816 C 0.42106 0.73154 0.68839 0.0
C817 C 0.4422 0.74076 0.67854 0.0
C818 C 0.35332 0.70654 0.71653 0.0
C819 C 0.33398 0.70835 0.70028 0.0
C820 C 0.37667 0.70761 0.70791 0.0
C821 C 0.38115 0.71104 0.68291 0.0
C822 C 0.36168 0.7113 0.66656 0.0
C823 C 0.33834 0.70973 0.67515 0.0
H824 H 0.53805 0.18892 0.90267 0.0
H825 H 0.51338 0.20553 0.97538 0.0
H826 H 0.55221 0.14999 0.91723 0.0
H827 H 0.5269 0.16673 0.98963 0.0
H828 H 0.55251 0.0979 0.01502 0.0
H829 H 0.55836 0.13855 -0.00153 0.0
H830 H 0.53053 0.11438 0.9288 0.0
H831 H 0.52528 0.07414 0.94511 0.0
C832 C 0.53572 0.18435 0.92174 0.0
C833 C 0.52407 0.20015 0.93771 0.0
C834 C 0.54394 0.1621 0.93011 0.0
C835 C 0.54062 0.15516 0.95458 0.0
C836 C 0.53013 0.17155 0.97076 0.0
C837 C 0.52201 0.19374 0.96245 0.0
C838 C 0.54857 0.10117 -0.00407 0.0
C839 C 0.53793 0.08313 0.98148 0.0
C840 C 0.5517 0.12444 0.98649 0.0
C841 C 0.54433 0.12986 0.96249 0.0
C842 C 0.5364 0.11097 0.94733 0.0
C843 C 0.5332 0.08788 0.95675 0.0
H844 H 0.0931 0.305 0.10883 0.0
H845 H 0.06695 0.25406 0.16229 0.0
H846 H 0.13089 0.30782 0.13066 0.0
H847 H 0.10501 0.25618 0.18362 0.0
H848 H 0.16761 0.27973 0.22904 0.0
H849 H 0.1294 0.28182 0.20812 0.0
H850 H 0.16556 0.28461 0.13863 0.0
H851 H 0.20386 0.28344 0.15968 0.0
C852 C 0.09549 0.29426 0.12515 0.0
C853 C 0.07707 0.27923 0.1338 0.0
C854 C 0.11719 0.29582 0.13762 0.0
C855 C 0.12103 0.28221 0.15888 0.0
C856 C 0.10253 0.26725 0.16755 0.0
C857 C 0.08075 0.2659 0.15524 0.0
C858 C 0.1674 0.28099 0.2093 0.0
C859 C 0.18873 0.28128 0.19598 0.0
C860 C 0.14549 0.28204 0.1973 0.0
C861 C 0.14438 0.28308 0.17168 0.0
C862 C 0.16576 0.28407 0.1584 0.0
C863 C 0.18772 0.28331 0.17044 0.0
H864 H 0.05905 0.04747 0.20401 0.0
H865 H 0.10492 0.98543 0.20321 0.0
H866 H 0.03821 0.03227 0.16813 0.0
H867 H 0.08357 0.96982 0.16737 0.0
H868 H 0.05167 0.96798 0.08734 0.0
H869 H 0.07471 0.97721 0.12401 0.0
H870 H 0.01042 -0.00089 0.16051 0.0
H871 H 0.98743 0.99056 0.1237 0.0
C872 C 0.0648 0.03066 0.196 0.0
C873 C 0.08346 0.01755 0.20649 0.0
C874 C 0.05268 0.02179 0.17563 0.0
C875 C 0.05877 -0.00053 0.16541 0.0
C876 C 0.07837 0.98699 0.17498 0.0
C877 C 0.09068 0.996 0.19537 0.0
C878 C 0.04232 0.9742 0.10338 0.0
C879 C 0.01777 0.97909 0.10243 0.0
C880 C 0.05558 0.97951 0.12439 0.0
C881 C 0.04448 0.98962 0.14483 0.0
C882 C 0.01958 0.99211 0.1447 0.0
C883 C 0.00636 0.98698 0.12369 0.0
H884 H 0.25132 0.8802 0.41683 0.0
H885 H 0.28943 0.82303 0.45302 0.0
H886 H 0.24272 0.85325 0.38255 0.0
H887 H 0.28044 0.79604 0.41909 0.0
H888 H 0.20891 0.79284 0.33909 0.0
H889 H 0.21785 0.81715 0.37505 0.0
H890 H 0.28967 0.78994 0.37604 0.0
H891 H 0.28068 0.76527 0.34032 0.0
C892 C 0.25801 0.86197 0.41736 0.0
C893 C 0.271 0.85371 0.43757 0.0
C894 C 0.25287 0.84646 0.3979 0.0
C895 C 0.26066 0.82245 0.39831 0.0
C896 C 0.27428 0.81446 0.41821 0.0
C897 C 0.2794 0.82993 0.43764 0.0
C898 C 0.22651 0.79173 0.34718 0.0
C899 C 0.24417 0.77732 0.33665 0.0
C900 C 0.23168 0.80585 0.36763 0.0
C901 C 0.2546 0.80583 0.37801 0.0
C902 C 0.27184 0.79034 0.36841 0.0
C903 C 0.26667 0.77619 0.34794 0.0
H904 H 0.37505 0.02398 0.69998 0.0
H905 H 0.42394 0.96493 0.69154 0.0
H906 H 0.39282 0.04391 0.6642 0.0
H907 H 0.4415 0.98479 0.65631 0.0
H908 H 0.42858 0.04807 0.58064 0.0
H909 H 0.40334 0.03494 0.61464 0.0
H910 H 0.46581 0.02686 0.65993 0.0
H911 H 0.491 0.0399 0.62633 0.0
C912 C 0.38903 0.01494 0.69008 0.0
C913 C 0.3984 0.99309 0.69874 0.0
C914 C 0.39925 0.02641 0.66978 0.0
C915 C 0.41889 0.01611 0.6581 0.0
C916 C 0.42672 0.99332 0.66546 0.0
C917 C 0.41658 0.98191 0.68553 0.0
C918 C 0.43686 0.04428 0.5981 0.0
C919 C 0.46186 0.04451 0.60066 0.0
C920 C 0.42239 0.03671 0.61748 0.0
C921 C 0.43279 0.02936 0.63954 0.0
C922 C 0.45748 0.032 0.64284 0.0
C923 C 0.47188 0.03954 0.62363 0.0
H924 H 0.23739 0.11693 0.90226 0.0
H925 H 0.19562 0.16999 0.94005 0.0
H926 H 0.22694 0.13542 0.86332 0.0
H927 H 0.18418 0.18777 0.90119 0.0
H928 H 0.20904 0.17351 0.79522 0.0
H929 H 0.19986 0.14915 0.83128 0.0
H930 H 0.21031 0.21202 0.87693 0.0
H931 H 0.21897 0.23612 0.84126 0.0
C932 C 0.22536 0.13206 0.90215 0.0
C933 C 0.2179 0.14254 0.92408 0.0
C934 C 0.21915 0.14252 0.87984 0.0
C935 C 0.20513 0.1634 0.87923 0.0
C936 C 0.19552 0.17209 0.90113 0.0
C937 C 0.20209 0.16194 0.92338 0.0
C938 C 0.20866 0.18218 0.81294 0.0
C939 C 0.2152 0.20657 0.81557 0.0
C940 C 0.20351 0.16822 0.83355 0.0
C941 C 0.20463 0.17856 0.85698 0.0
C942 C 0.20906 0.20345 0.8592 0.0
C943 C 0.21431 0.21728 0.83873 0.0
H944 H 0.07067 0.03872 0.31754 0.0
H945 H 0.13247 0.00946 0.35382 0.0
H946 H 0.05358 0.04898 0.35679 0.0
H947 H 0.11491 0.019 0.39333 0.0
H948 H 0.08457 0.04868 0.46154 0.0
H949 H 0.10245 0.05069 0.42114 0.0
H950 H 0.03623 0.02554 0.38909 0.0
H951 H 0.01821 0.02407 0.42924 0.0
C952 C 0.08066 0.03454 0.33392 0.0
C953 C 0.10283 0.02307 0.33266 0.0
C954 C 0.07081 0.04039 0.35642 0.0
C955 C 0.0828 0.03469 0.37815 0.0
C956 C 0.10536 0.02392 0.37688 0.0
C957 C 0.11533 0.01823 0.35429 0.0
C958 C 0.07367 0.04408 0.44581 0.0
C959 C 0.05009 0.03578 0.44863 0.0
C960 C 0.08399 0.04509 0.4227 0.0
C961 C 0.07092 0.03782 0.40201 0.0
C962 C 0.04678 0.03136 0.40466 0.0
C963 C 0.03644 0.03044 0.42773 0.0
H964 H 0.26052 0.87501 0.56619 0.0
H965 H 0.32081 0.82735 0.5626 0.0
H966 H 0.24587 0.85326 0.60199 0.0
H967 H 0.30636 0.80597 0.59846 0.0
H968 H 0.25688 0.75134 0.63176 0.0
H969 H 0.27084 0.77878 0.60029 0.0
H970 H 0.25302 0.83963 0.64561 0.0
H971 H 0.23872 0.81208 0.6773 0.0
C972 C 0.27108 0.86046 0.57354 0.0
C973 C 0.29159 0.85257 0.56134 0.0
C974 C 0.26261 0.84795 0.59396 0.0
C975 C 0.27459 0.82748 0.60245 0.0
C976 C 0.29637 0.82124 0.59178 0.0
C977 C 0.30476 0.83361 0.57139 0.0
C978 C 0.25557 0.77055 0.63495 0.0
C979 C 0.24695 0.77948 0.65718 0.0
C980 C 0.26382 0.78627 0.61702 0.0
C981 C 0.26367 0.8113 0.62085 0.0
C982 C 0.25354 0.82039 0.64231 0.0
C983 C 0.24525 0.80459 0.66036 0.0
H984 H 0.36853 0.98402 0.85165 0.0
H985 H 0.43048 0.97718 0.80568 0.0
H986 H 0.39385 0.97831 0.88787 0.0
H987 H 0.45545 0.97179 0.84163 0.0
H988 H 0.4862 0.01088 0.91304 0.0
H989 H 0.46341 0.00529 0.87534 0.0
H990 H 0.42487 0.94595 0.90808 0.0
H991 H 0.44836 0.95112 0.94579 0.0
C992 C 0.38741 0.981 0.84927 0.0
C993 C 0.39756 0.98135 0.8259 0.0
C994 C 0.40181 0.97755 0.86991 0.0
C995 C 0.42653 0.97465 0.86739 0.0
C996 C 0.43645 0.97404 0.84399 0.0
C997 C 0.42211 0.9772 0.82346 0.0
C998 C 0.47339 -0.00383 0.91187 0.0
C999 C 0.46908 0.98131 0.9321 0.0
C1000 C 0.46034 0.99301 0.8904 0.0
C1001 C 0.44233 0.97531 0.889 0.0
C1002 C 0.43864 0.95975 0.90886 0.0
C1003 C 0.45219 0.96254 0.93023 0.0
H1004 H 0.22722 0.20446 0.04658 0.0
H1005 H 0.26759 0.13897 0.05493 0.0
H1006 H 0.24564 0.22064 0.08327 0.0
H1007 H 0.28633 0.15551 0.09178 0.0
H1008 H 0.2835 0.18568 0.1732 0.0
H1009 H 0.27488 0.16665 0.13393 0.0
H1010 H 0.28436 0.23527 0.09789 0.0
H1011 H 0.29241 0.25439 0.13712 0.0
C1012 C 0.24007 0.1935 0.05619 0.0
C1013 C 0.24585 0.17038 0.04778 0.0
C1014 C 0.25086 0.20291 0.07712 0.0
C1015 C 0.26774 0.1895 0.09021 0.0
C1016 C 0.27339 0.16625 0.08205 0.0
C1017 C 0.26259 0.15679 0.06099 0.0
C1018 C 0.28447 0.19656 0.15681 0.0
C1019 C 0.28809 0.22163 0.15829 0.0
C1020 C 0.27951 0.18564 0.1343 0.0
C1021 C 0.27826 0.19962 0.11295 0.0
C1022 C 0.28449 0.22418 0.11416 0.0
C1023 C 0.28927 0.2351 0.13661 0.0
H1024 H 0.18716 0.06809 0.99218 0.0
H1025 H 0.13772 0.12528 0.97602 0.0
H1026 H 0.15434 0.0388 0.99046 0.0
H1027 H 0.10528 0.09633 0.97481 0.0
H1028 H 0.0518 0.04174 0.95724 0.0
H1029 H 0.08929 0.06327 0.95095 0.0
H1030 H 0.11905 0.02867 0.01468 0.0
H1031 H 0.08184 0.00651 0.02048 0.0
C1032 C 0.16935 0.07444 0.98835 0.0
C1033 C 0.16507 0.09907 0.98436 0.0
C1034 C 0.1506 0.05766 0.98733 0.0
C1035 C 0.12729 0.06522 0.98223 0.0
C1036 C 0.12311 0.08981 0.97819 0.0
C1037 C 0.14174 0.10649 0.97919 0.0
C1038 C 0.06652 0.03838 0.9696 0.0
C1039 C 0.06375 0.0229 0.98966 0.0
C1040 C 0.08794 0.05075 0.96606 0.0
C1041 C 0.10687 0.04813 0.9827 0.0
C1042 C 0.10479 0.03109 0.00155 0.0
C1043 C 0.08342 0.01847 0.00493 0.0
H1044 H 0.73377 0.4333 0.04022 0.0
H1045 H 0.69245 0.37622 0.00631 0.0
H1046 H 0.69726 0.45159 0.05498 0.0
H1047 H 0.65592 0.3949 0.02028 0.0
H1048 H 0.62722 0.49336 0.04246 0.0
H1049 H 0.66504 0.47324 0.03742 0.0
H1050 H 0.63137 0.40489 0.05431 0.0
H1051 H 0.59323 0.42498 0.05859 0.0
C1052 C 0.71687 0.42466 0.03592 0.0
C1053 C 0.71593 0.40346 0.02191 0.0
C1054 C 0.69594 0.43518 0.04433 0.0
C1055 C 0.67361 0.42482 0.03871 0.0
C1056 C 0.67279 0.4032 0.02527 0.0
C1057 C 0.69373 0.39259 0.01706 0.0
C1058 C 0.62791 0.4741 0.04553 0.0
C1059 C 0.6071 0.46075 0.05059 0.0
C1060 C 0.64968 0.46253 0.04274 0.0
C1061 C 0.65122 0.43737 0.04514 0.0
C1062 C 0.63071 0.42423 0.05178 0.0
C1063 C 0.60887 0.43578 0.05441 0.0
H1064 H 0.88919 0.38385 0.26502 0.0
H1065 H 0.82516 0.42537 0.27406 0.0
H1066 H 0.86591 0.34673 0.26778 0.0
H1067 H 0.80197 0.38827 0.27784 0.0
H1068 H 0.8228 0.2831 0.29327 0.0
H1069 H 0.84439 0.32149 0.29508 0.0
H1070 H 0.78729 0.35552 0.25516 0.0
H1071 H 0.76543 0.31777 0.25434 0.0
C1072 C 0.87012 0.38505 0.26758 0.0
C1073 C 0.85901 0.40759 0.2691 0.0
C1074 C 0.85678 0.36373 0.2695 0.0
C1075 C 0.83203 0.36439 0.27328 0.0
C1076 C 0.82093 0.38699 0.27462 0.0
C1077 C 0.83423 0.40831 0.2724 0.0
C1078 C 0.81466 0.29891 0.28535 0.0
C1079 C 0.79245 0.29722 0.2735 0.0
C1080 C 0.82716 0.32088 0.28611 0.0
C1081 C 0.8178 0.34161 0.2749 0.0
C1082 C 0.79506 0.3401 0.26417 0.0
C1083 C 0.78252 0.31828 0.2636 0.0
H1084 H 0.78046 0.56925 0.51591 0.0
H1085 H 0.81649 0.63818 0.52154 0.0
H1086 H 0.81849 0.54883 0.52288 0.0
H1087 H 0.85422 0.61777 0.52923 0.0
H1088 H 0.91278 0.5661 0.56216 0.0
H1089 H 0.87308 0.58446 0.5625 0.0
H1090 H 0.85766 0.55282 0.49214 0.0
H1091 H 0.89729 0.53518 0.49134 0.0
C1092 C 0.79639 0.57999 0.51915 0.0
C1093 C 0.79568 0.60523 0.51795 0.0
C1094 C 0.81805 0.56834 0.5231 0.0
C1095 C 0.83912 0.58182 0.52659 0.0
C1096 C 0.83815 0.60705 0.52674 0.0
C1097 C 0.81664 0.61867 0.52219 0.0
C1098 C 0.90084 0.56306 0.54684 0.0
C1099 C 0.90814 0.54941 0.52664 0.0
C1100 C 0.87823 0.57349 0.54707 0.0
C1101 C 0.86242 0.56979 0.52744 0.0
C1102 C 0.86951 0.55568 0.50758 0.0
C1103 C 0.89223 0.5458 0.50705 0.0
H1104 H 0.12502 0.11498 0.28822 0.0
H1105 H 0.18194 0.06349 0.28219 0.0
H1106 H 0.15394 0.14766 0.28927 0.0
H1107 H 0.21113 0.0963 0.28423 0.0
H1108 H 0.24823 0.16247 0.24794 0.0
H1109 H 0.22414 0.12711 0.2573 0.0
H1110 H 0.18475 0.16834 0.3103 0.0
H1111 H 0.20824 0.20405 0.30005 0.0
C1112 C 0.14376 0.1106 0.28753 0.0
C1113 C 0.15116 0.08667 0.28466 0.0
C1114 C 0.16042 0.12937 0.2884 0.0
C1115 C 0.18492 0.12466 0.28672 0.0
C1116 C 0.19238 0.1006 0.28508 0.0
C1117 C 0.17566 0.0818 0.28393 0.0
C1118 C 0.23469 0.16389 0.26188 0.0
C1119 C 0.22977 0.18613 0.27288 0.0
C1120 C 0.22095 0.14353 0.26739 0.0
C1121 C 0.2022 0.14495 0.28427 0.0
C1122 C 0.19861 0.16679 0.29671 0.0
C1123 C 0.21212 0.18722 0.29092 0.0
H1124 H 0.3205 0.94738 0.47261 0.0
H1125 H 0.37501 0.89353 0.46495 0.0
H1126 H 0.35044 0.97908 0.46728 0.0
H1127 H 0.40491 0.92494 0.46072 0.0
H1128 H 0.45745 0.9821 0.4504 0.0
H1129 H 0.4231 0.95698 0.43967 0.0
H1130 H 0.38063 0.99527 0.49238 0.0
H1131 H 0.41447 0.02092 0.50219 0.0
C1132 C 0.33884 0.94229 0.46967 0.0
C1133 C 0.34541 0.91792 0.46966 0.0
C1134 C 0.35603 0.96047 0.46666 0.0
C1135 C 0.38022 0.95468 0.46389 0.0
C1136 C 0.38649 0.93023 0.46249 0.0
C1137 C 0.3693 0.91211 0.46519 0.0
C1138 C 0.44058 0.98555 0.45921 0.0
C1139 C 0.43884 0.00318 0.47753 0.0
C1140 C 0.42092 0.97102 0.45318 0.0
C1141 C 0.39919 0.9736 0.46561 0.0
C1142 C 0.39695 0.9927 0.48232 0.0
C1143 C 0.4165 0.00741 0.48809 0.0
H1144 H 0.86302 0.56531 0.28229 0.0
H1145 H 0.80958 0.52723 0.23987 0.0
H1146 H 0.84565 0.60351 0.27044 0.0
H1147 H 0.79233 0.56573 0.22757 0.0
H1148 H 0.75498 0.64075 0.23658 0.0
H1149 H 0.7708 0.60057 0.24397 0.0
H1150 H 0.84229 0.62827 0.23415 0.0
H1151 H 0.82661 0.6684 0.22727 0.0
C1152 C 0.84752 0.56509 0.27044 0.0
C1153 C 0.83771 0.54323 0.262 0.0
C1154 C 0.83768 0.58703 0.26344 0.0
C1155 C 0.8178 0.58771 0.24775 0.0
C1156 C 0.80761 0.56582 0.23972 0.0
C1157 C 0.81749 0.54379 0.24676 0.0
C1158 C 0.77404 0.63818 0.23554 0.0
C1159 C 0.78954 0.65788 0.23166 0.0
C1160 C 0.78311 0.61512 0.23978 0.0
C1161 C 0.80784 0.61132 0.24016 0.0
C1162 C 0.82318 0.63072 0.23465 0.0
C1163 C 0.81416 0.65371 0.23051 0.0
H1164 H 0.69689 0.46527 0.7572 0.0
H1165 H 0.62759 0.44277 0.73105 0.0
H1166 H 0.71397 0.42787 0.74174 0.0
H1167 H 0.64467 0.40635 0.71397 0.0
H1168 H 0.67175 0.33109 0.73121 0.0
H1169 H 0.65661 0.3714 0.73331 0.0
H1170 H 0.72504 0.39987 0.71064 0.0
H1171 H 0.74069 0.35877 0.70955 0.0
C1172 C 0.6855 0.45253 0.74756 0.0
C1173 C 0.6609 0.45636 0.74586 0.0
C1174 C 0.69527 0.43123 0.73848 0.0
C1175 C 0.68061 0.41376 0.72706 0.0
C1176 C 0.65636 0.41894 0.72341 0.0
C1177 C 0.64654 0.4398 0.73312 0.0
C1178 C 0.68359 0.34585 0.72634 0.0
C1179 C 0.70756 0.34173 0.72061 0.0
C1180 C 0.67478 0.36912 0.72726 0.0
C1181 C 0.68957 0.38907 0.72221 0.0
C1182 C 0.71324 0.38493 0.71497 0.0
C1183 C 0.72216 0.36141 0.71412 0.0
H1184 H 0.05399 0.81427 0.91502 0.0
H1185 H 0.99404 0.8367 0.87156 0.0
H1186 H 0.05274 0.85192 0.93799 0.0
H1187 H 0.99133 0.87353 0.89545 0.0
H1188 H 0.99273 0.94157 0.93755 0.0
H1189 H 0.00453 0.91069 0.90865 0.0
H1190 H 0.0288 0.86643 0.96875 0.0
H1191 H 0.01858 0.89834 -0.00268 0.0
C1192 C 0.04088 0.82765 0.91013 0.0
C1193 C 0.02424 0.82301 0.89158 0.0
C1194 C 0.03987 0.849 0.92348 0.0
C1195 C 0.0216 0.86563 0.91904 0.0
C1196 C 0.00584 0.86142 0.89932 0.0
C1197 C 0.00731 0.84032 0.88556 0.0
C1198 C 0.00078 0.92524 0.94445 0.0
C1199 C 0.00454 0.92206 0.96957 0.0
C1200 C 0.00747 0.9075 0.92792 0.0
C1201 C 0.01744 0.88586 0.93625 0.0
C1202 C 0.02163 0.88299 0.9615 0.0
C1203 C 0.01554 0.9011 0.97797 0.0
H1204 H 0.95468 0.24741 0.70971 0.0
H1205 H 0.91975 0.2245 0.64308 0.0
H1206 H 0.91585 0.25183 0.72921 0.0
H1207 H 0.88112 0.22867 0.66257 0.0
H1208 H 0.82338 0.27972 0.68695 0.0
H1209 H 0.86309 0.26889 0.6734 0.0
H1210 H 0.87608 0.23283 0.74194 0.0
H1211 H 0.83635 0.24379 0.75575 0.0
C1212 C 0.93879 0.24228 0.69961 0.0
C1213 C 0.9401 0.23603 0.67479 0.0
C1214 C 0.91658 0.24501 0.71069 0.0
C1215 C 0.89558 0.24142 0.69705 0.0
C1216 C 0.89709 0.23228 0.67321 0.0
C1217 C 0.91917 0.22961 0.66217 0.0
C1218 C 0.8348 0.26989 0.69934 0.0
C1219 C 0.82661 0.26248 0.72233 0.0
C1220 C 0.85742 0.26338 0.69146 0.0
C1221 C 0.87234 0.24947 0.70642 0.0
C1222 C 0.86481 0.24335 0.72999 0.0
C1223 C 0.8421 0.24972 0.73786 0.0
H1224 H 0.48412 0.24599 0.46399 0.0
H1225 H 0.51035 0.21405 0.39736 0.0
H1226 H 0.48149 0.2061 0.48254 0.0
H1227 H 0.50723 0.17433 0.41579 0.0
H1228 H 0.53261 0.11638 0.46835 0.0
H1229 H 0.5299 0.15502 0.44842 0.0
H1230 H 0.46038 0.16569 0.4799 0.0
H1231 H 0.4632 0.12649 0.50053 0.0
C1232 C 0.48924 0.2305 0.45327 0.0
C1233 C 0.49783 0.23326 0.42931 0.0
C1234 C 0.48746 0.20766 0.46383 0.0
C1235 C 0.49422 0.18718 0.45063 0.0
C1236 C 0.50221 0.18988 0.4265 0.0
C1237 C 0.50408 0.21266 0.41598 0.0
C1238 C 0.51665 0.12682 0.47111 0.0
C1239 C 0.49815 0.1184 0.4862 0.0
C1240 C 0.51504 0.14892 0.45945 0.0
C1241 C 0.4949 0.16328 0.46249 0.0
C1242 C 0.47618 0.15494 0.47736 0.0
C1243 C 0.47773 0.13253 0.48904 0.0
H1244 H 0.55313 0.74589 0.17645 0.0
H1245 H 0.5834 0.80877 0.14154 0.0
H1246 H 0.59218 0.73433 0.19066 0.0
H1247 H 0.6226 0.79828 0.15738 0.0
H1248 H 0.69302 0.76116 0.16358 0.0
H1249 H 0.65307 0.77189 0.15027 0.0
H1250 H 0.62419 0.73924 0.21569 0.0
H1251 H 0.66393 0.727 0.22773 0.0
C1252 C 0.56807 0.75779 0.17261 0.0
C1253 C 0.56519 0.77825 0.15784 0.0
C1254 C 0.59063 0.75112 0.18077 0.0
C1255 C 0.61087 0.76508 0.17493 0.0
C1256 C 0.60766 0.78655 0.16159 0.0
C1257 C 0.58512 0.79287 0.15285 0.0
C1258 C 0.67797 0.75575 0.17468 0.0
C1259 C 0.68148 0.74298 0.19648 0.0
C1260 C 0.65506 0.76231 0.16735 0.0
C1261 C 0.63519 0.75689 0.18206 0.0
C1262 C 0.63881 0.7435 0.20359 0.0
C1263 C 0.66165 0.73636 0.21053 0.0
H1264 H 0.99276 0.18814 0.61977 0.0
H1265 H 0.05356 0.21497 0.57969 0.0
H1266 H 0.00487 0.14708 0.61171 0.0
H1267 H 0.06653 0.17375 0.57262 0.0
H1268 H 0.06 0.09739 0.53776 0.0
H1269 H 0.05652 0.13942 0.54963 0.0
H1270 H 0.03251 0.11729 0.62124 0.0
H1271 H 0.03461 0.07527 0.60865 0.0
C1272 C 0.00888 0.1852 0.60944 0.0
C1273 C 0.02212 0.20469 0.60021 0.0
C1274 C 0.01605 0.16165 0.60507 0.0
C1275 C 0.0369 0.15702 0.59177 0.0
C1276 C 0.05027 0.17661 0.58271 0.0
C1277 C 0.04283 0.20022 0.58672 0.0
C1278 C 0.05459 0.10156 0.55624 0.0
C1279 C 0.04718 0.08321 0.57218 0.0
C1280 C 0.0526 0.12568 0.56309 0.0
C1281 C 0.04359 0.13179 0.58619 0.0
C1282 C 0.03866 0.11324 0.60299 0.0
C1283 C 0.04012 0.08918 0.59593 0.0
H1284 H 0.55374 0.2547 0.31251 0.0
H1285 H 0.59253 0.26886 0.37944 0.0
H1286 H 0.5912 0.24626 0.29173 0.0
H1287 H 0.62992 0.25999 0.35867 0.0
H1288 H 0.68545 0.21428 0.31506 0.0
H1289 H 0.64847 0.22215 0.33675 0.0
H1290 H 0.6289 0.27419 0.28186 0.0
H1291 H 0.6662 0.26663 0.26017 0.0
C1292 C 0.57022 0.25564 0.32285 0.0
C1293 C 0.5703 0.26245 0.34755 0.0
C1294 C 0.5916 0.25104 0.31092 0.0
C1295 C 0.6133 0.25274 0.32362 0.0
C1296 C 0.61333 0.25861 0.34855 0.0
C1297 C 0.592 0.26364 0.36038 0.0
C1298 C 0.67332 0.2275 0.30766 0.0
C1299 C 0.67863 0.23983 0.28589 0.0
C1300 C 0.65225 0.23201 0.32012 0.0
C1301 C 0.63592 0.24861 0.31082 0.0
C1302 C 0.64123 0.26113 0.2892 0.0
C1303 C 0.66257 0.25695 0.27694 0.0
H1304 H 0.48522 0.84692 0.14657 0.0
H1305 H 0.45902 0.80525 0.0854 0.0
H1306 H 0.47277 0.88394 0.12629 0.0
H1307 H 0.44486 0.84175 0.06589 0.0
H1308 H 0.46456 0.91021 0.02329 0.0
H1309 H 0.46331 0.87263 0.04518 0.0
H1310 H 0.44353 0.91034 0.11112 0.0
H1311 H 0.44609 0.94855 0.08913 0.0
C1312 C 0.47647 0.84576 0.12893 0.0
C1313 C 0.4737 0.8235 0.11713 0.0
C1314 C 0.46898 0.86688 0.11744 0.0
C1315 C 0.45802 0.86593 0.09423 0.0
C1316 C 0.45387 0.8433 0.08336 0.0
C1317 C 0.462 0.82237 0.09449 0.0
C1318 C 0.45943 0.91051 0.04234 0.0
C1319 C 0.45604 0.9324 0.05462 0.0
C1320 C 0.4585 0.88881 0.05496 0.0
C1321 C 0.4538 0.88839 0.08015 0.0
C1322 C 0.44788 0.91009 0.09188 0.0
C1323 C 0.44903 0.93196 0.07921 0.0
H1324 H 0.95047 0.75936 0.82667 0.0
H1325 H 0.9182 0.80922 0.87709 0.0
H1326 H 0.91204 0.75139 0.80817 0.0
H1327 H 0.87967 0.80216 0.85758 0.0
H1328 H 0.81123 0.76227 0.84065 0.0
H1329 H 0.85083 0.77097 0.85698 0.0
H1330 H 0.8802 0.76438 0.78442 0.0
H1331 H 0.84081 0.75439 0.76849 0.0
C1332 C 0.93527 0.76917 0.83342 0.0
C1333 C 0.93738 0.78465 0.85368 0.0
C1334 C 0.91313 0.7646 0.8227 0.0
C1335 C 0.89259 0.77571 0.83169 0.0
C1336 C 0.895 0.79266 0.85071 0.0
C1337 C 0.91715 0.79698 0.8617 0.0
C1338 C 0.8263 0.76213 0.82836 0.0
C1339 C 0.82303 0.75743 0.80338 0.0
C1340 C 0.84893 0.76755 0.8376 0.0
C1341 C 0.86871 0.76886 0.82196 0.0
C1342 C 0.86548 0.76333 0.79707 0.0
C1343 C 0.8429 0.75745 0.78793 0.0
H1344 H 0.87375 0.00085 0.83235 0.0
H1345 H 0.89145 0.07658 0.83153 0.0
H1346 H 0.88337 -0.00103 0.87572 0.0
H1347 H 0.9002 0.07526 0.87534 0.0
H1348 H 0.95676 0.04872 0.93124 0.0
H1349 H 0.93404 0.05831 0.89488 0.0
H1350 H 0.8781 0.00923 0.91767 0.0
H1351 H 0.90138 -0.00106 0.95383 0.0
C1352 C 0.87883 0.01727 0.84184 0.0
C1353 C 0.88203 0.0388 0.82898 0.0
C1354 C 0.88421 0.0163 0.86668 0.0
C1355 C 0.8929 0.03693 0.87894 0.0
C1356 C 0.894 0.05898 0.8663 0.0
C1357 C 0.88883 0.05984 0.84137 0.0
C1358 C 0.93947 0.04022 0.92871 0.0
C1359 C 0.9311 0.0227 0.94511 0.0
C1360 C 0.92627 0.04593 0.90795 0.0
C1361 C 0.90429 0.0344 0.90326 0.0
C1362 C 0.89517 0.01809 0.92056 0.0
C1363 C 0.9085 0.0122 0.94124 0.0
H1364 H 0.71452 0.19911 0.52004 0.0
H1365 H 0.78292 0.17848 0.54951 0.0
H1366 H 0.70743 0.22387 0.55612 0.0
H1367 H 0.77593 0.20382 0.5853 0.0
H1368 H 0.76129 0.26512 0.6381 0.0
H1369 H 0.76659 0.25089 0.59636 0.0
H1370 H 0.70344 0.20645 0.60281 0.0
H1371 H 0.69827 0.22016 0.6449 0.0
C1372 C 0.7283 0.20034 0.53391 0.0
C1373 C 0.74924 0.18673 0.53208 0.0
C1374 C 0.72415 0.21444 0.55453 0.0
C1375 C 0.74112 0.21562 0.57333 0.0
C1376 C 0.76267 0.20324 0.57087 0.0
C1377 C 0.76661 0.18869 0.5505 0.0
C1378 C 0.74818 0.25274 0.63051 0.0
C1379 C 0.7295 0.2435 0.64492 0.0
C1380 C 0.75132 0.24459 0.60665 0.0
C1381 C 0.73553 0.22752 0.59662 0.0
C1382 C 0.71579 0.21971 0.61025 0.0
C1383 C 0.71289 0.22749 0.63431 0.0
H1384 H 0.64137 0.97174 0.35409 0.0
H1385 H 0.60141 0.03518 0.33545 0.0
H1386 H 0.63459 0.97971 0.39763 0.0
H1387 H 0.59524 0.04353 0.37861 0.0
H1388 H 0.56606 0.98196 0.45192 0.0
H1389 H 0.59153 0.97684 0.41642 0.0
H1390 H 0.61393 0.05132 0.42158 0.0
H1391 H 0.58865 0.05653 0.45731 0.0
C1392 C 0.63199 0.98788 0.35939 0.0
C1393 C 0.62162 0.00275 0.34166 0.0
C1394 C 0.62809 0.99239 0.38418 0.0
C1395 C 0.61432 0.01215 0.39137 0.0
C1396 C 0.60607 0.02829 0.37357 0.0
C1397 C 0.60944 0.02344 0.3489 0.0
C1398 C 0.57679 -0.00288 0.44582 0.0
C1399 C 0.57489 0.01979 0.45701 0.0
C1400 C 0.59161 0.99409 0.4257 0.0
C1401 C 0.60456 0.01374 0.41627 0.0
C1402 C 0.60406 0.03594 0.42854 0.0
C1403 C 0.58949 0.03889 0.44888 0.0
H1404 H 0.75013 0.84226 0.08087 0.0
H1405 H 0.79127 0.79308 0.03702 0.0
H1406 H 0.76912 0.8269 0.11744 0.0
H1407 H 0.81052 0.77788 0.07392 0.0
H1408 H 0.80049 0.73845 0.15203 0.0
H1409 H 0.79778 0.75417 0.11048 0.0
H1410 H 0.80825 0.82646 0.13812 0.0
H1411 H 0.81007 0.81068 0.17962 0.0
C1412 C 0.76321 0.82818 0.07899 0.0
C1413 C 0.76905 0.81888 0.05597 0.0
C1414 C 0.77441 0.81963 0.09995 0.0
C1415 C 0.79172 0.80155 0.09847 0.0
C1416 C 0.79739 0.79195 0.07555 0.0
C1417 C 0.78623 0.8006 0.05448 0.0
C1418 C 0.80358 0.75752 0.14899 0.0
C1419 C 0.80526 0.77346 0.16881 0.0
C1420 C 0.80186 0.76657 0.12523 0.0
C1421 C 0.80194 0.7916 0.12126 0.0
C1422 C 0.80744 0.80713 0.14081 0.0
C1423 C 0.80885 0.79812 0.1645 0.0
H1424 H 0.91674 0.01166 0.69439 0.0
H1425 H 0.97163 0.98415 0.74228 0.0
H1426 H 0.93665 0.99367 0.65964 0.0
H1427 H 0.9912 0.9658 0.70747 0.0
H1428 H 0.03146 0.97776 0.6319 0.0
H1429 H 0.01284 0.98104 0.6718 0.0
H1430 H 0.94653 0.95442 0.64116 0.0
H1431 H 0.96534 0.95155 0.60109 0.0
C1432 C 0.93304 0.00185 0.69754 0.0
C1433 C 0.94263 -0.00043 0.72114 0.0
C1434 C 0.94423 0.99115 0.67767 0.0
C1435 C 0.96525 0.97793 0.68092 0.0
C1436 C 0.97498 0.9758 0.70444 0.0
C1437 C 0.9638 0.98649 0.72434 0.0
C1438 C 0.01331 0.97131 0.63409 0.0
C1439 C -0.00024 0.96434 0.61369 0.0
C1440 C 0.00255 0.97335 0.65688 0.0
C1441 C 0.97805 0.96864 0.65938 0.0
C1442 C 0.96533 0.95867 0.63955 0.0
C1443 C 0.97615 0.95661 0.61676 0.0
H1444 H 0.73078 0.11893 0.42553 0.0
H1445 H 0.80449 0.09799 0.42818 0.0
H1446 H 0.73413 0.12659 0.38185 0.0
H1447 H 0.80821 0.10647 0.38434 0.0
H1448 H 0.8034 0.17708 0.33102 0.0
H1449 H 0.8047 0.15092 0.3669 0.0
H1450 H 0.7448 0.10992 0.33893 0.0
H1451 H 0.74348 0.1357 0.30309 0.0
C1452 C 0.74741 0.11503 0.41645 0.0
C1453 C 0.76733 0.10781 0.42992 0.0
C1454 C 0.74938 0.11942 0.39151 0.0
C1455 C 0.77151 0.11732 0.37986 0.0
C1456 C 0.791 0.10823 0.39299 0.0
C1457 C 0.78882 0.10321 0.41791 0.0
C1458 C 0.7909 0.16214 0.33223 0.0
C1459 C 0.77297 0.15891 0.31452 0.0
C1460 C 0.79178 0.14703 0.35264 0.0
C1461 C 0.77471 0.12856 0.35566 0.0
C1462 C 0.75804 0.12413 0.33705 0.0
C1463 C 0.75725 0.13907 0.31663 0.0
H1464 H 0.52793 0.02131 0.24111 0.0
H1465 H 0.58114 0.97602 0.20804 0.0
H1466 H 0.51175 0.03031 0.20082 0.0
H1467 H 0.56468 0.98488 0.1679 0.0
H1468 H 0.55354 0.03135 0.10162 0.0
H1469 H 0.56553 0.02315 0.14353 0.0
H1470 H 0.49189 0.01275 0.16368 0.0
H1471 H 0.4797 0.02116 0.12176 0.0
C1472 C 0.53585 0.0128 0.22535 0.0
C1473 C 0.55613 -0.00176 0.22783 0.0
C1474 C 0.52657 0.01804 0.20227 0.0
C1475 C 0.53741 0.00884 0.18125 0.0
C1476 C 0.55643 0.99277 0.18382 0.0
C1477 C 0.56566 0.98745 0.20686 0.0
C1478 C 0.53982 0.02782 0.11503 0.0
C1479 C 0.51567 0.02657 0.10821 0.0
C1480 C 0.54673 0.02281 0.13897 0.0
C1481 C 0.52967 0.01662 0.15664 0.0
C1482 C 0.50542 0.01724 0.15036 0.0
C1483 C 0.49848 0.02213 0.12635 0.0
H1484 H 0.71262 0.82173 0.94896 0.0
H1485 H 0.70858 0.89838 0.93611 0.0
H1486 H 0.70265 0.81396 0.90656 0.0
H1487 H 0.69894 0.8905 0.89293 0.0
H1488 H 0.73598 0.85252 0.82208 0.0
H1489 H 0.72705 0.87133 0.86105 0.0
H1490 H 0.67094 0.81893 0.87306 0.0
H1491 H 0.6799 0.79997 0.83387 0.0
C1492 C 0.70942 0.83693 0.93704 0.0
C1493 C 0.71177 0.86065 0.94561 0.0
C1494 C 0.70329 0.83247 0.91284 0.0
C1495 C 0.69976 0.85163 0.89656 0.0
C1496 C 0.70138 0.87545 0.90525 0.0
C1497 C 0.70705 0.87993 0.92977 0.0
C1498 C 0.72121 0.84549 0.83267 0.0
C1499 C 0.70912 0.82434 0.82545 0.0
C1500 C 0.71592 0.85646 0.85485 0.0
C1501 C 0.69865 0.84624 0.8702 0.0
C1502 C 0.68454 0.82692 0.86156 0.0
C1503 C 0.68967 0.81608 0.8392 0.0
H1504 H 0.82392 0.88415 0.97742 0.0
H1505 H 0.77631 0.92324 0.02466 0.0
H1506 H 0.85757 0.90632 0.99462 0.0
H1507 H 0.8103 0.94534 0.04194 0.0
H1508 H 0.88313 0.99326 0.04144 0.0
H1509 H 0.84459 0.97471 0.03085 0.0
H1510 H 0.87592 0.90421 0.03684 0.0
H1511 H 0.91426 0.92272 0.04692 0.0
C1512 C 0.82053 0.89774 0.99114 0.0
C1513 C 0.79741 0.9016 -0.00011 0.0
C1514 C 0.83987 0.91023 0.00122 0.0
C1515 C 0.83655 0.92696 0.02016 0.0
C1516 C 0.81334 0.9323 0.0276 0.0
C1517 C 0.79391 0.91968 0.01759 0.0
C1518 C 0.88139 0.9738 0.04166 0.0
C1519 C 0.90155 0.95934 0.04485 0.0
C1520 C 0.85945 0.9632 0.03533 0.0
C1521 C 0.85759 0.9381 0.03223 0.0
C1522 C 0.87709 0.92366 0.03841 0.0
C1523 C 0.89891 0.93419 0.04457 0.0
H1524 H 0.35717 0.6311 -0.00458 0.0
H1525 H 0.31848 0.5769 0.03626 0.0
H1526 H 0.3938 0.6087 0.00103 0.0
H1527 H 0.35544 0.55444 0.04193 0.0
H1528 H 0.43379 0.53621 0.06462 0.0
H1529 H 0.39647 0.55816 0.06178 0.0
H1530 H 0.40783 0.56866 0.98459 0.0
H1531 H 0.44524 0.5467 0.98732 0.0
C1532 C 0.35652 0.61455 0.00588 0.0
C1533 C 0.33488 0.60566 0.01525 0.0
C1534 C 0.37749 0.60163 0.00889 0.0
C1535 C 0.37735 0.57964 0.02151 0.0
C1536 C 0.356 0.57134 0.03205 0.0
C1537 C 0.33489 0.58421 0.02886 0.0
C1538 C 0.42829 0.54308 0.04698 0.0
C1539 C 0.44256 0.53982 0.02618 0.0
C1540 C 0.40687 0.55555 0.0454 0.0
C1541 C 0.39939 0.56526 0.02304 0.0
C1542 C 0.41337 0.56161 0.00214 0.0
C1543 C 0.43468 0.5489 0.00366 0.0
H1544 H 0.10313 0.58138 0.73294 0.0
H1545 H 0.17123 0.55419 0.75645 0.0
H1546 H 0.12316 0.61 0.70603 0.0
H1547 H 0.19139 0.58359 0.73082 0.0
H1548 H 0.22812 0.634 0.6865 0.0
H1549 H 0.2024 0.5987 0.69252 0.0
H1550 H 0.14407 0.64572 0.7107 0.0
H1551 H 0.16939 0.68039 0.70347 0.0
C1552 C 0.12242 0.58181 0.73259 0.0
C1553 C 0.13568 0.56596 0.74714 0.0
C1554 C 0.13392 0.59808 0.71704 0.0
C1555 C 0.15897 0.59923 0.71611 0.0
C1556 C 0.17212 0.58297 0.73045 0.0
C1557 C 0.16059 0.56637 0.74557 0.0
C1558 C 0.20939 0.63662 0.69022 0.0
C1559 C 0.20071 0.65973 0.69488 0.0
C1560 C 0.19475 0.61645 0.69424 0.0
C1561 C 0.17145 0.6193 0.70324 0.0
C1562 C 0.16189 0.64261 0.70402 0.0
C1563 C 0.17641 0.66263 0.69976 0.0
H1564 H 0.19354 0.42926 0.52384 0.0
H1565 H 0.15448 0.3622 0.51694 0.0
H1566 H 0.15648 0.45121 0.52467 0.0
H1567 H 0.11706 0.38395 0.51946 0.0
H1568 H 0.0562 0.43043 0.49213 0.0
H1569 H 0.09302 0.40779 0.49545 0.0
H1570 H 0.12221 0.46272 0.54347 0.0
H1571 H 0.08606 0.48593 0.53863 0.0
C1572 C 0.17695 0.41913 0.52334 0.0
C1573 C 0.17691 0.39403 0.52018 0.0
C1574 C 0.15555 0.43174 0.52386 0.0
C1575 C 0.13352 0.41952 0.52176 0.0
C1576 C 0.13358 0.39415 0.52033 0.0
C1577 C 0.15503 0.38159 0.51926 0.0
C1578 C 0.07064 0.43769 0.50318 0.0
C1579 C 0.0684 0.46008 0.51481 0.0
C1580 C 0.09169 0.42457 0.5054 0.0
C1581 C 0.1108 0.43325 0.51985 0.0
C1582 C 0.10827 0.45558 0.53174 0.0
C1583 C 0.08747 0.46893 0.52901 0.0
H1584 H 0.83514 0.97041 0.76659 0.0
H1585 H 0.89968 0.93114 0.7811 0.0
H1586 H 0.81518 0.93317 0.7543 0.0
H1587 H 0.88017 0.894 0.76768 0.0
H1588 H 0.82716 0.83084 0.77474 0.0
H1589 H 0.85132 0.86655 0.78095 0.0
H1590 H 0.81249 0.90283 0.72357 0.0
H1591 H 0.78723 0.86693 0.71817 0.0
C1592 C 0.84503 0.95375 0.76714 0.0
C1593 C 0.86883 0.95356 0.77512 0.0
C1594 C 0.83373 0.93247 0.75971 0.0
C1595 C 0.84611 0.91058 0.75972 0.0
C1596 C 0.86998 0.91046 0.76771 0.0
C1597 C 0.88115 0.9317 0.77555 0.0
C1598 C 0.82392 0.84632 0.76318 0.0
C1599 C 0.80494 0.84632 0.74633 0.0
C1600 C 0.83798 0.8668 0.76661 0.0
C1601 C 0.83361 0.88777 0.75309 0.0
C1602 C 0.8159 0.88713 0.73474 0.0
C1603 C 0.80164 0.86652 0.73138 0.0
H1604 H 0.66846 0.11145 0.48508 0.0
H1605 H 0.71854 0.07993 0.53587 0.0
H1606 H 0.63571 0.09782 0.51041 0.0
H1607 H 0.68511 0.06585 0.56116 0.0
H1608 H 0.60281 0.02509 0.56246 0.0
H1609 H 0.64379 0.03633 0.55206 0.0
H1610 H 0.62559 0.11145 0.55744 0.0
H1611 H 0.58472 0.10029 0.56755 0.0
C1612 C 0.67256 0.10136 0.50147 0.0
C1613 C 0.69623 0.09705 0.50852 0.0
C1614 C 0.65375 0.09375 0.51609 0.0
C1615 C 0.65804 0.08142 0.538 0.0
C1616 C 0.6815 0.07569 0.54449 0.0
C1617 C 0.70052 0.08362 0.52992 0.0
C1618 C 0.60796 0.04396 0.56297 0.0
C1619 C 0.59061 0.06188 0.56539 0.0
C1620 C 0.63137 0.05037 0.55683 0.0
C1621 C 0.63749 0.0747 0.55336 0.0
C1622 C 0.6211 0.09255 0.55971 0.0
C1623 C 0.59778 0.08617 0.56571 0.0
H1624 H 0.14559 0.42474 0.80807 0.0
H1625 H 0.17436 0.44212 0.73723 0.0
H1626 H 0.17265 0.391 0.81152 0.0
H1627 H 0.20033 0.40734 0.73968 0.0
H1628 H 0.25794 0.35596 0.75467 0.0
H1629 H 0.23429 0.39238 0.75771 0.0
H1630 H 0.1809 0.3527 0.79847 0.0
H1631 H 0.20553 0.31701 0.79685 0.0
C1632 C 0.15736 0.42093 0.79296 0.0
C1633 C 0.15786 0.43591 0.77232 0.0
C1634 C 0.17291 0.40156 0.79491 0.0
C1635 C 0.18894 0.39639 0.77599 0.0
C1636 C 0.18882 0.41108 0.75499 0.0
C1637 C 0.17368 0.43082 0.75335 0.0
C1638 C 0.24148 0.35538 0.76491 0.0
C1639 C 0.23351 0.3338 0.77554 0.0
C1640 C 0.22768 0.3761 0.76632 0.0
C1641 C 0.20526 0.37545 0.77774 0.0
C1642 C 0.19807 0.3541 0.78965 0.0
C1643 C 0.21221 0.33357 0.7888 0.0
H1644 H 0.33055 0.55448 0.22223 0.0
H1645 H 0.38154 0.60026 0.25984 0.0
H1646 H 0.3025 0.58756 0.22071 0.0
H1647 H 0.35371 0.6336 0.25763 0.0
H1648 H 0.28831 0.6708 0.28668 0.0
H1649 H 0.31738 0.63923 0.2808 0.0
H1650 H 0.29113 0.62759 0.20739 0.0
H1651 H 0.26156 0.65894 0.21345 0.0
C1652 C 0.33611 0.57185 0.22942 0.0
C1653 C 0.35804 0.57463 0.24168 0.0
C1654 C 0.31998 0.59082 0.22856 0.0
C1655 C 0.3256 0.61293 0.23979 0.0
C1656 C 0.34858 0.61647 0.24957 0.0
C1657 C 0.36465 0.59748 0.25055 0.0
C1658 C 0.28848 0.66131 0.26939 0.0
C1659 C 0.27266 0.66746 0.25053 0.0
C1660 C 0.3054 0.64345 0.26588 0.0
C1661 C 0.30699 0.63137 0.24339 0.0
C1662 C 0.29043 0.63667 0.22489 0.0
C1663 C 0.27339 0.65452 0.22844 0.0
H1664 H 0.46643 0.71574 0.55873 0.0
H1665 H 0.51775 0.68591 0.60877 0.0
H1666 H 0.44656 0.67666 0.5555 0.0
H1667 H 0.49937 0.64619 0.60409 0.0
H1668 H 0.46326 0.57671 0.59846 0.0
H1669 H 0.46844 0.61887 0.61062 0.0
H1670 H 0.4524 0.6409 0.53656 0.0
H1671 H 0.44579 0.59948 0.52525 0.0
C1672 C 0.47379 0.70053 0.56851 0.0
C1673 C 0.49395 0.70347 0.5834 0.0
C1674 C 0.46237 0.67815 0.56681 0.0
C1675 C 0.4714 0.65801 0.57933 0.0
C1676 C 0.49152 0.66122 0.5945 0.0
C1677 C 0.50243 0.68383 0.59681 0.0
C1678 C 0.45985 0.59074 0.5852 0.0
C1679 C 0.45472 0.58491 0.5608 0.0
C1680 C 0.46323 0.61488 0.59199 0.0
C1681 C 0.46174 0.63338 0.57439 0.0
C1682 C 0.45381 0.62742 0.55074 0.0
C1683 C 0.45015 0.6035 0.54413 0.0
H1684 H 0.59134 0.25323 0.872 0.0
H1685 H 0.53853 0.22693 0.82057 0.0
H1686 H 0.62285 0.24149 0.84392 0.0
H1687 H 0.56998 0.21501 0.79271 0.0
H1688 H 0.63306 0.23985 0.74042 0.0
H1689 H 0.59863 0.2383 0.76754 0.0
H1690 H 0.64225 0.20661 0.824 0.0
H1691 H 0.67662 0.20841 0.79676 0.0
C1692 C 0.58648 0.24476 0.85484 0.0
C1693 C 0.56248 0.24128 0.84839 0.0
C1694 C 0.6045 0.23779 0.83885 0.0
C1695 C 0.59885 0.22727 0.81611 0.0
C1696 C 0.57486 0.22321 0.81001 0.0
C1697 C 0.55688 0.23008 0.826 0.0
C1698 C 0.63488 0.23147 0.75819 0.0
C1699 C 0.65721 0.22394 0.76652 0.0
C1700 C 0.61527 0.23072 0.7738 0.0
C1701 C 0.61789 0.22272 0.79805 0.0
C1702 C 0.63982 0.2132 0.80555 0.0
C1703 C 0.65937 0.21387 0.78989 0.0
H1704 H -0.00112 0.3496 0.13952 0.0
H1705 H 0.0254 0.32 0.07211 0.0
H1706 H 0.0099 0.39005 0.12581 0.0
H1707 H 0.03778 0.35996 0.05904 0.0
H1708 H 0.02267 0.43434 0.0287 0.0
H1709 H 0.01874 0.39398 0.04438 0.0
H1710 H 0.04012 0.41896 0.1161 0.0
H1711 H 0.04301 0.46016 0.10041 0.0
C1712 C 0.00737 0.35174 0.12192 0.0
C1713 C 0.01094 0.33173 0.10671 0.0
C1714 C 0.01394 0.37487 0.11416 0.0
C1715 C 0.02456 0.37837 0.09118 0.0
C1716 C 0.02909 0.35809 0.07655 0.0
C1717 C 0.02208 0.33511 0.08408 0.0
C1718 C 0.02686 0.43134 0.04778 0.0
C1719 C 0.03298 0.45062 0.06332 0.0
C1720 C 0.02477 0.40799 0.05679 0.0
C1721 C 0.02908 0.40308 0.08157 0.0
C1722 C 0.0363 0.42216 0.09699 0.0
C1723 C 0.03818 0.44573 0.08796 0.0
H1724 H 0.95136 0.78857 0.34221 0.0
H1725 H 0.90976 0.77095 0.40596 0.0
H1726 H 0.91537 0.78906 0.31743 0.0
H1727 H 0.87349 0.77047 0.38084 0.0
H1728 H 0.81046 0.78374 0.32876 0.0
H1729 H 0.84495 0.79196 0.35508 0.0
H1730 H 0.89045 0.7573 0.30253 0.0
H1731 H 0.85649 0.74972 0.2762 0.0
C1732 C 0.93443 0.78484 0.35093 0.0
C1733 C 0.93336 0.77925 0.37589 0.0
C1734 C 0.9138 0.78503 0.33671 0.0
C1735 C 0.89161 0.7792 0.347 0.0
C1736 C 0.89031 0.77505 0.37234 0.0
C1737 C 0.91104 0.77523 0.38672 0.0
C1738 C 0.82788 0.77808 0.32277 0.0
C1739 C 0.83067 0.76608 0.30032 0.0
C1740 C 0.84761 0.78269 0.33792 0.0
C1741 C 0.8705 0.77543 0.33087 0.0
C1742 C 0.8732 0.76363 0.30834 0.0
C1743 C 0.85361 0.7591 0.29326 0.0
H1744 H 0.47942 0.30621 0.94057 0.0
H1745 H 0.5213 0.34315 0.88604 0.0
H1746 H 0.47281 0.34398 0.96157 0.0
H1747 H 0.51553 0.38131 0.90786 0.0
H1748 H 0.49359 0.4485 0.95078 0.0
H1749 H 0.48904 0.41331 0.92404 0.0
H1750 H 0.50085 0.36658 0.98591 0.0
H1751 H 0.50494 0.4013 0.01241 0.0
C1752 C 0.48708 0.32249 0.93295 0.0
C1753 C 0.50129 0.3217 0.91197 0.0
C1754 C 0.48333 0.34417 0.94504 0.0
C1755 C 0.49416 0.36554 0.93678 0.0
C1756 C 0.50694 0.36513 0.9147 0.0
C1757 C 0.51035 0.34332 0.90227 0.0
C1758 C 0.49477 0.43067 0.95868 0.0
C1759 C 0.49974 0.42769 0.98372 0.0
C1760 C 0.49235 0.41055 0.94333 0.0
C1761 C 0.49457 0.38715 0.95282 0.0
C1762 C 0.49865 0.38431 0.978 0.0
C1763 C 0.5012 0.40428 0.99323 0.0
H1764 H 0.96813 0.22929 0.19006 0.0
H1765 H 0.92274 0.25452 0.13167 0.0
H1766 H 0.93364 0.20982 0.2093 0.0
H1767 H 0.88858 0.23545 0.15086 0.0
H1768 H 0.83248 0.18804 0.17838 0.0
H1769 H 0.87149 0.19575 0.16056 0.0
H1770 H 0.89692 0.22355 0.2297 0.0
H1771 H 0.85819 0.2154 0.24772 0.0
C1772 C 0.95083 0.23071 0.18138 0.0
C1773 C 0.94809 0.24357 0.15946 0.0
C1774 C 0.93114 0.21952 0.19234 0.0
C1775 C 0.90847 0.22087 0.18143 0.0
C1776 C 0.90589 0.2336 0.15944 0.0
C1777 C 0.92544 0.24482 0.1486 0.0
C1778 C 0.84654 0.19523 0.18996 0.0
C1779 C 0.84202 0.20167 0.2143 0.0
C1780 C 0.86885 0.19975 0.17971 0.0
C1781 C 0.88704 0.21083 0.19358 0.0
C1782 C 0.88325 0.21506 0.21853 0.0
C1783 C 0.86096 0.21048 0.22881 0.0
H1784 H 0.00844 0.70824 0.46662 0.0
H1785 H 0.01543 0.68633 0.39119 0.0
H1786 H 0.01678 0.66747 0.47975 0.0
H1787 H 0.0241 0.64531 0.40456 0.0
H1788 H 0.99568 0.5739 0.44131 0.0
H1789 H -0.00063 0.61376 0.42344 0.0
H1790 H 0.04681 0.63539 0.48199 0.0
H1791 H 0.04283 0.59526 0.50021 0.0
C1792 C 0.01192 0.69478 0.45279 0.0
C1793 C 0.01086 0.70053 0.42779 0.0
C1794 C 0.01705 0.67143 0.46038 0.0
C1795 C 0.02119 0.65318 0.44321 0.0
C1796 C 0.02083 0.659 0.41821 0.0
C1797 C 0.01579 0.68246 0.41057 0.0
C1798 C 0.00728 0.58699 0.45017 0.0
C1799 C 0.01859 0.58162 0.47244 0.0
C1800 C 0.00955 0.60981 0.43977 0.0
C1801 C 0.02311 0.62782 0.45148 0.0
C1802 C 0.03594 0.62192 0.47277 0.0
C1803 C 0.03379 0.59894 0.48312 0.0
H1804 H 0.55191 0.80117 0.66381 0.0
H1805 H 0.59625 0.78279 0.60247 0.0
H1806 H 0.58728 0.81045 0.68803 0.0
H1807 H 0.63178 0.79088 0.62707 0.0
H1808 H 0.69332 0.81513 0.67481 0.0
H1809 H 0.65762 0.81818 0.64913 0.0
H1810 H 0.61571 0.78584 0.70673 0.0
H1811 H 0.65061 0.7837 0.73231 0.0
C1812 C 0.56926 0.79905 0.65555 0.0
C1813 C 0.57136 0.7908 0.63145 0.0
C1814 C 0.58955 0.80435 0.66941 0.0
C1815 C 0.61242 0.80098 0.65967 0.0
C1816 C 0.61448 0.79386 0.63512 0.0
C1817 C 0.59412 0.789 0.62109 0.0
C1818 C 0.67635 0.80913 0.68206 0.0
C1819 C 0.67489 0.79899 0.70553 0.0
C1820 C 0.65594 0.81071 0.66731 0.0
C1821 C 0.63376 0.80221 0.67582 0.0
C1822 C 0.63231 0.79299 0.69964 0.0
C1823 C 0.65251 0.79151 0.71429 0.0
H1824 H 0.54888 0.53217 0.72044 0.0
H1825 H 0.60883 0.48644 0.70503 0.0
H1826 H 0.52978 0.51919 0.6828 0.0
H1827 H 0.5893 0.47288 0.66739 0.0
H1828 H 0.55674 0.48187 0.5886 0.0
H1829 H 0.57764 0.48696 0.62733 0.0
H1830 H 0.51041 0.4845 0.66539 0.0
H1831 H 0.48945 0.48029 0.62658 0.0
C1832 C 0.55798 0.5193 0.70901 0.0
C1833 C 0.58038 0.51037 0.71573 0.0
C1834 C 0.54689 0.51161 0.68753 0.0
C1835 C 0.55778 0.49461 0.67229 0.0
C1836 C 0.58044 0.48601 0.67871 0.0
C1837 C 0.59167 0.49386 0.70022 0.0
C1838 C 0.54644 0.4818 0.60528 0.0
C1839 C 0.52139 0.4812 0.60449 0.0
C1840 C 0.55846 0.48472 0.62752 0.0
C1841 C 0.54565 0.48685 0.64938 0.0
C1842 C 0.52075 0.48376 0.64876 0.0
C1843 C 0.50874 0.48111 0.62655 0.0
H1844 H 0.78979 0.3211 0.94448 0.0
H1845 H 0.757 0.38509 0.91527 0.0
H1846 H 0.78557 0.30131 0.90522 0.0
H1847 H 0.7533 0.36535 0.87542 0.0
H1848 H 0.71855 0.30964 0.82354 0.0
H1849 H 0.72816 0.33282 0.85998 0.0
H1850 H 0.79745 0.29973 0.86316 0.0
H1851 H 0.7876 0.27598 0.82693 0.0
C1852 C 0.78206 0.33112 0.92949 0.0
C1853 C 0.77341 0.35453 0.93301 0.0
C1854 C 0.7798 0.3198 0.9069 0.0
C1855 C 0.76887 0.33165 0.88726 0.0
C1856 C 0.76142 0.35561 0.89037 0.0
C1857 C 0.76369 0.36698 0.91309 0.0
C1858 C 0.73583 0.30723 0.83202 0.0
C1859 C 0.75225 0.29082 0.82244 0.0
C1860 C 0.74145 0.32077 0.85276 0.0
C1861 C 0.76365 0.31829 0.86435 0.0
C1862 C 0.78011 0.3019 0.85475 0.0
C1863 C 0.77444 0.28824 0.83405 0.0
H1864 H 0.94946 0.52261 0.24174 0.0
H1865 H 0.89077 0.50309 0.19429 0.0
H1866 H 0.96789 0.54543 0.20883 0.0
H1867 H 0.90977 0.52485 0.16078 0.0
H1868 H 0.94513 0.56574 0.10275 0.0
H1869 H 0.92414 0.56039 0.14124 0.0
H1870 H 0.98853 0.53286 0.17411 0.0
H1871 H 0.00955 0.53899 0.13617 0.0
C1872 C 0.9405 0.52326 0.22419 0.0
C1873 C 0.91901 0.51062 0.22029 0.0
C1874 C 0.95106 0.53633 0.20533 0.0
C1875 C 0.94064 0.53659 0.18196 0.0
C1876 C 0.91828 0.52523 0.17855 0.0
C1877 C 0.90745 0.51253 0.19765 0.0
C1878 C 0.95495 0.55916 0.11841 0.0
C1879 C 0.97888 0.55219 0.11621 0.0
C1880 C 0.94285 0.55593 0.14043 0.0
C1881 C 0.95441 0.54558 0.16062 0.0
C1882 C 0.97896 0.54092 0.15903 0.0
C1883 C 0.99107 0.54432 0.13712 0.0
H1884 H 0.73364 0.6935 0.44381 0.0
H1885 H 0.72146 0.61981 0.42116 0.0
H1886 H 0.7248 0.70732 0.40306 0.0
H1887 H 0.71126 0.63378 0.38005 0.0
H1888 H 0.73536 0.66853 0.30587 0.0
H1889 H 0.73094 0.64963 0.34572 0.0
H1890 H 0.69686 0.71393 0.3727 0.0
H1891 H 0.70315 0.7333 0.33329 0.0
C1892 C 0.7286 0.68026 0.43012 0.0
C1893 C 0.72846 0.65559 0.43554 0.0
C1894 C 0.72318 0.68821 0.40672 0.0
C1895 C 0.71705 0.67172 0.38816 0.0
C1896 C 0.71614 0.64697 0.39381 0.0
C1897 C 0.72195 0.63896 0.41731 0.0
C1898 C 0.72642 0.67831 0.32024 0.0
C1899 C 0.72004 0.70245 0.31691 0.0
C1900 C 0.72376 0.66747 0.34307 0.0
C1901 C 0.71419 0.68052 0.36271 0.0
C1902 C 0.70517 0.7037 0.35827 0.0
C1903 C 0.70854 0.71476 0.33571 0.0
H1904 H 0.64597 0.52436 0.85369 0.0
H1905 H 0.57566 0.50053 0.83173 0.0
H1906 H 0.63068 0.53458 0.89422 0.0
H1907 H 0.56063 0.5094 0.87206 0.0
H1908 H 0.53164 0.54099 0.9382 0.0
H1909 H 0.5502 0.54072 0.8981 0.0
H1910 H 0.61638 0.51759 0.93086 0.0
H1911 H 0.59817 0.51931 0.97097 0.0
C1912 C 0.62735 0.52101 0.8577 0.0
C1913 C 0.61196 0.5117 0.83969 0.0
C1914 C 0.61855 0.52688 0.88084 0.0
C1915 C 0.59428 0.5232 0.88639 0.0
C1916 C 0.5792 0.51331 0.86834 0.0
C1917 C 0.58787 0.50788 0.84526 0.0
C1918 C 0.5503 0.53641 0.93683 0.0
C1919 C 0.56334 0.52984 0.95764 0.0
C1920 C 0.56092 0.536 0.91384 0.0
C1921 C 0.58462 0.52838 0.9111 0.0
C1922 C 0.59813 0.52356 0.93218 0.0
C1923 C 0.58764 0.52448 0.95524 0.0
H1924 H 0.75066 0.35376 0.06591 0.0
H1925 H 0.80574 0.30105 0.05486 0.0
H1926 H 0.73722 0.33181 0.10209 0.0
H1927 H 0.79275 0.27959 0.09111 0.0
H1928 H 0.75145 0.23105 0.13899 0.0
H1929 H 0.75905 0.25479 0.10247 0.0
H1930 H 0.74848 0.32029 0.14356 0.0
H1931 H 0.74014 0.29648 0.18 0.0
C1932 C 0.76019 0.33778 0.07147 0.0
C1933 C 0.77916 0.32902 0.05746 0.0
C1934 C 0.75243 0.32517 0.09213 0.0
C1935 C 0.76359 0.30367 0.09914 0.0
C1936 C 0.78328 0.29567 0.08575 0.0
C1937 C 0.7909 0.30812 0.06511 0.0
C1938 C 0.7503 0.2505 0.14013 0.0
C1939 C 0.74556 0.2619 0.16244 0.0
C1940 C 0.75486 0.26412 0.11926 0.0
C1941 C 0.75504 0.28944 0.12032 0.0
C1942 C 0.74855 0.30082 0.14218 0.0
C1943 C 0.74376 0.28716 0.16306 0.0
H1944 H 0.92238 0.44848 0.31616 0.0
H1945 H 0.86287 0.47594 0.357 0.0
H1946 H 0.94324 0.43958 0.35396 0.0
H1947 H 0.88412 0.46709 0.39518 0.0
H1948 H 0.93135 0.44477 0.46024 0.0
H1949 H 0.90807 0.43472 0.42331 0.0
H1950 H 0.9572 0.477 0.38006 0.0
H1951 H 0.97971 0.48756 0.4168 0.0
C1952 C 0.91348 0.45208 0.33323 0.0
C1953 C 0.8913 0.46353 0.33371 0.0
C1954 C 0.92541 0.44681 0.35484 0.0
C1955 C 0.9154 0.453 0.37732 0.0
C1956 C 0.89211 0.46207 0.37797 0.0
C1957 C 0.88005 0.46727 0.3562 0.0
C1958 C 0.93743 0.45121 0.44264 0.0
C1959 C 0.95725 0.46675 0.44103 0.0
C1960 C 0.9241 0.44561 0.42169 0.0
C1961 C 0.93095 0.45504 0.39898 0.0
C1962 C 0.95175 0.46925 0.39734 0.0
C1963 C 0.96461 0.47531 0.41825 0.0
H1964 H 0.76525 0.65527 0.57057 0.0
H1965 H 0.72839 0.72169 0.5554 0.0
H1966 H 0.77894 0.67184 0.60962 0.0
H1967 H 0.74152 0.73785 0.5943 0.0
H1968 H 0.77861 0.77039 0.65644 0.0
H1969 H 0.77605 0.75219 0.61604 0.0
H1970 H 0.76219 0.68269 0.6489 0.0
H1971 H 0.76558 0.70075 0.68932 0.0
C1972 C 0.75998 0.67332 0.57558 0.0
C1973 C 0.74563 0.68711 0.55989 0.0
C1974 C 0.76785 0.68281 0.59792 0.0
C1975 C 0.76152 0.70625 0.60497 0.0
C1976 C 0.74724 0.71997 0.5892 0.0
C1977 C 0.73947 0.71057 0.56695 0.0
C1978 C 0.77553 0.75114 0.65504 0.0
C1979 C 0.77183 0.73709 0.67602 0.0
C1980 C 0.77392 0.74072 0.6319 0.0
C1981 C 0.76828 0.71611 0.62926 0.0
C1982 C 0.76656 0.70169 0.65028 0.0
C1983 C 0.76843 0.71208 0.67347 0.0
H1984 H 0.68107 0.58992 0.49785 0.0
H1985 H 0.63921 0.65458 0.49172 0.0
H1986 H 0.64469 0.56572 0.4985 0.0
H1987 H 0.6028 0.63046 0.4933 0.0
H1988 H 0.54132 0.57837 0.47695 0.0
H1989 H 0.578 0.60199 0.47196 0.0
H1990 H 0.61298 0.55712 0.52543 0.0
H1991 H 0.57697 0.53323 0.52971 0.0
C1992 C 0.6641 0.599 0.49687 0.0
C1993 C 0.66307 0.6242 0.49495 0.0
C1994 C 0.6432 0.58512 0.4973 0.0
C1995 C 0.62074 0.59613 0.49613 0.0
C1996 C 0.61974 0.62133 0.49391 0.0
C1997 C 0.64066 0.63519 0.49321 0.0
C1998 C 0.55692 0.57352 0.48749 0.0
C1999 C 0.5562 0.55385 0.50364 0.0
C2000 C 0.5779 0.58712 0.48475 0.0
C2001 C 0.59852 0.58142 0.49823 0.0
C2002 C 0.59768 0.56175 0.51434 0.0
C2003 C 0.57688 0.54811 0.51691 0.0
H2004 H 0.19885 0.88214 0.51125 0.0
H2005 H 0.23514 0.94849 0.53065 0.0
H2006 H 0.16095 0.89978 0.52228 0.0
H2007 H 0.19729 0.96592 0.54275 0.0
H2008 H 0.12434 -0.00146 0.525 0.0
H2009 H 0.16334 0.98056 0.52227 0.0
H2010 H 0.13534 0.91443 0.55306 0.0
H2011 H 0.09583 0.93224 0.55488 0.0
C2012 C 0.19876 0.90038 0.51831 0.0
C2013 C 0.2199 0.91406 0.51977 0.0
C2014 C 0.17702 0.91046 0.52484 0.0
C2015 C 0.17597 0.93438 0.53325 0.0
C2016 C 0.19735 0.94763 0.53585 0.0
C2017 C 0.21907 0.93762 0.52903 0.0
C2018 C 0.12649 0.98025 0.53147 0.0
C2019 C 0.10688 0.96676 0.53995 0.0
C2020 C 0.14898 0.96996 0.53007 0.0
C2021 C 0.15255 0.94597 0.53735 0.0
C2022 C 0.13315 0.9328 0.54687 0.0
C2023 C 0.11052 0.94305 0.54804 0.0
H2024 H 0.37647 0.88875 0.77918 0.0
H2025 H 0.31378 0.93326 0.78102 0.0
H2026 H 0.35179 0.85298 0.78227 0.0
H2027 H 0.28885 0.89715 0.78516 0.0
H2028 H 0.2553 0.82708 0.75233 0.0
H2029 H 0.27567 0.86503 0.76021 0.0
H2030 H 0.32681 0.82823 0.80577 0.0
H2031 H 0.30698 0.78993 0.7968 0.0
C2032 C 0.35738 0.89095 0.78063 0.0
C2033 C 0.3471 0.91392 0.7795 0.0
C2034 C 0.34316 0.87033 0.78271 0.0
C2035 C 0.31823 0.87204 0.78402 0.0
C2036 C 0.30796 0.89509 0.78381 0.0
C2037 C 0.32224 0.91581 0.78146 0.0
C2038 C 0.27062 0.8271 0.76442 0.0
C2039 C 0.27983 0.80539 0.77351 0.0
C2040 C 0.28228 0.84898 0.76908 0.0
C2041 C 0.30325 0.84972 0.78321 0.0
C2042 C 0.31115 0.82825 0.79416 0.0
C2043 C 0.29969 0.80629 0.78918 0.0
H2044 H 0.28877 0.06609 0.01178 0.0
H2045 H 0.31773 0.13401 0.98639 0.0
H2046 H 0.32898 0.05223 0.02083 0.0
H2047 H 0.35777 0.1204 -0.00405 0.0
H2048 H 0.40282 0.04157 0.05241 0.0
H2049 H 0.36341 0.05923 0.04785 0.0
H2050 H 0.38485 0.09097 0.97926 0.0
H2051 H 0.4242 0.07388 0.98397 0.0
C2052 C 0.3037 0.07809 0.00828 0.0
C2053 C 0.30015 0.10101 -0.00186 0.0
C2054 C 0.3267 0.07025 0.01366 0.0
C2055 C 0.34652 0.08523 0.00906 0.0
C2056 C 0.34287 0.10833 -0.00063 0.0
C2057 C 0.31993 0.11612 0.99393 0.0
C2058 C 0.39922 0.05259 0.03653 0.0
C2059 C 0.41661 0.05616 0.01847 0.0
C2060 C 0.3766 0.06255 0.03385 0.0
C2061 C 0.37099 0.07631 0.01311 0.0
C2062 C 0.38868 0.08064 -0.00444 0.0
C2063 C 0.41123 0.07071 -0.00179 0.0
H2064 H 0.67204 0.57254 0.76497 0.0
H2065 H 0.62443 0.60119 0.8193 0.0
H2066 H 0.69541 0.60963 0.7663 0.0
H2067 H 0.64833 0.63804 0.82124 0.0
H2068 H 0.67435 0.71028 0.78855 0.0
H2069 H 0.65447 0.67192 0.79534 0.0
H2070 H 0.72179 0.63539 0.78905 0.0
H2071 H 0.7417 0.67392 0.78141 0.0
C2072 C 0.66675 0.58662 0.77747 0.0
C2073 C 0.64613 0.58406 0.79172 0.0
C2074 C 0.6803 0.60785 0.77839 0.0
C2075 C 0.67368 0.62693 0.79377 0.0
C2076 C 0.65366 0.62391 0.80883 0.0
C2077 C 0.63997 0.60276 0.80774 0.0
C2078 C 0.68502 0.69414 0.78888 0.0
C2079 C 0.70959 0.69518 0.78407 0.0
C2080 C 0.67361 0.67208 0.79297 0.0
C2081 C 0.68648 0.65049 0.79253 0.0
C2082 C 0.71127 0.65164 0.78902 0.0
C2083 C 0.7227 0.67374 0.78477 0.0
H2084 H 0.82186 0.43335 0.99189 0.0
H2085 H 0.87367 0.37782 0.97859 0.0
H2086 H 0.85371 0.46339 0.99377 0.0
H2087 H 0.90555 0.40775 0.98123 0.0
H2088 H 0.95796 0.46899 0.97218 0.0
H2089 H 0.92434 0.4423 0.96285 0.0
H2090 H 0.88465 0.47383 0.02206 0.0
H2091 H 0.91781 0.50089 0.03087 0.0
C2092 C 0.84004 0.42753 0.98936 0.0
C2093 C 0.84522 0.40311 0.98537 0.0
C2094 C 0.85831 0.44476 0.99052 0.0
C2095 C 0.88222 0.43797 0.9879 0.0
C2096 C 0.88733 0.41368 0.98307 0.0
C2097 C 0.86904 0.39646 0.98172 0.0
C2098 C 0.94195 0.47039 0.98303 0.0
C2099 C 0.94065 0.48698 0.00238 0.0
C2100 C 0.92272 0.455 0.97776 0.0
C2101 C 0.90183 0.45579 0.9918 0.0
C2102 C 0.90031 0.47292 0.01064 0.0
C2103 C 0.91944 0.48837 0.0158 0.0
H2104 H 0.36179 0.07115 0.76293 0.0
H2105 H 0.2982 0.03153 0.74222 0.0
H2106 H 0.34317 0.1085 0.75072 0.0
H2107 H 0.27955 0.06922 0.72934 0.0
H2108 H 0.24826 0.1473 0.7405 0.0
H2109 H 0.26389 0.1067 0.74598 0.0
H2110 H 0.33093 0.12981 0.71489 0.0
H2111 H 0.31559 0.17041 0.71022 0.0
C2112 C 0.34382 0.0704 0.75566 0.0
C2113 C 0.33148 0.04836 0.75358 0.0
C2114 C 0.33319 0.09185 0.74838 0.0
C2115 C 0.30995 0.09189 0.73868 0.0
C2116 C 0.29745 0.06984 0.73679 0.0
C2117 C 0.30813 0.04827 0.74415 0.0
C2118 C 0.26613 0.14352 0.7343 0.0
C2119 C 0.28083 0.16212 0.72529 0.0
C2120 C 0.27511 0.12024 0.73746 0.0
C2121 C 0.29888 0.11514 0.73147 0.0
C2122 C 0.31279 0.1333 0.72043 0.0
C2123 C 0.30394 0.15653 0.71755 0.0
H2124 H 0.19029 0.96675 0.2528 0.0
H2125 H 0.11945 0.93642 0.24586 0.0
H2126 H 0.20726 0.92728 0.24401 0.0
H2127 H 0.13625 0.89736 0.2361 0.0
H2128 H 0.2301 0.85317 0.21539 0.0
H2129 H 0.21326 0.89381 0.21538 0.0
H2130 H 0.15571 0.86854 0.26114 0.0
H2131 H 0.17185 0.82849 0.26065 0.0
C2132 C 0.17837 0.95173 0.24896 0.0
C2133 C 0.15357 0.95446 0.25054 0.0
C2134 C 0.18808 0.92918 0.24374 0.0
C2135 C 0.17311 0.90907 0.23975 0.0
C2136 C 0.14829 0.91232 0.23974 0.0
C2137 C 0.13864 0.9347 0.24529 0.0
C2138 C 0.21371 0.85634 0.22518 0.0
C2139 C 0.20237 0.83754 0.23801 0.0
C2140 C 0.20414 0.87961 0.22528 0.0
C2141 C 0.18303 0.8844 0.23811 0.0
C2142 C 0.17168 0.86546 0.25061 0.0
C2143 C 0.18113 0.84242 0.2505 0.0
H2144 H 0.47767 0.35556 0.38932 0.0
H2145 H 0.5536 0.35569 0.37789 0.0
H2146 H 0.48068 0.39535 0.40807 0.0
H2147 H 0.55689 0.39547 0.3975 0.0
H2148 H 0.54091 0.43024 0.47887 0.0
H2149 H 0.54737 0.40261 0.4446 0.0
H2150 H 0.49415 0.43988 0.40231 0.0
H2151 H 0.48764 0.46725 0.43628 0.0
C2152 C 0.49485 0.36465 0.39001 0.0
C2153 C 0.51535 0.353 0.38209 0.0
C2154 C 0.49664 0.38734 0.40072 0.0
C2155 C 0.51907 0.39834 0.40425 0.0
C2156 C 0.53946 0.3873 0.39489 0.0
C2157 C 0.53755 0.36476 0.38359 0.0
C2158 C 0.53121 0.43294 0.46196 0.0
C2159 C 0.51328 0.45027 0.46042 0.0
C2160 C 0.535 0.41731 0.44232 0.0
C2161 C 0.52095 0.41903 0.42105 0.0
C2162 C 0.50497 0.43808 0.41863 0.0
C2163 C 0.50116 0.45356 0.43816 0.0
H2164 H 0.45216 0.75323 0.21392 0.0
H2165 H 0.41438 0.73624 0.1471 0.0
H2166 H 0.41406 0.75829 0.23491 0.0
H2167 H 0.3766 0.74111 0.16799 0.0
H2168 H 0.31835 0.78644 0.19865 0.0
H2169 H 0.35826 0.77937 0.18323 0.0
H2170 H 0.37501 0.73795 0.24764 0.0
H2171 H 0.33509 0.74515 0.26335 0.0
C2172 C 0.43577 0.74979 0.20395 0.0
C2173 C 0.43618 0.74465 0.17882 0.0
C2174 C 0.41399 0.75287 0.21591 0.0
C2175 C 0.39245 0.75085 0.20283 0.0
C2176 C 0.39297 0.74353 0.1783 0.0
C2177 C 0.41459 0.74047 0.16642 0.0
C2178 C 0.33063 0.77626 0.20981 0.0
C2179 C 0.32337 0.76613 0.23209 0.0
C2180 C 0.35341 0.77197 0.20084 0.0
C2181 C 0.36947 0.75757 0.21397 0.0
C2182 C 0.36291 0.74894 0.23707 0.0
C2183 C 0.34004 0.75313 0.24603 0.0
H2184 H 0.9457 0.71825 0.93226 0.0
H2185 H 0.00671 0.68737 0.89663 0.0
H2186 H 0.93704 0.67974 0.95174 0.0
H2187 H -0.00129 0.64914 0.91679 0.0
H2188 H 0.9839 0.58185 0.9532 0.0
H2189 H 0.97544 0.61427 0.92446 0.0
H2190 H 0.95627 0.66034 0.98491 0.0
H2191 H 0.96362 0.62732 0.01329 0.0
C2192 C 0.95712 0.7031 0.92842 0.0
C2193 C 0.97721 0.70585 0.9134 0.0
C2194 C 0.95216 0.68108 0.93959 0.0
C2195 C 0.9674 0.66147 0.93624 0.0
C2196 C 0.98643 0.66377 0.91967 0.0
C2197 C 0.99118 0.68574 0.90821 0.0
C2198 C 0.97702 0.59871 0.96009 0.0
C2199 C 0.97449 0.60242 0.98525 0.0
C2200 C 0.97238 0.6173 0.94373 0.0
C2201 C 0.96576 0.64008 0.95239 0.0
C2202 C 0.96122 0.643 0.97753 0.0
C2203 C 0.96547 0.62419 0.99386 0.0
H2204 H 0.05144 0.26514 0.68621 0.0
H2205 H 0.08319 0.30777 0.62856 0.0
H2206 H 0.09067 0.2595 0.70435 0.0
H2207 H 0.12231 0.30166 0.64645 0.0
H2208 H 0.18798 0.29945 0.69511 0.0
H2209 H 0.14828 0.30957 0.68104 0.0
H2210 H 0.12541 0.23581 0.6921 0.0
H2211 H 0.16516 0.22567 0.70683 0.0
C2212 C 0.06668 0.27368 0.67762 0.0
C2213 C 0.06417 0.28663 0.65571 0.0
C2214 C 0.08918 0.27019 0.68789 0.0
C2215 C 0.1096 0.27967 0.67653 0.0
C2216 C 0.10692 0.29409 0.65564 0.0
C2217 C 0.08444 0.29758 0.64536 0.0
C2218 C 0.17457 0.28528 0.69448 0.0
C2219 C 0.17979 0.26168 0.7021 0.0
C2220 C 0.15179 0.29114 0.68638 0.0
C2221 C 0.13368 0.27356 0.68563 0.0
C2222 C 0.13891 0.24988 0.69292 0.0
C2223 C 0.16175 0.24399 0.70108 0.0
H2224 H 0.55271 0.71136 0.09064 0.0
H2225 H 0.4874 0.68671 0.12413 0.0
H2226 H 0.56494 0.6699 0.08474 0.0
H2227 H 0.49887 0.6451 0.11699 0.0
H2228 H 0.56138 0.59493 0.04818 0.0
H2229 H 0.55656 0.63675 0.06019 0.0
H2230 H 0.52397 0.61358 0.12779 0.0
H2231 H 0.52759 0.57177 0.1149 0.0
C2232 C 0.54082 0.697 0.09645 0.0
C2233 C 0.51897 0.70221 0.1076 0.0
C2234 C 0.54782 0.6732 0.09305 0.0
C2235 C 0.53293 0.65402 0.10029 0.0
C2236 C 0.5111 0.65933 0.11162 0.0
C2237 C 0.50433 0.68317 0.11548 0.0
C2238 C 0.55377 0.59882 0.06587 0.0
C2239 C 0.54461 0.58021 0.08049 0.0
C2240 C 0.55096 0.62283 0.07282 0.0
C2241 C 0.53935 0.62865 0.09477 0.0
C2242 C 0.53224 0.60983 0.11039 0.0
C2243 C 0.53459 0.58587 0.10319 0.0
H2244 H 0.04357 0.75142 0.80049 0.0
H2245 H 0.07763 0.71675 0.86166 0.0
H2246 H 0.08072 0.7508 0.77801 0.0
H2247 H 0.11447 0.71414 0.83854 0.0
H2248 H 0.18326 0.74346 0.80945 0.0
H2249 H 0.14438 0.7407 0.82864 0.0
H2250 H 0.1114 0.73296 0.75736 0.0
H2251 H 0.15045 0.73769 0.73837 0.0
C2252 C 0.05883 0.74271 0.80869 0.0
C2253 C 0.05792 0.73435 0.83285 0.0
C2254 C 0.08022 0.74236 0.79581 0.0
C2255 C 0.10096 0.73307 0.80665 0.0
C2256 C 0.09921 0.72243 0.82995 0.0
C2257 C 0.07801 0.72348 0.84309 0.0
C2258 C 0.16754 0.74177 0.798 0.0
C2259 C 0.16959 0.74125 0.77256 0.0
C2260 C 0.14526 0.73964 0.80893 0.0
C2261 C 0.12458 0.73605 0.79465 0.0
C2262 C 0.12676 0.73594 0.76902 0.0
C2263 C 0.14908 0.73876 0.75807 0.0
H2264 H 0.95973 0.33599 0.65465 0.0
H2265 H 0.9857 0.31749 0.58295 0.0
H2266 H 0.94642 0.37492 0.63908 0.0
H2267 H 0.973 0.3563 0.56761 0.0
H2268 H 0.93959 0.41797 0.53766 0.0
H2269 H 0.93762 0.37911 0.55831 0.0
H2270 H 0.96515 0.41226 0.62425 0.0
H2271 H 0.96598 0.45134 0.60378 0.0
C2272 C 0.96267 0.3403 0.63561 0.0
C2273 C 0.9738 0.32382 0.61997 0.0
C2274 C 0.95498 0.3625 0.62672 0.0
C2275 C 0.95829 0.36849 0.60206 0.0
C2276 C 0.96953 0.35195 0.58655 0.0
C2277 C 0.97713 0.32983 0.59539 0.0
C2278 C 0.94424 0.41702 0.55687 0.0
C2279 C 0.95328 0.43732 0.56913 0.0
C2280 C 0.94333 0.39483 0.56861 0.0
C2281 C 0.95205 0.39255 0.59257 0.0
C2282 C 0.95841 0.41344 0.60573 0.0
C2283 C 0.95888 0.43581 0.59406 0.0
H2284 H 0.45331 0.28624 0.3222 0.0
H2285 H 0.42082 0.26826 0.39117 0.0
H2286 H 0.42007 0.26699 0.30063 0.0
H2287 H 0.38852 0.24752 0.36992 0.0
H2288 H 0.32 0.25181 0.32369 0.0
H2289 H 0.35526 0.2583 0.34821 0.0
H2290 H 0.39879 0.23177 0.28917 0.0
H2291 H 0.36289 0.22639 0.26402 0.0
C2292 C 0.43904 0.27807 0.33268 0.0
C2293 C 0.43917 0.27934 0.35825 0.0
C2294 C 0.42022 0.26661 0.32039 0.0
C2295 C 0.4015 0.25564 0.33349 0.0
C2296 C 0.40226 0.25622 0.35917 0.0
C2297 C 0.42069 0.26824 0.37138 0.0
C2298 C 0.33706 0.24662 0.31624 0.0
C2299 C 0.33887 0.23901 0.29191 0.0
C2300 C 0.35739 0.25026 0.33036 0.0
C2301 C 0.38005 0.24616 0.3205 0.0
C2302 C 0.38164 0.2358 0.29705 0.0
C2303 C 0.36111 0.23227 0.28278 0.0
H2304 H 0.39415 0.48717 0.34122 0.0
H2305 H 0.36276 0.55779 0.34204 0.0
H2306 H 0.39968 0.489 0.38533 0.0
H2307 H 0.36913 0.56009 0.38651 0.0
H2308 H 0.43755 0.55808 0.44427 0.0
H2309 H 0.41333 0.56027 0.40719 0.0
H2310 H 0.37684 0.4945 0.4274 0.0
H2311 H 0.40067 0.49229 0.46455 0.0
C2312 C 0.38793 0.50283 0.35103 0.0
C2313 C 0.37812 0.52235 0.33851 0.0
C2314 C 0.39094 0.50384 0.37623 0.0
C2315 C 0.38479 0.52469 0.38919 0.0
C2316 C 0.37385 0.54381 0.37682 0.0
C2317 C 0.37019 0.54247 0.35155 0.0
C2318 C 0.4239 0.54447 0.44118 0.0
C2319 C 0.42154 0.52465 0.45695 0.0
C2320 C 0.40989 0.54587 0.42009 0.0
C2321 C 0.39347 0.5274 0.41447 0.0
C2322 C 0.38949 0.50887 0.43138 0.0
C2323 C 0.4033 0.50758 0.45253 0.0
H2324 H 0.25321 0.72548 0.02341 0.0
H2325 H 0.2745 0.6618 0.06319 0.0
H2326 H 0.2424 0.74485 0.06185 0.0
H2327 H 0.26362 0.68125 0.1013 0.0
H2328 H 0.21018 0.70602 0.15619 0.0
H2329 H 0.2206 0.69295 0.11527 0.0
H2330 H 0.26157 0.75827 0.10455 0.0
H2331 H 0.25132 0.77156 0.14575 0.0
C2332 C 0.256 0.71577 0.04032 0.0
C2333 C 0.26439 0.69192 0.04021 0.0
C2334 C 0.24978 0.7269 0.06225 0.0
C2335 C 0.25167 0.71424 0.08429 0.0
C2336 C 0.26154 0.69111 0.08437 0.0
C2337 C 0.26797 0.68009 0.06256 0.0
C2338 C 0.22103 0.71789 0.14504 0.0
C2339 C 0.23036 0.73959 0.15445 0.0
C2340 C 0.2271 0.7103 0.12168 0.0
C2341 C 0.2424 0.72435 0.1072 0.0
C2342 C 0.24994 0.74707 0.11558 0.0
C2343 C 0.244 0.75464 0.13911 0.0
H2344 H 0.08899 0.53813 0.83208 0.0
H2345 H 0.14534 0.49125 0.85612 0.0
H2346 H 0.07776 0.54515 0.87454 0.0
H2347 H 0.13349 0.49766 0.89874 0.0
H2348 H 0.06569 0.48686 0.95481 0.0
H2349 H 0.08893 0.48449 0.91721 0.0
H2350 H 0.09788 0.56178 0.91731 0.0
H2351 H 0.07514 0.56434 0.95504 0.0
C2352 C 0.09921 0.52972 0.84652 0.0
C2353 C 0.11794 0.51416 0.84101 0.0
C2354 C 0.09287 0.53378 0.87072 0.0
C2355 C 0.10479 0.52186 0.88969 0.0
C2356 C 0.12415 0.50703 0.88429 0.0
C2357 C 0.13094 0.50349 0.86004 0.0
C2358 C 0.07297 0.5033 0.94705 0.0
C2359 C 0.06827 0.5258 0.95766 0.0
C2360 C 0.08641 0.5019 0.92572 0.0
C2361 C 0.09504 0.52298 0.91455 0.0
C2362 C 0.09135 0.54534 0.92571 0.0
C2363 C 0.07828 0.54673 0.94723 0.0
H2364 H 0.28188 0.28725 0.5335 0.0
H2365 H 0.24138 0.34215 0.57042 0.0
H2366 H 0.29761 0.27367 0.57249 0.0
H2367 H 0.25664 0.32801 0.60945 0.0
H2368 H 0.30018 0.3161 0.67394 0.0
H2369 H 0.29402 0.32858 0.63174 0.0
H2370 H 0.28627 0.25393 0.61028 0.0
H2371 H 0.29335 0.24157 0.65249 0.0
C2372 C 0.27601 0.29623 0.54994 0.0
C2373 C 0.26043 0.31598 0.54875 0.0
C2374 C 0.28512 0.28841 0.5723 0.0
C2375 C 0.27884 0.30009 0.59401 0.0
C2376 C 0.26244 0.3191 0.59295 0.0
C2377 C 0.25338 0.32699 0.57059 0.0
C2378 C 0.29836 0.30238 0.65994 0.0
C2379 C 0.2972 0.27793 0.66632 0.0
C2380 C 0.29434 0.3095 0.63589 0.0
C2381 C 0.28872 0.29228 0.61789 0.0
C2382 C 0.29036 0.26765 0.62377 0.0
C2383 C 0.29469 0.26052 0.64788 0.0
H2384 H 0.46828 0.47206 0.2478 0.0
H2385 H 0.41816 0.51136 0.20312 0.0
H2386 H 0.48731 0.4568 0.21106 0.0
H2387 H 0.43743 0.49634 0.16661 0.0
H2388 H 0.46013 0.45483 0.10437 0.0
H2389 H 0.44198 0.45761 0.14471 0.0
H2390 H 0.51114 0.47286 0.17641 0.0
H2391 H 0.52916 0.46958 0.13605 0.0
C2392 C 0.46146 0.4777 0.2302 0.0
C2393 C 0.44161 0.49296 0.22844 0.0
C2394 C 0.47232 0.46881 0.20918 0.0
C2395 C 0.46351 0.47491 0.18602 0.0
C2396 C 0.44417 0.49073 0.18426 0.0
C2397 C 0.43336 0.49966 0.20521 0.0
C2398 C 0.47152 0.45741 0.12021 0.0
C2399 C 0.49596 0.46178 0.11737 0.0
C2400 C 0.46114 0.45944 0.14319 0.0
C2401 C 0.47508 0.46615 0.16352 0.0
C2402 C 0.49995 0.46772 0.16106 0.0
C2403 C 0.51032 0.46563 0.13804 0.0
H2404 H 0.27429 0.59684 0.91536 0.0
H2405 H 0.28527 0.67337 0.92595 0.0
H2406 H 0.2777 0.60265 0.87084 0.0
H2407 H 0.28912 0.6789 0.88239 0.0
H2408 H 0.31043 0.68628 0.80879 0.0
H2409 H 0.31753 0.66572 0.84739 0.0
H2410 H 0.24995 0.62854 0.84041 0.0
H2411 H 0.24279 0.64882 0.80164 0.0
C2412 C 0.27758 0.61475 0.90821 0.0
C2413 C 0.27926 0.6347 0.92398 0.0
C2414 C 0.27967 0.61802 0.88291 0.0
C2415 C 0.28414 0.64113 0.87338 0.0
C2416 C 0.28624 0.66082 0.88931 0.0
C2417 C 0.28367 0.65768 0.91426 0.0
C2418 C 0.29737 0.67324 0.81511 0.0
C2419 C 0.27564 0.66989 0.8027 0.0
C2420 C 0.30154 0.66134 0.83708 0.0
C2421 C 0.28404 0.646 0.84696 0.0
C2422 C 0.26368 0.64032 0.83312 0.0
C2423 C 0.2595 0.65219 0.81108 0.0
H2424 H 0.10812 0.50082 0.70252 0.0
H2425 H 0.03638 0.48993 0.72848 0.0
H2426 H 0.09296 0.51118 0.66251 0.0
H2427 H 0.02095 0.49841 0.68774 0.0
H2428 H 0.99684 0.54035 0.62267 0.0
H2429 H 0.01405 0.53067 0.66237 0.0
H2430 H 0.07577 0.50118 0.62639 0.0
H2431 H 0.05941 0.51263 0.58725 0.0
C2432 C 0.08909 0.49954 0.69931 0.0
C2433 C 0.07341 0.49448 0.71855 0.0
C2434 C 0.0803 0.50563 0.67629 0.0
C2435 C 0.05559 0.50616 0.67177 0.0
C2436 C 0.04003 0.49911 0.69064 0.0
C2437 C 0.04883 0.49369 0.71388 0.0
C2438 C 0.0144 0.53246 0.62343 0.0
C2439 C 0.02681 0.5274 0.6019 0.0
C2440 C 0.02411 0.52642 0.64615 0.0
C2441 C 0.04614 0.51453 0.64776 0.0
C2442 C 0.05894 0.5105 0.62614 0.0
C2443 C 0.04954 0.51717 0.60355 0.0
H2444 H 0.22248 0.32118 0.43324 0.0
H2445 H 0.23573 0.3965 0.41806 0.0
H2446 H 0.22164 0.31252 0.38981 0.0
H2447 H 0.23543 0.38759 0.37395 0.0
H2448 H 0.27348 0.33995 0.30946 0.0
H2449 H 0.26471 0.36023 0.34785 0.0
H2450 H 0.19696 0.32298 0.35122 0.0
H2451 H 0.20559 0.30256 0.31291 0.0
C2452 C 0.22512 0.33593 0.42053 0.0
C2453 C 0.22937 0.35946 0.42892 0.0
C2454 C 0.22436 0.331 0.39567 0.0
C2455 C 0.22823 0.34944 0.37859 0.0
C2456 C 0.23224 0.37313 0.38685 0.0
C2457 C 0.23245 0.37819 0.41195 0.0
C2458 C 0.25645 0.3365 0.31805 0.0
C2459 C 0.24053 0.31907 0.30853 0.0
C2460 C 0.25137 0.34832 0.33991 0.0
C2461 C 0.23035 0.34284 0.35258 0.0
C2462 C 0.21343 0.32726 0.34186 0.0
C2463 C 0.21843 0.31552 0.31998 0.0
H2464 H 0.33399 0.37463 0.4729 0.0
H2465 H 0.28692 0.41137 0.52252 0.0
H2466 H 0.36791 0.39579 0.49101 0.0
H2467 H 0.3209 0.43181 0.54117 0.0
H2468 H 0.38737 0.48273 0.54808 0.0
H2469 H 0.35112 0.46165 0.53511 0.0
H2470 H 0.39079 0.3957 0.52779 0.0
H2471 H 0.42708 0.4171 0.53981 0.0
C2472 C 0.33084 0.38731 0.48756 0.0
C2473 C 0.3077 0.39124 0.49621 0.0
C2474 C 0.35033 0.39921 0.49821 0.0
C2475 C 0.34721 0.41516 0.51793 0.0
C2476 C 0.32399 0.41972 0.52601 0.0
C2477 C 0.30447 0.40798 0.51523 0.0
C2478 C 0.38812 0.46355 0.54455 0.0
C2479 C 0.41001 0.45156 0.54481 0.0
C2480 C 0.36737 0.45146 0.53691 0.0
C2481 C 0.36817 0.42712 0.52969 0.0
C2482 C 0.38969 0.41464 0.53238 0.0
C2483 C 0.41041 0.42677 0.53968 0.0
H2484 H 0.84923 0.1283 0.49496 0.0
H2485 H 0.8176 0.08066 0.54843 0.0
H2486 H 0.88743 0.10862 0.50058 0.0
H2487 H 0.85599 0.06092 0.554 0.0
H2488 H 0.93606 0.04433 0.56808 0.0
H2489 H 0.89898 0.06693 0.56739 0.0
H2490 H 0.90006 0.06686 0.48857 0.0
H2491 H 0.93712 0.04433 0.48914 0.0
C2492 C 0.85052 0.11394 0.50827 0.0
C2493 C 0.83033 0.10583 0.52104 0.0
C2494 C 0.87237 0.10255 0.51132 0.0
C2495 C 0.87452 0.08293 0.52732 0.0
C2496 C 0.8548 0.07597 0.54147 0.0
C2497 C 0.83285 0.08729 0.53831 0.0
C2498 C 0.92836 0.04905 0.55058 0.0
C2499 C 0.9396 0.04257 0.52863 0.0
C2500 C 0.9071 0.06195 0.55024 0.0
C2501 C 0.89682 0.06888 0.52796 0.0
C2502 C 0.90784 0.06211 0.50603 0.0
C2503 C 0.92894 0.04901 0.50636 0.0
H2504 H 0.65951 0.02802 0.23536 0.0
H2505 H 0.62286 0.08792 0.26833 0.0
H2506 H 0.68316 0.05608 0.211 0.0
H2507 H 0.64673 0.11579 0.24438 0.0
H2508 H 0.68126 0.16463 0.19714 0.0
H2509 H 0.65446 0.13031 0.20318 0.0
H2510 H 0.7149 0.08552 0.21988 0.0
H2511 H 0.74158 0.11973 0.21289 0.0
C2512 C 0.65649 0.04715 0.23747 0.0
C2513 C 0.63938 0.05574 0.25398 0.0
C2514 C 0.66999 0.06318 0.22339 0.0
C2515 C 0.66661 0.08811 0.22548 0.0
C2516 C 0.64936 0.09664 0.24182 0.0
C2517 C 0.63589 0.08067 0.25587 0.0
C2518 C 0.68881 0.14705 0.20057 0.0
C2519 C 0.71334 0.14467 0.20468 0.0
C2520 C 0.6735 0.12751 0.20445 0.0
C2521 C 0.68255 0.10552 0.21291 0.0
C2522 C 0.70737 0.10228 0.2135 0.0
C2523 C 0.72272 0.12181 0.2093 0.0
H2524 H 0.68779 0.91624 0.06211 0.0
H2525 H 0.65152 0.85838 0.02387 0.0
H2526 H 0.65085 0.93891 0.06305 0.0
H2527 H 0.61525 0.88137 0.02342 0.0
H2528 H 0.54954 0.92534 0.02827 0.0
H2529 H 0.58268 0.89995 0.03998 0.0
H2530 H 0.63069 0.9611 0.03335 0.0
H2531 H 0.59713 0.98672 0.02318 0.0
C2532 C 0.6718 0.90811 0.05444 0.0
C2533 C 0.67267 0.88575 0.04249 0.0
C2534 C 0.6507 0.92127 0.0546 0.0
C2535 C 0.6302 0.91243 0.04252 0.0
C2536 C 0.63055 0.88892 0.03289 0.0
C2537 C 0.65149 0.87564 0.03312 0.0
C2538 C 0.56723 0.93329 0.02918 0.0
C2539 C 0.57084 0.95794 0.02446 0.0
C2540 C 0.58626 0.91874 0.03597 0.0
C2541 C 0.6095 0.92835 0.03767 0.0
C2542 C 0.61304 0.95307 0.03284 0.0
C2543 C 0.59388 0.96775 0.02659 0.0
H2544 H 0.34286 0.46546 0.2428 0.0
H2545 H 0.37921 0.41806 0.29304 0.0
H2546 H 0.32698 0.43076 0.22086 0.0
H2547 H 0.36261 0.38337 0.27151 0.0
H2548 H 0.34954 0.32471 0.22076 0.0
H2549 H 0.36757 0.36304 0.23293 0.0
H2550 H 0.29934 0.39756 0.22452 0.0
H2551 H 0.28169 0.35935 0.21139 0.0
C2552 C 0.34716 0.44764 0.24947 0.0
C2553 C 0.36248 0.44455 0.26965 0.0
C2554 C 0.33807 0.42776 0.23678 0.0
C2555 C 0.34397 0.40434 0.24407 0.0
C2556 C 0.35836 0.40122 0.26493 0.0
C2557 C 0.36758 0.4211 0.27754 0.0
C2558 C 0.33875 0.34079 0.22037 0.0
C2559 C 0.31428 0.3392 0.2153 0.0
C2560 C 0.34891 0.36261 0.22779 0.0
C2561 C 0.33465 0.38307 0.2306 0.0
C2562 C 0.31078 0.38208 0.22269 0.0
C2563 C 0.30068 0.36025 0.21492 0.0
H2564 H 0.17683 0.63493 0.97218 0.0
H2565 H 0.21997 0.59594 0.02413 0.0
H2566 H 0.14101 0.62007 0.99207 0.0
H2567 H 0.18391 0.58138 0.04434 0.0
H2568 H 0.10945 0.5419 0.05402 0.0
H2569 H 0.1483 0.55556 0.03926 0.0
H2570 H 0.12098 0.62755 0.03063 0.0
H2571 H 0.08214 0.61382 0.04483 0.0
C2572 C 0.17871 0.62305 0.98774 0.0
C2573 C 0.20135 0.6168 -0.00339 0.0
C2574 C 0.15814 0.61474 -0.00066 0.0
C2575 C 0.15961 0.60002 0.02018 0.0
C2576 C 0.18218 0.59277 0.02839 0.0
C2577 C 0.20284 0.60108 0.01673 0.0
C2578 C 0.11197 0.56081 0.04973 0.0
C2579 C 0.09266 0.57673 0.0503 0.0
C2580 C 0.13421 0.5686 0.04111 0.0
C2581 C 0.13751 0.59247 0.03307 0.0
C2582 C 0.1188 0.60886 0.03592 0.0
C2583 C 0.09662 0.60107 0.04437 0.0
H2584 H 0.64655 0.92717 0.22689 0.0
H2585 H 0.62936 0.91161 0.30198 0.0
H2586 H 0.6717 0.89172 0.22544 0.0
H2587 H 0.65578 0.87721 0.30132 0.0
H2588 H 0.69506 0.80709 0.28822 0.0
H2589 H 0.66563 0.83898 0.28891 0.0
H2590 H 0.70899 0.88079 0.23896 0.0
H2591 H 0.73737 0.84804 0.23707 0.0
C2592 C 0.64798 0.91593 0.24299 0.0
C2593 C 0.63609 0.92206 0.26452 0.0
C2594 C 0.66272 0.89584 0.24236 0.0
C2595 C 0.66643 0.88186 0.26348 0.0
C2596 C 0.65337 0.88733 0.28462 0.0
C2597 C 0.63815 0.90708 0.28504 0.0
C2598 C 0.69839 0.82331 0.27771 0.0
C2599 C 0.71847 0.8252 0.26265 0.0
C2600 C 0.68149 0.84162 0.27804 0.0
C2601 C 0.68461 0.86247 0.26371 0.0
C2602 C 0.70544 0.86474 0.24961 0.0
C2603 C 0.72199 0.84616 0.24881 0.0
H2604 H 0.87974 0.10603 0.73696 0.0
H2605 H 0.82431 0.05473 0.71774 0.0
H2606 H 0.85084 0.13843 0.73557 0.0
H2607 H 0.79533 0.0872 0.7167 0.0
H2608 H 0.75345 0.15951 0.7073 0.0
H2609 H 0.78152 0.12705 0.69946 0.0
H2610 H 0.81865 0.14436 0.76652 0.0
H2611 H 0.79091 0.17671 0.77439 0.0
C2612 C 0.86155 0.10176 0.7317 0.0
C2613 C 0.85418 0.07778 0.72802 0.0
C2614 C 0.84495 0.12027 0.73117 0.0
C2615 C 0.82073 0.11513 0.72691 0.0
C2616 C 0.81386 0.09161 0.72031 0.0
C2617 C 0.8305 0.07304 0.72081 0.0
C2618 C 0.76737 0.15614 0.72058 0.0
C2619 C 0.77004 0.1709 0.74139 0.0
C2620 C 0.7835 0.13763 0.71598 0.0
C2621 C 0.80264 0.13368 0.73201 0.0
C2622 C 0.80448 0.14751 0.75345 0.0
C2623 C 0.78836 0.16585 0.75812 0.0
loop_
_geom_bond_atom_site_label_1
_geom_bond_atom_site_label_2
_geom_bond_distance
_geom_bond_site_symmetry_2
_ccdc_geom_bond_type
Co0 O1 2.209 1_455 S
Co0 O2 2.086 1_455 S
Co0 O4 2.011 . S
Co0 O10 2.021 . S
Co0 O12 2.137 1_455 S
Co0 O13 2.246 . S
O1 Co0 2.209 1_655 S
O1 C8 1.247 . S
O2 Co0 2.086 1_655 S
O2 C8 1.261 . S
C3 O12 1.247 1_455 S
C3 O13 1.272 . S
O4 Co0 2.011 . S
O4 C9 1.259 . S
Co5 O6 2.061 . S
Co5 O11 2.052 . S
Co5 O13 2.135 . S
O6 Co5 2.061 . S
O6 C9 1.235 . S
C7 O10 1.238 . S
C7 O11 1.241 . S
C8 O1 1.247 . S
C8 O2 1.261 . S
C9 O4 1.259 . S
C9 O6 1.235 . S
O10 Co0 2.021 . S
O10 C7 1.238 . S
O11 Co5 2.052 . S
O11 C7 1.241 . S
O12 Co0 2.137 1_655 S
O12 C3 1.247 1_655 S
O13 Co0 2.246 . S
O13 C3 1.272 . S
O13 Co5 2.135 . S
Co14 O15 2.216 . S
Co14 O16 2.091 . S
Co14 O18 2.004 1_455 S
Co14 O24 2.021 . S
Co14 O26 2.137 . S
Co14 O27 2.231 1_455 S
O15 Co14 2.216 . S
O15 C22 1.247 . S
O16 Co14 2.091 . S
O16 C22 1.261 . S
C17 O26 1.247 . S
C17 O27 1.260 1_455 S
O18 Co14 2.004 1_655 S
O18 C23 1.259 . S
Co19 O20 2.061 . S
Co19 O25 2.052 . S
Co19 O27 2.171 . S
O20 Co19 2.061 . S
O20 C23 1.235 . S
C21 O24 1.238 . S
C21 O25 1.241 1_455 S
C22 O15 1.247 . S
C22 O16 1.261 . S
C23 O18 1.259 . S
C23 O20 1.235 . S
O24 Co14 2.021 . S
O24 C21 1.238 . S
O25 Co19 2.052 . S
O25 C21 1.241 1_655 S
O26 Co14 2.137 . S
O26 C17 1.247 . S
O27 Co14 2.231 1_655 S
O27 C17 1.260 1_655 S
O27 Co19 2.171 . S
Co28 O29 2.216 . S
Co28 O30 2.091 . S
Co28 O32 2.004 . S
Co28 O38 2.021 . S
Co28 O40 2.137 . S
Co28 O41 2.244 . S
O29 Co28 2.216 . S
O29 C36 1.247 . S
O30 Co28 2.091 . S
O30 C36 1.261 . S
C31 O40 1.247 . S
C31 O41 1.272 . S
O32 Co28 2.004 . S
O32 C37 1.259 . S
Co33 O34 2.061 . S
Co33 O39 2.052 . S
Co33 O41 2.135 . S
O34 Co33 2.061 . S
O34 C37 1.235 . S
C35 O38 1.238 . S
C35 O39 1.241 . S
C36 O29 1.247 . S
C36 O30 1.261 . S
C37 O32 1.259 . S
C37 O34 1.235 . S
O38 Co28 2.021 . S
O38 C35 1.238 . S
O39 Co33 2.052 . S
O39 C35 1.241 . S
O40 Co28 2.137 . S
O40 C31 1.247 . S
O41 Co28 2.244 . S
O41 C31 1.272 . S
O41 Co33 2.135 . S
Co42 O43 2.216 . S
Co42 O44 2.091 . S
Co42 O46 2.004 . S
Co42 O52 2.021 . S
Co42 O54 2.137 . S
Co42 O55 2.244 . S
O43 Co42 2.216 . S
O43 C50 1.247 . S
O44 Co42 2.091 . S
O44 C50 1.261 . S
C45 O54 1.247 . S
C45 O55 1.272 . S
O46 Co42 2.004 . S
O46 C51 1.259 . S
Co47 O48 2.061 . S
Co47 O53 2.052 . S
Co47 O55 2.135 . S
O48 Co47 2.061 . S
O48 C51 1.235 . S
C49 O52 1.238 . S
C49 O53 1.241 . S
C50 O43 1.247 . S
C50 O44 1.261 . S
C51 O46 1.259 . S
C51 O48 1.235 . S
O52 Co42 2.021 . S
O52 C49 1.238 . S
O53 Co47 2.052 . S
O53 C49 1.241 . S
O54 Co42 2.137 . S
O54 C45 1.247 . S
O55 Co42 2.244 . S
O55 C45 1.272 . S
O55 Co47 2.135 . S
Co56 O57 2.216 1_545 S
Co56 O58 2.091 1_545 S
Co56 O60 2.004 . S
Co56 O66 2.021 . S
Co56 O68 2.137 . S
Co56 O69 2.244 . S
O57 Co56 2.216 1_565 S
O57 C64 1.247 . S
O58 Co56 2.091 1_565 S
O58 C64 1.261 . S
C59 O68 1.247 . S
C59 O69 1.272 . S
O60 Co56 2.004 . S
O60 C65 1.259 . S
Co61 O62 2.061 . S
Co61 O67 2.052 . S
Co61 O69 2.135 . S
O62 Co61 2.061 . S
O62 C65 1.235 . S
C63 O66 1.238 . S
C63 O67 1.241 . S
C64 O57 1.247 . S
C64 O58 1.261 . S
C65 O60 1.259 . S
C65 O62 1.235 . S
O66 Co56 2.021 . S
O66 C63 1.238 . S
O67 Co61 2.052 . S
O67 C63 1.241 . S
O68 Co56 2.137 . S
O68 C59 1.247 . S
O69 Co56 2.244 . S
O69 C59 1.272 . S
O69 Co61 2.135 . S
Co70 O71 2.216 . S
Co70 O72 2.091 . S
Co70 O74 2.004 . S
Co70 O80 2.021 . S
Co70 O82 2.137 . S
Co70 O83 2.244 . S
O71 Co70 2.216 . S
O71 C78 1.247 . S
O72 Co70 2.091 . S
O72 C78 1.261 . S
C73 O82 1.247 . S
C73 O83 1.272 . S
O74 Co70 2.004 . S
O74 C79 1.259 . S
Co75 O76 2.061 . S
Co75 O81 2.052 . S
Co75 O83 2.135 . S
O76 Co75 2.061 . S
O76 C79 1.235 . S
C77 O80 1.238 . S
C77 O81 1.241 . S
C78 O71 1.247 . S
C78 O72 1.261 . S
C79 O74 1.259 . S
C79 O76 1.235 . S
O80 Co70 2.021 . S
O80 C77 1.238 . S
O81 Co75 2.052 . S
O81 C77 1.241 . S
O82 Co70 2.137 . S
O82 C73 1.247 . S
O83 Co70 2.244 . S
O83 C73 1.272 . S
O83 Co75 2.135 . S
Co84 O85 2.216 . S
Co84 O86 2.091 . S
Co84 O88 2.004 1_545 S
Co84 O94 2.021 . S
Co84 O96 2.137 . S
Co84 O97 2.244 1_545 S
O85 Co84 2.216 . S
O85 C92 1.247 . S
O86 Co84 2.091 . S
O86 C92 1.261 . S
C87 O96 1.251 . S
C87 O97 1.269 1_545 S
O88 Co84 2.004 1_565 S
O88 C93 1.259 . S
Co89 O90 2.061 . S
Co89 O95 2.052 . S
Co89 O97 2.135 . S
O90 Co89 2.061 . S
O90 C93 1.235 . S
C91 O94 1.238 1_565 S
C91 O95 1.241 . S
C92 O85 1.247 . S
C92 O86 1.261 . S
C93 O88 1.259 . S
C93 O90 1.235 . S
O94 Co84 2.021 . S
O94 C91 1.238 1_545 S
O95 Co89 2.052 . S
O95 C91 1.241 . S
O96 Co84 2.137 . S
O96 C87 1.251 . S
O97 Co84 2.244 1_565 S
O97 C87 1.269 1_565 S
O97 Co89 2.135 . S
Co98 O99 2.216 . S
Co98 O100 2.091 . S
Co98 O102 2.004 . S
Co98 O108 2.021 . S
Co98 O110 2.137 1_554 S
Co98 O111 2.244 1_554 S
O99 Co98 2.216 . S
O99 C106 1.247 . S
O100 Co98 2.091 . S
O100 C106 1.261 . S
C101 O110 1.247 . S
C101 O111 1.272 . S
O102 Co98 2.004 . S
O102 C107 1.259 . S
Co103 O104 2.061 . S
Co103 O109 2.052 . S
Co103 O111 2.135 1_554 S
O104 Co103 2.061 . S
O104 C107 1.235 . S
C105 O108 1.238 . S
C105 O109 1.241 . S
C106 O99 1.247 . S
C106 O100 1.261 . S
C107 O102 1.259 . S
C107 O104 1.235 . S
O108 Co98 2.021 . S
O108 C105 1.238 . S
O109 Co103 2.052 . S
O109 C105 1.241 . S
O110 Co98 2.137 1_556 S
O110 C101 1.247 . S
O111 Co98 2.244 1_556 S
O111 C101 1.272 . S
O111 Co103 2.135 1_556 S
Co112 O113 2.216 . S
Co112 O114 2.091 . S
Co112 O116 2.004 . S
Co112 O122 2.021 . S
Co112 O124 2.137 1_554 S
Co112 O125 2.244 1_554 S
O113 Co112 2.216 . S
O113 C120 1.247 . S
O114 Co112 2.091 . S
O114 C120 1.261 . S
C115 O124 1.247 . S
C115 O125 1.272 . S
O116 Co112 2.004 . S
O116 C121 1.259 . S
Co117 O118 2.061 . S
Co117 O123 2.052 . S
Co117 O125 2.135 1_554 S
O118 Co117 2.061 . S
O118 C121 1.235 . S
C119 O122 1.238 . S
C119 O123 1.241 . S
C120 O113 1.247 . S
C120 O114 1.261 . S
C121 O116 1.259 . S
C121 O118 1.235 . S
O122 Co112 2.021 . S
O122 C119 1.238 . S
O123 Co117 2.052 . S
O123 C119 1.241 . S
O124 Co112 2.137 1_556 S
O124 C115 1.247 . S
O125 Co112 2.244 1_556 S
O125 C115 1.272 . S
O125 Co117 2.135 1_556 S
Co126 O127 2.216 . S
Co126 O128 2.091 . S
Co126 O130 2.004 . S
Co126 O136 2.021 . S
Co126 O138 2.137 . S
Co126 O139 2.244 . S
O127 Co126 2.216 . S
O127 C134 1.247 . S
O128 Co126 2.091 . S
O128 C134 1.261 . S
C129 O138 1.247 . S
C129 O139 1.272 . S
O130 Co126 2.004 . S
O130 C135 1.259 . S
Co131 O132 2.061 . S
Co131 O137 2.052 . S
Co131 O139 2.135 . S
O132 Co131 2.061 . S
O132 C135 1.235 . S
C133 O136 1.238 . S
C133 O137 1.241 . S
C134 O127 1.247 . S
C134 O128 1.261 . S
C135 O130 1.259 . S
C135 O132 1.235 . S
O136 Co126 2.021 . S
O136 C133 1.238 . S
O137 Co131 2.052 . S
O137 C133 1.241 . S
O138 Co126 2.137 . S
O138 C129 1.247 . S
O139 Co126 2.244 . S
O139 C129 1.272 . S
O139 Co131 2.135 . S
Co140 O141 2.216 . S
Co140 O142 2.091 . S
Co140 O144 2.004 . S
Co140 O150 2.021 . S
Co140 O152 2.137 . S
Co140 O153 2.244 . S
O141 Co140 2.216 . S
O141 C148 1.247 . S
O142 Co140 2.091 . S
O142 C148 1.261 . S
C143 O152 1.247 . S
C143 O153 1.272 . S
O144 Co140 2.004 . S
O144 C149 1.259 . S
Co145 O146 2.061 . S
Co145 O151 2.052 . S
Co145 O153 2.135 . S
O146 Co145 2.061 . S
O146 C149 1.235 . S
C147 O150 1.238 . S
C147 O151 1.241 . S
C148 O141 1.247 . S
C148 O142 1.261 . S
C149 O144 1.259 . S
C149 O146 1.235 . S
O150 Co140 2.021 . S
O150 C147 1.238 . S
O151 Co145 2.052 . S
O151 C147 1.241 . S
O152 Co140 2.137 . S
O152 C143 1.247 . S
O153 Co140 2.244 . S
O153 C143 1.272 . S
O153 Co145 2.135 . S
Co154 O155 2.216 . S
Co154 O156 2.091 . S
Co154 O158 2.004 . S
Co154 O164 2.021 . S
Co154 O166 2.137 . S
Co154 O167 2.244 . S
O155 Co154 2.216 . S
O155 C162 1.247 . S
O156 Co154 2.091 . S
O156 C162 1.261 . S
C157 O166 1.247 . S
C157 O167 1.272 . S
O158 Co154 2.004 . S
O158 C163 1.259 . S
Co159 O160 2.061 . S
Co159 O165 2.052 . S
Co159 O167 2.135 . S
O160 Co159 2.061 . S
O160 C163 1.235 . S
C161 O164 1.238 . S
C161 O165 1.241 . S
C162 O155 1.247 . S
C162 O156 1.261 . S
C163 O158 1.259 . S
C163 O160 1.235 . S
O164 Co154 2.021 . S
O164 C161 1.238 . S
O165 Co159 2.052 . S
O165 C161 1.241 . S
O166 Co154 2.137 . S
O166 C157 1.247 . S
O167 Co154 2.244 . S
O167 C157 1.272 . S
O167 Co159 2.135 . S
Co168 O169 2.216 . S
Co168 O170 2.091 . S
Co168 O172 2.004 1_455 S
Co168 O178 2.021 . S
Co168 O180 2.137 . S
Co168 O181 2.244 1_455 S
O169 Co168 2.216 . S
O169 C176 1.247 . S
O170 Co168 2.091 . S
O170 C176 1.261 . S
C171 O180 1.247 . S
C171 O181 1.272 1_455 S
O172 Co168 2.004 1_655 S
O172 C177 1.259 . S
Co173 O174 2.061 . S
Co173 O179 2.052 . S
Co173 O181 2.135 . S
O174 Co173 2.061 . S
O174 C177 1.235 . S
C175 O178 1.251 . S
C175 O179 1.220 1_455 S
C176 O169 1.247 . S
C176 O170 1.261 . S
C177 O172 1.259 . S
C177 O174 1.235 . S
O178 Co168 2.021 . S
O178 C175 1.251 . S
O179 Co173 2.052 . S
O179 C175 1.220 1_655 S
O180 Co168 2.137 . S
O180 C171 1.247 . S
O181 Co168 2.244 1_655 S
O181 C171 1.272 1_655 S
O181 Co173 2.135 . S
Co182 O183 2.171 1_455 S
Co182 O184 2.062 1_455 S
Co182 O186 2.045 . S
Co182 O192 2.025 . S
Co182 O194 2.135 1_455 S
Co182 O195 2.258 . S
O183 Co182 2.171 1_655 S
O183 C190 1.247 . S
O184 Co182 2.062 1_655 S
O184 C190 1.261 . S
C185 O194 1.247 1_455 S
C185 O195 1.272 . S
O186 Co182 2.045 . S
O186 C191 1.259 . S
Co187 O188 2.061 . S
Co187 O193 2.052 . S
Co187 O195 2.135 . S
O188 Co187 2.061 . S
O188 C191 1.235 . S
C189 O192 1.238 . S
C189 O193 1.241 . S
C190 O183 1.247 . S
C190 O184 1.261 . S
C191 O186 1.259 . S
C191 O188 1.235 . S
O192 Co182 2.025 . S
O192 C189 1.238 . S
O193 Co187 2.052 . S
O193 C189 1.241 . S
O194 Co182 2.135 1_655 S
O194 C185 1.247 1_655 S
O195 Co182 2.258 . S
O195 C185 1.272 . S
O195 Co187 2.135 . S
Co196 O197 2.216 . S
Co196 O198 2.091 . S
Co196 O200 2.004 . S
Co196 O206 2.021 . S
Co196 O208 2.137 . S
Co196 O209 2.244 . S
O197 Co196 2.216 . S
O197 C204 1.247 . S
O198 Co196 2.091 . S
O198 C204 1.261 . S
C199 O208 1.247 . S
C199 O209 1.272 . S
O200 Co196 2.004 . S
O200 C205 1.259 . S
Co201 O202 2.061 . S
Co201 O207 2.052 . S
Co201 O209 2.135 . S
O202 Co201 2.061 . S
O202 C205 1.235 . S
C203 O206 1.238 . S
C203 O207 1.241 . S
C204 O197 1.247 . S
C204 O198 1.261 . S
C205 O200 1.259 . S
C205 O202 1.235 . S
O206 Co196 2.021 . S
O206 C203 1.238 . S
O207 Co201 2.052 . S
O207 C203 1.241 . S
O208 Co196 2.137 . S
O208 C199 1.247 . S
O209 Co196 2.244 . S
O209 C199 1.272 . S
O209 Co201 2.135 . S
Co210 O211 2.216 . S
Co210 O212 2.091 . S
Co210 O214 2.004 . S
Co210 O220 2.021 . S
Co210 O222 2.137 . S
Co210 O223 2.244 . S
O211 Co210 2.216 . S
O211 C218 1.247 . S
O212 Co210 2.091 . S
O212 C218 1.261 . S
C213 O222 1.247 . S
C213 O223 1.272 . S
O214 Co210 2.004 . S
O214 C219 1.259 . S
Co215 O216 2.061 . S
Co215 O221 2.052 . S
Co215 O223 2.135 . S
O216 Co215 2.061 . S
O216 C219 1.235 . S
C217 O220 1.238 . S
C217 O221 1.241 . S
C218 O211 1.247 . S
C218 O212 1.261 . S
C219 O214 1.259 . S
C219 O216 1.235 . S
O220 Co210 2.021 . S
O220 C217 1.238 . S
O221 Co215 2.052 . S
O221 C217 1.241 . S
O222 Co210 2.137 . S
O222 C213 1.247 . S
O223 Co210 2.244 . S
O223 C213 1.272 . S
O223 Co215 2.135 . S
Co224 O225 2.216 . S
Co224 O226 2.091 . S
Co224 O228 2.004 1_545 S
Co224 O234 2.021 . S
Co224 O236 2.137 . S
Co224 O237 2.244 . S
O225 Co224 2.216 . S
O225 C232 1.247 . S
O226 Co224 2.091 . S
O226 C232 1.261 . S
C227 O236 1.247 . S
C227 O237 1.272 . S
O228 Co224 2.004 1_565 S
O228 C233 1.259 . S
Co229 O230 2.061 . S
Co229 O235 2.052 1_565 S
Co229 O237 2.135 1_565 S
O230 Co229 2.061 . S
O230 C233 1.235 . S
C231 O234 1.238 . S
C231 O235 1.241 . S
C232 O225 1.247 . S
C232 O226 1.261 . S
C233 O228 1.259 . S
C233 O230 1.235 . S
O234 Co224 2.021 . S
O234 C231 1.238 . S
O235 Co229 2.052 1_545 S
O235 C231 1.241 . S
O236 Co224 2.137 . S
O236 C227 1.247 . S
O237 Co224 2.244 . S
O237 C227 1.272 . S
O237 Co229 2.135 1_545 S
Co238 O239 2.216 . S
Co238 O240 2.091 . S
Co238 O242 2.004 . S
Co238 O248 2.021 . S
Co238 O250 2.137 . S
Co238 O251 2.244 . S
O239 Co238 2.216 . S
O239 C246 1.247 . S
O240 Co238 2.091 . S
O240 C246 1.261 . S
C241 O250 1.247 . S
C241 O251 1.272 . S
O242 Co238 2.004 . S
O242 C247 1.259 . S
Co243 O244 2.061 . S
Co243 O249 2.052 . S
Co243 O251 2.135 . S
O244 Co243 2.061 . S
O244 C247 1.235 . S
C245 O248 1.238 . S
C245 O249 1.241 . S
C246 O239 1.247 . S
C246 O240 1.261 . S
C247 O242 1.259 . S
C247 O244 1.235 . S
O248 Co238 2.021 . S
O248 C245 1.238 . S
O249 Co243 2.052 . S
O249 C245 1.241 . S
O250 Co238 2.137 . S
O250 C241 1.247 . S
O251 Co238 2.244 . S
O251 C241 1.272 . S
O251 Co243 2.135 . S
Co252 O253 2.216 . S
Co252 O254 2.091 . S
Co252 O256 2.004 1_565 S
Co252 O262 2.021 . S
Co252 O264 2.137 . S
Co252 O265 2.244 1_565 S
O253 Co252 2.216 . S
O253 C260 1.247 . S
O254 Co252 2.091 . S
O254 C260 1.261 . S
C255 O264 1.247 1_545 S
C255 O265 1.272 . S
O256 Co252 2.004 1_545 S
O256 C261 1.259 . S
Co257 O258 2.061 . S
Co257 O263 2.052 . S
Co257 O265 2.135 . S
O258 Co257 2.061 . S
O258 C261 1.235 . S
C259 O262 1.238 1_545 S
C259 O263 1.241 . S
C260 O253 1.247 . S
C260 O254 1.261 . S
C261 O256 1.259 . S
C261 O258 1.235 . S
O262 Co252 2.021 . S
O262 C259 1.238 1_565 S
O263 Co257 2.052 . S
O263 C259 1.241 . S
O264 Co252 2.137 . S
O264 C255 1.247 1_565 S
O265 Co252 2.244 1_545 S
O265 C255 1.272 . S
O265 Co257 2.135 . S
Co266 O267 2.215 1_556 S
Co266 O268 2.087 1_556 S
Co266 O270 2.004 . S
Co266 O276 1.991 1_556 S
Co266 O278 2.169 . S
Co266 O279 2.258 . S
O267 Co266 2.215 1_554 S
O267 C274 1.249 . S
O268 Co266 2.087 1_554 S
O268 C274 1.261 . S
C269 O278 1.247 . S
C269 O279 1.272 . S
O270 Co266 2.004 . S
O270 C275 1.254 1_556 S
Co271 O272 2.061 . S
Co271 O277 2.052 . S
Co271 O279 2.135 1_554 S
O272 Co271 2.061 . S
O272 C275 1.235 . S
C273 O276 1.238 . S
C273 O277 1.241 . S
C274 O267 1.249 . S
C274 O268 1.261 . S
C275 O270 1.254 1_554 S
C275 O272 1.235 . S
O276 Co266 1.991 1_554 S
O276 C273 1.238 . S
O277 Co271 2.052 . S
O277 C273 1.241 . S
O278 Co266 2.169 . S
O278 C269 1.247 . S
O279 Co266 2.258 . S
O279 C269 1.272 . S
O279 Co271 2.135 1_556 S
Co280 O281 2.216 . S
Co280 O282 2.091 1_556 S
Co280 O284 2.004 . S
Co280 O290 2.021 1_556 S
Co280 O292 2.137 . S
Co280 O293 2.244 . S
O281 Co280 2.216 . S
O281 C288 1.247 1_556 S
O282 Co280 2.091 1_554 S
O282 C288 1.261 . S
C283 O292 1.247 . S
C283 O293 1.272 . S
O284 Co280 2.004 . S
O284 C289 1.259 1_556 S
Co285 O286 2.061 . S
Co285 O291 2.052 . S
Co285 O293 2.135 1_554 S
O286 Co285 2.061 . S
O286 C289 1.235 . S
C287 O290 1.238 . S
C287 O291 1.241 . S
C288 O281 1.247 1_554 S
C288 O282 1.261 . S
C289 O284 1.259 1_554 S
C289 O286 1.235 . S
O290 Co280 2.021 1_554 S
O290 C287 1.238 . S
O291 Co285 2.052 . S
O291 C287 1.241 . S
O292 Co280 2.137 . S
O292 C283 1.247 . S
O293 Co280 2.244 . S
O293 C283 1.272 . S
O293 Co285 2.135 1_556 S
Co294 O295 2.216 . S
Co294 O296 2.091 . S
Co294 O298 2.004 . S
Co294 O304 2.021 . S
Co294 O306 2.137 . S
Co294 O307 2.244 . S
O295 Co294 2.216 . S
O295 C302 1.247 . S
O296 Co294 2.091 . S
O296 C302 1.261 . S
C297 O306 1.247 . S
C297 O307 1.272 . S
O298 Co294 2.004 . S
O298 C303 1.259 . S
Co299 O300 2.061 . S
Co299 O305 2.052 . S
Co299 O307 2.135 . S
O300 Co299 2.061 . S
O300 C303 1.235 . S
C301 O304 1.238 . S
C301 O305 1.241 . S
C302 O295 1.247 . S
C302 O296 1.261 . S
C303 O298 1.259 . S
C303 O300 1.235 . S
O304 Co294 2.021 . S
O304 C301 1.238 . S
O305 Co299 2.052 . S
O305 C301 1.241 . S
O306 Co294 2.137 . S
O306 C297 1.247 . S
O307 Co294 2.244 . S
O307 C297 1.272 . S
O307 Co299 2.135 . S
Co308 O309 2.216 . S
Co308 O310 2.091 . S
Co308 O312 2.004 . S
Co308 O318 2.021 . S
Co308 O320 2.137 . S
Co308 O321 2.244 . S
O309 Co308 2.216 . S
O309 C316 1.247 . S
O310 Co308 2.091 . S
O310 C316 1.261 . S
C311 O320 1.247 . S
C311 O321 1.272 . S
O312 Co308 2.004 . S
O312 C317 1.259 . S
Co313 O314 2.061 . S
Co313 O319 2.052 . S
Co313 O321 2.135 . S
O314 Co313 2.061 . S
O314 C317 1.235 . S
C315 O318 1.238 . S
C315 O319 1.241 . S
C316 O309 1.247 . S
C316 O310 1.261 . S
C317 O312 1.259 . S
C317 O314 1.235 . S
O318 Co308 2.021 . S
O318 C315 1.238 . S
O319 Co313 2.052 . S
O319 C315 1.241 . S
O320 Co308 2.137 . S
O320 C311 1.247 . S
O321 Co308 2.244 . S
O321 C311 1.272 . S
O321 Co313 2.135 . S
Co322 O323 2.216 . S
Co322 O324 2.091 . S
Co322 O326 2.004 . S
Co322 O332 2.021 . S
Co322 O334 2.137 . S
Co322 O335 2.244 . S
O323 Co322 2.216 . S
O323 C330 1.247 . S
O324 Co322 2.091 . S
O324 C330 1.261 . S
C325 O334 1.247 . S
C325 O335 1.272 . S
O326 Co322 2.004 . S
O326 C331 1.259 . S
Co327 O328 2.061 . S
Co327 O333 2.052 . S
Co327 O335 2.135 . S
O328 Co327 2.061 . S
O328 C331 1.235 . S
C329 O332 1.238 . S
C329 O333 1.241 . S
C330 O323 1.247 . S
C330 O324 1.261 . S
C331 O326 1.259 . S
C331 O328 1.235 . S
O332 Co322 2.021 . S
O332 C329 1.238 . S
O333 Co327 2.052 . S
O333 C329 1.241 . S
O334 Co322 2.137 . S
O334 C325 1.247 . S
O335 Co322 2.244 . S
O335 C325 1.272 . S
O335 Co327 2.135 . S
O336 Zn337 1.953 . S
O336 C352 1.225 1_455 S
Zn337 O336 1.953 . S
Zn337 O338 1.954 . S
Zn337 O344 1.919 1_554 S
Zn337 O349 1.924 1_454 S
O338 Zn337 1.954 . S
O338 Zn339 1.935 1_545 S
O338 Zn340 1.941 1_455 S
O338 Zn341 1.937 1_444 S
Zn339 O338 1.935 1_565 S
Zn339 O342 1.933 . S
Zn339 O345 1.941 1_565 S
Zn339 O346 1.965 . S
Zn340 O338 1.941 1_655 S
Zn340 O347 1.938 . S
Zn340 O348 1.906 1_545 S
Zn340 O358 1.953 . S
Zn341 O338 1.937 1_666 S
Zn341 O343 1.932 . S
Zn341 O350 1.977 1_556 S
Zn341 O351 1.910 1_565 S
O342 Zn339 1.933 . S
O342 C353 1.226 1_554 S
O343 Zn341 1.932 . S
O343 C353 1.307 1_655 S
O344 Zn337 1.919 1_556 S
O344 C355 1.253 1_556 S
O345 Zn339 1.941 1_545 S
O345 C355 1.283 . S
O346 Zn339 1.965 . S
O346 C354 1.298 1_565 S
O347 Zn340 1.938 . S
O347 C354 1.250 1_655 S
O348 Zn340 1.906 1_565 S
O348 C356 1.304 . S
O349 Zn337 1.924 1_656 S
O349 C357 1.311 . S
O350 Zn341 1.977 1_554 S
O350 C356 1.272 . S
O351 Zn341 1.910 1_545 S
O351 C357 1.231 . S
C352 O336 1.225 1_655 S
C352 O358 1.298 . S
C353 O342 1.226 1_556 S
C353 O343 1.307 1_455 S
C354 O346 1.298 1_545 S
C354 O347 1.250 1_455 S
C355 O344 1.253 1_554 S
C355 O345 1.283 . S
C356 O348 1.304 . S
C356 O350 1.272 . S
C357 O349 1.311 . S
C357 O351 1.231 . S
O358 Zn340 1.953 . S
O358 C352 1.298 . S
O359 Zn360 1.953 . S
O359 C375 1.225 . S
Zn360 O359 1.953 . S
Zn360 O361 1.949 . S
Zn360 O367 1.919 . S
Zn360 O372 1.924 . S
O361 Zn360 1.949 . S
O361 Zn362 1.923 . S
O361 Zn363 1.950 . S
O361 Zn364 1.945 . S
Zn362 O361 1.923 . S
Zn362 O365 1.933 . S
Zn362 O368 1.941 . S
Zn362 O369 1.965 . S
Zn363 O361 1.950 . S
Zn363 O370 1.938 . S
Zn363 O371 1.906 . S
Zn363 O381 1.953 . S
Zn364 O361 1.945 . S
Zn364 O366 1.932 . S
Zn364 O373 1.977 . S
Zn364 O374 1.910 . S
O365 Zn362 1.933 . S
O365 C376 1.226 . S
O366 Zn364 1.932 . S
O366 C376 1.307 . S
O367 Zn360 1.919 . S
O367 C378 1.253 . S
O368 Zn362 1.941 . S
O368 C378 1.283 . S
O369 Zn362 1.965 . S
O369 C377 1.303 . S
O370 Zn363 1.938 . S
O370 C377 1.247 . S
O371 Zn363 1.906 . S
O371 C379 1.304 . S
O372 Zn360 1.924 . S
O372 C380 1.311 . S
O373 Zn364 1.977 . S
O373 C379 1.272 . S
O374 Zn364 1.910 . S
O374 C380 1.231 . S
C375 O359 1.225 . S
C375 O381 1.298 . S
C376 O365 1.226 . S
C376 O366 1.307 . S
C377 O369 1.303 . S
C377 O370 1.247 . S
C378 O367 1.253 . S
C378 O368 1.283 . S
C379 O371 1.304 . S
C379 O373 1.272 . S
C380 O372 1.311 . S
C380 O374 1.231 . S
O381 Zn363 1.953 . S
O381 C375 1.298 . S
O382 Zn383 1.953 . S
O382 C398 1.225 . S
Zn383 O382 1.953 . S
Zn383 O384 1.949 1_565 S
Zn383 O390 1.919 . S
Zn383 O395 1.924 . S
O384 Zn383 1.949 1_545 S
O384 Zn385 1.923 . S
O384 Zn386 1.950 . S
O384 Zn387 1.945 . S
Zn385 O384 1.923 . S
Zn385 O388 1.933 . S
Zn385 O391 1.941 . S
Zn385 O392 1.965 . S
Zn386 O384 1.950 . S
Zn386 O393 1.938 . S
Zn386 O394 1.906 . S
Zn386 O404 1.953 1_545 S
Zn387 O384 1.945 . S
Zn387 O389 1.932 . S
Zn387 O396 1.977 . S
Zn387 O397 1.910 . S
O388 Zn385 1.933 . S
O388 C399 1.226 . S
O389 Zn387 1.932 . S
O389 C399 1.307 . S
O390 Zn383 1.919 . S
O390 C401 1.253 . S
O391 Zn385 1.941 . S
O391 C401 1.283 1_545 S
O392 Zn385 1.965 . S
O392 C400 1.303 . S
O393 Zn386 1.938 . S
O393 C400 1.247 . S
O394 Zn386 1.906 . S
O394 C402 1.304 . S
O395 Zn383 1.924 . S
O395 C403 1.311 . S
O396 Zn387 1.977 . S
O396 C402 1.272 . S
O397 Zn387 1.910 . S
O397 C403 1.231 1_545 S
C398 O382 1.225 . S
C398 O404 1.298 . S
C399 O388 1.226 . S
C399 O389 1.307 . S
C400 O392 1.303 . S
C400 O393 1.247 . S
C401 O390 1.253 . S
C401 O391 1.283 1_565 S
C402 O394 1.304 . S
C402 O396 1.272 . S
C403 O395 1.311 . S
C403 O397 1.231 1_565 S
O404 Zn386 1.953 1_565 S
O404 C398 1.298 . S
O405 Zn406 1.953 . S
O405 C421 1.225 . S
Zn406 O405 1.953 . S
Zn406 O407 1.949 . S
Zn406 O413 1.919 . S
Zn406 O418 1.924 . S
O407 Zn406 1.949 . S
O407 Zn408 1.923 . S
O407 Zn409 1.950 . S
O407 Zn410 1.945 . S
Zn408 O407 1.923 . S
Zn408 O411 1.933 . S
Zn408 O414 1.941 . S
Zn408 O415 1.965 . S
Zn409 O407 1.950 . S
Zn409 O416 1.938 . S
Zn409 O417 1.906 . S
Zn409 O427 1.953 . S
Zn410 O407 1.945 . S
Zn410 O412 1.932 . S
Zn410 O419 1.977 . S
Zn410 O420 1.910 . S
O411 Zn408 1.933 . S
O411 C422 1.226 . S
O412 Zn410 1.932 . S
O412 C422 1.307 . S
O413 Zn406 1.919 . S
O413 C424 1.253 . S
O414 Zn408 1.941 . S
O414 C424 1.283 . S
O415 Zn408 1.965 . S
O415 C423 1.303 . S
O416 Zn409 1.938 . S
O416 C423 1.247 . S
O417 Zn409 1.906 . S
O417 C425 1.304 . S
O418 Zn406 1.924 . S
O418 C426 1.311 . S
O419 Zn410 1.977 . S
O419 C425 1.272 . S
O420 Zn410 1.910 . S
O420 C426 1.231 . S
C421 O405 1.225 . S
C421 O427 1.298 . S
C422 O411 1.226 . S
C422 O412 1.307 . S
C423 O415 1.303 . S
C423 O416 1.247 . S
C424 O413 1.253 . S
C424 O414 1.283 . S
C425 O417 1.304 . S
C425 O419 1.272 . S
C426 O418 1.311 . S
C426 O420 1.231 . S
O427 Zn409 1.953 . S
O427 C421 1.298 . S
O428 Zn429 1.953 1_455 S
O428 C444 1.225 . S
Zn429 O428 1.953 1_655 S
Zn429 O430 1.949 1_655 S
Zn429 O436 1.919 1_545 S
Zn429 O441 1.924 . S
O430 Zn429 1.949 1_455 S
O430 Zn431 1.923 1_545 S
O430 Zn432 1.950 . S
O430 Zn433 1.945 1_455 S
Zn431 O430 1.923 1_565 S
Zn431 O434 1.933 . S
Zn431 O437 1.941 . S
Zn431 O438 1.965 . S
Zn432 O430 1.950 . S
Zn432 O439 1.938 . S
Zn432 O440 1.906 . S
Zn432 O450 1.953 . S
Zn433 O430 1.945 1_655 S
Zn433 O435 1.932 . S
Zn433 O442 1.977 . S
Zn433 O443 1.910 . S
O434 Zn431 1.933 . S
O434 C445 1.226 1_455 S
O435 Zn433 1.932 . S
O435 C445 1.307 1_545 S
O436 Zn429 1.919 1_565 S
O436 C447 1.253 . S
O437 Zn431 1.941 . S
O437 C447 1.283 1_455 S
O438 Zn431 1.965 . S
O438 C446 1.303 . S
O439 Zn432 1.938 . S
O439 C446 1.247 1_545 S
O440 Zn432 1.906 . S
O440 C448 1.304 . S
O441 Zn429 1.924 . S
O441 C449 1.311 . S
O442 Zn433 1.977 . S
O442 C448 1.272 1_655 S
O443 Zn433 1.910 . S
O443 C449 1.231 . S
C444 O428 1.225 . S
C444 O450 1.298 . S
C445 O434 1.226 1_655 S
C445 O435 1.307 1_565 S
C446 O438 1.303 . S
C446 O439 1.247 1_565 S
C447 O436 1.253 . S
C447 O437 1.283 1_655 S
C448 O440 1.304 . S
C448 O442 1.272 1_455 S
C449 O441 1.311 . S
C449 O443 1.231 . S
O450 Zn432 1.953 . S
O450 C444 1.298 . S
O451 Zn452 1.953 . S
O451 C467 1.225 . S
Zn452 O451 1.953 . S
Zn452 O453 1.949 . S
Zn452 O459 1.919 . S
Zn452 O464 1.924 . S
O453 Zn452 1.949 . S
O453 Zn454 1.923 . S
O453 Zn455 1.950 . S
O453 Zn456 1.945 . S
Zn454 O453 1.923 . S
Zn454 O457 1.933 . S
Zn454 O460 1.941 . S
Zn454 O461 1.965 . S
Zn455 O453 1.950 . S
Zn455 O462 1.938 . S
Zn455 O463 1.906 . S
Zn455 O473 1.953 . S
Zn456 O453 1.945 . S
Zn456 O458 1.932 . S
Zn456 O465 1.977 . S
Zn456 O466 1.910 . S
O457 Zn454 1.933 . S
O457 C468 1.226 . S
O458 Zn456 1.932 . S
O458 C468 1.307 . S
O459 Zn452 1.919 . S
O459 C470 1.253 . S
O460 Zn454 1.941 . S
O460 C470 1.283 . S
O461 Zn454 1.965 . S
O461 C469 1.303 . S
O462 Zn455 1.938 . S
O462 C469 1.247 . S
O463 Zn455 1.906 . S
O463 C471 1.304 . S
O464 Zn452 1.924 . S
O464 C472 1.311 . S
O465 Zn456 1.977 . S
O465 C471 1.272 . S
O466 Zn456 1.910 . S
O466 C472 1.231 . S
C467 O451 1.225 . S
C467 O473 1.298 . S
C468 O457 1.226 . S
C468 O458 1.307 . S
C469 O461 1.303 . S
C469 O462 1.247 . S
C470 O459 1.253 . S
C470 O460 1.283 . S
C471 O463 1.304 . S
C471 O465 1.272 . S
C472 O464 1.311 . S
C472 O466 1.231 . S
O473 Zn455 1.953 . S
O473 C467 1.298 . S
O474 Zn475 1.953 . S
O474 C490 1.225 . S
Zn475 O474 1.953 . S
Zn475 O476 1.949 . S
Zn475 O482 1.919 1_545 S
Zn475 O487 1.924 . S
O476 Zn475 1.949 . S
O476 Zn477 1.938 1_545 S
O476 Zn478 1.950 . S
O476 Zn479 1.945 1_554 S
Zn477 O476 1.938 1_565 S
Zn477 O480 1.902 1_554 S
Zn477 O483 1.937 1_554 S
Zn477 O484 1.987 . S
Zn478 O476 1.950 . S
Zn478 O485 1.938 1_545 S
Zn478 O486 1.906 . S
Zn478 O496 1.953 . S
Zn479 O476 1.945 1_556 S
Zn479 O481 1.932 . S
Zn479 O488 1.977 1_556 S
Zn479 O489 1.910 . S
O480 Zn477 1.902 1_556 S
O480 C491 1.226 . S
O481 Zn479 1.932 . S
O481 C491 1.307 1_545 S
O482 Zn475 1.919 1_565 S
O482 C493 1.253 1_554 S
O483 Zn477 1.937 1_556 S
O483 C493 1.283 . S
O484 Zn477 1.987 . S
O484 C492 1.303 . S
O485 Zn478 1.938 1_565 S
O485 C492 1.247 . S
O486 Zn478 1.906 . S
O486 C494 1.304 . S
O487 Zn475 1.924 . S
O487 C495 1.311 . S
O488 Zn479 1.977 1_554 S
O488 C494 1.272 . S
O489 Zn479 1.910 . S
O489 C495 1.231 1_556 S
C490 O474 1.225 . S
C490 O496 1.298 . S
C491 O480 1.226 . S
C491 O481 1.307 1_565 S
C492 O484 1.303 . S
C492 O485 1.247 . S
C493 O482 1.253 1_556 S
C493 O483 1.283 . S
C494 O486 1.304 . S
C494 O488 1.272 . S
C495 O487 1.311 . S
C495 O489 1.231 1_554 S
O496 Zn478 1.953 . S
O496 C490 1.298 . S
O497 Zn498 1.953 . S
O497 C513 1.225 . S
Zn498 O497 1.953 . S
Zn498 O499 1.949 . S
Zn498 O505 1.919 . S
Zn498 O510 1.924 . S
O499 Zn498 1.949 . S
O499 Zn500 1.923 . S
O499 Zn501 1.950 . S
O499 Zn502 1.945 . S
Zn500 O499 1.923 . S
Zn500 O503 1.933 . S
Zn500 O506 1.941 . S
Zn500 O507 1.965 . S
Zn501 O499 1.950 . S
Zn501 O508 1.938 . S
Zn501 O509 1.906 . S
Zn501 O519 1.953 . S
Zn502 O499 1.945 . S
Zn502 O504 1.932 . S
Zn502 O511 1.977 . S
Zn502 O512 1.910 . S
O503 Zn500 1.933 . S
O503 C514 1.226 . S
O504 Zn502 1.932 . S
O504 C514 1.307 . S
O505 Zn498 1.919 . S
O505 C516 1.253 . S
O506 Zn500 1.941 . S
O506 C516 1.283 . S
O507 Zn500 1.965 . S
O507 C515 1.303 . S
O508 Zn501 1.938 . S
O508 C515 1.247 . S
O509 Zn501 1.906 . S
O509 C517 1.304 . S
O510 Zn498 1.924 . S
O510 C518 1.311 . S
O511 Zn502 1.977 . S
O511 C517 1.272 . S
O512 Zn502 1.910 . S
O512 C518 1.231 . S
C513 O497 1.225 . S
C513 O519 1.298 . S
C514 O503 1.226 . S
C514 O504 1.307 . S
C515 O507 1.303 . S
C515 O508 1.247 . S
C516 O505 1.253 . S
C516 O506 1.283 . S
C517 O509 1.304 . S
C517 O511 1.272 . S
C518 O510 1.311 . S
C518 O512 1.231 . S
O519 Zn501 1.953 . S
O519 C513 1.298 . S
O520 Zn521 1.953 . S
O520 C536 1.225 . S
Zn521 O520 1.953 . S
Zn521 O522 1.949 1_556 S
Zn521 O528 1.919 . S
Zn521 O533 1.924 . S
O522 Zn521 1.949 1_554 S
O522 Zn523 1.923 . S
O522 Zn524 1.950 . S
O522 Zn525 1.945 . S
Zn523 O522 1.923 . S
Zn523 O526 1.933 . S
Zn523 O529 1.941 . S
Zn523 O530 1.965 . S
Zn524 O522 1.950 . S
Zn524 O531 1.938 . S
Zn524 O532 1.906 . S
Zn524 O542 1.953 1_554 S
Zn525 O522 1.945 . S
Zn525 O527 1.932 . S
Zn525 O534 1.977 . S
Zn525 O535 1.910 . S
O526 Zn523 1.933 . S
O526 C537 1.226 . S
O527 Zn525 1.932 . S
O527 C537 1.307 . S
O528 Zn521 1.919 . S
O528 C539 1.253 1_556 S
O529 Zn523 1.941 . S
O529 C539 1.283 . S
O530 Zn523 1.965 . S
O530 C538 1.303 . S
O531 Zn524 1.938 . S
O531 C538 1.247 . S
O532 Zn524 1.906 . S
O532 C540 1.304 . S
O533 Zn521 1.924 . S
O533 C541 1.311 . S
O534 Zn525 1.977 . S
O534 C540 1.272 . S
O535 Zn525 1.910 . S
O535 C541 1.231 1_554 S
C536 O520 1.225 . S
C536 O542 1.298 . S
C537 O526 1.226 . S
C537 O527 1.307 . S
C538 O530 1.303 . S
C538 O531 1.247 . S
C539 O528 1.253 1_554 S
C539 O529 1.283 . S
C540 O532 1.304 . S
C540 O534 1.272 . S
C541 O533 1.311 . S
C541 O535 1.231 1_556 S
O542 Zn524 1.953 1_556 S
O542 C536 1.298 . S
O543 Zn544 1.953 . S
O543 C559 1.225 . S
Zn544 O543 1.953 . S
Zn544 O545 1.949 . S
Zn544 O551 1.919 . S
Zn544 O556 1.924 . S
O545 Zn544 1.949 . S
O545 Zn546 1.923 . S
O545 Zn547 1.950 . S
O545 Zn548 1.945 . S
Zn546 O545 1.923 . S
Zn546 O549 1.933 . S
Zn546 O552 1.941 . S
Zn546 O553 1.965 . S
Zn547 O545 1.950 . S
Zn547 O554 1.938 . S
Zn547 O555 1.906 . S
Zn547 O565 1.953 . S
Zn548 O545 1.945 . S
Zn548 O550 1.932 . S
Zn548 O557 1.977 . S
Zn548 O558 1.910 . S
O549 Zn546 1.933 . S
O549 C560 1.226 . S
O550 Zn548 1.932 . S
O550 C560 1.307 . S
O551 Zn544 1.919 . S
O551 C562 1.253 . S
O552 Zn546 1.941 . S
O552 C562 1.283 . S
O553 Zn546 1.965 . S
O553 C561 1.303 . S
O554 Zn547 1.938 . S
O554 C561 1.247 . S
O555 Zn547 1.906 . S
O555 C563 1.304 . S
O556 Zn544 1.924 . S
O556 C564 1.311 . S
O557 Zn548 1.977 . S
O557 C563 1.272 . S
O558 Zn548 1.910 . S
O558 C564 1.231 . S
C559 O543 1.225 . S
C559 O565 1.298 . S
C560 O549 1.226 . S
C560 O550 1.307 . S
C561 O553 1.303 . S
C561 O554 1.247 . S
C562 O551 1.253 . S
C562 O552 1.283 . S
C563 O555 1.304 . S
C563 O557 1.272 . S
C564 O556 1.311 . S
C564 O558 1.231 . S
O565 Zn547 1.953 . S
O565 C559 1.298 . S
O566 Zn567 1.953 . S
O566 C582 1.225 . S
Zn567 O566 1.953 . S
Zn567 O568 1.957 . S
Zn567 O574 1.919 . S
Zn567 O579 1.924 . S
O568 Zn567 1.957 . S
O568 Zn569 1.923 . S
O568 Zn570 1.945 1_455 S
O568 Zn571 1.940 1_455 S
Zn569 O568 1.923 . S
Zn569 O572 1.933 1_455 S
Zn569 O575 1.941 . S
Zn569 O576 1.965 1_455 S
Zn570 O568 1.945 1_655 S
Zn570 O577 1.938 . S
Zn570 O578 1.906 . S
Zn570 O588 1.931 1_655 S
Zn571 O568 1.940 1_655 S
Zn571 O573 1.932 . S
Zn571 O580 1.977 . S
Zn571 O581 1.894 1_655 S
O572 Zn569 1.933 1_655 S
O572 C583 1.226 . S
O573 Zn571 1.932 . S
O573 C583 1.307 . S
O574 Zn567 1.919 . S
O574 C585 1.253 . S
O575 Zn569 1.941 . S
O575 C585 1.283 . S
O576 Zn569 1.965 1_655 S
O576 C584 1.303 . S
O577 Zn570 1.938 . S
O577 C584 1.247 . S
O578 Zn570 1.906 . S
O578 C586 1.304 . S
O579 Zn567 1.924 . S
O579 C587 1.311 . S
O580 Zn571 1.977 . S
O580 C586 1.272 . S
O581 Zn571 1.894 1_455 S
O581 C587 1.262 . S
C582 O566 1.225 . S
C582 O588 1.340 . S
C583 O572 1.226 . S
C583 O573 1.307 . S
C584 O576 1.303 . S
C584 O577 1.247 . S
C585 O574 1.253 . S
C585 O575 1.283 . S
C586 O578 1.304 . S
C586 O580 1.272 . S
C587 O579 1.311 . S
C587 O581 1.262 . S
O588 Zn570 1.931 1_455 S
O588 C582 1.340 . S
O589 Zn590 1.953 . S
O589 C605 1.225 . S
Zn590 O589 1.953 . S
Zn590 O591 1.949 . S
Zn590 O597 1.919 . S
Zn590 O602 1.924 . S
O591 Zn590 1.949 . S
O591 Zn592 1.923 . S
O591 Zn593 1.950 . S
O591 Zn594 1.945 . S
Zn592 O591 1.923 . S
Zn592 O595 1.933 . S
Zn592 O598 1.941 . S
Zn592 O599 1.965 . S
Zn593 O591 1.950 . S
Zn593 O600 1.938 . S
Zn593 O601 1.906 . S
Zn593 O611 1.953 . S
Zn594 O591 1.945 . S
Zn594 O596 1.932 . S
Zn594 O603 1.977 . S
Zn594 O604 1.910 . S
O595 Zn592 1.933 . S
O595 C606 1.226 . S
O596 Zn594 1.932 . S
O596 C606 1.307 . S
O597 Zn590 1.919 . S
O597 C608 1.253 . S
O598 Zn592 1.941 . S
O598 C608 1.283 . S
O599 Zn592 1.965 . S
O599 C607 1.303 . S
O600 Zn593 1.938 . S
O600 C607 1.247 . S
O601 Zn593 1.906 . S
O601 C609 1.304 . S
O602 Zn590 1.924 . S
O602 C610 1.311 . S
O603 Zn594 1.977 . S
O603 C609 1.272 . S
O604 Zn594 1.910 . S
O604 C610 1.231 . S
C605 O589 1.225 . S
C605 O611 1.298 . S
C606 O595 1.226 . S
C606 O596 1.307 . S
C607 O599 1.303 . S
C607 O600 1.247 . S
C608 O597 1.253 . S
C608 O598 1.283 . S
C609 O601 1.304 . S
C609 O603 1.272 . S
C610 O602 1.311 . S
C610 O604 1.231 . S
O611 Zn593 1.953 . S
O611 C605 1.298 . S
O612 Zn613 1.953 . S
O612 C628 1.225 . S
Zn613 O612 1.953 . S
Zn613 O614 1.949 . S
Zn613 O620 1.919 . S
Zn613 O625 1.924 . S
O614 Zn613 1.949 . S
O614 Zn615 1.923 . S
O614 Zn616 1.950 . S
O614 Zn617 1.945 . S
Zn615 O614 1.923 . S
Zn615 O618 1.933 . S
Zn615 O621 1.941 . S
Zn615 O622 1.965 . S
Zn616 O614 1.950 . S
Zn616 O623 1.938 . S
Zn616 O624 1.906 . S
Zn616 O634 1.953 . S
Zn617 O614 1.945 . S
Zn617 O619 1.932 . S
Zn617 O626 1.977 . S
Zn617 O627 1.910 . S
O618 Zn615 1.933 . S
O618 C629 1.226 . S
O619 Zn617 1.932 . S
O619 C629 1.307 . S
O620 Zn613 1.919 . S
O620 C631 1.253 . S
O621 Zn615 1.941 . S
O621 C631 1.283 . S
O622 Zn615 1.965 . S
O622 C630 1.303 . S
O623 Zn616 1.938 . S
O623 C630 1.247 . S
O624 Zn616 1.906 . S
O624 C632 1.304 . S
O625 Zn613 1.924 . S
O625 C633 1.311 . S
O626 Zn617 1.977 . S
O626 C632 1.272 . S
O627 Zn617 1.910 . S
O627 C633 1.231 . S
C628 O612 1.225 . S
C628 O634 1.298 . S
C629 O618 1.226 . S
C629 O619 1.307 . S
C630 O622 1.303 . S
C630 O623 1.247 . S
C631 O620 1.253 . S
C631 O621 1.283 . S
C632 O624 1.304 . S
C632 O626 1.272 . S
C633 O625 1.311 . S
C633 O627 1.231 . S
O634 Zn616 1.953 . S
O634 C628 1.298 . S
O635 Zn636 1.953 . S
O635 C651 1.225 . S
Zn636 O635 1.953 . S
Zn636 O637 1.949 . S
Zn636 O643 1.919 . S
Zn636 O648 1.924 . S
O637 Zn636 1.949 . S
O637 Zn638 1.923 . S
O637 Zn639 1.950 . S
O637 Zn640 1.945 . S
Zn638 O637 1.923 . S
Zn638 O641 1.933 . S
Zn638 O644 1.941 . S
Zn638 O645 1.965 . S
Zn639 O637 1.950 . S
Zn639 O646 1.938 . S
Zn639 O647 1.906 . S
Zn639 O657 1.953 . S
Zn640 O637 1.945 . S
Zn640 O642 1.932 . S
Zn640 O649 1.977 . S
Zn640 O650 1.910 . S
O641 Zn638 1.933 . S
O641 C652 1.226 . S
O642 Zn640 1.932 . S
O642 C652 1.307 . S
O643 Zn636 1.919 . S
O643 C654 1.253 . S
O644 Zn638 1.941 . S
O644 C654 1.283 . S
O645 Zn638 1.965 . S
O645 C653 1.303 . S
O646 Zn639 1.938 . S
O646 C653 1.247 . S
O647 Zn639 1.906 . S
O647 C655 1.304 . S
O648 Zn636 1.924 . S
O648 C656 1.311 . S
O649 Zn640 1.977 . S
O649 C655 1.272 . S
O650 Zn640 1.910 . S
O650 C656 1.231 . S
C651 O635 1.225 . S
C651 O657 1.298 . S
C652 O641 1.226 . S
C652 O642 1.307 . S
C653 O645 1.303 . S
C653 O646 1.247 . S
C654 O643 1.253 . S
C654 O644 1.283 . S
C655 O647 1.304 . S
C655 O649 1.272 . S
C656 O648 1.311 . S
C656 O650 1.231 . S
O657 Zn639 1.953 . S
O657 C651 1.298 . S
O658 Zn659 1.953 . S
O658 C674 1.225 . S
Zn659 O658 1.953 . S
Zn659 O660 1.949 . S
Zn659 O666 1.919 . S
Zn659 O671 1.924 . S
O660 Zn659 1.949 . S
O660 Zn661 1.923 . S
O660 Zn662 1.950 . S
O660 Zn663 1.945 . S
Zn661 O660 1.923 . S
Zn661 O664 1.933 . S
Zn661 O667 1.941 . S
Zn661 O668 1.965 . S
Zn662 O660 1.950 . S
Zn662 O669 1.938 . S
Zn662 O670 1.906 . S
Zn662 O680 1.953 . S
Zn663 O660 1.945 . S
Zn663 O665 1.932 . S
Zn663 O672 1.977 . S
Zn663 O673 1.910 . S
O664 Zn661 1.933 . S
O664 C675 1.226 . S
O665 Zn663 1.932 . S
O665 C675 1.307 . S
O666 Zn659 1.919 . S
O666 C677 1.253 . S
O667 Zn661 1.941 . S
O667 C677 1.283 . S
O668 Zn661 1.965 . S
O668 C676 1.303 . S
O669 Zn662 1.938 . S
O669 C676 1.247 . S
O670 Zn662 1.906 . S
O670 C678 1.304 . S
O671 Zn659 1.924 . S
O671 C679 1.311 . S
O672 Zn663 1.977 . S
O672 C678 1.272 . S
O673 Zn663 1.910 . S
O673 C679 1.231 . S
C674 O658 1.225 . S
C674 O680 1.298 . S
C675 O664 1.226 . S
C675 O665 1.307 . S
C676 O668 1.303 . S
C676 O669 1.247 . S
C677 O666 1.253 . S
C677 O667 1.283 . S
C678 O670 1.304 . S
C678 O672 1.272 . S
C679 O671 1.311 . S
C679 O673 1.231 . S
O680 Zn662 1.953 . S
O680 C674 1.298 . S
O681 Zn682 1.953 1_455 S
O681 C697 1.225 . S
Zn682 O681 1.953 1_655 S
Zn682 O683 1.949 1_655 S
Zn682 O689 1.919 1_554 S
Zn682 O694 1.924 1_654 S
O683 Zn682 1.949 1_455 S
O683 Zn684 1.923 1_455 S
O683 Zn685 1.950 . S
O683 Zn686 1.945 1_554 S
Zn684 O683 1.923 1_655 S
Zn684 O687 1.933 . S
Zn684 O690 1.941 . S
Zn684 O691 1.965 . S
Zn685 O683 1.950 . S
Zn685 O692 1.938 . S
Zn685 O693 1.906 . S
Zn685 O703 1.953 . S
Zn686 O683 1.945 1_556 S
Zn686 O688 1.932 . S
Zn686 O695 1.977 1_556 S
Zn686 O696 1.910 . S
O687 Zn684 1.933 . S
O687 C698 1.226 1_554 S
O688 Zn686 1.932 . S
O688 C698 1.307 1_455 S
O689 Zn682 1.919 1_556 S
O689 C700 1.253 1_556 S
O690 Zn684 1.941 . S
O690 C700 1.283 . S
O691 Zn684 1.965 . S
O691 C699 1.303 . S
O692 Zn685 1.938 . S
O692 C699 1.247 1_455 S
O693 Zn685 1.906 . S
O693 C701 1.304 . S
O694 Zn682 1.924 1_456 S
O694 C702 1.311 . S
O695 Zn686 1.977 1_554 S
O695 C701 1.272 . S
O696 Zn686 1.910 . S
O696 C702 1.231 . S
C697 O681 1.225 . S
C697 O703 1.298 . S
C698 O687 1.226 1_556 S
C698 O688 1.307 1_655 S
C699 O691 1.303 . S
C699 O692 1.247 1_655 S
C700 O689 1.253 1_554 S
C700 O690 1.283 . S
C701 O693 1.304 . S
C701 O695 1.272 . S
C702 O694 1.311 . S
C702 O696 1.231 . S
O703 Zn685 1.953 . S
O703 C697 1.298 . S
H704 C712 0.950 . S
H705 C717 0.950 . S
H706 C714 0.950 . S
H707 C716 0.950 . S
H708 C718 0.950 . S
H709 C720 0.950 . S
H710 C722 0.950 . S
H711 C723 0.950 . S
C712 H704 0.950 . S
C712 C713 1.386 1_655 S
C712 C714 1.391 . S
C713 C712 1.386 1_455 S
C713 C717 1.393 . S
C714 H706 0.950 . S
C714 C712 1.391 . S
C714 C715 1.400 . S
C715 C714 1.400 . S
C715 C716 1.398 1_655 S
C715 C721 1.491 . S
C716 H707 0.950 . S
C716 C715 1.398 1_455 S
C716 C717 1.391 . S
C717 H705 0.950 . S
C717 C713 1.393 . S
C717 C716 1.391 . S
C718 H708 0.950 . S
C718 C719 1.386 1_455 S
C718 C720 1.391 . S
C719 C718 1.386 1_655 S
C719 C723 1.393 . S
C720 H709 0.950 . S
C720 C718 1.391 . S
C720 C721 1.400 1_455 S
C721 C715 1.491 . S
C721 C720 1.400 1_655 S
C721 C722 1.398 . S
C722 H710 0.950 . S
C722 C721 1.398 . S
C722 C723 1.391 . S
C723 H711 0.950 . S
C723 C719 1.393 . S
C723 C722 1.391 . S
H724 C732 0.950 . S
H725 C737 0.950 . S
H726 C734 0.950 . S
H727 C736 0.950 . S
H728 C738 0.950 . S
H729 C740 0.950 . S
H730 C742 0.950 . S
H731 C743 0.950 . S
C732 H724 0.950 . S
C732 C733 1.386 . S
C732 C734 1.391 . S
C733 C732 1.386 . S
C733 C737 1.393 . S
C734 H726 0.950 . S
C734 C732 1.391 . S
C734 C735 1.400 . S
C735 C734 1.400 . S
C735 C736 1.398 . S
C735 C741 1.491 . S
C736 H727 0.950 . S
C736 C735 1.398 . S
C736 C737 1.391 . S
C737 H725 0.950 . S
C737 C733 1.393 . S
C737 C736 1.391 . S
C738 H728 0.950 . S
C738 C739 1.386 . S
C738 C740 1.391 . S
C739 C738 1.386 . S
C739 C743 1.393 . S
C740 H729 0.950 . S
C740 C738 1.391 . S
C740 C741 1.400 . S
C741 C735 1.491 . S
C741 C740 1.400 . S
C741 C742 1.398 . S
C742 H730 0.950 . S
C742 C741 1.398 . S
C742 C743 1.391 . S
C743 H731 0.950 . S
C743 C739 1.393 . S
C743 C742 1.391 . S
H744 C752 0.950 . S
H745 C757 0.950 . S
H746 C754 0.950 . S
H747 C756 0.950 . S
H748 C758 0.950 . S
H749 C760 0.950 . S
H750 C762 0.950 . S
H751 C763 0.950 . S
C752 H744 0.950 . S
C752 C753 1.386 . S
C752 C754 1.391 . S
C753 C752 1.386 . S
C753 C757 1.393 . S
C754 H746 0.950 . S
C754 C752 1.391 . S
C754 C755 1.400 . S
C755 C754 1.400 . S
C755 C756 1.398 . S
C755 C761 1.491 . S
C756 H747 0.950 . S
C756 C755 1.398 . S
C756 C757 1.391 . S
C757 H745 0.950 . S
C757 C753 1.393 . S
C757 C756 1.391 . S
C758 H748 0.950 . S
C758 C759 1.386 . S
C758 C760 1.391 . S
C759 C758 1.386 . S
C759 C763 1.393 . S
C760 H749 0.950 . S
C760 C758 1.391 . S
C760 C761 1.400 . S
C761 C755 1.491 . S
C761 C760 1.400 . S
C761 C762 1.398 . S
C762 H750 0.950 . S
C762 C761 1.398 . S
C762 C763 1.391 . S
C763 H751 0.950 . S
C763 C759 1.393 . S
C763 C762 1.391 . S
H764 C772 0.950 . S
H765 C777 0.950 . S
H766 C774 0.950 . S
H767 C776 0.950 . S
H768 C778 0.950 . S
H769 C780 0.950 . S
H770 C782 0.950 . S
H771 C783 0.950 . S
C772 H764 0.950 . S
C772 C773 1.386 . S
C772 C774 1.391 . S
C773 C772 1.386 . S
C773 C777 1.393 . S
C774 H766 0.950 . S
C774 C772 1.391 . S
C774 C775 1.400 . S
C775 C774 1.400 . S
C775 C776 1.398 . S
C775 C781 1.491 . S
C776 H767 0.950 . S
C776 C775 1.398 . S
C776 C777 1.391 . S
C777 H765 0.950 . S
C777 C773 1.393 . S
C777 C776 1.391 . S
C778 H768 0.950 . S
C778 C779 1.386 . S
C778 C780 1.391 . S
C779 C778 1.386 . S
C779 C783 1.393 . S
C780 H769 0.950 . S
C780 C778 1.391 . S
C780 C781 1.400 . S
C781 C775 1.491 . S
C781 C780 1.400 . S
C781 C782 1.398 . S
C782 H770 0.950 . S
C782 C781 1.398 . S
C782 C783 1.391 . S
C783 H771 0.950 . S
C783 C779 1.393 . S
C783 C782 1.391 . S
H784 C792 0.950 . S
H785 C797 0.950 . S
H786 C794 0.950 . S
H787 C796 0.950 . S
H788 C798 0.950 . S
H789 C800 0.950 . S
H790 C802 0.950 . S
H791 C803 0.950 . S
C792 H784 0.950 . S
C792 C793 1.386 . S
C792 C794 1.391 . S
C793 C792 1.386 . S
C793 C797 1.393 1_455 S
C794 H786 0.950 . S
C794 C792 1.391 . S
C794 C795 1.400 1_455 S
C795 C794 1.400 1_655 S
C795 C796 1.398 . S
C795 C801 1.491 . S
C796 H787 0.950 . S
C796 C795 1.398 . S
C796 C797 1.391 . S
C797 H785 0.950 . S
C797 C793 1.393 1_655 S
C797 C796 1.391 . S
C798 H788 0.950 . S
C798 C799 1.386 . S
C798 C800 1.391 . S
C799 C798 1.386 . S
C799 C803 1.393 1_655 S
C800 H789 0.950 . S
C800 C798 1.391 . S
C800 C801 1.400 . S
C801 C795 1.491 . S
C801 C800 1.400 . S
C801 C802 1.398 1_655 S
C802 H790 0.950 . S
C802 C801 1.398 1_455 S
C802 C803 1.391 . S
C803 H791 0.950 . S
C803 C799 1.393 1_455 S
C803 C802 1.391 . S
H804 C812 0.950 . S
H805 C817 0.950 . S
H806 C814 0.950 . S
H807 C816 0.950 . S
H808 C818 0.950 . S
H809 C820 0.950 . S
H810 C822 0.950 . S
H811 C823 0.950 . S
C812 H804 0.950 . S
C812 C813 1.386 . S
C812 C814 1.391 . S
C813 C812 1.386 . S
C813 C817 1.393 . S
C814 H806 0.950 . S
C814 C812 1.391 . S
C814 C815 1.400 . S
C815 C814 1.400 . S
C815 C816 1.398 . S
C815 C821 1.491 . S
C816 H807 0.950 . S
C816 C815 1.398 . S
C816 C817 1.391 . S
C817 H805 0.950 . S
C817 C813 1.393 . S
C817 C816 1.391 . S
C818 H808 0.950 . S
C818 C819 1.386 . S
C818 C820 1.391 . S
C819 C818 1.386 . S
C819 C823 1.393 . S
C820 H809 0.950 . S
C820 C818 1.391 . S
C820 C821 1.400 . S
C821 C815 1.491 . S
C821 C820 1.400 . S
C821 C822 1.398 . S
C822 H810 0.950 . S
C822 C821 1.398 . S
C822 C823 1.391 . S
C823 H811 0.950 . S
C823 C819 1.393 . S
C823 C822 1.391 . S
H824 C832 0.950 . S
H825 C837 0.950 . S
H826 C834 0.950 . S
H827 C836 0.950 . S
H828 C838 0.950 . S
H829 C840 0.950 . S
H830 C842 0.950 . S
H831 C843 0.950 . S
C832 H824 0.950 . S
C832 C833 1.386 . S
C832 C834 1.391 . S
C833 C832 1.386 . S
C833 C837 1.393 . S
C834 H826 0.950 . S
C834 C832 1.391 . S
C834 C835 1.400 . S
C835 C834 1.400 . S
C835 C836 1.398 . S
C835 C841 1.491 . S
C836 H827 0.950 . S
C836 C835 1.398 . S
C836 C837 1.391 . S
C837 H825 0.950 . S
C837 C833 1.393 . S
C837 C836 1.391 . S
C838 H828 0.950 . S
C838 C839 1.386 1_554 S
C838 C840 1.391 1_554 S
C839 C838 1.386 1_556 S
C839 C843 1.393 . S
C840 H829 0.950 . S
C840 C838 1.391 1_556 S
C840 C841 1.400 . S
C841 C835 1.491 . S
C841 C840 1.400 . S
C841 C842 1.398 . S
C842 H830 0.950 . S
C842 C841 1.398 . S
C842 C843 1.391 . S
C843 H831 0.950 . S
C843 C839 1.393 . S
C843 C842 1.391 . S
H844 C852 0.950 . S
H845 C857 0.950 . S
H846 C854 0.950 . S
H847 C856 0.950 . S
H848 C858 0.950 . S
H849 C860 0.950 . S
H850 C862 0.950 . S
H851 C863 0.950 . S
C852 H844 0.950 . S
C852 C853 1.386 . S
C852 C854 1.391 . S
C853 C852 1.386 . S
C853 C857 1.393 . S
C854 H846 0.950 . S
C854 C852 1.391 . S
C854 C855 1.400 . S
C855 C854 1.400 . S
C855 C856 1.398 . S
C855 C861 1.491 . S
C856 H847 0.950 . S
C856 C855 1.398 . S
C856 C857 1.391 . S
C857 H845 0.950 . S
C857 C853 1.393 . S
C857 C856 1.391 . S
C858 H848 0.950 . S
C858 C859 1.386 . S
C858 C860 1.391 . S
C859 C858 1.386 . S
C859 C863 1.393 . S
C860 H849 0.950 . S
C860 C858 1.391 . S
C860 C861 1.400 . S
C861 C855 1.491 . S
C861 C860 1.400 . S
C861 C862 1.398 . S
C862 H850 0.950 . S
C862 C861 1.398 . S
C862 C863 1.391 . S
C863 H851 0.950 . S
C863 C859 1.393 . S
C863 C862 1.391 . S
H864 C872 0.950 . S
H865 C877 0.947 . S
H866 C874 0.950 . S
H867 C876 0.950 . S
H868 C878 0.950 . S
H869 C880 0.950 . S
H870 C882 0.950 . S
H871 C883 0.950 . S
C872 H864 0.950 . S
C872 C873 1.386 . S
C872 C874 1.391 . S
C873 C872 1.386 . S
C873 C877 1.396 1_545 S
C874 H866 0.950 . S
C874 C872 1.391 . S
C874 C875 1.400 . S
C875 C874 1.400 . S
C875 C876 1.398 1_545 S
C875 C881 1.491 . S
C876 H867 0.950 . S
C876 C875 1.398 1_565 S
C876 C877 1.390 . S
C877 H865 0.947 . S
C877 C873 1.396 1_565 S
C877 C876 1.390 . S
C878 H868 0.950 . S
C878 C879 1.386 1_565 S
C878 C880 1.391 . S
C879 C878 1.386 1_545 S
C879 C883 1.393 . S
C880 H869 0.950 . S
C880 C878 1.391 . S
C880 C881 1.400 1_565 S
C881 C875 1.491 . S
C881 C880 1.400 1_545 S
C881 C882 1.398 . S
C882 H870 0.950 . S
C882 C881 1.398 . S
C882 C883 1.391 . S
C883 H871 0.950 . S
C883 C879 1.393 . S
C883 C882 1.391 . S
H884 C892 0.950 . S
H885 C897 0.950 . S
H886 C894 0.950 . S
H887 C896 0.950 . S
H888 C898 0.950 . S
H889 C900 0.950 . S
H890 C902 0.950 . S
H891 C903 0.950 . S
C892 H884 0.950 . S
C892 C893 1.386 . S
C892 C894 1.391 . S
C893 C892 1.386 . S
C893 C897 1.393 . S
C894 H886 0.950 . S
C894 C892 1.391 . S
C894 C895 1.400 . S
C895 C894 1.400 . S
C895 C896 1.398 . S
C895 C901 1.491 . S
C896 H887 0.950 . S
C896 C895 1.398 . S
C896 C897 1.391 . S
C897 H885 0.950 . S
C897 C893 1.393 . S
C897 C896 1.391 . S
C898 H888 0.950 . S
C898 C899 1.386 . S
C898 C900 1.391 . S
C899 C898 1.386 . S
C899 C903 1.393 . S
C900 H889 0.950 . S
C900 C898 1.391 . S
C900 C901 1.400 . S
C901 C895 1.491 . S
C901 C900 1.400 . S
C901 C902 1.398 . S
C902 H890 0.950 . S
C902 C901 1.398 . S
C902 C903 1.391 . S
C903 H891 0.950 . S
C903 C899 1.393 . S
C903 C902 1.391 . S
H904 C912 0.950 . S
H905 C917 0.950 . S
H906 C914 0.950 . S
H907 C916 0.950 . S
H908 C918 0.950 . S
H909 C920 0.950 . S
H910 C922 0.950 . S
H911 C923 0.950 . S
C912 H904 0.950 . S
C912 C913 1.386 . S
C912 C914 1.391 . S
C913 C912 1.386 . S
C913 C917 1.393 1_545 S
C914 H906 0.950 . S
C914 C912 1.391 . S
C914 C915 1.400 . S
C915 C914 1.400 . S
C915 C916 1.398 1_545 S
C915 C921 1.491 . S
C916 H907 0.950 . S
C916 C915 1.398 1_565 S
C916 C917 1.391 . S
C917 H905 0.950 . S
C917 C913 1.393 1_565 S
C917 C916 1.391 . S
C918 H908 0.950 . S
C918 C919 1.386 1_565 S
C918 C920 1.391 . S
C919 C918 1.386 1_545 S
C919 C923 1.393 . S
C920 H909 0.950 . S
C920 C918 1.391 . S
C920 C921 1.400 1_565 S
C921 C915 1.491 . S
C921 C920 1.400 1_545 S
C921 C922 1.398 . S
C922 H910 0.950 . S
C922 C921 1.398 . S
C922 C923 1.391 . S
C923 H911 0.950 . S
C923 C919 1.393 . S
C923 C922 1.391 . S
H924 C932 0.950 . S
H925 C937 0.950 . S
H926 C934 0.950 . S
H927 C936 0.950 . S
H928 C938 0.950 . S
H929 C940 0.950 . S
H930 C942 0.950 . S
H931 C943 0.950 . S
C932 H924 0.950 . S
C932 C933 1.386 . S
C932 C934 1.391 . S
C933 C932 1.386 . S
C933 C937 1.393 . S
C934 H926 0.950 . S
C934 C932 1.391 . S
C934 C935 1.400 . S
C935 C934 1.400 . S
C935 C936 1.398 . S
C935 C941 1.491 . S
C936 H927 0.950 . S
C936 C935 1.398 . S
C936 C937 1.391 . S
C937 H925 0.950 . S
C937 C933 1.393 . S
C937 C936 1.391 . S
C938 H928 0.950 . S
C938 C939 1.386 . S
C938 C940 1.391 . S
C939 C938 1.386 . S
C939 C943 1.393 . S
C940 H929 0.950 . S
C940 C938 1.391 . S
C940 C941 1.400 . S
C941 C935 1.491 . S
C941 C940 1.400 . S
C941 C942 1.398 . S
C942 H930 0.950 . S
C942 C941 1.398 . S
C942 C943 1.391 . S
C943 H931 0.950 . S
C943 C939 1.393 . S
C943 C942 1.391 . S
H944 C952 0.950 . S
H945 C957 0.950 . S
H946 C954 0.950 . S
H947 C956 0.950 . S
H948 C958 0.950 . S
H949 C960 0.950 . S
H950 C962 0.950 . S
H951 C963 0.950 . S
C952 H944 0.950 . S
C952 C953 1.386 . S
C952 C954 1.391 . S
C953 C952 1.386 . S
C953 C957 1.393 . S
C954 H946 0.950 . S
C954 C952 1.391 . S
C954 C955 1.400 . S
C955 C954 1.400 . S
C955 C956 1.398 . S
C955 C961 1.491 . S
C956 H947 0.950 . S
C956 C955 1.398 . S
C956 C957 1.391 . S
C957 H945 0.950 . S
C957 C953 1.393 . S
C957 C956 1.391 . S
C958 H948 0.950 . S
C958 C959 1.386 . S
C958 C960 1.391 . S
C959 C958 1.386 . S
C959 C963 1.393 . S
C960 H949 0.950 . S
C960 C958 1.391 . S
C960 C961 1.400 . S
C961 C955 1.491 . S
C961 C960 1.400 . S
C961 C962 1.398 . S
C962 H950 0.950 . S
C962 C961 1.398 . S
C962 C963 1.391 . S
C963 H951 0.950 . S
C963 C959 1.393 . S
C963 C962 1.391 . S
H964 C972 0.950 . S
H965 C977 0.950 . S
H966 C974 0.950 . S
H967 C976 0.950 . S
H968 C978 0.950 . S
H969 C980 0.950 . S
H970 C982 0.950 . S
H971 C983 0.950 . S
C972 H964 0.950 . S
C972 C973 1.386 . S
C972 C974 1.391 . S
C973 C972 1.386 . S
C973 C977 1.393 . S
C974 H966 0.950 . S
C974 C972 1.391 . S
C974 C975 1.400 . S
C975 C974 1.400 . S
C975 C976 1.398 . S
C975 C981 1.491 . S
C976 H967 0.950 . S
C976 C975 1.398 . S
C976 C977 1.391 . S
C977 H965 0.950 . S
C977 C973 1.393 . S
C977 C976 1.391 . S
C978 H968 0.950 . S
C978 C979 1.386 . S
C978 C980 1.391 . S
C979 C978 1.386 . S
C979 C983 1.393 . S
C980 H969 0.950 . S
C980 C978 1.391 . S
C980 C981 1.400 . S
C981 C975 1.491 . S
C981 C980 1.400 . S
C981 C982 1.398 . S
C982 H970 0.950 . S
C982 C981 1.398 . S
C982 C983 1.391 . S
C983 H971 0.950 . S
C983 C979 1.393 . S
C983 C982 1.391 . S
H984 C992 0.950 . S
H985 C997 0.950 . S
H986 C994 0.950 . S
H987 C996 0.950 . S
H988 C998 0.950 . S
H989 C1000 0.950 . S
H990 C1002 0.950 . S
H991 C1003 0.950 . S
C992 H984 0.950 . S
C992 C993 1.386 . S
C992 C994 1.391 . S
C993 C992 1.386 . S
C993 C997 1.393 1_565 S
C994 H986 0.950 . S
C994 C992 1.391 . S
C994 C995 1.400 . S
C995 C994 1.400 . S
C995 C996 1.398 1_565 S
C995 C1001 1.491 . S
C996 H987 0.950 . S
C996 C995 1.398 1_545 S
C996 C997 1.391 . S
C997 H985 0.950 . S
C997 C993 1.393 1_545 S
C997 C996 1.391 . S
C998 H988 0.950 . S
C998 C999 1.386 1_545 S
C998 C1000 1.391 . S
C999 C998 1.386 1_565 S
C999 C1003 1.393 . S
C1000 H989 0.950 . S
C1000 C998 1.391 . S
C1000 C1001 1.400 1_545 S
C1001 C995 1.491 . S
C1001 C1000 1.400 1_565 S
C1001 C1002 1.398 . S
C1002 H990 0.950 . S
C1002 C1001 1.398 . S
C1002 C1003 1.391 . S
C1003 H991 0.950 . S
C1003 C999 1.393 . S
C1003 C1002 1.391 . S
H1004 C1012 0.950 . S
H1005 C1017 0.950 . S
H1006 C1014 0.950 . S
H1007 C1016 0.950 . S
H1008 C1018 0.950 . S
H1009 C1020 0.950 . S
H1010 C1022 0.950 . S
H1011 C1023 0.950 . S
C1012 H1004 0.950 . S
C1012 C1013 1.386 . S
C1012 C1014 1.391 . S
C1013 C1012 1.386 . S
C1013 C1017 1.393 . S
C1014 H1006 0.950 . S
C1014 C1012 1.391 . S
C1014 C1015 1.400 . S
C1015 C1014 1.400 . S
C1015 C1016 1.398 . S
C1015 C1021 1.491 . S
C1016 H1007 0.950 . S
C1016 C1015 1.398 . S
C1016 C1017 1.391 . S
C1017 H1005 0.950 . S
C1017 C1013 1.393 . S
C1017 C1016 1.391 . S
C1018 H1008 0.950 . S
C1018 C1019 1.386 . S
C1018 C1020 1.391 . S
C1019 C1018 1.386 . S
C1019 C1023 1.393 . S
C1020 H1009 0.950 . S
C1020 C1018 1.391 . S
C1020 C1021 1.400 . S
C1021 C1015 1.491 . S
C1021 C1020 1.400 . S
C1021 C1022 1.398 . S
C1022 H1010 0.950 . S
C1022 C1021 1.398 . S
C1022 C1023 1.391 . S
C1023 H1011 0.950 . S
C1023 C1019 1.393 . S
C1023 C1022 1.391 . S
H1024 C1032 0.950 . S
H1025 C1037 0.950 . S
H1026 C1034 0.950 . S
H1027 C1036 0.950 . S
H1028 C1038 0.950 . S
H1029 C1040 0.950 . S
H1030 C1042 0.950 . S
H1031 C1043 0.950 . S
C1032 H1024 0.950 . S
C1032 C1033 1.386 . S
C1032 C1034 1.391 . S
C1033 C1032 1.386 . S
C1033 C1037 1.393 1_554 S
C1034 H1026 0.950 . S
C1034 C1032 1.391 . S
C1034 C1035 1.400 . S
C1035 C1034 1.400 . S
C1035 C1036 1.398 1_554 S
C1035 C1041 1.491 . S
C1036 H1027 0.950 . S
C1036 C1035 1.398 1_556 S
C1036 C1037 1.391 . S
C1037 H1025 0.950 . S
C1037 C1033 1.393 1_556 S
C1037 C1036 1.391 . S
C1038 H1028 0.950 . S
C1038 C1039 1.386 . S
C1038 C1040 1.391 . S
C1039 C1038 1.386 . S
C1039 C1043 1.393 1_556 S
C1040 H1029 0.950 . S
C1040 C1038 1.391 . S
C1040 C1041 1.400 1_556 S
C1041 C1035 1.491 . S
C1041 C1040 1.400 1_554 S
C1041 C1042 1.398 . S
C1042 H1030 0.950 . S
C1042 C1041 1.398 . S
C1042 C1043 1.391 . S
C1043 H1031 0.950 . S
C1043 C1039 1.393 1_554 S
C1043 C1042 1.391 . S
H1044 C1052 0.950 . S
H1045 C1057 0.950 . S
H1046 C1054 0.950 . S
H1047 C1056 0.950 . S
H1048 C1058 0.950 1_556 S
H1049 C1060 0.950 1_556 S
H1050 C1062 0.950 . S
H1051 C1063 0.950 . S
C1052 H1044 0.950 . S
C1052 C1053 1.386 . S
C1052 C1054 1.391 . S
C1053 C1052 1.386 . S
C1053 C1057 1.393 1_554 S
C1054 H1046 0.950 . S
C1054 C1052 1.391 . S
C1054 C1055 1.400 . S
C1055 C1054 1.400 . S
C1055 C1056 1.398 1_554 S
C1055 C1061 1.491 . S
C1056 H1047 0.950 . S
C1056 C1055 1.398 1_556 S
C1056 C1057 1.391 . S
C1057 H1045 0.950 . S
C1057 C1053 1.393 1_556 S
C1057 C1056 1.391 . S
C1058 H1048 0.950 1_554 S
C1058 C1059 1.386 . S
C1058 C1060 1.391 . S
C1059 C1058 1.386 . S
C1059 C1063 1.393 . S
C1060 H1049 0.950 1_554 S
C1060 C1058 1.391 . S
C1060 C1061 1.400 . S
C1061 C1055 1.491 . S
C1061 C1060 1.400 . S
C1061 C1062 1.398 . S
C1062 H1050 0.950 . S
C1062 C1061 1.398 . S
C1062 C1063 1.391 . S
C1063 H1051 0.950 . S
C1063 C1059 1.393 . S
C1063 C1062 1.391 . S
H1064 C1072 0.950 . S
H1065 C1077 0.950 . S
H1066 C1074 0.950 . S
H1067 C1076 0.950 . S
H1068 C1078 0.950 . S
H1069 C1080 0.950 . S
H1070 C1082 0.950 . S
H1071 C1083 0.950 . S
C1072 H1064 0.950 . S
C1072 C1073 1.386 . S
C1072 C1074 1.391 . S
C1073 C1072 1.386 . S
C1073 C1077 1.393 . S
C1074 H1066 0.950 . S
C1074 C1072 1.391 . S
C1074 C1075 1.400 . S
C1075 C1074 1.400 . S
C1075 C1076 1.398 . S
C1075 C1081 1.491 . S
C1076 H1067 0.950 . S
C1076 C1075 1.398 . S
C1076 C1077 1.391 . S
C1077 H1065 0.950 . S
C1077 C1073 1.393 . S
C1077 C1076 1.391 . S
C1078 H1068 0.950 . S
C1078 C1079 1.386 . S
C1078 C1080 1.391 . S
C1079 C1078 1.386 . S
C1079 C1083 1.393 . S
C1080 H1069 0.950 . S
C1080 C1078 1.391 . S
C1080 C1081 1.400 . S
C1081 C1075 1.491 . S
C1081 C1080 1.400 . S
C1081 C1082 1.398 . S
C1082 H1070 0.950 . S
C1082 C1081 1.398 . S
C1082 C1083 1.391 . S
C1083 H1071 0.950 . S
C1083 C1079 1.393 . S
C1083 C1082 1.391 . S
H1084 C1092 0.950 . S
H1085 C1097 0.950 . S
H1086 C1094 0.950 . S
H1087 C1096 0.950 . S
H1088 C1098 0.950 . S
H1089 C1100 0.950 . S
H1090 C1102 0.950 . S
H1091 C1103 0.950 . S
C1092 H1084 0.950 . S
C1092 C1093 1.386 . S
C1092 C1094 1.391 . S
C1093 C1092 1.386 . S
C1093 C1097 1.393 . S
C1094 H1086 0.950 . S
C1094 C1092 1.391 . S
C1094 C1095 1.400 . S
C1095 C1094 1.400 . S
C1095 C1096 1.398 . S
C1095 C1101 1.491 . S
C1096 H1087 0.950 . S
C1096 C1095 1.398 . S
C1096 C1097 1.391 . S
C1097 H1085 0.950 . S
C1097 C1093 1.393 . S
C1097 C1096 1.391 . S
C1098 H1088 0.950 . S
C1098 C1099 1.386 . S
C1098 C1100 1.391 . S
C1099 C1098 1.386 . S
C1099 C1103 1.393 . S
C1100 H1089 0.950 . S
C1100 C1098 1.391 . S
C1100 C1101 1.400 . S
C1101 C1095 1.491 . S
C1101 C1100 1.400 . S
C1101 C1102 1.398 . S
C1102 H1090 0.950 . S
C1102 C1101 1.398 . S
C1102 C1103 1.391 . S
C1103 H1091 0.950 . S
C1103 C1099 1.393 . S
C1103 C1102 1.391 . S
H1104 C1112 0.950 . S
H1105 C1117 0.950 . S
H1106 C1114 0.950 . S
H1107 C1116 0.950 . S
H1108 C1118 0.950 . S
H1109 C1120 0.950 . S
H1110 C1122 0.950 . S
H1111 C1123 0.950 . S
C1112 H1104 0.950 . S
C1112 C1113 1.386 . S
C1112 C1114 1.391 . S
C1113 C1112 1.386 . S
C1113 C1117 1.393 . S
C1114 H1106 0.950 . S
C1114 C1112 1.391 . S
C1114 C1115 1.400 . S
C1115 C1114 1.400 . S
C1115 C1116 1.398 . S
C1115 C1121 1.491 . S
C1116 H1107 0.950 . S
C1116 C1115 1.398 . S
C1116 C1117 1.391 . S
C1117 H1105 0.950 . S
C1117 C1113 1.393 . S
C1117 C1116 1.391 . S
C1118 H1108 0.950 . S
C1118 C1119 1.386 . S
C1118 C1120 1.391 . S
C1119 C1118 1.386 . S
C1119 C1123 1.393 . S
C1120 H1109 0.950 . S
C1120 C1118 1.391 . S
C1120 C1121 1.400 . S
C1121 C1115 1.491 . S
C1121 C1120 1.400 . S
C1121 C1122 1.398 . S
C1122 H1110 0.950 . S
C1122 C1121 1.398 . S
C1122 C1123 1.391 . S
C1123 H1111 0.950 . S
C1123 C1119 1.393 . S
C1123 C1122 1.391 . S
H1124 C1132 0.950 . S
H1125 C1137 0.950 . S
H1126 C1134 0.950 . S
H1127 C1136 0.950 . S
H1128 C1138 0.950 . S
H1129 C1140 0.950 . S
H1130 C1142 0.956 . S
H1131 C1143 0.950 . S
C1132 H1124 0.950 . S
C1132 C1133 1.386 . S
C1132 C1134 1.391 . S
C1133 C1132 1.386 . S
C1133 C1137 1.393 . S
C1134 H1126 0.950 . S
C1134 C1132 1.391 . S
C1134 C1135 1.400 . S
C1135 C1134 1.400 . S
C1135 C1136 1.398 . S
C1135 C1141 1.491 . S
C1136 H1127 0.950 . S
C1136 C1135 1.398 . S
C1136 C1137 1.391 . S
C1137 H1125 0.950 . S
C1137 C1133 1.393 . S
C1137 C1136 1.391 . S
C1138 H1128 0.950 . S
C1138 C1139 1.386 . S
C1138 C1140 1.391 . S
C1139 C1138 1.386 . S
C1139 C1143 1.393 1_565 S
C1140 H1129 0.950 . S
C1140 C1138 1.391 . S
C1140 C1141 1.400 . S
C1141 C1135 1.491 . S
C1141 C1140 1.400 . S
C1141 C1142 1.398 . S
C1142 H1130 0.956 . S
C1142 C1141 1.398 . S
C1142 C1143 1.391 1_565 S
C1143 H1131 0.950 . S
C1143 C1139 1.393 1_545 S
C1143 C1142 1.391 1_545 S
H1144 C1152 0.950 . S
H1145 C1157 0.950 . S
H1146 C1154 0.950 . S
H1147 C1156 0.950 . S
H1148 C1158 0.950 . S
H1149 C1160 0.950 . S
H1150 C1162 0.950 . S
H1151 C1163 0.950 . S
C1152 H1144 0.950 . S
C1152 C1153 1.386 . S
C1152 C1154 1.391 . S
C1153 C1152 1.386 . S
C1153 C1157 1.393 . S
C1154 H1146 0.950 . S
C1154 C1152 1.391 . S
C1154 C1155 1.400 . S
C1155 C1154 1.400 . S
C1155 C1156 1.398 . S
C1155 C1161 1.491 . S
C1156 H1147 0.950 . S
C1156 C1155 1.398 . S
C1156 C1157 1.391 . S
C1157 H1145 0.950 . S
C1157 C1153 1.393 . S
C1157 C1156 1.391 . S
C1158 H1148 0.950 . S
C1158 C1159 1.386 . S
C1158 C1160 1.391 . S
C1159 C1158 1.386 . S
C1159 C1163 1.393 . S
C1160 H1149 0.950 . S
C1160 C1158 1.391 . S
C1160 C1161 1.400 . S
C1161 C1155 1.491 . S
C1161 C1160 1.400 . S
C1161 C1162 1.398 . S
C1162 H1150 0.950 . S
C1162 C1161 1.398 . S
C1162 C1163 1.391 . S
C1163 H1151 0.950 . S
C1163 C1159 1.393 . S
C1163 C1162 1.391 . S
H1164 C1172 0.950 . S
H1165 C1177 0.950 . S
H1166 C1174 0.950 . S
H1167 C1176 0.950 . S
H1168 C1178 0.950 . S
H1169 C1180 0.950 . S
H1170 C1182 0.950 . S
H1171 C1183 0.950 . S
C1172 H1164 0.950 . S
C1172 C1173 1.386 . S
C1172 C1174 1.391 . S
C1173 C1172 1.386 . S
C1173 C1177 1.393 . S
C1174 H1166 0.950 . S
C1174 C1172 1.391 . S
C1174 C1175 1.400 . S
C1175 C1174 1.400 . S
C1175 C1176 1.398 . S
C1175 C1181 1.491 . S
C1176 H1167 0.950 . S
C1176 C1175 1.398 . S
C1176 C1177 1.391 . S
C1177 H1165 0.950 . S
C1177 C1173 1.393 . S
C1177 C1176 1.391 . S
C1178 H1168 0.950 . S
C1178 C1179 1.386 . S
C1178 C1180 1.391 . S
C1179 C1178 1.386 . S
C1179 C1183 1.393 . S
C1180 H1169 0.950 . S
C1180 C1178 1.391 . S
C1180 C1181 1.400 . S
C1181 C1175 1.491 . S
C1181 C1180 1.400 . S
C1181 C1182 1.398 . S
C1182 H1170 0.950 . S
C1182 C1181 1.398 . S
C1182 C1183 1.391 . S
C1183 H1171 0.950 . S
C1183 C1179 1.393 . S
C1183 C1182 1.391 . S
H1184 C1192 0.950 1_655 S
H1185 C1197 0.950 . S
H1186 C1194 0.950 . S
H1187 C1196 0.950 . S
H1188 C1198 0.950 . S
H1189 C1200 0.950 . S
H1190 C1202 0.950 . S
H1191 C1203 0.950 1_554 S
C1192 H1184 0.950 1_455 S
C1192 C1193 1.386 . S
C1192 C1194 1.391 . S
C1193 C1192 1.386 . S
C1193 C1197 1.393 . S
C1194 H1186 0.950 . S
C1194 C1192 1.391 . S
C1194 C1195 1.400 . S
C1195 C1194 1.400 . S
C1195 C1196 1.398 . S
C1195 C1201 1.491 . S
C1196 H1187 0.950 . S
C1196 C1195 1.398 . S
C1196 C1197 1.391 . S
C1197 H1185 0.950 . S
C1197 C1193 1.393 . S
C1197 C1196 1.391 . S
C1198 H1188 0.950 . S
C1198 C1199 1.386 . S
C1198 C1200 1.391 . S
C1199 C1198 1.386 . S
C1199 C1203 1.393 . S
C1200 H1189 0.950 . S
C1200 C1198 1.391 . S
C1200 C1201 1.400 . S
C1201 C1195 1.491 . S
C1201 C1200 1.400 . S
C1201 C1202 1.398 . S
C1202 H1190 0.950 . S
C1202 C1201 1.398 . S
C1202 C1203 1.391 . S
C1203 H1191 0.950 1_556 S
C1203 C1199 1.393 . S
C1203 C1202 1.391 . S
H1204 C1212 0.950 . S
H1205 C1217 0.950 . S
H1206 C1214 0.950 . S
H1207 C1216 0.950 . S
H1208 C1218 0.950 . S
H1209 C1220 0.950 . S
H1210 C1222 0.950 . S
H1211 C1223 0.950 . S
C1212 H1204 0.950 . S
C1212 C1213 1.386 . S
C1212 C1214 1.391 . S
C1213 C1212 1.386 . S
C1213 C1217 1.393 . S
C1214 H1206 0.950 . S
C1214 C1212 1.391 . S
C1214 C1215 1.400 . S
C1215 C1214 1.400 . S
C1215 C1216 1.398 . S
C1215 C1221 1.491 . S
C1216 H1207 0.950 . S
C1216 C1215 1.398 . S
C1216 C1217 1.391 . S
C1217 H1205 0.950 . S
C1217 C1213 1.393 . S
C1217 C1216 1.391 . S
C1218 H1208 0.950 . S
C1218 C1219 1.386 . S
C1218 C1220 1.391 . S
C1219 C1218 1.386 . S
C1219 C1223 1.393 . S
C1220 H1209 0.950 . S
C1220 C1218 1.391 . S
C1220 C1221 1.400 . S
C1221 C1215 1.491 . S
C1221 C1220 1.400 . S
C1221 C1222 1.398 . S
C1222 H1210 0.950 . S
C1222 C1221 1.398 . S
C1222 C1223 1.391 . S
C1223 H1211 0.950 . S
C1223 C1219 1.393 . S
C1223 C1222 1.391 . S
H1224 C1232 0.950 . S
H1225 C1237 0.950 . S
H1226 C1234 0.950 . S
H1227 C1236 0.950 . S
H1228 C1238 0.950 . S
H1229 C1240 0.950 . S
H1230 C1242 0.950 . S
H1231 C1243 0.950 . S
C1232 H1224 0.950 . S
C1232 C1233 1.386 . S
C1232 C1234 1.391 . S
C1233 C1232 1.386 . S
C1233 C1237 1.393 . S
C1234 H1226 0.950 . S
C1234 C1232 1.391 . S
C1234 C1235 1.400 . S
C1235 C1234 1.400 . S
C1235 C1236 1.398 . S
C1235 C1241 1.491 . S
C1236 H1227 0.950 . S
C1236 C1235 1.398 . S
C1236 C1237 1.391 . S
C1237 H1225 0.950 . S
C1237 C1233 1.393 . S
C1237 C1236 1.391 . S
C1238 H1228 0.950 . S
C1238 C1239 1.386 . S
C1238 C1240 1.391 . S
C1239 C1238 1.386 . S
C1239 C1243 1.393 . S
C1240 H1229 0.950 . S
C1240 C1238 1.391 . S
C1240 C1241 1.400 . S
C1241 C1235 1.491 . S
C1241 C1240 1.400 . S
C1241 C1242 1.398 . S
C1242 H1230 0.950 . S
C1242 C1241 1.398 . S
C1242 C1243 1.391 . S
C1243 H1231 0.950 . S
C1243 C1239 1.393 . S
C1243 C1242 1.391 . S
H1244 C1252 0.950 . S
H1245 C1257 0.950 . S
H1246 C1254 0.950 . S
H1247 C1256 0.950 . S
H1248 C1258 0.950 . S
H1249 C1260 0.950 . S
H1250 C1262 0.950 . S
H1251 C1263 0.950 . S
C1252 H1244 0.950 . S
C1252 C1253 1.386 . S
C1252 C1254 1.391 . S
C1253 C1252 1.386 . S
C1253 C1257 1.393 . S
C1254 H1246 0.950 . S
C1254 C1252 1.391 . S
C1254 C1255 1.400 . S
C1255 C1254 1.400 . S
C1255 C1256 1.398 . S
C1255 C1261 1.491 . S
C1256 H1247 0.950 . S
C1256 C1255 1.398 . S
C1256 C1257 1.391 . S
C1257 H1245 0.950 . S
C1257 C1253 1.393 . S
C1257 C1256 1.391 . S
C1258 H1248 0.950 . S
C1258 C1259 1.386 . S
C1258 C1260 1.391 . S
C1259 C1258 1.386 . S
C1259 C1263 1.393 . S
C1260 H1249 0.950 . S
C1260 C1258 1.391 . S
C1260 C1261 1.400 . S
C1261 C1255 1.491 . S
C1261 C1260 1.400 . S
C1261 C1262 1.398 . S
C1262 H1250 0.950 . S
C1262 C1261 1.398 . S
C1262 C1263 1.391 . S
C1263 H1251 0.950 . S
C1263 C1259 1.393 . S
C1263 C1262 1.391 . S
H1264 C1272 0.950 . S
H1265 C1277 0.950 . S
H1266 C1274 0.950 . S
H1267 C1276 0.950 . S
H1268 C1278 0.950 . S
H1269 C1280 0.950 . S
H1270 C1282 0.973 . S
H1271 C1283 0.950 1_655 S
C1272 H1264 0.950 . S
C1272 C1273 1.386 1_655 S
C1272 C1274 1.391 . S
C1273 C1272 1.386 1_455 S
C1273 C1277 1.393 . S
C1274 H1266 0.950 . S
C1274 C1272 1.391 . S
C1274 C1275 1.400 1_655 S
C1275 C1274 1.400 1_455 S
C1275 C1276 1.398 . S
C1275 C1281 1.491 . S
C1276 H1267 0.950 . S
C1276 C1275 1.398 . S
C1276 C1277 1.391 . S
C1277 H1265 0.950 . S
C1277 C1273 1.393 . S
C1277 C1276 1.391 . S
C1278 H1268 0.950 . S
C1278 C1279 1.386 . S
C1278 C1280 1.391 . S
C1279 C1278 1.386 . S
C1279 C1283 1.393 . S
C1280 H1269 0.950 . S
C1280 C1278 1.391 . S
C1280 C1281 1.400 . S
C1281 C1275 1.491 . S
C1281 C1280 1.400 . S
C1281 C1282 1.380 1_455 S
C1282 H1270 0.973 . S
C1282 C1281 1.380 1_655 S
C1282 C1283 1.387 1_655 S
C1283 H1271 0.950 1_455 S
C1283 C1279 1.393 . S
C1283 C1282 1.387 1_455 S
H1284 C1292 0.950 . S
H1285 C1297 0.950 . S
H1286 C1294 0.950 . S
H1287 C1296 0.950 . S
H1288 C1298 0.950 . S
H1289 C1300 0.950 . S
H1290 C1302 0.950 . S
H1291 C1303 0.950 . S
C1292 H1284 0.950 . S
C1292 C1293 1.386 . S
C1292 C1294 1.391 . S
C1293 C1292 1.386 . S
C1293 C1297 1.393 . S
C1294 H1286 0.950 . S
C1294 C1292 1.391 . S
C1294 C1295 1.400 . S
C1295 C1294 1.400 . S
C1295 C1296 1.398 . S
C1295 C1301 1.491 . S
C1296 H1287 0.950 . S
C1296 C1295 1.398 . S
C1296 C1297 1.391 . S
C1297 H1285 0.950 . S
C1297 C1293 1.393 . S
C1297 C1296 1.391 . S
C1298 H1288 0.950 . S
C1298 C1299 1.386 . S
C1298 C1300 1.391 . S
C1299 C1298 1.386 . S
C1299 C1303 1.393 . S
C1300 H1289 0.950 . S
C1300 C1298 1.391 . S
C1300 C1301 1.400 . S
C1301 C1295 1.491 . S
C1301 C1300 1.400 . S
C1301 C1302 1.398 . S
C1302 H1290 0.950 . S
C1302 C1301 1.398 . S
C1302 C1303 1.391 . S
C1303 H1291 0.950 . S
C1303 C1299 1.393 . S
C1303 C1302 1.391 . S
H1304 C1312 0.950 . S
H1305 C1317 0.950 . S
H1306 C1314 0.950 . S
H1307 C1316 0.950 . S
H1308 C1318 0.950 . S
H1309 C1320 0.950 . S
H1310 C1322 0.950 . S
H1311 C1323 0.950 . S
C1312 H1304 0.950 . S
C1312 C1313 1.386 . S
C1312 C1314 1.391 . S
C1313 C1312 1.386 . S
C1313 C1317 1.393 . S
C1314 H1306 0.950 . S
C1314 C1312 1.391 . S
C1314 C1315 1.400 . S
C1315 C1314 1.400 . S
C1315 C1316 1.398 . S
C1315 C1321 1.491 . S
C1316 H1307 0.950 . S
C1316 C1315 1.398 . S
C1316 C1317 1.391 . S
C1317 H1305 0.950 . S
C1317 C1313 1.393 . S
C1317 C1316 1.391 . S
C1318 H1308 0.950 . S
C1318 C1319 1.386 . S
C1318 C1320 1.391 . S
C1319 C1318 1.386 . S
C1319 C1323 1.393 . S
C1320 H1309 0.950 . S
C1320 C1318 1.391 . S
C1320 C1321 1.400 . S
C1321 C1315 1.491 . S
C1321 C1320 1.400 . S
C1321 C1322 1.398 . S
C1322 H1310 0.950 . S
C1322 C1321 1.398 . S
C1322 C1323 1.391 . S
C1323 H1311 0.950 . S
C1323 C1319 1.393 . S
C1323 C1322 1.391 . S
H1324 C1332 0.950 . S
H1325 C1337 0.950 . S
H1326 C1334 0.950 . S
H1327 C1336 0.950 . S
H1328 C1338 0.950 . S
H1329 C1340 0.950 . S
H1330 C1342 0.950 . S
H1331 C1343 0.950 . S
C1332 H1324 0.950 . S
C1332 C1333 1.386 . S
C1332 C1334 1.391 . S
C1333 C1332 1.386 . S
C1333 C1337 1.393 . S
C1334 H1326 0.950 . S
C1334 C1332 1.391 . S
C1334 C1335 1.400 . S
C1335 C1334 1.400 . S
C1335 C1336 1.398 . S
C1335 C1341 1.491 . S
C1336 H1327 0.950 . S
C1336 C1335 1.398 . S
C1336 C1337 1.391 . S
C1337 H1325 0.950 . S
C1337 C1333 1.393 . S
C1337 C1336 1.391 . S
C1338 H1328 0.950 . S
C1338 C1339 1.386 . S
C1338 C1340 1.391 . S
C1339 C1338 1.386 . S
C1339 C1343 1.393 . S
C1340 H1329 0.950 . S
C1340 C1338 1.391 . S
C1340 C1341 1.400 . S
C1341 C1335 1.491 . S
C1341 C1340 1.400 . S
C1341 C1342 1.398 . S
C1342 H1330 0.950 . S
C1342 C1341 1.398 . S
C1342 C1343 1.391 . S
C1343 H1331 0.950 . S
C1343 C1339 1.393 . S
C1343 C1342 1.391 . S
H1344 C1352 0.950 . S
H1345 C1357 0.950 . S
H1346 C1354 0.950 . S
H1347 C1356 0.950 . S
H1348 C1358 0.962 . S
H1349 C1360 0.950 . S
H1350 C1362 0.950 . S
H1351 C1363 0.950 . S
C1352 H1344 0.950 . S
C1352 C1353 1.386 . S
C1352 C1354 1.391 . S
C1353 C1352 1.386 . S
C1353 C1357 1.393 . S
C1354 H1346 0.950 . S
C1354 C1352 1.391 . S
C1354 C1355 1.400 . S
C1355 C1354 1.400 . S
C1355 C1356 1.398 . S
C1355 C1361 1.491 . S
C1356 H1347 0.950 . S
C1356 C1355 1.398 . S
C1356 C1357 1.391 . S
C1357 H1345 0.950 . S
C1357 C1353 1.393 . S
C1357 C1356 1.391 . S
C1358 H1348 0.962 . S
C1358 C1359 1.386 . S
C1358 C1360 1.391 . S
C1359 C1358 1.386 . S
C1359 C1363 1.393 . S
C1360 H1349 0.950 . S
C1360 C1358 1.391 . S
C1360 C1361 1.400 . S
C1361 C1355 1.491 . S
C1361 C1360 1.400 . S
C1361 C1362 1.398 . S
C1362 H1350 0.950 . S
C1362 C1361 1.398 . S
C1362 C1363 1.391 . S
C1363 H1351 0.950 . S
C1363 C1359 1.393 . S
C1363 C1362 1.391 . S
H1364 C1372 0.950 . S
H1365 C1377 0.950 . S
H1366 C1374 0.950 . S
H1367 C1376 0.950 . S
H1368 C1378 0.950 . S
H1369 C1380 0.950 . S
H1370 C1382 0.950 . S
H1371 C1383 0.950 . S
C1372 H1364 0.950 . S
C1372 C1373 1.386 . S
C1372 C1374 1.391 . S
C1373 C1372 1.386 . S
C1373 C1377 1.393 . S
C1374 H1366 0.950 . S
C1374 C1372 1.391 . S
C1374 C1375 1.400 . S
C1375 C1374 1.400 . S
C1375 C1376 1.398 . S
C1375 C1381 1.491 . S
C1376 H1367 0.950 . S
C1376 C1375 1.398 . S
C1376 C1377 1.391 . S
C1377 H1365 0.950 . S
C1377 C1373 1.393 . S
C1377 C1376 1.391 . S
C1378 H1368 0.950 . S
C1378 C1379 1.386 . S
C1378 C1380 1.391 . S
C1379 C1378 1.386 . S
C1379 C1383 1.393 . S
C1380 H1369 0.950 . S
C1380 C1378 1.391 . S
C1380 C1381 1.400 . S
C1381 C1375 1.491 . S
C1381 C1380 1.400 . S
C1381 C1382 1.398 . S
C1382 H1370 0.950 . S
C1382 C1381 1.398 . S
C1382 C1383 1.391 . S
C1383 H1371 0.950 . S
C1383 C1379 1.393 . S
C1383 C1382 1.391 . S
H1384 C1392 0.950 . S
H1385 C1397 0.950 . S
H1386 C1394 0.950 . S
H1387 C1396 0.950 . S
H1388 C1398 0.950 . S
H1389 C1400 0.950 . S
H1390 C1402 0.950 . S
H1391 C1403 0.950 . S
C1392 H1384 0.950 . S
C1392 C1393 1.386 1_565 S
C1392 C1394 1.391 . S
C1393 C1392 1.386 1_545 S
C1393 C1397 1.393 . S
C1394 H1386 0.950 . S
C1394 C1392 1.391 . S
C1394 C1395 1.400 . S
C1395 C1394 1.400 . S
C1395 C1396 1.398 1_565 S
C1395 C1401 1.491 . S
C1396 H1387 0.950 . S
C1396 C1395 1.398 1_545 S
C1396 C1397 1.391 . S
C1397 H1385 0.950 . S
C1397 C1393 1.393 . S
C1397 C1396 1.391 . S
C1398 H1388 0.950 . S
C1398 C1399 1.386 1_545 S
C1398 C1400 1.391 . S
C1399 C1398 1.386 1_565 S
C1399 C1403 1.393 . S
C1400 H1389 0.950 . S
C1400 C1398 1.391 . S
C1400 C1401 1.400 1_545 S
C1401 C1395 1.491 . S
C1401 C1400 1.400 1_565 S
C1401 C1402 1.398 . S
C1402 H1390 0.950 . S
C1402 C1401 1.398 . S
C1402 C1403 1.391 . S
C1403 H1391 0.950 . S
C1403 C1399 1.393 . S
C1403 C1402 1.391 . S
H1404 C1412 0.950 . S
H1405 C1417 0.950 . S
H1406 C1414 0.950 . S
H1407 C1416 0.950 . S
H1408 C1418 0.950 . S
H1409 C1420 0.950 . S
H1410 C1422 0.950 . S
H1411 C1423 0.950 . S
C1412 H1404 0.950 . S
C1412 C1413 1.386 . S
C1412 C1414 1.391 . S
C1413 C1412 1.386 . S
C1413 C1417 1.393 . S
C1414 H1406 0.950 . S
C1414 C1412 1.391 . S
C1414 C1415 1.400 . S
C1415 C1414 1.400 . S
C1415 C1416 1.398 . S
C1415 C1421 1.491 . S
C1416 H1407 0.950 . S
C1416 C1415 1.398 . S
C1416 C1417 1.391 . S
C1417 H1405 0.950 . S
C1417 C1413 1.393 . S
C1417 C1416 1.391 . S
C1418 H1408 0.950 . S
C1418 C1419 1.386 . S
C1418 C1420 1.391 . S
C1419 C1418 1.386 . S
C1419 C1423 1.393 . S
C1420 H1409 0.950 . S
C1420 C1418 1.391 . S
C1420 C1421 1.400 . S
C1421 C1415 1.491 . S
C1421 C1420 1.400 . S
C1421 C1422 1.398 . S
C1422 H1410 0.950 . S
C1422 C1421 1.398 . S
C1422 C1423 1.391 . S
C1423 H1411 0.950 . S
C1423 C1419 1.393 . S
C1423 C1422 1.391 . S
H1424 C1432 0.950 . S
H1425 C1437 0.960 . S
H1426 C1434 0.950 . S
H1427 C1436 0.950 . S
H1428 C1438 0.950 . S
H1429 C1440 0.950 . S
H1430 C1442 0.950 . S
H1431 C1443 0.950 . S
C1432 H1424 0.950 . S
C1432 C1433 1.386 . S
C1432 C1434 1.391 . S
C1433 C1432 1.386 . S
C1433 C1437 1.380 1_545 S
C1434 H1426 0.950 . S
C1434 C1432 1.391 . S
C1434 C1435 1.400 . S
C1435 C1434 1.400 . S
C1435 C1436 1.398 1_545 S
C1435 C1441 1.491 . S
C1436 H1427 0.950 . S
C1436 C1435 1.398 1_565 S
C1436 C1437 1.394 . S
C1437 H1425 0.960 . S
C1437 C1433 1.380 1_565 S
C1437 C1436 1.394 . S
C1438 H1428 0.950 . S
C1438 C1439 1.386 . S
C1438 C1440 1.391 . S
C1439 C1438 1.386 . S
C1439 C1443 1.393 1_565 S
C1440 H1429 0.950 . S
C1440 C1438 1.391 . S
C1440 C1441 1.400 1_565 S
C1441 C1435 1.491 . S
C1441 C1440 1.400 1_545 S
C1441 C1442 1.398 . S
C1442 H1430 0.950 . S
C1442 C1441 1.398 . S
C1442 C1443 1.391 . S
C1443 H1431 0.950 . S
C1443 C1439 1.393 1_545 S
C1443 C1442 1.391 . S
H1444 C1452 0.950 . S
H1445 C1457 0.950 . S
H1446 C1454 0.950 . S
H1447 C1456 0.950 . S
H1448 C1458 0.950 . S
H1449 C1460 0.950 . S
H1450 C1462 0.950 . S
H1451 C1463 0.950 . S
C1452 H1444 0.950 . S
C1452 C1453 1.386 . S
C1452 C1454 1.391 . S
C1453 C1452 1.386 . S
C1453 C1457 1.393 . S
C1454 H1446 0.950 . S
C1454 C1452 1.391 . S
C1454 C1455 1.400 . S
C1455 C1454 1.400 . S
C1455 C1456 1.398 . S
C1455 C1461 1.491 . S
C1456 H1447 0.950 . S
C1456 C1455 1.398 . S
C1456 C1457 1.391 . S
C1457 H1445 0.950 . S
C1457 C1453 1.393 . S
C1457 C1456 1.391 . S
C1458 H1448 0.950 . S
C1458 C1459 1.386 . S
C1458 C1460 1.391 . S
C1459 C1458 1.386 . S
C1459 C1463 1.393 . S
C1460 H1449 0.950 . S
C1460 C1458 1.391 . S
C1460 C1461 1.400 . S
C1461 C1455 1.491 . S
C1461 C1460 1.400 . S
C1461 C1462 1.398 . S
C1462 H1450 0.950 . S
C1462 C1461 1.398 . S
C1462 C1463 1.391 . S
C1463 H1451 0.950 . S
C1463 C1459 1.393 . S
C1463 C1462 1.391 . S
H1464 C1472 0.950 . S
H1465 C1477 0.950 . S
H1466 C1474 0.950 . S
H1467 C1476 0.950 . S
H1468 C1478 0.950 . S
H1469 C1480 0.950 1_565 S
H1470 C1482 0.950 . S
H1471 C1483 0.950 . S
C1472 H1464 0.950 . S
C1472 C1473 1.386 . S
C1472 C1474 1.391 . S
C1473 C1472 1.386 . S
C1473 C1477 1.393 1_545 S
C1474 H1466 0.950 . S
C1474 C1472 1.391 . S
C1474 C1475 1.400 . S
C1475 C1474 1.400 . S
C1475 C1476 1.398 1_545 S
C1475 C1481 1.491 . S
C1476 H1467 0.950 . S
C1476 C1475 1.398 1_565 S
C1476 C1477 1.391 . S
C1477 H1465 0.950 . S
C1477 C1473 1.393 1_565 S
C1477 C1476 1.391 . S
C1478 H1468 0.950 . S
C1478 C1479 1.386 . S
C1478 C1480 1.391 . S
C1479 C1478 1.386 . S
C1479 C1483 1.393 . S
C1480 H1469 0.950 1_545 S
C1480 C1478 1.391 . S
C1480 C1481 1.400 . S
C1481 C1475 1.491 . S
C1481 C1480 1.400 . S
C1481 C1482 1.398 . S
C1482 H1470 0.950 . S
C1482 C1481 1.398 . S
C1482 C1483 1.391 . S
C1483 H1471 0.950 . S
C1483 C1479 1.393 . S
C1483 C1482 1.391 . S
H1484 C1492 0.950 . S
H1485 C1497 0.950 . S
H1486 C1494 0.950 . S
H1487 C1496 0.950 . S
H1488 C1498 0.950 . S
H1489 C1500 0.950 . S
H1490 C1502 0.950 . S
H1491 C1503 0.950 . S
C1492 H1484 0.950 . S
C1492 C1493 1.386 . S
C1492 C1494 1.391 . S
C1493 C1492 1.386 . S
C1493 C1497 1.393 . S
C1494 H1486 0.950 . S
C1494 C1492 1.391 . S
C1494 C1495 1.400 . S
C1495 C1494 1.400 . S
C1495 C1496 1.398 . S
C1495 C1501 1.491 . S
C1496 H1487 0.950 . S
C1496 C1495 1.398 . S
C1496 C1497 1.391 . S
C1497 H1485 0.950 . S
C1497 C1493 1.393 . S
C1497 C1496 1.391 . S
C1498 H1488 0.950 . S
C1498 C1499 1.386 . S
C1498 C1500 1.391 . S
C1499 C1498 1.386 . S
C1499 C1503 1.393 . S
C1500 H1489 0.950 . S
C1500 C1498 1.391 . S
C1500 C1501 1.400 . S
C1501 C1495 1.491 . S
C1501 C1500 1.400 . S
C1501 C1502 1.398 . S
C1502 H1490 0.950 . S
C1502 C1501 1.398 . S
C1502 C1503 1.391 . S
C1503 H1491 0.950 . S
C1503 C1499 1.393 . S
C1503 C1502 1.391 . S
H1504 C1512 0.950 1_556 S
H1505 C1517 0.950 . S
H1506 C1514 0.950 . S
H1507 C1516 0.950 . S
H1508 C1518 0.950 . S
H1509 C1520 0.950 . S
H1510 C1522 0.950 . S
H1511 C1523 0.950 . S
C1512 H1504 0.950 1_554 S
C1512 C1513 1.386 . S
C1512 C1514 1.391 . S
C1513 C1512 1.386 . S
C1513 C1517 1.393 . S
C1514 H1506 0.950 . S
C1514 C1512 1.391 . S
C1514 C1515 1.400 . S
C1515 C1514 1.400 . S
C1515 C1516 1.398 . S
C1515 C1521 1.491 . S
C1516 H1507 0.950 . S
C1516 C1515 1.398 . S
C1516 C1517 1.391 . S
C1517 H1505 0.950 . S
C1517 C1513 1.393 . S
C1517 C1516 1.391 . S
C1518 H1508 0.950 . S
C1518 C1519 1.386 . S
C1518 C1520 1.391 . S
C1519 C1518 1.386 . S
C1519 C1523 1.393 . S
C1520 H1509 0.950 . S
C1520 C1518 1.391 . S
C1520 C1521 1.400 . S
C1521 C1515 1.491 . S
C1521 C1520 1.400 . S
C1521 C1522 1.398 . S
C1522 H1510 0.950 . S
C1522 C1521 1.398 . S
C1522 C1523 1.391 . S
C1523 H1511 0.950 . S
C1523 C1519 1.393 . S
C1523 C1522 1.391 . S
H1524 C1532 0.950 . S
H1525 C1537 0.950 . S
H1526 C1534 0.950 . S
H1527 C1536 0.950 . S
H1528 C1538 0.950 . S
H1529 C1540 0.950 . S
H1530 C1542 0.950 . S
H1531 C1543 0.950 . S
C1532 H1524 0.950 . S
C1532 C1533 1.386 1_556 S
C1532 C1534 1.391 . S
C1533 C1532 1.386 1_554 S
C1533 C1537 1.393 . S
C1534 H1526 0.950 . S
C1534 C1532 1.391 . S
C1534 C1535 1.400 . S
C1535 C1534 1.400 . S
C1535 C1536 1.398 1_556 S
C1535 C1541 1.491 . S
C1536 H1527 0.950 . S
C1536 C1535 1.398 1_554 S
C1536 C1537 1.391 . S
C1537 H1525 0.950 . S
C1537 C1533 1.393 . S
C1537 C1536 1.391 . S
C1538 H1528 0.950 . S
C1538 C1539 1.386 1_554 S
C1538 C1540 1.391 . S
C1539 C1538 1.386 1_556 S
C1539 C1543 1.393 . S
C1540 H1529 0.950 . S
C1540 C1538 1.391 . S
C1540 C1541 1.400 1_554 S
C1541 C1535 1.491 . S
C1541 C1540 1.400 1_556 S
C1541 C1542 1.398 . S
C1542 H1530 0.950 . S
C1542 C1541 1.398 . S
C1542 C1543 1.391 . S
C1543 H1531 0.950 . S
C1543 C1539 1.393 . S
C1543 C1542 1.391 . S
H1544 C1552 0.950 . S
H1545 C1557 0.950 . S
H1546 C1554 0.950 . S
H1547 C1556 0.950 . S
H1548 C1558 0.950 . S
H1549 C1560 0.950 . S
H1550 C1562 0.950 . S
H1551 C1563 0.950 . S
C1552 H1544 0.950 . S
C1552 C1553 1.386 . S
C1552 C1554 1.391 . S
C1553 C1552 1.386 . S
C1553 C1557 1.393 . S
C1554 H1546 0.950 . S
C1554 C1552 1.391 . S
C1554 C1555 1.400 . S
C1555 C1554 1.400 . S
C1555 C1556 1.398 . S
C1555 C1561 1.491 . S
C1556 H1547 0.950 . S
C1556 C1555 1.398 . S
C1556 C1557 1.391 . S
C1557 H1545 0.950 . S
C1557 C1553 1.393 . S
C1557 C1556 1.391 . S
C1558 H1548 0.950 . S
C1558 C1559 1.386 . S
C1558 C1560 1.391 . S
C1559 C1558 1.386 . S
C1559 C1563 1.393 . S
C1560 H1549 0.950 . S
C1560 C1558 1.391 . S
C1560 C1561 1.400 . S
C1561 C1555 1.491 . S
C1561 C1560 1.400 . S
C1561 C1562 1.398 . S
C1562 H1550 0.950 . S
C1562 C1561 1.398 . S
C1562 C1563 1.391 . S
C1563 H1551 0.950 . S
C1563 C1559 1.393 . S
C1563 C1562 1.391 . S
H1564 C1572 0.950 . S
H1565 C1577 0.950 . S
H1566 C1574 0.950 . S
H1567 C1576 0.950 . S
H1568 C1578 0.950 . S
H1569 C1580 0.950 . S
H1570 C1582 0.950 . S
H1571 C1583 0.950 . S
C1572 H1564 0.950 . S
C1572 C1573 1.386 . S
C1572 C1574 1.391 . S
C1573 C1572 1.386 . S
C1573 C1577 1.393 . S
C1574 H1566 0.950 . S
C1574 C1572 1.391 . S
C1574 C1575 1.400 . S
C1575 C1574 1.400 . S
C1575 C1576 1.398 . S
C1575 C1581 1.491 . S
C1576 H1567 0.950 . S
C1576 C1575 1.398 . S
C1576 C1577 1.391 . S
C1577 H1565 0.950 . S
C1577 C1573 1.393 . S
C1577 C1576 1.391 . S
C1578 H1568 0.950 . S
C1578 C1579 1.386 . S
C1578 C1580 1.391 . S
C1579 C1578 1.386 . S
C1579 C1583 1.393 . S
C1580 H1569 0.950 . S
C1580 C1578 1.391 . S
C1580 C1581 1.400 . S
C1581 C1575 1.491 . S
C1581 C1580 1.400 . S
C1581 C1582 1.398 . S
C1582 H1570 0.950 . S
C1582 C1581 1.398 . S
C1582 C1583 1.391 . S
C1583 H1571 0.950 . S
C1583 C1579 1.393 . S
C1583 C1582 1.391 . S
H1584 C1592 0.950 . S
H1585 C1597 0.950 . S
H1586 C1594 0.950 . S
H1587 C1596 0.950 . S
H1588 C1598 0.950 . S
H1589 C1600 0.950 . S
H1590 C1602 0.950 . S
H1591 C1603 0.950 . S
C1592 H1584 0.950 . S
C1592 C1593 1.386 . S
C1592 C1594 1.391 . S
C1593 C1592 1.386 . S
C1593 C1597 1.393 . S
C1594 H1586 0.950 . S
C1594 C1592 1.391 . S
C1594 C1595 1.400 . S
C1595 C1594 1.400 . S
C1595 C1596 1.398 . S
C1595 C1601 1.491 . S
C1596 H1587 0.950 . S
C1596 C1595 1.398 . S
C1596 C1597 1.391 . S
C1597 H1585 0.950 . S
C1597 C1593 1.393 . S
C1597 C1596 1.391 . S
C1598 H1588 0.950 . S
C1598 C1599 1.386 . S
C1598 C1600 1.391 . S
C1599 C1598 1.386 . S
C1599 C1603 1.393 . S
C1600 H1589 0.950 . S
C1600 C1598 1.391 . S
C1600 C1601 1.400 . S
C1601 C1595 1.491 . S
C1601 C1600 1.400 . S
C1601 C1602 1.398 . S
C1602 H1590 0.950 . S
C1602 C1601 1.398 . S
C1602 C1603 1.391 . S
C1603 H1591 0.950 . S
C1603 C1599 1.393 . S
C1603 C1602 1.391 . S
H1604 C1612 0.950 . S
H1605 C1617 0.950 . S
H1606 C1614 0.950 . S
H1607 C1616 0.950 . S
H1608 C1618 0.950 . S
H1609 C1620 0.950 . S
H1610 C1622 0.950 . S
H1611 C1623 0.950 . S
C1612 H1604 0.950 . S
C1612 C1613 1.386 . S
C1612 C1614 1.391 . S
C1613 C1612 1.386 . S
C1613 C1617 1.393 . S
C1614 H1606 0.950 . S
C1614 C1612 1.391 . S
C1614 C1615 1.400 . S
C1615 C1614 1.400 . S
C1615 C1616 1.398 . S
C1615 C1621 1.491 . S
C1616 H1607 0.950 . S
C1616 C1615 1.398 . S
C1616 C1617 1.391 . S
C1617 H1605 0.950 . S
C1617 C1613 1.393 . S
C1617 C1616 1.391 . S
C1618 H1608 0.950 . S
C1618 C1619 1.386 . S
C1618 C1620 1.391 . S
C1619 C1618 1.386 . S
C1619 C1623 1.393 . S
C1620 H1609 0.950 . S
C1620 C1618 1.391 . S
C1620 C1621 1.400 . S
C1621 C1615 1.491 . S
C1621 C1620 1.400 . S
C1621 C1622 1.398 . S
C1622 H1610 0.950 . S
C1622 C1621 1.398 . S
C1622 C1623 1.391 . S
C1623 H1611 0.950 . S
C1623 C1619 1.393 . S
C1623 C1622 1.391 . S
H1624 C1632 0.950 . S
H1625 C1637 0.950 . S
H1626 C1634 0.950 . S
H1627 C1636 0.950 . S
H1628 C1638 0.950 . S
H1629 C1640 0.950 . S
H1630 C1642 0.950 . S
H1631 C1643 0.950 . S
C1632 H1624 0.950 . S
C1632 C1633 1.386 . S
C1632 C1634 1.391 . S
C1633 C1632 1.386 . S
C1633 C1637 1.393 . S
C1634 H1626 0.950 . S
C1634 C1632 1.391 . S
C1634 C1635 1.400 . S
C1635 C1634 1.400 . S
C1635 C1636 1.398 . S
C1635 C1641 1.491 . S
C1636 H1627 0.950 . S
C1636 C1635 1.398 . S
C1636 C1637 1.391 . S
C1637 H1625 0.950 . S
C1637 C1633 1.393 . S
C1637 C1636 1.391 . S
C1638 H1628 0.950 . S
C1638 C1639 1.386 . S
C1638 C1640 1.391 . S
C1639 C1638 1.386 . S
C1639 C1643 1.393 . S
C1640 H1629 0.950 . S
C1640 C1638 1.391 . S
C1640 C1641 1.400 . S
C1641 C1635 1.491 . S
C1641 C1640 1.400 . S
C1641 C1642 1.398 . S
C1642 H1630 0.950 . S
C1642 C1641 1.398 . S
C1642 C1643 1.391 . S
C1643 H1631 0.950 . S
C1643 C1639 1.393 . S
C1643 C1642 1.391 . S
H1644 C1652 0.950 . S
H1645 C1657 0.950 . S
H1646 C1654 0.950 . S
H1647 C1656 0.950 . S
H1648 C1658 0.950 . S
H1649 C1660 0.950 . S
H1650 C1662 0.950 . S
H1651 C1663 0.950 . S
C1652 H1644 0.950 . S
C1652 C1653 1.386 . S
C1652 C1654 1.391 . S
C1653 C1652 1.386 . S
C1653 C1657 1.393 . S
C1654 H1646 0.950 . S
C1654 C1652 1.391 . S
C1654 C1655 1.400 . S
C1655 C1654 1.400 . S
C1655 C1656 1.398 . S
C1655 C1661 1.491 . S
C1656 H1647 0.950 . S
C1656 C1655 1.398 . S
C1656 C1657 1.391 . S
C1657 H1645 0.950 . S
C1657 C1653 1.393 . S
C1657 C1656 1.391 . S
C1658 H1648 0.950 . S
C1658 C1659 1.386 . S
C1658 C1660 1.391 . S
C1659 C1658 1.386 . S
C1659 C1663 1.393 . S
C1660 H1649 0.950 . S
C1660 C1658 1.391 . S
C1660 C1661 1.400 . S
C1661 C1655 1.491 . S
C1661 C1660 1.400 . S
C1661 C1662 1.398 . S
C1662 H1650 0.950 . S
C1662 C1661 1.398 . S
C1662 C1663 1.391 . S
C1663 H1651 0.950 . S
C1663 C1659 1.393 . S
C1663 C1662 1.391 . S
H1664 C1672 0.950 . S
H1665 C1677 0.950 . S
H1666 C1674 0.950 . S
H1667 C1676 0.950 . S
H1668 C1678 0.950 . S
H1669 C1680 0.950 . S
H1670 C1682 0.950 . S
H1671 C1683 0.950 . S
C1672 H1664 0.950 . S
C1672 C1673 1.386 . S
C1672 C1674 1.391 . S
C1673 C1672 1.386 . S
C1673 C1677 1.393 . S
C1674 H1666 0.950 . S
C1674 C1672 1.391 . S
C1674 C1675 1.400 . S
C1675 C1674 1.400 . S
C1675 C1676 1.398 . S
C1675 C1681 1.491 . S
C1676 H1667 0.950 . S
C1676 C1675 1.398 . S
C1676 C1677 1.391 . S
C1677 H1665 0.950 . S
C1677 C1673 1.393 . S
C1677 C1676 1.391 . S
C1678 H1668 0.950 . S
C1678 C1679 1.386 . S
C1678 C1680 1.391 . S
C1679 C1678 1.386 . S
C1679 C1683 1.393 . S
C1680 H1669 0.950 . S
C1680 C1678 1.391 . S
C1680 C1681 1.400 . S
C1681 C1675 1.491 . S
C1681 C1680 1.400 . S
C1681 C1682 1.398 . S
C1682 H1670 0.950 . S
C1682 C1681 1.398 . S
C1682 C1683 1.391 . S
C1683 H1671 0.950 . S
C1683 C1679 1.393 . S
C1683 C1682 1.391 . S
H1684 C1692 0.950 . S
H1685 C1697 0.950 . S
H1686 C1694 0.950 . S
H1687 C1696 0.950 . S
H1688 C1698 0.950 . S
H1689 C1700 0.950 . S
H1690 C1702 0.950 . S
H1691 C1703 0.950 . S
C1692 H1684 0.950 . S
C1692 C1693 1.386 . S
C1692 C1694 1.391 . S
C1693 C1692 1.386 . S
C1693 C1697 1.393 . S
C1694 H1686 0.950 . S
C1694 C1692 1.391 . S
C1694 C1695 1.400 . S
C1695 C1694 1.400 . S
C1695 C1696 1.398 . S
C1695 C1701 1.491 . S
C1696 H1687 0.950 . S
C1696 C1695 1.398 . S
C1696 C1697 1.391 . S
C1697 H1685 0.950 . S
C1697 C1693 1.393 . S
C1697 C1696 1.391 . S
C1698 H1688 0.950 . S
C1698 C1699 1.386 . S
C1698 C1700 1.391 . S
C1699 C1698 1.386 . S
C1699 C1703 1.393 . S
C1700 H1689 0.950 . S
C1700 C1698 1.391 . S
C1700 C1701 1.400 . S
C1701 C1695 1.491 . S
C1701 C1700 1.400 . S
C1701 C1702 1.398 . S
C1702 H1690 0.950 . S
C1702 C1701 1.398 . S
C1702 C1703 1.391 . S
C1703 H1691 0.950 . S
C1703 C1699 1.393 . S
C1703 C1702 1.391 . S
H1704 C1712 0.950 . S
H1705 C1717 0.950 . S
H1706 C1714 0.950 . S
H1707 C1716 0.950 . S
H1708 C1718 0.950 1_655 S
H1709 C1720 0.950 . S
H1710 C1722 0.950 . S
H1711 C1723 0.950 . S
C1712 H1704 0.950 . S
C1712 C1713 1.386 . S
C1712 C1714 1.391 . S
C1713 C1712 1.386 . S
C1713 C1717 1.393 1_455 S
C1714 H1706 0.950 . S
C1714 C1712 1.391 . S
C1714 C1715 1.400 . S
C1715 C1714 1.400 . S
C1715 C1716 1.398 1_455 S
C1715 C1721 1.491 . S
C1716 H1707 0.950 . S
C1716 C1715 1.398 1_655 S
C1716 C1717 1.391 . S
C1717 H1705 0.950 . S
C1717 C1713 1.393 1_655 S
C1717 C1716 1.391 . S
C1718 H1708 0.950 1_455 S
C1718 C1719 1.386 . S
C1718 C1720 1.391 1_455 S
C1719 C1718 1.386 . S
C1719 C1723 1.393 . S
C1720 H1709 0.950 . S
C1720 C1718 1.391 1_655 S
C1720 C1721 1.400 1_655 S
C1721 C1715 1.491 . S
C1721 C1720 1.400 1_455 S
C1721 C1722 1.398 . S
C1722 H1710 0.950 . S
C1722 C1721 1.398 . S
C1722 C1723 1.391 . S
C1723 H1711 0.950 . S
C1723 C1719 1.393 . S
C1723 C1722 1.391 . S
H1724 C1732 0.950 . S
H1725 C1737 0.950 . S
H1726 C1734 0.950 . S
H1727 C1736 0.950 . S
H1728 C1738 0.950 . S
H1729 C1740 0.950 . S
H1730 C1742 0.950 . S
H1731 C1743 0.950 . S
C1732 H1724 0.950 . S
C1732 C1733 1.386 . S
C1732 C1734 1.391 . S
C1733 C1732 1.386 . S
C1733 C1737 1.393 . S
C1734 H1726 0.950 . S
C1734 C1732 1.391 . S
C1734 C1735 1.400 . S
C1735 C1734 1.400 . S
C1735 C1736 1.398 . S
C1735 C1741 1.491 . S
C1736 H1727 0.950 . S
C1736 C1735 1.398 . S
C1736 C1737 1.391 . S
C1737 H1725 0.950 . S
C1737 C1733 1.393 . S
C1737 C1736 1.391 . S
C1738 H1728 0.950 . S
C1738 C1739 1.386 . S
C1738 C1740 1.391 . S
C1739 C1738 1.386 . S
C1739 C1743 1.393 . S
C1740 H1729 0.950 . S
C1740 C1738 1.391 . S
C1740 C1741 1.400 . S
C1741 C1735 1.491 . S
C1741 C1740 1.400 . S
C1741 C1742 1.398 . S
C1742 H1730 0.950 . S
C1742 C1741 1.398 . S
C1742 C1743 1.391 . S
C1743 H1731 0.950 . S
C1743 C1739 1.393 . S
C1743 C1742 1.391 . S
H1744 C1752 0.950 . S
H1745 C1757 0.950 . S
H1746 C1754 0.950 . S
H1747 C1756 0.950 . S
H1748 C1758 0.950 . S
H1749 C1760 0.950 . S
H1750 C1762 0.950 . S
H1751 C1763 0.950 . S
C1752 H1744 0.950 . S
C1752 C1753 1.386 . S
C1752 C1754 1.391 . S
C1753 C1752 1.386 . S
C1753 C1757 1.393 . S
C1754 H1746 0.950 . S
C1754 C1752 1.391 . S
C1754 C1755 1.400 . S
C1755 C1754 1.400 . S
C1755 C1756 1.398 . S
C1755 C1761 1.491 . S
C1756 H1747 0.950 . S
C1756 C1755 1.398 . S
C1756 C1757 1.391 . S
C1757 H1745 0.950 . S
C1757 C1753 1.393 . S
C1757 C1756 1.391 . S
C1758 H1748 0.950 . S
C1758 C1759 1.386 . S
C1758 C1760 1.391 . S
C1759 C1758 1.386 . S
C1759 C1763 1.393 1_556 S
C1760 H1749 0.950 . S
C1760 C1758 1.391 . S
C1760 C1761 1.400 . S
C1761 C1755 1.491 . S
C1761 C1760 1.400 . S
C1761 C1762 1.398 . S
C1762 H1750 0.950 . S
C1762 C1761 1.398 . S
C1762 C1763 1.391 1_556 S
C1763 H1751 0.950 . S
C1763 C1759 1.393 1_554 S
C1763 C1762 1.391 1_554 S
H1764 C1772 0.950 . S
H1765 C1777 0.950 . S
H1766 C1774 0.950 . S
H1767 C1776 0.950 . S
H1768 C1778 0.950 . S
H1769 C1780 0.950 . S
H1770 C1782 0.950 . S
H1771 C1783 0.950 . S
C1772 H1764 0.950 . S
C1772 C1773 1.386 . S
C1772 C1774 1.391 . S
C1773 C1772 1.386 . S
C1773 C1777 1.393 . S
C1774 H1766 0.950 . S
C1774 C1772 1.391 . S
C1774 C1775 1.400 . S
C1775 C1774 1.400 . S
C1775 C1776 1.398 . S
C1775 C1781 1.491 . S
C1776 H1767 0.950 . S
C1776 C1775 1.398 . S
C1776 C1777 1.391 . S
C1777 H1765 0.950 . S
C1777 C1773 1.393 . S
C1777 C1776 1.391 . S
C1778 H1768 0.950 . S
C1778 C1779 1.386 . S
C1778 C1780 1.391 . S
C1779 C1778 1.386 . S
C1779 C1783 1.393 . S
C1780 H1769 0.950 . S
C1780 C1778 1.391 . S
C1780 C1781 1.400 . S
C1781 C1775 1.491 . S
C1781 C1780 1.400 . S
C1781 C1782 1.398 . S
C1782 H1770 0.950 . S
C1782 C1781 1.398 . S
C1782 C1783 1.391 . S
C1783 H1771 0.950 . S
C1783 C1779 1.393 . S
C1783 C1782 1.391 . S
H1784 C1792 0.950 . S
H1785 C1797 0.950 . S
H1786 C1794 0.950 . S
H1787 C1796 0.950 . S
H1788 C1798 0.950 . S
H1789 C1800 0.950 . S
H1790 C1802 0.928 1_655 S
H1791 C1803 0.950 1_655 S
C1792 H1784 0.950 . S
C1792 C1793 1.386 1_655 S
C1792 C1794 1.391 . S
C1793 C1792 1.386 1_455 S
C1793 C1797 1.393 . S
C1794 H1786 0.950 . S
C1794 C1792 1.391 . S
C1794 C1795 1.400 1_655 S
C1795 C1794 1.400 1_455 S
C1795 C1796 1.398 . S
C1795 C1801 1.491 . S
C1796 H1787 0.950 . S
C1796 C1795 1.398 . S
C1796 C1797 1.391 . S
C1797 H1785 0.950 . S
C1797 C1793 1.393 . S
C1797 C1796 1.391 . S
C1798 H1788 0.950 . S
C1798 C1799 1.386 . S
C1798 C1800 1.391 . S
C1799 C1798 1.386 . S
C1799 C1803 1.393 . S
C1800 H1789 0.950 . S
C1800 C1798 1.391 . S
C1800 C1801 1.400 . S
C1801 C1795 1.491 . S
C1801 C1800 1.400 . S
C1801 C1802 1.417 . S
C1802 H1790 0.928 1_455 S
C1802 C1801 1.417 . S
C1802 C1803 1.394 . S
C1803 H1791 0.950 1_455 S
C1803 C1799 1.393 . S
C1803 C1802 1.394 . S
H1804 C1812 0.950 . S
H1805 C1817 0.950 . S
H1806 C1814 0.950 . S
H1807 C1816 0.950 . S
H1808 C1818 0.950 . S
H1809 C1820 0.950 . S
H1810 C1822 0.950 . S
H1811 C1823 0.950 . S
C1812 H1804 0.950 . S
C1812 C1813 1.386 . S
C1812 C1814 1.391 . S
C1813 C1812 1.386 . S
C1813 C1817 1.393 . S
C1814 H1806 0.950 . S
C1814 C1812 1.391 . S
C1814 C1815 1.400 . S
C1815 C1814 1.400 . S
C1815 C1816 1.398 . S
C1815 C1821 1.491 . S
C1816 H1807 0.950 . S
C1816 C1815 1.398 . S
C1816 C1817 1.391 . S
C1817 H1805 0.950 . S
C1817 C1813 1.393 . S
C1817 C1816 1.391 . S
C1818 H1808 0.950 . S
C1818 C1819 1.386 . S
C1818 C1820 1.391 . S
C1819 C1818 1.386 . S
C1819 C1823 1.393 . S
C1820 H1809 0.950 . S
C1820 C1818 1.391 . S
C1820 C1821 1.400 . S
C1821 C1815 1.491 . S
C1821 C1820 1.400 . S
C1821 C1822 1.398 . S
C1822 H1810 0.950 . S
C1822 C1821 1.398 . S
C1822 C1823 1.391 . S
C1823 H1811 0.950 . S
C1823 C1819 1.393 . S
C1823 C1822 1.391 . S
H1824 C1832 0.950 . S
H1825 C1837 0.950 . S
H1826 C1834 0.950 . S
H1827 C1836 0.950 . S
H1828 C1838 0.950 . S
H1829 C1840 0.950 . S
H1830 C1842 0.950 . S
H1831 C1843 0.950 . S
C1832 H1824 0.950 . S
C1832 C1833 1.386 . S
C1832 C1834 1.391 . S
C1833 C1832 1.386 . S
C1833 C1837 1.393 . S
C1834 H1826 0.950 . S
C1834 C1832 1.391 . S
C1834 C1835 1.400 . S
C1835 C1834 1.400 . S
C1835 C1836 1.398 . S
C1835 C1841 1.491 . S
C1836 H1827 0.950 . S
C1836 C1835 1.398 . S
C1836 C1837 1.391 . S
C1837 H1825 0.950 . S
C1837 C1833 1.393 . S
C1837 C1836 1.391 . S
C1838 H1828 0.950 . S
C1838 C1839 1.386 . S
C1838 C1840 1.391 . S
C1839 C1838 1.386 . S
C1839 C1843 1.393 . S
C1840 H1829 0.950 . S
C1840 C1838 1.391 . S
C1840 C1841 1.400 . S
C1841 C1835 1.491 . S
C1841 C1840 1.400 . S
C1841 C1842 1.398 . S
C1842 H1830 0.950 . S
C1842 C1841 1.398 . S
C1842 C1843 1.391 . S
C1843 H1831 0.950 . S
C1843 C1839 1.393 . S
C1843 C1842 1.391 . S
H1844 C1852 0.950 . S
H1845 C1857 0.950 . S
H1846 C1854 0.950 . S
H1847 C1856 0.950 . S
H1848 C1858 0.950 . S
H1849 C1860 0.950 . S
H1850 C1862 0.950 . S
H1851 C1863 0.950 . S
C1852 H1844 0.950 . S
C1852 C1853 1.386 . S
C1852 C1854 1.391 . S
C1853 C1852 1.386 . S
C1853 C1857 1.393 . S
C1854 H1846 0.950 . S
C1854 C1852 1.391 . S
C1854 C1855 1.400 . S
C1855 C1854 1.400 . S
C1855 C1856 1.398 . S
C1855 C1861 1.491 . S
C1856 H1847 0.950 . S
C1856 C1855 1.398 . S
C1856 C1857 1.391 . S
C1857 H1845 0.950 . S
C1857 C1853 1.393 . S
C1857 C1856 1.391 . S
C1858 H1848 0.950 . S
C1858 C1859 1.386 . S
C1858 C1860 1.391 . S
C1859 C1858 1.386 . S
C1859 C1863 1.393 . S
C1860 H1849 0.950 . S
C1860 C1858 1.391 . S
C1860 C1861 1.400 . S
C1861 C1855 1.491 . S
C1861 C1860 1.400 . S
C1861 C1862 1.398 . S
C1862 H1850 0.950 . S
C1862 C1861 1.398 . S
C1862 C1863 1.391 . S
C1863 H1851 0.950 . S
C1863 C1859 1.393 . S
C1863 C1862 1.391 . S
H1864 C1872 0.950 . S
H1865 C1877 0.950 . S
H1866 C1874 0.950 . S
H1867 C1876 0.950 . S
H1868 C1878 0.950 . S
H1869 C1880 0.950 . S
H1870 C1882 0.950 . S
H1871 C1883 0.950 1_455 S
C1872 H1864 0.950 . S
C1872 C1873 1.386 . S
C1872 C1874 1.391 . S
C1873 C1872 1.386 . S
C1873 C1877 1.393 . S
C1874 H1866 0.950 . S
C1874 C1872 1.391 . S
C1874 C1875 1.400 . S
C1875 C1874 1.400 . S
C1875 C1876 1.398 . S
C1875 C1881 1.491 . S
C1876 H1867 0.950 . S
C1876 C1875 1.398 . S
C1876 C1877 1.391 . S
C1877 H1865 0.950 . S
C1877 C1873 1.393 . S
C1877 C1876 1.391 . S
C1878 H1868 0.950 . S
C1878 C1879 1.386 . S
C1878 C1880 1.391 . S
C1879 C1878 1.386 . S
C1879 C1883 1.393 . S
C1880 H1869 0.950 . S
C1880 C1878 1.391 . S
C1880 C1881 1.400 . S
C1881 C1875 1.491 . S
C1881 C1880 1.400 . S
C1881 C1882 1.398 . S
C1882 H1870 0.950 . S
C1882 C1881 1.398 . S
C1882 C1883 1.391 . S
C1883 H1871 0.950 1_655 S
C1883 C1879 1.393 . S
C1883 C1882 1.391 . S
H1884 C1892 0.950 . S
H1885 C1897 0.950 . S
H1886 C1894 0.950 . S
H1887 C1896 0.950 . S
H1888 C1898 0.950 . S
H1889 C1900 0.950 . S
H1890 C1902 0.950 . S
H1891 C1903 0.950 . S
C1892 H1884 0.950 . S
C1892 C1893 1.386 . S
C1892 C1894 1.391 . S
C1893 C1892 1.386 . S
C1893 C1897 1.393 . S
C1894 H1886 0.950 . S
C1894 C1892 1.391 . S
C1894 C1895 1.400 . S
C1895 C1894 1.400 . S
C1895 C1896 1.398 . S
C1895 C1901 1.491 . S
C1896 H1887 0.950 . S
C1896 C1895 1.398 . S
C1896 C1897 1.391 . S
C1897 H1885 0.950 . S
C1897 C1893 1.393 . S
C1897 C1896 1.391 . S
C1898 H1888 0.950 . S
C1898 C1899 1.386 . S
C1898 C1900 1.391 . S
C1899 C1898 1.386 . S
C1899 C1903 1.393 . S
C1900 H1889 0.950 . S
C1900 C1898 1.391 . S
C1900 C1901 1.400 . S
C1901 C1895 1.491 . S
C1901 C1900 1.400 . S
C1901 C1902 1.398 . S
C1902 H1890 0.950 . S
C1902 C1901 1.398 . S
C1902 C1903 1.391 . S
C1903 H1891 0.950 . S
C1903 C1899 1.393 . S
C1903 C1902 1.391 . S
H1904 C1912 0.950 . S
H1905 C1917 0.950 . S
H1906 C1914 0.950 . S
H1907 C1916 0.950 . S
H1908 C1918 0.950 . S
H1909 C1920 0.950 . S
H1910 C1922 0.950 . S
H1911 C1923 0.950 . S
C1912 H1904 0.950 . S
C1912 C1913 1.386 . S
C1912 C1914 1.391 . S
C1913 C1912 1.386 . S
C1913 C1917 1.393 . S
C1914 H1906 0.950 . S
C1914 C1912 1.391 . S
C1914 C1915 1.400 . S
C1915 C1914 1.400 . S
C1915 C1916 1.398 . S
C1915 C1921 1.491 . S
C1916 H1907 0.950 . S
C1916 C1915 1.398 . S
C1916 C1917 1.391 . S
C1917 H1905 0.950 . S
C1917 C1913 1.393 . S
C1917 C1916 1.391 . S
C1918 H1908 0.950 . S
C1918 C1919 1.386 . S
C1918 C1920 1.391 . S
C1919 C1918 1.386 . S
C1919 C1923 1.393 . S
C1920 H1909 0.950 . S
C1920 C1918 1.391 . S
C1920 C1921 1.400 . S
C1921 C1915 1.491 . S
C1921 C1920 1.400 . S
C1921 C1922 1.398 . S
C1922 H1910 0.950 . S
C1922 C1921 1.398 . S
C1922 C1923 1.391 . S
C1923 H1911 0.950 . S
C1923 C1919 1.393 . S
C1923 C1922 1.391 . S
H1924 C1932 0.950 . S
H1925 C1937 0.950 . S
H1926 C1934 0.950 . S
H1927 C1936 0.950 . S
H1928 C1938 0.950 . S
H1929 C1940 0.950 . S
H1930 C1942 0.950 . S
H1931 C1943 0.950 . S
C1932 H1924 0.950 . S
C1932 C1933 1.386 . S
C1932 C1934 1.391 . S
C1933 C1932 1.386 . S
C1933 C1937 1.393 . S
C1934 H1926 0.950 . S
C1934 C1932 1.391 . S
C1934 C1935 1.400 . S
C1935 C1934 1.400 . S
C1935 C1936 1.398 . S
C1935 C1941 1.491 . S
C1936 H1927 0.950 . S
C1936 C1935 1.398 . S
C1936 C1937 1.391 . S
C1937 H1925 0.950 . S
C1937 C1933 1.393 . S
C1937 C1936 1.391 . S
C1938 H1928 0.950 . S
C1938 C1939 1.386 . S
C1938 C1940 1.391 . S
C1939 C1938 1.386 . S
C1939 C1943 1.393 . S
C1940 H1929 0.950 . S
C1940 C1938 1.391 . S
C1940 C1941 1.400 . S
C1941 C1935 1.491 . S
C1941 C1940 1.400 . S
C1941 C1942 1.398 . S
C1942 H1930 0.950 . S
C1942 C1941 1.398 . S
C1942 C1943 1.391 . S
C1943 H1931 0.950 . S
C1943 C1939 1.393 . S
C1943 C1942 1.391 . S
H1944 C1952 0.950 . S
H1945 C1957 0.950 . S
H1946 C1954 0.950 . S
H1947 C1956 0.950 . S
H1948 C1958 0.950 . S
H1949 C1960 0.950 . S
H1950 C1962 0.950 . S
H1951 C1963 0.950 . S
C1952 H1944 0.950 . S
C1952 C1953 1.386 . S
C1952 C1954 1.391 . S
C1953 C1952 1.386 . S
C1953 C1957 1.393 . S
C1954 H1946 0.950 . S
C1954 C1952 1.391 . S
C1954 C1955 1.400 . S
C1955 C1954 1.400 . S
C1955 C1956 1.398 . S
C1955 C1961 1.491 . S
C1956 H1947 0.950 . S
C1956 C1955 1.398 . S
C1956 C1957 1.391 . S
C1957 H1945 0.950 . S
C1957 C1953 1.393 . S
C1957 C1956 1.391 . S
C1958 H1948 0.950 . S
C1958 C1959 1.386 . S
C1958 C1960 1.391 . S
C1959 C1958 1.386 . S
C1959 C1963 1.393 . S
C1960 H1949 0.950 . S
C1960 C1958 1.391 . S
C1960 C1961 1.400 . S
C1961 C1955 1.491 . S
C1961 C1960 1.400 . S
C1961 C1962 1.398 . S
C1962 H1950 0.950 . S
C1962 C1961 1.398 . S
C1962 C1963 1.391 . S
C1963 H1951 0.950 . S
C1963 C1959 1.393 . S
C1963 C1962 1.391 . S
H1964 C1972 0.950 . S
H1965 C1977 0.950 . S
H1966 C1974 0.950 . S
H1967 C1976 0.950 . S
H1968 C1978 0.950 . S
H1969 C1980 0.950 . S
H1970 C1982 0.950 . S
H1971 C1983 0.950 . S
C1972 H1964 0.950 . S
C1972 C1973 1.386 . S
C1972 C1974 1.391 . S
C1973 C1972 1.386 . S
C1973 C1977 1.393 . S
C1974 H1966 0.950 . S
C1974 C1972 1.391 . S
C1974 C1975 1.400 . S
C1975 C1974 1.400 . S
C1975 C1976 1.398 . S
C1975 C1981 1.491 . S
C1976 H1967 0.950 . S
C1976 C1975 1.398 . S
C1976 C1977 1.391 . S
C1977 H1965 0.950 . S
C1977 C1973 1.393 . S
C1977 C1976 1.391 . S
C1978 H1968 0.950 . S
C1978 C1979 1.386 . S
C1978 C1980 1.391 . S
C1979 C1978 1.386 . S
C1979 C1983 1.393 . S
C1980 H1969 0.950 . S
C1980 C1978 1.391 . S
C1980 C1981 1.400 . S
C1981 C1975 1.491 . S
C1981 C1980 1.400 . S
C1981 C1982 1.398 . S
C1982 H1970 0.950 . S
C1982 C1981 1.398 . S
C1982 C1983 1.391 . S
C1983 H1971 0.950 . S
C1983 C1979 1.393 . S
C1983 C1982 1.391 . S
H1984 C1992 0.950 . S
H1985 C1997 0.950 . S
H1986 C1994 0.950 . S
H1987 C1996 0.950 . S
H1988 C1998 0.950 . S
H1989 C2000 0.950 . S
H1990 C2002 0.950 . S
H1991 C2003 0.950 . S
C1992 H1984 0.950 . S
C1992 C1993 1.386 . S
C1992 C1994 1.391 . S
C1993 C1992 1.386 . S
C1993 C1997 1.393 . S
C1994 H1986 0.950 . S
C1994 C1992 1.391 . S
C1994 C1995 1.400 . S
C1995 C1994 1.400 . S
C1995 C1996 1.398 . S
C1995 C2001 1.491 . S
C1996 H1987 0.950 . S
C1996 C1995 1.398 . S
C1996 C1997 1.391 . S
C1997 H1985 0.950 . S
C1997 C1993 1.393 . S
C1997 C1996 1.391 . S
C1998 H1988 0.950 . S
C1998 C1999 1.386 . S
C1998 C2000 1.391 . S
C1999 C1998 1.386 . S
C1999 C2003 1.393 . S
C2000 H1989 0.950 . S
C2000 C1998 1.391 . S
C2000 C2001 1.400 . S
C2001 C1995 1.491 . S
C2001 C2000 1.400 . S
C2001 C2002 1.398 . S
C2002 H1990 0.950 . S
C2002 C2001 1.398 . S
C2002 C2003 1.391 . S
C2003 H1991 0.950 . S
C2003 C1999 1.393 . S
C2003 C2002 1.391 . S
H2004 C2012 0.950 . S
H2005 C2017 0.950 . S
H2006 C2014 0.950 . S
H2007 C2016 0.950 . S
H2008 C2018 0.946 . S
H2009 C2020 0.950 . S
H2010 C2022 0.950 . S
H2011 C2023 0.950 . S
C2012 H2004 0.950 . S
C2012 C2013 1.386 . S
C2012 C2014 1.391 . S
C2013 C2012 1.386 . S
C2013 C2017 1.393 . S
C2014 H2006 0.950 . S
C2014 C2012 1.391 . S
C2014 C2015 1.400 . S
C2015 C2014 1.400 . S
C2015 C2016 1.398 . S
C2015 C2021 1.491 . S
C2016 H2007 0.950 . S
C2016 C2015 1.398 . S
C2016 C2017 1.391 . S
C2017 H2005 0.950 . S
C2017 C2013 1.393 . S
C2017 C2016 1.391 . S
C2018 H2008 0.946 . S
C2018 C2019 1.388 1_545 S
C2018 C2020 1.393 1_545 S
C2019 C2018 1.388 1_565 S
C2019 C2023 1.393 . S
C2020 H2009 0.950 . S
C2020 C2018 1.393 1_565 S
C2020 C2021 1.400 . S
C2021 C2015 1.491 . S
C2021 C2020 1.400 . S
C2021 C2022 1.398 . S
C2022 H2010 0.950 . S
C2022 C2021 1.398 . S
C2022 C2023 1.391 . S
C2023 H2011 0.950 . S
C2023 C2019 1.393 . S
C2023 C2022 1.391 . S
H2024 C2032 0.950 . S
H2025 C2037 0.950 . S
H2026 C2034 0.950 . S
H2027 C2036 0.950 . S
H2028 C2038 0.950 . S
H2029 C2040 0.950 . S
H2030 C2042 0.950 . S
H2031 C2043 0.950 . S
C2032 H2024 0.950 . S
C2032 C2033 1.386 . S
C2032 C2034 1.391 . S
C2033 C2032 1.386 . S
C2033 C2037 1.393 . S
C2034 H2026 0.950 . S
C2034 C2032 1.391 . S
C2034 C2035 1.400 . S
C2035 C2034 1.400 . S
C2035 C2036 1.398 . S
C2035 C2041 1.491 . S
C2036 H2027 0.950 . S
C2036 C2035 1.398 . S
C2036 C2037 1.391 . S
C2037 H2025 0.950 . S
C2037 C2033 1.393 . S
C2037 C2036 1.391 . S
C2038 H2028 0.950 . S
C2038 C2039 1.386 . S
C2038 C2040 1.391 . S
C2039 C2038 1.386 . S
C2039 C2043 1.393 . S
C2040 H2029 0.950 . S
C2040 C2038 1.391 . S
C2040 C2041 1.400 . S
C2041 C2035 1.491 . S
C2041 C2040 1.400 . S
C2041 C2042 1.398 . S
C2042 H2030 0.950 . S
C2042 C2041 1.398 . S
C2042 C2043 1.391 . S
C2043 H2031 0.950 . S
C2043 C2039 1.393 . S
C2043 C2042 1.391 . S
H2044 C2052 0.955 . S
H2045 C2057 0.950 . S
H2046 C2054 0.950 1_556 S
H2047 C2056 0.950 . S
H2048 C2058 0.950 . S
H2049 C2060 0.950 . S
H2050 C2062 0.950 . S
H2051 C2063 0.950 . S
C2052 H2044 0.955 . S
C2052 C2053 1.381 1_556 S
C2052 C2054 1.390 1_556 S
C2053 C2052 1.381 1_554 S
C2053 C2057 1.393 . S
C2054 H2046 0.950 1_554 S
C2054 C2052 1.390 1_554 S
C2054 C2055 1.400 . S
C2055 C2054 1.400 . S
C2055 C2056 1.398 . S
C2055 C2061 1.491 . S
C2056 H2047 0.950 . S
C2056 C2055 1.398 . S
C2056 C2057 1.391 . S
C2057 H2045 0.950 . S
C2057 C2053 1.393 . S
C2057 C2056 1.391 . S
C2058 H2048 0.950 . S
C2058 C2059 1.386 . S
C2058 C2060 1.391 . S
C2059 C2058 1.386 . S
C2059 C2063 1.393 . S
C2060 H2049 0.950 . S
C2060 C2058 1.391 . S
C2060 C2061 1.400 . S
C2061 C2055 1.491 . S
C2061 C2060 1.400 . S
C2061 C2062 1.398 . S
C2062 H2050 0.950 . S
C2062 C2061 1.398 . S
C2062 C2063 1.391 . S
C2063 H2051 0.950 . S
C2063 C2059 1.393 . S
C2063 C2062 1.391 . S
H2064 C2072 0.950 . S
H2065 C2077 0.950 . S
H2066 C2074 0.950 . S
H2067 C2076 0.950 . S
H2068 C2078 0.950 . S
H2069 C2080 0.950 . S
H2070 C2082 0.950 . S
H2071 C2083 0.950 . S
C2072 H2064 0.950 . S
C2072 C2073 1.386 . S
C2072 C2074 1.391 . S
C2073 C2072 1.386 . S
C2073 C2077 1.393 . S
C2074 H2066 0.950 . S
C2074 C2072 1.391 . S
C2074 C2075 1.400 . S
C2075 C2074 1.400 . S
C2075 C2076 1.398 . S
C2075 C2081 1.491 . S
C2076 H2067 0.950 . S
C2076 C2075 1.398 . S
C2076 C2077 1.391 . S
C2077 H2065 0.950 . S
C2077 C2073 1.393 . S
C2077 C2076 1.391 . S
C2078 H2068 0.950 . S
C2078 C2079 1.386 . S
C2078 C2080 1.391 . S
C2079 C2078 1.386 . S
C2079 C2083 1.393 . S
C2080 H2069 0.950 . S
C2080 C2078 1.391 . S
C2080 C2081 1.400 . S
C2081 C2075 1.491 . S
C2081 C2080 1.400 . S
C2081 C2082 1.398 . S
C2082 H2070 0.950 . S
C2082 C2081 1.398 . S
C2082 C2083 1.391 . S
C2083 H2071 0.950 . S
C2083 C2079 1.393 . S
C2083 C2082 1.391 . S
H2084 C2092 0.949 . S
H2085 C2097 0.950 . S
H2086 C2094 0.947 1_556 S
H2087 C2096 0.950 . S
H2088 C2098 0.950 . S
H2089 C2100 0.950 . S
H2090 C2102 0.950 . S
H2091 C2103 0.950 . S
C2092 H2084 0.949 . S
C2092 C2093 1.386 . S
C2092 C2094 1.392 . S
C2093 C2092 1.386 . S
C2093 C2097 1.393 . S
C2094 H2086 0.947 1_554 S
C2094 C2092 1.392 . S
C2094 C2095 1.402 . S
C2095 C2094 1.402 . S
C2095 C2096 1.398 . S
C2095 C2101 1.491 . S
C2096 H2087 0.950 . S
C2096 C2095 1.398 . S
C2096 C2097 1.391 . S
C2097 H2085 0.950 . S
C2097 C2093 1.393 . S
C2097 C2096 1.391 . S
C2098 H2088 0.950 . S
C2098 C2099 1.386 1_554 S
C2098 C2100 1.391 . S
C2099 C2098 1.386 1_556 S
C2099 C2103 1.393 . S
C2100 H2089 0.950 . S
C2100 C2098 1.391 . S
C2100 C2101 1.400 . S
C2101 C2095 1.491 . S
C2101 C2100 1.400 . S
C2101 C2102 1.398 1_554 S
C2102 H2090 0.950 . S
C2102 C2101 1.398 1_556 S
C2102 C2103 1.391 . S
C2103 H2091 0.950 . S
C2103 C2099 1.393 . S
C2103 C2102 1.391 . S
H2104 C2112 0.950 . S
H2105 C2117 0.950 . S
H2106 C2114 0.950 . S
H2107 C2116 0.950 . S
H2108 C2118 0.950 . S
H2109 C2120 0.950 . S
H2110 C2122 0.950 . S
H2111 C2123 0.950 . S
C2112 H2104 0.950 . S
C2112 C2113 1.386 . S
C2112 C2114 1.391 . S
C2113 C2112 1.386 . S
C2113 C2117 1.393 . S
C2114 H2106 0.950 . S
C2114 C2112 1.391 . S
C2114 C2115 1.400 . S
C2115 C2114 1.400 . S
C2115 C2116 1.398 . S
C2115 C2121 1.491 . S
C2116 H2107 0.950 . S
C2116 C2115 1.398 . S
C2116 C2117 1.391 . S
C2117 H2105 0.950 . S
C2117 C2113 1.393 . S
C2117 C2116 1.391 . S
C2118 H2108 0.950 . S
C2118 C2119 1.386 . S
C2118 C2120 1.391 . S
C2119 C2118 1.386 . S
C2119 C2123 1.393 . S
C2120 H2109 0.950 . S
C2120 C2118 1.391 . S
C2120 C2121 1.400 . S
C2121 C2115 1.491 . S
C2121 C2120 1.400 . S
C2121 C2122 1.398 . S
C2122 H2110 0.950 . S
C2122 C2121 1.398 . S
C2122 C2123 1.391 . S
C2123 H2111 0.950 . S
C2123 C2119 1.393 . S
C2123 C2122 1.391 . S
H2124 C2132 0.950 . S
H2125 C2137 0.950 . S
H2126 C2134 0.950 . S
H2127 C2136 0.950 . S
H2128 C2138 0.950 . S
H2129 C2140 0.950 . S
H2130 C2142 0.950 . S
H2131 C2143 0.950 . S
C2132 H2124 0.950 . S
C2132 C2133 1.386 . S
C2132 C2134 1.391 . S
C2133 C2132 1.386 . S
C2133 C2137 1.393 . S
C2134 H2126 0.950 . S
C2134 C2132 1.391 . S
C2134 C2135 1.400 . S
C2135 C2134 1.400 . S
C2135 C2136 1.398 . S
C2135 C2141 1.491 . S
C2136 H2127 0.950 . S
C2136 C2135 1.398 . S
C2136 C2137 1.391 . S
C2137 H2125 0.950 . S
C2137 C2133 1.393 . S
C2137 C2136 1.391 . S
C2138 H2128 0.950 . S
C2138 C2139 1.386 . S
C2138 C2140 1.391 . S
C2139 C2138 1.386 . S
C2139 C2143 1.393 . S
C2140 H2129 0.950 . S
C2140 C2138 1.391 . S
C2140 C2141 1.400 . S
C2141 C2135 1.491 . S
C2141 C2140 1.400 . S
C2141 C2142 1.398 . S
C2142 H2130 0.950 . S
C2142 C2141 1.398 . S
C2142 C2143 1.391 . S
C2143 H2131 0.950 . S
C2143 C2139 1.393 . S
C2143 C2142 1.391 . S
H2144 C2152 0.950 . S
H2145 C2157 0.950 . S
H2146 C2154 0.950 . S
H2147 C2156 0.950 . S
H2148 C2158 0.950 . S
H2149 C2160 0.950 . S
H2150 C2162 0.950 . S
H2151 C2163 0.950 . S
C2152 H2144 0.950 . S
C2152 C2153 1.386 . S
C2152 C2154 1.391 . S
C2153 C2152 1.386 . S
C2153 C2157 1.393 . S
C2154 H2146 0.950 . S
C2154 C2152 1.391 . S
C2154 C2155 1.400 . S
C2155 C2154 1.400 . S
C2155 C2156 1.398 . S
C2155 C2161 1.491 . S
C2156 H2147 0.950 . S
C2156 C2155 1.398 . S
C2156 C2157 1.391 . S
C2157 H2145 0.950 . S
C2157 C2153 1.393 . S
C2157 C2156 1.391 . S
C2158 H2148 0.950 . S
C2158 C2159 1.386 . S
C2158 C2160 1.391 . S
C2159 C2158 1.386 . S
C2159 C2163 1.393 . S
C2160 H2149 0.950 . S
C2160 C2158 1.391 . S
C2160 C2161 1.400 . S
C2161 C2155 1.491 . S
C2161 C2160 1.400 . S
C2161 C2162 1.398 . S
C2162 H2150 0.950 . S
C2162 C2161 1.398 . S
C2162 C2163 1.391 . S
C2163 H2151 0.950 . S
C2163 C2159 1.393 . S
C2163 C2162 1.391 . S
H2164 C2172 0.950 . S
H2165 C2177 0.950 . S
H2166 C2174 0.950 . S
H2167 C2176 0.950 . S
H2168 C2178 0.950 . S
H2169 C2180 0.950 . S
H2170 C2182 0.950 . S
H2171 C2183 0.950 . S
C2172 H2164 0.950 . S
C2172 C2173 1.386 . S
C2172 C2174 1.391 . S
C2173 C2172 1.386 . S
C2173 C2177 1.393 . S
C2174 H2166 0.950 . S
C2174 C2172 1.391 . S
C2174 C2175 1.400 . S
C2175 C2174 1.400 . S
C2175 C2176 1.398 . S
C2175 C2181 1.491 . S
C2176 H2167 0.950 . S
C2176 C2175 1.398 . S
C2176 C2177 1.391 . S
C2177 H2165 0.950 . S
C2177 C2173 1.393 . S
C2177 C2176 1.391 . S
C2178 H2168 0.950 . S
C2178 C2179 1.386 . S
C2178 C2180 1.391 . S
C2179 C2178 1.386 . S
C2179 C2183 1.393 . S
C2180 H2169 0.950 . S
C2180 C2178 1.391 . S
C2180 C2181 1.400 . S
C2181 C2175 1.491 . S
C2181 C2180 1.400 . S
C2181 C2182 1.398 . S
C2182 H2170 0.950 . S
C2182 C2181 1.398 . S
C2182 C2183 1.391 . S
C2183 H2171 0.950 . S
C2183 C2179 1.393 . S
C2183 C2182 1.391 . S
H2184 C2192 0.950 . S
H2185 C2197 0.950 . S
H2186 C2194 0.950 . S
H2187 C2196 0.950 . S
H2188 C2198 0.950 . S
H2189 C2200 0.950 . S
H2190 C2202 0.950 . S
H2191 C2203 0.950 1_554 S
C2192 H2184 0.950 . S
C2192 C2193 1.386 1_655 S
C2192 C2194 1.391 . S
C2193 C2192 1.386 1_455 S
C2193 C2197 1.393 . S
C2194 H2186 0.950 . S
C2194 C2192 1.391 . S
C2194 C2195 1.400 . S
C2195 C2194 1.400 . S
C2195 C2196 1.398 1_655 S
C2195 C2201 1.491 . S
C2196 H2187 0.950 . S
C2196 C2195 1.398 1_455 S
C2196 C2197 1.391 . S
C2197 H2185 0.950 . S
C2197 C2193 1.393 . S
C2197 C2196 1.391 . S
C2198 H2188 0.950 . S
C2198 C2199 1.386 1_455 S
C2198 C2200 1.391 . S
C2199 C2198 1.386 1_655 S
C2199 C2203 1.393 . S
C2200 H2189 0.950 . S
C2200 C2198 1.391 . S
C2200 C2201 1.400 1_455 S
C2201 C2195 1.491 . S
C2201 C2200 1.400 1_655 S
C2201 C2202 1.398 . S
C2202 H2190 0.950 . S
C2202 C2201 1.398 . S
C2202 C2203 1.391 . S
C2203 H2191 0.950 1_556 S
C2203 C2199 1.393 . S
C2203 C2202 1.391 . S
H2204 C2212 0.950 . S
H2205 C2217 0.950 . S
H2206 C2214 0.950 . S
H2207 C2216 0.950 . S
H2208 C2218 0.950 . S
H2209 C2220 0.950 . S
H2210 C2222 0.950 . S
H2211 C2223 0.950 . S
C2212 H2204 0.950 . S
C2212 C2213 1.386 . S
C2212 C2214 1.391 . S
C2213 C2212 1.386 . S
C2213 C2217 1.393 . S
C2214 H2206 0.950 . S
C2214 C2212 1.391 . S
C2214 C2215 1.400 . S
C2215 C2214 1.400 . S
C2215 C2216 1.398 . S
C2215 C2221 1.491 . S
C2216 H2207 0.950 . S
C2216 C2215 1.398 . S
C2216 C2217 1.391 . S
C2217 H2205 0.950 . S
C2217 C2213 1.393 . S
C2217 C2216 1.391 . S
C2218 H2208 0.950 . S
C2218 C2219 1.386 . S
C2218 C2220 1.391 . S
C2219 C2218 1.386 . S
C2219 C2223 1.393 . S
C2220 H2209 0.950 . S
C2220 C2218 1.391 . S
C2220 C2221 1.400 . S
C2221 C2215 1.491 . S
C2221 C2220 1.400 . S
C2221 C2222 1.398 . S
C2222 H2210 0.950 . S
C2222 C2221 1.398 . S
C2222 C2223 1.391 . S
C2223 H2211 0.950 . S
C2223 C2219 1.393 . S
C2223 C2222 1.391 . S
H2224 C2232 0.950 . S
H2225 C2237 0.950 . S
H2226 C2234 0.950 . S
H2227 C2236 0.950 . S
H2228 C2238 0.950 . S
H2229 C2240 0.950 . S
H2230 C2242 0.950 . S
H2231 C2243 0.950 . S
C2232 H2224 0.950 . S
C2232 C2233 1.386 . S
C2232 C2234 1.391 . S
C2233 C2232 1.386 . S
C2233 C2237 1.393 . S
C2234 H2226 0.950 . S
C2234 C2232 1.391 . S
C2234 C2235 1.400 . S
C2235 C2234 1.400 . S
C2235 C2236 1.398 . S
C2235 C2241 1.491 . S
C2236 H2227 0.950 . S
C2236 C2235 1.398 . S
C2236 C2237 1.391 . S
C2237 H2225 0.950 . S
C2237 C2233 1.393 . S
C2237 C2236 1.391 . S
C2238 H2228 0.950 . S
C2238 C2239 1.386 . S
C2238 C2240 1.391 . S
C2239 C2238 1.386 . S
C2239 C2243 1.393 . S
C2240 H2229 0.950 . S
C2240 C2238 1.391 . S
C2240 C2241 1.400 . S
C2241 C2235 1.491 . S
C2241 C2240 1.400 . S
C2241 C2242 1.398 . S
C2242 H2230 0.950 . S
C2242 C2241 1.398 . S
C2242 C2243 1.391 . S
C2243 H2231 0.950 . S
C2243 C2239 1.393 . S
C2243 C2242 1.391 . S
H2244 C2252 0.950 . S
H2245 C2257 0.950 . S
H2246 C2254 0.950 . S
H2247 C2256 0.950 . S
H2248 C2258 0.950 . S
H2249 C2260 0.950 . S
H2250 C2262 0.950 . S
H2251 C2263 0.950 . S
C2252 H2244 0.950 . S
C2252 C2253 1.386 . S
C2252 C2254 1.391 . S
C2253 C2252 1.386 . S
C2253 C2257 1.393 . S
C2254 H2246 0.950 . S
C2254 C2252 1.391 . S
C2254 C2255 1.400 . S
C2255 C2254 1.400 . S
C2255 C2256 1.398 . S
C2255 C2261 1.491 . S
C2256 H2247 0.950 . S
C2256 C2255 1.398 . S
C2256 C2257 1.391 . S
C2257 H2245 0.950 . S
C2257 C2253 1.393 . S
C2257 C2256 1.391 . S
C2258 H2248 0.950 . S
C2258 C2259 1.386 . S
C2258 C2260 1.391 . S
C2259 C2258 1.386 . S
C2259 C2263 1.393 . S
C2260 H2249 0.950 . S
C2260 C2258 1.391 . S
C2260 C2261 1.400 . S
C2261 C2255 1.491 . S
C2261 C2260 1.400 . S
C2261 C2262 1.398 . S
C2262 H2250 0.950 . S
C2262 C2261 1.398 . S
C2262 C2263 1.391 . S
C2263 H2251 0.950 . S
C2263 C2259 1.393 . S
C2263 C2262 1.391 . S
H2264 C2272 0.950 . S
H2265 C2277 0.950 . S
H2266 C2274 0.950 . S
H2267 C2276 0.950 . S
H2268 C2278 0.950 . S
H2269 C2280 0.950 . S
H2270 C2282 0.950 . S
H2271 C2283 0.950 . S
C2272 H2264 0.950 . S
C2272 C2273 1.386 . S
C2272 C2274 1.391 . S
C2273 C2272 1.386 . S
C2273 C2277 1.393 1_455 S
C2274 H2266 0.950 . S
C2274 C2272 1.391 . S
C2274 C2275 1.409 . S
C2275 C2274 1.409 . S
C2275 C2276 1.392 1_455 S
C2275 C2281 1.488 1_455 S
C2276 H2267 0.950 . S
C2276 C2275 1.392 1_655 S
C2276 C2277 1.391 . S
C2277 H2265 0.950 . S
C2277 C2273 1.393 1_655 S
C2277 C2276 1.391 . S
C2278 H2268 0.950 . S
C2278 C2279 1.386 . S
C2278 C2280 1.391 . S
C2279 C2278 1.386 . S
C2279 C2283 1.393 1_655 S
C2280 H2269 0.950 . S
C2280 C2278 1.391 . S
C2280 C2281 1.400 . S
C2281 C2275 1.488 1_655 S
C2281 C2280 1.400 . S
C2281 C2282 1.398 1_655 S
C2282 H2270 0.950 . S
C2282 C2281 1.398 1_455 S
C2282 C2283 1.391 . S
C2283 H2271 0.950 . S
C2283 C2279 1.393 1_455 S
C2283 C2282 1.391 . S
H2284 C2292 0.950 . S
H2285 C2297 0.950 . S
H2286 C2294 0.950 . S
H2287 C2296 0.950 . S
H2288 C2298 0.950 . S
H2289 C2300 0.950 . S
H2290 C2302 0.950 . S
H2291 C2303 0.950 . S
C2292 H2284 0.950 . S
C2292 C2293 1.386 . S
C2292 C2294 1.391 . S
C2293 C2292 1.386 . S
C2293 C2297 1.393 . S
C2294 H2286 0.950 . S
C2294 C2292 1.391 . S
C2294 C2295 1.400 . S
C2295 C2294 1.400 . S
C2295 C2296 1.398 . S
C2295 C2301 1.491 . S
C2296 H2287 0.950 . S
C2296 C2295 1.398 . S
C2296 C2297 1.391 . S
C2297 H2285 0.950 . S
C2297 C2293 1.393 . S
C2297 C2296 1.391 . S
C2298 H2288 0.950 . S
C2298 C2299 1.386 . S
C2298 C2300 1.391 . S
C2299 C2298 1.386 . S
C2299 C2303 1.393 . S
C2300 H2289 0.950 . S
C2300 C2298 1.391 . S
C2300 C2301 1.400 . S
C2301 C2295 1.491 . S
C2301 C2300 1.400 . S
C2301 C2302 1.398 . S
C2302 H2290 0.950 . S
C2302 C2301 1.398 . S
C2302 C2303 1.391 . S
C2303 H2291 0.950 . S
C2303 C2299 1.393 . S
C2303 C2302 1.391 . S
H2304 C2312 0.950 . S
H2305 C2317 0.950 . S
H2306 C2314 0.950 . S
H2307 C2316 0.950 . S
H2308 C2318 0.950 . S
H2309 C2320 0.950 . S
H2310 C2322 0.950 . S
H2311 C2323 0.950 . S
C2312 H2304 0.950 . S
C2312 C2313 1.386 . S
C2312 C2314 1.391 . S
C2313 C2312 1.386 . S
C2313 C2317 1.393 . S
C2314 H2306 0.950 . S
C2314 C2312 1.391 . S
C2314 C2315 1.400 . S
C2315 C2314 1.400 . S
C2315 C2316 1.398 . S
C2315 C2321 1.491 . S
C2316 H2307 0.950 . S
C2316 C2315 1.398 . S
C2316 C2317 1.391 . S
C2317 H2305 0.950 . S
C2317 C2313 1.393 . S
C2317 C2316 1.391 . S
C2318 H2308 0.950 . S
C2318 C2319 1.386 . S
C2318 C2320 1.391 . S
C2319 C2318 1.386 . S
C2319 C2323 1.393 . S
C2320 H2309 0.950 . S
C2320 C2318 1.391 . S
C2320 C2321 1.400 . S
C2321 C2315 1.491 . S
C2321 C2320 1.400 . S
C2321 C2322 1.398 . S
C2322 H2310 0.950 . S
C2322 C2321 1.398 . S
C2322 C2323 1.391 . S
C2323 H2311 0.950 . S
C2323 C2319 1.393 . S
C2323 C2322 1.391 . S
H2324 C2332 0.950 . S
H2325 C2337 0.950 . S
H2326 C2334 0.950 . S
H2327 C2336 0.950 . S
H2328 C2338 0.950 . S
H2329 C2340 0.950 . S
H2330 C2342 0.950 . S
H2331 C2343 0.950 . S
C2332 H2324 0.950 . S
C2332 C2333 1.386 . S
C2332 C2334 1.391 . S
C2333 C2332 1.386 . S
C2333 C2337 1.393 . S
C2334 H2326 0.950 . S
C2334 C2332 1.391 . S
C2334 C2335 1.400 . S
C2335 C2334 1.400 . S
C2335 C2336 1.398 . S
C2335 C2341 1.491 . S
C2336 H2327 0.950 . S
C2336 C2335 1.398 . S
C2336 C2337 1.391 . S
C2337 H2325 0.950 . S
C2337 C2333 1.393 . S
C2337 C2336 1.391 . S
C2338 H2328 0.950 . S
C2338 C2339 1.386 . S
C2338 C2340 1.391 . S
C2339 C2338 1.386 . S
C2339 C2343 1.393 . S
C2340 H2329 0.950 . S
C2340 C2338 1.391 . S
C2340 C2341 1.400 . S
C2341 C2335 1.491 . S
C2341 C2340 1.400 . S
C2341 C2342 1.398 . S
C2342 H2330 0.950 . S
C2342 C2341 1.398 . S
C2342 C2343 1.391 . S
C2343 H2331 0.950 . S
C2343 C2339 1.393 . S
C2343 C2342 1.391 . S
H2344 C2352 0.950 . S
H2345 C2357 0.950 . S
H2346 C2354 0.950 . S
H2347 C2356 0.950 . S
H2348 C2358 0.950 . S
H2349 C2360 0.950 . S
H2350 C2362 0.950 . S
H2351 C2363 0.950 . S
C2352 H2344 0.950 . S
C2352 C2353 1.386 . S
C2352 C2354 1.391 . S
C2353 C2352 1.386 . S
C2353 C2357 1.393 . S
C2354 H2346 0.950 . S
C2354 C2352 1.391 . S
C2354 C2355 1.400 . S
C2355 C2354 1.400 . S
C2355 C2356 1.398 . S
C2355 C2361 1.491 . S
C2356 H2347 0.950 . S
C2356 C2355 1.398 . S
C2356 C2357 1.391 . S
C2357 H2345 0.950 . S
C2357 C2353 1.393 . S
C2357 C2356 1.391 . S
C2358 H2348 0.950 . S
C2358 C2359 1.386 . S
C2358 C2360 1.391 . S
C2359 C2358 1.386 . S
C2359 C2363 1.393 . S
C2360 H2349 0.950 . S
C2360 C2358 1.391 . S
C2360 C2361 1.400 . S
C2361 C2355 1.491 . S
C2361 C2360 1.400 . S
C2361 C2362 1.398 . S
C2362 H2350 0.950 . S
C2362 C2361 1.398 . S
C2362 C2363 1.391 . S
C2363 H2351 0.950 . S
C2363 C2359 1.393 . S
C2363 C2362 1.391 . S
H2364 C2372 0.950 . S
H2365 C2377 0.950 . S
H2366 C2374 0.950 . S
H2367 C2376 0.950 . S
H2368 C2378 0.950 . S
H2369 C2380 0.950 . S
H2370 C2382 0.950 . S
H2371 C2383 0.950 . S
C2372 H2364 0.950 . S
C2372 C2373 1.386 . S
C2372 C2374 1.391 . S
C2373 C2372 1.386 . S
C2373 C2377 1.393 . S
C2374 H2366 0.950 . S
C2374 C2372 1.391 . S
C2374 C2375 1.400 . S
C2375 C2374 1.400 . S
C2375 C2376 1.398 . S
C2375 C2381 1.491 . S
C2376 H2367 0.950 . S
C2376 C2375 1.398 . S
C2376 C2377 1.391 . S
C2377 H2365 0.950 . S
C2377 C2373 1.393 . S
C2377 C2376 1.391 . S
C2378 H2368 0.950 . S
C2378 C2379 1.386 . S
C2378 C2380 1.391 . S
C2379 C2378 1.386 . S
C2379 C2383 1.393 . S
C2380 H2369 0.950 . S
C2380 C2378 1.391 . S
C2380 C2381 1.400 . S
C2381 C2375 1.491 . S
C2381 C2380 1.400 . S
C2381 C2382 1.398 . S
C2382 H2370 0.950 . S
C2382 C2381 1.398 . S
C2382 C2383 1.391 . S
C2383 H2371 0.950 . S
C2383 C2379 1.393 . S
C2383 C2382 1.391 . S
H2384 C2392 0.950 . S
H2385 C2397 0.950 . S
H2386 C2394 0.950 . S
H2387 C2396 0.950 . S
H2388 C2398 0.950 . S
H2389 C2400 0.950 . S
H2390 C2402 0.950 . S
H2391 C2403 0.950 . S
C2392 H2384 0.950 . S
C2392 C2393 1.386 . S
C2392 C2394 1.391 . S
C2393 C2392 1.386 . S
C2393 C2397 1.393 . S
C2394 H2386 0.950 . S
C2394 C2392 1.391 . S
C2394 C2395 1.400 . S
C2395 C2394 1.400 . S
C2395 C2396 1.398 . S
C2395 C2401 1.491 . S
C2396 H2387 0.950 . S
C2396 C2395 1.398 . S
C2396 C2397 1.391 . S
C2397 H2385 0.950 . S
C2397 C2393 1.393 . S
C2397 C2396 1.391 . S
C2398 H2388 0.950 . S
C2398 C2399 1.386 . S
C2398 C2400 1.391 . S
C2399 C2398 1.386 . S
C2399 C2403 1.393 . S
C2400 H2389 0.950 . S
C2400 C2398 1.391 . S
C2400 C2401 1.400 . S
C2401 C2395 1.491 . S
C2401 C2400 1.400 . S
C2401 C2402 1.398 . S
C2402 H2390 0.950 . S
C2402 C2401 1.398 . S
C2402 C2403 1.391 . S
C2403 H2391 0.950 . S
C2403 C2399 1.393 . S
C2403 C2402 1.391 . S
H2404 C2412 0.950 . S
H2405 C2417 0.950 . S
H2406 C2414 0.950 . S
H2407 C2416 0.950 . S
H2408 C2418 0.950 . S
H2409 C2420 0.950 . S
H2410 C2422 0.950 . S
H2411 C2423 0.950 . S
C2412 H2404 0.950 . S
C2412 C2413 1.386 . S
C2412 C2414 1.391 . S
C2413 C2412 1.386 . S
C2413 C2417 1.393 . S
C2414 H2406 0.950 . S
C2414 C2412 1.391 . S
C2414 C2415 1.400 . S
C2415 C2414 1.400 . S
C2415 C2416 1.398 . S
C2415 C2421 1.491 . S
C2416 H2407 0.950 . S
C2416 C2415 1.398 . S
C2416 C2417 1.391 . S
C2417 H2405 0.950 . S
C2417 C2413 1.393 . S
C2417 C2416 1.391 . S
C2418 H2408 0.950 . S
C2418 C2419 1.386 . S
C2418 C2420 1.391 . S
C2419 C2418 1.386 . S
C2419 C2423 1.393 . S
C2420 H2409 0.950 . S
C2420 C2418 1.391 . S
C2420 C2421 1.400 . S
C2421 C2415 1.491 . S
C2421 C2420 1.400 . S
C2421 C2422 1.398 . S
C2422 H2410 0.950 . S
C2422 C2421 1.398 . S
C2422 C2423 1.391 . S
C2423 H2411 0.950 . S
C2423 C2419 1.393 . S
C2423 C2422 1.391 . S
H2424 C2432 0.950 . S
H2425 C2437 0.950 . S
H2426 C2434 0.950 . S
H2427 C2436 0.950 . S
H2428 C2438 0.950 . S
H2429 C2440 0.950 . S
H2430 C2442 0.950 . S
H2431 C2443 0.950 . S
C2432 H2424 0.950 . S
C2432 C2433 1.386 . S
C2432 C2434 1.391 . S
C2433 C2432 1.386 . S
C2433 C2437 1.393 . S
C2434 H2426 0.950 . S
C2434 C2432 1.391 . S
C2434 C2435 1.400 . S
C2435 C2434 1.400 . S
C2435 C2436 1.398 . S
C2435 C2441 1.491 . S
C2436 H2427 0.950 . S
C2436 C2435 1.398 . S
C2436 C2437 1.391 . S
C2437 H2425 0.950 . S
C2437 C2433 1.393 . S
C2437 C2436 1.391 . S
C2438 H2428 0.950 . S
C2438 C2439 1.386 . S
C2438 C2440 1.391 . S
C2439 C2438 1.386 . S
C2439 C2443 1.393 . S
C2440 H2429 0.950 . S
C2440 C2438 1.391 . S
C2440 C2441 1.400 . S
C2441 C2435 1.491 . S
C2441 C2440 1.400 . S
C2441 C2442 1.398 . S
C2442 H2430 0.950 . S
C2442 C2441 1.398 . S
C2442 C2443 1.391 . S
C2443 H2431 0.950 . S
C2443 C2439 1.393 . S
C2443 C2442 1.391 . S
H2444 C2452 0.950 . S
H2445 C2457 0.950 . S
H2446 C2454 0.950 . S
H2447 C2456 0.950 . S
H2448 C2458 0.950 . S
H2449 C2460 0.950 . S
H2450 C2462 0.950 . S
H2451 C2463 0.950 . S
C2452 H2444 0.950 . S
C2452 C2453 1.386 . S
C2452 C2454 1.391 . S
C2453 C2452 1.386 . S
C2453 C2457 1.393 . S
C2454 H2446 0.950 . S
C2454 C2452 1.391 . S
C2454 C2455 1.400 . S
C2455 C2454 1.400 . S
C2455 C2456 1.398 . S
C2455 C2461 1.491 . S
C2456 H2447 0.950 . S
C2456 C2455 1.398 . S
C2456 C2457 1.391 . S
C2457 H2445 0.950 . S
C2457 C2453 1.393 . S
C2457 C2456 1.391 . S
C2458 H2448 0.950 . S
C2458 C2459 1.386 . S
C2458 C2460 1.391 . S
C2459 C2458 1.386 . S
C2459 C2463 1.393 . S
C2460 H2449 0.950 . S
C2460 C2458 1.391 . S
C2460 C2461 1.400 . S
C2461 C2455 1.491 . S
C2461 C2460 1.400 . S
C2461 C2462 1.398 . S
C2462 H2450 0.950 . S
C2462 C2461 1.398 . S
C2462 C2463 1.391 . S
C2463 H2451 0.950 . S
C2463 C2459 1.393 . S
C2463 C2462 1.391 . S
H2464 C2472 0.950 . S
H2465 C2477 0.950 . S
H2466 C2474 0.950 . S
H2467 C2476 0.950 . S
H2468 C2478 0.950 . S
H2469 C2480 0.950 . S
H2470 C2482 0.950 . S
H2471 C2483 0.950 . S
C2472 H2464 0.950 . S
C2472 C2473 1.386 . S
C2472 C2474 1.391 . S
C2473 C2472 1.386 . S
C2473 C2477 1.393 . S
C2474 H2466 0.950 . S
C2474 C2472 1.391 . S
C2474 C2475 1.400 . S
C2475 C2474 1.400 . S
C2475 C2476 1.398 . S
C2475 C2481 1.491 . S
C2476 H2467 0.950 . S
C2476 C2475 1.398 . S
C2476 C2477 1.391 . S
C2477 H2465 0.950 . S
C2477 C2473 1.393 . S
C2477 C2476 1.391 . S
C2478 H2468 0.950 . S
C2478 C2479 1.386 . S
C2478 C2480 1.391 . S
C2479 C2478 1.386 . S
C2479 C2483 1.393 . S
C2480 H2469 0.950 . S
C2480 C2478 1.391 . S
C2480 C2481 1.400 . S
C2481 C2475 1.491 . S
C2481 C2480 1.400 . S
C2481 C2482 1.398 . S
C2482 H2470 0.950 . S
C2482 C2481 1.398 . S
C2482 C2483 1.391 . S
C2483 H2471 0.950 . S
C2483 C2479 1.393 . S
C2483 C2482 1.391 . S
H2484 C2492 0.950 . S
H2485 C2497 0.950 . S
H2486 C2494 0.950 . S
H2487 C2496 0.950 . S
H2488 C2498 0.950 . S
H2489 C2500 0.950 . S
H2490 C2502 0.950 . S
H2491 C2503 0.950 . S
C2492 H2484 0.950 . S
C2492 C2493 1.386 . S
C2492 C2494 1.391 . S
C2493 C2492 1.386 . S
C2493 C2497 1.393 . S
C2494 H2486 0.950 . S
C2494 C2492 1.391 . S
C2494 C2495 1.400 . S
C2495 C2494 1.400 . S
C2495 C2496 1.398 . S
C2495 C2501 1.491 . S
C2496 H2487 0.950 . S
C2496 C2495 1.398 . S
C2496 C2497 1.391 . S
C2497 H2485 0.950 . S
C2497 C2493 1.393 . S
C2497 C2496 1.391 . S
C2498 H2488 0.950 . S
C2498 C2499 1.386 . S
C2498 C2500 1.391 . S
C2499 C2498 1.386 . S
C2499 C2503 1.393 . S
C2500 H2489 0.950 . S
C2500 C2498 1.391 . S
C2500 C2501 1.400 . S
C2501 C2495 1.491 . S
C2501 C2500 1.400 . S
C2501 C2502 1.398 . S
C2502 H2490 0.950 . S
C2502 C2501 1.398 . S
C2502 C2503 1.391 . S
C2503 H2491 0.950 . S
C2503 C2499 1.393 . S
C2503 C2502 1.391 . S
H2504 C2512 0.950 . S
H2505 C2517 0.950 . S
H2506 C2514 0.950 . S
H2507 C2516 0.950 . S
H2508 C2518 0.950 . S
H2509 C2520 0.950 . S
H2510 C2522 0.950 . S
H2511 C2523 0.950 . S
C2512 H2504 0.950 . S
C2512 C2513 1.386 . S
C2512 C2514 1.391 . S
C2513 C2512 1.386 . S
C2513 C2517 1.393 . S
C2514 H2506 0.950 . S
C2514 C2512 1.391 . S
C2514 C2515 1.400 . S
C2515 C2514 1.400 . S
C2515 C2516 1.398 . S
C2515 C2521 1.491 . S
C2516 H2507 0.950 . S
C2516 C2515 1.398 . S
C2516 C2517 1.391 . S
C2517 H2505 0.950 . S
C2517 C2513 1.393 . S
C2517 C2516 1.391 . S
C2518 H2508 0.950 . S
C2518 C2519 1.386 . S
C2518 C2520 1.391 . S
C2519 C2518 1.386 . S
C2519 C2523 1.393 . S
C2520 H2509 0.950 . S
C2520 C2518 1.391 . S
C2520 C2521 1.400 . S
C2521 C2515 1.491 . S
C2521 C2520 1.400 . S
C2521 C2522 1.398 . S
C2522 H2510 0.950 . S
C2522 C2521 1.398 . S
C2522 C2523 1.391 . S
C2523 H2511 0.950 . S
C2523 C2519 1.393 . S
C2523 C2522 1.391 . S
H2524 C2532 0.950 . S
H2525 C2537 0.950 . S
H2526 C2534 0.950 . S
H2527 C2536 0.950 . S
H2528 C2538 0.950 . S
H2529 C2540 0.950 . S
H2530 C2542 0.950 . S
H2531 C2543 0.950 . S
C2532 H2524 0.950 . S
C2532 C2533 1.386 1_556 S
C2532 C2534 1.391 . S
C2533 C2532 1.386 1_554 S
C2533 C2537 1.393 . S
C2534 H2526 0.950 . S
C2534 C2532 1.391 . S
C2534 C2535 1.400 . S
C2535 C2534 1.400 . S
C2535 C2536 1.398 1_556 S
C2535 C2541 1.491 . S
C2536 H2527 0.950 . S
C2536 C2535 1.398 1_554 S
C2536 C2537 1.391 . S
C2537 H2525 0.950 . S
C2537 C2533 1.393 . S
C2537 C2536 1.391 . S
C2538 H2528 0.950 . S
C2538 C2539 1.386 1_554 S
C2538 C2540 1.391 . S
C2539 C2538 1.386 1_556 S
C2539 C2543 1.393 . S
C2540 H2529 0.950 . S
C2540 C2538 1.391 . S
C2540 C2541 1.400 1_554 S
C2541 C2535 1.491 . S
C2541 C2540 1.400 1_556 S
C2541 C2542 1.398 . S
C2542 H2530 0.950 . S
C2542 C2541 1.398 . S
C2542 C2543 1.391 . S
C2543 H2531 0.950 . S
C2543 C2539 1.393 . S
C2543 C2542 1.391 . S
H2544 C2552 0.950 . S
H2545 C2557 0.950 . S
H2546 C2554 0.950 . S
H2547 C2556 0.950 . S
H2548 C2558 0.950 . S
H2549 C2560 0.950 . S
H2550 C2562 0.950 . S
H2551 C2563 0.950 . S
C2552 H2544 0.950 . S
C2552 C2553 1.386 . S
C2552 C2554 1.391 . S
C2553 C2552 1.386 . S
C2553 C2557 1.393 . S
C2554 H2546 0.950 . S
C2554 C2552 1.391 . S
C2554 C2555 1.400 . S
C2555 C2554 1.400 . S
C2555 C2556 1.398 . S
C2555 C2561 1.491 . S
C2556 H2547 0.950 . S
C2556 C2555 1.398 . S
C2556 C2557 1.391 . S
C2557 H2545 0.950 . S
C2557 C2553 1.393 . S
C2557 C2556 1.391 . S
C2558 H2548 0.950 . S
C2558 C2559 1.386 . S
C2558 C2560 1.391 . S
C2559 C2558 1.386 . S
C2559 C2563 1.393 . S
C2560 H2549 0.950 . S
C2560 C2558 1.391 . S
C2560 C2561 1.400 . S
C2561 C2555 1.491 . S
C2561 C2560 1.400 . S
C2561 C2562 1.398 . S
C2562 H2550 0.950 . S
C2562 C2561 1.398 . S
C2562 C2563 1.391 . S
C2563 H2551 0.950 . S
C2563 C2559 1.393 . S
C2563 C2562 1.391 . S
H2564 C2572 0.950 . S
H2565 C2577 0.950 . S
H2566 C2574 0.950 . S
H2567 C2576 0.950 . S
H2568 C2578 0.950 . S
H2569 C2580 0.950 . S
H2570 C2582 0.950 1_556 S
H2571 C2583 0.950 1_556 S
C2572 H2564 0.950 . S
C2572 C2573 1.386 1_556 S
C2572 C2574 1.391 . S
C2573 C2572 1.386 1_554 S
C2573 C2577 1.393 . S
C2574 H2566 0.950 . S
C2574 C2572 1.391 . S
C2574 C2575 1.400 1_556 S
C2575 C2574 1.400 1_554 S
C2575 C2576 1.398 . S
C2575 C2581 1.491 . S
C2576 H2567 0.950 . S
C2576 C2575 1.398 . S
C2576 C2577 1.391 . S
C2577 H2565 0.950 . S
C2577 C2573 1.393 . S
C2577 C2576 1.391 . S
C2578 H2568 0.950 . S
C2578 C2579 1.386 . S
C2578 C2580 1.391 . S
C2579 C2578 1.386 . S
C2579 C2583 1.393 . S
C2580 H2569 0.950 . S
C2580 C2578 1.391 . S
C2580 C2581 1.400 . S
C2581 C2575 1.491 . S
C2581 C2580 1.400 . S
C2581 C2582 1.398 . S
C2582 H2570 0.950 1_554 S
C2582 C2581 1.398 . S
C2582 C2583 1.391 . S
C2583 H2571 0.950 1_554 S
C2583 C2579 1.393 . S
C2583 C2582 1.391 . S
H2584 C2592 0.950 . S
H2585 C2597 0.950 . S
H2586 C2594 0.950 . S
H2587 C2596 0.950 . S
H2588 C2598 0.950 . S
H2589 C2600 0.950 . S
H2590 C2602 0.950 . S
H2591 C2603 0.950 . S
C2592 H2584 0.950 . S
C2592 C2593 1.386 . S
C2592 C2594 1.391 . S
C2593 C2592 1.386 . S
C2593 C2597 1.393 . S
C2594 H2586 0.950 . S
C2594 C2592 1.391 . S
C2594 C2595 1.400 . S
C2595 C2594 1.400 . S
C2595 C2596 1.398 . S
C2595 C2601 1.491 . S
C2596 H2587 0.950 . S
C2596 C2595 1.398 . S
C2596 C2597 1.391 . S
C2597 H2585 0.950 . S
C2597 C2593 1.393 . S
C2597 C2596 1.391 . S
C2598 H2588 0.950 . S
C2598 C2599 1.386 . S
C2598 C2600 1.391 . S
C2599 C2598 1.386 . S
C2599 C2603 1.393 . S
C2600 H2589 0.950 . S
C2600 C2598 1.391 . S
C2600 C2601 1.400 . S
C2601 C2595 1.491 . S
C2601 C2600 1.400 . S
C2601 C2602 1.398 . S
C2602 H2590 0.950 . S
C2602 C2601 1.398 . S
C2602 C2603 1.391 . S
C2603 H2591 0.950 . S
C2603 C2599 1.393 . S
C2603 C2602 1.391 . S
H2604 C2612 0.950 . S
H2605 C2617 0.950 . S
H2606 C2614 0.950 . S
H2607 C2616 0.950 . S
H2608 C2618 0.950 . S
H2609 C2620 0.950 . S
H2610 C2622 0.950 . S
H2611 C2623 0.950 . S
C2612 H2604 0.950 . S
C2612 C2613 1.386 . S
C2612 C2614 1.391 . S
C2613 C2612 1.386 . S
C2613 C2617 1.393 . S
C2614 H2606 0.950 . S
C2614 C2612 1.391 . S
C2614 C2615 1.400 . S
C2615 C2614 1.400 . S
C2615 C2616 1.398 . S
C2615 C2621 1.491 . S
C2616 H2607 0.950 . S
C2616 C2615 1.398 . S
C2616 C2617 1.391 . S
C2617 H2605 0.950 . S
C2617 C2613 1.393 . S
C2617 C2616 1.391 . S
C2618 H2608 0.950 . S
C2618 C2619 1.386 . S
C2618 C2620 1.391 . S
C2619 C2618 1.386 . S
C2619 C2623 1.393 . S
C2620 H2609 0.950 . S
C2620 C2618 1.391 . S
C2620 C2621 1.400 . S
C2621 C2615 1.491 . S
C2621 C2620 1.400 . S
C2621 C2622 1.398 . S
C2622 H2610 0.950 . S
C2622 C2621 1.398 . S
C2622 C2623 1.391 . S
C2623 H2611 0.950 . S
C2623 C2619 1.393 . S
C2623 C2622 1.391 . S
C719 C352 1.150 . S
C713 C7 1.165 . S
C733 C22 1.405 . S
C739 C380 1.312 . S
C753 C31 1.177 . S
C759 C398 1.147 . S
C779 C424 1.353 . S
C773 C51 1.475 . S
C793 C17 1.500 . S
C799 C447 1.347 . S
C819 C467 1.091 . S
C813 C36 1.118 . S
C839 C495 1.370 1_556 S
C833 C49 1.456 . S
C853 C9 1.151 . S
C859 C513 1.125 . S
C873 C63 1.376 . S
C879 C354 1.405 . S
C893 C73 1.112 . S
C899 C376 1.081 . S
C919 C400 1.413 . S
C913 C91 1.375 1_545 S
C939 C421 1.141 . S
C933 C101 1.152 . S
C953 C59 1.166 . S
C959 C444 1.156 . S
C979 C469 1.403 . S
C973 C77 1.365 . S
C999 C491 1.076 . S
C993 C87 1.107 1_565 S
C1019 C515 1.405 . S
C1013 C105 1.380 . S
C1039 C355 1.010 1_556 S
C1033 C107 1.061 . S
C1059 C538 1.182 . S
C1053 C120 1.182 . S
C1073 C135 1.055 . S
C1079 C562 0.977 . S
C1099 C586 1.148 . S
C1093 C148 1.165 . S
C1113 C65 1.025 . S
C1119 C516 0.922 . S
C1139 C401 1.034 . S
C1133 C79 1.096 . S
C1153 C134 1.138 . S
C1159 C607 1.142 . S
C1179 C632 1.085 . S
C1173 C162 1.119 . S
C1193 C171 1.163 . S
C1199 C353 1.141 . S
C1219 C630 1.029 . S
C1213 C190 1.015 . S
C1233 C203 1.129 . S
C1239 C399 1.149 . S
C1253 C219 0.997 . S
C1259 C609 0.974 . S
C1279 C448 1.022 . S
C1273 C189 1.007 . S
C1299 C560 1.092 . S
C1293 C204 1.108 . S
C1319 C492 1.077 . S
C1313 C213 1.083 . S
C1339 C652 1.126 . S
C1333 C177 1.146 . S
C1359 C357 0.960 . S
C1353 C227 0.987 . S
C1373 C245 1.297 . S
C1379 C628 1.312 . S
C1399 C403 0.941 . S
C1393 C255 0.987 . S
C1413 C273 1.270 . S
C1419 C606 1.291 . S
C1433 C231 1.283 . S
C1439 C445 1.303 . S
C1453 C241 0.984 . S
C1459 C564 0.951 . S
C1479 C490 1.295 . S
C1473 C259 1.279 . S
C1493 C269 0.971 . S
C1499 C656 0.912 . S
C1513 C275 1.343 . S
C1519 C356 1.312 . S
C1533 C288 1.235 . S
C1539 C541 1.153 . S
C1553 C303 1.306 . S
C1559 C471 1.271 . S
C1573 C316 1.237 . S
C1579 C585 1.130 . S
C1599 C655 1.251 . S
C1593 C233 1.297 . S
C1619 C402 1.321 . S
C1613 C247 1.354 . S
C1639 C426 1.150 . S
C1633 C302 1.195 . S
C1659 C378 1.096 . S
C1653 C330 1.200 . S
C1673 C35 1.160 . S
C1679 C674 1.166 . S
C1699 C633 1.298 . S
C1693 C50 1.404 . S
C1719 C697 1.160 . S
C1713 C3 1.182 . S
C1733 C23 1.476 . S
C1739 C608 1.353 . S
C1753 C45 1.501 . S
C1759 C539 1.364 1_556 S
C1779 C559 1.116 . S
C1773 C8 1.125 . S
C1799 C587 1.385 . S
C1793 C21 1.452 . S
C1819 C651 1.151 . S
C1813 C37 1.155 . S
C1839 C676 1.403 . S
C1833 C161 1.374 . S
C1853 C115 1.112 . S
C1859 C629 1.085 . S
C1873 C133 1.378 . S
C1879 C699 1.414 . S
C1899 C605 1.142 . S
C1893 C143 1.152 . S
C1919 C536 1.134 . S
C1913 C157 1.162 . S
C1933 C119 1.364 . S
C1939 C561 1.402 . S
C1959 C583 1.103 . S
C1953 C129 1.112 . S
C1973 C147 1.360 . S
C1979 C653 1.400 . S
C1999 C677 1.011 . S
C1993 C149 1.062 . S
C2019 C446 1.188 . S
C2013 C78 1.182 . S
C2039 C470 0.950 . S
C2033 C93 1.060 . S
C2053 C106 1.164 . S
C2059 C494 1.145 . S
C2079 C654 0.975 . S
C2073 C163 1.025 . S
C2093 C121 1.098 . S
C2099 C700 1.025 1_556 S
C2119 C423 1.139 . S
C2113 C92 1.131 . S
C2139 C379 1.112 . S
C2133 C64 1.128 . S
C2153 C199 1.172 . S
C2159 C675 1.163 . S
C2179 C377 1.022 . S
C2173 C218 1.022 . S
C2199 C698 1.155 . S
C2193 C175 1.148 . S
C2213 C191 0.999 . S
C2219 C425 0.982 . S
C2233 C217 1.025 . S
C2239 C540 1.005 . S
C2253 C176 1.113 . S
C2259 C468 1.097 . S
C2273 C185 1.085 . S
C2279 C584 1.083 . S
C2293 C205 1.152 . S
C2299 C514 1.123 . S
C2319 C679 0.956 . S
C2313 C325 0.986 . S
C2333 C287 1.285 . S
C2339 C375 1.301 . S
C2359 C702 0.967 . S
C2353 C297 0.996 . S
C2373 C315 1.264 . S
C2379 C422 1.278 . S
C2393 C329 1.285 . S
C2399 C537 1.296 . S
C2419 C472 0.935 . S
C2413 C283 0.979 . S
C2433 C301 1.299 . S
C2439 C582 1.313 . S
C2459 C518 0.935 . S
C2453 C311 0.977 . S
C2479 C678 1.313 . S
C2473 C317 1.345 . S
C2499 C449 1.182 . S
C2493 C246 1.233 . S
C2513 C261 1.301 . S
C2519 C563 1.255 . S
C2539 C493 1.131 . S
C2533 C274 1.237 . S
C2559 C517 1.248 . S
C2553 C331 1.292 . S
C2573 C289 1.355 . S
C2579 C701 1.317 . S
C2599 C610 1.107 . S
C2593 C260 1.191 . S
C2619 C631 1.122 . S
C2613 C232 1.200 . S
