# Generated by pormake.
# Topology myd, (4,6)-cn, num edge types: 1
# Building blocks:
#     Node 0, Type 0, BuildingBlock: NAWXER_clean_sbu_0, # of connection points: 4
#     Node 1, Type 0, BuildingBlock: NAWXER_clean_sbu_0, # of connection points: 4
#     Node 2, Type 0, BuildingBlock: NAWXER_clean_sbu_0, # of connection points: 4
#     Node 3, Type 0, BuildingBlock: NAWXER_clean_sbu_0, # of connection points: 4
#     Node 4, Type 0, BuildingBlock: NAWXER_clean_sbu_0, # of connection points: 4
#     Node 5, Type 0, BuildingBlock: NAWXER_clean_sbu_0, # of connection points: 4
#     Node 6, Type 0, BuildingBlock: NAWXER_clean_sbu_0, # of connection points: 4
#     Node 7, Type 0, BuildingBlock: NAWXER_clean_sbu_0, # of connection points: 4
#     Node 8, Type 0, BuildingBlock: NAWXER_clean_sbu_0, # of connection points: 4
#     Node 9, Type 0, BuildingBlock: NAWXER_clean_sbu_0, # of connection points: 4
#     Node 10, Type 0, BuildingBlock: NAWXER_clean_sbu_0, # of connection points: 4
#     Node 11, Type 0, BuildingBlock: NAWXER_clean_sbu_0, # of connection points: 4
#     Node 12, Type 1, BuildingBlock: FUNLAD_clean_sbu_0, # of connection points: 6
#     Node 13, Type 1, BuildingBlock: FUNLAD_clean_sbu_0, # of connection points: 6
#     Node 14, Type 1, BuildingBlock: FUNLAD_clean_sbu_0, # of connection points: 6
#     Node 15, Type 1, BuildingBlock: FUNLAD_clean_sbu_0, # of connection points: 6
#     Node 16, Type 1, BuildingBlock: FUNLAD_clean_sbu_0, # of connection points: 6
#     Node 17, Type 1, BuildingBlock: FUNLAD_clean_sbu_0, # of connection points: 6
#     Node 18, Type 1, BuildingBlock: FUNLAD_clean_sbu_0, # of connection points: 6
#     Node 19, Type 1, BuildingBlock: FUNLAD_clean_sbu_0, # of connection points: 6
#     Edge 20, Type (0, 1), BuildingBlock: MIFKUJ_clean_linker_0, # of connection points: 2
#     Edge 21, Type (0, 1), BuildingBlock: MIFKUJ_clean_linker_0, # of connection points: 2
#     Edge 22, Type (0, 1), BuildingBlock: MIFKUJ_clean_linker_0, # of connection points: 2
#     Edge 23, Type (0, 1), BuildingBlock: MIFKUJ_clean_linker_0, # of connection points: 2
#     Edge 24, Type (0, 1), BuildingBlock: MIFKUJ_clean_linker_0, # of connection points: 2
#     Edge 25, Type (0, 1), BuildingBlock: MIFKUJ_clean_linker_0, # of connection points: 2
#     Edge 26, Type (0, 1), BuildingBlock: MIFKUJ_clean_linker_0, # of connection points: 2
#     Edge 27, Type (0, 1), BuildingBlock: MIFKUJ_clean_linker_0, # of connection points: 2
#     Edge 28, Type (0, 1), BuildingBlock: MIFKUJ_clean_linker_0, # of connection points: 2
#     Edge 29, Type (0, 1), BuildingBlock: MIFKUJ_clean_linker_0, # of connection points: 2
#     Edge 30, Type (0, 1), BuildingBlock: MIFKUJ_clean_linker_0, # of connection points: 2
#     Edge 31, Type (0, 1), BuildingBlock: MIFKUJ_clean_linker_0, # of connection points: 2
#     Edge 32, Type (0, 1), BuildingBlock: MIFKUJ_clean_linker_0, # of connection points: 2
#     Edge 33, Type (0, 1), BuildingBlock: MIFKUJ_clean_linker_0, # of connection points: 2
#     Edge 34, Type (0, 1), BuildingBlock: MIFKUJ_clean_linker_0, # of connection points: 2
#     Edge 35, Type (0, 1), BuildingBlock: MIFKUJ_clean_linker_0, # of connection points: 2
#     Edge 36, Type (0, 1), BuildingBlock: MIFKUJ_clean_linker_0, # of connection points: 2
#     Edge 37, Type (0, 1), BuildingBlock: MIFKUJ_clean_linker_0, # of connection points: 2
#     Edge 38, Type (0, 1), BuildingBlock: MIFKUJ_clean_linker_0, # of connection points: 2
#     Edge 39, Type (0, 1), BuildingBlock: MIFKUJ_clean_linker_0, # of connection points: 2
#     Edge 40, Type (0, 1), BuildingBlock: MIFKUJ_clean_linker_0, # of connection points: 2
#     Edge 41, Type (0, 1), BuildingBlock: MIFKUJ_clean_linker_0, # of connection points: 2
#     Edge 42, Type (0, 1), BuildingBlock: MIFKUJ_clean_linker_0, # of connection points: 2
#     Edge 43, Type (0, 1), BuildingBlock: MIFKUJ_clean_linker_0, # of connection points: 2
#     Edge 44, Type (0, 1), BuildingBlock: MIFKUJ_clean_linker_0, # of connection points: 2
#     Edge 45, Type (0, 1), BuildingBlock: MIFKUJ_clean_linker_0, # of connection points: 2
#     Edge 46, Type (0, 1), BuildingBlock: MIFKUJ_clean_linker_0, # of connection points: 2
#     Edge 47, Type (0, 1), BuildingBlock: MIFKUJ_clean_linker_0, # of connection points: 2
#     Edge 48, Type (0, 1), BuildingBlock: MIFKUJ_clean_linker_0, # of connection points: 2
#     Edge 49, Type (0, 1), BuildingBlock: MIFKUJ_clean_linker_0, # of connection points: 2
#     Edge 50, Type (0, 1), BuildingBlock: MIFKUJ_clean_linker_0, # of connection points: 2
#     Edge 51, Type (0, 1), BuildingBlock: MIFKUJ_clean_linker_0, # of connection points: 2
#     Edge 52, Type (0, 1), BuildingBlock: MIFKUJ_clean_linker_0, # of connection points: 2
#     Edge 53, Type (0, 1), BuildingBlock: MIFKUJ_clean_linker_0, # of connection points: 2
#     Edge 54, Type (0, 1), BuildingBlock: MIFKUJ_clean_linker_0, # of connection points: 2
#     Edge 55, Type (0, 1), BuildingBlock: MIFKUJ_clean_linker_0, # of connection points: 2
#     Edge 56, Type (0, 1), BuildingBlock: MIFKUJ_clean_linker_0, # of connection points: 2
#     Edge 57, Type (0, 1), BuildingBlock: MIFKUJ_clean_linker_0, # of connection points: 2
#     Edge 58, Type (0, 1), BuildingBlock: MIFKUJ_clean_linker_0, # of connection points: 2
#     Edge 59, Type (0, 1), BuildingBlock: MIFKUJ_clean_linker_0, # of connection points: 2
#     Edge 60, Type (0, 1), BuildingBlock: MIFKUJ_clean_linker_0, # of connection points: 2
#     Edge 61, Type (0, 1), BuildingBlock: MIFKUJ_clean_linker_0, # of connection points: 2
#     Edge 62, Type (0, 1), BuildingBlock: MIFKUJ_clean_linker_0, # of connection points: 2
#     Edge 63, Type (0, 1), BuildingBlock: MIFKUJ_clean_linker_0, # of connection points: 2
#     Edge 64, Type (0, 1), BuildingBlock: MIFKUJ_clean_linker_0, # of connection points: 2
#     Edge 65, Type (0, 1), BuildingBlock: MIFKUJ_clean_linker_0, # of connection points: 2
#     Edge 66, Type (0, 1), BuildingBlock: MIFKUJ_clean_linker_0, # of connection points: 2
#     Edge 67, Type (0, 1), BuildingBlock: MIFKUJ_clean_linker_0, # of connection points: 2
# Relax obj value: 0.275
# Max RMSD: 0.223
# Mean RMSD: 0.145
data_MOF--net-myd--node1-NAWXER_clean_sbu_0--node2-FUNLAD_clean_sbu_0--edge1-MIFKUJ_clean_linker_0
_symmetry_space_group_name_H-M    P1
_symmetry_Int_Tables_number       1
_symmetry_cell_setting            triclinic
loop_
_symmetry_equiv_pos_as_xyz
'x, y, z'
_cell_length_a     59.141887
_cell_length_b     59.176809
_cell_length_c     63.544413
_cell_angle_alpha  85.628644
_cell_angle_beta   84.807014
_cell_angle_gamma 89.005725
loop_
_atom_site_label
_atom_site_type_symbol
_atom_site_fract_x
_atom_site_fract_y
_atom_site_fract_z
_atom_type_partial_charge
C0 C 0.02272 0.22886 0.32234 0.0
C1 C 0.01536 0.28529 0.37522 0.0
O2 O 0.03887 0.23953 0.32897 0.0
Zn3 Zn 0.0201 0.25542 0.35013 0.0
O4 O 0.00234 0.23187 0.3304 0.0
Zn5 Zn 0.98417 0.25123 0.35369 0.0
O6 O 0.96462 0.26886 0.33572 0.0
O7 O 1.00102 0.27741 0.32969 0.0
O8 O 0.99629 0.27682 0.37189 0.0
O9 O 0.03364 0.27704 0.3667 0.0
O10 O 0.00851 0.22769 0.37193 0.0
O11 O 0.97112 0.22764 0.37363 0.0
C12 C 0.98034 0.28079 0.32563 0.0
C13 C 0.98954 0.21867 0.37917 0.0
C14 C 0.04222 0.76091 0.19646 0.0
C15 C 0.01957 0.70908 0.14675 0.0
O16 O 0.05534 0.7498 0.18395 0.0
Zn17 Zn 0.03107 0.73576 0.17147 0.0
O18 O 0.02061 0.75946 0.19643 0.0
Zn19 Zn 0.99637 0.74271 0.17982 0.0
O20 O 0.97965 0.72552 0.20325 0.0
O21 O 0.01562 0.71503 0.19864 0.0
O22 O 0.00223 0.71818 0.15657 0.0
O23 O 0.03933 0.71487 0.15031 0.0
O24 O 0.01797 0.76531 0.15449 0.0
O25 O 0.98192 0.76903 0.16582 0.0
C26 C 0.99602 0.71305 0.20911 0.0
C27 C 0.99921 0.77646 0.15417 0.0
C28 C 0.34564 0.99848 0.19677 0.0
C29 C 0.28877 0.98928 0.25802 0.0
O30 O 0.33803 0.97997 0.206 0.0
Zn31 Zn 0.31821 0.9929 0.22832 0.0
O32 O 0.33915 0.0173 0.2042 0.0
Zn33 Zn 0.31601 0.02892 0.22902 0.0
O34 O 0.33474 0.0439 0.24727 0.0
O35 O 0.34054 0.00692 0.24856 0.0
O36 O 0.2933 0.01 0.25192 0.0
O37 O 0.29957 0.97342 0.24888 0.0
O38 O 0.29283 0.00939 0.21021 0.0
O39 O 0.29487 0.04642 0.21229 0.0
C40 C 0.34489 0.02638 0.25476 0.0
C41 C 0.28584 0.02953 0.20518 0.0
C42 C 0.71324 0.48889 0.1996 0.0
C43 C 0.65519 0.4891 0.25998 0.0
O44 O 0.70333 0.47178 0.20945 0.0
Zn45 Zn 0.68269 0.48807 0.229 0.0
O46 O 0.70723 0.50879 0.20467 0.0
Zn47 Zn 0.68356 0.52433 0.22662 0.0
O48 O 0.70352 0.54036 0.24258 0.0
O49 O 0.70496 0.50301 0.24839 0.0
O50 O 0.66084 0.50901 0.252 0.0
O51 O 0.66348 0.47174 0.25127 0.0
O52 O 0.65905 0.5045 0.20932 0.0
O53 O 0.66405 0.54153 0.20857 0.0
C54 C 0.71114 0.52273 0.25243 0.0
C55 C 0.65374 0.52475 0.20276 0.0
C56 C 0.22133 0.34408 0.98401 0.0
C57 C 0.28432 0.2905 0.96992 0.0
O58 O 0.22976 0.33813 0.96613 0.0
Zn59 Zn 0.25337 0.31776 0.97618 0.0
O60 O 0.23042 0.3366 1.0008 0.0
Zn61 Zn 0.25772 0.3143 0.00922 0.0
O62 O 0.2795 0.33347 0.02057 0.0
O63 O 0.2785 0.33955 0.98602 0.0
O64 O 0.28034 0.29428 0.98952 0.0
O65 O 0.27216 0.30031 0.95633 0.0
O66 O 0.23403 0.29121 0.99411 0.0
O67 O 0.24141 0.29088 0.02754 0.0
C68 C 0.28717 0.34367 0.0031 0.0
C69 C 0.23088 0.28267 0.01331 0.0
C70 C 0.24901 0.72852 0.47786 0.0
C71 C 0.3147 0.68082 0.49544 0.0
O72 O 0.26425 0.72087 0.46474 0.0
Zn73 Zn 0.28177 0.7044 0.48572 0.0
O74 O 0.25023 0.72415 0.49781 0.0
Zn75 Zn 0.27196 0.70606 0.5188 0.0
O76 O 0.28309 0.72996 0.5341 0.0
O77 O 0.29543 0.73194 0.50015 0.0
O78 O 0.30225 0.68674 0.51172 0.0
O79 O 0.30891 0.68692 0.47704 0.0
O80 O 0.25798 0.67933 0.49948 0.0
O81 O 0.2511 0.68442 0.53357 0.0
C82 C 0.29476 0.73988 0.5184 0.0
C83 C 0.24748 0.67369 0.51764 0.0
C84 C 0.72715 0.84276 0.47784 0.0
C85 C 0.7877 0.78592 0.46891 0.0
O86 O 0.73535 0.83483 0.4607 0.0
Zn87 Zn 0.75765 0.81448 0.47269 0.0
O88 O 0.73575 0.83645 0.49521 0.0
Zn89 Zn 0.7621 0.81393 0.50569 0.0
O90 O 0.78443 0.83367 0.51541 0.0
O91 O 0.7837 0.83642 0.48069 0.0
O92 O 0.78414 0.79186 0.4879 0.0
O93 O 0.77544 0.79424 0.45471 0.0
O94 O 0.73665 0.79086 0.49263 0.0
O95 O 0.74525 0.79215 0.52559 0.0
C96 C 0.79252 0.84194 0.49727 0.0
C97 C 0.73357 0.78383 0.51226 0.0
C98 C 0.48682 0.77883 0.81913 0.0
C99 C 0.49327 0.71906 0.8754 0.0
O100 O 0.47091 0.76638 0.82818 0.0
Zn101 Zn 0.48888 0.75111 0.84909 0.0
O102 O 0.50672 0.77721 0.82562 0.0
Zn103 Zn 0.5242 0.75756 0.84907 0.0
O104 O 0.54658 0.74246 0.83022 0.0
O105 O 0.51114 0.73191 0.82857 0.0
O106 O 0.51219 0.72917 0.87009 0.0
O107 O 0.47526 0.72714 0.86813 0.0
O108 O 0.49638 0.77831 0.86775 0.0
O109 O 0.53359 0.78075 0.86651 0.0
C110 C 0.53233 0.73007 0.82269 0.0
C111 C 0.51404 0.78816 0.87284 0.0
C112 C 0.48997 0.21506 0.70033 0.0
C113 C 0.49525 0.27725 0.6439 0.0
O114 O 0.47369 0.22688 0.69335 0.0
Zn115 Zn 0.49109 0.24398 0.66993 0.0
O116 O 0.50996 0.21741 0.69082 0.0
Zn117 Zn 0.52652 0.23747 0.66428 0.0
O118 O 0.54902 0.25265 0.67822 0.0
O119 O 0.51335 0.26311 0.68645 0.0
O120 O 0.51403 0.26644 0.64583 0.0
O121 O 0.47715 0.26938 0.654 0.0
O122 O 0.49948 0.21922 0.64753 0.0
O123 O 0.53676 0.21601 0.64411 0.0
C124 C 0.53465 0.26532 0.68796 0.0
C125 C 0.51757 0.21003 0.63914 0.0
C126 C 0.78783 0.51925 0.70715 0.0
C127 C 0.84433 0.51889 0.75918 0.0
O128 O 0.7954 0.53648 0.71499 0.0
Zn129 Zn 0.81624 0.51993 0.73266 0.0
O130 O 0.79531 0.49942 0.71274 0.0
Zn131 Zn 0.81964 0.48394 0.73275 0.0
O132 O 0.8005 0.46461 0.75315 0.0
O133 O 0.79299 0.50113 0.75494 0.0
O134 O 0.84085 0.49912 0.75324 0.0
O135 O 0.8338 0.53589 0.7512 0.0
O136 O 0.8405 0.50817 0.70863 0.0
O137 O 0.84068 0.47078 0.71151 0.0
C138 C 0.78879 0.48046 0.76138 0.0
C139 C 0.84786 0.48927 0.7019 0.0
C140 C 0.22435 0.99376 0.69846 0.0
C141 C 0.17049 0.99159 0.76178 0.0
O142 O 0.21861 0.97673 0.71112 0.0
Zn143 Zn 0.1966 0.99191 0.72953 0.0
O144 O 0.21503 0.01315 0.70146 0.0
Zn145 Zn 0.19005 0.02725 0.724 0.0
O146 O 0.2072 0.04937 0.73672 0.0
O147 O 0.21756 0.0138 0.74419 0.0
O148 O 0.17187 0.01125 0.75181 0.0
O149 O 0.18182 0.97511 0.75432 0.0
O150 O 0.16994 1.00052 0.70965 0.0
O151 O 0.16622 0.03779 0.70696 0.0
C152 C 0.2199 0.03501 0.74601 0.0
C153 C 0.16004 0.01849 0.70227 0.0
C154 C 0.745 0.1724 0.01537 0.0
C155 C 0.79292 0.23797 0.01736 0.0
O156 O 0.74852 0.18296 0.03142 0.0
Zn157 Zn 0.76955 0.20476 0.01698 0.0
O158 O 0.75553 0.17833 0.99731 0.0
Zn159 Zn 0.77938 0.2034 0.9839 0.0
O160 O 0.8065 0.18567 0.97514 0.0
O161 O 0.79982 0.18546 0.00981 0.0
O162 O 0.79353 0.23054 0.99887 0.0
O163 O 0.78094 0.22792 0.03279 0.0
O164 O 0.74836 0.22404 0.99622 0.0
O165 O 0.76164 0.22023 0.96312 0.0
C166 C 0.81229 0.17954 0.99355 0.0
C167 C 0.74692 0.2286 0.97632 0.0
C168 C 0.10035 0.03408 0.07716 0.0
N169 N 0.07529 0.03448 0.01716 0.0
C170 C 0.09705 0.03743 0.00851 0.0
C171 C 0.1037 0.03058 0.98828 0.0
C172 C 0.08774 0.02091 0.97667 0.0
C173 C 0.06542 0.01804 0.98596 0.0
C174 C 0.05957 0.02481 0.00638 0.0
Zn175 Zn 0.06595 0.04547 0.0467 0.0
C176 C 0.04042 0.00821 0.0752 0.0
N177 N 0.04626 0.06748 0.1084 0.0
C178 C 0.06432 0.07586 0.11706 0.0
C179 C 0.02474 0.07008 0.11758 0.0
C180 C 0.02081 0.08219 0.13576 0.0
C181 C 0.03923 0.09168 0.14444 0.0
C182 C 0.06121 0.08774 0.13515 0.0
Zn183 Zn 0.05384 0.05502 0.07912 0.0
O184 O 0.09803 0.03441 0.05745 0.0
C185 C 0.0809 0.09144 0.05146 0.0
O186 O 0.084 0.04054 0.08964 0.0
H187 H 0.01056 0.06358 0.11036 0.0
H188 H 0.10926 0.04534 0.0172 0.0
H189 H 0.08128 0.07428 0.10944 0.0
O190 O 0.08056 0.07767 0.0371 0.0
O191 O 0.07117 0.08599 0.06974 0.0
H192 H 0.0424 0.02249 0.01356 0.0
O193 O 0.02358 0.06927 0.06802 0.0
O194 O 0.03381 0.05767 0.03653 0.0
O195 O 0.03728 0.02363 0.08816 0.0
O196 O 0.05159 0.01287 0.05728 0.0
C197 C 0.01937 0.06757 0.04893 0.0
H198 H 0.12102 0.03333 0.98156 0.0
H199 H 0.05265 0.01053 0.97756 0.0
H200 H 0.00354 0.08488 0.14238 0.0
H201 H 0.07598 0.09425 0.14148 0.0
C202 C 0.91764 0.47793 0.06256 0.0
N203 N 0.94939 0.48314 0.99982 0.0
C204 C 0.92779 0.48114 0.99439 0.0
C205 C 0.92214 0.48842 0.97411 0.0
C206 C 0.93893 0.49745 0.95896 0.0
C207 C 0.96113 0.4993 0.96483 0.0
C208 C 0.96598 0.49218 0.98552 0.0
Zn209 Zn 0.9561 0.47008 0.02977 0.0
C210 C 0.97834 0.5035 0.05467 0.0
N211 N 0.96801 0.44153 0.09179 0.0
C212 C 0.94946 0.43111 0.10224 0.0
C213 C 0.98832 0.44088 0.10034 0.0
C214 C 0.99058 0.42892 0.11996 0.0
C215 C 0.97173 0.41759 0.13077 0.0
C216 C 0.9509 0.41922 0.12179 0.0
Zn217 Zn 0.96348 0.4561 0.06213 0.0
O218 O 0.9227 0.48097 0.04266 0.0
C219 C 0.94031 0.42306 0.03809 0.0
O220 O 0.93206 0.46862 0.07406 0.0
H221 H 0.00288 0.44918 0.09173 0.0
H222 H 0.91489 0.47341 0.00567 0.0
H223 H 0.93347 0.43153 0.09524 0.0
O224 O 0.94196 0.43896 0.02347 0.0
O225 O 0.94812 0.42587 0.05563 0.0
H226 H 0.98307 0.49355 0.99004 0.0
O227 O 0.99516 0.44383 0.05004 0.0
O228 O 0.98957 0.45818 0.018 0.0
O229 O 0.97828 0.48656 0.06828 0.0
O230 O 0.97024 0.50146 0.03697 0.0
C231 C 0.00223 0.44726 0.03058 0.0
H232 H 0.90491 0.48634 0.97011 0.0
H233 H 0.97455 0.50616 0.95354 0.0
H234 H 0.00699 0.42801 0.12628 0.0
H235 H 0.9358 0.41122 0.12971 0.0
C236 C 0.04114 0.98522 0.42135 0.0
N237 N 0.05437 0.93091 0.38351 0.0
C238 C 0.03468 0.93451 0.37417 0.0
C239 C 0.03341 0.92919 0.35326 0.0
C240 C 0.05269 0.92043 0.34196 0.0
C241 C 0.07275 0.91709 0.35198 0.0
C242 C 0.07319 0.92235 0.37286 0.0
Zn243 Zn 0.05755 0.93903 0.41352 0.0
C244 C 0.10289 0.96077 0.41465 0.0
N245 N 0.06819 0.95616 0.47542 0.0
C246 C 0.05089 0.96776 0.48549 0.0
C247 C 0.08769 0.95114 0.48466 0.0
C248 C 0.09045 0.95812 0.50474 0.0
C249 C 0.07309 0.97068 0.5153 0.0
C250 C 0.05305 0.97534 0.50542 0.0
Zn251 Zn 0.06449 0.94729 0.44565 0.0
O252 O 0.04142 0.97112 0.40719 0.0
C253 C 0.01865 0.92538 0.44373 0.0
O254 O 0.04981 0.97947 0.43853 0.0
H255 H 0.1012 0.94186 0.47637 0.0
H256 H 0.01998 0.94144 0.38295 0.0
H257 H 0.03548 0.97149 0.4779 0.0
O258 O 0.02582 0.92471 0.42432 0.0
O259 O 0.03127 0.93386 0.45626 0.0
H260 H 0.08864 0.9195 0.3806 0.0
O261 O 0.07971 0.91559 0.45231 0.0
O262 O 0.07439 0.90679 0.42022 0.0
O263 O 0.09769 0.96013 0.43454 0.0
O264 O 0.08891 0.95371 0.40276 0.0
C265 C 0.08244 0.90179 0.43793 0.0
H266 H 0.01759 0.93182 0.34601 0.0
H267 H 0.08779 0.90981 0.34396 0.0
H268 H 0.10603 0.95372 0.51189 0.0
H269 H 0.03933 0.9852 0.51275 0.0
C270 C 0.9334 0.59246 0.45604 0.0
N271 N 0.99945 0.56634 0.46113 0.0
C272 C 0.00686 0.58804 0.45733 0.0
C273 C 0.02699 0.59448 0.46495 0.0
C274 C 0.03978 0.57834 0.47623 0.0
C275 C 0.03192 0.55604 0.47976 0.0
C276 C 0.01147 0.55042 0.47219 0.0
Zn277 Zn 0.9696 0.55756 0.45038 0.0
C278 C 0.93945 0.53307 0.48619 0.0
N279 N 0.9072 0.53824 0.42961 0.0
C280 C 0.89687 0.55584 0.41909 0.0
C281 C 0.89943 0.51668 0.42988 0.0
C282 C 0.88135 0.51208 0.41813 0.0
C283 C 0.8714 0.52992 0.40619 0.0
C284 C 0.87873 0.55209 0.40753 0.0
Zn285 Zn 0.93691 0.54585 0.44107 0.0
O286 O 0.95461 0.59012 0.45765 0.0
C287 C 0.96618 0.5718 0.40546 0.0
O288 O 0.92253 0.57605 0.45046 0.0
H289 H 0.90796 0.50293 0.43828 0.0
H290 H 0.99714 0.60038 0.44837 0.0
H291 H 0.90343 0.57281 0.4186 0.0
O292 O 0.98053 0.5718 0.4192 0.0
O293 O 0.94726 0.56213 0.41056 0.0
H294 H 0.00516 0.53333 0.47522 0.0
O295 O 0.95127 0.51543 0.43189 0.0
O296 O 0.98387 0.52464 0.44254 0.0
O297 O 0.9267 0.5302 0.47154 0.0
O298 O 0.95795 0.54382 0.48166 0.0
C299 C 0.97172 0.51032 0.43476 0.0
H300 H 0.03272 0.6118 0.46176 0.0
H301 H 0.04135 0.5432 0.48849 0.0
H302 H 0.87609 0.49473 0.41745 0.0
H303 H 0.87119 0.56636 0.39889 0.0
C304 C 0.42454 0.97134 0.55652 0.0
N305 N 0.45465 0.98215 0.49336 0.0
C306 C 0.43277 0.9804 0.48861 0.0
C307 C 0.4264 0.98808 0.46865 0.0
C308 C 0.44275 0.99718 0.45312 0.0
C309 C 0.46523 0.99884 0.45831 0.0
C310 C 0.4708 0.99139 0.47871 0.0
Zn311 Zn 0.46264 0.96807 0.52265 0.0
C312 C 0.48391 1.0008 0.5486 0.0
N313 N 0.47778 0.93648 0.58277 0.0
C314 C 0.46036 0.92376 0.59251 0.0
C315 C 0.4979 0.9374 0.59152 0.0
C316 C 0.50108 0.92485 0.61068 0.0
C317 C 0.48338 0.91128 0.62078 0.0
C318 C 0.46273 0.9112 0.61156 0.0
Zn319 Zn 0.47182 0.95228 0.5539 0.0
O320 O 0.4293 0.97762 0.53703 0.0
C321 C 0.44979 0.91985 0.52879 0.0
O322 O 0.43958 0.96114 0.56671 0.0
H323 H 0.51158 0.94753 0.58347 0.0
H324 H 0.42022 0.97247 0.50011 0.0
H325 H 0.44453 0.92297 0.58536 0.0
O326 O 0.4491 0.93691 0.51548 0.0
O327 O 0.45903 0.92167 0.54579 0.0
H328 H 0.48812 0.99257 0.48267 0.0
O329 O 0.5039 0.94329 0.54104 0.0
O330 O 0.49631 0.95753 0.50949 0.0
O331 O 0.48436 0.98336 0.5616 0.0
O332 O 0.476 0.99927 0.53074 0.0
C333 C 0.51007 0.94732 0.52148 0.0
H334 H 0.40897 0.98617 0.46516 0.0
H335 H 0.47832 0.00577 0.4467 0.0
H336 H 0.51734 0.92535 0.61721 0.0
H337 H 0.44842 0.90147 0.61897 0.0
C338 C 0.60227 0.53346 0.57765 0.0
N339 N 0.57595 0.53289 0.51795 0.0
C340 C 0.59785 0.53292 0.50921 0.0
C341 C 0.60317 0.52578 0.48885 0.0
C342 C 0.58575 0.51898 0.4772 0.0
C343 C 0.56336 0.5189 0.48663 0.0
C344 C 0.55884 0.52573 0.50719 0.0
Zn345 Zn 0.56832 0.54514 0.54731 0.0
C346 C 0.54084 0.51088 0.57715 0.0
N347 N 0.55108 0.57151 0.60786 0.0
C348 C 0.56975 0.58083 0.61467 0.0
C349 C 0.5303 0.57352 0.61874 0.0
C350 C 0.5278 0.5857 0.63697 0.0
C351 C 0.54686 0.59593 0.64391 0.0
C352 C 0.56807 0.59288 0.63268 0.0
Zn353 Zn 0.55689 0.55755 0.57902 0.0
O354 O 0.59938 0.5309 0.55839 0.0
C355 C 0.58535 0.59115 0.54951 0.0
O356 O 0.58715 0.54356 0.58893 0.0
H357 H 0.51559 0.56625 0.61298 0.0
H358 H 0.61121 0.53887 0.51788 0.0
H359 H 0.58612 0.57956 0.60578 0.0
O360 O 0.58623 0.57538 0.53696 0.0
O361 O 0.57384 0.58829 0.56735 0.0
H362 H 0.54157 0.52564 0.51442 0.0
O363 O 0.52636 0.57119 0.56875 0.0
O364 O 0.53717 0.56038 0.53705 0.0
O365 O 0.54056 0.52633 0.59012 0.0
O366 O 0.55055 0.5146 0.55848 0.0
C367 C 0.52257 0.57007 0.54948 0.0
H368 H 0.62063 0.52627 0.48201 0.0
H369 H 0.5495 0.51364 0.47816 0.0
H370 H 0.51108 0.5877 0.6451 0.0
H371 H 0.58333 0.59998 0.6376 0.0
C372 C 0.53732 0.48308 0.923 0.0
N373 N 0.54738 0.42901 0.88479 0.0
C374 C 0.52737 0.43229 0.87592 0.0
C375 C 0.52556 0.42654 0.8552 0.0
C376 C 0.54464 0.4177 0.84364 0.0
C377 C 0.56504 0.41481 0.85317 0.0
C378 C 0.566 0.42046 0.87384 0.0
Zn379 Zn 0.5516 0.43696 0.91461 0.0
C380 C 0.59783 0.45693 0.91436 0.0
N381 N 0.56548 0.45258 0.97591 0.0
C382 C 0.54796 0.46244 0.98738 0.0
C383 C 0.58641 0.45021 0.98314 0.0
C384 C 0.59049 0.45852 0.00239 0.0
C385 C 0.57274 0.46899 0.01436 0.0
C386 C 0.55119 0.47062 0.00685 0.0
Zn387 Zn 0.56022 0.44358 0.94654 0.0
O388 O 0.53537 0.469 0.90915 0.0
C389 C 0.51341 0.42323 0.9458 0.0
O390 O 0.54704 0.47676 0.93952 0.0
H391 H 0.60007 0.44227 0.97378 0.0
H392 H 0.51283 0.43918 0.88495 0.0
H393 H 0.53155 0.46448 0.98119 0.0
O394 O 0.52003 0.42253 0.92627 0.0
O395 O 0.52658 0.43146 0.958 0.0
H396 H 0.58171 0.41781 0.88119 0.0
O397 O 0.57402 0.41101 0.95317 0.0
O398 O 0.56889 0.40486 0.92036 0.0
O399 O 0.5938 0.45487 0.9344 0.0
O400 O 0.5826 0.45173 0.90288 0.0
C401 C 0.57668 0.3983 0.93788 0.0
H402 H 0.5095 0.42883 0.84834 0.0
H403 H 0.57995 0.40748 0.84498 0.0
H404 H 0.6073 0.45683 0.00788 0.0
H405 H 0.53718 0.47875 0.01565 0.0
C406 C 0.4327 0.10146 0.94534 0.0
N407 N 0.49661 0.07147 0.95148 0.0
C408 C 0.50586 0.09175 0.94409 0.0
C409 C 0.52626 0.09851 0.95098 0.0
C410 C 0.53729 0.0843 0.96567 0.0
C411 C 0.52758 0.06324 0.97268 0.0
C412 C 0.50713 0.05714 0.96536 0.0
Zn413 Zn 0.4655 0.06343 0.94274 0.0
C414 C 0.43525 0.04366 0.98036 0.0
N415 N 0.4004 0.04661 0.92554 0.0
C416 C 0.39055 0.0637 0.91392 0.0
C417 C 0.38969 0.0265 0.93075 0.0
C418 C 0.36829 0.02297 0.92386 0.0
C419 C 0.35785 0.04053 0.912 0.0
C420 C 0.36915 0.06111 0.9072 0.0
Zn421 Zn 0.43173 0.05317 0.93434 0.0
O422 O 0.45332 0.0972 0.94839 0.0
C423 C 0.46092 0.07423 0.8968 0.0
O424 O 0.42038 0.08584 0.94029 0.0
H425 H 0.39787 0.01314 0.93998 0.0
H426 H 0.49722 0.10289 0.93307 0.0
H427 H 0.39943 0.07938 0.90948 0.0
O428 O 0.47538 0.07508 0.91038 0.0
O429 O 0.44179 0.06522 0.90256 0.0
H430 H 0.49943 0.04113 0.97108 0.0
O431 O 0.44338 0.02051 0.92822 0.0
O432 O 0.4772 0.02928 0.93659 0.0
O433 O 0.42172 0.04154 0.96621 0.0
O434 O 0.45468 0.05233 0.97503 0.0
C435 C 0.46383 0.01477 0.93068 0.0
H436 H 0.53331 0.11472 0.94487 0.0
H437 H 0.53538 0.05185 0.98415 0.0
H438 H 0.36008 0.00676 0.92758 0.0
H439 H 0.36191 0.07481 0.89758 0.0
H440 H 0.02445 0.19796 0.39862 0.0
H441 H 0.02821 0.15761 0.40907 0.0
H442 H 0.95942 0.14698 0.39493 0.0
H443 H 0.95534 0.18752 0.38482 0.0
H444 H 0.97208 0.11768 0.42879 0.0
H445 H 0.99966 0.13996 0.35672 0.0
H446 H 0.0215 0.16533 0.33018 0.0
H447 H 0.08305 0.1462 0.35814 0.0
H448 H 0.06149 0.12073 0.38505 0.0
H449 H 0.02602 0.00589 0.38493 0.0
H450 H 0.01205 0.045 0.37943 0.0
H451 H 0.02102 0.05592 0.44448 0.0
H452 H 0.03471 0.01707 0.45016 0.0
H453 H 0.03394 0.08411 0.38248 0.0
H454 H 0.98094 0.09266 0.4632 0.0
H455 H 0.95746 0.06848 0.48968 0.0
H456 H 0.94325 0.0249 0.4416 0.0
H457 H 0.96634 0.04899 0.41478 0.0
C458 C 0.00987 0.18719 0.39832 0.0
C459 C 0.9897 0.1959 0.39061 0.0
C460 C 0.01207 0.1641 0.40425 0.0
C461 C 0.99427 0.14923 0.40228 0.0
C462 C 0.9734 0.15815 0.39646 0.0
C463 C 0.9711 0.18135 0.3907 0.0
C464 C 0.99852 0.12437 0.40363 0.0
C465 C 0.98558 0.11029 0.41872 0.0
C466 C 0.01568 0.11466 0.39 0.0
C467 C 0.02894 0.12862 0.373 0.0
C468 C 0.01785 0.14119 0.35723 0.0
C469 C 0.03015 0.15569 0.3422 0.0
C470 C 0.0536 0.15769 0.34265 0.0
C471 C 0.06485 0.1448 0.35792 0.0
C472 C 0.05261 0.13026 0.37304 0.0
C473 C 0.02479 0.01657 0.3981 0.0
C474 C 0.03149 0.00836 0.41797 0.0
C475 C 0.01688 0.03892 0.39492 0.0
C476 C 0.0153 0.05333 0.41159 0.0
C477 C 0.02175 0.04504 0.43147 0.0
C478 C 0.0297 0.02281 0.43464 0.0
C479 C 0.00795 0.07735 0.40814 0.0
C480 C 0.02032 0.09135 0.39254 0.0
C481 C 0.98999 0.08683 0.42108 0.0
C482 C 0.97554 0.07257 0.43701 0.0
C483 C 0.97268 0.07801 0.45825 0.0
C484 C 0.95946 0.06429 0.47333 0.0
C485 C 0.94892 0.04513 0.46734 0.0
C486 C 0.95148 0.0397 0.44624 0.0
C487 C 0.96465 0.05337 0.43109 0.0
H488 H 0.93875 0.0345 0.47904 0.0
H489 H 0.06307 0.16897 0.33098 0.0
H490 H 0.97876 0.30801 0.39279 0.0
H491 H 0.97766 0.34638 0.40428 0.0
H492 H 0.05056 0.34992 0.39376 0.0
H493 H 0.05191 0.31133 0.38185 0.0
H494 H 0.02715 0.37097 0.43313 0.0
H495 H 0.02795 0.3726 0.35685 0.0
H496 H 0.01539 0.36081 0.32341 0.0
H497 H 0.94733 0.38257 0.34188 0.0
H498 H 0.95941 0.39418 0.37557 0.0
H499 H 0.01547 0.49307 0.43548 0.0
H500 H 0.02888 0.45513 0.4264 0.0
H501 H 0.96093 0.43832 0.4138 0.0
H502 H 0.94771 0.47585 0.42221 0.0
H503 H 0.98924 0.42503 0.38369 0.0
H504 H 0.98538 0.41909 0.46026 0.0
H505 H 0.99505 0.42959 0.49516 0.0
H506 H 0.06542 0.41506 0.47803 0.0
H507 H 0.05617 0.40473 0.44291 0.0
C508 C 0.99468 0.31666 0.39328 0.0
C509 C 0.01543 0.30659 0.38618 0.0
C510 C 0.99398 0.33865 0.39986 0.0
C511 C 0.01399 0.35104 0.39965 0.0
C512 C 0.03492 0.34059 0.39402 0.0
C513 C 0.03565 0.31855 0.38723 0.0
C514 C 0.01245 0.3755 0.40332 0.0
C515 C 0.01931 0.38297 0.42216 0.0
C516 C 1.00184 0.39098 0.38915 0.0
C517 C 0.99457 0.38412 0.36881 0.0
C518 C 0.01027 0.37469 0.35387 0.0
C519 C 0.00324 0.36807 0.33485 0.0
C520 C 0.98057 0.3709 0.33054 0.0
C521 C 0.96488 0.38038 0.34524 0.0
C522 C 0.97182 0.38701 0.36428 0.0
C523 C 0.00346 0.48125 0.43072 0.0
C524 C 0.98054 0.48758 0.4295 0.0
C525 C 0.01111 0.45954 0.42564 0.0
C526 C 0.9959 0.44376 0.41946 0.0
C527 C 0.97307 0.45015 0.41835 0.0
C528 C 0.96551 0.47171 0.42324 0.0
C529 C 0.00329 0.42058 0.4139 0.0
C530 C 0.99752 0.41327 0.39457 0.0
C531 C 0.01457 0.40525 0.42779 0.0
C532 C 0.02013 0.41143 0.44888 0.0
C533 C 0.00294 0.41832 0.46388 0.0
C534 C 0.00833 0.4242 0.48371 0.0
C535 C 0.03084 0.42307 0.48878 0.0
C536 C 0.04799 0.41598 0.47406 0.0
C537 C 0.04269 0.4101 0.4542 0.0
H538 H 0.03499 0.42763 0.50415 0.0
H539 H 0.97515 0.36584 0.3158 0.0
H540 H 0.02766 0.79209 0.12015 0.0
H541 H 0.03151 0.83097 0.10459 0.0
H542 H 0.97557 0.85186 0.14743 0.0
H543 H 0.97079 0.81259 0.16212 0.0
H544 H 0.97378 0.87641 0.11331 0.0
H545 H 0.03583 0.85914 0.1559 0.0
H546 H 0.0684 0.83657 0.16801 0.0
H547 H 0.10355 0.84669 0.10596 0.0
H548 H 0.07096 0.86881 0.09341 0.0
H549 H 0.01088 0.9929 0.10904 0.0
H550 H 1.00084 0.9535 0.12043 0.0
H551 H 0.04325 0.93057 0.06731 0.0
H552 H 0.05306 0.96979 0.05563 0.0
H553 H 0.05151 0.90788 0.10688 0.0
H554 H 0.98847 0.92831 0.06598 0.0
H555 H 0.95555 0.95163 0.05616 0.0
H556 H 0.92239 0.93772 0.11865 0.0
H557 H 0.95527 0.91457 0.12894 0.0
C558 C 0.01589 0.80489 0.12599 0.0
C559 C 0.99902 0.79923 0.14249 0.0
C560 C 0.01829 0.82726 0.11725 0.0
C561 C 0.00443 0.84475 0.12531 0.0
C562 C 0.98668 0.83887 0.14096 0.0
C563 C 0.9839 0.81634 0.14936 0.0
C564 C 0.00892 0.86909 0.1179 0.0
C565 C 0.99077 0.88328 0.11221 0.0
C566 C 0.03109 0.87834 0.11616 0.0
C567 C 0.05083 0.8653 0.12368 0.0
C568 C 0.05041 0.85629 0.14483 0.0
C569 C 0.06887 0.84364 0.15177 0.0
C570 C 0.08798 0.84015 0.13775 0.0
C571 C 0.0887 0.84936 0.11679 0.0
C572 C 0.07024 0.86194 0.10975 0.0
C573 C 0.01786 0.9795 0.09964 0.0
C574 C 0.03277 0.98458 0.08139 0.0
C575 C 0.01208 0.95697 0.10616 0.0
C576 C 0.02128 0.93904 0.09472 0.0
C577 C 0.03594 0.94409 0.0764 0.0
C578 C 0.04146 0.96658 0.0697 0.0
C579 C 0.01644 0.91496 0.10227 0.0
C580 C 0.03456 0.90091 0.10803 0.0
C581 C 0.99423 0.90604 0.10447 0.0
C582 C 0.97444 0.9199 0.09829 0.0
C583 C 0.97425 0.93039 0.07769 0.0
C584 C 0.95557 0.94354 0.07203 0.0
C585 C 0.93691 0.94621 0.08679 0.0
C586 C 0.93687 0.93567 0.10724 0.0
C587 C 0.95551 0.92252 0.11299 0.0
H588 H 0.92247 0.95639 0.08238 0.0
H589 H 0.10226 0.83037 0.14315 0.0
H590 H 0.05153 0.69127 0.11861 0.0
H591 H 0.04728 0.65941 0.09701 0.0
H592 H 0.97709 0.65323 0.12181 0.0
H593 H 0.98103 0.68554 0.14281 0.0
H594 H 0.03963 0.61784 0.10814 0.0
H595 H 0.94544 0.62983 0.08865 0.0
H596 H 0.91888 0.66109 0.08012 0.0
H597 H 0.97496 0.70424 0.05769 0.0
H598 H 1.00185 0.67316 0.0658 0.0
H599 H 0.99058 0.51448 0.09291 0.0
H600 H 1.0007 0.55151 0.10309 0.0
H601 H 0.99468 0.58009 0.03929 0.0
H602 H 0.98373 0.54296 0.02907 0.0
H603 H 0.97478 0.60697 0.06573 0.0
H604 H 0.04743 0.5719 0.05953 0.0
H605 H 0.07635 0.54197 0.06471 0.0
H606 H 0.06806 0.54784 0.13191 0.0
H607 H 0.03884 0.57758 0.12718 0.0
C608 C 0.0351 0.68333 0.11922 0.0
C609 C 0.0166 0.69097 0.13241 0.0
C610 C 0.0327 0.66506 0.10689 0.0
C611 C 0.01181 0.65396 0.10758 0.0
C612 C 0.99325 0.66178 0.12057 0.0
C613 C 0.99556 0.68022 0.13268 0.0
C614 C 0.00978 0.63332 0.0959 0.0
C615 C 0.02553 0.61556 0.09874 0.0
C616 C 0.99174 0.63046 0.08314 0.0
C617 C 0.97566 0.64919 0.07799 0.0
C618 C 0.9521 0.64595 0.0818 0.0
C619 C 0.93699 0.66365 0.07706 0.0
C620 C 0.94523 0.68465 0.06842 0.0
C621 C 0.9686 0.68798 0.06445 0.0
C622 C 0.98379 0.67034 0.06914 0.0
C623 C 0.99162 0.52854 0.08092 0.0
C624 C 0.98638 0.52572 0.06014 0.0
C625 C 0.99754 0.54975 0.08677 0.0
C626 C 0.9988 0.5686 0.0719 0.0
C627 C 0.99387 0.56581 0.05103 0.0
C628 C 0.98771 0.54456 0.0452 0.0
C629 C 0.0042 0.5913 0.07859 0.0
C630 C 0.98906 0.60941 0.07487 0.0
C631 C 0.02317 0.59472 0.09004 0.0
C632 C 0.04084 0.5769 0.09299 0.0
C633 C 0.05166 0.56672 0.07543 0.0
C634 C 0.06813 0.54979 0.07829 0.0
C635 C 0.07401 0.54299 0.09863 0.0
C636 C 0.06348 0.55313 0.11616 0.0
C637 C 0.04699 0.57005 0.11339 0.0
H638 H 0.08676 0.52988 0.10081 0.0
H639 H 0.9335 0.69834 0.06478 0.0
H640 H 0.37587 0.03074 0.18044 0.0
H641 H 0.39384 0.03556 0.14428 0.0
H642 H 0.36373 0.97335 0.12972 0.0
H643 H 0.34652 0.96796 0.16632 0.0
H644 H 0.40318 0.97719 0.1083 0.0
H645 H 0.33939 0.02629 0.11741 0.0
H646 H 0.31462 0.05508 0.1341 0.0
H647 H 0.36758 0.10426 0.12112 0.0
H648 H 0.39281 0.07564 0.10464 0.0
H649 H 0.40206 0.01371 0.99614 0.0
H650 H 0.38955 0.0033 0.03346 0.0
H651 H 0.43919 0.04807 0.05282 0.0
H652 H 0.45227 0.05808 0.01559 0.0
H653 H 0.38923 0.05217 0.07091 0.0
H654 H 0.45234 0.9991 0.06058 0.0
H655 H 0.47316 0.96882 0.04215 0.0
H656 H 0.41531 0.92545 0.05501 0.0
H657 H 0.39402 0.95563 0.07324 0.0
C658 C 0.37347 0.01784 0.16966 0.0
C659 C 0.35967 0.99904 0.17619 0.0
C660 C 0.38359 0.0207 0.14891 0.0
C661 C 0.3796 0.0052 0.13399 0.0
C662 C 0.36696 0.98566 0.14083 0.0
C663 C 0.35717 0.98255 0.16179 0.0
C664 C 0.38755 0.01014 0.11113 0.0
C665 C 0.39991 0.99352 0.10013 0.0
C666 C 0.38324 0.0314 0.10024 0.0
C667 C 0.36808 0.04875 0.10997 0.0
C668 C 0.34582 0.0432 0.11824 0.0
C669 C 0.33168 0.05949 0.12765 0.0
C670 C 0.33954 0.08147 0.12871 0.0
C671 C 0.36153 0.08721 0.12031 0.0
C672 C 0.37575 0.07097 0.11092 0.0
C673 C 0.41042 0.02122 0.00835 0.0
C674 C 0.42817 0.03672 0.00291 0.0
C675 C 0.40328 0.01523 0.02964 0.0
C676 C 0.41346 0.02491 0.04586 0.0
C677 C 0.43115 0.04039 0.04051 0.0
C678 C 0.43864 0.04602 0.01924 0.0
C679 C 0.40518 0.01945 0.06841 0.0
C680 C 0.39256 0.03593 0.07923 0.0
C681 C 0.40866 0.99788 0.07889 0.0
C682 C 0.42151 0.97971 0.06806 0.0
C683 C 0.44398 0.98319 0.05929 0.0
C684 C 0.45588 0.96603 0.04893 0.0
C685 C 0.44554 0.94525 0.04735 0.0
C686 C 0.42329 0.94156 0.05621 0.0
C687 C 0.41131 0.95869 0.06657 0.0
H688 H 0.45478 0.93198 0.03932 0.0
H689 H 0.32858 0.09406 0.136 0.0
H690 H 0.61409 0.50283 0.20237 0.0
H691 H 0.59267 0.49989 0.17157 0.0
H692 H 0.63674 0.54893 0.13552 0.0
H693 H 0.65743 0.5528 0.16675 0.0
H694 H 0.59557 0.55043 0.12068 0.0
H695 H 0.65108 0.49369 0.13709 0.0
H696 H 0.66978 0.46487 0.1599 0.0
H697 H 0.6091 0.42515 0.16742 0.0
H698 H 0.5899 0.45397 0.14492 0.0
H699 H 0.60574 0.4984 0.02099 0.0
H700 H 0.61291 0.51371 0.05456 0.0
H701 H 0.5562 0.4762 0.08633 0.0
H702 H 0.5487 0.46115 0.05271 0.0
H703 H 0.60095 0.46991 0.10357 0.0
H704 H 0.54812 0.52814 0.08132 0.0
H705 H 0.53385 0.55764 0.05619 0.0
H706 H 0.5955 0.59491 0.05617 0.0
H707 H 0.6103 0.56544 0.08106 0.0
C708 C 0.61857 0.51362 0.1881 0.0
C709 C 0.63746 0.52782 0.1867 0.0
C710 C 0.60642 0.5119 0.17053 0.0
C711 C 0.61361 0.52366 0.15112 0.0
C712 C 0.63102 0.53961 0.15033 0.0
C713 C 0.64283 0.5418 0.16814 0.0
C714 C 0.60561 0.51658 0.13126 0.0
C715 C 0.59678 0.53286 0.1169 0.0
C716 C 0.6074 0.49364 0.12625 0.0
C717 C 0.61898 0.47609 0.13952 0.0
C718 C 0.64168 0.47887 0.14371 0.0
C719 C 0.65237 0.46254 0.15658 0.0
C720 C 0.64061 0.44321 0.16514 0.0
C721 C 0.61816 0.44015 0.1608 0.0
C722 C 0.60737 0.45648 0.148 0.0
C723 C 0.59478 0.49355 0.03515 0.0
C724 C 0.57677 0.47855 0.03442 0.0
C725 C 0.59875 0.50242 0.05419 0.0
C726 C 0.58494 0.49617 0.07275 0.0
C727 C 0.56687 0.4813 0.07205 0.0
C728 C 0.56264 0.47274 0.05294 0.0
C729 C 0.59058 0.50366 0.0932 0.0
C730 C 0.59932 0.48742 0.10755 0.0
C731 C 0.58933 0.52667 0.09779 0.0
C732 C 0.5804 0.54447 0.08291 0.0
C733 C 0.55873 0.54252 0.07581 0.0
C734 C 0.55052 0.55926 0.06164 0.0
C735 C 0.56378 0.57811 0.05455 0.0
C736 C 0.58526 0.58028 0.06166 0.0
C737 C 0.59355 0.56358 0.07582 0.0
H738 H 0.5574 0.59105 0.04357 0.0
H739 H 0.64891 0.43058 0.1751 0.0
H740 H 0.37973 0.99789 0.26443 0.0
H741 H 0.40017 0.99611 0.29625 0.0
H742 H 0.3627 0.05468 0.31735 0.0
H743 H 0.34306 0.0572 0.2849 0.0
H744 H 0.40279 0.05641 0.32966 0.0
H745 H 0.34726 0.99844 0.33489 0.0
H746 H 0.32702 0.96585 0.32386 0.0
H747 H 0.38788 0.92534 0.32537 0.0
H748 H 0.40859 0.95782 0.3361 0.0
H749 H 0.40807 0.02525 0.44176 0.0
H750 H 0.39526 0.03333 0.40623 0.0
H751 H 0.44934 0.99117 0.3802 0.0
H752 H 0.46254 0.98347 0.41565 0.0
H753 H 0.4019 0.98154 0.3706 0.0
H754 H 0.45582 0.04244 0.36822 0.0
H755 H 0.47225 0.07586 0.3818 0.0
H756 H 0.40873 0.11163 0.37846 0.0
H757 H 0.39182 0.07828 0.36515 0.0
C758 C 0.37618 0.01065 0.27567 0.0
C759 C 0.3597 0.0276 0.27223 0.0
C760 C 0.38774 0.00952 0.29397 0.0
C761 C 0.38253 0.02483 0.30962 0.0
C762 C 0.36697 0.04256 0.30565 0.0
C763 C 0.35576 0.04401 0.28706 0.0
C764 C 0.39237 0.02158 0.3305 0.0
C765 C 0.40238 0.04006 0.33864 0.0
C766 C 0.39196 1.00027 0.3424 0.0
C767 C 0.37954 0.98064 0.33609 0.0
C768 C 0.35637 0.98263 0.33273 0.0
C769 C 0.34481 0.96418 0.32655 0.0
C770 C 0.35618 0.94356 0.32387 0.0
C771 C 0.37911 0.94134 0.32742 0.0
C772 C 0.39077 0.95976 0.33356 0.0
C773 C 0.41739 0.01798 0.42839 0.0
C774 C 0.43633 0.0038 0.43141 0.0
C775 C 0.41009 0.02262 0.40814 0.0
C776 C 0.42137 0.01286 0.39061 0.0
C777 C 0.44045 0.99891 0.39353 0.0
C778 C 0.44804 0.99463 0.41373 0.0
C779 C 0.41245 0.01623 0.36947 0.0
C780 C 0.40244 0.99779 0.36143 0.0
C781 C 0.4123 0.03767 0.35802 0.0
C782 C 0.4225 0.05778 0.36588 0.0
C783 C 0.4453 0.05735 0.37057 0.0
C784 C 0.45471 0.07631 0.37817 0.0
C785 C 0.44153 0.09584 0.38104 0.0
C786 C 0.41892 0.09648 0.37625 0.0
C787 C 0.40942 0.07757 0.36865 0.0
H788 H 0.44885 0.11049 0.38694 0.0
H789 H 0.3472 0.92929 0.31908 0.0
H790 H 0.62452 0.5192 0.2764 0.0
H791 H 0.60995 0.52053 0.31347 0.0
H792 H 0.64318 0.45667 0.32873 0.0
H793 H 0.65723 0.45491 0.29136 0.0
H794 H 0.60457 0.45976 0.35348 0.0
H795 H 0.66909 0.50621 0.33549 0.0
H796 H 0.69314 0.53518 0.31489 0.0
H797 H 0.64246 0.58617 0.32828 0.0
H798 H 0.61799 0.55747 0.34883 0.0
H799 H 0.61733 0.48855 0.462 0.0
H800 H 0.62643 0.47975 0.42494 0.0
H801 H 0.57532 0.5277 0.40537 0.0
H802 H 0.56576 0.5361 0.44237 0.0
H803 H 0.62448 0.5309 0.38382 0.0
H804 H 0.56044 0.48039 0.40297 0.0
H805 H 0.54037 0.44967 0.42513 0.0
H806 H 0.59612 0.40409 0.41134 0.0
H807 H 0.61668 0.43468 0.38934 0.0
C808 C 0.62821 0.50513 0.28754 0.0
C809 C 0.64213 0.48702 0.281 0.0
C810 C 0.62003 0.506 0.30877 0.0
C811 C 0.62603 0.48904 0.32402 0.0
C812 C 0.63846 0.47004 0.31729 0.0
C813 C 0.6464 0.469 0.29591 0.0
C814 C 0.62081 0.49219 0.34699 0.0
C815 C 0.60913 0.47523 0.36012 0.0
C816 C 0.62693 0.51227 0.35582 0.0
C817 C 0.64161 0.52964 0.34354 0.0
C818 C 0.663 0.52357 0.33392 0.0
C819 C 0.67672 0.53994 0.32227 0.0
C820 C 0.6693 0.56247 0.32021 0.0
C821 C 0.64817 0.5687 0.32987 0.0
C822 C 0.63438 0.5524 0.34155 0.0
C823 C 0.60796 0.49706 0.44977 0.0
C824 C 0.59081 0.51295 0.45501 0.0
C825 C 0.61311 0.49199 0.42869 0.0
C826 C 0.60148 0.50305 0.4125 0.0
C827 C 0.5844 0.51894 0.41768 0.0
C828 C 0.57891 0.52365 0.43878 0.0
C829 C 0.60775 0.4988 0.39003 0.0
C830 C 0.61987 0.51551 0.37708 0.0
C831 C 0.6026 0.47827 0.38158 0.0
C832 C 0.59021 0.45989 0.39473 0.0
C833 C 0.56853 0.46389 0.40485 0.0
C834 C 0.55704 0.44648 0.41733 0.0
C835 C 0.56699 0.42496 0.4197 0.0
C836 C 0.58844 0.42078 0.40952 0.0
C837 C 0.60001 0.43814 0.39704 0.0
H838 H 0.55807 0.4115 0.42936 0.0
H839 H 0.67994 0.57512 0.31117 0.0
H840 H 0.19753 0.35603 0.02037 0.0
H841 H 0.16059 0.37488 0.02423 0.0
H842 H 0.15935 0.38208 0.95633 0.0
H843 H 0.19656 0.363 0.95224 0.0
H844 H 0.14298 0.42142 0.97755 0.0
H845 H 0.13014 0.34152 0.98087 0.0
H846 H 0.13618 0.30155 0.99325 0.0
H847 H 0.11419 0.31646 0.057 0.0
H848 H 0.10837 0.35662 0.04506 0.0
H849 H 0.0229 0.44829 0.98974 0.0
H850 H 0.06006 0.43209 0.97808 0.0
H851 H 0.07003 0.40991 0.04287 0.0
H852 H 0.03313 0.42558 0.05449 0.0
H853 H 0.08111 0.37695 0.01837 0.0
H854 H 0.09728 0.45679 0.01626 0.0
H855 H 0.09252 0.49725 0.00493 0.0
H856 H 0.10874 0.48296 0.94001 0.0
H857 H 0.1133 0.44234 0.95095 0.0
C858 C 0.18962 0.36181 0.00618 0.0
C859 C 0.20003 0.35783 0.98597 0.0
C860 C 0.16841 0.37255 0.00844 0.0
C861 C 0.15706 0.37965 0.99059 0.0
C862 C 0.16779 0.37669 0.97033 0.0
C863 C 0.18904 0.36575 0.96803 0.0
C864 C 0.13357 0.38908 0.99341 0.0
C865 C 0.12931 0.41161 0.98612 0.0
C866 C 0.11582 0.37636 0.00487 0.0
C867 C 0.11898 0.35213 0.01208 0.0
C868 C 0.12674 0.33632 0.99755 0.0
C869 C 0.13011 0.31362 0.00449 0.0
C870 C 0.12562 0.30647 0.0259 0.0
C871 C 0.11768 0.32202 0.04042 0.0
C872 C 0.11432 0.34475 0.03357 0.0
C873 C 0.03306 0.44001 1.00148 0.0
C874 C 0.02494 0.43823 0.02305 0.0
C875 C 0.05435 0.43081 0.9948 0.0
C876 C 0.06797 0.41981 0.0096 0.0
C877 C 0.05987 0.41818 0.0311 0.0
C878 C 0.03871 0.42726 0.03774 0.0
C879 C 0.09052 0.40958 0.003 0.0
C880 C 0.09463 0.38678 0.00955 0.0
C881 C 0.1081 0.42211 0.99098 0.0
C882 C 0.10535 0.4465 0.98439 0.0
C883 C 0.09963 0.46225 0.99955 0.0
C884 C 0.09701 0.48522 0.99321 0.0
C885 C 0.10025 0.49266 0.97176 0.0
C886 C 0.10618 0.47716 0.95662 0.0
C887 C 0.1088 0.45417 0.96288 0.0
H888 H 0.09822 0.51045 0.96688 0.0
H889 H 0.12825 0.2889 0.03124 0.0
H890 H 0.24189 0.64128 0.49051 0.0
H891 H 0.20724 0.62048 0.48744 0.0
H892 H 0.17585 0.64891 0.54359 0.0
H893 H 0.21078 0.66941 0.54706 0.0
H894 H 0.16084 0.60656 0.541 0.0
H895 H 0.16748 0.67467 0.49625 0.0
H896 H 0.18525 0.70297 0.46963 0.0
H897 H 0.18928 0.65407 0.42286 0.0
H898 H 0.17163 0.62538 0.44926 0.0
H899 H 0.04725 0.61342 0.50001 0.0
H900 H 0.08371 0.62509 0.51122 0.0
H901 H 0.11748 0.56987 0.48026 0.0
H902 H 0.08101 0.55775 0.46947 0.0
H903 H 0.13034 0.62539 0.47144 0.0
H904 H 0.12215 0.557 0.52089 0.0
H905 H 0.10034 0.53333 0.54902 0.0
H906 H 0.09508 0.58913 0.58868 0.0
H907 H 0.11657 0.61323 0.56061 0.0
C908 C 0.22782 0.64264 0.50253 0.0
C909 C 0.22891 0.6572 0.51886 0.0
C910 C 0.20801 0.63083 0.5007 0.0
C911 C 0.1888 0.63366 0.51495 0.0
C912 C 0.19045 0.64662 0.53234 0.0
C913 C 0.21043 0.65829 0.53433 0.0
C914 C 0.16656 0.62496 0.51041 0.0
C915 C 0.15417 0.61072 0.52582 0.0
C916 C 0.15764 0.63069 0.49071 0.0
C917 C 0.16846 0.6478 0.4748 0.0
C918 C 0.17234 0.66988 0.48034 0.0
C919 C 0.18236 0.68601 0.46529 0.0
C920 C 0.1885 0.6803 0.4446 0.0
C921 C 0.18456 0.65846 0.43891 0.0
C922 C 0.17451 0.64226 0.4539 0.0
C923 C 0.06245 0.60367 0.49581 0.0
C924 C 0.06144 0.58471 0.48392 0.0
C925 C 0.08314 0.61027 0.50228 0.0
C926 C 0.10308 0.59817 0.49669 0.0
C927 C 0.10213 0.57919 0.4849 0.0
C928 C 0.08139 0.57231 0.47878 0.0
C929 C 0.12516 0.60647 0.50171 0.0
C930 C 0.13728 0.62097 0.48647 0.0
C931 C 0.13346 0.60148 0.5217 0.0
C932 C 0.12068 0.58698 0.53857 0.0
C933 C 0.1161 0.56429 0.53551 0.0
C934 C 0.10387 0.55078 0.55146 0.0
C935 C 0.09626 0.55974 0.5706 0.0
C936 C 0.10094 0.58222 0.57384 0.0
C937 C 0.11316 0.5958 0.55792 0.0
H938 H 0.08679 0.54926 0.58293 0.0
H939 H 0.19623 0.69283 0.43297 0.0
H940 H 0.81357 0.86126 0.46049 0.0
H941 H 0.85147 0.87732 0.45485 0.0
H942 H 0.85825 0.86887 0.52194 0.0
H943 H 0.82009 0.85248 0.52786 0.0
H944 H 0.87702 0.91201 0.49851 0.0
H945 H 0.88263 0.82999 0.49737 0.0
H946 H 0.87024 0.79355 0.48611 0.0
H947 H 0.88508 0.81742 0.42087 0.0
H948 H 0.89773 0.85394 0.43179 0.0
H949 H 0.99798 0.92268 0.48439 0.0
H950 H 0.95942 0.90996 0.49632 0.0
H951 H 0.94821 0.89739 0.43211 0.0
H952 H 0.98674 0.90951 0.4202 0.0
H953 H 0.9317 0.864 0.45736 0.0
H954 H 0.92616 0.94494 0.45653 0.0
H955 H 0.93612 0.98312 0.46554 0.0
H956 H 0.9189 0.96411 0.53153 0.0
H957 H 0.90912 0.9257 0.52294 0.0
C958 C 0.82285 0.86315 0.47418 0.0
C959 C 0.81377 0.85536 0.49465 0.0
C960 C 0.84457 0.87235 0.47088 0.0
C961 C 0.85776 0.87407 0.48793 0.0
C962 C 0.84833 0.86768 0.50857 0.0
C963 C 0.82651 0.85831 0.5119 0.0
C964 C 0.88201 0.88059 0.48371 0.0
C965 C 0.88916 0.90138 0.48988 0.0
C966 C 0.89762 0.86698 0.47196 0.0
C967 C 0.89102 0.84469 0.46538 0.0
C968 C 0.88327 0.82743 0.48062 0.0
C969 C 0.87622 0.80676 0.4743 0.0
C970 C 0.87681 0.80317 0.45278 0.0
C971 C 0.88469 0.82018 0.43754 0.0
C972 C 0.8919 0.84083 0.44378 0.0
C973 C 0.98733 0.91712 0.47283 0.0
C974 C 0.99551 0.91713 0.45133 0.0
C975 C 0.9652 0.90997 0.47966 0.0
C976 C 0.95071 0.90293 0.4651 0.0
C977 C 0.95899 0.90269 0.44369 0.0
C978 C 0.98108 0.90969 0.43689 0.0
C979 C 0.92696 0.89566 0.472 0.0
C980 C 0.91981 0.87464 0.46626 0.0
C981 C 0.91133 0.90928 0.48389 0.0
C982 C 0.91716 0.93236 0.48911 0.0
C983 C 0.92467 0.94884 0.47298 0.0
C984 C 0.93025 0.97054 0.478 0.0
C985 C 0.92821 0.97602 0.4991 0.0
C986 C 0.92052 0.95983 0.5152 0.0
C987 C 0.91494 0.9381 0.51027 0.0
H988 H 0.93254 0.99282 0.50296 0.0
H989 H 0.87117 0.78724 0.44791 0.0
H990 H 0.34512 0.66307 0.46529 0.0
H991 H 0.38135 0.64362 0.47105 0.0
H992 H 0.36912 0.65068 0.53817 0.0
H993 H 0.3332 0.6699 0.53265 0.0
H994 H 0.41191 0.6638 0.52271 0.0
H995 H 0.36229 0.60043 0.51842 0.0
H996 H 0.33568 0.5778 0.50118 0.0
H997 H 0.38614 0.56975 0.44922 0.0
H998 H 0.41297 0.59261 0.46604 0.0
H999 H 0.48769 0.59027 0.57248 0.0
H1000 H 0.45363 0.60836 0.55982 0.0
H1001 H 0.47539 0.5918 0.49616 0.0
H1002 H 0.50956 0.5732 0.50883 0.0
H1003 H 0.43024 0.58493 0.50504 0.0
H1004 H 0.48102 0.64537 0.51037 0.0
H1005 H 0.50792 0.66799 0.52726 0.0
H1006 H 0.45584 0.68236 0.57614 0.0
H1007 H 0.42869 0.65952 0.55972 0.0
C1008 C 0.3501 0.66034 0.48128 0.0
C1009 C 0.33618 0.66805 0.49849 0.0
C1010 C 0.3708 0.64919 0.48455 0.0
C1011 C 0.37796 0.64567 0.50507 0.0
C1012 C 0.36402 0.65326 0.52221 0.0
C1013 C 0.34337 0.66419 0.51899 0.0
C1014 C 0.40012 0.63452 0.50896 0.0
C1015 C 0.41584 0.6465 0.51898 0.0
C1016 C 0.40562 0.61222 0.50345 0.0
C1017 C 0.38953 0.59846 0.49336 0.0
C1018 C 0.36764 0.59401 0.50323 0.0
C1019 C 0.35254 0.5811 0.49355 0.0
C1020 C 0.35919 0.5724 0.47408 0.0
C1021 C 0.381 0.57654 0.46428 0.0
C1022 C 0.39616 0.58946 0.47388 0.0
C1023 C 0.48529 0.59039 0.55578 0.0
C1024 C 0.50151 0.5804 0.54165 0.0
C1025 C 0.4658 0.60085 0.54854 0.0
C1026 C 0.46209 0.60182 0.52696 0.0
C1027 C 0.47792 0.59137 0.51286 0.0
C1028 C 0.49748 0.5808 0.52012 0.0
C1029 C 0.44176 0.61402 0.51933 0.0
C1030 C 0.42644 0.60232 0.50856 0.0
C1031 C 0.43664 0.63667 0.52403 0.0
C1032 C 0.45286 0.65058 0.53389 0.0
C1033 C 0.47534 0.65322 0.5248 0.0
C1034 C 0.49063 0.6661 0.53428 0.0
C1035 C 0.4836 0.67657 0.55278 0.0
C1036 C 0.46126 0.67422 0.56181 0.0
C1037 C 0.4459 0.66133 0.55241 0.0
H1038 H 0.49547 0.68653 0.5601 0.0
H1039 H 0.34747 0.56241 0.46662 0.0
H1040 H 0.4619 0.68576 0.87514 0.0
H1041 H 0.46681 0.64556 0.88544 0.0
H1042 H 0.53031 0.65957 0.91013 0.0
H1043 H 0.52592 0.69973 0.89898 0.0
H1044 H 0.53693 0.627 0.88619 0.0
H1045 H 0.48014 0.64124 0.94231 0.0
H1046 H 0.44352 0.65501 0.95853 0.0
H1047 H 0.40792 0.60996 0.92352 0.0
H1048 H 0.44433 0.59612 0.90687 0.0
H1049 H 0.55056 0.51922 0.94273 0.0
H1050 H 0.5404 0.55912 0.9358 0.0
H1051 H 0.49698 0.54134 0.88883 0.0
H1052 H 0.50757 0.50117 0.89524 0.0
H1053 H 0.47935 0.57467 0.92359 0.0
H1054 H 0.53784 0.56177 0.86699 0.0
H1055 H 0.57522 0.54783 0.85267 0.0
H1056 H 0.60833 0.59074 0.89168 0.0
H1057 H 0.57109 0.60472 0.90643 0.0
C1058 C 0.4766 0.6804 0.8833 0.0
C1059 C 0.49352 0.69598 0.88625 0.0
C1060 C 0.47941 0.65732 0.8892 0.0
C1061 C 0.49893 0.64938 0.89864 0.0
C1062 C 0.51517 0.66517 0.90274 0.0
C1063 C 0.51255 0.68819 0.89653 0.0
C1064 C 0.50337 0.62458 0.90261 0.0
C1065 C 0.52437 0.61571 0.89466 0.0
C1066 C 0.48689 0.60955 0.91318 0.0
C1067 C 0.46496 0.61781 0.92319 0.0
C1068 C 0.4645 0.6344 0.93794 0.0
C1069 C 0.44378 0.64219 0.94724 0.0
C1070 C 0.4234 0.63341 0.94202 0.0
C1071 C 0.42371 0.61677 0.92753 0.0
C1072 C 0.44439 0.60893 0.91818 0.0
C1073 C 0.53872 0.52371 0.93101 0.0
C1074 C 0.52986 0.50701 0.91952 0.0
C1075 C 0.53299 0.54653 0.92706 0.0
C1076 C 0.51799 0.55311 0.91181 0.0
C1077 C 0.50858 0.53651 0.90068 0.0
C1078 C 0.51468 0.51364 0.90433 0.0
C1079 C 0.51277 0.57747 0.90728 0.0
C1080 C 0.49173 0.58615 0.91513 0.0
C1081 C 0.52927 0.59241 0.89687 0.0
C1082 C 0.55167 0.58407 0.888 0.0
C1083 C 0.55308 0.56805 0.87268 0.0
C1084 C 0.57425 0.56019 0.86444 0.0
C1085 C 0.59414 0.56833 0.87132 0.0
C1086 C 0.59291 0.58442 0.8864 0.0
C1087 C 0.57178 0.59233 0.89468 0.0
H1088 H 0.61052 0.56222 0.86494 0.0
H1089 H 0.40738 0.63947 0.94924 0.0
H1090 H 0.5473 0.81704 0.88194 0.0
H1091 H 0.54194 0.85531 0.89405 0.0
H1092 H 0.46936 0.84666 0.8992 0.0
H1093 H 0.4745 0.80863 0.88717 0.0
H1094 H 0.48244 0.88525 0.87542 0.0
H1095 H 0.49793 0.84785 0.94299 0.0
H1096 H 0.52069 0.82462 0.96733 0.0
H1097 H 0.57541 0.87191 0.95501 0.0
H1098 H 0.55308 0.89527 0.93036 0.0
H1099 H 0.43749 0.97885 0.92506 0.0
H1100 H 0.44945 0.94062 0.91728 0.0
H1101 H 0.51951 0.95885 0.91904 0.0
H1102 H 0.50752 0.99737 0.92747 0.0
H1103 H 0.51209 0.91678 0.93751 0.0
H1104 H 0.49701 0.95515 0.8716 0.0
H1105 H 0.47534 0.97873 0.84662 0.0
H1106 H 0.42173 0.92998 0.85423 0.0
H1107 H 0.44293 0.90625 0.87951 0.0
C1108 C 0.53021 0.8231 0.88607 0.0
C1109 C 0.51133 0.80972 0.88347 0.0
C1110 C 0.52718 0.84501 0.89299 0.0
C1111 C 0.50523 0.85393 0.89746 0.0
C1112 C 0.48645 0.84023 0.89574 0.0
C1113 C 0.48945 0.81839 0.88892 0.0
C1114 C 0.50154 0.87799 0.90245 0.0
C1115 C 0.48872 0.89205 0.88914 0.0
C1116 C 0.51053 0.88719 0.91982 0.0
C1117 C 0.52394 0.87317 0.93465 0.0
C1118 C 0.5149 0.85319 0.94532 0.0
C1119 C 0.5277 0.84002 0.95921 0.0
C1120 C 0.54951 0.84675 0.96266 0.0
C1121 C 0.55853 0.8667 0.95229 0.0
C1122 C 0.5458 0.87992 0.93837 0.0
C1123 C 0.45548 0.97483 0.92383 0.0
C1124 C 0.47157 0.99132 0.92666 0.0
C1125 C 0.46231 0.9529 0.91931 0.0
C1126 C 0.48543 0.9469 0.91709 0.0
C1127 C 0.50158 0.96309 0.92053 0.0
C1128 C 0.49471 0.98512 0.92528 0.0
C1129 C 0.4924 0.92383 0.9108 0.0
C1130 C 0.50592 0.91002 0.92373 0.0
C1131 C 0.48427 0.91484 0.8929 0.0
C1132 C 0.47151 0.92899 0.87757 0.0
C1133 C 0.48054 0.94952 0.86805 0.0
C1134 C 0.46834 0.96291 0.85383 0.0
C1135 C 0.44715 0.95588 0.84887 0.0
C1136 C 0.43814 0.93541 0.8581 0.0
C1137 C 0.45025 0.92197 0.87236 0.0
H1138 H 0.43773 0.96627 0.83786 0.0
H1139 H 0.55939 0.83653 0.97342 0.0
H1140 H 0.46038 0.30866 0.6407 0.0
H1141 H 0.46352 0.34856 0.62717 0.0
H1142 H 0.53511 0.33865 0.61031 0.0
H1143 H 0.53197 0.29897 0.62301 0.0
H1144 H 0.48543 0.38186 0.64004 0.0
H1145 H 0.5555 0.37392 0.57043 0.0
H1146 H 0.56696 0.34751 0.54309 0.0
H1147 H 0.49885 0.3226 0.54691 0.0
H1148 H 0.4869 0.34906 0.57406 0.0
H1149 H 0.54046 0.48773 0.61609 0.0
H1150 H 0.52903 0.44853 0.62578 0.0
H1151 H 0.50742 0.44372 0.56316 0.0
H1152 H 0.52055 0.48232 0.55306 0.0
H1153 H 0.52697 0.40797 0.57147 0.0
H1154 H 0.46943 0.44683 0.61325 0.0
H1155 H 0.45415 0.47357 0.63906 0.0
H1156 H 0.48955 0.43763 0.68761 0.0
H1157 H 0.50522 0.41081 0.66205 0.0
C1158 C 0.47666 0.31486 0.63361 0.0
C1159 C 0.49586 0.30043 0.63284 0.0
C1160 C 0.47849 0.33777 0.62606 0.0
C1161 C 0.49954 0.34677 0.61752 0.0
C1162 C 0.51856 0.33222 0.61636 0.0
C1163 C 0.51672 0.30939 0.62372 0.0
C1164 C 0.50206 0.37147 0.61074 0.0
C1165 C 0.49436 0.38758 0.62497 0.0
C1166 C 0.51336 0.37916 0.59093 0.0
C1167 C 0.52035 0.36337 0.57441 0.0
C1168 C 0.54294 0.36289 0.56536 0.0
C1169 C 0.54953 0.34789 0.54992 0.0
C1170 C 0.53366 0.33335 0.54331 0.0
C1171 C 0.51114 0.33382 0.55209 0.0
C1172 C 0.50446 0.3488 0.56753 0.0
C1173 C 0.53299 0.47836 0.60451 0.0
C1174 C 0.5313 0.48814 0.58385 0.0
C1175 C 0.52629 0.4559 0.61009 0.0
C1176 C 0.51688 0.44294 0.59539 0.0
C1177 C 0.51465 0.45307 0.57489 0.0
C1178 C 0.52203 0.47525 0.56912 0.0
C1179 C 0.51058 0.41856 0.60087 0.0
C1180 C 0.51774 0.40242 0.58644 0.0
C1181 C 0.49819 0.41095 0.62023 0.0
C1182 C 0.48861 0.42691 0.63569 0.0
C1183 C 0.47403 0.4447 0.62941 0.0
C1184 C 0.46529 0.45986 0.644 0.0
C1185 C 0.4709 0.45732 0.66495 0.0
C1186 C 0.48521 0.43958 0.67138 0.0
C1187 C 0.49399 0.42437 0.65686 0.0
H1188 H 0.46413 0.46909 0.67621 0.0
H1189 H 0.5388 0.32174 0.53136 0.0
H1190 H 0.47905 0.19185 0.62705 0.0
H1191 H 0.47606 0.15789 0.60799 0.0
H1192 H 0.54904 0.15155 0.60075 0.0
H1193 H 0.55226 0.18567 0.61972 0.0
H1194 H 0.52903 0.1397 0.56504 0.0
H1195 H 0.52199 0.12306 0.64007 0.0
H1196 H 0.50633 0.12849 0.67659 0.0
H1197 H 0.44022 0.10982 0.66134 0.0
H1198 H 0.45539 0.10498 0.62446 0.0
H1199 H 0.50584 0.0088 0.58323 0.0
H1200 H 0.51502 0.04538 0.59539 0.0
H1201 H 0.48708 0.07951 0.54098 0.0
H1202 H 0.4783 0.04288 0.52842 0.0
H1203 H 0.48733 0.0773 0.60768 0.0
H1204 H 0.51247 0.13086 0.52894 0.0
H1205 H 0.53126 0.12557 0.49335 0.0
H1206 H 0.56738 0.06747 0.51838 0.0
H1207 H 0.54905 0.0726 0.55414 0.0
C1208 C 0.4945 0.18349 0.62112 0.0
C1209 C 0.5159 0.19132 0.62515 0.0
C1210 C 0.49275 0.16407 0.61022 0.0
C1211 C 0.51232 0.15206 0.60321 0.0
C1212 C 0.53374 0.16058 0.60605 0.0
C1213 C 0.53552 0.18002 0.61699 0.0
C1214 C 0.51032 0.12956 0.59481 0.0
C1215 C 0.51987 0.12604 0.57428 0.0
C1216 C 0.49889 0.1116 0.60714 0.0
C1217 C 0.48979 0.11389 0.62944 0.0
C1218 C 0.50408 0.12027 0.64445 0.0
C1219 C 0.49528 0.12324 0.66523 0.0
C1220 C 0.47228 0.1195 0.67131 0.0
C1221 C 0.45803 0.11274 0.65661 0.0
C1222 C 0.46671 0.10992 0.63575 0.0
C1223 C 0.50189 0.02407 0.57369 0.0
C1224 C 0.49128 0.02292 0.55487 0.0
C1225 C 0.5071 0.04499 0.58071 0.0
C1226 C 0.5018 0.06523 0.56911 0.0
C1227 C 0.49165 0.06414 0.55006 0.0
C1228 C 0.48657 0.04317 0.54293 0.0
C1229 C 0.5057 0.08738 0.57765 0.0
C1230 C 0.49647 0.09089 0.59831 0.0
C1231 C 0.51788 0.10509 0.56559 0.0
C1232 C 0.5292 0.102 0.54418 0.0
C1233 C 0.52448 0.11701 0.52686 0.0
C1234 C 0.53504 0.11403 0.50665 0.0
C1235 C 0.55044 0.09615 0.5036 0.0
C1236 C 0.55538 0.08126 0.52075 0.0
C1237 C 0.54488 0.08418 0.54099 0.0
H1238 H 0.55859 0.09386 0.48794 0.0
H1239 H 0.46549 0.1218 0.68741 0.0
H1240 H 0.87568 0.52301 0.68409 0.0
H1241 H 0.89359 0.52702 0.6479 0.0
H1242 H 0.86916 0.46115 0.63657 0.0
H1243 H 0.85184 0.45671 0.6732 0.0
H1244 H 0.90907 0.46761 0.61512 0.0
H1245 H 0.84037 0.50995 0.62168 0.0
H1246 H 0.81232 0.53693 0.63682 0.0
H1247 H 0.85957 0.59126 0.62147 0.0
H1248 H 0.88807 0.56452 0.60657 0.0
H1249 H 0.90822 0.50055 0.50105 0.0
H1250 H 0.89498 0.48969 0.53818 0.0
H1251 H 0.94022 0.53813 0.5588 0.0
H1252 H 0.95404 0.54858 0.52191 0.0
H1253 H 0.88821 0.53864 0.57434 0.0
H1254 H 0.95724 0.49224 0.56823 0.0
H1255 H 0.9819 0.46352 0.55131 0.0
H1256 H 0.92855 0.41467 0.56339 0.0
H1257 H 0.90344 0.44326 0.58009 0.0
C1258 C 0.87452 0.50916 0.67405 0.0
C1259 C 0.8622 0.48961 0.68148 0.0
C1260 C 0.88463 0.51154 0.65327 0.0
C1261 C 0.88219 0.49469 0.63923 0.0
C1262 C 0.87116 0.47448 0.64701 0.0
C1263 C 0.86131 0.47193 0.66798 0.0
C1264 C 0.88993 0.49891 0.61626 0.0
C1265 C 0.90429 0.48305 0.6062 0.0
C1266 C 0.88359 0.51895 0.60439 0.0
C1267 C 0.86645 0.53517 0.61319 0.0
C1268 C 0.84485 0.52762 0.62167 0.0
C1269 C 0.82886 0.54287 0.6302 0.0
C1270 C 0.83418 0.56579 0.63014 0.0
C1271 C 0.85549 0.5735 0.62152 0.0
C1272 C 0.87157 0.5583 0.61303 0.0
C1273 C 0.91551 0.5087 0.51351 0.0
C1274 C 0.93222 0.52539 0.50853 0.0
C1275 C 0.90794 0.50248 0.53468 0.0
C1276 C 0.91665 0.51312 0.55118 0.0
C1277 C 0.93335 0.5297 0.54627 0.0
C1278 C 0.94127 0.53557 0.52518 0.0
C1279 C 0.90773 0.50769 0.57356 0.0
C1280 C 0.89296 0.52327 0.58338 0.0
C1281 C 0.91321 0.48718 0.58497 0.0
C1282 C 0.92838 0.46996 0.57516 0.0
C1283 C 0.95069 0.47545 0.56708 0.0
C1284 C 0.96477 0.45918 0.55758 0.0
C1285 C 0.95678 0.4373 0.55621 0.0
C1286 C 0.93471 0.43163 0.56442 0.0
C1287 C 0.92055 0.44786 0.57392 0.0
H1288 H 0.9677 0.42474 0.54884 0.0
H1289 H 0.82178 0.57757 0.63675 0.0
H1290 H 0.13194 0.05181 0.68653 0.0
H1291 H 0.10608 0.04877 0.65886 0.0
H1292 H 0.12451 0.97812 0.65561 0.0
H1293 H 0.14939 0.98079 0.68357 0.0
H1294 H 0.11583 0.04154 0.62037 0.0
H1295 H 0.08656 0.94704 0.63866 0.0
H1296 H 0.07342 0.92189 0.66991 0.0
H1297 H 0.05351 0.9797 0.7044 0.0
H1298 H 0.06621 0.00524 0.67327 0.0
H1299 H 0.11192 0.98653 0.52911 0.0
H1300 H 0.11709 0.99974 0.5636 0.0
H1301 H 0.04596 0.98936 0.58301 0.0
H1302 H 0.04097 0.97444 0.54898 0.0
H1303 H 0.06834 0.97472 0.61336 0.0
H1304 H 0.06856 0.04403 0.57246 0.0
H1305 H 0.0779 0.07185 0.54216 0.0
H1306 H 0.14799 0.06951 0.55492 0.0
H1307 H 0.13917 0.04142 0.5851 0.0
C1308 C 0.13008 0.03554 0.68017 0.0
C1309 C 0.14273 0.01655 0.6872 0.0
C1310 C 0.11531 0.03383 0.66438 0.0
C1311 C 0.11307 0.01314 0.65532 0.0
C1312 C 0.12535 0.99411 0.66273 0.0
C1313 C 0.1398 0.99572 0.67864 0.0
C1314 C 0.1001 0.01171 0.63657 0.0
C1315 C 0.10516 0.02712 0.61893 0.0
C1316 C 0.0854 0.99343 0.63488 0.0
C1317 C 0.07742 0.97809 0.65359 0.0
C1318 C 0.07921 0.95442 0.65284 0.0
C1319 C 0.07188 0.94008 0.67056 0.0
C1320 C 0.06266 0.94919 0.68914 0.0
C1321 C 0.0607 0.97266 0.69002 0.0
C1322 C 0.06799 0.98708 0.67234 0.0
C1323 C 0.09739 0.98675 0.54075 0.0
C1324 C 0.07604 0.9793 0.53622 0.0
C1325 C 0.10028 0.99477 0.56038 0.0
C1326 C 0.0818 0.99606 0.57577 0.0
C1327 C 0.06043 0.98873 0.57132 0.0
C1328 C 0.05758 0.98036 0.55176 0.0
C1329 C 0.08538 0.00368 0.5969 0.0
C1330 C 0.07847 0.98948 0.61496 0.0
C1331 C 0.09769 0.02353 0.59915 0.0
C1332 C 0.10318 0.04054 0.58105 0.0
C1333 C 0.08599 0.04935 0.56874 0.0
C1334 C 0.0912 0.06518 0.55159 0.0
C1335 C 0.11353 0.07243 0.54661 0.0
C1336 C 0.1307 0.06389 0.55881 0.0
C1337 C 0.12559 0.04804 0.57597 0.0
H1338 H 0.11752 0.08468 0.53332 0.0
H1339 H 0.05701 0.93806 0.70284 0.0
H1340 H 0.84025 0.54974 0.78924 0.0
H1341 H 0.85999 0.54916 0.82145 0.0
H1342 H 0.90115 0.49262 0.80082 0.0
H1343 H 0.88043 0.49236 0.76928 0.0
H1344 H 0.88775 0.48306 0.83863 0.0
H1345 H 0.92168 0.55005 0.80372 0.0
H1346 H 0.92301 0.58803 0.7848 0.0
H1347 H 0.88547 0.61576 0.83807 0.0
H1348 H 0.88366 0.57788 0.85721 0.0
H1349 H 0.96077 0.48466 0.92191 0.0
H1350 H 0.94851 0.4916 0.88605 0.0
H1351 H 0.89183 0.53148 0.91064 0.0
H1352 H 0.90381 0.52431 0.94653 0.0
H1353 H 0.91567 0.55007 0.87047 0.0
H1354 H 0.8809 0.48106 0.90375 0.0
H1355 H 0.88179 0.44287 0.92215 0.0
H1356 H 0.92456 0.41896 0.87004 0.0
H1357 H 0.92421 0.45714 0.85147 0.0
C1358 C 0.85382 0.53749 0.7914 0.0
C1359 C 0.85882 0.52112 0.77673 0.0
C1360 C 0.86521 0.5372 0.80983 0.0
C1361 C 0.88234 0.52097 0.81366 0.0
C1362 C 0.88798 0.50526 0.79844 0.0
C1363 C 0.87621 0.50519 0.78031 0.0
C1364 C 0.89314 0.51916 0.83413 0.0
C1365 C 0.89425 0.49774 0.84526 0.0
C1366 C 0.90129 0.53825 0.84327 0.0
C1367 C 0.90237 0.56107 0.83182 0.0
C1368 C 0.91357 0.56421 0.81134 0.0
C1369 C 0.91443 0.58573 0.80059 0.0
C1370 C 0.90429 0.60429 0.81021 0.0
C1371 C 0.89331 0.60137 0.83063 0.0
C1372 C 0.89238 0.57988 0.84145 0.0
C1373 C 0.94594 0.49524 0.91958 0.0
C1374 C 0.9332 0.5039 0.93699 0.0
C1375 C 0.93891 0.49912 0.89914 0.0
C1376 C 0.91922 0.512 0.89572 0.0
C1377 C 0.90709 0.52156 0.91293 0.0
C1378 C 0.91389 0.51736 0.93341 0.0
C1379 C 0.91028 0.5141 0.87454 0.0
C1380 C 0.90941 0.5355 0.86348 0.0
C1381 C 0.90269 0.49498 0.86525 0.0
C1382 C 0.90275 0.47201 0.87634 0.0
C1383 C 0.89067 0.46771 0.8963 0.0
C1384 C 0.89104 0.44606 0.90675 0.0
C1385 C 0.90328 0.42852 0.8973 0.0
C1386 C 0.91512 0.43258 0.87736 0.0
C1387 C 0.91484 0.45421 0.86686 0.0
H1388 H 0.90355 0.41177 0.90541 0.0
H1389 H 0.90497 0.62093 0.80186 0.0
H1390 H 0.17958 0.96292 0.79585 0.0
H1391 H 0.1631 0.96453 0.83244 0.0
H1392 H 0.11613 0.01662 0.81204 0.0
H1393 H 0.1334 0.01584 0.77571 0.0
H1394 H 0.13373 0.02985 0.84346 0.0
H1395 H 0.10035 0.95951 0.83116 0.0
H1396 H 0.09955 0.92036 0.82048 0.0
H1397 H 0.14325 0.89845 0.86864 0.0
H1398 H 0.14455 0.93754 0.87944 0.0
H1399 H 0.06538 0.03131 0.9414 0.0
H1400 H 0.0773 0.0228 0.90486 0.0
H1401 H 0.13659 0.98763 0.92591 0.0
H1402 H 0.12487 0.99631 0.9625 0.0
H1403 H 0.11204 0.96494 0.89496 0.0
H1404 H 0.14531 0.03674 0.90589 0.0
H1405 H 0.1442 0.07598 0.91655 0.0
H1406 H 0.09763 0.09492 0.87004 0.0
H1407 H 0.09819 0.05567 0.85933 0.0
C1408 C 0.16538 0.97431 0.79914 0.0
C1409 C 0.15775 0.98924 0.78295 0.0
C1410 C 0.15592 0.97522 0.82009 0.0
C1411 C 0.13821 0.99064 0.82514 0.0
C1412 C 0.12984 0.00468 0.80869 0.0
C1413 C 0.13962 0.00413 0.78788 0.0
C1414 C 0.12967 0.99356 0.84761 0.0
C1415 C 0.12861 0.0156 0.85452 0.0
C1416 C 0.12349 0.97504 0.8624 0.0
C1417 C 0.12271 0.9515 0.85598 0.0
C1418 C 0.10992 0.94637 0.83937 0.0
C1419 C 0.10936 0.92419 0.83331 0.0
C1420 C 0.12139 0.90694 0.84384 0.0
C1421 C 0.13396 0.91183 0.86049 0.0
C1422 C 0.1346 0.934 0.8666 0.0
C1423 C 0.08081 0.02153 0.93827 0.0
C1424 C 0.09424 0.01453 0.95477 0.0
C1425 C 0.08762 0.01674 0.91741 0.0
C1426 C 0.10783 0.00463 0.91271 0.0
C1427 C 0.12091 0.99695 0.92923 0.0
C1428 C 0.11429 1.00205 0.95007 0.0
C1429 C 0.11592 1.00111 0.8904 0.0
C1430 C 0.11701 0.97905 0.88367 0.0
C1431 C 0.12184 0.01959 0.87565 0.0
C1432 C 0.1216 0.04322 0.88198 0.0
C1433 C 0.13467 0.04922 0.89808 0.0
C1434 C 0.13417 0.07147 0.9041 0.0
C1435 C 0.1208 0.08792 0.89402 0.0
C1436 C 0.10795 0.08215 0.87785 0.0
C1437 C 0.10836 0.05991 0.8718 0.0
H1438 H 0.12044 0.10514 0.8987 0.0
H1439 H 0.12094 0.88977 0.83912 0.0
H1440 H 0.70414 0.85956 0.51249 0.0
H1441 H 0.66762 0.87932 0.51447 0.0
H1442 H 0.66629 0.87895 0.44679 0.0
H1443 H 0.70307 0.8589 0.44459 0.0
H1444 H 0.64987 0.92123 0.46535 0.0
H1445 H 0.63756 0.8411 0.47284 0.0
H1446 H 0.64452 0.802 0.48731 0.0
H1447 H 0.62264 0.82061 0.54998 0.0
H1448 H 0.61597 0.85996 0.53595 0.0
H1449 H 0.52869 0.94716 0.47991 0.0
H1450 H 0.56576 0.93117 0.46734 0.0
H1451 H 0.5798 0.91358 0.53203 0.0
H1452 H 0.54325 0.92911 0.54456 0.0
H1453 H 0.58845 0.87849 0.5087 0.0
H1454 H 0.60507 0.95867 0.5025 0.0
H1455 H 0.60002 0.99854 0.48926 0.0
H1456 H 0.61428 0.98035 0.42523 0.0
H1457 H 0.61912 0.94028 0.4381 0.0
C1458 C 0.69634 0.86392 0.49792 0.0
C1459 C 0.7065 0.85743 0.47839 0.0
C1460 C 0.67541 0.87522 0.49911 0.0
C1461 C 0.66415 0.88038 0.48081 0.0
C1462 C 0.67472 0.87509 0.46109 0.0
C1463 C 0.6957 0.86359 0.45989 0.0
C1464 C 0.64063 0.88966 0.48284 0.0
C1465 C 0.63627 0.91177 0.47445 0.0
C1466 C 0.623 0.87735 0.4949 0.0
C1467 C 0.62641 0.85354 0.50335 0.0
C1468 C 0.63436 0.8369 0.48973 0.0
C1469 C 0.63825 0.81468 0.49785 0.0
C1470 C 0.63406 0.80883 0.51955 0.0
C1471 C 0.62589 0.82517 0.53317 0.0
C1472 C 0.62203 0.84744 0.52514 0.0
C1473 C 0.5398 0.94002 0.49141 0.0
C1474 C 0.5329 0.93932 0.51323 0.0
C1475 C 0.56097 0.93091 0.48422 0.0
C1476 C 0.57557 0.92108 0.49875 0.0
C1477 C 0.56881 0.92085 0.52049 0.0
C1478 C 0.54783 0.92985 0.52763 0.0
C1479 C 0.59772 0.91043 0.49179 0.0
C1480 C 0.60185 0.8879 0.49924 0.0
C1481 C 0.61508 0.92242 0.47896 0.0
C1482 C 0.61215 0.94646 0.47123 0.0
C1483 C 0.60691 0.96314 0.48558 0.0
C1484 C 0.60414 0.98578 0.47815 0.0
C1485 C 0.60675 0.99196 0.45641 0.0
C1486 C 0.61221 0.97552 0.44206 0.0
C1487 C 0.61498 0.95285 0.44941 0.0
H1488 H 0.6046 0.0095 0.45069 0.0
H1489 H 0.63712 0.79163 0.52581 0.0
H1490 H 0.73766 0.14277 0.98608 0.0
H1491 H 0.70235 0.12321 0.98285 0.0
H1492 H 0.67483 0.14514 0.04318 0.0
H1493 H 0.71029 0.16478 0.04665 0.0
H1494 H 0.65875 0.10114 0.0331 0.0
H1495 H 0.66677 0.17824 0.00484 0.0
H1496 H 0.68815 0.20912 0.98433 0.0
H1497 H 0.68484 0.1752 0.92734 0.0
H1498 H 0.6642 0.14357 0.94771 0.0
H1499 H 0.54732 0.12646 0.97692 0.0
H1500 H 0.5824 0.13873 0.98991 0.0
H1501 H 0.61029 0.07115 0.98623 0.0
H1502 H 0.57529 0.05878 0.97305 0.0
H1503 H 0.62443 0.14016 0.97149 0.0
H1504 H 0.64542 0.06023 0.02571 0.0
H1505 H 0.62506 0.0302 0.0486 0.0
H1506 H 0.56699 0.0742 0.05716 0.0
H1507 H 0.58711 0.10458 0.03458 0.0
C1508 C 0.72439 0.14288 0.99899 0.0
C1509 C 0.72655 0.15573 0.01641 0.0
C1510 C 0.70425 0.13162 0.99714 0.0
C1511 C 0.68591 0.13314 0.01258 0.0
C1512 C 0.68883 0.14385 0.03109 0.0
C1513 C 0.70908 0.15511 0.033 0.0
C1514 C 0.66293 0.12717 0.00756 0.0
C1515 C 0.6512 0.10957 0.01963 0.0
C1516 C 0.65288 0.13879 0.9904 0.0
C1517 C 0.66418 0.15837 0.97787 0.0
C1518 C 0.67082 0.17721 0.98798 0.0
C1519 C 0.68293 0.19481 0.97639 0.0
C1520 C 0.68799 0.19408 0.95455 0.0
C1521 C 0.68096 0.17572 0.94428 0.0
C1522 C 0.66911 0.1579 0.95585 0.0
C1523 C 0.56096 0.11423 0.97873 0.0
C1524 C 0.55852 0.09164 0.97388 0.0
C1525 C 0.58096 0.12125 0.98626 0.0
C1526 C 0.59889 0.10583 0.98922 0.0
C1527 C 0.59652 0.08326 0.98442 0.0
C1528 C 0.5765 0.07621 0.9769 0.0
C1529 C 0.62035 0.11353 0.99662 0.0
C1530 C 0.63185 0.13164 0.98499 0.0
C1531 C 0.62988 0.1027 0.01448 0.0
C1532 C 0.61772 0.0846 0.02827 0.0
C1533 C 0.62834 0.06352 0.03254 0.0
C1534 C 0.61683 0.04644 0.04545 0.0
C1535 C 0.59472 0.05027 0.05427 0.0
C1536 C 0.58409 0.07122 0.05025 0.0
C1537 C 0.59553 0.08837 0.03737 0.0
H1538 H 0.58584 0.03702 0.06425 0.0
H1539 H 0.69721 0.20781 0.94558 0.0
H1540 H 0.30473 0.37066 0.96907 0.0
H1541 H 0.34257 0.38695 0.96348 0.0
H1542 H 0.35538 0.36426 0.0274 0.0
H1543 H 0.31727 0.3478 0.03324 0.0
H1544 H 0.37513 0.41042 0.00899 0.0
H1545 H 0.37553 0.32999 0.99632 0.0
H1546 H 0.35571 0.29898 0.98219 0.0
H1547 H 0.3627 0.33352 0.92005 0.0
H1548 H 0.38263 0.36481 0.93391 0.0
H1549 H 0.49554 0.41604 0.98723 0.0
H1550 H 0.45714 0.40369 1.00022 0.0
H1551 H 0.4403 0.40097 0.9358 0.0
H1552 H 0.47878 0.41241 0.92281 0.0
H1553 H 0.42243 0.36653 0.95748 0.0
H1554 H 0.42338 0.44602 0.96841 0.0
H1555 H 0.43725 0.48068 0.98201 0.0
H1556 H 0.42427 0.45157 0.04587 0.0
H1557 H 0.41059 0.4166 0.03262 0.0
C1558 C 0.3153 0.36958 0.98218 0.0
C1559 C 0.30799 0.35768 1.00156 0.0
C1560 C 0.33696 0.37897 0.97894 0.0
C1561 C 0.35187 0.37665 0.99495 0.0
C1562 C 0.3441 0.36631 0.01486 0.0
C1563 C 0.32231 0.35688 0.01815 0.0
C1564 C 0.37629 0.38209 0.98968 0.0
C1565 C 0.38568 0.40066 0.99805 0.0
C1566 C 0.38983 0.36962 0.97505 0.0
C1567 C 0.38049 0.3497 0.96614 0.0
C1568 C 0.37297 0.33087 0.97961 0.0
C1569 C 0.36154 0.31334 0.97169 0.0
C1570 C 0.35758 0.31444 0.95029 0.0
C1571 C 0.36559 0.33281 0.93667 0.0
C1572 C 0.37709 0.35037 0.94452 0.0
C1573 C 0.48367 0.41272 0.97584 0.0
C1574 C 0.49028 0.41528 0.95396 0.0
C1575 C 0.46163 0.40578 0.98329 0.0
C1576 C 0.44553 0.4017 0.96904 0.0
C1577 C 0.45227 0.40396 0.9472 0.0
C1578 C 0.47435 0.41058 0.93976 0.0
C1579 C 0.42166 0.3952 0.97668 0.0
C1580 C 0.41222 0.3763 0.96867 0.0
C1581 C 0.40807 0.40759 0.99152 0.0
C1582 C 0.41621 0.42861 0.99952 0.0
C1583 C 0.42364 0.44695 0.98535 0.0
C1584 C 0.43144 0.46666 0.99299 0.0
C1585 C 0.43171 0.4683 0.01479 0.0
C1586 C 0.4241 0.45025 0.02899 0.0
C1587 C 0.41631 0.4305 0.02143 0.0
H1588 H 0.43775 0.48357 0.02068 0.0
H1589 H 0.34864 0.3009 0.94419 0.0
H1590 H 0.84143 0.15912 0.96397 0.0
H1591 H 0.87749 0.13932 0.96998 0.0
H1592 H 0.86792 0.15189 0.03615 0.0
H1593 H 0.83214 0.17133 0.03042 0.0
H1594 H 0.91115 0.16277 0.0181 0.0
H1595 H 0.8584 0.10063 0.0213 0.0
H1596 H 0.82995 0.07728 0.00722 0.0
H1597 H 0.8778 0.06255 0.95499 0.0
H1598 H 0.90646 0.08609 0.96862 0.0
H1599 H 0.986 0.09074 0.0712 0.0
H1600 H 0.95208 0.10897 0.0583 0.0
H1601 H 0.97059 0.08612 0.99617 0.0
H1602 H 0.00466 0.06755 0.00905 0.0
H1603 H 0.92516 0.08139 0.00724 0.0
H1604 H 0.97897 0.14042 0.00486 0.0
H1605 H 0.00793 0.16381 0.01813 0.0
H1606 H 0.95907 0.18515 0.067 0.0
H1607 H 0.92988 0.16163 0.05421 0.0
C1608 C 0.84698 0.15755 0.9798 0.0
C1609 C 0.8338 0.16679 0.9967 0.0
C1610 C 0.86757 0.14622 0.98322 0.0
C1611 C 0.87542 0.14411 0.00354 0.0
C1612 C 0.86228 0.15334 0.02034 0.0
C1613 C 0.84171 0.16439 0.01701 0.0
C1614 C 0.89738 0.13257 0.00758 0.0
C1615 C 0.91415 0.14494 0.01584 0.0
C1616 C 0.90166 0.10949 0.004 0.0
C1617 C 0.88447 0.09534 0.99583 0.0
C1618 C 0.86279 0.09258 0.0067 0.0
C1619 C 0.84664 0.07928 0.99883 0.0
C1620 C 0.85204 0.0685 0.98019 0.0
C1621 C 0.87363 0.07095 0.96941 0.0
C1622 C 0.88983 0.08426 0.9772 0.0
C1623 C 0.98289 0.08947 0.05479 0.0
C1624 C 0.99819 0.07775 0.04114 0.0
C1625 C 0.96348 0.10002 0.0474 0.0
C1626 C 0.9589 0.09924 0.02616 0.0
C1627 C 0.97379 0.08704 0.0126 0.0
C1628 C 0.99329 0.07648 0.01998 0.0
C1629 C 0.93869 0.11148 0.01826 0.0
C1630 C 0.9223 0.09928 0.00926 0.0
C1631 C 0.93482 0.13481 0.02096 0.0
C1632 C 0.95227 0.14911 0.02867 0.0
C1633 C 0.97444 0.14997 0.01854 0.0
C1634 C 0.99089 0.16327 0.02596 0.0
C1635 C 0.98536 0.17591 0.04342 0.0
C1636 C 0.96333 0.17533 0.05348 0.0
C1637 C 0.94682 0.16204 0.04613 0.0
H1638 H 0.99812 0.1862 0.04915 0.0
H1639 H 0.83952 0.0582 0.97412 0.0
H1640 H 0.99307 0.19854 0.31083 0.0
H1641 H 0.99791 0.17426 0.28145 0.0
H1642 H 0.06539 0.19998 0.26472 0.0
H1643 H 0.06097 0.22415 0.29474 0.0
H1644 H 0.02945 0.20158 0.23116 0.0
H1645 H 0.07103 0.14895 0.27747 0.0
H1646 H 0.07674 0.12643 0.31093 0.0
H1647 H 0.01122 0.0964 0.31051 0.0
H1648 H 0.00543 0.11833 0.27672 0.0
H1649 H 0.06173 0.13057 0.14931 0.0
H1650 H 0.05912 0.15321 0.17978 0.0
H1651 H 0.00591 0.11013 0.2105 0.0
H1652 H 0.00933 0.08647 0.18028 0.0
H1653 H 0.03501 0.11761 0.23767 0.0
H1654 H 0.99559 0.16511 0.18903 0.0
H1655 H 0.9888 0.18671 0.15542 0.0
H1656 H 0.0464 0.22835 0.1609 0.0
H1657 H 0.05376 0.20678 0.19439 0.0
C1658 C 0.00907 0.19898 0.30107 0.0
C1659 C 0.02666 0.21332 0.30514 0.0
C1660 C 0.01181 0.18497 0.28435 0.0
C1661 C 0.03199 0.1853 0.27105 0.0
C1662 C 0.04972 0.19945 0.27498 0.0
C1663 C 0.04718 0.2132 0.29209 0.0
C1664 C 0.0336 0.17193 0.25225 0.0
C1665 C 0.03115 0.18325 0.2324 0.0
C1666 C 0.03469 0.14804 0.25419 0.0
C1667 C 0.03776 0.13534 0.27471 0.0
C1668 C 0.05783 0.13759 0.28457 0.0
C1669 C 0.06115 0.1248 0.30348 0.0
C1670 C 0.04433 0.11002 0.31286 0.0
C1671 C 0.02424 0.10784 0.30323 0.0
C1672 C 0.021 0.12031 0.28412 0.0
C1673 C 0.04955 0.12573 0.16259 0.0
C1674 C 0.03594 0.10647 0.16244 0.0
C1675 C 0.04785 0.13895 0.17992 0.0
C1676 C 0.03215 0.13358 0.1974 0.0
C1677 C 0.01815 0.11464 0.19718 0.0
C1678 C 0.01997 0.10123 0.17983 0.0
C1679 C 0.03119 0.14721 0.2162 0.0
C1680 C 0.03348 0.13595 0.23618 0.0
C1681 C 0.02965 0.17122 0.21436 0.0
C1682 C 0.02537 0.18415 0.19412 0.0
C1683 C 0.00694 0.17873 0.18297 0.0
C1684 C 0.00296 0.191 0.16396 0.0
C1685 C 0.01719 0.20885 0.156 0.0
C1686 C 0.03541 0.2145 0.16706 0.0
C1687 C 0.03948 0.20226 0.18607 0.0
H1688 H 0.01407 0.21834 0.14128 0.0
H1689 H 0.04684 0.10031 0.32763 0.0
H1690 H 0.94726 0.27974 0.29834 0.0
H1691 H 0.94426 0.30456 0.26586 0.0
H1692 H 0.99997 0.34436 0.28146 0.0
H1693 H 0.00336 0.31944 0.31356 0.0
H1694 H 0.96208 0.37006 0.26459 0.0
H1695 H 0.01325 0.30721 0.25066 0.0
H1696 H 0.02385 0.26673 0.25057 0.0
H1697 H 0.97053 0.25564 0.21106 0.0
H1698 H 0.9593 0.296 0.21129 0.0
H1699 H 0.99533 0.42677 0.16443 0.0
H1700 H 0.99619 0.40435 0.19839 0.0
H1701 H 0.95226 0.35502 0.17703 0.0
H1702 H 0.95226 0.37661 0.14286 0.0
H1703 H 0.98359 0.33415 0.19746 0.0
H1704 H 0.9321 0.396 0.21048 0.0
H1705 H 0.91991 0.43604 0.21082 0.0
H1706 H 0.97136 0.44864 0.25189 0.0
H1707 H 0.98408 0.40872 0.25155 0.0
C1708 C 0.95849 0.29409 0.29503 0.0
C1709 C 0.97561 0.29766 0.3083 0.0
C1710 C 0.95684 0.30814 0.27649 0.0
C1711 C 0.97204 0.3261 0.27127 0.0
C1712 C 0.98815 0.33054 0.28523 0.0
C1713 C 0.99008 0.31629 0.3035 0.0
C1714 C 0.97245 0.33918 0.25051 0.0
C1715 C 0.96693 0.36233 0.24988 0.0
C1716 C 0.97846 0.32885 0.23142 0.0
C1717 C 0.98524 0.30458 0.23123 0.0
C1718 C 0.00361 0.2961 0.24216 0.0
C1719 C 0.00977 0.27318 0.24205 0.0
C1720 C 0.99783 0.2586 0.23087 0.0
C1721 C 0.97973 0.26694 0.21975 0.0
C1722 C 0.97346 0.28983 0.21987 0.0
C1723 C 0.98614 0.41098 0.16688 0.0
C1724 C 0.97349 0.40365 0.15103 0.0
C1725 C 0.98643 0.39831 0.18637 0.0
C1726 C 0.97391 0.37822 0.19041 0.0
C1727 C 0.96191 0.37053 0.17436 0.0
C1728 C 0.96174 0.38305 0.15488 0.0
C1729 C 0.97306 0.36519 0.21137 0.0
C1730 C 0.9786 0.34198 0.21209 0.0
C1731 C 0.96683 0.37543 0.23052 0.0
C1732 C 0.9592 0.39943 0.2308 0.0
C1733 C 0.94093 0.40735 0.21944 0.0
C1734 C 0.93391 0.43002 0.21966 0.0
C1735 C 0.9449 0.44489 0.23132 0.0
C1736 C 0.9629 0.43711 0.24284 0.0
C1737 C 0.97001 0.41446 0.24265 0.0
H1738 H 0.93943 0.46243 0.23148 0.0
H1739 H 0.00264 0.24087 0.23077 0.0
H1740 H 0.02436 0.77045 0.23527 0.0
H1741 H 0.03248 0.80334 0.25407 0.0
H1742 H 0.08718 0.82168 0.20657 0.0
H1743 H 0.07923 0.78831 0.18763 0.0
H1744 H 0.094 0.82976 0.25174 0.0
H1745 H 0.04239 0.84598 0.19871 0.0
H1746 H 0.00981 0.83706 0.1794 0.0
H1747 H 0.96499 0.84169 0.23593 0.0
H1748 H 0.99748 0.84956 0.25588 0.0
H1749 H 0.08296 0.92874 0.30726 0.0
H1750 H 0.08568 0.90866 0.27478 0.0
H1751 H 0.02349 0.87372 0.29667 0.0
H1752 H 0.02051 0.894 0.32879 0.0
H1753 H 0.02669 0.88119 0.25487 0.0
H1754 H 0.07667 0.85267 0.30862 0.0
H1755 H 0.10785 0.85693 0.33127 0.0
H1756 H 0.15368 0.87345 0.27609 0.0
H1757 H 0.12264 0.86955 0.25313 0.0
C1758 C 0.03854 0.78112 0.22915 0.0
C1759 C 0.05107 0.77706 0.20998 0.0
C1760 C 0.04313 0.79988 0.23986 0.0
C1761 C 0.06008 0.81507 0.23139 0.0
C1762 C 0.07398 0.81009 0.21321 0.0
C1763 C 0.06949 0.79106 0.20251 0.0
C1764 C 0.0612 0.83711 0.24056 0.0
C1765 C 0.07963 0.84142 0.25196 0.0
C1766 C 0.04225 0.85207 0.24093 0.0
C1767 C 0.02246 0.84828 0.2288 0.0
C1768 C 0.02563 0.84495 0.20706 0.0
C1769 C 0.00715 0.84007 0.196 0.0
C1770 C 0.98531 0.83894 0.20637 0.0
C1771 C 0.98192 0.84262 0.22789 0.0
C1772 C 1.00038 0.84723 0.2391 0.0
C1773 C 0.0696 0.91719 0.3048 0.0
C1774 C 0.05168 0.91263 0.32057 0.0
C1775 C 0.07119 0.90575 0.2863 0.0
C1776 C 0.05507 0.88935 0.28358 0.0
C1777 C 0.03614 0.88629 0.29849 0.0
C1778 C 0.03442 0.89789 0.31684 0.0
C1779 C 0.05901 0.8733 0.26688 0.0
C1780 C 0.04149 0.87009 0.254 0.0
C1781 C 0.07861 0.85915 0.26545 0.0
C1782 C 0.09732 0.86109 0.2792 0.0
C1783 C 0.09338 0.8573 0.30134 0.0
C1784 C 0.11102 0.85966 0.31423 0.0
C1785 C 0.13272 0.86552 0.30513 0.0
C1786 C 0.13685 0.86896 0.28311 0.0
C1787 C 0.11925 0.86668 0.27016 0.0
H1788 H 0.14636 0.86736 0.31512 0.0
H1789 H 0.97104 0.83519 0.19774 0.0
H1790 H 0.02904 0.692 0.23116 0.0
H1791 H 0.02439 0.66748 0.26385 0.0
H1792 H 0.95158 0.67317 0.26365 0.0
H1793 H 0.95618 0.69855 0.23129 0.0
H1794 H 0.96158 0.67607 0.30181 0.0
H1795 H 0.98353 0.6238 0.24981 0.0
H1796 H 0.00704 0.60831 0.2201 0.0
H1797 H 0.06401 0.60236 0.2576 0.0
H1798 H 0.04093 0.6181 0.28745 0.0
H1799 H 0.93557 0.58238 0.37647 0.0
H1800 H 0.94141 0.60548 0.34294 0.0
H1801 H 0.01197 0.61303 0.35273 0.0
H1802 H 0.00621 0.5901 0.38664 0.0
H1803 H 0.00326 0.6029 0.31012 0.0
H1804 H 0.97917 0.65506 0.36256 0.0
H1805 H 0.95381 0.66871 0.39199 0.0
H1806 H 0.89833 0.67275 0.35266 0.0
H1807 H 0.92328 0.65875 0.32309 0.0
C1808 C 0.01201 0.68793 0.23796 0.0
C1809 C 0.99298 0.69717 0.22847 0.0
C1810 C 0.00936 0.67377 0.25669 0.0
C1811 C 0.98761 0.66802 0.26619 0.0
C1812 C 0.96856 0.67724 0.25671 0.0
C1813 C 0.97121 0.6917 0.23812 0.0
C1814 C 0.98478 0.65284 0.28621 0.0
C1815 C 0.97048 0.65994 0.30343 0.0
C1816 C 0.99663 0.63187 0.28869 0.0
C1817 C 0.01056 0.62234 0.2708 0.0
C1818 C 1.00112 0.61934 0.25167 0.0
C1819 C 0.01436 0.61049 0.23481 0.0
C1820 C 0.03702 0.60441 0.23694 0.0
C1821 C 0.04647 0.60711 0.25596 0.0
C1822 C 0.03331 0.61597 0.27286 0.0
C1823 C 0.95242 0.58876 0.37147 0.0
C1824 C 0.97044 0.58436 0.38431 0.0
C1825 C 0.95568 0.60205 0.3523 0.0
C1826 C 0.97708 0.61113 0.34538 0.0
C1827 C 0.99531 0.60621 0.35777 0.0
C1828 C 0.99198 0.59313 0.37716 0.0
C1829 C 0.98013 0.6262 0.32548 0.0
C1830 C 0.99442 0.61906 0.30836 0.0
C1831 C 0.96802 0.64694 0.32297 0.0
C1832 C 0.95305 0.65564 0.34066 0.0
C1833 C 0.96152 0.65868 0.36023 0.0
C1834 C 0.94722 0.66651 0.37693 0.0
C1835 C 0.92446 0.67155 0.37421 0.0
C1836 C 0.91596 0.66882 0.35476 0.0
C1837 C 0.93018 0.66095 0.33801 0.0
H1838 H 0.91341 0.67761 0.38717 0.0
H1839 H 0.04724 0.59756 0.22387 0.0
H1840 H 0.28268 0.06059 0.17128 0.0
H1841 H 0.25442 0.06137 0.14518 0.0
H1842 H 0.21922 0.00591 0.18159 0.0
H1843 H 0.24813 0.00428 0.20671 0.0
H1844 H 0.22148 0.99707 0.14366 0.0
H1845 H 0.20057 0.06511 0.17853 0.0
H1846 H 0.20624 0.10293 0.19091 0.0
H1847 H 0.22343 0.12953 0.12678 0.0
H1848 H 0.21817 0.09177 0.11405 0.0
H1849 H 0.10773 0.01331 0.11548 0.0
H1850 H 0.14327 0.01184 0.13253 0.0
H1851 H 0.17802 0.04431 0.07595 0.0
H1852 H 0.1425 0.04515 0.05849 0.0
H1853 H 0.17991 0.06577 0.11809 0.0
H1854 H 0.19502 0.9967 0.08415 0.0
H1855 H 0.18569 0.9589 0.07374 0.0
H1856 H 0.17551 0.93438 0.13922 0.0
H1857 H 0.18445 0.97214 0.15004 0.0
C1858 C 0.26867 0.04884 0.17376 0.0
C1859 C 0.26744 0.03244 0.19099 0.0
C1860 C 0.2525 0.04928 0.15888 0.0
C1861 C 0.23447 0.03377 0.16139 0.0
C1862 C 0.23299 0.01792 0.17908 0.0
C1863 C 0.24942 0.0171 0.19355 0.0
C1864 C 0.21747 0.03323 0.14544 0.0
C1865 C 0.21233 0.01215 0.13826 0.0
C1866 C 0.20588 0.05291 0.13771 0.0
C1867 C 0.20928 0.07555 0.14538 0.0
C1868 C 0.20578 0.07897 0.16709 0.0
C1869 C 0.20888 0.10041 0.17417 0.0
C1870 C 0.21528 0.1186 0.15965 0.0
C1871 C 0.21855 0.11541 0.13802 0.0
C1872 C 0.21551 0.094 0.13087 0.0
C1873 C 0.12309 0.01953 0.10647 0.0
C1874 C 0.12246 0.02916 0.08563 0.0
C1875 C 0.14333 0.01877 0.11624 0.0
C1876 C 0.16319 0.02805 0.1055 0.0
C1877 C 0.16283 0.03704 0.08444 0.0
C1878 C 0.14264 0.0373 0.07445 0.0
C1879 C 0.18368 0.02965 0.11706 0.0
C1880 C 0.18941 0.05087 0.12335 0.0
C1881 C 0.19549 0.01009 0.12434 0.0
C1882 C 0.19024 0.98731 0.1179 0.0
C1883 C 0.1906 0.9833 0.09634 0.0
C1884 C 0.18543 0.96187 0.09036 0.0
C1885 C 0.17997 0.94426 0.10581 0.0
C1886 C 0.17973 0.94804 0.12727 0.0
C1887 C 0.18488 0.96944 0.13333 0.0
H1888 H 0.17597 0.92768 0.10115 0.0
H1889 H 0.21765 0.13519 0.16516 0.0
H1890 H 0.74028 0.52215 0.17955 0.0
H1891 H 0.77182 0.51864 0.15268 0.0
H1892 H 0.76059 0.44669 0.15397 0.0
H1893 H 0.72904 0.45002 0.18154 0.0
H1894 H 0.80405 0.45407 0.15341 0.0
H1895 H 0.74652 0.48343 0.11163 0.0
H1896 H 0.71518 0.50877 0.10143 0.0
H1897 H 0.76014 0.56557 0.09458 0.0
H1898 H 0.79168 0.54064 0.10507 0.0
H1899 H 0.87661 0.47787 0.04532 0.0
H1900 H 0.83877 0.47842 0.06493 0.0
H1901 H 0.8696 0.48986 0.12213 0.0
H1902 H 0.90711 0.4887 0.10291 0.0
H1903 H 0.81284 0.50671 0.08859 0.0
H1904 H 0.84563 0.45815 0.16323 0.0
H1905 H 0.87627 0.43099 0.17151 0.0
H1906 H 0.87812 0.40772 0.109 0.0
H1907 H 0.84722 0.43443 0.10046 0.0
C1908 C 0.74433 0.50554 0.17409 0.0
C1909 C 0.73202 0.48636 0.18271 0.0
C1910 C 0.76237 0.50359 0.15856 0.0
C1911 C 0.76841 0.48247 0.15093 0.0
C1912 C 0.7562 0.46321 0.1595 0.0
C1913 C 0.73815 0.46512 0.17524 0.0
C1914 C 0.7881 0.48064 0.13472 0.0
C1915 C 0.80585 0.46546 0.13918 0.0
C1916 C 0.79033 0.49508 0.11578 0.0
C1917 C 0.77146 0.51015 0.10925 0.0
C1918 C 0.74971 0.50134 0.10807 0.0
C1919 C 0.7319 0.51564 0.10222 0.0
C1920 C 0.73566 0.53877 0.09738 0.0
C1921 C 0.75725 0.54765 0.09833 0.0
C1922 C 0.77511 0.53343 0.1042 0.0
C1923 C 0.8752 0.481 0.06197 0.0
C1924 C 0.89478 0.48304 0.07264 0.0
C1925 C 0.85361 0.48121 0.07318 0.0
C1926 C 0.85138 0.48356 0.09514 0.0
C1927 C 0.87089 0.48739 0.10534 0.0
C1928 C 0.89233 0.48689 0.09429 0.0
C1929 C 0.82905 0.48089 0.10785 0.0
C1930 C 0.81085 0.49514 0.1027 0.0
C1931 C 0.82616 0.46519 0.12588 0.0
C1932 C 0.84417 0.44842 0.13118 0.0
C1933 C 0.85242 0.4471 0.15131 0.0
C1934 C 0.86987 0.43181 0.15604 0.0
C1935 C 0.87916 0.41767 0.14078 0.0
C1936 C 0.87094 0.41871 0.12079 0.0
C1937 C 0.85345 0.43392 0.11601 0.0
H1938 H 0.8927 0.4059 0.14446 0.0
H1939 H 0.72185 0.54981 0.09287 0.0
H1940 H 0.28521 0.95235 0.28714 0.0
H1941 H 0.25723 0.94683 0.31804 0.0
H1942 H 0.2241 0.00974 0.29905 0.0
H1943 H 0.25244 0.01572 0.26898 0.0
H1944 H 0.2268 0.00914 0.33837 0.0
H1945 H 0.20265 0.95429 0.2932 0.0
H1946 H 0.20582 0.92121 0.27169 0.0
H1947 H 0.22203 0.87847 0.32606 0.0
H1948 H 0.2192 0.91137 0.34785 0.0
H1949 H 0.11195 0.99091 0.38103 0.0
H1950 H 0.14814 0.99577 0.35929 0.0
H1951 H 0.18036 0.94891 0.40287 0.0
H1952 H 0.14414 0.94462 0.42516 0.0
H1953 H 0.18224 0.93902 0.35637 0.0
H1954 H 0.19931 0.99646 0.40193 0.0
H1955 H 0.19105 0.03058 0.42138 0.0
H1956 H 0.18301 0.0699 0.36285 0.0
H1957 H 0.19089 0.03594 0.34306 0.0
C1958 C 0.2718 0.96485 0.28954 0.0
C1959 C 0.27102 0.98448 0.27569 0.0
C1960 C 0.25579 0.96169 0.30718 0.0
C1961 C 0.23838 0.97783 0.31095 0.0
C1962 C 0.23741 0.99712 0.29674 0.0
C1963 C 0.25359 1.00049 0.27945 0.0
C1964 C 0.22136 0.97519 0.32978 0.0
C1965 C 0.21703 0.99379 0.34216 0.0
C1966 C 0.20885 0.95503 0.33524 0.0
C1967 C 0.21104 0.93534 0.32207 0.0
C1968 C 0.20713 0.93788 0.30051 0.0
C1969 C 0.20881 0.91915 0.28828 0.0
C1970 C 0.21421 0.89777 0.29748 0.0
C1971 C 0.21791 0.89506 0.31894 0.0
C1972 C 0.21627 0.91373 0.33124 0.0
C1973 C 0.12697 0.98232 0.38636 0.0
C1974 C 0.12545 0.96771 0.40488 0.0
C1975 C 0.14756 0.98499 0.3739 0.0
C1976 C 0.16687 0.97266 0.37947 0.0
C1977 C 0.16564 0.95863 0.39839 0.0
C1978 C 0.14508 0.95639 0.41119 0.0
C1979 C 0.18751 0.97309 0.36437 0.0
C1980 C 0.19243 0.95413 0.35272 0.0
C1981 C 0.20012 0.99309 0.35919 0.0
C1982 C 0.19556 0.0136 0.37103 0.0
C1983 C 0.19561 0.01234 0.39322 0.0
C1984 C 0.19103 0.03166 0.4043 0.0
C1985 C 0.18647 0.05239 0.39336 0.0
C1986 C 0.18654 0.05384 0.3713 0.0
C1987 C 0.1911 0.03456 0.36015 0.0
H1988 H 0.18292 0.06733 0.40197 0.0
H1989 H 0.21545 0.88329 0.288 0.0
H1990 H 0.74365 0.55431 0.25584 0.0
H1991 H 0.77003 0.55405 0.2837 0.0
H1992 H 0.73709 0.4949 0.31567 0.0
H1993 H 0.71124 0.49471 0.28784 0.0
H1994 H 0.74801 0.53118 0.34255 0.0
H1995 H 0.78029 0.4835 0.28863 0.0
H1996 H 0.79302 0.47542 0.2519 0.0
H1997 H 0.84083 0.52972 0.24773 0.0
H1998 H 0.82809 0.53837 0.28435 0.0
H1999 H 0.83427 0.50207 0.41176 0.0
H2000 H 0.80584 0.49795 0.38643 0.0
H2001 H 0.84306 0.54483 0.34122 0.0
H2002 H 0.87173 0.54811 0.3658 0.0
H2003 H 0.82854 0.51191 0.3217 0.0
H2004 H 0.79634 0.5613 0.37399 0.0
H2005 H 0.78337 0.57156 0.41004 0.0
H2006 H 0.73567 0.51703 0.41686 0.0
H2007 H 0.74859 0.50626 0.38092 0.0
C2008 C 0.742 0.54145 0.26894 0.0
C2009 C 0.72577 0.52436 0.26964 0.0
C2010 C 0.75696 0.5413 0.28475 0.0
C2011 C 0.75542 0.52436 0.30153 0.0
C2012 C 0.73847 0.50803 0.30278 0.0
C2013 C 0.7239 0.50787 0.28682 0.0
C2014 C 0.77241 0.52264 0.31708 0.0
C2015 C 0.7656 0.52677 0.33814 0.0
C2016 C 0.79525 0.51703 0.31108 0.0
C2017 C 0.80305 0.51174 0.28913 0.0
C2018 C 0.79336 0.49386 0.27981 0.0
C2019 C 0.8006 0.48915 0.25903 0.0
C2020 C 0.81768 0.50209 0.24747 0.0
C2021 C 0.82758 0.51974 0.25669 0.0
C2022 C 0.82036 0.52454 0.27746 0.0
C2023 C 0.83645 0.51118 0.39629 0.0
C2024 C 0.8549 0.52575 0.39087 0.0
C2025 C 0.82017 0.50898 0.38193 0.0
C2026 C 0.82217 0.52143 0.36211 0.0
C2027 C 0.84111 0.53517 0.35645 0.0
C2028 C 0.85735 0.53722 0.37062 0.0
C2029 C 0.80439 0.52096 0.34728 0.0
C2030 C 0.81098 0.51626 0.32626 0.0
C2031 C 0.78141 0.52635 0.35331 0.0
C2032 C 0.77363 0.53281 0.37489 0.0
C2033 C 0.78322 0.55139 0.38325 0.0
C2034 C 0.77586 0.55731 0.40364 0.0
C2035 C 0.75876 0.5449 0.41576 0.0
C2036 C 0.74895 0.52659 0.40748 0.0
C2037 C 0.75628 0.52057 0.3871 0.0
H2038 H 0.75308 0.54952 0.43155 0.0
H2039 H 0.82327 0.49842 0.23139 0.0
H2040 H 0.21556 0.26277 0.05253 0.0
H2041 H 0.18876 0.23143 0.06024 0.0
H2042 H 0.18382 0.22757 0.99329 0.0
H2043 H 0.20996 0.25905 0.98554 0.0
H2044 H 0.14343 0.2241 0.01282 0.0
H2045 H 0.21591 0.18933 0.02367 0.0
H2046 H 0.25247 0.18356 0.03924 0.0
H2047 H 0.21737 0.17205 0.10121 0.0
H2048 H 0.18059 0.17815 0.08605 0.0
H2049 H 0.09959 0.11162 0.01363 0.0
H2050 H 0.12347 0.14544 0.00831 0.0
H2051 H 0.11639 0.15274 0.07558 0.0
H2052 H 0.09236 0.11927 0.08103 0.0
H2053 H 0.16158 0.15497 0.05756 0.0
H2054 H 0.08889 0.18816 0.04574 0.0
H2055 H 0.05269 0.19197 0.02929 0.0
H2056 H 0.08896 0.2048 0.968 0.0
H2057 H 0.12542 0.20068 0.98405 0.0
C2058 C 0.20878 0.2552 0.03947 0.0
C2059 C 0.21499 0.26343 0.01841 0.0
C2060 C 0.19351 0.23722 0.04389 0.0
C2061 C 0.18437 0.22691 0.02734 0.0
C2062 C 0.19052 0.23521 0.00636 0.0
C2063 C 0.20559 0.25322 0.00195 0.0
C2064 C 0.16834 0.20756 0.03166 0.0
C2065 C 0.14757 0.2089 0.02243 0.0
C2066 C 0.17339 0.18784 0.04457 0.0
C2067 C 0.1955 0.1845 0.05375 0.0
C2068 C 0.21599 0.18582 0.04065 0.0
C2069 C 0.23675 0.18245 0.0494 0.0
C2070 C 0.23724 0.17753 0.07121 0.0
C2071 C 0.21697 0.17594 0.08432 0.0
C2072 C 0.19616 0.17936 0.07566 0.0
C2073 C 0.10292 0.12057 0.02725 0.0
C2074 C 0.09399 0.11277 0.04773 0.0
C2075 C 0.11656 0.13989 0.02419 0.0
C2076 C 0.12169 0.15161 0.04156 0.0
C2077 C 0.11267 0.14394 0.06197 0.0
C2078 C 0.09882 0.12486 0.06502 0.0
C2079 C 0.13695 0.17151 0.03854 0.0
C2080 C 0.1575 0.17024 0.04803 0.0
C2081 C 0.1318 0.1912 0.02575 0.0
C2082 C 0.1099 0.19388 0.01608 0.0
C2083 C 0.08916 0.1916 0.02873 0.0
C2084 C 0.06859 0.19385 0.01949 0.0
C2085 C 0.06853 0.19857 0.99761 0.0
C2086 C 0.08904 0.20111 0.98494 0.0
C2087 C 0.10966 0.19884 0.99411 0.0
H2088 H 0.05259 0.2003 0.99048 0.0
H2089 H 0.25333 0.17488 0.07795 0.0
H2090 H 0.20625 0.7296 0.49694 0.0
H2091 H 0.17489 0.75459 0.48775 0.0
H2092 H 0.21725 0.7853 0.43464 0.0
H2093 H 0.24828 0.7591 0.44314 0.0
H2094 H 0.17004 0.79548 0.48966 0.0
H2095 H 0.18642 0.81182 0.3976 0.0
H2096 H 0.19976 0.79046 0.36692 0.0
H2097 H 0.18038 0.72799 0.40227 0.0
H2098 H 0.16658 0.74897 0.43303 0.0
H2099 H 0.11842 0.8979 0.46134 0.0
H2100 H 0.14438 0.86592 0.46565 0.0
H2101 H 0.10566 0.82753 0.42656 0.0
H2102 H 0.08044 0.86051 0.42091 0.0
H2103 H 0.14666 0.81726 0.41784 0.0
H2104 H 0.10277 0.81881 0.48378 0.0
H2105 H 0.08426 0.8351 0.51562 0.0
H2106 H 0.14937 0.85202 0.53454 0.0
H2107 H 0.16827 0.83611 0.50266 0.0
C2108 C 0.20875 0.74146 0.4831 0.0
C2109 C 0.2297 0.74244 0.47076 0.0
C2110 C 0.19081 0.75583 0.47787 0.0
C2111 C 0.19351 0.772 0.46048 0.0
C2112 C 0.21441 0.77274 0.44788 0.0
C2113 C 0.23223 0.75784 0.45279 0.0
C2114 C 0.17503 0.78899 0.45662 0.0
C2115 C 0.1649 0.80007 0.47393 0.0
C2116 C 0.16765 0.79472 0.43625 0.0
C2117 C 0.17567 0.78199 0.4177 0.0
C2118 C 0.1849 0.79354 0.3988 0.0
C2119 C 0.19256 0.78149 0.38139 0.0
C2120 C 0.19098 0.75788 0.38266 0.0
C2121 C 0.18166 0.74627 0.40132 0.0
C2122 C 0.17394 0.75823 0.41875 0.0
C2123 C 0.1153 0.88258 0.45378 0.0
C2124 C 0.09715 0.88155 0.4411 0.0
C2125 C 0.13015 0.8642 0.45633 0.0
C2126 C 0.12671 0.84388 0.44701 0.0
C2127 C 0.10867 0.84289 0.43408 0.0
C2128 C 0.09416 0.86166 0.43096 0.0
C2129 C 0.14209 0.82395 0.45084 0.0
C2130 C 0.15167 0.81242 0.43357 0.0
C2131 C 0.14819 0.81693 0.47143 0.0
C2132 C 0.13692 0.82639 0.49074 0.0
C2133 C 0.11313 0.82611 0.49467 0.0
C2134 C 0.10257 0.83527 0.51273 0.0
C2135 C 0.11563 0.84462 0.52708 0.0
C2136 C 0.13928 0.84478 0.52342 0.0
C2137 C 0.14993 0.83566 0.50537 0.0
H2138 H 0.10742 0.85172 0.54104 0.0
H2139 H 0.19694 0.74859 0.36918 0.0
H2140 H 0.82703 0.7811 0.48753 0.0
H2141 H 0.85591 0.7513 0.48328 0.0
H2142 H 0.81877 0.72339 0.4362 0.0
H2143 H 0.78997 0.75372 0.43991 0.0
H2144 H 0.83123 0.69669 0.48195 0.0
H2145 H 0.85818 0.736 0.41418 0.0
H2146 H 0.87318 0.76872 0.39112 0.0
H2147 H 0.92984 0.77195 0.42848 0.0
H2148 H 0.91493 0.73947 0.45202 0.0
H2149 H 0.88922 0.60121 0.45033 0.0
H2150 H 0.86859 0.63665 0.45239 0.0
H2151 H 0.92811 0.66898 0.47017 0.0
H2152 H 0.94957 0.63307 0.46741 0.0
H2153 H 0.90702 0.69586 0.44148 0.0
H2154 H 0.88379 0.65601 0.5072 0.0
H2155 H 0.87047 0.62364 0.53162 0.0
H2156 H 0.8083 0.62275 0.50168 0.0
H2157 H 0.82137 0.65492 0.47685 0.0
C2158 C 0.82524 0.76887 0.47596 0.0
C2159 C 0.80623 0.76959 0.46411 0.0
C2160 C 0.8418 0.75198 0.47349 0.0
C2161 C 0.83951 0.73537 0.45931 0.0
C2162 C 0.82092 0.73635 0.44699 0.0
C2163 C 0.80452 0.7536 0.44912 0.0
C2164 C 0.8548 0.71539 0.4597 0.0
C2165 C 0.84769 0.69633 0.4729 0.0
C2166 C 0.87669 0.71557 0.44877 0.0
C2167 C 0.88526 0.73551 0.43503 0.0
C2168 C 0.87363 0.74391 0.41769 0.0
C2169 C 0.8822 0.76233 0.40445 0.0
C2170 C 0.90247 0.77238 0.40831 0.0
C2171 C 0.91417 0.76411 0.42548 0.0
C2172 C 0.90566 0.74571 0.43878 0.0
C2173 C 0.89808 0.6157 0.45485 0.0
C2174 C 0.92109 0.61418 0.45891 0.0
C2175 C 0.88613 0.63603 0.45609 0.0
C2176 C 0.89662 0.65539 0.46184 0.0
C2177 C 0.91965 0.65416 0.46584 0.0
C2178 C 0.93183 0.63365 0.46439 0.0
C2179 C 0.88317 0.67672 0.46324 0.0
C2180 C 0.89064 0.69616 0.45063 0.0
C2181 C 0.86169 0.6771 0.47506 0.0
C2182 C 0.85364 0.65782 0.49007 0.0
C2183 C 0.86734 0.64883 0.50572 0.0
C2184 C 0.85982 0.63052 0.51966 0.0
C2185 C 0.83857 0.62112 0.51818 0.0
C2186 C 0.82476 0.63005 0.5028 0.0
C2187 C 0.8322 0.64835 0.48881 0.0
H2188 H 0.83278 0.60695 0.52898 0.0
H2189 H 0.9091 0.78661 0.39802 0.0
H2190 H 0.31037 0.77116 0.48739 0.0
H2191 H 0.33672 0.80177 0.49002 0.0
H2192 H 0.337 0.78446 0.5572 0.0
H2193 H 0.30999 0.7539 0.55476 0.0
H2194 H 0.33818 0.83012 0.54805 0.0
H2195 H 0.37903 0.76544 0.52397 0.0
H2196 H 0.38754 0.73352 0.50165 0.0
H2197 H 0.39846 0.78005 0.44656 0.0
H2198 H 0.38965 0.81226 0.46851 0.0
H2199 H 0.44191 0.88392 0.55773 0.0
H2200 H 0.41617 0.85257 0.55579 0.0
H2201 H 0.40373 0.87702 0.49216 0.0
H2202 H 0.42932 0.90884 0.49399 0.0
H2203 H 0.40963 0.82712 0.50074 0.0
H2204 H 0.3681 0.89209 0.52684 0.0
H2205 H 0.36235 0.92287 0.55091 0.0
H2206 H 0.35475 0.87394 0.60445 0.0
H2207 H 0.36112 0.84285 0.58074 0.0
C2208 C 0.31583 0.77399 0.50279 0.0
C2209 C 0.3084 0.75996 0.52084 0.0
C2210 C 0.33092 0.79146 0.50425 0.0
C2211 C 0.33922 0.795 0.5237 0.0
C2212 C 0.33089 0.78186 0.54201 0.0
C2213 C 0.3155 0.76445 0.5406 0.0
C2214 C 0.35748 0.8116 0.52447 0.0
C2215 C 0.3539 0.82931 0.53791 0.0
C2216 C 0.37795 0.81058 0.51111 0.0
C2217 C 0.38348 0.79126 0.49786 0.0
C2218 C 0.38309 0.76886 0.50707 0.0
C2219 C 0.38798 0.75072 0.49449 0.0
C2220 C 0.39349 0.75475 0.47269 0.0
C2221 C 0.39417 0.77695 0.46344 0.0
C2222 C 0.38924 0.79517 0.47595 0.0
C2223 C 0.43407 0.88246 0.54314 0.0
C2224 C 0.43748 0.89898 0.52605 0.0
C2225 C 0.41934 0.86456 0.54211 0.0
C2226 C 0.40795 0.86276 0.52395 0.0
C2227 C 0.41241 0.87828 0.50632 0.0
C2228 C 0.42697 0.89641 0.50741 0.0
C2229 C 0.39013 0.84567 0.52405 0.0
C2230 C 0.39387 0.82787 0.51084 0.0
C2231 C 0.36999 0.84646 0.53781 0.0
C2232 C 0.36532 0.86513 0.55202 0.0
C2233 C 0.36537 0.88789 0.54376 0.0
C2234 C 0.36199 0.9054 0.55733 0.0
C2235 C 0.3582 0.90037 0.57919 0.0
C2236 C 0.35771 0.87781 0.58751 0.0
C2237 C 0.36122 0.86024 0.57401 0.0
H2238 H 0.35564 0.91394 0.58969 0.0
H2239 H 0.39727 0.74068 0.46298 0.0
H2240 H 0.51206 0.69055 0.81778 0.0
H2241 H 0.51864 0.66648 0.78833 0.0
H2242 H 0.57407 0.70904 0.76153 0.0
H2243 H 0.56753 0.73336 0.7913 0.0
H2244 H 0.54162 0.70276 0.73369 0.0
H2245 H 0.585 0.6558 0.78022 0.0
H2246 H 0.59208 0.6343 0.81382 0.0
H2247 H 0.53579 0.59112 0.80781 0.0
H2248 H 0.52816 0.61255 0.77431 0.0
H2249 H 0.56889 0.63548 0.64766 0.0
H2250 H 0.56895 0.6571 0.6787 0.0
H2251 H 0.52014 0.61132 0.71282 0.0
H2252 H 0.52089 0.58876 0.68196 0.0
H2253 H 0.55192 0.61925 0.73725 0.0
H2254 H 0.50593 0.66597 0.69359 0.0
H2255 H 0.49472 0.68858 0.66194 0.0
H2256 H 0.55098 0.73295 0.66423 0.0
H2257 H 0.56277 0.71037 0.6957 0.0
C2258 C 0.52597 0.69454 0.80584 0.0
C2259 C 0.53928 0.71383 0.80676 0.0
C2260 C 0.52977 0.68069 0.78908 0.0
C2261 C 0.54691 0.68588 0.77281 0.0
C2262 C 0.56083 0.70469 0.77403 0.0
C2263 C 0.55719 0.71847 0.79105 0.0
C2264 C 0.54853 0.67292 0.75364 0.0
C2265 C 0.54438 0.68456 0.7343 0.0
C2266 C 0.55115 0.64906 0.75478 0.0
C2267 C 0.55591 0.63591 0.77479 0.0
C2268 C 0.57403 0.64181 0.78612 0.0
C2269 C 0.57816 0.62962 0.80514 0.0
C2270 C 0.56436 0.61138 0.81297 0.0
C2271 C 0.54646 0.60526 0.80173 0.0
C2272 C 0.54225 0.6174 0.7827 0.0
C2273 C 0.55824 0.62985 0.66179 0.0
C2274 C 0.54505 0.61018 0.66235 0.0
C2275 C 0.55809 0.64245 0.67949 0.0
C2276 C 0.54441 0.636 0.69811 0.0
C2277 C 0.53085 0.61664 0.69864 0.0
C2278 C 0.53111 0.60388 0.68091 0.0
C2279 C 0.5449 0.6491 0.71715 0.0
C2280 C 0.54937 0.63748 0.7365 0.0
C2281 C 0.54212 0.67299 0.71614 0.0
C2282 C 0.53542 0.68626 0.69685 0.0
C2283 C 0.51609 0.68037 0.68719 0.0
C2284 C 0.50959 0.69322 0.66931 0.0
C2285 C 0.52218 0.71214 0.66103 0.0
C2286 C 0.54129 0.71825 0.67062 0.0
C2287 C 0.54789 0.70542 0.68847 0.0
H2288 H 0.51708 0.7221 0.64722 0.0
H2289 H 0.56757 0.60199 0.82771 0.0
H2290 H 0.4575 0.77398 0.78886 0.0
H2291 H 0.45647 0.79682 0.75497 0.0
H2292 H 0.50755 0.8408 0.77316 0.0
H2293 H 0.50897 0.81792 0.80672 0.0
H2294 H 0.47054 0.86361 0.75387 0.0
H2295 H 0.52415 0.80176 0.74368 0.0
H2296 H 0.53629 0.76168 0.74369 0.0
H2297 H 0.48767 0.74962 0.69968 0.0
H2298 H 0.47483 0.78951 0.6998 0.0
H2299 H 0.50504 0.92178 0.65525 0.0
H2300 H 0.50615 0.89927 0.68911 0.0
H2301 H 0.46781 0.84672 0.66553 0.0
H2302 H 0.46783 0.86839 0.63143 0.0
H2303 H 0.49788 0.82793 0.68796 0.0
H2304 H 0.4427 0.88721 0.69812 0.0
H2305 H 0.42826 0.92658 0.69763 0.0
H2306 H 0.47624 0.94251 0.741 0.0
H2307 H 0.49118 0.90329 0.74152 0.0
C2308 C 0.46817 0.78877 0.78574 0.0
C2309 C 0.48336 0.79419 0.80031 0.0
C2310 C 0.46769 0.80167 0.76638 0.0
C2311 C 0.48212 0.82031 0.76157 0.0
C2312 C 0.49636 0.82643 0.7766 0.0
C2313 C 0.49716 0.81335 0.79571 0.0
C2314 C 0.4832 0.833 0.74056 0.0
C2315 C 0.47668 0.85591 0.73944 0.0
C2316 C 0.49076 0.82269 0.72178 0.0
C2317 C 0.4983 0.79859 0.72198 0.0
C2318 C 0.51581 0.79051 0.73423 0.0
C2319 C 0.52286 0.76782 0.73418 0.0
C2320 C 0.5127 0.75311 0.72175 0.0
C2321 C 0.49547 0.76103 0.70935 0.0
C2322 C 0.48828 0.78367 0.70943 0.0
C2323 C 0.49724 0.90525 0.65716 0.0
C2324 C 0.48602 0.89707 0.64074 0.0
C2325 C 0.49763 0.89251 0.67661 0.0
C2326 C 0.48657 0.87152 0.68006 0.0
C2327 C 0.47628 0.86292 0.66336 0.0
C2328 C 0.4761 0.87548 0.64391 0.0
C2329 C 0.48514 0.85867 0.70114 0.0
C2330 C 0.49164 0.83569 0.70232 0.0
C2331 C 0.47716 0.8688 0.71994 0.0
C2332 C 0.46822 0.89239 0.71967 0.0
C2333 C 0.45029 0.89916 0.70742 0.0
C2334 C 0.442 0.92144 0.70716 0.0
C2335 C 0.45137 0.93705 0.71922 0.0
C2336 C 0.46902 0.93041 0.73163 0.0
C2337 C 0.4774 0.90816 0.73192 0.0
H2338 H 0.44492 0.95429 0.71901 0.0
H2339 H 0.51821 0.73559 0.72165 0.0
H2340 H 0.57375 0.26922 0.70788 0.0
H2341 H 0.58261 0.30011 0.72963 0.0
H2342 H 0.52045 0.33458 0.71481 0.0
H2343 H 0.51169 0.30431 0.69334 0.0
H2344 H 0.55418 0.3645 0.71643 0.0
H2345 H 0.52057 0.29817 0.7579 0.0
H2346 H 0.52028 0.25778 0.77085 0.0
H2347 H 0.58427 0.2654 0.7964 0.0
H2348 H 0.58503 0.3058 0.78334 0.0
H2349 H 0.51208 0.39073 0.8318 0.0
H2350 H 0.51451 0.36939 0.80021 0.0
H2351 H 0.5769 0.40319 0.77698 0.0
H2352 H 0.57438 0.42488 0.80845 0.0
H2353 H 0.55048 0.34006 0.79308 0.0
H2354 H 0.58078 0.40095 0.72103 0.0
H2355 H 0.57616 0.44088 0.70767 0.0
H2356 H 0.5114 0.44429 0.74381 0.0
H2357 H 0.51551 0.40434 0.75717 0.0
C2358 C 0.56226 0.2836 0.70909 0.0
C2359 C 0.54181 0.28419 0.69943 0.0
C2360 C 0.56734 0.3012 0.72139 0.0
C2361 C 0.55209 0.3195 0.72385 0.0
C2362 C 0.53247 0.32067 0.71304 0.0
C2363 C 0.52734 0.30317 0.70104 0.0
C2364 C 0.55444 0.33604 0.7397 0.0
C2365 C 0.55386 0.35925 0.73319 0.0
C2366 C 0.55351 0.32907 0.76151 0.0
C2367 C 0.553 0.30486 0.76943 0.0
C2368 C 0.53464 0.29117 0.76615 0.0
C2369 C 0.53438 0.2683 0.77352 0.0
C2370 C 0.55228 0.25901 0.78438 0.0
C2371 C 0.57045 0.2726 0.78794 0.0
C2372 C 0.57081 0.29548 0.78055 0.0
C2373 C 0.52586 0.3942 0.81961 0.0
C2374 C 0.54316 0.40924 0.82259 0.0
C2375 C 0.52735 0.38187 0.8017 0.0
C2376 C 0.54603 0.38458 0.78649 0.0
C2377 C 0.56238 0.40091 0.78858 0.0
C2378 C 0.56094 0.4132 0.80654 0.0
C2379 C 0.5496 0.36854 0.76986 0.0
C2380 C 0.55147 0.34543 0.77631 0.0
C2381 C 0.55119 0.37564 0.74805 0.0
C2382 C 0.54864 0.39976 0.74034 0.0
C2383 C 0.56557 0.41024 0.72614 0.0
C2384 C 0.56303 0.43287 0.71855 0.0
C2385 C 0.54355 0.44514 0.72496 0.0
C2386 C 0.52654 0.4348 0.73895 0.0
C2387 C 0.52901 0.41219 0.74659 0.0
H2388 H 0.54159 0.46264 0.71904 0.0
H2389 H 0.55205 0.2413 0.79008 0.0
H2390 H 0.52239 0.19429 0.7232 0.0
H2391 H 0.51722 0.16945 0.75556 0.0
H2392 H 0.44453 0.17463 0.754 0.0
H2393 H 0.44965 0.20035 0.72181 0.0
H2394 H 0.45368 0.17681 0.79271 0.0
H2395 H 0.47573 0.12389 0.74133 0.0
H2396 H 0.49863 0.1075 0.71176 0.0
H2397 H 0.55722 0.1054 0.74715 0.0
H2398 H 0.53455 0.1215 0.77709 0.0
H2399 H 0.43021 0.0827 0.8675 0.0
H2400 H 0.43539 0.10536 0.8337 0.0
H2401 H 0.50571 0.1151 0.84314 0.0
H2402 H 0.50062 0.09258 0.8773 0.0
H2403 H 0.49705 0.10456 0.8006 0.0
H2404 H 0.47119 0.15576 0.85357 0.0
H2405 H 0.44499 0.16777 0.88317 0.0
H2406 H 0.38991 0.17054 0.84341 0.0
H2407 H 0.41569 0.15808 0.81368 0.0
C2408 C 0.50526 0.19008 0.72961 0.0
C2409 C 0.48643 0.19927 0.71975 0.0
C2410 C 0.50232 0.1757 0.74815 0.0
C2411 C 0.48047 0.16967 0.75717 0.0
C2412 C 0.46159 0.17889 0.74741 0.0
C2413 C 0.46453 0.19357 0.72893 0.0
C2414 C 0.4775 0.15421 0.777 0.0
C2415 C 0.46295 0.16088 0.79425 0.0
C2416 C 0.48973 0.13346 0.77936 0.0
C2417 C 0.50352 0.12411 0.76133 0.0
C2418 C 0.49354 0.12009 0.74273 0.0
C2419 C 0.50647 0.11081 0.72592 0.0
C2420 C 0.52942 0.10561 0.72748 0.0
C2421 C 0.53945 0.1095 0.74594 0.0
C2422 C 0.52655 0.11859 0.76287 0.0
C2423 C 0.4469 0.08937 0.86233 0.0
C2424 C 0.46502 0.08578 0.87518 0.0
C2425 C 0.44977 0.10245 0.84301 0.0
C2426 C 0.47087 0.11211 0.83598 0.0
C2427 C 0.48927 0.10783 0.84829 0.0
C2428 C 0.48634 0.09495 0.86781 0.0
C2429 C 0.47341 0.12727 0.81612 0.0
C2430 C 0.48785 0.12053 0.79895 0.0
C2431 C 0.46074 0.1477 0.81372 0.0
C2432 C 0.44535 0.15579 0.83144 0.0
C2433 C 0.45346 0.15877 0.85117 0.0
C2434 C 0.43869 0.16567 0.86798 0.0
C2435 C 0.41579 0.16987 0.86519 0.0
C2436 C 0.40764 0.16726 0.84556 0.0
C2437 C 0.42233 0.16029 0.82872 0.0
H2438 H 0.40438 0.17521 0.87821 0.0
H2439 H 0.53939 0.09847 0.71442 0.0
H2440 H 0.77272 0.55808 0.6858 0.0
H2441 H 0.74449 0.56091 0.65966 0.0
H2442 H 0.73605 0.48839 0.66712 0.0
H2443 H 0.76439 0.48538 0.69265 0.0
H2444 H 0.73608 0.50194 0.62686 0.0
H2445 H 0.69878 0.52574 0.69275 0.0
H2446 H 0.69336 0.54947 0.72312 0.0
H2447 H 0.68742 0.60885 0.68064 0.0
H2448 H 0.69309 0.58548 0.65 0.0
H2449 H 0.60606 0.51854 0.6183 0.0
H2450 H 0.64051 0.51548 0.63666 0.0
H2451 H 0.68082 0.53174 0.57755 0.0
H2452 H 0.64603 0.53435 0.5589 0.0
H2453 H 0.66729 0.54956 0.64047 0.0
H2454 H 0.73577 0.51021 0.58371 0.0
H2455 H 0.73899 0.48337 0.55567 0.0
H2456 H 0.67871 0.44966 0.58384 0.0
H2457 H 0.67531 0.47611 0.61217 0.0
C2458 C 0.76483 0.54277 0.68184 0.0
C2459 C 0.7707 0.52154 0.69144 0.0
C2460 C 0.74873 0.54439 0.66688 0.0
C2461 C 0.73801 0.52486 0.6615 0.0
C2462 C 0.74415 0.50368 0.67087 0.0
C2463 C 0.76029 0.50203 0.68562 0.0
C2464 C 0.71962 0.52625 0.64693 0.0
C2465 C 0.72111 0.5125 0.62973 0.0
C2466 C 0.69998 0.53987 0.6507 0.0
C2467 C 0.69665 0.55392 0.6691 0.0
C2468 C 0.69651 0.54388 0.68989 0.0
C2469 C 0.69336 0.55726 0.70715 0.0
C2470 C 0.69013 0.58066 0.70381 0.0
C2471 C 0.68998 0.59073 0.6832 0.0
C2472 C 0.69316 0.57743 0.66589 0.0
C2473 C 0.62231 0.5209 0.60911 0.0
C2474 C 0.62342 0.52668 0.5872 0.0
C2475 C 0.64198 0.51932 0.61965 0.0
C2476 C 0.66324 0.52367 0.60857 0.0
C2477 C 0.6646 0.52822 0.58642 0.0
C2478 C 0.64477 0.52957 0.57576 0.0
C2479 C 0.68348 0.52483 0.62071 0.0
C2480 C 0.6824 0.53924 0.63738 0.0
C2481 C 0.7032 0.51143 0.61673 0.0
C2482 C 0.70514 0.49533 0.59988 0.0
C2483 C 0.72324 0.49705 0.58392 0.0
C2484 C 0.72509 0.4819 0.56799 0.0
C2485 C 0.70901 0.46488 0.56793 0.0
C2486 C 0.69109 0.46292 0.58385 0.0
C2487 C 0.68917 0.47801 0.59983 0.0
H2488 H 0.71047 0.45318 0.55558 0.0
H2489 H 0.68768 0.59099 0.7172 0.0
H2490 H 0.25481 0.95891 0.693 0.0
H2491 H 0.28655 0.95699 0.66565 0.0
H2492 H 0.26651 0.02164 0.63674 0.0
H2493 H 0.23482 0.02388 0.66422 0.0
H2494 H 0.28054 0.98668 0.60707 0.0
H2495 H 0.30619 0.02391 0.66534 0.0
H2496 H 0.3113 0.02777 0.70298 0.0
H2497 H 0.34978 0.96557 0.70552 0.0
H2498 H 0.34456 0.96114 0.66797 0.0
H2499 H 0.39052 1.00204 0.54658 0.0
H2500 H 0.35402 0.0077 0.56762 0.0
H2501 H 0.37065 0.95235 0.61198 0.0
H2502 H 0.40678 0.94705 0.59163 0.0
H2503 H 0.35733 0.98733 0.63259 0.0
H2504 H 0.33017 0.94772 0.57646 0.0
H2505 H 0.32444 0.94146 0.53938 0.0
H2506 H 0.28911 0.00527 0.53297 0.0
H2507 H 0.29481 0.01199 0.56998 0.0
C2508 C 0.25696 0.97261 0.6807 0.0
C2509 C 0.24238 0.99162 0.68088 0.0
C2510 C 0.27511 0.97149 0.66509 0.0
C2511 C 0.2789 0.98923 0.64925 0.0
C2512 C 0.26383 0.00777 0.64882 0.0
C2513 C 0.24583 0.00906 0.6646 0.0
C2514 C 0.29955 0.98903 0.63414 0.0
C2515 C 0.29737 0.98716 0.61252 0.0
C2516 C 0.32144 0.98935 0.64137 0.0
C2517 C 0.3248 0.99209 0.6639 0.0
C2518 C 0.31558 0.01096 0.67397 0.0
C2519 C 0.31852 0.01326 0.69528 0.0
C2520 C 0.33081 0.99689 0.70665 0.0
C2521 C 0.34024 0.97822 0.69671 0.0
C2522 C 0.33731 0.97581 0.67541 0.0
C2523 C 0.38623 0.99106 0.56076 0.0
C2524 C 0.40169 0.97438 0.56762 0.0
C2525 C 0.36538 0.99423 0.57273 0.0
C2526 C 0.35963 0.98052 0.5915 0.0
C2527 C 0.37477 0.96336 0.59777 0.0
C2528 C 0.39549 0.96037 0.58606 0.0
C2529 C 0.33851 0.98432 0.60544 0.0
C2530 C 0.34057 0.98702 0.62696 0.0
C2531 C 0.31659 0.98447 0.59811 0.0
C2532 C 0.31316 0.98048 0.57588 0.0
C2533 C 0.32136 0.9605 0.56707 0.0
C2534 C 0.31808 0.95685 0.54609 0.0
C2535 C 0.30651 0.973 0.5338 0.0
C2536 C 0.29811 0.9928 0.54249 0.0
C2537 C 0.30134 0.99653 0.56348 0.0
H2538 H 0.30399 0.97015 0.51756 0.0
H2539 H 0.33307 0.99871 0.72315 0.0
H2540 H 0.78758 0.44816 0.79486 0.0
H2541 H 0.75851 0.44412 0.82502 0.0
H2542 H 0.71904 0.4978 0.79559 0.0
H2543 H 0.74863 0.50273 0.7664 0.0
H2544 H 0.71832 0.50524 0.83351 0.0
H2545 H 0.70691 0.43706 0.79903 0.0
H2546 H 0.71697 0.40033 0.78457 0.0
H2547 H 0.73376 0.37309 0.84586 0.0
H2548 H 0.72411 0.40977 0.86062 0.0
H2549 H 0.60635 0.48273 0.87772 0.0
H2550 H 0.64255 0.48701 0.85615 0.0
H2551 H 0.67615 0.44806 0.9046 0.0
H2552 H 0.63969 0.44398 0.92653 0.0
H2553 H 0.68366 0.43244 0.86252 0.0
H2554 H 0.68864 0.50179 0.89677 0.0
H2555 H 0.6731 0.53781 0.90932 0.0
H2556 H 0.66324 0.56225 0.8454 0.0
H2557 H 0.6785 0.52629 0.83247 0.0
C2558 C 0.77253 0.45886 0.79482 0.0
C2559 C 0.7703 0.47574 0.77834 0.0
C2560 C 0.75588 0.45654 0.81204 0.0
C2561 C 0.73635 0.47057 0.81268 0.0
C2562 C 0.73394 0.4869 0.79575 0.0
C2563 C 0.7508 0.48962 0.77894 0.0
C2564 C 0.71864 0.46903 0.83108 0.0
C2565 C 0.71075 0.48925 0.8397 0.0
C2566 C 0.70899 0.4482 0.83979 0.0
C2567 C 0.71515 0.42627 0.83084 0.0
C2568 C 0.71299 0.42331 0.80937 0.0
C2569 C 0.71857 0.40249 0.80113 0.0
C2570 C 0.72611 0.38442 0.81426 0.0
C2571 C 0.72802 0.38713 0.83568 0.0
C2572 C 0.72251 0.40793 0.84399 0.0
C2573 C 0.62157 0.47562 0.88403 0.0
C2574 C 0.62032 0.46326 0.90386 0.0
C2575 C 0.64222 0.47803 0.87169 0.0
C2576 C 0.66205 0.46791 0.87879 0.0
C2577 C 0.66104 0.45608 0.89889 0.0
C2578 C 0.64032 0.45398 0.91148 0.0
C2579 C 0.68325 0.46858 0.86436 0.0
C2580 C 0.69172 0.44826 0.85654 0.0
C2581 C 0.69308 0.48932 0.85601 0.0
C2582 C 0.68467 0.5113 0.86366 0.0
C2583 C 0.68312 0.51483 0.88539 0.0
C2584 C 0.67436 0.53524 0.89257 0.0
C2585 C 0.66716 0.5523 0.87817 0.0
C2586 C 0.66884 0.54903 0.85654 0.0
C2587 C 0.67761 0.52866 0.84927 0.0
H2588 H 0.66029 0.56805 0.88377 0.0
H2589 H 0.73038 0.3683 0.80786 0.0
H2590 H 0.21523 0.07058 0.77121 0.0
H2591 H 0.23508 0.0744 0.80306 0.0
H2592 H 0.27845 0.01763 0.78728 0.0
H2593 H 0.25868 0.01365 0.75576 0.0
H2594 H 0.25533 0.01138 0.82671 0.0
H2595 H 0.29943 0.07006 0.7848 0.0
H2596 H 0.30449 0.10617 0.76292 0.0
H2597 H 0.27164 0.14211 0.8136 0.0
H2598 H 0.26612 0.10615 0.83569 0.0
H2599 H 0.34843 0.00674 0.88778 0.0
H2600 H 0.31867 0.00734 0.86359 0.0
H2601 H 0.28987 0.06785 0.88966 0.0
H2602 H 0.32012 0.06757 0.91355 0.0
H2603 H 0.29852 0.07511 0.84904 0.0
H2604 H 0.25951 0.01723 0.89297 0.0
H2605 H 0.25447 0.98131 0.91512 0.0
H2606 H 0.27663 0.94391 0.86158 0.0
H2607 H 0.28212 0.9796 0.83915 0.0
C2608 C 0.22953 0.05948 0.7742 0.0
C2609 C 0.23536 0.0417 0.76122 0.0
C2610 C 0.24073 0.06157 0.79243 0.0
C2611 C 0.25795 0.04604 0.79762 0.0
C2612 C 0.26498 0.02955 0.78366 0.0
C2613 C 0.25379 0.0274 0.76562 0.0
C2614 C 0.26736 0.04534 0.8184 0.0
C2615 C 0.26491 0.02524 0.83161 0.0
C2616 C 0.27885 0.06382 0.82511 0.0
C2617 C 0.2821 0.0854 0.81179 0.0
C2618 C 0.29308 0.08564 0.7912 0.0
C2619 C 0.29608 0.10608 0.77878 0.0
C2620 C 0.28832 0.12641 0.78683 0.0
C2621 C 0.27759 0.12635 0.80736 0.0
C2622 C 0.27454 0.10595 0.81984 0.0
C2623 C 0.33521 0.01961 0.88892 0.0
C2624 C 0.33654 0.03715 0.90238 0.0
C2625 C 0.31818 0.01998 0.87509 0.0
C2626 C 0.30202 0.03768 0.87479 0.0
C2627 C 0.30222 0.05411 0.88956 0.0
C2628 C 0.31939 0.05388 0.90324 0.0
C2629 C 0.2873 0.04075 0.85712 0.0
C2630 C 0.28859 0.06134 0.84447 0.0
C2631 C 0.27463 0.02272 0.85096 0.0
C2632 C 0.27133 1.00115 0.86439 0.0
C2633 C 0.26346 1.00136 0.88594 0.0
C2634 C 0.2605 0.98103 0.89854 0.0
C2635 C 0.26525 0.96035 0.88977 0.0
C2636 C 0.27294 0.95995 0.86835 0.0
C2637 C 0.27594 0.98022 0.85568 0.0
H2638 H 0.26295 0.94463 0.89956 0.0
H2639 H 0.29067 0.14222 0.7772 0.0
H2640 H 0.73426 0.75061 0.54486 0.0
H2641 H 0.70865 0.71815 0.55211 0.0
H2642 H 0.66875 0.74469 0.50204 0.0
H2643 H 0.6948 0.77635 0.49416 0.0
H2644 H 0.66641 0.70989 0.56388 0.0
H2645 H 0.64916 0.70405 0.47569 0.0
H2646 H 0.66869 0.71264 0.44006 0.0
H2647 H 0.73334 0.70632 0.46587 0.0
H2648 H 0.71422 0.69738 0.50158 0.0
H2649 H 0.57656 0.63326 0.56327 0.0
H2650 H 0.60076 0.66663 0.55724 0.0
H2651 H 0.65023 0.62853 0.51973 0.0
H2652 H 0.62529 0.59567 0.52458 0.0
H2653 H 0.65023 0.66755 0.50256 0.0
H2654 H 0.6544 0.63999 0.57464 0.0
H2655 H 0.6391 0.62723 0.61092 0.0
H2656 H 0.60934 0.69304 0.61907 0.0
H2657 H 0.62421 0.7061 0.58272 0.0
C2658 C 0.7199 0.74955 0.53556 0.0
C2659 C 0.71672 0.7658 0.51874 0.0
C2660 C 0.70525 0.73101 0.53971 0.0
C2661 C 0.68703 0.72857 0.52728 0.0
C2662 C 0.68305 0.74569 0.51143 0.0
C2663 C 0.69791 0.76388 0.507 0.0
C2664 C 0.67274 0.7078 0.53016 0.0
C2665 C 0.66289 0.70063 0.55048 0.0
C2666 C 0.66857 0.6952 0.51282 0.0
C2667 C 0.68023 0.70027 0.49134 0.0
C2668 C 0.66754 0.7044 0.47374 0.0
C2669 C 0.67854 0.70935 0.45354 0.0
C2670 C 0.70224 0.7101 0.45072 0.0
C2671 C 0.71499 0.70582 0.46808 0.0
C2672 C 0.70408 0.70083 0.48831 0.0
C2673 C 0.59248 0.63214 0.55352 0.0
C2674 C 0.59905 0.61187 0.54439 0.0
C2675 C 0.60646 0.65116 0.55026 0.0
C2676 C 0.62774 0.65007 0.53849 0.0
C2677 C 0.63399 0.62994 0.52892 0.0
C2678 C 0.61971 0.61112 0.53168 0.0
C2679 C 0.64353 0.66976 0.53625 0.0
C2680 C 0.65371 0.67675 0.51602 0.0
C2681 C 0.64873 0.68157 0.55382 0.0
C2682 C 0.64027 0.67396 0.57589 0.0
C2683 C 0.64453 0.65171 0.58415 0.0
C2684 C 0.63593 0.64443 0.60472 0.0
C2685 C 0.62321 0.6593 0.61727 0.0
C2686 C 0.61918 0.68153 0.60932 0.0
C2687 C 0.62771 0.6889 0.58874 0.0
H2688 H 0.6165 0.6536 0.63317 0.0
H2689 H 0.71071 0.71396 0.43507 0.0
H2690 H 0.71296 0.24748 1.00131 0.0
H2691 H 0.68243 0.27262 0.99079 0.0
H2692 H 0.70695 0.26924 0.92509 0.0
H2693 H 0.73806 0.24392 0.93562 0.0
H2694 H 0.69696 0.31227 0.93348 0.0
H2695 H 0.65291 0.24425 0.94217 0.0
H2696 H 0.63784 0.20791 0.95887 0.0
H2697 H 0.61621 0.24001 0.01574 0.0
H2698 H 0.63039 0.27673 0.99907 0.0
H2699 H 0.59685 0.37435 0.90589 0.0
H2700 H 0.62425 0.34297 0.90891 0.0
H2701 H 0.61657 0.34398 0.97694 0.0
H2702 H 0.58941 0.3755 0.97408 0.0
H2703 H 0.61701 0.29981 0.96245 0.0
H2704 H 0.65998 0.36928 0.95038 0.0
H2705 H 0.67177 0.40515 0.93043 0.0
H2706 H 0.6955 0.36883 0.87661 0.0
H2707 H 0.68343 0.33274 0.89611 0.0
C2708 C 0.71193 0.25191 0.98457 0.0
C2709 C 0.72808 0.24359 0.96932 0.0
C2710 C 0.69423 0.2662 0.97855 0.0
C2711 C 0.69205 0.27261 0.9571 0.0
C2712 C 0.70816 0.26444 0.94174 0.0
C2713 C 0.72594 0.24998 0.94778 0.0
C2714 C 0.67362 0.28881 0.95119 0.0
C2715 C 0.67941 0.30931 0.93941 0.0
C2716 C 0.65069 0.28522 0.95905 0.0
C2717 C 0.64288 0.26313 0.96946 0.0
C2718 C 0.64503 0.24351 0.95827 0.0
C2719 C 0.63649 0.22291 0.96766 0.0
C2720 C 0.62627 0.2216 0.98842 0.0
C2721 C 0.62421 0.24101 0.9997 0.0
C2722 C 0.63229 0.26177 0.99022 0.0
C2723 C 0.60072 0.36767 0.92152 0.0
C2724 C 0.59091 0.37744 0.93976 0.0
C2725 C 0.61651 0.34983 0.92319 0.0
C2726 C 0.62262 0.34127 0.94314 0.0
C2727 C 0.61214 0.35034 0.96139 0.0
C2728 C 0.59661 0.36837 0.95973 0.0
C2729 C 0.64044 0.32334 0.94511 0.0
C2730 C 0.63452 0.3026 0.95622 0.0
C2731 C 0.66313 0.32663 0.93631 0.0
C2732 C 0.67054 0.34832 0.92463 0.0
C2733 C 0.6675 0.36895 0.93422 0.0
C2734 C 0.67427 0.38932 0.923 0.0
C2735 C 0.68434 0.38927 0.90225 0.0
C2736 C 0.68767 0.36884 0.89268 0.0
C2737 C 0.68086 0.34842 0.90381 0.0
H2738 H 0.68963 0.40504 0.89363 0.0
H2739 H 0.61989 0.20557 0.99572 0.0
H2740 H 0.31818 0.27505 0.99362 0.0
H2741 H 0.34794 0.24747 0.98494 0.0
H2742 H 0.32305 0.2423 0.9238 0.0
H2743 H 0.29318 0.27043 0.93227 0.0
H2744 H 0.3269 0.2007 0.94744 0.0
H2745 H 0.38024 0.26043 0.92015 0.0
H2746 H 0.40073 0.29646 0.91998 0.0
H2747 H 0.41932 0.27787 0.98281 0.0
H2748 H 0.39955 0.24139 0.98301 0.0
H2749 H 0.40864 0.12168 0.91528 0.0
H2750 H 0.3878 0.15753 0.91612 0.0
H2751 H 0.41336 0.16896 0.97587 0.0
H2752 H 0.43515 0.13308 0.97463 0.0
H2753 H 0.4099 0.20853 0.95089 0.0
H2754 H 0.36133 0.14543 0.97455 0.0
H2755 H 0.34485 0.10797 0.97141 0.0
H2756 H 0.31631 0.13307 0.91429 0.0
H2757 H 0.33289 0.17064 0.91693 0.0
C2758 C 0.31912 0.26829 0.97819 0.0
C2759 C 0.30317 0.27484 0.96368 0.0
C2760 C 0.33634 0.25267 0.97319 0.0
C2761 C 0.33787 0.24299 0.95366 0.0
C2762 C 0.32227 0.24975 0.9389 0.0
C2763 C 0.30519 0.26575 0.94377 0.0
C2764 C 0.354 0.22391 0.94999 0.0
C2765 C 0.34509 0.2025 0.94776 0.0
C2766 C 0.37762 0.22607 0.9511 0.0
C2767 C 0.38828 0.24839 0.95167 0.0
C2768 C 0.38862 0.26412 0.93395 0.0
C2769 C 0.40032 0.28447 0.93375 0.0
C2770 C 0.41131 0.28946 0.95138 0.0
C2771 C 0.41081 0.27399 0.96917 0.0
C2772 C 0.39952 0.25341 0.96927 0.0
C2773 C 0.41006 0.132 0.92847 0.0
C2774 C 0.42314 0.12457 0.94508 0.0
C2775 C 0.39813 0.15245 0.92894 0.0
C2776 C 0.39849 0.1656 0.94634 0.0
C2777 C 0.4127 0.15894 0.96238 0.0
C2778 C 0.4251 0.13852 0.9617 0.0
C2779 C 0.3828 0.18534 0.9483 0.0
C2780 C 0.39173 0.20676 0.95042 0.0
C2781 C 0.35912 0.18316 0.94709 0.0
C2782 C 0.34849 0.1608 0.94586 0.0
C2783 C 0.3516 0.14295 0.96128 0.0
C2784 C 0.34225 0.12169 0.95959 0.0
C2785 C 0.32959 0.11813 0.94263 0.0
C2786 C 0.32614 0.13586 0.9274 0.0
C2787 C 0.33548 0.15714 0.929 0.0
H2788 H 0.32242 0.10164 0.94131 0.0
H2789 H 0.42013 0.30535 0.95129 0.0
H2790 H 0.80659 0.25127 0.05454 0.0
H2791 H 0.83234 0.28224 0.05876 0.0
H2792 H 0.83596 0.30026 0.99143 0.0
H2793 H 0.81094 0.26899 0.98705 0.0
H2794 H 0.87652 0.29946 0.00376 0.0
H2795 H 0.80503 0.33198 0.02873 0.0
H2796 H 0.76864 0.33398 0.05079 0.0
H2797 H 0.80421 0.33126 0.10694 0.0
H2798 H 0.84081 0.32893 0.08522 0.0
H2799 H 0.9229 0.4103 0.00237 0.0
H2800 H 0.89887 0.37761 0.99949 0.0
H2801 H 0.90478 0.35654 0.06528 0.0
H2802 H 0.92878 0.38906 0.06833 0.0
H2803 H 0.86036 0.35829 0.0548 0.0
H2804 H 0.93218 0.32726 0.0286 0.0
H2805 H 0.96807 0.32668 0.00564 0.0
H2806 H 0.93087 0.32827 0.95055 0.0
H2807 H 0.89474 0.32918 0.97317 0.0
C2808 C 0.81272 0.26199 0.0407 0.0
C2809 C 0.80681 0.2577 0.02047 0.0
C2810 C 0.82739 0.27971 0.04312 0.0
C2811 C 0.83598 0.29367 0.02541 0.0
C2812 C 0.82965 0.28965 0.0053 0.0
C2813 C 0.81529 0.27181 0.00283 0.0
C2814 C 0.85218 0.312 0.02758 0.0
C2815 C 0.87283 0.31248 0.01474 0.0
C2816 C 0.84763 0.32869 0.04226 0.0
C2817 C 0.82564 0.33003 0.05536 0.0
C2818 C 0.80508 0.33161 0.04579 0.0
C2819 C 0.78442 0.33284 0.05824 0.0
C2820 C 0.78411 0.33268 0.08026 0.0
C2821 C 0.80447 0.33134 0.08988 0.0
C2822 C 0.82518 0.33008 0.07751 0.0
C2823 C 0.91932 0.39855 0.01614 0.0
C2824 C 0.92774 0.40225 0.03556 0.0
C2825 C 0.90563 0.37989 0.01447 0.0
C2826 C 0.90013 0.3647 0.03218 0.0
C2827 C 0.90884 0.36812 0.05145 0.0
C2828 C 0.92264 0.38665 0.05311 0.0
C2829 C 0.88446 0.34578 0.03086 0.0
C2830 C 0.86398 0.3452 0.04388 0.0
C2831 C 0.88904 0.32914 0.01621 0.0
C2832 C 0.91075 0.3285 0.00258 0.0
C2833 C 0.93165 0.32767 0.01158 0.0
C2834 C 0.95204 0.32725 0.99863 0.0
C2835 C 0.95175 0.32749 0.97665 0.0
C2836 C 0.93107 0.3281 0.96758 0.0
C2837 C 0.91063 0.32855 0.98046 0.0
H2838 H 0.96756 0.32716 0.96665 0.0
H2839 H 0.7681 0.33364 0.08987 0.0
loop_
_geom_bond_atom_site_label_1
_geom_bond_atom_site_label_2
_geom_bond_distance
_geom_bond_site_symmetry_2
_ccdc_geom_bond_type
C0 O2 1.247 . S
C0 O4 1.258 1_455 S
C1 O8 1.247 . S
C1 O9 1.258 1_655 S
O2 C0 1.247 . S
O2 Zn3 2.028 . S
Zn3 O2 2.028 . S
Zn3 O7 2.035 . S
Zn3 O9 2.035 . S
Zn3 O10 2.028 . S
O4 C0 1.258 1_655 S
O4 Zn5 2.035 . S
Zn5 O4 2.035 . S
Zn5 O6 2.028 . S
Zn5 O8 2.028 . S
Zn5 O11 2.035 . S
O6 Zn5 2.028 . S
O6 C12 1.247 . S
O7 Zn3 2.035 . S
O7 C12 1.258 1_455 S
O8 C1 1.247 . S
O8 Zn5 2.028 . S
O9 C1 1.258 1_455 S
O9 Zn3 2.035 . S
O10 Zn3 2.028 . S
O10 C13 1.247 . S
O11 Zn5 2.035 . S
O11 C13 1.258 1_655 S
C12 O6 1.247 . S
C12 O7 1.258 1_655 S
C13 O10 1.247 . S
C13 O11 1.258 1_455 S
C14 O16 1.247 . S
C14 O18 1.258 1_455 S
C15 O22 1.247 . S
C15 O23 1.258 1_655 S
O16 C14 1.247 . S
O16 Zn17 2.028 . S
Zn17 O16 2.028 . S
Zn17 O21 2.035 . S
Zn17 O23 2.035 . S
Zn17 O24 2.028 . S
O18 C14 1.258 1_655 S
O18 Zn19 2.035 . S
Zn19 O18 2.035 . S
Zn19 O20 2.028 . S
Zn19 O22 2.028 . S
Zn19 O25 2.035 . S
O20 Zn19 2.028 . S
O20 C26 1.247 . S
O21 Zn17 2.035 . S
O21 C26 1.258 1_455 S
O22 C15 1.247 . S
O22 Zn19 2.028 . S
O23 C15 1.258 1_455 S
O23 Zn17 2.035 . S
O24 Zn17 2.028 . S
O24 C27 1.247 . S
O25 Zn19 2.035 . S
O25 C27 1.258 1_655 S
C26 O20 1.247 . S
C26 O21 1.258 1_655 S
C27 O24 1.247 . S
C27 O25 1.258 1_455 S
C28 O30 1.247 1_545 S
C28 O32 1.258 . S
C29 O36 1.247 . S
C29 O37 1.258 1_545 S
O30 C28 1.247 1_565 S
O30 Zn31 2.028 . S
Zn31 O30 2.028 . S
Zn31 O35 2.035 . S
Zn31 O37 2.035 . S
Zn31 O38 2.028 . S
O32 C28 1.258 . S
O32 Zn33 2.035 . S
Zn33 O32 2.035 . S
Zn33 O34 2.028 . S
Zn33 O36 2.028 . S
Zn33 O39 2.035 . S
O34 Zn33 2.028 . S
O34 C40 1.247 . S
O35 Zn31 2.035 . S
O35 C40 1.258 1_565 S
O36 C29 1.247 . S
O36 Zn33 2.028 . S
O37 C29 1.258 1_565 S
O37 Zn31 2.035 . S
O38 Zn31 2.028 . S
O38 C41 1.247 1_565 S
O39 Zn33 2.035 . S
O39 C41 1.258 . S
C40 O34 1.247 . S
C40 O35 1.258 1_545 S
C41 O38 1.247 1_545 S
C41 O39 1.258 . S
C42 O44 1.247 . S
C42 O46 1.258 . S
C43 O50 1.247 . S
C43 O51 1.258 . S
O44 C42 1.247 . S
O44 Zn45 2.028 . S
Zn45 O44 2.028 . S
Zn45 O49 2.035 . S
Zn45 O51 2.035 . S
Zn45 O52 2.028 . S
O46 C42 1.258 . S
O46 Zn47 2.035 . S
Zn47 O46 2.035 . S
Zn47 O48 2.028 . S
Zn47 O50 2.028 . S
Zn47 O53 2.035 . S
O48 Zn47 2.028 . S
O48 C54 1.247 . S
O49 Zn45 2.035 . S
O49 C54 1.258 . S
O50 C43 1.247 . S
O50 Zn47 2.028 . S
O51 C43 1.258 . S
O51 Zn45 2.035 . S
O52 Zn45 2.028 . S
O52 C55 1.247 . S
O53 Zn47 2.035 . S
O53 C55 1.258 . S
C54 O48 1.247 . S
C54 O49 1.258 . S
C55 O52 1.247 . S
C55 O53 1.258 . S
C56 O58 1.247 1_554 S
C56 O60 1.258 . S
C57 O64 1.247 1_556 S
C57 O65 1.258 . S
O58 C56 1.247 1_556 S
O58 Zn59 2.028 . S
Zn59 O58 2.028 . S
Zn59 O63 2.035 . S
Zn59 O65 2.035 . S
Zn59 O66 2.028 . S
O60 C56 1.258 . S
O60 Zn61 2.035 . S
Zn61 O60 2.035 . S
Zn61 O62 2.028 . S
Zn61 O64 2.028 . S
Zn61 O67 2.035 . S
O62 Zn61 2.028 . S
O62 C68 1.247 1_554 S
O63 Zn59 2.035 . S
O63 C68 1.258 . S
O64 C57 1.247 1_554 S
O64 Zn61 2.028 . S
O65 C57 1.258 . S
O65 Zn59 2.035 . S
O66 Zn59 2.028 . S
O66 C69 1.247 1_556 S
O67 Zn61 2.035 . S
O67 C69 1.258 . S
C68 O62 1.247 1_556 S
C68 O63 1.258 . S
C69 O66 1.247 1_554 S
C69 O67 1.258 . S
C70 O72 1.247 . S
C70 O74 1.258 . S
C71 O78 1.247 . S
C71 O79 1.258 . S
O72 C70 1.247 . S
O72 Zn73 2.028 . S
Zn73 O72 2.028 . S
Zn73 O77 2.035 . S
Zn73 O79 2.035 . S
Zn73 O80 2.028 . S
O74 C70 1.258 . S
O74 Zn75 2.035 . S
Zn75 O74 2.035 . S
Zn75 O76 2.028 . S
Zn75 O78 2.028 . S
Zn75 O81 2.035 . S
O76 Zn75 2.028 . S
O76 C82 1.247 . S
O77 Zn73 2.035 . S
O77 C82 1.258 . S
O78 C71 1.247 . S
O78 Zn75 2.028 . S
O79 C71 1.258 . S
O79 Zn73 2.035 . S
O80 Zn73 2.028 . S
O80 C83 1.247 . S
O81 Zn75 2.035 . S
O81 C83 1.258 . S
C82 O76 1.247 . S
C82 O77 1.258 . S
C83 O80 1.247 . S
C83 O81 1.258 . S
C84 O86 1.247 . S
C84 O88 1.258 . S
C85 O92 1.247 . S
C85 O93 1.258 . S
O86 C84 1.247 . S
O86 Zn87 2.028 . S
Zn87 O86 2.028 . S
Zn87 O91 2.035 . S
Zn87 O93 2.035 . S
Zn87 O94 2.028 . S
O88 C84 1.258 . S
O88 Zn89 2.035 . S
Zn89 O88 2.035 . S
Zn89 O90 2.028 . S
Zn89 O92 2.028 . S
Zn89 O95 2.035 . S
O90 Zn89 2.028 . S
O90 C96 1.247 . S
O91 Zn87 2.035 . S
O91 C96 1.258 . S
O92 C85 1.247 . S
O92 Zn89 2.028 . S
O93 C85 1.258 . S
O93 Zn87 2.035 . S
O94 Zn87 2.028 . S
O94 C97 1.247 . S
O95 Zn89 2.035 . S
O95 C97 1.258 . S
C96 O90 1.247 . S
C96 O91 1.258 . S
C97 O94 1.247 . S
C97 O95 1.258 . S
C98 O100 1.247 . S
C98 O102 1.258 . S
C99 O106 1.247 . S
C99 O107 1.258 . S
O100 C98 1.247 . S
O100 Zn101 2.028 . S
Zn101 O100 2.028 . S
Zn101 O105 2.035 . S
Zn101 O107 2.035 . S
Zn101 O108 2.028 . S
O102 C98 1.258 . S
O102 Zn103 2.035 . S
Zn103 O102 2.035 . S
Zn103 O104 2.028 . S
Zn103 O106 2.028 . S
Zn103 O109 2.035 . S
O104 Zn103 2.028 . S
O104 C110 1.247 . S
O105 Zn101 2.035 . S
O105 C110 1.258 . S
O106 C99 1.247 . S
O106 Zn103 2.028 . S
O107 C99 1.258 . S
O107 Zn101 2.035 . S
O108 Zn101 2.028 . S
O108 C111 1.247 . S
O109 Zn103 2.035 . S
O109 C111 1.258 . S
C110 O104 1.247 . S
C110 O105 1.258 . S
C111 O108 1.247 . S
C111 O109 1.258 . S
C112 O114 1.247 . S
C112 O116 1.258 . S
C113 O120 1.247 . S
C113 O121 1.258 . S
O114 C112 1.247 . S
O114 Zn115 2.028 . S
Zn115 O114 2.028 . S
Zn115 O119 2.035 . S
Zn115 O121 2.035 . S
Zn115 O122 2.028 . S
O116 C112 1.258 . S
O116 Zn117 2.035 . S
Zn117 O116 2.035 . S
Zn117 O118 2.028 . S
Zn117 O120 2.028 . S
Zn117 O123 2.035 . S
O118 Zn117 2.028 . S
O118 C124 1.247 . S
O119 Zn115 2.035 . S
O119 C124 1.258 . S
O120 C113 1.247 . S
O120 Zn117 2.028 . S
O121 C113 1.258 . S
O121 Zn115 2.035 . S
O122 Zn115 2.028 . S
O122 C125 1.247 . S
O123 Zn117 2.035 . S
O123 C125 1.258 . S
C124 O118 1.247 . S
C124 O119 1.258 . S
C125 O122 1.247 . S
C125 O123 1.258 . S
C126 O128 1.247 . S
C126 O130 1.258 . S
C127 O134 1.247 . S
C127 O135 1.258 . S
O128 C126 1.247 . S
O128 Zn129 2.028 . S
Zn129 O128 2.028 . S
Zn129 O133 2.035 . S
Zn129 O135 2.035 . S
Zn129 O136 2.028 . S
O130 C126 1.258 . S
O130 Zn131 2.035 . S
Zn131 O130 2.035 . S
Zn131 O132 2.028 . S
Zn131 O134 2.028 . S
Zn131 O137 2.035 . S
O132 Zn131 2.028 . S
O132 C138 1.247 . S
O133 Zn129 2.035 . S
O133 C138 1.258 . S
O134 C127 1.247 . S
O134 Zn131 2.028 . S
O135 C127 1.258 . S
O135 Zn129 2.035 . S
O136 Zn129 2.028 . S
O136 C139 1.247 . S
O137 Zn131 2.035 . S
O137 C139 1.258 . S
C138 O132 1.247 . S
C138 O133 1.258 . S
C139 O136 1.247 . S
C139 O137 1.258 . S
C140 O142 1.247 . S
C140 O144 1.258 1_565 S
C141 O148 1.247 . S
C141 O149 1.258 1_545 S
O142 C140 1.247 . S
O142 Zn143 2.028 . S
Zn143 O142 2.028 . S
Zn143 O147 2.035 . S
Zn143 O149 2.035 . S
Zn143 O150 2.028 . S
O144 C140 1.258 1_545 S
O144 Zn145 2.035 . S
Zn145 O144 2.035 . S
Zn145 O146 2.028 . S
Zn145 O148 2.028 . S
Zn145 O151 2.035 . S
O146 Zn145 2.028 . S
O146 C152 1.247 . S
O147 Zn143 2.035 . S
O147 C152 1.258 1_565 S
O148 C141 1.247 . S
O148 Zn145 2.028 . S
O149 C141 1.258 1_565 S
O149 Zn143 2.035 . S
O150 Zn143 2.028 . S
O150 C153 1.247 . S
O151 Zn145 2.035 . S
O151 C153 1.258 1_545 S
C152 O146 1.247 . S
C152 O147 1.258 1_545 S
C153 O150 1.247 . S
C153 O151 1.258 1_565 S
C154 O156 1.247 . S
C154 O158 1.258 1_554 S
C155 O162 1.247 1_554 S
C155 O163 1.258 . S
O156 C154 1.247 . S
O156 Zn157 2.028 . S
Zn157 O156 2.028 . S
Zn157 O161 2.035 . S
Zn157 O163 2.035 . S
Zn157 O164 2.028 . S
O158 C154 1.258 1_556 S
O158 Zn159 2.035 . S
Zn159 O158 2.035 . S
Zn159 O160 2.028 . S
Zn159 O162 2.028 . S
Zn159 O165 2.035 . S
O160 Zn159 2.028 . S
O160 C166 1.247 1_556 S
O161 Zn157 2.035 . S
O161 C166 1.258 . S
O162 C155 1.247 1_556 S
O162 Zn159 2.028 . S
O163 C155 1.258 . S
O163 Zn157 2.035 . S
O164 Zn157 2.028 . S
O164 C167 1.253 . S
O165 Zn159 2.035 . S
O165 C167 1.253 1_556 S
C166 O160 1.247 1_554 S
C166 O161 1.258 . S
C167 O164 1.253 . S
C167 O165 1.253 1_554 S
C168 O184 1.251 . S
C168 O186 1.254 . S
N169 C170 1.330 1_554 S
N169 C174 1.307 1_554 S
N169 Zn175 2.020 . S
C170 N169 1.330 1_556 S
C170 C171 1.401 . S
C170 H188 0.933 1_556 S
C171 C170 1.401 . S
C171 C172 1.390 . S
C171 H198 0.949 . S
C172 C171 1.390 . S
C172 C173 1.357 . S
C173 C172 1.357 . S
C173 C174 1.370 . S
C173 H199 0.950 . S
C174 N169 1.307 1_556 S
C174 C173 1.370 . S
C174 H192 0.948 . S
Zn175 N169 2.020 . S
Zn175 O184 2.039 . S
Zn175 O190 2.034 . S
Zn175 O194 2.025 . S
Zn175 O196 2.024 . S
C176 O195 1.246 . S
C176 O196 1.249 . S
N177 C178 1.307 . S
N177 C179 1.333 . S
N177 Zn183 2.020 . S
C178 N177 1.307 . S
C178 C182 1.370 . S
C178 H189 0.948 . S
C179 N177 1.333 . S
C179 C180 1.379 . S
C179 H187 0.952 . S
C180 C179 1.379 . S
C180 C181 1.390 . S
C180 H200 0.949 1_455 S
C181 C180 1.390 . S
C181 C182 1.357 . S
C182 C178 1.370 . S
C182 C181 1.357 . S
C182 H201 0.950 . S
Zn183 N177 2.020 . S
Zn183 O186 2.025 . S
Zn183 O191 2.024 . S
Zn183 O193 2.039 . S
Zn183 O195 2.034 . S
O184 C168 1.251 . S
O184 Zn175 2.039 . S
C185 O190 1.246 . S
C185 O191 1.249 . S
O186 C168 1.254 . S
O186 Zn183 2.025 . S
H187 C179 0.952 . S
H188 C170 0.933 1_554 S
H189 C178 0.948 . S
O190 Zn175 2.034 . S
O190 C185 1.246 . S
O191 Zn183 2.024 . S
O191 C185 1.249 . S
H192 C174 0.948 . S
O193 Zn183 2.039 . S
O193 C197 1.251 . S
O194 Zn175 2.025 . S
O194 C197 1.254 . S
O195 C176 1.246 . S
O195 Zn183 2.034 . S
O196 Zn175 2.024 . S
O196 C176 1.249 . S
C197 O193 1.251 . S
C197 O194 1.254 . S
H198 C171 0.949 . S
H199 C173 0.950 . S
H200 C180 0.949 1_655 S
H201 C182 0.950 . S
C202 O218 1.251 . S
C202 O220 1.254 . S
N203 C204 1.333 . S
N203 C208 1.307 . S
N203 Zn209 2.020 1_556 S
C204 N203 1.333 . S
C204 C205 1.379 . S
C204 H222 0.956 1_556 S
C205 C204 1.379 . S
C205 C206 1.390 . S
C205 H232 0.949 . S
C206 C205 1.390 . S
C206 C207 1.357 . S
C207 C206 1.357 . S
C207 C208 1.370 . S
C207 H233 0.950 . S
C208 N203 1.307 . S
C208 C207 1.370 . S
C208 H226 0.948 . S
Zn209 N203 2.020 1_554 S
Zn209 O218 2.039 . S
Zn209 O224 2.034 . S
Zn209 O228 2.025 . S
Zn209 O230 2.024 . S
C210 O229 1.246 . S
C210 O230 1.249 . S
N211 C212 1.307 . S
N211 C213 1.328 . S
N211 Zn217 2.020 . S
C212 N211 1.307 . S
C212 C216 1.370 . S
C212 H223 0.948 . S
C213 N211 1.328 . S
C213 C214 1.382 1_655 S
C213 H221 0.955 1_655 S
C214 C213 1.382 1_455 S
C214 C215 1.390 1_455 S
C214 H234 0.949 . S
C215 C214 1.390 1_655 S
C215 C216 1.357 . S
C216 C212 1.370 . S
C216 C215 1.357 . S
C216 H235 0.950 . S
Zn217 N211 2.020 . S
Zn217 O220 2.025 . S
Zn217 O225 2.024 . S
Zn217 O227 2.039 . S
Zn217 O229 2.034 . S
O218 C202 1.251 . S
O218 Zn209 2.039 . S
C219 O224 1.246 . S
C219 O225 1.249 . S
O220 C202 1.254 . S
O220 Zn217 2.025 . S
H221 C213 0.955 1_455 S
H222 C204 0.956 1_554 S
H223 C212 0.948 . S
O224 Zn209 2.034 . S
O224 C219 1.246 . S
O225 Zn217 2.024 . S
O225 C219 1.249 . S
H226 C208 0.948 . S
O227 Zn217 2.039 . S
O227 C231 1.251 1_655 S
O228 Zn209 2.025 . S
O228 C231 1.254 1_655 S
O229 C210 1.246 . S
O229 Zn217 2.034 . S
O230 Zn209 2.024 . S
O230 C210 1.249 . S
C231 O227 1.251 1_455 S
C231 O228 1.254 1_455 S
H232 C205 0.949 . S
H233 C207 0.950 . S
H234 C214 0.949 . S
H235 C216 0.950 . S
C236 O252 1.251 . S
C236 O254 1.254 . S
N237 C238 1.333 . S
N237 C242 1.307 . S
N237 Zn243 2.020 . S
C238 N237 1.333 . S
C238 C239 1.379 . S
C238 H256 0.952 . S
C239 C238 1.379 . S
C239 C240 1.390 . S
C239 H266 0.949 . S
C240 C239 1.390 . S
C240 C241 1.357 . S
C241 C240 1.357 . S
C241 C242 1.370 . S
C241 H267 0.950 . S
C242 N237 1.307 . S
C242 C241 1.370 . S
C242 H260 0.948 . S
Zn243 N237 2.020 . S
Zn243 O252 2.039 . S
Zn243 O258 2.034 . S
Zn243 O262 2.025 . S
Zn243 O264 2.024 . S
C244 O263 1.246 . S
C244 O264 1.249 . S
N245 C246 1.307 . S
N245 C247 1.333 . S
N245 Zn251 2.020 . S
C246 N245 1.307 . S
C246 C250 1.370 . S
C246 H257 0.948 . S
C247 N245 1.333 . S
C247 C248 1.379 . S
C247 H255 0.952 . S
C248 C247 1.379 . S
C248 C249 1.390 . S
C248 H268 0.949 . S
C249 C248 1.390 . S
C249 C250 1.357 . S
C250 C246 1.370 . S
C250 C249 1.357 . S
C250 H269 0.950 1_565 S
Zn251 N245 2.020 . S
Zn251 O254 2.025 . S
Zn251 O259 2.024 . S
Zn251 O261 2.039 . S
Zn251 O263 2.034 . S
O252 C236 1.251 . S
O252 Zn243 2.039 . S
C253 O258 1.246 . S
C253 O259 1.249 . S
O254 C236 1.254 . S
O254 Zn251 2.025 . S
H255 C247 0.952 . S
H256 C238 0.952 . S
H257 C246 0.948 . S
O258 Zn243 2.034 . S
O258 C253 1.246 . S
O259 Zn251 2.024 . S
O259 C253 1.249 . S
H260 C242 0.948 . S
O261 Zn251 2.039 . S
O261 C265 1.251 . S
O262 Zn243 2.025 . S
O262 C265 1.254 . S
O263 C244 1.246 . S
O263 Zn251 2.034 . S
O264 Zn243 2.024 . S
O264 C244 1.249 . S
C265 O261 1.251 . S
C265 O262 1.254 . S
H266 C239 0.949 . S
H267 C241 0.950 . S
H268 C248 0.949 . S
H269 C250 0.950 1_545 S
C270 O286 1.251 . S
C270 O288 1.254 . S
N271 C272 1.333 . S
N271 C276 1.307 . S
N271 Zn277 2.020 1_455 S
C272 N271 1.333 . S
C272 C273 1.379 . S
C272 H290 0.952 1_455 S
C273 C272 1.379 . S
C273 C274 1.390 . S
C273 H300 0.949 . S
C274 C273 1.390 . S
C274 C275 1.357 . S
C275 C274 1.357 . S
C275 C276 1.370 . S
C275 H301 0.950 . S
C276 N271 1.307 . S
C276 C275 1.370 . S
C276 H294 0.948 . S
Zn277 N271 2.020 1_655 S
Zn277 O286 2.039 . S
Zn277 O292 2.034 . S
Zn277 O296 2.025 . S
Zn277 O298 2.024 . S
C278 O297 1.246 . S
C278 O298 1.249 . S
N279 C280 1.307 . S
N279 C281 1.333 . S
N279 Zn285 2.020 . S
C280 N279 1.307 . S
C280 C284 1.370 . S
C280 H291 0.948 . S
C281 N279 1.333 . S
C281 C282 1.379 . S
C281 H289 0.952 . S
C282 C281 1.379 . S
C282 C283 1.390 . S
C282 H302 0.949 . S
C283 C282 1.390 . S
C283 C284 1.357 . S
C284 C280 1.370 . S
C284 C283 1.357 . S
C284 H303 0.950 . S
Zn285 N279 2.020 . S
Zn285 O288 2.025 . S
Zn285 O293 2.024 . S
Zn285 O295 2.039 . S
Zn285 O297 2.034 . S
O286 C270 1.251 . S
O286 Zn277 2.039 . S
C287 O292 1.246 . S
C287 O293 1.249 . S
O288 C270 1.254 . S
O288 Zn285 2.025 . S
H289 C281 0.952 . S
H290 C272 0.952 1_655 S
H291 C280 0.948 . S
O292 Zn277 2.034 . S
O292 C287 1.246 . S
O293 Zn285 2.024 . S
O293 C287 1.249 . S
H294 C276 0.948 . S
O295 Zn285 2.039 . S
O295 C299 1.251 . S
O296 Zn277 2.025 . S
O296 C299 1.254 . S
O297 C278 1.246 . S
O297 Zn285 2.034 . S
O298 Zn277 2.024 . S
O298 C278 1.249 . S
C299 O295 1.251 . S
C299 O296 1.254 . S
H300 C273 0.949 . S
H301 C275 0.950 . S
H302 C282 0.949 . S
H303 C284 0.950 . S
C304 O320 1.251 . S
C304 O322 1.254 . S
N305 C306 1.333 . S
N305 C310 1.307 . S
N305 Zn311 2.020 . S
C306 N305 1.333 . S
C306 C307 1.378 . S
C306 H324 0.952 . S
C307 C306 1.378 . S
C307 C308 1.391 1_565 S
C307 H334 0.949 1_565 S
C308 C307 1.391 1_545 S
C308 C309 1.357 . S
C309 C308 1.357 . S
C309 C310 1.370 1_545 S
C309 H335 0.950 . S
C310 N305 1.307 . S
C310 C309 1.370 1_565 S
C310 H328 0.948 . S
Zn311 N305 2.020 . S
Zn311 O320 2.039 . S
Zn311 O326 2.034 . S
Zn311 O330 2.025 . S
Zn311 O332 2.009 1_565 S
C312 O331 1.245 . S
C312 O332 1.250 1_565 S
N313 C314 1.307 . S
N313 C315 1.333 . S
N313 Zn319 2.020 . S
C314 N313 1.307 . S
C314 C318 1.370 . S
C314 H325 0.948 . S
C315 N313 1.333 . S
C315 C316 1.379 . S
C315 H323 0.952 . S
C316 C315 1.379 . S
C316 C317 1.390 . S
C316 H336 0.949 . S
C317 C316 1.390 . S
C317 C318 1.357 . S
C318 C314 1.370 . S
C318 C317 1.357 . S
C318 H337 0.950 . S
Zn319 N313 2.020 . S
Zn319 O322 2.025 . S
Zn319 O327 2.024 . S
Zn319 O329 2.039 . S
Zn319 O331 2.034 . S
O320 C304 1.251 . S
O320 Zn311 2.039 . S
C321 O326 1.246 . S
C321 O327 1.249 . S
O322 C304 1.254 . S
O322 Zn319 2.025 . S
H323 C315 0.952 . S
H324 C306 0.952 . S
H325 C314 0.948 . S
O326 Zn311 2.034 . S
O326 C321 1.246 . S
O327 Zn319 2.024 . S
O327 C321 1.249 . S
H328 C310 0.948 . S
O329 Zn319 2.039 . S
O329 C333 1.251 . S
O330 Zn311 2.025 . S
O330 C333 1.254 . S
O331 C312 1.245 . S
O331 Zn319 2.034 . S
O332 Zn311 2.009 1_545 S
O332 C312 1.250 1_545 S
C333 O329 1.251 . S
C333 O330 1.254 . S
H334 C307 0.949 1_545 S
H335 C309 0.950 . S
H336 C316 0.949 . S
H337 C318 0.950 . S
C338 O354 1.251 . S
C338 O356 1.254 . S
N339 C340 1.333 . S
N339 C344 1.307 . S
N339 Zn345 2.020 . S
C340 N339 1.333 . S
C340 C341 1.379 . S
C340 H358 0.952 . S
C341 C340 1.379 . S
C341 C342 1.390 . S
C341 H368 0.949 . S
C342 C341 1.390 . S
C342 C343 1.357 . S
C343 C342 1.357 . S
C343 C344 1.370 . S
C343 H369 0.950 . S
C344 N339 1.307 . S
C344 C343 1.370 . S
C344 H362 0.948 . S
Zn345 N339 2.020 . S
Zn345 O354 2.039 . S
Zn345 O360 2.034 . S
Zn345 O364 2.025 . S
Zn345 O366 2.024 . S
C346 O365 1.246 . S
C346 O366 1.249 . S
N347 C348 1.307 . S
N347 C349 1.333 . S
N347 Zn353 2.020 . S
C348 N347 1.307 . S
C348 C352 1.370 . S
C348 H359 0.948 . S
C349 N347 1.333 . S
C349 C350 1.379 . S
C349 H357 0.952 . S
C350 C349 1.379 . S
C350 C351 1.390 . S
C350 H370 0.949 . S
C351 C350 1.390 . S
C351 C352 1.357 . S
C352 C348 1.370 . S
C352 C351 1.357 . S
C352 H371 0.950 . S
Zn353 N347 2.020 . S
Zn353 O356 2.025 . S
Zn353 O361 2.024 . S
Zn353 O363 2.039 . S
Zn353 O365 2.034 . S
O354 C338 1.251 . S
O354 Zn345 2.039 . S
C355 O360 1.246 . S
C355 O361 1.249 . S
O356 C338 1.254 . S
O356 Zn353 2.025 . S
H357 C349 0.952 . S
H358 C340 0.952 . S
H359 C348 0.948 . S
O360 Zn345 2.034 . S
O360 C355 1.246 . S
O361 Zn353 2.024 . S
O361 C355 1.249 . S
H362 C344 0.948 . S
O363 Zn353 2.039 . S
O363 C367 1.251 . S
O364 Zn345 2.025 . S
O364 C367 1.254 . S
O365 C346 1.246 . S
O365 Zn353 2.034 . S
O366 Zn345 2.024 . S
O366 C346 1.249 . S
C367 O363 1.251 . S
C367 O364 1.254 . S
H368 C341 0.949 . S
H369 C343 0.950 . S
H370 C350 0.949 . S
H371 C352 0.950 . S
C372 O388 1.251 . S
C372 O390 1.254 . S
N373 C374 1.333 . S
N373 C378 1.307 . S
N373 Zn379 2.020 . S
C374 N373 1.333 . S
C374 C375 1.379 . S
C374 H392 0.952 . S
C375 C374 1.379 . S
C375 C376 1.390 . S
C375 H402 0.949 . S
C376 C375 1.390 . S
C376 C377 1.357 . S
C377 C376 1.357 . S
C377 C378 1.370 . S
C377 H403 0.950 . S
C378 N373 1.307 . S
C378 C377 1.370 . S
C378 H396 0.948 . S
Zn379 N373 2.020 . S
Zn379 O388 2.039 . S
Zn379 O394 2.034 . S
Zn379 O398 2.025 . S
Zn379 O400 2.024 . S
C380 O399 1.246 . S
C380 O400 1.249 . S
N381 C382 1.307 . S
N381 C383 1.333 . S
N381 Zn387 2.020 . S
C382 N381 1.307 . S
C382 C386 1.370 1_556 S
C382 H393 0.948 . S
C383 N381 1.333 . S
C383 C384 1.379 1_556 S
C383 H391 0.952 . S
C384 C383 1.379 1_554 S
C384 C385 1.390 . S
C384 H404 0.949 . S
C385 C384 1.390 . S
C385 C386 1.357 . S
C386 C382 1.370 1_554 S
C386 C385 1.357 . S
C386 H405 0.950 . S
Zn387 N381 2.020 . S
Zn387 O390 2.025 . S
Zn387 O395 2.024 . S
Zn387 O397 2.039 . S
Zn387 O399 2.034 . S
O388 C372 1.251 . S
O388 Zn379 2.039 . S
C389 O394 1.246 . S
C389 O395 1.249 . S
O390 C372 1.254 . S
O390 Zn387 2.025 . S
H391 C383 0.952 . S
H392 C374 0.952 . S
H393 C382 0.948 . S
O394 Zn379 2.034 . S
O394 C389 1.246 . S
O395 Zn387 2.024 . S
O395 C389 1.249 . S
H396 C378 0.948 . S
O397 Zn387 2.039 . S
O397 C401 1.251 . S
O398 Zn379 2.025 . S
O398 C401 1.254 . S
O399 C380 1.246 . S
O399 Zn387 2.034 . S
O400 Zn379 2.024 . S
O400 C380 1.249 . S
C401 O397 1.251 . S
C401 O398 1.254 . S
H402 C375 0.949 . S
H403 C377 0.950 . S
H404 C384 0.949 . S
H405 C386 0.950 . S
C406 O422 1.251 . S
C406 O424 1.254 . S
N407 C408 1.333 . S
N407 C412 1.307 . S
N407 Zn413 2.020 . S
C408 N407 1.333 . S
C408 C409 1.379 . S
C408 H426 0.952 . S
C409 C408 1.379 . S
C409 C410 1.390 . S
C409 H436 0.949 . S
C410 C409 1.390 . S
C410 C411 1.357 . S
C411 C410 1.357 . S
C411 C412 1.370 . S
C411 H437 0.950 . S
C412 N407 1.307 . S
C412 C411 1.370 . S
C412 H430 0.948 . S
Zn413 N407 2.020 . S
Zn413 O422 2.039 . S
Zn413 O428 2.034 . S
Zn413 O432 2.025 . S
Zn413 O434 2.024 . S
C414 O433 1.246 . S
C414 O434 1.249 . S
N415 C416 1.307 . S
N415 C417 1.333 . S
N415 Zn421 2.020 . S
C416 N415 1.307 . S
C416 C420 1.370 . S
C416 H427 0.948 . S
C417 N415 1.333 . S
C417 C418 1.366 1_545 S
C417 H425 0.952 1_545 S
C418 C417 1.366 1_565 S
C418 C419 1.369 1_565 S
C418 H438 0.984 . S
C419 C418 1.369 1_545 S
C419 C420 1.357 . S
C420 C416 1.370 . S
C420 C419 1.357 . S
C420 H439 0.950 . S
Zn421 N415 2.020 . S
Zn421 O424 2.025 . S
Zn421 O429 2.024 . S
Zn421 O431 2.039 . S
Zn421 O433 2.034 . S
O422 C406 1.251 . S
O422 Zn413 2.039 . S
C423 O428 1.246 . S
C423 O429 1.249 . S
O424 C406 1.254 . S
O424 Zn421 2.025 . S
H425 C417 0.952 1_565 S
H426 C408 0.952 . S
H427 C416 0.948 . S
O428 Zn413 2.034 . S
O428 C423 1.246 . S
O429 Zn421 2.024 . S
O429 C423 1.249 . S
H430 C412 0.948 . S
O431 Zn421 2.039 . S
O431 C435 1.251 . S
O432 Zn413 2.025 . S
O432 C435 1.254 . S
O433 C414 1.246 . S
O433 Zn421 2.034 . S
O434 Zn413 2.024 . S
O434 C414 1.249 . S
C435 O431 1.251 . S
C435 O432 1.254 . S
H436 C409 0.949 . S
H437 C411 0.950 . S
H438 C418 0.984 . S
H439 C420 0.950 . S
H440 C458 0.951 . S
H441 C460 0.951 . S
H442 C462 0.950 . S
H443 C463 0.950 . S
H444 C465 0.950 . S
H445 C468 0.950 . S
H446 C469 0.950 . S
H447 C471 0.950 . S
H448 C472 0.950 . S
H449 C473 0.951 1_655 S
H450 C475 0.951 1_655 S
H451 C477 0.950 . S
H452 C478 0.950 . S
H453 C480 0.950 . S
H454 C483 0.950 . S
H455 C484 0.950 . S
H456 C486 0.950 . S
H457 C487 0.950 . S
C458 H440 0.951 . S
C458 C459 1.366 . S
C458 C460 1.388 . S
C459 C458 1.366 . S
C459 C463 1.385 1_455 S
C460 H441 0.951 . S
C460 C458 1.388 . S
C460 C461 1.366 . S
C461 C460 1.366 . S
C461 C462 1.414 1_455 S
C461 C464 1.499 . S
C462 H442 0.950 . S
C462 C461 1.414 1_655 S
C462 C463 1.374 . S
C463 H443 0.950 . S
C463 C459 1.385 1_655 S
C463 C462 1.374 . S
C464 C461 1.499 . S
C464 C465 1.373 . S
C464 C466 1.389 . S
C465 H444 0.950 . S
C465 C464 1.373 . S
C465 C481 1.377 . S
C466 C464 1.389 . S
C466 C467 1.524 . S
C466 C480 1.377 . S
C467 C466 1.524 . S
C467 C468 1.397 . S
C467 C472 1.363 . S
C468 H445 0.950 . S
C468 C467 1.397 . S
C468 C469 1.334 . S
C469 H446 0.950 . S
C469 C468 1.334 . S
C469 C470 1.287 . S
C470 C469 1.287 . S
C470 C471 1.524 . S
C470 H489 0.913 . S
C471 H447 0.950 . S
C471 C470 1.524 . S
C471 C472 1.415 . S
C472 H448 0.950 . S
C472 C467 1.363 . S
C472 C471 1.415 . S
C473 H449 0.951 1_455 S
C473 C474 1.366 . S
C473 C475 1.388 . S
C474 C473 1.366 . S
C474 C478 1.385 . S
C475 H450 0.951 1_455 S
C475 C473 1.388 . S
C475 C476 1.366 . S
C476 C475 1.366 . S
C476 C477 1.414 . S
C476 C479 1.499 . S
C477 H451 0.950 . S
C477 C476 1.414 . S
C477 C478 1.374 . S
C478 H452 0.950 . S
C478 C474 1.385 . S
C478 C477 1.374 . S
C479 C476 1.499 . S
C479 C480 1.373 . S
C479 C481 1.389 . S
C480 H453 0.950 . S
C480 C466 1.377 . S
C480 C479 1.373 . S
C481 C465 1.377 . S
C481 C479 1.389 . S
C481 C482 1.524 . S
C482 C481 1.524 . S
C482 C483 1.397 . S
C482 C487 1.363 1_455 S
C483 H454 0.950 . S
C483 C482 1.397 . S
C483 C484 1.334 . S
C484 H455 0.950 . S
C484 C483 1.334 . S
C484 C485 1.287 1_455 S
C485 C484 1.287 1_655 S
C485 C486 1.524 . S
C485 H488 0.999 . S
C486 H456 0.950 . S
C486 C485 1.524 . S
C486 C487 1.415 . S
C487 H457 0.950 . S
C487 C482 1.363 1_655 S
C487 C486 1.415 . S
H488 C485 0.999 . S
H489 C470 0.913 . S
H490 C508 0.951 . S
H491 C510 0.951 . S
H492 C512 0.950 . S
H493 C513 0.950 . S
H494 C515 0.950 . S
H495 C518 0.950 . S
H496 C519 0.950 . S
H497 C521 0.950 . S
H498 C522 0.950 . S
H499 C523 0.951 1_455 S
H500 C525 0.951 1_455 S
H501 C527 0.950 . S
H502 C528 0.950 . S
H503 C530 0.950 . S
H504 C533 0.950 . S
H505 C534 0.950 . S
H506 C536 0.950 . S
H507 C537 0.950 . S
C508 H490 0.951 . S
C508 C509 1.366 . S
C508 C510 1.388 . S
C509 C508 1.366 . S
C509 C513 1.385 1_655 S
C510 H491 0.951 . S
C510 C508 1.388 . S
C510 C511 1.366 . S
C511 C510 1.366 . S
C511 C512 1.414 1_655 S
C511 C514 1.499 . S
C512 H492 0.950 . S
C512 C511 1.414 1_455 S
C512 C513 1.374 . S
C513 H493 0.950 . S
C513 C509 1.385 1_455 S
C513 C512 1.374 . S
C514 C511 1.499 . S
C514 C515 1.373 1_655 S
C514 C516 1.389 . S
C515 H494 0.950 . S
C515 C514 1.373 1_455 S
C515 C531 1.377 . S
C516 C514 1.389 . S
C516 C517 1.524 . S
C516 C530 1.377 . S
C517 C516 1.524 . S
C517 C518 1.397 . S
C517 C522 1.363 . S
C518 H495 0.950 . S
C518 C517 1.397 . S
C518 C519 1.334 . S
C519 H496 0.950 . S
C519 C518 1.334 . S
C519 C520 1.287 . S
C520 C519 1.287 . S
C520 C521 1.524 . S
C520 H539 0.913 . S
C521 H497 0.950 . S
C521 C520 1.524 . S
C521 C522 1.415 . S
C522 H498 0.950 . S
C522 C517 1.363 . S
C522 C521 1.415 . S
C523 H499 0.951 1_655 S
C523 C524 1.366 . S
C523 C525 1.388 . S
C524 C523 1.366 . S
C524 C528 1.385 . S
C525 H500 0.951 1_655 S
C525 C523 1.388 . S
C525 C526 1.366 . S
C526 C525 1.366 . S
C526 C527 1.414 . S
C526 C529 1.499 . S
C527 H501 0.950 . S
C527 C526 1.414 . S
C527 C528 1.374 . S
C528 H502 0.950 . S
C528 C524 1.385 . S
C528 C527 1.374 . S
C529 C526 1.499 . S
C529 C530 1.373 . S
C529 C531 1.389 1_655 S
C530 H503 0.950 . S
C530 C516 1.377 . S
C530 C529 1.373 . S
C531 C515 1.377 . S
C531 C529 1.389 1_455 S
C531 C532 1.524 . S
C532 C531 1.524 . S
C532 C533 1.397 . S
C532 C537 1.363 . S
C533 H504 0.950 . S
C533 C532 1.397 . S
C533 C534 1.334 . S
C534 H505 0.950 . S
C534 C533 1.334 . S
C534 C535 1.287 . S
C535 C534 1.287 . S
C535 C536 1.524 . S
C535 H538 0.999 . S
C536 H506 0.950 . S
C536 C535 1.524 . S
C536 C537 1.415 . S
C537 H507 0.950 . S
C537 C532 1.363 . S
C537 C536 1.415 . S
H538 C535 0.999 . S
H539 C520 0.913 . S
H540 C558 0.951 . S
H541 C560 0.951 . S
H542 C562 0.950 1_655 S
H543 C563 0.938 1_655 S
H544 C565 0.977 . S
H545 C568 0.950 . S
H546 C569 0.950 . S
H547 C571 0.950 . S
H548 C572 0.950 . S
H549 C573 0.951 . S
H550 C575 0.954 1_655 S
H551 C577 0.950 . S
H552 C578 0.950 . S
H553 C580 0.950 . S
H554 C583 0.950 . S
H555 C584 0.950 . S
H556 C586 0.950 . S
H557 C587 0.950 . S
C558 H540 0.951 . S
C558 C559 1.366 . S
C558 C560 1.388 . S
C559 C558 1.366 . S
C559 C563 1.396 . S
C560 H541 0.951 . S
C560 C558 1.388 . S
C560 C561 1.366 . S
C561 C560 1.366 . S
C561 C562 1.414 . S
C561 C564 1.499 . S
C562 H542 0.950 1_455 S
C562 C561 1.414 . S
C562 C563 1.375 . S
C563 H543 0.938 1_455 S
C563 C559 1.396 . S
C563 C562 1.375 . S
C564 C561 1.499 . S
C564 C565 1.347 1_455 S
C564 C566 1.389 . S
C565 H544 0.977 . S
C565 C564 1.347 1_655 S
C565 C581 1.376 1_655 S
C566 C564 1.389 . S
C566 C567 1.524 . S
C566 C580 1.377 . S
C567 C566 1.524 . S
C567 C568 1.397 . S
C567 C572 1.363 . S
C568 H545 0.950 . S
C568 C567 1.397 . S
C568 C569 1.334 . S
C569 H546 0.950 . S
C569 C568 1.334 . S
C569 C570 1.287 . S
C570 C569 1.287 . S
C570 C571 1.524 . S
C570 H589 0.913 . S
C571 H547 0.950 . S
C571 C570 1.524 . S
C571 C572 1.415 . S
C572 H548 0.950 . S
C572 C567 1.363 . S
C572 C571 1.415 . S
C573 H549 0.951 . S
C573 C574 1.366 . S
C573 C575 1.388 . S
C574 C573 1.366 . S
C574 C578 1.385 . S
C575 H550 0.954 1_455 S
C575 C573 1.388 . S
C575 C576 1.366 . S
C576 C575 1.366 . S
C576 C577 1.414 . S
C576 C579 1.499 . S
C577 H551 0.950 . S
C577 C576 1.414 . S
C577 C578 1.374 . S
C578 H552 0.950 . S
C578 C574 1.385 . S
C578 C577 1.374 . S
C579 C576 1.499 . S
C579 C580 1.373 . S
C579 C581 1.412 . S
C580 H553 0.950 . S
C580 C566 1.377 . S
C580 C579 1.373 . S
C581 C565 1.376 1_455 S
C581 C579 1.412 . S
C581 C582 1.501 1_455 S
C582 C581 1.501 1_655 S
C582 C583 1.397 . S
C582 C587 1.363 . S
C583 H554 0.950 . S
C583 C582 1.397 . S
C583 C584 1.334 . S
C584 H555 0.950 . S
C584 C583 1.334 . S
C584 C585 1.287 . S
C585 C584 1.287 . S
C585 C586 1.524 . S
C585 H588 0.999 . S
C586 H556 0.950 . S
C586 C585 1.524 . S
C586 C587 1.415 . S
C587 H557 0.950 . S
C587 C582 1.363 . S
C587 C586 1.415 . S
H588 C585 0.999 . S
H589 C570 0.913 . S
H590 C608 0.951 . S
H591 C610 0.951 . S
H592 C612 0.950 . S
H593 C613 0.950 . S
H594 C615 0.964 . S
H595 C618 0.950 . S
H596 C619 0.950 . S
H597 C621 0.950 . S
H598 C622 0.978 . S
H599 C623 0.951 . S
H600 C625 0.951 . S
H601 C627 0.952 . S
H602 C628 0.950 1_455 S
H603 C630 0.950 . S
H604 C633 0.950 . S
H605 C634 0.950 . S
H606 C636 0.950 1_655 S
H607 C637 0.950 . S
C608 H590 0.951 . S
C608 C609 1.366 1_455 S
C608 C610 1.388 . S
C609 C608 1.366 1_655 S
C609 C613 1.385 . S
C610 H591 0.951 . S
C610 C608 1.388 . S
C610 C611 1.366 1_455 S
C611 C610 1.366 1_655 S
C611 C612 1.414 . S
C611 C614 1.499 . S
C612 H592 0.950 . S
C612 C611 1.414 . S
C612 C613 1.374 . S
C613 H593 0.950 . S
C613 C609 1.385 . S
C613 C612 1.374 . S
C614 C611 1.499 . S
C614 C615 1.373 . S
C614 C616 1.389 . S
C615 H594 0.964 . S
C615 C614 1.373 . S
C615 C631 1.377 . S
C616 C614 1.389 . S
C616 C617 1.524 . S
C616 C630 1.377 . S
C617 C616 1.524 . S
C617 C618 1.397 . S
C617 C622 1.363 . S
C618 H595 0.950 . S
C618 C617 1.397 . S
C618 C619 1.334 . S
C619 H596 0.950 . S
C619 C618 1.334 . S
C619 C620 1.287 . S
C620 C619 1.287 . S
C620 C621 1.524 . S
C620 H639 0.913 . S
C621 H597 0.950 . S
C621 C620 1.524 . S
C621 C622 1.415 . S
C622 H598 0.978 . S
C622 C617 1.363 . S
C622 C621 1.415 . S
C623 H599 0.951 . S
C623 C624 1.366 . S
C623 C625 1.388 . S
C624 C623 1.366 . S
C624 C628 1.385 . S
C625 H600 0.951 . S
C625 C623 1.388 . S
C625 C626 1.366 . S
C626 C625 1.366 . S
C626 C627 1.413 1_655 S
C626 C629 1.499 . S
C627 H601 0.952 . S
C627 C626 1.413 1_455 S
C627 C628 1.373 1_455 S
C628 H602 0.950 1_655 S
C628 C624 1.385 . S
C628 C627 1.373 1_655 S
C629 C626 1.499 . S
C629 C630 1.373 . S
C629 C631 1.389 . S
C630 H603 0.950 . S
C630 C616 1.377 . S
C630 C629 1.373 . S
C631 C615 1.377 . S
C631 C629 1.389 . S
C631 C632 1.524 1_655 S
C632 C631 1.524 1_455 S
C632 C633 1.397 . S
C632 C637 1.363 1_455 S
C633 H604 0.950 . S
C633 C632 1.397 . S
C633 C634 1.334 . S
C634 H605 0.950 . S
C634 C633 1.334 . S
C634 C635 1.287 . S
C635 C634 1.287 . S
C635 C636 1.524 . S
C635 H638 0.999 . S
C636 H606 0.950 1_455 S
C636 C635 1.524 . S
C636 C637 1.415 1_455 S
C637 H607 0.950 . S
C637 C632 1.363 1_655 S
C637 C636 1.415 1_655 S
H638 C635 0.999 . S
H639 C620 0.913 . S
H640 C658 0.951 . S
H641 C660 0.951 . S
H642 C662 0.950 . S
H643 C663 0.950 . S
H644 C665 0.950 1_565 S
H645 C668 0.950 . S
H646 C669 0.950 . S
H647 C671 0.950 . S
H648 C672 0.950 . S
H649 C673 0.951 1_556 S
H650 C675 0.951 . S
H651 C677 0.950 . S
H652 C678 0.950 . S
H653 C680 0.950 . S
H654 C683 0.950 . S
H655 C684 0.950 . S
H656 C686 0.950 . S
H657 C687 0.950 . S
C658 H640 0.951 . S
C658 C659 1.366 . S
C658 C660 1.388 . S
C659 C658 1.366 . S
C659 C663 1.385 . S
C660 H641 0.951 . S
C660 C658 1.388 . S
C660 C661 1.366 . S
C661 C660 1.366 . S
C661 C662 1.414 . S
C661 C664 1.499 . S
C662 H642 0.950 . S
C662 C661 1.414 . S
C662 C663 1.374 . S
C663 H643 0.950 . S
C663 C659 1.385 . S
C663 C662 1.374 . S
C664 C661 1.499 . S
C664 C665 1.373 . S
C664 C666 1.389 . S
C665 H644 0.950 1_545 S
C665 C664 1.373 . S
C665 C681 1.377 . S
C666 C664 1.389 . S
C666 C667 1.524 . S
C666 C680 1.377 . S
C667 C666 1.524 . S
C667 C668 1.397 . S
C667 C672 1.363 . S
C668 H645 0.950 . S
C668 C667 1.397 . S
C668 C669 1.334 . S
C669 H646 0.950 . S
C669 C668 1.334 . S
C669 C670 1.287 . S
C670 C669 1.287 . S
C670 C671 1.524 . S
C670 H689 0.913 . S
C671 H647 0.950 . S
C671 C670 1.524 . S
C671 C672 1.415 . S
C672 H648 0.950 . S
C672 C667 1.363 . S
C672 C671 1.415 . S
C673 H649 0.951 1_554 S
C673 C674 1.365 1_554 S
C673 C675 1.388 . S
C674 C673 1.365 1_556 S
C674 C678 1.374 1_556 S
C675 H650 0.951 . S
C675 C673 1.388 . S
C675 C676 1.366 . S
C676 C675 1.366 . S
C676 C677 1.414 . S
C676 C679 1.499 . S
C677 H651 0.950 . S
C677 C676 1.414 . S
C677 C678 1.374 . S
C678 H652 0.950 . S
C678 C674 1.374 1_554 S
C678 C677 1.374 . S
C679 C676 1.499 . S
C679 C680 1.373 . S
C679 C681 1.389 . S
C680 H653 0.950 . S
C680 C666 1.377 . S
C680 C679 1.373 . S
C681 C665 1.377 . S
C681 C679 1.389 . S
C681 C682 1.524 1_545 S
C682 C681 1.524 1_565 S
C682 C683 1.397 . S
C682 C687 1.363 . S
C683 H654 0.950 . S
C683 C682 1.397 . S
C683 C684 1.334 . S
C684 H655 0.950 . S
C684 C683 1.334 . S
C684 C685 1.287 . S
C685 C684 1.287 . S
C685 C686 1.524 . S
C685 H688 0.999 . S
C686 H656 0.950 . S
C686 C685 1.524 . S
C686 C687 1.415 . S
C687 H657 0.950 . S
C687 C682 1.363 . S
C687 C686 1.415 . S
H688 C685 0.999 . S
H689 C670 0.913 . S
H690 C708 0.951 . S
H691 C710 0.951 . S
H692 C712 0.950 . S
H693 C713 0.950 . S
H694 C715 0.950 . S
H695 C718 0.950 . S
H696 C719 0.950 . S
H697 C721 0.950 . S
H698 C722 0.950 . S
H699 C723 0.951 . S
H700 C725 0.951 . S
H701 C727 0.950 . S
H702 C728 0.950 . S
H703 C730 0.950 . S
H704 C733 0.950 . S
H705 C734 0.950 . S
H706 C736 0.950 . S
H707 C737 0.950 . S
C708 H690 0.951 . S
C708 C709 1.366 . S
C708 C710 1.388 . S
C709 C708 1.366 . S
C709 C713 1.385 . S
C710 H691 0.951 . S
C710 C708 1.388 . S
C710 C711 1.366 . S
C711 C710 1.366 . S
C711 C712 1.414 . S
C711 C714 1.499 . S
C712 H692 0.950 . S
C712 C711 1.414 . S
C712 C713 1.374 . S
C713 H693 0.950 . S
C713 C709 1.385 . S
C713 C712 1.374 . S
C714 C711 1.499 . S
C714 C715 1.373 . S
C714 C716 1.389 . S
C715 H694 0.950 . S
C715 C714 1.373 . S
C715 C731 1.377 . S
C716 C714 1.389 . S
C716 C717 1.524 . S
C716 C730 1.377 . S
C717 C716 1.524 . S
C717 C718 1.397 . S
C717 C722 1.363 . S
C718 H695 0.950 . S
C718 C717 1.397 . S
C718 C719 1.334 . S
C719 H696 0.950 . S
C719 C718 1.334 . S
C719 C720 1.287 . S
C720 C719 1.287 . S
C720 C721 1.524 . S
C720 H739 0.913 . S
C721 H697 0.950 . S
C721 C720 1.524 . S
C721 C722 1.415 . S
C722 H698 0.950 . S
C722 C717 1.363 . S
C722 C721 1.415 . S
C723 H699 0.951 . S
C723 C724 1.366 . S
C723 C725 1.388 . S
C724 C723 1.366 . S
C724 C728 1.385 . S
C725 H700 0.951 . S
C725 C723 1.388 . S
C725 C726 1.366 . S
C726 C725 1.366 . S
C726 C727 1.414 . S
C726 C729 1.499 . S
C727 H701 0.950 . S
C727 C726 1.414 . S
C727 C728 1.374 . S
C728 H702 0.950 . S
C728 C724 1.385 . S
C728 C727 1.374 . S
C729 C726 1.499 . S
C729 C730 1.373 . S
C729 C731 1.389 . S
C730 H703 0.950 . S
C730 C716 1.377 . S
C730 C729 1.373 . S
C731 C715 1.377 . S
C731 C729 1.389 . S
C731 C732 1.524 . S
C732 C731 1.524 . S
C732 C733 1.397 . S
C732 C737 1.363 . S
C733 H704 0.950 . S
C733 C732 1.397 . S
C733 C734 1.334 . S
C734 H705 0.950 . S
C734 C733 1.334 . S
C734 C735 1.287 . S
C735 C734 1.287 . S
C735 C736 1.524 . S
C735 H738 0.999 . S
C736 H706 0.950 . S
C736 C735 1.524 . S
C736 C737 1.415 . S
C737 H707 0.950 . S
C737 C732 1.363 . S
C737 C736 1.415 . S
H738 C735 0.999 . S
H739 C720 0.913 . S
H740 C758 0.951 . S
H741 C760 0.951 . S
H742 C762 0.950 . S
H743 C763 0.950 . S
H744 C765 0.950 . S
H745 C768 0.950 . S
H746 C769 0.950 . S
H747 C771 0.950 . S
H748 C772 0.950 . S
H749 C773 0.951 . S
H750 C775 0.951 . S
H751 C777 0.950 . S
H752 C778 0.950 . S
H753 C780 0.950 . S
H754 C783 0.950 . S
H755 C784 0.950 . S
H756 C786 0.950 . S
H757 C787 0.950 . S
C758 H740 0.951 . S
C758 C759 1.366 . S
C758 C760 1.388 . S
C759 C758 1.366 . S
C759 C763 1.385 . S
C760 H741 0.951 . S
C760 C758 1.388 . S
C760 C761 1.366 . S
C761 C760 1.366 . S
C761 C762 1.414 . S
C761 C764 1.499 . S
C762 H742 0.950 . S
C762 C761 1.414 . S
C762 C763 1.374 . S
C763 H743 0.950 . S
C763 C759 1.385 . S
C763 C762 1.374 . S
C764 C761 1.499 . S
C764 C765 1.373 . S
C764 C766 1.389 1_545 S
C765 H744 0.950 . S
C765 C764 1.373 . S
C765 C781 1.377 . S
C766 C764 1.389 1_565 S
C766 C767 1.524 . S
C766 C780 1.377 . S
C767 C766 1.524 . S
C767 C768 1.397 . S
C767 C772 1.363 . S
C768 H745 0.950 . S
C768 C767 1.397 . S
C768 C769 1.334 . S
C769 H746 0.950 . S
C769 C768 1.334 . S
C769 C770 1.287 . S
C770 C769 1.287 . S
C770 C771 1.524 . S
C770 H789 0.913 . S
C771 H747 0.950 . S
C771 C770 1.524 . S
C771 C772 1.415 . S
C772 H748 0.950 . S
C772 C767 1.363 . S
C772 C771 1.415 . S
C773 H749 0.951 . S
C773 C774 1.366 . S
C773 C775 1.388 . S
C774 C773 1.366 . S
C774 C778 1.385 . S
C775 H750 0.951 . S
C775 C773 1.388 . S
C775 C776 1.366 . S
C776 C775 1.366 . S
C776 C777 1.414 . S
C776 C779 1.499 . S
C777 H751 0.950 . S
C777 C776 1.414 . S
C777 C778 1.374 . S
C778 H752 0.950 . S
C778 C774 1.385 . S
C778 C777 1.374 . S
C779 C776 1.499 . S
C779 C780 1.373 1_545 S
C779 C781 1.389 . S
C780 H753 0.950 . S
C780 C766 1.377 . S
C780 C779 1.373 1_565 S
C781 C765 1.377 . S
C781 C779 1.389 . S
C781 C782 1.524 . S
C782 C781 1.524 . S
C782 C783 1.397 . S
C782 C787 1.363 . S
C783 H754 0.950 . S
C783 C782 1.397 . S
C783 C784 1.334 . S
C784 H755 0.950 . S
C784 C783 1.334 . S
C784 C785 1.287 . S
C785 C784 1.287 . S
C785 C786 1.524 . S
C785 H788 0.999 . S
C786 H756 0.950 . S
C786 C785 1.524 . S
C786 C787 1.415 . S
C787 H757 0.950 . S
C787 C782 1.363 . S
C787 C786 1.415 . S
H788 C785 0.999 . S
H789 C770 0.913 . S
H790 C808 0.951 . S
H791 C810 0.951 . S
H792 C812 0.950 . S
H793 C813 0.950 . S
H794 C815 0.950 . S
H795 C818 0.950 . S
H796 C819 0.950 . S
H797 C821 0.950 . S
H798 C822 0.950 . S
H799 C823 0.951 . S
H800 C825 0.951 . S
H801 C827 0.950 . S
H802 C828 0.950 . S
H803 C830 0.950 . S
H804 C833 0.950 . S
H805 C834 0.950 . S
H806 C836 0.950 . S
H807 C837 0.950 . S
C808 H790 0.951 . S
C808 C809 1.366 . S
C808 C810 1.388 . S
C809 C808 1.366 . S
C809 C813 1.385 . S
C810 H791 0.951 . S
C810 C808 1.388 . S
C810 C811 1.366 . S
C811 C810 1.366 . S
C811 C812 1.414 . S
C811 C814 1.499 . S
C812 H792 0.950 . S
C812 C811 1.414 . S
C812 C813 1.374 . S
C813 H793 0.950 . S
C813 C809 1.385 . S
C813 C812 1.374 . S
C814 C811 1.499 . S
C814 C815 1.373 . S
C814 C816 1.389 . S
C815 H794 0.950 . S
C815 C814 1.373 . S
C815 C831 1.377 . S
C816 C814 1.389 . S
C816 C817 1.524 . S
C816 C830 1.377 . S
C817 C816 1.524 . S
C817 C818 1.397 . S
C817 C822 1.363 . S
C818 H795 0.950 . S
C818 C817 1.397 . S
C818 C819 1.334 . S
C819 H796 0.950 . S
C819 C818 1.334 . S
C819 C820 1.287 . S
C820 C819 1.287 . S
C820 C821 1.524 . S
C820 H839 0.913 . S
C821 H797 0.950 . S
C821 C820 1.524 . S
C821 C822 1.415 . S
C822 H798 0.950 . S
C822 C817 1.363 . S
C822 C821 1.415 . S
C823 H799 0.951 . S
C823 C824 1.366 . S
C823 C825 1.388 . S
C824 C823 1.366 . S
C824 C828 1.385 . S
C825 H800 0.951 . S
C825 C823 1.388 . S
C825 C826 1.366 . S
C826 C825 1.366 . S
C826 C827 1.414 . S
C826 C829 1.499 . S
C827 H801 0.950 . S
C827 C826 1.414 . S
C827 C828 1.374 . S
C828 H802 0.950 . S
C828 C824 1.385 . S
C828 C827 1.374 . S
C829 C826 1.499 . S
C829 C830 1.373 . S
C829 C831 1.389 . S
C830 H803 0.950 . S
C830 C816 1.377 . S
C830 C829 1.373 . S
C831 C815 1.377 . S
C831 C829 1.389 . S
C831 C832 1.524 . S
C832 C831 1.524 . S
C832 C833 1.397 . S
C832 C837 1.363 . S
C833 H804 0.950 . S
C833 C832 1.397 . S
C833 C834 1.334 . S
C834 H805 0.950 . S
C834 C833 1.334 . S
C834 C835 1.287 . S
C835 C834 1.287 . S
C835 C836 1.524 . S
C835 H838 0.999 . S
C836 H806 0.950 . S
C836 C835 1.524 . S
C836 C837 1.415 . S
C837 H807 0.950 . S
C837 C832 1.363 . S
C837 C836 1.415 . S
H838 C835 0.999 . S
H839 C820 0.913 . S
H840 C858 0.951 . S
H841 C860 0.951 . S
H842 C862 0.950 . S
H843 C863 0.950 . S
H844 C865 0.950 . S
H845 C868 0.950 . S
H846 C869 0.950 . S
H847 C871 0.950 . S
H848 C872 0.950 . S
H849 C873 0.951 1_556 S
H850 C875 0.951 1_556 S
H851 C877 0.950 . S
H852 C878 0.950 . S
H853 C880 0.950 . S
H854 C883 0.950 . S
H855 C884 0.950 . S
H856 C886 0.950 . S
H857 C887 0.950 1_556 S
C858 H840 0.951 . S
C858 C859 1.366 . S
C858 C860 1.388 . S
C859 C858 1.366 . S
C859 C863 1.385 1_554 S
C860 H841 0.951 . S
C860 C858 1.388 . S
C860 C861 1.366 . S
C861 C860 1.366 . S
C861 C862 1.414 1_554 S
C861 C864 1.499 . S
C862 H842 0.950 . S
C862 C861 1.414 1_556 S
C862 C863 1.374 . S
C863 H843 0.950 . S
C863 C859 1.385 1_556 S
C863 C862 1.374 . S
C864 C861 1.499 . S
C864 C865 1.373 . S
C864 C866 1.389 . S
C865 H844 0.950 . S
C865 C864 1.373 . S
C865 C881 1.377 . S
C866 C864 1.389 . S
C866 C867 1.524 . S
C866 C880 1.377 . S
C867 C866 1.524 . S
C867 C868 1.397 1_554 S
C867 C872 1.363 . S
C868 H845 0.950 . S
C868 C867 1.397 1_556 S
C868 C869 1.334 . S
C869 H846 0.950 . S
C869 C868 1.334 . S
C869 C870 1.287 . S
C870 C869 1.287 . S
C870 C871 1.524 1_556 S
C870 H889 0.913 . S
C871 H847 0.950 . S
C871 C870 1.524 1_554 S
C871 C872 1.415 . S
C872 H848 0.950 . S
C872 C867 1.363 . S
C872 C871 1.415 . S
C873 H849 0.951 1_554 S
C873 C874 1.366 . S
C873 C875 1.388 . S
C874 C873 1.366 . S
C874 C878 1.385 . S
C875 H850 0.951 1_554 S
C875 C873 1.388 . S
C875 C876 1.366 . S
C876 C875 1.366 . S
C876 C877 1.414 . S
C876 C879 1.499 . S
C877 H851 0.950 . S
C877 C876 1.414 . S
C877 C878 1.374 . S
C878 H852 0.950 . S
C878 C874 1.385 . S
C878 C877 1.374 . S
C879 C876 1.499 . S
C879 C880 1.373 . S
C879 C881 1.389 . S
C880 H853 0.950 . S
C880 C866 1.377 . S
C880 C879 1.373 . S
C881 C865 1.377 . S
C881 C879 1.389 . S
C881 C882 1.524 . S
C882 C881 1.524 . S
C882 C883 1.397 . S
C882 C887 1.363 . S
C883 H854 0.950 . S
C883 C882 1.397 . S
C883 C884 1.334 . S
C884 H855 0.950 . S
C884 C883 1.334 . S
C884 C885 1.287 . S
C885 C884 1.287 . S
C885 C886 1.524 . S
C885 H888 0.999 . S
C886 H856 0.950 . S
C886 C885 1.524 . S
C886 C887 1.415 . S
C887 H857 0.950 1_554 S
C887 C882 1.363 . S
C887 C886 1.415 . S
H888 C885 0.999 . S
H889 C870 0.913 . S
H890 C908 0.951 . S
H891 C910 0.951 . S
H892 C912 0.950 . S
H893 C913 0.950 . S
H894 C915 0.950 . S
H895 C918 0.950 . S
H896 C919 0.950 . S
H897 C921 0.950 . S
H898 C922 0.950 . S
H899 C923 0.951 . S
H900 C925 0.951 . S
H901 C927 0.950 . S
H902 C928 0.950 . S
H903 C930 0.950 . S
H904 C933 0.950 . S
H905 C934 0.950 . S
H906 C936 0.950 . S
H907 C937 0.950 . S
C908 H890 0.951 . S
C908 C909 1.366 . S
C908 C910 1.388 . S
C909 C908 1.366 . S
C909 C913 1.385 . S
C910 H891 0.951 . S
C910 C908 1.388 . S
C910 C911 1.366 . S
C911 C910 1.366 . S
C911 C912 1.414 . S
C911 C914 1.499 . S
C912 H892 0.950 . S
C912 C911 1.414 . S
C912 C913 1.374 . S
C913 H893 0.950 . S
C913 C909 1.385 . S
C913 C912 1.374 . S
C914 C911 1.499 . S
C914 C915 1.373 . S
C914 C916 1.389 . S
C915 H894 0.950 . S
C915 C914 1.373 . S
C915 C931 1.377 . S
C916 C914 1.389 . S
C916 C917 1.524 . S
C916 C930 1.377 . S
C917 C916 1.524 . S
C917 C918 1.397 . S
C917 C922 1.363 . S
C918 H895 0.950 . S
C918 C917 1.397 . S
C918 C919 1.334 . S
C919 H896 0.950 . S
C919 C918 1.334 . S
C919 C920 1.287 . S
C920 C919 1.287 . S
C920 C921 1.524 . S
C920 H939 0.913 . S
C921 H897 0.950 . S
C921 C920 1.524 . S
C921 C922 1.415 . S
C922 H898 0.950 . S
C922 C917 1.363 . S
C922 C921 1.415 . S
C923 H899 0.951 . S
C923 C924 1.366 . S
C923 C925 1.388 . S
C924 C923 1.366 . S
C924 C928 1.385 . S
C925 H900 0.951 . S
C925 C923 1.388 . S
C925 C926 1.366 . S
C926 C925 1.366 . S
C926 C927 1.414 . S
C926 C929 1.499 . S
C927 H901 0.950 . S
C927 C926 1.414 . S
C927 C928 1.374 . S
C928 H902 0.950 . S
C928 C924 1.385 . S
C928 C927 1.374 . S
C929 C926 1.499 . S
C929 C930 1.373 . S
C929 C931 1.389 . S
C930 H903 0.950 . S
C930 C916 1.377 . S
C930 C929 1.373 . S
C931 C915 1.377 . S
C931 C929 1.389 . S
C931 C932 1.524 . S
C932 C931 1.524 . S
C932 C933 1.397 . S
C932 C937 1.363 . S
C933 H904 0.950 . S
C933 C932 1.397 . S
C933 C934 1.334 . S
C934 H905 0.950 . S
C934 C933 1.334 . S
C934 C935 1.287 . S
C935 C934 1.287 . S
C935 C936 1.524 . S
C935 H938 0.999 . S
C936 H906 0.950 . S
C936 C935 1.524 . S
C936 C937 1.415 . S
C937 H907 0.950 . S
C937 C932 1.363 . S
C937 C936 1.415 . S
H938 C935 0.999 . S
H939 C920 0.913 . S
H940 C958 0.951 . S
H941 C960 0.951 . S
H942 C962 0.950 . S
H943 C963 0.950 . S
H944 C965 0.950 . S
H945 C968 0.950 . S
H946 C969 0.950 . S
H947 C971 0.950 . S
H948 C972 0.950 . S
H949 C973 0.951 . S
H950 C975 0.951 . S
H951 C977 0.950 . S
H952 C978 0.950 . S
H953 C980 0.950 . S
H954 C983 0.950 . S
H955 C984 0.950 . S
H956 C986 0.950 . S
H957 C987 0.950 . S
C958 H940 0.951 . S
C958 C959 1.366 . S
C958 C960 1.388 . S
C959 C958 1.366 . S
C959 C963 1.385 . S
C960 H941 0.951 . S
C960 C958 1.388 . S
C960 C961 1.366 . S
C961 C960 1.366 . S
C961 C962 1.414 . S
C961 C964 1.499 . S
C962 H942 0.950 . S
C962 C961 1.414 . S
C962 C963 1.374 . S
C963 H943 0.950 . S
C963 C959 1.385 . S
C963 C962 1.374 . S
C964 C961 1.499 . S
C964 C965 1.373 . S
C964 C966 1.389 . S
C965 H944 0.950 . S
C965 C964 1.373 . S
C965 C981 1.377 . S
C966 C964 1.389 . S
C966 C967 1.524 . S
C966 C980 1.377 . S
C967 C966 1.524 . S
C967 C968 1.397 . S
C967 C972 1.363 . S
C968 H945 0.950 . S
C968 C967 1.397 . S
C968 C969 1.334 . S
C969 H946 0.950 . S
C969 C968 1.334 . S
C969 C970 1.287 . S
C970 C969 1.287 . S
C970 C971 1.524 . S
C970 H989 0.913 . S
C971 H947 0.950 . S
C971 C970 1.524 . S
C971 C972 1.415 . S
C972 H948 0.950 . S
C972 C967 1.363 . S
C972 C971 1.415 . S
C973 H949 0.951 . S
C973 C974 1.366 . S
C973 C975 1.388 . S
C974 C973 1.366 . S
C974 C978 1.385 . S
C975 H950 0.951 . S
C975 C973 1.388 . S
C975 C976 1.366 . S
C976 C975 1.366 . S
C976 C977 1.414 . S
C976 C979 1.499 . S
C977 H951 0.950 . S
C977 C976 1.414 . S
C977 C978 1.374 . S
C978 H952 0.950 . S
C978 C974 1.385 . S
C978 C977 1.374 . S
C979 C976 1.499 . S
C979 C980 1.373 . S
C979 C981 1.389 . S
C980 H953 0.950 . S
C980 C966 1.377 . S
C980 C979 1.373 . S
C981 C965 1.377 . S
C981 C979 1.389 . S
C981 C982 1.524 . S
C982 C981 1.524 . S
C982 C983 1.397 . S
C982 C987 1.363 . S
C983 H954 0.950 . S
C983 C982 1.397 . S
C983 C984 1.334 . S
C984 H955 0.950 . S
C984 C983 1.334 . S
C984 C985 1.287 . S
C985 C984 1.287 . S
C985 C986 1.524 . S
C985 H988 0.999 . S
C986 H956 0.950 . S
C986 C985 1.524 . S
C986 C987 1.415 . S
C987 H957 0.950 . S
C987 C982 1.363 . S
C987 C986 1.415 . S
H988 C985 0.999 . S
H989 C970 0.913 . S
H990 C1008 0.951 . S
H991 C1010 0.951 . S
H992 C1012 0.950 . S
H993 C1013 0.950 . S
H994 C1015 0.950 . S
H995 C1018 0.950 . S
H996 C1019 0.950 . S
H997 C1021 0.950 . S
H998 C1022 0.950 . S
H999 C1023 0.951 . S
H1000 C1025 0.951 . S
H1001 C1027 0.950 . S
H1002 C1028 0.950 . S
H1003 C1030 0.950 . S
H1004 C1033 0.950 . S
H1005 C1034 0.950 . S
H1006 C1036 0.950 . S
H1007 C1037 0.950 . S
C1008 H990 0.951 . S
C1008 C1009 1.366 . S
C1008 C1010 1.388 . S
C1009 C1008 1.366 . S
C1009 C1013 1.385 . S
C1010 H991 0.951 . S
C1010 C1008 1.388 . S
C1010 C1011 1.366 . S
C1011 C1010 1.366 . S
C1011 C1012 1.414 . S
C1011 C1014 1.499 . S
C1012 H992 0.950 . S
C1012 C1011 1.414 . S
C1012 C1013 1.374 . S
C1013 H993 0.950 . S
C1013 C1009 1.385 . S
C1013 C1012 1.374 . S
C1014 C1011 1.499 . S
C1014 C1015 1.373 . S
C1014 C1016 1.389 . S
C1015 H994 0.950 . S
C1015 C1014 1.373 . S
C1015 C1031 1.377 . S
C1016 C1014 1.389 . S
C1016 C1017 1.524 . S
C1016 C1030 1.377 . S
C1017 C1016 1.524 . S
C1017 C1018 1.397 . S
C1017 C1022 1.363 . S
C1018 H995 0.950 . S
C1018 C1017 1.397 . S
C1018 C1019 1.334 . S
C1019 H996 0.950 . S
C1019 C1018 1.334 . S
C1019 C1020 1.287 . S
C1020 C1019 1.287 . S
C1020 C1021 1.524 . S
C1020 H1039 0.913 . S
C1021 H997 0.950 . S
C1021 C1020 1.524 . S
C1021 C1022 1.415 . S
C1022 H998 0.950 . S
C1022 C1017 1.363 . S
C1022 C1021 1.415 . S
C1023 H999 0.951 . S
C1023 C1024 1.366 . S
C1023 C1025 1.388 . S
C1024 C1023 1.366 . S
C1024 C1028 1.385 . S
C1025 H1000 0.951 . S
C1025 C1023 1.388 . S
C1025 C1026 1.366 . S
C1026 C1025 1.366 . S
C1026 C1027 1.414 . S
C1026 C1029 1.499 . S
C1027 H1001 0.950 . S
C1027 C1026 1.414 . S
C1027 C1028 1.374 . S
C1028 H1002 0.950 . S
C1028 C1024 1.385 . S
C1028 C1027 1.374 . S
C1029 C1026 1.499 . S
C1029 C1030 1.373 . S
C1029 C1031 1.389 . S
C1030 H1003 0.950 . S
C1030 C1016 1.377 . S
C1030 C1029 1.373 . S
C1031 C1015 1.377 . S
C1031 C1029 1.389 . S
C1031 C1032 1.524 . S
C1032 C1031 1.524 . S
C1032 C1033 1.397 . S
C1032 C1037 1.363 . S
C1033 H1004 0.950 . S
C1033 C1032 1.397 . S
C1033 C1034 1.334 . S
C1034 H1005 0.950 . S
C1034 C1033 1.334 . S
C1034 C1035 1.287 . S
C1035 C1034 1.287 . S
C1035 C1036 1.524 . S
C1035 H1038 0.999 . S
C1036 H1006 0.950 . S
C1036 C1035 1.524 . S
C1036 C1037 1.415 . S
C1037 H1007 0.950 . S
C1037 C1032 1.363 . S
C1037 C1036 1.415 . S
H1038 C1035 0.999 . S
H1039 C1020 0.913 . S
H1040 C1058 0.951 . S
H1041 C1060 0.951 . S
H1042 C1062 0.950 . S
H1043 C1063 0.950 . S
H1044 C1065 0.950 . S
H1045 C1068 0.950 . S
H1046 C1069 0.950 . S
H1047 C1071 0.950 . S
H1048 C1072 0.950 . S
H1049 C1073 0.951 . S
H1050 C1075 0.951 . S
H1051 C1077 0.950 . S
H1052 C1078 0.950 . S
H1053 C1080 0.950 . S
H1054 C1083 0.950 . S
H1055 C1084 0.950 . S
H1056 C1086 0.950 . S
H1057 C1087 0.950 . S
C1058 H1040 0.951 . S
C1058 C1059 1.366 . S
C1058 C1060 1.388 . S
C1059 C1058 1.366 . S
C1059 C1063 1.385 . S
C1060 H1041 0.951 . S
C1060 C1058 1.388 . S
C1060 C1061 1.366 . S
C1061 C1060 1.366 . S
C1061 C1062 1.414 . S
C1061 C1064 1.499 . S
C1062 H1042 0.950 . S
C1062 C1061 1.414 . S
C1062 C1063 1.374 . S
C1063 H1043 0.950 . S
C1063 C1059 1.385 . S
C1063 C1062 1.374 . S
C1064 C1061 1.499 . S
C1064 C1065 1.373 . S
C1064 C1066 1.389 . S
C1065 H1044 0.950 . S
C1065 C1064 1.373 . S
C1065 C1081 1.377 . S
C1066 C1064 1.389 . S
C1066 C1067 1.524 . S
C1066 C1080 1.377 . S
C1067 C1066 1.524 . S
C1067 C1068 1.397 . S
C1067 C1072 1.363 . S
C1068 H1045 0.950 . S
C1068 C1067 1.397 . S
C1068 C1069 1.334 . S
C1069 H1046 0.950 . S
C1069 C1068 1.334 . S
C1069 C1070 1.287 . S
C1070 C1069 1.287 . S
C1070 C1071 1.524 . S
C1070 H1089 0.913 . S
C1071 H1047 0.950 . S
C1071 C1070 1.524 . S
C1071 C1072 1.415 . S
C1072 H1048 0.950 . S
C1072 C1067 1.363 . S
C1072 C1071 1.415 . S
C1073 H1049 0.951 . S
C1073 C1074 1.366 . S
C1073 C1075 1.388 . S
C1074 C1073 1.366 . S
C1074 C1078 1.385 . S
C1075 H1050 0.951 . S
C1075 C1073 1.388 . S
C1075 C1076 1.366 . S
C1076 C1075 1.366 . S
C1076 C1077 1.414 . S
C1076 C1079 1.499 . S
C1077 H1051 0.950 . S
C1077 C1076 1.414 . S
C1077 C1078 1.374 . S
C1078 H1052 0.950 . S
C1078 C1074 1.385 . S
C1078 C1077 1.374 . S
C1079 C1076 1.499 . S
C1079 C1080 1.373 . S
C1079 C1081 1.389 . S
C1080 H1053 0.950 . S
C1080 C1066 1.377 . S
C1080 C1079 1.373 . S
C1081 C1065 1.377 . S
C1081 C1079 1.389 . S
C1081 C1082 1.524 . S
C1082 C1081 1.524 . S
C1082 C1083 1.397 . S
C1082 C1087 1.363 . S
C1083 H1054 0.950 . S
C1083 C1082 1.397 . S
C1083 C1084 1.334 . S
C1084 H1055 0.950 . S
C1084 C1083 1.334 . S
C1084 C1085 1.287 . S
C1085 C1084 1.287 . S
C1085 C1086 1.524 . S
C1085 H1088 0.999 . S
C1086 H1056 0.950 . S
C1086 C1085 1.524 . S
C1086 C1087 1.415 . S
C1087 H1057 0.950 . S
C1087 C1082 1.363 . S
C1087 C1086 1.415 . S
H1088 C1085 0.999 . S
H1089 C1070 0.913 . S
H1090 C1108 0.951 . S
H1091 C1110 0.951 . S
H1092 C1112 0.950 . S
H1093 C1113 0.950 . S
H1094 C1115 0.950 . S
H1095 C1118 0.950 . S
H1096 C1119 0.950 . S
H1097 C1121 0.950 . S
H1098 C1122 0.950 . S
H1099 C1123 0.951 . S
H1100 C1125 0.951 . S
H1101 C1127 0.950 . S
H1102 C1128 0.950 . S
H1103 C1130 0.950 . S
H1104 C1133 0.950 . S
H1105 C1134 0.950 . S
H1106 C1136 0.950 . S
H1107 C1137 0.950 . S
C1108 H1090 0.951 . S
C1108 C1109 1.366 . S
C1108 C1110 1.388 . S
C1109 C1108 1.366 . S
C1109 C1113 1.385 . S
C1110 H1091 0.951 . S
C1110 C1108 1.388 . S
C1110 C1111 1.366 . S
C1111 C1110 1.366 . S
C1111 C1112 1.414 . S
C1111 C1114 1.499 . S
C1112 H1092 0.950 . S
C1112 C1111 1.414 . S
C1112 C1113 1.374 . S
C1113 H1093 0.950 . S
C1113 C1109 1.385 . S
C1113 C1112 1.374 . S
C1114 C1111 1.499 . S
C1114 C1115 1.373 . S
C1114 C1116 1.389 . S
C1115 H1094 0.950 . S
C1115 C1114 1.373 . S
C1115 C1131 1.377 . S
C1116 C1114 1.389 . S
C1116 C1117 1.524 . S
C1116 C1130 1.377 . S
C1117 C1116 1.524 . S
C1117 C1118 1.397 . S
C1117 C1122 1.363 . S
C1118 H1095 0.950 . S
C1118 C1117 1.397 . S
C1118 C1119 1.334 . S
C1119 H1096 0.950 . S
C1119 C1118 1.334 . S
C1119 C1120 1.287 . S
C1120 C1119 1.287 . S
C1120 C1121 1.524 . S
C1120 H1139 0.913 . S
C1121 H1097 0.950 . S
C1121 C1120 1.524 . S
C1121 C1122 1.415 . S
C1122 H1098 0.950 . S
C1122 C1117 1.363 . S
C1122 C1121 1.415 . S
C1123 H1099 0.951 . S
C1123 C1124 1.366 . S
C1123 C1125 1.388 . S
C1124 C1123 1.366 . S
C1124 C1128 1.385 . S
C1125 H1100 0.951 . S
C1125 C1123 1.388 . S
C1125 C1126 1.366 . S
C1126 C1125 1.366 . S
C1126 C1127 1.414 . S
C1126 C1129 1.499 . S
C1127 H1101 0.950 . S
C1127 C1126 1.414 . S
C1127 C1128 1.374 . S
C1128 H1102 0.950 . S
C1128 C1124 1.385 . S
C1128 C1127 1.374 . S
C1129 C1126 1.499 . S
C1129 C1130 1.373 . S
C1129 C1131 1.389 . S
C1130 H1103 0.950 . S
C1130 C1116 1.377 . S
C1130 C1129 1.373 . S
C1131 C1115 1.377 . S
C1131 C1129 1.389 . S
C1131 C1132 1.524 . S
C1132 C1131 1.524 . S
C1132 C1133 1.397 . S
C1132 C1137 1.363 . S
C1133 H1104 0.950 . S
C1133 C1132 1.397 . S
C1133 C1134 1.334 . S
C1134 H1105 0.950 . S
C1134 C1133 1.334 . S
C1134 C1135 1.287 . S
C1135 C1134 1.287 . S
C1135 C1136 1.524 . S
C1135 H1138 0.999 . S
C1136 H1106 0.950 . S
C1136 C1135 1.524 . S
C1136 C1137 1.415 . S
C1137 H1107 0.950 . S
C1137 C1132 1.363 . S
C1137 C1136 1.415 . S
H1138 C1135 0.999 . S
H1139 C1120 0.913 . S
H1140 C1158 0.951 . S
H1141 C1160 0.951 . S
H1142 C1162 0.950 . S
H1143 C1163 0.950 . S
H1144 C1165 0.950 . S
H1145 C1168 0.950 . S
H1146 C1169 0.950 . S
H1147 C1171 0.950 . S
H1148 C1172 0.950 . S
H1149 C1173 0.951 . S
H1150 C1175 0.951 . S
H1151 C1177 0.950 . S
H1152 C1178 0.950 . S
H1153 C1180 0.950 . S
H1154 C1183 0.950 . S
H1155 C1184 0.950 . S
H1156 C1186 0.950 . S
H1157 C1187 0.950 . S
C1158 H1140 0.951 . S
C1158 C1159 1.366 . S
C1158 C1160 1.388 . S
C1159 C1158 1.366 . S
C1159 C1163 1.385 . S
C1160 H1141 0.951 . S
C1160 C1158 1.388 . S
C1160 C1161 1.366 . S
C1161 C1160 1.366 . S
C1161 C1162 1.414 . S
C1161 C1164 1.499 . S
C1162 H1142 0.950 . S
C1162 C1161 1.414 . S
C1162 C1163 1.374 . S
C1163 H1143 0.950 . S
C1163 C1159 1.385 . S
C1163 C1162 1.374 . S
C1164 C1161 1.499 . S
C1164 C1165 1.373 . S
C1164 C1166 1.389 . S
C1165 H1144 0.950 . S
C1165 C1164 1.373 . S
C1165 C1181 1.377 . S
C1166 C1164 1.389 . S
C1166 C1167 1.524 . S
C1166 C1180 1.377 . S
C1167 C1166 1.524 . S
C1167 C1168 1.397 . S
C1167 C1172 1.363 . S
C1168 H1145 0.950 . S
C1168 C1167 1.397 . S
C1168 C1169 1.334 . S
C1169 H1146 0.950 . S
C1169 C1168 1.334 . S
C1169 C1170 1.287 . S
C1170 C1169 1.287 . S
C1170 C1171 1.524 . S
C1170 H1189 0.913 . S
C1171 H1147 0.950 . S
C1171 C1170 1.524 . S
C1171 C1172 1.415 . S
C1172 H1148 0.950 . S
C1172 C1167 1.363 . S
C1172 C1171 1.415 . S
C1173 H1149 0.951 . S
C1173 C1174 1.366 . S
C1173 C1175 1.388 . S
C1174 C1173 1.366 . S
C1174 C1178 1.385 . S
C1175 H1150 0.951 . S
C1175 C1173 1.388 . S
C1175 C1176 1.366 . S
C1176 C1175 1.366 . S
C1176 C1177 1.414 . S
C1176 C1179 1.499 . S
C1177 H1151 0.950 . S
C1177 C1176 1.414 . S
C1177 C1178 1.374 . S
C1178 H1152 0.950 . S
C1178 C1174 1.385 . S
C1178 C1177 1.374 . S
C1179 C1176 1.499 . S
C1179 C1180 1.373 . S
C1179 C1181 1.389 . S
C1180 H1153 0.950 . S
C1180 C1166 1.377 . S
C1180 C1179 1.373 . S
C1181 C1165 1.377 . S
C1181 C1179 1.389 . S
C1181 C1182 1.524 . S
C1182 C1181 1.524 . S
C1182 C1183 1.397 . S
C1182 C1187 1.363 . S
C1183 H1154 0.950 . S
C1183 C1182 1.397 . S
C1183 C1184 1.334 . S
C1184 H1155 0.950 . S
C1184 C1183 1.334 . S
C1184 C1185 1.287 . S
C1185 C1184 1.287 . S
C1185 C1186 1.524 . S
C1185 H1188 0.999 . S
C1186 H1156 0.950 . S
C1186 C1185 1.524 . S
C1186 C1187 1.415 . S
C1187 H1157 0.950 . S
C1187 C1182 1.363 . S
C1187 C1186 1.415 . S
H1188 C1185 0.999 . S
H1189 C1170 0.913 . S
H1190 C1208 0.951 . S
H1191 C1210 0.951 . S
H1192 C1212 0.950 . S
H1193 C1213 0.950 . S
H1194 C1215 0.950 . S
H1195 C1218 0.950 . S
H1196 C1219 0.950 . S
H1197 C1221 0.950 . S
H1198 C1222 0.950 . S
H1199 C1223 0.951 . S
H1200 C1225 0.951 . S
H1201 C1227 0.950 . S
H1202 C1228 0.950 . S
H1203 C1230 0.950 . S
H1204 C1233 0.950 . S
H1205 C1234 0.950 . S
H1206 C1236 0.950 . S
H1207 C1237 0.950 . S
C1208 H1190 0.951 . S
C1208 C1209 1.366 . S
C1208 C1210 1.388 . S
C1209 C1208 1.366 . S
C1209 C1213 1.385 . S
C1210 H1191 0.951 . S
C1210 C1208 1.388 . S
C1210 C1211 1.366 . S
C1211 C1210 1.366 . S
C1211 C1212 1.414 . S
C1211 C1214 1.499 . S
C1212 H1192 0.950 . S
C1212 C1211 1.414 . S
C1212 C1213 1.374 . S
C1213 H1193 0.950 . S
C1213 C1209 1.385 . S
C1213 C1212 1.374 . S
C1214 C1211 1.499 . S
C1214 C1215 1.373 . S
C1214 C1216 1.389 . S
C1215 H1194 0.950 . S
C1215 C1214 1.373 . S
C1215 C1231 1.377 . S
C1216 C1214 1.389 . S
C1216 C1217 1.524 . S
C1216 C1230 1.377 . S
C1217 C1216 1.524 . S
C1217 C1218 1.397 . S
C1217 C1222 1.363 . S
C1218 H1195 0.950 . S
C1218 C1217 1.397 . S
C1218 C1219 1.334 . S
C1219 H1196 0.950 . S
C1219 C1218 1.334 . S
C1219 C1220 1.287 . S
C1220 C1219 1.287 . S
C1220 C1221 1.524 . S
C1220 H1239 0.913 . S
C1221 H1197 0.950 . S
C1221 C1220 1.524 . S
C1221 C1222 1.415 . S
C1222 H1198 0.950 . S
C1222 C1217 1.363 . S
C1222 C1221 1.415 . S
C1223 H1199 0.951 . S
C1223 C1224 1.366 . S
C1223 C1225 1.388 . S
C1224 C1223 1.366 . S
C1224 C1228 1.385 . S
C1225 H1200 0.951 . S
C1225 C1223 1.388 . S
C1225 C1226 1.366 . S
C1226 C1225 1.366 . S
C1226 C1227 1.414 . S
C1226 C1229 1.499 . S
C1227 H1201 0.950 . S
C1227 C1226 1.414 . S
C1227 C1228 1.374 . S
C1228 H1202 0.950 . S
C1228 C1224 1.385 . S
C1228 C1227 1.374 . S
C1229 C1226 1.499 . S
C1229 C1230 1.373 . S
C1229 C1231 1.389 . S
C1230 H1203 0.950 . S
C1230 C1216 1.377 . S
C1230 C1229 1.373 . S
C1231 C1215 1.377 . S
C1231 C1229 1.389 . S
C1231 C1232 1.524 . S
C1232 C1231 1.524 . S
C1232 C1233 1.397 . S
C1232 C1237 1.363 . S
C1233 H1204 0.950 . S
C1233 C1232 1.397 . S
C1233 C1234 1.334 . S
C1234 H1205 0.950 . S
C1234 C1233 1.334 . S
C1234 C1235 1.287 . S
C1235 C1234 1.287 . S
C1235 C1236 1.524 . S
C1235 H1238 0.999 . S
C1236 H1206 0.950 . S
C1236 C1235 1.524 . S
C1236 C1237 1.415 . S
C1237 H1207 0.950 . S
C1237 C1232 1.363 . S
C1237 C1236 1.415 . S
H1238 C1235 0.999 . S
H1239 C1220 0.913 . S
H1240 C1258 0.951 . S
H1241 C1260 0.951 . S
H1242 C1262 0.950 . S
H1243 C1263 0.950 . S
H1244 C1265 0.950 . S
H1245 C1268 0.950 . S
H1246 C1269 0.950 . S
H1247 C1271 0.950 . S
H1248 C1272 0.950 . S
H1249 C1273 0.951 . S
H1250 C1275 0.951 . S
H1251 C1277 0.950 . S
H1252 C1278 0.950 . S
H1253 C1280 0.950 . S
H1254 C1283 0.950 . S
H1255 C1284 0.950 . S
H1256 C1286 0.950 . S
H1257 C1287 0.950 . S
C1258 H1240 0.951 . S
C1258 C1259 1.366 . S
C1258 C1260 1.388 . S
C1259 C1258 1.366 . S
C1259 C1263 1.385 . S
C1260 H1241 0.951 . S
C1260 C1258 1.388 . S
C1260 C1261 1.366 . S
C1261 C1260 1.366 . S
C1261 C1262 1.414 . S
C1261 C1264 1.499 . S
C1262 H1242 0.950 . S
C1262 C1261 1.414 . S
C1262 C1263 1.374 . S
C1263 H1243 0.950 . S
C1263 C1259 1.385 . S
C1263 C1262 1.374 . S
C1264 C1261 1.499 . S
C1264 C1265 1.373 . S
C1264 C1266 1.389 . S
C1265 H1244 0.950 . S
C1265 C1264 1.373 . S
C1265 C1281 1.377 . S
C1266 C1264 1.389 . S
C1266 C1267 1.524 . S
C1266 C1280 1.377 . S
C1267 C1266 1.524 . S
C1267 C1268 1.397 . S
C1267 C1272 1.363 . S
C1268 H1245 0.950 . S
C1268 C1267 1.397 . S
C1268 C1269 1.334 . S
C1269 H1246 0.950 . S
C1269 C1268 1.334 . S
C1269 C1270 1.287 . S
C1270 C1269 1.287 . S
C1270 C1271 1.524 . S
C1270 H1289 0.913 . S
C1271 H1247 0.950 . S
C1271 C1270 1.524 . S
C1271 C1272 1.415 . S
C1272 H1248 0.950 . S
C1272 C1267 1.363 . S
C1272 C1271 1.415 . S
C1273 H1249 0.951 . S
C1273 C1274 1.366 . S
C1273 C1275 1.388 . S
C1274 C1273 1.366 . S
C1274 C1278 1.385 . S
C1275 H1250 0.951 . S
C1275 C1273 1.388 . S
C1275 C1276 1.366 . S
C1276 C1275 1.366 . S
C1276 C1277 1.414 . S
C1276 C1279 1.499 . S
C1277 H1251 0.950 . S
C1277 C1276 1.414 . S
C1277 C1278 1.374 . S
C1278 H1252 0.950 . S
C1278 C1274 1.385 . S
C1278 C1277 1.374 . S
C1279 C1276 1.499 . S
C1279 C1280 1.373 . S
C1279 C1281 1.389 . S
C1280 H1253 0.950 . S
C1280 C1266 1.377 . S
C1280 C1279 1.373 . S
C1281 C1265 1.377 . S
C1281 C1279 1.389 . S
C1281 C1282 1.524 . S
C1282 C1281 1.524 . S
C1282 C1283 1.397 . S
C1282 C1287 1.363 . S
C1283 H1254 0.950 . S
C1283 C1282 1.397 . S
C1283 C1284 1.334 . S
C1284 H1255 0.950 . S
C1284 C1283 1.334 . S
C1284 C1285 1.287 . S
C1285 C1284 1.287 . S
C1285 C1286 1.524 . S
C1285 H1288 0.999 . S
C1286 H1256 0.950 . S
C1286 C1285 1.524 . S
C1286 C1287 1.415 . S
C1287 H1257 0.950 . S
C1287 C1282 1.363 . S
C1287 C1286 1.415 . S
H1288 C1285 0.999 . S
H1289 C1270 0.913 . S
H1290 C1308 0.951 1_545 S
H1291 C1310 0.943 1_545 S
H1292 C1312 0.950 . S
H1293 C1313 0.950 . S
H1294 C1315 0.950 . S
H1295 C1318 0.950 . S
H1296 C1319 0.950 . S
H1297 C1321 0.950 . S
H1298 C1322 0.950 . S
H1299 C1323 0.951 . S
H1300 C1325 0.951 . S
H1301 C1327 0.942 1_545 S
H1302 C1328 0.950 1_545 S
H1303 C1330 0.950 . S
H1304 C1333 0.950 . S
H1305 C1334 0.950 . S
H1306 C1336 0.950 . S
H1307 C1337 0.950 . S
C1308 H1290 0.951 1_565 S
C1308 C1309 1.366 . S
C1308 C1310 1.384 . S
C1309 C1308 1.366 . S
C1309 C1313 1.385 . S
C1310 H1291 0.943 1_565 S
C1310 C1308 1.384 . S
C1310 C1311 1.379 . S
C1311 C1310 1.379 . S
C1311 C1312 1.414 . S
C1311 C1314 1.499 . S
C1312 H1292 0.950 . S
C1312 C1311 1.414 . S
C1312 C1313 1.374 . S
C1313 H1293 0.950 . S
C1313 C1309 1.385 . S
C1313 C1312 1.374 . S
C1314 C1311 1.499 . S
C1314 C1315 1.373 1_565 S
C1314 C1316 1.389 . S
C1315 H1294 0.950 . S
C1315 C1314 1.373 1_545 S
C1315 C1331 1.377 . S
C1316 C1314 1.389 . S
C1316 C1317 1.524 . S
C1316 C1330 1.377 . S
C1317 C1316 1.524 . S
C1317 C1318 1.397 . S
C1317 C1322 1.363 . S
C1318 H1295 0.950 . S
C1318 C1317 1.397 . S
C1318 C1319 1.334 . S
C1319 H1296 0.950 . S
C1319 C1318 1.334 . S
C1319 C1320 1.287 . S
C1320 C1319 1.287 . S
C1320 C1321 1.524 . S
C1320 H1339 0.913 . S
C1321 H1297 0.950 . S
C1321 C1320 1.524 . S
C1321 C1322 1.415 . S
C1322 H1298 0.950 . S
C1322 C1317 1.363 . S
C1322 C1321 1.415 . S
C1323 H1299 0.951 . S
C1323 C1324 1.366 . S
C1323 C1325 1.388 . S
C1324 C1323 1.366 . S
C1324 C1328 1.385 . S
C1325 H1300 0.951 . S
C1325 C1323 1.388 . S
C1325 C1326 1.366 . S
C1326 C1325 1.366 . S
C1326 C1327 1.420 . S
C1326 C1329 1.499 . S
C1327 H1301 0.942 1_565 S
C1327 C1326 1.420 . S
C1327 C1328 1.378 . S
C1328 H1302 0.950 1_565 S
C1328 C1324 1.385 . S
C1328 C1327 1.378 . S
C1329 C1326 1.499 . S
C1329 C1330 1.373 . S
C1329 C1331 1.389 1_565 S
C1330 H1303 0.950 . S
C1330 C1316 1.377 . S
C1330 C1329 1.373 . S
C1331 C1315 1.377 . S
C1331 C1329 1.389 1_545 S
C1331 C1332 1.524 . S
C1332 C1331 1.524 . S
C1332 C1333 1.397 . S
C1332 C1337 1.363 . S
C1333 H1304 0.950 . S
C1333 C1332 1.397 . S
C1333 C1334 1.334 . S
C1334 H1305 0.950 . S
C1334 C1333 1.334 . S
C1334 C1335 1.287 . S
C1335 C1334 1.287 . S
C1335 C1336 1.524 . S
C1335 H1338 0.999 . S
C1336 H1306 0.950 . S
C1336 C1335 1.524 . S
C1336 C1337 1.415 . S
C1337 H1307 0.950 . S
C1337 C1332 1.363 . S
C1337 C1336 1.415 . S
H1338 C1335 0.999 . S
H1339 C1320 0.913 . S
H1340 C1358 0.951 . S
H1341 C1360 0.951 . S
H1342 C1362 0.950 . S
H1343 C1363 0.950 . S
H1344 C1365 0.950 . S
H1345 C1368 0.950 . S
H1346 C1369 0.950 . S
H1347 C1371 0.950 . S
H1348 C1372 0.950 . S
H1349 C1373 0.951 . S
H1350 C1375 0.951 . S
H1351 C1377 0.950 . S
H1352 C1378 0.950 . S
H1353 C1380 0.950 . S
H1354 C1383 0.950 . S
H1355 C1384 0.950 . S
H1356 C1386 0.950 . S
H1357 C1387 0.950 . S
C1358 H1340 0.951 . S
C1358 C1359 1.366 . S
C1358 C1360 1.388 . S
C1359 C1358 1.366 . S
C1359 C1363 1.385 . S
C1360 H1341 0.951 . S
C1360 C1358 1.388 . S
C1360 C1361 1.366 . S
C1361 C1360 1.366 . S
C1361 C1362 1.414 . S
C1361 C1364 1.499 . S
C1362 H1342 0.950 . S
C1362 C1361 1.414 . S
C1362 C1363 1.374 . S
C1363 H1343 0.950 . S
C1363 C1359 1.385 . S
C1363 C1362 1.374 . S
C1364 C1361 1.499 . S
C1364 C1365 1.373 . S
C1364 C1366 1.389 . S
C1365 H1344 0.950 . S
C1365 C1364 1.373 . S
C1365 C1381 1.377 . S
C1366 C1364 1.389 . S
C1366 C1367 1.524 . S
C1366 C1380 1.377 . S
C1367 C1366 1.524 . S
C1367 C1368 1.397 . S
C1367 C1372 1.363 . S
C1368 H1345 0.950 . S
C1368 C1367 1.397 . S
C1368 C1369 1.334 . S
C1369 H1346 0.950 . S
C1369 C1368 1.334 . S
C1369 C1370 1.287 . S
C1370 C1369 1.287 . S
C1370 C1371 1.524 . S
C1370 H1389 0.913 . S
C1371 H1347 0.950 . S
C1371 C1370 1.524 . S
C1371 C1372 1.415 . S
C1372 H1348 0.950 . S
C1372 C1367 1.363 . S
C1372 C1371 1.415 . S
C1373 H1349 0.951 . S
C1373 C1374 1.366 . S
C1373 C1375 1.388 . S
C1374 C1373 1.366 . S
C1374 C1378 1.385 . S
C1375 H1350 0.951 . S
C1375 C1373 1.388 . S
C1375 C1376 1.366 . S
C1376 C1375 1.366 . S
C1376 C1377 1.414 . S
C1376 C1379 1.499 . S
C1377 H1351 0.950 . S
C1377 C1376 1.414 . S
C1377 C1378 1.374 . S
C1378 H1352 0.950 . S
C1378 C1374 1.385 . S
C1378 C1377 1.374 . S
C1379 C1376 1.499 . S
C1379 C1380 1.373 . S
C1379 C1381 1.389 . S
C1380 H1353 0.950 . S
C1380 C1366 1.377 . S
C1380 C1379 1.373 . S
C1381 C1365 1.377 . S
C1381 C1379 1.389 . S
C1381 C1382 1.524 . S
C1382 C1381 1.524 . S
C1382 C1383 1.397 . S
C1382 C1387 1.363 . S
C1383 H1354 0.950 . S
C1383 C1382 1.397 . S
C1383 C1384 1.334 . S
C1384 H1355 0.950 . S
C1384 C1383 1.334 . S
C1384 C1385 1.287 . S
C1385 C1384 1.287 . S
C1385 C1386 1.524 . S
C1385 H1388 0.999 . S
C1386 H1356 0.950 . S
C1386 C1385 1.524 . S
C1386 C1387 1.415 . S
C1387 H1357 0.950 . S
C1387 C1382 1.363 . S
C1387 C1386 1.415 . S
H1388 C1385 0.999 . S
H1389 C1370 0.913 . S
H1390 C1408 0.951 1_565 S
H1391 C1410 0.951 1_565 S
H1392 C1412 0.950 . S
H1393 C1413 0.950 . S
H1394 C1415 0.950 . S
H1395 C1418 0.950 . S
H1396 C1419 0.950 . S
H1397 C1421 0.950 . S
H1398 C1422 0.950 . S
H1399 C1423 0.951 . S
H1400 C1425 0.951 . S
H1401 C1427 0.950 1_565 S
H1402 C1428 0.943 1_565 S
H1403 C1430 0.950 . S
H1404 C1433 0.950 . S
H1405 C1434 0.950 . S
H1406 C1436 0.950 . S
H1407 C1437 0.950 . S
C1408 H1390 0.951 1_545 S
C1408 C1409 1.366 . S
C1408 C1410 1.388 . S
C1409 C1408 1.366 . S
C1409 C1413 1.385 . S
C1410 H1391 0.951 1_545 S
C1410 C1408 1.388 . S
C1410 C1411 1.366 . S
C1411 C1410 1.366 . S
C1411 C1412 1.414 . S
C1411 C1414 1.499 . S
C1412 H1392 0.950 . S
C1412 C1411 1.414 . S
C1412 C1413 1.374 . S
C1413 H1393 0.950 . S
C1413 C1409 1.385 . S
C1413 C1412 1.374 . S
C1414 C1411 1.499 . S
C1414 C1415 1.373 . S
C1414 C1416 1.389 1_545 S
C1415 H1394 0.950 . S
C1415 C1414 1.373 . S
C1415 C1431 1.377 . S
C1416 C1414 1.389 1_565 S
C1416 C1417 1.524 . S
C1416 C1430 1.377 . S
C1417 C1416 1.524 . S
C1417 C1418 1.397 . S
C1417 C1422 1.363 . S
C1418 H1395 0.950 . S
C1418 C1417 1.397 . S
C1418 C1419 1.334 . S
C1419 H1396 0.950 . S
C1419 C1418 1.334 . S
C1419 C1420 1.287 . S
C1420 C1419 1.287 . S
C1420 C1421 1.524 . S
C1420 H1439 0.913 . S
C1421 H1397 0.950 . S
C1421 C1420 1.524 . S
C1421 C1422 1.415 . S
C1422 H1398 0.950 . S
C1422 C1417 1.363 . S
C1422 C1421 1.415 . S
C1423 H1399 0.951 . S
C1423 C1424 1.366 . S
C1423 C1425 1.388 . S
C1424 C1423 1.366 . S
C1424 C1428 1.394 . S
C1425 H1400 0.951 . S
C1425 C1423 1.388 . S
C1425 C1426 1.366 . S
C1426 C1425 1.366 . S
C1426 C1427 1.414 . S
C1426 C1429 1.499 . S
C1427 H1401 0.950 1_545 S
C1427 C1426 1.414 . S
C1427 C1428 1.373 . S
C1428 H1402 0.943 1_545 S
C1428 C1424 1.394 . S
C1428 C1427 1.373 . S
C1429 C1426 1.499 . S
C1429 C1430 1.373 1_545 S
C1429 C1431 1.389 . S
C1430 H1403 0.950 . S
C1430 C1416 1.377 . S
C1430 C1429 1.373 1_565 S
C1431 C1415 1.377 . S
C1431 C1429 1.389 . S
C1431 C1432 1.524 . S
C1432 C1431 1.524 . S
C1432 C1433 1.397 . S
C1432 C1437 1.363 . S
C1433 H1404 0.950 . S
C1433 C1432 1.397 . S
C1433 C1434 1.334 . S
C1434 H1405 0.950 . S
C1434 C1433 1.334 . S
C1434 C1435 1.287 . S
C1435 C1434 1.287 . S
C1435 C1436 1.524 . S
C1435 H1438 0.999 . S
C1436 H1406 0.950 . S
C1436 C1435 1.524 . S
C1436 C1437 1.415 . S
C1437 H1407 0.950 . S
C1437 C1432 1.363 . S
C1437 C1436 1.415 . S
H1438 C1435 0.999 . S
H1439 C1420 0.913 . S
H1440 C1458 0.951 . S
H1441 C1460 0.951 . S
H1442 C1462 0.950 . S
H1443 C1463 0.950 . S
H1444 C1465 0.950 . S
H1445 C1468 0.950 . S
H1446 C1469 0.950 . S
H1447 C1471 0.950 . S
H1448 C1472 0.950 . S
H1449 C1473 0.951 . S
H1450 C1475 0.951 . S
H1451 C1477 0.950 . S
H1452 C1478 0.950 . S
H1453 C1480 0.950 . S
H1454 C1483 0.950 . S
H1455 C1484 0.950 . S
H1456 C1486 0.950 . S
H1457 C1487 0.950 . S
C1458 H1440 0.951 . S
C1458 C1459 1.366 . S
C1458 C1460 1.388 . S
C1459 C1458 1.366 . S
C1459 C1463 1.385 . S
C1460 H1441 0.951 . S
C1460 C1458 1.388 . S
C1460 C1461 1.366 . S
C1461 C1460 1.366 . S
C1461 C1462 1.414 . S
C1461 C1464 1.499 . S
C1462 H1442 0.950 . S
C1462 C1461 1.414 . S
C1462 C1463 1.374 . S
C1463 H1443 0.950 . S
C1463 C1459 1.385 . S
C1463 C1462 1.374 . S
C1464 C1461 1.499 . S
C1464 C1465 1.373 . S
C1464 C1466 1.389 . S
C1465 H1444 0.950 . S
C1465 C1464 1.373 . S
C1465 C1481 1.377 . S
C1466 C1464 1.389 . S
C1466 C1467 1.524 . S
C1466 C1480 1.377 . S
C1467 C1466 1.524 . S
C1467 C1468 1.397 . S
C1467 C1472 1.363 . S
C1468 H1445 0.950 . S
C1468 C1467 1.397 . S
C1468 C1469 1.334 . S
C1469 H1446 0.950 . S
C1469 C1468 1.334 . S
C1469 C1470 1.287 . S
C1470 C1469 1.287 . S
C1470 C1471 1.524 . S
C1470 H1489 0.913 . S
C1471 H1447 0.950 . S
C1471 C1470 1.524 . S
C1471 C1472 1.415 . S
C1472 H1448 0.950 . S
C1472 C1467 1.363 . S
C1472 C1471 1.415 . S
C1473 H1449 0.951 . S
C1473 C1474 1.366 . S
C1473 C1475 1.388 . S
C1474 C1473 1.366 . S
C1474 C1478 1.385 . S
C1475 H1450 0.951 . S
C1475 C1473 1.388 . S
C1475 C1476 1.366 . S
C1476 C1475 1.366 . S
C1476 C1477 1.414 . S
C1476 C1479 1.499 . S
C1477 H1451 0.950 . S
C1477 C1476 1.414 . S
C1477 C1478 1.374 . S
C1478 H1452 0.950 . S
C1478 C1474 1.385 . S
C1478 C1477 1.374 . S
C1479 C1476 1.499 . S
C1479 C1480 1.373 . S
C1479 C1481 1.389 . S
C1480 H1453 0.950 . S
C1480 C1466 1.377 . S
C1480 C1479 1.373 . S
C1481 C1465 1.377 . S
C1481 C1479 1.389 . S
C1481 C1482 1.524 . S
C1482 C1481 1.524 . S
C1482 C1483 1.397 . S
C1482 C1487 1.363 . S
C1483 H1454 0.950 . S
C1483 C1482 1.397 . S
C1483 C1484 1.334 . S
C1484 H1455 0.950 . S
C1484 C1483 1.334 . S
C1484 C1485 1.287 . S
C1485 C1484 1.287 . S
C1485 C1486 1.524 . S
C1485 H1488 0.999 . S
C1486 H1456 0.950 . S
C1486 C1485 1.524 . S
C1486 C1487 1.415 . S
C1487 H1457 0.950 . S
C1487 C1482 1.363 . S
C1487 C1486 1.415 . S
H1488 C1485 0.999 . S
H1489 C1470 0.913 . S
H1490 C1508 0.951 . S
H1491 C1510 0.951 . S
H1492 C1512 0.950 . S
H1493 C1513 0.950 . S
H1494 C1515 0.950 . S
H1495 C1518 0.950 . S
H1496 C1519 0.950 . S
H1497 C1521 0.950 . S
H1498 C1522 0.950 . S
H1499 C1523 0.951 1_554 S
H1500 C1525 0.951 1_554 S
H1501 C1527 0.950 . S
H1502 C1528 0.950 . S
H1503 C1530 0.950 . S
H1504 C1533 0.950 . S
H1505 C1534 0.950 . S
H1506 C1536 0.950 . S
H1507 C1537 0.950 . S
C1508 H1490 0.951 . S
C1508 C1509 1.366 . S
C1508 C1510 1.388 . S
C1509 C1508 1.366 . S
C1509 C1513 1.385 1_556 S
C1510 H1491 0.951 . S
C1510 C1508 1.388 . S
C1510 C1511 1.366 . S
C1511 C1510 1.366 . S
C1511 C1512 1.414 1_556 S
C1511 C1514 1.499 . S
C1512 H1492 0.950 . S
C1512 C1511 1.414 1_554 S
C1512 C1513 1.374 . S
C1513 H1493 0.950 . S
C1513 C1509 1.385 1_554 S
C1513 C1512 1.374 . S
C1514 C1511 1.499 . S
C1514 C1515 1.373 1_556 S
C1514 C1516 1.389 . S
C1515 H1494 0.950 . S
C1515 C1514 1.373 1_554 S
C1515 C1531 1.377 . S
C1516 C1514 1.389 . S
C1516 C1517 1.524 . S
C1516 C1530 1.377 . S
C1517 C1516 1.524 . S
C1517 C1518 1.397 . S
C1517 C1522 1.363 . S
C1518 H1495 0.950 . S
C1518 C1517 1.397 . S
C1518 C1519 1.334 . S
C1519 H1496 0.950 . S
C1519 C1518 1.334 . S
C1519 C1520 1.287 . S
C1520 C1519 1.287 . S
C1520 C1521 1.524 . S
C1520 H1539 0.913 . S
C1521 H1497 0.950 . S
C1521 C1520 1.524 . S
C1521 C1522 1.415 . S
C1522 H1498 0.950 . S
C1522 C1517 1.363 . S
C1522 C1521 1.415 . S
C1523 H1499 0.951 1_556 S
C1523 C1524 1.366 . S
C1523 C1525 1.388 . S
C1524 C1523 1.366 . S
C1524 C1528 1.385 . S
C1525 H1500 0.951 1_556 S
C1525 C1523 1.388 . S
C1525 C1526 1.366 . S
C1526 C1525 1.366 . S
C1526 C1527 1.414 . S
C1526 C1529 1.499 . S
C1527 H1501 0.950 . S
C1527 C1526 1.414 . S
C1527 C1528 1.374 . S
C1528 H1502 0.950 . S
C1528 C1524 1.385 . S
C1528 C1527 1.374 . S
C1529 C1526 1.499 . S
C1529 C1530 1.373 . S
C1529 C1531 1.389 1_556 S
C1530 H1503 0.950 . S
C1530 C1516 1.377 . S
C1530 C1529 1.373 . S
C1531 C1515 1.377 . S
C1531 C1529 1.389 1_554 S
C1531 C1532 1.524 . S
C1532 C1531 1.524 . S
C1532 C1533 1.397 . S
C1532 C1537 1.363 . S
C1533 H1504 0.950 . S
C1533 C1532 1.397 . S
C1533 C1534 1.334 . S
C1534 H1505 0.950 . S
C1534 C1533 1.334 . S
C1534 C1535 1.287 . S
C1535 C1534 1.287 . S
C1535 C1536 1.524 . S
C1535 H1538 0.999 . S
C1536 H1506 0.950 . S
C1536 C1535 1.524 . S
C1536 C1537 1.415 . S
C1537 H1507 0.950 . S
C1537 C1532 1.363 . S
C1537 C1536 1.415 . S
H1538 C1535 0.999 . S
H1539 C1520 0.913 . S
H1540 C1558 0.951 . S
H1541 C1560 0.951 . S
H1542 C1562 0.925 1_554 S
H1543 C1563 0.950 1_554 S
H1544 C1565 0.950 1_554 S
H1545 C1568 0.950 . S
H1546 C1569 0.950 . S
H1547 C1571 0.950 . S
H1548 C1572 0.950 . S
H1549 C1573 0.951 . S
H1550 C1575 0.951 . S
H1551 C1577 0.950 . S
H1552 C1578 0.950 . S
H1553 C1580 0.950 . S
H1554 C1583 0.950 . S
H1555 C1584 0.950 . S
H1556 C1586 0.950 . S
H1557 C1587 0.950 . S
C1558 H1540 0.951 . S
C1558 C1559 1.366 . S
C1558 C1560 1.388 . S
C1559 C1558 1.366 . S
C1559 C1563 1.385 . S
C1560 H1541 0.951 . S
C1560 C1558 1.388 . S
C1560 C1561 1.366 . S
C1561 C1560 1.366 . S
C1561 C1562 1.414 . S
C1561 C1564 1.499 . S
C1562 H1542 0.925 1_556 S
C1562 C1561 1.414 . S
C1562 C1563 1.374 . S
C1563 H1543 0.950 1_556 S
C1563 C1559 1.385 . S
C1563 C1562 1.374 . S
C1564 C1561 1.499 . S
C1564 C1565 1.373 . S
C1564 C1566 1.389 . S
C1565 H1544 0.950 1_556 S
C1565 C1564 1.373 . S
C1565 C1581 1.377 . S
C1566 C1564 1.389 . S
C1566 C1567 1.524 . S
C1566 C1580 1.377 . S
C1567 C1566 1.524 . S
C1567 C1568 1.397 . S
C1567 C1572 1.363 . S
C1568 H1545 0.950 . S
C1568 C1567 1.397 . S
C1568 C1569 1.334 . S
C1569 H1546 0.950 . S
C1569 C1568 1.334 . S
C1569 C1570 1.287 . S
C1570 C1569 1.287 . S
C1570 C1571 1.524 . S
C1570 H1589 0.913 . S
C1571 H1547 0.950 . S
C1571 C1570 1.524 . S
C1571 C1572 1.415 . S
C1572 H1548 0.950 . S
C1572 C1567 1.363 . S
C1572 C1571 1.415 . S
C1573 H1549 0.951 . S
C1573 C1574 1.366 . S
C1573 C1575 1.388 . S
C1574 C1573 1.366 . S
C1574 C1578 1.385 . S
C1575 H1550 0.951 . S
C1575 C1573 1.388 . S
C1575 C1576 1.366 . S
C1576 C1575 1.366 . S
C1576 C1577 1.414 . S
C1576 C1579 1.499 . S
C1577 H1551 0.950 . S
C1577 C1576 1.414 . S
C1577 C1578 1.374 . S
C1578 H1552 0.950 . S
C1578 C1574 1.385 . S
C1578 C1577 1.374 . S
C1579 C1576 1.499 . S
C1579 C1580 1.373 . S
C1579 C1581 1.389 . S
C1580 H1553 0.950 . S
C1580 C1566 1.377 . S
C1580 C1579 1.373 . S
C1581 C1565 1.377 . S
C1581 C1579 1.389 . S
C1581 C1582 1.524 1_556 S
C1582 C1581 1.524 1_554 S
C1582 C1583 1.397 . S
C1582 C1587 1.363 . S
C1583 H1554 0.950 . S
C1583 C1582 1.397 . S
C1583 C1584 1.334 . S
C1584 H1555 0.950 . S
C1584 C1583 1.334 . S
C1584 C1585 1.287 . S
C1585 C1584 1.287 . S
C1585 C1586 1.524 . S
C1585 H1588 0.999 . S
C1586 H1556 0.950 . S
C1586 C1585 1.524 . S
C1586 C1587 1.415 . S
C1587 H1557 0.950 . S
C1587 C1582 1.363 . S
C1587 C1586 1.415 . S
H1588 C1585 0.999 . S
H1589 C1570 0.913 . S
H1590 C1608 0.951 . S
H1591 C1610 0.951 . S
H1592 C1612 0.950 . S
H1593 C1613 0.950 . S
H1594 C1615 0.950 . S
H1595 C1618 0.950 . S
H1596 C1619 0.950 . S
H1597 C1621 0.950 . S
H1598 C1622 0.950 . S
H1599 C1623 0.951 1_455 S
H1600 C1625 0.951 . S
H1601 C1627 0.950 . S
H1602 C1628 0.950 . S
H1603 C1630 0.950 . S
H1604 C1633 0.950 . S
H1605 C1634 0.950 . S
H1606 C1636 0.950 . S
H1607 C1637 0.950 . S
C1608 H1590 0.951 . S
C1608 C1609 1.366 . S
C1608 C1610 1.388 . S
C1609 C1608 1.366 . S
C1609 C1613 1.385 . S
C1610 H1591 0.951 . S
C1610 C1608 1.388 . S
C1610 C1611 1.366 . S
C1611 C1610 1.366 . S
C1611 C1612 1.414 . S
C1611 C1614 1.499 . S
C1612 H1592 0.950 . S
C1612 C1611 1.414 . S
C1612 C1613 1.374 . S
C1613 H1593 0.950 . S
C1613 C1609 1.385 . S
C1613 C1612 1.374 . S
C1614 C1611 1.499 . S
C1614 C1615 1.373 . S
C1614 C1616 1.389 . S
C1615 H1594 0.950 . S
C1615 C1614 1.373 . S
C1615 C1631 1.377 . S
C1616 C1614 1.389 . S
C1616 C1617 1.524 . S
C1616 C1630 1.377 . S
C1617 C1616 1.524 . S
C1617 C1618 1.397 . S
C1617 C1622 1.363 . S
C1618 H1595 0.950 . S
C1618 C1617 1.397 . S
C1618 C1619 1.334 . S
C1619 H1596 0.950 . S
C1619 C1618 1.334 . S
C1619 C1620 1.287 . S
C1620 C1619 1.287 . S
C1620 C1621 1.524 . S
C1620 H1639 0.913 . S
C1621 H1597 0.950 . S
C1621 C1620 1.524 . S
C1621 C1622 1.415 . S
C1622 H1598 0.950 . S
C1622 C1617 1.363 . S
C1622 C1621 1.415 . S
C1623 H1599 0.951 1_655 S
C1623 C1624 1.366 . S
C1623 C1625 1.388 . S
C1624 C1623 1.366 . S
C1624 C1628 1.385 . S
C1625 H1600 0.951 . S
C1625 C1623 1.388 . S
C1625 C1626 1.366 . S
C1626 C1625 1.366 . S
C1626 C1627 1.414 . S
C1626 C1629 1.499 . S
C1627 H1601 0.950 . S
C1627 C1626 1.414 . S
C1627 C1628 1.374 . S
C1628 H1602 0.950 . S
C1628 C1624 1.385 . S
C1628 C1627 1.374 . S
C1629 C1626 1.499 . S
C1629 C1630 1.373 . S
C1629 C1631 1.389 . S
C1630 H1603 0.950 . S
C1630 C1616 1.377 . S
C1630 C1629 1.373 . S
C1631 C1615 1.377 . S
C1631 C1629 1.389 . S
C1631 C1632 1.552 . S
C1632 C1631 1.552 . S
C1632 C1633 1.359 1_554 S
C1632 C1637 1.372 . S
C1633 H1604 0.950 . S
C1633 C1632 1.359 1_556 S
C1633 C1634 1.334 . S
C1634 H1605 0.950 . S
C1634 C1633 1.334 . S
C1634 C1635 1.287 . S
C1635 C1634 1.287 . S
C1635 C1636 1.524 . S
C1635 H1638 0.999 . S
C1636 H1606 0.950 . S
C1636 C1635 1.524 . S
C1636 C1637 1.415 1_556 S
C1637 H1607 0.950 . S
C1637 C1632 1.372 . S
C1637 C1636 1.415 1_554 S
H1638 C1635 0.999 . S
H1639 C1620 0.913 . S
H1640 C1658 0.951 . S
H1641 C1660 0.951 . S
H1642 C1662 0.950 . S
H1643 C1663 0.950 . S
H1644 C1665 0.950 . S
H1645 C1668 0.950 . S
H1646 C1669 0.950 . S
H1647 C1671 0.950 . S
H1648 C1672 0.950 . S
H1649 C1673 0.951 . S
H1650 C1675 0.951 . S
H1651 C1677 0.950 . S
H1652 C1678 0.950 . S
H1653 C1680 0.950 1_655 S
H1654 C1683 0.950 1_655 S
H1655 C1684 0.950 . S
H1656 C1686 0.950 . S
H1657 C1687 0.950 . S
C1658 H1640 0.951 . S
C1658 C1659 1.366 1_655 S
C1658 C1660 1.388 . S
C1659 C1658 1.366 1_455 S
C1659 C1663 1.385 . S
C1660 H1641 0.951 . S
C1660 C1658 1.388 . S
C1660 C1661 1.366 1_655 S
C1661 C1660 1.366 1_455 S
C1661 C1662 1.414 . S
C1661 C1664 1.499 . S
C1662 H1642 0.950 . S
C1662 C1661 1.414 . S
C1662 C1663 1.374 . S
C1663 H1643 0.950 . S
C1663 C1659 1.385 . S
C1663 C1662 1.374 . S
C1664 C1661 1.499 . S
C1664 C1665 1.373 . S
C1664 C1666 1.389 . S
C1665 H1644 0.950 . S
C1665 C1664 1.373 . S
C1665 C1681 1.377 . S
C1666 C1664 1.389 . S
C1666 C1667 1.524 1_455 S
C1666 C1680 1.377 . S
C1667 C1666 1.524 1_655 S
C1667 C1668 1.397 1_655 S
C1667 C1672 1.363 . S
C1668 H1645 0.950 . S
C1668 C1667 1.397 1_455 S
C1668 C1669 1.334 . S
C1669 H1646 0.950 . S
C1669 C1668 1.334 . S
C1669 C1670 1.287 1_455 S
C1670 C1669 1.287 1_655 S
C1670 C1671 1.524 . S
C1670 H1689 0.913 . S
C1671 H1647 0.950 . S
C1671 C1670 1.524 . S
C1671 C1672 1.415 . S
C1672 H1648 0.950 . S
C1672 C1667 1.363 . S
C1672 C1671 1.415 . S
C1673 H1649 0.951 . S
C1673 C1674 1.366 . S
C1673 C1675 1.388 . S
C1674 C1673 1.366 . S
C1674 C1678 1.385 1_455 S
C1675 H1650 0.951 . S
C1675 C1673 1.388 . S
C1675 C1676 1.366 . S
C1676 C1675 1.366 . S
C1676 C1677 1.414 1_455 S
C1676 C1679 1.499 . S
C1677 H1651 0.950 . S
C1677 C1676 1.414 1_655 S
C1677 C1678 1.374 . S
C1678 H1652 0.950 . S
C1678 C1674 1.385 1_655 S
C1678 C1677 1.374 . S
C1679 C1676 1.499 . S
C1679 C1680 1.373 . S
C1679 C1681 1.389 . S
C1680 H1653 0.950 1_455 S
C1680 C1666 1.377 . S
C1680 C1679 1.373 . S
C1681 C1665 1.377 . S
C1681 C1679 1.389 . S
C1681 C1682 1.524 . S
C1682 C1681 1.524 . S
C1682 C1683 1.397 . S
C1682 C1687 1.363 . S
C1683 H1654 0.950 1_455 S
C1683 C1682 1.397 . S
C1683 C1684 1.334 . S
C1684 H1655 0.950 . S
C1684 C1683 1.334 . S
C1684 C1685 1.287 . S
C1685 C1684 1.287 . S
C1685 C1686 1.524 . S
C1685 H1688 0.999 . S
C1686 H1656 0.950 . S
C1686 C1685 1.524 . S
C1686 C1687 1.415 . S
C1687 H1657 0.950 . S
C1687 C1682 1.363 . S
C1687 C1686 1.415 . S
H1688 C1685 0.999 . S
H1689 C1670 0.913 . S
H1690 C1708 0.951 . S
H1691 C1710 0.951 . S
H1692 C1712 0.950 . S
H1693 C1713 0.950 . S
H1694 C1715 0.950 . S
H1695 C1718 0.950 1_455 S
H1696 C1719 0.950 . S
H1697 C1721 0.950 . S
H1698 C1722 0.950 . S
H1699 C1723 0.951 . S
H1700 C1725 0.951 . S
H1701 C1727 0.950 . S
H1702 C1728 0.950 . S
H1703 C1730 0.950 . S
H1704 C1733 0.999 . S
H1705 C1734 0.950 1_655 S
H1706 C1736 0.950 . S
H1707 C1737 0.950 . S
C1708 H1690 0.951 . S
C1708 C1709 1.366 . S
C1708 C1710 1.388 . S
C1709 C1708 1.366 . S
C1709 C1713 1.385 1_655 S
C1710 H1691 0.951 . S
C1710 C1708 1.388 . S
C1710 C1711 1.366 . S
C1711 C1710 1.366 . S
C1711 C1712 1.414 1_655 S
C1711 C1714 1.499 . S
C1712 H1692 0.950 . S
C1712 C1711 1.414 1_455 S
C1712 C1713 1.374 . S
C1713 H1693 0.950 . S
C1713 C1709 1.385 1_455 S
C1713 C1712 1.374 . S
C1714 C1711 1.499 . S
C1714 C1715 1.373 1_655 S
C1714 C1716 1.389 . S
C1715 H1694 0.950 . S
C1715 C1714 1.373 1_455 S
C1715 C1731 1.377 . S
C1716 C1714 1.389 . S
C1716 C1717 1.524 . S
C1716 C1730 1.377 . S
C1717 C1716 1.524 . S
C1717 C1718 1.397 . S
C1717 C1722 1.363 . S
C1718 H1695 0.950 1_655 S
C1718 C1717 1.397 . S
C1718 C1719 1.334 . S
C1719 H1696 0.950 . S
C1719 C1718 1.334 . S
C1719 C1720 1.287 . S
C1720 C1719 1.287 . S
C1720 C1721 1.524 . S
C1720 H1739 0.913 . S
C1721 H1697 0.950 . S
C1721 C1720 1.524 . S
C1721 C1722 1.415 . S
C1722 H1698 0.950 . S
C1722 C1717 1.363 . S
C1722 C1721 1.415 . S
C1723 H1699 0.951 . S
C1723 C1724 1.366 1_455 S
C1723 C1725 1.388 . S
C1724 C1723 1.366 1_655 S
C1724 C1728 1.385 . S
C1725 H1700 0.951 . S
C1725 C1723 1.388 . S
C1725 C1726 1.366 1_455 S
C1726 C1725 1.366 1_655 S
C1726 C1727 1.414 . S
C1726 C1729 1.499 . S
C1727 H1701 0.950 . S
C1727 C1726 1.414 . S
C1727 C1728 1.374 . S
C1728 H1702 0.950 . S
C1728 C1724 1.385 . S
C1728 C1727 1.374 . S
C1729 C1726 1.499 . S
C1729 C1730 1.373 . S
C1729 C1731 1.389 1_655 S
C1730 H1703 0.950 . S
C1730 C1716 1.377 . S
C1730 C1729 1.373 . S
C1731 C1715 1.377 . S
C1731 C1729 1.389 1_455 S
C1731 C1732 1.524 . S
C1732 C1731 1.524 . S
C1732 C1733 1.364 1_455 S
C1732 C1737 1.363 . S
C1733 H1704 0.999 . S
C1733 C1732 1.364 1_655 S
C1733 C1734 1.319 1_655 S
C1734 H1705 0.950 1_455 S
C1734 C1733 1.319 1_455 S
C1734 C1735 1.287 . S
C1735 C1734 1.287 . S
C1735 C1736 1.524 . S
C1735 H1738 0.999 . S
C1736 H1706 0.950 . S
C1736 C1735 1.524 . S
C1736 C1737 1.415 . S
C1737 H1707 0.950 . S
C1737 C1732 1.363 . S
C1737 C1736 1.415 . S
H1738 C1735 0.999 . S
H1739 C1720 0.913 . S
H1740 C1758 0.951 . S
H1741 C1760 0.951 . S
H1742 C1762 0.950 . S
H1743 C1763 0.950 . S
H1744 C1765 0.950 . S
H1745 C1768 0.950 . S
H1746 C1769 0.950 . S
H1747 C1771 0.950 . S
H1748 C1772 0.950 . S
H1749 C1773 0.951 . S
H1750 C1775 0.951 . S
H1751 C1777 0.938 1_655 S
H1752 C1778 0.950 1_655 S
H1753 C1780 0.950 . S
H1754 C1783 0.950 . S
H1755 C1784 0.950 . S
H1756 C1786 0.950 . S
H1757 C1787 0.950 . S
C1758 H1740 0.951 . S
C1758 C1759 1.366 1_655 S
C1758 C1760 1.388 . S
C1759 C1758 1.366 1_455 S
C1759 C1763 1.385 . S
C1760 H1741 0.951 . S
C1760 C1758 1.388 . S
C1760 C1761 1.366 1_655 S
C1761 C1760 1.366 1_455 S
C1761 C1762 1.414 . S
C1761 C1764 1.499 . S
C1762 H1742 0.950 . S
C1762 C1761 1.414 . S
C1762 C1763 1.374 . S
C1763 H1743 0.950 . S
C1763 C1759 1.385 . S
C1763 C1762 1.374 . S
C1764 C1761 1.499 . S
C1764 C1765 1.373 . S
C1764 C1766 1.389 1_455 S
C1765 H1744 0.950 . S
C1765 C1764 1.373 . S
C1765 C1781 1.377 . S
C1766 C1764 1.389 1_655 S
C1766 C1767 1.524 . S
C1766 C1780 1.377 . S
C1767 C1766 1.524 . S
C1767 C1768 1.397 . S
C1767 C1772 1.363 . S
C1768 H1745 0.950 . S
C1768 C1767 1.397 . S
C1768 C1769 1.334 . S
C1769 H1746 0.950 . S
C1769 C1768 1.334 . S
C1769 C1770 1.287 . S
C1770 C1769 1.287 . S
C1770 C1771 1.524 . S
C1770 H1789 0.913 . S
C1771 H1747 0.950 . S
C1771 C1770 1.524 . S
C1771 C1772 1.415 . S
C1772 H1748 0.950 . S
C1772 C1767 1.363 . S
C1772 C1771 1.415 . S
C1773 H1749 0.951 . S
C1773 C1774 1.366 . S
C1773 C1775 1.388 . S
C1774 C1773 1.366 . S
C1774 C1778 1.385 . S
C1775 H1750 0.951 . S
C1775 C1773 1.388 . S
C1775 C1776 1.366 . S
C1776 C1775 1.366 . S
C1776 C1777 1.425 . S
C1776 C1779 1.499 . S
C1777 H1751 0.938 1_455 S
C1777 C1776 1.425 . S
C1777 C1778 1.376 . S
C1778 H1752 0.950 1_455 S
C1778 C1774 1.385 . S
C1778 C1777 1.376 . S
C1779 C1776 1.499 . S
C1779 C1780 1.373 1_455 S
C1779 C1781 1.389 . S
C1780 H1753 0.950 . S
C1780 C1766 1.377 . S
C1780 C1779 1.373 1_655 S
C1781 C1765 1.377 . S
C1781 C1779 1.389 . S
C1781 C1782 1.524 . S
C1782 C1781 1.524 . S
C1782 C1783 1.397 . S
C1782 C1787 1.363 . S
C1783 H1754 0.950 . S
C1783 C1782 1.397 . S
C1783 C1784 1.334 . S
C1784 H1755 0.950 . S
C1784 C1783 1.334 . S
C1784 C1785 1.287 . S
C1785 C1784 1.287 . S
C1785 C1786 1.524 . S
C1785 H1788 0.999 . S
C1786 H1756 0.950 . S
C1786 C1785 1.524 . S
C1786 C1787 1.415 . S
C1787 H1757 0.950 . S
C1787 C1782 1.363 . S
C1787 C1786 1.415 . S
H1788 C1785 0.999 . S
H1789 C1770 0.913 . S
H1790 C1808 0.951 . S
H1791 C1810 0.951 . S
H1792 C1812 0.950 . S
H1793 C1813 0.950 . S
H1794 C1815 0.950 . S
H1795 C1818 0.950 . S
H1796 C1819 0.950 . S
H1797 C1821 0.950 . S
H1798 C1822 0.950 . S
H1799 C1823 0.951 . S
H1800 C1825 0.951 . S
H1801 C1827 0.950 1_455 S
H1802 C1828 0.950 1_455 S
H1803 C1830 0.950 . S
H1804 C1833 0.950 . S
H1805 C1834 0.950 . S
H1806 C1836 0.950 . S
H1807 C1837 0.950 . S
C1808 H1790 0.951 . S
C1808 C1809 1.366 1_455 S
C1808 C1810 1.388 . S
C1809 C1808 1.366 1_655 S
C1809 C1813 1.385 . S
C1810 H1791 0.951 . S
C1810 C1808 1.388 . S
C1810 C1811 1.366 1_455 S
C1811 C1810 1.366 1_655 S
C1811 C1812 1.414 . S
C1811 C1814 1.499 . S
C1812 H1792 0.950 . S
C1812 C1811 1.414 . S
C1812 C1813 1.374 . S
C1813 H1793 0.950 . S
C1813 C1809 1.385 . S
C1813 C1812 1.374 . S
C1814 C1811 1.499 . S
C1814 C1815 1.373 . S
C1814 C1816 1.389 1_655 S
C1815 H1794 0.950 . S
C1815 C1814 1.373 . S
C1815 C1831 1.377 . S
C1816 C1814 1.389 1_455 S
C1816 C1817 1.524 . S
C1816 C1830 1.377 . S
C1817 C1816 1.524 . S
C1817 C1818 1.397 . S
C1817 C1822 1.363 . S
C1818 H1795 0.950 . S
C1818 C1817 1.397 . S
C1818 C1819 1.334 . S
C1819 H1796 0.950 . S
C1819 C1818 1.334 . S
C1819 C1820 1.287 . S
C1820 C1819 1.287 . S
C1820 C1821 1.524 . S
C1820 H1839 0.913 . S
C1821 H1797 0.950 . S
C1821 C1820 1.524 . S
C1821 C1822 1.415 . S
C1822 H1798 0.950 . S
C1822 C1817 1.363 . S
C1822 C1821 1.415 . S
C1823 H1799 0.951 . S
C1823 C1824 1.366 . S
C1823 C1825 1.388 . S
C1824 C1823 1.366 . S
C1824 C1828 1.385 . S
C1825 H1800 0.951 . S
C1825 C1823 1.388 . S
C1825 C1826 1.366 . S
C1826 C1825 1.366 . S
C1826 C1827 1.414 . S
C1826 C1829 1.499 . S
C1827 H1801 0.950 1_655 S
C1827 C1826 1.414 . S
C1827 C1828 1.374 . S
C1828 H1802 0.950 1_655 S
C1828 C1824 1.385 . S
C1828 C1827 1.374 . S
C1829 C1826 1.499 . S
C1829 C1830 1.373 1_655 S
C1829 C1831 1.389 . S
C1830 H1803 0.950 . S
C1830 C1816 1.377 . S
C1830 C1829 1.373 1_455 S
C1831 C1815 1.377 . S
C1831 C1829 1.389 . S
C1831 C1832 1.524 . S
C1832 C1831 1.524 . S
C1832 C1833 1.397 . S
C1832 C1837 1.363 . S
C1833 H1804 0.950 . S
C1833 C1832 1.397 . S
C1833 C1834 1.334 . S
C1834 H1805 0.950 . S
C1834 C1833 1.334 . S
C1834 C1835 1.287 . S
C1835 C1834 1.287 . S
C1835 C1836 1.524 . S
C1835 H1838 0.999 . S
C1836 H1806 0.950 . S
C1836 C1835 1.524 . S
C1836 C1837 1.415 . S
C1837 H1807 0.950 . S
C1837 C1832 1.363 . S
C1837 C1836 1.415 . S
H1838 C1835 0.999 . S
H1839 C1820 0.913 . S
H1840 C1858 0.951 . S
H1841 C1860 0.951 . S
H1842 C1862 0.950 1_565 S
H1843 C1863 0.924 1_565 S
H1844 C1865 0.950 1_565 S
H1845 C1868 0.950 . S
H1846 C1869 0.950 . S
H1847 C1871 0.950 . S
H1848 C1872 0.950 . S
H1849 C1873 0.965 . S
H1850 C1875 0.951 1_565 S
H1851 C1877 0.950 . S
H1852 C1878 0.950 . S
H1853 C1880 0.950 . S
H1854 C1883 0.950 . S
H1855 C1884 0.950 . S
H1856 C1886 0.950 . S
H1857 C1887 0.950 . S
C1858 H1840 0.951 . S
C1858 C1859 1.366 . S
C1858 C1860 1.388 . S
C1859 C1858 1.366 . S
C1859 C1863 1.411 . S
C1860 H1841 0.951 . S
C1860 C1858 1.388 . S
C1860 C1861 1.366 . S
C1861 C1860 1.366 . S
C1861 C1862 1.414 . S
C1861 C1864 1.499 . S
C1862 H1842 0.950 1_545 S
C1862 C1861 1.414 . S
C1862 C1863 1.375 . S
C1863 H1843 0.924 1_545 S
C1863 C1859 1.411 . S
C1863 C1862 1.375 . S
C1864 C1861 1.499 . S
C1864 C1865 1.373 . S
C1864 C1866 1.389 . S
C1865 H1844 0.950 1_545 S
C1865 C1864 1.373 . S
C1865 C1881 1.377 . S
C1866 C1864 1.389 . S
C1866 C1867 1.524 . S
C1866 C1880 1.377 . S
C1867 C1866 1.524 . S
C1867 C1868 1.397 . S
C1867 C1872 1.363 . S
C1868 H1845 0.950 . S
C1868 C1867 1.397 . S
C1868 C1869 1.334 . S
C1869 H1846 0.950 . S
C1869 C1868 1.334 . S
C1869 C1870 1.287 . S
C1870 C1869 1.287 . S
C1870 C1871 1.524 . S
C1870 H1889 0.913 . S
C1871 H1847 0.950 . S
C1871 C1870 1.524 . S
C1871 C1872 1.415 . S
C1872 H1848 0.950 . S
C1872 C1867 1.363 . S
C1872 C1871 1.415 . S
C1873 H1849 0.965 . S
C1873 C1874 1.366 . S
C1873 C1875 1.388 . S
C1874 C1873 1.366 . S
C1874 C1878 1.385 . S
C1875 H1850 0.951 1_545 S
C1875 C1873 1.388 . S
C1875 C1876 1.366 . S
C1876 C1875 1.366 . S
C1876 C1877 1.414 . S
C1876 C1879 1.499 . S
C1877 H1851 0.950 . S
C1877 C1876 1.414 . S
C1877 C1878 1.374 . S
C1878 H1852 0.950 . S
C1878 C1874 1.385 . S
C1878 C1877 1.374 . S
C1879 C1876 1.499 . S
C1879 C1880 1.373 . S
C1879 C1881 1.389 . S
C1880 H1853 0.950 . S
C1880 C1866 1.377 . S
C1880 C1879 1.373 . S
C1881 C1865 1.377 . S
C1881 C1879 1.389 . S
C1881 C1882 1.524 1_545 S
C1882 C1881 1.524 1_565 S
C1882 C1883 1.397 . S
C1882 C1887 1.363 . S
C1883 H1854 0.950 . S
C1883 C1882 1.397 . S
C1883 C1884 1.334 . S
C1884 H1855 0.950 . S
C1884 C1883 1.334 . S
C1884 C1885 1.287 . S
C1885 C1884 1.287 . S
C1885 C1886 1.524 . S
C1885 H1888 0.999 . S
C1886 H1856 0.950 . S
C1886 C1885 1.524 . S
C1886 C1887 1.415 . S
C1887 H1857 0.950 . S
C1887 C1882 1.363 . S
C1887 C1886 1.415 . S
H1888 C1885 0.999 . S
H1889 C1870 0.913 . S
H1890 C1908 0.951 . S
H1891 C1910 0.951 . S
H1892 C1912 0.950 . S
H1893 C1913 0.950 . S
H1894 C1915 0.950 . S
H1895 C1918 0.950 . S
H1896 C1919 0.950 . S
H1897 C1921 0.950 . S
H1898 C1922 0.950 . S
H1899 C1923 0.951 . S
H1900 C1925 0.951 . S
H1901 C1927 0.950 . S
H1902 C1928 0.950 . S
H1903 C1930 0.950 . S
H1904 C1933 0.950 . S
H1905 C1934 0.950 . S
H1906 C1936 0.950 . S
H1907 C1937 0.950 . S
C1908 H1890 0.951 . S
C1908 C1909 1.366 . S
C1908 C1910 1.388 . S
C1909 C1908 1.366 . S
C1909 C1913 1.385 . S
C1910 H1891 0.951 . S
C1910 C1908 1.388 . S
C1910 C1911 1.366 . S
C1911 C1910 1.366 . S
C1911 C1912 1.414 . S
C1911 C1914 1.499 . S
C1912 H1892 0.950 . S
C1912 C1911 1.414 . S
C1912 C1913 1.374 . S
C1913 H1893 0.950 . S
C1913 C1909 1.385 . S
C1913 C1912 1.374 . S
C1914 C1911 1.499 . S
C1914 C1915 1.373 . S
C1914 C1916 1.389 . S
C1915 H1894 0.950 . S
C1915 C1914 1.373 . S
C1915 C1931 1.377 . S
C1916 C1914 1.389 . S
C1916 C1917 1.524 . S
C1916 C1930 1.377 . S
C1917 C1916 1.524 . S
C1917 C1918 1.397 . S
C1917 C1922 1.363 . S
C1918 H1895 0.950 . S
C1918 C1917 1.397 . S
C1918 C1919 1.334 . S
C1919 H1896 0.950 . S
C1919 C1918 1.334 . S
C1919 C1920 1.287 . S
C1920 C1919 1.287 . S
C1920 C1921 1.524 . S
C1920 H1939 0.913 . S
C1921 H1897 0.950 . S
C1921 C1920 1.524 . S
C1921 C1922 1.415 . S
C1922 H1898 0.950 . S
C1922 C1917 1.363 . S
C1922 C1921 1.415 . S
C1923 H1899 0.951 . S
C1923 C1924 1.366 . S
C1923 C1925 1.388 . S
C1924 C1923 1.366 . S
C1924 C1928 1.385 . S
C1925 H1900 0.951 . S
C1925 C1923 1.388 . S
C1925 C1926 1.366 . S
C1926 C1925 1.366 . S
C1926 C1927 1.414 . S
C1926 C1929 1.499 . S
C1927 H1901 0.950 . S
C1927 C1926 1.414 . S
C1927 C1928 1.374 . S
C1928 H1902 0.950 . S
C1928 C1924 1.385 . S
C1928 C1927 1.374 . S
C1929 C1926 1.499 . S
C1929 C1930 1.373 . S
C1929 C1931 1.389 . S
C1930 H1903 0.950 . S
C1930 C1916 1.377 . S
C1930 C1929 1.373 . S
C1931 C1915 1.377 . S
C1931 C1929 1.389 . S
C1931 C1932 1.524 . S
C1932 C1931 1.524 . S
C1932 C1933 1.397 . S
C1932 C1937 1.363 . S
C1933 H1904 0.950 . S
C1933 C1932 1.397 . S
C1933 C1934 1.334 . S
C1934 H1905 0.950 . S
C1934 C1933 1.334 . S
C1934 C1935 1.287 . S
C1935 C1934 1.287 . S
C1935 C1936 1.524 . S
C1935 H1938 0.999 . S
C1936 H1906 0.950 . S
C1936 C1935 1.524 . S
C1936 C1937 1.415 . S
C1937 H1907 0.950 . S
C1937 C1932 1.363 . S
C1937 C1936 1.415 . S
H1938 C1935 0.999 . S
H1939 C1920 0.913 . S
H1940 C1958 0.951 . S
H1941 C1960 0.951 . S
H1942 C1962 0.950 . S
H1943 C1963 0.950 . S
H1944 C1965 0.950 . S
H1945 C1968 0.950 . S
H1946 C1969 0.950 . S
H1947 C1971 0.950 . S
H1948 C1972 0.950 . S
H1949 C1973 0.951 . S
H1950 C1975 0.951 . S
H1951 C1977 0.950 . S
H1952 C1978 0.950 . S
H1953 C1980 0.950 . S
H1954 C1983 0.950 . S
H1955 C1984 0.950 . S
H1956 C1986 0.950 . S
H1957 C1987 0.950 . S
C1958 H1940 0.951 . S
C1958 C1959 1.366 . S
C1958 C1960 1.388 . S
C1959 C1958 1.366 . S
C1959 C1963 1.385 1_565 S
C1960 H1941 0.951 . S
C1960 C1958 1.388 . S
C1960 C1961 1.366 . S
C1961 C1960 1.366 . S
C1961 C1962 1.414 1_565 S
C1961 C1964 1.499 . S
C1962 H1942 0.950 . S
C1962 C1961 1.414 1_545 S
C1962 C1963 1.374 . S
C1963 H1943 0.950 . S
C1963 C1959 1.385 1_545 S
C1963 C1962 1.374 . S
C1964 C1961 1.499 . S
C1964 C1965 1.373 1_565 S
C1964 C1966 1.389 . S
C1965 H1944 0.950 . S
C1965 C1964 1.373 1_545 S
C1965 C1981 1.377 . S
C1966 C1964 1.389 . S
C1966 C1967 1.524 . S
C1966 C1980 1.377 . S
C1967 C1966 1.524 . S
C1967 C1968 1.397 . S
C1967 C1972 1.363 . S
C1968 H1945 0.950 . S
C1968 C1967 1.397 . S
C1968 C1969 1.334 . S
C1969 H1946 0.950 . S
C1969 C1968 1.334 . S
C1969 C1970 1.287 . S
C1970 C1969 1.287 . S
C1970 C1971 1.524 . S
C1970 H1989 0.913 . S
C1971 H1947 0.950 . S
C1971 C1970 1.524 . S
C1971 C1972 1.415 . S
C1972 H1948 0.950 . S
C1972 C1967 1.363 . S
C1972 C1971 1.415 . S
C1973 H1949 0.951 . S
C1973 C1974 1.366 . S
C1973 C1975 1.388 . S
C1974 C1973 1.366 . S
C1974 C1978 1.385 . S
C1975 H1950 0.951 . S
C1975 C1973 1.388 . S
C1975 C1976 1.366 . S
C1976 C1975 1.366 . S
C1976 C1977 1.414 . S
C1976 C1979 1.499 . S
C1977 H1951 0.950 . S
C1977 C1976 1.414 . S
C1977 C1978 1.374 . S
C1978 H1952 0.950 . S
C1978 C1974 1.385 . S
C1978 C1977 1.374 . S
C1979 C1976 1.499 . S
C1979 C1980 1.373 . S
C1979 C1981 1.389 1_565 S
C1980 H1953 0.950 . S
C1980 C1966 1.377 . S
C1980 C1979 1.373 . S
C1981 C1965 1.377 . S
C1981 C1979 1.389 1_545 S
C1981 C1982 1.524 . S
C1982 C1981 1.524 . S
C1982 C1983 1.397 . S
C1982 C1987 1.363 . S
C1983 H1954 0.950 . S
C1983 C1982 1.397 . S
C1983 C1984 1.334 . S
C1984 H1955 0.950 . S
C1984 C1983 1.334 . S
C1984 C1985 1.287 . S
C1985 C1984 1.287 . S
C1985 C1986 1.524 . S
C1985 H1988 0.999 . S
C1986 H1956 0.950 . S
C1986 C1985 1.524 . S
C1986 C1987 1.415 . S
C1987 H1957 0.950 . S
C1987 C1982 1.363 . S
C1987 C1986 1.415 . S
H1988 C1985 0.999 . S
H1989 C1970 0.913 . S
H1990 C2008 0.951 . S
H1991 C2010 0.951 . S
H1992 C2012 0.950 . S
H1993 C2013 0.950 . S
H1994 C2015 0.950 . S
H1995 C2018 0.950 . S
H1996 C2019 0.950 . S
H1997 C2021 0.950 . S
H1998 C2022 0.950 . S
H1999 C2023 0.951 . S
H2000 C2025 0.951 . S
H2001 C2027 0.950 . S
H2002 C2028 0.950 . S
H2003 C2030 0.950 . S
H2004 C2033 0.950 . S
H2005 C2034 0.950 . S
H2006 C2036 0.950 . S
H2007 C2037 0.950 . S
C2008 H1990 0.951 . S
C2008 C2009 1.366 . S
C2008 C2010 1.388 . S
C2009 C2008 1.366 . S
C2009 C2013 1.385 . S
C2010 H1991 0.951 . S
C2010 C2008 1.388 . S
C2010 C2011 1.366 . S
C2011 C2010 1.366 . S
C2011 C2012 1.414 . S
C2011 C2014 1.499 . S
C2012 H1992 0.950 . S
C2012 C2011 1.414 . S
C2012 C2013 1.374 . S
C2013 H1993 0.950 . S
C2013 C2009 1.385 . S
C2013 C2012 1.374 . S
C2014 C2011 1.499 . S
C2014 C2015 1.373 . S
C2014 C2016 1.389 . S
C2015 H1994 0.950 . S
C2015 C2014 1.373 . S
C2015 C2031 1.377 . S
C2016 C2014 1.389 . S
C2016 C2017 1.524 . S
C2016 C2030 1.377 . S
C2017 C2016 1.524 . S
C2017 C2018 1.397 . S
C2017 C2022 1.363 . S
C2018 H1995 0.950 . S
C2018 C2017 1.397 . S
C2018 C2019 1.334 . S
C2019 H1996 0.950 . S
C2019 C2018 1.334 . S
C2019 C2020 1.287 . S
C2020 C2019 1.287 . S
C2020 C2021 1.524 . S
C2020 H2039 0.913 . S
C2021 H1997 0.950 . S
C2021 C2020 1.524 . S
C2021 C2022 1.415 . S
C2022 H1998 0.950 . S
C2022 C2017 1.363 . S
C2022 C2021 1.415 . S
C2023 H1999 0.951 . S
C2023 C2024 1.366 . S
C2023 C2025 1.388 . S
C2024 C2023 1.366 . S
C2024 C2028 1.385 . S
C2025 H2000 0.951 . S
C2025 C2023 1.388 . S
C2025 C2026 1.366 . S
C2026 C2025 1.366 . S
C2026 C2027 1.414 . S
C2026 C2029 1.499 . S
C2027 H2001 0.950 . S
C2027 C2026 1.414 . S
C2027 C2028 1.374 . S
C2028 H2002 0.950 . S
C2028 C2024 1.385 . S
C2028 C2027 1.374 . S
C2029 C2026 1.499 . S
C2029 C2030 1.373 . S
C2029 C2031 1.389 . S
C2030 H2003 0.950 . S
C2030 C2016 1.377 . S
C2030 C2029 1.373 . S
C2031 C2015 1.377 . S
C2031 C2029 1.389 . S
C2031 C2032 1.524 . S
C2032 C2031 1.524 . S
C2032 C2033 1.397 . S
C2032 C2037 1.363 . S
C2033 H2004 0.950 . S
C2033 C2032 1.397 . S
C2033 C2034 1.334 . S
C2034 H2005 0.950 . S
C2034 C2033 1.334 . S
C2034 C2035 1.287 . S
C2035 C2034 1.287 . S
C2035 C2036 1.524 . S
C2035 H2038 0.999 . S
C2036 H2006 0.950 . S
C2036 C2035 1.524 . S
C2036 C2037 1.415 . S
C2037 H2007 0.950 . S
C2037 C2032 1.363 . S
C2037 C2036 1.415 . S
H2038 C2035 0.999 . S
H2039 C2020 0.913 . S
H2040 C2058 0.951 . S
H2041 C2060 0.951 . S
H2042 C2062 0.963 . S
H2043 C2063 0.950 . S
H2044 C2065 0.950 . S
H2045 C2068 0.950 1_556 S
H2046 C2069 0.951 1_556 S
H2047 C2071 0.950 . S
H2048 C2072 0.950 . S
H2049 C2073 0.951 . S
H2050 C2075 0.951 . S
H2051 C2077 0.950 . S
H2052 C2078 0.950 . S
H2053 C2080 0.950 . S
H2054 C2083 0.950 . S
H2055 C2084 0.950 . S
H2056 C2086 0.950 1_556 S
H2057 C2087 0.950 1_556 S
C2058 H2040 0.951 . S
C2058 C2059 1.366 . S
C2058 C2060 1.388 . S
C2059 C2058 1.366 . S
C2059 C2063 1.385 1_554 S
C2060 H2041 0.951 . S
C2060 C2058 1.388 . S
C2060 C2061 1.366 . S
C2061 C2060 1.366 . S
C2061 C2062 1.402 1_554 S
C2061 C2064 1.499 . S
C2062 H2042 0.963 . S
C2062 C2061 1.402 1_556 S
C2062 C2063 1.374 . S
C2063 H2043 0.950 . S
C2063 C2059 1.385 1_556 S
C2063 C2062 1.374 . S
C2064 C2061 1.499 . S
C2064 C2065 1.373 . S
C2064 C2066 1.389 . S
C2065 H2044 0.950 . S
C2065 C2064 1.373 . S
C2065 C2081 1.377 . S
C2066 C2064 1.389 . S
C2066 C2067 1.524 . S
C2066 C2080 1.377 . S
C2067 C2066 1.524 . S
C2067 C2068 1.397 . S
C2067 C2072 1.363 . S
C2068 H2045 0.950 1_554 S
C2068 C2067 1.397 . S
C2068 C2069 1.334 . S
C2069 H2046 0.951 1_554 S
C2069 C2068 1.334 . S
C2069 C2070 1.286 . S
C2070 C2069 1.286 . S
C2070 C2071 1.524 . S
C2070 H2089 0.913 . S
C2071 H2047 0.950 . S
C2071 C2070 1.524 . S
C2071 C2072 1.415 . S
C2072 H2048 0.950 . S
C2072 C2067 1.363 . S
C2072 C2071 1.415 . S
C2073 H2049 0.951 . S
C2073 C2074 1.366 . S
C2073 C2075 1.388 . S
C2074 C2073 1.366 . S
C2074 C2078 1.385 . S
C2075 H2050 0.951 . S
C2075 C2073 1.388 . S
C2075 C2076 1.366 . S
C2076 C2075 1.366 . S
C2076 C2077 1.414 . S
C2076 C2079 1.499 . S
C2077 H2051 0.950 . S
C2077 C2076 1.414 . S
C2077 C2078 1.374 . S
C2078 H2052 0.950 . S
C2078 C2074 1.385 . S
C2078 C2077 1.374 . S
C2079 C2076 1.499 . S
C2079 C2080 1.373 . S
C2079 C2081 1.389 . S
C2080 H2053 0.950 . S
C2080 C2066 1.377 . S
C2080 C2079 1.373 . S
C2081 C2065 1.377 . S
C2081 C2079 1.389 . S
C2081 C2082 1.524 . S
C2082 C2081 1.524 . S
C2082 C2083 1.397 . S
C2082 C2087 1.363 . S
C2083 H2054 0.950 . S
C2083 C2082 1.397 . S
C2083 C2084 1.334 . S
C2084 H2055 0.950 . S
C2084 C2083 1.334 . S
C2084 C2085 1.287 . S
C2085 C2084 1.287 . S
C2085 C2086 1.524 . S
C2085 H2088 0.999 . S
C2086 H2056 0.950 1_554 S
C2086 C2085 1.524 . S
C2086 C2087 1.415 . S
C2087 H2057 0.950 1_554 S
C2087 C2082 1.363 . S
C2087 C2086 1.415 . S
H2088 C2085 0.999 . S
H2089 C2070 0.913 . S
H2090 C2108 0.951 . S
H2091 C2110 0.951 . S
H2092 C2112 0.950 . S
H2093 C2113 0.950 . S
H2094 C2115 0.950 . S
H2095 C2118 0.950 . S
H2096 C2119 0.950 . S
H2097 C2121 0.950 . S
H2098 C2122 0.950 . S
H2099 C2123 0.951 . S
H2100 C2125 0.951 . S
H2101 C2127 0.950 . S
H2102 C2128 0.950 . S
H2103 C2130 0.950 . S
H2104 C2133 0.950 . S
H2105 C2134 0.950 . S
H2106 C2136 0.950 . S
H2107 C2137 0.950 . S
C2108 H2090 0.951 . S
C2108 C2109 1.366 . S
C2108 C2110 1.388 . S
C2109 C2108 1.366 . S
C2109 C2113 1.385 . S
C2110 H2091 0.951 . S
C2110 C2108 1.388 . S
C2110 C2111 1.366 . S
C2111 C2110 1.366 . S
C2111 C2112 1.414 . S
C2111 C2114 1.499 . S
C2112 H2092 0.950 . S
C2112 C2111 1.414 . S
C2112 C2113 1.374 . S
C2113 H2093 0.950 . S
C2113 C2109 1.385 . S
C2113 C2112 1.374 . S
C2114 C2111 1.499 . S
C2114 C2115 1.373 . S
C2114 C2116 1.389 . S
C2115 H2094 0.950 . S
C2115 C2114 1.373 . S
C2115 C2131 1.377 . S
C2116 C2114 1.389 . S
C2116 C2117 1.524 . S
C2116 C2130 1.377 . S
C2117 C2116 1.524 . S
C2117 C2118 1.397 . S
C2117 C2122 1.363 . S
C2118 H2095 0.950 . S
C2118 C2117 1.397 . S
C2118 C2119 1.334 . S
C2119 H2096 0.950 . S
C2119 C2118 1.334 . S
C2119 C2120 1.287 . S
C2120 C2119 1.287 . S
C2120 C2121 1.524 . S
C2120 H2139 0.913 . S
C2121 H2097 0.950 . S
C2121 C2120 1.524 . S
C2121 C2122 1.415 . S
C2122 H2098 0.950 . S
C2122 C2117 1.363 . S
C2122 C2121 1.415 . S
C2123 H2099 0.951 . S
C2123 C2124 1.366 . S
C2123 C2125 1.388 . S
C2124 C2123 1.366 . S
C2124 C2128 1.385 . S
C2125 H2100 0.951 . S
C2125 C2123 1.388 . S
C2125 C2126 1.366 . S
C2126 C2125 1.366 . S
C2126 C2127 1.414 . S
C2126 C2129 1.499 . S
C2127 H2101 0.950 . S
C2127 C2126 1.414 . S
C2127 C2128 1.374 . S
C2128 H2102 0.950 . S
C2128 C2124 1.385 . S
C2128 C2127 1.374 . S
C2129 C2126 1.499 . S
C2129 C2130 1.373 . S
C2129 C2131 1.389 . S
C2130 H2103 0.950 . S
C2130 C2116 1.377 . S
C2130 C2129 1.373 . S
C2131 C2115 1.377 . S
C2131 C2129 1.389 . S
C2131 C2132 1.524 . S
C2132 C2131 1.524 . S
C2132 C2133 1.397 . S
C2132 C2137 1.363 . S
C2133 H2104 0.950 . S
C2133 C2132 1.397 . S
C2133 C2134 1.334 . S
C2134 H2105 0.950 . S
C2134 C2133 1.334 . S
C2134 C2135 1.287 . S
C2135 C2134 1.287 . S
C2135 C2136 1.524 . S
C2135 H2138 0.999 . S
C2136 H2106 0.950 . S
C2136 C2135 1.524 . S
C2136 C2137 1.415 . S
C2137 H2107 0.950 . S
C2137 C2132 1.363 . S
C2137 C2136 1.415 . S
H2138 C2135 0.999 . S
H2139 C2120 0.913 . S
H2140 C2158 0.951 . S
H2141 C2160 0.951 . S
H2142 C2162 0.950 . S
H2143 C2163 0.950 . S
H2144 C2165 0.950 . S
H2145 C2168 0.950 . S
H2146 C2169 0.950 . S
H2147 C2171 0.950 . S
H2148 C2172 0.950 . S
H2149 C2173 0.951 . S
H2150 C2175 0.951 . S
H2151 C2177 0.950 . S
H2152 C2178 0.950 . S
H2153 C2180 0.950 . S
H2154 C2183 0.950 . S
H2155 C2184 0.950 . S
H2156 C2186 0.950 . S
H2157 C2187 0.950 . S
C2158 H2140 0.951 . S
C2158 C2159 1.366 . S
C2158 C2160 1.388 . S
C2159 C2158 1.366 . S
C2159 C2163 1.385 . S
C2160 H2141 0.951 . S
C2160 C2158 1.388 . S
C2160 C2161 1.366 . S
C2161 C2160 1.366 . S
C2161 C2162 1.414 . S
C2161 C2164 1.499 . S
C2162 H2142 0.950 . S
C2162 C2161 1.414 . S
C2162 C2163 1.374 . S
C2163 H2143 0.950 . S
C2163 C2159 1.385 . S
C2163 C2162 1.374 . S
C2164 C2161 1.499 . S
C2164 C2165 1.373 . S
C2164 C2166 1.389 . S
C2165 H2144 0.950 . S
C2165 C2164 1.373 . S
C2165 C2181 1.377 . S
C2166 C2164 1.389 . S
C2166 C2167 1.524 . S
C2166 C2180 1.377 . S
C2167 C2166 1.524 . S
C2167 C2168 1.397 . S
C2167 C2172 1.363 . S
C2168 H2145 0.950 . S
C2168 C2167 1.397 . S
C2168 C2169 1.334 . S
C2169 H2146 0.950 . S
C2169 C2168 1.334 . S
C2169 C2170 1.287 . S
C2170 C2169 1.287 . S
C2170 C2171 1.524 . S
C2170 H2189 0.913 . S
C2171 H2147 0.950 . S
C2171 C2170 1.524 . S
C2171 C2172 1.415 . S
C2172 H2148 0.950 . S
C2172 C2167 1.363 . S
C2172 C2171 1.415 . S
C2173 H2149 0.951 . S
C2173 C2174 1.366 . S
C2173 C2175 1.388 . S
C2174 C2173 1.366 . S
C2174 C2178 1.385 . S
C2175 H2150 0.951 . S
C2175 C2173 1.388 . S
C2175 C2176 1.366 . S
C2176 C2175 1.366 . S
C2176 C2177 1.414 . S
C2176 C2179 1.499 . S
C2177 H2151 0.950 . S
C2177 C2176 1.414 . S
C2177 C2178 1.374 . S
C2178 H2152 0.950 . S
C2178 C2174 1.385 . S
C2178 C2177 1.374 . S
C2179 C2176 1.499 . S
C2179 C2180 1.373 . S
C2179 C2181 1.389 . S
C2180 H2153 0.950 . S
C2180 C2166 1.377 . S
C2180 C2179 1.373 . S
C2181 C2165 1.377 . S
C2181 C2179 1.389 . S
C2181 C2182 1.524 . S
C2182 C2181 1.524 . S
C2182 C2183 1.397 . S
C2182 C2187 1.363 . S
C2183 H2154 0.950 . S
C2183 C2182 1.397 . S
C2183 C2184 1.334 . S
C2184 H2155 0.950 . S
C2184 C2183 1.334 . S
C2184 C2185 1.287 . S
C2185 C2184 1.287 . S
C2185 C2186 1.524 . S
C2185 H2188 0.999 . S
C2186 H2156 0.950 . S
C2186 C2185 1.524 . S
C2186 C2187 1.415 . S
C2187 H2157 0.950 . S
C2187 C2182 1.363 . S
C2187 C2186 1.415 . S
H2188 C2185 0.999 . S
H2189 C2170 0.913 . S
H2190 C2208 0.951 . S
H2191 C2210 0.951 . S
H2192 C2212 0.950 . S
H2193 C2213 0.950 . S
H2194 C2215 0.950 . S
H2195 C2218 0.950 . S
H2196 C2219 0.950 . S
H2197 C2221 0.950 . S
H2198 C2222 0.950 . S
H2199 C2223 0.951 . S
H2200 C2225 0.951 . S
H2201 C2227 0.950 . S
H2202 C2228 0.950 . S
H2203 C2230 0.950 . S
H2204 C2233 0.950 . S
H2205 C2234 0.950 . S
H2206 C2236 0.950 . S
H2207 C2237 0.950 . S
C2208 H2190 0.951 . S
C2208 C2209 1.366 . S
C2208 C2210 1.388 . S
C2209 C2208 1.366 . S
C2209 C2213 1.385 . S
C2210 H2191 0.951 . S
C2210 C2208 1.388 . S
C2210 C2211 1.366 . S
C2211 C2210 1.366 . S
C2211 C2212 1.414 . S
C2211 C2214 1.499 . S
C2212 H2192 0.950 . S
C2212 C2211 1.414 . S
C2212 C2213 1.374 . S
C2213 H2193 0.950 . S
C2213 C2209 1.385 . S
C2213 C2212 1.374 . S
C2214 C2211 1.499 . S
C2214 C2215 1.373 . S
C2214 C2216 1.389 . S
C2215 H2194 0.950 . S
C2215 C2214 1.373 . S
C2215 C2231 1.377 . S
C2216 C2214 1.389 . S
C2216 C2217 1.524 . S
C2216 C2230 1.377 . S
C2217 C2216 1.524 . S
C2217 C2218 1.397 . S
C2217 C2222 1.363 . S
C2218 H2195 0.950 . S
C2218 C2217 1.397 . S
C2218 C2219 1.334 . S
C2219 H2196 0.950 . S
C2219 C2218 1.334 . S
C2219 C2220 1.287 . S
C2220 C2219 1.287 . S
C2220 C2221 1.524 . S
C2220 H2239 0.913 . S
C2221 H2197 0.950 . S
C2221 C2220 1.524 . S
C2221 C2222 1.415 . S
C2222 H2198 0.950 . S
C2222 C2217 1.363 . S
C2222 C2221 1.415 . S
C2223 H2199 0.951 . S
C2223 C2224 1.366 . S
C2223 C2225 1.388 . S
C2224 C2223 1.366 . S
C2224 C2228 1.385 . S
C2225 H2200 0.951 . S
C2225 C2223 1.388 . S
C2225 C2226 1.366 . S
C2226 C2225 1.366 . S
C2226 C2227 1.414 . S
C2226 C2229 1.499 . S
C2227 H2201 0.950 . S
C2227 C2226 1.414 . S
C2227 C2228 1.374 . S
C2228 H2202 0.950 . S
C2228 C2224 1.385 . S
C2228 C2227 1.374 . S
C2229 C2226 1.499 . S
C2229 C2230 1.373 . S
C2229 C2231 1.389 . S
C2230 H2203 0.950 . S
C2230 C2216 1.377 . S
C2230 C2229 1.373 . S
C2231 C2215 1.377 . S
C2231 C2229 1.389 . S
C2231 C2232 1.524 . S
C2232 C2231 1.524 . S
C2232 C2233 1.397 . S
C2232 C2237 1.363 . S
C2233 H2204 0.950 . S
C2233 C2232 1.397 . S
C2233 C2234 1.334 . S
C2234 H2205 0.950 . S
C2234 C2233 1.334 . S
C2234 C2235 1.287 . S
C2235 C2234 1.287 . S
C2235 C2236 1.524 . S
C2235 H2238 0.999 . S
C2236 H2206 0.950 . S
C2236 C2235 1.524 . S
C2236 C2237 1.415 . S
C2237 H2207 0.950 . S
C2237 C2232 1.363 . S
C2237 C2236 1.415 . S
H2238 C2235 0.999 . S
H2239 C2220 0.913 . S
H2240 C2258 0.951 . S
H2241 C2260 0.951 . S
H2242 C2262 0.950 . S
H2243 C2263 0.950 . S
H2244 C2265 0.950 . S
H2245 C2268 0.950 . S
H2246 C2269 0.950 . S
H2247 C2271 0.950 . S
H2248 C2272 0.950 . S
H2249 C2273 0.951 . S
H2250 C2275 0.951 . S
H2251 C2277 0.950 . S
H2252 C2278 0.950 . S
H2253 C2280 0.950 . S
H2254 C2283 0.950 . S
H2255 C2284 0.950 . S
H2256 C2286 0.950 . S
H2257 C2287 0.950 . S
C2258 H2240 0.951 . S
C2258 C2259 1.366 . S
C2258 C2260 1.388 . S
C2259 C2258 1.366 . S
C2259 C2263 1.385 . S
C2260 H2241 0.951 . S
C2260 C2258 1.388 . S
C2260 C2261 1.366 . S
C2261 C2260 1.366 . S
C2261 C2262 1.414 . S
C2261 C2264 1.499 . S
C2262 H2242 0.950 . S
C2262 C2261 1.414 . S
C2262 C2263 1.374 . S
C2263 H2243 0.950 . S
C2263 C2259 1.385 . S
C2263 C2262 1.374 . S
C2264 C2261 1.499 . S
C2264 C2265 1.373 . S
C2264 C2266 1.389 . S
C2265 H2244 0.950 . S
C2265 C2264 1.373 . S
C2265 C2281 1.377 . S
C2266 C2264 1.389 . S
C2266 C2267 1.524 . S
C2266 C2280 1.377 . S
C2267 C2266 1.524 . S
C2267 C2268 1.397 . S
C2267 C2272 1.363 . S
C2268 H2245 0.950 . S
C2268 C2267 1.397 . S
C2268 C2269 1.334 . S
C2269 H2246 0.950 . S
C2269 C2268 1.334 . S
C2269 C2270 1.287 . S
C2270 C2269 1.287 . S
C2270 C2271 1.524 . S
C2270 H2289 0.913 . S
C2271 H2247 0.950 . S
C2271 C2270 1.524 . S
C2271 C2272 1.415 . S
C2272 H2248 0.950 . S
C2272 C2267 1.363 . S
C2272 C2271 1.415 . S
C2273 H2249 0.951 . S
C2273 C2274 1.366 . S
C2273 C2275 1.388 . S
C2274 C2273 1.366 . S
C2274 C2278 1.385 . S
C2275 H2250 0.951 . S
C2275 C2273 1.388 . S
C2275 C2276 1.366 . S
C2276 C2275 1.366 . S
C2276 C2277 1.414 . S
C2276 C2279 1.499 . S
C2277 H2251 0.950 . S
C2277 C2276 1.414 . S
C2277 C2278 1.374 . S
C2278 H2252 0.950 . S
C2278 C2274 1.385 . S
C2278 C2277 1.374 . S
C2279 C2276 1.499 . S
C2279 C2280 1.373 . S
C2279 C2281 1.389 . S
C2280 H2253 0.950 . S
C2280 C2266 1.377 . S
C2280 C2279 1.373 . S
C2281 C2265 1.377 . S
C2281 C2279 1.389 . S
C2281 C2282 1.524 . S
C2282 C2281 1.524 . S
C2282 C2283 1.397 . S
C2282 C2287 1.363 . S
C2283 H2254 0.950 . S
C2283 C2282 1.397 . S
C2283 C2284 1.334 . S
C2284 H2255 0.950 . S
C2284 C2283 1.334 . S
C2284 C2285 1.287 . S
C2285 C2284 1.287 . S
C2285 C2286 1.524 . S
C2285 H2288 0.999 . S
C2286 H2256 0.950 . S
C2286 C2285 1.524 . S
C2286 C2287 1.415 . S
C2287 H2257 0.950 . S
C2287 C2282 1.363 . S
C2287 C2286 1.415 . S
H2288 C2285 0.999 . S
H2289 C2270 0.913 . S
H2290 C2308 0.951 . S
H2291 C2310 0.951 . S
H2292 C2312 0.950 . S
H2293 C2313 0.950 . S
H2294 C2315 0.950 . S
H2295 C2318 0.950 . S
H2296 C2319 0.950 . S
H2297 C2321 0.950 . S
H2298 C2322 0.950 . S
H2299 C2323 0.951 . S
H2300 C2325 0.951 . S
H2301 C2327 0.950 . S
H2302 C2328 0.950 . S
H2303 C2330 0.950 . S
H2304 C2333 0.950 . S
H2305 C2334 0.950 . S
H2306 C2336 0.950 . S
H2307 C2337 0.950 . S
C2308 H2290 0.951 . S
C2308 C2309 1.366 . S
C2308 C2310 1.388 . S
C2309 C2308 1.366 . S
C2309 C2313 1.385 . S
C2310 H2291 0.951 . S
C2310 C2308 1.388 . S
C2310 C2311 1.366 . S
C2311 C2310 1.366 . S
C2311 C2312 1.414 . S
C2311 C2314 1.499 . S
C2312 H2292 0.950 . S
C2312 C2311 1.414 . S
C2312 C2313 1.374 . S
C2313 H2293 0.950 . S
C2313 C2309 1.385 . S
C2313 C2312 1.374 . S
C2314 C2311 1.499 . S
C2314 C2315 1.373 . S
C2314 C2316 1.389 . S
C2315 H2294 0.950 . S
C2315 C2314 1.373 . S
C2315 C2331 1.377 . S
C2316 C2314 1.389 . S
C2316 C2317 1.524 . S
C2316 C2330 1.377 . S
C2317 C2316 1.524 . S
C2317 C2318 1.397 . S
C2317 C2322 1.363 . S
C2318 H2295 0.950 . S
C2318 C2317 1.397 . S
C2318 C2319 1.334 . S
C2319 H2296 0.950 . S
C2319 C2318 1.334 . S
C2319 C2320 1.287 . S
C2320 C2319 1.287 . S
C2320 C2321 1.524 . S
C2320 H2339 0.913 . S
C2321 H2297 0.950 . S
C2321 C2320 1.524 . S
C2321 C2322 1.415 . S
C2322 H2298 0.950 . S
C2322 C2317 1.363 . S
C2322 C2321 1.415 . S
C2323 H2299 0.951 . S
C2323 C2324 1.366 . S
C2323 C2325 1.388 . S
C2324 C2323 1.366 . S
C2324 C2328 1.385 . S
C2325 H2300 0.951 . S
C2325 C2323 1.388 . S
C2325 C2326 1.366 . S
C2326 C2325 1.366 . S
C2326 C2327 1.414 . S
C2326 C2329 1.499 . S
C2327 H2301 0.950 . S
C2327 C2326 1.414 . S
C2327 C2328 1.374 . S
C2328 H2302 0.950 . S
C2328 C2324 1.385 . S
C2328 C2327 1.374 . S
C2329 C2326 1.499 . S
C2329 C2330 1.373 . S
C2329 C2331 1.389 . S
C2330 H2303 0.950 . S
C2330 C2316 1.377 . S
C2330 C2329 1.373 . S
C2331 C2315 1.377 . S
C2331 C2329 1.389 . S
C2331 C2332 1.524 . S
C2332 C2331 1.524 . S
C2332 C2333 1.397 . S
C2332 C2337 1.363 . S
C2333 H2304 0.950 . S
C2333 C2332 1.397 . S
C2333 C2334 1.334 . S
C2334 H2305 0.950 . S
C2334 C2333 1.334 . S
C2334 C2335 1.287 . S
C2335 C2334 1.287 . S
C2335 C2336 1.524 . S
C2335 H2338 0.999 . S
C2336 H2306 0.950 . S
C2336 C2335 1.524 . S
C2336 C2337 1.415 . S
C2337 H2307 0.950 . S
C2337 C2332 1.363 . S
C2337 C2336 1.415 . S
H2338 C2335 0.999 . S
H2339 C2320 0.913 . S
H2340 C2358 0.951 . S
H2341 C2360 0.951 . S
H2342 C2362 0.950 . S
H2343 C2363 0.950 . S
H2344 C2365 0.950 . S
H2345 C2368 0.950 . S
H2346 C2369 0.950 . S
H2347 C2371 0.950 . S
H2348 C2372 0.950 . S
H2349 C2373 0.951 . S
H2350 C2375 0.951 . S
H2351 C2377 0.950 . S
H2352 C2378 0.950 . S
H2353 C2380 0.950 . S
H2354 C2383 0.950 . S
H2355 C2384 0.950 . S
H2356 C2386 0.950 . S
H2357 C2387 0.950 . S
C2358 H2340 0.951 . S
C2358 C2359 1.366 . S
C2358 C2360 1.388 . S
C2359 C2358 1.366 . S
C2359 C2363 1.385 . S
C2360 H2341 0.951 . S
C2360 C2358 1.388 . S
C2360 C2361 1.366 . S
C2361 C2360 1.366 . S
C2361 C2362 1.414 . S
C2361 C2364 1.499 . S
C2362 H2342 0.950 . S
C2362 C2361 1.414 . S
C2362 C2363 1.374 . S
C2363 H2343 0.950 . S
C2363 C2359 1.385 . S
C2363 C2362 1.374 . S
C2364 C2361 1.499 . S
C2364 C2365 1.373 . S
C2364 C2366 1.389 . S
C2365 H2344 0.950 . S
C2365 C2364 1.373 . S
C2365 C2381 1.377 . S
C2366 C2364 1.389 . S
C2366 C2367 1.524 . S
C2366 C2380 1.377 . S
C2367 C2366 1.524 . S
C2367 C2368 1.397 . S
C2367 C2372 1.363 . S
C2368 H2345 0.950 . S
C2368 C2367 1.397 . S
C2368 C2369 1.334 . S
C2369 H2346 0.950 . S
C2369 C2368 1.334 . S
C2369 C2370 1.287 . S
C2370 C2369 1.287 . S
C2370 C2371 1.524 . S
C2370 H2389 0.913 . S
C2371 H2347 0.950 . S
C2371 C2370 1.524 . S
C2371 C2372 1.415 . S
C2372 H2348 0.950 . S
C2372 C2367 1.363 . S
C2372 C2371 1.415 . S
C2373 H2349 0.951 . S
C2373 C2374 1.366 . S
C2373 C2375 1.388 . S
C2374 C2373 1.366 . S
C2374 C2378 1.385 . S
C2375 H2350 0.951 . S
C2375 C2373 1.388 . S
C2375 C2376 1.366 . S
C2376 C2375 1.366 . S
C2376 C2377 1.414 . S
C2376 C2379 1.499 . S
C2377 H2351 0.950 . S
C2377 C2376 1.414 . S
C2377 C2378 1.374 . S
C2378 H2352 0.950 . S
C2378 C2374 1.385 . S
C2378 C2377 1.374 . S
C2379 C2376 1.499 . S
C2379 C2380 1.373 . S
C2379 C2381 1.389 . S
C2380 H2353 0.950 . S
C2380 C2366 1.377 . S
C2380 C2379 1.373 . S
C2381 C2365 1.377 . S
C2381 C2379 1.389 . S
C2381 C2382 1.524 . S
C2382 C2381 1.524 . S
C2382 C2383 1.397 . S
C2382 C2387 1.363 . S
C2383 H2354 0.950 . S
C2383 C2382 1.397 . S
C2383 C2384 1.334 . S
C2384 H2355 0.950 . S
C2384 C2383 1.334 . S
C2384 C2385 1.287 . S
C2385 C2384 1.287 . S
C2385 C2386 1.524 . S
C2385 H2388 0.999 . S
C2386 H2356 0.950 . S
C2386 C2385 1.524 . S
C2386 C2387 1.415 . S
C2387 H2357 0.950 . S
C2387 C2382 1.363 . S
C2387 C2386 1.415 . S
H2388 C2385 0.999 . S
H2389 C2370 0.913 . S
H2390 C2408 0.951 . S
H2391 C2410 0.951 . S
H2392 C2412 0.950 . S
H2393 C2413 0.950 . S
H2394 C2415 0.950 . S
H2395 C2418 0.950 . S
H2396 C2419 0.950 . S
H2397 C2421 0.950 . S
H2398 C2422 0.950 . S
H2399 C2423 0.951 . S
H2400 C2425 0.951 . S
H2401 C2427 0.950 . S
H2402 C2428 0.950 . S
H2403 C2430 0.950 . S
H2404 C2433 0.950 . S
H2405 C2434 0.950 . S
H2406 C2436 0.950 . S
H2407 C2437 0.950 . S
C2408 H2390 0.951 . S
C2408 C2409 1.366 . S
C2408 C2410 1.388 . S
C2409 C2408 1.366 . S
C2409 C2413 1.385 . S
C2410 H2391 0.951 . S
C2410 C2408 1.388 . S
C2410 C2411 1.366 . S
C2411 C2410 1.366 . S
C2411 C2412 1.414 . S
C2411 C2414 1.499 . S
C2412 H2392 0.950 . S
C2412 C2411 1.414 . S
C2412 C2413 1.374 . S
C2413 H2393 0.950 . S
C2413 C2409 1.385 . S
C2413 C2412 1.374 . S
C2414 C2411 1.499 . S
C2414 C2415 1.373 . S
C2414 C2416 1.389 . S
C2415 H2394 0.950 . S
C2415 C2414 1.373 . S
C2415 C2431 1.377 . S
C2416 C2414 1.389 . S
C2416 C2417 1.524 . S
C2416 C2430 1.377 . S
C2417 C2416 1.524 . S
C2417 C2418 1.397 . S
C2417 C2422 1.363 . S
C2418 H2395 0.950 . S
C2418 C2417 1.397 . S
C2418 C2419 1.334 . S
C2419 H2396 0.950 . S
C2419 C2418 1.334 . S
C2419 C2420 1.287 . S
C2420 C2419 1.287 . S
C2420 C2421 1.524 . S
C2420 H2439 0.913 . S
C2421 H2397 0.950 . S
C2421 C2420 1.524 . S
C2421 C2422 1.415 . S
C2422 H2398 0.950 . S
C2422 C2417 1.363 . S
C2422 C2421 1.415 . S
C2423 H2399 0.951 . S
C2423 C2424 1.366 . S
C2423 C2425 1.388 . S
C2424 C2423 1.366 . S
C2424 C2428 1.385 . S
C2425 H2400 0.951 . S
C2425 C2423 1.388 . S
C2425 C2426 1.366 . S
C2426 C2425 1.366 . S
C2426 C2427 1.414 . S
C2426 C2429 1.499 . S
C2427 H2401 0.950 . S
C2427 C2426 1.414 . S
C2427 C2428 1.374 . S
C2428 H2402 0.950 . S
C2428 C2424 1.385 . S
C2428 C2427 1.374 . S
C2429 C2426 1.499 . S
C2429 C2430 1.373 . S
C2429 C2431 1.389 . S
C2430 H2403 0.950 . S
C2430 C2416 1.377 . S
C2430 C2429 1.373 . S
C2431 C2415 1.377 . S
C2431 C2429 1.389 . S
C2431 C2432 1.524 . S
C2432 C2431 1.524 . S
C2432 C2433 1.397 . S
C2432 C2437 1.363 . S
C2433 H2404 0.950 . S
C2433 C2432 1.397 . S
C2433 C2434 1.334 . S
C2434 H2405 0.950 . S
C2434 C2433 1.334 . S
C2434 C2435 1.287 . S
C2435 C2434 1.287 . S
C2435 C2436 1.524 . S
C2435 H2438 0.999 . S
C2436 H2406 0.950 . S
C2436 C2435 1.524 . S
C2436 C2437 1.415 . S
C2437 H2407 0.950 . S
C2437 C2432 1.363 . S
C2437 C2436 1.415 . S
H2438 C2435 0.999 . S
H2439 C2420 0.913 . S
H2440 C2458 0.951 . S
H2441 C2460 0.951 . S
H2442 C2462 0.950 . S
H2443 C2463 0.950 . S
H2444 C2465 0.950 . S
H2445 C2468 0.950 . S
H2446 C2469 0.950 . S
H2447 C2471 0.950 . S
H2448 C2472 0.950 . S
H2449 C2473 0.951 . S
H2450 C2475 0.951 . S
H2451 C2477 0.950 . S
H2452 C2478 0.950 . S
H2453 C2480 0.950 . S
H2454 C2483 0.950 . S
H2455 C2484 0.950 . S
H2456 C2486 0.950 . S
H2457 C2487 0.950 . S
C2458 H2440 0.951 . S
C2458 C2459 1.366 . S
C2458 C2460 1.388 . S
C2459 C2458 1.366 . S
C2459 C2463 1.385 . S
C2460 H2441 0.951 . S
C2460 C2458 1.388 . S
C2460 C2461 1.366 . S
C2461 C2460 1.366 . S
C2461 C2462 1.414 . S
C2461 C2464 1.499 . S
C2462 H2442 0.950 . S
C2462 C2461 1.414 . S
C2462 C2463 1.374 . S
C2463 H2443 0.950 . S
C2463 C2459 1.385 . S
C2463 C2462 1.374 . S
C2464 C2461 1.499 . S
C2464 C2465 1.373 . S
C2464 C2466 1.389 . S
C2465 H2444 0.950 . S
C2465 C2464 1.373 . S
C2465 C2481 1.377 . S
C2466 C2464 1.389 . S
C2466 C2467 1.524 . S
C2466 C2480 1.377 . S
C2467 C2466 1.524 . S
C2467 C2468 1.397 . S
C2467 C2472 1.363 . S
C2468 H2445 0.950 . S
C2468 C2467 1.397 . S
C2468 C2469 1.334 . S
C2469 H2446 0.950 . S
C2469 C2468 1.334 . S
C2469 C2470 1.287 . S
C2470 C2469 1.287 . S
C2470 C2471 1.524 . S
C2470 H2489 0.913 . S
C2471 H2447 0.950 . S
C2471 C2470 1.524 . S
C2471 C2472 1.415 . S
C2472 H2448 0.950 . S
C2472 C2467 1.363 . S
C2472 C2471 1.415 . S
C2473 H2449 0.951 . S
C2473 C2474 1.366 . S
C2473 C2475 1.388 . S
C2474 C2473 1.366 . S
C2474 C2478 1.385 . S
C2475 H2450 0.951 . S
C2475 C2473 1.388 . S
C2475 C2476 1.366 . S
C2476 C2475 1.366 . S
C2476 C2477 1.414 . S
C2476 C2479 1.499 . S
C2477 H2451 0.950 . S
C2477 C2476 1.414 . S
C2477 C2478 1.374 . S
C2478 H2452 0.950 . S
C2478 C2474 1.385 . S
C2478 C2477 1.374 . S
C2479 C2476 1.499 . S
C2479 C2480 1.373 . S
C2479 C2481 1.389 . S
C2480 H2453 0.950 . S
C2480 C2466 1.377 . S
C2480 C2479 1.373 . S
C2481 C2465 1.377 . S
C2481 C2479 1.389 . S
C2481 C2482 1.524 . S
C2482 C2481 1.524 . S
C2482 C2483 1.397 . S
C2482 C2487 1.363 . S
C2483 H2454 0.950 . S
C2483 C2482 1.397 . S
C2483 C2484 1.334 . S
C2484 H2455 0.950 . S
C2484 C2483 1.334 . S
C2484 C2485 1.287 . S
C2485 C2484 1.287 . S
C2485 C2486 1.524 . S
C2485 H2488 0.999 . S
C2486 H2456 0.950 . S
C2486 C2485 1.524 . S
C2486 C2487 1.415 . S
C2487 H2457 0.950 . S
C2487 C2482 1.363 . S
C2487 C2486 1.415 . S
H2488 C2485 0.999 . S
H2489 C2470 0.913 . S
H2490 C2508 0.951 . S
H2491 C2510 0.951 . S
H2492 C2512 0.950 . S
H2493 C2513 0.950 . S
H2494 C2515 0.950 . S
H2495 C2518 0.950 . S
H2496 C2519 0.950 . S
H2497 C2521 0.950 . S
H2498 C2522 0.950 . S
H2499 C2523 0.951 1_545 S
H2500 C2525 0.920 1_545 S
H2501 C2527 0.950 . S
H2502 C2528 0.950 . S
H2503 C2530 0.950 . S
H2504 C2533 0.950 . S
H2505 C2534 0.950 . S
H2506 C2536 0.950 1_545 S
H2507 C2537 0.950 1_545 S
C2508 H2490 0.951 . S
C2508 C2509 1.366 . S
C2508 C2510 1.388 . S
C2509 C2508 1.366 . S
C2509 C2513 1.385 1_565 S
C2510 H2491 0.951 . S
C2510 C2508 1.388 . S
C2510 C2511 1.366 . S
C2511 C2510 1.366 . S
C2511 C2512 1.414 1_565 S
C2511 C2514 1.499 . S
C2512 H2492 0.950 . S
C2512 C2511 1.414 1_545 S
C2512 C2513 1.374 . S
C2513 H2493 0.950 . S
C2513 C2509 1.385 1_545 S
C2513 C2512 1.374 . S
C2514 C2511 1.499 . S
C2514 C2515 1.373 . S
C2514 C2516 1.389 . S
C2515 H2494 0.950 . S
C2515 C2514 1.373 . S
C2515 C2531 1.377 . S
C2516 C2514 1.389 . S
C2516 C2517 1.524 . S
C2516 C2530 1.377 . S
C2517 C2516 1.524 . S
C2517 C2518 1.397 1_565 S
C2517 C2522 1.363 . S
C2518 H2495 0.950 . S
C2518 C2517 1.397 1_545 S
C2518 C2519 1.334 . S
C2519 H2496 0.950 . S
C2519 C2518 1.334 . S
C2519 C2520 1.287 . S
C2520 C2519 1.287 . S
C2520 C2521 1.524 1_545 S
C2520 H2539 0.913 . S
C2521 H2497 0.950 . S
C2521 C2520 1.524 1_565 S
C2521 C2522 1.415 . S
C2522 H2498 0.950 . S
C2522 C2517 1.363 . S
C2522 C2521 1.415 . S
C2523 H2499 0.951 1_565 S
C2523 C2524 1.366 . S
C2523 C2525 1.392 . S
C2524 C2523 1.366 . S
C2524 C2528 1.385 . S
C2525 H2500 0.920 1_565 S
C2525 C2523 1.392 . S
C2525 C2526 1.393 . S
C2526 C2525 1.393 . S
C2526 C2527 1.414 . S
C2526 C2529 1.499 . S
C2527 H2501 0.950 . S
C2527 C2526 1.414 . S
C2527 C2528 1.374 . S
C2528 H2502 0.950 . S
C2528 C2524 1.385 . S
C2528 C2527 1.374 . S
C2529 C2526 1.499 . S
C2529 C2530 1.373 . S
C2529 C2531 1.389 . S
C2530 H2503 0.950 . S
C2530 C2516 1.377 . S
C2530 C2529 1.373 . S
C2531 C2515 1.377 . S
C2531 C2529 1.389 . S
C2531 C2532 1.524 . S
C2532 C2531 1.524 . S
C2532 C2533 1.397 . S
C2532 C2537 1.363 . S
C2533 H2504 0.950 . S
C2533 C2532 1.397 . S
C2533 C2534 1.334 . S
C2534 H2505 0.950 . S
C2534 C2533 1.334 . S
C2534 C2535 1.287 . S
C2535 C2534 1.287 . S
C2535 C2536 1.524 . S
C2535 H2538 0.999 . S
C2536 H2506 0.950 1_565 S
C2536 C2535 1.524 . S
C2536 C2537 1.415 . S
C2537 H2507 0.950 1_565 S
C2537 C2532 1.363 . S
C2537 C2536 1.415 . S
H2538 C2535 0.999 . S
H2539 C2520 0.913 . S
H2540 C2558 0.951 . S
H2541 C2560 0.951 . S
H2542 C2562 0.950 . S
H2543 C2563 0.950 . S
H2544 C2565 0.950 . S
H2545 C2568 0.950 . S
H2546 C2569 0.950 . S
H2547 C2571 0.950 . S
H2548 C2572 0.950 . S
H2549 C2573 0.951 . S
H2550 C2575 0.951 . S
H2551 C2577 0.950 . S
H2552 C2578 0.950 . S
H2553 C2580 0.950 . S
H2554 C2583 0.950 . S
H2555 C2584 0.950 . S
H2556 C2586 0.950 . S
H2557 C2587 0.950 . S
C2558 H2540 0.951 . S
C2558 C2559 1.366 . S
C2558 C2560 1.388 . S
C2559 C2558 1.366 . S
C2559 C2563 1.385 . S
C2560 H2541 0.951 . S
C2560 C2558 1.388 . S
C2560 C2561 1.366 . S
C2561 C2560 1.366 . S
C2561 C2562 1.414 . S
C2561 C2564 1.499 . S
C2562 H2542 0.950 . S
C2562 C2561 1.414 . S
C2562 C2563 1.374 . S
C2563 H2543 0.950 . S
C2563 C2559 1.385 . S
C2563 C2562 1.374 . S
C2564 C2561 1.499 . S
C2564 C2565 1.373 . S
C2564 C2566 1.389 . S
C2565 H2544 0.950 . S
C2565 C2564 1.373 . S
C2565 C2581 1.377 . S
C2566 C2564 1.389 . S
C2566 C2567 1.524 . S
C2566 C2580 1.377 . S
C2567 C2566 1.524 . S
C2567 C2568 1.397 . S
C2567 C2572 1.363 . S
C2568 H2545 0.950 . S
C2568 C2567 1.397 . S
C2568 C2569 1.334 . S
C2569 H2546 0.950 . S
C2569 C2568 1.334 . S
C2569 C2570 1.287 . S
C2570 C2569 1.287 . S
C2570 C2571 1.524 . S
C2570 H2589 0.913 . S
C2571 H2547 0.950 . S
C2571 C2570 1.524 . S
C2571 C2572 1.415 . S
C2572 H2548 0.950 . S
C2572 C2567 1.363 . S
C2572 C2571 1.415 . S
C2573 H2549 0.951 . S
C2573 C2574 1.366 . S
C2573 C2575 1.388 . S
C2574 C2573 1.366 . S
C2574 C2578 1.385 . S
C2575 H2550 0.951 . S
C2575 C2573 1.388 . S
C2575 C2576 1.366 . S
C2576 C2575 1.366 . S
C2576 C2577 1.414 . S
C2576 C2579 1.499 . S
C2577 H2551 0.950 . S
C2577 C2576 1.414 . S
C2577 C2578 1.374 . S
C2578 H2552 0.950 . S
C2578 C2574 1.385 . S
C2578 C2577 1.374 . S
C2579 C2576 1.499 . S
C2579 C2580 1.373 . S
C2579 C2581 1.389 . S
C2580 H2553 0.950 . S
C2580 C2566 1.377 . S
C2580 C2579 1.373 . S
C2581 C2565 1.377 . S
C2581 C2579 1.389 . S
C2581 C2582 1.524 . S
C2582 C2581 1.524 . S
C2582 C2583 1.397 . S
C2582 C2587 1.363 . S
C2583 H2554 0.950 . S
C2583 C2582 1.397 . S
C2583 C2584 1.334 . S
C2584 H2555 0.950 . S
C2584 C2583 1.334 . S
C2584 C2585 1.287 . S
C2585 C2584 1.287 . S
C2585 C2586 1.524 . S
C2585 H2588 0.999 . S
C2586 H2556 0.950 . S
C2586 C2585 1.524 . S
C2586 C2587 1.415 . S
C2587 H2557 0.950 . S
C2587 C2582 1.363 . S
C2587 C2586 1.415 . S
H2588 C2585 0.999 . S
H2589 C2570 0.913 . S
H2590 C2608 0.951 . S
H2591 C2610 0.951 . S
H2592 C2612 0.950 . S
H2593 C2613 0.950 . S
H2594 C2615 0.950 . S
H2595 C2618 0.950 . S
H2596 C2619 0.950 . S
H2597 C2621 0.950 . S
H2598 C2622 0.950 . S
H2599 C2623 0.951 . S
H2600 C2625 0.951 . S
H2601 C2627 0.950 . S
H2602 C2628 0.950 . S
H2603 C2630 0.950 . S
H2604 C2633 0.950 . S
H2605 C2634 0.950 . S
H2606 C2636 0.950 . S
H2607 C2637 0.950 . S
C2608 H2590 0.951 . S
C2608 C2609 1.366 . S
C2608 C2610 1.388 . S
C2609 C2608 1.366 . S
C2609 C2613 1.385 . S
C2610 H2591 0.951 . S
C2610 C2608 1.388 . S
C2610 C2611 1.366 . S
C2611 C2610 1.366 . S
C2611 C2612 1.414 . S
C2611 C2614 1.499 . S
C2612 H2592 0.950 . S
C2612 C2611 1.414 . S
C2612 C2613 1.374 . S
C2613 H2593 0.950 . S
C2613 C2609 1.385 . S
C2613 C2612 1.374 . S
C2614 C2611 1.499 . S
C2614 C2615 1.373 1_545 S
C2614 C2616 1.389 . S
C2615 H2594 0.950 . S
C2615 C2614 1.373 1_565 S
C2615 C2631 1.377 . S
C2616 C2614 1.389 . S
C2616 C2617 1.524 . S
C2616 C2630 1.377 . S
C2617 C2616 1.524 . S
C2617 C2618 1.397 . S
C2617 C2622 1.363 . S
C2618 H2595 0.950 . S
C2618 C2617 1.397 . S
C2618 C2619 1.334 . S
C2619 H2596 0.950 . S
C2619 C2618 1.334 . S
C2619 C2620 1.287 . S
C2620 C2619 1.287 . S
C2620 C2621 1.524 . S
C2620 H2639 0.913 . S
C2621 H2597 0.950 . S
C2621 C2620 1.524 . S
C2621 C2622 1.415 . S
C2622 H2598 0.950 . S
C2622 C2617 1.363 . S
C2622 C2621 1.415 . S
C2623 H2599 0.951 . S
C2623 C2624 1.366 . S
C2623 C2625 1.388 . S
C2624 C2623 1.366 . S
C2624 C2628 1.385 . S
C2625 H2600 0.951 . S
C2625 C2623 1.388 . S
C2625 C2626 1.366 . S
C2626 C2625 1.366 . S
C2626 C2627 1.414 . S
C2626 C2629 1.499 . S
C2627 H2601 0.950 . S
C2627 C2626 1.414 . S
C2627 C2628 1.374 . S
C2628 H2602 0.950 . S
C2628 C2624 1.385 . S
C2628 C2627 1.374 . S
C2629 C2626 1.499 . S
C2629 C2630 1.373 . S
C2629 C2631 1.389 1_545 S
C2630 H2603 0.950 . S
C2630 C2616 1.377 . S
C2630 C2629 1.373 . S
C2631 C2615 1.377 . S
C2631 C2629 1.389 1_565 S
C2631 C2632 1.524 . S
C2632 C2631 1.524 . S
C2632 C2633 1.397 . S
C2632 C2637 1.363 . S
C2633 H2604 0.950 . S
C2633 C2632 1.397 . S
C2633 C2634 1.334 . S
C2634 H2605 0.950 . S
C2634 C2633 1.334 . S
C2634 C2635 1.287 . S
C2635 C2634 1.287 . S
C2635 C2636 1.524 . S
C2635 H2638 0.999 . S
C2636 H2606 0.950 . S
C2636 C2635 1.524 . S
C2636 C2637 1.415 . S
C2637 H2607 0.950 . S
C2637 C2632 1.363 . S
C2637 C2636 1.415 . S
H2638 C2635 0.999 . S
H2639 C2620 0.913 . S
H2640 C2658 0.951 . S
H2641 C2660 0.951 . S
H2642 C2662 0.950 . S
H2643 C2663 0.950 . S
H2644 C2665 0.950 . S
H2645 C2668 0.950 . S
H2646 C2669 0.950 . S
H2647 C2671 0.950 . S
H2648 C2672 0.950 . S
H2649 C2673 0.951 . S
H2650 C2675 0.951 . S
H2651 C2677 0.950 . S
H2652 C2678 0.950 . S
H2653 C2680 0.950 . S
H2654 C2683 0.950 . S
H2655 C2684 0.950 . S
H2656 C2686 0.950 . S
H2657 C2687 0.950 . S
C2658 H2640 0.951 . S
C2658 C2659 1.366 . S
C2658 C2660 1.388 . S
C2659 C2658 1.366 . S
C2659 C2663 1.385 . S
C2660 H2641 0.951 . S
C2660 C2658 1.388 . S
C2660 C2661 1.366 . S
C2661 C2660 1.366 . S
C2661 C2662 1.414 . S
C2661 C2664 1.499 . S
C2662 H2642 0.950 . S
C2662 C2661 1.414 . S
C2662 C2663 1.374 . S
C2663 H2643 0.950 . S
C2663 C2659 1.385 . S
C2663 C2662 1.374 . S
C2664 C2661 1.499 . S
C2664 C2665 1.373 . S
C2664 C2666 1.389 . S
C2665 H2644 0.950 . S
C2665 C2664 1.373 . S
C2665 C2681 1.377 . S
C2666 C2664 1.389 . S
C2666 C2667 1.524 . S
C2666 C2680 1.377 . S
C2667 C2666 1.524 . S
C2667 C2668 1.397 . S
C2667 C2672 1.363 . S
C2668 H2645 0.950 . S
C2668 C2667 1.397 . S
C2668 C2669 1.334 . S
C2669 H2646 0.950 . S
C2669 C2668 1.334 . S
C2669 C2670 1.287 . S
C2670 C2669 1.287 . S
C2670 C2671 1.524 . S
C2670 H2689 0.913 . S
C2671 H2647 0.950 . S
C2671 C2670 1.524 . S
C2671 C2672 1.415 . S
C2672 H2648 0.950 . S
C2672 C2667 1.363 . S
C2672 C2671 1.415 . S
C2673 H2649 0.951 . S
C2673 C2674 1.366 . S
C2673 C2675 1.388 . S
C2674 C2673 1.366 . S
C2674 C2678 1.385 . S
C2675 H2650 0.951 . S
C2675 C2673 1.388 . S
C2675 C2676 1.366 . S
C2676 C2675 1.366 . S
C2676 C2677 1.414 . S
C2676 C2679 1.499 . S
C2677 H2651 0.950 . S
C2677 C2676 1.414 . S
C2677 C2678 1.374 . S
C2678 H2652 0.950 . S
C2678 C2674 1.385 . S
C2678 C2677 1.374 . S
C2679 C2676 1.499 . S
C2679 C2680 1.373 . S
C2679 C2681 1.389 . S
C2680 H2653 0.950 . S
C2680 C2666 1.377 . S
C2680 C2679 1.373 . S
C2681 C2665 1.377 . S
C2681 C2679 1.389 . S
C2681 C2682 1.524 . S
C2682 C2681 1.524 . S
C2682 C2683 1.397 . S
C2682 C2687 1.363 . S
C2683 H2654 0.950 . S
C2683 C2682 1.397 . S
C2683 C2684 1.334 . S
C2684 H2655 0.950 . S
C2684 C2683 1.334 . S
C2684 C2685 1.287 . S
C2685 C2684 1.287 . S
C2685 C2686 1.524 . S
C2685 H2688 0.999 . S
C2686 H2656 0.950 . S
C2686 C2685 1.524 . S
C2686 C2687 1.415 . S
C2687 H2657 0.950 . S
C2687 C2682 1.363 . S
C2687 C2686 1.415 . S
H2688 C2685 0.999 . S
H2689 C2670 0.913 . S
H2690 C2708 0.951 . S
H2691 C2710 0.951 . S
H2692 C2712 0.950 . S
H2693 C2713 0.950 . S
H2694 C2715 0.950 . S
H2695 C2718 0.950 . S
H2696 C2719 0.950 . S
H2697 C2721 0.950 . S
H2698 C2722 0.950 . S
H2699 C2723 0.951 . S
H2700 C2725 0.951 . S
H2701 C2727 0.950 . S
H2702 C2728 0.950 . S
H2703 C2730 0.950 . S
H2704 C2733 0.950 . S
H2705 C2734 0.950 . S
H2706 C2736 0.950 . S
H2707 C2737 0.950 . S
C2708 H2690 0.951 . S
C2708 C2709 1.366 1_554 S
C2708 C2710 1.388 . S
C2709 C2708 1.366 1_556 S
C2709 C2713 1.385 . S
C2710 H2691 0.951 . S
C2710 C2708 1.388 . S
C2710 C2711 1.366 1_554 S
C2711 C2710 1.366 1_556 S
C2711 C2712 1.414 . S
C2711 C2714 1.499 . S
C2712 H2692 0.950 . S
C2712 C2711 1.414 . S
C2712 C2713 1.374 . S
C2713 H2693 0.950 . S
C2713 C2709 1.385 . S
C2713 C2712 1.374 . S
C2714 C2711 1.499 . S
C2714 C2715 1.373 . S
C2714 C2716 1.389 . S
C2715 H2694 0.950 . S
C2715 C2714 1.373 . S
C2715 C2731 1.377 . S
C2716 C2714 1.389 . S
C2716 C2717 1.524 . S
C2716 C2730 1.377 . S
C2717 C2716 1.524 . S
C2717 C2718 1.397 . S
C2717 C2722 1.363 1_556 S
C2718 H2695 0.950 . S
C2718 C2717 1.397 . S
C2718 C2719 1.334 . S
C2719 H2696 0.950 . S
C2719 C2718 1.334 . S
C2719 C2720 1.298 . S
C2720 C2719 1.298 . S
C2720 C2721 1.514 1_556 S
C2720 H2739 0.910 1_556 S
C2721 H2697 0.950 . S
C2721 C2720 1.514 1_554 S
C2721 C2722 1.415 . S
C2722 H2698 0.950 . S
C2722 C2717 1.363 1_554 S
C2722 C2721 1.415 . S
C2723 H2699 0.951 . S
C2723 C2724 1.366 . S
C2723 C2725 1.388 . S
C2724 C2723 1.366 . S
C2724 C2728 1.385 . S
C2725 H2700 0.951 . S
C2725 C2723 1.388 . S
C2725 C2726 1.366 . S
C2726 C2725 1.366 . S
C2726 C2727 1.414 . S
C2726 C2729 1.499 . S
C2727 H2701 0.950 . S
C2727 C2726 1.414 . S
C2727 C2728 1.374 . S
C2728 H2702 0.950 . S
C2728 C2724 1.385 . S
C2728 C2727 1.374 . S
C2729 C2726 1.499 . S
C2729 C2730 1.373 . S
C2729 C2731 1.389 . S
C2730 H2703 0.950 . S
C2730 C2716 1.377 . S
C2730 C2729 1.373 . S
C2731 C2715 1.377 . S
C2731 C2729 1.389 . S
C2731 C2732 1.524 . S
C2732 C2731 1.524 . S
C2732 C2733 1.397 . S
C2732 C2737 1.363 . S
C2733 H2704 0.950 . S
C2733 C2732 1.397 . S
C2733 C2734 1.334 . S
C2734 H2705 0.950 . S
C2734 C2733 1.334 . S
C2734 C2735 1.287 . S
C2735 C2734 1.287 . S
C2735 C2736 1.524 . S
C2735 H2738 0.999 . S
C2736 H2706 0.950 . S
C2736 C2735 1.524 . S
C2736 C2737 1.415 . S
C2737 H2707 0.950 . S
C2737 C2732 1.363 . S
C2737 C2736 1.415 . S
H2738 C2735 0.999 . S
H2739 C2720 0.910 1_554 S
H2740 C2758 0.972 . S
H2741 C2760 0.951 1_554 S
H2742 C2762 0.950 . S
H2743 C2763 0.950 . S
H2744 C2765 0.950 . S
H2745 C2768 0.950 . S
H2746 C2769 0.950 . S
H2747 C2771 0.950 . S
H2748 C2772 0.950 . S
H2749 C2773 0.951 . S
H2750 C2775 0.951 . S
H2751 C2777 0.950 . S
H2752 C2778 0.950 . S
H2753 C2780 0.950 . S
H2754 C2783 0.950 . S
H2755 C2784 0.950 1_554 S
H2756 C2786 0.950 . S
H2757 C2787 0.950 . S
C2758 H2740 0.972 . S
C2758 C2759 1.350 1_554 S
C2758 C2760 1.383 1_554 S
C2759 C2758 1.350 1_556 S
C2759 C2763 1.385 . S
C2760 H2741 0.951 1_556 S
C2760 C2758 1.383 1_556 S
C2760 C2761 1.366 . S
C2761 C2760 1.366 . S
C2761 C2762 1.414 . S
C2761 C2764 1.499 . S
C2762 H2742 0.950 . S
C2762 C2761 1.414 . S
C2762 C2763 1.374 . S
C2763 H2743 0.950 . S
C2763 C2759 1.385 . S
C2763 C2762 1.374 . S
C2764 C2761 1.499 . S
C2764 C2765 1.373 . S
C2764 C2766 1.389 . S
C2765 H2744 0.950 . S
C2765 C2764 1.373 . S
C2765 C2781 1.377 . S
C2766 C2764 1.389 . S
C2766 C2767 1.524 . S
C2766 C2780 1.377 . S
C2767 C2766 1.524 . S
C2767 C2768 1.397 . S
C2767 C2772 1.363 . S
C2768 H2745 0.950 . S
C2768 C2767 1.397 . S
C2768 C2769 1.334 . S
C2769 H2746 0.950 . S
C2769 C2768 1.334 . S
C2769 C2770 1.287 . S
C2770 C2769 1.287 . S
C2770 C2771 1.524 . S
C2770 H2789 0.913 . S
C2771 H2747 0.950 . S
C2771 C2770 1.524 . S
C2771 C2772 1.415 . S
C2772 H2748 0.950 . S
C2772 C2767 1.363 . S
C2772 C2771 1.415 . S
C2773 H2749 0.951 . S
C2773 C2774 1.366 . S
C2773 C2775 1.388 . S
C2774 C2773 1.366 . S
C2774 C2778 1.385 . S
C2775 H2750 0.951 . S
C2775 C2773 1.388 . S
C2775 C2776 1.366 . S
C2776 C2775 1.366 . S
C2776 C2777 1.414 . S
C2776 C2779 1.499 . S
C2777 H2751 0.950 . S
C2777 C2776 1.414 . S
C2777 C2778 1.374 . S
C2778 H2752 0.950 . S
C2778 C2774 1.385 . S
C2778 C2777 1.374 . S
C2779 C2776 1.499 . S
C2779 C2780 1.373 . S
C2779 C2781 1.389 . S
C2780 H2753 0.950 . S
C2780 C2766 1.377 . S
C2780 C2779 1.373 . S
C2781 C2765 1.377 . S
C2781 C2779 1.389 . S
C2781 C2782 1.524 . S
C2782 C2781 1.524 . S
C2782 C2783 1.397 . S
C2782 C2787 1.363 . S
C2783 H2754 0.950 . S
C2783 C2782 1.397 . S
C2783 C2784 1.334 . S
C2784 H2755 0.950 1_556 S
C2784 C2783 1.334 . S
C2784 C2785 1.287 . S
C2785 C2784 1.287 . S
C2785 C2786 1.524 . S
C2785 H2788 0.999 . S
C2786 H2756 0.950 . S
C2786 C2785 1.524 . S
C2786 C2787 1.415 . S
C2787 H2757 0.950 . S
C2787 C2782 1.363 . S
C2787 C2786 1.415 . S
H2788 C2785 0.999 . S
H2789 C2770 0.913 . S
H2790 C2808 0.951 . S
H2791 C2810 0.951 . S
H2792 C2812 0.950 1_556 S
H2793 C2813 0.950 1_556 S
H2794 C2815 0.950 1_556 S
H2795 C2818 0.950 . S
H2796 C2819 0.950 . S
H2797 C2821 0.950 . S
H2798 C2822 0.950 . S
H2799 C2823 0.951 . S
H2800 C2825 0.922 1_556 S
H2801 C2827 0.950 . S
H2802 C2828 0.950 . S
H2803 C2830 0.950 . S
H2804 C2833 0.950 . S
H2805 C2834 0.950 . S
H2806 C2836 0.950 . S
H2807 C2837 0.950 . S
C2808 H2790 0.951 . S
C2808 C2809 1.366 . S
C2808 C2810 1.388 . S
C2809 C2808 1.366 . S
C2809 C2813 1.385 . S
C2810 H2791 0.951 . S
C2810 C2808 1.388 . S
C2810 C2811 1.366 . S
C2811 C2810 1.366 . S
C2811 C2812 1.414 . S
C2811 C2814 1.499 . S
C2812 H2792 0.950 1_554 S
C2812 C2811 1.414 . S
C2812 C2813 1.374 . S
C2813 H2793 0.950 1_554 S
C2813 C2809 1.385 . S
C2813 C2812 1.374 . S
C2814 C2811 1.499 . S
C2814 C2815 1.373 . S
C2814 C2816 1.389 . S
C2815 H2794 0.950 1_554 S
C2815 C2814 1.373 . S
C2815 C2831 1.377 . S
C2816 C2814 1.389 . S
C2816 C2817 1.524 . S
C2816 C2830 1.377 . S
C2817 C2816 1.524 . S
C2817 C2818 1.397 . S
C2817 C2822 1.363 . S
C2818 H2795 0.950 . S
C2818 C2817 1.397 . S
C2818 C2819 1.334 . S
C2819 H2796 0.950 . S
C2819 C2818 1.334 . S
C2819 C2820 1.287 . S
C2820 C2819 1.287 . S
C2820 C2821 1.524 . S
C2820 H2839 0.913 . S
C2821 H2797 0.950 . S
C2821 C2820 1.524 . S
C2821 C2822 1.415 . S
C2822 H2798 0.950 . S
C2822 C2817 1.363 . S
C2822 C2821 1.415 . S
C2823 H2799 0.951 . S
C2823 C2824 1.366 . S
C2823 C2825 1.388 . S
C2824 C2823 1.366 . S
C2824 C2828 1.385 . S
C2825 H2800 0.922 1_554 S
C2825 C2823 1.388 . S
C2825 C2826 1.366 . S
C2826 C2825 1.366 . S
C2826 C2827 1.414 . S
C2826 C2829 1.499 . S
C2827 H2801 0.950 . S
C2827 C2826 1.414 . S
C2827 C2828 1.374 . S
C2828 H2802 0.950 . S
C2828 C2824 1.385 . S
C2828 C2827 1.374 . S
C2829 C2826 1.499 . S
C2829 C2830 1.373 . S
C2829 C2831 1.389 . S
C2830 H2803 0.950 . S
C2830 C2816 1.377 . S
C2830 C2829 1.373 . S
C2831 C2815 1.377 . S
C2831 C2829 1.389 . S
C2831 C2832 1.524 1_554 S
C2832 C2831 1.524 1_556 S
C2832 C2833 1.397 . S
C2832 C2837 1.363 . S
C2833 H2804 0.950 . S
C2833 C2832 1.397 . S
C2833 C2834 1.334 . S
C2834 H2805 0.950 . S
C2834 C2833 1.334 . S
C2834 C2835 1.287 . S
C2835 C2834 1.287 . S
C2835 C2836 1.524 . S
C2835 H2838 0.999 . S
C2836 H2806 0.950 . S
C2836 C2835 1.524 . S
C2836 C2837 1.415 . S
C2837 H2807 0.950 . S
C2837 C2832 1.363 . S
C2837 C2836 1.415 . S
H2838 C2835 0.999 . S
H2839 C2820 0.913 . S
C459 C13 1.480 . S
C474 C236 1.483 1_545 S
C524 C299 1.712 . S
C509 C1 1.723 . S
C574 C176 1.742 1_565 S
C559 C27 1.736 . S
C609 C15 1.626 . S
C624 C210 1.622 . S
C659 C28 1.698 . S
C674 C414 1.704 . S
C709 C55 1.035 . S
C724 C385 1.031 . S
C774 C308 1.866 . S
C759 C40 1.917 . S
C809 C43 1.293 . S
C824 C342 1.279 . S
C874 C231 1.853 . S
C859 C56 1.873 . S
C924 C274 1.296 . S
C909 C83 1.310 . S
C959 C96 1.836 . S
C974 C253 1.809 1_655 S
C1009 C71 1.498 . S
C1024 C367 1.487 . S
C1074 C372 1.483 . S
C1059 C99 1.479 . S
C1124 C435 1.712 1_565 S
C1109 C111 1.722 . S
C1159 C113 1.735 . S
C1174 C346 1.742 . S
C1224 C312 1.623 1_545 S
C1209 C125 1.626 . S
C1259 C139 1.699 . S
C1274 C278 1.693 . S
C1309 C153 1.035 . S
C1324 C249 1.031 . S
C1374 C206 1.867 . S
C1359 C127 1.918 . S
C1409 C141 1.294 . S
C1424 C172 1.280 . S
C1474 C333 1.854 . S
C1459 C84 1.873 . S
C1524 C410 1.296 . S
C1509 C154 1.310 1_556 S
C1559 C68 1.835 . S
C1574 C389 1.810 . S
C1609 C166 1.497 . S
C1624 C197 1.487 1_655 S
C1674 C181 0.946 . S
C1659 C0 0.954 . S
C1709 C12 0.935 . S
C1724 C215 0.932 . S
C1774 C240 0.930 . S
C1759 C14 0.941 . S
C1824 C287 1.735 . S
C1809 C26 1.748 . S
C1859 C41 1.386 . S
C1874 C168 1.367 . S
C1909 C42 1.325 . S
C1924 C202 1.316 . S
C1974 C244 1.421 . S
C1959 C29 1.448 1_565 S
C2009 C54 0.768 . S
C2024 C283 0.766 . S
C2059 C69 1.522 . S
C2074 C185 1.487 . S
C2124 C265 1.568 . S
C2109 C70 1.592 . S
C2159 C85 1.489 . S
C2174 C270 1.488 . S
C2209 C82 1.380 . S
C2224 C321 1.359 . S
C2274 C351 0.945 . S
C2259 C110 0.954 . S
C2309 C98 0.935 . S
C2324 C317 0.932 . S
C2359 C124 0.941 . S
C2374 C376 0.928 . S
C2409 C112 1.748 . S
C2424 C423 1.734 . S
C2459 C126 1.386 . S
C2474 C338 1.367 . S
C2524 C304 1.316 . S
C2509 C140 1.326 . S
C2559 C138 1.448 . S
C2574 C380 1.421 . S
C2624 C419 0.765 . S
C2609 C152 0.767 . S
C2674 C355 1.489 . S
C2659 C97 1.522 . S
C2724 C401 1.568 . S
C2709 C167 1.590 1_556 S
C2774 C406 1.488 . S
C2759 C57 1.490 . S
C2809 C155 1.380 . S
C2824 C219 1.358 . S
