# Generated by pormake.
# Topology llj, (12,3)-cn, num edge types: 1
# Building blocks:
#     Node 0, Type 0, BuildingBlock: QEWDON_clean_sbu_0, # of connection points: 12
#     Node 1, Type 0, BuildingBlock: QEWDON_clean_sbu_0, # of connection points: 12
#     Node 2, Type 1, BuildingBlock: WUSLED_clean_sbu_0, # of connection points: 3
#     Node 3, Type 1, BuildingBlock: WUSLED_clean_sbu_0, # of connection points: 3
#     Node 4, Type 1, BuildingBlock: WUSLED_clean_sbu_0, # of connection points: 3
#     Node 5, Type 1, BuildingBlock: WUSLED_clean_sbu_0, # of connection points: 3
#     Node 6, Type 1, BuildingBlock: WUSLED_clean_sbu_0, # of connection points: 3
#     Node 7, Type 1, BuildingBlock: WUSLED_clean_sbu_0, # of connection points: 3
#     Node 8, Type 1, BuildingBlock: WUSLED_clean_sbu_0, # of connection points: 3
#     Node 9, Type 1, BuildingBlock: WUSLED_clean_sbu_0, # of connection points: 3
#     Edge 10, Type (0, 1), BuildingBlock: AJUNOK_clean_linker_0, # of connection points: 2
#     Edge 11, Type (0, 1), BuildingBlock: AJUNOK_clean_linker_0, # of connection points: 2
#     Edge 12, Type (0, 1), BuildingBlock: AJUNOK_clean_linker_0, # of connection points: 2
#     Edge 13, Type (0, 1), BuildingBlock: AJUNOK_clean_linker_0, # of connection points: 2
#     Edge 14, Type (0, 1), BuildingBlock: AJUNOK_clean_linker_0, # of connection points: 2
#     Edge 15, Type (0, 1), BuildingBlock: AJUNOK_clean_linker_0, # of connection points: 2
#     Edge 16, Type (0, 1), BuildingBlock: AJUNOK_clean_linker_0, # of connection points: 2
#     Edge 17, Type (0, 1), BuildingBlock: AJUNOK_clean_linker_0, # of connection points: 2
#     Edge 18, Type (0, 1), BuildingBlock: AJUNOK_clean_linker_0, # of connection points: 2
#     Edge 19, Type (0, 1), BuildingBlock: AJUNOK_clean_linker_0, # of connection points: 2
#     Edge 20, Type (0, 1), BuildingBlock: AJUNOK_clean_linker_0, # of connection points: 2
#     Edge 21, Type (0, 1), BuildingBlock: AJUNOK_clean_linker_0, # of connection points: 2
#     Edge 22, Type (0, 1), BuildingBlock: AJUNOK_clean_linker_0, # of connection points: 2
#     Edge 23, Type (0, 1), BuildingBlock: AJUNOK_clean_linker_0, # of connection points: 2
#     Edge 24, Type (0, 1), BuildingBlock: AJUNOK_clean_linker_0, # of connection points: 2
#     Edge 25, Type (0, 1), BuildingBlock: AJUNOK_clean_linker_0, # of connection points: 2
#     Edge 26, Type (0, 1), BuildingBlock: AJUNOK_clean_linker_0, # of connection points: 2
#     Edge 27, Type (0, 1), BuildingBlock: AJUNOK_clean_linker_0, # of connection points: 2
#     Edge 28, Type (0, 1), BuildingBlock: AJUNOK_clean_linker_0, # of connection points: 2
#     Edge 29, Type (0, 1), BuildingBlock: AJUNOK_clean_linker_0, # of connection points: 2
#     Edge 30, Type (0, 1), BuildingBlock: AJUNOK_clean_linker_0, # of connection points: 2
#     Edge 31, Type (0, 1), BuildingBlock: AJUNOK_clean_linker_0, # of connection points: 2
#     Edge 32, Type (0, 1), BuildingBlock: AJUNOK_clean_linker_0, # of connection points: 2
#     Edge 33, Type (0, 1), BuildingBlock: AJUNOK_clean_linker_0, # of connection points: 2
# Relax obj value: 0.010
# Max RMSD: 0.051
# Mean RMSD: 0.048
data_MOF--net-llj--node1-QEWDON_clean_sbu_0--node2-WUSLED_clean_sbu_0--edge1-AJUNOK_clean_linker_0
_symmetry_space_group_name_H-M    P1
_symmetry_Int_Tables_number       1
_symmetry_cell_setting            triclinic
loop_
_symmetry_equiv_pos_as_xyz
'x, y, z'
_cell_length_a     39.25636
_cell_length_b     39.277006
_cell_length_c     26.937804
_cell_angle_alpha  90.256434
_cell_angle_beta   90.27709
_cell_angle_gamma 89.984181
loop_
_atom_site_label
_atom_site_type_symbol
_atom_site_fract_x
_atom_site_fract_y
_atom_site_fract_z
_atom_type_partial_charge
Zn0 Zn 0.96486 0.08292 0.97614 0.0
Zn1 Zn 0.96037 0.08065 0.09493 0.0
O2 O 0.99094 0.06966 0.03757 0.0
H3 H 0.00757 0.05154 0.037 0.0
C4 C 0.91543 0.02318 0.90411 0.0
O5 O 0.91601 0.03845 0.94758 0.0
Zn6 Zn 0.04336 0.93376 0.09968 0.0
Zn7 Zn 0.03606 0.93164 0.98073 0.0
O8 O 0.01373 0.94819 0.04322 0.0
H9 H 1.00185 0.96965 0.04451 0.0
Zn10 Zn 0.93127 0.96435 0.96708 0.0
O11 O 0.94191 0.99027 0.03041 0.0
Zn12 Zn 0.92646 0.96177 0.08804 0.0
H13 H 0.95657 0.00998 0.03146 0.0
Zn14 Zn 0.09129 0.05077 0.98451 0.0
O15 O 0.07317 0.02271 0.04121 0.0
H16 H 0.05637 0.00503 0.03654 0.0
Zn17 Zn 0.07998 0.05043 0.10319 0.0
C18 C 0.09807 0.99545 0.9115 0.0
O19 O 0.07921 0.97968 0.94431 0.0
O20 O 0.92315 0.11228 0.99184 0.0
O21 O 0.92331 0.11532 0.07452 0.0
O22 O 0.07699 0.90053 0.99362 0.0
O23 O 0.07974 0.89904 0.07633 0.0
O24 O 0.89945 0.92407 0.98034 0.0
O25 O 0.8922 0.92574 0.06234 0.0
C26 C 0.02143 0.08918 0.15382 0.0
O27 O 0.11954 0.09155 0.00872 0.0
O28 O 0.11459 0.08909 0.09104 0.0
O29 O 0.00737 0.92497 0.91643 0.0
C30 C 0.91072 0.12356 0.03228 0.0
O31 O 0.99187 0.0941 0.91225 0.0
C32 C 0.98053 0.91924 0.1526 0.0
O33 O 0.9218 0.99149 0.90205 0.0
C34 C 0.09059 0.88968 0.03358 0.0
O35 O 0.10649 0.0262 0.91971 0.0
C36 C 0.91641 0.02452 0.14388 0.0
O37 O 0.99032 0.09823 0.15114 0.0
O38 O 0.03353 0.07036 0.11959 0.0
C39 C 0.88554 0.91284 0.01964 0.0
O40 O 0.01256 0.9137 0.15253 0.0
O41 O 0.96847 0.93841 0.11849 0.0
C42 C 0.08456 0.98798 0.15808 0.0
O43 O 0.90643 0.9938 0.14004 0.0
O44 O 0.93761 0.0357 0.11228 0.0
C45 C 0.12678 0.10287 0.0519 0.0
O46 O 0.09529 0.01855 0.15798 0.0
O47 O 0.06616 0.97769 0.12207 0.0
C48 C 0.98991 0.89796 0.91092 0.0
O49 O 0.98988 0.87543 0.94681 0.0
C50 C 0.02393 0.09823 0.91452 0.0
O51 O 0.03936 0.0946 0.95755 0.0
Zn52 Zn 0.46698 0.59253 0.47021 0.0
Zn53 Zn 0.4578 0.58182 0.58877 0.0
O54 O 0.48706 0.56967 0.53037 0.0
H55 H 0.50268 0.55071 0.5286 0.0
C56 C 0.40793 0.51278 0.38346 0.0
O57 O 0.43857 0.5004 0.37574 0.0
Zn58 Zn 0.54386 0.42528 0.59151 0.0
Zn59 Zn 0.54342 0.4277 0.4718 0.0
O60 O 0.51544 0.4384 0.53244 0.0
H61 H 0.49834 0.45605 0.53235 0.0
Zn62 Zn 0.41281 0.47208 0.47566 0.0
O63 O 0.43891 0.4906 0.53438 0.0
Zn64 Zn 0.42739 0.4623 0.594 0.0
H65 H 0.45885 0.50481 0.53136 0.0
Zn66 Zn 0.59703 0.53703 0.48563 0.0
O67 O 0.56708 0.51695 0.53872 0.0
H68 H 0.54777 0.50233 0.53226 0.0
Zn69 Zn 0.57457 0.54492 0.6001 0.0
C70 C 0.64176 0.49902 0.41891 0.0
O71 O 0.66424 0.50945 0.4519 0.0
O72 O 0.42759 0.6246 0.48767 0.0
O73 O 0.42086 0.61681 0.56893 0.0
O74 O 0.58449 0.39734 0.48777 0.0
O75 O 0.58123 0.3912 0.56987 0.0
O76 O 0.38335 0.43141 0.49472 0.0
O77 O 0.39143 0.4257 0.57619 0.0
C78 C 0.51956 0.59109 0.64452 0.0
O79 O 0.62827 0.57566 0.51068 0.0
O80 O 0.61235 0.58043 0.58967 0.0
O81 O 0.51902 0.42064 0.4037 0.0
C82 C 0.41229 0.63131 0.52821 0.0
O83 O 0.49806 0.60387 0.41014 0.0
C84 C 0.48106 0.41628 0.6447 0.0
O85 O 0.3925 0.50505 0.4232 0.0
C86 C 0.5953 0.38438 0.52817 0.0
O87 O 0.61076 0.50743 0.42463 0.0
C88 C 0.41904 0.52611 0.64713 0.0
O89 O 0.48888 0.60142 0.64181 0.0
O90 O 0.52964 0.56868 0.61362 0.0
C91 C 0.37708 0.41641 0.5355 0.0
O92 O 0.51179 0.40579 0.64325 0.0
O93 O 0.47183 0.43927 0.61429 0.0
C94 C 0.57879 0.48155 0.65546 0.0
O95 O 0.41072 0.49477 0.64778 0.0
O96 O 0.43692 0.53705 0.61127 0.0
C97 C 0.63092 0.58981 0.55325 0.0
O98 O 0.58642 0.51303 0.65651 0.0
O99 O 0.56489 0.46946 0.61637 0.0
C100 C 0.48676 0.41902 0.39969 0.0
O101 O 0.46815 0.42239 0.4398 0.0
C102 C 0.50314 0.63484 0.39898 0.0
O103 O 0.48847 0.65863 0.42587 0.0
C104 C 0.35965 0.33177 0.88031 0.0
C105 C 0.38052 0.36049 0.88683 0.0
C106 C 0.39498 0.35957 0.79893 0.0
C107 C 0.39791 0.37437 0.84642 0.0
C108 C 0.37366 0.33111 0.79251 0.0
C109 C 0.35617 0.31734 0.83288 0.0
U110 U 0.34774 0.3211 0.01977 0.0
O111 O 0.301 0.31601 0.06412 0.0
O112 O 0.33914 0.27515 0.06425 0.0
C113 C 0.30866 0.28498 0.07842 0.0
C114 C 0.34215 0.31615 0.92276 0.0
C115 C 0.28126 0.25956 0.07331 0.0
C116 C 0.25308 0.21384 0.028 0.0
C117 C 0.27891 0.23831 0.03142 0.0
C118 C 0.23141 0.23186 0.10796 0.0
C119 C 0.2289 0.21048 0.06611 0.0
C120 C 0.25735 0.25618 0.11146 0.0
C121 C 0.40442 0.37188 0.10896 0.0
C122 C 0.40338 0.36363 0.19833 0.0
C123 C 0.44044 0.40631 0.16277 0.0
C124 C 0.42871 0.39767 0.11529 0.0
C125 C 0.42799 0.38933 0.2048 0.0
C126 C 0.39164 0.355 0.15073 0.0
C127 C 0.39328 0.36248 0.05857 0.0
O128 O 0.36088 0.29541 0.9496 0.0
O129 O 0.32345 0.33686 0.94976 0.0
O130 O 0.36236 0.3722 0.04617 0.0
O131 O 0.40016 0.33106 0.04494 0.0
H132 H 0.38365 0.3719 0.92326 0.0
H133 H 0.41431 0.39618 0.85252 0.0
H134 H 0.37058 0.31942 0.7563 0.0
H135 H 0.34013 0.2952 0.82714 0.0
H136 H 0.25233 0.19724 0.9958 0.0
H137 H 0.29719 0.24044 1.00158 0.0
H138 H 0.21313 0.22995 0.13782 0.0
H139 H 0.25878 0.27236 0.1441 0.0
H140 H 0.3938 0.34968 0.22992 0.0
H141 H 0.45932 0.42626 0.16667 0.0
H142 H 0.43882 0.41096 0.08342 0.0
H143 H 0.37294 0.3349 0.14643 0.0
C144 C 0.69857 0.37427 0.16702 0.0
C145 C 0.67642 0.40196 0.16061 0.0
C146 C 0.6796 0.41453 0.24919 0.0
C147 C 0.66691 0.42192 0.20149 0.0
C148 C 0.70118 0.3863 0.25541 0.0
C149 C 0.71065 0.36642 0.21462 0.0
U150 U 0.69887 0.35019 0.0285 0.0
O151 O 0.74286 0.33687 0.98181 0.0
O152 O 0.70211 0.29958 0.99383 0.0
C153 C 0.73274 0.3052 0.9761 0.0
C154 C 0.71017 0.3538 0.12459 0.0
C155 C 0.75842 0.27902 0.98739 0.0
C156 C 0.78534 0.23941 0.04467 0.0
C157 C 0.76149 0.26513 0.0352 0.0
C158 C 0.80398 0.24208 0.95916 0.0
C159 C 0.80645 0.22723 0.00649 0.0
C160 C 0.78007 0.26761 0.94968 0.0
C161 C 0.64185 0.39722 0.93458 0.0
C162 C 0.65111 0.40687 0.84643 0.0
C163 C 0.59458 0.41318 0.88082 0.0
C164 C 0.60716 0.4044 0.92772 0.0
C165 C 0.61648 0.41505 0.83975 0.0
C166 C 0.66365 0.39787 0.89335 0.0
C167 C 0.65482 0.39089 0.9853 0.0
O168 O 0.68741 0.33337 0.10448 0.0
O169 O 0.72846 0.37016 0.09166 0.0
O170 O 0.68672 0.39935 0.99405 0.0
O171 O 0.64617 0.36168 0.00524 0.0
H172 H 0.66685 0.40834 0.12402 0.0
H173 H 0.65022 0.44352 0.19571 0.0
H174 H 0.71073 0.37958 0.29187 0.0
H175 H 0.72765 0.34502 0.2202 0.0
H176 H 0.78682 0.22856 0.08152 0.0
H177 H 0.7452 0.27391 0.06498 0.0
H178 H 0.82056 0.23392 0.92937 0.0
H179 H 0.77835 0.27834 0.91276 0.0
H180 H 0.66882 0.40878 0.81588 0.0
H181 H 0.56778 0.41925 0.87686 0.0
H182 H 0.58988 0.40398 0.95896 0.0
H183 H 0.69055 0.39237 0.89761 0.0
C184 C 0.63073 0.70047 0.15671 0.0
C185 C 0.60567 0.67571 0.1476 0.0
C186 C 0.59013 0.67632 0.23502 0.0
C187 C 0.58551 0.6637 0.1865 0.0
C188 C 0.61536 0.70105 0.24386 0.0
C189 C 0.63552 0.71297 0.20501 0.0
U190 U 0.65283 0.7066 0.01928 0.0
O191 O 0.66592 0.7517 0.975 0.0
O192 O 0.70255 0.70974 0.98253 0.0
C193 C 0.69708 0.74091 0.96677 0.0
C194 C 0.65139 0.71416 0.11612 0.0
C195 C 0.72431 0.76568 0.97724 0.0
C196 C 0.76797 0.78947 0.03158 0.0
C197 C 0.74137 0.76636 0.02321 0.0
C198 C 0.75989 0.81209 0.94882 0.0
C199 C 0.77785 0.8122 0.99413 0.0
C200 C 0.73349 0.78892 0.9404 0.0
C201 C 0.60215 0.65458 0.9239 0.0
C202 C 0.60711 0.66219 0.83465 0.0
C203 C 0.57179 0.617 0.86735 0.0
C204 C 0.5804 0.62687 0.91567 0.0
C205 C 0.58473 0.63476 0.82634 0.0
C206 C 0.6158 0.67202 0.88316 0.0
C207 C 0.60968 0.66521 0.97518 0.0
O208 O 0.67127 0.69212 0.09351 0.0
O209 O 0.6351 0.73435 0.08534 0.0
O210 O 0.60249 0.69707 0.986 0.0
O211 O 0.6392 0.65518 0.99309 0.0
H212 H 0.60149 0.66598 0.11036 0.0
H213 H 0.56585 0.64511 0.17848 0.0
H214 H 0.6195 0.71115 0.28089 0.0
H215 H 0.65471 0.73215 0.21262 0.0
H216 H 0.78125 0.78913 0.06692 0.0
H217 H 0.73437 0.74882 0.05236 0.0
H218 H 0.76626 0.82996 0.91979 0.0
H219 H 0.72033 0.78903 0.90495 0.0
H220 H 0.61776 0.67603 0.80369 0.0
H221 H 0.55427 0.59597 0.86205 0.0
H222 H 0.56967 0.61313 0.94668 0.0
H223 H 0.63285 0.69338 0.88892 0.0
C224 C 0.31441 0.63807 0.15718 0.0
C225 C 0.33474 0.61 0.14438 0.0
C226 C 0.34504 0.59822 0.23186 0.0
C227 C 0.34997 0.59025 0.18145 0.0
C228 C 0.32514 0.62676 0.24438 0.0
C229 C 0.30987 0.64645 0.2073 0.0
U230 U 0.30079 0.66018 0.02132 0.0
O231 O 0.25354 0.67221 0.98059 0.0
O232 O 0.29488 0.70978 0.98485 0.0
C233 C 0.26319 0.70361 0.97157 0.0
C234 C 0.29771 0.65857 0.1186 0.0
C235 C 0.2383 0.73031 0.98414 0.0
C236 C 0.2144 0.77162 0.04195 0.0
C237 C 0.23749 0.74533 0.03158 0.0
C238 C 0.19211 0.76732 0.95813 0.0
C239 C 0.19187 0.78328 0.005 0.0
C240 C 0.2152 0.7412 0.94778 0.0
C241 C 0.35298 0.6086 0.92534 0.0
C242 C 0.35175 0.616 0.83569 0.0
C243 C 0.38804 0.57295 0.87245 0.0
C244 C 0.37675 0.58233 0.9196 0.0
C245 C 0.37598 0.58986 0.82996 0.0
C246 C 0.3404 0.62543 0.88316 0.0
C247 C 0.34202 0.61769 0.97581 0.0
O248 O 0.31784 0.67929 0.09426 0.0
O249 O 0.27651 0.64184 0.08952 0.0
O250 O 0.31041 0.61009 0.98721 0.0
O251 O 0.35157 0.6478 0.99215 0.0
H252 H 0.3386 0.60326 0.10576 0.0
H253 H 0.36514 0.5684 0.17074 0.0
H254 H 0.32151 0.63396 0.28285 0.0
H255 H 0.29445 0.66819 0.21777 0.0
H256 H 0.21465 0.78334 0.07842 0.0
H257 H 0.25497 0.73701 0.06031 0.0
H258 H 0.17444 0.77512 0.92934 0.0
H259 H 0.21519 0.72965 0.91117 0.0
H260 H 0.34184 0.62926 0.80354 0.0
H261 H 0.40591 0.55204 0.86921 0.0
H262 H 0.38653 0.56891 0.95172 0.0
H263 H 0.32192 0.64574 0.88698 0.0
C264 C 0.86683 0.8227 0.38923 0.0
C265 C 0.89585 0.84242 0.39967 0.0
C266 C 0.90255 0.85485 0.31171 0.0
C267 C 0.91364 0.85824 0.36121 0.0
C268 C 0.87351 0.83497 0.30147 0.0
C269 C 0.8558 0.81907 0.33994 0.0
U270 U 0.85175 0.80922 0.52673 0.0
O271 O 0.80463 0.80343 0.5697 0.0
O272 O 0.84269 0.7625 0.5696 0.0
C273 C 0.81229 0.77237 0.58395 0.0
C274 C 0.84806 0.80587 0.42948 0.0
C275 C 0.785 0.74684 0.57931 0.0
C276 C 0.7403 0.71843 0.53214 0.0
C277 C 0.76624 0.74285 0.53521 0.0
C278 C 0.75181 0.70164 0.61702 0.0
C279 C 0.73272 0.69762 0.57309 0.0
C280 C 0.77762 0.7261 0.62008 0.0
C281 C 0.90684 0.85847 0.61924 0.0
C282 C 0.89887 0.85371 0.70834 0.0
C283 C 0.94705 0.88504 0.67604 0.0
C284 C 0.9362 0.87793 0.62762 0.0
C285 C 0.92873 0.87269 0.71692 0.0
C286 C 0.88807 0.84654 0.65982 0.0
C287 C 0.89666 0.85007 0.56811 0.0
O288 O 0.86605 0.78452 0.45642 0.0
O289 O 0.8286 0.82597 0.4563 0.0
O290 O 0.86595 0.85994 0.55491 0.0
O291 O 0.90384 0.8189 0.55369 0.0
H292 H 0.90472 0.84555 0.43757 0.0
H293 H 0.93587 0.87345 0.3702 0.0
H294 H 0.86474 0.83138 0.26362 0.0
H295 H 0.83354 0.80385 0.33119 0.0
H296 H 0.72606 0.71588 0.49778 0.0
H297 H 0.77164 0.75858 0.50327 0.0
H298 H 0.74722 0.68546 0.64874 0.0
H299 H 0.792 0.72869 0.65433 0.0
H300 H 0.88395 0.84436 0.73912 0.0
H301 H 0.97024 0.89955 0.68154 0.0
H302 H 0.951 0.88725 0.59667 0.0
H303 H 0.86526 0.83149 0.65393 0.0
C304 C 0.18389 0.87752 0.67113 0.0
C305 C 0.16453 0.90637 0.65892 0.0
C306 C 0.15434 0.91755 0.74655 0.0
C307 C 0.14988 0.92627 0.69637 0.0
C308 C 0.17352 0.88845 0.75849 0.0
C309 C 0.18825 0.86865 0.72105 0.0
U310 U 0.19339 0.85384 0.5351 0.0
O311 O 0.23878 0.84036 0.49184 0.0
O312 O 0.19707 0.80351 0.49916 0.0
C313 C 0.22829 0.80902 0.48375 0.0
C314 C 0.19922 0.85631 0.63212 0.0
C315 C 0.25314 0.782 0.49486 0.0
C316 C 0.29573 0.75614 0.54879 0.0
C317 C 0.27107 0.78128 0.54012 0.0
C318 C 0.28399 0.73178 0.4677 0.0
C319 C 0.30265 0.73129 0.51242 0.0
C320 C 0.2595 0.7569 0.45904 0.0
C321 C 0.1408 0.90547 0.4404 0.0
C322 C 0.14184 0.89689 0.35096 0.0
C323 C 0.10754 0.94208 0.38641 0.0
C324 C 0.11821 0.93269 0.43393 0.0
C325 C 0.11909 0.92423 0.34437 0.0
C326 C 0.15257 0.8875 0.39871 0.0
C327 C 0.15208 0.89691 0.49093 0.0
O328 O 0.17802 0.83577 0.60887 0.0
O329 O 0.22001 0.87226 0.60201 0.0
O330 O 0.18403 0.90395 0.50153 0.0
O331 O 0.14219 0.86719 0.50783 0.0
H332 H 0.16068 0.91341 0.62044 0.0
H333 H 0.13472 0.94821 0.68609 0.0
H334 H 0.17741 0.88122 0.79686 0.0
H335 H 0.20303 0.84639 0.73108 0.0
H336 H 0.31005 0.75677 0.58324 0.0
H337 H 0.26642 0.80047 0.56829 0.0
H338 H 0.28859 0.71286 0.43913 0.0
H339 H 0.24581 0.75698 0.42401 0.0
H340 H 0.15133 0.88286 0.31919 0.0
H341 H 0.09085 0.96388 0.38252 0.0
H342 H 0.10912 0.94701 0.46569 0.0
H343 H 0.17016 0.86645 0.40311 0.0
C344 C 0.14143 0.1784 0.6713 0.0
C345 C 0.11936 0.15115 0.66093 0.0
C346 C 0.10282 0.149 0.74787 0.0
C347 C 0.10028 0.13646 0.69899 0.0
C348 C 0.12516 0.17617 0.75799 0.0
C349 C 0.14427 0.19076 0.71998 0.0
U350 U 0.16185 0.19099 0.53445 0.0
O351 O 0.17403 0.23771 0.4937 0.0
O352 O 0.21157 0.19634 0.49773 0.0
C353 C 0.20544 0.22795 0.48462 0.0
C354 C 0.16141 0.19434 0.63176 0.0
C355 C 0.23218 0.25279 0.49738 0.0
C356 C 0.25693 0.29504 0.55327 0.0
C357 C 0.23236 0.27001 0.54324 0.0
C358 C 0.28197 0.2849 0.47251 0.0
C359 C 0.28172 0.30305 0.51766 0.0
C360 C 0.25743 0.26004 0.46249 0.0
C361 C 0.10901 0.14174 0.43708 0.0
C362 C 0.10995 0.15232 0.3482 0.0
C363 C 0.07632 0.10587 0.3808 0.0
C364 C 0.08706 0.11417 0.42887 0.0
C365 C 0.08726 0.1251 0.33997 0.0
C366 C 0.12074 0.16061 0.39645 0.0
C367 C 0.11828 0.15093 0.48839 0.0
O368 O 0.18139 0.17371 0.60669 0.0
O369 O 0.14449 0.21562 0.60334 0.0
O370 O 0.11115 0.18232 0.50189 0.0
O371 O 0.14836 0.14063 0.50383 0.0
H372 H 0.11694 0.14127 0.62346 0.0
H373 H 0.08376 0.11516 0.69028 0.0
H374 H 0.1275 0.18644 0.79525 0.0
H375 H 0.16115 0.21183 0.72855 0.0
H376 H 0.25578 0.30893 0.58804 0.0
H377 H 0.21308 0.26463 0.57075 0.0
H378 H 0.3009 0.29036 0.44451 0.0
H379 H 0.2578 0.24688 0.42705 0.0
H380 H 0.11924 0.16724 0.31738 0.0
H381 H 0.05869 0.08491 0.37569 0.0
H382 H 0.07774 0.09935 0.4598 0.0
H383 H 0.13787 0.18191 0.40213 0.0
C384 C 0.82853 0.13855 0.66248 0.0
C385 C 0.85479 0.11576 0.6503 0.0
C386 C 0.86144 0.10069 0.73747 0.0
C387 C 0.87119 0.09704 0.68754 0.0
C388 C 0.8353 0.1238 0.74939 0.0
C389 C 0.81898 0.14251 0.7122 0.0
U390 U 0.81124 0.15851 0.52633 0.0
O391 O 0.76279 0.16904 0.48776 0.0
O392 O 0.80335 0.20751 0.4889 0.0
C393 C 0.77167 0.20035 0.47671 0.0
C394 C 0.81063 0.15799 0.62379 0.0
C395 C 0.74638 0.22694 0.48789 0.0
C396 C 0.72006 0.26754 0.54447 0.0
C397 C 0.7435 0.24128 0.53556 0.0
C398 C 0.70177 0.26472 0.45852 0.0
C399 C 0.69934 0.27989 0.50577 0.0
C400 C 0.72515 0.2386 0.44968 0.0
C401 C 0.86057 0.10796 0.42719 0.0
C402 C 0.84835 0.10869 0.33857 0.0
C403 C 0.89785 0.07851 0.36958 0.0
C404 C 0.88959 0.08822 0.418 0.0
C405 C 0.87715 0.08829 0.32936 0.0
C406 C 0.84012 0.11847 0.38718 0.0
C407 C 0.85194 0.11656 0.47884 0.0
O408 O 0.82969 0.1788 0.59781 0.0
O409 O 0.78919 0.14034 0.59632 0.0
O410 O 0.82109 0.10825 0.49314 0.0
O411 O 0.86146 0.14689 0.4943 0.0
H412 H 0.86253 0.11246 0.61202 0.0
H413 H 0.89163 0.0799 0.67733 0.0
H414 H 0.82712 0.12702 0.78748 0.0
H415 H 0.79873 0.15995 0.72223 0.0
H416 H 0.71859 0.27865 0.58127 0.0
H417 H 0.75961 0.23243 0.56562 0.0
H418 H 0.68553 0.27305 0.42831 0.0
H419 H 0.72681 0.22763 0.41278 0.0
H420 H 0.83223 0.11702 0.30823 0.0
H421 H 0.92004 0.06261 0.36373 0.0
H422 H 0.90568 0.07991 0.44843 0.0
H423 H 0.81769 0.13394 0.39361 0.0
C424 C 0.16971 0.13733 0.10008 0.0
C425 C 0.15092 0.13193 0.05612 0.0
C426 C 0.19454 0.16301 0.10323 0.0
C427 C 0.20143 0.1844 0.06264 0.0
H428 H 0.16592 0.12101 0.1319 0.0
H429 H 0.20903 0.16559 0.13736 0.0
S430 S 0.15639 0.18368 0.94119 0.0
N431 N 0.13911 0.15205 0.97236 0.0
N432 N 0.1853 0.20042 0.97872 0.0
C433 C 0.18193 0.18012 0.01916 0.0
C434 C 0.1568 0.15393 0.01582 0.0
C435 C 0.87813 0.17442 0.06333 0.0
C436 C 0.88167 0.14758 0.02897 0.0
C437 C 0.85317 0.19972 0.05664 0.0
C438 C 0.83085 0.19891 0.01551 0.0
H439 H 0.8956 0.17668 0.09441 0.0
H440 H 0.85212 0.22067 0.08288 0.0
S441 S 0.82608 0.13096 0.91958 0.0
N442 N 0.8583 0.11972 0.95551 0.0
N443 N 0.81139 0.16684 0.9434 0.0
C444 C 0.83296 0.17114 0.98258 0.0
C445 C 0.85833 0.14559 0.98922 0.0
C446 C 0.83506 0.8803 0.0514 0.0
C447 C 0.86003 0.88508 0.01472 0.0
C448 C 0.80895 0.85618 0.04509 0.0
C449 C 0.8069 0.83594 1.00192 0.0
H450 H 0.83499 0.89602 0.08451 0.0
H451 H 0.78966 0.8541 0.07353 0.0
S452 S 0.8684 0.83525 0.89777 0.0
N453 N 0.88262 0.86525 0.93561 0.0
N454 N 0.83388 0.81991 0.92425 0.0
C455 C 0.83254 0.83939 0.96605 0.0
C456 C 0.859 0.86392 0.97232 0.0
C457 C 0.12314 0.83867 0.06421 0.0
C458 C 0.11897 0.8649 0.02926 0.0
C459 C 0.1474 0.81274 0.05696 0.0
C460 C 0.16837 0.81229 0.01465 0.0
H461 H 0.10668 0.83739 0.0963 0.0
H462 H 0.14894 0.79231 0.08375 0.0
S463 S 0.17138 0.87826 0.91664 0.0
N464 N 0.14047 0.89081 0.9538 0.0
N465 N 0.18612 0.84257 0.94069 0.0
C466 C 0.16571 0.83944 0.98104 0.0
C467 C 0.14102 0.86561 0.98823 0.0
C468 C 0.68122 0.62293 0.52319 0.0
C469 C 0.65635 0.61761 0.55993 0.0
C470 C 0.7055 0.6489 0.52772 0.0
C471 C 0.70603 0.67078 0.56915 0.0
H472 H 0.68224 0.60672 0.4906 0.0
H473 H 0.72436 0.65153 0.49877 0.0
S474 S 0.64546 0.66928 0.67464 0.0
N475 N 0.63317 0.63739 0.63865 0.0
N476 N 0.67867 0.68643 0.64682 0.0
C477 C 0.68117 0.66609 0.60605 0.0
C478 C 0.6564 0.63951 0.60152 0.0
C479 C 0.38041 0.67738 0.48434 0.0
C480 C 0.38443 0.65704 0.52696 0.0
C481 C 0.35421 0.70134 0.48052 0.0
C482 C 0.33067 0.70615 0.51905 0.0
H483 H 0.39771 0.67491 0.45332 0.0
H484 H 0.35247 0.71638 0.44698 0.0
S485 S 0.32925 0.65948 0.63853 0.0
N486 N 0.36236 0.64349 0.60885 0.0
N487 N 0.31276 0.68853 0.6013 0.0
C488 C 0.33439 0.68636 0.56221 0.0
C489 C 0.36128 0.66183 0.56621 0.0
C490 C 0.33172 0.38338 0.49158 0.0
C491 C 0.35223 0.38782 0.53423 0.0
C492 C 0.30898 0.3562 0.48719 0.0
C493 C 0.30559 0.33205 0.52513 0.0
H494 H 0.33318 0.40106 0.46091 0.0
H495 H 0.29378 0.35414 0.45361 0.0
S496 S 0.35322 0.33144 0.64448 0.0
N497 N 0.36747 0.36554 0.61555 0.0
N498 N 0.32459 0.31408 0.60699 0.0
C499 C 0.32546 0.33621 0.5684 0.0
C500 C 0.3488 0.36412 0.57299 0.0
C501 C 0.62701 0.33309 0.5596 0.0
C502 C 0.62418 0.36002 0.52551 0.0
C503 C 0.65205 0.30776 0.55398 0.0
C504 C 0.67515 0.30852 0.51414 0.0
H505 H 0.60896 0.33082 0.58969 0.0
H506 H 0.65254 0.28679 0.57996 0.0
S507 S 0.68186 0.37644 0.4193 0.0
N508 N 0.64899 0.38779 0.4536 0.0
N509 N 0.69599 0.34052 0.44347 0.0
C510 C 0.67371 0.3363 0.48145 0.0
C511 C 0.64826 0.36195 0.48702 0.0
C512 C 0.05737 0.07454 0.22715 0.0
C513 C 0.042 0.09946 0.19731 0.0
C514 C 0.07313 0.0832 0.27232 0.0
C515 C 0.07386 0.11714 0.28946 0.0
H516 H 0.05546 0.04795 0.21699 0.0
H517 H 0.08401 0.06303 0.29467 0.0
S518 S 0.03642 0.19174 0.22504 0.0
N519 N 0.02823 0.15928 0.18766 0.0
N520 N 0.05748 0.17574 0.27278 0.0
C521 C 0.05895 0.14237 0.25944 0.0
C522 C 0.04291 0.13346 0.21348 0.0
C523 C 0.92851 0.0629 0.21577 0.0
C524 C 0.90466 0.04537 0.18628 0.0
C525 C 0.91907 0.07809 0.26088 0.0
C526 C 0.88541 0.07603 0.27845 0.0
H527 H 0.95509 0.06283 0.20573 0.0
H528 H 0.93857 0.09052 0.28304 0.0
S529 S 0.81331 0.03261 0.21498 0.0
N530 N 0.84591 0.02697 0.1773 0.0
N531 N 0.8281 0.05505 0.2624 0.0
C532 C 0.8611 0.05918 0.24867 0.0
C533 C 0.87078 0.04378 0.20269 0.0
C534 C 0.97539 0.8831 0.22881 0.0
C535 C 0.95927 0.90336 0.19238 0.0
C536 C 0.95701 0.8678 0.26727 0.0
C537 C 0.92154 0.87169 0.27089 0.0
H538 H 1.00267 0.879 0.22796 0.0
H539 H 0.97068 0.85244 0.29409 0.0
S540 S 0.86656 0.92226 0.18677 0.0
N541 N 0.9052 0.92621 0.16363 0.0
N542 N 0.87085 0.89781 0.23602 0.0
C543 C 0.90494 0.89173 0.23514 0.0
C544 C 0.92371 0.90743 0.19595 0.0
C545 C 0.12579 0.95763 0.21265 0.0
C546 C 0.09197 0.96632 0.20115 0.0
C547 C 0.13411 0.9422 0.25802 0.0
C548 C 0.10895 0.93568 0.29384 0.0
H549 H 0.14606 0.96385 0.18708 0.0
H550 H 0.16065 0.93699 0.26615 0.0
S551 S 0.01653 0.9538 0.28093 0.0
N552 N 0.0332 0.96724 0.22836 0.0
N553 N 0.04854 0.93801 0.31353 0.0
C554 C 0.07485 0.94343 0.28192 0.0
C555 C 0.06643 0.95885 0.23559 0.0
C556 C 0.10566 0.94145 0.8631 0.0
C557 C 0.11106 0.9768 0.86735 0.0
C558 C 0.11945 0.92263 0.82371 0.0
C559 C 0.13885 0.93843 0.78662 0.0
H560 H 0.09116 0.92795 0.89088 0.0
H561 H 0.11495 0.89543 0.82234 0.0
S562 S 0.15918 0.03047 0.77867 0.0
N563 N 0.13622 0.02706 0.82959 0.0
N564 N 0.16212 0.99154 0.75569 0.0
C565 C 0.14372 0.97384 0.78951 0.0
C566 C 0.12985 0.99305 0.82981 0.0
C567 C 0.07904 0.11327 0.87381 0.0
C568 C 0.04349 0.10903 0.87022 0.0
C569 C 0.09803 0.12559 0.83383 0.0
C570 C 0.08229 0.13406 0.78852 0.0
H571 H 0.09241 0.10746 0.90801 0.0
H572 H 0.12528 0.12869 0.83854 0.0
S573 S 0.99008 0.12713 0.75911 0.0
N574 N 0.9934 0.1136 0.81686 0.0
N575 N 0.02915 0.13712 0.74204 0.0
C576 C 0.04691 0.12929 0.78391 0.0
C577 C 0.02751 0.11672 0.82465 0.0
C578 C 0.90217 0.07802 0.86125 0.0
C579 C 0.90479 0.0423 0.85912 0.0
C580 C 0.88898 0.09669 0.82133 0.0
C581 C 0.87804 0.08046 0.77742 0.0
H582 H 0.9099 0.09176 0.89433 0.0
H583 H 0.88698 0.1241 0.8251 0.0
S584 S 0.88097 0.9876 0.75154 0.0
N585 N 0.8967 0.9915 0.80823 0.0
N586 N 0.87168 0.02664 0.73341 0.0
C587 C 0.88165 0.04488 0.77393 0.0
C588 C 0.8951 0.02581 0.81467 0.0
C589 C 0.96672 0.91784 0.82927 0.0
C590 C 0.97171 0.89124 0.86342 0.0
C591 C 0.95196 0.9118 0.78257 0.0
C592 C 0.94158 0.87893 0.76813 0.0
H593 H 0.97465 0.94355 0.83836 0.0
H594 H 0.94897 0.933 0.75732 0.0
S595 S 0.94909 0.80035 0.84335 0.0
N596 N 0.96467 0.83069 0.87949 0.0
N597 N 0.93737 0.81939 0.7915 0.0
C598 C 0.94574 0.85221 0.8022 0.0
C599 C 0.96069 0.85834 0.84986 0.0
C600 C 0.55804 0.58023 0.71637 0.0
C601 C 0.54167 0.6036 0.68512 0.0
C602 C 0.57363 0.59074 0.76076 0.0
C603 C 0.57338 0.62517 0.77549 0.0
H604 H 0.55618 0.55336 0.70869 0.0
H605 H 0.58457 0.57157 0.78485 0.0
S606 S 0.53559 0.6968 0.70483 0.0
N607 N 0.52756 0.66286 0.6703 0.0
N608 N 0.55678 0.6829 0.75383 0.0
C609 C 0.5585 0.64909 0.74328 0.0
C610 C 0.5425 0.63823 0.69819 0.0
C611 C 0.3746 0.55474 0.69821 0.0
C612 C 0.40921 0.54812 0.68909 0.0
C613 C 0.36411 0.57023 0.74271 0.0
C614 C 0.38787 0.57895 0.77997 0.0
H615 H 0.35544 0.54675 0.67153 0.0
H616 H 0.3371 0.57368 0.7491 0.0
S617 S 0.48151 0.56757 0.77326 0.0
N618 N 0.46717 0.55189 0.72014 0.0
N619 N 0.44771 0.58154 0.80333 0.0
C620 C 0.42267 0.5736 0.77026 0.0
C621 C 0.43328 0.55799 0.72494 0.0
C622 C 0.43549 0.42205 0.70891 0.0
C623 C 0.45698 0.40114 0.68046 0.0
C624 C 0.41502 0.4084 0.74656 0.0
C625 C 0.41509 0.37325 0.75676 0.0
H626 H 0.43568 0.44931 0.70365 0.0
H627 H 0.39935 0.42553 0.76829 0.0
S628 S 0.4664 0.30756 0.69177 0.0
N629 N 0.47669 0.34357 0.66422 0.0
N630 N 0.43828 0.31784 0.73472 0.0
C631 C 0.43595 0.352 0.72772 0.0
C632 C 0.45696 0.36597 0.68978 0.0
C633 C 0.57544 0.47501 0.74692 0.0
C634 C 0.58459 0.46112 0.70068 0.0
C635 C 0.58471 0.45915 0.79142 0.0
C636 C 0.60387 0.42886 0.79159 0.0
H637 H 0.56164 0.49885 0.74882 0.0
H638 H 0.57799 0.47154 0.82602 0.0
S639 S 0.63327 0.38154 0.68018 0.0
N640 N 0.61323 0.41508 0.6575 0.0
N641 N 0.63025 0.38466 0.74119 0.0
C642 C 0.6123 0.41409 0.74548 0.0
C643 C 0.60267 0.4303 0.70003 0.0
C644 C 0.62731 0.46463 0.34293 0.0
C645 C 0.65218 0.47769 0.37581 0.0
C646 C 0.63636 0.44443 0.30196 0.0
C647 C 0.67059 0.43636 0.29235 0.0
H648 H 0.60055 0.46988 0.34887 0.0
H649 H 0.61635 0.4347 0.27798 0.0
S650 S 0.74572 0.46527 0.36515 0.0
N651 N 0.7128 0.48165 0.39474 0.0
N652 N 0.72959 0.44396 0.31763 0.0
C653 C 0.69574 0.44943 0.3245 0.0
C654 C 0.6866 0.47001 0.3662 0.0
C655 C 0.53093 0.67894 0.34603 0.0
C656 C 0.52534 0.64431 0.35664 0.0
C657 C 0.55189 0.68894 0.30676 0.0
C658 C 0.56801 0.66477 0.27624 0.0
H659 H 0.51909 0.69867 0.36824 0.0
H660 H 0.55524 0.7159 0.29994 0.0
S661 S 0.56283 0.5709 0.28857 0.0
N662 N 0.53833 0.5857 0.33341 0.0
N663 N 0.57779 0.60471 0.25972 0.0
C664 C 0.56278 0.63007 0.28624 0.0
C665 C 0.54149 0.6198 0.32641 0.0
C666 C 0.41026 0.54711 0.30529 0.0
C667 C 0.39134 0.53487 0.34576 0.0
C668 C 0.39516 0.56759 0.26874 0.0
C669 C 0.36054 0.57668 0.2712 0.0
H670 H 0.43704 0.54095 0.30174 0.0
H671 H 0.4108 0.57662 0.23851 0.0
S672 S 0.29913 0.5499 0.36771 0.0
N673 N 0.33562 0.53267 0.38507 0.0
N674 N 0.30736 0.57078 0.31611 0.0
C675 C 0.34123 0.56446 0.31116 0.0
C676 C 0.35657 0.54366 0.34845 0.0
C677 C 0.49151 0.4062 0.30883 0.0
C678 C 0.47074 0.41226 0.35045 0.0
C679 C 0.47741 0.39902 0.26208 0.0
C680 C 0.44195 0.39752 0.25487 0.0
H681 H 0.51901 0.40672 0.31228 0.0
H682 H 0.4945 0.39409 0.23141 0.0
S683 S 0.37606 0.41328 0.35055 0.0
N684 N 0.41256 0.41739 0.3807 0.0
N685 N 0.38622 0.4041 0.29259 0.0
C686 C 0.42078 0.40391 0.29583 0.0
C687 C 0.43512 0.41128 0.3436 0.0
loop_
_geom_bond_atom_site_label_1
_geom_bond_atom_site_label_2
_geom_bond_distance
_geom_bond_site_symmetry_2
_ccdc_geom_bond_type
Zn0 O2 1.933 1_556 S
Zn0 O20 1.985 . S
Zn0 O31 1.955 . S
Zn1 O2 1.911 . S
Zn1 O21 1.970 . S
Zn1 O37 1.945 . S
Zn1 O44 1.981 . S
O2 Zn0 1.933 1_554 S
O2 Zn1 1.911 . S
O2 H3 0.841 1_655 S
H3 O2 0.841 1_455 S
C4 O5 1.246 . S
C4 O33 1.276 1_545 S
O5 C4 1.246 . S
Zn6 O8 1.911 . S
Zn6 O23 1.970 . S
Zn6 O40 1.945 . S
Zn6 O47 1.981 . S
Zn7 O8 1.933 1_556 S
Zn7 O22 1.985 . S
Zn7 O29 1.955 . S
O8 Zn6 1.911 . S
O8 Zn7 1.933 1_554 S
O8 H9 0.841 1_455 S
H9 O8 0.841 1_655 S
Zn10 O11 1.933 1_556 S
Zn10 O24 1.985 . S
Zn10 O33 1.955 . S
O11 Zn10 1.933 1_554 S
O11 Zn12 1.911 . S
O11 H13 0.841 1_565 S
Zn12 O11 1.911 . S
Zn12 O25 1.970 . S
Zn12 O41 1.981 . S
Zn12 O43 1.945 . S
H13 O11 0.841 1_545 S
Zn14 O15 1.933 1_556 S
Zn14 O27 1.985 . S
Zn14 O35 1.955 . S
O15 Zn14 1.933 1_554 S
O15 H16 0.841 1_545 S
O15 Zn17 1.911 . S
H16 O15 0.841 1_565 S
Zn17 O15 1.911 . S
Zn17 O28 1.970 . S
Zn17 O38 1.981 . S
Zn17 O46 1.945 . S
C18 O19 1.246 . S
C18 O35 1.276 1_565 S
O19 C18 1.246 . S
O20 Zn0 1.985 . S
O20 C30 1.245 1_556 S
O21 Zn1 1.970 . S
O21 C30 1.263 . S
O22 Zn7 1.985 . S
O22 C34 1.245 1_556 S
O23 Zn6 1.970 . S
O23 C34 1.263 . S
O24 Zn10 1.985 . S
O24 C39 1.245 1_556 S
O25 Zn12 1.970 . S
O25 C39 1.263 . S
C26 O37 1.262 1_455 S
C26 O38 1.245 . S
O27 Zn14 1.985 . S
O27 C45 1.245 1_556 S
O28 Zn17 1.970 . S
O28 C45 1.263 . S
O29 Zn7 1.955 . S
O29 C48 1.276 1_455 S
C30 O20 1.245 1_554 S
C30 O21 1.263 . S
O31 Zn0 1.955 . S
O31 C50 1.276 1_655 S
C32 O40 1.262 1_655 S
C32 O41 1.245 . S
O33 C4 1.276 1_565 S
O33 Zn10 1.955 . S
C34 O22 1.245 1_554 S
C34 O23 1.263 . S
O35 Zn14 1.955 . S
O35 C18 1.276 1_545 S
C36 O43 1.262 1_545 S
C36 O44 1.245 . S
O37 Zn1 1.945 . S
O37 C26 1.262 1_655 S
O38 Zn17 1.981 . S
O38 C26 1.245 . S
C39 O24 1.245 1_554 S
C39 O25 1.263 . S
O40 Zn6 1.945 . S
O40 C32 1.262 1_455 S
O41 Zn12 1.981 . S
O41 C32 1.245 . S
C42 O46 1.262 1_565 S
C42 O47 1.245 . S
O43 Zn12 1.945 . S
O43 C36 1.262 1_565 S
O44 Zn1 1.981 . S
O44 C36 1.245 . S
C45 O27 1.245 1_554 S
C45 O28 1.263 . S
O46 Zn17 1.945 . S
O46 C42 1.262 1_545 S
O47 Zn6 1.981 . S
O47 C42 1.245 . S
C48 O29 1.276 1_655 S
C48 O49 1.246 . S
O49 C48 1.246 . S
C50 O31 1.276 1_455 S
C50 O51 1.246 . S
O51 C50 1.246 . S
Zn52 O54 1.933 . S
Zn52 O72 1.985 . S
Zn52 O83 1.955 . S
Zn53 O54 1.911 . S
Zn53 O73 1.970 . S
Zn53 O89 1.945 . S
Zn53 O96 1.981 . S
O54 Zn52 1.933 . S
O54 Zn53 1.911 . S
O54 H55 0.841 . S
H55 O54 0.841 . S
C56 O57 1.246 . S
C56 O85 1.276 . S
O57 C56 1.246 . S
Zn58 O60 1.911 . S
Zn58 O75 1.970 . S
Zn58 O92 1.945 . S
Zn58 O99 1.981 . S
Zn59 O60 1.933 . S
Zn59 O74 1.985 . S
Zn59 O81 1.955 . S
O60 Zn58 1.911 . S
O60 Zn59 1.933 . S
O60 H61 0.841 . S
H61 O60 0.841 . S
Zn62 O63 1.933 . S
Zn62 O76 1.985 . S
Zn62 O85 1.955 . S
O63 Zn62 1.933 . S
O63 Zn64 1.911 . S
O63 H65 0.841 . S
Zn64 O63 1.911 . S
Zn64 O77 1.970 . S
Zn64 O93 1.981 . S
Zn64 O95 1.945 . S
H65 O63 0.841 . S
Zn66 O67 1.933 . S
Zn66 O79 1.985 . S
Zn66 O87 1.955 . S
O67 Zn66 1.933 . S
O67 H68 0.841 . S
O67 Zn69 1.911 . S
H68 O67 0.841 . S
Zn69 O67 1.911 . S
Zn69 O80 1.970 . S
Zn69 O90 1.981 . S
Zn69 O98 1.945 . S
C70 O71 1.246 . S
C70 O87 1.276 . S
O71 C70 1.246 . S
O72 Zn52 1.985 . S
O72 C82 1.245 . S
O73 Zn53 1.970 . S
O73 C82 1.263 . S
O74 Zn59 1.985 . S
O74 C86 1.245 . S
O75 Zn58 1.970 . S
O75 C86 1.263 . S
O76 Zn62 1.985 . S
O76 C91 1.245 . S
O77 Zn64 1.970 . S
O77 C91 1.263 . S
C78 O89 1.262 . S
C78 O90 1.245 . S
O79 Zn66 1.985 . S
O79 C97 1.245 . S
O80 Zn69 1.970 . S
O80 C97 1.263 . S
O81 Zn59 1.955 . S
O81 C100 1.276 . S
C82 O72 1.245 . S
C82 O73 1.263 . S
O83 Zn52 1.955 . S
O83 C102 1.276 . S
C84 O92 1.262 . S
C84 O93 1.245 . S
O85 C56 1.276 . S
O85 Zn62 1.955 . S
C86 O74 1.245 . S
C86 O75 1.263 . S
O87 Zn66 1.955 . S
O87 C70 1.276 . S
C88 O95 1.262 . S
C88 O96 1.245 . S
O89 Zn53 1.945 . S
O89 C78 1.262 . S
O90 Zn69 1.981 . S
O90 C78 1.245 . S
C91 O76 1.245 . S
C91 O77 1.263 . S
O92 Zn58 1.945 . S
O92 C84 1.262 . S
O93 Zn64 1.981 . S
O93 C84 1.245 . S
C94 O98 1.262 . S
C94 O99 1.245 . S
O95 Zn64 1.945 . S
O95 C88 1.262 . S
O96 Zn53 1.981 . S
O96 C88 1.245 . S
C97 O79 1.245 . S
C97 O80 1.263 . S
O98 Zn69 1.945 . S
O98 C94 1.262 . S
O99 Zn58 1.981 . S
O99 C94 1.245 . S
C100 O81 1.276 . S
C100 O101 1.246 . S
O101 C100 1.246 . S
C102 O83 1.276 . S
C102 O103 1.246 . S
O103 C102 1.246 . S
C104 C105 1.264 . S
C104 C109 1.479 . S
C104 C114 1.465 . S
C105 C104 1.264 . S
C105 C107 1.339 . S
C105 H132 0.931 . S
C106 C107 1.395 . S
C106 C108 1.320 . S
C107 C105 1.339 . S
C107 C106 1.395 . S
C107 H133 0.929 . S
C108 C106 1.320 . S
C108 C109 1.405 . S
C108 H134 0.930 . S
C109 C104 1.479 . S
C109 C108 1.405 . S
C109 H135 0.931 . S
U110 O111 2.454 1_554 S
U110 O112 2.458 . S
U110 C113 2.984 . S
U110 C114 2.847 1_554 S
U110 C127 2.882 . S
U110 O128 2.441 1_554 S
U110 O129 2.420 1_554 S
U110 O130 2.455 . S
U110 O131 2.449 . S
O111 U110 2.454 1_556 S
O111 C113 1.353 1_556 S
O112 U110 2.458 . S
O112 C113 1.286 . S
C113 U110 2.984 . S
C113 O111 1.353 1_554 S
C113 O112 1.286 . S
C113 C115 1.363 . S
C114 C104 1.465 . S
C114 U110 2.847 1_556 S
C114 O128 1.249 . S
C114 O129 1.202 . S
C115 C113 1.363 . S
C115 C117 1.408 1_554 S
C115 C120 1.342 . S
C116 C117 1.310 . S
C116 C119 1.461 1_556 S
C116 H136 0.932 . S
C117 C115 1.408 1_556 S
C117 C116 1.310 . S
C117 H137 0.930 . S
C118 C119 1.474 . S
C118 C120 1.285 . S
C118 H138 0.929 . S
C119 C116 1.461 1_554 S
C119 C118 1.474 . S
C120 C115 1.342 . S
C120 C118 1.285 . S
C120 H139 0.930 . S
C121 C124 1.424 . S
C121 C126 1.245 . S
C121 C127 1.428 . S
C122 C125 1.260 . S
C122 C126 1.477 . S
C122 H140 0.932 . S
C123 C124 1.384 . S
C123 C125 1.479 . S
C123 H141 0.929 . S
C124 C121 1.424 . S
C124 C123 1.384 . S
C124 H142 0.928 . S
C125 C122 1.260 . S
C125 C123 1.479 . S
C126 C121 1.245 . S
C126 C122 1.477 . S
C126 H143 0.932 . S
C127 U110 2.882 . S
C127 C121 1.428 . S
C127 O130 1.301 . S
C127 O131 1.282 . S
O128 U110 2.441 1_556 S
O128 C114 1.249 . S
O129 U110 2.420 1_556 S
O129 C114 1.202 . S
O130 U110 2.455 . S
O130 C127 1.301 . S
O131 U110 2.449 . S
O131 C127 1.282 . S
H132 C105 0.931 . S
H133 C107 0.929 . S
H134 C108 0.930 . S
H135 C109 0.931 . S
H136 C116 0.932 . S
H137 C117 0.930 . S
H138 C118 0.929 . S
H139 C120 0.930 . S
H140 C122 0.932 . S
H141 C123 0.929 . S
H142 C124 0.928 . S
H143 C126 0.932 . S
C144 C145 1.264 . S
C144 C149 1.479 . S
C144 C154 1.465 . S
C145 C144 1.264 . S
C145 C147 1.339 . S
C145 H172 0.931 . S
C146 C147 1.395 . S
C146 C148 1.320 . S
C147 C145 1.339 . S
C147 C146 1.395 . S
C147 H173 0.929 . S
C148 C146 1.320 . S
C148 C149 1.405 . S
C148 H174 0.930 . S
C149 C144 1.479 . S
C149 C148 1.405 . S
C149 H175 0.931 . S
U150 O151 2.454 . S
U150 O152 2.458 1_554 S
U150 C153 2.984 . S
U150 C154 2.847 . S
U150 C167 2.882 1_554 S
U150 O168 2.441 . S
U150 O169 2.420 . S
U150 O170 2.455 1_554 S
U150 O171 2.449 1_554 S
O151 U150 2.454 . S
O151 C153 1.353 . S
O152 U150 2.458 1_556 S
O152 C153 1.286 1_556 S
C153 U150 2.984 . S
C153 O151 1.353 . S
C153 O152 1.286 1_554 S
C153 C155 1.363 . S
C154 C144 1.465 . S
C154 U150 2.847 . S
C154 O168 1.249 . S
C154 O169 1.202 . S
C155 C153 1.363 . S
C155 C157 1.408 . S
C155 C160 1.342 1_554 S
C156 C157 1.310 . S
C156 C159 1.461 . S
C156 H176 0.932 . S
C157 C155 1.408 . S
C157 C156 1.310 . S
C157 H177 0.930 . S
C158 C159 1.474 1_556 S
C158 C160 1.285 . S
C158 H178 0.929 . S
C159 C156 1.461 . S
C159 C158 1.474 1_554 S
C160 C155 1.342 1_556 S
C160 C158 1.285 . S
C160 H179 0.930 . S
C161 C164 1.424 . S
C161 C166 1.245 . S
C161 C167 1.428 . S
C162 C165 1.260 . S
C162 C166 1.477 . S
C162 H180 0.932 . S
C163 C164 1.384 . S
C163 C165 1.479 . S
C163 H181 0.929 . S
C164 C161 1.424 . S
C164 C163 1.384 . S
C164 H182 0.928 . S
C165 C162 1.260 . S
C165 C163 1.479 . S
C166 C161 1.245 . S
C166 C162 1.477 . S
C166 H183 0.932 . S
C167 U150 2.882 1_556 S
C167 C161 1.428 . S
C167 O170 1.301 . S
C167 O171 1.282 . S
O168 U150 2.441 . S
O168 C154 1.249 . S
O169 U150 2.420 . S
O169 C154 1.202 . S
O170 U150 2.455 1_556 S
O170 C167 1.301 . S
O171 U150 2.449 1_556 S
O171 C167 1.282 . S
H172 C145 0.931 . S
H173 C147 0.929 . S
H174 C148 0.930 . S
H175 C149 0.931 . S
H176 C156 0.932 . S
H177 C157 0.930 . S
H178 C158 0.929 . S
H179 C160 0.930 . S
H180 C162 0.932 . S
H181 C163 0.929 . S
H182 C164 0.928 . S
H183 C166 0.932 . S
C184 C185 1.264 . S
C184 C189 1.479 . S
C184 C194 1.465 . S
C185 C184 1.264 . S
C185 C187 1.339 . S
C185 H212 0.931 . S
C186 C187 1.395 . S
C186 C188 1.320 . S
C187 C185 1.339 . S
C187 C186 1.395 . S
C187 H213 0.929 . S
C188 C186 1.320 . S
C188 C189 1.405 . S
C188 H214 0.930 . S
C189 C184 1.479 . S
C189 C188 1.405 . S
C189 H215 0.931 . S
U190 O191 2.454 . S
U190 O192 2.458 1_554 S
U190 C193 2.984 . S
U190 C194 2.847 . S
U190 C207 2.882 1_554 S
U190 O208 2.441 . S
U190 O209 2.420 . S
U190 O210 2.455 1_554 S
U190 O211 2.449 1_554 S
O191 U190 2.454 . S
O191 C193 1.353 . S
O192 U190 2.458 1_556 S
O192 C193 1.286 1_556 S
C193 U190 2.984 . S
C193 O191 1.353 . S
C193 O192 1.286 1_554 S
C193 C195 1.363 . S
C194 C184 1.465 . S
C194 U190 2.847 . S
C194 O208 1.249 . S
C194 O209 1.202 . S
C195 C193 1.363 . S
C195 C197 1.408 . S
C195 C200 1.342 1_554 S
C196 C197 1.310 . S
C196 C199 1.461 . S
C196 H216 0.932 . S
C197 C195 1.408 . S
C197 C196 1.310 . S
C197 H217 0.930 . S
C198 C199 1.474 1_556 S
C198 C200 1.285 . S
C198 H218 0.929 . S
C199 C196 1.461 . S
C199 C198 1.474 1_554 S
C200 C195 1.342 1_556 S
C200 C198 1.285 . S
C200 H219 0.930 . S
C201 C204 1.424 . S
C201 C206 1.245 . S
C201 C207 1.428 . S
C202 C205 1.260 . S
C202 C206 1.477 . S
C202 H220 0.932 . S
C203 C204 1.384 . S
C203 C205 1.479 . S
C203 H221 0.929 . S
C204 C201 1.424 . S
C204 C203 1.384 . S
C204 H222 0.928 . S
C205 C202 1.260 . S
C205 C203 1.479 . S
C206 C201 1.245 . S
C206 C202 1.477 . S
C206 H223 0.932 . S
C207 U190 2.882 1_556 S
C207 C201 1.428 . S
C207 O210 1.301 . S
C207 O211 1.282 . S
O208 U190 2.441 . S
O208 C194 1.249 . S
O209 U190 2.420 . S
O209 C194 1.202 . S
O210 U190 2.455 1_556 S
O210 C207 1.301 . S
O211 U190 2.449 1_556 S
O211 C207 1.282 . S
H212 C185 0.931 . S
H213 C187 0.929 . S
H214 C188 0.930 . S
H215 C189 0.931 . S
H216 C196 0.932 . S
H217 C197 0.930 . S
H218 C198 0.929 . S
H219 C200 0.930 . S
H220 C202 0.932 . S
H221 C203 0.929 . S
H222 C204 0.928 . S
H223 C206 0.932 . S
C224 C225 1.264 . S
C224 C229 1.479 . S
C224 C234 1.465 . S
C225 C224 1.264 . S
C225 C227 1.339 . S
C225 H252 0.931 . S
C226 C227 1.395 . S
C226 C228 1.320 . S
C227 C225 1.339 . S
C227 C226 1.395 . S
C227 H253 0.929 . S
C228 C226 1.320 . S
C228 C229 1.405 . S
C228 H254 0.930 . S
C229 C224 1.479 . S
C229 C228 1.405 . S
C229 H255 0.931 . S
U230 O231 2.454 . S
U230 O232 2.458 1_554 S
U230 C233 2.984 . S
U230 C234 2.847 . S
U230 C247 2.882 1_554 S
U230 O248 2.441 . S
U230 O249 2.420 . S
U230 O250 2.455 1_554 S
U230 O251 2.449 1_554 S
O231 U230 2.454 . S
O231 C233 1.353 . S
O232 U230 2.458 1_556 S
O232 C233 1.286 1_556 S
C233 U230 2.984 . S
C233 O231 1.353 . S
C233 O232 1.286 1_554 S
C233 C235 1.363 . S
C234 C224 1.465 . S
C234 U230 2.847 . S
C234 O248 1.249 . S
C234 O249 1.202 . S
C235 C233 1.363 . S
C235 C237 1.408 . S
C235 C240 1.342 1_554 S
C236 C237 1.310 . S
C236 C239 1.461 . S
C236 H256 0.932 . S
C237 C235 1.408 . S
C237 C236 1.310 . S
C237 H257 0.930 . S
C238 C239 1.474 1_556 S
C238 C240 1.285 . S
C238 H258 0.929 . S
C239 C236 1.461 . S
C239 C238 1.474 1_554 S
C240 C235 1.342 1_556 S
C240 C238 1.285 . S
C240 H259 0.930 . S
C241 C244 1.424 . S
C241 C246 1.245 . S
C241 C247 1.428 . S
C242 C245 1.260 . S
C242 C246 1.477 . S
C242 H260 0.932 . S
C243 C244 1.384 . S
C243 C245 1.479 . S
C243 H261 0.929 . S
C244 C241 1.424 . S
C244 C243 1.384 . S
C244 H262 0.928 . S
C245 C242 1.260 . S
C245 C243 1.479 . S
C246 C241 1.245 . S
C246 C242 1.477 . S
C246 H263 0.932 . S
C247 U230 2.882 1_556 S
C247 C241 1.428 . S
C247 O250 1.301 . S
C247 O251 1.282 . S
O248 U230 2.441 . S
O248 C234 1.249 . S
O249 U230 2.420 . S
O249 C234 1.202 . S
O250 U230 2.455 1_556 S
O250 C247 1.301 . S
O251 U230 2.449 1_556 S
O251 C247 1.282 . S
H252 C225 0.931 . S
H253 C227 0.929 . S
H254 C228 0.930 . S
H255 C229 0.931 . S
H256 C236 0.932 . S
H257 C237 0.930 . S
H258 C238 0.929 . S
H259 C240 0.930 . S
H260 C242 0.932 . S
H261 C243 0.929 . S
H262 C244 0.928 . S
H263 C246 0.932 . S
C264 C265 1.264 . S
C264 C269 1.479 . S
C264 C274 1.465 . S
C265 C264 1.264 . S
C265 C267 1.339 . S
C265 H292 0.931 . S
C266 C267 1.395 . S
C266 C268 1.320 . S
C267 C265 1.339 . S
C267 C266 1.395 . S
C267 H293 0.929 . S
C268 C266 1.320 . S
C268 C269 1.405 . S
C268 H294 0.930 . S
C269 C264 1.479 . S
C269 C268 1.405 . S
C269 H295 0.931 . S
U270 O271 2.454 . S
U270 O272 2.458 . S
U270 C273 2.984 . S
U270 C274 2.847 . S
U270 C287 2.882 . S
U270 O288 2.441 . S
U270 O289 2.420 . S
U270 O290 2.455 . S
U270 O291 2.449 . S
O271 U270 2.454 . S
O271 C273 1.353 . S
O272 U270 2.458 . S
O272 C273 1.286 . S
C273 U270 2.984 . S
C273 O271 1.353 . S
C273 O272 1.286 . S
C273 C275 1.363 . S
C274 C264 1.465 . S
C274 U270 2.847 . S
C274 O288 1.249 . S
C274 O289 1.202 . S
C275 C273 1.363 . S
C275 C277 1.408 . S
C275 C280 1.342 . S
C276 C277 1.310 . S
C276 C279 1.461 . S
C276 H296 0.932 . S
C277 C275 1.408 . S
C277 C276 1.310 . S
C277 H297 0.930 . S
C278 C279 1.474 . S
C278 C280 1.285 . S
C278 H298 0.929 . S
C279 C276 1.461 . S
C279 C278 1.474 . S
C280 C275 1.342 . S
C280 C278 1.285 . S
C280 H299 0.930 . S
C281 C284 1.424 . S
C281 C286 1.245 . S
C281 C287 1.428 . S
C282 C285 1.260 . S
C282 C286 1.477 . S
C282 H300 0.932 . S
C283 C284 1.384 . S
C283 C285 1.479 . S
C283 H301 0.929 . S
C284 C281 1.424 . S
C284 C283 1.384 . S
C284 H302 0.928 . S
C285 C282 1.260 . S
C285 C283 1.479 . S
C286 C281 1.245 . S
C286 C282 1.477 . S
C286 H303 0.932 . S
C287 U270 2.882 . S
C287 C281 1.428 . S
C287 O290 1.301 . S
C287 O291 1.282 . S
O288 U270 2.441 . S
O288 C274 1.249 . S
O289 U270 2.420 . S
O289 C274 1.202 . S
O290 U270 2.455 . S
O290 C287 1.301 . S
O291 U270 2.449 . S
O291 C287 1.282 . S
H292 C265 0.931 . S
H293 C267 0.929 . S
H294 C268 0.930 . S
H295 C269 0.931 . S
H296 C276 0.932 . S
H297 C277 0.930 . S
H298 C278 0.929 . S
H299 C280 0.930 . S
H300 C282 0.932 . S
H301 C283 0.929 . S
H302 C284 0.928 . S
H303 C286 0.932 . S
C304 C305 1.264 . S
C304 C309 1.479 . S
C304 C314 1.465 . S
C305 C304 1.264 . S
C305 C307 1.339 . S
C305 H332 0.931 . S
C306 C307 1.395 . S
C306 C308 1.320 . S
C307 C305 1.339 . S
C307 C306 1.395 . S
C307 H333 0.929 . S
C308 C306 1.320 . S
C308 C309 1.405 . S
C308 H334 0.930 . S
C309 C304 1.479 . S
C309 C308 1.405 . S
C309 H335 0.931 . S
U310 O311 2.454 . S
U310 O312 2.458 . S
U310 C313 2.984 . S
U310 C314 2.847 . S
U310 C327 2.882 . S
U310 O328 2.441 . S
U310 O329 2.420 . S
U310 O330 2.455 . S
U310 O331 2.449 . S
O311 U310 2.454 . S
O311 C313 1.353 . S
O312 U310 2.458 . S
O312 C313 1.286 . S
C313 U310 2.984 . S
C313 O311 1.353 . S
C313 O312 1.286 . S
C313 C315 1.363 . S
C314 C304 1.465 . S
C314 U310 2.847 . S
C314 O328 1.249 . S
C314 O329 1.202 . S
C315 C313 1.363 . S
C315 C317 1.408 . S
C315 C320 1.342 . S
C316 C317 1.310 . S
C316 C319 1.461 . S
C316 H336 0.932 . S
C317 C315 1.408 . S
C317 C316 1.310 . S
C317 H337 0.930 . S
C318 C319 1.474 . S
C318 C320 1.285 . S
C318 H338 0.929 . S
C319 C316 1.461 . S
C319 C318 1.474 . S
C320 C315 1.342 . S
C320 C318 1.285 . S
C320 H339 0.930 . S
C321 C324 1.424 . S
C321 C326 1.245 . S
C321 C327 1.428 . S
C322 C325 1.260 . S
C322 C326 1.477 . S
C322 H340 0.932 . S
C323 C324 1.384 . S
C323 C325 1.479 . S
C323 H341 0.929 . S
C324 C321 1.424 . S
C324 C323 1.384 . S
C324 H342 0.928 . S
C325 C322 1.260 . S
C325 C323 1.479 . S
C326 C321 1.245 . S
C326 C322 1.477 . S
C326 H343 0.932 . S
C327 U310 2.882 . S
C327 C321 1.428 . S
C327 O330 1.301 . S
C327 O331 1.282 . S
O328 U310 2.441 . S
O328 C314 1.249 . S
O329 U310 2.420 . S
O329 C314 1.202 . S
O330 U310 2.455 . S
O330 C327 1.301 . S
O331 U310 2.449 . S
O331 C327 1.282 . S
H332 C305 0.931 . S
H333 C307 0.929 . S
H334 C308 0.930 . S
H335 C309 0.931 . S
H336 C316 0.932 . S
H337 C317 0.930 . S
H338 C318 0.929 . S
H339 C320 0.930 . S
H340 C322 0.932 . S
H341 C323 0.929 . S
H342 C324 0.928 . S
H343 C326 0.932 . S
C344 C345 1.264 . S
C344 C349 1.479 . S
C344 C354 1.465 . S
C345 C344 1.264 . S
C345 C347 1.339 . S
C345 H372 0.931 . S
C346 C347 1.395 . S
C346 C348 1.320 . S
C347 C345 1.339 . S
C347 C346 1.395 . S
C347 H373 0.929 . S
C348 C346 1.320 . S
C348 C349 1.405 . S
C348 H374 0.930 . S
C349 C344 1.479 . S
C349 C348 1.405 . S
C349 H375 0.931 . S
U350 O351 2.454 . S
U350 O352 2.458 . S
U350 C353 2.984 . S
U350 C354 2.847 . S
U350 C367 2.882 . S
U350 O368 2.441 . S
U350 O369 2.420 . S
U350 O370 2.455 . S
U350 O371 2.449 . S
O351 U350 2.454 . S
O351 C353 1.353 . S
O352 U350 2.458 . S
O352 C353 1.286 . S
C353 U350 2.984 . S
C353 O351 1.353 . S
C353 O352 1.286 . S
C353 C355 1.363 . S
C354 C344 1.465 . S
C354 U350 2.847 . S
C354 O368 1.249 . S
C354 O369 1.202 . S
C355 C353 1.363 . S
C355 C357 1.408 . S
C355 C360 1.342 . S
C356 C357 1.310 . S
C356 C359 1.461 . S
C356 H376 0.932 . S
C357 C355 1.408 . S
C357 C356 1.310 . S
C357 H377 0.930 . S
C358 C359 1.474 . S
C358 C360 1.285 . S
C358 H378 0.929 . S
C359 C356 1.461 . S
C359 C358 1.474 . S
C360 C355 1.342 . S
C360 C358 1.285 . S
C360 H379 0.930 . S
C361 C364 1.424 . S
C361 C366 1.245 . S
C361 C367 1.428 . S
C362 C365 1.260 . S
C362 C366 1.477 . S
C362 H380 0.932 . S
C363 C364 1.384 . S
C363 C365 1.479 . S
C363 H381 0.929 . S
C364 C361 1.424 . S
C364 C363 1.384 . S
C364 H382 0.928 . S
C365 C362 1.260 . S
C365 C363 1.479 . S
C366 C361 1.245 . S
C366 C362 1.477 . S
C366 H383 0.932 . S
C367 U350 2.882 . S
C367 C361 1.428 . S
C367 O370 1.301 . S
C367 O371 1.282 . S
O368 U350 2.441 . S
O368 C354 1.249 . S
O369 U350 2.420 . S
O369 C354 1.202 . S
O370 U350 2.455 . S
O370 C367 1.301 . S
O371 U350 2.449 . S
O371 C367 1.282 . S
H372 C345 0.931 . S
H373 C347 0.929 . S
H374 C348 0.930 . S
H375 C349 0.931 . S
H376 C356 0.932 . S
H377 C357 0.930 . S
H378 C358 0.929 . S
H379 C360 0.930 . S
H380 C362 0.932 . S
H381 C363 0.929 . S
H382 C364 0.928 . S
H383 C366 0.932 . S
C384 C385 1.264 . S
C384 C389 1.479 . S
C384 C394 1.465 . S
C385 C384 1.264 . S
C385 C387 1.339 . S
C385 H412 0.931 . S
C386 C387 1.395 . S
C386 C388 1.320 . S
C387 C385 1.339 . S
C387 C386 1.395 . S
C387 H413 0.929 . S
C388 C386 1.320 . S
C388 C389 1.405 . S
C388 H414 0.930 . S
C389 C384 1.479 . S
C389 C388 1.405 . S
C389 H415 0.931 . S
U390 O391 2.454 . S
U390 O392 2.458 . S
U390 C393 2.984 . S
U390 C394 2.847 . S
U390 C407 2.882 . S
U390 O408 2.441 . S
U390 O409 2.420 . S
U390 O410 2.455 . S
U390 O411 2.449 . S
O391 U390 2.454 . S
O391 C393 1.353 . S
O392 U390 2.458 . S
O392 C393 1.286 . S
C393 U390 2.984 . S
C393 O391 1.353 . S
C393 O392 1.286 . S
C393 C395 1.363 . S
C394 C384 1.465 . S
C394 U390 2.847 . S
C394 O408 1.249 . S
C394 O409 1.202 . S
C395 C393 1.363 . S
C395 C397 1.408 . S
C395 C400 1.342 . S
C396 C397 1.310 . S
C396 C399 1.461 . S
C396 H416 0.932 . S
C397 C395 1.408 . S
C397 C396 1.310 . S
C397 H417 0.930 . S
C398 C399 1.474 . S
C398 C400 1.285 . S
C398 H418 0.929 . S
C399 C396 1.461 . S
C399 C398 1.474 . S
C400 C395 1.342 . S
C400 C398 1.285 . S
C400 H419 0.930 . S
C401 C404 1.424 . S
C401 C406 1.245 . S
C401 C407 1.428 . S
C402 C405 1.260 . S
C402 C406 1.477 . S
C402 H420 0.932 . S
C403 C404 1.384 . S
C403 C405 1.479 . S
C403 H421 0.929 . S
C404 C401 1.424 . S
C404 C403 1.384 . S
C404 H422 0.928 . S
C405 C402 1.260 . S
C405 C403 1.479 . S
C406 C401 1.245 . S
C406 C402 1.477 . S
C406 H423 0.932 . S
C407 U390 2.882 . S
C407 C401 1.428 . S
C407 O410 1.301 . S
C407 O411 1.282 . S
O408 U390 2.441 . S
O408 C394 1.249 . S
O409 U390 2.420 . S
O409 C394 1.202 . S
O410 U390 2.455 . S
O410 C407 1.301 . S
O411 U390 2.449 . S
O411 C407 1.282 . S
H412 C385 0.931 . S
H413 C387 0.929 . S
H414 C388 0.930 . S
H415 C389 0.931 . S
H416 C396 0.932 . S
H417 C397 0.930 . S
H418 C398 0.929 . S
H419 C400 0.930 . S
H420 C402 0.932 . S
H421 C403 0.929 . S
H422 C404 0.928 . S
H423 C406 0.932 . S
C424 C425 1.369 . S
C424 C426 1.419 . S
C424 H428 0.930 . S
C425 C424 1.369 . S
C425 C434 1.429 . S
C426 C424 1.419 . S
C426 C427 1.363 . S
C426 H429 0.929 . S
C427 C426 1.363 . S
C427 C433 1.428 . S
H428 C424 0.930 . S
H429 C426 0.929 . S
S430 N431 1.610 1_556 S
S430 N432 1.607 1_556 S
N431 S430 1.610 1_554 S
N431 C434 1.350 . S
N432 S430 1.607 1_554 S
N432 C433 1.351 . S
C433 C427 1.428 . S
C433 N432 1.351 . S
C433 C434 1.434 . S
C434 C425 1.429 . S
C434 N431 1.350 . S
C434 C433 1.434 . S
C435 C436 1.369 . S
C435 C437 1.419 . S
C435 H439 0.930 . S
C436 C435 1.369 . S
C436 C445 1.429 1_554 S
C437 C435 1.419 . S
C437 C438 1.363 . S
C437 H440 0.929 . S
C438 C437 1.363 . S
C438 C444 1.428 1_554 S
H439 C435 0.930 . S
H440 C437 0.929 . S
S441 N442 1.613 . S
S441 N443 1.610 . S
N442 S441 1.613 . S
N442 C445 1.350 . S
N443 S441 1.610 . S
N443 C444 1.351 . S
C444 C438 1.428 1_556 S
C444 N443 1.351 . S
C444 C445 1.434 . S
C445 C436 1.429 1_556 S
C445 N442 1.350 . S
C445 C444 1.434 . S
C446 C447 1.369 . S
C446 C448 1.419 . S
C446 H450 0.930 . S
C447 C446 1.369 . S
C447 C456 1.429 1_554 S
C448 C446 1.419 . S
C448 C449 1.363 . S
C448 H451 0.929 . S
C449 C448 1.363 . S
C449 C455 1.428 1_554 S
H450 C446 0.930 . S
H451 C448 0.929 . S
S452 N453 1.613 . S
S452 N454 1.610 . S
N453 S452 1.613 . S
N453 C456 1.350 . S
N454 S452 1.610 . S
N454 C455 1.351 . S
C455 C449 1.428 1_556 S
C455 N454 1.351 . S
C455 C456 1.434 . S
C456 C447 1.429 1_556 S
C456 N453 1.350 . S
C456 C455 1.434 . S
C457 C458 1.369 . S
C457 C459 1.419 . S
C457 H461 0.930 . S
C458 C457 1.369 . S
C458 C467 1.429 1_554 S
C459 C457 1.419 . S
C459 C460 1.363 . S
C459 H462 0.929 . S
C460 C459 1.363 . S
C460 C466 1.428 1_554 S
H461 C457 0.930 . S
H462 C459 0.929 . S
S463 N464 1.613 . S
S463 N465 1.610 . S
N464 S463 1.613 . S
N464 C467 1.350 . S
N465 S463 1.610 . S
N465 C466 1.351 . S
C466 C460 1.428 1_556 S
C466 N465 1.351 . S
C466 C467 1.434 . S
C467 C458 1.429 1_556 S
C467 N464 1.350 . S
C467 C466 1.434 . S
C468 C469 1.369 . S
C468 C470 1.419 . S
C468 H472 0.930 . S
C469 C468 1.369 . S
C469 C478 1.429 . S
C470 C468 1.419 . S
C470 C471 1.363 . S
C470 H473 0.929 . S
C471 C470 1.363 . S
C471 C477 1.428 . S
H472 C468 0.930 . S
H473 C470 0.929 . S
S474 N475 1.613 . S
S474 N476 1.610 . S
N475 S474 1.613 . S
N475 C478 1.350 . S
N476 S474 1.610 . S
N476 C477 1.351 . S
C477 C471 1.428 . S
C477 N476 1.351 . S
C477 C478 1.434 . S
C478 C469 1.429 . S
C478 N475 1.350 . S
C478 C477 1.434 . S
C479 C480 1.369 . S
C479 C481 1.419 . S
C479 H483 0.930 . S
C480 C479 1.369 . S
C480 C489 1.429 . S
C481 C479 1.419 . S
C481 C482 1.363 . S
C481 H484 0.929 . S
C482 C481 1.363 . S
C482 C488 1.428 . S
H483 C479 0.930 . S
H484 C481 0.929 . S
S485 N486 1.613 . S
S485 N487 1.610 . S
N486 S485 1.613 . S
N486 C489 1.350 . S
N487 S485 1.610 . S
N487 C488 1.351 . S
C488 C482 1.428 . S
C488 N487 1.351 . S
C488 C489 1.434 . S
C489 C480 1.429 . S
C489 N486 1.350 . S
C489 C488 1.434 . S
C490 C491 1.369 . S
C490 C492 1.419 . S
C490 H494 0.930 . S
C491 C490 1.369 . S
C491 C500 1.429 . S
C492 C490 1.419 . S
C492 C493 1.363 . S
C492 H495 0.929 . S
C493 C492 1.363 . S
C493 C499 1.428 . S
H494 C490 0.930 . S
H495 C492 0.929 . S
S496 N497 1.613 . S
S496 N498 1.610 . S
N497 S496 1.613 . S
N497 C500 1.350 . S
N498 S496 1.610 . S
N498 C499 1.351 . S
C499 C493 1.428 . S
C499 N498 1.351 . S
C499 C500 1.434 . S
C500 C491 1.429 . S
C500 N497 1.350 . S
C500 C499 1.434 . S
C501 C502 1.369 . S
C501 C503 1.419 . S
C501 H505 0.930 . S
C502 C501 1.369 . S
C502 C511 1.429 . S
C503 C501 1.419 . S
C503 C504 1.363 . S
C503 H506 0.929 . S
C504 C503 1.363 . S
C504 C510 1.428 . S
H505 C501 0.930 . S
H506 C503 0.929 . S
S507 N508 1.613 . S
S507 N509 1.610 . S
N508 S507 1.613 . S
N508 C511 1.350 . S
N509 S507 1.610 . S
N509 C510 1.351 . S
C510 C504 1.428 . S
C510 N509 1.351 . S
C510 C511 1.434 . S
C511 C502 1.429 . S
C511 N508 1.350 . S
C511 C510 1.434 . S
C512 C513 1.369 . S
C512 C514 1.419 . S
C512 H516 0.930 . S
C513 C512 1.369 . S
C513 C522 1.429 . S
C514 C512 1.419 . S
C514 C515 1.363 . S
C514 H517 0.929 . S
C515 C514 1.363 . S
C515 C521 1.428 . S
H516 C512 0.930 . S
H517 C514 0.929 . S
S518 N519 1.613 . S
S518 N520 1.610 . S
N519 S518 1.613 . S
N519 C522 1.350 . S
N520 S518 1.610 . S
N520 C521 1.351 . S
C521 C515 1.428 . S
C521 N520 1.351 . S
C521 C522 1.434 . S
C522 C513 1.429 . S
C522 N519 1.350 . S
C522 C521 1.434 . S
C523 C524 1.369 . S
C523 C525 1.419 . S
C523 H527 0.930 . S
C524 C523 1.369 . S
C524 C533 1.429 . S
C525 C523 1.419 . S
C525 C526 1.363 . S
C525 H528 0.929 . S
C526 C525 1.363 . S
C526 C532 1.428 . S
H527 C523 0.930 . S
H528 C525 0.929 . S
S529 N530 1.613 . S
S529 N531 1.610 . S
N530 S529 1.613 . S
N530 C533 1.350 . S
N531 S529 1.610 . S
N531 C532 1.351 . S
C532 C526 1.428 . S
C532 N531 1.351 . S
C532 C533 1.434 . S
C533 C524 1.429 . S
C533 N530 1.350 . S
C533 C532 1.434 . S
C534 C535 1.369 . S
C534 C536 1.419 . S
C534 H538 0.930 1_655 S
C535 C534 1.369 . S
C535 C544 1.429 . S
C536 C534 1.419 . S
C536 C537 1.363 . S
C536 H539 0.929 1_655 S
C537 C536 1.363 . S
C537 C543 1.428 . S
H538 C534 0.930 1_455 S
H539 C536 0.929 1_455 S
S540 N541 1.613 . S
S540 N542 1.610 . S
N541 S540 1.613 . S
N541 C544 1.350 . S
N542 S540 1.610 . S
N542 C543 1.351 . S
C543 C537 1.428 . S
C543 N542 1.351 . S
C543 C544 1.434 . S
C544 C535 1.429 . S
C544 N541 1.350 . S
C544 C543 1.434 . S
C545 C546 1.369 . S
C545 C547 1.419 . S
C545 H549 0.930 . S
C546 C545 1.369 . S
C546 C555 1.429 . S
C547 C545 1.419 . S
C547 C548 1.363 . S
C547 H550 0.929 . S
C548 C547 1.363 . S
C548 C554 1.428 . S
H549 C545 0.930 . S
H550 C547 0.929 . S
S551 N552 1.613 . S
S551 N553 1.610 . S
N552 S551 1.613 . S
N552 C555 1.350 . S
N553 S551 1.610 . S
N553 C554 1.351 . S
C554 C548 1.428 . S
C554 N553 1.351 . S
C554 C555 1.434 . S
C555 C546 1.429 . S
C555 N552 1.350 . S
C555 C554 1.434 . S
C556 C557 1.369 . S
C556 C558 1.419 . S
C556 H560 0.930 . S
C557 C556 1.369 . S
C557 C566 1.429 . S
C558 C556 1.419 . S
C558 C559 1.363 . S
C558 H561 0.929 . S
C559 C558 1.363 . S
C559 C565 1.428 . S
H560 C556 0.930 . S
H561 C558 0.929 . S
S562 N563 1.613 . S
S562 N564 1.610 . S
N563 S562 1.613 . S
N563 C566 1.350 1_545 S
N564 S562 1.610 . S
N564 C565 1.351 1_545 S
C565 C559 1.428 . S
C565 N564 1.351 1_565 S
C565 C566 1.434 . S
C566 C557 1.429 . S
C566 N563 1.350 1_565 S
C566 C565 1.434 . S
C567 C568 1.369 . S
C567 C569 1.419 . S
C567 H571 0.930 . S
C568 C567 1.369 . S
C568 C577 1.429 . S
C569 C567 1.419 . S
C569 C570 1.363 . S
C569 H572 0.929 . S
C570 C569 1.363 . S
C570 C576 1.428 . S
H571 C567 0.930 . S
H572 C569 0.929 . S
S573 N574 1.613 . S
S573 N575 1.610 . S
N574 S573 1.613 . S
N574 C577 1.350 1_655 S
N575 S573 1.610 . S
N575 C576 1.351 1_655 S
C576 C570 1.428 . S
C576 N575 1.351 1_455 S
C576 C577 1.434 . S
C577 C568 1.429 . S
C577 N574 1.350 1_455 S
C577 C576 1.434 . S
C578 C579 1.369 . S
C578 C580 1.419 . S
C578 H582 0.930 . S
C579 C578 1.369 . S
C579 C588 1.429 . S
C580 C578 1.419 . S
C580 C581 1.363 . S
C580 H583 0.929 . S
C581 C580 1.363 . S
C581 C587 1.428 . S
H582 C578 0.930 . S
H583 C580 0.929 . S
S584 N585 1.613 . S
S584 N586 1.610 . S
N585 S584 1.613 . S
N585 C588 1.350 1_565 S
N586 S584 1.610 . S
N586 C587 1.351 1_565 S
C587 C581 1.428 . S
C587 N586 1.351 1_545 S
C587 C588 1.434 . S
C588 C579 1.429 . S
C588 N585 1.350 1_545 S
C588 C587 1.434 . S
C589 C590 1.369 . S
C589 C591 1.419 . S
C589 H593 0.930 . S
C590 C589 1.369 . S
C590 C599 1.429 . S
C591 C589 1.419 . S
C591 C592 1.363 . S
C591 H594 0.929 . S
C592 C591 1.363 . S
C592 C598 1.428 . S
H593 C589 0.930 . S
H594 C591 0.929 . S
S595 N596 1.613 . S
S595 N597 1.610 . S
N596 S595 1.613 . S
N596 C599 1.350 . S
N597 S595 1.610 . S
N597 C598 1.351 . S
C598 C592 1.428 . S
C598 N597 1.351 . S
C598 C599 1.434 . S
C599 C590 1.429 . S
C599 N596 1.350 . S
C599 C598 1.434 . S
C600 C601 1.369 . S
C600 C602 1.419 . S
C600 H604 0.930 . S
C601 C600 1.369 . S
C601 C610 1.429 . S
C602 C600 1.419 . S
C602 C603 1.363 . S
C602 H605 0.929 . S
C603 C602 1.363 . S
C603 C609 1.428 . S
H604 C600 0.930 . S
H605 C602 0.929 . S
S606 N607 1.613 . S
S606 N608 1.610 . S
N607 S606 1.613 . S
N607 C610 1.350 . S
N608 S606 1.610 . S
N608 C609 1.351 . S
C609 C603 1.428 . S
C609 N608 1.351 . S
C609 C610 1.434 . S
C610 C601 1.429 . S
C610 N607 1.350 . S
C610 C609 1.434 . S
C611 C612 1.369 . S
C611 C613 1.419 . S
C611 H615 0.930 . S
C612 C611 1.369 . S
C612 C621 1.429 . S
C613 C611 1.419 . S
C613 C614 1.363 . S
C613 H616 0.929 . S
C614 C613 1.363 . S
C614 C620 1.428 . S
H615 C611 0.930 . S
H616 C613 0.929 . S
S617 N618 1.613 . S
S617 N619 1.610 . S
N618 S617 1.613 . S
N618 C621 1.350 . S
N619 S617 1.610 . S
N619 C620 1.351 . S
C620 C614 1.428 . S
C620 N619 1.351 . S
C620 C621 1.434 . S
C621 C612 1.429 . S
C621 N618 1.350 . S
C621 C620 1.434 . S
C622 C623 1.369 . S
C622 C624 1.419 . S
C622 H626 0.930 . S
C623 C622 1.369 . S
C623 C632 1.429 . S
C624 C622 1.419 . S
C624 C625 1.363 . S
C624 H627 0.929 . S
C625 C624 1.363 . S
C625 C631 1.428 . S
H626 C622 0.930 . S
H627 C624 0.929 . S
S628 N629 1.613 . S
S628 N630 1.610 . S
N629 S628 1.613 . S
N629 C632 1.350 . S
N630 S628 1.610 . S
N630 C631 1.351 . S
C631 C625 1.428 . S
C631 N630 1.351 . S
C631 C632 1.434 . S
C632 C623 1.429 . S
C632 N629 1.350 . S
C632 C631 1.434 . S
C633 C634 1.369 . S
C633 C635 1.419 . S
C633 H637 0.930 . S
C634 C633 1.369 . S
C634 C643 1.429 . S
C635 C633 1.419 . S
C635 C636 1.363 . S
C635 H638 0.929 . S
C636 C635 1.363 . S
C636 C642 1.428 . S
H637 C633 0.930 . S
H638 C635 0.929 . S
S639 N640 1.613 . S
S639 N641 1.610 . S
N640 S639 1.613 . S
N640 C643 1.350 . S
N641 S639 1.610 . S
N641 C642 1.351 . S
C642 C636 1.428 . S
C642 N641 1.351 . S
C642 C643 1.434 . S
C643 C634 1.429 . S
C643 N640 1.350 . S
C643 C642 1.434 . S
C644 C645 1.369 . S
C644 C646 1.419 . S
C644 H648 0.930 . S
C645 C644 1.369 . S
C645 C654 1.429 . S
C646 C644 1.419 . S
C646 C647 1.363 . S
C646 H649 0.929 . S
C647 C646 1.363 . S
C647 C653 1.428 . S
H648 C644 0.930 . S
H649 C646 0.929 . S
S650 N651 1.613 . S
S650 N652 1.610 . S
N651 S650 1.613 . S
N651 C654 1.350 . S
N652 S650 1.610 . S
N652 C653 1.351 . S
C653 C647 1.428 . S
C653 N652 1.351 . S
C653 C654 1.434 . S
C654 C645 1.429 . S
C654 N651 1.350 . S
C654 C653 1.434 . S
C655 C656 1.369 . S
C655 C657 1.419 . S
C655 H659 0.930 . S
C656 C655 1.369 . S
C656 C665 1.429 . S
C657 C655 1.419 . S
C657 C658 1.363 . S
C657 H660 0.929 . S
C658 C657 1.363 . S
C658 C664 1.428 . S
H659 C655 0.930 . S
H660 C657 0.929 . S
S661 N662 1.613 . S
S661 N663 1.610 . S
N662 S661 1.613 . S
N662 C665 1.350 . S
N663 S661 1.610 . S
N663 C664 1.351 . S
C664 C658 1.428 . S
C664 N663 1.351 . S
C664 C665 1.434 . S
C665 C656 1.429 . S
C665 N662 1.350 . S
C665 C664 1.434 . S
C666 C667 1.369 . S
C666 C668 1.419 . S
C666 H670 0.930 . S
C667 C666 1.369 . S
C667 C676 1.429 . S
C668 C666 1.419 . S
C668 C669 1.363 . S
C668 H671 0.929 . S
C669 C668 1.363 . S
C669 C675 1.428 . S
H670 C666 0.930 . S
H671 C668 0.929 . S
S672 N673 1.613 . S
S672 N674 1.610 . S
N673 S672 1.613 . S
N673 C676 1.350 . S
N674 S672 1.610 . S
N674 C675 1.351 . S
C675 C669 1.428 . S
C675 N674 1.351 . S
C675 C676 1.434 . S
C676 C667 1.429 . S
C676 N673 1.350 . S
C676 C675 1.434 . S
C677 C678 1.369 . S
C677 C679 1.419 . S
C677 H681 0.930 . S
C678 C677 1.369 . S
C678 C687 1.429 . S
C679 C677 1.419 . S
C679 C680 1.363 . S
C679 H682 0.929 . S
C680 C679 1.363 . S
C680 C686 1.428 . S
H681 C677 0.930 . S
H682 C679 0.929 . S
S683 N684 1.613 . S
S683 N685 1.610 . S
N684 S683 1.613 . S
N684 C687 1.350 . S
N685 S683 1.610 . S
N685 C686 1.351 . S
C686 C680 1.428 . S
C686 N685 1.351 . S
C686 C687 1.434 . S
C687 C678 1.429 . S
C687 N684 1.350 . S
C687 C686 1.434 . S
C425 C45 1.684 . S
C427 C119 1.692 . S
C436 C30 1.682 . S
C438 C159 1.705 . S
C447 C39 1.682 . S
C449 C199 1.704 . S
C460 C239 1.705 . S
C458 C34 1.682 . S
C469 C97 1.685 . S
C471 C279 1.691 . S
C482 C319 1.702 . S
C480 C82 1.686 . S
C493 C359 1.702 . S
C491 C91 1.684 . S
C504 C399 1.703 . S
C502 C86 1.685 . S
C515 C365 1.670 . S
C513 C26 1.551 . S
C526 C405 1.693 . S
C524 C36 1.574 . S
C537 C266 1.558 . S
C535 C32 1.548 . S
C548 C325 1.686 . S
C546 C42 1.580 . S
C557 C18 1.590 . S
C559 C306 1.750 . S
C570 C346 1.769 . S
C568 C50 1.614 . S
C579 C4 1.592 . S
C581 C386 1.746 . S
C590 C48 1.624 . S
C592 C285 1.653 . S
C603 C205 1.670 . S
C601 C78 1.549 . S
C612 C88 1.580 . S
C614 C245 1.689 . S
C625 C106 1.565 . S
C623 C84 1.539 . S
C636 C165 1.689 . S
C634 C94 1.577 . S
C647 C146 1.750 . S
C645 C70 1.589 . S
C658 C186 1.766 . S
C656 C102 1.623 . S
C667 C56 1.589 . S
C669 C226 1.746 . S
C678 C100 1.625 . S
C680 C125 1.653 . S
