# Generated by pormake.
# Topology pyr, (3,6)-cn, num edge types: 1
# Building blocks:
#     Node 0, Type 0, BuildingBlock: WUSLED_clean_sbu_0, # of connection points: 3
#     Node 1, Type 0, BuildingBlock: WUSLED_clean_sbu_0, # of connection points: 3
#     Node 2, Type 0, BuildingBlock: WUSLED_clean_sbu_0, # of connection points: 3
#     Node 3, Type 0, BuildingBlock: WUSLED_clean_sbu_0, # of connection points: 3
#     Node 4, Type 0, BuildingBlock: WUSLED_clean_sbu_0, # of connection points: 3
#     Node 5, Type 0, BuildingBlock: WUSLED_clean_sbu_0, # of connection points: 3
#     Node 6, Type 0, BuildingBlock: WUSLED_clean_sbu_0, # of connection points: 3
#     Node 7, Type 0, BuildingBlock: WUSLED_clean_sbu_0, # of connection points: 3
#     Node 8, Type 1, BuildingBlock: MIDCAF_clean_sbu_0, # of connection points: 6
#     Node 9, Type 1, BuildingBlock: MIDCAF_clean_sbu_0, # of connection points: 6
#     Node 10, Type 1, BuildingBlock: MIDCAF_clean_sbu_0, # of connection points: 6
#     Node 11, Type 1, BuildingBlock: MIDCAF_clean_sbu_0, # of connection points: 6
#     Edge 12, Type (0, 1), BuildingBlock: KIFKEQ_clean_linker_1, # of connection points: 2
#     Edge 13, Type (0, 1), BuildingBlock: KIFKEQ_clean_linker_1, # of connection points: 2
#     Edge 14, Type (0, 1), BuildingBlock: KIFKEQ_clean_linker_1, # of connection points: 2
#     Edge 15, Type (0, 1), BuildingBlock: KIFKEQ_clean_linker_1, # of connection points: 2
#     Edge 16, Type (0, 1), BuildingBlock: KIFKEQ_clean_linker_1, # of connection points: 2
#     Edge 17, Type (0, 1), BuildingBlock: KIFKEQ_clean_linker_1, # of connection points: 2
#     Edge 18, Type (0, 1), BuildingBlock: KIFKEQ_clean_linker_1, # of connection points: 2
#     Edge 19, Type (0, 1), BuildingBlock: KIFKEQ_clean_linker_1, # of connection points: 2
#     Edge 20, Type (0, 1), BuildingBlock: KIFKEQ_clean_linker_1, # of connection points: 2
#     Edge 21, Type (0, 1), BuildingBlock: KIFKEQ_clean_linker_1, # of connection points: 2
#     Edge 22, Type (0, 1), BuildingBlock: KIFKEQ_clean_linker_1, # of connection points: 2
#     Edge 23, Type (0, 1), BuildingBlock: KIFKEQ_clean_linker_1, # of connection points: 2
#     Edge 24, Type (0, 1), BuildingBlock: KIFKEQ_clean_linker_1, # of connection points: 2
#     Edge 25, Type (0, 1), BuildingBlock: KIFKEQ_clean_linker_1, # of connection points: 2
#     Edge 26, Type (0, 1), BuildingBlock: KIFKEQ_clean_linker_1, # of connection points: 2
#     Edge 27, Type (0, 1), BuildingBlock: KIFKEQ_clean_linker_1, # of connection points: 2
#     Edge 28, Type (0, 1), BuildingBlock: KIFKEQ_clean_linker_1, # of connection points: 2
#     Edge 29, Type (0, 1), BuildingBlock: KIFKEQ_clean_linker_1, # of connection points: 2
#     Edge 30, Type (0, 1), BuildingBlock: KIFKEQ_clean_linker_1, # of connection points: 2
#     Edge 31, Type (0, 1), BuildingBlock: KIFKEQ_clean_linker_1, # of connection points: 2
#     Edge 32, Type (0, 1), BuildingBlock: KIFKEQ_clean_linker_1, # of connection points: 2
#     Edge 33, Type (0, 1), BuildingBlock: KIFKEQ_clean_linker_1, # of connection points: 2
#     Edge 34, Type (0, 1), BuildingBlock: KIFKEQ_clean_linker_1, # of connection points: 2
#     Edge 35, Type (0, 1), BuildingBlock: KIFKEQ_clean_linker_1, # of connection points: 2
# Relax obj value: 0.020
# Max RMSD: 0.063
# Mean RMSD: 0.028
data_MOF--net-pry--node1-WUSLED_clean_sbu_0--node2-MIDCAF_clean_sbu_0--edge1-KIFKEQ_clean_linker_1
_symmetry_space_group_name_H-M    P1
_symmetry_Int_Tables_number       1
_symmetry_cell_setting            triclinic
loop_
_symmetry_equiv_pos_as_xyz
'x, y, z'
_cell_length_a     46.837956
_cell_length_b     46.955046
_cell_length_c     47.038395
_cell_angle_alpha  89.624127
_cell_angle_beta   90.358351
_cell_angle_gamma 90.64167
loop_
_atom_site_label
_atom_site_type_symbol
_atom_site_fract_x
_atom_site_fract_y
_atom_site_fract_z
_atom_type_partial_charge
C0 C 0.21697 0.29446 0.17777 0.0
C1 C 0.18906 0.29073 0.16715 0.0
C2 C 0.18518 0.34179 0.15787 0.0
C3 C 0.17343 0.31405 0.15728 0.0
C4 C 0.21313 0.34548 0.16852 0.0
C5 C 0.22884 0.32208 0.17826 0.0
U6 U 0.23173 0.23087 0.22766 0.0
O7 O 0.24566 0.18751 0.2178 0.0
O8 O 0.27246 0.21484 0.24484 0.0
C9 C 0.27018 0.19054 0.23122 0.0
C10 C 0.23431 0.26983 0.18732 0.0
C11 C 0.29548 0.18166 0.21521 0.0
C12 C 0.32604 0.18512 0.17372 0.0
C13 C 0.30307 0.19512 0.18961 0.0
C14 C 0.33451 0.1485 0.20919 0.0
C15 C 0.34185 0.16143 0.18312 0.0
C16 C 0.31152 0.15851 0.22502 0.0
C17 C 0.17865 0.21487 0.28823 0.0
C18 C 0.18617 0.18185 0.32757 0.0
C19 C 0.13872 0.19937 0.31751 0.0
C20 C 0.14954 0.21552 0.29485 0.0
C21 C 0.15684 0.18222 0.33419 0.0
C22 C 0.19695 0.19794 0.30475 0.0
C23 C 0.18921 0.23183 0.26389 0.0
O24 O 0.24755 0.2725 0.21192 0.0
O25 O 0.22295 0.24436 0.18368 0.0
O26 O 0.1875 0.21936 0.23901 0.0
O27 O 0.21336 0.24587 0.26776 0.0
H28 H 0.17926 0.26975 0.16619 0.0
H29 H 0.15223 0.31019 0.14875 0.0
H30 H 0.22281 0.36649 0.16963 0.0
H31 H 0.25037 0.32558 0.18615 0.0
H32 H 0.33134 0.19586 0.15398 0.0
H33 H 0.29096 0.21307 0.18171 0.0
H34 H 0.34595 0.13007 0.21694 0.0
H35 H 0.30589 0.14778 0.2447 0.0
H36 H 0.20087 0.16921 0.34008 0.0
H37 H 0.11599 0.19986 0.32151 0.0
H38 H 0.13506 0.22838 0.28227 0.0
H39 H 0.21952 0.1971 0.29997 0.0
C40 C 0.261 0.83652 0.68111 0.0
C41 C 0.24823 0.85682 0.69863 0.0
C42 C 0.21704 0.87154 0.65952 0.0
C43 C 0.2263 0.87411 0.68794 0.0
C44 C 0.22971 0.85085 0.64231 0.0
C45 C 0.25142 0.83356 0.65301 0.0
U46 U 0.323 0.81833 0.73229 0.0
O47 O 0.33695 0.77627 0.74796 0.0
O48 O 0.36581 0.80281 0.72216 0.0
C49 C 0.36156 0.77807 0.73477 0.0
C50 C 0.28469 0.81856 0.69118 0.0
C51 C 0.3704 0.75279 0.7187 0.0
C52 C 0.37465 0.72644 0.6745 0.0
C53 C 0.36335 0.74921 0.68986 0.0
C54 C 0.39917 0.71009 0.71694 0.0
C55 C 0.39327 0.70699 0.68773 0.0
C56 C 0.38788 0.73275 0.7322 0.0
C57 C 0.34123 0.86755 0.79517 0.0
C58 C 0.38522 0.86562 0.82291 0.0
C59 C 0.34814 0.89854 0.83591 0.0
C60 C 0.33123 0.88872 0.81331 0.0
C61 C 0.37552 0.88738 0.84085 0.0
C62 C 0.36821 0.85578 0.8003 0.0
C63 C 0.32372 0.85908 0.7704 0.0
O64 O 0.31038 0.82975 0.68856 0.0
O65 O 0.28093 0.80512 0.71551 0.0
O66 O 0.30853 0.83553 0.77321 0.0
O67 O 0.33632 0.86127 0.74559 0.0
H68 H 0.25542 0.8595 0.72039 0.0
H69 H 0.21714 0.88998 0.70167 0.0
H70 H 0.22284 0.848 0.62048 0.0
H71 H 0.26094 0.81797 0.63918 0.0
H72 H 0.36981 0.7248 0.65203 0.0
H73 H 0.34984 0.76446 0.67904 0.0
H74 H 0.41303 0.69528 0.72792 0.0
H75 H 0.39348 0.73507 0.75446 0.0
H76 H 0.40604 0.85632 0.82625 0.0
H77 H 0.3401 0.91557 0.84893 0.0
H78 H 0.31051 0.89815 0.80963 0.0
H79 H 0.37628 0.83932 0.78656 0.0
C80 C 0.68862 0.33608 0.75313 0.0
C81 C 0.70401 0.36021 0.744 0.0
C82 C 0.66824 0.36939 0.70711 0.0
C83 C 0.69394 0.37669 0.7212 0.0
C84 C 0.65317 0.3449 0.71619 0.0
C85 C 0.66327 0.32845 0.73898 0.0
U86 U 0.74054 0.32174 0.8148 0.0
O87 O 0.73172 0.30838 0.85878 0.0
O88 O 0.75697 0.28097 0.83125 0.0
C89 C 0.74419 0.28364 0.85588 0.0
C90 C 0.69831 0.31908 0.77773 0.0
C91 C 0.72751 0.25875 0.86581 0.0
C92 C 0.68427 0.22961 0.8651 0.0
C93 C 0.70069 0.25214 0.85399 0.0
C94 C 0.72165 0.21955 0.89942 0.0
C95 C 0.69436 0.21328 0.88825 0.0
C96 C 0.73801 0.24209 0.88831 0.0
C97 C 0.80386 0.3732 0.82719 0.0
C98 C 0.83659 0.36965 0.86738 0.0
C99 C 0.84195 0.40828 0.83338 0.0
C100 C 0.81854 0.3977 0.81795 0.0
C101 C 0.85117 0.39454 0.85844 0.0
C102 C 0.81312 0.35911 0.85191 0.0
C103 C 0.77851 0.36331 0.81123 0.0
O104 O 0.72254 0.30564 0.77454 0.0
O105 O 0.69631 0.33159 0.80254 0.0
O106 O 0.75405 0.36564 0.8245 0.0
O107 O 0.78099 0.33899 0.79784 0.0
H108 H 0.72368 0.3664 0.75464 0.0
H109 H 0.70632 0.39515 0.71457 0.0
H110 H 0.63317 0.33881 0.70615 0.0
H111 H 0.65106 0.30992 0.74581 0.0
H112 H 0.66354 0.22516 0.85573 0.0
H113 H 0.69227 0.26471 0.83652 0.0
H114 H 0.72997 0.2077 0.91742 0.0
H115 H 0.75865 0.24694 0.89775 0.0
H116 H 0.84286 0.35871 0.88673 0.0
H117 H 0.85285 0.42722 0.82565 0.0
H118 H 0.81172 0.40884 0.79888 0.0
H119 H 0.80195 0.3402 0.85943 0.0
C120 C 0.76045 0.67902 0.32385 0.0
C121 C 0.76338 0.67303 0.35302 0.0
C122 C 0.71326 0.65846 0.35572 0.0
C123 C 0.74015 0.66273 0.36869 0.0
C124 C 0.7104 0.66448 0.32648 0.0
C125 C 0.73377 0.67457 0.31073 0.0
U126 U 0.82267 0.73109 0.31104 0.0
O127 O 0.86678 0.72307 0.29778 0.0
O128 O 0.83915 0.74987 0.27127 0.0
C129 C 0.86373 0.73675 0.27351 0.0
C130 C 0.78498 0.68944 0.30681 0.0
C131 C 0.87286 0.721 0.24824 0.0
C132 C 0.86669 0.68188 0.2151 0.0
C133 C 0.85691 0.69767 0.23816 0.0
C134 C 0.90825 0.71285 0.21165 0.0
C135 C 0.89267 0.68906 0.20174 0.0
C136 C 0.89843 0.72863 0.2347 0.0
C137 C 0.83448 0.79081 0.36618 0.0
C138 C 0.87532 0.82323 0.36758 0.0
C139 C 0.83816 0.8268 0.40292 0.0
C140 C 0.82334 0.80425 0.39011 0.0
C141 C 0.8645 0.83639 0.39205 0.0
C142 C 0.86044 0.80057 0.35477 0.0
C143 C 0.81905 0.76611 0.35425 0.0
O144 O 0.78179 0.71426 0.29415 0.0
O145 O 0.81043 0.68635 0.31832 0.0
O146 O 0.83256 0.74175 0.35549 0.0
O147 O 0.80584 0.77029 0.32987 0.0
H148 H 0.78365 0.67615 0.36382 0.0
H149 H 0.74344 0.65783 0.39098 0.0
H150 H 0.69002 0.66179 0.3158 0.0
H151 H 0.73098 0.679 0.28826 0.0
H152 H 0.85393 0.66396 0.20782 0.0
H153 H 0.8371 0.69147 0.24836 0.0
H154 H 0.92848 0.71879 0.20215 0.0
H155 H 0.91109 0.7465 0.2423 0.0
H156 H 0.89567 0.82989 0.35882 0.0
H157 H 0.829 0.83668 0.42145 0.0
H158 H 0.80327 0.79704 0.39915 0.0
H159 H 0.86938 0.79038 0.3363 0.0
C160 C 0.88893 0.82341 0.93841 0.0
C161 C 0.90728 0.80729 0.92161 0.0
C162 C 0.91622 0.775 0.96151 0.0
C163 C 0.9207 0.78327 0.933 0.0
C164 C 0.8977 0.79125 0.97819 0.0
C165 C 0.88419 0.81522 0.96671 0.0
U166 U 0.88279 0.88277 0.88276 0.0
O167 O 0.8448 0.90081 0.86199 0.0
O168 O 0.87261 0.9281 0.88808 0.0
C169 C 0.84849 0.92589 0.8738 0.0
C170 C 0.87481 0.84885 0.92675 0.0
C171 C 0.82328 0.93768 0.8879 0.0
C172 C 0.78445 0.93344 0.92174 0.0
C173 C 0.80835 0.92191 0.90853 0.0
C174 C 0.79025 0.97672 0.89398 0.0
C175 C 0.77509 0.96105 0.9147 0.0
C176 C 0.8141 0.96512 0.88073 0.0
C177 C 0.93726 0.88649 0.82185 0.0
C178 C 0.93142 0.91006 0.77599 0.0
C179 C 0.97872 0.8978 0.79278 0.0
C180 C 0.96687 0.88623 0.8176 0.0
C181 C 0.96112 0.90971 0.77159 0.0
C182 C 0.9196 0.89867 0.80092 0.0
C183 C 0.92535 0.87356 0.84796 0.0
O184 O 0.88982 0.87263 0.92805 0.0
O185 O 0.86168 0.84544 0.9022 0.0
O186 O 0.90018 0.86109 0.84549 0.0
O187 O 0.92802 0.88879 0.87119 0.0
H188 H 0.91122 0.81328 0.89969 0.0
H189 H 0.93444 0.77107 0.91936 0.0
H190 H 0.89402 0.78578 1.00027 0.0
H191 H 0.87017 0.82749 0.98003 0.0
H192 H 0.77311 0.92056 0.93726 0.0
H193 H 0.81514 0.90065 0.91435 0.0
H194 H 0.78395 0.99815 0.8883 0.0
H195 H 0.82546 0.97766 0.86493 0.0
H196 H 0.91732 0.91947 0.76029 0.0
H197 H 1.00163 0.89701 0.78998 0.0
H198 H 0.98086 0.8769 0.83347 0.0
H199 H 0.89669 0.89934 0.80381 0.0
C200 C 0.6174 0.17365 0.31858 0.0
C201 C 0.61611 0.14391 0.31572 0.0
C202 C 0.5916 0.14876 0.27004 0.0
C203 C 0.60324 0.1316 0.29177 0.0
C204 C 0.59336 0.17854 0.27277 0.0
C205 C 0.60603 0.19084 0.29687 0.0
U206 U 0.67265 0.17755 0.37926 0.0
O207 O 0.69447 0.21465 0.39813 0.0
O208 O 0.66654 0.18771 0.42451 0.0
C209 C 0.68192 0.21124 0.42287 0.0
C210 C 0.62984 0.18713 0.3442 0.0
C211 C 0.66913 0.23685 0.43545 0.0
C212 C 0.647 0.28334 0.43103 0.0
C213 C 0.65828 0.25899 0.41846 0.0
C214 C 0.65679 0.26358 0.47772 0.0
C215 C 0.64613 0.28594 0.46083 0.0
C216 C 0.66824 0.23935 0.46514 0.0
C217 C 0.73176 0.1212 0.38439 0.0
C218 C 0.75697 0.10251 0.42581 0.0
C219 C 0.77922 0.10118 0.37953 0.0
C220 C 0.75511 0.11393 0.36745 0.0
C221 C 0.7804 0.09519 0.40885 0.0
C222 C 0.73295 0.11548 0.41375 0.0
C223 C 0.70633 0.13404 0.3708 0.0
O224 O 0.62723 0.1727 0.36812 0.0
O225 O 0.6552 0.19899 0.34115 0.0
O226 O 0.71033 0.15909 0.35875 0.0
O227 O 0.68218 0.13209 0.38485 0.0
H228 H 0.62494 0.13015 0.33206 0.0
H229 H 0.60267 0.1086 0.2901 0.0
H230 H 0.58449 0.19234 0.25651 0.0
H231 H 0.60677 0.21383 0.29865 0.0
H232 H 0.63858 0.29997 0.41742 0.0
H233 H 0.65853 0.25749 0.39549 0.0
H234 H 0.65663 0.26499 0.50069 0.0
H235 H 0.67656 0.22256 0.47864 0.0
H236 H 0.75737 0.09856 0.44852 0.0
H237 H 0.79678 0.09562 0.36584 0.0
H238 H 0.75464 0.11801 0.34475 0.0
H239 H 0.71534 0.12098 0.4274 0.0
C240 C 0.32688 0.61477 0.16491 0.0
C241 C 0.30471 0.63181 0.15431 0.0
C242 C 0.27694 0.58939 0.14179 0.0
C243 C 0.27994 0.61923 0.14298 0.0
C244 C 0.29934 0.57244 0.15212 0.0
C245 C 0.324 0.58503 0.16366 0.0
U246 U 0.38681 0.67146 0.1688 0.0
O247 O 0.40559 0.69295 0.20595 0.0
O248 O 0.43239 0.66603 0.17934 0.0
C249 C 0.43048 0.68064 0.20298 0.0
C250 C 0.35286 0.62742 0.17784 0.0
C251 C 0.44274 0.66709 0.22871 0.0
C252 C 0.48454 0.65064 0.25482 0.0
C253 C 0.47232 0.66292 0.23048 0.0
C254 C 0.43773 0.64665 0.27613 0.0
C255 C 0.46739 0.64252 0.278 0.0
C256 C 0.4255 0.65869 0.2517 0.0
C257 C 0.39021 0.73238 0.11412 0.0
C258 C 0.41729 0.77645 0.12015 0.0
C259 C 0.39851 0.76397 0.07373 0.0
C260 C 0.3868 0.73886 0.08516 0.0
C261 C 0.41373 0.78317 0.09113 0.0
C262 C 0.40574 0.75124 0.13152 0.0
C263 C 0.3771 0.70614 0.1258 0.0
O264 O 0.37624 0.62601 0.16264 0.0
O265 O 0.34983 0.65213 0.19041 0.0
O266 O 0.3648 0.70856 0.15071 0.0
O267 O 0.39232 0.68292 0.1236 0.0
H268 H 0.30649 0.65482 0.15482 0.0
H269 H 0.26327 0.63288 0.13478 0.0
H270 H 0.29763 0.54943 0.15166 0.0
H271 H 0.34083 0.5715 0.17176 0.0
H272 H 0.50745 0.64788 0.25566 0.0
H273 H 0.48604 0.66928 0.21304 0.0
H274 H 0.42389 0.6402 0.29343 0.0
H275 H 0.40258 0.66143 0.25086 0.0
H276 H 0.42927 0.79056 0.13404 0.0
H277 H 0.3952 0.76859 0.05137 0.0
H278 H 0.37489 0.72457 0.07139 0.0
H279 H 0.40884 0.74654 0.1539 0.0
C280 C 0.13505 0.31432 0.64552 0.0
C281 C 0.1408 0.31585 0.61625 0.0
C282 C 0.12634 0.26611 0.61076 0.0
C283 C 0.13634 0.29197 0.59899 0.0
C284 C 0.12116 0.26464 0.64017 0.0
C285 C 0.12544 0.28851 0.65732 0.0
U286 U 0.17205 0.38427 0.66746 0.0
O287 O 0.15373 0.42385 0.68366 0.0
O288 O 0.1835 0.39944 0.71032 0.0
C289 C 0.16551 0.4207 0.70893 0.0
C290 C 0.13844 0.33928 0.66414 0.0
C291 C 0.14661 0.42395 0.7337 0.0
C292 C 0.09942 0.42513 0.75515 0.0
C293 C 0.11681 0.42042 0.73154 0.0
C294 C 0.14138 0.43604 0.78356 0.0
C295 C 0.11151 0.43317 0.7814 0.0
C296 C 0.15869 0.43155 0.75995 0.0
C297 C 0.23541 0.41257 0.6234 0.0
C298 C 0.26602 0.45262 0.63664 0.0
C299 C 0.27275 0.42901 0.59157 0.0
C300 C 0.25017 0.41038 0.59776 0.0
C301 C 0.28105 0.45035 0.61092 0.0
C302 C 0.24331 0.43388 0.64281 0.0
C303 C 0.2124 0.3919 0.62955 0.0
O304 O 0.16182 0.33998 0.67972 0.0
O305 O 0.132 0.36413 0.65291 0.0
O306 O 0.18622 0.40112 0.62602 0.0
O307 O 0.2157 0.37651 0.65275 0.0
H308 H 0.14847 0.33554 0.60672 0.0
H309 H 0.14071 0.29372 0.57646 0.0
H310 H 0.11302 0.24523 0.64986 0.0
H311 H 0.12087 0.28691 0.67984 0.0
H312 H 0.07652 0.42255 0.75286 0.0
H313 H 0.10692 0.41436 0.71157 0.0
H314 H 0.15137 0.44264 0.80331 0.0
H315 H 0.18159 0.43447 0.7621 0.0
H316 H 0.27172 0.4689 0.65192 0.0
H317 H 0.28414 0.42622 0.57184 0.0
H318 H 0.24445 0.39396 0.5826 0.0
H319 H 0.23206 0.43588 0.66275 0.0
Zn320 Zn 0.99223 0.05664 0.55831 0.0
Zn321 Zn 0.05242 0.99395 0.49797 0.0
Zn322 Zn 0.02373 0.02531 0.52604 0.0
C323 C 0.06341 0.04701 0.47566 0.0
C324 C 0.99802 0.97527 0.4887 0.0
O325 O 0.02558 1.00774 0.57048 0.0
O326 O 0.99658 0.03553 0.59451 0.0
C327 C 0.03592 0.09195 0.53699 0.0
O328 O 0.05301 0.0533 0.50018 0.0
O329 O 0.06217 0.02149 0.46742 0.0
O330 O 0.02252 0.96445 0.4904 0.0
O331 O 0.99419 1.00084 0.49765 0.0
O332 O 0.01467 0.09214 0.55335 0.0
O333 O 0.04249 0.06905 0.52359 0.0
O334 O 0.97908 0.02427 0.50845 0.0
O335 O 0.9558 0.05288 0.53722 0.0
C336 C 0.95602 0.03726 0.5155 0.0
O337 O 0.04837 0.99647 0.55543 0.0
O338 O 0.08287 0.98535 0.526 0.0
C339 C 0.01284 0.01431 0.5938 0.0
C340 C 0.07315 0.98568 0.55091 0.0
Zn341 Zn 0.50246 0.06262 0.99612 0.0
Zn342 Zn 0.56165 0.99655 0.05995 0.0
Zn343 Zn 0.53052 0.02969 0.02737 0.0
C344 C 0.59832 0.0167 0.01829 0.0
C345 C 0.51746 0.96247 0.03811 0.0
O346 O 0.50671 0.05938 0.05555 0.0
O347 O 0.47607 0.07775 0.02483 0.0
C348 C 0.55817 0.07774 0.98642 0.0
O349 O 0.57537 0.02998 0.01092 0.0
O350 O 0.59837 1.0005 0.03979 0.0
O351 O 0.53891 0.96117 0.05443 0.0
O352 O 0.51125 0.98601 0.02527 0.0
O353 O 0.53373 0.08857 0.98455 0.0
O354 O 0.5613 0.05345 0.99902 0.0
O355 O 0.50031 1.0023 1.00229 0.0
O356 O 0.48892 0.03328 0.96869 0.0
C357 C 0.48849 1.00803 0.97808 0.0
O358 O 0.52844 0.04674 0.07166 0.0
O359 O 0.55691 0.0179 0.09569 0.0
C360 C 0.48472 0.07492 0.05016 0.0
C361 C 0.54104 0.03946 0.09507 0.0
Zn362 Zn 0.56766 0.56092 0.54982 0.0
Zn363 Zn 0.49636 0.49438 0.49338 0.0
Zn364 Zn 0.53089 0.52819 0.52342 0.0
C365 C 0.5397 0.45987 0.51459 0.0
C366 C 0.51631 0.5355 0.45551 0.0
O367 O 0.5053 0.55318 0.55477 0.0
O368 O 0.53876 0.58256 0.57084 0.0
C369 C 0.58239 0.5053 0.56422 0.0
O370 O 0.54748 0.48377 0.52585 0.0
O371 O 0.51737 0.45848 0.49946 0.0
O372 O 0.49996 0.51395 0.45608 0.0
O373 O 0.52983 0.54327 0.47824 0.0
O374 O 0.5894 0.53069 0.56992 0.0
O375 O 0.56188 0.50028 0.54642 0.0
O376 O 0.55264 0.55699 0.49197 0.0
O377 O 0.58514 0.58067 0.517 0.0
C378 C 0.57349 0.57515 0.4934 0.0
O379 O 0.48783 0.53147 0.54267 0.0
O380 O 0.46206 0.50147 0.51651 0.0
C381 C 0.51287 0.5748 0.57002 0.0
C382 C 0.46398 0.5187 0.53692 0.0
Zn383 Zn 0.06564 0.56436 0.99205 0.0
Zn384 Zn 0.99819 0.49756 0.05482 0.0
Zn385 Zn 0.03193 0.53098 0.02299 0.0
C386 C 0.05442 0.48844 0.07328 0.0
C387 C 0.98991 0.48117 0.99796 0.0
O388 O 0.01551 0.5754 0.02491 0.0
O389 O 0.04599 0.60072 0.99905 0.0
C390 C 0.10025 0.54049 0.03399 0.0
O391 O 0.05937 0.50739 0.05387 0.0
O392 O 0.0291 0.48049 0.07841 0.0
O393 O 0.98164 0.47515 0.02282 0.0
O394 O 1.00899 0.50085 0.99403 0.0
O395 O 0.10178 0.55687 0.01265 0.0
O396 O 0.07617 0.52873 0.04078 0.0
O397 O 0.0307 0.51501 0.97853 0.0
O398 O 0.05896 0.54508 0.95527 0.0
C399 C 0.04294 0.52328 0.95535 0.0
O400 O 1.00107 0.55871 0.04539 0.0
O401 O 0.97514 0.52867 0.07119 0.0
C402 C 0.02374 0.5994 0.01401 0.0
C403 C 0.98102 0.55389 0.06355 0.0
H404 H 0.1138 0.19477 0.37164 0.0
H405 H 0.17273 0.12829 0.34997 0.0
H406 H 0.09165 0.16336 0.4068 0.0
H407 H 0.15187 0.09768 0.38623 0.0
H408 H 0.08667 0.03754 0.42382 0.0
H409 H 0.10953 0.07097 0.39189 0.0
H410 H 0.09562 0.13885 0.45165 0.0
H411 H 0.07113 0.10514 0.48323 0.0
C412 C 0.12219 0.17354 0.37445 0.0
C413 C 0.14493 0.16406 0.3576 0.0
C414 C 0.10971 0.15563 0.39496 0.0
C415 C 0.1197 0.12779 0.39926 0.0
C416 C 0.14315 0.11875 0.38318 0.0
C417 C 0.15546 0.13653 0.36258 0.0
C418 C 0.08841 0.05956 0.43039 0.0
C419 C 0.07731 0.06847 0.45659 0.0
C420 C 0.10187 0.0788 0.41203 0.0
C421 C 0.10501 0.10764 0.41926 0.0
C422 C 0.09362 0.11679 0.44529 0.0
C423 C 0.07981 0.09742 0.46365 0.0
H424 H 0.43297 0.89891 0.83844 0.0
H425 H 0.36071 0.90392 0.89473 0.0
H426 H 0.4627 0.92323 0.87357 0.0
H427 H 0.39027 0.92921 0.92947 0.0
H428 H 0.45594 0.96156 0.9942 0.0
H429 H 0.43104 0.92756 0.96302 0.0
H430 H 0.46479 0.97213 0.88972 0.0
H431 H 0.49 1.00514 0.92082 0.0
C432 C 0.42348 0.90479 0.85847 0.0
C433 C 0.39432 0.89962 0.86358 0.0
C434 C 0.44049 0.91903 0.87852 0.0
C435 C 0.42884 0.92849 0.90426 0.0
C436 C 0.40002 0.92213 0.90997 0.0
C437 C 0.38297 0.90792 0.88987 0.0
C438 C 0.45868 0.96338 0.97151 0.0
C439 C 0.47522 0.98568 0.96003 0.0
C440 C 0.44409 0.94425 0.95358 0.0
C441 C 0.44596 0.94702 0.92379 0.0
C442 C 0.46317 0.96898 0.91248 0.0
C443 C 0.47747 0.98808 0.93034 0.0
H444 H 0.66814 0.42758 0.70419 0.0
H445 H 0.64186 0.3529 0.65723 0.0
H446 H 0.64887 0.45783 0.66682 0.0
H447 H 0.6224 0.38339 0.61962 0.0
H448 H 0.56177 0.45182 0.57782 0.0
H449 H 0.58362 0.41719 0.61022 0.0
H450 H 0.65782 0.47206 0.61845 0.0
H451 H 0.63593 0.50655 0.58656 0.0
C452 C 0.65862 0.41756 0.68569 0.0
C453 C 0.65677 0.38774 0.68373 0.0
C454 C 0.64752 0.43496 0.66418 0.0
C455 C 0.63426 0.42309 0.64 0.0
C456 C 0.63227 0.39325 0.63802 0.0
C457 C 0.64342 0.37579 0.65961 0.0
C458 C 0.58302 0.45611 0.58604 0.0
C459 C 0.59705 0.48199 0.57973 0.0
C460 C 0.59554 0.43631 0.60469 0.0
C461 C 0.62229 0.44207 0.61741 0.0
C462 C 0.6369 0.46723 0.60968 0.0
C463 C 0.62442 0.48694 0.59121 0.0
H464 H 0.89168 0.631 0.19831 0.0
H465 H 0.91998 0.7062 0.15268 0.0
H466 H 0.91119 0.60119 0.1614 0.0
H467 H 0.93965 0.67613 0.11546 0.0
H468 H 1.00115 0.60739 0.0768 0.0
H469 H 0.97827 0.64216 0.10755 0.0
H470 H 0.90354 0.58763 0.11283 0.0
H471 H 0.92655 0.55294 0.08264 0.0
C472 C 0.90166 0.64123 0.18015 0.0
C473 C 0.90405 0.67105 0.17846 0.0
C474 C 0.91288 0.62409 0.1589 0.0
C475 C 0.92681 0.63622 0.13524 0.0
C476 C 0.92925 0.66606 0.13346 0.0
C477 C 0.91798 0.68328 0.15482 0.0
C478 C 0.97955 0.60326 0.08393 0.0
C479 C 0.96568 0.57741 0.0774 0.0
C480 C 0.96644 0.62313 0.10164 0.0
C481 C 0.93925 0.61745 0.11315 0.0
C482 C 0.92478 0.59238 0.105 0.0
C483 C 0.93788 0.57258 0.08751 0.0
H484 H 0.34174 0.15457 0.12553 0.0
H485 H 0.39416 0.14066 0.20008 0.0
H486 H 0.37875 0.1348 0.09592 0.0
H487 H 0.43156 0.12078 0.1702 0.0
H488 H 0.47561 0.05803 0.10574 0.0
H489 H 0.44286 0.07977 0.13971 0.0
H490 H 0.42545 0.1469 0.07899 0.0
H491 H 0.45739 0.12503 0.0453 0.0
C492 C 0.36136 0.14768 0.1356 0.0
C493 C 0.36501 0.14953 0.1652 0.0
C494 C 0.38266 0.13628 0.11858 0.0
C495 C 0.40837 0.12646 0.13059 0.0
C496 C 0.41199 0.12798 0.16025 0.0
C497 C 0.39055 0.1394 0.17736 0.0
C498 C 0.46516 0.07772 0.09999 0.0
C499 C 0.46886 0.08969 0.07279 0.0
C500 C 0.44636 0.09017 0.11939 0.0
C501 C 0.431 0.11479 0.11186 0.0
C502 C 0.4362 0.12752 0.08525 0.0
C503 C 0.4547 0.11507 0.06597 0.0
H504 H 0.16625 0.88849 0.68311 0.0
H505 H 0.21811 0.8984 0.60805 0.0
H506 H 0.12993 0.91939 0.66159 0.0
H507 H 0.18195 0.92841 0.58652 0.0
H508 H 0.12775 1.00028 0.56163 0.0
H509 H 0.16185 0.9754 0.59187 0.0
H510 H 0.09458 0.91887 0.62092 0.0
H511 H 0.0603 0.94431 0.59057 0.0
C512 C 0.16997 0.89737 0.66213 0.0
C513 C 0.19504 0.89088 0.64725 0.0
C514 C 0.14909 0.91487 0.64974 0.0
C515 C 0.15307 0.92655 0.6224 0.0
C516 C 0.17831 0.9202 0.60777 0.0
C517 C 0.19895 0.90267 0.62 0.0
C518 C 0.12012 0.98302 0.57508 0.0
C519 C 0.09137 0.97436 0.57401 0.0
C520 C 0.13968 0.96859 0.59222 0.0
C521 C 0.13109 0.94478 0.60844 0.0
C522 C 0.10188 0.93722 0.60881 0.0
C523 C 0.08216 0.95188 0.59164 0.0
H524 H 0.89452 0.36589 0.8854 0.0
H525 H 0.86247 0.4506 0.87045 0.0
H526 H 0.93241 0.38559 0.91548 0.0
H527 H 0.9002 0.47026 0.90054 0.0
H528 H 0.98062 0.50133 0.94373 0.0
H529 H 0.95101 0.47937 0.90666 0.0
H530 H 0.93555 0.40688 0.96173 0.0
H531 H 0.9658 0.42833 0.99808 0.0
C532 C 0.89553 0.38871 0.88853 0.0
C533 C 0.8753 0.40661 0.87559 0.0
C534 C 0.91731 0.40003 0.90574 0.0
C535 C 0.9194 0.42955 0.91054 0.0
C536 C 0.89961 0.4475 0.89698 0.0
C537 C 0.87787 0.43618 0.87975 0.0
C538 C 0.97163 0.48032 0.9475 0.0
C539 C 0.97574 0.46649 0.97376 0.0
C540 C 0.9543 0.46789 0.92644 0.0
C541 C 0.94066 0.4414 0.93123 0.0
C542 C 0.94588 0.42711 0.95707 0.0
C543 C 0.96312 0.43951 0.97804 0.0
H544 H 0.70003 0.67202 0.41053 0.0
H545 H 0.67002 0.62126 0.33988 0.0
H546 H 0.66212 0.65288 0.43979 0.0
H547 H 0.63046 0.60347 0.36881 0.0
H548 H 0.58952 0.55043 0.4436 0.0
H549 H 0.62009 0.57207 0.40716 0.0
H550 H 0.61368 0.65339 0.4492 0.0
H551 H 0.58487 0.63117 0.48624 0.0
C552 C 0.68524 0.65685 0.40112 0.0
C553 C 0.68845 0.64801 0.37285 0.0
C554 C 0.66299 0.64621 0.41783 0.0
C555 C 0.64284 0.62669 0.40674 0.0
C556 C 0.64562 0.61826 0.37823 0.0
C557 C 0.66816 0.62875 0.3615 0.0
C558 C 0.59423 0.57304 0.44454 0.0
C559 C 0.58524 0.58912 0.4678 0.0
C560 C 0.61174 0.58553 0.42367 0.0
C561 C 0.62015 0.61441 0.42557 0.0
C562 C 0.60866 0.63089 0.44752 0.0
C563 C 0.59182 0.6183 0.4686 0.0
H564 H 0.12792 0.3509 0.16424 0.0
H565 H 0.2038 0.38911 0.12789 0.0
H566 H 0.09955 0.38949 0.14528 0.0
H567 H 0.17549 0.42894 0.11027 0.0
H568 H 0.10685 0.47367 0.05276 0.0
H569 H 0.14069 0.44085 0.07489 0.0
H570 H 0.08861 0.43768 0.15044 0.0
H571 H 0.05448 0.46938 0.12779 0.0
C572 C 0.13864 0.36759 0.15228 0.0
C573 C 0.16821 0.3666 0.14747 0.0
C574 C 0.12237 0.39013 0.14176 0.0
C575 C 0.13515 0.41264 0.12634 0.0
C576 C 0.16482 0.41193 0.12184 0.0
C577 C 0.18113 0.3892 0.13227 0.0
C578 C 0.10307 0.46641 0.07433 0.0
C579 C 0.07793 0.47386 0.08847 0.0
C580 C 0.12245 0.44756 0.08707 0.0
C581 C 0.11714 0.43597 0.11429 0.0
C582 C 0.09302 0.44532 0.12913 0.0
C583 C 0.07355 0.46376 0.11628 0.0
H584 H 0.63722 0.21602 0.89891 0.0
H585 H 0.70947 0.16035 0.90879 0.0
H586 H 0.6071 0.18133 0.92328 0.0
H587 H 0.67922 0.12574 0.93411 0.0
H588 H 0.60164 0.06102 0.95121 0.0
H589 H 0.63682 0.09225 0.92758 0.0
H590 H 0.60299 0.16437 0.97229 0.0
H591 H 0.56836 0.13328 0.99563 0.0
C592 C 0.64667 0.19624 0.90603 0.0
C593 C 0.67583 0.19106 0.90186 0.0
C594 C 0.62944 0.17647 0.92037 0.0
C595 C 0.64083 0.1509 0.93102 0.0
C596 C 0.6698 0.14522 0.92619 0.0
C597 C 0.68715 0.16516 0.91189 0.0
C598 C 0.60255 0.08332 0.95665 0.0
C599 C 0.58256 0.09468 0.97545 0.0
C600 C 0.62243 0.10129 0.94293 0.0
C601 C 0.62237 0.13091 0.94768 0.0
C602 C 0.60322 0.14182 0.96761 0.0
C603 C 0.58352 0.12398 0.98117 0.0
H604 H 0.87232 0.84286 0.4493 0.0
H605 H 0.89439 0.88141 0.36864 0.0
H606 H 0.90074 0.87886 0.47394 0.0
H607 H 0.92357 0.91711 0.39339 0.0
H608 H 0.95746 0.99004 0.44914 0.0
H609 H 0.92189 0.95851 0.42667 0.0
H610 H 0.95216 0.88844 0.47819 0.0
H611 H 0.98689 0.92008 0.50083 0.0
C612 C 0.88299 0.8592 0.43681 0.0
C613 C 0.88109 0.85918 0.40695 0.0
C614 C 0.89949 0.87972 0.45095 0.0
C615 C 0.91451 0.90082 0.43565 0.0
C616 C 0.91206 0.9013 0.40583 0.0
C617 C 0.89563 0.88064 0.39163 0.0
C618 C 0.9557 0.96819 0.45626 0.0
C619 C 0.97442 0.95765 0.47711 0.0
C620 C 0.93576 0.94998 0.44308 0.0
C621 C 0.93414 0.92094 0.45068 0.0
C622 C 0.9525 0.91072 0.47209 0.0
C623 C 0.97249 0.92881 0.48498 0.0
H624 H 0.37173 0.67186 0.64563 0.0
H625 H 0.44933 0.69261 0.69146 0.0
H626 H 0.39823 0.63792 0.61651 0.0
H627 H 0.47533 0.65874 0.66296 0.0
H628 H 0.51913 0.63035 0.58323 0.0
H629 H 0.48831 0.66008 0.61122 0.0
H630 H 0.4283 0.59027 0.62046 0.0
H631 H 0.45998 0.55986 0.59253 0.0
C632 C 0.39433 0.66907 0.64961 0.0
C633 C 0.40839 0.68499 0.6709 0.0
C634 C 0.4094 0.64948 0.63313 0.0
C635 C 0.43888 0.64579 0.63735 0.0
C636 C 0.45268 0.66126 0.65902 0.0
C637 C 0.43768 0.68054 0.67554 0.0
C638 C 0.4994 0.62112 0.59115 0.0
C639 C 0.49206 0.59255 0.58558 0.0
C640 C 0.48171 0.63827 0.60725 0.0
C641 C 0.45603 0.62748 0.61835 0.0
C642 C 0.44795 0.59921 0.61205 0.0
C643 C 0.46594 0.58183 0.59591 0.0
H644 H 1.00863 0.9439 0.76646 0.0
H645 H 0.94204 0.90327 0.71686 0.0
H646 H 0.02777 0.96597 0.7233 0.0
H647 H 0.96085 0.92573 0.67382 0.0
H648 H 0.00985 0.95635 0.59737 0.0
H649 H 1.00219 0.92782 0.6406 0.0
H650 H 0.01005 1.00394 0.69124 0.0
H651 H 0.01795 0.03211 0.64822 0.0
C652 C 0.99827 0.93942 0.74631 0.0
C653 C 0.97368 0.92198 0.74513 0.0
C654 C 1.00915 0.95218 0.72161 0.0
C655 C 0.99585 0.94762 0.69511 0.0
C656 C 0.97181 0.92944 0.69382 0.0
C657 C 0.9608 0.91687 0.71854 0.0
C658 C 0.01103 0.96669 0.61787 0.0
C659 C 0.01484 0.99631 0.61956 0.0
C660 C 1.00622 0.95048 0.64256 0.0
C661 C 1.0053 0.96365 0.66935 0.0
C662 C 0.01088 0.99307 0.67104 0.0
C663 C 0.01537 1.00923 0.6464 0.0
H664 H 0.55434 0.10353 0.26846 0.0
H665 H 0.59783 0.16409 0.21403 0.0
H666 H 0.53483 0.07943 0.22678 0.0
H667 H 0.57875 0.13971 0.17223 0.0
H668 H 0.53147 0.09703 0.09991 0.0
H669 H 0.53785 0.12593 0.14281 0.0
H670 H 0.55477 0.04957 0.19157 0.0
H671 H 0.54773 0.02108 0.14932 0.0
C672 C 0.55973 0.1117 0.24756 0.0
C673 C 0.57796 0.1355 0.24458 0.0
C674 C 0.5485 0.09792 0.22364 0.0
C675 C 0.55539 0.10742 0.19604 0.0
C676 C 0.57267 0.13197 0.19309 0.0
C677 C 0.58375 0.14589 0.21707 0.0
C678 C 0.53574 0.08647 0.12 0.0
C679 C 0.53921 0.0568 0.12121 0.0
C680 C 0.53973 0.10302 0.14451 0.0
C681 C 0.5471 0.09015 0.17068 0.0
C682 C 0.54884 0.06031 0.172 0.0
C683 C 0.54498 0.04391 0.14764 0.0
H684 H 0.45588 0.65435 0.33361 0.0
H685 H 0.50791 0.60099 0.28096 0.0
H686 H 0.47416 0.63031 0.37605 0.0
H687 H 0.52656 0.57722 0.32348 0.0
H688 H 0.51062 0.51611 0.40155 0.0
H689 H 0.50405 0.54414 0.35832 0.0
H690 H 0.5178 0.62145 0.40598 0.0
H691 H 0.52412 0.5932 0.44952 0.0
C692 C 0.47139 0.63762 0.33113 0.0
C693 C 0.48024 0.62939 0.30391 0.0
C694 C 0.48215 0.6241 0.35546 0.0
C695 C 0.50182 0.60185 0.35314 0.0
C696 C 0.51131 0.59419 0.32596 0.0
C697 C 0.50075 0.6079 0.30162 0.0
C698 C 0.51284 0.53907 0.40271 0.0
C699 C 0.51787 0.55246 0.42892 0.0
C700 C 0.50922 0.55514 0.37789 0.0
C701 C 0.5102 0.58504 0.37873 0.0
C702 C 0.51666 0.59844 0.40472 0.0
C703 C 0.5206 0.58228 0.42958 0.0
H704 H 0.11946 0.41813 0.8372 0.0
H705 H 0.06243 0.4643 0.78159 0.0
H706 H 0.09406 0.43589 0.87843 0.0
H707 H 0.03654 0.48154 0.82286 0.0
H708 H 0.04276 0.54341 0.90133 0.0
H709 H 0.05189 0.51674 0.85829 0.0
H710 H 0.04939 0.43818 0.9066 0.0
H711 H 0.04032 0.46523 0.95001 0.0
C712 C 0.10118 0.43168 0.83377 0.0
C713 C 0.09324 0.44014 0.80613 0.0
C714 C 0.08637 0.44157 0.8574 0.0
C715 C 0.06335 0.46028 0.85395 0.0
C716 C 0.05433 0.46734 0.82623 0.0
C717 C 0.06907 0.45732 0.80258 0.0
C718 C 0.04334 0.52037 0.90262 0.0
C719 C 0.04103 0.50639 0.929 0.0
C720 C 0.04843 0.50503 0.87791 0.0
C721 C 0.05168 0.47533 0.87903 0.0
C722 C 0.0473 0.46109 0.90512 0.0
C723 C 0.04186 0.47651 0.92991 0.0
H724 H 0.76008 0.95615 0.9707 0.0
H725 H 0.73274 0.99414 0.89133 0.0
H726 H 0.71803 0.97452 0.99391 0.0
H727 H 0.69118 0.01383 0.91499 0.0
H728 H 0.60266 1.00799 0.96136 0.0
H729 H 0.64638 0.99821 0.93513 0.0
H730 H 0.69635 0.01674 0.01048 0.0
H731 H 0.65254 0.02564 0.03662 0.0
C732 C 0.74514 0.9685 0.95818 0.0
C733 C 0.7498 0.97344 0.92906 0.0
C734 C 0.72118 0.97948 0.97163 0.0
C735 C 0.70119 0.99589 0.95642 0.0
C736 C 0.70599 1.00115 0.92735 0.0
C737 C 0.73 0.99008 0.91384 0.0
C738 C 0.62311 0.01086 0.97192 0.0
C739 C 0.62435 0.01787 1.00084 0.0
C740 C 0.64819 1.00515 0.95698 0.0
C741 C 0.67496 1.00623 0.97078 0.0
C742 C 0.67612 0.01504 0.99931 0.0
C743 C 0.65109 0.0205 0.01423 0.0
H744 H 0.78229 0.05195 0.44815 0.0
H745 H 0.83663 0.1079 0.39872 0.0
H746 H 0.82427 0.03148 0.47104 0.0
H747 H 0.87859 0.08797 0.42196 0.0
H748 H 0.95238 0.03967 0.45754 0.0
H749 H 0.90944 0.0483 0.42895 0.0
H750 H 0.85862 0.04581 0.50536 0.0
H751 H 0.9012 0.03587 0.53333 0.0
C752 C 0.80322 0.05992 0.44223 0.0
C753 C 0.80608 0.08171 0.42177 0.0
C754 C 0.82733 0.04818 0.45533 0.0
C755 C 0.85495 0.05809 0.44851 0.0
C756 C 0.85779 0.07939 0.42747 0.0
C757 C 0.83368 0.09097 0.41421 0.0
C758 C 0.93181 0.03969 0.46792 0.0
C759 C 0.93002 0.03651 0.49753 0.0
C760 C 0.90725 0.04523 0.45167 0.0
C761 C 0.88046 0.04803 0.4648 0.0
C762 C 0.87867 0.04345 0.49433 0.0
C763 C 0.90313 0.03784 0.51046 0.0
H764 H 0.27325 0.54464 0.10484 0.0
H765 H 0.22132 0.60407 0.15066 0.0
H766 H 0.23044 0.5251 0.08186 0.0
H767 H 0.1786 0.58485 0.12735 0.0
H768 H 0.1035 0.53572 0.09203 0.0
H769 H 0.14658 0.54179 0.12144 0.0
H770 H 0.19794 0.54581 0.04555 0.0
H771 H 0.15518 0.53976 0.01646 0.0
C772 C 0.25267 0.55326 0.11031 0.0
C773 C 0.25071 0.57609 0.12938 0.0
C774 C 0.22817 0.54215 0.09706 0.0
C775 C 0.20112 0.55343 0.10276 0.0
C776 C 0.19906 0.57546 0.12272 0.0
C777 C 0.22357 0.58674 0.13579 0.0
C778 C 0.12412 0.53701 0.08177 0.0
C779 C 0.12603 0.53738 0.05199 0.0
C780 C 0.14872 0.54077 0.09856 0.0
C781 C 0.17564 0.54457 0.0858 0.0
C782 C 0.17762 0.54278 0.05608 0.0
C783 C 0.15309 0.53941 0.03939 0.0
H784 H 0.29479 0.47486 0.55986 0.0
H785 H 0.32375 0.46879 0.64701 0.0
H786 H 0.33871 0.49932 0.54708 0.0
H787 H 0.36734 0.49487 0.63454 0.0
H788 H 0.45572 0.4932 0.58776 0.0
H789 H 0.40965 0.48366 0.6099 0.0
H790 H 0.36913 0.53929 0.5485 0.0
H791 H 0.4153 0.54749 0.5257 0.0
C792 C 0.31039 0.47914 0.57643 0.0
C793 C 0.30593 0.46932 0.60435 0.0
C794 C 0.33551 0.49367 0.56918 0.0
C795 C 0.35686 0.49906 0.58972 0.0
C796 C 0.35162 0.49076 0.61805 0.0
C797 C 0.32646 0.47604 0.62528 0.0
C798 C 0.43705 0.50418 0.57978 0.0
C799 C 0.4389 0.52119 0.55525 0.0
C800 C 0.41057 0.49874 0.59242 0.0
C801 C 0.38542 0.51025 0.58071 0.0
C802 C 0.38788 0.52947 0.55769 0.0
C803 C 0.41433 0.53456 0.54484 0.0
H804 H 0.89552 0.73443 0.99893 0.0
H805 H 0.97116 0.75856 0.95207 0.0
H806 H 0.92048 0.69318 0.01848 0.0
H807 H 0.99539 0.71686 0.97024 0.0
H808 H 0.04317 0.65363 0.01897 0.0
H809 H 0.01626 0.6971 0.0116 0.0
H810 H 0.93836 0.64735 1.00441 0.0
H811 H 0.96546 0.60382 0.01304 0.0
C812 C 0.91748 0.73104 0.99287 0.0
C813 C 0.93126 0.74985 0.9738 0.0
C814 C 0.9317 0.70721 1.00388 0.0
C815 C 0.96005 0.70166 0.99613 0.0
C816 C 0.97378 0.72063 0.97721 0.0
C817 C 0.95967 0.74439 0.96633 0.0
C818 C 0.02019 0.65208 0.01655 0.0
C819 C 1.00642 0.62539 0.01631 0.0
C820 C 1.00476 0.67697 0.01201 0.0
C821 C 0.97522 0.67576 1.00652 0.0
C822 C 0.96108 0.64916 0.00851 0.0
C823 C 0.97656 0.62417 0.01349 0.0
H824 H 0.41277 0.83646 0.11428 0.0
H825 H 0.44212 0.79086 0.04078 0.0
H826 H 0.4347 0.88013 0.09593 0.0
H827 H 0.46358 0.83478 0.02208 0.0
H828 H 0.53279 0.9083 0.02687 0.0
H829 H 0.50475 0.86504 0.03588 0.0
H830 H 0.43212 0.91627 0.05763 0.0
H831 H 0.46053 0.95956 0.04884 0.0
C832 C 0.4238 0.83579 0.09413 0.0
C833 C 0.42588 0.81011 0.07912 0.0
C834 C 0.43605 0.86092 0.08341 0.0
C835 C 0.45084 0.861 0.05747 0.0
C836 C 0.45246 0.83543 0.04218 0.0
C837 C 0.44001 0.81031 0.05282 0.0
C838 C 0.51054 0.91021 0.03269 0.0
C839 C 0.4986 0.93717 0.03665 0.0
C840 C 0.49446 0.88547 0.03787 0.0
C841 C 0.46622 0.88717 0.04765 0.0
C842 C 0.45389 0.91423 0.05036 0.0
C843 C 0.46998 0.939 0.04497 0.0
H844 H 0.09932 0.26532 0.55894 0.0
H845 H 0.13844 0.21012 0.62141 0.0
H846 H 0.08279 0.22369 0.53238 0.0
H847 H 0.12127 0.16858 0.59534 0.0
H848 H 0.09411 0.09606 0.54065 0.0
H849 H 0.12185 0.13929 0.55181 0.0
H850 H 0.04515 0.18913 0.54418 0.0
H851 H 0.01785 0.14623 0.53306 0.0
C852 C 0.1049 0.24433 0.5667 0.0
C853 C 0.11987 0.24103 0.5925 0.0
C854 C 0.09527 0.22047 0.55158 0.0
C855 C 0.1005 0.19279 0.56184 0.0
C856 C 0.11705 0.18954 0.58667 0.0
C857 C 0.12657 0.21338 0.60184 0.0
C858 C 0.08353 0.11646 0.54041 0.0
C859 C 0.05391 0.11792 0.53602 0.0
C860 C 0.09929 0.14114 0.54704 0.0
C861 C 0.08567 0.16764 0.54915 0.0
C862 C 0.05643 0.16921 0.54249 0.0
C863 C 0.04072 0.1446 0.5362 0.0
H864 H 0.65431 0.34188 0.44567 0.0
H865 H 0.60991 0.28824 0.50624 0.0
H866 H 0.6314 0.38374 0.46548 0.0
H867 H 0.58738 0.33018 0.52636 0.0
H868 H 0.52181 0.40479 0.51531 0.0
H869 H 0.55046 0.36268 0.50741 0.0
H870 H 0.62708 0.41469 0.50871 0.0
H871 H 0.59813 0.45712 0.51664 0.0
C872 C 0.63981 0.33905 0.46334 0.0
C873 C 0.63374 0.31167 0.47419 0.0
C874 C 0.62698 0.36308 0.47495 0.0
C875 C 0.60758 0.36031 0.49752 0.0
C876 C 0.60213 0.33302 0.5089 0.0
C877 C 0.61515 0.30901 0.49745 0.0
C878 C 0.54484 0.40714 0.51465 0.0
C879 C 0.55773 0.43424 0.51651 0.0
C880 C 0.56129 0.38298 0.5102 0.0
C881 C 0.59104 0.38535 0.50713 0.0
C882 C 0.60416 0.41225 0.51067 0.0
C883 C 0.58764 0.43647 0.51552 0.0
loop_
_geom_bond_atom_site_label_1
_geom_bond_atom_site_label_2
_geom_bond_distance
_geom_bond_site_symmetry_2
_ccdc_geom_bond_type
C0 C1 1.264 . S
C0 C5 1.479 . S
C0 C10 1.465 . S
C1 C0 1.264 . S
C1 C3 1.339 . S
C1 H28 0.931 . S
C2 C3 1.395 . S
C2 C4 1.320 . S
C3 C1 1.339 . S
C3 C2 1.395 . S
C3 H29 0.929 . S
C4 C2 1.320 . S
C4 C5 1.405 . S
C4 H30 0.930 . S
C5 C0 1.479 . S
C5 C4 1.405 . S
C5 H31 0.931 . S
U6 O7 2.454 . S
U6 O8 2.458 . S
U6 C9 2.984 . S
U6 C10 2.847 . S
U6 C23 2.882 . S
U6 O24 2.441 . S
U6 O25 2.420 . S
U6 O26 2.455 . S
U6 O27 2.449 . S
O7 U6 2.454 . S
O7 C9 1.353 . S
O8 U6 2.458 . S
O8 C9 1.286 . S
C9 U6 2.984 . S
C9 O7 1.353 . S
C9 O8 1.286 . S
C9 C11 1.363 . S
C10 C0 1.465 . S
C10 U6 2.847 . S
C10 O24 1.249 . S
C10 O25 1.202 . S
C11 C9 1.363 . S
C11 C13 1.408 . S
C11 C16 1.342 . S
C12 C13 1.310 . S
C12 C15 1.461 . S
C12 H32 0.932 . S
C13 C11 1.408 . S
C13 C12 1.310 . S
C13 H33 0.930 . S
C14 C15 1.474 . S
C14 C16 1.285 . S
C14 H34 0.929 . S
C15 C12 1.461 . S
C15 C14 1.474 . S
C16 C11 1.342 . S
C16 C14 1.285 . S
C16 H35 0.930 . S
C17 C20 1.424 . S
C17 C22 1.245 . S
C17 C23 1.428 . S
C18 C21 1.260 . S
C18 C22 1.477 . S
C18 H36 0.932 . S
C19 C20 1.384 . S
C19 C21 1.479 . S
C19 H37 0.929 . S
C20 C17 1.424 . S
C20 C19 1.384 . S
C20 H38 0.928 . S
C21 C18 1.260 . S
C21 C19 1.479 . S
C22 C17 1.245 . S
C22 C18 1.477 . S
C22 H39 0.932 . S
C23 U6 2.882 . S
C23 C17 1.428 . S
C23 O26 1.301 . S
C23 O27 1.282 . S
O24 U6 2.441 . S
O24 C10 1.249 . S
O25 U6 2.420 . S
O25 C10 1.202 . S
O26 U6 2.455 . S
O26 C23 1.301 . S
O27 U6 2.449 . S
O27 C23 1.282 . S
H28 C1 0.931 . S
H29 C3 0.929 . S
H30 C4 0.930 . S
H31 C5 0.931 . S
H32 C12 0.932 . S
H33 C13 0.930 . S
H34 C14 0.929 . S
H35 C16 0.930 . S
H36 C18 0.932 . S
H37 C19 0.929 . S
H38 C20 0.928 . S
H39 C22 0.932 . S
C40 C41 1.264 . S
C40 C45 1.479 . S
C40 C50 1.465 . S
C41 C40 1.264 . S
C41 C43 1.339 . S
C41 H68 0.931 . S
C42 C43 1.395 . S
C42 C44 1.320 . S
C43 C41 1.339 . S
C43 C42 1.395 . S
C43 H69 0.929 . S
C44 C42 1.320 . S
C44 C45 1.405 . S
C44 H70 0.930 . S
C45 C40 1.479 . S
C45 C44 1.405 . S
C45 H71 0.931 . S
U46 O47 2.454 . S
U46 O48 2.458 . S
U46 C49 2.984 . S
U46 C50 2.847 . S
U46 C63 2.882 . S
U46 O64 2.441 . S
U46 O65 2.420 . S
U46 O66 2.455 . S
U46 O67 2.449 . S
O47 U46 2.454 . S
O47 C49 1.353 . S
O48 U46 2.458 . S
O48 C49 1.286 . S
C49 U46 2.984 . S
C49 O47 1.353 . S
C49 O48 1.286 . S
C49 C51 1.363 . S
C50 C40 1.465 . S
C50 U46 2.847 . S
C50 O64 1.249 . S
C50 O65 1.202 . S
C51 C49 1.363 . S
C51 C53 1.408 . S
C51 C56 1.342 . S
C52 C53 1.310 . S
C52 C55 1.461 . S
C52 H72 0.932 . S
C53 C51 1.408 . S
C53 C52 1.310 . S
C53 H73 0.930 . S
C54 C55 1.474 . S
C54 C56 1.285 . S
C54 H74 0.929 . S
C55 C52 1.461 . S
C55 C54 1.474 . S
C56 C51 1.342 . S
C56 C54 1.285 . S
C56 H75 0.930 . S
C57 C60 1.424 . S
C57 C62 1.245 . S
C57 C63 1.428 . S
C58 C61 1.260 . S
C58 C62 1.477 . S
C58 H76 0.932 . S
C59 C60 1.384 . S
C59 C61 1.479 . S
C59 H77 0.929 . S
C60 C57 1.424 . S
C60 C59 1.384 . S
C60 H78 0.928 . S
C61 C58 1.260 . S
C61 C59 1.479 . S
C62 C57 1.245 . S
C62 C58 1.477 . S
C62 H79 0.932 . S
C63 U46 2.882 . S
C63 C57 1.428 . S
C63 O66 1.301 . S
C63 O67 1.282 . S
O64 U46 2.441 . S
O64 C50 1.249 . S
O65 U46 2.420 . S
O65 C50 1.202 . S
O66 U46 2.455 . S
O66 C63 1.301 . S
O67 U46 2.449 . S
O67 C63 1.282 . S
H68 C41 0.931 . S
H69 C43 0.929 . S
H70 C44 0.930 . S
H71 C45 0.931 . S
H72 C52 0.932 . S
H73 C53 0.930 . S
H74 C54 0.929 . S
H75 C56 0.930 . S
H76 C58 0.932 . S
H77 C59 0.929 . S
H78 C60 0.928 . S
H79 C62 0.932 . S
C80 C81 1.264 . S
C80 C85 1.479 . S
C80 C90 1.465 . S
C81 C80 1.264 . S
C81 C83 1.339 . S
C81 H108 0.931 . S
C82 C83 1.395 . S
C82 C84 1.320 . S
C83 C81 1.339 . S
C83 C82 1.395 . S
C83 H109 0.929 . S
C84 C82 1.320 . S
C84 C85 1.405 . S
C84 H110 0.930 . S
C85 C80 1.479 . S
C85 C84 1.405 . S
C85 H111 0.931 . S
U86 O87 2.454 . S
U86 O88 2.458 . S
U86 C89 2.984 . S
U86 C90 2.847 . S
U86 C103 2.882 . S
U86 O104 2.441 . S
U86 O105 2.420 . S
U86 O106 2.455 . S
U86 O107 2.449 . S
O87 U86 2.454 . S
O87 C89 1.353 . S
O88 U86 2.458 . S
O88 C89 1.286 . S
C89 U86 2.984 . S
C89 O87 1.353 . S
C89 O88 1.286 . S
C89 C91 1.363 . S
C90 C80 1.465 . S
C90 U86 2.847 . S
C90 O104 1.249 . S
C90 O105 1.202 . S
C91 C89 1.363 . S
C91 C93 1.408 . S
C91 C96 1.342 . S
C92 C93 1.310 . S
C92 C95 1.461 . S
C92 H112 0.932 . S
C93 C91 1.408 . S
C93 C92 1.310 . S
C93 H113 0.930 . S
C94 C95 1.474 . S
C94 C96 1.285 . S
C94 H114 0.929 . S
C95 C92 1.461 . S
C95 C94 1.474 . S
C96 C91 1.342 . S
C96 C94 1.285 . S
C96 H115 0.930 . S
C97 C100 1.424 . S
C97 C102 1.245 . S
C97 C103 1.428 . S
C98 C101 1.260 . S
C98 C102 1.477 . S
C98 H116 0.932 . S
C99 C100 1.384 . S
C99 C101 1.479 . S
C99 H117 0.929 . S
C100 C97 1.424 . S
C100 C99 1.384 . S
C100 H118 0.928 . S
C101 C98 1.260 . S
C101 C99 1.479 . S
C102 C97 1.245 . S
C102 C98 1.477 . S
C102 H119 0.932 . S
C103 U86 2.882 . S
C103 C97 1.428 . S
C103 O106 1.301 . S
C103 O107 1.282 . S
O104 U86 2.441 . S
O104 C90 1.249 . S
O105 U86 2.420 . S
O105 C90 1.202 . S
O106 U86 2.455 . S
O106 C103 1.301 . S
O107 U86 2.449 . S
O107 C103 1.282 . S
H108 C81 0.931 . S
H109 C83 0.929 . S
H110 C84 0.930 . S
H111 C85 0.931 . S
H112 C92 0.932 . S
H113 C93 0.930 . S
H114 C94 0.929 . S
H115 C96 0.930 . S
H116 C98 0.932 . S
H117 C99 0.929 . S
H118 C100 0.928 . S
H119 C102 0.932 . S
C120 C121 1.264 . S
C120 C125 1.479 . S
C120 C130 1.465 . S
C121 C120 1.264 . S
C121 C123 1.339 . S
C121 H148 0.931 . S
C122 C123 1.395 . S
C122 C124 1.320 . S
C123 C121 1.339 . S
C123 C122 1.395 . S
C123 H149 0.929 . S
C124 C122 1.320 . S
C124 C125 1.405 . S
C124 H150 0.930 . S
C125 C120 1.479 . S
C125 C124 1.405 . S
C125 H151 0.931 . S
U126 O127 2.454 . S
U126 O128 2.458 . S
U126 C129 2.984 . S
U126 C130 2.847 . S
U126 C143 2.882 . S
U126 O144 2.441 . S
U126 O145 2.420 . S
U126 O146 2.455 . S
U126 O147 2.449 . S
O127 U126 2.454 . S
O127 C129 1.353 . S
O128 U126 2.458 . S
O128 C129 1.286 . S
C129 U126 2.984 . S
C129 O127 1.353 . S
C129 O128 1.286 . S
C129 C131 1.363 . S
C130 C120 1.465 . S
C130 U126 2.847 . S
C130 O144 1.249 . S
C130 O145 1.202 . S
C131 C129 1.363 . S
C131 C133 1.408 . S
C131 C136 1.342 . S
C132 C133 1.310 . S
C132 C135 1.461 . S
C132 H152 0.932 . S
C133 C131 1.408 . S
C133 C132 1.310 . S
C133 H153 0.930 . S
C134 C135 1.474 . S
C134 C136 1.285 . S
C134 H154 0.929 . S
C135 C132 1.461 . S
C135 C134 1.474 . S
C136 C131 1.342 . S
C136 C134 1.285 . S
C136 H155 0.930 . S
C137 C140 1.424 . S
C137 C142 1.245 . S
C137 C143 1.428 . S
C138 C141 1.260 . S
C138 C142 1.477 . S
C138 H156 0.932 . S
C139 C140 1.384 . S
C139 C141 1.479 . S
C139 H157 0.929 . S
C140 C137 1.424 . S
C140 C139 1.384 . S
C140 H158 0.928 . S
C141 C138 1.260 . S
C141 C139 1.479 . S
C142 C137 1.245 . S
C142 C138 1.477 . S
C142 H159 0.932 . S
C143 U126 2.882 . S
C143 C137 1.428 . S
C143 O146 1.301 . S
C143 O147 1.282 . S
O144 U126 2.441 . S
O144 C130 1.249 . S
O145 U126 2.420 . S
O145 C130 1.202 . S
O146 U126 2.455 . S
O146 C143 1.301 . S
O147 U126 2.449 . S
O147 C143 1.282 . S
H148 C121 0.931 . S
H149 C123 0.929 . S
H150 C124 0.930 . S
H151 C125 0.931 . S
H152 C132 0.932 . S
H153 C133 0.930 . S
H154 C134 0.929 . S
H155 C136 0.930 . S
H156 C138 0.932 . S
H157 C139 0.929 . S
H158 C140 0.928 . S
H159 C142 0.932 . S
C160 C161 1.264 . S
C160 C165 1.479 . S
C160 C170 1.465 . S
C161 C160 1.264 . S
C161 C163 1.339 1_655 S
C161 H188 0.931 . S
C162 C163 1.395 1_655 S
C162 C164 1.320 . S
C163 C161 1.339 1_455 S
C163 C162 1.395 1_455 S
C163 H189 0.929 . S
C164 C162 1.320 . S
C164 C165 1.405 . S
C164 H190 0.930 1_556 S
C165 C160 1.479 . S
C165 C164 1.405 . S
C165 H191 0.931 . S
U166 O167 2.454 . S
U166 O168 2.458 . S
U166 C169 2.984 . S
U166 C170 2.847 . S
U166 C183 2.882 . S
U166 O184 2.441 . S
U166 O185 2.420 . S
U166 O186 2.455 . S
U166 O187 2.449 . S
O167 U166 2.454 . S
O167 C169 1.353 . S
O168 U166 2.458 . S
O168 C169 1.286 . S
C169 U166 2.984 . S
C169 O167 1.353 . S
C169 O168 1.286 . S
C169 C171 1.363 . S
C170 C160 1.465 . S
C170 U166 2.847 . S
C170 O184 1.249 . S
C170 O185 1.202 . S
C171 C169 1.363 . S
C171 C173 1.408 . S
C171 C176 1.342 . S
C172 C173 1.310 1_554 S
C172 C175 1.461 1_554 S
C172 H192 0.932 . S
C173 C171 1.408 . S
C173 C172 1.310 1_556 S
C173 H193 0.930 . S
C174 C175 1.474 . S
C174 C176 1.285 . S
C174 H194 0.929 1_565 S
C175 C172 1.461 1_556 S
C175 C174 1.474 . S
C176 C171 1.342 . S
C176 C174 1.285 . S
C176 H195 0.930 . S
C177 C180 1.424 . S
C177 C182 1.245 . S
C177 C183 1.428 . S
C178 C181 1.260 . S
C178 C182 1.477 . S
C178 H196 0.932 1_565 S
C179 C180 1.384 . S
C179 C181 1.479 . S
C179 H197 0.929 1_655 S
C180 C177 1.424 . S
C180 C179 1.384 . S
C180 H198 0.928 . S
C181 C178 1.260 . S
C181 C179 1.479 . S
C182 C177 1.245 . S
C182 C178 1.477 . S
C182 H199 0.932 . S
C183 U166 2.882 . S
C183 C177 1.428 . S
C183 O186 1.301 . S
C183 O187 1.282 . S
O184 U166 2.441 . S
O184 C170 1.249 . S
O185 U166 2.420 . S
O185 C170 1.202 . S
O186 U166 2.455 . S
O186 C183 1.301 . S
O187 U166 2.449 . S
O187 C183 1.282 . S
H188 C161 0.931 . S
H189 C163 0.929 . S
H190 C164 0.930 1_554 S
H191 C165 0.931 . S
H192 C172 0.932 . S
H193 C173 0.930 . S
H194 C174 0.929 1_545 S
H195 C176 0.930 . S
H196 C178 0.932 1_545 S
H197 C179 0.929 1_455 S
H198 C180 0.928 . S
H199 C182 0.932 . S
C200 C201 1.264 . S
C200 C205 1.479 . S
C200 C210 1.465 . S
C201 C200 1.264 . S
C201 C203 1.339 . S
C201 H228 0.931 . S
C202 C203 1.395 . S
C202 C204 1.320 . S
C203 C201 1.339 . S
C203 C202 1.395 . S
C203 H229 0.929 . S
C204 C202 1.320 . S
C204 C205 1.405 . S
C204 H230 0.930 . S
C205 C200 1.479 . S
C205 C204 1.405 . S
C205 H231 0.931 . S
U206 O207 2.454 . S
U206 O208 2.458 . S
U206 C209 2.984 . S
U206 C210 2.847 . S
U206 C223 2.882 . S
U206 O224 2.441 . S
U206 O225 2.420 . S
U206 O226 2.455 . S
U206 O227 2.449 . S
O207 U206 2.454 . S
O207 C209 1.353 . S
O208 U206 2.458 . S
O208 C209 1.286 . S
C209 U206 2.984 . S
C209 O207 1.353 . S
C209 O208 1.286 . S
C209 C211 1.363 . S
C210 C200 1.465 . S
C210 U206 2.847 . S
C210 O224 1.249 . S
C210 O225 1.202 . S
C211 C209 1.363 . S
C211 C213 1.408 . S
C211 C216 1.342 . S
C212 C213 1.310 . S
C212 C215 1.461 . S
C212 H232 0.932 . S
C213 C211 1.408 . S
C213 C212 1.310 . S
C213 H233 0.930 . S
C214 C215 1.474 . S
C214 C216 1.285 . S
C214 H234 0.929 . S
C215 C212 1.461 . S
C215 C214 1.474 . S
C216 C211 1.342 . S
C216 C214 1.285 . S
C216 H235 0.930 . S
C217 C220 1.424 . S
C217 C222 1.245 . S
C217 C223 1.428 . S
C218 C221 1.260 . S
C218 C222 1.477 . S
C218 H236 0.932 . S
C219 C220 1.384 . S
C219 C221 1.479 . S
C219 H237 0.929 . S
C220 C217 1.424 . S
C220 C219 1.384 . S
C220 H238 0.928 . S
C221 C218 1.260 . S
C221 C219 1.479 . S
C222 C217 1.245 . S
C222 C218 1.477 . S
C222 H239 0.932 . S
C223 U206 2.882 . S
C223 C217 1.428 . S
C223 O226 1.301 . S
C223 O227 1.282 . S
O224 U206 2.441 . S
O224 C210 1.249 . S
O225 U206 2.420 . S
O225 C210 1.202 . S
O226 U206 2.455 . S
O226 C223 1.301 . S
O227 U206 2.449 . S
O227 C223 1.282 . S
H228 C201 0.931 . S
H229 C203 0.929 . S
H230 C204 0.930 . S
H231 C205 0.931 . S
H232 C212 0.932 . S
H233 C213 0.930 . S
H234 C214 0.929 . S
H235 C216 0.930 . S
H236 C218 0.932 . S
H237 C219 0.929 . S
H238 C220 0.928 . S
H239 C222 0.932 . S
C240 C241 1.264 . S
C240 C245 1.479 . S
C240 C250 1.465 . S
C241 C240 1.264 . S
C241 C243 1.339 . S
C241 H268 0.931 . S
C242 C243 1.395 . S
C242 C244 1.320 . S
C243 C241 1.339 . S
C243 C242 1.395 . S
C243 H269 0.929 . S
C244 C242 1.320 . S
C244 C245 1.405 . S
C244 H270 0.930 . S
C245 C240 1.479 . S
C245 C244 1.405 . S
C245 H271 0.931 . S
U246 O247 2.454 . S
U246 O248 2.458 . S
U246 C249 2.984 . S
U246 C250 2.847 . S
U246 C263 2.882 . S
U246 O264 2.441 . S
U246 O265 2.420 . S
U246 O266 2.455 . S
U246 O267 2.449 . S
O247 U246 2.454 . S
O247 C249 1.353 . S
O248 U246 2.458 . S
O248 C249 1.286 . S
C249 U246 2.984 . S
C249 O247 1.353 . S
C249 O248 1.286 . S
C249 C251 1.363 . S
C250 C240 1.465 . S
C250 U246 2.847 . S
C250 O264 1.249 . S
C250 O265 1.202 . S
C251 C249 1.363 . S
C251 C253 1.408 . S
C251 C256 1.342 . S
C252 C253 1.310 . S
C252 C255 1.461 . S
C252 H272 0.932 . S
C253 C251 1.408 . S
C253 C252 1.310 . S
C253 H273 0.930 . S
C254 C255 1.474 . S
C254 C256 1.285 . S
C254 H274 0.929 . S
C255 C252 1.461 . S
C255 C254 1.474 . S
C256 C251 1.342 . S
C256 C254 1.285 . S
C256 H275 0.930 . S
C257 C260 1.424 . S
C257 C262 1.245 . S
C257 C263 1.428 . S
C258 C261 1.260 . S
C258 C262 1.477 . S
C258 H276 0.932 . S
C259 C260 1.384 . S
C259 C261 1.479 . S
C259 H277 0.929 . S
C260 C257 1.424 . S
C260 C259 1.384 . S
C260 H278 0.928 . S
C261 C258 1.260 . S
C261 C259 1.479 . S
C262 C257 1.245 . S
C262 C258 1.477 . S
C262 H279 0.932 . S
C263 U246 2.882 . S
C263 C257 1.428 . S
C263 O266 1.301 . S
C263 O267 1.282 . S
O264 U246 2.441 . S
O264 C250 1.249 . S
O265 U246 2.420 . S
O265 C250 1.202 . S
O266 U246 2.455 . S
O266 C263 1.301 . S
O267 U246 2.449 . S
O267 C263 1.282 . S
H268 C241 0.931 . S
H269 C243 0.929 . S
H270 C244 0.930 . S
H271 C245 0.931 . S
H272 C252 0.932 . S
H273 C253 0.930 . S
H274 C254 0.929 . S
H275 C256 0.930 . S
H276 C258 0.932 . S
H277 C259 0.929 . S
H278 C260 0.928 . S
H279 C262 0.932 . S
C280 C281 1.264 . S
C280 C285 1.479 . S
C280 C290 1.465 . S
C281 C280 1.264 . S
C281 C283 1.339 . S
C281 H308 0.931 . S
C282 C283 1.395 . S
C282 C284 1.320 . S
C283 C281 1.339 . S
C283 C282 1.395 . S
C283 H309 0.929 . S
C284 C282 1.320 . S
C284 C285 1.405 . S
C284 H310 0.930 . S
C285 C280 1.479 . S
C285 C284 1.405 . S
C285 H311 0.931 . S
U286 O287 2.454 . S
U286 O288 2.458 . S
U286 C289 2.984 . S
U286 C290 2.847 . S
U286 C303 2.882 . S
U286 O304 2.441 . S
U286 O305 2.420 . S
U286 O306 2.455 . S
U286 O307 2.449 . S
O287 U286 2.454 . S
O287 C289 1.353 . S
O288 U286 2.458 . S
O288 C289 1.286 . S
C289 U286 2.984 . S
C289 O287 1.353 . S
C289 O288 1.286 . S
C289 C291 1.363 . S
C290 C280 1.465 . S
C290 U286 2.847 . S
C290 O304 1.249 . S
C290 O305 1.202 . S
C291 C289 1.363 . S
C291 C293 1.408 . S
C291 C296 1.342 . S
C292 C293 1.310 . S
C292 C295 1.461 . S
C292 H312 0.932 . S
C293 C291 1.408 . S
C293 C292 1.310 . S
C293 H313 0.930 . S
C294 C295 1.474 . S
C294 C296 1.285 . S
C294 H314 0.929 . S
C295 C292 1.461 . S
C295 C294 1.474 . S
C296 C291 1.342 . S
C296 C294 1.285 . S
C296 H315 0.930 . S
C297 C300 1.424 . S
C297 C302 1.245 . S
C297 C303 1.428 . S
C298 C301 1.260 . S
C298 C302 1.477 . S
C298 H316 0.932 . S
C299 C300 1.384 . S
C299 C301 1.479 . S
C299 H317 0.929 . S
C300 C297 1.424 . S
C300 C299 1.384 . S
C300 H318 0.928 . S
C301 C298 1.260 . S
C301 C299 1.479 . S
C302 C297 1.245 . S
C302 C298 1.477 . S
C302 H319 0.932 . S
C303 U286 2.882 . S
C303 C297 1.428 . S
C303 O306 1.301 . S
C303 O307 1.282 . S
O304 U286 2.441 . S
O304 C290 1.249 . S
O305 U286 2.420 . S
O305 C290 1.202 . S
O306 U286 2.455 . S
O306 C303 1.301 . S
O307 U286 2.449 . S
O307 C303 1.282 . S
H308 C281 0.931 . S
H309 C283 0.929 . S
H310 C284 0.930 . S
H311 C285 0.931 . S
H312 C292 0.932 . S
H313 C293 0.930 . S
H314 C294 0.929 . S
H315 C296 0.930 . S
H316 C298 0.932 . S
H317 C299 0.929 . S
H318 C300 0.928 . S
H319 C302 0.932 . S
Zn320 O326 1.920 . S
Zn320 O332 1.898 . S
Zn320 O335 1.905 . S
Zn321 O329 1.905 1_565 S
Zn321 O330 1.898 . S
Zn321 O338 1.920 . S
Zn322 O325 2.080 1_455 S
Zn322 O328 2.114 . S
Zn322 O331 2.120 1_445 S
Zn322 O333 2.120 . S
Zn322 O334 2.114 1_455 S
Zn322 O337 2.080 . S
C323 O328 1.166 . S
C323 O329 1.182 . S
C324 O330 1.167 1_655 S
C324 O331 1.299 . S
O325 Zn322 2.080 1_655 S
O325 C339 1.305 . S
O326 Zn320 1.920 . S
O326 C339 1.234 . S
C327 O332 1.167 1_455 S
C327 O333 1.299 . S
O328 Zn322 2.114 . S
O328 C323 1.166 . S
O329 Zn321 1.905 1_545 S
O329 C323 1.182 . S
O330 Zn321 1.898 . S
O330 C324 1.167 1_455 S
O331 Zn322 2.120 1_665 S
O331 C324 1.299 . S
O332 Zn320 1.898 . S
O332 C327 1.167 1_655 S
O333 Zn322 2.120 . S
O333 C327 1.299 . S
O334 Zn322 2.114 1_655 S
O334 C336 1.166 . S
O335 Zn320 1.905 . S
O335 C336 1.182 . S
C336 O334 1.166 . S
C336 O335 1.182 . S
O337 Zn322 2.080 . S
O337 C340 1.305 1_545 S
O338 Zn321 1.920 . S
O338 C340 1.234 . S
C339 O325 1.305 . S
C339 O326 1.234 . S
C340 O337 1.305 1_565 S
C340 O338 1.234 . S
Zn341 O347 1.920 1_556 S
Zn341 O353 1.898 . S
Zn341 O356 1.905 . S
Zn342 O350 1.905 . S
Zn342 O351 1.898 . S
Zn342 O359 1.920 . S
Zn343 O346 2.080 . S
Zn343 O349 2.114 1_545 S
Zn343 O352 2.120 1_545 S
Zn343 O354 2.120 . S
Zn343 O355 2.114 1_544 S
Zn343 O358 2.080 . S
C344 O349 1.166 . S
C344 O350 1.182 . S
C345 O351 1.167 . S
C345 O352 1.299 . S
O346 Zn343 2.080 . S
O346 C360 1.305 . S
O347 Zn341 1.920 1_554 S
O347 C360 1.234 . S
C348 O353 1.167 . S
C348 O354 1.299 1_556 S
O349 Zn343 2.114 1_565 S
O349 C344 1.166 . S
O350 Zn342 1.905 . S
O350 C344 1.182 . S
O351 Zn342 1.898 . S
O351 C345 1.167 . S
O352 Zn343 2.120 1_565 S
O352 C345 1.299 . S
O353 Zn341 1.898 . S
O353 C348 1.167 . S
O354 Zn343 2.120 . S
O354 C348 1.299 1_554 S
O355 Zn343 2.114 1_566 S
O355 C357 1.166 . S
O356 Zn341 1.905 . S
O356 C357 1.182 1_545 S
C357 O355 1.166 . S
C357 O356 1.182 1_565 S
O358 Zn343 2.080 . S
O358 C361 1.305 . S
O359 Zn342 1.920 . S
O359 C361 1.234 1_565 S
C360 O346 1.305 . S
C360 O347 1.234 . S
C361 O358 1.305 . S
C361 O359 1.234 1_545 S
Zn362 O368 1.920 . S
Zn362 O374 1.898 . S
Zn362 O377 1.905 . S
Zn363 O371 1.905 . S
Zn363 O372 1.898 . S
Zn363 O380 1.920 . S
Zn364 O367 2.080 . S
Zn364 O370 2.114 . S
Zn364 O373 2.120 . S
Zn364 O375 2.120 . S
Zn364 O376 2.114 . S
Zn364 O379 2.080 . S
C365 O370 1.166 . S
C365 O371 1.182 . S
C366 O372 1.167 . S
C366 O373 1.299 . S
O367 Zn364 2.080 . S
O367 C381 1.305 . S
O368 Zn362 1.920 . S
O368 C381 1.234 . S
C369 O374 1.167 . S
C369 O375 1.299 . S
O370 Zn364 2.114 . S
O370 C365 1.166 . S
O371 Zn363 1.905 . S
O371 C365 1.182 . S
O372 Zn363 1.898 . S
O372 C366 1.167 . S
O373 Zn364 2.120 . S
O373 C366 1.299 . S
O374 Zn362 1.898 . S
O374 C369 1.167 . S
O375 Zn364 2.120 . S
O375 C369 1.299 . S
O376 Zn364 2.114 . S
O376 C378 1.166 . S
O377 Zn362 1.905 . S
O377 C378 1.182 . S
C378 O376 1.166 . S
C378 O377 1.182 . S
O379 Zn364 2.080 . S
O379 C382 1.305 . S
O380 Zn363 1.920 . S
O380 C382 1.234 . S
C381 O367 1.305 . S
C381 O368 1.234 . S
C382 O379 1.305 . S
C382 O380 1.234 . S
Zn383 O389 1.920 . S
Zn383 O395 1.898 . S
Zn383 O398 1.905 . S
Zn384 O392 1.905 1_655 S
Zn384 O393 1.898 . S
Zn384 O401 1.920 . S
Zn385 O388 2.080 1_554 S
Zn385 O391 2.114 . S
Zn385 O394 2.120 1_454 S
Zn385 O396 2.120 . S
Zn385 O397 2.114 1_554 S
Zn385 O400 2.080 . S
C386 O391 1.166 . S
C386 O392 1.182 . S
C387 O393 1.167 1_556 S
C387 O394 1.299 . S
O388 Zn385 2.080 1_556 S
O388 C402 1.305 . S
O389 Zn383 1.920 . S
O389 C402 1.234 . S
C390 O395 1.167 1_554 S
C390 O396 1.299 . S
O391 Zn385 2.114 . S
O391 C386 1.166 . S
O392 Zn384 1.905 1_455 S
O392 C386 1.182 . S
O393 Zn384 1.898 . S
O393 C387 1.167 1_554 S
O394 Zn385 2.120 1_656 S
O394 C387 1.299 . S
O395 Zn383 1.898 . S
O395 C390 1.167 1_556 S
O396 Zn385 2.120 . S
O396 C390 1.299 . S
O397 Zn385 2.114 1_556 S
O397 C399 1.166 . S
O398 Zn383 1.905 . S
O398 C399 1.182 . S
C399 O397 1.166 . S
C399 O398 1.182 . S
O400 Zn385 2.080 . S
O400 C403 1.305 1_455 S
O401 Zn384 1.920 . S
O401 C403 1.234 . S
C402 O388 1.305 . S
C402 O389 1.234 . S
C403 O400 1.305 1_655 S
C403 O401 1.234 . S
H404 C412 0.950 . S
H405 C417 0.950 . S
H406 C414 0.950 . S
H407 C416 0.950 . S
H408 C418 0.950 . S
H409 C420 0.950 . S
H410 C422 0.950 . S
H411 C423 0.950 . S
C412 H404 0.950 . S
C412 C413 1.386 . S
C412 C414 1.391 . S
C413 C412 1.386 . S
C413 C417 1.393 . S
C414 H406 0.950 . S
C414 C412 1.391 . S
C414 C415 1.400 . S
C415 C414 1.400 . S
C415 C416 1.398 . S
C415 C421 1.491 . S
C416 H407 0.950 . S
C416 C415 1.398 . S
C416 C417 1.391 . S
C417 H405 0.950 . S
C417 C413 1.393 . S
C417 C416 1.391 . S
C418 H408 0.950 . S
C418 C419 1.386 . S
C418 C420 1.391 . S
C419 C418 1.386 . S
C419 C423 1.393 . S
C420 H409 0.950 . S
C420 C418 1.391 . S
C420 C421 1.400 . S
C421 C415 1.491 . S
C421 C420 1.400 . S
C421 C422 1.398 . S
C422 H410 0.950 . S
C422 C421 1.398 . S
C422 C423 1.391 . S
C423 H411 0.950 . S
C423 C419 1.393 . S
C423 C422 1.391 . S
H424 C432 0.950 . S
H425 C437 0.950 . S
H426 C434 0.950 . S
H427 C436 0.950 . S
H428 C438 0.950 . S
H429 C440 0.950 . S
H430 C442 0.950 . S
H431 C443 0.950 . S
C432 H424 0.950 . S
C432 C433 1.386 . S
C432 C434 1.391 . S
C433 C432 1.386 . S
C433 C437 1.393 . S
C434 H426 0.950 . S
C434 C432 1.391 . S
C434 C435 1.400 . S
C435 C434 1.400 . S
C435 C436 1.398 . S
C435 C441 1.491 . S
C436 H427 0.950 . S
C436 C435 1.398 . S
C436 C437 1.391 . S
C437 H425 0.950 . S
C437 C433 1.393 . S
C437 C436 1.391 . S
C438 H428 0.950 . S
C438 C439 1.386 . S
C438 C440 1.391 . S
C439 C438 1.386 . S
C439 C443 1.393 . S
C440 H429 0.950 . S
C440 C438 1.391 . S
C440 C441 1.400 . S
C441 C435 1.491 . S
C441 C440 1.400 . S
C441 C442 1.398 . S
C442 H430 0.950 . S
C442 C441 1.398 . S
C442 C443 1.391 . S
C443 H431 0.950 . S
C443 C439 1.393 . S
C443 C442 1.391 . S
H444 C452 0.950 . S
H445 C457 0.950 . S
H446 C454 0.950 . S
H447 C456 0.950 . S
H448 C458 0.950 . S
H449 C460 0.950 . S
H450 C462 0.950 . S
H451 C463 0.950 . S
C452 H444 0.950 . S
C452 C453 1.386 . S
C452 C454 1.391 . S
C453 C452 1.386 . S
C453 C457 1.393 . S
C454 H446 0.950 . S
C454 C452 1.391 . S
C454 C455 1.400 . S
C455 C454 1.400 . S
C455 C456 1.398 . S
C455 C461 1.491 . S
C456 H447 0.950 . S
C456 C455 1.398 . S
C456 C457 1.391 . S
C457 H445 0.950 . S
C457 C453 1.393 . S
C457 C456 1.391 . S
C458 H448 0.950 . S
C458 C459 1.386 . S
C458 C460 1.391 . S
C459 C458 1.386 . S
C459 C463 1.393 . S
C460 H449 0.950 . S
C460 C458 1.391 . S
C460 C461 1.400 . S
C461 C455 1.491 . S
C461 C460 1.400 . S
C461 C462 1.398 . S
C462 H450 0.950 . S
C462 C461 1.398 . S
C462 C463 1.391 . S
C463 H451 0.950 . S
C463 C459 1.393 . S
C463 C462 1.391 . S
H464 C472 0.950 . S
H465 C477 0.950 . S
H466 C474 0.950 . S
H467 C476 0.950 . S
H468 C478 0.980 . S
H469 C480 0.950 . S
H470 C482 0.950 . S
H471 C483 0.950 . S
C472 H464 0.950 . S
C472 C473 1.386 . S
C472 C474 1.391 . S
C473 C472 1.386 . S
C473 C477 1.393 . S
C474 H466 0.950 . S
C474 C472 1.391 . S
C474 C475 1.400 . S
C475 C474 1.400 . S
C475 C476 1.398 . S
C475 C481 1.491 . S
C476 H467 0.950 . S
C476 C475 1.398 . S
C476 C477 1.391 . S
C477 H465 0.950 . S
C477 C473 1.393 . S
C477 C476 1.391 . S
C478 H468 0.980 . S
C478 C479 1.373 1_455 S
C478 C480 1.375 1_455 S
C479 C478 1.373 1_655 S
C479 C483 1.393 . S
C480 H469 0.950 . S
C480 C478 1.375 1_655 S
C480 C481 1.400 . S
C481 C475 1.491 . S
C481 C480 1.400 . S
C481 C482 1.398 . S
C482 H470 0.950 . S
C482 C481 1.398 . S
C482 C483 1.391 . S
C483 H471 0.950 . S
C483 C479 1.393 . S
C483 C482 1.391 . S
H484 C492 0.950 . S
H485 C497 0.950 . S
H486 C494 0.950 . S
H487 C496 0.950 . S
H488 C498 0.950 . S
H489 C500 0.950 . S
H490 C502 0.950 . S
H491 C503 0.950 . S
C492 H484 0.950 . S
C492 C493 1.386 . S
C492 C494 1.391 . S
C493 C492 1.386 . S
C493 C497 1.393 . S
C494 H486 0.950 . S
C494 C492 1.391 . S
C494 C495 1.400 . S
C495 C494 1.400 . S
C495 C496 1.398 . S
C495 C501 1.491 . S
C496 H487 0.950 . S
C496 C495 1.398 . S
C496 C497 1.391 . S
C497 H485 0.950 . S
C497 C493 1.393 . S
C497 C496 1.391 . S
C498 H488 0.950 . S
C498 C499 1.386 . S
C498 C500 1.391 . S
C499 C498 1.386 . S
C499 C503 1.393 . S
C500 H489 0.950 . S
C500 C498 1.391 . S
C500 C501 1.400 . S
C501 C495 1.491 . S
C501 C500 1.400 . S
C501 C502 1.398 . S
C502 H490 0.950 . S
C502 C501 1.398 . S
C502 C503 1.391 . S
C503 H491 0.950 . S
C503 C499 1.393 . S
C503 C502 1.391 . S
H504 C512 0.950 . S
H505 C517 0.950 . S
H506 C514 0.950 . S
H507 C516 0.950 . S
H508 C518 0.960 . S
H509 C520 0.950 . S
H510 C522 0.950 . S
H511 C523 0.950 . S
C512 H504 0.950 . S
C512 C513 1.386 . S
C512 C514 1.391 . S
C513 C512 1.386 . S
C513 C517 1.393 . S
C514 H506 0.950 . S
C514 C512 1.391 . S
C514 C515 1.400 . S
C515 C514 1.400 . S
C515 C516 1.398 . S
C515 C521 1.491 . S
C516 H507 0.950 . S
C516 C515 1.398 . S
C516 C517 1.391 . S
C517 H505 0.950 . S
C517 C513 1.393 . S
C517 C516 1.391 . S
C518 H508 0.960 . S
C518 C519 1.386 . S
C518 C520 1.391 . S
C519 C518 1.386 . S
C519 C523 1.393 . S
C520 H509 0.950 . S
C520 C518 1.391 . S
C520 C521 1.400 . S
C521 C515 1.491 . S
C521 C520 1.400 . S
C521 C522 1.398 . S
C522 H510 0.950 . S
C522 C521 1.398 . S
C522 C523 1.391 . S
C523 H511 0.950 . S
C523 C519 1.393 . S
C523 C522 1.391 . S
H524 C532 0.950 . S
H525 C537 0.950 . S
H526 C534 0.950 . S
H527 C536 0.950 . S
H528 C538 0.950 . S
H529 C540 0.950 . S
H530 C542 0.950 . S
H531 C543 0.950 . S
C532 H524 0.950 . S
C532 C533 1.386 . S
C532 C534 1.391 . S
C533 C532 1.386 . S
C533 C537 1.393 . S
C534 H526 0.950 . S
C534 C532 1.391 . S
C534 C535 1.400 . S
C535 C534 1.400 . S
C535 C536 1.398 . S
C535 C541 1.491 . S
C536 H527 0.950 . S
C536 C535 1.398 . S
C536 C537 1.391 . S
C537 H525 0.950 . S
C537 C533 1.393 . S
C537 C536 1.391 . S
C538 H528 0.950 . S
C538 C539 1.386 . S
C538 C540 1.391 . S
C539 C538 1.386 . S
C539 C543 1.393 . S
C540 H529 0.950 . S
C540 C538 1.391 . S
C540 C541 1.400 . S
C541 C535 1.491 . S
C541 C540 1.400 . S
C541 C542 1.398 . S
C542 H530 0.950 . S
C542 C541 1.398 . S
C542 C543 1.391 . S
C543 H531 0.950 . S
C543 C539 1.393 . S
C543 C542 1.391 . S
H544 C552 0.950 . S
H545 C557 0.950 . S
H546 C554 0.950 . S
H547 C556 0.950 . S
H548 C558 0.950 . S
H549 C560 0.950 . S
H550 C562 0.950 . S
H551 C563 0.950 . S
C552 H544 0.950 . S
C552 C553 1.386 . S
C552 C554 1.391 . S
C553 C552 1.386 . S
C553 C557 1.393 . S
C554 H546 0.950 . S
C554 C552 1.391 . S
C554 C555 1.400 . S
C555 C554 1.400 . S
C555 C556 1.398 . S
C555 C561 1.491 . S
C556 H547 0.950 . S
C556 C555 1.398 . S
C556 C557 1.391 . S
C557 H545 0.950 . S
C557 C553 1.393 . S
C557 C556 1.391 . S
C558 H548 0.950 . S
C558 C559 1.386 . S
C558 C560 1.391 . S
C559 C558 1.386 . S
C559 C563 1.393 . S
C560 H549 0.950 . S
C560 C558 1.391 . S
C560 C561 1.400 . S
C561 C555 1.491 . S
C561 C560 1.400 . S
C561 C562 1.398 . S
C562 H550 0.950 . S
C562 C561 1.398 . S
C562 C563 1.391 . S
C563 H551 0.950 . S
C563 C559 1.393 . S
C563 C562 1.391 . S
H564 C572 0.950 . S
H565 C577 0.950 . S
H566 C574 0.950 . S
H567 C576 0.950 . S
H568 C578 0.950 . S
H569 C580 0.950 . S
H570 C582 0.950 . S
H571 C583 0.950 . S
C572 H564 0.950 . S
C572 C573 1.386 . S
C572 C574 1.391 . S
C573 C572 1.386 . S
C573 C577 1.393 . S
C574 H566 0.950 . S
C574 C572 1.391 . S
C574 C575 1.400 . S
C575 C574 1.400 . S
C575 C576 1.398 . S
C575 C581 1.491 . S
C576 H567 0.950 . S
C576 C575 1.398 . S
C576 C577 1.391 . S
C577 H565 0.950 . S
C577 C573 1.393 . S
C577 C576 1.391 . S
C578 H568 0.950 . S
C578 C579 1.386 . S
C578 C580 1.391 . S
C579 C578 1.386 . S
C579 C583 1.393 . S
C580 H569 0.950 . S
C580 C578 1.391 . S
C580 C581 1.400 . S
C581 C575 1.491 . S
C581 C580 1.400 . S
C581 C582 1.398 . S
C582 H570 0.950 . S
C582 C581 1.398 . S
C582 C583 1.391 . S
C583 H571 0.950 . S
C583 C579 1.393 . S
C583 C582 1.391 . S
H584 C592 0.950 . S
H585 C597 0.950 . S
H586 C594 0.950 . S
H587 C596 0.950 . S
H588 C598 0.950 . S
H589 C600 0.950 . S
H590 C602 0.950 . S
H591 C603 0.950 . S
C592 H584 0.950 . S
C592 C593 1.386 . S
C592 C594 1.391 . S
C593 C592 1.386 . S
C593 C597 1.393 . S
C594 H586 0.950 . S
C594 C592 1.391 . S
C594 C595 1.400 . S
C595 C594 1.400 . S
C595 C596 1.398 . S
C595 C601 1.491 . S
C596 H587 0.950 . S
C596 C595 1.398 . S
C596 C597 1.391 . S
C597 H585 0.950 . S
C597 C593 1.393 . S
C597 C596 1.391 . S
C598 H588 0.950 . S
C598 C599 1.386 . S
C598 C600 1.391 . S
C599 C598 1.386 . S
C599 C603 1.393 . S
C600 H589 0.950 . S
C600 C598 1.391 . S
C600 C601 1.400 . S
C601 C595 1.491 . S
C601 C600 1.400 . S
C601 C602 1.398 . S
C602 H590 0.950 . S
C602 C601 1.398 . S
C602 C603 1.391 . S
C603 H591 0.950 . S
C603 C599 1.393 . S
C603 C602 1.391 . S
H604 C612 0.950 . S
H605 C617 0.950 . S
H606 C614 0.950 . S
H607 C616 0.950 . S
H608 C618 0.950 . S
H609 C620 0.950 . S
H610 C622 0.950 . S
H611 C623 0.950 . S
C612 H604 0.950 . S
C612 C613 1.386 . S
C612 C614 1.391 . S
C613 C612 1.386 . S
C613 C617 1.393 . S
C614 H606 0.950 . S
C614 C612 1.391 . S
C614 C615 1.400 . S
C615 C614 1.400 . S
C615 C616 1.398 . S
C615 C621 1.491 . S
C616 H607 0.950 . S
C616 C615 1.398 . S
C616 C617 1.391 . S
C617 H605 0.950 . S
C617 C613 1.393 . S
C617 C616 1.391 . S
C618 H608 0.950 . S
C618 C619 1.386 . S
C618 C620 1.391 . S
C619 C618 1.386 . S
C619 C623 1.393 . S
C620 H609 0.950 . S
C620 C618 1.391 . S
C620 C621 1.400 . S
C621 C615 1.491 . S
C621 C620 1.400 . S
C621 C622 1.398 . S
C622 H610 0.950 . S
C622 C621 1.398 . S
C622 C623 1.391 . S
C623 H611 0.950 . S
C623 C619 1.393 . S
C623 C622 1.391 . S
H624 C632 0.950 . S
H625 C637 0.950 . S
H626 C634 0.950 . S
H627 C636 0.950 . S
H628 C638 0.950 . S
H629 C640 0.950 . S
H630 C642 0.950 . S
H631 C643 0.950 . S
C632 H624 0.950 . S
C632 C633 1.386 . S
C632 C634 1.391 . S
C633 C632 1.386 . S
C633 C637 1.393 . S
C634 H626 0.950 . S
C634 C632 1.391 . S
C634 C635 1.400 . S
C635 C634 1.400 . S
C635 C636 1.398 . S
C635 C641 1.491 . S
C636 H627 0.950 . S
C636 C635 1.398 . S
C636 C637 1.391 . S
C637 H625 0.950 . S
C637 C633 1.393 . S
C637 C636 1.391 . S
C638 H628 0.950 . S
C638 C639 1.386 . S
C638 C640 1.391 . S
C639 C638 1.386 . S
C639 C643 1.393 . S
C640 H629 0.950 . S
C640 C638 1.391 . S
C640 C641 1.400 . S
C641 C635 1.491 . S
C641 C640 1.400 . S
C641 C642 1.398 . S
C642 H630 0.950 . S
C642 C641 1.398 . S
C642 C643 1.391 . S
C643 H631 0.950 . S
C643 C639 1.393 . S
C643 C642 1.391 . S
H644 C652 0.950 . S
H645 C657 0.950 . S
H646 C654 0.950 . S
H647 C656 0.950 . S
H648 C658 0.950 . S
H649 C660 0.950 . S
H650 C662 0.950 . S
H651 C663 0.950 . S
C652 H644 0.950 . S
C652 C653 1.386 1_455 S
C652 C654 1.391 . S
C653 C652 1.386 1_655 S
C653 C657 1.393 1_545 S
C654 H646 0.950 . S
C654 C652 1.391 . S
C654 C655 1.400 1_455 S
C655 C654 1.400 1_655 S
C655 C656 1.398 1_545 S
C655 C661 1.491 . S
C656 H647 0.950 . S
C656 C655 1.398 1_565 S
C656 C657 1.391 . S
C657 H645 0.950 . S
C657 C653 1.393 1_565 S
C657 C656 1.391 . S
C658 H648 0.950 . S
C658 C659 1.386 1_565 S
C658 C660 1.391 . S
C659 C658 1.386 1_545 S
C659 C663 1.393 1_655 S
C660 H649 0.950 . S
C660 C658 1.391 . S
C660 C661 1.400 1_565 S
C661 C655 1.491 . S
C661 C660 1.400 1_545 S
C661 C662 1.398 1_655 S
C662 H650 0.950 . S
C662 C661 1.398 1_455 S
C662 C663 1.391 . S
C663 H651 0.950 . S
C663 C659 1.393 1_455 S
C663 C662 1.391 . S
H664 C672 0.932 1_565 S
H665 C677 0.950 . S
H666 C674 0.950 1_565 S
H667 C676 0.950 . S
H668 C678 0.950 . S
H669 C680 0.950 . S
H670 C682 0.950 1_565 S
H671 C683 0.950 1_565 S
C672 H664 0.932 1_545 S
C672 C673 1.386 . S
C672 C674 1.391 . S
C673 C672 1.386 . S
C673 C677 1.393 . S
C674 H666 0.950 1_545 S
C674 C672 1.391 . S
C674 C675 1.400 . S
C675 C674 1.400 . S
C675 C676 1.398 . S
C675 C681 1.491 . S
C676 H667 0.950 . S
C676 C675 1.398 . S
C676 C677 1.391 . S
C677 H665 0.950 . S
C677 C673 1.393 . S
C677 C676 1.391 . S
C678 H668 0.950 . S
C678 C679 1.386 . S
C678 C680 1.391 . S
C679 C678 1.386 . S
C679 C683 1.393 . S
C680 H669 0.950 . S
C680 C678 1.391 . S
C680 C681 1.400 . S
C681 C675 1.491 . S
C681 C680 1.400 . S
C681 C682 1.398 . S
C682 H670 0.950 1_545 S
C682 C681 1.398 . S
C682 C683 1.391 . S
C683 H671 0.950 1_545 S
C683 C679 1.393 . S
C683 C682 1.391 . S
H684 C692 0.950 . S
H685 C697 0.950 . S
H686 C694 0.950 . S
H687 C696 0.950 . S
H688 C698 0.950 . S
H689 C700 0.950 . S
H690 C702 0.950 . S
H691 C703 0.950 . S
C692 H684 0.950 . S
C692 C693 1.386 . S
C692 C694 1.391 . S
C693 C692 1.386 . S
C693 C697 1.393 . S
C694 H686 0.950 . S
C694 C692 1.391 . S
C694 C695 1.400 . S
C695 C694 1.400 . S
C695 C696 1.398 . S
C695 C701 1.491 . S
C696 H687 0.950 . S
C696 C695 1.398 . S
C696 C697 1.391 . S
C697 H685 0.950 . S
C697 C693 1.393 . S
C697 C696 1.391 . S
C698 H688 0.950 . S
C698 C699 1.386 . S
C698 C700 1.391 . S
C699 C698 1.386 . S
C699 C703 1.393 . S
C700 H689 0.950 . S
C700 C698 1.391 . S
C700 C701 1.400 . S
C701 C695 1.491 . S
C701 C700 1.400 . S
C701 C702 1.398 . S
C702 H690 0.950 . S
C702 C701 1.398 . S
C702 C703 1.391 . S
C703 H691 0.950 . S
C703 C699 1.393 . S
C703 C702 1.391 . S
H704 C712 0.950 . S
H705 C717 0.950 . S
H706 C714 0.950 . S
H707 C716 0.950 . S
H708 C718 0.950 . S
H709 C720 0.950 . S
H710 C722 0.950 . S
H711 C723 0.950 . S
C712 H704 0.950 . S
C712 C713 1.386 . S
C712 C714 1.391 . S
C713 C712 1.386 . S
C713 C717 1.393 . S
C714 H706 0.950 . S
C714 C712 1.391 . S
C714 C715 1.400 . S
C715 C714 1.400 . S
C715 C716 1.398 . S
C715 C721 1.491 . S
C716 H707 0.950 . S
C716 C715 1.398 . S
C716 C717 1.391 . S
C717 H705 0.950 . S
C717 C713 1.393 . S
C717 C716 1.391 . S
C718 H708 0.950 . S
C718 C719 1.386 . S
C718 C720 1.391 . S
C719 C718 1.386 . S
C719 C723 1.393 . S
C720 H709 0.950 . S
C720 C718 1.391 . S
C720 C721 1.400 . S
C721 C715 1.491 . S
C721 C720 1.400 . S
C721 C722 1.398 . S
C722 H710 0.950 . S
C722 C721 1.398 . S
C722 C723 1.391 . S
C723 H711 0.950 . S
C723 C719 1.393 . S
C723 C722 1.391 . S
H724 C732 0.950 1_545 S
H725 C737 0.950 . S
H726 C734 0.950 1_545 S
H727 C736 0.950 . S
H728 C738 0.950 . S
H729 C740 0.950 . S
H730 C742 0.950 . S
H731 C743 0.950 . S
C732 H724 0.950 1_565 S
C732 C733 1.418 . S
C732 C734 1.391 . S
C733 C732 1.418 . S
C733 C737 1.364 1_554 S
C734 H726 0.950 1_565 S
C734 C732 1.391 . S
C734 C735 1.400 . S
C735 C734 1.400 . S
C735 C736 1.398 1_554 S
C735 C741 1.491 . S
C736 H727 0.950 . S
C736 C735 1.398 1_556 S
C736 C737 1.391 . S
C737 H725 0.950 . S
C737 C733 1.364 1_556 S
C737 C736 1.391 . S
C738 H728 0.950 . S
C738 C739 1.386 1_556 S
C738 C740 1.391 . S
C739 C738 1.386 1_554 S
C739 C743 1.393 . S
C740 H729 0.950 . S
C740 C738 1.391 . S
C740 C741 1.400 1_556 S
C741 C735 1.491 . S
C741 C740 1.400 1_554 S
C741 C742 1.398 . S
C742 H730 0.950 . S
C742 C741 1.398 . S
C742 C743 1.391 . S
C743 H731 0.950 . S
C743 C739 1.393 . S
C743 C742 1.391 . S
H744 C752 0.950 . S
H745 C757 0.950 . S
H746 C754 0.950 . S
H747 C756 0.950 . S
H748 C758 0.950 . S
H749 C760 0.950 . S
H750 C762 0.950 . S
H751 C763 0.950 . S
C752 H744 0.950 . S
C752 C753 1.386 . S
C752 C754 1.391 . S
C753 C752 1.386 . S
C753 C757 1.393 . S
C754 H746 0.950 . S
C754 C752 1.391 . S
C754 C755 1.400 . S
C755 C754 1.400 . S
C755 C756 1.398 . S
C755 C761 1.491 . S
C756 H747 0.950 . S
C756 C755 1.398 . S
C756 C757 1.391 . S
C757 H745 0.950 . S
C757 C753 1.393 . S
C757 C756 1.391 . S
C758 H748 0.950 . S
C758 C759 1.386 . S
C758 C760 1.391 . S
C759 C758 1.386 . S
C759 C763 1.393 . S
C760 H749 0.950 . S
C760 C758 1.391 . S
C760 C761 1.400 . S
C761 C755 1.491 . S
C761 C760 1.400 . S
C761 C762 1.398 . S
C762 H750 0.950 . S
C762 C761 1.398 . S
C762 C763 1.391 . S
C763 H751 0.950 . S
C763 C759 1.393 . S
C763 C762 1.391 . S
H764 C772 0.950 . S
H765 C777 0.950 . S
H766 C774 0.950 . S
H767 C776 0.950 . S
H768 C778 0.950 . S
H769 C780 0.950 . S
H770 C782 0.950 . S
H771 C783 0.950 . S
C772 H764 0.950 . S
C772 C773 1.386 . S
C772 C774 1.391 . S
C773 C772 1.386 . S
C773 C777 1.393 . S
C774 H766 0.950 . S
C774 C772 1.391 . S
C774 C775 1.400 . S
C775 C774 1.400 . S
C775 C776 1.398 . S
C775 C781 1.491 . S
C776 H767 0.950 . S
C776 C775 1.398 . S
C776 C777 1.391 . S
C777 H765 0.950 . S
C777 C773 1.393 . S
C777 C776 1.391 . S
C778 H768 0.950 . S
C778 C779 1.386 . S
C778 C780 1.391 . S
C779 C778 1.386 . S
C779 C783 1.393 . S
C780 H769 0.950 . S
C780 C778 1.391 . S
C780 C781 1.400 . S
C781 C775 1.491 . S
C781 C780 1.400 . S
C781 C782 1.398 . S
C782 H770 0.950 . S
C782 C781 1.398 . S
C782 C783 1.391 . S
C783 H771 0.950 . S
C783 C779 1.393 . S
C783 C782 1.391 . S
H784 C792 0.950 . S
H785 C797 0.950 . S
H786 C794 0.950 . S
H787 C796 0.950 . S
H788 C798 0.950 . S
H789 C800 0.950 . S
H790 C802 0.950 . S
H791 C803 0.950 . S
C792 H784 0.950 . S
C792 C793 1.386 . S
C792 C794 1.391 . S
C793 C792 1.386 . S
C793 C797 1.393 . S
C794 H786 0.950 . S
C794 C792 1.391 . S
C794 C795 1.400 . S
C795 C794 1.400 . S
C795 C796 1.398 . S
C795 C801 1.491 . S
C796 H787 0.950 . S
C796 C795 1.398 . S
C796 C797 1.391 . S
C797 H785 0.950 . S
C797 C793 1.393 . S
C797 C796 1.391 . S
C798 H788 0.950 . S
C798 C799 1.386 . S
C798 C800 1.391 . S
C799 C798 1.386 . S
C799 C803 1.393 . S
C800 H789 0.950 . S
C800 C798 1.391 . S
C800 C801 1.400 . S
C801 C795 1.491 . S
C801 C800 1.400 . S
C801 C802 1.398 . S
C802 H790 0.950 . S
C802 C801 1.398 . S
C802 C803 1.391 . S
C803 H791 0.950 . S
C803 C799 1.393 . S
C803 C802 1.391 . S
H804 C812 0.950 . S
H805 C817 0.950 . S
H806 C814 0.950 . S
H807 C816 0.950 . S
H808 C818 0.950 1_554 S
H809 C820 0.950 1_554 S
H810 C822 0.950 . S
H811 C823 0.950 . S
C812 H804 0.950 . S
C812 C813 1.386 1_655 S
C812 C814 1.391 . S
C813 C812 1.386 1_455 S
C813 C817 1.393 . S
C814 H806 0.950 . S
C814 C812 1.391 . S
C814 C815 1.400 1_655 S
C815 C814 1.400 1_455 S
C815 C816 1.398 . S
C815 C821 1.491 . S
C816 H807 0.950 . S
C816 C815 1.398 . S
C816 C817 1.391 . S
C817 H805 0.950 . S
C817 C813 1.393 . S
C817 C816 1.391 . S
C818 H808 0.950 1_556 S
C818 C819 1.386 . S
C818 C820 1.391 . S
C819 C818 1.386 . S
C819 C823 1.393 1_455 S
C820 H809 0.950 1_556 S
C820 C818 1.391 . S
C820 C821 1.400 . S
C821 C815 1.491 . S
C821 C820 1.400 . S
C821 C822 1.398 1_455 S
C822 H810 0.950 . S
C822 C821 1.398 1_655 S
C822 C823 1.391 . S
C823 H811 0.950 . S
C823 C819 1.393 1_655 S
C823 C822 1.391 . S
H824 C832 0.950 . S
H825 C837 0.950 . S
H826 C834 0.950 . S
H827 C836 0.950 . S
H828 C838 0.950 . S
H829 C840 0.950 . S
H830 C842 0.950 . S
H831 C843 0.950 . S
C832 H824 0.950 . S
C832 C833 1.386 . S
C832 C834 1.391 . S
C833 C832 1.386 . S
C833 C837 1.393 . S
C834 H826 0.950 . S
C834 C832 1.391 . S
C834 C835 1.400 . S
C835 C834 1.400 . S
C835 C836 1.398 . S
C835 C841 1.491 . S
C836 H827 0.950 . S
C836 C835 1.398 . S
C836 C837 1.391 . S
C837 H825 0.950 . S
C837 C833 1.393 . S
C837 C836 1.391 . S
C838 H828 0.950 . S
C838 C839 1.386 . S
C838 C840 1.391 . S
C839 C838 1.386 . S
C839 C843 1.393 . S
C840 H829 0.950 . S
C840 C838 1.391 . S
C840 C841 1.400 . S
C841 C835 1.491 . S
C841 C840 1.400 . S
C841 C842 1.398 . S
C842 H830 0.950 . S
C842 C841 1.398 . S
C842 C843 1.391 . S
C843 H831 0.950 . S
C843 C839 1.393 . S
C843 C842 1.391 . S
H844 C852 0.950 . S
H845 C857 0.950 . S
H846 C854 0.950 . S
H847 C856 0.950 . S
H848 C858 0.950 . S
H849 C860 0.950 . S
H850 C862 0.950 . S
H851 C863 0.950 . S
C852 H844 0.950 . S
C852 C853 1.386 . S
C852 C854 1.391 . S
C853 C852 1.386 . S
C853 C857 1.393 . S
C854 H846 0.950 . S
C854 C852 1.391 . S
C854 C855 1.400 . S
C855 C854 1.400 . S
C855 C856 1.398 . S
C855 C861 1.491 . S
C856 H847 0.950 . S
C856 C855 1.398 . S
C856 C857 1.391 . S
C857 H845 0.950 . S
C857 C853 1.393 . S
C857 C856 1.391 . S
C858 H848 0.950 . S
C858 C859 1.386 . S
C858 C860 1.391 . S
C859 C858 1.386 . S
C859 C863 1.393 . S
C860 H849 0.950 . S
C860 C858 1.391 . S
C860 C861 1.400 . S
C861 C855 1.491 . S
C861 C860 1.400 . S
C861 C862 1.398 . S
C862 H850 0.950 . S
C862 C861 1.398 . S
C862 C863 1.391 . S
C863 H851 0.950 . S
C863 C859 1.393 . S
C863 C862 1.391 . S
H864 C872 0.950 . S
H865 C877 0.950 . S
H866 C874 0.950 . S
H867 C876 0.950 . S
H868 C878 0.950 . S
H869 C880 0.950 . S
H870 C882 0.950 . S
H871 C883 0.950 . S
C872 H864 0.950 . S
C872 C873 1.386 . S
C872 C874 1.391 . S
C873 C872 1.386 . S
C873 C877 1.393 . S
C874 H866 0.950 . S
C874 C872 1.391 . S
C874 C875 1.400 . S
C875 C874 1.400 . S
C875 C876 1.398 . S
C875 C881 1.491 . S
C876 H867 0.950 . S
C876 C875 1.398 . S
C876 C877 1.391 . S
C877 H865 0.950 . S
C877 C873 1.393 . S
C877 C876 1.391 . S
C878 H868 0.950 . S
C878 C879 1.386 . S
C878 C880 1.391 . S
C879 C878 1.386 . S
C879 C883 1.393 . S
C880 H869 0.950 . S
C880 C878 1.391 . S
C880 C881 1.400 . S
C881 C875 1.491 . S
C881 C880 1.400 . S
C881 C882 1.398 . S
C882 H870 0.950 . S
C882 C881 1.398 . S
C882 C883 1.391 . S
C883 H871 0.950 . S
C883 C879 1.393 . S
C883 C882 1.391 . S
C413 C21 1.557 . S
C419 C323 1.454 . S
C433 C61 1.527 . S
C439 C357 1.444 . S
C459 C369 1.345 . S
C453 C82 1.440 . S
C473 C135 1.522 . S
C479 C403 1.410 . S
C499 C360 1.425 . S
C493 C15 1.538 . S
C519 C340 1.423 . S
C513 C42 1.528 . S
C539 C387 1.377 . S
C533 C101 1.490 . S
C559 C378 1.369 . S
C553 C122 1.473 . S
C573 C2 1.558 . S
C579 C386 1.439 . S
C599 C348 1.366 . S
C593 C95 1.457 . S
C613 C141 1.512 . S
C619 C324 1.429 . S
C633 C55 1.507 . S
C639 C381 1.394 . S
C659 C339 1.717 . S
C653 C181 1.745 1_545 S
C673 C202 1.721 . S
C679 C361 1.691 . S
C693 C255 1.761 . S
C699 C366 1.688 . S
C713 C295 1.796 . S
C719 C399 1.721 . S
C733 C175 1.784 1_554 S
C739 C344 1.709 . S
C759 C336 1.752 . S
C753 C221 1.776 . S
C779 C390 1.668 . S
C773 C242 1.684 . S
C799 C382 1.705 . S
C793 C301 1.858 . S
C813 C162 1.687 1_455 S
C819 C402 1.686 . S
C839 C345 1.725 . S
C833 C261 1.723 . S
C859 C327 1.687 . S
C853 C282 1.812 . S
C873 C215 1.814 . S
C879 C365 1.739 . S
