# Generated by pormake.
# Topology ocu, (6,8)-cn, num edge types: 1
# Building blocks:
#     Node 0, Type 0, BuildingBlock: KUMBUR_clean_sbu_1, # of connection points: 6
#     Node 1, Type 0, BuildingBlock: KUMBUR_clean_sbu_1, # of connection points: 6
#     Node 2, Type 0, BuildingBlock: KUMBUR_clean_sbu_1, # of connection points: 6
#     Node 3, Type 0, BuildingBlock: KUMBUR_clean_sbu_1, # of connection points: 6
#     Node 4, Type 0, BuildingBlock: KUMBUR_clean_sbu_1, # of connection points: 6
#     Node 5, Type 0, BuildingBlock: KUMBUR_clean_sbu_1, # of connection points: 6
#     Node 6, Type 0, BuildingBlock: KUMBUR_clean_sbu_1, # of connection points: 6
#     Node 7, Type 0, BuildingBlock: KUMBUR_clean_sbu_1, # of connection points: 6
#     Node 8, Type 1, BuildingBlock: AJUNOK_clean_sbu_0, # of connection points: 8
#     Node 9, Type 1, BuildingBlock: AJUNOK_clean_sbu_0, # of connection points: 8
#     Node 10, Type 1, BuildingBlock: AJUNOK_clean_sbu_0, # of connection points: 8
#     Node 11, Type 1, BuildingBlock: AJUNOK_clean_sbu_0, # of connection points: 8
#     Node 12, Type 1, BuildingBlock: AJUNOK_clean_sbu_0, # of connection points: 8
#     Node 13, Type 1, BuildingBlock: AJUNOK_clean_sbu_0, # of connection points: 8
#     Edge 14, Type (0, 1), BuildingBlock: MIFKUJ_clean_linker_0, # of connection points: 2
#     Edge 15, Type (0, 1), BuildingBlock: MIFKUJ_clean_linker_0, # of connection points: 2
#     Edge 16, Type (0, 1), BuildingBlock: MIFKUJ_clean_linker_0, # of connection points: 2
#     Edge 17, Type (0, 1), BuildingBlock: MIFKUJ_clean_linker_0, # of connection points: 2
#     Edge 18, Type (0, 1), BuildingBlock: MIFKUJ_clean_linker_0, # of connection points: 2
#     Edge 19, Type (0, 1), BuildingBlock: MIFKUJ_clean_linker_0, # of connection points: 2
#     Edge 20, Type (0, 1), BuildingBlock: MIFKUJ_clean_linker_0, # of connection points: 2
#     Edge 21, Type (0, 1), BuildingBlock: MIFKUJ_clean_linker_0, # of connection points: 2
#     Edge 22, Type (0, 1), BuildingBlock: MIFKUJ_clean_linker_0, # of connection points: 2
#     Edge 23, Type (0, 1), BuildingBlock: MIFKUJ_clean_linker_0, # of connection points: 2
#     Edge 24, Type (0, 1), BuildingBlock: MIFKUJ_clean_linker_0, # of connection points: 2
#     Edge 25, Type (0, 1), BuildingBlock: MIFKUJ_clean_linker_0, # of connection points: 2
#     Edge 26, Type (0, 1), BuildingBlock: MIFKUJ_clean_linker_0, # of connection points: 2
#     Edge 27, Type (0, 1), BuildingBlock: MIFKUJ_clean_linker_0, # of connection points: 2
#     Edge 28, Type (0, 1), BuildingBlock: MIFKUJ_clean_linker_0, # of connection points: 2
#     Edge 29, Type (0, 1), BuildingBlock: MIFKUJ_clean_linker_0, # of connection points: 2
#     Edge 30, Type (0, 1), BuildingBlock: MIFKUJ_clean_linker_0, # of connection points: 2
#     Edge 31, Type (0, 1), BuildingBlock: MIFKUJ_clean_linker_0, # of connection points: 2
#     Edge 32, Type (0, 1), BuildingBlock: MIFKUJ_clean_linker_0, # of connection points: 2
#     Edge 33, Type (0, 1), BuildingBlock: MIFKUJ_clean_linker_0, # of connection points: 2
#     Edge 34, Type (0, 1), BuildingBlock: MIFKUJ_clean_linker_0, # of connection points: 2
#     Edge 35, Type (0, 1), BuildingBlock: MIFKUJ_clean_linker_0, # of connection points: 2
#     Edge 36, Type (0, 1), BuildingBlock: MIFKUJ_clean_linker_0, # of connection points: 2
#     Edge 37, Type (0, 1), BuildingBlock: MIFKUJ_clean_linker_0, # of connection points: 2
#     Edge 38, Type (0, 1), BuildingBlock: MIFKUJ_clean_linker_0, # of connection points: 2
#     Edge 39, Type (0, 1), BuildingBlock: MIFKUJ_clean_linker_0, # of connection points: 2
#     Edge 40, Type (0, 1), BuildingBlock: MIFKUJ_clean_linker_0, # of connection points: 2
#     Edge 41, Type (0, 1), BuildingBlock: MIFKUJ_clean_linker_0, # of connection points: 2
#     Edge 42, Type (0, 1), BuildingBlock: MIFKUJ_clean_linker_0, # of connection points: 2
#     Edge 43, Type (0, 1), BuildingBlock: MIFKUJ_clean_linker_0, # of connection points: 2
#     Edge 44, Type (0, 1), BuildingBlock: MIFKUJ_clean_linker_0, # of connection points: 2
#     Edge 45, Type (0, 1), BuildingBlock: MIFKUJ_clean_linker_0, # of connection points: 2
#     Edge 46, Type (0, 1), BuildingBlock: MIFKUJ_clean_linker_0, # of connection points: 2
#     Edge 47, Type (0, 1), BuildingBlock: MIFKUJ_clean_linker_0, # of connection points: 2
#     Edge 48, Type (0, 1), BuildingBlock: MIFKUJ_clean_linker_0, # of connection points: 2
#     Edge 49, Type (0, 1), BuildingBlock: MIFKUJ_clean_linker_0, # of connection points: 2
#     Edge 50, Type (0, 1), BuildingBlock: MIFKUJ_clean_linker_0, # of connection points: 2
#     Edge 51, Type (0, 1), BuildingBlock: MIFKUJ_clean_linker_0, # of connection points: 2
#     Edge 52, Type (0, 1), BuildingBlock: MIFKUJ_clean_linker_0, # of connection points: 2
#     Edge 53, Type (0, 1), BuildingBlock: MIFKUJ_clean_linker_0, # of connection points: 2
#     Edge 54, Type (0, 1), BuildingBlock: MIFKUJ_clean_linker_0, # of connection points: 2
#     Edge 55, Type (0, 1), BuildingBlock: MIFKUJ_clean_linker_0, # of connection points: 2
#     Edge 56, Type (0, 1), BuildingBlock: MIFKUJ_clean_linker_0, # of connection points: 2
#     Edge 57, Type (0, 1), BuildingBlock: MIFKUJ_clean_linker_0, # of connection points: 2
#     Edge 58, Type (0, 1), BuildingBlock: MIFKUJ_clean_linker_0, # of connection points: 2
#     Edge 59, Type (0, 1), BuildingBlock: MIFKUJ_clean_linker_0, # of connection points: 2
#     Edge 60, Type (0, 1), BuildingBlock: MIFKUJ_clean_linker_0, # of connection points: 2
#     Edge 61, Type (0, 1), BuildingBlock: MIFKUJ_clean_linker_0, # of connection points: 2
# Relax obj value: 0.122
# Max RMSD: 0.192
# Mean RMSD: 0.161
data_MOF--net-ocu--node1-KUMBUR_clean_sbu_1--node2-AJUNOK_clean_sbu_0--edge1-MIFKUJ_clean_linker_0
_symmetry_space_group_name_H-M    P1
_symmetry_Int_Tables_number       1
_symmetry_cell_setting            triclinic
loop_
_symmetry_equiv_pos_as_xyz
'x, y, z'
_cell_length_a     54.767465
_cell_length_b     55.333939
_cell_length_c     48.674439
_cell_angle_alpha  102.34905
_cell_angle_beta   88.527732
_cell_angle_gamma 109.18743
loop_
_atom_site_label
_atom_site_type_symbol
_atom_site_fract_x
_atom_site_fract_y
_atom_site_fract_z
_atom_type_partial_charge
Tb0 Tb 0.23064 0.23902 0.21488 0.0
C1 C 0.31063 0.3038 0.3225 0.0
N2 N 0.31468 0.29216 0.29602 0.0
C3 C 0.3532 0.32877 0.29508 0.0
C4 C 0.32754 0.32862 0.33614 0.0
C5 C 0.33626 0.30386 0.28268 0.0
C6 C 0.3487 0.34132 0.32182 0.0
C7 C 0.28612 0.30081 0.36463 0.0
C8 C 0.29012 0.29018 0.33655 0.0
C9 C 0.30265 0.3257 0.37813 0.0
C10 C 0.32323 0.33963 0.36387 0.0
Tb11 Tb 0.28571 0.25112 0.27883 0.0
N12 N 0.27408 0.26645 0.32261 0.0
C13 C 0.26551 0.28611 0.37821 0.0
C14 C 0.25426 0.25185 0.33587 0.0
C15 C 0.24955 0.26149 0.36377 0.0
H16 H 0.34103 0.2939 0.26278 0.0
H17 H 0.23368 0.2499 0.37414 0.0
H18 H 0.17195 0.20037 0.22556 0.0
H19 H 0.28788 0.2379 0.12313 0.0
H20 H 0.2421 0.23285 0.32491 0.0
H21 H 0.26178 0.29355 0.39979 0.0
H22 H 0.27594 0.25689 0.1699 0.0
H23 H 0.37003 0.33804 0.28423 0.0
H24 H 0.29976 0.33429 0.39962 0.0
H25 H 0.33597 0.35871 0.37464 0.0
H26 H 0.14205 0.15635 0.20369 0.0
H27 H 0.36208 0.36045 0.33153 0.0
H28 H 0.2608 0.19389 0.09739 0.0
N29 N 0.20069 0.19922 0.19573 0.0
C30 C 0.20611 0.18676 0.17031 0.0
C31 C 0.16022 0.16447 0.1943 0.0
C32 C 0.18908 0.16219 0.15621 0.0
C33 C 0.17751 0.18906 0.20712 0.0
C34 C 0.16621 0.15077 0.16892 0.0
N35 N 0.24368 0.22334 0.17177 0.0
C36 C 0.26445 0.2375 0.15929 0.0
C37 C 0.23365 0.18809 0.13047 0.0
C38 C 0.22798 0.19954 0.15755 0.0
C39 C 0.25567 0.20201 0.11812 0.0
C40 C 0.27102 0.22687 0.13257 0.0
H41 H 0.15263 0.1319 0.15881 0.0
H42 H 0.18223 0.13136 0.11846 0.0
H43 H 0.22134 0.15403 0.09594 0.0
O44 O 0.23054 0.26779 0.19221 0.0
O45 O 0.25637 0.21423 0.20734 0.0
O46 O 0.29428 0.23413 0.23622 0.0
O47 O 0.19537 0.24374 0.20637 0.0
O48 O 0.2629 0.27503 0.23052 0.0
O49 O 0.29937 0.26778 0.24247 0.0
O50 O 0.28768 0.22215 0.30025 0.0
O51 O 0.25856 0.27445 0.28755 0.0
O52 O 0.22127 0.25537 0.25741 0.0
O53 O 0.32207 0.24904 0.28822 0.0
O54 O 0.25335 0.21468 0.2645 0.0
O55 O 0.21635 0.22026 0.24997 0.0
C56 C 0.28036 0.21643 0.2147 0.0
C57 C 0.1911 0.25912 0.16587 0.0
C58 C 0.16931 0.27754 0.13666 0.0
C59 C 0.15951 0.25283 0.11846 0.0
C60 C 0.181 0.23459 0.1473 0.0
C61 C 0.1653 0.2315 0.12381 0.0
C62 C 0.18504 0.28064 0.16051 0.0
C63 C 0.28735 0.27783 0.22744 0.0
C64 C 0.20545 0.26181 0.19232 0.0
C65 C 0.19499 0.1503 0.12955 0.0
C66 C 0.21721 0.16325 0.11668 0.0
C67 C 0.23477 0.27256 0.27953 0.0
C68 C 0.32693 0.23187 0.32743 0.0
C69 C 0.34932 0.21302 0.35562 0.0
C70 C 0.35859 0.23737 0.37455 0.0
C71 C 0.33645 0.256 0.34681 0.0
C72 C 0.3334 0.21027 0.33202 0.0
C73 C 0.35212 0.25867 0.37019 0.0
C74 C 0.22846 0.21084 0.26588 0.0
C75 C 0.31285 0.2298 0.30095 0.0
H76 H 0.14699 0.24996 0.10031 0.0
H77 H 0.18466 0.21764 0.15127 0.0
H78 H 0.1573 0.21241 0.10989 0.0
H79 H 0.1922 0.29957 0.17498 0.0
H80 H 0.3711 0.23994 0.3926 0.0
H81 H 0.33241 0.273 0.34352 0.0
H82 H 0.32666 0.19165 0.31697 0.0
H83 H 0.35962 0.27746 0.38476 0.0
Tb84 Tb 0.73132 0.26717 0.25388 0.0
C85 C 0.80339 0.20707 0.18752 0.0
N86 N 0.77983 0.19811 0.19834 0.0
C87 C 0.76576 0.1631 0.15747 0.0
C88 C 0.80868 0.19497 0.16056 0.0
C89 C 0.76145 0.17576 0.18431 0.0
C90 C 0.78936 0.17292 0.14538 0.0
C91 C 0.84699 0.23833 0.19302 0.0
C92 C 0.82237 0.22835 0.2037 0.0
C93 C 0.85219 0.22663 0.16596 0.0
C94 C 0.8331 0.20498 0.14979 0.0
Tb95 Tb 0.77562 0.21966 0.24261 0.0
N96 N 0.81658 0.23945 0.22968 0.0
C97 C 0.86564 0.25977 0.20985 0.0
C98 C 0.83498 0.26 0.24638 0.0
C99 C 0.85963 0.2706 0.23667 0.0
H100 H 0.74345 0.1674 0.19376 0.0
H101 H 0.87408 0.28692 0.25006 0.0
H102 H 0.76058 0.31267 0.31189 0.0
H103 H 0.63143 0.20879 0.2296 0.0
H104 H 0.83118 0.26808 0.26737 0.0
H105 H 0.8848 0.26783 0.20245 0.0
H106 H 0.67718 0.22911 0.21918 0.0
H107 H 0.75094 0.14566 0.14623 0.0
H108 H 0.87097 0.2341 0.1574 0.0
H109 H 0.83749 0.19601 0.12907 0.0
H110 H 0.75071 0.32519 0.36102 0.0
H111 H 0.79267 0.16304 0.1246 0.0
H112 H 0.61732 0.21847 0.27829 0.0
N113 N 0.72451 0.28227 0.30023 0.0
C114 C 0.69986 0.27221 0.30813 0.0
C115 C 0.73633 0.30984 0.34653 0.0
C116 C 0.69279 0.27974 0.3359 0.0
C117 C 0.74224 0.30199 0.31863 0.0
C118 C 0.7116 0.29837 0.35535 0.0
N119 N 0.68909 0.24752 0.26176 0.0
C120 C 0.67134 0.23233 0.2406 0.0
C121 C 0.65547 0.24423 0.29501 0.0
C122 C 0.6814 0.25473 0.28805 0.0
C123 C 0.63744 0.22701 0.27382 0.0
C124 C 0.64536 0.22134 0.24637 0.0
H125 H 0.70698 0.30469 0.3769 0.0
H126 H 0.66138 0.27434 0.36449 0.0
H127 H 0.6287 0.2432 0.32866 0.0
O128 O 0.71442 0.27514 0.22017 0.0
O129 O 0.71782 0.23093 0.26971 0.0
O130 O 0.75654 0.22797 0.28169 0.0
O131 O 0.72428 0.30301 0.25994 0.0
O132 O 0.7269 0.23804 0.21444 0.0
O133 O 0.73525 0.20357 0.22739 0.0
O134 O 0.80203 0.20617 0.26049 0.0
O135 O 0.77769 0.2442 0.21169 0.0
O136 O 0.76961 0.28089 0.23733 0.0
O137 O 0.76266 0.18025 0.24611 0.0
O138 O 0.78639 0.25186 0.27964 0.0
O139 O 0.77104 0.28521 0.27318 0.0
C140 C 0.73154 0.22189 0.28399 0.0
C141 C 0.72256 0.31924 0.219 0.0
C142 C 0.7108 0.33872 0.18329 0.0
C143 C 0.7343 0.35963 0.1896 0.0
C144 C 0.74588 0.34025 0.22531 0.0
C145 C 0.75173 0.36031 0.21048 0.0
C146 C 0.70522 0.31855 0.19802 0.0
C147 C 0.72437 0.21308 0.2106 0.0
C148 C 0.71491 0.29806 0.23431 0.0
C149 C 0.66711 0.26889 0.34321 0.0
C150 C 0.64848 0.25121 0.32279 0.0
C151 C 0.78011 0.26928 0.2162 0.0
C152 C 0.79007 0.1612 0.2664 0.0
C153 C 0.81085 0.14531 0.29897 0.0
C154 C 0.79624 0.11943 0.286 0.0
C155 C 0.77561 0.13524 0.25374 0.0
C156 C 0.80803 0.16619 0.28878 0.0
C157 C 0.77888 0.11448 0.26339 0.0
C158 C 0.78702 0.27648 0.28512 0.0
C159 C 0.78483 0.18291 0.25772 0.0
H160 H 0.73893 0.3757 0.17883 0.0
H161 H 0.75935 0.34125 0.24174 0.0
H162 H 0.76967 0.37658 0.2154 0.0
H163 H 0.68724 0.30221 0.19322 0.0
H164 H 0.79837 0.10304 0.29333 0.0
H165 H 0.76163 0.13102 0.23653 0.0
H166 H 0.81895 0.18621 0.299 0.0
H167 H 0.7677 0.09449 0.25352 0.0
Tb168 Tb 0.75801 0.72306 0.27212 0.0
C169 C 0.81783 0.79224 0.18615 0.0
N170 N 0.80399 0.79933 0.20822 0.0
C171 C 0.83699 0.84156 0.22089 0.0
C172 C 0.84231 0.80924 0.18129 0.0
C173 C 0.81264 0.82417 0.22467 0.0
C174 C 0.85206 0.83393 0.1994 0.0
C175 C 0.81989 0.76082 0.14352 0.0
C176 C 0.80673 0.76843 0.1673 0.0
C177 C 0.84471 0.77725 0.13927 0.0
C178 C 0.85588 0.8014 0.15808 0.0
Tb179 Tb 0.76507 0.76813 0.21192 0.0
N180 N 0.78274 0.75289 0.17206 0.0
C181 C 0.8075 0.73711 0.12456 0.0
C182 C 0.76986 0.7306 0.15277 0.0
C183 C 0.7823 0.72207 0.12908 0.0
H184 H 0.80078 0.8308 0.24063 0.0
H185 H 0.77248 0.70391 0.11434 0.0
H186 H 0.71798 0.66435 0.24131 0.0
H187 H 0.7691 0.77679 0.38019 0.0
H188 H 0.75026 0.71909 0.15598 0.0
H189 H 0.81703 0.73048 0.10611 0.0
H190 H 0.78314 0.76546 0.33183 0.0
H191 H 0.84398 0.86098 0.23435 0.0
H192 H 0.85523 0.77168 0.12121 0.0
H193 H 0.87481 0.81412 0.15415 0.0
H194 H 0.67676 0.63294 0.25219 0.0
H195 H 0.8708 0.84756 0.19638 0.0
H196 H 0.72605 0.75086 0.3935 0.0
N197 N 0.72052 0.69219 0.27965 0.0
C198 C 0.7106 0.69751 0.30521 0.0
C199 C 0.68598 0.65113 0.26718 0.0
C200 C 0.6874 0.6801 0.31249 0.0
C201 C 0.70921 0.66889 0.26105 0.0
C202 C 0.67484 0.65691 0.29286 0.0
N203 N 0.74793 0.7347 0.31767 0.0
C204 C 0.76418 0.75452 0.33737 0.0
C205 C 0.71613 0.72481 0.35233 0.0
C206 C 0.72482 0.71946 0.32491 0.0
C207 C 0.73203 0.74608 0.3722 0.0
C208 C 0.75635 0.76076 0.3648 0.0
H209 H 0.65697 0.64301 0.29766 0.0
H210 H 0.66009 0.67295 0.3453 0.0
H211 H 0.68521 0.71217 0.38014 0.0
O212 O 0.78775 0.72338 0.29954 0.0
O213 O 0.7442 0.75705 0.28681 0.0
O214 O 0.74145 0.77641 0.24859 0.0
O215 O 0.76768 0.6889 0.26844 0.0
O216 O 0.79081 0.75438 0.26209 0.0
O217 O 0.78215 0.78937 0.25346 0.0
O218 O 0.72959 0.76367 0.19179 0.0
O219 O 0.7885 0.74139 0.20881 0.0
O220 O 0.76527 0.70639 0.22869 0.0
O221 O 0.76375 0.79537 0.18834 0.0
O222 O 0.74009 0.72815 0.20645 0.0
O223 O 0.72289 0.7156 0.24651 0.0
C224 C 0.73562 0.77219 0.27439 0.0
C225 C 0.78198 0.68167 0.31042 0.0
C226 C 0.80157 0.66184 0.34059 0.0
C227 C 0.77656 0.64573 0.34503 0.0
C228 C 0.75741 0.66549 0.31582 0.0
C229 C 0.75477 0.64769 0.3329 0.0
C230 C 0.80416 0.67978 0.32291 0.0
C231 C 0.79293 0.77907 0.26937 0.0
C232 C 0.78436 0.69859 0.28986 0.0
C233 C 0.67803 0.68594 0.33939 0.0
C234 C 0.69235 0.70827 0.35925 0.0
C235 C 0.78361 0.71718 0.21257 0.0
C236 C 0.72467 0.80366 0.18792 0.0
C237 C 0.69803 0.82595 0.17144 0.0
C238 C 0.70022 0.84173 0.19861 0.0
C239 C 0.72699 0.81999 0.21472 0.0
C240 C 0.71005 0.80657 0.16617 0.0
C241 C 0.71444 0.83856 0.22011 0.0
C242 C 0.72015 0.71917 0.22108 0.0
C243 C 0.73907 0.78502 0.18241 0.0
H244 H 0.77377 0.63111 0.35754 0.0
H245 H 0.74013 0.66591 0.30618 0.0
H246 H 0.73571 0.635 0.33638 0.0
H247 H 0.82323 0.69202 0.31874 0.0
H248 H 0.69109 0.85672 0.2031 0.0
H249 H 0.73876 0.81855 0.23143 0.0
H250 H 0.70868 0.79446 0.14519 0.0
H251 H 0.71605 0.85069 0.24097 0.0
Tb252 Tb 0.2339 0.75958 0.23891 0.0
C253 C 0.28871 0.69896 0.30038 0.0
N254 N 0.29598 0.72374 0.29614 0.0
C255 C 0.32065 0.73995 0.3401 0.0
C256 C 0.29772 0.69353 0.32444 0.0
C257 C 0.31191 0.74417 0.31536 0.0
C258 C 0.31374 0.71446 0.34455 0.0
C259 C 0.2632 0.65317 0.28461 0.0
C260 C 0.27175 0.67905 0.28065 0.0
C261 C 0.27417 0.64725 0.30695 0.0
C262 C 0.2909 0.66743 0.32725 0.0
Tb263 Tb 0.28645 0.72669 0.2522 0.0
N264 N 0.26283 0.68536 0.25829 0.0
C265 C 0.24354 0.63423 0.26638 0.0
C266 C 0.24162 0.66766 0.24254 0.0
C267 C 0.23197 0.6418 0.24601 0.0
H268 H 0.31867 0.76351 0.31114 0.0
H269 H 0.21553 0.62777 0.23303 0.0
H270 H 0.18801 0.72089 0.1898 0.0
H271 H 0.2896 0.86284 0.25532 0.0
H272 H 0.23125 0.6732 0.22804 0.0
H273 H 0.23626 0.61412 0.2688 0.0
H274 H 0.27172 0.82027 0.26861 0.0
H275 H 0.33334 0.75622 0.35531 0.0
H276 H 0.26958 0.62715 0.30882 0.0
H277 H 0.29841 0.66264 0.34501 0.0
H278 H 0.17008 0.72356 0.1451 0.0
H279 H 0.32102 0.71113 0.3634 0.0
H280 H 0.27672 0.86818 0.20923 0.0
N281 N 0.21562 0.75947 0.19689 0.0
C282 C 0.22411 0.78233 0.18801 0.0
C283 C 0.18538 0.7402 0.15688 0.0
C284 C 0.21429 0.78473 0.16257 0.0
C285 C 0.19574 0.73877 0.1822 0.0
C286 C 0.19491 0.76317 0.14683 0.0
N287 N 0.25052 0.80068 0.22957 0.0
C288 C 0.26647 0.82194 0.24816 0.0
C289 C 0.25133 0.82794 0.19674 0.0
C290 C 0.24212 0.80368 0.20494 0.0
C291 C 0.26908 0.84925 0.21482 0.0
C292 C 0.27644 0.8463 0.24081 0.0
H293 H 0.18683 0.76423 0.12721 0.0
H294 H 0.21658 0.81083 0.13442 0.0
H295 H 0.24924 0.84864 0.16423 0.0
O296 O 0.2181 0.78253 0.26891 0.0
O297 O 0.27161 0.77483 0.22153 0.0
O298 O 0.29021 0.74181 0.21361 0.0
O299 O 0.1934 0.74869 0.24003 0.0
O300 O 0.25696 0.77481 0.27899 0.0
O301 O 0.29535 0.76877 0.26561 0.0
O302 O 0.31081 0.70406 0.24302 0.0
O303 O 0.25812 0.72957 0.28381 0.0
O304 O 0.2257 0.7226 0.2524 0.0
O305 O 0.32674 0.74609 0.25575 0.0
O306 O 0.26459 0.70657 0.2117 0.0
O307 O 0.23126 0.72404 0.20766 0.0
C308 C 0.28707 0.76295 0.20811 0.0
C309 C 0.17805 0.76042 0.28492 0.0
C310 C 0.1616 0.77686 0.32882 0.0
C311 C 0.14423 0.75175 0.32869 0.0
C312 C 0.16086 0.73506 0.28461 0.0
C313 C 0.14419 0.73075 0.30672 0.0
C314 C 0.17843 0.78095 0.30718 0.0
C315 C 0.28221 0.78113 0.28238 0.0
C316 C 0.19447 0.76723 0.26173 0.0
C317 C 0.22375 0.80867 0.15398 0.0
C318 C 0.24231 0.83021 0.17098 0.0
C319 C 0.23335 0.7215 0.27721 0.0
C320 C 0.34601 0.7255 0.21879 0.0
C321 C 0.34851 0.70754 0.16909 0.0
C322 C 0.37297 0.72661 0.16913 0.0
C323 C 0.37054 0.74427 0.21884 0.0
C324 C 0.33477 0.70805 0.19359 0.0
C325 C 0.38374 0.7451 0.19389 0.0
C326 C 0.24412 0.70766 0.19861 0.0
C327 C 0.33135 0.72463 0.24441 0.0
H328 H 0.13071 0.74853 0.34524 0.0
H329 H 0.15993 0.71885 0.26722 0.0
H330 H 0.13084 0.71129 0.30646 0.0
H331 H 0.19113 0.8007 0.30701 0.0
H332 H 0.38422 0.72652 0.15051 0.0
H333 H 0.37928 0.75836 0.238 0.0
H334 H 0.3155 0.69394 0.1931 0.0
H335 H 0.40266 0.75962 0.19391 0.0
Tb336 Tb 0.23419 0.77185 0.75094 0.0
C337 C 0.30455 0.70448 0.69631 0.0
N338 N 0.28042 0.69685 0.70639 0.0
C339 C 0.2667 0.66081 0.66626 0.0
C340 C 0.31009 0.69165 0.6698 0.0
C341 C 0.26219 0.67407 0.69271 0.0
C342 C 0.29052 0.67004 0.65441 0.0
C343 C 0.34976 0.73186 0.70422 0.0
C344 C 0.3243 0.72401 0.71344 0.0
C345 C 0.35498 0.72015 0.67719 0.0
C346 C 0.33521 0.70005 0.66005 0.0
Tb347 Tb 0.27607 0.72074 0.74987 0.0
N348 N 0.31854 0.73515 0.73937 0.0
C349 C 0.36924 0.75102 0.72259 0.0
C350 C 0.33765 0.75293 0.75784 0.0
C351 C 0.36319 0.76138 0.74965 0.0
H352 H 0.24411 0.66574 0.70206 0.0
H353 H 0.37818 0.77584 0.7642 0.0
H354 H 0.26649 0.81475 0.81013 0.0
H355 H 0.13202 0.72161 0.72882 0.0
H356 H 0.33313 0.76058 0.77878 0.0
H357 H 0.38903 0.75762 0.71627 0.0
H358 H 0.17794 0.73853 0.71705 0.0
H359 H 0.25186 0.64329 0.65518 0.0
H360 H 0.37437 0.72609 0.6696 0.0
H361 H 0.33971 0.69064 0.63959 0.0
H362 H 0.25839 0.8254 0.85983 0.0
H363 H 0.294 0.65961 0.634 0.0
H364 H 0.11976 0.73097 0.77829 0.0
N365 N 0.22938 0.78549 0.79842 0.0
C366 C 0.20461 0.77713 0.80679 0.0
C367 C 0.24324 0.81112 0.84534 0.0
C368 C 0.19864 0.78407 0.83514 0.0
C369 C 0.24808 0.80407 0.81693 0.0
C370 C 0.21854 0.80058 0.85465 0.0
N371 N 0.19128 0.75668 0.75945 0.0
C372 C 0.17265 0.74261 0.73867 0.0
C373 C 0.15901 0.75351 0.7943 0.0
C374 C 0.18487 0.76264 0.78662 0.0
C375 C 0.13986 0.73844 0.77323 0.0
C376 C 0.1467 0.7331 0.74527 0.0
H377 H 0.21475 0.80637 0.87662 0.0
H378 H 0.16804 0.78066 0.86453 0.0
H379 H 0.13339 0.75292 0.82901 0.0
O380 O 0.21379 0.78505 0.72448 0.0
O381 O 0.21455 0.73519 0.76436 0.0
O382 O 0.25079 0.73224 0.78143 0.0
O383 O 0.24454 0.81259 0.75407 0.0
O384 O 0.2298 0.74053 0.71333 0.0
O385 O 0.23881 0.70543 0.72584 0.0
O386 O 0.29788 0.71201 0.77887 0.0
O387 O 0.29418 0.75423 0.7301 0.0
O388 O 0.25868 0.76303 0.71649 0.0
O389 O 0.26306 0.68291 0.75797 0.0
O390 O 0.27763 0.7534 0.78458 0.0
O391 O 0.2739 0.78833 0.76924 0.0
C392 C 0.22567 0.72351 0.77802 0.0
C393 C 0.22302 0.83125 0.72537 0.0
C394 C 0.20097 0.84724 0.69435 0.0
C395 C 0.21589 0.8731 0.70672 0.0
C396 C 0.23785 0.85723 0.7377 0.0
C397 C 0.23422 0.87804 0.7284 0.0
C398 C 0.20445 0.82635 0.70371 0.0
C399 C 0.22662 0.71535 0.71059 0.0
C400 C 0.22712 0.80934 0.73478 0.0
C401 C 0.17289 0.77518 0.84293 0.0
C402 C 0.15315 0.75969 0.82264 0.0
C403 C 0.28373 0.76738 0.71727 0.0
C404 C 0.2963 0.66818 0.77055 0.0
C405 C 0.32336 0.64878 0.79077 0.0
C406 C 0.31988 0.62967 0.76572 0.0
C407 C 0.2932 0.64924 0.74537 0.0
C408 C 0.31166 0.66805 0.79301 0.0
C409 C 0.30504 0.63009 0.74302 0.0
C410 C 0.28677 0.77812 0.78318 0.0
C411 C 0.28307 0.68768 0.77464 0.0
H412 H 0.21329 0.88941 0.69962 0.0
H413 H 0.25228 0.86147 0.75444 0.0
H414 H 0.24567 0.89802 0.73797 0.0
H415 H 0.1929 0.80642 0.69392 0.0
H416 H 0.32875 0.61457 0.76371 0.0
H417 H 0.28146 0.64898 0.72771 0.0
H418 H 0.31395 0.68256 0.81256 0.0
H419 H 0.30249 0.61541 0.72367 0.0
Tb420 Tb 0.25702 0.22324 0.77239 0.0
C421 C 0.31394 0.29048 0.68244 0.0
N422 N 0.30142 0.29805 0.70558 0.0
C423 C 0.33497 0.34004 0.71629 0.0
C424 C 0.33789 0.30727 0.67588 0.0
C425 C 0.31092 0.32304 0.72154 0.0
C426 C 0.3487 0.33199 0.69363 0.0
C427 C 0.31313 0.25905 0.63875 0.0
C428 C 0.30176 0.2666 0.664 0.0
C429 C 0.33721 0.27551 0.63254 0.0
C430 C 0.3497 0.2994 0.65118 0.0
Tb431 Tb 0.26273 0.26738 0.7113 0.0
N432 N 0.27817 0.25133 0.67024 0.0
C433 C 0.29954 0.23556 0.62007 0.0
C434 C 0.26413 0.22924 0.65139 0.0
C435 C 0.27482 0.22075 0.6263 0.0
H436 H 0.3 0.33015 0.73827 0.0
H437 H 0.26388 0.20295 0.61164 0.0
H438 H 0.21943 0.164 0.73961 0.0
H439 H 0.26312 0.2734 0.8815 0.0
H440 H 0.24473 0.21808 0.65562 0.0
H441 H 0.30767 0.22905 0.60048 0.0
H442 H 0.27963 0.26344 0.83419 0.0
H443 H 0.34269 0.35955 0.72942 0.0
H444 H 0.34603 0.27029 0.61299 0.0
H445 H 0.36808 0.31205 0.6458 0.0
H446 H 0.17771 0.13167 0.74776 0.0
H447 H 0.36712 0.3454 0.68935 0.0
H448 H 0.2191 0.24703 0.89179 0.0
N449 N 0.21961 0.19118 0.77783 0.0
C450 C 0.208 0.19604 0.80241 0.0
C451 C 0.18595 0.14976 0.76322 0.0
C452 C 0.18447 0.17808 0.80816 0.0
C453 C 0.20954 0.16798 0.7587 0.0
C454 C 0.17318 0.15498 0.78789 0.0
N455 N 0.24469 0.23344 0.81732 0.0
C456 C 0.26017 0.25251 0.83825 0.0
C457 C 0.21104 0.22227 0.84983 0.0
C458 C 0.22107 0.21786 0.82295 0.0
C459 C 0.2261 0.24299 0.87085 0.0
C460 C 0.25096 0.25792 0.86514 0.0
H461 H 0.15505 0.1407 0.79146 0.0
H462 H 0.15538 0.1698 0.83907 0.0
H463 H 0.17868 0.20849 0.87556 0.0
O464 O 0.28823 0.22627 0.79931 0.0
O465 O 0.24309 0.257 0.78717 0.0
O466 O 0.24103 0.27699 0.74925 0.0
O467 O 0.26678 0.18955 0.77226 0.0
O468 O 0.28942 0.25466 0.76155 0.0
O469 O 0.28134 0.28955 0.7519 0.0
O470 O 0.22589 0.26571 0.69669 0.0
O471 O 0.28628 0.24066 0.70765 0.0
O472 O 0.26493 0.20612 0.72928 0.0
O473 O 0.26059 0.2916 0.68433 0.0
O474 O 0.23882 0.22701 0.70603 0.0
O475 O 0.22179 0.21577 0.74677 0.0
C476 C 0.23525 0.27281 0.77509 0.0
C477 C 0.28402 0.18712 0.81517 0.0
C478 C 0.30392 0.16519 0.84227 0.0
C479 C 0.28016 0.15572 0.85457 0.0
C480 C 0.26061 0.17718 0.82785 0.0
C481 C 0.25875 0.1618 0.84751 0.0
C482 C 0.30593 0.18131 0.82274 0.0
C483 C 0.29161 0.27942 0.76847 0.0
C484 C 0.28477 0.20123 0.79225 0.0
C485 C 0.17359 0.18322 0.83434 0.0
C486 C 0.18687 0.20526 0.85514 0.0
C487 C 0.28268 0.21707 0.71266 0.0
C488 C 0.22532 0.30657 0.68905 0.0
C489 C 0.19913 0.33084 0.67517 0.0
C490 C 0.2096 0.35092 0.69914 0.0
C491 C 0.2355 0.32707 0.71251 0.0
C492 C 0.20724 0.30854 0.67015 0.0
C493 C 0.22753 0.34897 0.71761 0.0
C494 C 0.21902 0.21739 0.72055 0.0
C495 C 0.23558 0.28453 0.68336 0.0
H496 H 0.27811 0.1434 0.86965 0.0
H497 H 0.24347 0.18062 0.82203 0.0
H498 H 0.24048 0.15414 0.85693 0.0
H499 H 0.32403 0.18837 0.81273 0.0
H500 H 0.2043 0.36853 0.70341 0.0
H501 H 0.25004 0.32632 0.72668 0.0
H502 H 0.19963 0.29292 0.65175 0.0
H503 H 0.23555 0.36469 0.73577 0.0
Tb504 Tb 0.73556 0.25724 0.73651 0.0
C505 C 0.78426 0.19159 0.79701 0.0
N506 N 0.795 0.21643 0.79343 0.0
C507 C 0.81409 0.23051 0.84034 0.0
C508 C 0.78737 0.18535 0.82302 0.0
C509 C 0.81045 0.23573 0.81418 0.0
C510 C 0.80225 0.20526 0.8449 0.0
C511 C 0.7602 0.14606 0.77715 0.0
C512 C 0.7707 0.17227 0.77424 0.0
C513 C 0.76233 0.13989 0.80336 0.0
C514 C 0.77587 0.15948 0.82623 0.0
Tb515 Tb 0.78598 0.22322 0.75124 0.0
N516 N 0.76915 0.17889 0.74901 0.0
C517 C 0.74868 0.12664 0.75341 0.0
C518 C 0.75925 0.15961 0.72547 0.0
C519 C 0.74843 0.1334 0.72745 0.0
H520 H 0.81967 0.25528 0.81067 0.0
H521 H 0.74039 0.11832 0.70878 0.0
H522 H 0.696 0.21978 0.6827 0.0
H523 H 0.77462 0.36295 0.77032 0.0
H524 H 0.76018 0.1637 0.70479 0.0
H525 H 0.74098 0.10624 0.75464 0.0
H526 H 0.75914 0.31771 0.7775 0.0
H527 H 0.82598 0.24594 0.85693 0.0
H528 H 0.7541 0.11989 0.80598 0.0
H529 H 0.77779 0.15433 0.84613 0.0
H530 H 0.68298 0.22438 0.63663 0.0
H531 H 0.80509 0.20123 0.8652 0.0
H532 H 0.76919 0.37144 0.7233 0.0
N533 N 0.71907 0.25985 0.69545 0.0
C534 C 0.72745 0.28382 0.68899 0.0
C535 C 0.69568 0.24125 0.65096 0.0
C536 C 0.72066 0.28745 0.66285 0.0
C537 C 0.70309 0.23866 0.67715 0.0
C538 C 0.70474 0.26567 0.64358 0.0
N539 N 0.7472 0.30043 0.73436 0.0
C540 C 0.75734 0.32102 0.75668 0.0
C541 C 0.75007 0.33044 0.70419 0.0
C542 C 0.74214 0.30489 0.70918 0.0
C543 C 0.7627 0.35148 0.72625 0.0
C544 C 0.76582 0.34677 0.7528 0.0
H545 H 0.69896 0.26756 0.62323 0.0
H546 H 0.72486 0.31589 0.63701 0.0
H547 H 0.75052 0.3536 0.67334 0.0
O548 O 0.72463 0.26668 0.77781 0.0
O549 O 0.76255 0.25662 0.70336 0.0
O550 O 0.79774 0.25375 0.72635 0.0
O551 O 0.69741 0.25731 0.74087 0.0
O552 O 0.77267 0.27983 0.75904 0.0
O553 O 0.77829 0.25233 0.78465 0.0
O554 O 0.81616 0.2075 0.74584 0.0
O555 O 0.75482 0.22278 0.78026 0.0
O556 O 0.72286 0.2196 0.74938 0.0
O557 O 0.82413 0.24947 0.7545 0.0
O558 O 0.76571 0.20749 0.70907 0.0
O559 O 0.7271 0.21603 0.71689 0.0
C560 C 0.78735 0.2605 0.70627 0.0
C561 C 0.68069 0.26493 0.78706 0.0
C562 C 0.66955 0.28389 0.83294 0.0
C563 C 0.64412 0.26623 0.82779 0.0
C564 C 0.6552 0.24768 0.78149 0.0
C565 C 0.63697 0.24826 0.80201 0.0
C566 C 0.68775 0.28282 0.81267 0.0
C567 C 0.77991 0.27576 0.78236 0.0
C568 C 0.70096 0.26203 0.76829 0.0
C569 C 0.72964 0.31268 0.65709 0.0
C570 C 0.74432 0.33415 0.67775 0.0
C571 C 0.73023 0.21539 0.7728 0.0
C572 C 0.84814 0.23206 0.7202 0.0
C573 C 0.85209 0.21441 0.67061 0.0
C574 C 0.87544 0.23513 0.67089 0.0
C575 C 0.87149 0.25252 0.7203 0.0
C576 C 0.83815 0.21372 0.69507 0.0
C577 C 0.88487 0.25423 0.69556 0.0
C578 C 0.7415 0.2039 0.7016 0.0
C579 C 0.83333 0.23037 0.74571 0.0
H580 H 0.62968 0.26681 0.84328 0.0
H581 H 0.6497 0.23325 0.76184 0.0
H582 H 0.61734 0.2348 0.79795 0.0
H583 H 0.70755 0.29604 0.8169 0.0
H584 H 0.88691 0.2361 0.65245 0.0
H585 H 0.87917 0.26725 0.73937 0.0
H586 H 0.81965 0.19838 0.69464 0.0
H587 H 0.9029 0.27004 0.69566 0.0
Tb588 Tb 0.73316 0.73934 0.71285 0.0
C589 C 0.80055 0.80608 0.82392 0.0
N590 N 0.80808 0.79508 0.79875 0.0
C591 C 0.84484 0.83411 0.80097 0.0
C592 C 0.81469 0.83185 0.83818 0.0
C593 C 0.83059 0.80836 0.78784 0.0
C594 C 0.83674 0.84601 0.82609 0.0
C595 C 0.77153 0.8016 0.86263 0.0
C596 C 0.77902 0.79119 0.83607 0.0
C597 C 0.78542 0.82735 0.87663 0.0
C598 C 0.80682 0.84247 0.86437 0.0
Tb599 Tb 0.78318 0.75232 0.78174 0.0
N600 N 0.76527 0.76655 0.82169 0.0
C601 C 0.75045 0.78566 0.8745 0.0
C602 C 0.7448 0.7509 0.83319 0.0
C603 C 0.73692 0.7603 0.85967 0.0
H604 H 0.83835 0.79907 0.76958 0.0
H605 H 0.7207 0.74785 0.86885 0.0
H606 H 0.67455 0.69813 0.72017 0.0
H607 H 0.78654 0.74633 0.61898 0.0
H608 H 0.73484 0.73115 0.82212 0.0
H609 H 0.74487 0.79253 0.89536 0.0
H610 H 0.77444 0.76251 0.66712 0.0
H611 H 0.86244 0.84457 0.79203 0.0
H612 H 0.77984 0.83573 0.89702 0.0
H613 H 0.81744 0.86223 0.87555 0.0
H614 H 0.64815 0.65247 0.69861 0.0
H615 H 0.84808 0.86584 0.83639 0.0
H616 H 0.76534 0.69998 0.59471 0.0
N617 N 0.70587 0.69813 0.69359 0.0
C618 C 0.71317 0.68623 0.66888 0.0
C619 C 0.6667 0.66147 0.69041 0.0
C620 C 0.69799 0.66087 0.6546 0.0
C621 C 0.68206 0.68697 0.70323 0.0
C622 C 0.675 0.6481 0.66632 0.0
N623 N 0.74788 0.72551 0.67027 0.0
C624 C 0.76555 0.74225 0.65677 0.0
C625 C 0.7407 0.69046 0.62909 0.0
C626 C 0.73441 0.70068 0.65636 0.0
C627 C 0.76011 0.70699 0.6158 0.0
C628 C 0.77214 0.73318 0.62944 0.0
H629 H 0.6628 0.62859 0.65604 0.0
H630 H 0.69413 0.6302 0.6172 0.0
H631 H 0.73138 0.65622 0.59473 0.0
O632 O 0.73299 0.77382 0.70069 0.0
O633 O 0.76452 0.72164 0.7044 0.0
O634 O 0.79119 0.72687 0.74393 0.0
O635 O 0.70171 0.73793 0.68807 0.0
O636 O 0.76516 0.77446 0.73148 0.0
O637 O 0.80091 0.76771 0.74591 0.0
O638 O 0.78518 0.72594 0.80673 0.0
O639 O 0.75455 0.77378 0.78471 0.0
O640 O 0.71806 0.75209 0.75385 0.0
O641 O 0.81869 0.75776 0.80171 0.0
O642 O 0.75313 0.71474 0.76504 0.0
O643 O 0.71681 0.71896 0.7466 0.0
C644 C 0.78311 0.71697 0.71719 0.0
C645 C 0.69139 0.77624 0.69217 0.0
C646 C 0.66363 0.79685 0.67434 0.0
C647 C 0.65071 0.79692 0.6997 0.0
C648 C 0.67811 0.7765 0.71714 0.0
C649 C 0.65803 0.78696 0.72096 0.0
C650 C 0.68431 0.78672 0.6708 0.0
C651 C 0.78964 0.77696 0.72919 0.0
C652 C 0.71055 0.76251 0.68721 0.0
C653 C 0.7054 0.64977 0.62836 0.0
C654 C 0.72661 0.6646 0.61553 0.0
C655 C 0.73036 0.76986 0.77634 0.0
C656 C 0.82611 0.71967 0.80752 0.0
C657 C 0.8496 0.69477 0.82514 0.0
C658 C 0.8599 0.69028 0.79855 0.0
C659 C 0.83711 0.71518 0.78138 0.0
C660 C 0.83231 0.70926 0.82954 0.0
C661 C 0.85348 0.70023 0.77683 0.0
C662 C 0.728 0.70933 0.76329 0.0
C663 C 0.81001 0.73694 0.8121 0.0
H664 H 0.63491 0.80477 0.70309 0.0
H665 H 0.68289 0.76795 0.73332 0.0
H666 H 0.64783 0.78697 0.7403 0.0
H667 H 0.69416 0.7861 0.65119 0.0
H668 H 0.87315 0.6792 0.79466 0.0
H669 H 0.8334 0.72363 0.76451 0.0
H670 H 0.82447 0.71311 0.85006 0.0
H671 H 0.86146 0.69667 0.75643 0.0
Cd672 Cd 0.99047 0.96796 0.52716 0.0
Cd673 Cd 0.02367 0.02316 0.46657 0.0
C674 C 0.04283 0.95631 0.52443 0.0
N675 N 0.0178 0.94471 0.51474 0.0
C676 C 0.02185 0.90231 0.50669 0.0
C677 C 0.04708 0.91367 0.51883 0.0
C678 C 0.0581 0.94102 0.52632 0.0
C679 C 0.00737 0.91843 0.50478 0.0
H680 H 0.05028 0.97716 0.53296 0.0
H681 H 0.98713 0.90988 0.49793 0.0
C682 C 0.98456 0.96711 0.45294 0.0
C683 C 0.96944 0.03203 0.46428 0.0
C684 C 0.95357 0.04642 0.4608 0.0
C685 C 0.96324 0.07391 0.46875 0.0
C686 C 0.98785 0.08609 0.48248 0.0
C687 C 1.0031 0.07092 0.48541 0.0
N688 N 0.99396 0.04458 0.47542 0.0
H689 H 0.96292 0.01111 0.45595 0.0
H690 H 0.02295 0.08032 0.4935 0.0
C691 C 0.04665 0.97725 0.44478 0.0
N692 N 0.05029 -0.00114 0.46571 0.0
C693 C 0.08481 0.99111 0.48702 0.0
C694 C 0.08025 0.96772 0.46675 0.0
C695 C 0.06134 0.96117 0.44503 0.0
C696 C 0.06957 0.00663 0.4859 0.0
H697 H 0.0325 0.97248 0.42775 0.0
H698 H 0.073 0.02481 0.50113 0.0
C699 C 0.03103 0.02226 0.53861 0.0
C700 C 0.95643 0.93526 0.55849 0.0
N701 N 0.96491 0.99306 0.52972 0.0
C702 C 0.96814 0.01176 0.55368 0.0
C703 C 0.95204 0.02676 0.5583 0.0
C704 C 0.93188 0.0217 0.53847 0.0
C705 C 0.92898 0.00234 0.51382 0.0
C706 C 0.94589 0.98805 0.50986 0.0
C707 C 0.05936 0.05666 0.43802 0.0
O708 O 0.99115 0.97411 0.47893 0.0
O709 O 0.99324 0.98391 0.43786 0.0
O710 O 0.02145 0.01499 0.51366 0.0
O711 O 0.02361 0.00623 0.55467 0.0
O712 O 0.95258 0.93128 0.53199 0.0
O713 O 0.97659 0.95371 0.56975 0.0
O714 O 0.06167 0.06078 0.46475 0.0
O715 O 0.03998 0.03786 0.42558 0.0
H716 H 0.9828 0.0146 0.56957 0.0
H717 H 0.94335 0.9726 0.49137 0.0
H718 H 0.01284 0.88121 0.50094 0.0
H719 H 0.0774 0.95036 0.53616 0.0
H720 H 0.93486 0.03627 0.44982 0.0
H721 H 0.99588 0.10722 0.4891 0.0
H722 H 0.09958 -0.00292 0.50378 0.0
H723 H 0.05821 0.94407 0.42806 0.0
H724 H 0.95511 0.04187 0.57738 0.0
H725 H 0.91347 -0.00219 0.49822 0.0
Cd726 Cd 0.4806 0.99036 0.03975 0.0
Cd727 Cd 0.54016 0.00559 0.95939 0.0
C728 C 0.53153 0.98062 0.06445 0.0
N729 N 0.51008 0.96929 0.04679 0.0
C730 C 0.51939 0.92902 0.03498 0.0
C731 C 0.54177 0.94023 0.05286 0.0
C732 C 0.54783 0.96643 0.06763 0.0
C733 C 0.50383 0.94401 0.03218 0.0
H734 H 0.53591 0.00055 0.07632 0.0
H735 H 0.4865 0.93542 0.01853 0.0
C736 C 0.48273 0.96702 0.96497 0.0
C737 C 0.49385 0.01601 0.9264 0.0
C738 C 0.47686 0.02887 0.92124 0.0
C739 C 0.4761 0.05145 0.94064 0.0
C740 C 0.49246 0.06026 0.96506 0.0
C741 C 0.50902 0.04673 0.96943 0.0
N742 N 0.50941 0.02498 0.95031 0.0
H743 H 0.49488 -0.00089 0.91105 0.0
H744 H 0.52195 0.05389 0.98789 0.0
C745 C 0.55269 0.95544 0.91868 0.0
N746 N 0.56141 0.97333 0.94331 0.0
C747 C 0.59716 0.95753 0.94632 0.0
C748 C 0.58885 0.93899 0.92067 0.0
C749 C 0.56604 0.93813 0.90705 0.0
C750 C 0.58321 0.97452 0.9572 0.0
H751 H 0.53566 0.95502 0.90756 0.0
H752 H 0.59013 0.98904 0.97655 0.0
C753 C 0.53493 0.03155 0.03111 0.0
C754 C 0.44596 0.95201 0.06431 0.0
N755 N 0.45801 0.02148 0.05337 0.0
C756 C 0.46071 0.03439 0.08084 0.0
C757 C 0.44608 0.05073 0.09112 0.0
C758 C 0.42826 0.05411 0.0731 0.0
C759 C 0.42616 0.0407 0.04466 0.0
C760 C 0.44115 0.02442 0.03526 0.0
C761 C 0.57284 0.04588 0.93567 0.0
O762 O 0.48887 0.98049 0.98972 0.0
O763 O 0.49918 0.97034 0.946 0.0
O764 O 0.53134 0.01266 0.00994 0.0
O765 O 0.51903 0.02912 0.05074 0.0
O766 O 0.44104 0.95362 0.03939 0.0
O767 O 0.46619 0.96888 0.07768 0.0
O768 O 0.57739 0.0456 0.96115 0.0
O769 O 0.55461 0.02677 0.92165 0.0
H770 H 0.47381 0.03147 0.09506 0.0
H771 H 0.43896 0.01375 0.01357 0.0
H772 H 0.51403 0.90894 0.02316 0.0
H773 H 0.56466 0.97568 0.08204 0.0
H774 H 0.46497 0.02161 0.90187 0.0
H775 H 0.49251 0.07747 0.98067 0.0
H776 H 0.61433 0.959 0.958 0.0
H777 H 0.55887 0.92474 0.88705 0.0
H778 H 0.44826 0.05997 0.11329 0.0
H779 H 0.41306 0.0427 0.02968 0.0
Cd780 Cd 0.97824 0.48746 0.0366 0.0
Cd781 Cd 0.03896 0.50225 0.9588 0.0
C782 C 0.01818 0.47291 0.07319 0.0
N783 N 0.00872 0.46856 0.04639 0.0
C784 C 0.03163 0.43847 0.03018 0.0
C785 C 0.04123 0.44207 0.05776 0.0
C786 C 0.0346 0.45987 0.07936 0.0
C787 C 0.01523 0.45186 0.02499 0.0
H788 H 0.0126 0.48616 0.08987 0.0
H789 H 0.00718 0.44831 0.00393 0.0
C790 C 0.98031 0.46289 0.95891 0.0
C791 C 0.99315 0.5162 0.92876 0.0
C792 C 0.97678 0.53013 0.92482 0.0
C793 C 0.97822 0.55349 0.94409 0.0
C794 C 0.99612 0.56204 0.96721 0.0
C795 C 0.01183 0.54727 0.97061 0.0
N796 N 0.01009 0.52474 0.95157 0.0
H797 H 0.99253 0.49875 0.91331 0.0
H798 H 0.02571 0.55398 0.98829 0.0
C799 C 0.05889 0.45982 0.91528 0.0
N800 N 0.05944 0.46896 0.94364 0.0
C801 C 0.08733 0.44453 0.95029 0.0
C802 C 0.08762 0.43528 0.92092 0.0
C803 C 0.0727 0.44301 0.90355 0.0
C804 C 0.07322 0.46146 0.9612 0.0
H805 H 0.04813 0.4661 0.90154 0.0
H806 H 0.07391 0.46916 0.98367 0.0
C807 C 0.03564 0.52492 0.03289 0.0
C808 C 0.94261 0.45098 0.06376 0.0
N809 N 0.95751 0.52038 0.04693 0.0
C810 C 0.96735 0.54096 0.06913 0.0
C811 C 0.95377 0.55835 0.0793 0.0
C812 C 0.92953 0.55467 0.06679 0.0
C813 C 0.92016 0.53354 0.04341 0.0
C814 C 0.93441 0.51658 0.0339 0.0
C815 C 0.07345 0.53878 0.93237 0.0
O816 O 0.98364 0.47395 0.98498 0.0
O817 O 0.99914 0.46808 0.94283 0.0
O818 O 0.0288 0.51074 0.00842 0.0
O819 O 0.01942 0.52222 0.05206 0.0
O820 O 0.94331 0.44688 0.03711 0.0
O821 O 0.9577 0.47265 0.07776 0.0
O822 O 0.07877 0.53862 0.9577 0.0
O823 O 0.05296 0.52166 0.92002 0.0
H824 H 0.98531 0.54331 0.07983 0.0
H825 H 0.92655 0.49982 0.0167 0.0
H826 H 0.03594 0.42472 0.01295 0.0
H827 H 0.04182 0.46348 0.10087 0.0
H828 H 0.96367 0.52309 0.90637 0.0
H829 H 0.99794 0.57996 0.98255 0.0
H830 H 0.09859 0.43949 0.96474 0.0
H831 H 0.0717 0.43624 0.8809 0.0
H832 H 0.96178 0.57387 0.09765 0.0
H833 H 0.90178 0.52987 0.03273 0.0
Cd834 Cd 0.49154 0.46947 0.02956 0.0
Cd835 Cd 0.52371 0.52577 0.9682 0.0
C836 C 0.5432 0.45668 0.0263 0.0
N837 N 0.51766 0.4447 0.01898 0.0
C838 C 0.52107 0.40261 0.01695 0.0
C839 C 0.54708 0.4146 0.02662 0.0
C840 C 0.55839 0.44189 0.03037 0.0
C841 C 0.5065 0.41824 0.01341 0.0
H842 H 0.55127 0.4778 0.03134 0.0
H843 H 0.48589 0.4095 0.00848 0.0
C844 C 0.48537 0.46773 0.95443 0.0
C845 C 0.4708 0.53425 0.95993 0.0
C846 C 0.45465 0.54855 0.95757 0.0
C847 C 0.46134 0.57475 0.97241 0.0
C848 C 0.48328 0.58525 0.99104 0.0
C849 C 0.49913 0.57028 0.99245 0.0
N850 N 0.49291 0.54561 0.9764 0.0
H851 H 0.46673 0.51484 0.94687 0.0
H852 H 0.51731 0.57897 0.00462 0.0
C853 C 0.54945 0.4864 0.93421 0.0
N854 N 0.55013 0.50169 0.96023 0.0
C855 C 0.58362 0.48944 0.97685 0.0
C856 C 0.58253 0.47277 0.95063 0.0
C857 C 0.56566 0.47146 0.92889 0.0
C858 C 0.56733 0.50424 0.98105 0.0
H859 H 0.53638 0.48586 0.91766 0.0
H860 H 0.56854 0.51788 0.00073 0.0
C861 C 0.53289 0.52334 0.03951 0.0
C862 C 0.45663 0.43925 0.06231 0.0
N863 N 0.46756 0.49593 0.03055 0.0
C864 C 0.47136 0.51617 0.05314 0.0
C865 C 0.45532 0.53123 0.05635 0.0
C866 C 0.43485 0.52472 0.03651 0.0
C867 C 0.43171 0.50421 0.013 0.0
C868 C 0.44835 0.48973 0.01056 0.0
C869 C 0.55835 0.55959 0.93885 0.0
O870 O 0.4914 0.47371 0.98057 0.0
O871 O 0.49429 0.48532 0.94036 0.0
O872 O 0.52254 0.51642 0.01489 0.0
O873 O 0.52557 0.50746 0.05572 0.0
O874 O 0.45182 0.4357 0.03604 0.0
O875 O 0.47797 0.45618 0.07281 0.0
O876 O 0.5625 0.56259 0.96524 0.0
O877 O 0.5374 0.54243 0.92754 0.0
H878 H 0.48615 0.51998 0.06926 0.0
H879 H 0.44519 0.47292 0.99342 0.0
H880 H 0.51177 0.38159 0.01379 0.0
H881 H 0.57827 0.4519 0.03823 0.0
H882 H 0.43825 0.53975 0.94254 0.0
H883 H 0.48898 0.60531 0.00299 0.0
H884 H 0.59693 0.49101 0.99376 0.0
H885 H 0.56473 0.45873 0.90837 0.0
H886 H 0.45825 0.54715 0.07466 0.0
H887 H 0.41583 0.49861 -0.00244 0.0
Cd888 Cd 0.97834 0.48873 0.53461 0.0
Cd889 Cd 0.03893 0.50396 0.4575 0.0
C890 C 0.02418 0.4771 0.56564 0.0
N891 N 0.00848 0.46823 0.54189 0.0
C892 C 0.025 0.43263 0.52697 0.0
C893 C 0.04123 0.44112 0.55153 0.0
C894 C 0.04093 0.46402 0.57071 0.0
C895 C 0.00873 0.44652 0.52259 0.0
H896 H 0.02343 0.49415 0.58093 0.0
H897 H 0.99576 0.43956 0.5041 0.0
C898 C 0.9825 0.4656 0.46225 0.0
C899 C 0.99759 0.51863 0.4222 0.0
C900 C 0.98209 0.53274 0.41629 0.0
C901 C 0.97764 0.55217 0.43766 0.0
C902 C 0.98852 0.55645 0.46478 0.0
C903 C 1.0042 0.54217 0.46966 0.0
N904 N 0.00854 0.52374 0.44849 0.0
H905 H 1.00147 0.50409 0.40561 0.0
H906 H 0.01352 0.5464 0.49022 0.0
C907 C 0.05027 0.44972 0.42513 0.0
N908 N 0.06146 0.47222 0.44474 0.0
C909 C 0.10063 0.4613 0.44509 0.0
C910 C 0.08982 0.43818 0.42427 0.0
C911 C 0.06397 0.43242 0.41481 0.0
C912 C 0.08615 0.47803 0.45497 0.0
H913 H 0.03082 0.44537 0.41682 0.0
H914 H 0.09499 0.49613 0.47022 0.0
C915 C 0.0344 0.52877 0.53121 0.0
C916 C 0.94412 0.45039 0.55943 0.0
N917 N 0.9563 0.52008 0.54894 0.0
C918 C 0.96222 0.5353 0.5754 0.0
C919 C 0.9479 0.55158 0.58693 0.0
C920 C 0.92689 0.55226 0.57134 0.0
C921 C 0.92163 0.53677 0.54372 0.0
C922 C 0.93653 0.52072 0.53296 0.0
C923 C 0.07221 0.54372 0.43347 0.0
O924 O 0.98791 0.48288 0.48484 0.0
O925 O 0.99861 0.46768 0.44287 0.0
O926 O 0.02977 0.51226 0.50792 0.0
O927 O 0.01762 0.52554 0.54989 0.0
O928 O 0.94029 0.44994 0.53353 0.0
O929 O 0.96296 0.46904 0.57312 0.0
O930 O 0.07462 0.54482 0.45975 0.0
O931 O 0.05579 0.52332 0.41876 0.0
H932 H 0.97773 0.53428 0.58795 0.0
H933 H 0.93175 0.50813 0.51216 0.0
H934 H 0.02417 0.41495 0.51173 0.0
H935 H 0.05334 0.4717 0.5897 0.0
H936 H 0.97384 0.52868 0.39513 0.0
H937 H 0.98576 0.57139 0.48179 0.0
H938 H 0.12045 0.46706 0.45302 0.0
H939 H 0.0543 0.41476 0.3993 0.0
H940 H 0.95321 0.5634 0.60805 0.0
H941 H 0.90557 0.53627 0.53085 0.0
Cd942 Cd 0.47671 0.98589 0.53525 0.0
Cd943 Cd 0.53686 -0.00077 0.45779 0.0
C944 C 0.52292 0.97294 0.56494 0.0
N945 N 0.50529 0.96378 0.54274 0.0
C946 C 0.51808 0.92572 0.52802 0.0
C947 C 0.53672 0.93499 0.55043 0.0
C948 C 0.53918 0.95899 0.56891 0.0
C949 C 0.5026 0.94062 0.52444 0.0
H950 H 0.5242 0.9909 0.57987 0.0
H951 H 0.48813 0.93352 0.50727 0.0
C952 C 0.47888 0.9618 0.46033 0.0
C953 C 0.49699 0.01634 0.42236 0.0
C954 C 0.48147 0.03075 0.41719 0.0
C955 C 0.47697 0.04959 0.43922 0.0
C956 C 0.48797 0.05331 0.46609 0.0
C957 C 0.50366 0.03879 0.47023 0.0
N958 N 0.50789 0.02069 0.44854 0.0
H959 H 0.50074 0.00204 0.40537 0.0
H960 H 0.51295 0.04247 0.4907 0.0
C961 C 0.54863 0.94741 0.42059 0.0
N962 N 0.55745 0.96569 0.44495 0.0
C963 C 0.5933 0.94994 0.44812 0.0
C964 C 0.58504 0.93128 0.42251 0.0
C965 C 0.56195 0.93002 0.40916 0.0
C966 C 0.57931 0.967 0.45888 0.0
H967 H 0.53158 0.94684 0.40938 0.0
H968 H 0.58653 0.98195 0.47784 0.0
C969 C 0.53455 0.02387 0.53315 0.0
C970 C 0.44088 0.94845 0.56016 0.0
N971 N 0.45672 0.01905 0.54935 0.0
C972 C 0.45985 0.03126 0.57707 0.0
C973 C 0.44633 0.04845 0.58817 0.0
C974 C 0.42918 0.05342 0.57075 0.0
C975 C 0.42665 0.04078 0.54201 0.0
C976 C 0.44054 0.02358 0.53176 0.0
C977 C 0.57465 0.03668 0.43475 0.0
O978 O 0.48514 0.9761 0.48487 0.0
O979 O 0.49559 0.96498 0.4416 0.0
O980 O 0.52853 0.00962 0.5085 0.0
O981 O 0.51725 0.02124 0.5513 0.0
O982 O 0.43619 0.94976 0.5351 0.0
O983 O 0.46134 0.96501 0.57324 0.0
O984 O 0.57258 0.03991 0.46126 0.0
O985 O 0.55957 0.01589 0.41922 0.0
H986 H 0.47233 0.02699 0.59086 0.0
H987 H 0.43792 0.01341 0.50987 0.0
H988 H 0.51555 0.90721 0.51344 0.0
H989 H 0.55299 0.96647 0.58676 0.0
H990 H 0.47325 0.02741 0.39616 0.0
H991 H 0.48521 0.06794 0.48346 0.0
H992 H 0.61102 0.95217 0.45926 0.0
H993 H 0.55424 0.91588 0.38974 0.0
H994 H 0.44874 0.05706 0.61051 0.0
H995 H 0.41399 0.044 0.5275 0.0
H996 H 0.24528 0.18759 0.30247 0.0
H997 H 0.21946 0.16155 0.33356 0.0
H998 H 0.14978 0.16047 0.29277 0.0
H999 H 0.17564 0.19093 0.26622 0.0
H1000 H 0.14079 0.1664 0.34038 0.0
H1001 H 0.17733 0.10437 0.28671 0.0
H1002 H 0.2124 0.08872 0.26587 0.0
H1003 H 0.24571 0.09985 0.34847 0.0
H1004 H 0.21098 0.11585 0.36976 0.0
H1005 H 0.05511 0.05592 0.38256 0.0
H1006 H 0.08745 0.08012 0.35426 0.0
H1007 H 0.14001 0.11574 0.42727 0.0
H1008 H 0.10754 0.09147 0.45609 0.0
H1009 H 0.15909 0.09239 0.36753 0.0
H1010 H 0.11336 0.15218 0.41644 0.0
H1011 H 0.0718 0.15894 0.42908 0.0
H1012 H 0.04805 0.1404 0.34151 0.0
H1013 H 0.08931 0.13314 0.32843 0.0
C1014 C 0.22449 0.18208 0.3003 0.0
C1015 C 0.21269 0.19168 0.28178 0.0
C1016 C 0.2096 0.16657 0.3178 0.0
C1017 C 0.18244 0.15844 0.31542 0.0
C1018 C 0.17066 0.16661 0.29551 0.0
C1019 C 0.18557 0.1837 0.27965 0.0
C1020 C 0.16616 0.143 0.33475 0.0
C1021 C 0.14486 0.15003 0.34577 0.0
C1022 C 0.17125 0.12174 0.34251 0.0
C1023 C 0.19171 0.11149 0.32979 0.0
C1024 C 0.19218 0.10353 0.3004 0.0
C1025 C 0.212 0.09462 0.28852 0.0
C1026 C 0.2313 0.09335 0.30583 0.0
C1027 C 0.23076 0.10086 0.33508 0.0
C1028 C 0.211 0.10982 0.34707 0.0
C1029 C 0.07355 0.06884 0.39266 0.0
C1030 C 0.07879 0.07204 0.42155 0.0
C1031 C 0.09201 0.08245 0.37641 0.0
C1032 C 0.11597 0.09942 0.38879 0.0
C1033 C 0.12158 0.10244 0.4175 0.0
C1034 C 0.10297 0.08889 0.43391 0.0
C1035 C 0.13404 0.11568 0.37195 0.0
C1036 C 0.15552 0.10885 0.36174 0.0
C1037 C 0.12836 0.13613 0.36353 0.0
C1038 C 0.10435 0.14211 0.3715 0.0
C1039 C 0.09926 0.14956 0.39992 0.0
C1040 C 0.07575 0.15344 0.40715 0.0
C1041 C 0.05729 0.15011 0.38612 0.0
C1042 C 0.06237 0.14302 0.35779 0.0
C1043 C 0.08582 0.13908 0.35046 0.0
H1044 H 0.03906 0.15301 0.39176 0.0
H1045 H 0.24667 0.0865 0.29659 0.0
H1046 H 0.7991 0.12817 0.3474 0.0
H1047 H 0.82939 0.12882 0.38376 0.0
H1048 H 0.89314 0.1731 0.34137 0.0
H1049 H 0.86266 0.17263 0.30491 0.0
H1050 H 0.89724 0.1269 0.34708 0.0
H1051 H 0.88415 0.20006 0.40838 0.0
H1052 H 0.86163 0.22838 0.43595 0.0
H1053 H 0.82387 0.1683 0.48076 0.0
H1054 H 0.84609 0.13953 0.45334 0.0
H1055 H 0.98435 0.11607 0.44514 0.0
H1056 H 0.96152 0.13803 0.42209 0.0
H1057 H 0.88852 0.08866 0.44505 0.0
H1058 H 0.91117 0.06636 0.46796 0.0
H1059 H 0.8946 0.14467 0.45126 0.0
H1060 H 0.90195 0.06942 0.38436 0.0
H1061 H 0.92511 0.04109 0.35793 0.0
H1062 H 0.97331 0.10541 0.32412 0.0
H1063 H 0.95057 0.1342 0.35066 0.0
C1064 C 0.81953 0.1386 0.34628 0.0
C1065 C 0.82868 0.15006 0.3233 0.0
C1066 C 0.83679 0.1392 0.36718 0.0
C1067 C 0.8635 0.15109 0.36532 0.0
C1068 C 0.87256 0.16397 0.34326 0.0
C1069 C 0.85521 0.16368 0.32249 0.0
C1070 C 0.88168 0.1458 0.38331 0.0
C1071 C 0.89718 0.13148 0.3699 0.0
C1072 C 0.88097 0.15096 0.41302 0.0
C1073 C 0.86652 0.16755 0.42855 0.0
C1074 C 0.87074 0.19274 0.42381 0.0
C1075 C 0.85811 0.20892 0.43951 0.0
C1076 C 0.84119 0.20011 0.45998 0.0
C1077 C 0.8369 0.17508 0.46484 0.0
C1078 C 0.84954 0.15884 0.44925 0.0
C1079 C 0.96349 0.11037 0.44606 0.0
C1080 C 0.94955 0.08965 0.45873 0.0
C1081 C 0.95051 0.12281 0.43268 0.0
C1082 C 0.92345 0.11484 0.43191 0.0
C1083 C 0.90949 0.09509 0.44564 0.0
C1084 C 0.92244 0.08238 0.45871 0.0
C1085 C 0.90962 0.12569 0.41489 0.0
C1086 C 0.89495 0.14073 0.42846 0.0
C1087 C 0.91089 0.12109 0.38531 0.0
C1088 C 0.92487 0.10402 0.36978 0.0
C1089 C 0.91771 0.07759 0.37156 0.0
C1090 C 0.93068 0.06143 0.35649 0.0
C1091 C 0.95074 0.07147 0.33944 0.0
C1092 C 0.95782 0.09768 0.3374 0.0
C1093 C 0.9449 0.11392 0.35243 0.0
H1094 H 0.96073 0.05892 0.32774 0.0
H1095 H 0.83149 0.21272 0.47215 0.0
H1096 H 0.78238 0.81001 0.31577 0.0
H1097 H 0.8117 0.83442 0.35685 0.0
H1098 H 0.87382 0.81255 0.31353 0.0
H1099 H 0.84344 0.78532 0.27435 0.0
H1100 H 0.8812 0.81285 0.36265 0.0
H1101 H 0.86254 0.87532 0.31904 0.0
H1102 H 0.83448 0.89549 0.30016 0.0
H1103 H 0.8045 0.91185 0.38191 0.0
H1104 H 0.83217 0.89146 0.40116 0.0
H1105 H 0.97866 0.94248 0.39799 0.0
H1106 H 0.94426 0.90234 0.37611 0.0
H1107 H 0.91514 0.89316 0.45775 0.0
H1108 H 0.95058 0.93258 0.47997 0.0
H1109 H 0.88635 0.90501 0.4012 0.0
H1110 H 0.92001 0.84704 0.44141 0.0
H1111 H 0.95707 0.83353 0.45096 0.0
H1112 H 0.96945 0.81664 0.36243 0.0
H1113 H 0.93271 0.83042 0.35244 0.0
C1114 C 0.80233 0.81052 0.31532 0.0
C1115 C 0.81093 0.79596 0.29239 0.0
C1116 C 0.81909 0.82446 0.33865 0.0
C1117 C 0.84518 0.82574 0.33823 0.0
C1118 C 0.85377 0.81163 0.31467 0.0
C1119 C 0.8366 0.79642 0.29215 0.0
C1120 C 0.86397 0.84266 0.36152 0.0
C1121 C 0.88214 0.83295 0.37112 0.0
C1122 C 0.86537 0.86893 0.3728 0.0
C1123 C 0.84911 0.8816 0.36143 0.0
C1124 C 0.84986 0.88314 0.33293 0.0
C1125 C 0.83404 0.89459 0.32217 0.0
C1126 C 0.81765 0.90486 0.33981 0.0
C1127 C 0.81715 0.90382 0.36827 0.0
C1128 C 0.83289 0.89233 0.37911 0.0
C1129 C 0.96528 0.93159 0.41133 0.0
C1130 C 0.9666 0.94099 0.44058 0.0
C1131 C 0.94585 0.90865 0.39886 0.0
C1132 C 0.92731 0.89513 0.41544 0.0
C1133 C 0.92949 0.90343 0.44478 0.0
C1134 C 0.94949 0.92602 0.45736 0.0
C1135 C 0.90367 0.87534 0.4013 0.0
C1136 C 0.88461 0.88457 0.39338 0.0
C1137 C 0.90249 0.8493 0.39027 0.0
C1138 C 0.92368 0.83979 0.39622 0.0
C1139 C 0.93069 0.84051 0.42402 0.0
C1140 C 0.95163 0.8328 0.4295 0.0
C1141 C 0.96561 0.82424 0.40732 0.0
C1142 C 0.95859 0.82323 0.37959 0.0
C1143 C 0.93767 0.83092 0.374 0.0
H1144 H 0.98188 0.81838 0.41161 0.0
H1145 H 0.8054 0.91371 0.33145 0.0
H1146 H 0.12308 0.79739 0.33461 0.0
H1147 H 0.1257 0.84103 0.36161 0.0
H1148 H 0.20287 0.85328 0.39282 0.0
H1149 H 0.20031 0.80961 0.36565 0.0
H1150 H 0.16542 0.85513 0.43257 0.0
H1151 H 0.2002 0.89697 0.35742 0.0
H1152 H 0.20424 0.90283 0.30848 0.0
H1153 H 0.12654 0.90465 0.30669 0.0
H1154 H 0.12197 0.89871 0.35556 0.0
H1155 H 0.13221 0.98334 0.47853 0.0
H1156 H 0.15974 0.95618 0.46671 0.0
H1157 H 0.09217 0.88778 0.44101 0.0
H1158 H 0.06438 0.91439 0.45422 0.0
H1159 H 0.14363 0.92621 0.40313 0.0
H1160 H 0.10381 0.85263 0.45227 0.0
H1161 H 0.09306 0.82716 0.48884 0.0
H1162 H 0.16711 0.87128 0.53146 0.0
H1163 H 0.17841 0.89691 0.49436 0.0
C1164 C 0.14033 0.80931 0.34769 0.0
C1165 C 0.1611 0.80013 0.34918 0.0
C1166 C 0.14219 0.83441 0.36222 0.0
C1167 C 0.16483 0.85044 0.37833 0.0
C1168 C 0.18559 0.84126 0.37984 0.0
C1169 C 0.18381 0.81624 0.36513 0.0
C1170 C 0.16402 0.8738 0.39845 0.0
C1171 C 0.16176 0.87145 0.42647 0.0
C1172 C 0.15836 0.89421 0.38984 0.0
C1173 C 0.16079 0.89742 0.36024 0.0
C1174 C 0.18392 0.89847 0.34655 0.0
C1175 C 0.18633 0.90188 0.31883 0.0
C1176 C 0.16567 0.90413 0.3045 0.0
C1177 C 0.14256 0.90298 0.31785 0.0
C1178 C 0.14009 0.8997 0.34561 0.0
C1179 C 0.12314 0.96232 0.47183 0.0
C1180 C 0.09623 0.95098 0.4667 0.0
C1181 C 0.13891 0.94688 0.46519 0.0
C1182 C 0.12785 0.92011 0.45347 0.0
C1183 C 0.10093 0.90834 0.45079 0.0
C1184 C 0.08515 0.92367 0.45773 0.0
C1185 C 0.14363 0.90636 0.43677 0.0
C1186 C 0.14885 0.91087 0.40957 0.0
C1187 C 0.15036 0.88665 0.44541 0.0
C1188 C 0.14149 0.8774 0.47128 0.0
C1189 C 0.11732 0.85775 0.47013 0.0
C1190 C 0.11132 0.84293 0.49072 0.0
C1191 C 0.12929 0.84772 0.51279 0.0
C1192 C 0.15315 0.86771 0.51448 0.0
C1193 C 0.15932 0.8825 0.49373 0.0
H1194 H 0.12476 0.83594 0.52853 0.0
H1195 H 0.16758 0.90677 0.28305 0.0
H1196 H 0.21045 0.84749 0.63971 0.0
H1197 H 0.18039 0.84793 0.6035 0.0
H1198 H 0.1192 0.83773 0.66208 0.0
H1199 H 0.14919 0.83654 0.69806 0.0
H1200 H 0.10071 0.81461 0.60645 0.0
H1201 H 0.15564 0.89697 0.66117 0.0
H1202 H 0.19764 0.9287 0.68156 0.0
H1203 H 0.22484 0.93279 0.5986 0.0
H1204 H 0.18311 0.90071 0.57772 0.0
H1205 H 0.02704 0.88019 0.55283 0.0
H1206 H 0.05055 0.86177 0.57938 0.0
H1207 H 0.11968 0.89412 0.53624 0.0
H1208 H 0.09648 0.91389 0.51124 0.0
H1209 H 0.13342 0.90251 0.58351 0.0
H1210 H 0.07421 0.81925 0.52894 0.0
H1211 H 0.03097 0.78815 0.51173 0.0
H1212 H 0.00945 0.78666 0.59694 0.0
H1213 H 0.0526 0.81792 0.61447 0.0
C1214 C 0.19036 0.84455 0.64442 0.0
C1215 C 0.18195 0.84233 0.67146 0.0
C1216 C 0.17325 0.84472 0.62383 0.0
C1217 C 0.14777 0.84333 0.63038 0.0
C1218 C 0.1388 0.83883 0.6567 0.0
C1219 C 0.15588 0.83835 0.67722 0.0
C1220 C 0.13219 0.85111 0.61184 0.0
C1221 C 0.10773 0.83374 0.60119 0.0
C1222 C 0.14146 0.87618 0.60537 0.0
C1223 C 0.16633 0.89616 0.61787 0.0
C1224 C 0.17062 0.90451 0.64727 0.0
C1225 C 0.19438 0.92257 0.65892 0.0
C1226 C 0.21393 0.93269 0.64139 0.0
C1227 C 0.2097 0.92487 0.61216 0.0
C1228 C 0.18599 0.90674 0.6004 0.0
C1229 C 0.04702 0.88233 0.54823 0.0
C1230 C 0.05983 0.89768 0.52933 0.0
C1231 C 0.06048 0.87161 0.56332 0.0
C1232 C 0.08675 0.87507 0.55891 0.0
C1233 C 0.09927 0.89007 0.53945 0.0
C1234 C 0.086 0.90134 0.52492 0.0
C1235 C 0.10193 0.86557 0.57646 0.0
C1236 C 0.12637 0.88294 0.58764 0.0
C1237 C 0.09238 0.84054 0.5835 0.0
C1238 C 0.06668 0.82105 0.57291 0.0
C1239 C 0.06029 0.8123 0.5439 0.0
C1240 C 0.03577 0.79465 0.53412 0.0
C1241 C 0.01744 0.78545 0.55324 0.0
C1242 C 0.02367 0.79378 0.58214 0.0
C1243 C 0.0482 0.81142 0.59198 0.0
H1244 H 0.99843 0.77185 0.54566 0.0
H1245 H 0.23233 0.94665 0.65045 0.0
H1246 H 0.16869 0.21551 0.7226 0.0
H1247 H 0.13361 0.18726 0.68763 0.0
H1248 H 0.1854 0.14833 0.64598 0.0
H1249 H 0.22002 0.17621 0.68066 0.0
H1250 H 0.16133 0.16511 0.60908 0.0
H1251 H 0.14139 0.11502 0.67957 0.0
H1252 H 0.13205 0.10597 0.72687 0.0
H1253 H 0.06451 0.12915 0.72725 0.0
H1254 H 0.07353 0.13843 0.67988 0.0
H1255 H 0.07933 0.02977 0.5574 0.0
H1256 H 0.1108 0.07142 0.58156 0.0
H1257 H 0.05859 0.11206 0.56811 0.0
H1258 H 0.0276 0.07042 0.5424 0.0
H1259 H 0.07836 0.1027 0.63013 0.0
H1260 H 0.09976 0.13949 0.5467 0.0
H1261 H 0.11319 0.13757 0.49774 0.0
H1262 H 0.18419 0.12823 0.52073 0.0
H1263 H 0.17095 0.12952 0.56968 0.0
C1264 C 0.17217 0.20047 0.70629 0.0
C1265 C 0.19677 0.19789 0.70392 0.0
C1266 C 0.15237 0.1846 0.6863 0.0
C1267 C 0.15724 0.16619 0.66402 0.0
C1268 C 0.1815 0.16281 0.66271 0.0
C1269 C 0.20111 0.17851 0.68257 0.0
C1270 C 0.1373 0.15039 0.64169 0.0
C1271 C 0.14303 0.15161 0.6136 0.0
C1272 C 0.11366 0.13282 0.64778 0.0
C1273 C 0.10839 0.1279 0.67646 0.0
C1274 C 0.12474 0.11852 0.6899 0.0
C1275 C 0.11946 0.11326 0.71667 0.0
C1276 C 0.09782 0.11719 0.73015 0.0
C1277 C 0.08134 0.12625 0.71682 0.0
C1278 C 0.0865 0.13149 0.69 0.0
C1279 C 0.0751 0.04779 0.55875 0.0
C1280 C 0.05137 0.0473 0.54822 0.0
C1281 C 0.09303 0.07146 0.57229 0.0
C1282 C 0.08695 0.09463 0.57627 0.0
C1283 C 0.06369 0.09435 0.56464 0.0
C1284 C 0.04609 0.07071 0.55015 0.0
C1285 C 0.10243 0.11721 0.59753 0.0
C1286 C 0.09606 0.11709 0.62561 0.0
C1287 C 0.12606 0.13473 0.59127 0.0
C1288 C 0.1342 0.13433 0.56186 0.0
C1289 C 0.11809 0.13672 0.54127 0.0
C1290 C 0.12571 0.13582 0.51352 0.0
C1291 C 0.14949 0.13271 0.50612 0.0
C1292 C 0.16575 0.1306 0.52648 0.0
C1293 C 0.15821 0.13145 0.55424 0.0
H1294 H 0.15533 0.13197 0.48462 0.0
H1295 H 0.09376 0.11309 0.75088 0.0
H1296 H 0.83164 0.16276 0.67239 0.0
H1297 H 0.82956 0.1257 0.63467 0.0
H1298 H 0.85318 0.17672 0.57631 0.0
H1299 H 0.85464 0.21443 0.61407 0.0
H1300 H 0.81687 0.1036 0.56546 0.0
H1301 H 0.90367 0.18336 0.58382 0.0
H1302 H 0.92967 0.2222 0.61894 0.0
H1303 H 0.91838 0.17566 0.68133 0.0
H1304 H 0.89208 0.13668 0.64662 0.0
H1305 H 0.9121 0.04162 0.50134 0.0
H1306 H 0.88641 0.07113 0.51253 0.0
H1307 H 0.88607 0.06449 0.59925 0.0
H1308 H 0.9108 0.03452 0.58816 0.0
H1309 H 0.90937 0.11697 0.58611 0.0
H1310 H 0.83386 0.03874 0.57222 0.0
H1311 H 0.80698 -0.00388 0.54366 0.0
H1312 H 0.79511 0.03411 0.47942 0.0
H1313 H 0.82227 0.07698 0.50749 0.0
C1314 C 0.83498 0.16616 0.65131 0.0
C1315 C 0.84397 0.19173 0.64636 0.0
C1316 C 0.83347 0.14475 0.62964 0.0
C1317 C 0.84135 0.14866 0.60292 0.0
C1318 C 0.84686 0.1735 0.5969 0.0
C1319 C 0.84826 0.19504 0.61861 0.0
C1320 C 0.85294 0.13022 0.58641 0.0
C1321 C 0.83724 0.10675 0.56908 0.0
C1322 C 0.87928 0.13409 0.59227 0.0
C1323 C 0.89583 0.15728 0.61276 0.0
C1324 C 0.90679 0.18148 0.60504 0.0
C1325 C 0.92152 0.20349 0.62486 0.0
C1326 C 0.92563 0.20141 0.65236 0.0
C1327 C 0.91513 0.17727 0.66005 0.0
C1328 C 0.90032 0.15523 0.64033 0.0
C1329 C 0.90599 0.04607 0.52257 0.0
C1330 C 0.91383 0.03646 0.54403 0.0
C1331 C 0.89143 0.06278 0.52887 0.0
C1332 C 0.88477 0.06983 0.55662 0.0
C1333 C 0.89132 0.05913 0.57773 0.0
C1334 C 0.90558 0.04231 0.57142 0.0
C1335 C 0.87352 0.0906 0.56467 0.0
C1336 C 0.88933 0.11433 0.58103 0.0
C1337 C 0.84734 0.08659 0.55826 0.0
C1338 C 0.83017 0.06105 0.54187 0.0
C1339 C 0.82559 0.038 0.55196 0.0
C1340 C 0.81031 0.0138 0.53587 0.0
C1341 C 0.79937 0.01241 0.50973 0.0
C1342 C 0.8036 0.03524 0.49969 0.0
C1343 C 0.8189 0.0595 0.5157 0.0
H1344 H 0.78758 -0.00635 0.49727 0.0
H1345 H 0.93695 0.21849 0.6677 0.0
H1346 H 0.83947 0.78326 0.71527 0.0
H1347 H 0.86612 0.81323 0.68749 0.0
H1348 H 0.80291 0.84151 0.67796 0.0
H1349 H 0.77668 0.81278 0.70697 0.0
H1350 H 0.85391 0.81235 0.63189 0.0
H1351 H 0.81882 0.89096 0.67844 0.0
H1352 H 0.8076 0.91485 0.72322 0.0
H1353 H 0.87508 0.91318 0.7648 0.0
H1354 H 0.88633 0.88884 0.7203 0.0
H1355 H 0.90853 0.89956 0.542 0.0
H1356 H 0.87731 0.87522 0.57152 0.0
H1357 H 0.93112 0.91227 0.64342 0.0
H1358 H 0.96216 0.93701 0.61427 0.0
H1359 H 0.88234 0.90957 0.65761 0.0
H1360 H 0.92594 0.85157 0.60759 0.0
H1361 H 0.94094 0.82859 0.56487 0.0
H1362 H 0.86226 0.78925 0.53298 0.0
H1363 H 0.84684 0.81231 0.57541 0.0
C1364 C 0.83141 0.79619 0.70767 0.0
C1365 C 0.80594 0.79555 0.71316 0.0
C1366 C 0.8466 0.81322 0.69177 0.0
C1367 C 0.83655 0.82978 0.68103 0.0
C1368 C 0.81122 0.82935 0.68664 0.0
C1369 C 0.79612 0.81258 0.70285 0.0
C1370 C 0.85211 0.84614 0.66242 0.0
C1371 C 0.85993 0.8336 0.63733 0.0
C1372 C 0.86006 0.87377 0.66966 0.0
C1373 C 0.85319 0.88793 0.69632 0.0
C1374 C 0.83113 0.89561 0.69722 0.0
C1375 C 0.82475 0.90916 0.72251 0.0
C1376 C 0.84058 0.91546 0.74686 0.0
C1377 C 0.86277 0.90816 0.74597 0.0
C1378 C 0.86908 0.89438 0.72078 0.0
C1379 C 0.91369 0.90246 0.56409 0.0
C1380 C 0.93783 0.91995 0.57582 0.0
C1381 C 0.89583 0.88865 0.58091 0.0
C1382 C 0.90203 0.89189 0.60957 0.0
C1383 C 0.92596 0.90963 0.62137 0.0
C1384 C 0.94373 0.92355 0.60464 0.0
C1385 C 0.88424 0.87576 0.62702 0.0
C1386 C 0.87601 0.88832 0.65187 0.0
C1387 C 0.87613 0.84807 0.61968 0.0
C1388 C 0.88528 0.83381 0.59448 0.0
C1389 C 0.91187 0.83811 0.59138 0.0
C1390 C 0.92044 0.82508 0.56724 0.0
C1391 C 0.90256 0.80752 0.54619 0.0
C1392 C 0.87608 0.80288 0.54929 0.0
C1393 C 0.86741 0.81591 0.57338 0.0
H1394 H 0.90924 0.79746 0.52749 0.0
H1395 H 0.83568 0.92605 0.7664 0.0
H1396 H 0.33109 0.21955 0.21962 0.0
H1397 H 0.35338 0.19184 0.19249 0.0
H1398 H 0.28368 0.147 0.14111 0.0
H1399 H 0.2605 0.17365 0.16995 0.0
H1400 H 0.30536 0.11467 0.14938 0.0
H1401 H 0.33944 0.1947 0.11849 0.0
H1402 H 0.35916 0.24241 0.12288 0.0
H1403 H 0.42727 0.24161 0.16382 0.0
H1404 H 0.40781 0.19395 0.16021 0.0
H1405 H 0.37819 0.04826 0.0561 0.0
H1406 H 0.35166 0.07526 0.07516 0.0
H1407 H 0.41367 0.12481 0.13532 0.0
H1408 H 0.44084 0.09904 0.11533 0.0
H1409 H 0.39321 0.15431 0.11709 0.0
H1410 H 0.35587 0.07377 0.15075 0.0
H1411 H 0.33531 0.02595 0.14494 0.0
H1412 H 0.27252 0.02788 0.09538 0.0
H1413 H 0.29284 0.07569 0.10067 0.0
C1414 C 0.32028 0.20388 0.20255 0.0
C1415 C 0.29386 0.19943 0.19679 0.0
C1416 C 0.3333 0.18807 0.1867 0.0
C1417 C 0.32068 0.16759 0.16394 0.0
C1418 C 0.29418 0.16281 0.15824 0.0
C1419 C 0.28093 0.17839 0.17455 0.0
C1420 C 0.33511 0.15095 0.1469 0.0
C1421 C 0.32438 0.12343 0.14191 0.0
C1422 C 0.36016 0.16204 0.13718 0.0
C1423 C 0.37205 0.19073 0.13925 0.0
C1424 C 0.35856 0.2047 0.1286 0.0
C1425 C 0.3697 0.23174 0.13092 0.0
C1426 C 0.39443 0.24503 0.14362 0.0
C1427 C 0.4081 0.23129 0.15399 0.0
C1428 C 0.39703 0.20425 0.1518 0.0
C1429 C 0.38644 0.06508 0.07313 0.0
C1430 C 0.41185 0.07104 0.08419 0.0
C1431 C 0.37097 0.08039 0.08437 0.0
C1432 C 0.38024 0.10193 0.10728 0.0
C1433 C 0.40575 0.10825 0.11788 0.0
C1434 C 0.42129 0.09317 0.10652 0.0
C1435 C 0.36378 0.11811 0.12027 0.0
C1436 C 0.37412 0.14558 0.12441 0.0
C1437 C 0.3383 0.10696 0.1289 0.0
C1438 C 0.32602 0.07825 0.12586 0.0
C1439 C 0.33777 0.06397 0.13847 0.0
C1440 C 0.32614 0.03687 0.1353 0.0
C1441 C 0.30267 0.02387 0.11973 0.0
C1442 C 0.29072 0.03796 0.10739 0.0
C1443 C 0.30227 0.06506 0.1105 0.0
H1444 H 0.29371 0.0029 0.11728 0.0
H1445 H 0.403 0.26596 0.14538 0.0
H1446 H 0.80679 0.2551 0.16997 0.0
H1447 H 0.837 0.28432 0.14366 0.0
H1448 H 0.81981 0.35035 0.1941 0.0
H1449 H 0.79153 0.32192 0.22192 0.0
H1450 H 0.8159 0.34188 0.13046 0.0
H1451 H 0.87044 0.35288 0.21065 0.0
H1452 H 0.8935 0.34049 0.24522 0.0
H1453 H 0.93354 0.30696 0.17884 0.0
H1454 H 0.91026 0.31868 0.14375 0.0
H1455 H 0.92158 0.45847 0.11489 0.0
H1456 H 0.89482 0.42459 0.13865 0.0
H1457 H 0.90139 0.3644 0.0691 0.0
H1458 H 0.92726 0.39814 0.04469 0.0
H1459 H 0.91161 0.3679 0.14022 0.0
H1460 H 0.85282 0.35732 0.05954 0.0
H1461 H 0.83303 0.37702 0.02923 0.0
H1462 H 0.80285 0.41521 0.1017 0.0
H1463 H 0.82297 0.39613 0.13248 0.0
C1464 C 0.80995 0.27588 0.17599 0.0
C1465 C 0.79713 0.28613 0.19858 0.0
C1466 C 0.82701 0.29251 0.16074 0.0
C1467 C 0.83073 0.31946 0.1672 0.0
C1468 C 0.8173 0.32961 0.18898 0.0
C1469 C 0.80099 0.31321 0.20475 0.0
C1470 C 0.84802 0.33719 0.15082 0.0
C1471 C 0.83681 0.3474 0.13247 0.0
C1472 C 0.87528 0.34456 0.15369 0.0
C1473 C 0.88823 0.33621 0.17451 0.0
C1474 C 0.88376 0.34239 0.20334 0.0
C1475 C 0.89702 0.33567 0.22306 0.0
C1476 C 0.91499 0.32297 0.21424 0.0
C1477 C 0.91962 0.31682 0.18565 0.0
C1478 C 0.90635 0.32344 0.16583 0.0
C1479 C 0.91718 0.438 0.10466 0.0
C1480 C 0.92615 0.43083 0.07788 0.0
C1481 C 0.90206 0.41875 0.11825 0.0
C1482 C 0.89625 0.39214 0.10553 0.0
C1483 C 0.90568 0.3849 0.0791 0.0
C1484 C 0.92023 0.40414 0.06517 0.0
C1485 C 0.8794 0.37198 0.11951 0.0
C1486 C 0.89068 0.36167 0.13767 0.0
C1487 C 0.85222 0.36469 0.11677 0.0
C1488 C 0.83961 0.37558 0.09828 0.0
C1489 C 0.84217 0.37013 0.06901 0.0
C1490 C 0.83088 0.38114 0.05175 0.0
C1491 C 0.81676 0.39743 0.06354 0.0
C1492 C 0.81383 0.40264 0.0926 0.0
C1493 C 0.82518 0.39174 0.10996 0.0
H1494 H 0.80803 0.40595 0.05015 0.0
H1495 H 0.92528 0.31783 0.22955 0.0
H1496 H 0.64917 0.79844 0.14862 0.0
H1497 H 0.62329 0.81336 0.11967 0.0
H1498 H 0.68995 0.8809 0.11569 0.0
H1499 H 0.71538 0.86632 0.14519 0.0
H1500 H 0.65173 0.89595 0.13422 0.0
H1501 H 0.6608 0.83055 0.05621 0.0
H1502 H 0.65824 0.78636 0.02998 0.0
H1503 H 0.57602 0.75902 0.03861 0.0
H1504 H 0.57813 0.80298 0.06525 0.0
H1505 H 0.59457 0.95527 0.05423 0.0
H1506 H 0.62194 0.9313 0.06556 0.0
H1507 H 0.55397 0.86599 0.07217 0.0
H1508 H 0.52647 0.88973 0.06026 0.0
H1509 H 0.5924 0.84866 0.05034 0.0
H1510 H 0.58376 0.9124 0.13091 0.0
H1511 H 0.58548 0.9566 0.15634 0.0
H1512 H 0.66674 0.98636 0.14283 0.0
H1513 H 0.6654 0.94236 0.11696 0.0
C1514 C 0.65837 0.81602 0.14075 0.0
C1515 C 0.68421 0.83121 0.14888 0.0
C1516 C 0.64363 0.82454 0.12419 0.0
C1517 C 0.65463 0.8483 0.11538 0.0
C1518 C 0.68096 0.86256 0.1222 0.0
C1519 C 0.69554 0.85418 0.13891 0.0
C1520 C 0.63824 0.86015 0.10244 0.0
C1521 C 0.63918 0.88568 0.11552 0.0
C1522 C 0.621 0.84654 0.07869 0.0
C1523 C 0.6197 0.81998 0.06307 0.0
C1524 C 0.64222 0.81504 0.05281 0.0
C1525 C 0.64083 0.79005 0.03779 0.0
C1526 C 0.617 0.76987 0.03273 0.0
C1527 C 0.59448 0.77465 0.04261 0.0
C1528 C 0.59576 0.79961 0.05766 0.0
C1529 C 0.58546 0.93573 0.05792 0.0
C1530 C 0.55836 0.92459 0.05686 0.0
C1531 C 0.60111 0.92201 0.06432 0.0
C1532 C 0.59001 0.89707 0.0704 0.0
C1533 C 0.56299 0.88525 0.06772 0.0
C1534 C 0.5473 0.89887 0.06097 0.0
C1535 C 0.60645 0.88446 0.08189 0.0
C1536 C 0.60524 0.85885 0.06883 0.0
C1537 C 0.62344 0.89785 0.1058 0.0
C1538 C 0.62442 0.92418 0.12181 0.0
C1539 C 0.60196 0.92841 0.13326 0.0
C1540 C 0.60287 0.95341 0.14774 0.0
C1541 C 0.62619 0.97429 0.15113 0.0
C1542 C 0.64868 0.97018 0.14015 0.0
C1543 C 0.64787 0.94521 0.1256 0.0
H1544 H 0.62685 -0.00635 0.16232 0.0
H1545 H 0.61597 0.75054 0.02108 0.0
H1546 H 0.22834 0.71849 0.15195 0.0
H1547 H 0.19611 0.68697 0.11646 0.0
H1548 H 0.20736 0.62338 0.1466 0.0
H1549 H 0.23862 0.65499 0.18312 0.0
H1550 H 0.19796 0.61692 0.08357 0.0
H1551 H 0.1646 0.63789 0.17457 0.0
H1552 H 0.15628 0.66617 0.21762 0.0
H1553 H 0.11638 0.69844 0.16819 0.0
H1554 H 0.12508 0.67083 0.1247 0.0
H1555 H 0.07818 0.51513 0.04553 0.0
H1556 H 0.11908 0.5474 0.06668 0.0
H1557 H 0.09153 0.60999 0.05693 0.0
H1558 H 0.04994 0.57741 0.03707 0.0
H1559 H 0.10989 0.61837 0.1085 0.0
H1560 H 0.14378 0.59662 0.01706 0.0
H1561 H 0.15031 0.56574 0.97519 0.0
H1562 H 0.18622 0.53212 0.02715 0.0
H1563 H 0.18032 0.56312 0.0694 0.0
C1564 C 0.2237 0.69776 0.15107 0.0
C1565 C 0.23393 0.6891 0.17175 0.0
C1566 C 0.20569 0.67986 0.1306 0.0
C1567 C 0.19872 0.65304 0.12987 0.0
C1568 C 0.21214 0.64416 0.1475 0.0
C1569 C 0.22985 0.66221 0.16842 0.0
C1570 C 0.17558 0.63474 0.11297 0.0
C1571 C 0.17867 0.61709 0.08901 0.0
C1572 C 0.15055 0.63538 0.12012 0.0
C1573 C 0.14599 0.65264 0.14625 0.0
C1574 C 0.15452 0.65139 0.17278 0.0
C1575 C 0.14962 0.66721 0.1973 0.0
C1576 C 0.13589 0.68417 0.19565 0.0
C1577 C 0.12705 0.68533 0.16945 0.0
C1578 C 0.13203 0.66964 0.14484 0.0
C1579 C 0.08129 0.53579 0.04721 0.0
C1580 C 0.06145 0.54405 0.03943 0.0
C1581 C 0.10461 0.55422 0.05921 0.0
C1582 C 0.10856 0.58115 0.06301 0.0
C1583 C 0.08893 0.58932 0.05407 0.0
C1584 C 0.06538 0.57083 0.04254 0.0
C1585 C 0.13215 0.6006 0.07866 0.0
C1586 C 0.12917 0.61846 0.10264 0.0
C1587 C 0.15724 0.60007 0.07168 0.0
C1588 C 0.16158 0.5821 0.0463 0.0
C1589 C 0.15311 0.58266 0.01953 0.0
C1590 C 0.1567 0.56516 0.99574 0.0
C1591 C 0.16857 0.54693 -0.00151 0.0
C1592 C 0.17711 0.54632 0.02505 0.0
C1593 C 0.1738 0.56395 0.0489 0.0
H1594 H 0.17118 0.5333 0.98003 0.0
H1595 H 0.13208 0.69637 0.21467 0.0
H1596 H 0.30963 0.76568 0.82462 0.0
H1597 H 0.34384 0.79508 0.85854 0.0
H1598 H 0.34423 0.85995 0.82215 0.0
H1599 H 0.31205 0.83003 0.7861 0.0
H1600 H 0.3895 0.86623 0.83574 0.0
H1601 H 0.30927 0.84106 0.88406 0.0
H1602 H 0.27121 0.81032 0.90097 0.0
H1603 H 0.32104 0.78455 0.94573 0.0
H1604 H 0.35939 0.81485 0.92884 0.0
H1605 H 0.44089 0.97295 0.94438 0.0
H1606 H 0.4042 0.9372 0.91841 0.0
H1607 H 0.43316 0.88071 0.94279 0.0
H1608 H 0.47009 0.91653 0.96847 0.0
H1609 H 0.37546 0.86765 0.93719 0.0
H1610 H 0.45576 0.89777 0.88992 0.0
H1611 H 0.49199 0.93112 0.87395 0.0
H1612 H 0.43858 0.95058 0.82692 0.0
H1613 H 0.40194 0.91788 0.84326 0.0
C1614 C 0.31727 0.78616 0.82359 0.0
C1615 C 0.308 0.79571 0.80297 0.0
C1616 C 0.33662 0.80296 0.84319 0.0
C1617 C 0.34589 0.82981 0.84349 0.0
C1618 C 0.33715 0.83928 0.82244 0.0
C1619 C 0.31862 0.82226 0.80203 0.0
C1620 C 0.36437 0.84827 0.86591 0.0
C1621 C 0.3862 0.8667 0.85791 0.0
C1622 C 0.36039 0.84832 0.89484 0.0
C1623 C 0.33723 0.83005 0.90492 0.0
C1624 C 0.31212 0.82871 0.89733 0.0
C1625 C 0.2905 0.81136 0.90691 0.0
C1626 C 0.29372 0.79543 0.92428 0.0
C1627 C 0.31857 0.79684 0.93218 0.0
C1628 C 0.34026 0.81409 0.92262 0.0
C1629 C 0.43865 0.9529 0.94512 0.0
C1630 C 0.4578 0.94702 0.95813 0.0
C1631 C 0.41789 0.93264 0.93037 0.0
C1632 C 0.41649 0.90662 0.92858 0.0
C1633 C 0.43415 0.90082 0.94418 0.0
C1634 C 0.45506 0.92112 0.95879 0.0
C1635 C 0.39956 0.886 0.9068 0.0
C1636 C 0.37846 0.86704 0.91495 0.0
C1637 C 0.4038 0.88582 0.87799 0.0
C1638 C 0.42601 0.90559 0.86823 0.0
C1639 C 0.45167 0.90941 0.87655 0.0
C1640 C 0.47231 0.92818 0.86736 0.0
C1641 C 0.46758 0.94304 0.84953 0.0
C1642 C 0.44221 0.93914 0.84082 0.0
C1643 C 0.4215 0.92051 0.85008 0.0
H1644 H 0.48359 0.9575 0.84238 0.0
H1645 H 0.27695 0.78206 0.9317 0.0
H1646 H 0.21402 0.26908 0.82715 0.0
H1647 H 0.19003 0.29555 0.85467 0.0
H1648 H 0.19881 0.3399 0.7901 0.0
H1649 H 0.22282 0.31376 0.76296 0.0
H1650 H 0.20737 0.37241 0.8394 0.0
H1651 H 0.14045 0.29044 0.80003 0.0
H1652 H 0.11811 0.24268 0.79143 0.0
H1653 H 0.11058 0.24764 0.8803 0.0
H1654 H 0.13318 0.2954 0.88948 0.0
H1655 H 0.11376 0.43545 0.87161 0.0
H1656 H 0.13867 0.40761 0.85032 0.0
H1657 H 0.1242 0.36897 0.92003 0.0
H1658 H 0.09835 0.39632 0.94117 0.0
H1659 H 0.1197 0.33323 0.87239 0.0
H1660 H 0.18453 0.414 0.91259 0.0
H1661 H 0.20737 0.4617 0.92303 0.0
H1662 H 0.2199 0.45897 0.83514 0.0
H1663 H 0.19688 0.41126 0.82412 0.0
C1664 C 0.21102 0.28451 0.81881 0.0
C1665 C 0.2207 0.28912 0.79257 0.0
C1666 C 0.197 0.29962 0.83456 0.0
C1667 C 0.19216 0.3198 0.82454 0.0
C1668 C 0.20208 0.32458 0.79856 0.0
C1669 C 0.21591 0.30945 0.78286 0.0
C1670 C 0.17713 0.33622 0.84088 0.0
C1671 C 0.18807 0.36373 0.84627 0.0
C1672 C 0.15221 0.32523 0.85097 0.0
C1673 C 0.1388 0.29647 0.84546 0.0
C1674 C 0.13425 0.28132 0.81776 0.0
C1675 C 0.12149 0.25425 0.81278 0.0
C1676 C 0.11301 0.24212 0.83531 0.0
C1677 C 0.11722 0.25705 0.86287 0.0
C1678 C 0.12999 0.28412 0.86797 0.0
C1679 C 0.11553 0.42091 0.88246 0.0
C1680 C 0.10368 0.41832 0.90827 0.0
C1681 C 0.13019 0.40509 0.8703 0.0
C1682 C 0.13381 0.38617 0.88355 0.0
C1683 C 0.12193 0.38336 0.90924 0.0
C1684 C 0.10725 0.39927 0.9215 0.0
C1685 C 0.14976 0.36939 0.87036 0.0
C1686 C 0.13904 0.34188 0.86561 0.0
C1687 C 0.175 0.38034 0.86106 0.0
C1688 C 0.18873 0.40907 0.86751 0.0
C1689 C 0.19196 0.42359 0.89546 0.0
C1690 C 0.20499 0.45063 0.90148 0.0
C1691 C 0.21501 0.46337 0.87975 0.0
C1692 C 0.21209 0.44908 0.85195 0.0
C1693 C 0.19908 0.42203 0.8458 0.0
H1694 H 0.22509 0.4843 0.88446 0.0
H1695 H 0.10312 0.22117 0.8314 0.0
H1696 H 0.73913 0.1975 0.81825 0.0
H1697 H 0.7075 0.16935 0.84374 0.0
H1698 H 0.64557 0.17219 0.79293 0.0
H1699 H 0.67741 0.19934 0.76594 0.0
H1700 H 0.64098 0.18154 0.85643 0.0
H1701 H 0.64814 0.12032 0.77729 0.0
H1702 H 0.66691 0.09649 0.73864 0.0
H1703 H 0.70794 0.07538 0.79854 0.0
H1704 H 0.68985 0.09961 0.83765 0.0
H1705 H 0.55356 0.06354 0.89666 0.0
H1706 H 0.57711 0.0968 0.87088 0.0
H1707 H 0.64728 0.11062 0.91894 0.0
H1708 H 0.6235 0.07771 0.94566 0.0
H1709 H 0.64215 0.09149 0.85224 0.0
H1710 H 0.63706 0.166 0.9306 0.0
H1711 H 0.61154 0.18705 0.96418 0.0
H1712 H 0.55692 0.17622 0.89716 0.0
H1713 H 0.58245 0.15561 0.86324 0.0
C1714 C 0.71889 0.19187 0.8121 0.0
C1715 C 0.71085 0.20007 0.78957 0.0
C1716 C 0.70082 0.17594 0.82684 0.0
C1717 C 0.67436 0.16855 0.81991 0.0
C1718 C 0.66602 0.17761 0.79833 0.0
C1719 C 0.6842 0.19305 0.78299 0.0
C1720 C 0.65583 0.15119 0.83552 0.0
C1721 C 0.64094 0.16173 0.85525 0.0
C1722 C 0.65559 0.1253 0.83367 0.0
C1723 C 0.66783 0.11201 0.81042 0.0
C1724 C 0.66152 0.11099 0.78226 0.0
C1725 C 0.67191 0.09729 0.76026 0.0
C1726 C 0.68845 0.08428 0.76614 0.0
C1727 C 0.69499 0.08533 0.79404 0.0
C1728 C 0.68471 0.0991 0.81614 0.0
C1729 C 0.57395 0.07394 0.90201 0.0
C1730 C 0.58693 0.06784 0.92272 0.0
C1731 C 0.58726 0.09304 0.88746 0.0
C1732 C 0.6138 0.10603 0.89311 0.0
C1733 C 0.62669 0.10079 0.91455 0.0
C1734 C 0.61319 0.08202 0.92965 0.0
C1735 C 0.62847 0.12235 0.87406 0.0
C1736 C 0.64236 0.11137 0.85344 0.0
C1737 C 0.62695 0.14735 0.87433 0.0
C1738 C 0.6114 0.15908 0.89465 0.0
C1739 C 0.61946 0.16793 0.92321 0.0
C1740 C 0.60509 0.17985 0.94222 0.0
C1741 C 0.58249 0.18271 0.93286 0.0
C1742 C 0.57436 0.1739 0.90441 0.0
C1743 C 0.58883 0.16223 0.88528 0.0
H1744 H 0.57136 0.1919 0.94762 0.0
H1745 H 0.69625 0.07343 0.74906 0.0
H1746 H 0.8229 0.65308 0.8482 0.0
H1747 H 0.84162 0.63086 0.87631 0.0
H1748 H 0.91567 0.69168 0.87989 0.0
H1749 H 0.8971 0.71335 0.85141 0.0
H1750 H 0.92111 0.64662 0.86068 0.0
H1751 H 0.87923 0.6809 0.93965 0.0
H1752 H 0.84332 0.68939 0.96709 0.0
H1753 H 0.80534 0.60665 0.95875 0.0
H1754 H 0.84087 0.59765 0.9309 0.0
H1755 H 0.99347 0.60649 0.94816 0.0
H1756 H 0.96813 0.63197 0.9355 0.0
H1757 H 0.90115 0.56215 0.91607 0.0
H1758 H 0.92647 0.53645 0.92863 0.0
H1759 H 0.89065 0.61044 0.94501 0.0
H1760 H 0.93098 0.57656 0.86381 0.0
H1761 H 0.96776 0.56792 0.8383 0.0
H1762 H 0.00863 0.65066 0.85219 0.0
H1763 H 0.97219 0.65975 0.8782 0.0
C1764 C 0.84292 0.66208 0.85588 0.0
C1765 C 0.85852 0.68504 0.84789 0.0
C1766 C 0.85366 0.64937 0.87192 0.0
C1767 C 0.88016 0.6595 0.88031 0.0
C1768 C 0.89524 0.68334 0.87369 0.0
C1769 C 0.88459 0.69586 0.85758 0.0
C1770 C 0.89305 0.64401 0.89279 0.0
C1771 C 0.91455 0.63917 0.87941 0.0
C1772 C 0.88419 0.6333 0.91669 0.0
C1773 C 0.86252 0.63861 0.93282 0.0
C1774 C 0.86306 0.6645 0.94334 0.0
C1775 C 0.84281 0.66941 0.95906 0.0
C1776 C 0.822 0.64857 0.96456 0.0
C1777 C 0.82143 0.62277 0.9544 0.0
C1778 C 0.84162 0.61776 0.93865 0.0
C1779 C 0.97323 0.59662 0.94171 0.0
C1780 C 0.96205 0.56939 0.93918 0.0
C1781 C 0.95877 0.61121 0.93444 0.0
C1782 C 0.93276 0.59895 0.92473 0.0
C1783 C 0.92115 0.57203 0.92357 0.0
C1784 C 0.93571 0.55734 0.9305 0.0
C1785 C 0.9187 0.61374 0.91309 0.0
C1786 C 0.89704 0.61816 0.92639 0.0
C1787 C 0.92728 0.62413 0.8891 0.0
C1788 C 0.94903 0.61881 0.87318 0.0
C1789 C 0.94791 0.59289 0.8616 0.0
C1790 C 0.96866 0.58792 0.84704 0.0
C1791 C 0.99055 0.60873 0.8437 0.0
C1792 C 0.99168 0.63456 0.85484 0.0
C1793 C 0.97098 0.63964 0.86948 0.0
H1794 H 1.00662 0.60484 0.83242 0.0
H1795 H 0.80637 0.65241 0.97676 0.0
H1796 H 0.13632 0.30038 0.16519 0.0
H1797 H 0.11758 0.33022 0.14967 0.0
H1798 H 0.16602 0.33258 0.07832 0.0
H1799 H 0.18447 0.30247 0.09367 0.0
H1800 H 0.16128 0.38103 0.10068 0.0
H1801 H 0.10759 0.29339 0.06788 0.0
H1802 H 0.08188 0.24795 0.06963 0.0
H1803 H 0.03007 0.27567 0.12528 0.0
H1804 H 0.05578 0.32139 0.12432 0.0
H1805 H 0.08 0.42923 0.02743 0.0
H1806 H 0.10476 0.40235 0.03815 0.0
H1807 H 0.06252 0.39265 0.1133 0.0
H1808 H 0.03732 0.41871 0.10238 0.0
H1809 H 0.06592 0.34662 0.08316 0.0
H1810 H 0.12422 0.43671 0.1147 0.0
H1811 H 0.14996 0.48031 0.10684 0.0
H1812 H 0.19304 0.44517 0.0455 0.0
H1813 H 0.16728 0.4013 0.05269 0.0
C1814 C 0.14339 0.30786 0.14664 0.0
C1815 C 0.16191 0.29938 0.13068 0.0
C1816 C 0.13258 0.32471 0.13765 0.0
C1817 C 0.14023 0.3334 0.11265 0.0
C1818 C 0.15984 0.32613 0.09763 0.0
C1819 C 0.17039 0.30901 0.10641 0.0
C1820 C 0.12644 0.34846 0.1012 0.0
C1821 C 0.14046 0.37344 0.09661 0.0
C1822 C 0.09933 0.33835 0.0954 0.0
C1823 C 0.08388 0.31089 0.09637 0.0
C1824 C 0.09092 0.28985 0.08079 0.0
C1825 C 0.0763 0.26403 0.08158 0.0
C1826 C 0.05442 0.25893 0.09765 0.0
C1827 C 0.04708 0.27966 0.11292 0.0
C1828 C 0.06168 0.30555 0.11227 0.0
C1829 C 0.07595 0.42127 0.04618 0.0
C1830 C 0.05686 0.42634 0.06423 0.0
C1831 C 0.09023 0.40608 0.05237 0.0
C1832 C 0.08567 0.39574 0.07671 0.0
C1833 C 0.06645 0.40054 0.0945 0.0
C1834 C 0.05223 0.41568 0.08837 0.0
C1835 C 0.10055 0.37966 0.08389 0.0
C1836 C 0.08673 0.35427 0.08734 0.0
C1837 C 0.12786 0.3892 0.08796 0.0
C1838 C 0.14364 0.41567 0.08405 0.0
C1839 C 0.13906 0.43825 0.0994 0.0
C1840 C 0.15367 0.46302 0.09508 0.0
C1841 C 0.17308 0.4655 0.07563 0.0
C1842 C 0.17798 0.44322 0.06053 0.0
C1843 C 0.16339 0.41839 0.06474 0.0
H1844 H 0.18435 0.48469 0.0723 0.0
H1845 H 0.04311 0.23892 0.0982 0.0
H1846 H 0.17298 0.70198 0.77629 0.0
H1847 H 0.14722 0.67027 0.8028 0.0
H1848 H 0.21717 0.66686 0.83806 0.0
H1849 H 0.24307 0.69906 0.81229 0.0
H1850 H 0.17878 0.61711 0.81836 0.0
H1851 H 0.18816 0.70159 0.87773 0.0
H1852 H 0.18489 0.74583 0.89309 0.0
H1853 H 0.10273 0.71431 0.8752 0.0
H1854 H 0.10557 0.66994 0.85933 0.0
H1855 H 0.12602 0.5603 0.93537 0.0
H1856 H 0.15242 0.59155 0.90827 0.0
H1857 H 0.08289 0.59196 0.86893 0.0
H1858 H 0.05666 0.56075 0.89572 0.0
H1859 H 0.12115 0.64289 0.89072 0.0
H1860 H 0.11122 0.55886 0.83113 0.0
H1861 H 0.11301 0.51389 0.82051 0.0
H1862 H 0.195 0.54403 0.83971 0.0
H1863 H 0.1936 0.5892 0.85091 0.0
C1864 C 0.18288 0.69454 0.78973 0.0
C1865 C 0.21004 0.70316 0.79242 0.0
C1866 C 0.16815 0.67642 0.80479 0.0
C1867 C 0.18039 0.66648 0.82247 0.0
C1868 C 0.20746 0.67437 0.82447 0.0
C1869 C 0.22219 0.69273 0.80972 0.0
C1870 C 0.16496 0.64822 0.83936 0.0
C1871 C 0.16639 0.62281 0.83439 0.0
C1872 C 0.14846 0.65559 0.85982 0.0
C1873 C 0.1471 0.68249 0.86716 0.0
C1874 C 0.16947 0.70415 0.87663 0.0
C1875 C 0.16766 0.72922 0.8856 0.0
C1876 C 0.14357 0.7328 0.88534 0.0
C1877 C 0.12134 0.71146 0.87553 0.0
C1878 C 0.12304 0.68637 0.86653 0.0
C1879 C 0.11655 0.56747 0.92128 0.0
C1880 C 0.08952 0.55844 0.91767 0.0
C1881 C 0.13151 0.585 0.90567 0.0
C1882 C 0.11946 0.59384 0.88664 0.0
C1883 C 0.09243 0.58528 0.88355 0.0
C1884 C 0.07756 0.56746 0.89874 0.0
C1885 C 0.13498 0.61192 0.8697 0.0
C1886 C 0.13354 0.63723 0.87464 0.0
C1887 C 0.15131 0.60443 0.84915 0.0
C1888 C 0.15227 0.57736 0.84216 0.0
C1889 C 0.12959 0.55588 0.83334 0.0
C1890 C 0.13054 0.53036 0.82717 0.0
C1891 C 0.1541 0.52609 0.82951 0.0
C1892 C 0.17676 0.54736 0.83795 0.0
C1893 C 0.17591 0.57292 0.8442 0.0
H1894 H 0.1548 0.50632 0.82472 0.0
H1895 H 0.14209 0.75212 0.89279 0.0
H1896 H 0.3522 0.19606 0.86575 0.0
H1897 H 0.3841 0.18141 0.88615 0.0
H1898 H 0.3359 0.10089 0.85644 0.0
H1899 H 0.30403 0.11549 0.83674 0.0
H1900 H 0.3495 0.10951 0.91046 0.0
H1901 H 0.39574 0.13232 0.8267 0.0
H1902 H 0.41758 0.16279 0.79644 0.0
H1903 H 0.4693 0.21271 0.8659 0.0
H1904 H 0.44759 0.18268 0.89663 0.0
H1905 H 0.42629 0.03141 0.91821 0.0
H1906 H 0.39934 0.05534 0.90591 0.0
H1907 H 0.45976 0.12866 0.93847 0.0
H1908 H 0.48719 0.10477 0.94994 0.0
H1909 H 0.44239 0.13018 0.89017 0.0
H1910 H 0.40343 0.11007 0.97273 0.0
H1911 H 0.38366 0.0847 0.00825 0.0
H1912 H 0.32045 0.03658 0.94957 0.0
H1913 H 0.34002 0.0614 0.91349 0.0
C1914 C 0.34883 0.17526 0.86304 0.0
C1915 C 0.32569 0.1569 0.84965 0.0
C1916 C 0.367 0.16687 0.87478 0.0
C1917 C 0.36244 0.13997 0.87295 0.0
C1918 C 0.33984 0.12171 0.85839 0.0
C1919 C 0.32171 0.13006 0.84694 0.0
C1920 C 0.38024 0.13047 0.88716 0.0
C1921 C 0.36975 0.11378 0.90574 0.0
C1922 C 0.40706 0.1373 0.88251 0.0
C1923 C 0.41984 0.15541 0.86402 0.0
C1924 C 0.41161 0.14991 0.83557 0.0
C1925 C 0.42401 0.16708 0.81832 0.0
C1926 C 0.44476 0.18971 0.82926 0.0
C1927 C 0.4532 0.19521 0.85746 0.0
C1928 C 0.44086 0.17812 0.87479 0.0
C1929 C 0.43388 0.05263 0.92273 0.0
C1930 C 0.45898 0.06611 0.93494 0.0
C1931 C 0.41831 0.06634 0.91599 0.0
C1932 C 0.42737 0.09388 0.92146 0.0
C1933 C 0.45227 0.10744 0.93408 0.0
C1934 C 0.46787 0.09372 0.94083 0.0
C1935 C 0.41136 0.10826 0.91241 0.0
C1936 C 0.42218 0.12598 0.89503 0.0
C1937 C 0.38503 0.10304 0.91889 0.0
C1938 C 0.37335 0.08751 0.94026 0.0
C1939 C 0.38546 0.0939 0.96725 0.0
C1940 C 0.37425 0.07965 0.98753 0.0
C1941 C 0.35084 0.05901 0.98115 0.0
C1942 C 0.3386 0.05257 0.95447 0.0
C1943 C 0.34974 0.06674 0.93409 0.0
H1944 H 0.34216 0.04806 -0.00309 0.0
H1945 H 0.45434 0.20296 0.81586 0.0
H1946 H 0.77543 0.27842 0.83804 0.0
H1947 H 0.80465 0.31078 0.87586 0.0
H1948 H 0.846 0.35325 0.81482 0.0
H1949 H 0.81628 0.32137 0.777 0.0
H1950 H 0.87316 0.329 0.85236 0.0
H1951 H 0.82385 0.38658 0.85028 0.0
H1952 H 0.78353 0.39732 0.85161 0.0
H1953 H 0.77083 0.38149 0.93438 0.0
H1954 H 0.81095 0.3702 0.93328 0.0
H1955 H 0.96388 0.44856 0.90442 0.0
H1956 H 0.92506 0.41372 0.88286 0.0
H1957 H 0.90256 0.39693 0.96417 0.0
H1958 H 0.9422 0.43186 0.986 0.0
H1959 H 0.86256 0.40211 0.92549 0.0
H1960 H 0.92133 0.3549 0.9283 0.0
H1961 H 0.96365 0.34808 0.92328 0.0
H1962 H 0.96058 0.34776 0.83514 0.0
H1963 H 0.9185 0.35506 0.83971 0.0
C1964 C 0.79034 0.29513 0.83294 0.0
C1965 C 0.79393 0.29759 0.8049 0.0
C1966 C 0.80688 0.31347 0.85442 0.0
C1967 C 0.82732 0.33408 0.84786 0.0
C1968 C 0.83013 0.33736 0.82003 0.0
C1969 C 0.8132 0.31933 0.79859 0.0
C1970 C 0.84761 0.35023 0.86941 0.0
C1971 C 0.87094 0.34498 0.86842 0.0
C1972 C 0.84408 0.37033 0.89067 0.0
C1973 C 0.82008 0.37712 0.8915 0.0
C1974 C 0.81227 0.38506 0.8686 0.0
C1975 C 0.78951 0.39133 0.86935 0.0
C1976 C 0.77454 0.38996 0.89301 0.0
C1977 C 0.78239 0.38244 0.91603 0.0
C1978 C 0.80514 0.3761 0.91536 0.0
C1979 C 0.95073 0.4375 0.91781 0.0
C1980 C 0.9559 0.44287 0.94697 0.0
C1981 C 0.92861 0.41765 0.90545 0.0
C1982 C 0.9113 0.40278 0.92199 0.0
C1983 C 0.91588 0.40836 0.95122 0.0
C1984 C 0.93828 0.42834 0.96366 0.0
C1985 C 0.88854 0.38153 0.90785 0.0
C1986 C 0.86456 0.38558 0.91012 0.0
C1987 C 0.89164 0.36055 0.88736 0.0
C1988 C 0.91674 0.35559 0.88439 0.0
C1989 C 0.92974 0.35351 0.90788 0.0
C1990 C 0.95369 0.34956 0.9051 0.0
C1991 C 0.9648 0.3475 0.87891 0.0
C1992 C 0.95195 0.34933 0.85541 0.0
C1993 C 0.92802 0.35333 0.85808 0.0
H1994 H 0.98336 0.34447 0.87681 0.0
H1995 H 0.7569 0.39481 0.89356 0.0
H1996 H 0.7506 0.81789 0.81284 0.0
H1997 H 0.72763 0.84563 0.83964 0.0
H1998 H 0.65472 0.78778 0.80575 0.0
H1999 H 0.67765 0.75957 0.77959 0.0
H2000 H 0.65359 0.83369 0.8022 0.0
H2001 H 0.67419 0.80152 0.88035 0.0
H2002 H 0.70068 0.79213 0.91424 0.0
H2003 H 0.74913 0.87294 0.93341 0.0
H2004 H 0.72244 0.88291 0.90013 0.0
H2005 H 0.57042 0.8881 0.88914 0.0
H2006 H 0.59482 0.86012 0.86663 0.0
H2007 H 0.6662 0.92053 0.90056 0.0
H2008 H 0.64195 0.94888 0.92298 0.0
H2009 H 0.66921 0.87465 0.90406 0.0
H2010 H 0.64538 0.90735 0.82939 0.0
H2011 H 0.6154 0.91707 0.79988 0.0
H2012 H 0.57261 0.83491 0.77411 0.0
H2013 H 0.60219 0.82473 0.80376 0.0
C2014 C 0.72966 0.81075 0.81145 0.0
C2015 C 0.71612 0.78639 0.79373 0.0
C2016 C 0.71645 0.82676 0.82689 0.0
C2017 C 0.68923 0.81899 0.82507 0.0
C2018 C 0.67567 0.79451 0.80763 0.0
C2019 C 0.68887 0.77838 0.79243 0.0
C2020 C 0.67496 0.83679 0.84005 0.0
C2021 C 0.65681 0.84226 0.82458 0.0
C2022 C 0.67948 0.849 0.86909 0.0
C2023 C 0.69655 0.84286 0.88759 0.0
C2024 C 0.69063 0.81722 0.89164 0.0
C2025 C 0.70548 0.81187 0.91095 0.0
C2026 C 0.72658 0.83193 0.92597 0.0
C2027 C 0.73278 0.85743 0.92179 0.0
C2028 C 0.7177 0.86297 0.90284 0.0
C2029 C 0.59132 0.89573 0.89168 0.0
C2030 C 0.60397 0.92117 0.90784 0.0
C2031 C 0.60535 0.87954 0.87871 0.0
C2032 C 0.63257 0.8882 0.88123 0.0
C2033 C 0.64528 0.91323 0.89802 0.0
C2034 C 0.63124 0.92948 0.91102 0.0
C2035 C 0.64764 0.87122 0.86629 0.0
C2036 C 0.66603 0.86607 0.88168 0.0
C2037 C 0.64339 0.85936 0.83714 0.0
C2038 C 0.62583 0.86532 0.81898 0.0
C2039 C 0.62949 0.89138 0.81754 0.0
C2040 C 0.61258 0.89697 0.80078 0.0
C2041 C 0.59207 0.87663 0.78519 0.0
C2042 C 0.58849 0.85064 0.78623 0.0
C2043 C 0.60533 0.84495 0.80297 0.0
H2044 H 0.57897 0.881 0.77227 0.0
H2045 H 0.73818 0.82769 0.94077 0.0
H2046 H 0.76514 0.6645 0.18965 0.0
H2047 H 0.78801 0.63743 0.16149 0.0
H2048 H 0.85717 0.70519 0.17001 0.0
H2049 H 0.83338 0.73265 0.1958 0.0
H2050 H 0.85859 0.67934 0.12347 0.0
H2051 H 0.84137 0.6497 0.21079 0.0
H2052 H 0.81399 0.63243 0.24796 0.0
H2053 H 0.7712 0.5636 0.18708 0.0
H2054 H 0.79814 0.5806 0.14951 0.0
H2055 H 0.94675 0.60763 0.0914 0.0
H2056 H 0.92152 0.63484 0.11384 0.0
H2057 H 0.85125 0.56894 0.09161 0.0
H2058 H 0.87643 0.54123 0.07026 0.0
H2059 H 0.84998 0.59298 0.14388 0.0
H2060 H 0.86974 0.62298 0.05727 0.0
H2061 H 0.89804 0.64092 0.02108 0.0
H2062 H 0.93839 0.70995 0.08306 0.0
H2063 H 0.91045 0.69234 0.11966 0.0
C2064 C 0.78523 0.67359 0.18548 0.0
C2065 C 0.79757 0.70065 0.1954 0.0
C2066 C 0.79851 0.65799 0.16957 0.0
C2067 C 0.82492 0.66874 0.16434 0.0
C2068 C 0.83699 0.69602 0.17376 0.0
C2069 C 0.8234 0.71179 0.18872 0.0
C2070 C 0.83993 0.65178 0.14913 0.0
C2071 C 0.85691 0.66067 0.12842 0.0
C2072 C 0.83762 0.62691 0.15466 0.0
C2073 C 0.82165 0.61652 0.17732 0.0
C2074 C 0.82607 0.63093 0.20533 0.0
C2075 C 0.81063 0.62119 0.22646 0.0
C2076 C 0.79085 0.59696 0.21987 0.0
C2077 C 0.78652 0.58237 0.19215 0.0
C2078 C 0.80189 0.59203 0.17094 0.0
C2079 C 0.92594 0.59876 0.09132 0.0
C2080 C 0.91384 0.57199 0.07886 0.0
C2081 C 0.91142 0.61455 0.10393 0.0
C2082 C 0.88429 0.60421 0.10425 0.0
C2083 C 0.8721 0.57758 0.09165 0.0
C2084 C 0.88661 0.56174 0.07911 0.0
C2085 C 0.86872 0.62075 0.11864 0.0
C2086 C 0.85165 0.61173 0.13913 0.0
C2087 C 0.87127 0.64564 0.11322 0.0
C2088 C 0.88813 0.65622 0.09125 0.0
C2089 C 0.88476 0.6419 0.06322 0.0
C2090 C 0.90071 0.65204 0.04262 0.0
C2091 C 0.92005 0.67653 0.04978 0.0
C2092 C 0.92342 0.69097 0.07754 0.0
C2093 C 0.9075 0.68094 0.09821 0.0
H2094 H 0.93237 0.68433 0.03381 0.0
H2095 H 0.7789 0.58947 0.23625 0.0
H2096 H 0.3379 0.76856 0.20015 0.0
H2097 H 0.36701 0.79559 0.171 0.0
H2098 H 0.3029 0.81448 0.14235 0.0
H2099 H 0.27385 0.78595 0.16963 0.0
H2100 H 0.33361 0.80952 0.10113 0.0
H2101 H 0.34491 0.85355 0.19997 0.0
H2102 H 0.35558 0.8583 0.25021 0.0
H2103 H 0.43188 0.85648 0.23024 0.0
H2104 H 0.42152 0.85128 0.17982 0.0
H2105 H 0.39329 0.93089 0.06236 0.0
H2106 H 0.36747 0.89525 0.08423 0.0
H2107 H 0.43769 0.8877 0.11405 0.0
H2108 H 0.46328 0.92454 0.09405 0.0
H2109 H 0.4067 0.88386 0.15311 0.0
H2110 H 0.39591 0.84352 0.05379 0.0
H2111 H 0.38449 0.8397 0.00395 0.0
H2112 H 0.30672 0.83516 0.02491 0.0
H2113 H 0.31773 0.8393 0.0749 0.0
C2114 C 0.33004 0.77793 0.187 0.0
C2115 C 0.30381 0.77586 0.18771 0.0
C2116 C 0.34667 0.79361 0.17064 0.0
C2117 C 0.33726 0.80767 0.15511 0.0
C2118 C 0.31071 0.80413 0.15443 0.0
C2119 C 0.29415 0.78823 0.17044 0.0
C2120 C 0.35496 0.82735 0.14093 0.0
C2121 C 0.34958 0.82583 0.11246 0.0
C2122 C 0.37608 0.84835 0.15566 0.0
C2123 C 0.38233 0.85171 0.18606 0.0
C2124 C 0.3639 0.85398 0.20626 0.0
C2125 C 0.3699 0.85676 0.23478 0.0
C2126 C 0.39436 0.85761 0.2434 0.0
C2127 C 0.41291 0.85575 0.22353 0.0
C2128 C 0.40699 0.85288 0.19498 0.0
C2129 C 0.40306 0.92153 0.07362 0.0
C2130 C 0.43012 0.93032 0.07667 0.0
C2131 C 0.38837 0.90103 0.0859 0.0
C2132 C 0.4006 0.88828 0.1003 0.0
C2133 C 0.42775 0.89713 0.1031 0.0
C2134 C 0.44235 0.91814 0.09166 0.0
C2135 C 0.38523 0.86629 0.11321 0.0
C2136 C 0.39104 0.86737 0.14152 0.0
C2137 C 0.36444 0.84492 0.09834 0.0
C2138 C 0.35771 0.8419 0.06814 0.0
C2139 C 0.3764 0.84181 0.04778 0.0
C2140 C 0.37 0.83959 0.0195 0.0
C2141 C 0.34492 0.83724 0.01128 0.0
C2142 C 0.32614 0.83699 0.0313 0.0
C2143 C 0.33245 0.83924 0.0596 0.0
H2144 H 0.34003 0.83561 0.98941 0.0
H2145 H 0.39897 0.85978 0.26548 0.0
H2146 H 0.67457 0.1845 0.21426 0.0
H2147 H 0.64329 0.1608 0.17547 0.0
H2148 H 0.70531 0.17098 0.11736 0.0
H2149 H 0.73509 0.20101 0.1558 0.0
H2150 H 0.67191 0.16996 0.08953 0.0
H2151 H 0.66451 0.10427 0.14244 0.0
H2152 H 0.65889 0.08244 0.18242 0.0
H2153 H 0.58679 0.09646 0.19926 0.0
H2154 H 0.59159 0.11761 0.15869 0.0
H2155 H 0.58442 0.03965 0.01581 0.0
H2156 H 0.62073 0.07963 0.03406 0.0
H2157 H 0.56714 0.11926 0.06811 0.0
H2158 H 0.5309 0.07953 0.04982 0.0
H2159 H 0.59611 0.09553 0.10386 0.0
H2160 H 0.60647 0.14891 0.03371 0.0
H2161 H 0.61424 0.1517 0.98429 0.0
H2162 H 0.68929 0.14472 0.99282 0.0
H2163 H 0.6815 0.14057 0.04196 0.0
C2164 C 0.68119 0.18224 0.19302 0.0
C2165 C 0.70685 0.19489 0.18769 0.0
C2166 C 0.66347 0.16773 0.17078 0.0
C2167 C 0.6717 0.16283 0.14311 0.0
C2168 C 0.69801 0.17443 0.1382 0.0
C2169 C 0.71523 0.19117 0.1602 0.0
C2170 C 0.65274 0.1466 0.11939 0.0
C2171 C 0.65567 0.15345 0.09283 0.0
C2172 C 0.63128 0.12477 0.12292 0.0
C2173 C 0.62862 0.11283 0.14783 0.0
C2174 C 0.64757 0.10286 0.15482 0.0
C2175 C 0.64446 0.09051 0.17751 0.0
C2176 C 0.62265 0.08833 0.19362 0.0
C2177 C 0.60371 0.09822 0.18683 0.0
C2178 C 0.60651 0.11019 0.16385 0.0
C2179 C 0.58048 0.05738 0.02579 0.0
C2180 C 0.55522 0.05665 0.03227 0.0
C2181 C 0.60115 0.08019 0.03599 0.0
C2182 C 0.59639 0.10204 0.05265 0.0
C2183 C 0.57101 0.10248 0.05521 0.0
C2184 C 0.55042 0.07974 0.04514 0.0
C2185 C 0.61564 0.11905 0.0749 0.0
C2186 C 0.61257 0.11217 0.10108 0.0
C2187 C 0.63778 0.13922 0.07018 0.0
C2188 C 0.64333 0.1443 0.04155 0.0
C2189 C 0.62462 0.14793 0.02508 0.0
C2190 C 0.62903 0.14973 -0.00294 0.0
C2191 C 0.65231 0.14856 0.98545 0.0
C2192 C 0.67129 0.14569 0.00187 0.0
C2193 C 0.66687 0.14356 0.0298 0.0
H2194 H 0.65567 0.1498 0.96373 0.0
H2195 H 0.62036 0.07887 0.21127 0.0
H2196 H 0.67492 0.68858 0.76131 0.0
H2197 H 0.64829 0.65758 0.78703 0.0
H2198 H 0.71674 0.65785 0.82934 0.0
H2199 H 0.74364 0.68504 0.79954 0.0
H2200 H 0.68478 0.61453 0.82792 0.0
H2201 H 0.67624 0.70033 0.85572 0.0
H2202 H 0.66723 0.73932 0.84801 0.0
H2203 H 0.58968 0.69154 0.81791 0.0
H2204 H 0.59837 0.65227 0.82505 0.0
H2205 H 0.60915 0.58947 0.95296 0.0
H2206 H 0.64116 0.61097 0.92179 0.0
H2207 H 0.58297 0.58224 0.85382 0.0
H2208 H 0.55115 0.56069 0.88438 0.0
H2209 H 0.61152 0.64014 0.8714 0.0
H2210 H 0.62265 0.55428 0.84637 0.0
H2211 H 0.6338 0.51734 0.85676 0.0
H2212 H 0.70963 0.56941 0.88794 0.0
H2213 H 0.69878 0.60673 0.87815 0.0
C2214 C 0.68448 0.68123 0.77499 0.0
C2215 C 0.71157 0.68948 0.77813 0.0
C2216 C 0.6691 0.66395 0.79045 0.0
C2217 C 0.68037 0.65635 0.81128 0.0
C2218 C 0.70743 0.66364 0.81371 0.0
C2219 C 0.72285 0.67953 0.79682 0.0
C2220 C 0.664 0.64207 0.83141 0.0
C2221 C 0.66902 0.62044 0.83769 0.0
C2222 C 0.64335 0.64963 0.84437 0.0
C2223 C 0.63799 0.67339 0.8408 0.0
C2224 C 0.65729 0.69818 0.84744 0.0
C2225 C 0.65225 0.72031 0.84312 0.0
C2226 C 0.6279 0.71791 0.83246 0.0
C2227 C 0.60852 0.69339 0.82617 0.0
C2228 C 0.61348 0.6712 0.83037 0.0
C2229 C 0.60323 0.58787 0.9314 0.0
C2230 C 0.57759 0.57378 0.92119 0.0
C2231 C 0.62155 0.59983 0.91361 0.0
C2232 C 0.6143 0.5979 0.8856 0.0
C2233 C 0.58883 0.58374 0.87539 0.0
C2234 C 0.57068 0.57164 0.89295 0.0
C2235 C 0.63227 0.61279 0.86747 0.0
C2236 C 0.62752 0.63456 0.86173 0.0
C2237 C 0.65348 0.60579 0.85578 0.0
C2238 C 0.65978 0.58334 0.86189 0.0
C2239 C 0.64158 0.55791 0.85578 0.0
C2240 C 0.64788 0.53689 0.86147 0.0
C2241 C 0.67237 0.54104 0.87309 0.0
C2242 C 0.69064 0.56622 0.879 0.0
C2243 C 0.68443 0.5873 0.87338 0.0
H2244 H 0.67722 0.52473 0.87744 0.0
H2245 H 0.62406 0.73505 0.82908 0.0
H2246 H 0.36597 0.6872 0.81784 0.0
H2247 H 0.39174 0.68548 0.85761 0.0
H2248 H 0.33951 0.60787 0.85839 0.0
H2249 H 0.31414 0.60931 0.81835 0.0
H2250 H 0.35511 0.64357 0.9136 0.0
H2251 H 0.38955 0.61046 0.82554 0.0
H2252 H 0.40764 0.61485 0.77926 0.0
H2253 H 0.47134 0.68189 0.81899 0.0
H2254 H 0.45329 0.67817 0.86553 0.0
H2255 H 0.4095 0.56224 0.96067 0.0
H2256 H 0.38897 0.58627 0.93836 0.0
H2257 H 0.46147 0.64965 0.94429 0.0
H2258 H 0.48258 0.62515 0.96571 0.0
H2259 H 0.44087 0.63384 0.89191 0.0
H2260 H 0.41111 0.65787 0.98207 0.0
H2261 H 0.392 0.65193 0.0276 0.0
H2262 H 0.31964 0.60219 0.9847 0.0
H2263 H 0.33846 0.60696 0.93904 0.0
C2264 C 0.36006 0.66988 0.82669 0.0
C2265 C 0.33844 0.64821 0.81503 0.0
C2266 C 0.37462 0.66898 0.84935 0.0
C2267 C 0.36737 0.64659 0.86082 0.0
C2268 C 0.34523 0.62535 0.84982 0.0
C2269 C 0.33098 0.62605 0.82687 0.0
C2270 C 0.38393 0.6441 0.88268 0.0
C2271 C 0.37393 0.64154 0.90908 0.0
C2272 C 0.40875 0.64233 0.87679 0.0
C2273 C 0.41989 0.64427 0.84894 0.0
C2274 C 0.40729 0.62628 0.82438 0.0
C2275 C 0.41754 0.62863 0.79811 0.0
C2276 C 0.44058 0.6487 0.79618 0.0
C2277 C 0.45346 0.6664 0.82053 0.0
C2278 C 0.44321 0.66419 0.84685 0.0
C2279 C 0.42104 0.58151 0.95787 0.0
C2280 C 0.4477 0.59172 0.96503 0.0
C2281 C 0.40921 0.59534 0.94522 0.0
C2282 C 0.42369 0.61983 0.93986 0.0
C2283 C 0.44999 0.6308 0.94837 0.0
C2284 C 0.46191 0.61688 0.96093 0.0
C2285 C 0.4117 0.63236 0.92276 0.0
C2286 C 0.42251 0.63678 0.89708 0.0
C2287 C 0.38763 0.63585 0.92939 0.0
C2288 C 0.3762 0.6329 0.95702 0.0
C2289 C 0.39117 0.64549 0.98233 0.0
C2290 C 0.38041 0.64227 0.0082 0.0
C2291 C 0.3546 0.62681 0.00906 0.0
C2292 C 0.33961 0.61422 0.98409 0.0
C2293 C 0.35032 0.61717 0.95818 0.0
H2294 H 0.34617 0.62475 0.02906 0.0
H2295 H 0.4485 0.65049 0.77582 0.0
H2296 H 0.28056 0.30279 0.81946 0.0
H2297 H 0.31109 0.32678 0.85947 0.0
H2298 H 0.37462 0.32331 0.80573 0.0
H2299 H 0.34357 0.29532 0.76732 0.0
H2300 H 0.38848 0.31914 0.85025 0.0
H2301 H 0.35066 0.38076 0.82919 0.0
H2302 H 0.31454 0.39618 0.82109 0.0
H2303 H 0.29039 0.39176 0.90506 0.0
H2304 H 0.32625 0.37606 0.91352 0.0
H2305 H 0.47715 0.44688 0.89861 0.0
H2306 H 0.44245 0.40777 0.87536 0.0
H2307 H 0.41593 0.39232 0.95607 0.0
H2308 H 0.45153 0.43114 0.97971 0.0
H2309 H 0.37997 0.40053 0.90963 0.0
H2310 H 0.43327 0.34945 0.92703 0.0
H2311 H 0.47592 0.34334 0.92683 0.0
H2312 H 0.47838 0.33914 0.83772 0.0
H2313 H 0.43595 0.34559 0.83747 0.0
C2314 C 0.30109 0.30687 0.81659 0.0
C2315 C 0.30998 0.2968 0.79099 0.0
C2316 C 0.31859 0.32095 0.83928 0.0
C2317 C 0.34539 0.32735 0.83577 0.0
C2318 C 0.35414 0.31832 0.80936 0.0
C2319 C 0.33652 0.30267 0.7873 0.0
C2320 C 0.36444 0.34376 0.8592 0.0
C2321 C 0.38646 0.33691 0.86313 0.0
C2322 C 0.36193 0.36684 0.87658 0.0
C2323 C 0.34089 0.37699 0.87187 0.0
C2324 C 0.33759 0.38305 0.84588 0.0
C2325 C 0.31717 0.39181 0.84123 0.0
C2326 C 0.30013 0.39487 0.86252 0.0
C2327 C 0.30357 0.38934 0.88858 0.0
C2328 C 0.32395 0.38054 0.89333 0.0
C2329 C 0.46419 0.43498 0.91146 0.0
C2330 C 0.46657 0.44233 0.94096 0.0
C2331 C 0.44449 0.41266 0.89815 0.0
C2332 C 0.42671 0.3975 0.91411 0.0
C2333 C 0.42957 0.40401 0.94356 0.0
C2334 C 0.44977 0.42613 0.95696 0.0
C2335 C 0.40407 0.37637 0.89937 0.0
C2336 C 0.38135 0.38228 0.89719 0.0
C2337 C 0.4067 0.35343 0.88232 0.0
C2338 C 0.43141 0.34791 0.88224 0.0
C2339 C 0.4429 0.34717 0.9074 0.0
C2340 C 0.46706 0.34369 0.90737 0.0
C2341 C 0.47984 0.34082 0.88228 0.0
C2342 C 0.46843 0.34128 0.85713 0.0
C2343 C 0.4443 0.34476 0.85705 0.0
H2344 H 0.4986 0.33826 0.88232 0.0
H2345 H 0.28428 0.40157 0.85885 0.0
H2346 H 0.66046 0.28166 0.88795 0.0
H2347 H 0.66139 0.31905 0.92589 0.0
H2348 H 0.69451 0.37169 0.8706 0.0
H2349 H 0.69452 0.33493 0.8334 0.0
H2350 H 0.70158 0.3988 0.92262 0.0
H2351 H 0.62921 0.33881 0.85997 0.0
H2352 H 0.59895 0.29554 0.83666 0.0
H2353 H 0.57651 0.27811 0.91731 0.0
H2354 H 0.60649 0.3215 0.94106 0.0
H2355 H 0.61778 0.47076 0.91103 0.0
H2356 H 0.6439 0.44162 0.90391 0.0
H2357 H 0.60819 0.40821 0.97324 0.0
H2358 H 0.58184 0.43703 0.98018 0.0
H2359 H 0.60591 0.37296 0.92612 0.0
H2360 H 0.67213 0.44989 0.98071 0.0
H2361 H 0.69667 0.4972 0.98878 0.0
H2362 H 0.72692 0.48603 0.90652 0.0
H2363 H 0.70245 0.43867 0.8979 0.0
C2364 C 0.66892 0.30134 0.88447 0.0
C2365 C 0.67653 0.30555 0.85772 0.0
C2366 C 0.66982 0.32263 0.90615 0.0
C2367 C 0.67713 0.34782 0.90051 0.0
C2368 C 0.68859 0.35233 0.87525 0.0
C2369 C 0.68824 0.33121 0.85384 0.0
C2370 C 0.66534 0.36674 0.91552 0.0
C2371 C 0.68074 0.39319 0.92412 0.0
C2372 C 0.63802 0.35939 0.9162 0.0
C2373 C 0.62035 0.3331 0.90224 0.0
C2374 C 0.6179 0.32566 0.87269 0.0
C2375 C 0.60072 0.30121 0.85942 0.0
C2376 C 0.58593 0.28402 0.8755 0.0
C2377 C 0.58808 0.29139 0.90489 0.0
C2378 C 0.60509 0.31594 0.91827 0.0
C2379 C 0.61588 0.45735 0.92486 0.0
C2380 C 0.59843 0.45609 0.94643 0.0
C2381 C 0.63089 0.4411 0.92108 0.0
C2382 C 0.62846 0.42378 0.939 0.0
C2383 C 0.61076 0.42237 0.96023 0.0
C2384 C 0.59583 0.43856 0.96403 0.0
C2385 C 0.64211 0.40485 0.93366 0.0
C2386 C 0.62688 0.37846 0.92639 0.0
C2387 C 0.6693 0.41257 0.93272 0.0
C2388 C 0.68561 0.44068 0.93876 0.0
C2389 C 0.68417 0.45749 0.96443 0.0
C2390 C 0.698 0.48433 0.96906 0.0
C2391 C 0.71338 0.4946 0.9482 0.0
C2392 C 0.7151 0.47802 0.92272 0.0
C2393 C 0.70135 0.45116 0.918 0.0
H2394 H 0.72394 0.51541 0.95175 0.0
H2395 H 0.57275 0.26503 0.86518 0.0
H2396 H 0.71994 0.34948 0.13115 0.0
H2397 H 0.689 0.35309 0.09822 0.0
H2398 H 0.62767 0.33047 0.15458 0.0
H2399 H 0.65846 0.32666 0.18758 0.0
H2400 H 0.61109 0.31174 0.09619 0.0
H2401 H 0.65738 0.39223 0.16226 0.0
H2402 H 0.69725 0.42493 0.18683 0.0
H2403 H 0.72713 0.44075 0.10774 0.0
H2404 H 0.68753 0.40785 0.08266 0.0
H2405 H 0.52994 0.37809 0.05857 0.0
H2406 H 0.55572 0.3582 0.08032 0.0
H2407 H 0.62259 0.39679 0.03755 0.0
H2408 H 0.59741 0.41875 0.01826 0.0
H2409 H 0.63552 0.40453 0.08806 0.0
H2410 H 0.58649 0.3259 0.0215 0.0
H2411 H 0.54587 0.29369 -0.00197 0.0
H2412 H 0.52009 0.27454 0.07714 0.0
H2413 H 0.56045 0.30683 0.10117 0.0
C2414 C 0.69982 0.345 0.13636 0.0
C2415 C 0.69169 0.33827 0.1621 0.0
C2416 C 0.68214 0.34676 0.11744 0.0
C2417 C 0.65618 0.34226 0.12419 0.0
C2418 C 0.64762 0.33386 0.14899 0.0
C2419 C 0.66527 0.33189 0.16786 0.0
C2420 C 0.63928 0.35045 0.10776 0.0
C2421 C 0.61626 0.33198 0.09431 0.0
C2422 C 0.64622 0.37687 0.10547 0.0
C2423 C 0.66958 0.39746 0.12058 0.0
C2424 C 0.67248 0.40264 0.15011 0.0
C2425 C 0.69503 0.42119 0.16412 0.0
C2426 C 0.71473 0.43487 0.14885 0.0
C2427 C 0.71185 0.43013 0.11954 0.0
C2428 C 0.68934 0.41156 0.10541 0.0
C2429 C 0.54998 0.38178 0.05326 0.0
C2430 C 0.56157 0.3994 0.03603 0.0
C2431 C 0.56469 0.37028 0.06561 0.0
C2432 C 0.591 0.37547 0.06007 0.0
C2433 C 0.60228 0.3923 0.04198 0.0
C2434 C 0.58783 0.40455 0.03056 0.0
C2435 C 0.60748 0.3657 0.07535 0.0
C2436 C 0.63037 0.38409 0.08917 0.0
C2437 C 0.60029 0.33922 0.07782 0.0
C2438 C 0.57653 0.31885 0.06317 0.0
C2439 C 0.57218 0.31481 0.03391 0.0
C2440 C 0.54918 0.29656 0.0205 0.0
C2441 C 0.53041 0.28209 0.03609 0.0
C2442 C 0.53467 0.28573 0.06509 0.0
C2443 C 0.55765 0.30395 0.07861 0.0
H2444 H 0.51258 0.26805 0.0257 0.0
H2445 H 0.73221 0.44917 0.15973 0.0
H2446 H 0.71562 0.67154 0.1908 0.0
H2447 H 0.68235 0.64502 0.15393 0.0
H2448 H 0.64169 0.70093 0.17501 0.0
H2449 H 0.67545 0.72784 0.21198 0.0
H2450 H 0.61156 0.64384 0.16779 0.0
H2451 H 0.67151 0.70502 0.12107 0.0
H2452 H 0.71418 0.72979 0.1064 0.0
H2453 H 0.72558 0.65785 0.0651 0.0
H2454 H 0.68323 0.63257 0.08 0.0
H2455 H 0.52869 0.57142 0.04909 0.0
H2456 H 0.56104 0.61231 0.07402 0.0
H2457 H 0.61539 0.57116 0.07604 0.0
H2458 H 0.5827 0.53014 0.05223 0.0
H2459 H 0.63627 0.62842 0.06826 0.0
H2460 H 0.58859 0.56934 0.12644 0.0
H2461 H 0.54912 0.54016 0.14275 0.0
H2462 H 0.51895 0.60389 0.16494 0.0
H2463 H 0.55809 0.63332 0.14809 0.0
C2464 C 0.69918 0.67771 0.18797 0.0
C2465 C 0.69747 0.70119 0.20424 0.0
C2466 C 0.68053 0.66288 0.16676 0.0
C2467 C 0.66004 0.67144 0.16162 0.0
C2468 C 0.65761 0.69431 0.17874 0.0
C2469 C 0.67653 0.70937 0.19991 0.0
C2470 C 0.641 0.65574 0.13861 0.0
C2471 C 0.61659 0.6411 0.14589 0.0
C2472 C 0.64829 0.65163 0.11031 0.0
C2473 C 0.67409 0.66684 0.10172 0.0
C2474 C 0.68318 0.69443 0.10911 0.0
C2475 C 0.70732 0.70858 0.10069 0.0
C2476 C 0.7225 0.69541 0.0847 0.0
C2477 C 0.71373 0.66804 0.07736 0.0
C2478 C 0.68965 0.65378 0.08578 0.0
C2479 C 0.54791 0.5715 0.05397 0.0
C2480 C 0.55361 0.54811 0.04874 0.0
C2481 C 0.56626 0.59469 0.0681 0.0
C2482 C 0.59047 0.59455 0.07658 0.0
C2483 C 0.59686 0.57154 0.06925 0.0
C2484 C 0.57825 0.54822 0.05589 0.0
C2485 C 0.60702 0.61662 0.09762 0.0
C2486 C 0.63094 0.63207 0.08999 0.0
C2487 C 0.59975 0.62105 0.12582 0.0
C2488 C 0.57597 0.60337 0.13545 0.0
C2489 C 0.57333 0.57701 0.13432 0.0
C2490 C 0.55108 0.56045 0.14376 0.0
C2491 C 0.53147 0.57013 0.15474 0.0
C2492 C 0.5341 0.59639 0.15629 0.0
C2493 C 0.55629 0.61301 0.14675 0.0
H2494 H 0.5143 0.55731 0.16216 0.0
H2495 H 0.74106 0.7064 0.078 0.0
H2496 H 0.34928 0.70601 0.11223 0.0
H2497 H 0.34472 0.66693 0.07511 0.0
H2498 H 0.32342 0.61881 0.13652 0.0
H2499 H 0.32722 0.65685 0.173 0.0
H2500 H 0.3825 0.64768 0.10275 0.0
H2501 H 0.29586 0.58045 0.11085 0.0
H2502 H 0.2483 0.56265 0.10501 0.0
H2503 H 0.25251 0.56902 0.01851 0.0
H2504 H 0.30013 0.58761 0.02428 0.0
H2505 H 0.41128 0.53357 0.08508 0.0
H2506 H 0.38253 0.55955 0.09582 0.0
H2507 H 0.38592 0.57084 0.01059 0.0
H2508 H 0.41492 0.54461 -0.00033 0.0
H2509 H 0.33233 0.55966 0.04669 0.0
H2510 H 0.42468 0.61681 0.04302 0.0
H2511 H 0.47095 0.62766 0.05598 0.0
H2512 H 0.4536 0.63355 0.14322 0.0
H2513 H 0.40724 0.62243 0.13072 0.0
C2514 C 0.34235 0.68689 0.11743 0.0
C2515 C 0.33902 0.68453 0.14551 0.0
C2516 C 0.33914 0.66456 0.09616 0.0
C2517 C 0.33307 0.6399 0.10297 0.0
C2518 C 0.32676 0.63729 0.13043 0.0
C2519 C 0.32962 0.6594 0.15153 0.0
C2520 C 0.34452 0.62127 0.08672 0.0
C2521 C 0.37153 0.62866 0.08994 0.0
C2522 C 0.33002 0.59614 0.07117 0.0
C2523 C 0.30146 0.58668 0.06836 0.0
C2524 C 0.28663 0.57902 0.09093 0.0
C2525 C 0.25965 0.56849 0.08755 0.0
C2526 C 0.24736 0.56506 0.06152 0.0
C2527 C 0.26202 0.57205 0.03879 0.0
C2528 C 0.28899 0.58272 0.04215 0.0
C2529 C 0.40568 0.5414 0.06859 0.0
C2530 C 0.41563 0.53792 0.04177 0.0
C2531 C 0.38907 0.55579 0.07461 0.0
C2532 C 0.38239 0.56681 0.05387 0.0
C2533 C 0.39092 0.56208 0.02656 0.0
C2534 C 0.40753 0.54749 0.02048 0.0
C2535 C 0.37003 0.58654 0.06242 0.0
C2536 C 0.34317 0.57921 0.05838 0.0
C2537 C 0.38446 0.61138 0.07848 0.0
C2538 C 0.4125 0.61871 0.0859 0.0
C2539 C 0.43073 0.62031 0.06493 0.0
C2540 C 0.45698 0.62652 0.07221 0.0
C2541 C 0.46521 0.63127 0.1004 0.0
C2542 C 0.44722 0.62989 0.1214 0.0
C2543 C 0.42098 0.62369 0.11423 0.0
H2544 H 0.48551 0.63605 0.10599 0.0
H2545 H 0.22652 0.55671 0.05892 0.0
H2546 H 0.27417 0.31354 0.20513 0.0
H2547 H 0.30072 0.34246 0.176 0.0
H2548 H 0.36193 0.31043 0.18115 0.0
H2549 H 0.33552 0.28111 0.20964 0.0
H2550 H 0.36669 0.37548 0.19834 0.0
H2551 H 0.35678 0.29329 0.12274 0.0
H2552 H 0.33057 0.2517 0.09148 0.0
H2553 H 0.2782 0.28888 0.07054 0.0
H2554 H 0.30441 0.33079 0.10125 0.0
H2555 H 0.46703 0.42627 0.11035 0.0
H2556 H 0.43594 0.40182 0.13976 0.0
H2557 H 0.3731 0.39767 0.08508 0.0
H2558 H 0.40433 0.42069 0.05469 0.0
H2559 H 0.3658 0.35268 0.09404 0.0
H2560 H 0.38906 0.4383 0.15571 0.0
H2561 H 0.41843 0.47994 0.18369 0.0
H2562 H 0.44603 0.43773 0.23308 0.0
H2563 H 0.4171 0.39582 0.20519 0.0
C2564 C 0.29323 0.31259 0.19995 0.0
C2565 C 0.30295 0.29539 0.20999 0.0
C2566 C 0.30828 0.32904 0.18335 0.0
C2567 C 0.33313 0.32842 0.17667 0.0
C2568 C 0.34275 0.31108 0.18629 0.0
C2569 C 0.32773 0.29457 0.20273 0.0
C2570 C 0.34966 0.34672 0.16068 0.0
C2571 C 0.36666 0.37071 0.17552 0.0
C2572 C 0.3491 0.34037 0.1311 0.0
C2573 C 0.33227 0.31494 0.11449 0.0
C2574 C 0.33952 0.29247 0.11166 0.0
C2575 C 0.32483 0.26895 0.09388 0.0
C2576 C 0.30271 0.26765 0.07913 0.0
C2577 C 0.29528 0.2899 0.08205 0.0
C2578 C 0.31008 0.31355 0.09955 0.0
C2579 C 0.44655 0.42012 0.10472 0.0
C2580 C 0.43795 0.42499 0.0802 0.0
C2581 C 0.42879 0.40647 0.1217 0.0
C2582 C 0.40212 0.39828 0.11491 0.0
C2583 C 0.39357 0.40377 0.09071 0.0
C2584 C 0.41136 0.41678 0.07332 0.0
C2585 C 0.38328 0.38196 0.1315 0.0
C2586 C 0.36576 0.35809 0.11683 0.0
C2587 C 0.38355 0.38858 0.16133 0.0
C2588 C 0.40098 0.41386 0.17818 0.0
C2589 C 0.40151 0.43787 0.1724 0.0
C2590 C 0.41807 0.46154 0.18828 0.0
C2591 C 0.43411 0.46148 0.21011 0.0
C2592 C 0.4336 0.43775 0.21616 0.0
C2593 C 0.41709 0.41404 0.20034 0.0
H2594 H 0.44691 0.47982 0.22237 0.0
H2595 H 0.29134 0.24939 0.06544 0.0
H2596 H 0.80361 0.68393 0.73533 0.0
H2597 H 0.82806 0.65742 0.70909 0.0
H2598 H 0.81653 0.68257 0.63395 0.0
H2599 H 0.79358 0.71034 0.66084 0.0
H2600 H 0.80899 0.63107 0.62153 0.0
H2601 H 0.87506 0.7069 0.66961 0.0
H2602 H 0.90123 0.74192 0.70806 0.0
H2603 H 0.9148 0.68445 0.74689 0.0
H2604 H 0.88824 0.64901 0.70896 0.0
H2605 H 0.903 0.57958 0.54598 0.0
H2606 H 0.87744 0.60685 0.5679 0.0
H2607 H 0.88744 0.58888 0.64793 0.0
H2608 H 0.91277 0.56164 0.62629 0.0
H2609 H 0.89644 0.63886 0.65529 0.0
H2610 H 0.82782 0.56252 0.60503 0.0
H2611 H 0.80484 0.52972 0.56311 0.0
H2612 H 0.79902 0.59106 0.52525 0.0
H2613 H 0.82218 0.62424 0.56682 0.0
C2614 C 0.80679 0.68434 0.7134 0.0
C2615 C 0.7968 0.69972 0.70035 0.0
C2616 C 0.82061 0.66891 0.69826 0.0
C2617 C 0.82454 0.66808 0.66944 0.0
C2618 C 0.81389 0.68277 0.65612 0.0
C2619 C 0.80044 0.69853 0.67146 0.0
C2620 C 0.83962 0.65182 0.65336 0.0
C2621 C 0.82825 0.63301 0.62877 0.0
C2622 C 0.86475 0.65407 0.6627 0.0
C2623 C 0.87939 0.67524 0.68653 0.0
C2624 C 0.88326 0.70167 0.68656 0.0
C2625 C 0.89828 0.72162 0.70821 0.0
C2626 C 0.90972 0.71542 0.72987 0.0
C2627 C 0.90602 0.68923 0.73003 0.0
C2628 C 0.8909 0.6692 0.70851 0.0
C2629 C 0.89954 0.58113 0.56818 0.0
C2630 C 0.91036 0.56841 0.58426 0.0
C2631 C 0.8848 0.59679 0.58075 0.0
C2632 C 0.88021 0.59997 0.60971 0.0
C2633 C 0.8907 0.58701 0.62564 0.0
C2634 C 0.90542 0.57146 0.61316 0.0
C2635 C 0.86557 0.61755 0.62394 0.0
C2636 C 0.87711 0.63678 0.64813 0.0
C2637 C 0.84078 0.61587 0.61401 0.0
C2638 C 0.82699 0.59589 0.58894 0.0
C2639 C 0.82183 0.56903 0.58767 0.0
C2640 C 0.80872 0.55037 0.56399 0.0
C2641 C 0.80054 0.55831 0.5415 0.0
C2642 C 0.80539 0.58493 0.54267 0.0
C2643 C 0.81849 0.60367 0.5663 0.0
H2644 H 0.79039 0.54383 0.5232 0.0
H2645 H 0.9214 0.73089 0.74657 0.0
H2646 H 0.336 0.78022 0.71073 0.0
H2647 H 0.36263 0.81064 0.68353 0.0
H2648 H 0.2954 0.82788 0.66112 0.0
H2649 H 0.26855 0.79703 0.68763 0.0
H2650 H 0.32333 0.8189 0.61606 0.0
H2651 H 0.34024 0.86973 0.71153 0.0
H2652 H 0.35361 0.87836 0.76167 0.0
H2653 H 0.42922 0.8762 0.73885 0.0
H2654 H 0.41616 0.86699 0.68854 0.0
H2655 H 0.38807 0.92926 0.55799 0.0
H2656 H 0.36092 0.89812 0.58448 0.0
H2657 H 0.42941 0.8897 0.61765 0.0
H2658 H 0.4564 0.9221 0.59279 0.0
H2659 H 0.40043 0.89424 0.65785 0.0
H2660 H 0.38307 0.83642 0.56473 0.0
H2661 H 0.37023 0.8232 0.51409 0.0
H2662 H 0.29838 0.83737 0.53194 0.0
H2663 H 0.31037 0.84971 0.58285 0.0
C2664 C 0.32684 0.79028 0.69986 0.0
C2665 C 0.30009 0.78586 0.70104 0.0
C2666 C 0.34213 0.80786 0.68452 0.0
C2667 C 0.33099 0.82162 0.67048 0.0
C2668 C 0.30434 0.81738 0.67175 0.0
C2669 C 0.28904 0.79972 0.68694 0.0
C2670 C 0.34692 0.84008 0.65391 0.0
C2671 C 0.34002 0.83558 0.62526 0.0
C2672 C 0.36909 0.86136 0.66583 0.0
C2673 C 0.37711 0.8674 0.69618 0.0
C2674 C 0.35966 0.87089 0.71717 0.0
C2675 C 0.36719 0.87591 0.74564 0.0
C2676 C 0.39223 0.87777 0.75344 0.0
C2677 C 0.40981 0.87471 0.73278 0.0
C2678 C 0.40235 0.86959 0.70428 0.0
C2679 C 0.39715 0.9205 0.57079 0.0
C2680 C 0.42417 0.92801 0.57358 0.0
C2681 C 0.3817 0.90259 0.58576 0.0
C2682 C 0.39307 0.89122 0.60286 0.0
C2683 C 0.42013 0.89826 0.60482 0.0
C2684 C 0.43553 0.91669 0.59056 0.0
C2685 C 0.377 0.87297 0.61977 0.0
C2686 C 0.3838 0.87754 0.64857 0.0
C2687 C 0.35495 0.8515 0.60797 0.0
C2688 C 0.34774 0.84426 0.57747 0.0
C2689 C 0.3646 0.83683 0.55781 0.0
C2690 C 0.35746 0.82946 0.52908 0.0
C2691 C 0.33371 0.82986 0.51974 0.0
C2692 C 0.31683 0.83719 0.53918 0.0
C2693 C 0.32367 0.84415 0.56799 0.0
H2694 H 0.32833 0.82431 0.49746 0.0
H2695 H 0.39801 0.88164 0.77549 0.0
H2696 H 0.15905 0.34896 0.68999 0.0
H2697 H 0.13192 0.36072 0.66027 0.0
H2698 H 0.16768 0.33117 0.58656 0.0
H2699 H 0.19632 0.32058 0.61685 0.0
H2700 H 0.16269 0.37532 0.58116 0.0
H2701 H 0.10293 0.29836 0.60047 0.0
H2702 H 0.07931 0.26585 0.62778 0.0
H2703 H 0.04884 0.32219 0.67803 0.0
H2704 H 0.07249 0.35514 0.65124 0.0
H2705 H 0.06676 0.41296 0.51486 0.0
H2706 H 0.09178 0.38662 0.52632 0.0
H2707 H 0.07789 0.40869 0.6143 0.0
H2708 H 0.05173 0.43339 0.60298 0.0
H2709 H 0.06973 0.35809 0.59974 0.0
H2710 H 0.13743 0.4366 0.57922 0.0
H2711 H 0.1585 0.46445 0.54614 0.0
H2712 H 0.17067 0.39835 0.49055 0.0
H2713 H 0.1495 0.37005 0.52323 0.0
C2714 C 0.16122 0.34486 0.66746 0.0
C2715 C 0.18009 0.33402 0.65592 0.0
C2716 C 0.14539 0.35135 0.65034 0.0
C2717 C 0.14732 0.34654 0.62097 0.0
C2718 C 0.16568 0.33503 0.60913 0.0
C2719 C 0.18185 0.32871 0.62644 0.0
C2720 C 0.13069 0.3547 0.6034 0.0
C2721 C 0.14225 0.37113 0.58485 0.0
C2722 C 0.10384 0.34895 0.60753 0.0
C2723 C 0.0896 0.32926 0.62388 0.0
C2724 C 0.09133 0.30387 0.61746 0.0
C2725 C 0.0779 0.28536 0.63283 0.0
C2726 C 0.0626 0.29196 0.65464 0.0
C2727 C 0.06068 0.31709 0.66111 0.0
C2728 C 0.07404 0.33568 0.64579 0.0
C2729 C 0.06884 0.41202 0.53663 0.0
C2730 C 0.05729 0.4256 0.558 0.0
C2731 C 0.08344 0.39716 0.54318 0.0
C2732 C 0.08704 0.39586 0.57126 0.0
C2733 C 0.07552 0.40939 0.59248 0.0
C2734 C 0.06077 0.42388 0.58597 0.0
C2735 C 0.1021 0.38012 0.57927 0.0
C2736 C 0.09011 0.36198 0.5958 0.0
C2737 C 0.12825 0.3838 0.57258 0.0
C2738 C 0.14165 0.40115 0.55352 0.0
C2739 C 0.14452 0.42798 0.55991 0.0
C2740 C 0.15649 0.44385 0.54123 0.0
C2741 C 0.16582 0.43313 0.51622 0.0
C2742 C 0.16336 0.40658 0.5099 0.0
C2743 C 0.15143 0.39064 0.5285 0.0
H2744 H 0.175 0.44542 0.50176 0.0
H2745 H 0.05223 0.27759 0.66652 0.0
H2746 H 0.75766 0.18939 0.64832 0.0
H2747 H 0.73022 0.15758 0.60822 0.0
H2748 H 0.66589 0.14089 0.66234 0.0
H2749 H 0.69314 0.17104 0.70202 0.0
H2750 H 0.67305 0.09705 0.63089 0.0
H2751 H 0.64044 0.16837 0.59744 0.0
H2752 H 0.65094 0.21235 0.58722 0.0
H2753 H 0.72456 0.20899 0.55777 0.0
H2754 H 0.71392 0.16443 0.56662 0.0
H2755 H 0.54668 0.06671 0.57608 0.0
H2756 H 0.58991 0.096 0.59366 0.0
H2757 H 0.62346 0.05577 0.52539 0.0
H2758 H 0.58004 0.02566 0.50799 0.0
H2759 H 0.64014 0.12384 0.55237 0.0
H2760 H 0.63174 0.03438 0.56783 0.0
H2761 H 0.60395 -0.00499 0.58317 0.0
H2762 H 0.59521 0.04253 0.66242 0.0
H2763 H 0.62258 0.08227 0.64736 0.0
C2764 C 0.7378 0.17842 0.65152 0.0
C2765 C 0.72747 0.18255 0.67812 0.0
C2766 C 0.722 0.1608 0.62857 0.0
C2767 C 0.69579 0.14747 0.63213 0.0
C2768 C 0.68593 0.15118 0.65897 0.0
C2769 C 0.70158 0.16834 0.68167 0.0
C2770 C 0.67829 0.12828 0.60896 0.0
C2771 C 0.6665 0.1027 0.61313 0.0
C2772 C 0.66884 0.13593 0.58654 0.0
C2773 C 0.67677 0.16347 0.58354 0.0
C2774 C 0.65899 0.17716 0.58905 0.0
C2775 C 0.66478 0.202 0.5831 0.0
C2776 C 0.68851 0.21356 0.57208 0.0
C2777 C 0.70633 0.20013 0.56664 0.0
C2778 C 0.70041 0.17503 0.57207 0.0
C2779 C 0.5632 0.06435 0.56449 0.0
C2780 C 0.56009 0.044 0.54061 0.0
C2781 C 0.58781 0.08114 0.57449 0.0
C2782 C 0.60965 0.07786 0.56079 0.0
C2783 C 0.60667 0.05856 0.53603 0.0
C2784 C 0.58194 0.04156 0.52606 0.0
C2785 C 0.63537 0.09301 0.57444 0.0
C2786 C 0.64807 0.11776 0.5689 0.0
C2787 C 0.6445 0.08539 0.59693 0.0
C2788 C 0.62921 0.06128 0.60642 0.0
C2789 C 0.62384 0.03643 0.58848 0.0
C2790 C 0.60813 0.01405 0.59713 0.0
C2791 C 0.5978 0.01623 0.62374 0.0
C2792 C 0.60324 0.04084 0.64183 0.0
C2793 C 0.61889 0.06329 0.63326 0.0
H2794 H 0.5856 -0.00113 0.63034 0.0
H2795 H 0.69302 0.23287 0.56764 0.0
H2796 H 0.81936 0.26512 0.31815 0.0
H2797 H 0.85222 0.2954 0.35273 0.0
H2798 H 0.83101 0.35993 0.33666 0.0
H2799 H 0.80146 0.33022 0.29826 0.0
H2800 H 0.877 0.37656 0.34643 0.0
H2801 H 0.80943 0.32306 0.39605 0.0
H2802 H 0.7813 0.28144 0.40679 0.0
H2803 H 0.84816 0.26392 0.42839 0.0
H2804 H 0.87669 0.30511 0.4173 0.0
H2805 H 0.93349 0.465 0.46917 0.0
H2806 H 0.89524 0.42839 0.44758 0.0
H2807 H 0.94209 0.37828 0.42738 0.0
H2808 H 0.98053 0.41517 0.44761 0.0
H2809 H 0.88221 0.35494 0.43954 0.0
H2810 H 0.94833 0.40686 0.38414 0.0
H2811 H 0.97581 0.44894 0.37401 0.0
H2812 H 0.90838 0.47011 0.36399 0.0
H2813 H 0.88055 0.42853 0.37512 0.0
C2814 C 0.82181 0.2858 0.32171 0.0
C2815 C 0.8069 0.29513 0.3062 0.0
C2816 C 0.84038 0.30308 0.34193 0.0
C2817 C 0.8431 0.32979 0.34855 0.0
C2818 C 0.82888 0.33929 0.33245 0.0
C2819 C 0.81152 0.3222 0.31087 0.0
C2820 C 0.86108 0.34793 0.37186 0.0
C2821 C 0.87759 0.3719 0.3669 0.0
C2822 C 0.86249 0.34172 0.39852 0.0
C2823 C 0.8452 0.31715 0.40571 0.0
C2824 C 0.81813 0.31029 0.40302 0.0
C2825 C 0.80212 0.28673 0.40911 0.0
C2826 C 0.81294 0.27 0.41821 0.0
C2827 C 0.8398 0.27683 0.42129 0.0
C2828 C 0.8559 0.30029 0.41513 0.0
C2829 C 0.93526 0.44582 0.46119 0.0
C2830 C 0.95959 0.44261 0.45921 0.0
C2831 C 0.91352 0.42503 0.44906 0.0
C2832 C 0.91624 0.40104 0.43569 0.0
C2833 C 0.93989 0.3968 0.43768 0.0
C2834 C 0.96174 0.41779 0.44898 0.0
C2835 C 0.897 0.38326 0.41396 0.0
C2836 C 0.88079 0.35947 0.41914 0.0
C2837 C 0.8955 0.3897 0.38763 0.0
C2838 C 0.91238 0.4148 0.38112 0.0
C2839 C 0.93938 0.42069 0.38037 0.0
C2840 C 0.95503 0.44444 0.37435 0.0
C2841 C 0.94386 0.46225 0.36851 0.0
C2842 C 0.91702 0.45637 0.3687 0.0
C2843 C 0.90132 0.43276 0.37496 0.0
H2844 H 0.95597 0.48053 0.36367 0.0
H2845 H 0.80053 0.25178 0.4229 0.0
H2846 H 0.70229 0.79323 0.25511 0.0
H2847 H 0.6791 0.82068 0.28183 0.0
H2848 H 0.7095 0.81338 0.35934 0.0
H2849 H 0.73327 0.78634 0.33243 0.0
H2850 H 0.66179 0.80981 0.36611 0.0
H2851 H 0.73134 0.87226 0.33292 0.0
H2852 H 0.76132 0.89508 0.30084 0.0
H2853 H 0.69754 0.90147 0.25683 0.0
H2854 H 0.6671 0.87825 0.28833 0.0
H2855 H 0.61563 0.9101 0.44825 0.0
H2856 H 0.64172 0.88352 0.42609 0.0
H2857 H 0.6157 0.88577 0.34414 0.0
H2858 H 0.59085 0.91336 0.36598 0.0
H2859 H 0.66398 0.89329 0.34269 0.0
H2860 H 0.59439 0.82875 0.3785 0.0
H2861 H 0.56728 0.80805 0.41398 0.0
H2862 H 0.63504 0.8088 0.45703 0.0
H2863 H 0.66258 0.82974 0.42203 0.0
C2864 C 0.70465 0.79797 0.27782 0.0
C2865 C 0.72046 0.78803 0.29138 0.0
C2866 C 0.69114 0.81367 0.29323 0.0
C2867 C 0.69278 0.81991 0.32289 0.0
C2868 C 0.70789 0.80926 0.33656 0.0
C2869 C 0.72153 0.79363 0.32107 0.0
C2870 C 0.67825 0.83687 0.33939 0.0
C2871 C 0.66261 0.82825 0.36116 0.0
C2872 C 0.67884 0.86098 0.33312 0.0
C2873 C 0.69689 0.87332 0.31289 0.0
C2874 C 0.72365 0.87819 0.31616 0.0
C2875 C 0.74075 0.89133 0.29818 0.0
C2876 C 0.73136 0.89989 0.27695 0.0
C2877 C 0.70481 0.89502 0.27343 0.0
C2878 C 0.68761 0.88179 0.29128 0.0
C2879 C 0.61551 0.90514 0.4255 0.0
C2880 C 0.6007 0.91406 0.40915 0.0
C2881 C 0.63028 0.88948 0.41274 0.0
C2882 C 0.63062 0.88199 0.38318 0.0
C2883 C 0.61591 0.89093 0.36692 0.0
C2884 C 0.60131 0.90664 0.37959 0.0
C2885 C 0.64694 0.86592 0.3689 0.0
C2886 C 0.66306 0.87479 0.34757 0.0
C2887 C 0.64708 0.84231 0.37593 0.0
C2888 C 0.63056 0.83099 0.39774 0.0
C2889 C 0.60353 0.82479 0.39572 0.0
C2890 C 0.58809 0.81292 0.41568 0.0
C2891 C 0.59944 0.80702 0.43765 0.0
C2892 C 0.62628 0.81331 0.43995 0.0
C2893 C 0.6418 0.82517 0.42007 0.0
H2894 H 0.58747 0.79745 0.45282 0.0
H2895 H 0.74464 0.91011 0.26309 0.0
H2896 H 0.24203 0.71901 0.3312 0.0
H2897 H 0.21306 0.69181 0.35985 0.0
H2898 H 0.15535 0.65957 0.29119 0.0
H2899 H 0.18428 0.68713 0.26249 0.0
H2900 H 0.13226 0.66875 0.33769 0.0
H2901 H 0.18481 0.60997 0.31375 0.0
H2902 H 0.22091 0.59227 0.31096 0.0
H2903 H 0.25227 0.64168 0.39144 0.0
H2904 H 0.21572 0.65885 0.39511 0.0
H2905 H 0.06284 0.55048 0.38159 0.0
H2906 H 0.08718 0.58584 0.35903 0.0
H2907 H 0.13827 0.62199 0.43314 0.0
H2908 H 0.11374 0.58671 0.45616 0.0
H2909 H 0.1634 0.61381 0.38675 0.0
H2910 H 0.09668 0.65087 0.4132 0.0
H2911 H 0.05127 0.64939 0.41679 0.0
H2912 H 0.04159 0.63178 0.32664 0.0
H2913 H 0.08684 0.63267 0.32247 0.0
C2914 C 0.22317 0.70612 0.32217 0.0
C2915 C 0.21537 0.70533 0.29462 0.0
C2916 C 0.20668 0.69037 0.33851 0.0
C2917 C 0.18212 0.67325 0.3276 0.0
C2918 C 0.17419 0.67259 0.30013 0.0
C2919 C 0.1907 0.68841 0.28376 0.0
C2920 C 0.16465 0.65655 0.34515 0.0
C2921 C 0.13902 0.65658 0.34824 0.0
C2922 C 0.17329 0.64095 0.35944 0.0
C2923 C 0.19803 0.63609 0.35437 0.0
C2924 C 0.19982 0.61754 0.33045 0.0
C2925 C 0.22 0.60718 0.32902 0.0
C2926 C 0.2387 0.61566 0.35117 0.0
C2927 C 0.23767 0.63502 0.37442 0.0
C2928 C 0.21722 0.64502 0.37622 0.0
C2929 C 0.07914 0.56608 0.39322 0.0
C2930 C 0.08668 0.56565 0.42048 0.0
C2931 C 0.09278 0.58649 0.38043 0.0
C2932 C 0.11421 0.60683 0.39464 0.0
C2933 C 0.12144 0.60673 0.4221 0.0
C2934 C 0.10763 0.58644 0.43507 0.0
C2935 C 0.13121 0.62599 0.37941 0.0
C2936 C 0.15674 0.6264 0.3767 0.0
C2937 C 0.12209 0.64132 0.3651 0.0
C2938 C 0.09515 0.6417 0.36752 0.0
C2939 C 0.08485 0.64657 0.39412 0.0
C2940 C 0.05912 0.64583 0.39626 0.0
C2941 C 0.04354 0.64045 0.37196 0.0
C2942 C 0.05369 0.63594 0.34545 0.0
C2943 C 0.07939 0.6366 0.34318 0.0
H2944 H 0.0236 0.63981 0.37366 0.0
H2945 H 0.25416 0.6074 0.35017 0.0
H2946 H 0.32604 0.17747 0.38726 0.0
H2947 H 0.34384 0.1468 0.40252 0.0
H2948 H 0.41 0.17073 0.35237 0.0
H2949 H 0.39197 0.20104 0.33687 0.0
H2950 H 0.39384 0.11824 0.3489 0.0
H2951 H 0.412 0.19644 0.42438 0.0
H2952 H 0.39895 0.22883 0.45929 0.0
H2953 H 0.35147 0.16745 0.49768 0.0
H2954 H 0.36405 0.13468 0.46277 0.0
H2955 H 0.48899 0.0828 0.40362 0.0
H2956 H 0.46433 0.10932 0.39222 0.0
H2957 H 0.40681 0.08049 0.45029 0.0
H2958 H 0.43238 0.05478 0.46278 0.0
H2959 H 0.41329 0.13128 0.45115 0.0
H2960 H 0.39521 0.05348 0.37978 0.0
H2961 H 0.40748 0.01949 0.34652 0.0
H2962 H 0.45131 0.07704 0.30129 0.0
H2963 H 0.4395 0.11142 0.33451 0.0
C2964 C 0.34406 0.17562 0.37903 0.0
C2965 C 0.35751 0.19126 0.36063 0.0
C2966 C 0.35437 0.15835 0.38798 0.0
C2967 C 0.3785 0.15671 0.37898 0.0
C2968 C 0.39139 0.17161 0.35965 0.0
C2969 C 0.38105 0.18883 0.35068 0.0
C2970 C 0.39088 0.14027 0.39029 0.0
C2971 C 0.39822 0.12128 0.37124 0.0
C2972 C 0.39583 0.14339 0.41955 0.0
C2973 C 0.38874 0.16313 0.44084 0.0
C2974 C 0.39868 0.18987 0.4402 0.0
C2975 C 0.39138 0.20828 0.45998 0.0
C2976 C 0.37433 0.20019 0.48064 0.0
C2977 C 0.36465 0.17368 0.48165 0.0
C2978 C 0.37187 0.15519 0.46189 0.0
C2979 C 0.47114 0.08223 0.41402 0.0
C2980 C 0.46228 0.06642 0.43362 0.0
C2981 C 0.45702 0.09735 0.40751 0.0
C2982 C 0.43328 0.09637 0.41977 0.0
C2983 C 0.42493 0.08143 0.44036 0.0
C2984 C 0.43943 0.06666 0.44736 0.0
C2985 C 0.41684 0.10984 0.40963 0.0
C2986 C 0.40866 0.12811 0.42885 0.0
C2987 C 0.41062 0.10575 0.38056 0.0
C2988 C 0.41653 0.08498 0.35961 0.0
C2989 C 0.40743 0.05884 0.36269 0.0
C2990 C 0.41433 0.03953 0.34389 0.0
C2991 C 0.43019 0.04611 0.32182 0.0
C2992 C 0.439 0.07198 0.31838 0.0
C2993 C 0.43215 0.09137 0.33713 0.0
H2994 H 0.43563 0.03115 0.30737 0.0
H2995 H 0.36866 0.21447 0.49591 0.0
H2996 H 0.69235 0.83469 0.64703 0.0
H2997 H 0.67579 0.85663 0.61661 0.0
H2998 H 0.59829 0.80442 0.62158 0.0
H2999 H 0.61477 0.78247 0.65164 0.0
H3000 H 0.60591 0.81572 0.56919 0.0
H3001 H 0.62231 0.8642 0.66748 0.0
H3002 H 0.65029 0.88793 0.71031 0.0
H3003 H 0.69917 0.94207 0.66431 0.0
H3004 H 0.67164 0.91843 0.62112 0.0
H3005 H 0.5203 0.88396 0.55497 0.0
H3006 H 0.54634 0.85938 0.56798 0.0
H3007 H 0.61556 0.92593 0.56953 0.0
H3008 H 0.58924 0.95076 0.55752 0.0
H3009 H 0.61806 0.90878 0.61276 0.0
H3010 H 0.59926 0.86694 0.51689 0.0
H3011 H 0.57168 0.84555 0.47348 0.0
H3012 H 0.53061 0.78077 0.51057 0.0
H3013 H 0.55745 0.80211 0.55458 0.0
C3014 C 0.6719 0.82754 0.64101 0.0
C3015 C 0.65479 0.80711 0.65196 0.0
C3016 C 0.66241 0.84014 0.62377 0.0
C3017 C 0.63569 0.83246 0.61716 0.0
C3018 C 0.61893 0.81081 0.62643 0.0
C3019 C 0.62834 0.79836 0.64375 0.0
C3020 C 0.62464 0.84833 0.6032 0.0
C3021 C 0.60852 0.83607 0.57866 0.0
C3022 C 0.62867 0.87514 0.61501 0.0
C3023 C 0.64511 0.88936 0.64102 0.0
C3024 C 0.63913 0.88105 0.66647 0.0
C3025 C 0.65489 0.8945 0.6908 0.0
C3026 C 0.67655 0.91644 0.69 0.0
C3027 C 0.68243 0.92503 0.66488 0.0
C3028 C 0.66676 0.91162 0.64048 0.0
C3029 C 0.54112 0.89316 0.55775 0.0
C3030 C 0.5528 0.91929 0.55544 0.0
C3031 C 0.55605 0.87907 0.56506 0.0
C3032 C 0.58309 0.89059 0.56944 0.0
C3033 C 0.59479 0.91654 0.56637 0.0
C3034 C 0.57978 0.93076 0.55955 0.0
C3035 C 0.59886 0.87614 0.5789 0.0
C3036 C 0.6158 0.88863 0.60273 0.0
C3037 C 0.59596 0.84974 0.56602 0.0
C3038 C 0.58031 0.83627 0.53921 0.0
C3039 C 0.58425 0.84821 0.51591 0.0
C3040 C 0.56867 0.83613 0.49121 0.0
C3041 C 0.54933 0.81187 0.48931 0.0
C3042 C 0.54557 0.7996 0.5121 0.0
C3043 C 0.56096 0.81169 0.53696 0.0
H3044 H 0.53736 0.80251 0.47012 0.0
H3045 H 0.68872 0.92683 0.70887 0.0
H3046 H 0.74574 0.18304 0.29848 0.0
H3047 H 0.72216 0.15237 0.32741 0.0
H3048 H 0.66573 0.1921 0.34284 0.0
H3049 H 0.68858 0.22177 0.3136 0.0
H3050 H 0.6835 0.17802 0.39186 0.0
H3051 H 0.65121 0.14303 0.29396 0.0
H3052 H 0.65945 0.13007 0.24381 0.0
H3053 H 0.68876 0.07197 0.26237 0.0
H3054 H 0.68132 0.08505 0.31275 0.0
H3055 H 0.57672 0.0869 0.43998 0.0
H3056 H 0.60532 0.11944 0.41608 0.0
H3057 H 0.64301 0.06373 0.3785 0.0
H3058 H 0.61289 0.03064 0.40065 0.0
H3059 H 0.63727 0.08658 0.34142 0.0
H3060 H 0.66947 0.11904 0.43807 0.0
H3061 H 0.66697 0.13408 0.48926 0.0
H3062 H 0.64224 0.19659 0.47499 0.0
H3063 H 0.64422 0.18171 0.42371 0.0
C3064 C 0.72835 0.18524 0.30806 0.0
C3065 C 0.71865 0.20459 0.3031 0.0
C3066 C 0.71501 0.16783 0.32468 0.0
C3067 C 0.69221 0.17003 0.33711 0.0
C3068 C 0.68331 0.19011 0.3334 0.0
C3069 C 0.69626 0.20697 0.31631 0.0
C3070 C 0.67627 0.1503 0.35211 0.0
C3071 C 0.67329 0.15799 0.38098 0.0
C3072 C 0.66334 0.12426 0.33774 0.0
C3073 C 0.66606 0.11526 0.30718 0.0
C3074 C 0.65952 0.12757 0.28737 0.0
C3075 C 0.66407 0.12023 0.25891 0.0
C3076 C 0.67479 0.10033 0.24998 0.0
C3077 C 0.68058 0.08746 0.26938 0.0
C3078 C 0.67622 0.09484 0.29787 0.0
C3079 C 0.59131 0.08185 0.42675 0.0
C3080 C 0.59307 0.05663 0.42225 0.0
C3081 C 0.60772 0.10042 0.41323 0.0
C3082 C 0.62683 0.09432 0.39598 0.0
C3083 C 0.62852 0.06898 0.39172 0.0
C3084 C 0.61151 0.05016 0.40446 0.0
C3085 C 0.64456 0.11397 0.38169 0.0
C3086 C 0.64766 0.10641 0.35268 0.0
C3087 C 0.6579 0.14008 0.39613 0.0
C3088 C 0.65681 0.14912 0.42701 0.0
C3089 C 0.66334 0.13589 0.44584 0.0
C3090 C 0.66203 0.1444 0.47487 0.0
C3091 C 0.65442 0.16625 0.48537 0.0
C3092 C 0.64812 0.17966 0.46684 0.0
C3093 C 0.64936 0.17121 0.43779 0.0
H3094 H 0.65344 0.17281 0.50785 0.0
H3095 H 0.67868 0.09489 0.22807 0.0
H3096 H 0.80645 0.65479 0.39382 0.0
H3097 H 0.83927 0.64138 0.41294 0.0
H3098 H 0.88182 0.64884 0.33765 0.0
H3099 H 0.84797 0.66091 0.31758 0.0
H3100 H 0.87637 0.60347 0.34957 0.0
H3101 H 0.90347 0.69211 0.40628 0.0
H3102 H 0.89717 0.73002 0.43911 0.0
H3103 H 0.87057 0.68342 0.50091 0.0
H3104 H 0.87649 0.64519 0.46837 0.0
H3105 H 0.98257 0.57627 0.39357 0.0
H3106 H 0.9563 0.60084 0.38121 0.0
H3107 H 0.91227 0.58963 0.45496 0.0
H3108 H 0.93905 0.56542 0.46781 0.0
H3109 H 0.91906 0.63779 0.44527 0.0
H3110 H 0.88762 0.55007 0.39175 0.0
H3111 H 0.8923 0.50995 0.36192 0.0
H3112 H 0.92303 0.55176 0.29705 0.0
H3113 H 0.91876 0.59223 0.32668 0.0
C3114 C 0.82287 0.65379 0.38131 0.0
C3115 C 0.82431 0.65864 0.35394 0.0
C3116 C 0.84189 0.64642 0.39251 0.0
C3117 C 0.86331 0.6443 0.37697 0.0
C3118 C 0.86553 0.65037 0.35014 0.0
C3119 C 0.84627 0.65753 0.33876 0.0
C3120 C 0.88192 0.63338 0.3876 0.0
C3121 C 0.8861 0.61144 0.37027 0.0
C3122 C 0.8937 0.64274 0.41522 0.0
C3123 C 0.89023 0.66576 0.43479 0.0
C3124 C 0.89612 0.68992 0.4268 0.0
C3125 C 0.89266 0.71147 0.44538 0.0
C3126 C 0.88341 0.70912 0.47205 0.0
C3127 C 0.87771 0.68523 0.48025 0.0
C3128 C 0.88116 0.66363 0.46176 0.0
C3129 C 0.96729 0.57903 0.40716 0.0
C3130 C 0.9625 0.56842 0.43132 0.0
C3131 C 0.95233 0.59316 0.40014 0.0
C3132 C 0.93187 0.59659 0.41677 0.0
C3133 C 0.92783 0.58713 0.4417 0.0
C3134 C 0.94307 0.57322 0.44896 0.0
C3135 C 0.91383 0.60845 0.40693 0.0
C3136 C 0.90953 0.63019 0.42445 0.0
C3137 C 0.90138 0.59861 0.37977 0.0
C3138 C 0.90303 0.57416 0.36145 0.0
C3139 C 0.89541 0.55069 0.37113 0.0
C3140 C 0.89801 0.5279 0.35428 0.0
C3141 C 0.90802 0.52831 0.32763 0.0
C3142 C 0.91529 0.55148 0.3177 0.0
C3143 C 0.91274 0.57433 0.33448 0.0
H3144 H 0.91011 0.51067 0.31465 0.0
H3145 H 0.88072 0.72582 0.48639 0.0
H3146 H 0.26328 0.80543 0.32927 0.0
H3147 H 0.28891 0.83748 0.37015 0.0
H3148 H 0.35927 0.83575 0.32929 0.0
H3149 H 0.33426 0.80527 0.28819 0.0
H3150 H 0.34495 0.82365 0.39312 0.0
H3151 H 0.36683 0.88275 0.3273 0.0
H3152 H 0.35485 0.90365 0.29226 0.0
H3153 H 0.30783 0.93475 0.35207 0.0
H3154 H 0.31911 0.91338 0.38726 0.0
H3155 H 0.46922 0.91533 0.42352 0.0
H3156 H 0.42696 0.88374 0.40605 0.0
H3157 H 0.38967 0.92982 0.46373 0.0
H3158 H 0.43233 0.96162 0.48164 0.0
H3159 H 0.3765 0.92022 0.40351 0.0
H3160 H 0.38378 0.87251 0.47299 0.0
H3161 H 0.4093 0.85383 0.4979 0.0
H3162 H 0.41282 0.80004 0.42118 0.0
H3163 H 0.38864 0.81933 0.39541 0.0
C3164 C 0.2842 0.8123 0.32887 0.0
C3165 C 0.29676 0.80248 0.30578 0.0
C3166 C 0.29874 0.83042 0.3522 0.0
C3167 C 0.32585 0.83863 0.35261 0.0
C3168 C 0.33832 0.82952 0.32925 0.0
C3169 C 0.32395 0.81206 0.30583 0.0
C3170 C 0.34175 0.85609 0.37752 0.0
C3171 C 0.35155 0.84482 0.39595 0.0
C3172 C 0.35046 0.88352 0.38062 0.0
C3173 C 0.34324 0.89598 0.35958 0.0
C3174 C 0.35355 0.89364 0.33277 0.0
C3175 C 0.34699 0.90564 0.31293 0.0
C3176 C 0.33044 0.92038 0.31987 0.0
C3177 C 0.3205 0.92318 0.34668 0.0
C3178 C 0.3269 0.91106 0.36654 0.0
C3179 C 0.45204 0.9184 0.43293 0.0
C3180 C 0.45384 0.94086 0.45373 0.0
C3181 C 0.42795 0.90029 0.42309 0.0
C3182 C 0.4053 0.90447 0.43371 0.0
C3183 C 0.40703 0.92626 0.45548 0.0
C3184 C 0.43128 0.94427 0.46571 0.0
C3185 C 0.3803 0.88788 0.41901 0.0
C3186 C 0.36888 0.89921 0.4021 0.0
C3187 C 0.37134 0.86035 0.41628 0.0
C3188 C 0.38429 0.84744 0.43221 0.0
C3189 C 0.39005 0.85676 0.46136 0.0
C3190 C 0.40442 0.84614 0.47562 0.0
C3191 C 0.41252 0.82564 0.46118 0.0
C3192 C 0.40642 0.81583 0.43239 0.0
C3193 C 0.39246 0.82669 0.41791 0.0
H3194 H 0.42359 0.8174 0.47229 0.0
H3195 H 0.32544 0.92975 0.30452 0.0
H3196 H 0.1903 0.28048 0.26511 0.0
H3197 H 0.16805 0.30877 0.29191 0.0
H3198 H 0.22546 0.33312 0.36007 0.0
H3199 H 0.24831 0.30535 0.33283 0.0
H3200 H 0.17532 0.32322 0.37975 0.0
H3201 H 0.22709 0.3744 0.3186 0.0
H3202 H 0.24484 0.3844 0.27371 0.0
H3203 H 0.16841 0.37106 0.24082 0.0
H3204 H 0.15015 0.36069 0.28543 0.0
H3205 H 0.12945 0.42792 0.4494 0.0
H3206 H 0.15554 0.40117 0.42793 0.0
H3207 H 0.11142 0.38102 0.34936 0.0
H3208 H 0.08651 0.4089 0.36998 0.0
H3209 H 0.15821 0.39038 0.3375 0.0
H3210 H 0.10608 0.33838 0.39894 0.0
H3211 H 0.08868 0.32873 0.44409 0.0
H3212 H 0.16544 0.3432 0.47678 0.0
H3213 H 0.18337 0.35349 0.43204 0.0
C3214 C 0.19832 0.29168 0.28585 0.0
C3215 C 0.22125 0.29007 0.29677 0.0
C3216 C 0.18549 0.30805 0.3012 0.0
C3217 C 0.19494 0.32331 0.32816 0.0
C3218 C 0.21757 0.32157 0.33941 0.0
C3219 C 0.23071 0.3055 0.32375 0.0
C3220 C 0.18136 0.34133 0.34407 0.0
C3221 C 0.17189 0.33817 0.3707 0.0
C3222 C 0.17639 0.36067 0.33228 0.0
C3223 C 0.18723 0.36652 0.30527 0.0
C3224 C 0.21404 0.37336 0.3017 0.0
C3225 C 0.2242 0.37915 0.27633 0.0
C3226 C 0.20776 0.37831 0.2544 0.0
C3227 C 0.18112 0.37168 0.25781 0.0
C3228 C 0.17086 0.36587 0.28315 0.0
C3229 C 0.12534 0.41803 0.42746 0.0
C3230 C 0.10549 0.4208 0.41168 0.0
C3231 C 0.14018 0.4023 0.41523 0.0
C3232 C 0.13546 0.3885 0.3869 0.0
C3233 C 0.11565 0.39122 0.37121 0.0
C3234 C 0.10104 0.40708 0.38329 0.0
C3235 C 0.15144 0.37197 0.37304 0.0
C3236 C 0.16153 0.37547 0.34672 0.0
C3237 C 0.15686 0.35295 0.38518 0.0
C3238 C 0.1461 0.34701 0.41221 0.0
C3239 C 0.11928 0.33977 0.41585 0.0
C3240 C 0.10932 0.33416 0.44137 0.0
C3241 C 0.12595 0.33543 0.46332 0.0
C3242 C 0.15258 0.34226 0.45977 0.0
C3243 C 0.16266 0.34803 0.43436 0.0
H3244 H 0.1182 0.33106 0.48305 0.0
H3245 H 0.21567 0.38284 0.23479 0.0
H3246 H 0.33393 0.22426 0.71857 0.0
H3247 H 0.35815 0.19708 0.6931 0.0
H3248 H 0.28907 0.14785 0.64235 0.0
H3249 H 0.26456 0.17399 0.66961 0.0
H3250 H 0.3102 0.11754 0.65109 0.0
H3251 H 0.34827 0.19723 0.6182 0.0
H3252 H 0.37037 0.24435 0.62085 0.0
H3253 H 0.4342 0.24242 0.66857 0.0
H3254 H 0.41274 0.19508 0.66577 0.0
H3255 H 0.37954 0.0499 0.55509 0.0
H3256 H 0.35448 0.07794 0.57584 0.0
H3257 H 0.41788 0.12436 0.63564 0.0
H3258 H 0.44362 0.09757 0.61395 0.0
H3259 H 0.39868 0.15565 0.61965 0.0
H3260 H 0.35901 0.07429 0.65067 0.0
H3261 H 0.33701 0.02657 0.64392 0.0
H3262 H 0.27484 0.03192 0.5962 0.0
H3263 H 0.2966 0.07963 0.60244 0.0
C3264 C 0.32401 0.2076 0.70194 0.0
C3265 C 0.2974 0.20114 0.69613 0.0
C3266 C 0.33795 0.19217 0.68702 0.0
C3267 C 0.32586 0.17045 0.66502 0.0
C3268 C 0.29914 0.1643 0.65909 0.0
C3269 C 0.28506 0.1793 0.67463 0.0
C3270 C 0.34065 0.15357 0.64908 0.0
C3271 C 0.32937 0.12606 0.64383 0.0
C3272 C 0.36602 0.16415 0.63983 0.0
C3273 C 0.37875 0.19269 0.64204 0.0
C3274 C 0.36692 0.20689 0.62944 0.0
C3275 C 0.37935 0.23363 0.63095 0.0
C3276 C 0.4035 0.24647 0.64515 0.0
C3277 C 0.41543 0.23249 0.65767 0.0
C3278 C 0.40322 0.20567 0.65601 0.0
C3279 C 0.38841 0.06628 0.57238 0.0
C3280 C 0.41377 0.07108 0.58282 0.0
C3281 C 0.37379 0.08216 0.5846 0.0
C3282 C 0.38387 0.10309 0.60792 0.0
C3283 C 0.40935 0.10828 0.61791 0.0
C3284 C 0.42405 0.09263 0.60557 0.0
C3285 C 0.36826 0.11982 0.62189 0.0
C3286 C 0.37943 0.14725 0.6268 0.0
C3287 C 0.34269 0.10915 0.63045 0.0
C3288 C 0.32958 0.08048 0.62679 0.0
C3289 C 0.34073 0.06525 0.63859 0.0
C3290 C 0.32829 0.03822 0.63488 0.0
C3291 C 0.30458 0.02621 0.61957 0.0
C3292 C 0.29322 0.04123 0.60802 0.0
C3293 C 0.30559 0.06827 0.61166 0.0
H3294 H 0.29499 0.00528 0.61672 0.0
H3295 H 0.41302 0.2672 0.64631 0.0
H3296 H 0.83984 0.28385 0.71359 0.0
H3297 H 0.86801 0.31421 0.6873 0.0
H3298 H 0.8025 0.30567 0.63418 0.0
H3299 H 0.77431 0.27465 0.65973 0.0
H3300 H 0.84588 0.30536 0.60449 0.0
H3301 H 0.82366 0.35651 0.68942 0.0
H3302 H 0.82157 0.37017 0.74084 0.0
H3303 H 0.90436 0.39419 0.75032 0.0
H3304 H 0.90698 0.38026 0.69899 0.0
H3305 H 0.89471 0.41691 0.54461 0.0
H3306 H 0.86893 0.38312 0.56891 0.0
H3307 H 0.9331 0.40273 0.62866 0.0
H3308 H 0.95828 0.43712 0.60536 0.0
H3309 H 0.89186 0.39657 0.65565 0.0
H3310 H 0.91589 0.3468 0.57318 0.0
H3311 H 0.9203 0.33181 0.52239 0.0
H3312 H 0.83763 0.30373 0.50887 0.0
H3313 H 0.83274 0.31894 0.55954 0.0
C3314 C 0.83149 0.28797 0.69596 0.0
C3315 C 0.80482 0.27684 0.68878 0.0
C3316 C 0.84758 0.30554 0.68115 0.0
C3317 C 0.83721 0.31241 0.65911 0.0
C3318 C 0.81081 0.30063 0.65122 0.0
C3319 C 0.79473 0.283 0.66593 0.0
C3320 C 0.85363 0.33248 0.6447 0.0
C3321 C 0.85576 0.3254 0.61554 0.0
C3322 C 0.86711 0.35833 0.65947 0.0
C3323 C 0.8655 0.36704 0.69034 0.0
C3324 C 0.84142 0.3645 0.70246 0.0
C3325 C 0.84013 0.37231 0.7316 0.0
C3326 C 0.86279 0.38293 0.74884 0.0
C3327 C 0.88681 0.38589 0.73695 0.0
C3328 C 0.88821 0.37804 0.70783 0.0
C3329 C 0.90321 0.41393 0.56293 0.0
C3330 C 0.92837 0.42963 0.57322 0.0
C3331 C 0.88857 0.39456 0.57671 0.0
C3332 C 0.8992 0.39016 0.60044 0.0
C3333 C 0.92443 0.4058 0.61051 0.0
C3334 C 0.9388 0.42544 0.59714 0.0
C3335 C 0.88401 0.3696 0.61518 0.0
C3336 C 0.88211 0.37655 0.64447 0.0
C3337 C 0.87109 0.3435 0.60061 0.0
C3338 C 0.87397 0.33428 0.57012 0.0
C3339 C 0.89866 0.33763 0.55935 0.0
C3340 C 0.90124 0.32906 0.53058 0.0
C3341 C 0.87926 0.3169 0.5124 0.0
C3342 C 0.85464 0.3132 0.52297 0.0
C3343 C 0.85195 0.32178 0.55171 0.0
H3344 H 0.88129 0.31029 0.49013 0.0
H3345 H 0.86173 0.38894 0.77139 0.0
H3346 H 0.17513 0.69289 0.71056 0.0
H3347 H 0.14652 0.66356 0.67096 0.0
H3348 H 0.21276 0.66606 0.61993 0.0
H3349 H 0.24085 0.69865 0.65853 0.0
H3350 H 0.17534 0.66492 0.58894 0.0
H3351 H 0.18141 0.61364 0.6555 0.0
H3352 H 0.18 0.60472 0.70316 0.0
H3353 H 0.0999 0.59891 0.70642 0.0
H3354 H 0.10089 0.60813 0.65897 0.0
H3355 H 0.08274 0.53393 0.51296 0.0
H3356 H 0.12222 0.56963 0.53352 0.0
H3357 H 0.07564 0.61181 0.58103 0.0
H3358 H 0.03639 0.5765 0.56069 0.0
H3359 H 0.10919 0.5853 0.60876 0.0
H3360 H 0.10615 0.6463 0.5502 0.0
H3361 H 0.10601 0.65837 0.50428 0.0
H3362 H 0.17835 0.64504 0.48682 0.0
H3363 H 0.17876 0.63268 0.53265 0.0
C3364 C 0.18334 0.68754 0.69065 0.0
C3365 C 0.2099 0.69742 0.68727 0.0
C3366 C 0.16717 0.67046 0.66825 0.0
C3367 C 0.17768 0.66179 0.6429 0.0
C3368 C 0.20433 0.6722 0.63945 0.0
C3369 C 0.22033 0.69039 0.66146 0.0
C3370 C 0.16067 0.64186 0.62016 0.0
C3371 C 0.16128 0.64721 0.59313 0.0
C3372 C 0.14228 0.61878 0.62571 0.0
C3373 C 0.14125 0.61159 0.6536 0.0
C3374 C 0.16347 0.61037 0.66633 0.0
C3375 C 0.16276 0.60534 0.69336 0.0
C3376 C 0.13988 0.60126 0.70781 0.0
C3377 C 0.1176 0.60202 0.69518 0.0
C3378 C 0.11821 0.60708 0.66818 0.0
C3379 C 0.08107 0.55142 0.5268 0.0
C3380 C 0.05687 0.55251 0.5359 0.0
C3381 C 0.1035 0.57168 0.53843 0.0
C3382 C 0.10152 0.59295 0.55881 0.0
C3383 C 0.07728 0.5954 0.56524 0.0
C3384 C 0.055 0.57523 0.55381 0.0
C3385 C 0.12345 0.60904 0.57828 0.0
C3386 C 0.12384 0.60268 0.60456 0.0
C3387 C 0.14256 0.63107 0.57212 0.0
C3388 C 0.14238 0.63838 0.54465 0.0
C3389 C 0.1219 0.64573 0.53645 0.0
C3390 C 0.12181 0.65269 0.5105 0.0
C3391 C 0.14218 0.65252 0.49269 0.0
C3392 C 0.16262 0.64523 0.5007 0.0
C3393 C 0.16281 0.63828 0.52666 0.0
H3394 H 0.14218 0.65819 0.47275 0.0
H3395 H 0.13941 0.59752 0.72879 0.0
loop_
_geom_bond_atom_site_label_1
_geom_bond_atom_site_label_2
_geom_bond_distance
_geom_bond_site_symmetry_2
_ccdc_geom_bond_type
Tb0 N29 2.617 . S
Tb0 N35 2.572 . S
Tb0 O44 2.465 . S
Tb0 O45 2.387 . S
Tb0 O47 2.428 . S
Tb0 O48 2.308 . S
Tb0 O52 2.349 . S
Tb0 O55 2.393 . S
Tb0 C64 2.802 . S
C1 N2 1.379 . S
C1 C4 1.416 . S
C1 C8 1.424 . S
N2 C1 1.379 . S
N2 C5 1.334 . S
N2 Tb11 2.617 . S
C3 C5 1.390 . S
C3 C6 1.339 . S
C3 H23 0.930 . S
C4 C1 1.416 . S
C4 C6 1.416 . S
C4 C10 1.448 . S
C5 N2 1.334 . S
C5 C3 1.390 . S
C5 H16 0.930 . S
C6 C3 1.339 . S
C6 C4 1.416 . S
C6 H27 0.930 . S
C7 C8 1.413 . S
C7 C9 1.427 . S
C7 C13 1.416 . S
C8 C1 1.424 . S
C8 C7 1.413 . S
C8 N12 1.361 . S
C9 C7 1.427 . S
C9 C10 1.328 . S
C9 H24 0.929 . S
C10 C4 1.448 . S
C10 C9 1.328 . S
C10 H25 0.930 . S
Tb11 N2 2.617 . S
Tb11 N12 2.572 . S
Tb11 O46 2.349 . S
Tb11 O49 2.393 . S
Tb11 O50 2.465 . S
Tb11 O51 2.387 . S
Tb11 O53 2.428 . S
Tb11 O54 2.308 . S
Tb11 C75 2.802 . S
N12 C8 1.361 . S
N12 Tb11 2.572 . S
N12 C14 1.340 . S
C13 C7 1.416 . S
C13 C15 1.332 . S
C13 H21 0.931 . S
C14 N12 1.340 . S
C14 C15 1.407 . S
C14 H20 0.930 . S
C15 C13 1.332 . S
C15 C14 1.407 . S
C15 H17 0.929 . S
H16 C5 0.930 . S
H17 C15 0.929 . S
H18 C33 0.930 . S
H19 C40 0.929 . S
H20 C14 0.930 . S
H21 C13 0.931 . S
H22 C36 0.930 . S
H23 C3 0.930 . S
H24 C9 0.929 . S
H25 C10 0.930 . S
H26 C31 0.930 . S
H27 C6 0.930 . S
H28 C39 0.931 . S
N29 Tb0 2.617 . S
N29 C30 1.379 . S
N29 C33 1.334 . S
C30 N29 1.379 . S
C30 C32 1.416 . S
C30 C38 1.424 . S
C31 H26 0.930 . S
C31 C33 1.390 . S
C31 C34 1.339 . S
C32 C30 1.416 . S
C32 C34 1.416 . S
C32 C65 1.448 . S
C33 H18 0.930 . S
C33 N29 1.334 . S
C33 C31 1.390 . S
C34 C31 1.339 . S
C34 C32 1.416 . S
C34 H41 0.930 . S
N35 Tb0 2.572 . S
N35 C36 1.340 . S
N35 C38 1.361 . S
C36 H22 0.930 . S
C36 N35 1.340 . S
C36 C40 1.407 . S
C37 C38 1.413 . S
C37 C39 1.416 . S
C37 C66 1.427 . S
C38 C30 1.424 . S
C38 N35 1.361 . S
C38 C37 1.413 . S
C39 H28 0.931 . S
C39 C37 1.416 . S
C39 C40 1.332 . S
C40 H19 0.929 . S
C40 C36 1.407 . S
C40 C39 1.332 . S
H41 C34 0.930 . S
H42 C65 0.930 . S
H43 C66 0.929 . S
O44 Tb0 2.465 . S
O44 C64 1.264 . S
O45 Tb0 2.387 . S
O45 C56 1.264 . S
O46 Tb11 2.349 . S
O46 C56 1.243 . S
O47 Tb0 2.428 . S
O47 C64 1.256 . S
O48 Tb0 2.308 . S
O48 C63 1.266 . S
O49 Tb11 2.393 . S
O49 C63 1.248 . S
O50 Tb11 2.465 . S
O50 C75 1.264 . S
O51 Tb11 2.387 . S
O51 C67 1.264 . S
O52 Tb0 2.349 . S
O52 C67 1.243 . S
O53 Tb11 2.428 . S
O53 C75 1.256 . S
O54 Tb11 2.308 . S
O54 C74 1.266 . S
O55 Tb0 2.393 . S
O55 C74 1.248 . S
C56 O45 1.264 . S
C56 O46 1.243 . S
C57 C60 1.399 . S
C57 C62 1.383 . S
C57 C64 1.496 . S
C58 C59 1.399 . S
C58 C62 1.389 . S
C59 C58 1.399 . S
C59 C61 1.380 . S
C59 H76 0.929 . S
C60 C57 1.399 . S
C60 C61 1.392 . S
C60 H77 0.929 . S
C61 C59 1.380 . S
C61 C60 1.392 . S
C61 H78 0.929 . S
C62 C57 1.383 . S
C62 C58 1.389 . S
C62 H79 0.931 . S
C63 O48 1.266 . S
C63 O49 1.248 . S
C64 Tb0 2.802 . S
C64 O44 1.264 . S
C64 O47 1.256 . S
C64 C57 1.496 . S
C65 C32 1.448 . S
C65 H42 0.930 . S
C65 C66 1.328 . S
C66 C37 1.427 . S
C66 H43 0.929 . S
C66 C65 1.328 . S
C67 O51 1.264 . S
C67 O52 1.243 . S
C68 C71 1.399 . S
C68 C72 1.383 . S
C68 C75 1.496 . S
C69 C70 1.399 . S
C69 C72 1.389 . S
C70 C69 1.399 . S
C70 C73 1.380 . S
C70 H80 0.929 . S
C71 C68 1.399 . S
C71 C73 1.392 . S
C71 H81 0.929 . S
C72 C68 1.383 . S
C72 C69 1.389 . S
C72 H82 0.931 . S
C73 C70 1.380 . S
C73 C71 1.392 . S
C73 H83 0.929 . S
C74 O54 1.266 . S
C74 O55 1.248 . S
C75 Tb11 2.802 . S
C75 O50 1.264 . S
C75 O53 1.256 . S
C75 C68 1.496 . S
H76 C59 0.929 . S
H77 C60 0.929 . S
H78 C61 0.929 . S
H79 C62 0.931 . S
H80 C70 0.929 . S
H81 C71 0.929 . S
H82 C72 0.931 . S
H83 C73 0.929 . S
Tb84 N113 2.617 . S
Tb84 N119 2.572 . S
Tb84 O128 2.465 . S
Tb84 O129 2.387 . S
Tb84 O131 2.428 . S
Tb84 O132 2.308 . S
Tb84 O136 2.349 . S
Tb84 O139 2.393 . S
Tb84 C148 2.802 . S
C85 N86 1.379 . S
C85 C88 1.416 . S
C85 C92 1.424 . S
N86 C85 1.379 . S
N86 C89 1.334 . S
N86 Tb95 2.617 . S
C87 C89 1.390 . S
C87 C90 1.339 . S
C87 H107 0.930 . S
C88 C85 1.416 . S
C88 C90 1.416 . S
C88 C94 1.448 . S
C89 N86 1.334 . S
C89 C87 1.390 . S
C89 H100 0.930 . S
C90 C87 1.339 . S
C90 C88 1.416 . S
C90 H111 0.930 . S
C91 C92 1.413 . S
C91 C93 1.427 . S
C91 C97 1.416 . S
C92 C85 1.424 . S
C92 C91 1.413 . S
C92 N96 1.361 . S
C93 C91 1.427 . S
C93 C94 1.328 . S
C93 H108 0.929 . S
C94 C88 1.448 . S
C94 C93 1.328 . S
C94 H109 0.930 . S
Tb95 N86 2.617 . S
Tb95 N96 2.572 . S
Tb95 O130 2.349 . S
Tb95 O133 2.393 . S
Tb95 O134 2.465 . S
Tb95 O135 2.387 . S
Tb95 O137 2.428 . S
Tb95 O138 2.308 . S
Tb95 C159 2.802 . S
N96 C92 1.361 . S
N96 Tb95 2.572 . S
N96 C98 1.340 . S
C97 C91 1.416 . S
C97 C99 1.332 . S
C97 H105 0.931 . S
C98 N96 1.340 . S
C98 C99 1.407 . S
C98 H104 0.930 . S
C99 C97 1.332 . S
C99 C98 1.407 . S
C99 H101 0.929 . S
H100 C89 0.930 . S
H101 C99 0.929 . S
H102 C117 0.930 . S
H103 C124 0.929 . S
H104 C98 0.930 . S
H105 C97 0.931 . S
H106 C120 0.930 . S
H107 C87 0.930 . S
H108 C93 0.929 . S
H109 C94 0.930 . S
H110 C115 0.930 . S
H111 C90 0.930 . S
H112 C123 0.931 . S
N113 Tb84 2.617 . S
N113 C114 1.379 . S
N113 C117 1.334 . S
C114 N113 1.379 . S
C114 C116 1.416 . S
C114 C122 1.424 . S
C115 H110 0.930 . S
C115 C117 1.390 . S
C115 C118 1.339 . S
C116 C114 1.416 . S
C116 C118 1.416 . S
C116 C149 1.448 . S
C117 H102 0.930 . S
C117 N113 1.334 . S
C117 C115 1.390 . S
C118 C115 1.339 . S
C118 C116 1.416 . S
C118 H125 0.930 . S
N119 Tb84 2.572 . S
N119 C120 1.340 . S
N119 C122 1.361 . S
C120 H106 0.930 . S
C120 N119 1.340 . S
C120 C124 1.407 . S
C121 C122 1.413 . S
C121 C123 1.416 . S
C121 C150 1.427 . S
C122 C114 1.424 . S
C122 N119 1.361 . S
C122 C121 1.413 . S
C123 H112 0.931 . S
C123 C121 1.416 . S
C123 C124 1.332 . S
C124 H103 0.929 . S
C124 C120 1.407 . S
C124 C123 1.332 . S
H125 C118 0.930 . S
H126 C149 0.930 . S
H127 C150 0.929 . S
O128 Tb84 2.465 . S
O128 C148 1.264 . S
O129 Tb84 2.387 . S
O129 C140 1.264 . S
O130 Tb95 2.349 . S
O130 C140 1.243 . S
O131 Tb84 2.428 . S
O131 C148 1.256 . S
O132 Tb84 2.308 . S
O132 C147 1.266 . S
O133 Tb95 2.393 . S
O133 C147 1.248 . S
O134 Tb95 2.465 . S
O134 C159 1.264 . S
O135 Tb95 2.387 . S
O135 C151 1.264 . S
O136 Tb84 2.349 . S
O136 C151 1.243 . S
O137 Tb95 2.428 . S
O137 C159 1.256 . S
O138 Tb95 2.308 . S
O138 C158 1.266 . S
O139 Tb84 2.393 . S
O139 C158 1.248 . S
C140 O129 1.264 . S
C140 O130 1.243 . S
C141 C144 1.399 . S
C141 C146 1.383 . S
C141 C148 1.496 . S
C142 C143 1.399 . S
C142 C146 1.389 . S
C143 C142 1.399 . S
C143 C145 1.380 . S
C143 H160 0.929 . S
C144 C141 1.399 . S
C144 C145 1.392 . S
C144 H161 0.929 . S
C145 C143 1.380 . S
C145 C144 1.392 . S
C145 H162 0.929 . S
C146 C141 1.383 . S
C146 C142 1.389 . S
C146 H163 0.931 . S
C147 O132 1.266 . S
C147 O133 1.248 . S
C148 Tb84 2.802 . S
C148 O128 1.264 . S
C148 O131 1.256 . S
C148 C141 1.496 . S
C149 C116 1.448 . S
C149 H126 0.930 . S
C149 C150 1.328 . S
C150 C121 1.427 . S
C150 H127 0.929 . S
C150 C149 1.328 . S
C151 O135 1.264 . S
C151 O136 1.243 . S
C152 C155 1.399 . S
C152 C156 1.383 . S
C152 C159 1.496 . S
C153 C154 1.399 . S
C153 C156 1.389 . S
C154 C153 1.399 . S
C154 C157 1.380 . S
C154 H164 0.929 . S
C155 C152 1.399 . S
C155 C157 1.392 . S
C155 H165 0.929 . S
C156 C152 1.383 . S
C156 C153 1.389 . S
C156 H166 0.931 . S
C157 C154 1.380 . S
C157 C155 1.392 . S
C157 H167 0.929 . S
C158 O138 1.266 . S
C158 O139 1.248 . S
C159 Tb95 2.802 . S
C159 O134 1.264 . S
C159 O137 1.256 . S
C159 C152 1.496 . S
H160 C143 0.929 . S
H161 C144 0.929 . S
H162 C145 0.929 . S
H163 C146 0.931 . S
H164 C154 0.929 . S
H165 C155 0.929 . S
H166 C156 0.931 . S
H167 C157 0.929 . S
Tb168 N197 2.617 . S
Tb168 N203 2.572 . S
Tb168 O212 2.465 . S
Tb168 O213 2.387 . S
Tb168 O215 2.428 . S
Tb168 O216 2.308 . S
Tb168 O220 2.349 . S
Tb168 O223 2.393 . S
Tb168 C232 2.802 . S
C169 N170 1.379 . S
C169 C172 1.416 . S
C169 C176 1.424 . S
N170 C169 1.379 . S
N170 C173 1.334 . S
N170 Tb179 2.617 . S
C171 C173 1.390 . S
C171 C174 1.339 . S
C171 H191 0.930 . S
C172 C169 1.416 . S
C172 C174 1.416 . S
C172 C178 1.448 . S
C173 N170 1.334 . S
C173 C171 1.390 . S
C173 H184 0.930 . S
C174 C171 1.339 . S
C174 C172 1.416 . S
C174 H195 0.930 . S
C175 C176 1.413 . S
C175 C177 1.427 . S
C175 C181 1.416 . S
C176 C169 1.424 . S
C176 C175 1.413 . S
C176 N180 1.361 . S
C177 C175 1.427 . S
C177 C178 1.328 . S
C177 H192 0.929 . S
C178 C172 1.448 . S
C178 C177 1.328 . S
C178 H193 0.930 . S
Tb179 N170 2.617 . S
Tb179 N180 2.572 . S
Tb179 O214 2.349 . S
Tb179 O217 2.393 . S
Tb179 O218 2.465 . S
Tb179 O219 2.387 . S
Tb179 O221 2.428 . S
Tb179 O222 2.308 . S
Tb179 C243 2.802 . S
N180 C176 1.361 . S
N180 Tb179 2.572 . S
N180 C182 1.340 . S
C181 C175 1.416 . S
C181 C183 1.332 . S
C181 H189 0.931 . S
C182 N180 1.340 . S
C182 C183 1.407 . S
C182 H188 0.930 . S
C183 C181 1.332 . S
C183 C182 1.407 . S
C183 H185 0.929 . S
H184 C173 0.930 . S
H185 C183 0.929 . S
H186 C201 0.930 . S
H187 C208 0.929 . S
H188 C182 0.930 . S
H189 C181 0.931 . S
H190 C204 0.930 . S
H191 C171 0.930 . S
H192 C177 0.929 . S
H193 C178 0.930 . S
H194 C199 0.930 . S
H195 C174 0.930 . S
H196 C207 0.931 . S
N197 Tb168 2.617 . S
N197 C198 1.379 . S
N197 C201 1.334 . S
C198 N197 1.379 . S
C198 C200 1.416 . S
C198 C206 1.424 . S
C199 H194 0.930 . S
C199 C201 1.390 . S
C199 C202 1.339 . S
C200 C198 1.416 . S
C200 C202 1.416 . S
C200 C233 1.448 . S
C201 H186 0.930 . S
C201 N197 1.334 . S
C201 C199 1.390 . S
C202 C199 1.339 . S
C202 C200 1.416 . S
C202 H209 0.930 . S
N203 Tb168 2.572 . S
N203 C204 1.340 . S
N203 C206 1.361 . S
C204 H190 0.930 . S
C204 N203 1.340 . S
C204 C208 1.407 . S
C205 C206 1.413 . S
C205 C207 1.416 . S
C205 C234 1.427 . S
C206 C198 1.424 . S
C206 N203 1.361 . S
C206 C205 1.413 . S
C207 H196 0.931 . S
C207 C205 1.416 . S
C207 C208 1.332 . S
C208 H187 0.929 . S
C208 C204 1.407 . S
C208 C207 1.332 . S
H209 C202 0.930 . S
H210 C233 0.930 . S
H211 C234 0.929 . S
O212 Tb168 2.465 . S
O212 C232 1.264 . S
O213 Tb168 2.387 . S
O213 C224 1.264 . S
O214 Tb179 2.349 . S
O214 C224 1.243 . S
O215 Tb168 2.428 . S
O215 C232 1.256 . S
O216 Tb168 2.308 . S
O216 C231 1.266 . S
O217 Tb179 2.393 . S
O217 C231 1.248 . S
O218 Tb179 2.465 . S
O218 C243 1.264 . S
O219 Tb179 2.387 . S
O219 C235 1.264 . S
O220 Tb168 2.349 . S
O220 C235 1.243 . S
O221 Tb179 2.428 . S
O221 C243 1.256 . S
O222 Tb179 2.308 . S
O222 C242 1.266 . S
O223 Tb168 2.393 . S
O223 C242 1.248 . S
C224 O213 1.264 . S
C224 O214 1.243 . S
C225 C228 1.399 . S
C225 C230 1.383 . S
C225 C232 1.496 . S
C226 C227 1.399 . S
C226 C230 1.389 . S
C227 C226 1.399 . S
C227 C229 1.380 . S
C227 H244 0.929 . S
C228 C225 1.399 . S
C228 C229 1.392 . S
C228 H245 0.929 . S
C229 C227 1.380 . S
C229 C228 1.392 . S
C229 H246 0.929 . S
C230 C225 1.383 . S
C230 C226 1.389 . S
C230 H247 0.931 . S
C231 O216 1.266 . S
C231 O217 1.248 . S
C232 Tb168 2.802 . S
C232 O212 1.264 . S
C232 O215 1.256 . S
C232 C225 1.496 . S
C233 C200 1.448 . S
C233 H210 0.930 . S
C233 C234 1.328 . S
C234 C205 1.427 . S
C234 H211 0.929 . S
C234 C233 1.328 . S
C235 O219 1.264 . S
C235 O220 1.243 . S
C236 C239 1.399 . S
C236 C240 1.383 . S
C236 C243 1.496 . S
C237 C238 1.399 . S
C237 C240 1.389 . S
C238 C237 1.399 . S
C238 C241 1.380 . S
C238 H248 0.929 . S
C239 C236 1.399 . S
C239 C241 1.392 . S
C239 H249 0.929 . S
C240 C236 1.383 . S
C240 C237 1.389 . S
C240 H250 0.931 . S
C241 C238 1.380 . S
C241 C239 1.392 . S
C241 H251 0.929 . S
C242 O222 1.266 . S
C242 O223 1.248 . S
C243 Tb179 2.802 . S
C243 O218 1.264 . S
C243 O221 1.256 . S
C243 C236 1.496 . S
H244 C227 0.929 . S
H245 C228 0.929 . S
H246 C229 0.929 . S
H247 C230 0.931 . S
H248 C238 0.929 . S
H249 C239 0.929 . S
H250 C240 0.931 . S
H251 C241 0.929 . S
Tb252 N281 2.617 . S
Tb252 N287 2.572 . S
Tb252 O296 2.465 . S
Tb252 O297 2.387 . S
Tb252 O299 2.428 . S
Tb252 O300 2.308 . S
Tb252 O304 2.349 . S
Tb252 O307 2.393 . S
Tb252 C316 2.802 . S
C253 N254 1.379 . S
C253 C256 1.416 . S
C253 C260 1.424 . S
N254 C253 1.379 . S
N254 C257 1.334 . S
N254 Tb263 2.617 . S
C255 C257 1.390 . S
C255 C258 1.339 . S
C255 H275 0.930 . S
C256 C253 1.416 . S
C256 C258 1.416 . S
C256 C262 1.448 . S
C257 N254 1.334 . S
C257 C255 1.390 . S
C257 H268 0.930 . S
C258 C255 1.339 . S
C258 C256 1.416 . S
C258 H279 0.930 . S
C259 C260 1.413 . S
C259 C261 1.427 . S
C259 C265 1.416 . S
C260 C253 1.424 . S
C260 C259 1.413 . S
C260 N264 1.361 . S
C261 C259 1.427 . S
C261 C262 1.328 . S
C261 H276 0.929 . S
C262 C256 1.448 . S
C262 C261 1.328 . S
C262 H277 0.930 . S
Tb263 N254 2.617 . S
Tb263 N264 2.572 . S
Tb263 O298 2.349 . S
Tb263 O301 2.393 . S
Tb263 O302 2.465 . S
Tb263 O303 2.387 . S
Tb263 O305 2.428 . S
Tb263 O306 2.308 . S
Tb263 C327 2.802 . S
N264 C260 1.361 . S
N264 Tb263 2.572 . S
N264 C266 1.340 . S
C265 C259 1.416 . S
C265 C267 1.332 . S
C265 H273 0.931 . S
C266 N264 1.340 . S
C266 C267 1.407 . S
C266 H272 0.930 . S
C267 C265 1.332 . S
C267 C266 1.407 . S
C267 H269 0.929 . S
H268 C257 0.930 . S
H269 C267 0.929 . S
H270 C285 0.930 . S
H271 C292 0.929 . S
H272 C266 0.930 . S
H273 C265 0.931 . S
H274 C288 0.930 . S
H275 C255 0.930 . S
H276 C261 0.929 . S
H277 C262 0.930 . S
H278 C283 0.930 . S
H279 C258 0.930 . S
H280 C291 0.931 . S
N281 Tb252 2.617 . S
N281 C282 1.379 . S
N281 C285 1.334 . S
C282 N281 1.379 . S
C282 C284 1.416 . S
C282 C290 1.424 . S
C283 H278 0.930 . S
C283 C285 1.390 . S
C283 C286 1.339 . S
C284 C282 1.416 . S
C284 C286 1.416 . S
C284 C317 1.448 . S
C285 H270 0.930 . S
C285 N281 1.334 . S
C285 C283 1.390 . S
C286 C283 1.339 . S
C286 C284 1.416 . S
C286 H293 0.930 . S
N287 Tb252 2.572 . S
N287 C288 1.340 . S
N287 C290 1.361 . S
C288 H274 0.930 . S
C288 N287 1.340 . S
C288 C292 1.407 . S
C289 C290 1.413 . S
C289 C291 1.416 . S
C289 C318 1.427 . S
C290 C282 1.424 . S
C290 N287 1.361 . S
C290 C289 1.413 . S
C291 H280 0.931 . S
C291 C289 1.416 . S
C291 C292 1.332 . S
C292 H271 0.929 . S
C292 C288 1.407 . S
C292 C291 1.332 . S
H293 C286 0.930 . S
H294 C317 0.930 . S
H295 C318 0.929 . S
O296 Tb252 2.465 . S
O296 C316 1.264 . S
O297 Tb252 2.387 . S
O297 C308 1.264 . S
O298 Tb263 2.349 . S
O298 C308 1.243 . S
O299 Tb252 2.428 . S
O299 C316 1.256 . S
O300 Tb252 2.308 . S
O300 C315 1.266 . S
O301 Tb263 2.393 . S
O301 C315 1.248 . S
O302 Tb263 2.465 . S
O302 C327 1.264 . S
O303 Tb263 2.387 . S
O303 C319 1.264 . S
O304 Tb252 2.349 . S
O304 C319 1.243 . S
O305 Tb263 2.428 . S
O305 C327 1.256 . S
O306 Tb263 2.308 . S
O306 C326 1.266 . S
O307 Tb252 2.393 . S
O307 C326 1.248 . S
C308 O297 1.264 . S
C308 O298 1.243 . S
C309 C312 1.399 . S
C309 C314 1.383 . S
C309 C316 1.496 . S
C310 C311 1.399 . S
C310 C314 1.389 . S
C311 C310 1.399 . S
C311 C313 1.380 . S
C311 H328 0.929 . S
C312 C309 1.399 . S
C312 C313 1.392 . S
C312 H329 0.929 . S
C313 C311 1.380 . S
C313 C312 1.392 . S
C313 H330 0.929 . S
C314 C309 1.383 . S
C314 C310 1.389 . S
C314 H331 0.931 . S
C315 O300 1.266 . S
C315 O301 1.248 . S
C316 Tb252 2.802 . S
C316 O296 1.264 . S
C316 O299 1.256 . S
C316 C309 1.496 . S
C317 C284 1.448 . S
C317 H294 0.930 . S
C317 C318 1.328 . S
C318 C289 1.427 . S
C318 H295 0.929 . S
C318 C317 1.328 . S
C319 O303 1.264 . S
C319 O304 1.243 . S
C320 C323 1.399 . S
C320 C324 1.383 . S
C320 C327 1.496 . S
C321 C322 1.399 . S
C321 C324 1.389 . S
C322 C321 1.399 . S
C322 C325 1.380 . S
C322 H332 0.929 . S
C323 C320 1.399 . S
C323 C325 1.392 . S
C323 H333 0.929 . S
C324 C320 1.383 . S
C324 C321 1.389 . S
C324 H334 0.931 . S
C325 C322 1.380 . S
C325 C323 1.392 . S
C325 H335 0.929 . S
C326 O306 1.266 . S
C326 O307 1.248 . S
C327 Tb263 2.802 . S
C327 O302 1.264 . S
C327 O305 1.256 . S
C327 C320 1.496 . S
H328 C311 0.929 . S
H329 C312 0.929 . S
H330 C313 0.929 . S
H331 C314 0.931 . S
H332 C322 0.929 . S
H333 C323 0.929 . S
H334 C324 0.931 . S
H335 C325 0.929 . S
Tb336 N365 2.617 . S
Tb336 N371 2.572 . S
Tb336 O380 2.465 . S
Tb336 O381 2.387 . S
Tb336 O383 2.428 . S
Tb336 O384 2.308 . S
Tb336 O388 2.349 . S
Tb336 O391 2.393 . S
Tb336 C400 2.802 . S
C337 N338 1.379 . S
C337 C340 1.416 . S
C337 C344 1.424 . S
N338 C337 1.379 . S
N338 C341 1.334 . S
N338 Tb347 2.617 . S
C339 C341 1.390 . S
C339 C342 1.339 . S
C339 H359 0.930 . S
C340 C337 1.416 . S
C340 C342 1.416 . S
C340 C346 1.448 . S
C341 N338 1.334 . S
C341 C339 1.390 . S
C341 H352 0.930 . S
C342 C339 1.339 . S
C342 C340 1.416 . S
C342 H363 0.930 . S
C343 C344 1.413 . S
C343 C345 1.427 . S
C343 C349 1.416 . S
C344 C337 1.424 . S
C344 C343 1.413 . S
C344 N348 1.361 . S
C345 C343 1.427 . S
C345 C346 1.328 . S
C345 H360 0.929 . S
C346 C340 1.448 . S
C346 C345 1.328 . S
C346 H361 0.930 . S
Tb347 N338 2.617 . S
Tb347 N348 2.572 . S
Tb347 O382 2.349 . S
Tb347 O385 2.393 . S
Tb347 O386 2.465 . S
Tb347 O387 2.387 . S
Tb347 O389 2.428 . S
Tb347 O390 2.308 . S
Tb347 C411 2.802 . S
N348 C344 1.361 . S
N348 Tb347 2.572 . S
N348 C350 1.340 . S
C349 C343 1.416 . S
C349 C351 1.332 . S
C349 H357 0.931 . S
C350 N348 1.340 . S
C350 C351 1.407 . S
C350 H356 0.930 . S
C351 C349 1.332 . S
C351 C350 1.407 . S
C351 H353 0.929 . S
H352 C341 0.930 . S
H353 C351 0.929 . S
H354 C369 0.930 . S
H355 C376 0.929 . S
H356 C350 0.930 . S
H357 C349 0.931 . S
H358 C372 0.930 . S
H359 C339 0.930 . S
H360 C345 0.929 . S
H361 C346 0.930 . S
H362 C367 0.930 . S
H363 C342 0.930 . S
H364 C375 0.931 . S
N365 Tb336 2.617 . S
N365 C366 1.379 . S
N365 C369 1.334 . S
C366 N365 1.379 . S
C366 C368 1.416 . S
C366 C374 1.424 . S
C367 H362 0.930 . S
C367 C369 1.390 . S
C367 C370 1.339 . S
C368 C366 1.416 . S
C368 C370 1.416 . S
C368 C401 1.448 . S
C369 H354 0.930 . S
C369 N365 1.334 . S
C369 C367 1.390 . S
C370 C367 1.339 . S
C370 C368 1.416 . S
C370 H377 0.930 . S
N371 Tb336 2.572 . S
N371 C372 1.340 . S
N371 C374 1.361 . S
C372 H358 0.930 . S
C372 N371 1.340 . S
C372 C376 1.407 . S
C373 C374 1.413 . S
C373 C375 1.416 . S
C373 C402 1.427 . S
C374 C366 1.424 . S
C374 N371 1.361 . S
C374 C373 1.413 . S
C375 H364 0.931 . S
C375 C373 1.416 . S
C375 C376 1.332 . S
C376 H355 0.929 . S
C376 C372 1.407 . S
C376 C375 1.332 . S
H377 C370 0.930 . S
H378 C401 0.930 . S
H379 C402 0.929 . S
O380 Tb336 2.465 . S
O380 C400 1.264 . S
O381 Tb336 2.387 . S
O381 C392 1.264 . S
O382 Tb347 2.349 . S
O382 C392 1.243 . S
O383 Tb336 2.428 . S
O383 C400 1.256 . S
O384 Tb336 2.308 . S
O384 C399 1.266 . S
O385 Tb347 2.393 . S
O385 C399 1.248 . S
O386 Tb347 2.465 . S
O386 C411 1.264 . S
O387 Tb347 2.387 . S
O387 C403 1.264 . S
O388 Tb336 2.349 . S
O388 C403 1.243 . S
O389 Tb347 2.428 . S
O389 C411 1.256 . S
O390 Tb347 2.308 . S
O390 C410 1.266 . S
O391 Tb336 2.393 . S
O391 C410 1.248 . S
C392 O381 1.264 . S
C392 O382 1.243 . S
C393 C396 1.399 . S
C393 C398 1.383 . S
C393 C400 1.496 . S
C394 C395 1.399 . S
C394 C398 1.389 . S
C395 C394 1.399 . S
C395 C397 1.380 . S
C395 H412 0.929 . S
C396 C393 1.399 . S
C396 C397 1.392 . S
C396 H413 0.929 . S
C397 C395 1.380 . S
C397 C396 1.392 . S
C397 H414 0.929 . S
C398 C393 1.383 . S
C398 C394 1.389 . S
C398 H415 0.931 . S
C399 O384 1.266 . S
C399 O385 1.248 . S
C400 Tb336 2.802 . S
C400 O380 1.264 . S
C400 O383 1.256 . S
C400 C393 1.496 . S
C401 C368 1.448 . S
C401 H378 0.930 . S
C401 C402 1.328 . S
C402 C373 1.427 . S
C402 H379 0.929 . S
C402 C401 1.328 . S
C403 O387 1.264 . S
C403 O388 1.243 . S
C404 C407 1.399 . S
C404 C408 1.383 . S
C404 C411 1.496 . S
C405 C406 1.399 . S
C405 C408 1.389 . S
C406 C405 1.399 . S
C406 C409 1.380 . S
C406 H416 0.929 . S
C407 C404 1.399 . S
C407 C409 1.392 . S
C407 H417 0.929 . S
C408 C404 1.383 . S
C408 C405 1.389 . S
C408 H418 0.931 . S
C409 C406 1.380 . S
C409 C407 1.392 . S
C409 H419 0.929 . S
C410 O390 1.266 . S
C410 O391 1.248 . S
C411 Tb347 2.802 . S
C411 O386 1.264 . S
C411 O389 1.256 . S
C411 C404 1.496 . S
H412 C395 0.929 . S
H413 C396 0.929 . S
H414 C397 0.929 . S
H415 C398 0.931 . S
H416 C406 0.929 . S
H417 C407 0.929 . S
H418 C408 0.931 . S
H419 C409 0.929 . S
Tb420 N449 2.617 . S
Tb420 N455 2.572 . S
Tb420 O464 2.465 . S
Tb420 O465 2.387 . S
Tb420 O467 2.428 . S
Tb420 O468 2.308 . S
Tb420 O472 2.349 . S
Tb420 O475 2.393 . S
Tb420 C484 2.802 . S
C421 N422 1.379 . S
C421 C424 1.416 . S
C421 C428 1.424 . S
N422 C421 1.379 . S
N422 C425 1.334 . S
N422 Tb431 2.617 . S
C423 C425 1.390 . S
C423 C426 1.339 . S
C423 H443 0.930 . S
C424 C421 1.416 . S
C424 C426 1.416 . S
C424 C430 1.448 . S
C425 N422 1.334 . S
C425 C423 1.390 . S
C425 H436 0.930 . S
C426 C423 1.339 . S
C426 C424 1.416 . S
C426 H447 0.930 . S
C427 C428 1.413 . S
C427 C429 1.427 . S
C427 C433 1.416 . S
C428 C421 1.424 . S
C428 C427 1.413 . S
C428 N432 1.361 . S
C429 C427 1.427 . S
C429 C430 1.328 . S
C429 H444 0.929 . S
C430 C424 1.448 . S
C430 C429 1.328 . S
C430 H445 0.930 . S
Tb431 N422 2.617 . S
Tb431 N432 2.572 . S
Tb431 O466 2.349 . S
Tb431 O469 2.393 . S
Tb431 O470 2.465 . S
Tb431 O471 2.387 . S
Tb431 O473 2.428 . S
Tb431 O474 2.308 . S
Tb431 C495 2.802 . S
N432 C428 1.361 . S
N432 Tb431 2.572 . S
N432 C434 1.340 . S
C433 C427 1.416 . S
C433 C435 1.332 . S
C433 H441 0.931 . S
C434 N432 1.340 . S
C434 C435 1.407 . S
C434 H440 0.930 . S
C435 C433 1.332 . S
C435 C434 1.407 . S
C435 H437 0.929 . S
H436 C425 0.930 . S
H437 C435 0.929 . S
H438 C453 0.930 . S
H439 C460 0.929 . S
H440 C434 0.930 . S
H441 C433 0.931 . S
H442 C456 0.930 . S
H443 C423 0.930 . S
H444 C429 0.929 . S
H445 C430 0.930 . S
H446 C451 0.930 . S
H447 C426 0.930 . S
H448 C459 0.931 . S
N449 Tb420 2.617 . S
N449 C450 1.379 . S
N449 C453 1.334 . S
C450 N449 1.379 . S
C450 C452 1.416 . S
C450 C458 1.424 . S
C451 H446 0.930 . S
C451 C453 1.390 . S
C451 C454 1.339 . S
C452 C450 1.416 . S
C452 C454 1.416 . S
C452 C485 1.448 . S
C453 H438 0.930 . S
C453 N449 1.334 . S
C453 C451 1.390 . S
C454 C451 1.339 . S
C454 C452 1.416 . S
C454 H461 0.930 . S
N455 Tb420 2.572 . S
N455 C456 1.340 . S
N455 C458 1.361 . S
C456 H442 0.930 . S
C456 N455 1.340 . S
C456 C460 1.407 . S
C457 C458 1.413 . S
C457 C459 1.416 . S
C457 C486 1.427 . S
C458 C450 1.424 . S
C458 N455 1.361 . S
C458 C457 1.413 . S
C459 H448 0.931 . S
C459 C457 1.416 . S
C459 C460 1.332 . S
C460 H439 0.929 . S
C460 C456 1.407 . S
C460 C459 1.332 . S
H461 C454 0.930 . S
H462 C485 0.930 . S
H463 C486 0.929 . S
O464 Tb420 2.465 . S
O464 C484 1.264 . S
O465 Tb420 2.387 . S
O465 C476 1.264 . S
O466 Tb431 2.349 . S
O466 C476 1.243 . S
O467 Tb420 2.428 . S
O467 C484 1.256 . S
O468 Tb420 2.308 . S
O468 C483 1.266 . S
O469 Tb431 2.393 . S
O469 C483 1.248 . S
O470 Tb431 2.465 . S
O470 C495 1.264 . S
O471 Tb431 2.387 . S
O471 C487 1.264 . S
O472 Tb420 2.349 . S
O472 C487 1.243 . S
O473 Tb431 2.428 . S
O473 C495 1.256 . S
O474 Tb431 2.308 . S
O474 C494 1.266 . S
O475 Tb420 2.393 . S
O475 C494 1.248 . S
C476 O465 1.264 . S
C476 O466 1.243 . S
C477 C480 1.399 . S
C477 C482 1.383 . S
C477 C484 1.496 . S
C478 C479 1.399 . S
C478 C482 1.389 . S
C479 C478 1.399 . S
C479 C481 1.380 . S
C479 H496 0.929 . S
C480 C477 1.399 . S
C480 C481 1.392 . S
C480 H497 0.929 . S
C481 C479 1.380 . S
C481 C480 1.392 . S
C481 H498 0.929 . S
C482 C477 1.383 . S
C482 C478 1.389 . S
C482 H499 0.931 . S
C483 O468 1.266 . S
C483 O469 1.248 . S
C484 Tb420 2.802 . S
C484 O464 1.264 . S
C484 O467 1.256 . S
C484 C477 1.496 . S
C485 C452 1.448 . S
C485 H462 0.930 . S
C485 C486 1.328 . S
C486 C457 1.427 . S
C486 H463 0.929 . S
C486 C485 1.328 . S
C487 O471 1.264 . S
C487 O472 1.243 . S
C488 C491 1.399 . S
C488 C492 1.383 . S
C488 C495 1.496 . S
C489 C490 1.399 . S
C489 C492 1.389 . S
C490 C489 1.399 . S
C490 C493 1.380 . S
C490 H500 0.929 . S
C491 C488 1.399 . S
C491 C493 1.392 . S
C491 H501 0.929 . S
C492 C488 1.383 . S
C492 C489 1.389 . S
C492 H502 0.931 . S
C493 C490 1.380 . S
C493 C491 1.392 . S
C493 H503 0.929 . S
C494 O474 1.266 . S
C494 O475 1.248 . S
C495 Tb431 2.802 . S
C495 O470 1.264 . S
C495 O473 1.256 . S
C495 C488 1.496 . S
H496 C479 0.929 . S
H497 C480 0.929 . S
H498 C481 0.929 . S
H499 C482 0.931 . S
H500 C490 0.929 . S
H501 C491 0.929 . S
H502 C492 0.931 . S
H503 C493 0.929 . S
Tb504 N533 2.617 . S
Tb504 N539 2.572 . S
Tb504 O548 2.465 . S
Tb504 O549 2.387 . S
Tb504 O551 2.428 . S
Tb504 O552 2.308 . S
Tb504 O556 2.349 . S
Tb504 O559 2.393 . S
Tb504 C568 2.802 . S
C505 N506 1.379 . S
C505 C508 1.416 . S
C505 C512 1.424 . S
N506 C505 1.379 . S
N506 C509 1.334 . S
N506 Tb515 2.617 . S
C507 C509 1.390 . S
C507 C510 1.339 . S
C507 H527 0.930 . S
C508 C505 1.416 . S
C508 C510 1.416 . S
C508 C514 1.448 . S
C509 N506 1.334 . S
C509 C507 1.390 . S
C509 H520 0.930 . S
C510 C507 1.339 . S
C510 C508 1.416 . S
C510 H531 0.930 . S
C511 C512 1.413 . S
C511 C513 1.427 . S
C511 C517 1.416 . S
C512 C505 1.424 . S
C512 C511 1.413 . S
C512 N516 1.361 . S
C513 C511 1.427 . S
C513 C514 1.328 . S
C513 H528 0.929 . S
C514 C508 1.448 . S
C514 C513 1.328 . S
C514 H529 0.930 . S
Tb515 N506 2.617 . S
Tb515 N516 2.572 . S
Tb515 O550 2.349 . S
Tb515 O553 2.393 . S
Tb515 O554 2.465 . S
Tb515 O555 2.387 . S
Tb515 O557 2.428 . S
Tb515 O558 2.308 . S
Tb515 C579 2.802 . S
N516 C512 1.361 . S
N516 Tb515 2.572 . S
N516 C518 1.340 . S
C517 C511 1.416 . S
C517 C519 1.332 . S
C517 H525 0.931 . S
C518 N516 1.340 . S
C518 C519 1.407 . S
C518 H524 0.930 . S
C519 C517 1.332 . S
C519 C518 1.407 . S
C519 H521 0.929 . S
H520 C509 0.930 . S
H521 C519 0.929 . S
H522 C537 0.930 . S
H523 C544 0.929 . S
H524 C518 0.930 . S
H525 C517 0.931 . S
H526 C540 0.930 . S
H527 C507 0.930 . S
H528 C513 0.929 . S
H529 C514 0.930 . S
H530 C535 0.930 . S
H531 C510 0.930 . S
H532 C543 0.931 . S
N533 Tb504 2.617 . S
N533 C534 1.379 . S
N533 C537 1.334 . S
C534 N533 1.379 . S
C534 C536 1.416 . S
C534 C542 1.424 . S
C535 H530 0.930 . S
C535 C537 1.390 . S
C535 C538 1.339 . S
C536 C534 1.416 . S
C536 C538 1.416 . S
C536 C569 1.448 . S
C537 H522 0.930 . S
C537 N533 1.334 . S
C537 C535 1.390 . S
C538 C535 1.339 . S
C538 C536 1.416 . S
C538 H545 0.930 . S
N539 Tb504 2.572 . S
N539 C540 1.340 . S
N539 C542 1.361 . S
C540 H526 0.930 . S
C540 N539 1.340 . S
C540 C544 1.407 . S
C541 C542 1.413 . S
C541 C543 1.416 . S
C541 C570 1.427 . S
C542 C534 1.424 . S
C542 N539 1.361 . S
C542 C541 1.413 . S
C543 H532 0.931 . S
C543 C541 1.416 . S
C543 C544 1.332 . S
C544 H523 0.929 . S
C544 C540 1.407 . S
C544 C543 1.332 . S
H545 C538 0.930 . S
H546 C569 0.930 . S
H547 C570 0.929 . S
O548 Tb504 2.465 . S
O548 C568 1.264 . S
O549 Tb504 2.387 . S
O549 C560 1.264 . S
O550 Tb515 2.349 . S
O550 C560 1.243 . S
O551 Tb504 2.428 . S
O551 C568 1.256 . S
O552 Tb504 2.308 . S
O552 C567 1.266 . S
O553 Tb515 2.393 . S
O553 C567 1.248 . S
O554 Tb515 2.465 . S
O554 C579 1.264 . S
O555 Tb515 2.387 . S
O555 C571 1.264 . S
O556 Tb504 2.349 . S
O556 C571 1.243 . S
O557 Tb515 2.428 . S
O557 C579 1.256 . S
O558 Tb515 2.308 . S
O558 C578 1.266 . S
O559 Tb504 2.393 . S
O559 C578 1.248 . S
C560 O549 1.264 . S
C560 O550 1.243 . S
C561 C564 1.399 . S
C561 C566 1.383 . S
C561 C568 1.496 . S
C562 C563 1.399 . S
C562 C566 1.389 . S
C563 C562 1.399 . S
C563 C565 1.380 . S
C563 H580 0.929 . S
C564 C561 1.399 . S
C564 C565 1.392 . S
C564 H581 0.929 . S
C565 C563 1.380 . S
C565 C564 1.392 . S
C565 H582 0.929 . S
C566 C561 1.383 . S
C566 C562 1.389 . S
C566 H583 0.931 . S
C567 O552 1.266 . S
C567 O553 1.248 . S
C568 Tb504 2.802 . S
C568 O548 1.264 . S
C568 O551 1.256 . S
C568 C561 1.496 . S
C569 C536 1.448 . S
C569 H546 0.930 . S
C569 C570 1.328 . S
C570 C541 1.427 . S
C570 H547 0.929 . S
C570 C569 1.328 . S
C571 O555 1.264 . S
C571 O556 1.243 . S
C572 C575 1.399 . S
C572 C576 1.383 . S
C572 C579 1.496 . S
C573 C574 1.399 . S
C573 C576 1.389 . S
C574 C573 1.399 . S
C574 C577 1.380 . S
C574 H584 0.929 . S
C575 C572 1.399 . S
C575 C577 1.392 . S
C575 H585 0.929 . S
C576 C572 1.383 . S
C576 C573 1.389 . S
C576 H586 0.931 . S
C577 C574 1.380 . S
C577 C575 1.392 . S
C577 H587 0.929 . S
C578 O558 1.266 . S
C578 O559 1.248 . S
C579 Tb515 2.802 . S
C579 O554 1.264 . S
C579 O557 1.256 . S
C579 C572 1.496 . S
H580 C563 0.929 . S
H581 C564 0.929 . S
H582 C565 0.929 . S
H583 C566 0.931 . S
H584 C574 0.929 . S
H585 C575 0.929 . S
H586 C576 0.931 . S
H587 C577 0.929 . S
Tb588 N617 2.617 . S
Tb588 N623 2.572 . S
Tb588 O632 2.465 . S
Tb588 O633 2.387 . S
Tb588 O635 2.428 . S
Tb588 O636 2.308 . S
Tb588 O640 2.349 . S
Tb588 O643 2.393 . S
Tb588 C652 2.802 . S
C589 N590 1.379 . S
C589 C592 1.416 . S
C589 C596 1.424 . S
N590 C589 1.379 . S
N590 C593 1.334 . S
N590 Tb599 2.617 . S
C591 C593 1.390 . S
C591 C594 1.339 . S
C591 H611 0.930 . S
C592 C589 1.416 . S
C592 C594 1.416 . S
C592 C598 1.448 . S
C593 N590 1.334 . S
C593 C591 1.390 . S
C593 H604 0.930 . S
C594 C591 1.339 . S
C594 C592 1.416 . S
C594 H615 0.930 . S
C595 C596 1.413 . S
C595 C597 1.427 . S
C595 C601 1.416 . S
C596 C589 1.424 . S
C596 C595 1.413 . S
C596 N600 1.361 . S
C597 C595 1.427 . S
C597 C598 1.328 . S
C597 H612 0.929 . S
C598 C592 1.448 . S
C598 C597 1.328 . S
C598 H613 0.930 . S
Tb599 N590 2.617 . S
Tb599 N600 2.572 . S
Tb599 O634 2.349 . S
Tb599 O637 2.393 . S
Tb599 O638 2.465 . S
Tb599 O639 2.387 . S
Tb599 O641 2.428 . S
Tb599 O642 2.308 . S
Tb599 C663 2.802 . S
N600 C596 1.361 . S
N600 Tb599 2.572 . S
N600 C602 1.340 . S
C601 C595 1.416 . S
C601 C603 1.332 . S
C601 H609 0.931 . S
C602 N600 1.340 . S
C602 C603 1.407 . S
C602 H608 0.930 . S
C603 C601 1.332 . S
C603 C602 1.407 . S
C603 H605 0.929 . S
H604 C593 0.930 . S
H605 C603 0.929 . S
H606 C621 0.930 . S
H607 C628 0.929 . S
H608 C602 0.930 . S
H609 C601 0.931 . S
H610 C624 0.930 . S
H611 C591 0.930 . S
H612 C597 0.929 . S
H613 C598 0.930 . S
H614 C619 0.930 . S
H615 C594 0.930 . S
H616 C627 0.931 . S
N617 Tb588 2.617 . S
N617 C618 1.379 . S
N617 C621 1.334 . S
C618 N617 1.379 . S
C618 C620 1.416 . S
C618 C626 1.424 . S
C619 H614 0.930 . S
C619 C621 1.390 . S
C619 C622 1.339 . S
C620 C618 1.416 . S
C620 C622 1.416 . S
C620 C653 1.448 . S
C621 H606 0.930 . S
C621 N617 1.334 . S
C621 C619 1.390 . S
C622 C619 1.339 . S
C622 C620 1.416 . S
C622 H629 0.930 . S
N623 Tb588 2.572 . S
N623 C624 1.340 . S
N623 C626 1.361 . S
C624 H610 0.930 . S
C624 N623 1.340 . S
C624 C628 1.407 . S
C625 C626 1.413 . S
C625 C627 1.416 . S
C625 C654 1.427 . S
C626 C618 1.424 . S
C626 N623 1.361 . S
C626 C625 1.413 . S
C627 H616 0.931 . S
C627 C625 1.416 . S
C627 C628 1.332 . S
C628 H607 0.929 . S
C628 C624 1.407 . S
C628 C627 1.332 . S
H629 C622 0.930 . S
H630 C653 0.930 . S
H631 C654 0.929 . S
O632 Tb588 2.465 . S
O632 C652 1.264 . S
O633 Tb588 2.387 . S
O633 C644 1.264 . S
O634 Tb599 2.349 . S
O634 C644 1.243 . S
O635 Tb588 2.428 . S
O635 C652 1.256 . S
O636 Tb588 2.308 . S
O636 C651 1.266 . S
O637 Tb599 2.393 . S
O637 C651 1.248 . S
O638 Tb599 2.465 . S
O638 C663 1.264 . S
O639 Tb599 2.387 . S
O639 C655 1.264 . S
O640 Tb588 2.349 . S
O640 C655 1.243 . S
O641 Tb599 2.428 . S
O641 C663 1.256 . S
O642 Tb599 2.308 . S
O642 C662 1.266 . S
O643 Tb588 2.393 . S
O643 C662 1.248 . S
C644 O633 1.264 . S
C644 O634 1.243 . S
C645 C648 1.399 . S
C645 C650 1.383 . S
C645 C652 1.496 . S
C646 C647 1.399 . S
C646 C650 1.389 . S
C647 C646 1.399 . S
C647 C649 1.380 . S
C647 H664 0.929 . S
C648 C645 1.399 . S
C648 C649 1.392 . S
C648 H665 0.929 . S
C649 C647 1.380 . S
C649 C648 1.392 . S
C649 H666 0.929 . S
C650 C645 1.383 . S
C650 C646 1.389 . S
C650 H667 0.931 . S
C651 O636 1.266 . S
C651 O637 1.248 . S
C652 Tb588 2.802 . S
C652 O632 1.264 . S
C652 O635 1.256 . S
C652 C645 1.496 . S
C653 C620 1.448 . S
C653 H630 0.930 . S
C653 C654 1.328 . S
C654 C625 1.427 . S
C654 H631 0.929 . S
C654 C653 1.328 . S
C655 O639 1.264 . S
C655 O640 1.243 . S
C656 C659 1.399 . S
C656 C660 1.383 . S
C656 C663 1.496 . S
C657 C658 1.399 . S
C657 C660 1.389 . S
C658 C657 1.399 . S
C658 C661 1.380 . S
C658 H668 0.929 . S
C659 C656 1.399 . S
C659 C661 1.392 . S
C659 H669 0.929 . S
C660 C656 1.383 . S
C660 C657 1.389 . S
C660 H670 0.931 . S
C661 C658 1.380 . S
C661 C659 1.392 . S
C661 H671 0.929 . S
C662 O642 1.266 . S
C662 O643 1.248 . S
C663 Tb599 2.802 . S
C663 O638 1.264 . S
C663 O641 1.256 . S
C663 C656 1.496 . S
H664 C647 0.929 . S
H665 C648 0.929 . S
H666 C649 0.929 . S
H667 C650 0.931 . S
H668 C658 0.929 . S
H669 C659 0.929 . S
H670 C660 0.931 . S
H671 C661 0.929 . S
Cd672 N675 2.334 1_655 S
Cd672 N701 2.304 1_565 S
Cd672 O708 2.268 . S
Cd672 O711 2.273 1_665 S
Cd672 O712 2.417 . S
Cd672 O713 2.330 . S
Cd673 N688 2.304 1_455 S
Cd673 N692 2.334 1_545 S
Cd673 O709 2.273 1_445 S
Cd673 O710 2.268 . S
Cd673 O714 2.417 . S
Cd673 O715 2.330 . S
C674 N675 1.332 . S
C674 C678 1.381 . S
C674 H680 0.931 . S
N675 Cd672 2.334 1_455 S
N675 C674 1.332 . S
N675 C679 1.328 . S
C676 C677 1.396 . S
C676 C679 1.378 . S
C676 H718 0.931 . S
C677 C676 1.396 . S
C677 C678 1.382 . S
C678 C674 1.381 . S
C678 C677 1.382 . S
C678 H719 0.930 . S
C679 N675 1.328 . S
C679 C676 1.378 . S
C679 H681 0.930 1_455 S
H680 C674 0.931 . S
H681 C679 0.930 1_655 S
C682 O708 1.238 . S
C682 O709 1.253 . S
C683 C684 1.379 . S
C683 N688 1.337 . S
C683 H689 0.929 . S
C684 C683 1.379 . S
C684 C685 1.380 . S
C684 H720 0.929 . S
C685 C684 1.380 . S
C685 C686 1.399 . S
C686 C685 1.399 . S
C686 C687 1.376 . S
C686 H721 0.931 . S
C687 C686 1.376 . S
C687 N688 1.338 . S
C687 H690 0.930 1_655 S
N688 Cd673 2.304 1_655 S
N688 C683 1.337 . S
N688 C687 1.338 . S
H689 C683 0.929 . S
H690 C687 0.930 1_455 S
C691 N692 1.332 . S
C691 C695 1.381 . S
C691 H697 0.931 . S
N692 Cd673 2.334 1_565 S
N692 C691 1.332 . S
N692 C696 1.328 . S
C693 C694 1.396 . S
C693 C696 1.378 . S
C693 H722 0.931 . S
C694 C693 1.396 . S
C694 C695 1.382 . S
C695 C691 1.381 . S
C695 C694 1.382 . S
C695 H723 0.930 . S
C696 N692 1.328 . S
C696 C693 1.378 . S
C696 H698 0.930 1_565 S
H697 C691 0.931 . S
H698 C696 0.930 1_545 S
C699 O710 1.238 . S
C699 O711 1.253 . S
C700 O712 1.239 . S
C700 O713 1.230 . S
N701 Cd672 2.304 1_545 S
N701 C702 1.337 . S
N701 C706 1.338 . S
C702 N701 1.337 . S
C702 C703 1.379 . S
C702 H716 0.929 . S
C703 C702 1.379 . S
C703 C704 1.380 . S
C703 H724 0.929 . S
C704 C703 1.380 . S
C704 C705 1.399 . S
C705 C704 1.399 . S
C705 C706 1.376 . S
C705 H725 0.931 . S
C706 N701 1.338 . S
C706 C705 1.376 . S
C706 H717 0.930 1_545 S
C707 O714 1.239 . S
C707 O715 1.230 . S
O708 Cd672 2.268 . S
O708 C682 1.238 . S
O709 Cd673 2.273 1_665 S
O709 C682 1.253 . S
O710 Cd673 2.268 . S
O710 C699 1.238 . S
O711 Cd672 2.273 1_445 S
O711 C699 1.253 . S
O712 Cd672 2.417 . S
O712 C700 1.239 . S
O713 Cd672 2.330 . S
O713 C700 1.230 . S
O714 Cd673 2.417 . S
O714 C707 1.239 . S
O715 Cd673 2.330 . S
O715 C707 1.230 . S
H716 C702 0.929 . S
H717 C706 0.930 1_565 S
H718 C676 0.931 . S
H719 C678 0.930 . S
H720 C684 0.929 . S
H721 C686 0.931 . S
H722 C693 0.931 . S
H723 C695 0.930 . S
H724 C703 0.929 . S
H725 C705 0.931 . S
Cd726 N729 2.334 . S
Cd726 N755 2.304 1_565 S
Cd726 O762 2.268 1_554 S
Cd726 O765 2.273 1_565 S
Cd726 O766 2.417 . S
Cd726 O767 2.330 . S
Cd727 N742 2.304 . S
Cd727 N746 2.334 1_545 S
Cd727 O763 2.273 1_545 S
Cd727 O764 2.268 1_556 S
Cd727 O768 2.417 . S
Cd727 O769 2.330 . S
C728 N729 1.332 . S
C728 C732 1.381 . S
C728 H734 0.931 . S
N729 Cd726 2.334 . S
N729 C728 1.332 . S
N729 C733 1.328 . S
C730 C731 1.396 . S
C730 C733 1.378 . S
C730 H772 0.931 1_554 S
C731 C730 1.396 . S
C731 C732 1.382 . S
C732 C728 1.381 . S
C732 C731 1.382 . S
C732 H773 0.930 . S
C733 N729 1.328 . S
C733 C730 1.378 . S
C733 H735 0.930 1_554 S
H734 C728 0.931 . S
H735 C733 0.930 1_556 S
C736 O762 1.238 . S
C736 O763 1.253 . S
C737 C738 1.379 . S
C737 N742 1.337 . S
C737 H743 0.929 . S
C738 C737 1.379 . S
C738 C739 1.380 . S
C738 H774 0.929 . S
C739 C738 1.380 . S
C739 C740 1.399 . S
C740 C739 1.399 . S
C740 C741 1.376 . S
C740 H775 0.931 1_556 S
C741 C740 1.376 . S
C741 N742 1.338 . S
C741 H744 0.930 1_556 S
N742 Cd727 2.304 . S
N742 C737 1.337 . S
N742 C741 1.338 . S
H743 C737 0.929 . S
H744 C741 0.930 1_554 S
C745 N746 1.332 . S
C745 C749 1.381 . S
C745 H751 0.931 . S
N746 Cd727 2.334 1_565 S
N746 C745 1.332 . S
N746 C750 1.328 . S
C747 C748 1.396 . S
C747 C750 1.378 . S
C747 H776 0.961 . S
C748 C747 1.396 . S
C748 C749 1.382 . S
C749 C745 1.381 . S
C749 C748 1.382 . S
C749 H777 0.930 . S
C750 N746 1.328 . S
C750 C747 1.378 . S
C750 H752 0.930 1_566 S
H751 C745 0.931 . S
H752 C750 0.930 1_544 S
C753 O764 1.238 . S
C753 O765 1.253 . S
C754 O766 1.239 . S
C754 O767 1.230 . S
N755 Cd726 2.304 1_545 S
N755 C756 1.337 . S
N755 C760 1.338 . S
C756 N755 1.337 . S
C756 C757 1.379 . S
C756 H770 0.929 . S
C757 C756 1.379 . S
C757 C758 1.380 . S
C757 H778 0.929 . S
C758 C757 1.380 . S
C758 C759 1.399 . S
C759 C758 1.399 . S
C759 C760 1.376 . S
C759 H779 0.949 . S
C760 N755 1.338 . S
C760 C759 1.376 . S
C760 H771 0.930 1_544 S
C761 O768 1.239 . S
C761 O769 1.230 . S
O762 Cd726 2.268 1_556 S
O762 C736 1.238 . S
O763 Cd727 2.273 1_565 S
O763 C736 1.253 . S
O764 Cd727 2.268 1_554 S
O764 C753 1.238 . S
O765 Cd726 2.273 1_545 S
O765 C753 1.253 . S
O766 Cd726 2.417 . S
O766 C754 1.239 . S
O767 Cd726 2.330 . S
O767 C754 1.230 . S
O768 Cd727 2.417 . S
O768 C761 1.239 . S
O769 Cd727 2.330 . S
O769 C761 1.230 . S
H770 C756 0.929 . S
H771 C760 0.930 1_566 S
H772 C730 0.931 1_556 S
H773 C732 0.930 . S
H774 C738 0.929 . S
H775 C740 0.931 1_554 S
H776 C747 0.961 . S
H777 C749 0.930 . S
H778 C757 0.929 . S
H779 C759 0.949 . S
Cd780 N783 2.334 1_655 S
Cd780 N809 2.304 . S
Cd780 O816 2.268 1_554 S
Cd780 O819 2.273 1_655 S
Cd780 O820 2.417 . S
Cd780 O821 2.330 . S
Cd781 N796 2.304 1_455 S
Cd781 N800 2.334 . S
Cd781 O817 2.273 1_455 S
Cd781 O818 2.268 1_556 S
Cd781 O822 2.417 . S
Cd781 O823 2.330 . S
C782 N783 1.332 . S
C782 C786 1.381 . S
C782 H788 0.931 . S
N783 Cd780 2.334 1_455 S
N783 C782 1.332 . S
N783 C787 1.328 . S
C784 C785 1.396 . S
C784 C787 1.378 . S
C784 H826 0.931 1_554 S
C785 C784 1.396 . S
C785 C786 1.382 . S
C786 C782 1.381 . S
C786 C785 1.382 . S
C786 H827 0.930 . S
C787 N783 1.328 . S
C787 C784 1.378 . S
C787 H789 0.930 1_454 S
H788 C782 0.931 . S
H789 C787 0.930 1_656 S
C790 O816 1.238 . S
C790 O817 1.253 . S
C791 C792 1.379 . S
C791 N796 1.337 . S
C791 H797 0.929 . S
C792 C791 1.379 . S
C792 C793 1.380 . S
C792 H828 0.929 . S
C793 C792 1.380 . S
C793 C794 1.399 . S
C794 C793 1.399 . S
C794 C795 1.376 . S
C794 H829 0.931 1_556 S
C795 C794 1.376 . S
C795 N796 1.338 . S
C795 H798 0.930 1_656 S
N796 Cd781 2.304 1_655 S
N796 C791 1.337 . S
N796 C795 1.338 . S
H797 C791 0.929 . S
H798 C795 0.930 1_454 S
C799 N800 1.332 . S
C799 C803 1.381 . S
C799 H805 0.931 . S
N800 Cd781 2.334 . S
N800 C799 1.332 . S
N800 C804 1.328 . S
C801 C802 1.396 . S
C801 C804 1.378 . S
C801 H830 0.961 . S
C802 C801 1.396 . S
C802 C803 1.382 . S
C803 C799 1.381 . S
C803 C802 1.382 . S
C803 H831 0.930 . S
C804 N800 1.328 . S
C804 C801 1.378 . S
C804 H806 0.930 1_556 S
H805 C799 0.931 . S
H806 C804 0.930 1_554 S
C807 O818 1.238 . S
C807 O819 1.253 . S
C808 O820 1.239 . S
C808 O821 1.230 . S
N809 Cd780 2.304 . S
N809 C810 1.337 . S
N809 C814 1.338 . S
C810 N809 1.337 . S
C810 C811 1.379 . S
C810 H824 0.929 . S
C811 C810 1.379 . S
C811 C812 1.380 . S
C811 H832 0.929 . S
C812 C811 1.380 . S
C812 C813 1.399 . S
C813 C812 1.399 . S
C813 C814 1.376 . S
C813 H833 0.949 . S
C814 N809 1.338 . S
C814 C813 1.376 . S
C814 H825 0.930 1_554 S
C815 O822 1.239 . S
C815 O823 1.230 . S
O816 Cd780 2.268 1_556 S
O816 C790 1.238 . S
O817 Cd781 2.273 1_655 S
O817 C790 1.253 . S
O818 Cd781 2.268 1_554 S
O818 C807 1.238 . S
O819 Cd780 2.273 1_455 S
O819 C807 1.253 . S
O820 Cd780 2.417 . S
O820 C808 1.239 . S
O821 Cd780 2.330 . S
O821 C808 1.230 . S
O822 Cd781 2.417 . S
O822 C815 1.239 . S
O823 Cd781 2.330 . S
O823 C815 1.230 . S
H824 C810 0.929 . S
H825 C814 0.930 1_556 S
H826 C784 0.931 1_556 S
H827 C786 0.930 . S
H828 C792 0.929 . S
H829 C794 0.931 1_554 S
H830 C801 0.961 . S
H831 C803 0.930 . S
H832 C811 0.929 . S
H833 C813 0.949 . S
Cd834 N837 2.334 . S
Cd834 N863 2.304 . S
Cd834 O870 2.268 1_554 S
Cd834 O873 2.273 . S
Cd834 O874 2.417 . S
Cd834 O875 2.330 . S
Cd835 N850 2.304 . S
Cd835 N854 2.334 . S
Cd835 O871 2.273 . S
Cd835 O872 2.268 1_556 S
Cd835 O876 2.417 . S
Cd835 O877 2.330 . S
C836 N837 1.332 . S
C836 C840 1.381 . S
C836 H842 0.931 . S
N837 Cd834 2.334 . S
N837 C836 1.332 . S
N837 C841 1.328 . S
C838 C839 1.396 . S
C838 C841 1.378 . S
C838 H880 0.931 1_554 S
C839 C838 1.396 . S
C839 C840 1.382 . S
C840 C836 1.381 . S
C840 C839 1.382 . S
C840 H881 0.930 . S
C841 N837 1.328 . S
C841 C838 1.378 . S
C841 H843 0.930 1_554 S
H842 C836 0.931 . S
H843 C841 0.930 1_556 S
C844 O870 1.238 . S
C844 O871 1.253 . S
C845 C846 1.379 . S
C845 N850 1.337 . S
C845 H851 0.929 . S
C846 C845 1.379 . S
C846 C847 1.380 . S
C846 H882 0.929 . S
C847 C846 1.380 . S
C847 C848 1.399 . S
C848 C847 1.399 . S
C848 C849 1.376 . S
C848 H883 0.931 1_556 S
C849 C848 1.376 . S
C849 N850 1.338 . S
C849 H852 0.930 1_556 S
N850 Cd835 2.304 . S
N850 C845 1.337 . S
N850 C849 1.338 . S
H851 C845 0.929 . S
H852 C849 0.930 1_554 S
C853 N854 1.332 . S
C853 C857 1.381 . S
C853 H859 0.931 . S
N854 Cd835 2.334 . S
N854 C853 1.332 . S
N854 C858 1.328 . S
C855 C856 1.396 . S
C855 C858 1.378 . S
C855 H884 0.961 . S
C856 C855 1.396 . S
C856 C857 1.382 . S
C857 C853 1.381 . S
C857 C856 1.382 . S
C857 H885 0.930 . S
C858 N854 1.328 . S
C858 C855 1.378 . S
C858 H860 0.930 1_556 S
H859 C853 0.931 . S
H860 C858 0.930 1_554 S
C861 O872 1.238 . S
C861 O873 1.253 . S
C862 O874 1.239 . S
C862 O875 1.230 . S
N863 Cd834 2.304 . S
N863 C864 1.337 . S
N863 C868 1.338 . S
C864 N863 1.337 . S
C864 C865 1.379 . S
C864 H878 0.929 . S
C865 C864 1.379 . S
C865 C866 1.380 . S
C865 H886 0.929 . S
C866 C865 1.380 . S
C866 C867 1.399 . S
C867 C866 1.399 . S
C867 C868 1.376 . S
C867 H887 0.950 . S
C868 N863 1.338 . S
C868 C867 1.376 . S
C868 H879 0.930 1_554 S
C869 O876 1.239 . S
C869 O877 1.230 . S
O870 Cd834 2.268 1_556 S
O870 C844 1.238 . S
O871 Cd835 2.273 . S
O871 C844 1.253 . S
O872 Cd835 2.268 1_554 S
O872 C861 1.238 . S
O873 Cd834 2.273 . S
O873 C861 1.253 . S
O874 Cd834 2.417 . S
O874 C862 1.239 . S
O875 Cd834 2.330 . S
O875 C862 1.230 . S
O876 Cd835 2.417 . S
O876 C869 1.239 . S
O877 Cd835 2.330 . S
O877 C869 1.230 . S
H878 C864 0.929 . S
H879 C868 0.930 1_556 S
H880 C838 0.931 1_556 S
H881 C840 0.930 . S
H882 C846 0.929 . S
H883 C848 0.931 1_554 S
H884 C855 0.961 . S
H885 C857 0.930 . S
H886 C865 0.929 . S
H887 C867 0.950 . S
Cd888 N891 2.334 1_655 S
Cd888 N917 2.304 . S
Cd888 O924 2.268 . S
Cd888 O927 2.273 1_655 S
Cd888 O928 2.417 . S
Cd888 O929 2.330 . S
Cd889 N904 2.304 1_455 S
Cd889 N908 2.334 . S
Cd889 O925 2.273 1_455 S
Cd889 O926 2.268 . S
Cd889 O930 2.417 . S
Cd889 O931 2.330 . S
C890 N891 1.332 . S
C890 C894 1.381 . S
C890 H896 0.931 . S
N891 Cd888 2.334 1_455 S
N891 C890 1.332 . S
N891 C895 1.328 . S
C892 C893 1.396 . S
C892 C895 1.378 . S
C892 H934 0.931 . S
C893 C892 1.396 . S
C893 C894 1.382 . S
C894 C890 1.381 . S
C894 C893 1.382 . S
C894 H935 0.930 . S
C895 N891 1.328 . S
C895 C892 1.378 . S
C895 H897 0.930 1_455 S
H896 C890 0.931 . S
H897 C895 0.930 1_655 S
C898 O924 1.238 . S
C898 O925 1.253 . S
C899 C900 1.379 . S
C899 N904 1.337 . S
C899 H905 0.929 . S
C900 C899 1.379 . S
C900 C901 1.380 . S
C900 H936 0.929 . S
C901 C900 1.380 . S
C901 C902 1.399 . S
C902 C901 1.399 . S
C902 C903 1.376 . S
C902 H937 0.931 . S
C903 C902 1.376 . S
C903 N904 1.338 . S
C903 H906 0.930 1_655 S
N904 Cd889 2.304 1_655 S
N904 C899 1.337 . S
N904 C903 1.338 . S
H905 C899 0.929 . S
H906 C903 0.930 1_455 S
C907 N908 1.332 . S
C907 C911 1.381 . S
C907 H913 0.931 . S
N908 Cd889 2.334 . S
N908 C907 1.332 . S
N908 C912 1.328 . S
C909 C910 1.396 . S
C909 C912 1.378 . S
C909 H938 0.931 . S
C910 C909 1.396 . S
C910 C911 1.382 . S
C911 C907 1.381 . S
C911 C910 1.382 . S
C911 H939 0.930 . S
C912 N908 1.328 . S
C912 C909 1.378 . S
C912 H914 0.930 . S
H913 C907 0.931 . S
H914 C912 0.930 . S
C915 O926 1.238 . S
C915 O927 1.253 . S
C916 O928 1.239 . S
C916 O929 1.230 . S
N917 Cd888 2.304 . S
N917 C918 1.337 . S
N917 C922 1.338 . S
C918 N917 1.337 . S
C918 C919 1.379 . S
C918 H932 0.929 . S
C919 C918 1.379 . S
C919 C920 1.380 . S
C919 H940 0.929 . S
C920 C919 1.380 . S
C920 C921 1.399 . S
C921 C920 1.399 . S
C921 C922 1.376 . S
C921 H941 0.931 . S
C922 N917 1.338 . S
C922 C921 1.376 . S
C922 H933 0.930 . S
C923 O930 1.239 . S
C923 O931 1.230 . S
O924 Cd888 2.268 . S
O924 C898 1.238 . S
O925 Cd889 2.273 1_655 S
O925 C898 1.253 . S
O926 Cd889 2.268 . S
O926 C915 1.238 . S
O927 Cd888 2.273 1_455 S
O927 C915 1.253 . S
O928 Cd888 2.417 . S
O928 C916 1.239 . S
O929 Cd888 2.330 . S
O929 C916 1.230 . S
O930 Cd889 2.417 . S
O930 C923 1.239 . S
O931 Cd889 2.330 . S
O931 C923 1.230 . S
H932 C918 0.929 . S
H933 C922 0.930 . S
H934 C892 0.931 . S
H935 C894 0.930 . S
H936 C900 0.929 . S
H937 C902 0.931 . S
H938 C909 0.931 . S
H939 C911 0.930 . S
H940 C919 0.929 . S
H941 C921 0.931 . S
Cd942 N945 2.334 . S
Cd942 N971 2.304 1_565 S
Cd942 O978 2.268 . S
Cd942 O981 2.273 1_565 S
Cd942 O982 2.417 . S
Cd942 O983 2.330 . S
Cd943 N958 2.304 . S
Cd943 N962 2.334 1_545 S
Cd943 O979 2.273 1_545 S
Cd943 O980 2.268 . S
Cd943 O984 2.417 . S
Cd943 O985 2.330 . S
C944 N945 1.332 . S
C944 C948 1.381 . S
C944 H950 0.931 . S
N945 Cd942 2.334 . S
N945 C944 1.332 . S
N945 C949 1.328 . S
C946 C947 1.396 . S
C946 C949 1.378 . S
C946 H988 0.931 . S
C947 C946 1.396 . S
C947 C948 1.382 . S
C948 C944 1.381 . S
C948 C947 1.382 . S
C948 H989 0.930 . S
C949 N945 1.328 . S
C949 C946 1.378 . S
C949 H951 0.930 . S
H950 C944 0.931 . S
H951 C949 0.930 . S
C952 O978 1.238 . S
C952 O979 1.253 . S
C953 C954 1.379 . S
C953 N958 1.337 . S
C953 H959 0.929 . S
C954 C953 1.379 . S
C954 C955 1.380 . S
C954 H990 0.929 . S
C955 C954 1.380 . S
C955 C956 1.399 . S
C956 C955 1.399 . S
C956 C957 1.376 . S
C956 H991 0.931 . S
C957 C956 1.376 . S
C957 N958 1.338 . S
C957 H960 0.930 . S
N958 Cd943 2.304 . S
N958 C953 1.337 . S
N958 C957 1.338 . S
H959 C953 0.929 . S
H960 C957 0.930 . S
C961 N962 1.332 . S
C961 C965 1.381 . S
C961 H967 0.931 . S
N962 Cd943 2.334 1_565 S
N962 C961 1.332 . S
N962 C966 1.328 . S
C963 C964 1.396 . S
C963 C966 1.378 . S
C963 H992 0.931 . S
C964 C963 1.396 . S
C964 C965 1.382 . S
C965 C961 1.381 . S
C965 C964 1.382 . S
C965 H993 0.930 . S
C966 N962 1.328 . S
C966 C963 1.378 . S
C966 H968 0.930 1_565 S
H967 C961 0.931 . S
H968 C966 0.930 1_545 S
C969 O980 1.238 . S
C969 O981 1.253 . S
C970 O982 1.239 . S
C970 O983 1.230 . S
N971 Cd942 2.304 1_545 S
N971 C972 1.337 . S
N971 C976 1.338 . S
C972 N971 1.337 . S
C972 C973 1.379 . S
C972 H986 0.929 . S
C973 C972 1.379 . S
C973 C974 1.380 . S
C973 H994 0.929 . S
C974 C973 1.380 . S
C974 C975 1.399 . S
C975 C974 1.399 . S
C975 C976 1.376 . S
C975 H995 0.931 . S
C976 N971 1.338 . S
C976 C975 1.376 . S
C976 H987 0.930 1_545 S
C977 O984 1.239 . S
C977 O985 1.230 . S
O978 Cd942 2.268 . S
O978 C952 1.238 . S
O979 Cd943 2.273 1_565 S
O979 C952 1.253 . S
O980 Cd943 2.268 . S
O980 C969 1.238 . S
O981 Cd942 2.273 1_545 S
O981 C969 1.253 . S
O982 Cd942 2.417 . S
O982 C970 1.239 . S
O983 Cd942 2.330 . S
O983 C970 1.230 . S
O984 Cd943 2.417 . S
O984 C977 1.239 . S
O985 Cd943 2.330 . S
O985 C977 1.230 . S
H986 C972 0.929 . S
H987 C976 0.930 1_565 S
H988 C946 0.931 . S
H989 C948 0.930 . S
H990 C954 0.929 . S
H991 C956 0.931 . S
H992 C963 0.931 . S
H993 C965 0.930 . S
H994 C973 0.929 . S
H995 C975 0.931 . S
H996 C1014 0.951 . S
H997 C1016 0.951 . S
H998 C1018 0.950 . S
H999 C1019 0.950 . S
H1000 C1021 0.950 . S
H1001 C1024 0.950 . S
H1002 C1025 0.950 . S
H1003 C1027 0.950 . S
H1004 C1028 0.950 . S
H1005 C1029 0.951 . S
H1006 C1031 0.951 . S
H1007 C1033 0.950 . S
H1008 C1034 0.950 . S
H1009 C1036 0.950 . S
H1010 C1039 0.950 . S
H1011 C1040 0.950 . S
H1012 C1042 0.950 . S
H1013 C1043 0.950 . S
C1014 H996 0.951 . S
C1014 C1015 1.366 . S
C1014 C1016 1.388 . S
C1015 C1014 1.366 . S
C1015 C1019 1.385 . S
C1016 H997 0.951 . S
C1016 C1014 1.388 . S
C1016 C1017 1.366 . S
C1017 C1016 1.366 . S
C1017 C1018 1.414 . S
C1017 C1020 1.499 . S
C1018 H998 0.950 . S
C1018 C1017 1.414 . S
C1018 C1019 1.374 . S
C1019 H999 0.950 . S
C1019 C1015 1.385 . S
C1019 C1018 1.374 . S
C1020 C1017 1.499 . S
C1020 C1021 1.373 . S
C1020 C1022 1.389 . S
C1021 H1000 0.950 . S
C1021 C1020 1.373 . S
C1021 C1037 1.377 . S
C1022 C1020 1.389 . S
C1022 C1023 1.524 . S
C1022 C1036 1.377 . S
C1023 C1022 1.524 . S
C1023 C1024 1.397 . S
C1023 C1028 1.363 . S
C1024 H1001 0.950 . S
C1024 C1023 1.397 . S
C1024 C1025 1.334 . S
C1025 H1002 0.950 . S
C1025 C1024 1.334 . S
C1025 C1026 1.287 . S
C1026 C1025 1.287 . S
C1026 C1027 1.524 . S
C1026 H1045 0.913 . S
C1027 H1003 0.950 . S
C1027 C1026 1.524 . S
C1027 C1028 1.415 . S
C1028 H1004 0.950 . S
C1028 C1023 1.363 . S
C1028 C1027 1.415 . S
C1029 H1005 0.951 . S
C1029 C1030 1.366 . S
C1029 C1031 1.388 . S
C1030 C1029 1.366 . S
C1030 C1034 1.385 . S
C1031 H1006 0.951 . S
C1031 C1029 1.388 . S
C1031 C1032 1.366 . S
C1032 C1031 1.366 . S
C1032 C1033 1.414 . S
C1032 C1035 1.499 . S
C1033 H1007 0.950 . S
C1033 C1032 1.414 . S
C1033 C1034 1.374 . S
C1034 H1008 0.950 . S
C1034 C1030 1.385 . S
C1034 C1033 1.374 . S
C1035 C1032 1.499 . S
C1035 C1036 1.373 . S
C1035 C1037 1.389 . S
C1036 H1009 0.950 . S
C1036 C1022 1.377 . S
C1036 C1035 1.373 . S
C1037 C1021 1.377 . S
C1037 C1035 1.389 . S
C1037 C1038 1.524 . S
C1038 C1037 1.524 . S
C1038 C1039 1.397 . S
C1038 C1043 1.363 . S
C1039 H1010 0.950 . S
C1039 C1038 1.397 . S
C1039 C1040 1.334 . S
C1040 H1011 0.950 . S
C1040 C1039 1.334 . S
C1040 C1041 1.287 . S
C1041 C1040 1.287 . S
C1041 C1042 1.524 . S
C1041 H1044 0.999 . S
C1042 H1012 0.950 . S
C1042 C1041 1.524 . S
C1042 C1043 1.415 . S
C1043 H1013 0.950 . S
C1043 C1038 1.363 . S
C1043 C1042 1.415 . S
H1044 C1041 0.999 . S
H1045 C1026 0.913 . S
H1046 C1064 0.951 . S
H1047 C1066 0.951 . S
H1048 C1068 0.950 . S
H1049 C1069 0.950 . S
H1050 C1071 0.950 . S
H1051 C1074 0.950 . S
H1052 C1075 0.950 . S
H1053 C1077 0.950 . S
H1054 C1078 0.950 . S
H1055 C1079 0.951 . S
H1056 C1081 0.951 . S
H1057 C1083 0.950 . S
H1058 C1084 0.950 . S
H1059 C1086 0.950 . S
H1060 C1089 0.950 . S
H1061 C1090 0.950 . S
H1062 C1092 0.950 . S
H1063 C1093 0.950 . S
C1064 H1046 0.951 . S
C1064 C1065 1.366 . S
C1064 C1066 1.388 . S
C1065 C1064 1.366 . S
C1065 C1069 1.385 . S
C1066 H1047 0.951 . S
C1066 C1064 1.388 . S
C1066 C1067 1.366 . S
C1067 C1066 1.366 . S
C1067 C1068 1.414 . S
C1067 C1070 1.499 . S
C1068 H1048 0.950 . S
C1068 C1067 1.414 . S
C1068 C1069 1.374 . S
C1069 H1049 0.950 . S
C1069 C1065 1.385 . S
C1069 C1068 1.374 . S
C1070 C1067 1.499 . S
C1070 C1071 1.373 . S
C1070 C1072 1.389 . S
C1071 H1050 0.950 . S
C1071 C1070 1.373 . S
C1071 C1087 1.377 . S
C1072 C1070 1.389 . S
C1072 C1073 1.524 . S
C1072 C1086 1.377 . S
C1073 C1072 1.524 . S
C1073 C1074 1.397 . S
C1073 C1078 1.363 . S
C1074 H1051 0.950 . S
C1074 C1073 1.397 . S
C1074 C1075 1.334 . S
C1075 H1052 0.950 . S
C1075 C1074 1.334 . S
C1075 C1076 1.287 . S
C1076 C1075 1.287 . S
C1076 C1077 1.524 . S
C1076 H1095 0.913 . S
C1077 H1053 0.950 . S
C1077 C1076 1.524 . S
C1077 C1078 1.415 . S
C1078 H1054 0.950 . S
C1078 C1073 1.363 . S
C1078 C1077 1.415 . S
C1079 H1055 0.951 . S
C1079 C1080 1.366 . S
C1079 C1081 1.388 . S
C1080 C1079 1.366 . S
C1080 C1084 1.385 . S
C1081 H1056 0.951 . S
C1081 C1079 1.388 . S
C1081 C1082 1.366 . S
C1082 C1081 1.366 . S
C1082 C1083 1.414 . S
C1082 C1085 1.499 . S
C1083 H1057 0.950 . S
C1083 C1082 1.414 . S
C1083 C1084 1.374 . S
C1084 H1058 0.950 . S
C1084 C1080 1.385 . S
C1084 C1083 1.374 . S
C1085 C1082 1.499 . S
C1085 C1086 1.373 . S
C1085 C1087 1.389 . S
C1086 H1059 0.950 . S
C1086 C1072 1.377 . S
C1086 C1085 1.373 . S
C1087 C1071 1.377 . S
C1087 C1085 1.389 . S
C1087 C1088 1.524 . S
C1088 C1087 1.524 . S
C1088 C1089 1.397 . S
C1088 C1093 1.363 . S
C1089 H1060 0.950 . S
C1089 C1088 1.397 . S
C1089 C1090 1.334 . S
C1090 H1061 0.950 . S
C1090 C1089 1.334 . S
C1090 C1091 1.287 . S
C1091 C1090 1.287 . S
C1091 C1092 1.524 . S
C1091 H1094 0.999 . S
C1092 H1062 0.950 . S
C1092 C1091 1.524 . S
C1092 C1093 1.415 . S
C1093 H1063 0.950 . S
C1093 C1088 1.363 . S
C1093 C1092 1.415 . S
H1094 C1091 0.999 . S
H1095 C1076 0.913 . S
H1096 C1114 0.951 . S
H1097 C1116 0.951 . S
H1098 C1118 0.950 . S
H1099 C1119 0.950 . S
H1100 C1121 0.950 . S
H1101 C1124 0.950 . S
H1102 C1125 0.950 . S
H1103 C1127 0.950 . S
H1104 C1128 0.950 . S
H1105 C1129 0.951 . S
H1106 C1131 0.951 . S
H1107 C1133 0.950 . S
H1108 C1134 0.950 . S
H1109 C1136 0.950 . S
H1110 C1139 0.950 . S
H1111 C1140 0.950 . S
H1112 C1142 0.950 . S
H1113 C1143 0.950 . S
C1114 H1096 0.951 . S
C1114 C1115 1.366 . S
C1114 C1116 1.388 . S
C1115 C1114 1.366 . S
C1115 C1119 1.385 . S
C1116 H1097 0.951 . S
C1116 C1114 1.388 . S
C1116 C1117 1.366 . S
C1117 C1116 1.366 . S
C1117 C1118 1.414 . S
C1117 C1120 1.499 . S
C1118 H1098 0.950 . S
C1118 C1117 1.414 . S
C1118 C1119 1.374 . S
C1119 H1099 0.950 . S
C1119 C1115 1.385 . S
C1119 C1118 1.374 . S
C1120 C1117 1.499 . S
C1120 C1121 1.373 . S
C1120 C1122 1.389 . S
C1121 H1100 0.950 . S
C1121 C1120 1.373 . S
C1121 C1137 1.377 . S
C1122 C1120 1.389 . S
C1122 C1123 1.524 . S
C1122 C1136 1.377 . S
C1123 C1122 1.524 . S
C1123 C1124 1.397 . S
C1123 C1128 1.363 . S
C1124 H1101 0.950 . S
C1124 C1123 1.397 . S
C1124 C1125 1.334 . S
C1125 H1102 0.950 . S
C1125 C1124 1.334 . S
C1125 C1126 1.287 . S
C1126 C1125 1.287 . S
C1126 C1127 1.524 . S
C1126 H1145 0.913 . S
C1127 H1103 0.950 . S
C1127 C1126 1.524 . S
C1127 C1128 1.415 . S
C1128 H1104 0.950 . S
C1128 C1123 1.363 . S
C1128 C1127 1.415 . S
C1129 H1105 0.951 . S
C1129 C1130 1.366 . S
C1129 C1131 1.388 . S
C1130 C1129 1.366 . S
C1130 C1134 1.385 . S
C1131 H1106 0.951 . S
C1131 C1129 1.388 . S
C1131 C1132 1.366 . S
C1132 C1131 1.366 . S
C1132 C1133 1.414 . S
C1132 C1135 1.499 . S
C1133 H1107 0.950 . S
C1133 C1132 1.414 . S
C1133 C1134 1.374 . S
C1134 H1108 0.950 . S
C1134 C1130 1.385 . S
C1134 C1133 1.374 . S
C1135 C1132 1.499 . S
C1135 C1136 1.373 . S
C1135 C1137 1.389 . S
C1136 H1109 0.950 . S
C1136 C1122 1.377 . S
C1136 C1135 1.373 . S
C1137 C1121 1.377 . S
C1137 C1135 1.389 . S
C1137 C1138 1.524 . S
C1138 C1137 1.524 . S
C1138 C1139 1.397 . S
C1138 C1143 1.363 . S
C1139 H1110 0.950 . S
C1139 C1138 1.397 . S
C1139 C1140 1.334 . S
C1140 H1111 0.950 . S
C1140 C1139 1.334 . S
C1140 C1141 1.287 . S
C1141 C1140 1.287 . S
C1141 C1142 1.524 . S
C1141 H1144 0.999 . S
C1142 H1112 0.950 . S
C1142 C1141 1.524 . S
C1142 C1143 1.415 . S
C1143 H1113 0.950 . S
C1143 C1138 1.363 . S
C1143 C1142 1.415 . S
H1144 C1141 0.999 . S
H1145 C1126 0.913 . S
H1146 C1164 0.951 . S
H1147 C1166 0.951 . S
H1148 C1168 0.950 . S
H1149 C1169 0.950 . S
H1150 C1171 0.950 . S
H1151 C1174 0.950 . S
H1152 C1175 0.950 . S
H1153 C1177 0.950 . S
H1154 C1178 0.950 . S
H1155 C1179 0.951 . S
H1156 C1181 0.951 . S
H1157 C1183 0.950 . S
H1158 C1184 0.950 . S
H1159 C1186 0.950 . S
H1160 C1189 0.950 . S
H1161 C1190 0.950 . S
H1162 C1192 0.950 . S
H1163 C1193 0.950 . S
C1164 H1146 0.951 . S
C1164 C1165 1.366 . S
C1164 C1166 1.388 . S
C1165 C1164 1.366 . S
C1165 C1169 1.385 . S
C1166 H1147 0.951 . S
C1166 C1164 1.388 . S
C1166 C1167 1.366 . S
C1167 C1166 1.366 . S
C1167 C1168 1.414 . S
C1167 C1170 1.499 . S
C1168 H1148 0.950 . S
C1168 C1167 1.414 . S
C1168 C1169 1.374 . S
C1169 H1149 0.950 . S
C1169 C1165 1.385 . S
C1169 C1168 1.374 . S
C1170 C1167 1.499 . S
C1170 C1171 1.373 . S
C1170 C1172 1.389 . S
C1171 H1150 0.950 . S
C1171 C1170 1.373 . S
C1171 C1187 1.377 . S
C1172 C1170 1.389 . S
C1172 C1173 1.524 . S
C1172 C1186 1.377 . S
C1173 C1172 1.524 . S
C1173 C1174 1.397 . S
C1173 C1178 1.363 . S
C1174 H1151 0.950 . S
C1174 C1173 1.397 . S
C1174 C1175 1.334 . S
C1175 H1152 0.950 . S
C1175 C1174 1.334 . S
C1175 C1176 1.287 . S
C1176 C1175 1.287 . S
C1176 C1177 1.524 . S
C1176 H1195 0.913 . S
C1177 H1153 0.950 . S
C1177 C1176 1.524 . S
C1177 C1178 1.415 . S
C1178 H1154 0.950 . S
C1178 C1173 1.363 . S
C1178 C1177 1.415 . S
C1179 H1155 0.951 . S
C1179 C1180 1.366 . S
C1179 C1181 1.388 . S
C1180 C1179 1.366 . S
C1180 C1184 1.385 . S
C1181 H1156 0.951 . S
C1181 C1179 1.388 . S
C1181 C1182 1.366 . S
C1182 C1181 1.366 . S
C1182 C1183 1.414 . S
C1182 C1185 1.499 . S
C1183 H1157 0.950 . S
C1183 C1182 1.414 . S
C1183 C1184 1.374 . S
C1184 H1158 0.950 . S
C1184 C1180 1.385 . S
C1184 C1183 1.374 . S
C1185 C1182 1.499 . S
C1185 C1186 1.373 . S
C1185 C1187 1.389 . S
C1186 H1159 0.950 . S
C1186 C1172 1.377 . S
C1186 C1185 1.373 . S
C1187 C1171 1.377 . S
C1187 C1185 1.389 . S
C1187 C1188 1.524 . S
C1188 C1187 1.524 . S
C1188 C1189 1.397 . S
C1188 C1193 1.363 . S
C1189 H1160 0.950 . S
C1189 C1188 1.397 . S
C1189 C1190 1.334 . S
C1190 H1161 0.950 . S
C1190 C1189 1.334 . S
C1190 C1191 1.287 . S
C1191 C1190 1.287 . S
C1191 C1192 1.524 . S
C1191 H1194 0.999 . S
C1192 H1162 0.950 . S
C1192 C1191 1.524 . S
C1192 C1193 1.415 . S
C1193 H1163 0.950 . S
C1193 C1188 1.363 . S
C1193 C1192 1.415 . S
H1194 C1191 0.999 . S
H1195 C1176 0.913 . S
H1196 C1214 0.951 . S
H1197 C1216 0.951 . S
H1198 C1218 0.950 . S
H1199 C1219 0.950 . S
H1200 C1221 0.950 . S
H1201 C1224 0.950 . S
H1202 C1225 0.950 . S
H1203 C1227 0.950 . S
H1204 C1228 0.950 . S
H1205 C1229 0.951 . S
H1206 C1231 0.951 . S
H1207 C1233 0.950 . S
H1208 C1234 0.950 . S
H1209 C1236 0.950 . S
H1210 C1239 0.950 . S
H1211 C1240 0.950 . S
H1212 C1242 0.967 . S
H1213 C1243 0.950 . S
C1214 H1196 0.951 . S
C1214 C1215 1.366 . S
C1214 C1216 1.388 . S
C1215 C1214 1.366 . S
C1215 C1219 1.385 . S
C1216 H1197 0.951 . S
C1216 C1214 1.388 . S
C1216 C1217 1.366 . S
C1217 C1216 1.366 . S
C1217 C1218 1.414 . S
C1217 C1220 1.499 . S
C1218 H1198 0.950 . S
C1218 C1217 1.414 . S
C1218 C1219 1.374 . S
C1219 H1199 0.950 . S
C1219 C1215 1.385 . S
C1219 C1218 1.374 . S
C1220 C1217 1.499 . S
C1220 C1221 1.373 . S
C1220 C1222 1.389 . S
C1221 H1200 0.950 . S
C1221 C1220 1.373 . S
C1221 C1237 1.377 . S
C1222 C1220 1.389 . S
C1222 C1223 1.524 . S
C1222 C1236 1.377 . S
C1223 C1222 1.524 . S
C1223 C1224 1.397 . S
C1223 C1228 1.363 . S
C1224 H1201 0.950 . S
C1224 C1223 1.397 . S
C1224 C1225 1.334 . S
C1225 H1202 0.950 . S
C1225 C1224 1.334 . S
C1225 C1226 1.287 . S
C1226 C1225 1.287 . S
C1226 C1227 1.524 . S
C1226 H1245 0.913 . S
C1227 H1203 0.950 . S
C1227 C1226 1.524 . S
C1227 C1228 1.415 . S
C1228 H1204 0.950 . S
C1228 C1223 1.363 . S
C1228 C1227 1.415 . S
C1229 H1205 0.951 . S
C1229 C1230 1.366 . S
C1229 C1231 1.388 . S
C1230 C1229 1.366 . S
C1230 C1234 1.385 . S
C1231 H1206 0.951 . S
C1231 C1229 1.388 . S
C1231 C1232 1.366 . S
C1232 C1231 1.366 . S
C1232 C1233 1.414 . S
C1232 C1235 1.499 . S
C1233 H1207 0.950 . S
C1233 C1232 1.414 . S
C1233 C1234 1.374 . S
C1234 H1208 0.950 . S
C1234 C1230 1.385 . S
C1234 C1233 1.374 . S
C1235 C1232 1.499 . S
C1235 C1236 1.373 . S
C1235 C1237 1.389 . S
C1236 H1209 0.950 . S
C1236 C1222 1.377 . S
C1236 C1235 1.373 . S
C1237 C1221 1.377 . S
C1237 C1235 1.389 . S
C1237 C1238 1.524 . S
C1238 C1237 1.524 . S
C1238 C1239 1.397 . S
C1238 C1243 1.363 . S
C1239 H1210 0.950 . S
C1239 C1238 1.397 . S
C1239 C1240 1.334 . S
C1240 H1211 0.950 . S
C1240 C1239 1.334 . S
C1240 C1241 1.287 . S
C1241 C1240 1.287 . S
C1241 C1242 1.524 . S
C1241 H1244 0.999 1_455 S
C1242 H1212 0.967 . S
C1242 C1241 1.524 . S
C1242 C1243 1.415 . S
C1243 H1213 0.950 . S
C1243 C1238 1.363 . S
C1243 C1242 1.415 . S
H1244 C1241 0.999 1_655 S
H1245 C1226 0.913 . S
H1246 C1264 0.951 . S
H1247 C1266 0.951 . S
H1248 C1268 0.950 . S
H1249 C1269 0.950 . S
H1250 C1271 0.950 . S
H1251 C1274 0.950 . S
H1252 C1275 0.950 . S
H1253 C1277 0.950 . S
H1254 C1278 0.950 . S
H1255 C1279 0.951 . S
H1256 C1281 0.951 . S
H1257 C1283 0.950 . S
H1258 C1284 0.950 . S
H1259 C1286 0.950 . S
H1260 C1289 0.950 . S
H1261 C1290 0.950 . S
H1262 C1292 0.950 . S
H1263 C1293 0.950 . S
C1264 H1246 0.951 . S
C1264 C1265 1.366 . S
C1264 C1266 1.388 . S
C1265 C1264 1.366 . S
C1265 C1269 1.385 . S
C1266 H1247 0.951 . S
C1266 C1264 1.388 . S
C1266 C1267 1.366 . S
C1267 C1266 1.366 . S
C1267 C1268 1.414 . S
C1267 C1270 1.499 . S
C1268 H1248 0.950 . S
C1268 C1267 1.414 . S
C1268 C1269 1.374 . S
C1269 H1249 0.950 . S
C1269 C1265 1.385 . S
C1269 C1268 1.374 . S
C1270 C1267 1.499 . S
C1270 C1271 1.373 . S
C1270 C1272 1.389 . S
C1271 H1250 0.950 . S
C1271 C1270 1.373 . S
C1271 C1287 1.377 . S
C1272 C1270 1.389 . S
C1272 C1273 1.524 . S
C1272 C1286 1.377 . S
C1273 C1272 1.524 . S
C1273 C1274 1.397 . S
C1273 C1278 1.363 . S
C1274 H1251 0.950 . S
C1274 C1273 1.397 . S
C1274 C1275 1.334 . S
C1275 H1252 0.950 . S
C1275 C1274 1.334 . S
C1275 C1276 1.287 . S
C1276 C1275 1.287 . S
C1276 C1277 1.524 . S
C1276 H1295 0.913 . S
C1277 H1253 0.950 . S
C1277 C1276 1.524 . S
C1277 C1278 1.415 . S
C1278 H1254 0.950 . S
C1278 C1273 1.363 . S
C1278 C1277 1.415 . S
C1279 H1255 0.951 . S
C1279 C1280 1.366 . S
C1279 C1281 1.388 . S
C1280 C1279 1.366 . S
C1280 C1284 1.385 . S
C1281 H1256 0.951 . S
C1281 C1279 1.388 . S
C1281 C1282 1.366 . S
C1282 C1281 1.366 . S
C1282 C1283 1.414 . S
C1282 C1285 1.499 . S
C1283 H1257 0.950 . S
C1283 C1282 1.414 . S
C1283 C1284 1.374 . S
C1284 H1258 0.950 . S
C1284 C1280 1.385 . S
C1284 C1283 1.374 . S
C1285 C1282 1.499 . S
C1285 C1286 1.373 . S
C1285 C1287 1.389 . S
C1286 H1259 0.950 . S
C1286 C1272 1.377 . S
C1286 C1285 1.373 . S
C1287 C1271 1.377 . S
C1287 C1285 1.389 . S
C1287 C1288 1.524 . S
C1288 C1287 1.524 . S
C1288 C1289 1.397 . S
C1288 C1293 1.363 . S
C1289 H1260 0.950 . S
C1289 C1288 1.397 . S
C1289 C1290 1.334 . S
C1290 H1261 0.950 . S
C1290 C1289 1.334 . S
C1290 C1291 1.287 . S
C1291 C1290 1.287 . S
C1291 C1292 1.524 . S
C1291 H1294 0.999 . S
C1292 H1262 0.950 . S
C1292 C1291 1.524 . S
C1292 C1293 1.415 . S
C1293 H1263 0.950 . S
C1293 C1288 1.363 . S
C1293 C1292 1.415 . S
H1294 C1291 0.999 . S
H1295 C1276 0.913 . S
H1296 C1314 0.951 . S
H1297 C1316 0.951 . S
H1298 C1318 0.950 . S
H1299 C1319 0.950 . S
H1300 C1321 0.950 . S
H1301 C1324 0.950 . S
H1302 C1325 0.950 . S
H1303 C1327 0.950 . S
H1304 C1328 0.950 . S
H1305 C1329 0.951 . S
H1306 C1331 0.951 . S
H1307 C1333 0.950 . S
H1308 C1334 0.950 . S
H1309 C1336 0.950 . S
H1310 C1339 0.950 . S
H1311 C1340 0.950 1_565 S
H1312 C1342 0.950 . S
H1313 C1343 0.950 . S
C1314 H1296 0.951 . S
C1314 C1315 1.366 . S
C1314 C1316 1.388 . S
C1315 C1314 1.366 . S
C1315 C1319 1.385 . S
C1316 H1297 0.951 . S
C1316 C1314 1.388 . S
C1316 C1317 1.366 . S
C1317 C1316 1.366 . S
C1317 C1318 1.414 . S
C1317 C1320 1.499 . S
C1318 H1298 0.950 . S
C1318 C1317 1.414 . S
C1318 C1319 1.374 . S
C1319 H1299 0.950 . S
C1319 C1315 1.385 . S
C1319 C1318 1.374 . S
C1320 C1317 1.499 . S
C1320 C1321 1.373 . S
C1320 C1322 1.389 . S
C1321 H1300 0.950 . S
C1321 C1320 1.373 . S
C1321 C1337 1.377 . S
C1322 C1320 1.389 . S
C1322 C1323 1.524 . S
C1322 C1336 1.377 . S
C1323 C1322 1.524 . S
C1323 C1324 1.397 . S
C1323 C1328 1.363 . S
C1324 H1301 0.950 . S
C1324 C1323 1.397 . S
C1324 C1325 1.334 . S
C1325 H1302 0.950 . S
C1325 C1324 1.334 . S
C1325 C1326 1.287 . S
C1326 C1325 1.287 . S
C1326 C1327 1.524 . S
C1326 H1345 0.913 . S
C1327 H1303 0.950 . S
C1327 C1326 1.524 . S
C1327 C1328 1.415 . S
C1328 H1304 0.950 . S
C1328 C1323 1.363 . S
C1328 C1327 1.415 . S
C1329 H1305 0.951 . S
C1329 C1330 1.366 . S
C1329 C1331 1.388 . S
C1330 C1329 1.366 . S
C1330 C1334 1.385 . S
C1331 H1306 0.951 . S
C1331 C1329 1.388 . S
C1331 C1332 1.366 . S
C1332 C1331 1.366 . S
C1332 C1333 1.414 . S
C1332 C1335 1.499 . S
C1333 H1307 0.950 . S
C1333 C1332 1.414 . S
C1333 C1334 1.374 . S
C1334 H1308 0.950 . S
C1334 C1330 1.385 . S
C1334 C1333 1.374 . S
C1335 C1332 1.499 . S
C1335 C1336 1.373 . S
C1335 C1337 1.389 . S
C1336 H1309 0.950 . S
C1336 C1322 1.377 . S
C1336 C1335 1.373 . S
C1337 C1321 1.377 . S
C1337 C1335 1.389 . S
C1337 C1338 1.524 . S
C1338 C1337 1.524 . S
C1338 C1339 1.397 . S
C1338 C1343 1.363 . S
C1339 H1310 0.950 . S
C1339 C1338 1.397 . S
C1339 C1340 1.334 . S
C1340 H1311 0.950 1_545 S
C1340 C1339 1.334 . S
C1340 C1341 1.287 . S
C1341 C1340 1.287 . S
C1341 C1342 1.524 . S
C1341 H1344 0.999 1_545 S
C1342 H1312 0.950 . S
C1342 C1341 1.524 . S
C1342 C1343 1.415 . S
C1343 H1313 0.950 . S
C1343 C1338 1.363 . S
C1343 C1342 1.415 . S
H1344 C1341 0.999 1_565 S
H1345 C1326 0.913 . S
H1346 C1364 0.951 . S
H1347 C1366 0.951 . S
H1348 C1368 0.950 . S
H1349 C1369 0.950 . S
H1350 C1371 0.950 . S
H1351 C1374 0.950 . S
H1352 C1375 0.950 . S
H1353 C1377 0.950 . S
H1354 C1378 0.950 . S
H1355 C1379 0.951 . S
H1356 C1381 0.951 . S
H1357 C1383 0.950 . S
H1358 C1384 0.950 . S
H1359 C1386 0.950 . S
H1360 C1389 0.950 . S
H1361 C1390 0.950 . S
H1362 C1392 0.950 . S
H1363 C1393 0.950 . S
C1364 H1346 0.951 . S
C1364 C1365 1.366 . S
C1364 C1366 1.388 . S
C1365 C1364 1.366 . S
C1365 C1369 1.385 . S
C1366 H1347 0.951 . S
C1366 C1364 1.388 . S
C1366 C1367 1.366 . S
C1367 C1366 1.366 . S
C1367 C1368 1.414 . S
C1367 C1370 1.499 . S
C1368 H1348 0.950 . S
C1368 C1367 1.414 . S
C1368 C1369 1.374 . S
C1369 H1349 0.950 . S
C1369 C1365 1.385 . S
C1369 C1368 1.374 . S
C1370 C1367 1.499 . S
C1370 C1371 1.373 . S
C1370 C1372 1.389 . S
C1371 H1350 0.950 . S
C1371 C1370 1.373 . S
C1371 C1387 1.377 . S
C1372 C1370 1.389 . S
C1372 C1373 1.524 . S
C1372 C1386 1.377 . S
C1373 C1372 1.524 . S
C1373 C1374 1.397 . S
C1373 C1378 1.363 . S
C1374 H1351 0.950 . S
C1374 C1373 1.397 . S
C1374 C1375 1.334 . S
C1375 H1352 0.950 . S
C1375 C1374 1.334 . S
C1375 C1376 1.287 . S
C1376 C1375 1.287 . S
C1376 C1377 1.524 . S
C1376 H1395 0.913 . S
C1377 H1353 0.950 . S
C1377 C1376 1.524 . S
C1377 C1378 1.415 . S
C1378 H1354 0.950 . S
C1378 C1373 1.363 . S
C1378 C1377 1.415 . S
C1379 H1355 0.951 . S
C1379 C1380 1.366 . S
C1379 C1381 1.388 . S
C1380 C1379 1.366 . S
C1380 C1384 1.385 . S
C1381 H1356 0.951 . S
C1381 C1379 1.388 . S
C1381 C1382 1.366 . S
C1382 C1381 1.366 . S
C1382 C1383 1.414 . S
C1382 C1385 1.499 . S
C1383 H1357 0.950 . S
C1383 C1382 1.414 . S
C1383 C1384 1.374 . S
C1384 H1358 0.950 . S
C1384 C1380 1.385 . S
C1384 C1383 1.374 . S
C1385 C1382 1.499 . S
C1385 C1386 1.373 . S
C1385 C1387 1.389 . S
C1386 H1359 0.950 . S
C1386 C1372 1.377 . S
C1386 C1385 1.373 . S
C1387 C1371 1.377 . S
C1387 C1385 1.389 . S
C1387 C1388 1.524 . S
C1388 C1387 1.524 . S
C1388 C1389 1.397 . S
C1388 C1393 1.363 . S
C1389 H1360 0.950 . S
C1389 C1388 1.397 . S
C1389 C1390 1.334 . S
C1390 H1361 0.950 . S
C1390 C1389 1.334 . S
C1390 C1391 1.287 . S
C1391 C1390 1.287 . S
C1391 C1392 1.524 . S
C1391 H1394 0.999 . S
C1392 H1362 0.950 . S
C1392 C1391 1.524 . S
C1392 C1393 1.415 . S
C1393 H1363 0.950 . S
C1393 C1388 1.363 . S
C1393 C1392 1.415 . S
H1394 C1391 0.999 . S
H1395 C1376 0.913 . S
H1396 C1414 0.951 . S
H1397 C1416 0.951 . S
H1398 C1418 0.950 . S
H1399 C1419 0.950 . S
H1400 C1421 0.950 . S
H1401 C1424 0.950 . S
H1402 C1425 0.950 . S
H1403 C1427 0.950 . S
H1404 C1428 0.950 . S
H1405 C1429 0.951 . S
H1406 C1431 0.951 . S
H1407 C1433 0.950 . S
H1408 C1434 0.950 . S
H1409 C1436 0.950 . S
H1410 C1439 0.950 . S
H1411 C1440 0.950 . S
H1412 C1442 0.950 . S
H1413 C1443 0.950 . S
C1414 H1396 0.951 . S
C1414 C1415 1.366 . S
C1414 C1416 1.388 . S
C1415 C1414 1.366 . S
C1415 C1419 1.385 . S
C1416 H1397 0.951 . S
C1416 C1414 1.388 . S
C1416 C1417 1.366 . S
C1417 C1416 1.366 . S
C1417 C1418 1.414 . S
C1417 C1420 1.499 . S
C1418 H1398 0.950 . S
C1418 C1417 1.414 . S
C1418 C1419 1.374 . S
C1419 H1399 0.950 . S
C1419 C1415 1.385 . S
C1419 C1418 1.374 . S
C1420 C1417 1.499 . S
C1420 C1421 1.373 . S
C1420 C1422 1.389 . S
C1421 H1400 0.950 . S
C1421 C1420 1.373 . S
C1421 C1437 1.377 . S
C1422 C1420 1.389 . S
C1422 C1423 1.524 . S
C1422 C1436 1.377 . S
C1423 C1422 1.524 . S
C1423 C1424 1.397 . S
C1423 C1428 1.363 . S
C1424 H1401 0.950 . S
C1424 C1423 1.397 . S
C1424 C1425 1.334 . S
C1425 H1402 0.950 . S
C1425 C1424 1.334 . S
C1425 C1426 1.287 . S
C1426 C1425 1.287 . S
C1426 C1427 1.524 . S
C1426 H1445 0.913 . S
C1427 H1403 0.950 . S
C1427 C1426 1.524 . S
C1427 C1428 1.415 . S
C1428 H1404 0.950 . S
C1428 C1423 1.363 . S
C1428 C1427 1.415 . S
C1429 H1405 0.951 . S
C1429 C1430 1.366 . S
C1429 C1431 1.388 . S
C1430 C1429 1.366 . S
C1430 C1434 1.385 . S
C1431 H1406 0.951 . S
C1431 C1429 1.388 . S
C1431 C1432 1.366 . S
C1432 C1431 1.366 . S
C1432 C1433 1.414 . S
C1432 C1435 1.499 . S
C1433 H1407 0.950 . S
C1433 C1432 1.414 . S
C1433 C1434 1.374 . S
C1434 H1408 0.950 . S
C1434 C1430 1.385 . S
C1434 C1433 1.374 . S
C1435 C1432 1.499 . S
C1435 C1436 1.373 . S
C1435 C1437 1.389 . S
C1436 H1409 0.950 . S
C1436 C1422 1.377 . S
C1436 C1435 1.373 . S
C1437 C1421 1.377 . S
C1437 C1435 1.389 . S
C1437 C1438 1.524 . S
C1438 C1437 1.524 . S
C1438 C1439 1.397 . S
C1438 C1443 1.363 . S
C1439 H1410 0.950 . S
C1439 C1438 1.397 . S
C1439 C1440 1.334 . S
C1440 H1411 0.950 . S
C1440 C1439 1.334 . S
C1440 C1441 1.287 . S
C1441 C1440 1.287 . S
C1441 C1442 1.524 . S
C1441 H1444 0.999 . S
C1442 H1412 0.950 . S
C1442 C1441 1.524 . S
C1442 C1443 1.415 . S
C1443 H1413 0.950 . S
C1443 C1438 1.363 . S
C1443 C1442 1.415 . S
H1444 C1441 0.999 . S
H1445 C1426 0.913 . S
H1446 C1464 0.951 . S
H1447 C1466 0.951 . S
H1448 C1468 0.950 . S
H1449 C1469 0.950 . S
H1450 C1471 0.950 . S
H1451 C1474 0.950 . S
H1452 C1475 0.950 . S
H1453 C1477 0.950 . S
H1454 C1478 0.950 . S
H1455 C1479 0.951 . S
H1456 C1481 0.951 . S
H1457 C1483 0.950 . S
H1458 C1484 0.950 . S
H1459 C1486 0.950 . S
H1460 C1489 0.950 . S
H1461 C1490 0.950 . S
H1462 C1492 0.950 . S
H1463 C1493 0.950 . S
C1464 H1446 0.951 . S
C1464 C1465 1.366 . S
C1464 C1466 1.388 . S
C1465 C1464 1.366 . S
C1465 C1469 1.385 . S
C1466 H1447 0.951 . S
C1466 C1464 1.388 . S
C1466 C1467 1.366 . S
C1467 C1466 1.366 . S
C1467 C1468 1.414 . S
C1467 C1470 1.499 . S
C1468 H1448 0.950 . S
C1468 C1467 1.414 . S
C1468 C1469 1.374 . S
C1469 H1449 0.950 . S
C1469 C1465 1.385 . S
C1469 C1468 1.374 . S
C1470 C1467 1.499 . S
C1470 C1471 1.373 . S
C1470 C1472 1.389 . S
C1471 H1450 0.950 . S
C1471 C1470 1.373 . S
C1471 C1487 1.377 . S
C1472 C1470 1.389 . S
C1472 C1473 1.524 . S
C1472 C1486 1.377 . S
C1473 C1472 1.524 . S
C1473 C1474 1.397 . S
C1473 C1478 1.363 . S
C1474 H1451 0.950 . S
C1474 C1473 1.397 . S
C1474 C1475 1.334 . S
C1475 H1452 0.950 . S
C1475 C1474 1.334 . S
C1475 C1476 1.287 . S
C1476 C1475 1.287 . S
C1476 C1477 1.524 . S
C1476 H1495 0.913 . S
C1477 H1453 0.950 . S
C1477 C1476 1.524 . S
C1477 C1478 1.415 . S
C1478 H1454 0.950 . S
C1478 C1473 1.363 . S
C1478 C1477 1.415 . S
C1479 H1455 0.951 . S
C1479 C1480 1.366 . S
C1479 C1481 1.388 . S
C1480 C1479 1.366 . S
C1480 C1484 1.385 . S
C1481 H1456 0.951 . S
C1481 C1479 1.388 . S
C1481 C1482 1.366 . S
C1482 C1481 1.366 . S
C1482 C1483 1.414 . S
C1482 C1485 1.499 . S
C1483 H1457 0.950 . S
C1483 C1482 1.414 . S
C1483 C1484 1.374 . S
C1484 H1458 0.950 . S
C1484 C1480 1.385 . S
C1484 C1483 1.374 . S
C1485 C1482 1.499 . S
C1485 C1486 1.373 . S
C1485 C1487 1.389 . S
C1486 H1459 0.950 . S
C1486 C1472 1.377 . S
C1486 C1485 1.373 . S
C1487 C1471 1.377 . S
C1487 C1485 1.389 . S
C1487 C1488 1.524 . S
C1488 C1487 1.524 . S
C1488 C1489 1.397 . S
C1488 C1493 1.363 . S
C1489 H1460 0.950 . S
C1489 C1488 1.397 . S
C1489 C1490 1.334 . S
C1490 H1461 0.950 . S
C1490 C1489 1.334 . S
C1490 C1491 1.287 . S
C1491 C1490 1.287 . S
C1491 C1492 1.524 . S
C1491 H1494 0.999 . S
C1492 H1462 0.950 . S
C1492 C1491 1.524 . S
C1492 C1493 1.415 . S
C1493 H1463 0.950 . S
C1493 C1488 1.363 . S
C1493 C1492 1.415 . S
H1494 C1491 0.999 . S
H1495 C1476 0.913 . S
H1496 C1514 0.951 . S
H1497 C1516 0.951 . S
H1498 C1518 0.950 . S
H1499 C1519 0.950 . S
H1500 C1521 0.950 . S
H1501 C1524 0.950 . S
H1502 C1525 0.950 . S
H1503 C1527 0.950 . S
H1504 C1528 0.950 . S
H1505 C1529 0.951 . S
H1506 C1531 0.951 . S
H1507 C1533 0.950 . S
H1508 C1534 0.950 . S
H1509 C1536 0.950 . S
H1510 C1539 0.950 . S
H1511 C1540 0.950 . S
H1512 C1542 0.950 . S
H1513 C1543 0.950 . S
C1514 H1496 0.951 . S
C1514 C1515 1.366 . S
C1514 C1516 1.388 . S
C1515 C1514 1.366 . S
C1515 C1519 1.385 . S
C1516 H1497 0.951 . S
C1516 C1514 1.388 . S
C1516 C1517 1.366 . S
C1517 C1516 1.366 . S
C1517 C1518 1.414 . S
C1517 C1520 1.499 . S
C1518 H1498 0.950 . S
C1518 C1517 1.414 . S
C1518 C1519 1.374 . S
C1519 H1499 0.950 . S
C1519 C1515 1.385 . S
C1519 C1518 1.374 . S
C1520 C1517 1.499 . S
C1520 C1521 1.373 . S
C1520 C1522 1.389 . S
C1521 H1500 0.950 . S
C1521 C1520 1.373 . S
C1521 C1537 1.377 . S
C1522 C1520 1.389 . S
C1522 C1523 1.524 . S
C1522 C1536 1.377 . S
C1523 C1522 1.524 . S
C1523 C1524 1.397 . S
C1523 C1528 1.363 . S
C1524 H1501 0.950 . S
C1524 C1523 1.397 . S
C1524 C1525 1.334 . S
C1525 H1502 0.950 . S
C1525 C1524 1.334 . S
C1525 C1526 1.287 . S
C1526 C1525 1.287 . S
C1526 C1527 1.524 . S
C1526 H1545 0.913 . S
C1527 H1503 0.950 . S
C1527 C1526 1.524 . S
C1527 C1528 1.415 . S
C1528 H1504 0.950 . S
C1528 C1523 1.363 . S
C1528 C1527 1.415 . S
C1529 H1505 0.951 . S
C1529 C1530 1.366 . S
C1529 C1531 1.388 . S
C1530 C1529 1.366 . S
C1530 C1534 1.385 . S
C1531 H1506 0.951 . S
C1531 C1529 1.388 . S
C1531 C1532 1.366 . S
C1532 C1531 1.366 . S
C1532 C1533 1.414 . S
C1532 C1535 1.499 . S
C1533 H1507 0.950 . S
C1533 C1532 1.414 . S
C1533 C1534 1.374 . S
C1534 H1508 0.950 . S
C1534 C1530 1.385 . S
C1534 C1533 1.374 . S
C1535 C1532 1.499 . S
C1535 C1536 1.373 . S
C1535 C1537 1.389 . S
C1536 H1509 0.950 . S
C1536 C1522 1.377 . S
C1536 C1535 1.373 . S
C1537 C1521 1.377 . S
C1537 C1535 1.389 . S
C1537 C1538 1.524 . S
C1538 C1537 1.524 . S
C1538 C1539 1.397 . S
C1538 C1543 1.363 . S
C1539 H1510 0.950 . S
C1539 C1538 1.397 . S
C1539 C1540 1.334 . S
C1540 H1511 0.950 . S
C1540 C1539 1.334 . S
C1540 C1541 1.287 . S
C1541 C1540 1.287 . S
C1541 C1542 1.524 . S
C1541 H1544 0.999 . S
C1542 H1512 0.950 . S
C1542 C1541 1.524 . S
C1542 C1543 1.415 . S
C1543 H1513 0.950 . S
C1543 C1538 1.363 . S
C1543 C1542 1.415 . S
H1544 C1541 0.999 . S
H1545 C1526 0.913 . S
H1546 C1564 0.951 . S
H1547 C1566 0.951 . S
H1548 C1568 0.950 . S
H1549 C1569 0.950 . S
H1550 C1571 0.950 . S
H1551 C1574 0.950 . S
H1552 C1575 0.950 . S
H1553 C1577 0.950 . S
H1554 C1578 0.950 . S
H1555 C1579 0.951 . S
H1556 C1581 0.951 . S
H1557 C1583 0.950 . S
H1558 C1584 0.950 . S
H1559 C1586 0.950 . S
H1560 C1589 0.950 . S
H1561 C1590 0.950 . S
H1562 C1592 0.950 . S
H1563 C1593 0.950 . S
C1564 H1546 0.951 . S
C1564 C1565 1.366 . S
C1564 C1566 1.388 . S
C1565 C1564 1.366 . S
C1565 C1569 1.385 . S
C1566 H1547 0.951 . S
C1566 C1564 1.388 . S
C1566 C1567 1.366 . S
C1567 C1566 1.366 . S
C1567 C1568 1.414 . S
C1567 C1570 1.499 . S
C1568 H1548 0.950 . S
C1568 C1567 1.414 . S
C1568 C1569 1.374 . S
C1569 H1549 0.950 . S
C1569 C1565 1.385 . S
C1569 C1568 1.374 . S
C1570 C1567 1.499 . S
C1570 C1571 1.373 . S
C1570 C1572 1.389 . S
C1571 H1550 0.950 . S
C1571 C1570 1.373 . S
C1571 C1587 1.377 . S
C1572 C1570 1.389 . S
C1572 C1573 1.524 . S
C1572 C1586 1.377 . S
C1573 C1572 1.524 . S
C1573 C1574 1.397 . S
C1573 C1578 1.363 . S
C1574 H1551 0.950 . S
C1574 C1573 1.397 . S
C1574 C1575 1.334 . S
C1575 H1552 0.950 . S
C1575 C1574 1.334 . S
C1575 C1576 1.287 . S
C1576 C1575 1.287 . S
C1576 C1577 1.524 . S
C1576 H1595 0.913 . S
C1577 H1553 0.950 . S
C1577 C1576 1.524 . S
C1577 C1578 1.415 . S
C1578 H1554 0.950 . S
C1578 C1573 1.363 . S
C1578 C1577 1.415 . S
C1579 H1555 0.951 . S
C1579 C1580 1.366 . S
C1579 C1581 1.388 . S
C1580 C1579 1.366 . S
C1580 C1584 1.385 . S
C1581 H1556 0.951 . S
C1581 C1579 1.388 . S
C1581 C1582 1.366 . S
C1582 C1581 1.366 . S
C1582 C1583 1.414 . S
C1582 C1585 1.499 . S
C1583 H1557 0.950 . S
C1583 C1582 1.414 . S
C1583 C1584 1.374 . S
C1584 H1558 0.950 . S
C1584 C1580 1.385 . S
C1584 C1583 1.374 . S
C1585 C1582 1.499 . S
C1585 C1586 1.373 . S
C1585 C1587 1.389 . S
C1586 H1559 0.950 . S
C1586 C1572 1.377 . S
C1586 C1585 1.373 . S
C1587 C1571 1.377 . S
C1587 C1585 1.389 . S
C1587 C1588 1.524 . S
C1588 C1587 1.524 . S
C1588 C1589 1.397 . S
C1588 C1593 1.363 . S
C1589 H1560 0.950 . S
C1589 C1588 1.397 . S
C1589 C1590 1.334 . S
C1590 H1561 0.950 . S
C1590 C1589 1.334 . S
C1590 C1591 1.287 . S
C1591 C1590 1.287 . S
C1591 C1592 1.524 . S
C1591 H1594 0.999 . S
C1592 H1562 0.950 . S
C1592 C1591 1.524 . S
C1592 C1593 1.415 . S
C1593 H1563 0.950 . S
C1593 C1588 1.363 . S
C1593 C1592 1.415 . S
H1594 C1591 0.999 . S
H1595 C1576 0.913 . S
H1596 C1614 0.951 . S
H1597 C1616 0.951 . S
H1598 C1618 0.950 . S
H1599 C1619 0.950 . S
H1600 C1621 0.950 . S
H1601 C1624 0.950 . S
H1602 C1625 0.950 . S
H1603 C1627 0.950 . S
H1604 C1628 0.950 . S
H1605 C1629 0.951 . S
H1606 C1631 0.951 . S
H1607 C1633 0.950 . S
H1608 C1634 0.950 . S
H1609 C1636 0.950 . S
H1610 C1639 0.950 . S
H1611 C1640 0.950 . S
H1612 C1642 0.950 . S
H1613 C1643 0.950 . S
C1614 H1596 0.951 . S
C1614 C1615 1.366 . S
C1614 C1616 1.388 . S
C1615 C1614 1.366 . S
C1615 C1619 1.385 . S
C1616 H1597 0.951 . S
C1616 C1614 1.388 . S
C1616 C1617 1.366 . S
C1617 C1616 1.366 . S
C1617 C1618 1.414 . S
C1617 C1620 1.499 . S
C1618 H1598 0.950 . S
C1618 C1617 1.414 . S
C1618 C1619 1.374 . S
C1619 H1599 0.950 . S
C1619 C1615 1.385 . S
C1619 C1618 1.374 . S
C1620 C1617 1.499 . S
C1620 C1621 1.373 . S
C1620 C1622 1.389 . S
C1621 H1600 0.950 . S
C1621 C1620 1.373 . S
C1621 C1637 1.377 . S
C1622 C1620 1.389 . S
C1622 C1623 1.524 . S
C1622 C1636 1.377 . S
C1623 C1622 1.524 . S
C1623 C1624 1.397 . S
C1623 C1628 1.363 . S
C1624 H1601 0.950 . S
C1624 C1623 1.397 . S
C1624 C1625 1.334 . S
C1625 H1602 0.950 . S
C1625 C1624 1.334 . S
C1625 C1626 1.287 . S
C1626 C1625 1.287 . S
C1626 C1627 1.524 . S
C1626 H1645 0.913 . S
C1627 H1603 0.950 . S
C1627 C1626 1.524 . S
C1627 C1628 1.415 . S
C1628 H1604 0.950 . S
C1628 C1623 1.363 . S
C1628 C1627 1.415 . S
C1629 H1605 0.951 . S
C1629 C1630 1.366 . S
C1629 C1631 1.388 . S
C1630 C1629 1.366 . S
C1630 C1634 1.385 . S
C1631 H1606 0.951 . S
C1631 C1629 1.388 . S
C1631 C1632 1.366 . S
C1632 C1631 1.366 . S
C1632 C1633 1.414 . S
C1632 C1635 1.499 . S
C1633 H1607 0.950 . S
C1633 C1632 1.414 . S
C1633 C1634 1.374 . S
C1634 H1608 0.950 . S
C1634 C1630 1.385 . S
C1634 C1633 1.374 . S
C1635 C1632 1.499 . S
C1635 C1636 1.373 . S
C1635 C1637 1.389 . S
C1636 H1609 0.950 . S
C1636 C1622 1.377 . S
C1636 C1635 1.373 . S
C1637 C1621 1.377 . S
C1637 C1635 1.389 . S
C1637 C1638 1.524 . S
C1638 C1637 1.524 . S
C1638 C1639 1.397 . S
C1638 C1643 1.363 . S
C1639 H1610 0.950 . S
C1639 C1638 1.397 . S
C1639 C1640 1.334 . S
C1640 H1611 0.950 . S
C1640 C1639 1.334 . S
C1640 C1641 1.287 . S
C1641 C1640 1.287 . S
C1641 C1642 1.524 . S
C1641 H1644 0.999 . S
C1642 H1612 0.950 . S
C1642 C1641 1.524 . S
C1642 C1643 1.415 . S
C1643 H1613 0.950 . S
C1643 C1638 1.363 . S
C1643 C1642 1.415 . S
H1644 C1641 0.999 . S
H1645 C1626 0.913 . S
H1646 C1664 0.951 . S
H1647 C1666 0.951 . S
H1648 C1668 0.950 . S
H1649 C1669 0.950 . S
H1650 C1671 0.950 . S
H1651 C1674 0.950 . S
H1652 C1675 0.950 . S
H1653 C1677 0.950 . S
H1654 C1678 0.950 . S
H1655 C1679 0.951 . S
H1656 C1681 0.951 . S
H1657 C1683 0.950 . S
H1658 C1684 0.950 . S
H1659 C1686 0.950 . S
H1660 C1689 0.950 . S
H1661 C1690 0.950 . S
H1662 C1692 0.950 . S
H1663 C1693 0.950 . S
C1664 H1646 0.951 . S
C1664 C1665 1.366 . S
C1664 C1666 1.388 . S
C1665 C1664 1.366 . S
C1665 C1669 1.385 . S
C1666 H1647 0.951 . S
C1666 C1664 1.388 . S
C1666 C1667 1.366 . S
C1667 C1666 1.366 . S
C1667 C1668 1.414 . S
C1667 C1670 1.499 . S
C1668 H1648 0.950 . S
C1668 C1667 1.414 . S
C1668 C1669 1.374 . S
C1669 H1649 0.950 . S
C1669 C1665 1.385 . S
C1669 C1668 1.374 . S
C1670 C1667 1.499 . S
C1670 C1671 1.373 . S
C1670 C1672 1.389 . S
C1671 H1650 0.950 . S
C1671 C1670 1.373 . S
C1671 C1687 1.377 . S
C1672 C1670 1.389 . S
C1672 C1673 1.524 . S
C1672 C1686 1.377 . S
C1673 C1672 1.524 . S
C1673 C1674 1.397 . S
C1673 C1678 1.363 . S
C1674 H1651 0.950 . S
C1674 C1673 1.397 . S
C1674 C1675 1.334 . S
C1675 H1652 0.950 . S
C1675 C1674 1.334 . S
C1675 C1676 1.287 . S
C1676 C1675 1.287 . S
C1676 C1677 1.524 . S
C1676 H1695 0.913 . S
C1677 H1653 0.950 . S
C1677 C1676 1.524 . S
C1677 C1678 1.415 . S
C1678 H1654 0.950 . S
C1678 C1673 1.363 . S
C1678 C1677 1.415 . S
C1679 H1655 0.951 . S
C1679 C1680 1.366 . S
C1679 C1681 1.388 . S
C1680 C1679 1.366 . S
C1680 C1684 1.385 . S
C1681 H1656 0.951 . S
C1681 C1679 1.388 . S
C1681 C1682 1.366 . S
C1682 C1681 1.366 . S
C1682 C1683 1.414 . S
C1682 C1685 1.499 . S
C1683 H1657 0.950 . S
C1683 C1682 1.414 . S
C1683 C1684 1.374 . S
C1684 H1658 0.950 . S
C1684 C1680 1.385 . S
C1684 C1683 1.374 . S
C1685 C1682 1.499 . S
C1685 C1686 1.373 . S
C1685 C1687 1.389 . S
C1686 H1659 0.950 . S
C1686 C1672 1.377 . S
C1686 C1685 1.373 . S
C1687 C1671 1.377 . S
C1687 C1685 1.389 . S
C1687 C1688 1.524 . S
C1688 C1687 1.524 . S
C1688 C1689 1.397 . S
C1688 C1693 1.363 . S
C1689 H1660 0.950 . S
C1689 C1688 1.397 . S
C1689 C1690 1.334 . S
C1690 H1661 0.950 . S
C1690 C1689 1.334 . S
C1690 C1691 1.287 . S
C1691 C1690 1.287 . S
C1691 C1692 1.524 . S
C1691 H1694 0.999 . S
C1692 H1662 0.950 . S
C1692 C1691 1.524 . S
C1692 C1693 1.415 . S
C1693 H1663 0.950 . S
C1693 C1688 1.363 . S
C1693 C1692 1.415 . S
H1694 C1691 0.999 . S
H1695 C1676 0.913 . S
H1696 C1714 0.951 . S
H1697 C1716 0.951 . S
H1698 C1718 0.950 . S
H1699 C1719 0.950 . S
H1700 C1721 0.950 . S
H1701 C1724 0.950 . S
H1702 C1725 0.950 . S
H1703 C1727 0.950 . S
H1704 C1728 0.950 . S
H1705 C1729 0.951 . S
H1706 C1731 0.951 . S
H1707 C1733 0.950 . S
H1708 C1734 0.950 . S
H1709 C1736 0.950 . S
H1710 C1739 0.950 . S
H1711 C1740 0.950 . S
H1712 C1742 0.950 . S
H1713 C1743 0.950 . S
C1714 H1696 0.951 . S
C1714 C1715 1.366 . S
C1714 C1716 1.388 . S
C1715 C1714 1.366 . S
C1715 C1719 1.385 . S
C1716 H1697 0.951 . S
C1716 C1714 1.388 . S
C1716 C1717 1.366 . S
C1717 C1716 1.366 . S
C1717 C1718 1.414 . S
C1717 C1720 1.499 . S
C1718 H1698 0.950 . S
C1718 C1717 1.414 . S
C1718 C1719 1.374 . S
C1719 H1699 0.950 . S
C1719 C1715 1.385 . S
C1719 C1718 1.374 . S
C1720 C1717 1.499 . S
C1720 C1721 1.373 . S
C1720 C1722 1.389 . S
C1721 H1700 0.950 . S
C1721 C1720 1.373 . S
C1721 C1737 1.377 . S
C1722 C1720 1.389 . S
C1722 C1723 1.524 . S
C1722 C1736 1.377 . S
C1723 C1722 1.524 . S
C1723 C1724 1.397 . S
C1723 C1728 1.363 . S
C1724 H1701 0.950 . S
C1724 C1723 1.397 . S
C1724 C1725 1.334 . S
C1725 H1702 0.950 . S
C1725 C1724 1.334 . S
C1725 C1726 1.287 . S
C1726 C1725 1.287 . S
C1726 C1727 1.524 . S
C1726 H1745 0.913 . S
C1727 H1703 0.950 . S
C1727 C1726 1.524 . S
C1727 C1728 1.415 . S
C1728 H1704 0.950 . S
C1728 C1723 1.363 . S
C1728 C1727 1.415 . S
C1729 H1705 0.951 . S
C1729 C1730 1.366 . S
C1729 C1731 1.388 . S
C1730 C1729 1.366 . S
C1730 C1734 1.385 . S
C1731 H1706 0.951 . S
C1731 C1729 1.388 . S
C1731 C1732 1.366 . S
C1732 C1731 1.366 . S
C1732 C1733 1.414 . S
C1732 C1735 1.499 . S
C1733 H1707 0.950 . S
C1733 C1732 1.414 . S
C1733 C1734 1.374 . S
C1734 H1708 0.950 . S
C1734 C1730 1.385 . S
C1734 C1733 1.374 . S
C1735 C1732 1.499 . S
C1735 C1736 1.373 . S
C1735 C1737 1.389 . S
C1736 H1709 0.950 . S
C1736 C1722 1.377 . S
C1736 C1735 1.373 . S
C1737 C1721 1.377 . S
C1737 C1735 1.389 . S
C1737 C1738 1.524 . S
C1738 C1737 1.524 . S
C1738 C1739 1.397 . S
C1738 C1743 1.363 . S
C1739 H1710 0.950 . S
C1739 C1738 1.397 . S
C1739 C1740 1.334 . S
C1740 H1711 0.950 . S
C1740 C1739 1.334 . S
C1740 C1741 1.287 . S
C1741 C1740 1.287 . S
C1741 C1742 1.524 . S
C1741 H1744 0.999 . S
C1742 H1712 0.950 . S
C1742 C1741 1.524 . S
C1742 C1743 1.415 . S
C1743 H1713 0.950 . S
C1743 C1738 1.363 . S
C1743 C1742 1.415 . S
H1744 C1741 0.999 . S
H1745 C1726 0.913 . S
H1746 C1764 0.951 . S
H1747 C1766 0.951 . S
H1748 C1768 0.950 . S
H1749 C1769 0.950 . S
H1750 C1771 0.950 . S
H1751 C1774 0.950 . S
H1752 C1775 0.950 . S
H1753 C1777 0.950 . S
H1754 C1778 0.950 . S
H1755 C1779 0.951 . S
H1756 C1781 0.951 . S
H1757 C1783 0.950 . S
H1758 C1784 0.950 . S
H1759 C1786 0.950 . S
H1760 C1789 0.950 . S
H1761 C1790 0.950 . S
H1762 C1792 0.950 . S
H1763 C1793 0.950 . S
C1764 H1746 0.951 . S
C1764 C1765 1.366 . S
C1764 C1766 1.388 . S
C1765 C1764 1.366 . S
C1765 C1769 1.385 . S
C1766 H1747 0.951 . S
C1766 C1764 1.388 . S
C1766 C1767 1.366 . S
C1767 C1766 1.366 . S
C1767 C1768 1.414 . S
C1767 C1770 1.499 . S
C1768 H1748 0.950 . S
C1768 C1767 1.414 . S
C1768 C1769 1.374 . S
C1769 H1749 0.950 . S
C1769 C1765 1.385 . S
C1769 C1768 1.374 . S
C1770 C1767 1.499 . S
C1770 C1771 1.373 . S
C1770 C1772 1.389 . S
C1771 H1750 0.950 . S
C1771 C1770 1.373 . S
C1771 C1787 1.377 . S
C1772 C1770 1.389 . S
C1772 C1773 1.524 . S
C1772 C1786 1.377 . S
C1773 C1772 1.524 . S
C1773 C1774 1.397 . S
C1773 C1778 1.363 . S
C1774 H1751 0.950 . S
C1774 C1773 1.397 . S
C1774 C1775 1.334 . S
C1775 H1752 0.950 . S
C1775 C1774 1.334 . S
C1775 C1776 1.287 . S
C1776 C1775 1.287 . S
C1776 C1777 1.524 . S
C1776 H1795 0.913 . S
C1777 H1753 0.950 . S
C1777 C1776 1.524 . S
C1777 C1778 1.415 . S
C1778 H1754 0.950 . S
C1778 C1773 1.363 . S
C1778 C1777 1.415 . S
C1779 H1755 0.951 . S
C1779 C1780 1.366 . S
C1779 C1781 1.388 . S
C1780 C1779 1.366 . S
C1780 C1784 1.385 . S
C1781 H1756 0.951 . S
C1781 C1779 1.388 . S
C1781 C1782 1.366 . S
C1782 C1781 1.366 . S
C1782 C1783 1.414 . S
C1782 C1785 1.499 . S
C1783 H1757 0.950 . S
C1783 C1782 1.414 . S
C1783 C1784 1.374 . S
C1784 H1758 0.950 . S
C1784 C1780 1.385 . S
C1784 C1783 1.374 . S
C1785 C1782 1.499 . S
C1785 C1786 1.373 . S
C1785 C1787 1.389 . S
C1786 H1759 0.950 . S
C1786 C1772 1.377 . S
C1786 C1785 1.373 . S
C1787 C1771 1.377 . S
C1787 C1785 1.389 . S
C1787 C1788 1.524 . S
C1788 C1787 1.524 . S
C1788 C1789 1.397 . S
C1788 C1793 1.363 . S
C1789 H1760 0.950 . S
C1789 C1788 1.397 . S
C1789 C1790 1.334 . S
C1790 H1761 0.950 . S
C1790 C1789 1.334 . S
C1790 C1791 1.287 . S
C1791 C1790 1.287 . S
C1791 C1792 1.524 . S
C1791 H1794 0.999 . S
C1792 H1762 0.950 . S
C1792 C1791 1.524 . S
C1792 C1793 1.415 . S
C1793 H1763 0.950 . S
C1793 C1788 1.363 . S
C1793 C1792 1.415 . S
H1794 C1791 0.999 . S
H1795 C1776 0.913 . S
H1796 C1814 0.951 . S
H1797 C1816 0.951 . S
H1798 C1818 0.950 . S
H1799 C1819 0.950 . S
H1800 C1821 0.950 . S
H1801 C1824 0.950 . S
H1802 C1825 0.950 . S
H1803 C1827 0.950 . S
H1804 C1828 0.950 . S
H1805 C1829 0.951 . S
H1806 C1831 0.951 . S
H1807 C1833 0.950 . S
H1808 C1834 0.950 . S
H1809 C1836 0.950 . S
H1810 C1839 0.950 . S
H1811 C1840 0.950 . S
H1812 C1842 0.950 . S
H1813 C1843 0.950 . S
C1814 H1796 0.951 . S
C1814 C1815 1.366 . S
C1814 C1816 1.388 . S
C1815 C1814 1.366 . S
C1815 C1819 1.385 . S
C1816 H1797 0.951 . S
C1816 C1814 1.388 . S
C1816 C1817 1.366 . S
C1817 C1816 1.366 . S
C1817 C1818 1.414 . S
C1817 C1820 1.499 . S
C1818 H1798 0.950 . S
C1818 C1817 1.414 . S
C1818 C1819 1.374 . S
C1819 H1799 0.950 . S
C1819 C1815 1.385 . S
C1819 C1818 1.374 . S
C1820 C1817 1.499 . S
C1820 C1821 1.373 . S
C1820 C1822 1.389 . S
C1821 H1800 0.950 . S
C1821 C1820 1.373 . S
C1821 C1837 1.377 . S
C1822 C1820 1.389 . S
C1822 C1823 1.524 . S
C1822 C1836 1.377 . S
C1823 C1822 1.524 . S
C1823 C1824 1.397 . S
C1823 C1828 1.363 . S
C1824 H1801 0.950 . S
C1824 C1823 1.397 . S
C1824 C1825 1.334 . S
C1825 H1802 0.950 . S
C1825 C1824 1.334 . S
C1825 C1826 1.287 . S
C1826 C1825 1.287 . S
C1826 C1827 1.524 . S
C1826 H1845 0.913 . S
C1827 H1803 0.950 . S
C1827 C1826 1.524 . S
C1827 C1828 1.415 . S
C1828 H1804 0.950 . S
C1828 C1823 1.363 . S
C1828 C1827 1.415 . S
C1829 H1805 0.951 . S
C1829 C1830 1.366 . S
C1829 C1831 1.388 . S
C1830 C1829 1.366 . S
C1830 C1834 1.385 . S
C1831 H1806 0.951 . S
C1831 C1829 1.388 . S
C1831 C1832 1.366 . S
C1832 C1831 1.366 . S
C1832 C1833 1.414 . S
C1832 C1835 1.499 . S
C1833 H1807 0.950 . S
C1833 C1832 1.414 . S
C1833 C1834 1.374 . S
C1834 H1808 0.950 . S
C1834 C1830 1.385 . S
C1834 C1833 1.374 . S
C1835 C1832 1.499 . S
C1835 C1836 1.373 . S
C1835 C1837 1.389 . S
C1836 H1809 0.950 . S
C1836 C1822 1.377 . S
C1836 C1835 1.373 . S
C1837 C1821 1.377 . S
C1837 C1835 1.389 . S
C1837 C1838 1.524 . S
C1838 C1837 1.524 . S
C1838 C1839 1.397 . S
C1838 C1843 1.363 . S
C1839 H1810 0.950 . S
C1839 C1838 1.397 . S
C1839 C1840 1.334 . S
C1840 H1811 0.950 . S
C1840 C1839 1.334 . S
C1840 C1841 1.287 . S
C1841 C1840 1.287 . S
C1841 C1842 1.524 . S
C1841 H1844 0.999 . S
C1842 H1812 0.950 . S
C1842 C1841 1.524 . S
C1842 C1843 1.415 . S
C1843 H1813 0.950 . S
C1843 C1838 1.363 . S
C1843 C1842 1.415 . S
H1844 C1841 0.999 . S
H1845 C1826 0.913 . S
H1846 C1864 0.951 . S
H1847 C1866 0.951 . S
H1848 C1868 0.950 . S
H1849 C1869 0.950 . S
H1850 C1871 0.950 . S
H1851 C1874 0.950 . S
H1852 C1875 0.950 . S
H1853 C1877 0.950 . S
H1854 C1878 0.950 . S
H1855 C1879 0.951 . S
H1856 C1881 0.951 . S
H1857 C1883 0.950 . S
H1858 C1884 0.950 . S
H1859 C1886 0.950 . S
H1860 C1889 0.950 . S
H1861 C1890 0.950 . S
H1862 C1892 0.950 . S
H1863 C1893 0.950 . S
C1864 H1846 0.951 . S
C1864 C1865 1.366 . S
C1864 C1866 1.388 . S
C1865 C1864 1.366 . S
C1865 C1869 1.385 . S
C1866 H1847 0.951 . S
C1866 C1864 1.388 . S
C1866 C1867 1.366 . S
C1867 C1866 1.366 . S
C1867 C1868 1.414 . S
C1867 C1870 1.499 . S
C1868 H1848 0.950 . S
C1868 C1867 1.414 . S
C1868 C1869 1.374 . S
C1869 H1849 0.950 . S
C1869 C1865 1.385 . S
C1869 C1868 1.374 . S
C1870 C1867 1.499 . S
C1870 C1871 1.373 . S
C1870 C1872 1.389 . S
C1871 H1850 0.950 . S
C1871 C1870 1.373 . S
C1871 C1887 1.377 . S
C1872 C1870 1.389 . S
C1872 C1873 1.524 . S
C1872 C1886 1.377 . S
C1873 C1872 1.524 . S
C1873 C1874 1.397 . S
C1873 C1878 1.363 . S
C1874 H1851 0.950 . S
C1874 C1873 1.397 . S
C1874 C1875 1.334 . S
C1875 H1852 0.950 . S
C1875 C1874 1.334 . S
C1875 C1876 1.287 . S
C1876 C1875 1.287 . S
C1876 C1877 1.524 . S
C1876 H1895 0.913 . S
C1877 H1853 0.950 . S
C1877 C1876 1.524 . S
C1877 C1878 1.415 . S
C1878 H1854 0.950 . S
C1878 C1873 1.363 . S
C1878 C1877 1.415 . S
C1879 H1855 0.951 . S
C1879 C1880 1.366 . S
C1879 C1881 1.388 . S
C1880 C1879 1.366 . S
C1880 C1884 1.385 . S
C1881 H1856 0.951 . S
C1881 C1879 1.388 . S
C1881 C1882 1.366 . S
C1882 C1881 1.366 . S
C1882 C1883 1.414 . S
C1882 C1885 1.499 . S
C1883 H1857 0.950 . S
C1883 C1882 1.414 . S
C1883 C1884 1.374 . S
C1884 H1858 0.950 . S
C1884 C1880 1.385 . S
C1884 C1883 1.374 . S
C1885 C1882 1.499 . S
C1885 C1886 1.373 . S
C1885 C1887 1.389 . S
C1886 H1859 0.950 . S
C1886 C1872 1.377 . S
C1886 C1885 1.373 . S
C1887 C1871 1.377 . S
C1887 C1885 1.389 . S
C1887 C1888 1.524 . S
C1888 C1887 1.524 . S
C1888 C1889 1.397 . S
C1888 C1893 1.363 . S
C1889 H1860 0.950 . S
C1889 C1888 1.397 . S
C1889 C1890 1.334 . S
C1890 H1861 0.950 . S
C1890 C1889 1.334 . S
C1890 C1891 1.287 . S
C1891 C1890 1.287 . S
C1891 C1892 1.524 . S
C1891 H1894 0.999 . S
C1892 H1862 0.950 . S
C1892 C1891 1.524 . S
C1892 C1893 1.415 . S
C1893 H1863 0.950 . S
C1893 C1888 1.363 . S
C1893 C1892 1.415 . S
H1894 C1891 0.999 . S
H1895 C1876 0.913 . S
H1896 C1914 0.951 . S
H1897 C1916 0.951 . S
H1898 C1918 0.950 . S
H1899 C1919 0.950 . S
H1900 C1921 0.950 . S
H1901 C1924 0.950 . S
H1902 C1925 0.950 . S
H1903 C1927 0.950 . S
H1904 C1928 0.950 . S
H1905 C1929 0.951 . S
H1906 C1931 0.951 . S
H1907 C1933 0.950 . S
H1908 C1934 0.950 . S
H1909 C1936 0.950 . S
H1910 C1939 0.950 . S
H1911 C1940 0.950 1_554 S
H1912 C1942 0.950 . S
H1913 C1943 0.950 . S
C1914 H1896 0.951 . S
C1914 C1915 1.366 . S
C1914 C1916 1.388 . S
C1915 C1914 1.366 . S
C1915 C1919 1.385 . S
C1916 H1897 0.951 . S
C1916 C1914 1.388 . S
C1916 C1917 1.366 . S
C1917 C1916 1.366 . S
C1917 C1918 1.414 . S
C1917 C1920 1.499 . S
C1918 H1898 0.950 . S
C1918 C1917 1.414 . S
C1918 C1919 1.374 . S
C1919 H1899 0.950 . S
C1919 C1915 1.385 . S
C1919 C1918 1.374 . S
C1920 C1917 1.499 . S
C1920 C1921 1.373 . S
C1920 C1922 1.389 . S
C1921 H1900 0.950 . S
C1921 C1920 1.373 . S
C1921 C1937 1.377 . S
C1922 C1920 1.389 . S
C1922 C1923 1.524 . S
C1922 C1936 1.377 . S
C1923 C1922 1.524 . S
C1923 C1924 1.397 . S
C1923 C1928 1.363 . S
C1924 H1901 0.950 . S
C1924 C1923 1.397 . S
C1924 C1925 1.334 . S
C1925 H1902 0.950 . S
C1925 C1924 1.334 . S
C1925 C1926 1.287 . S
C1926 C1925 1.287 . S
C1926 C1927 1.524 . S
C1926 H1945 0.913 . S
C1927 H1903 0.950 . S
C1927 C1926 1.524 . S
C1927 C1928 1.415 . S
C1928 H1904 0.950 . S
C1928 C1923 1.363 . S
C1928 C1927 1.415 . S
C1929 H1905 0.951 . S
C1929 C1930 1.366 . S
C1929 C1931 1.388 . S
C1930 C1929 1.366 . S
C1930 C1934 1.385 . S
C1931 H1906 0.951 . S
C1931 C1929 1.388 . S
C1931 C1932 1.366 . S
C1932 C1931 1.366 . S
C1932 C1933 1.414 . S
C1932 C1935 1.499 . S
C1933 H1907 0.950 . S
C1933 C1932 1.414 . S
C1933 C1934 1.374 . S
C1934 H1908 0.950 . S
C1934 C1930 1.385 . S
C1934 C1933 1.374 . S
C1935 C1932 1.499 . S
C1935 C1936 1.373 . S
C1935 C1937 1.389 . S
C1936 H1909 0.950 . S
C1936 C1922 1.377 . S
C1936 C1935 1.373 . S
C1937 C1921 1.377 . S
C1937 C1935 1.389 . S
C1937 C1938 1.524 . S
C1938 C1937 1.524 . S
C1938 C1939 1.397 . S
C1938 C1943 1.363 . S
C1939 H1910 0.950 . S
C1939 C1938 1.397 . S
C1939 C1940 1.334 . S
C1940 H1911 0.950 1_556 S
C1940 C1939 1.334 . S
C1940 C1941 1.287 . S
C1941 C1940 1.287 . S
C1941 C1942 1.524 . S
C1941 H1944 0.997 1_556 S
C1942 H1912 0.950 . S
C1942 C1941 1.524 . S
C1942 C1943 1.415 . S
C1943 H1913 0.950 . S
C1943 C1938 1.363 . S
C1943 C1942 1.415 . S
H1944 C1941 0.997 1_554 S
H1945 C1926 0.913 . S
H1946 C1964 0.951 . S
H1947 C1966 0.951 . S
H1948 C1968 0.950 . S
H1949 C1969 0.950 . S
H1950 C1971 0.950 . S
H1951 C1974 0.950 . S
H1952 C1975 0.950 . S
H1953 C1977 0.950 . S
H1954 C1978 0.950 . S
H1955 C1979 0.951 . S
H1956 C1981 0.951 . S
H1957 C1983 0.950 . S
H1958 C1984 0.950 . S
H1959 C1986 0.950 . S
H1960 C1989 0.950 . S
H1961 C1990 0.950 . S
H1962 C1992 0.950 . S
H1963 C1993 0.950 . S
C1964 H1946 0.951 . S
C1964 C1965 1.366 . S
C1964 C1966 1.388 . S
C1965 C1964 1.366 . S
C1965 C1969 1.385 . S
C1966 H1947 0.951 . S
C1966 C1964 1.388 . S
C1966 C1967 1.366 . S
C1967 C1966 1.366 . S
C1967 C1968 1.414 . S
C1967 C1970 1.499 . S
C1968 H1948 0.950 . S
C1968 C1967 1.414 . S
C1968 C1969 1.374 . S
C1969 H1949 0.950 . S
C1969 C1965 1.385 . S
C1969 C1968 1.374 . S
C1970 C1967 1.499 . S
C1970 C1971 1.373 . S
C1970 C1972 1.389 . S
C1971 H1950 0.950 . S
C1971 C1970 1.373 . S
C1971 C1987 1.377 . S
C1972 C1970 1.389 . S
C1972 C1973 1.524 . S
C1972 C1986 1.377 . S
C1973 C1972 1.524 . S
C1973 C1974 1.397 . S
C1973 C1978 1.363 . S
C1974 H1951 0.950 . S
C1974 C1973 1.397 . S
C1974 C1975 1.334 . S
C1975 H1952 0.950 . S
C1975 C1974 1.334 . S
C1975 C1976 1.287 . S
C1976 C1975 1.287 . S
C1976 C1977 1.524 . S
C1976 H1995 0.913 . S
C1977 H1953 0.950 . S
C1977 C1976 1.524 . S
C1977 C1978 1.415 . S
C1978 H1954 0.950 . S
C1978 C1973 1.363 . S
C1978 C1977 1.415 . S
C1979 H1955 0.951 . S
C1979 C1980 1.366 . S
C1979 C1981 1.388 . S
C1980 C1979 1.366 . S
C1980 C1984 1.385 . S
C1981 H1956 0.951 . S
C1981 C1979 1.388 . S
C1981 C1982 1.366 . S
C1982 C1981 1.366 . S
C1982 C1983 1.414 . S
C1982 C1985 1.499 . S
C1983 H1957 0.950 . S
C1983 C1982 1.414 . S
C1983 C1984 1.374 . S
C1984 H1958 0.950 . S
C1984 C1980 1.385 . S
C1984 C1983 1.374 . S
C1985 C1982 1.499 . S
C1985 C1986 1.373 . S
C1985 C1987 1.389 . S
C1986 H1959 0.950 . S
C1986 C1972 1.377 . S
C1986 C1985 1.373 . S
C1987 C1971 1.377 . S
C1987 C1985 1.389 . S
C1987 C1988 1.524 . S
C1988 C1987 1.524 . S
C1988 C1989 1.397 . S
C1988 C1993 1.363 . S
C1989 H1960 0.950 . S
C1989 C1988 1.397 . S
C1989 C1990 1.334 . S
C1990 H1961 0.950 . S
C1990 C1989 1.334 . S
C1990 C1991 1.287 . S
C1991 C1990 1.287 . S
C1991 C1992 1.524 . S
C1991 H1994 0.999 . S
C1992 H1962 0.950 . S
C1992 C1991 1.524 . S
C1992 C1993 1.415 . S
C1993 H1963 0.950 . S
C1993 C1988 1.363 . S
C1993 C1992 1.415 . S
H1994 C1991 0.999 . S
H1995 C1976 0.913 . S
H1996 C2014 0.951 . S
H1997 C2016 0.951 . S
H1998 C2018 0.950 . S
H1999 C2019 0.950 . S
H2000 C2021 0.950 . S
H2001 C2024 0.950 . S
H2002 C2025 0.950 . S
H2003 C2027 0.950 . S
H2004 C2028 0.950 . S
H2005 C2029 0.951 . S
H2006 C2031 0.951 . S
H2007 C2033 0.950 . S
H2008 C2034 0.950 . S
H2009 C2036 0.950 . S
H2010 C2039 0.950 . S
H2011 C2040 0.950 . S
H2012 C2042 0.950 . S
H2013 C2043 0.950 . S
C2014 H1996 0.951 . S
C2014 C2015 1.366 . S
C2014 C2016 1.388 . S
C2015 C2014 1.366 . S
C2015 C2019 1.385 . S
C2016 H1997 0.951 . S
C2016 C2014 1.388 . S
C2016 C2017 1.366 . S
C2017 C2016 1.366 . S
C2017 C2018 1.414 . S
C2017 C2020 1.499 . S
C2018 H1998 0.950 . S
C2018 C2017 1.414 . S
C2018 C2019 1.374 . S
C2019 H1999 0.950 . S
C2019 C2015 1.385 . S
C2019 C2018 1.374 . S
C2020 C2017 1.499 . S
C2020 C2021 1.373 . S
C2020 C2022 1.389 . S
C2021 H2000 0.950 . S
C2021 C2020 1.373 . S
C2021 C2037 1.377 . S
C2022 C2020 1.389 . S
C2022 C2023 1.524 . S
C2022 C2036 1.377 . S
C2023 C2022 1.524 . S
C2023 C2024 1.397 . S
C2023 C2028 1.363 . S
C2024 H2001 0.950 . S
C2024 C2023 1.397 . S
C2024 C2025 1.334 . S
C2025 H2002 0.950 . S
C2025 C2024 1.334 . S
C2025 C2026 1.287 . S
C2026 C2025 1.287 . S
C2026 C2027 1.524 . S
C2026 H2045 0.913 . S
C2027 H2003 0.950 . S
C2027 C2026 1.524 . S
C2027 C2028 1.415 . S
C2028 H2004 0.950 . S
C2028 C2023 1.363 . S
C2028 C2027 1.415 . S
C2029 H2005 0.951 . S
C2029 C2030 1.366 . S
C2029 C2031 1.388 . S
C2030 C2029 1.366 . S
C2030 C2034 1.385 . S
C2031 H2006 0.951 . S
C2031 C2029 1.388 . S
C2031 C2032 1.366 . S
C2032 C2031 1.366 . S
C2032 C2033 1.414 . S
C2032 C2035 1.499 . S
C2033 H2007 0.950 . S
C2033 C2032 1.414 . S
C2033 C2034 1.374 . S
C2034 H2008 0.950 . S
C2034 C2030 1.385 . S
C2034 C2033 1.374 . S
C2035 C2032 1.499 . S
C2035 C2036 1.373 . S
C2035 C2037 1.389 . S
C2036 H2009 0.950 . S
C2036 C2022 1.377 . S
C2036 C2035 1.373 . S
C2037 C2021 1.377 . S
C2037 C2035 1.389 . S
C2037 C2038 1.524 . S
C2038 C2037 1.524 . S
C2038 C2039 1.397 . S
C2038 C2043 1.363 . S
C2039 H2010 0.950 . S
C2039 C2038 1.397 . S
C2039 C2040 1.334 . S
C2040 H2011 0.950 . S
C2040 C2039 1.334 . S
C2040 C2041 1.287 . S
C2041 C2040 1.287 . S
C2041 C2042 1.524 . S
C2041 H2044 0.999 . S
C2042 H2012 0.950 . S
C2042 C2041 1.524 . S
C2042 C2043 1.415 . S
C2043 H2013 0.950 . S
C2043 C2038 1.363 . S
C2043 C2042 1.415 . S
H2044 C2041 0.999 . S
H2045 C2026 0.913 . S
H2046 C2064 0.951 . S
H2047 C2066 0.951 . S
H2048 C2068 0.950 . S
H2049 C2069 0.950 . S
H2050 C2071 0.950 . S
H2051 C2074 0.950 . S
H2052 C2075 0.950 . S
H2053 C2077 0.950 . S
H2054 C2078 0.950 . S
H2055 C2079 0.951 . S
H2056 C2081 0.951 . S
H2057 C2083 0.950 . S
H2058 C2084 0.950 . S
H2059 C2086 0.950 . S
H2060 C2089 0.950 . S
H2061 C2090 0.950 . S
H2062 C2092 0.950 . S
H2063 C2093 0.950 . S
C2064 H2046 0.951 . S
C2064 C2065 1.366 . S
C2064 C2066 1.388 . S
C2065 C2064 1.366 . S
C2065 C2069 1.385 . S
C2066 H2047 0.951 . S
C2066 C2064 1.388 . S
C2066 C2067 1.366 . S
C2067 C2066 1.366 . S
C2067 C2068 1.414 . S
C2067 C2070 1.499 . S
C2068 H2048 0.950 . S
C2068 C2067 1.414 . S
C2068 C2069 1.374 . S
C2069 H2049 0.950 . S
C2069 C2065 1.385 . S
C2069 C2068 1.374 . S
C2070 C2067 1.499 . S
C2070 C2071 1.373 . S
C2070 C2072 1.389 . S
C2071 H2050 0.950 . S
C2071 C2070 1.373 . S
C2071 C2087 1.377 . S
C2072 C2070 1.389 . S
C2072 C2073 1.524 . S
C2072 C2086 1.377 . S
C2073 C2072 1.524 . S
C2073 C2074 1.397 . S
C2073 C2078 1.363 . S
C2074 H2051 0.950 . S
C2074 C2073 1.397 . S
C2074 C2075 1.334 . S
C2075 H2052 0.950 . S
C2075 C2074 1.334 . S
C2075 C2076 1.287 . S
C2076 C2075 1.287 . S
C2076 C2077 1.524 . S
C2076 H2095 0.913 . S
C2077 H2053 0.950 . S
C2077 C2076 1.524 . S
C2077 C2078 1.415 . S
C2078 H2054 0.950 . S
C2078 C2073 1.363 . S
C2078 C2077 1.415 . S
C2079 H2055 0.951 . S
C2079 C2080 1.366 . S
C2079 C2081 1.388 . S
C2080 C2079 1.366 . S
C2080 C2084 1.385 . S
C2081 H2056 0.951 . S
C2081 C2079 1.388 . S
C2081 C2082 1.366 . S
C2082 C2081 1.366 . S
C2082 C2083 1.414 . S
C2082 C2085 1.499 . S
C2083 H2057 0.950 . S
C2083 C2082 1.414 . S
C2083 C2084 1.374 . S
C2084 H2058 0.950 . S
C2084 C2080 1.385 . S
C2084 C2083 1.374 . S
C2085 C2082 1.499 . S
C2085 C2086 1.373 . S
C2085 C2087 1.389 . S
C2086 H2059 0.950 . S
C2086 C2072 1.377 . S
C2086 C2085 1.373 . S
C2087 C2071 1.377 . S
C2087 C2085 1.389 . S
C2087 C2088 1.524 . S
C2088 C2087 1.524 . S
C2088 C2089 1.397 . S
C2088 C2093 1.363 . S
C2089 H2060 0.950 . S
C2089 C2088 1.397 . S
C2089 C2090 1.334 . S
C2090 H2061 0.950 . S
C2090 C2089 1.334 . S
C2090 C2091 1.287 . S
C2091 C2090 1.287 . S
C2091 C2092 1.524 . S
C2091 H2094 0.999 . S
C2092 H2062 0.950 . S
C2092 C2091 1.524 . S
C2092 C2093 1.415 . S
C2093 H2063 0.950 . S
C2093 C2088 1.363 . S
C2093 C2092 1.415 . S
H2094 C2091 0.999 . S
H2095 C2076 0.913 . S
H2096 C2114 0.951 . S
H2097 C2116 0.951 . S
H2098 C2118 0.950 . S
H2099 C2119 0.950 . S
H2100 C2121 0.950 . S
H2101 C2124 0.950 . S
H2102 C2125 0.950 . S
H2103 C2127 0.950 . S
H2104 C2128 0.950 . S
H2105 C2129 0.951 . S
H2106 C2131 0.951 . S
H2107 C2133 0.950 . S
H2108 C2134 0.950 . S
H2109 C2136 0.950 . S
H2110 C2139 0.950 . S
H2111 C2140 0.950 . S
H2112 C2142 0.950 . S
H2113 C2143 0.950 . S
C2114 H2096 0.951 . S
C2114 C2115 1.366 . S
C2114 C2116 1.388 . S
C2115 C2114 1.366 . S
C2115 C2119 1.385 . S
C2116 H2097 0.951 . S
C2116 C2114 1.388 . S
C2116 C2117 1.366 . S
C2117 C2116 1.366 . S
C2117 C2118 1.414 . S
C2117 C2120 1.499 . S
C2118 H2098 0.950 . S
C2118 C2117 1.414 . S
C2118 C2119 1.374 . S
C2119 H2099 0.950 . S
C2119 C2115 1.385 . S
C2119 C2118 1.374 . S
C2120 C2117 1.499 . S
C2120 C2121 1.373 . S
C2120 C2122 1.389 . S
C2121 H2100 0.950 . S
C2121 C2120 1.373 . S
C2121 C2137 1.377 . S
C2122 C2120 1.389 . S
C2122 C2123 1.524 . S
C2122 C2136 1.377 . S
C2123 C2122 1.524 . S
C2123 C2124 1.397 . S
C2123 C2128 1.363 . S
C2124 H2101 0.950 . S
C2124 C2123 1.397 . S
C2124 C2125 1.334 . S
C2125 H2102 0.950 . S
C2125 C2124 1.334 . S
C2125 C2126 1.287 . S
C2126 C2125 1.287 . S
C2126 C2127 1.524 . S
C2126 H2145 0.913 . S
C2127 H2103 0.950 . S
C2127 C2126 1.524 . S
C2127 C2128 1.415 . S
C2128 H2104 0.950 . S
C2128 C2123 1.363 . S
C2128 C2127 1.415 . S
C2129 H2105 0.951 . S
C2129 C2130 1.366 . S
C2129 C2131 1.388 . S
C2130 C2129 1.366 . S
C2130 C2134 1.385 . S
C2131 H2106 0.951 . S
C2131 C2129 1.388 . S
C2131 C2132 1.366 . S
C2132 C2131 1.366 . S
C2132 C2133 1.414 . S
C2132 C2135 1.499 . S
C2133 H2107 0.950 . S
C2133 C2132 1.414 . S
C2133 C2134 1.374 . S
C2134 H2108 0.950 . S
C2134 C2130 1.385 . S
C2134 C2133 1.374 . S
C2135 C2132 1.499 . S
C2135 C2136 1.373 . S
C2135 C2137 1.389 . S
C2136 H2109 0.950 . S
C2136 C2122 1.377 . S
C2136 C2135 1.373 . S
C2137 C2121 1.377 . S
C2137 C2135 1.389 . S
C2137 C2138 1.524 . S
C2138 C2137 1.524 . S
C2138 C2139 1.397 . S
C2138 C2143 1.363 . S
C2139 H2110 0.950 . S
C2139 C2138 1.397 . S
C2139 C2140 1.334 . S
C2140 H2111 0.950 . S
C2140 C2139 1.334 . S
C2140 C2141 1.287 . S
C2141 C2140 1.287 . S
C2141 C2142 1.524 . S
C2141 H2144 0.999 . S
C2142 H2112 0.950 . S
C2142 C2141 1.524 . S
C2142 C2143 1.415 . S
C2143 H2113 0.950 . S
C2143 C2138 1.363 . S
C2143 C2142 1.415 . S
H2144 C2141 0.999 . S
H2145 C2126 0.913 . S
H2146 C2164 0.951 . S
H2147 C2166 0.951 . S
H2148 C2168 0.950 . S
H2149 C2169 0.950 . S
H2150 C2171 0.950 . S
H2151 C2174 0.950 . S
H2152 C2175 0.950 . S
H2153 C2177 0.950 . S
H2154 C2178 0.950 . S
H2155 C2179 0.951 . S
H2156 C2181 0.951 . S
H2157 C2183 0.950 . S
H2158 C2184 0.950 . S
H2159 C2186 0.950 . S
H2160 C2189 0.950 . S
H2161 C2190 0.950 . S
H2162 C2192 0.950 . S
H2163 C2193 0.950 . S
C2164 H2146 0.951 . S
C2164 C2165 1.366 . S
C2164 C2166 1.388 . S
C2165 C2164 1.366 . S
C2165 C2169 1.385 . S
C2166 H2147 0.951 . S
C2166 C2164 1.388 . S
C2166 C2167 1.366 . S
C2167 C2166 1.366 . S
C2167 C2168 1.414 . S
C2167 C2170 1.499 . S
C2168 H2148 0.950 . S
C2168 C2167 1.414 . S
C2168 C2169 1.374 . S
C2169 H2149 0.950 . S
C2169 C2165 1.385 . S
C2169 C2168 1.374 . S
C2170 C2167 1.499 . S
C2170 C2171 1.373 . S
C2170 C2172 1.389 . S
C2171 H2150 0.950 . S
C2171 C2170 1.373 . S
C2171 C2187 1.377 . S
C2172 C2170 1.389 . S
C2172 C2173 1.524 . S
C2172 C2186 1.377 . S
C2173 C2172 1.524 . S
C2173 C2174 1.397 . S
C2173 C2178 1.363 . S
C2174 H2151 0.950 . S
C2174 C2173 1.397 . S
C2174 C2175 1.334 . S
C2175 H2152 0.950 . S
C2175 C2174 1.334 . S
C2175 C2176 1.287 . S
C2176 C2175 1.287 . S
C2176 C2177 1.524 . S
C2176 H2195 0.913 . S
C2177 H2153 0.950 . S
C2177 C2176 1.524 . S
C2177 C2178 1.415 . S
C2178 H2154 0.950 . S
C2178 C2173 1.363 . S
C2178 C2177 1.415 . S
C2179 H2155 0.951 . S
C2179 C2180 1.366 . S
C2179 C2181 1.388 . S
C2180 C2179 1.366 . S
C2180 C2184 1.385 . S
C2181 H2156 0.951 . S
C2181 C2179 1.388 . S
C2181 C2182 1.366 . S
C2182 C2181 1.366 . S
C2182 C2183 1.414 . S
C2182 C2185 1.499 . S
C2183 H2157 0.950 . S
C2183 C2182 1.414 . S
C2183 C2184 1.374 . S
C2184 H2158 0.950 . S
C2184 C2180 1.385 . S
C2184 C2183 1.374 . S
C2185 C2182 1.499 . S
C2185 C2186 1.373 . S
C2185 C2187 1.389 . S
C2186 H2159 0.950 . S
C2186 C2172 1.377 . S
C2186 C2185 1.373 . S
C2187 C2171 1.377 . S
C2187 C2185 1.389 . S
C2187 C2188 1.524 . S
C2188 C2187 1.524 . S
C2188 C2189 1.397 . S
C2188 C2193 1.363 . S
C2189 H2160 0.950 . S
C2189 C2188 1.397 . S
C2189 C2190 1.334 . S
C2190 H2161 0.950 . S
C2190 C2189 1.334 . S
C2190 C2191 1.287 . S
C2191 C2190 1.287 . S
C2191 C2192 1.524 . S
C2191 H2194 0.999 1_554 S
C2192 H2162 0.950 . S
C2192 C2191 1.524 . S
C2192 C2193 1.415 . S
C2193 H2163 0.950 . S
C2193 C2188 1.363 . S
C2193 C2192 1.415 . S
H2194 C2191 0.999 1_556 S
H2195 C2176 0.913 . S
H2196 C2214 0.951 . S
H2197 C2216 0.951 . S
H2198 C2218 0.950 . S
H2199 C2219 0.950 . S
H2200 C2221 0.950 . S
H2201 C2224 0.950 . S
H2202 C2225 0.950 . S
H2203 C2227 0.950 . S
H2204 C2228 0.950 . S
H2205 C2229 0.951 . S
H2206 C2231 0.951 . S
H2207 C2233 0.950 . S
H2208 C2234 0.950 . S
H2209 C2236 0.950 . S
H2210 C2239 0.950 . S
H2211 C2240 0.950 . S
H2212 C2242 0.950 . S
H2213 C2243 0.950 . S
C2214 H2196 0.951 . S
C2214 C2215 1.366 . S
C2214 C2216 1.388 . S
C2215 C2214 1.366 . S
C2215 C2219 1.385 . S
C2216 H2197 0.951 . S
C2216 C2214 1.388 . S
C2216 C2217 1.366 . S
C2217 C2216 1.366 . S
C2217 C2218 1.414 . S
C2217 C2220 1.499 . S
C2218 H2198 0.950 . S
C2218 C2217 1.414 . S
C2218 C2219 1.374 . S
C2219 H2199 0.950 . S
C2219 C2215 1.385 . S
C2219 C2218 1.374 . S
C2220 C2217 1.499 . S
C2220 C2221 1.373 . S
C2220 C2222 1.389 . S
C2221 H2200 0.950 . S
C2221 C2220 1.373 . S
C2221 C2237 1.377 . S
C2222 C2220 1.389 . S
C2222 C2223 1.524 . S
C2222 C2236 1.377 . S
C2223 C2222 1.524 . S
C2223 C2224 1.397 . S
C2223 C2228 1.363 . S
C2224 H2201 0.950 . S
C2224 C2223 1.397 . S
C2224 C2225 1.334 . S
C2225 H2202 0.950 . S
C2225 C2224 1.334 . S
C2225 C2226 1.287 . S
C2226 C2225 1.287 . S
C2226 C2227 1.524 . S
C2226 H2245 0.913 . S
C2227 H2203 0.950 . S
C2227 C2226 1.524 . S
C2227 C2228 1.415 . S
C2228 H2204 0.950 . S
C2228 C2223 1.363 . S
C2228 C2227 1.415 . S
C2229 H2205 0.951 . S
C2229 C2230 1.366 . S
C2229 C2231 1.388 . S
C2230 C2229 1.366 . S
C2230 C2234 1.385 . S
C2231 H2206 0.951 . S
C2231 C2229 1.388 . S
C2231 C2232 1.366 . S
C2232 C2231 1.366 . S
C2232 C2233 1.414 . S
C2232 C2235 1.499 . S
C2233 H2207 0.950 . S
C2233 C2232 1.414 . S
C2233 C2234 1.374 . S
C2234 H2208 0.950 . S
C2234 C2230 1.385 . S
C2234 C2233 1.374 . S
C2235 C2232 1.499 . S
C2235 C2236 1.373 . S
C2235 C2237 1.389 . S
C2236 H2209 0.950 . S
C2236 C2222 1.377 . S
C2236 C2235 1.373 . S
C2237 C2221 1.377 . S
C2237 C2235 1.389 . S
C2237 C2238 1.524 . S
C2238 C2237 1.524 . S
C2238 C2239 1.397 . S
C2238 C2243 1.363 . S
C2239 H2210 0.950 . S
C2239 C2238 1.397 . S
C2239 C2240 1.334 . S
C2240 H2211 0.950 . S
C2240 C2239 1.334 . S
C2240 C2241 1.287 . S
C2241 C2240 1.287 . S
C2241 C2242 1.524 . S
C2241 H2244 0.999 . S
C2242 H2212 0.950 . S
C2242 C2241 1.524 . S
C2242 C2243 1.415 . S
C2243 H2213 0.950 . S
C2243 C2238 1.363 . S
C2243 C2242 1.415 . S
H2244 C2241 0.999 . S
H2245 C2226 0.913 . S
H2246 C2264 0.951 . S
H2247 C2266 0.951 . S
H2248 C2268 0.950 . S
H2249 C2269 0.950 . S
H2250 C2271 0.950 . S
H2251 C2274 0.950 . S
H2252 C2275 0.950 . S
H2253 C2277 0.950 . S
H2254 C2278 0.950 . S
H2255 C2279 0.951 . S
H2256 C2281 0.951 . S
H2257 C2283 0.950 . S
H2258 C2284 0.950 . S
H2259 C2286 0.950 . S
H2260 C2289 0.950 . S
H2261 C2290 0.950 . S
H2262 C2292 0.950 . S
H2263 C2293 0.950 . S
C2264 H2246 0.951 . S
C2264 C2265 1.366 . S
C2264 C2266 1.388 . S
C2265 C2264 1.366 . S
C2265 C2269 1.385 . S
C2266 H2247 0.951 . S
C2266 C2264 1.388 . S
C2266 C2267 1.366 . S
C2267 C2266 1.366 . S
C2267 C2268 1.414 . S
C2267 C2270 1.499 . S
C2268 H2248 0.950 . S
C2268 C2267 1.414 . S
C2268 C2269 1.374 . S
C2269 H2249 0.950 . S
C2269 C2265 1.385 . S
C2269 C2268 1.374 . S
C2270 C2267 1.499 . S
C2270 C2271 1.373 . S
C2270 C2272 1.389 . S
C2271 H2250 0.950 . S
C2271 C2270 1.373 . S
C2271 C2287 1.377 . S
C2272 C2270 1.389 . S
C2272 C2273 1.524 . S
C2272 C2286 1.377 . S
C2273 C2272 1.524 . S
C2273 C2274 1.397 . S
C2273 C2278 1.363 . S
C2274 H2251 0.950 . S
C2274 C2273 1.397 . S
C2274 C2275 1.334 . S
C2275 H2252 0.950 . S
C2275 C2274 1.334 . S
C2275 C2276 1.287 . S
C2276 C2275 1.287 . S
C2276 C2277 1.524 . S
C2276 H2295 0.913 . S
C2277 H2253 0.950 . S
C2277 C2276 1.524 . S
C2277 C2278 1.415 . S
C2278 H2254 0.950 . S
C2278 C2273 1.363 . S
C2278 C2277 1.415 . S
C2279 H2255 0.951 . S
C2279 C2280 1.366 . S
C2279 C2281 1.388 . S
C2280 C2279 1.366 . S
C2280 C2284 1.385 . S
C2281 H2256 0.951 . S
C2281 C2279 1.388 . S
C2281 C2282 1.366 . S
C2282 C2281 1.366 . S
C2282 C2283 1.414 . S
C2282 C2285 1.499 . S
C2283 H2257 0.950 . S
C2283 C2282 1.414 . S
C2283 C2284 1.374 . S
C2284 H2258 0.950 . S
C2284 C2280 1.385 . S
C2284 C2283 1.374 . S
C2285 C2282 1.499 . S
C2285 C2286 1.373 . S
C2285 C2287 1.389 . S
C2286 H2259 0.950 . S
C2286 C2272 1.377 . S
C2286 C2285 1.373 . S
C2287 C2271 1.377 . S
C2287 C2285 1.389 . S
C2287 C2288 1.524 . S
C2288 C2287 1.524 . S
C2288 C2289 1.397 . S
C2288 C2293 1.363 . S
C2289 H2260 0.950 . S
C2289 C2288 1.397 . S
C2289 C2290 1.334 1_556 S
C2290 H2261 0.950 . S
C2290 C2289 1.334 1_554 S
C2290 C2291 1.287 . S
C2291 C2290 1.287 . S
C2291 C2292 1.524 1_554 S
C2291 H2294 0.999 . S
C2292 H2262 0.950 . S
C2292 C2291 1.524 1_556 S
C2292 C2293 1.415 . S
C2293 H2263 0.950 . S
C2293 C2288 1.363 . S
C2293 C2292 1.415 . S
H2294 C2291 0.999 . S
H2295 C2276 0.913 . S
H2296 C2314 0.951 . S
H2297 C2316 0.951 . S
H2298 C2318 0.950 . S
H2299 C2319 0.950 . S
H2300 C2321 0.950 . S
H2301 C2324 0.950 . S
H2302 C2325 0.950 . S
H2303 C2327 0.950 . S
H2304 C2328 0.950 . S
H2305 C2329 0.951 . S
H2306 C2331 0.951 . S
H2307 C2333 0.950 . S
H2308 C2334 0.950 . S
H2309 C2336 0.950 . S
H2310 C2339 0.950 . S
H2311 C2340 0.950 . S
H2312 C2342 0.950 . S
H2313 C2343 0.950 . S
C2314 H2296 0.951 . S
C2314 C2315 1.366 . S
C2314 C2316 1.388 . S
C2315 C2314 1.366 . S
C2315 C2319 1.385 . S
C2316 H2297 0.951 . S
C2316 C2314 1.388 . S
C2316 C2317 1.366 . S
C2317 C2316 1.366 . S
C2317 C2318 1.414 . S
C2317 C2320 1.499 . S
C2318 H2298 0.950 . S
C2318 C2317 1.414 . S
C2318 C2319 1.374 . S
C2319 H2299 0.950 . S
C2319 C2315 1.385 . S
C2319 C2318 1.374 . S
C2320 C2317 1.499 . S
C2320 C2321 1.373 . S
C2320 C2322 1.389 . S
C2321 H2300 0.950 . S
C2321 C2320 1.373 . S
C2321 C2337 1.377 . S
C2322 C2320 1.389 . S
C2322 C2323 1.524 . S
C2322 C2336 1.377 . S
C2323 C2322 1.524 . S
C2323 C2324 1.397 . S
C2323 C2328 1.363 . S
C2324 H2301 0.950 . S
C2324 C2323 1.397 . S
C2324 C2325 1.334 . S
C2325 H2302 0.950 . S
C2325 C2324 1.334 . S
C2325 C2326 1.287 . S
C2326 C2325 1.287 . S
C2326 C2327 1.524 . S
C2326 H2345 0.913 . S
C2327 H2303 0.950 . S
C2327 C2326 1.524 . S
C2327 C2328 1.415 . S
C2328 H2304 0.950 . S
C2328 C2323 1.363 . S
C2328 C2327 1.415 . S
C2329 H2305 0.951 . S
C2329 C2330 1.366 . S
C2329 C2331 1.388 . S
C2330 C2329 1.366 . S
C2330 C2334 1.385 . S
C2331 H2306 0.951 . S
C2331 C2329 1.388 . S
C2331 C2332 1.366 . S
C2332 C2331 1.366 . S
C2332 C2333 1.414 . S
C2332 C2335 1.499 . S
C2333 H2307 0.950 . S
C2333 C2332 1.414 . S
C2333 C2334 1.374 . S
C2334 H2308 0.950 . S
C2334 C2330 1.385 . S
C2334 C2333 1.374 . S
C2335 C2332 1.499 . S
C2335 C2336 1.373 . S
C2335 C2337 1.389 . S
C2336 H2309 0.950 . S
C2336 C2322 1.377 . S
C2336 C2335 1.373 . S
C2337 C2321 1.377 . S
C2337 C2335 1.389 . S
C2337 C2338 1.524 . S
C2338 C2337 1.524 . S
C2338 C2339 1.397 . S
C2338 C2343 1.363 . S
C2339 H2310 0.950 . S
C2339 C2338 1.397 . S
C2339 C2340 1.334 . S
C2340 H2311 0.950 . S
C2340 C2339 1.334 . S
C2340 C2341 1.287 . S
C2341 C2340 1.287 . S
C2341 C2342 1.524 . S
C2341 H2344 0.999 . S
C2342 H2312 0.950 . S
C2342 C2341 1.524 . S
C2342 C2343 1.415 . S
C2343 H2313 0.950 . S
C2343 C2338 1.363 . S
C2343 C2342 1.415 . S
H2344 C2341 0.999 . S
H2345 C2326 0.913 . S
H2346 C2364 0.951 . S
H2347 C2366 0.951 . S
H2348 C2368 0.950 . S
H2349 C2369 0.950 . S
H2350 C2371 0.950 . S
H2351 C2374 0.950 . S
H2352 C2375 0.950 . S
H2353 C2377 0.950 . S
H2354 C2378 0.950 . S
H2355 C2379 0.951 . S
H2356 C2381 0.951 . S
H2357 C2383 0.950 . S
H2358 C2384 0.950 . S
H2359 C2386 0.950 . S
H2360 C2389 0.950 . S
H2361 C2390 0.950 . S
H2362 C2392 0.950 . S
H2363 C2393 0.950 . S
C2364 H2346 0.951 . S
C2364 C2365 1.366 . S
C2364 C2366 1.388 . S
C2365 C2364 1.366 . S
C2365 C2369 1.385 . S
C2366 H2347 0.951 . S
C2366 C2364 1.388 . S
C2366 C2367 1.366 . S
C2367 C2366 1.366 . S
C2367 C2368 1.414 . S
C2367 C2370 1.499 . S
C2368 H2348 0.950 . S
C2368 C2367 1.414 . S
C2368 C2369 1.374 . S
C2369 H2349 0.950 . S
C2369 C2365 1.385 . S
C2369 C2368 1.374 . S
C2370 C2367 1.499 . S
C2370 C2371 1.373 . S
C2370 C2372 1.389 . S
C2371 H2350 0.950 . S
C2371 C2370 1.373 . S
C2371 C2387 1.377 . S
C2372 C2370 1.389 . S
C2372 C2373 1.524 . S
C2372 C2386 1.377 . S
C2373 C2372 1.524 . S
C2373 C2374 1.397 . S
C2373 C2378 1.363 . S
C2374 H2351 0.950 . S
C2374 C2373 1.397 . S
C2374 C2375 1.334 . S
C2375 H2352 0.950 . S
C2375 C2374 1.334 . S
C2375 C2376 1.287 . S
C2376 C2375 1.287 . S
C2376 C2377 1.524 . S
C2376 H2395 0.913 . S
C2377 H2353 0.950 . S
C2377 C2376 1.524 . S
C2377 C2378 1.415 . S
C2378 H2354 0.950 . S
C2378 C2373 1.363 . S
C2378 C2377 1.415 . S
C2379 H2355 0.951 . S
C2379 C2380 1.366 . S
C2379 C2381 1.388 . S
C2380 C2379 1.366 . S
C2380 C2384 1.385 . S
C2381 H2356 0.951 . S
C2381 C2379 1.388 . S
C2381 C2382 1.366 . S
C2382 C2381 1.366 . S
C2382 C2383 1.414 . S
C2382 C2385 1.499 . S
C2383 H2357 0.950 . S
C2383 C2382 1.414 . S
C2383 C2384 1.374 . S
C2384 H2358 0.950 . S
C2384 C2380 1.385 . S
C2384 C2383 1.374 . S
C2385 C2382 1.499 . S
C2385 C2386 1.373 . S
C2385 C2387 1.389 . S
C2386 H2359 0.950 . S
C2386 C2372 1.377 . S
C2386 C2385 1.373 . S
C2387 C2371 1.377 . S
C2387 C2385 1.389 . S
C2387 C2388 1.524 . S
C2388 C2387 1.524 . S
C2388 C2389 1.397 . S
C2388 C2393 1.363 . S
C2389 H2360 0.950 . S
C2389 C2388 1.397 . S
C2389 C2390 1.334 . S
C2390 H2361 0.950 . S
C2390 C2389 1.334 . S
C2390 C2391 1.287 . S
C2391 C2390 1.287 . S
C2391 C2392 1.524 . S
C2391 H2394 0.999 . S
C2392 H2362 0.950 . S
C2392 C2391 1.524 . S
C2392 C2393 1.415 . S
C2393 H2363 0.950 . S
C2393 C2388 1.363 . S
C2393 C2392 1.415 . S
H2394 C2391 0.999 . S
H2395 C2376 0.913 . S
H2396 C2414 0.951 . S
H2397 C2416 0.951 . S
H2398 C2418 0.950 . S
H2399 C2419 0.950 . S
H2400 C2421 0.950 . S
H2401 C2424 0.950 . S
H2402 C2425 0.950 . S
H2403 C2427 0.950 . S
H2404 C2428 0.950 . S
H2405 C2429 0.951 . S
H2406 C2431 0.951 . S
H2407 C2433 0.950 . S
H2408 C2434 0.950 . S
H2409 C2436 0.950 . S
H2410 C2439 0.950 . S
H2411 C2440 0.950 . S
H2412 C2442 0.950 . S
H2413 C2443 0.950 . S
C2414 H2396 0.951 . S
C2414 C2415 1.366 . S
C2414 C2416 1.388 . S
C2415 C2414 1.366 . S
C2415 C2419 1.385 . S
C2416 H2397 0.951 . S
C2416 C2414 1.388 . S
C2416 C2417 1.366 . S
C2417 C2416 1.366 . S
C2417 C2418 1.414 . S
C2417 C2420 1.499 . S
C2418 H2398 0.950 . S
C2418 C2417 1.414 . S
C2418 C2419 1.374 . S
C2419 H2399 0.950 . S
C2419 C2415 1.385 . S
C2419 C2418 1.374 . S
C2420 C2417 1.499 . S
C2420 C2421 1.373 . S
C2420 C2422 1.389 . S
C2421 H2400 0.950 . S
C2421 C2420 1.373 . S
C2421 C2437 1.377 . S
C2422 C2420 1.389 . S
C2422 C2423 1.524 . S
C2422 C2436 1.377 . S
C2423 C2422 1.524 . S
C2423 C2424 1.397 . S
C2423 C2428 1.363 . S
C2424 H2401 0.950 . S
C2424 C2423 1.397 . S
C2424 C2425 1.334 . S
C2425 H2402 0.950 . S
C2425 C2424 1.334 . S
C2425 C2426 1.287 . S
C2426 C2425 1.287 . S
C2426 C2427 1.524 . S
C2426 H2445 0.913 . S
C2427 H2403 0.950 . S
C2427 C2426 1.524 . S
C2427 C2428 1.415 . S
C2428 H2404 0.950 . S
C2428 C2423 1.363 . S
C2428 C2427 1.415 . S
C2429 H2405 0.951 . S
C2429 C2430 1.366 . S
C2429 C2431 1.388 . S
C2430 C2429 1.366 . S
C2430 C2434 1.385 . S
C2431 H2406 0.951 . S
C2431 C2429 1.388 . S
C2431 C2432 1.366 . S
C2432 C2431 1.366 . S
C2432 C2433 1.414 . S
C2432 C2435 1.499 . S
C2433 H2407 0.950 . S
C2433 C2432 1.414 . S
C2433 C2434 1.374 . S
C2434 H2408 0.950 . S
C2434 C2430 1.385 . S
C2434 C2433 1.374 . S
C2435 C2432 1.499 . S
C2435 C2436 1.373 . S
C2435 C2437 1.389 . S
C2436 H2409 0.950 . S
C2436 C2422 1.377 . S
C2436 C2435 1.373 . S
C2437 C2421 1.377 . S
C2437 C2435 1.389 . S
C2437 C2438 1.524 . S
C2438 C2437 1.524 . S
C2438 C2439 1.397 . S
C2438 C2443 1.363 . S
C2439 H2410 0.950 . S
C2439 C2438 1.397 . S
C2439 C2440 1.334 . S
C2440 H2411 0.950 . S
C2440 C2439 1.334 . S
C2440 C2441 1.287 . S
C2441 C2440 1.287 . S
C2441 C2442 1.524 . S
C2441 H2444 0.999 . S
C2442 H2412 0.950 . S
C2442 C2441 1.524 . S
C2442 C2443 1.415 . S
C2443 H2413 0.950 . S
C2443 C2438 1.363 . S
C2443 C2442 1.415 . S
H2444 C2441 0.999 . S
H2445 C2426 0.913 . S
H2446 C2464 0.951 . S
H2447 C2466 0.951 . S
H2448 C2468 0.950 . S
H2449 C2469 0.950 . S
H2450 C2471 0.950 . S
H2451 C2474 0.950 . S
H2452 C2475 0.950 . S
H2453 C2477 0.950 . S
H2454 C2478 0.950 . S
H2455 C2479 0.951 . S
H2456 C2481 0.951 . S
H2457 C2483 0.950 . S
H2458 C2484 0.950 . S
H2459 C2486 0.950 . S
H2460 C2489 0.950 . S
H2461 C2490 0.950 . S
H2462 C2492 0.950 . S
H2463 C2493 0.950 . S
C2464 H2446 0.951 . S
C2464 C2465 1.366 . S
C2464 C2466 1.388 . S
C2465 C2464 1.366 . S
C2465 C2469 1.385 . S
C2466 H2447 0.951 . S
C2466 C2464 1.388 . S
C2466 C2467 1.366 . S
C2467 C2466 1.366 . S
C2467 C2468 1.414 . S
C2467 C2470 1.499 . S
C2468 H2448 0.950 . S
C2468 C2467 1.414 . S
C2468 C2469 1.374 . S
C2469 H2449 0.950 . S
C2469 C2465 1.385 . S
C2469 C2468 1.374 . S
C2470 C2467 1.499 . S
C2470 C2471 1.373 . S
C2470 C2472 1.389 . S
C2471 H2450 0.950 . S
C2471 C2470 1.373 . S
C2471 C2487 1.377 . S
C2472 C2470 1.389 . S
C2472 C2473 1.524 . S
C2472 C2486 1.377 . S
C2473 C2472 1.524 . S
C2473 C2474 1.397 . S
C2473 C2478 1.363 . S
C2474 H2451 0.950 . S
C2474 C2473 1.397 . S
C2474 C2475 1.334 . S
C2475 H2452 0.950 . S
C2475 C2474 1.334 . S
C2475 C2476 1.287 . S
C2476 C2475 1.287 . S
C2476 C2477 1.524 . S
C2476 H2495 0.913 . S
C2477 H2453 0.950 . S
C2477 C2476 1.524 . S
C2477 C2478 1.415 . S
C2478 H2454 0.950 . S
C2478 C2473 1.363 . S
C2478 C2477 1.415 . S
C2479 H2455 0.951 . S
C2479 C2480 1.366 . S
C2479 C2481 1.388 . S
C2480 C2479 1.366 . S
C2480 C2484 1.385 . S
C2481 H2456 0.951 . S
C2481 C2479 1.388 . S
C2481 C2482 1.366 . S
C2482 C2481 1.366 . S
C2482 C2483 1.414 . S
C2482 C2485 1.499 . S
C2483 H2457 0.950 . S
C2483 C2482 1.414 . S
C2483 C2484 1.374 . S
C2484 H2458 0.950 . S
C2484 C2480 1.385 . S
C2484 C2483 1.374 . S
C2485 C2482 1.499 . S
C2485 C2486 1.373 . S
C2485 C2487 1.389 . S
C2486 H2459 0.950 . S
C2486 C2472 1.377 . S
C2486 C2485 1.373 . S
C2487 C2471 1.377 . S
C2487 C2485 1.389 . S
C2487 C2488 1.524 . S
C2488 C2487 1.524 . S
C2488 C2489 1.397 . S
C2488 C2493 1.363 . S
C2489 H2460 0.950 . S
C2489 C2488 1.397 . S
C2489 C2490 1.334 . S
C2490 H2461 0.950 . S
C2490 C2489 1.334 . S
C2490 C2491 1.287 . S
C2491 C2490 1.287 . S
C2491 C2492 1.524 . S
C2491 H2494 0.999 . S
C2492 H2462 0.950 . S
C2492 C2491 1.524 . S
C2492 C2493 1.415 . S
C2493 H2463 0.950 . S
C2493 C2488 1.363 . S
C2493 C2492 1.415 . S
H2494 C2491 0.999 . S
H2495 C2476 0.913 . S
H2496 C2514 0.951 . S
H2497 C2516 0.951 . S
H2498 C2518 0.950 . S
H2499 C2519 0.950 . S
H2500 C2521 0.950 . S
H2501 C2524 0.950 . S
H2502 C2525 0.950 . S
H2503 C2527 0.950 . S
H2504 C2528 0.950 . S
H2505 C2529 0.951 . S
H2506 C2531 0.951 . S
H2507 C2533 0.950 . S
H2508 C2534 0.950 1_556 S
H2509 C2536 0.950 . S
H2510 C2539 0.950 . S
H2511 C2540 0.950 . S
H2512 C2542 0.950 . S
H2513 C2543 0.950 . S
C2514 H2496 0.951 . S
C2514 C2515 1.366 . S
C2514 C2516 1.388 . S
C2515 C2514 1.366 . S
C2515 C2519 1.385 . S
C2516 H2497 0.951 . S
C2516 C2514 1.388 . S
C2516 C2517 1.366 . S
C2517 C2516 1.366 . S
C2517 C2518 1.414 . S
C2517 C2520 1.499 . S
C2518 H2498 0.950 . S
C2518 C2517 1.414 . S
C2518 C2519 1.374 . S
C2519 H2499 0.950 . S
C2519 C2515 1.385 . S
C2519 C2518 1.374 . S
C2520 C2517 1.499 . S
C2520 C2521 1.373 . S
C2520 C2522 1.389 . S
C2521 H2500 0.950 . S
C2521 C2520 1.373 . S
C2521 C2537 1.377 . S
C2522 C2520 1.389 . S
C2522 C2523 1.524 . S
C2522 C2536 1.377 . S
C2523 C2522 1.524 . S
C2523 C2524 1.397 . S
C2523 C2528 1.363 . S
C2524 H2501 0.950 . S
C2524 C2523 1.397 . S
C2524 C2525 1.334 . S
C2525 H2502 0.950 . S
C2525 C2524 1.334 . S
C2525 C2526 1.287 . S
C2526 C2525 1.287 . S
C2526 C2527 1.524 . S
C2526 H2545 0.913 . S
C2527 H2503 0.950 . S
C2527 C2526 1.524 . S
C2527 C2528 1.415 . S
C2528 H2504 0.950 . S
C2528 C2523 1.363 . S
C2528 C2527 1.415 . S
C2529 H2505 0.951 . S
C2529 C2530 1.366 . S
C2529 C2531 1.388 . S
C2530 C2529 1.366 . S
C2530 C2534 1.385 . S
C2531 H2506 0.951 . S
C2531 C2529 1.388 . S
C2531 C2532 1.366 . S
C2532 C2531 1.366 . S
C2532 C2533 1.414 . S
C2532 C2535 1.499 . S
C2533 H2507 0.950 . S
C2533 C2532 1.414 . S
C2533 C2534 1.374 . S
C2534 H2508 0.950 1_554 S
C2534 C2530 1.385 . S
C2534 C2533 1.374 . S
C2535 C2532 1.499 . S
C2535 C2536 1.373 . S
C2535 C2537 1.389 . S
C2536 H2509 0.950 . S
C2536 C2522 1.377 . S
C2536 C2535 1.373 . S
C2537 C2521 1.377 . S
C2537 C2535 1.389 . S
C2537 C2538 1.524 . S
C2538 C2537 1.524 . S
C2538 C2539 1.397 . S
C2538 C2543 1.363 . S
C2539 H2510 0.950 . S
C2539 C2538 1.397 . S
C2539 C2540 1.334 . S
C2540 H2511 0.950 . S
C2540 C2539 1.334 . S
C2540 C2541 1.287 . S
C2541 C2540 1.287 . S
C2541 C2542 1.524 . S
C2541 H2544 0.999 . S
C2542 H2512 0.950 . S
C2542 C2541 1.524 . S
C2542 C2543 1.415 . S
C2543 H2513 0.950 . S
C2543 C2538 1.363 . S
C2543 C2542 1.415 . S
H2544 C2541 0.999 . S
H2545 C2526 0.913 . S
H2546 C2564 0.951 . S
H2547 C2566 0.951 . S
H2548 C2568 0.950 . S
H2549 C2569 0.950 . S
H2550 C2571 0.950 . S
H2551 C2574 0.950 . S
H2552 C2575 0.950 . S
H2553 C2577 0.950 . S
H2554 C2578 0.950 . S
H2555 C2579 0.951 . S
H2556 C2581 0.951 . S
H2557 C2583 0.950 . S
H2558 C2584 0.950 . S
H2559 C2586 0.950 . S
H2560 C2589 0.950 . S
H2561 C2590 0.950 . S
H2562 C2592 0.950 . S
H2563 C2593 0.950 . S
C2564 H2546 0.951 . S
C2564 C2565 1.366 . S
C2564 C2566 1.388 . S
C2565 C2564 1.366 . S
C2565 C2569 1.385 . S
C2566 H2547 0.951 . S
C2566 C2564 1.388 . S
C2566 C2567 1.366 . S
C2567 C2566 1.366 . S
C2567 C2568 1.414 . S
C2567 C2570 1.499 . S
C2568 H2548 0.950 . S
C2568 C2567 1.414 . S
C2568 C2569 1.374 . S
C2569 H2549 0.950 . S
C2569 C2565 1.385 . S
C2569 C2568 1.374 . S
C2570 C2567 1.499 . S
C2570 C2571 1.373 . S
C2570 C2572 1.389 . S
C2571 H2550 0.950 . S
C2571 C2570 1.373 . S
C2571 C2587 1.377 . S
C2572 C2570 1.389 . S
C2572 C2573 1.524 . S
C2572 C2586 1.377 . S
C2573 C2572 1.524 . S
C2573 C2574 1.397 . S
C2573 C2578 1.363 . S
C2574 H2551 0.950 . S
C2574 C2573 1.397 . S
C2574 C2575 1.334 . S
C2575 H2552 0.950 . S
C2575 C2574 1.334 . S
C2575 C2576 1.287 . S
C2576 C2575 1.287 . S
C2576 C2577 1.524 . S
C2576 H2595 0.913 . S
C2577 H2553 0.950 . S
C2577 C2576 1.524 . S
C2577 C2578 1.415 . S
C2578 H2554 0.950 . S
C2578 C2573 1.363 . S
C2578 C2577 1.415 . S
C2579 H2555 0.951 . S
C2579 C2580 1.366 . S
C2579 C2581 1.388 . S
C2580 C2579 1.366 . S
C2580 C2584 1.385 . S
C2581 H2556 0.951 . S
C2581 C2579 1.388 . S
C2581 C2582 1.366 . S
C2582 C2581 1.366 . S
C2582 C2583 1.414 . S
C2582 C2585 1.499 . S
C2583 H2557 0.950 . S
C2583 C2582 1.414 . S
C2583 C2584 1.374 . S
C2584 H2558 0.950 . S
C2584 C2580 1.385 . S
C2584 C2583 1.374 . S
C2585 C2582 1.499 . S
C2585 C2586 1.373 . S
C2585 C2587 1.389 . S
C2586 H2559 0.950 . S
C2586 C2572 1.377 . S
C2586 C2585 1.373 . S
C2587 C2571 1.377 . S
C2587 C2585 1.389 . S
C2587 C2588 1.524 . S
C2588 C2587 1.524 . S
C2588 C2589 1.397 . S
C2588 C2593 1.363 . S
C2589 H2560 0.950 . S
C2589 C2588 1.397 . S
C2589 C2590 1.334 . S
C2590 H2561 0.950 . S
C2590 C2589 1.334 . S
C2590 C2591 1.287 . S
C2591 C2590 1.287 . S
C2591 C2592 1.524 . S
C2591 H2594 0.999 . S
C2592 H2562 0.950 . S
C2592 C2591 1.524 . S
C2592 C2593 1.415 . S
C2593 H2563 0.950 . S
C2593 C2588 1.363 . S
C2593 C2592 1.415 . S
H2594 C2591 0.999 . S
H2595 C2576 0.913 . S
H2596 C2614 0.951 . S
H2597 C2616 0.951 . S
H2598 C2618 0.950 . S
H2599 C2619 0.950 . S
H2600 C2621 0.950 . S
H2601 C2624 0.950 . S
H2602 C2625 0.950 . S
H2603 C2627 0.950 . S
H2604 C2628 0.950 . S
H2605 C2629 0.951 . S
H2606 C2631 0.951 . S
H2607 C2633 0.950 . S
H2608 C2634 0.950 . S
H2609 C2636 0.950 . S
H2610 C2639 0.950 . S
H2611 C2640 0.950 . S
H2612 C2642 0.950 . S
H2613 C2643 0.950 . S
C2614 H2596 0.951 . S
C2614 C2615 1.366 . S
C2614 C2616 1.388 . S
C2615 C2614 1.366 . S
C2615 C2619 1.385 . S
C2616 H2597 0.951 . S
C2616 C2614 1.388 . S
C2616 C2617 1.366 . S
C2617 C2616 1.366 . S
C2617 C2618 1.414 . S
C2617 C2620 1.499 . S
C2618 H2598 0.950 . S
C2618 C2617 1.414 . S
C2618 C2619 1.374 . S
C2619 H2599 0.950 . S
C2619 C2615 1.385 . S
C2619 C2618 1.374 . S
C2620 C2617 1.499 . S
C2620 C2621 1.373 . S
C2620 C2622 1.389 . S
C2621 H2600 0.950 . S
C2621 C2620 1.373 . S
C2621 C2637 1.377 . S
C2622 C2620 1.389 . S
C2622 C2623 1.524 . S
C2622 C2636 1.377 . S
C2623 C2622 1.524 . S
C2623 C2624 1.397 . S
C2623 C2628 1.363 . S
C2624 H2601 0.950 . S
C2624 C2623 1.397 . S
C2624 C2625 1.334 . S
C2625 H2602 0.950 . S
C2625 C2624 1.334 . S
C2625 C2626 1.287 . S
C2626 C2625 1.287 . S
C2626 C2627 1.524 . S
C2626 H2645 0.913 . S
C2627 H2603 0.950 . S
C2627 C2626 1.524 . S
C2627 C2628 1.415 . S
C2628 H2604 0.950 . S
C2628 C2623 1.363 . S
C2628 C2627 1.415 . S
C2629 H2605 0.951 . S
C2629 C2630 1.366 . S
C2629 C2631 1.388 . S
C2630 C2629 1.366 . S
C2630 C2634 1.385 . S
C2631 H2606 0.951 . S
C2631 C2629 1.388 . S
C2631 C2632 1.366 . S
C2632 C2631 1.366 . S
C2632 C2633 1.414 . S
C2632 C2635 1.499 . S
C2633 H2607 0.950 . S
C2633 C2632 1.414 . S
C2633 C2634 1.374 . S
C2634 H2608 0.950 . S
C2634 C2630 1.385 . S
C2634 C2633 1.374 . S
C2635 C2632 1.499 . S
C2635 C2636 1.373 . S
C2635 C2637 1.389 . S
C2636 H2609 0.950 . S
C2636 C2622 1.377 . S
C2636 C2635 1.373 . S
C2637 C2621 1.377 . S
C2637 C2635 1.389 . S
C2637 C2638 1.524 . S
C2638 C2637 1.524 . S
C2638 C2639 1.397 . S
C2638 C2643 1.363 . S
C2639 H2610 0.950 . S
C2639 C2638 1.397 . S
C2639 C2640 1.334 . S
C2640 H2611 0.950 . S
C2640 C2639 1.334 . S
C2640 C2641 1.287 . S
C2641 C2640 1.287 . S
C2641 C2642 1.524 . S
C2641 H2644 0.999 . S
C2642 H2612 0.950 . S
C2642 C2641 1.524 . S
C2642 C2643 1.415 . S
C2643 H2613 0.950 . S
C2643 C2638 1.363 . S
C2643 C2642 1.415 . S
H2644 C2641 0.999 . S
H2645 C2626 0.913 . S
H2646 C2664 0.951 . S
H2647 C2666 0.951 . S
H2648 C2668 0.950 . S
H2649 C2669 0.950 . S
H2650 C2671 0.950 . S
H2651 C2674 0.950 . S
H2652 C2675 0.950 . S
H2653 C2677 0.950 . S
H2654 C2678 0.950 . S
H2655 C2679 0.951 . S
H2656 C2681 0.951 . S
H2657 C2683 0.950 . S
H2658 C2684 0.950 . S
H2659 C2686 0.950 . S
H2660 C2689 0.950 . S
H2661 C2690 0.950 . S
H2662 C2692 0.950 . S
H2663 C2693 0.950 . S
C2664 H2646 0.951 . S
C2664 C2665 1.366 . S
C2664 C2666 1.388 . S
C2665 C2664 1.366 . S
C2665 C2669 1.385 . S
C2666 H2647 0.951 . S
C2666 C2664 1.388 . S
C2666 C2667 1.366 . S
C2667 C2666 1.366 . S
C2667 C2668 1.414 . S
C2667 C2670 1.499 . S
C2668 H2648 0.950 . S
C2668 C2667 1.414 . S
C2668 C2669 1.374 . S
C2669 H2649 0.950 . S
C2669 C2665 1.385 . S
C2669 C2668 1.374 . S
C2670 C2667 1.499 . S
C2670 C2671 1.373 . S
C2670 C2672 1.389 . S
C2671 H2650 0.950 . S
C2671 C2670 1.373 . S
C2671 C2687 1.377 . S
C2672 C2670 1.389 . S
C2672 C2673 1.524 . S
C2672 C2686 1.377 . S
C2673 C2672 1.524 . S
C2673 C2674 1.397 . S
C2673 C2678 1.363 . S
C2674 H2651 0.950 . S
C2674 C2673 1.397 . S
C2674 C2675 1.334 . S
C2675 H2652 0.950 . S
C2675 C2674 1.334 . S
C2675 C2676 1.287 . S
C2676 C2675 1.287 . S
C2676 C2677 1.524 . S
C2676 H2695 0.913 . S
C2677 H2653 0.950 . S
C2677 C2676 1.524 . S
C2677 C2678 1.415 . S
C2678 H2654 0.950 . S
C2678 C2673 1.363 . S
C2678 C2677 1.415 . S
C2679 H2655 0.951 . S
C2679 C2680 1.366 . S
C2679 C2681 1.388 . S
C2680 C2679 1.366 . S
C2680 C2684 1.385 . S
C2681 H2656 0.951 . S
C2681 C2679 1.388 . S
C2681 C2682 1.366 . S
C2682 C2681 1.366 . S
C2682 C2683 1.414 . S
C2682 C2685 1.499 . S
C2683 H2657 0.950 . S
C2683 C2682 1.414 . S
C2683 C2684 1.374 . S
C2684 H2658 0.950 . S
C2684 C2680 1.385 . S
C2684 C2683 1.374 . S
C2685 C2682 1.499 . S
C2685 C2686 1.373 . S
C2685 C2687 1.389 . S
C2686 H2659 0.950 . S
C2686 C2672 1.377 . S
C2686 C2685 1.373 . S
C2687 C2671 1.377 . S
C2687 C2685 1.389 . S
C2687 C2688 1.524 . S
C2688 C2687 1.524 . S
C2688 C2689 1.397 . S
C2688 C2693 1.363 . S
C2689 H2660 0.950 . S
C2689 C2688 1.397 . S
C2689 C2690 1.334 . S
C2690 H2661 0.950 . S
C2690 C2689 1.334 . S
C2690 C2691 1.287 . S
C2691 C2690 1.287 . S
C2691 C2692 1.524 . S
C2691 H2694 0.999 . S
C2692 H2662 0.950 . S
C2692 C2691 1.524 . S
C2692 C2693 1.415 . S
C2693 H2663 0.950 . S
C2693 C2688 1.363 . S
C2693 C2692 1.415 . S
H2694 C2691 0.999 . S
H2695 C2676 0.913 . S
H2696 C2714 0.951 . S
H2697 C2716 0.951 . S
H2698 C2718 0.950 . S
H2699 C2719 0.950 . S
H2700 C2721 0.950 . S
H2701 C2724 0.950 . S
H2702 C2725 0.950 . S
H2703 C2727 0.950 . S
H2704 C2728 0.950 . S
H2705 C2729 0.951 . S
H2706 C2731 0.951 . S
H2707 C2733 0.950 . S
H2708 C2734 0.950 . S
H2709 C2736 0.950 . S
H2710 C2739 0.950 . S
H2711 C2740 0.950 . S
H2712 C2742 0.950 . S
H2713 C2743 0.950 . S
C2714 H2696 0.951 . S
C2714 C2715 1.366 . S
C2714 C2716 1.388 . S
C2715 C2714 1.366 . S
C2715 C2719 1.385 . S
C2716 H2697 0.951 . S
C2716 C2714 1.388 . S
C2716 C2717 1.366 . S
C2717 C2716 1.366 . S
C2717 C2718 1.414 . S
C2717 C2720 1.499 . S
C2718 H2698 0.950 . S
C2718 C2717 1.414 . S
C2718 C2719 1.374 . S
C2719 H2699 0.950 . S
C2719 C2715 1.385 . S
C2719 C2718 1.374 . S
C2720 C2717 1.499 . S
C2720 C2721 1.373 . S
C2720 C2722 1.389 . S
C2721 H2700 0.950 . S
C2721 C2720 1.373 . S
C2721 C2737 1.377 . S
C2722 C2720 1.389 . S
C2722 C2723 1.524 . S
C2722 C2736 1.377 . S
C2723 C2722 1.524 . S
C2723 C2724 1.397 . S
C2723 C2728 1.363 . S
C2724 H2701 0.950 . S
C2724 C2723 1.397 . S
C2724 C2725 1.334 . S
C2725 H2702 0.950 . S
C2725 C2724 1.334 . S
C2725 C2726 1.287 . S
C2726 C2725 1.287 . S
C2726 C2727 1.524 . S
C2726 H2745 0.913 . S
C2727 H2703 0.950 . S
C2727 C2726 1.524 . S
C2727 C2728 1.415 . S
C2728 H2704 0.950 . S
C2728 C2723 1.363 . S
C2728 C2727 1.415 . S
C2729 H2705 0.951 . S
C2729 C2730 1.366 . S
C2729 C2731 1.388 . S
C2730 C2729 1.366 . S
C2730 C2734 1.385 . S
C2731 H2706 0.951 . S
C2731 C2729 1.388 . S
C2731 C2732 1.366 . S
C2732 C2731 1.366 . S
C2732 C2733 1.414 . S
C2732 C2735 1.499 . S
C2733 H2707 0.950 . S
C2733 C2732 1.414 . S
C2733 C2734 1.374 . S
C2734 H2708 0.950 . S
C2734 C2730 1.385 . S
C2734 C2733 1.374 . S
C2735 C2732 1.499 . S
C2735 C2736 1.373 . S
C2735 C2737 1.389 . S
C2736 H2709 0.950 . S
C2736 C2722 1.377 . S
C2736 C2735 1.373 . S
C2737 C2721 1.377 . S
C2737 C2735 1.389 . S
C2737 C2738 1.524 . S
C2738 C2737 1.524 . S
C2738 C2739 1.397 . S
C2738 C2743 1.363 . S
C2739 H2710 0.950 . S
C2739 C2738 1.397 . S
C2739 C2740 1.334 . S
C2740 H2711 0.950 . S
C2740 C2739 1.334 . S
C2740 C2741 1.287 . S
C2741 C2740 1.287 . S
C2741 C2742 1.524 . S
C2741 H2744 0.999 . S
C2742 H2712 0.950 . S
C2742 C2741 1.524 . S
C2742 C2743 1.415 . S
C2743 H2713 0.950 . S
C2743 C2738 1.363 . S
C2743 C2742 1.415 . S
H2744 C2741 0.999 . S
H2745 C2726 0.913 . S
H2746 C2764 0.951 . S
H2747 C2766 0.951 . S
H2748 C2768 0.950 . S
H2749 C2769 0.950 . S
H2750 C2771 0.950 . S
H2751 C2774 0.950 . S
H2752 C2775 0.950 . S
H2753 C2777 0.950 . S
H2754 C2778 0.950 . S
H2755 C2779 0.951 . S
H2756 C2781 0.951 . S
H2757 C2783 0.950 . S
H2758 C2784 0.950 . S
H2759 C2786 0.950 . S
H2760 C2789 0.950 . S
H2761 C2790 0.950 . S
H2762 C2792 0.950 . S
H2763 C2793 0.950 . S
C2764 H2746 0.951 . S
C2764 C2765 1.366 . S
C2764 C2766 1.388 . S
C2765 C2764 1.366 . S
C2765 C2769 1.385 . S
C2766 H2747 0.951 . S
C2766 C2764 1.388 . S
C2766 C2767 1.366 . S
C2767 C2766 1.366 . S
C2767 C2768 1.414 . S
C2767 C2770 1.499 . S
C2768 H2748 0.950 . S
C2768 C2767 1.414 . S
C2768 C2769 1.374 . S
C2769 H2749 0.950 . S
C2769 C2765 1.385 . S
C2769 C2768 1.374 . S
C2770 C2767 1.499 . S
C2770 C2771 1.373 . S
C2770 C2772 1.389 . S
C2771 H2750 0.950 . S
C2771 C2770 1.373 . S
C2771 C2787 1.377 . S
C2772 C2770 1.389 . S
C2772 C2773 1.524 . S
C2772 C2786 1.377 . S
C2773 C2772 1.524 . S
C2773 C2774 1.397 . S
C2773 C2778 1.363 . S
C2774 H2751 0.950 . S
C2774 C2773 1.397 . S
C2774 C2775 1.334 . S
C2775 H2752 0.950 . S
C2775 C2774 1.334 . S
C2775 C2776 1.287 . S
C2776 C2775 1.287 . S
C2776 C2777 1.524 . S
C2776 H2795 0.913 . S
C2777 H2753 0.950 . S
C2777 C2776 1.524 . S
C2777 C2778 1.415 . S
C2778 H2754 0.950 . S
C2778 C2773 1.363 . S
C2778 C2777 1.415 . S
C2779 H2755 0.951 . S
C2779 C2780 1.366 . S
C2779 C2781 1.388 . S
C2780 C2779 1.366 . S
C2780 C2784 1.385 . S
C2781 H2756 0.951 . S
C2781 C2779 1.388 . S
C2781 C2782 1.366 . S
C2782 C2781 1.366 . S
C2782 C2783 1.414 . S
C2782 C2785 1.499 . S
C2783 H2757 0.950 . S
C2783 C2782 1.414 . S
C2783 C2784 1.374 . S
C2784 H2758 0.950 . S
C2784 C2780 1.385 . S
C2784 C2783 1.374 . S
C2785 C2782 1.499 . S
C2785 C2786 1.373 . S
C2785 C2787 1.389 . S
C2786 H2759 0.950 . S
C2786 C2772 1.377 . S
C2786 C2785 1.373 . S
C2787 C2771 1.377 . S
C2787 C2785 1.389 . S
C2787 C2788 1.524 . S
C2788 C2787 1.524 . S
C2788 C2789 1.397 . S
C2788 C2793 1.363 . S
C2789 H2760 0.950 . S
C2789 C2788 1.397 . S
C2789 C2790 1.334 . S
C2790 H2761 0.950 . S
C2790 C2789 1.334 . S
C2790 C2791 1.287 . S
C2791 C2790 1.287 . S
C2791 C2792 1.524 . S
C2791 H2794 0.999 . S
C2792 H2762 0.950 . S
C2792 C2791 1.524 . S
C2792 C2793 1.415 . S
C2793 H2763 0.950 . S
C2793 C2788 1.363 . S
C2793 C2792 1.415 . S
H2794 C2791 0.999 . S
H2795 C2776 0.913 . S
H2796 C2814 0.951 . S
H2797 C2816 0.951 . S
H2798 C2818 0.950 . S
H2799 C2819 0.950 . S
H2800 C2821 0.950 . S
H2801 C2824 0.950 . S
H2802 C2825 0.950 . S
H2803 C2827 0.950 . S
H2804 C2828 0.950 . S
H2805 C2829 0.951 . S
H2806 C2831 0.951 . S
H2807 C2833 0.950 . S
H2808 C2834 0.950 . S
H2809 C2836 0.950 . S
H2810 C2839 0.950 . S
H2811 C2840 0.950 . S
H2812 C2842 0.950 . S
H2813 C2843 0.950 . S
C2814 H2796 0.951 . S
C2814 C2815 1.366 . S
C2814 C2816 1.388 . S
C2815 C2814 1.366 . S
C2815 C2819 1.385 . S
C2816 H2797 0.951 . S
C2816 C2814 1.388 . S
C2816 C2817 1.366 . S
C2817 C2816 1.366 . S
C2817 C2818 1.414 . S
C2817 C2820 1.499 . S
C2818 H2798 0.950 . S
C2818 C2817 1.414 . S
C2818 C2819 1.374 . S
C2819 H2799 0.950 . S
C2819 C2815 1.385 . S
C2819 C2818 1.374 . S
C2820 C2817 1.499 . S
C2820 C2821 1.373 . S
C2820 C2822 1.389 . S
C2821 H2800 0.950 . S
C2821 C2820 1.373 . S
C2821 C2837 1.377 . S
C2822 C2820 1.389 . S
C2822 C2823 1.524 . S
C2822 C2836 1.377 . S
C2823 C2822 1.524 . S
C2823 C2824 1.397 . S
C2823 C2828 1.363 . S
C2824 H2801 0.950 . S
C2824 C2823 1.397 . S
C2824 C2825 1.334 . S
C2825 H2802 0.950 . S
C2825 C2824 1.334 . S
C2825 C2826 1.287 . S
C2826 C2825 1.287 . S
C2826 C2827 1.524 . S
C2826 H2845 0.913 . S
C2827 H2803 0.950 . S
C2827 C2826 1.524 . S
C2827 C2828 1.415 . S
C2828 H2804 0.950 . S
C2828 C2823 1.363 . S
C2828 C2827 1.415 . S
C2829 H2805 0.951 . S
C2829 C2830 1.366 . S
C2829 C2831 1.388 . S
C2830 C2829 1.366 . S
C2830 C2834 1.385 . S
C2831 H2806 0.951 . S
C2831 C2829 1.388 . S
C2831 C2832 1.366 . S
C2832 C2831 1.366 . S
C2832 C2833 1.414 . S
C2832 C2835 1.499 . S
C2833 H2807 0.950 . S
C2833 C2832 1.414 . S
C2833 C2834 1.374 . S
C2834 H2808 0.950 . S
C2834 C2830 1.385 . S
C2834 C2833 1.374 . S
C2835 C2832 1.499 . S
C2835 C2836 1.373 . S
C2835 C2837 1.389 . S
C2836 H2809 0.950 . S
C2836 C2822 1.377 . S
C2836 C2835 1.373 . S
C2837 C2821 1.377 . S
C2837 C2835 1.389 . S
C2837 C2838 1.524 . S
C2838 C2837 1.524 . S
C2838 C2839 1.397 . S
C2838 C2843 1.363 . S
C2839 H2810 0.950 . S
C2839 C2838 1.397 . S
C2839 C2840 1.334 . S
C2840 H2811 0.950 . S
C2840 C2839 1.334 . S
C2840 C2841 1.287 . S
C2841 C2840 1.287 . S
C2841 C2842 1.524 . S
C2841 H2844 0.999 . S
C2842 H2812 0.950 . S
C2842 C2841 1.524 . S
C2842 C2843 1.415 . S
C2843 H2813 0.950 . S
C2843 C2838 1.363 . S
C2843 C2842 1.415 . S
H2844 C2841 0.999 . S
H2845 C2826 0.913 . S
H2846 C2864 0.951 . S
H2847 C2866 0.951 . S
H2848 C2868 0.950 . S
H2849 C2869 0.950 . S
H2850 C2871 0.950 . S
H2851 C2874 0.950 . S
H2852 C2875 0.950 . S
H2853 C2877 0.950 . S
H2854 C2878 0.950 . S
H2855 C2879 0.951 . S
H2856 C2881 0.951 . S
H2857 C2883 0.950 . S
H2858 C2884 0.950 . S
H2859 C2886 0.950 . S
H2860 C2889 0.950 . S
H2861 C2890 0.950 . S
H2862 C2892 0.950 . S
H2863 C2893 0.950 . S
C2864 H2846 0.951 . S
C2864 C2865 1.366 . S
C2864 C2866 1.388 . S
C2865 C2864 1.366 . S
C2865 C2869 1.385 . S
C2866 H2847 0.951 . S
C2866 C2864 1.388 . S
C2866 C2867 1.366 . S
C2867 C2866 1.366 . S
C2867 C2868 1.414 . S
C2867 C2870 1.499 . S
C2868 H2848 0.950 . S
C2868 C2867 1.414 . S
C2868 C2869 1.374 . S
C2869 H2849 0.950 . S
C2869 C2865 1.385 . S
C2869 C2868 1.374 . S
C2870 C2867 1.499 . S
C2870 C2871 1.373 . S
C2870 C2872 1.389 . S
C2871 H2850 0.950 . S
C2871 C2870 1.373 . S
C2871 C2887 1.377 . S
C2872 C2870 1.389 . S
C2872 C2873 1.524 . S
C2872 C2886 1.377 . S
C2873 C2872 1.524 . S
C2873 C2874 1.397 . S
C2873 C2878 1.363 . S
C2874 H2851 0.950 . S
C2874 C2873 1.397 . S
C2874 C2875 1.334 . S
C2875 H2852 0.950 . S
C2875 C2874 1.334 . S
C2875 C2876 1.287 . S
C2876 C2875 1.287 . S
C2876 C2877 1.524 . S
C2876 H2895 0.913 . S
C2877 H2853 0.950 . S
C2877 C2876 1.524 . S
C2877 C2878 1.415 . S
C2878 H2854 0.950 . S
C2878 C2873 1.363 . S
C2878 C2877 1.415 . S
C2879 H2855 0.951 . S
C2879 C2880 1.366 . S
C2879 C2881 1.388 . S
C2880 C2879 1.366 . S
C2880 C2884 1.385 . S
C2881 H2856 0.951 . S
C2881 C2879 1.388 . S
C2881 C2882 1.366 . S
C2882 C2881 1.366 . S
C2882 C2883 1.414 . S
C2882 C2885 1.499 . S
C2883 H2857 0.950 . S
C2883 C2882 1.414 . S
C2883 C2884 1.374 . S
C2884 H2858 0.950 . S
C2884 C2880 1.385 . S
C2884 C2883 1.374 . S
C2885 C2882 1.499 . S
C2885 C2886 1.373 . S
C2885 C2887 1.389 . S
C2886 H2859 0.950 . S
C2886 C2872 1.377 . S
C2886 C2885 1.373 . S
C2887 C2871 1.377 . S
C2887 C2885 1.389 . S
C2887 C2888 1.524 . S
C2888 C2887 1.524 . S
C2888 C2889 1.397 . S
C2888 C2893 1.363 . S
C2889 H2860 0.950 . S
C2889 C2888 1.397 . S
C2889 C2890 1.334 . S
C2890 H2861 0.950 . S
C2890 C2889 1.334 . S
C2890 C2891 1.287 . S
C2891 C2890 1.287 . S
C2891 C2892 1.524 . S
C2891 H2894 0.999 . S
C2892 H2862 0.950 . S
C2892 C2891 1.524 . S
C2892 C2893 1.415 . S
C2893 H2863 0.950 . S
C2893 C2888 1.363 . S
C2893 C2892 1.415 . S
H2894 C2891 0.999 . S
H2895 C2876 0.913 . S
H2896 C2914 0.951 . S
H2897 C2916 0.951 . S
H2898 C2918 0.950 . S
H2899 C2919 0.950 . S
H2900 C2921 0.950 . S
H2901 C2924 0.950 . S
H2902 C2925 0.950 . S
H2903 C2927 0.950 . S
H2904 C2928 0.950 . S
H2905 C2929 0.951 . S
H2906 C2931 0.951 . S
H2907 C2933 0.950 . S
H2908 C2934 0.950 . S
H2909 C2936 0.950 . S
H2910 C2939 0.950 . S
H2911 C2940 0.950 . S
H2912 C2942 0.950 . S
H2913 C2943 0.950 . S
C2914 H2896 0.951 . S
C2914 C2915 1.366 . S
C2914 C2916 1.388 . S
C2915 C2914 1.366 . S
C2915 C2919 1.385 . S
C2916 H2897 0.951 . S
C2916 C2914 1.388 . S
C2916 C2917 1.366 . S
C2917 C2916 1.366 . S
C2917 C2918 1.414 . S
C2917 C2920 1.499 . S
C2918 H2898 0.950 . S
C2918 C2917 1.414 . S
C2918 C2919 1.374 . S
C2919 H2899 0.950 . S
C2919 C2915 1.385 . S
C2919 C2918 1.374 . S
C2920 C2917 1.499 . S
C2920 C2921 1.373 . S
C2920 C2922 1.389 . S
C2921 H2900 0.950 . S
C2921 C2920 1.373 . S
C2921 C2937 1.377 . S
C2922 C2920 1.389 . S
C2922 C2923 1.524 . S
C2922 C2936 1.377 . S
C2923 C2922 1.524 . S
C2923 C2924 1.397 . S
C2923 C2928 1.363 . S
C2924 H2901 0.950 . S
C2924 C2923 1.397 . S
C2924 C2925 1.334 . S
C2925 H2902 0.950 . S
C2925 C2924 1.334 . S
C2925 C2926 1.287 . S
C2926 C2925 1.287 . S
C2926 C2927 1.524 . S
C2926 H2945 0.913 . S
C2927 H2903 0.950 . S
C2927 C2926 1.524 . S
C2927 C2928 1.415 . S
C2928 H2904 0.950 . S
C2928 C2923 1.363 . S
C2928 C2927 1.415 . S
C2929 H2905 0.951 . S
C2929 C2930 1.366 . S
C2929 C2931 1.388 . S
C2930 C2929 1.366 . S
C2930 C2934 1.385 . S
C2931 H2906 0.951 . S
C2931 C2929 1.388 . S
C2931 C2932 1.366 . S
C2932 C2931 1.366 . S
C2932 C2933 1.414 . S
C2932 C2935 1.499 . S
C2933 H2907 0.950 . S
C2933 C2932 1.414 . S
C2933 C2934 1.374 . S
C2934 H2908 0.950 . S
C2934 C2930 1.385 . S
C2934 C2933 1.374 . S
C2935 C2932 1.499 . S
C2935 C2936 1.373 . S
C2935 C2937 1.389 . S
C2936 H2909 0.950 . S
C2936 C2922 1.377 . S
C2936 C2935 1.373 . S
C2937 C2921 1.377 . S
C2937 C2935 1.389 . S
C2937 C2938 1.524 . S
C2938 C2937 1.524 . S
C2938 C2939 1.397 . S
C2938 C2943 1.363 . S
C2939 H2910 0.950 . S
C2939 C2938 1.397 . S
C2939 C2940 1.334 . S
C2940 H2911 0.950 . S
C2940 C2939 1.334 . S
C2940 C2941 1.287 . S
C2941 C2940 1.287 . S
C2941 C2942 1.524 . S
C2941 H2944 0.999 . S
C2942 H2912 0.950 . S
C2942 C2941 1.524 . S
C2942 C2943 1.415 . S
C2943 H2913 0.950 . S
C2943 C2938 1.363 . S
C2943 C2942 1.415 . S
H2944 C2941 0.999 . S
H2945 C2926 0.913 . S
H2946 C2964 0.951 . S
H2947 C2966 0.951 . S
H2948 C2968 0.950 . S
H2949 C2969 0.950 . S
H2950 C2971 0.950 . S
H2951 C2974 0.950 . S
H2952 C2975 0.950 . S
H2953 C2977 0.950 . S
H2954 C2978 0.950 . S
H2955 C2979 0.951 . S
H2956 C2981 0.951 . S
H2957 C2983 0.950 . S
H2958 C2984 0.950 . S
H2959 C2986 0.950 . S
H2960 C2989 0.950 . S
H2961 C2990 0.950 . S
H2962 C2992 0.950 . S
H2963 C2993 0.950 . S
C2964 H2946 0.951 . S
C2964 C2965 1.366 . S
C2964 C2966 1.388 . S
C2965 C2964 1.366 . S
C2965 C2969 1.385 . S
C2966 H2947 0.951 . S
C2966 C2964 1.388 . S
C2966 C2967 1.366 . S
C2967 C2966 1.366 . S
C2967 C2968 1.414 . S
C2967 C2970 1.499 . S
C2968 H2948 0.950 . S
C2968 C2967 1.414 . S
C2968 C2969 1.374 . S
C2969 H2949 0.950 . S
C2969 C2965 1.385 . S
C2969 C2968 1.374 . S
C2970 C2967 1.499 . S
C2970 C2971 1.373 . S
C2970 C2972 1.389 . S
C2971 H2950 0.950 . S
C2971 C2970 1.373 . S
C2971 C2987 1.377 . S
C2972 C2970 1.389 . S
C2972 C2973 1.524 . S
C2972 C2986 1.377 . S
C2973 C2972 1.524 . S
C2973 C2974 1.397 . S
C2973 C2978 1.363 . S
C2974 H2951 0.950 . S
C2974 C2973 1.397 . S
C2974 C2975 1.334 . S
C2975 H2952 0.950 . S
C2975 C2974 1.334 . S
C2975 C2976 1.287 . S
C2976 C2975 1.287 . S
C2976 C2977 1.524 . S
C2976 H2995 0.913 . S
C2977 H2953 0.950 . S
C2977 C2976 1.524 . S
C2977 C2978 1.415 . S
C2978 H2954 0.950 . S
C2978 C2973 1.363 . S
C2978 C2977 1.415 . S
C2979 H2955 0.951 . S
C2979 C2980 1.366 . S
C2979 C2981 1.388 . S
C2980 C2979 1.366 . S
C2980 C2984 1.385 . S
C2981 H2956 0.951 . S
C2981 C2979 1.388 . S
C2981 C2982 1.366 . S
C2982 C2981 1.366 . S
C2982 C2983 1.414 . S
C2982 C2985 1.499 . S
C2983 H2957 0.950 . S
C2983 C2982 1.414 . S
C2983 C2984 1.374 . S
C2984 H2958 0.950 . S
C2984 C2980 1.385 . S
C2984 C2983 1.374 . S
C2985 C2982 1.499 . S
C2985 C2986 1.373 . S
C2985 C2987 1.389 . S
C2986 H2959 0.950 . S
C2986 C2972 1.377 . S
C2986 C2985 1.373 . S
C2987 C2971 1.377 . S
C2987 C2985 1.389 . S
C2987 C2988 1.524 . S
C2988 C2987 1.524 . S
C2988 C2989 1.397 . S
C2988 C2993 1.363 . S
C2989 H2960 0.950 . S
C2989 C2988 1.397 . S
C2989 C2990 1.334 . S
C2990 H2961 0.950 . S
C2990 C2989 1.334 . S
C2990 C2991 1.287 . S
C2991 C2990 1.287 . S
C2991 C2992 1.524 . S
C2991 H2994 0.999 . S
C2992 H2962 0.950 . S
C2992 C2991 1.524 . S
C2992 C2993 1.415 . S
C2993 H2963 0.950 . S
C2993 C2988 1.363 . S
C2993 C2992 1.415 . S
H2994 C2991 0.999 . S
H2995 C2976 0.913 . S
H2996 C3014 0.951 . S
H2997 C3016 0.951 . S
H2998 C3018 0.950 . S
H2999 C3019 0.950 . S
H3000 C3021 0.950 . S
H3001 C3024 0.950 . S
H3002 C3025 0.950 . S
H3003 C3027 0.950 . S
H3004 C3028 0.950 . S
H3005 C3029 0.951 . S
H3006 C3031 0.951 . S
H3007 C3033 0.950 . S
H3008 C3034 0.950 . S
H3009 C3036 0.950 . S
H3010 C3039 0.950 . S
H3011 C3040 0.950 . S
H3012 C3042 0.950 . S
H3013 C3043 0.950 . S
C3014 H2996 0.951 . S
C3014 C3015 1.366 . S
C3014 C3016 1.388 . S
C3015 C3014 1.366 . S
C3015 C3019 1.385 . S
C3016 H2997 0.951 . S
C3016 C3014 1.388 . S
C3016 C3017 1.366 . S
C3017 C3016 1.366 . S
C3017 C3018 1.414 . S
C3017 C3020 1.499 . S
C3018 H2998 0.950 . S
C3018 C3017 1.414 . S
C3018 C3019 1.374 . S
C3019 H2999 0.950 . S
C3019 C3015 1.385 . S
C3019 C3018 1.374 . S
C3020 C3017 1.499 . S
C3020 C3021 1.373 . S
C3020 C3022 1.389 . S
C3021 H3000 0.950 . S
C3021 C3020 1.373 . S
C3021 C3037 1.377 . S
C3022 C3020 1.389 . S
C3022 C3023 1.524 . S
C3022 C3036 1.377 . S
C3023 C3022 1.524 . S
C3023 C3024 1.397 . S
C3023 C3028 1.363 . S
C3024 H3001 0.950 . S
C3024 C3023 1.397 . S
C3024 C3025 1.334 . S
C3025 H3002 0.950 . S
C3025 C3024 1.334 . S
C3025 C3026 1.287 . S
C3026 C3025 1.287 . S
C3026 C3027 1.524 . S
C3026 H3045 0.913 . S
C3027 H3003 0.950 . S
C3027 C3026 1.524 . S
C3027 C3028 1.415 . S
C3028 H3004 0.950 . S
C3028 C3023 1.363 . S
C3028 C3027 1.415 . S
C3029 H3005 0.951 . S
C3029 C3030 1.366 . S
C3029 C3031 1.388 . S
C3030 C3029 1.366 . S
C3030 C3034 1.385 . S
C3031 H3006 0.951 . S
C3031 C3029 1.388 . S
C3031 C3032 1.366 . S
C3032 C3031 1.366 . S
C3032 C3033 1.414 . S
C3032 C3035 1.499 . S
C3033 H3007 0.950 . S
C3033 C3032 1.414 . S
C3033 C3034 1.374 . S
C3034 H3008 0.950 . S
C3034 C3030 1.385 . S
C3034 C3033 1.374 . S
C3035 C3032 1.499 . S
C3035 C3036 1.373 . S
C3035 C3037 1.389 . S
C3036 H3009 0.950 . S
C3036 C3022 1.377 . S
C3036 C3035 1.373 . S
C3037 C3021 1.377 . S
C3037 C3035 1.389 . S
C3037 C3038 1.524 . S
C3038 C3037 1.524 . S
C3038 C3039 1.397 . S
C3038 C3043 1.363 . S
C3039 H3010 0.950 . S
C3039 C3038 1.397 . S
C3039 C3040 1.334 . S
C3040 H3011 0.950 . S
C3040 C3039 1.334 . S
C3040 C3041 1.287 . S
C3041 C3040 1.287 . S
C3041 C3042 1.524 . S
C3041 H3044 0.999 . S
C3042 H3012 0.950 . S
C3042 C3041 1.524 . S
C3042 C3043 1.415 . S
C3043 H3013 0.950 . S
C3043 C3038 1.363 . S
C3043 C3042 1.415 . S
H3044 C3041 0.999 . S
H3045 C3026 0.913 . S
H3046 C3064 0.951 . S
H3047 C3066 0.951 . S
H3048 C3068 0.950 . S
H3049 C3069 0.950 . S
H3050 C3071 0.950 . S
H3051 C3074 0.950 . S
H3052 C3075 0.950 . S
H3053 C3077 0.950 . S
H3054 C3078 0.950 . S
H3055 C3079 0.951 . S
H3056 C3081 0.951 . S
H3057 C3083 0.950 . S
H3058 C3084 0.950 . S
H3059 C3086 0.950 . S
H3060 C3089 0.950 . S
H3061 C3090 0.950 . S
H3062 C3092 0.950 . S
H3063 C3093 0.950 . S
C3064 H3046 0.951 . S
C3064 C3065 1.366 . S
C3064 C3066 1.388 . S
C3065 C3064 1.366 . S
C3065 C3069 1.385 . S
C3066 H3047 0.951 . S
C3066 C3064 1.388 . S
C3066 C3067 1.366 . S
C3067 C3066 1.366 . S
C3067 C3068 1.414 . S
C3067 C3070 1.499 . S
C3068 H3048 0.950 . S
C3068 C3067 1.414 . S
C3068 C3069 1.374 . S
C3069 H3049 0.950 . S
C3069 C3065 1.385 . S
C3069 C3068 1.374 . S
C3070 C3067 1.499 . S
C3070 C3071 1.373 . S
C3070 C3072 1.389 . S
C3071 H3050 0.950 . S
C3071 C3070 1.373 . S
C3071 C3087 1.377 . S
C3072 C3070 1.389 . S
C3072 C3073 1.524 . S
C3072 C3086 1.377 . S
C3073 C3072 1.524 . S
C3073 C3074 1.397 . S
C3073 C3078 1.363 . S
C3074 H3051 0.950 . S
C3074 C3073 1.397 . S
C3074 C3075 1.334 . S
C3075 H3052 0.950 . S
C3075 C3074 1.334 . S
C3075 C3076 1.287 . S
C3076 C3075 1.287 . S
C3076 C3077 1.524 . S
C3076 H3095 0.913 . S
C3077 H3053 0.950 . S
C3077 C3076 1.524 . S
C3077 C3078 1.415 . S
C3078 H3054 0.950 . S
C3078 C3073 1.363 . S
C3078 C3077 1.415 . S
C3079 H3055 0.951 . S
C3079 C3080 1.366 . S
C3079 C3081 1.388 . S
C3080 C3079 1.366 . S
C3080 C3084 1.385 . S
C3081 H3056 0.951 . S
C3081 C3079 1.388 . S
C3081 C3082 1.366 . S
C3082 C3081 1.366 . S
C3082 C3083 1.414 . S
C3082 C3085 1.499 . S
C3083 H3057 0.950 . S
C3083 C3082 1.414 . S
C3083 C3084 1.374 . S
C3084 H3058 0.950 . S
C3084 C3080 1.385 . S
C3084 C3083 1.374 . S
C3085 C3082 1.499 . S
C3085 C3086 1.373 . S
C3085 C3087 1.389 . S
C3086 H3059 0.950 . S
C3086 C3072 1.377 . S
C3086 C3085 1.373 . S
C3087 C3071 1.377 . S
C3087 C3085 1.389 . S
C3087 C3088 1.524 . S
C3088 C3087 1.524 . S
C3088 C3089 1.397 . S
C3088 C3093 1.363 . S
C3089 H3060 0.950 . S
C3089 C3088 1.397 . S
C3089 C3090 1.334 . S
C3090 H3061 0.950 . S
C3090 C3089 1.334 . S
C3090 C3091 1.287 . S
C3091 C3090 1.287 . S
C3091 C3092 1.524 . S
C3091 H3094 0.999 . S
C3092 H3062 0.950 . S
C3092 C3091 1.524 . S
C3092 C3093 1.415 . S
C3093 H3063 0.950 . S
C3093 C3088 1.363 . S
C3093 C3092 1.415 . S
H3094 C3091 0.999 . S
H3095 C3076 0.913 . S
H3096 C3114 0.951 . S
H3097 C3116 0.951 . S
H3098 C3118 0.950 . S
H3099 C3119 0.950 . S
H3100 C3121 0.950 . S
H3101 C3124 0.950 . S
H3102 C3125 0.950 . S
H3103 C3127 0.950 . S
H3104 C3128 0.950 . S
H3105 C3129 0.951 . S
H3106 C3131 0.951 . S
H3107 C3133 0.950 . S
H3108 C3134 0.950 . S
H3109 C3136 0.950 . S
H3110 C3139 0.950 . S
H3111 C3140 0.950 . S
H3112 C3142 0.950 . S
H3113 C3143 0.950 . S
C3114 H3096 0.951 . S
C3114 C3115 1.366 . S
C3114 C3116 1.388 . S
C3115 C3114 1.366 . S
C3115 C3119 1.385 . S
C3116 H3097 0.951 . S
C3116 C3114 1.388 . S
C3116 C3117 1.366 . S
C3117 C3116 1.366 . S
C3117 C3118 1.414 . S
C3117 C3120 1.499 . S
C3118 H3098 0.950 . S
C3118 C3117 1.414 . S
C3118 C3119 1.374 . S
C3119 H3099 0.950 . S
C3119 C3115 1.385 . S
C3119 C3118 1.374 . S
C3120 C3117 1.499 . S
C3120 C3121 1.373 . S
C3120 C3122 1.389 . S
C3121 H3100 0.950 . S
C3121 C3120 1.373 . S
C3121 C3137 1.377 . S
C3122 C3120 1.389 . S
C3122 C3123 1.524 . S
C3122 C3136 1.377 . S
C3123 C3122 1.524 . S
C3123 C3124 1.397 . S
C3123 C3128 1.363 . S
C3124 H3101 0.950 . S
C3124 C3123 1.397 . S
C3124 C3125 1.334 . S
C3125 H3102 0.950 . S
C3125 C3124 1.334 . S
C3125 C3126 1.287 . S
C3126 C3125 1.287 . S
C3126 C3127 1.524 . S
C3126 H3145 0.913 . S
C3127 H3103 0.950 . S
C3127 C3126 1.524 . S
C3127 C3128 1.415 . S
C3128 H3104 0.950 . S
C3128 C3123 1.363 . S
C3128 C3127 1.415 . S
C3129 H3105 0.951 . S
C3129 C3130 1.366 . S
C3129 C3131 1.388 . S
C3130 C3129 1.366 . S
C3130 C3134 1.385 . S
C3131 H3106 0.951 . S
C3131 C3129 1.388 . S
C3131 C3132 1.366 . S
C3132 C3131 1.366 . S
C3132 C3133 1.414 . S
C3132 C3135 1.499 . S
C3133 H3107 0.950 . S
C3133 C3132 1.414 . S
C3133 C3134 1.374 . S
C3134 H3108 0.950 . S
C3134 C3130 1.385 . S
C3134 C3133 1.374 . S
C3135 C3132 1.499 . S
C3135 C3136 1.373 . S
C3135 C3137 1.389 . S
C3136 H3109 0.950 . S
C3136 C3122 1.377 . S
C3136 C3135 1.373 . S
C3137 C3121 1.377 . S
C3137 C3135 1.389 . S
C3137 C3138 1.524 . S
C3138 C3137 1.524 . S
C3138 C3139 1.397 . S
C3138 C3143 1.363 . S
C3139 H3110 0.950 . S
C3139 C3138 1.397 . S
C3139 C3140 1.334 . S
C3140 H3111 0.950 . S
C3140 C3139 1.334 . S
C3140 C3141 1.287 . S
C3141 C3140 1.287 . S
C3141 C3142 1.524 . S
C3141 H3144 0.999 . S
C3142 H3112 0.950 . S
C3142 C3141 1.524 . S
C3142 C3143 1.415 . S
C3143 H3113 0.950 . S
C3143 C3138 1.363 . S
C3143 C3142 1.415 . S
H3144 C3141 0.999 . S
H3145 C3126 0.913 . S
H3146 C3164 0.951 . S
H3147 C3166 0.951 . S
H3148 C3168 0.950 . S
H3149 C3169 0.950 . S
H3150 C3171 0.950 . S
H3151 C3174 0.950 . S
H3152 C3175 0.950 . S
H3153 C3177 0.950 . S
H3154 C3178 0.950 . S
H3155 C3179 0.951 . S
H3156 C3181 0.951 . S
H3157 C3183 0.950 . S
H3158 C3184 0.950 . S
H3159 C3186 0.950 . S
H3160 C3189 0.950 . S
H3161 C3190 0.950 . S
H3162 C3192 0.950 . S
H3163 C3193 0.950 . S
C3164 H3146 0.951 . S
C3164 C3165 1.366 . S
C3164 C3166 1.388 . S
C3165 C3164 1.366 . S
C3165 C3169 1.385 . S
C3166 H3147 0.951 . S
C3166 C3164 1.388 . S
C3166 C3167 1.366 . S
C3167 C3166 1.366 . S
C3167 C3168 1.414 . S
C3167 C3170 1.499 . S
C3168 H3148 0.950 . S
C3168 C3167 1.414 . S
C3168 C3169 1.374 . S
C3169 H3149 0.950 . S
C3169 C3165 1.385 . S
C3169 C3168 1.374 . S
C3170 C3167 1.499 . S
C3170 C3171 1.373 . S
C3170 C3172 1.389 . S
C3171 H3150 0.950 . S
C3171 C3170 1.373 . S
C3171 C3187 1.377 . S
C3172 C3170 1.389 . S
C3172 C3173 1.524 . S
C3172 C3186 1.377 . S
C3173 C3172 1.524 . S
C3173 C3174 1.397 . S
C3173 C3178 1.363 . S
C3174 H3151 0.950 . S
C3174 C3173 1.397 . S
C3174 C3175 1.334 . S
C3175 H3152 0.950 . S
C3175 C3174 1.334 . S
C3175 C3176 1.287 . S
C3176 C3175 1.287 . S
C3176 C3177 1.524 . S
C3176 H3195 0.913 . S
C3177 H3153 0.950 . S
C3177 C3176 1.524 . S
C3177 C3178 1.415 . S
C3178 H3154 0.950 . S
C3178 C3173 1.363 . S
C3178 C3177 1.415 . S
C3179 H3155 0.951 . S
C3179 C3180 1.366 . S
C3179 C3181 1.388 . S
C3180 C3179 1.366 . S
C3180 C3184 1.385 . S
C3181 H3156 0.951 . S
C3181 C3179 1.388 . S
C3181 C3182 1.366 . S
C3182 C3181 1.366 . S
C3182 C3183 1.414 . S
C3182 C3185 1.499 . S
C3183 H3157 0.950 . S
C3183 C3182 1.414 . S
C3183 C3184 1.374 . S
C3184 H3158 0.950 . S
C3184 C3180 1.385 . S
C3184 C3183 1.374 . S
C3185 C3182 1.499 . S
C3185 C3186 1.373 . S
C3185 C3187 1.389 . S
C3186 H3159 0.950 . S
C3186 C3172 1.377 . S
C3186 C3185 1.373 . S
C3187 C3171 1.377 . S
C3187 C3185 1.389 . S
C3187 C3188 1.524 . S
C3188 C3187 1.524 . S
C3188 C3189 1.397 . S
C3188 C3193 1.363 . S
C3189 H3160 0.950 . S
C3189 C3188 1.397 . S
C3189 C3190 1.334 . S
C3190 H3161 0.950 . S
C3190 C3189 1.334 . S
C3190 C3191 1.287 . S
C3191 C3190 1.287 . S
C3191 C3192 1.524 . S
C3191 H3194 0.999 . S
C3192 H3162 0.950 . S
C3192 C3191 1.524 . S
C3192 C3193 1.415 . S
C3193 H3163 0.950 . S
C3193 C3188 1.363 . S
C3193 C3192 1.415 . S
H3194 C3191 0.999 . S
H3195 C3176 0.913 . S
H3196 C3214 0.951 . S
H3197 C3216 0.951 . S
H3198 C3218 0.950 . S
H3199 C3219 0.950 . S
H3200 C3221 0.950 . S
H3201 C3224 0.950 . S
H3202 C3225 0.950 . S
H3203 C3227 0.950 . S
H3204 C3228 0.950 . S
H3205 C3229 0.951 . S
H3206 C3231 0.951 . S
H3207 C3233 0.950 . S
H3208 C3234 0.950 . S
H3209 C3236 0.950 . S
H3210 C3239 0.950 . S
H3211 C3240 0.950 . S
H3212 C3242 0.950 . S
H3213 C3243 0.950 . S
C3214 H3196 0.951 . S
C3214 C3215 1.366 . S
C3214 C3216 1.388 . S
C3215 C3214 1.366 . S
C3215 C3219 1.385 . S
C3216 H3197 0.951 . S
C3216 C3214 1.388 . S
C3216 C3217 1.366 . S
C3217 C3216 1.366 . S
C3217 C3218 1.414 . S
C3217 C3220 1.499 . S
C3218 H3198 0.950 . S
C3218 C3217 1.414 . S
C3218 C3219 1.374 . S
C3219 H3199 0.950 . S
C3219 C3215 1.385 . S
C3219 C3218 1.374 . S
C3220 C3217 1.499 . S
C3220 C3221 1.373 . S
C3220 C3222 1.389 . S
C3221 H3200 0.950 . S
C3221 C3220 1.373 . S
C3221 C3237 1.377 . S
C3222 C3220 1.389 . S
C3222 C3223 1.524 . S
C3222 C3236 1.377 . S
C3223 C3222 1.524 . S
C3223 C3224 1.397 . S
C3223 C3228 1.363 . S
C3224 H3201 0.950 . S
C3224 C3223 1.397 . S
C3224 C3225 1.334 . S
C3225 H3202 0.950 . S
C3225 C3224 1.334 . S
C3225 C3226 1.287 . S
C3226 C3225 1.287 . S
C3226 C3227 1.524 . S
C3226 H3245 0.913 . S
C3227 H3203 0.950 . S
C3227 C3226 1.524 . S
C3227 C3228 1.415 . S
C3228 H3204 0.950 . S
C3228 C3223 1.363 . S
C3228 C3227 1.415 . S
C3229 H3205 0.951 . S
C3229 C3230 1.366 . S
C3229 C3231 1.388 . S
C3230 C3229 1.366 . S
C3230 C3234 1.385 . S
C3231 H3206 0.951 . S
C3231 C3229 1.388 . S
C3231 C3232 1.366 . S
C3232 C3231 1.366 . S
C3232 C3233 1.414 . S
C3232 C3235 1.499 . S
C3233 H3207 0.950 . S
C3233 C3232 1.414 . S
C3233 C3234 1.374 . S
C3234 H3208 0.950 . S
C3234 C3230 1.385 . S
C3234 C3233 1.374 . S
C3235 C3232 1.499 . S
C3235 C3236 1.373 . S
C3235 C3237 1.389 . S
C3236 H3209 0.950 . S
C3236 C3222 1.377 . S
C3236 C3235 1.373 . S
C3237 C3221 1.377 . S
C3237 C3235 1.389 . S
C3237 C3238 1.524 . S
C3238 C3237 1.524 . S
C3238 C3239 1.397 . S
C3238 C3243 1.363 . S
C3239 H3210 0.950 . S
C3239 C3238 1.397 . S
C3239 C3240 1.334 . S
C3240 H3211 0.950 . S
C3240 C3239 1.334 . S
C3240 C3241 1.287 . S
C3241 C3240 1.287 . S
C3241 C3242 1.524 . S
C3241 H3244 0.999 . S
C3242 H3212 0.950 . S
C3242 C3241 1.524 . S
C3242 C3243 1.415 . S
C3243 H3213 0.950 . S
C3243 C3238 1.363 . S
C3243 C3242 1.415 . S
H3244 C3241 0.999 . S
H3245 C3226 0.913 . S
H3246 C3264 0.951 . S
H3247 C3266 0.951 . S
H3248 C3268 0.950 . S
H3249 C3269 0.950 . S
H3250 C3271 0.950 . S
H3251 C3274 0.950 . S
H3252 C3275 0.950 . S
H3253 C3277 0.950 . S
H3254 C3278 0.950 . S
H3255 C3279 0.951 . S
H3256 C3281 0.951 . S
H3257 C3283 0.950 . S
H3258 C3284 0.950 . S
H3259 C3286 0.950 . S
H3260 C3289 0.950 . S
H3261 C3290 0.950 . S
H3262 C3292 0.950 . S
H3263 C3293 0.950 . S
C3264 H3246 0.951 . S
C3264 C3265 1.366 . S
C3264 C3266 1.388 . S
C3265 C3264 1.366 . S
C3265 C3269 1.385 . S
C3266 H3247 0.951 . S
C3266 C3264 1.388 . S
C3266 C3267 1.366 . S
C3267 C3266 1.366 . S
C3267 C3268 1.414 . S
C3267 C3270 1.499 . S
C3268 H3248 0.950 . S
C3268 C3267 1.414 . S
C3268 C3269 1.374 . S
C3269 H3249 0.950 . S
C3269 C3265 1.385 . S
C3269 C3268 1.374 . S
C3270 C3267 1.499 . S
C3270 C3271 1.373 . S
C3270 C3272 1.389 . S
C3271 H3250 0.950 . S
C3271 C3270 1.373 . S
C3271 C3287 1.377 . S
C3272 C3270 1.389 . S
C3272 C3273 1.524 . S
C3272 C3286 1.377 . S
C3273 C3272 1.524 . S
C3273 C3274 1.397 . S
C3273 C3278 1.363 . S
C3274 H3251 0.950 . S
C3274 C3273 1.397 . S
C3274 C3275 1.334 . S
C3275 H3252 0.950 . S
C3275 C3274 1.334 . S
C3275 C3276 1.287 . S
C3276 C3275 1.287 . S
C3276 C3277 1.524 . S
C3276 H3295 0.913 . S
C3277 H3253 0.950 . S
C3277 C3276 1.524 . S
C3277 C3278 1.415 . S
C3278 H3254 0.950 . S
C3278 C3273 1.363 . S
C3278 C3277 1.415 . S
C3279 H3255 0.951 . S
C3279 C3280 1.366 . S
C3279 C3281 1.388 . S
C3280 C3279 1.366 . S
C3280 C3284 1.385 . S
C3281 H3256 0.951 . S
C3281 C3279 1.388 . S
C3281 C3282 1.366 . S
C3282 C3281 1.366 . S
C3282 C3283 1.414 . S
C3282 C3285 1.499 . S
C3283 H3257 0.950 . S
C3283 C3282 1.414 . S
C3283 C3284 1.374 . S
C3284 H3258 0.950 . S
C3284 C3280 1.385 . S
C3284 C3283 1.374 . S
C3285 C3282 1.499 . S
C3285 C3286 1.373 . S
C3285 C3287 1.389 . S
C3286 H3259 0.950 . S
C3286 C3272 1.377 . S
C3286 C3285 1.373 . S
C3287 C3271 1.377 . S
C3287 C3285 1.389 . S
C3287 C3288 1.524 . S
C3288 C3287 1.524 . S
C3288 C3289 1.397 . S
C3288 C3293 1.363 . S
C3289 H3260 0.950 . S
C3289 C3288 1.397 . S
C3289 C3290 1.334 . S
C3290 H3261 0.950 . S
C3290 C3289 1.334 . S
C3290 C3291 1.287 . S
C3291 C3290 1.287 . S
C3291 C3292 1.524 . S
C3291 H3294 0.999 . S
C3292 H3262 0.950 . S
C3292 C3291 1.524 . S
C3292 C3293 1.415 . S
C3293 H3263 0.950 . S
C3293 C3288 1.363 . S
C3293 C3292 1.415 . S
H3294 C3291 0.999 . S
H3295 C3276 0.913 . S
H3296 C3314 0.951 . S
H3297 C3316 0.951 . S
H3298 C3318 0.950 . S
H3299 C3319 0.950 . S
H3300 C3321 0.950 . S
H3301 C3324 0.950 . S
H3302 C3325 0.950 . S
H3303 C3327 0.950 . S
H3304 C3328 0.950 . S
H3305 C3329 0.951 . S
H3306 C3331 0.951 . S
H3307 C3333 0.950 . S
H3308 C3334 0.950 . S
H3309 C3336 0.950 . S
H3310 C3339 0.950 . S
H3311 C3340 0.950 . S
H3312 C3342 0.950 . S
H3313 C3343 0.950 . S
C3314 H3296 0.951 . S
C3314 C3315 1.366 . S
C3314 C3316 1.388 . S
C3315 C3314 1.366 . S
C3315 C3319 1.385 . S
C3316 H3297 0.951 . S
C3316 C3314 1.388 . S
C3316 C3317 1.366 . S
C3317 C3316 1.366 . S
C3317 C3318 1.414 . S
C3317 C3320 1.499 . S
C3318 H3298 0.950 . S
C3318 C3317 1.414 . S
C3318 C3319 1.374 . S
C3319 H3299 0.950 . S
C3319 C3315 1.385 . S
C3319 C3318 1.374 . S
C3320 C3317 1.499 . S
C3320 C3321 1.373 . S
C3320 C3322 1.389 . S
C3321 H3300 0.950 . S
C3321 C3320 1.373 . S
C3321 C3337 1.377 . S
C3322 C3320 1.389 . S
C3322 C3323 1.524 . S
C3322 C3336 1.377 . S
C3323 C3322 1.524 . S
C3323 C3324 1.397 . S
C3323 C3328 1.363 . S
C3324 H3301 0.950 . S
C3324 C3323 1.397 . S
C3324 C3325 1.334 . S
C3325 H3302 0.950 . S
C3325 C3324 1.334 . S
C3325 C3326 1.287 . S
C3326 C3325 1.287 . S
C3326 C3327 1.524 . S
C3326 H3345 0.913 . S
C3327 H3303 0.950 . S
C3327 C3326 1.524 . S
C3327 C3328 1.415 . S
C3328 H3304 0.950 . S
C3328 C3323 1.363 . S
C3328 C3327 1.415 . S
C3329 H3305 0.951 . S
C3329 C3330 1.366 . S
C3329 C3331 1.388 . S
C3330 C3329 1.366 . S
C3330 C3334 1.385 . S
C3331 H3306 0.951 . S
C3331 C3329 1.388 . S
C3331 C3332 1.366 . S
C3332 C3331 1.366 . S
C3332 C3333 1.414 . S
C3332 C3335 1.499 . S
C3333 H3307 0.950 . S
C3333 C3332 1.414 . S
C3333 C3334 1.374 . S
C3334 H3308 0.950 . S
C3334 C3330 1.385 . S
C3334 C3333 1.374 . S
C3335 C3332 1.499 . S
C3335 C3336 1.373 . S
C3335 C3337 1.389 . S
C3336 H3309 0.950 . S
C3336 C3322 1.377 . S
C3336 C3335 1.373 . S
C3337 C3321 1.377 . S
C3337 C3335 1.389 . S
C3337 C3338 1.524 . S
C3338 C3337 1.524 . S
C3338 C3339 1.397 . S
C3338 C3343 1.363 . S
C3339 H3310 0.950 . S
C3339 C3338 1.397 . S
C3339 C3340 1.334 . S
C3340 H3311 0.950 . S
C3340 C3339 1.334 . S
C3340 C3341 1.287 . S
C3341 C3340 1.287 . S
C3341 C3342 1.524 . S
C3341 H3344 0.999 . S
C3342 H3312 0.950 . S
C3342 C3341 1.524 . S
C3342 C3343 1.415 . S
C3343 H3313 0.950 . S
C3343 C3338 1.363 . S
C3343 C3342 1.415 . S
H3344 C3341 0.999 . S
H3345 C3326 0.913 . S
H3346 C3364 0.951 . S
H3347 C3366 0.951 . S
H3348 C3368 0.950 . S
H3349 C3369 0.950 . S
H3350 C3371 0.950 . S
H3351 C3374 0.950 . S
H3352 C3375 0.950 . S
H3353 C3377 0.950 . S
H3354 C3378 0.950 . S
H3355 C3379 0.951 . S
H3356 C3381 0.951 . S
H3357 C3383 0.950 . S
H3358 C3384 0.950 . S
H3359 C3386 0.950 . S
H3360 C3389 0.950 . S
H3361 C3390 0.950 . S
H3362 C3392 0.950 . S
H3363 C3393 0.950 . S
C3364 H3346 0.951 . S
C3364 C3365 1.366 . S
C3364 C3366 1.388 . S
C3365 C3364 1.366 . S
C3365 C3369 1.385 . S
C3366 H3347 0.951 . S
C3366 C3364 1.388 . S
C3366 C3367 1.366 . S
C3367 C3366 1.366 . S
C3367 C3368 1.414 . S
C3367 C3370 1.499 . S
C3368 H3348 0.950 . S
C3368 C3367 1.414 . S
C3368 C3369 1.374 . S
C3369 H3349 0.950 . S
C3369 C3365 1.385 . S
C3369 C3368 1.374 . S
C3370 C3367 1.499 . S
C3370 C3371 1.373 . S
C3370 C3372 1.389 . S
C3371 H3350 0.950 . S
C3371 C3370 1.373 . S
C3371 C3387 1.377 . S
C3372 C3370 1.389 . S
C3372 C3373 1.524 . S
C3372 C3386 1.377 . S
C3373 C3372 1.524 . S
C3373 C3374 1.397 . S
C3373 C3378 1.363 . S
C3374 H3351 0.950 . S
C3374 C3373 1.397 . S
C3374 C3375 1.334 . S
C3375 H3352 0.950 . S
C3375 C3374 1.334 . S
C3375 C3376 1.287 . S
C3376 C3375 1.287 . S
C3376 C3377 1.524 . S
C3376 H3395 0.913 . S
C3377 H3353 0.950 . S
C3377 C3376 1.524 . S
C3377 C3378 1.415 . S
C3378 H3354 0.950 . S
C3378 C3373 1.363 . S
C3378 C3377 1.415 . S
C3379 H3355 0.951 . S
C3379 C3380 1.366 . S
C3379 C3381 1.388 . S
C3380 C3379 1.366 . S
C3380 C3384 1.385 . S
C3381 H3356 0.951 . S
C3381 C3379 1.388 . S
C3381 C3382 1.366 . S
C3382 C3381 1.366 . S
C3382 C3383 1.414 . S
C3382 C3385 1.499 . S
C3383 H3357 0.950 . S
C3383 C3382 1.414 . S
C3383 C3384 1.374 . S
C3384 H3358 0.950 . S
C3384 C3380 1.385 . S
C3384 C3383 1.374 . S
C3385 C3382 1.499 . S
C3385 C3386 1.373 . S
C3385 C3387 1.389 . S
C3386 H3359 0.950 . S
C3386 C3372 1.377 . S
C3386 C3385 1.373 . S
C3387 C3371 1.377 . S
C3387 C3385 1.389 . S
C3387 C3388 1.524 . S
C3388 C3387 1.524 . S
C3388 C3389 1.397 . S
C3388 C3393 1.363 . S
C3389 H3360 0.950 . S
C3389 C3388 1.397 . S
C3389 C3390 1.334 . S
C3390 H3361 0.950 . S
C3390 C3389 1.334 . S
C3390 C3391 1.287 . S
C3391 C3390 1.287 . S
C3391 C3392 1.524 . S
C3391 H3394 0.999 . S
C3392 H3362 0.950 . S
C3392 C3391 1.524 . S
C3392 C3393 1.415 . S
C3393 H3363 0.950 . S
C3393 C3388 1.363 . S
C3393 C3392 1.415 . S
H3394 C3391 0.999 . S
H3395 C3376 0.913 . S
C1030 C707 1.316 . S
C1015 C74 1.286 . S
C1080 C685 1.666 . S
C1065 C153 1.598 . S
C1130 C682 0.696 . S
C1115 C231 0.701 . S
C1165 C310 0.619 . S
C1180 C694 0.373 . S
C1215 C394 1.596 . S
C1230 C677 1.659 . S
C1280 C699 0.697 . S
C1265 C494 0.701 . S
C1315 C573 0.619 . S
C1330 C704 0.370 . S
C1365 C651 1.284 . S
C1380 C700 1.314 . S
C1430 C758 2.781 . S
C1415 C56 2.848 . S
C1465 C151 1.282 . S
C1480 C808 1.276 . S
C1530 C731 1.675 . S
C1515 C237 1.591 . S
C1580 C807 0.711 . S
C1565 C326 0.718 . S
C1615 C410 0.700 . S
C1630 C736 0.696 . S
C1680 C802 2.777 . S
C1665 C476 2.846 . S
C1715 C571 1.295 . S
C1730 C761 1.290 . S
C1765 C657 1.598 . S
C1780 C793 1.684 . S
C1815 C58 1.604 . S
C1830 C785 1.686 . S
C1865 C392 1.293 . S
C1880 C815 1.287 . S
C1930 C739 1.690 . S
C1915 C478 1.605 . S
C1980 C790 0.724 . S
C1965 C567 0.727 . S
C2015 C655 2.853 . S
C2030 C748 2.783 . S
C2065 C235 2.861 . S
C2080 C812 2.795 . S
C2130 C754 1.297 . S
C2115 C308 1.302 . S
C2165 C147 0.716 . S
C2180 C753 0.710 . S
C2215 C662 1.287 . S
C2230 C869 1.316 . S
C2265 C405 1.599 . S
C2280 C847 1.665 . S
C2330 C844 0.696 . S
C2315 C483 0.701 . S
C2380 C856 0.374 . S
C2365 C562 0.620 . S
C2415 C142 1.596 . S
C2430 C839 1.659 . S
C2480 C861 0.698 . S
C2465 C242 0.701 . S
C2515 C321 0.615 . S
C2530 C866 0.370 . S
C2565 C63 1.285 . S
C2580 C862 1.314 . S
C2615 C644 2.848 . S
C2630 C920 2.780 . S
C2680 C970 1.276 . S
C2665 C403 1.282 . S
C2715 C489 1.591 . S
C2730 C893 1.674 . S
C2765 C578 0.717 . S
C2780 C969 0.712 . S
C2830 C898 0.696 . S
C2815 C158 0.700 . S
C2865 C224 2.846 . S
C2880 C964 2.777 . S
C2930 C923 1.290 . S
C2915 C319 1.295 . S
C2980 C955 1.684 . S
C2965 C69 1.598 . S
C3030 C947 1.686 . S
C3015 C646 1.603 . S
C3065 C140 1.293 . S
C3080 C977 1.288 . S
C3115 C226 1.604 . S
C3130 C901 1.690 . S
C3180 C952 0.724 . S
C3165 C315 0.728 . S
C3215 C67 2.853 . S
C3230 C910 2.782 . S
C3265 C487 2.861 . S
C3280 C974 2.795 . S
C3330 C916 1.297 . S
C3315 C560 1.302 . S
C3380 C915 0.710 . S
C3365 C399 0.716 . S
