# Generated by pormake.
# Topology anh, (6,3)-cn, num edge types: 1
# Building blocks:
#     Node 0, Type 0, BuildingBlock: VOLQOD_clean_sbu_1, # of connection points: 6
#     Node 1, Type 0, BuildingBlock: VOLQOD_clean_sbu_1, # of connection points: 6
#     Node 2, Type 0, BuildingBlock: VOLQOD_clean_sbu_1, # of connection points: 6
#     Node 3, Type 1, BuildingBlock: OLANEW_clean_sbu_2, # of connection points: 3
#     Node 4, Type 1, BuildingBlock: OLANEW_clean_sbu_2, # of connection points: 3
#     Node 5, Type 1, BuildingBlock: OLANEW_clean_sbu_2, # of connection points: 3
#     Node 6, Type 1, BuildingBlock: OLANEW_clean_sbu_2, # of connection points: 3
#     Node 7, Type 1, BuildingBlock: OLANEW_clean_sbu_2, # of connection points: 3
#     Node 8, Type 1, BuildingBlock: OLANEW_clean_sbu_2, # of connection points: 3
#     Edge 9, Type (0, 1), BuildingBlock: ZUJKAS_clean_linker_0, # of connection points: 2
#     Edge 10, Type (0, 1), BuildingBlock: ZUJKAS_clean_linker_0, # of connection points: 2
#     Edge 11, Type (0, 1), BuildingBlock: ZUJKAS_clean_linker_0, # of connection points: 2
#     Edge 12, Type (0, 1), BuildingBlock: ZUJKAS_clean_linker_0, # of connection points: 2
#     Edge 13, Type (0, 1), BuildingBlock: ZUJKAS_clean_linker_0, # of connection points: 2
#     Edge 14, Type (0, 1), BuildingBlock: ZUJKAS_clean_linker_0, # of connection points: 2
#     Edge 15, Type (0, 1), BuildingBlock: ZUJKAS_clean_linker_0, # of connection points: 2
#     Edge 16, Type (0, 1), BuildingBlock: ZUJKAS_clean_linker_0, # of connection points: 2
#     Edge 17, Type (0, 1), BuildingBlock: ZUJKAS_clean_linker_0, # of connection points: 2
#     Edge 18, Type (0, 1), BuildingBlock: ZUJKAS_clean_linker_0, # of connection points: 2
#     Edge 19, Type (0, 1), BuildingBlock: ZUJKAS_clean_linker_0, # of connection points: 2
#     Edge 20, Type (0, 1), BuildingBlock: ZUJKAS_clean_linker_0, # of connection points: 2
#     Edge 21, Type (0, 1), BuildingBlock: ZUJKAS_clean_linker_0, # of connection points: 2
#     Edge 22, Type (0, 1), BuildingBlock: ZUJKAS_clean_linker_0, # of connection points: 2
#     Edge 23, Type (0, 1), BuildingBlock: ZUJKAS_clean_linker_0, # of connection points: 2
#     Edge 24, Type (0, 1), BuildingBlock: ZUJKAS_clean_linker_0, # of connection points: 2
#     Edge 25, Type (0, 1), BuildingBlock: ZUJKAS_clean_linker_0, # of connection points: 2
#     Edge 26, Type (0, 1), BuildingBlock: ZUJKAS_clean_linker_0, # of connection points: 2
# Relax obj value: 0.154
# Max RMSD: 0.206
# Mean RMSD: 0.142
data_MOF--net-anh--node1-VOLQOD_clean_sbu_1--node2-OLANEW_clean_sbu_2--edge1-ZUJKAS_clean_linker_0
_symmetry_space_group_name_H-M    P1
_symmetry_Int_Tables_number       1
_symmetry_cell_setting            triclinic
loop_
_symmetry_equiv_pos_as_xyz
'x, y, z'
_cell_length_a     41.560687
_cell_length_b     41.381165
_cell_length_c     77.092869
_cell_angle_alpha  90.035095
_cell_angle_beta   89.59243
_cell_angle_gamma 120.36147
loop_
_atom_site_label
_atom_site_type_symbol
_atom_site_fract_x
_atom_site_fract_y
_atom_site_fract_z
_atom_type_partial_charge
O0 O 0.96902 0.52394 0.18675 0.0
Zn1 Zn -0.0287 0.5336 0.16099 0.0
O2 O -0.02406 0.49515 0.14807 0.0
Zn3 Zn 0.93341 0.46797 0.1328 0.0
Zn4 Zn -0.02172 0.4599 0.16433 0.0
Zn5 Zn 0.02085 0.519 0.13372 0.0
O6 O 0.94865 0.4719 0.10769 0.0
O7 O 0.00953 0.51206 0.10815 0.0
O8 O 0.92463 0.53448 0.15423 0.0
O9 O 0.89952 0.48908 0.13466 0.0
O10 O 0.90266 0.41374 0.13966 0.0
O11 O 0.93183 0.40871 0.16263 0.0
O12 O 0.02405 0.4553 0.15994 0.0
O13 O 0.01692 0.58488 0.15725 0.0
O14 O 0.05276 0.49676 0.1388 0.0
O15 O 0.05156 0.57397 0.1388 0.0
C16 C -0.02555 0.50158 0.19595 0.0
C17 C -0.02032 0.49149 0.09981 0.0
C18 C 0.90473 0.39451 0.15203 0.0
C19 C 0.89886 0.51475 0.1435 0.0
C20 C 0.05118 0.47223 0.14928 0.0
C21 C 0.04668 0.59633 0.1483 0.0
O22 O -0.02002 0.47685 0.18899 0.0
O23 O 0.4601 0.00463 0.45294 0.0
Zn24 Zn 0.44301 -0.00048 0.47785 0.0
O25 O 0.47655 -0.00766 0.4931 0.0
Zn26 Zn 0.50107 0.03427 0.50896 0.0
Zn27 Zn 0.51431 -0.01138 0.47921 0.0
Zn28 Zn 0.44799 0.94715 0.50696 0.0
O29 O 0.49575 0.01764 0.53385 0.0
O30 O 0.45197 0.95767 0.5326 0.0
O31 O 0.44029 0.04571 0.48464 0.0
O32 O 0.47818 0.06655 0.50731 0.0
O33 O 0.55542 0.06661 0.50294 0.0
O34 O 0.56559 0.03349 0.48328 0.0
O35 O 0.51462 0.94065 0.48435 0.0
O36 O 0.39112 0.95369 0.47866 0.0
O37 O 0.46781 0.91251 0.50323 0.0
O38 O 0.39418 0.91919 0.49995 0.0
C39 C 0.48358 -0.00171 0.44524 0.0
C40 C 0.47371 -0.01333 0.54133 0.0
C41 C 0.57731 0.0626 0.49269 0.0
C42 C 0.45549 0.06877 0.49708 0.0
C43 C 0.49387 0.91302 0.49423 0.0
C44 C 0.37589 0.92451 0.48823 0.0
O45 O 0.50461 -0.01008 0.4537 0.0
O46 O 0.44843 0.46175 0.78699 0.0
Zn47 Zn 0.43927 0.45185 0.81269 0.0
O48 O 0.48154 0.49042 0.82597 0.0
Zn49 Zn 0.46437 0.51591 0.84145 0.0
Zn50 Zn 0.51987 0.52689 0.81003 0.0
Zn51 Zn 0.50273 0.4672 0.84028 0.0
O52 O 0.4768 0.51376 0.86646 0.0
O53 O 0.49904 0.47511 0.86583 0.0
O54 O 0.39098 0.45041 0.81893 0.0
O55 O 0.40892 0.49224 0.84018 0.0
O56 O 0.48588 0.56963 0.83434 0.0
O57 O 0.52442 0.57779 0.81251 0.0
O58 O 0.57027 0.53157 0.81414 0.0
O59 O 0.4331 0.40061 0.81691 0.0
O60 O 0.55695 0.48918 0.8348 0.0
O61 O 0.47767 0.41207 0.83581 0.0
C62 C 0.4762 0.48552 0.77798 0.0
C63 C 0.48931 0.49531 0.87424 0.0
C64 C 0.50896 0.59033 0.82267 0.0
C65 C 0.38359 0.46769 0.83056 0.0
C66 C 0.5802 0.51417 0.82445 0.0
C67 C 0.45067 0.38941 0.82633 0.0
O68 O 0.50559 0.51118 0.78516 0.0
O69 O 0.49232 0.02898 0.2503 0.0
Cd70 Cd 0.48613 0.03177 0.21891 0.0
O71 O 0.46377 0.96747 0.25139 0.0
Cd72 Cd 0.44511 0.95853 0.2245 0.0
O73 O 0.40156 0.92718 0.20547 0.0
C74 C 0.36915 0.92132 0.20913 0.0
O75 O 0.36453 0.93617 0.22332 0.0
C76 C 0.48131 -0.00101 0.25894 0.0
C77 C 0.55429 0.08498 0.2043 0.0
O78 O 0.53138 0.09429 0.21042 0.0
O79 O 0.54482 0.05032 0.20488 0.0
O80 O 0.47247 0.47427 0.58196 0.0
Cd81 Cd 0.46864 0.47524 0.55028 0.0
O82 O 0.43132 0.49233 0.58528 0.0
Cd83 Cd 0.43301 0.50803 0.55811 0.0
O84 O 0.44398 0.55006 0.53826 0.0
C85 C 0.47756 0.57458 0.53468 0.0
O86 O 0.50461 0.57207 0.54206 0.0
C87 C 0.45202 0.48116 0.59182 0.0
C88 C 0.46052 0.40946 0.53612 0.0
O89 O 0.49264 0.43924 0.53699 0.0
O90 O 0.43219 0.41089 0.54176 0.0
O91 O -0.00081 0.50022 0.90381 0.0
Cd92 Cd -0.00429 0.4961 0.87215 0.0
O93 O 0.93914 0.46025 0.90669 0.0
Cd94 Cd 0.92666 0.46211 0.87939 0.0
O95 O 0.89596 0.47279 0.85955 0.0
C96 C 0.9059 0.50638 0.85555 0.0
O97 O 0.93635 0.53377 0.86243 0.0
C98 C -0.02897 0.48032 0.91348 0.0
C99 C 0.05193 0.4844 0.85939 0.0
O100 O 0.05623 0.51733 0.85977 0.0
O101 O 0.02082 0.45694 0.86475 0.0
O102 O -0.00651 0.51912 0.39108 0.0
Cd103 Cd -0.00346 0.51512 0.42259 0.0
O104 O 0.93223 0.4887 0.38988 0.0
Cd105 Cd 0.92351 0.47135 0.41708 0.0
O106 O 0.8942 0.42642 0.43608 0.0
C107 C 0.8949 0.39643 0.43349 0.0
O108 O 0.91496 0.39535 0.42049 0.0
C109 C 0.96377 0.50672 0.38232 0.0
C110 C 0.05359 0.58302 0.43545 0.0
O111 O 0.06025 0.55792 0.42966 0.0
O112 O 0.01977 0.57588 0.43541 0.0
O113 O 0.4457 0.95148 0.73622 0.0
Cd114 Cd 0.44253 0.94963 0.76788 0.0
O115 O 0.49073 0.01037 0.73556 0.0
Cd116 Cd 0.48422 0.0202 0.7628 0.0
O117 O 0.47105 0.05199 0.7812 0.0
C118 C 0.44363 0.05604 0.77729 0.0
O119 O 0.42414 0.03907 0.76343 0.0
C120 C 0.46955 0.97995 0.72767 0.0
C121 C 0.46198 0.89822 0.77983 0.0
O122 O 0.42796 0.88825 0.77667 0.0
O123 O 0.48681 0.93276 0.77765 0.0
O124 O 0.48517 0.4759 0.06973 0.0
Cd125 Cd 0.48082 0.47423 0.10139 0.0
O126 O 0.46833 0.51823 0.06738 0.0
Cd127 Cd 0.45121 0.51404 0.0945 0.0
O128 O 0.40854 0.50473 0.11371 0.0
C129 C 0.3839 0.4716 0.11804 0.0
O130 O 0.38646 0.44334 0.11191 0.0
C131 C 0.47964 0.4979 0.06038 0.0
C132 C 0.5492 0.48962 0.11488 0.0
O133 O 0.52329 0.45591 0.11189 0.0
O134 O 0.54246 0.51607 0.11184 0.0
H135 H 0.06271 0.42668 0.17133 0.0
H136 H 0.1154 0.41546 0.17093 0.0
H137 H 0.16195 0.48838 0.12651 0.0
H138 H 0.10984 0.49951 0.12667 0.0
H139 H 0.15902 0.41789 0.12372 0.0
H140 H 0.22492 0.49408 0.18482 0.0
H141 H 0.17633 0.45847 0.1855 0.0
H142 H 0.19089 0.50073 0.17343 0.0
C143 C 0.08414 0.44022 0.16146 0.0
C144 C 0.08207 0.4641 0.14907 0.0
C145 C 0.11427 0.43392 0.16131 0.0
C146 C 0.14265 0.45137 0.14878 0.0
C147 C 0.14033 0.47469 0.1363 0.0
H148 H 0.36673 0.5237 0.1294 0.0
H149 H 0.30641 0.51233 0.13998 0.0
C150 C 0.11047 0.48106 0.13645 0.0
C151 C 0.17517 0.44587 0.14834 0.0
H152 H 0.25847 0.47355 0.168 0.0
C153 C 0.18051 0.42936 0.13354 0.0
C154 C 0.20311 0.46115 0.16116 0.0
C155 C 0.19889 0.47982 0.17712 0.0
C156 C 0.2139 0.42939 0.13075 0.0
C157 C 0.24245 0.44582 0.14329 0.0
C158 C 0.23641 0.46078 0.15849 0.0
C159 C 0.28022 0.45193 0.13973 0.0
C160 C 0.21922 0.41404 0.11388 0.0
C161 C 0.28593 0.42174 0.13676 0.0
C162 C 0.3204 0.42813 0.13056 0.0
C163 C 0.34975 0.46486 0.12736 0.0
C164 C 0.34466 0.49506 0.13159 0.0
C165 C 0.3102 0.48862 0.1377 0.0
H166 H 0.19708 0.40851 0.10436 0.0
H167 H 0.2467 0.43385 0.10794 0.0
H168 H 0.21844 0.38726 0.11643 0.0
H169 H 0.26332 0.39322 0.13857 0.0
H170 H 0.32352 0.40426 0.12762 0.0
H171 H 0.60845 0.13325 0.50613 0.0
H172 H 0.66892 0.18747 0.49877 0.0
H173 H 0.69501 0.11779 0.46703 0.0
H174 H 0.63406 0.06341 0.47393 0.0
H175 H 0.74257 0.20621 0.50171 0.0
H176 H 0.70155 0.19505 0.43253 0.0
H177 H 0.66872 0.16807 0.44947 0.0
H178 H 0.70024 0.15403 0.44103 0.0
C179 C 0.62717 0.12925 0.49775 0.0
C180 C 0.61611 0.09403 0.4904 0.0
C181 C 0.66179 0.16033 0.49358 0.0
C182 C 0.68609 0.15683 0.48204 0.0
C183 C 0.67625 0.12128 0.47561 0.0
H184 H 0.88606 0.3269 0.42919 0.0
H185 H 0.83909 0.26831 0.44273 0.0
C186 C 0.64147 0.09018 0.47965 0.0
C187 C 0.72044 0.1908 0.47591 0.0
H188 H 0.76223 0.24282 0.43957 0.0
C189 C 0.74699 0.21417 0.48812 0.0
C190 C 0.72597 0.20127 0.45818 0.0
C191 C 0.6975 0.17853 0.44454 0.0
C192 C 0.77902 0.24769 0.48304 0.0
C193 C 0.78436 0.25814 0.46534 0.0
C194 C 0.75812 0.23453 0.45313 0.0
C195 C 0.81604 0.29416 0.45912 0.0
C196 C 0.80694 0.27162 0.4966 0.0
C197 C 0.81896 0.3282 0.46404 0.0
C198 C 0.84572 0.3618 0.45628 0.0
C199 C 0.8699 0.36188 0.44339 0.0
C200 C 0.86785 0.32787 0.43903 0.0
C201 C 0.84105 0.29433 0.44676 0.0
H202 H 0.80374 0.25551 0.50865 0.0
H203 H 0.8359 0.28354 0.49161 0.0
H204 H 0.80263 0.29524 0.49998 0.0
H205 H 0.79949 0.32859 0.47334 0.0
H206 H 0.84652 0.38748 0.45992 0.0
H207 H 0.55083 0.64111 0.79727 0.0
H208 H 0.554 0.70055 0.79079 0.0
H209 H 0.48318 0.68475 0.83495 0.0
H210 H 0.48032 0.62587 0.8417 0.0
H211 H 0.49391 0.70648 0.78234 0.0
H212 H 0.56222 0.79416 0.83979 0.0
H213 H 0.56394 0.75233 0.83499 0.0
H214 H 0.52374 0.74909 0.84568 0.0
C215 C 0.53658 0.65066 0.80583 0.0
C216 C 0.5152 0.62858 0.81997 0.0
C217 C 0.5384 0.68463 0.80209 0.0
C218 C 0.51917 0.6973 0.81249 0.0
C219 C 0.49894 0.676 0.82696 0.0
H220 H 0.41563 0.82325 0.78519 0.0
H221 H 0.43291 0.77674 0.79278 0.0
C222 C 0.49711 0.64211 0.83072 0.0
C223 C 0.51674 0.73047 0.80725 0.0
H224 H 0.52598 0.81233 0.82235 0.0
C225 C 0.50146 0.72989 0.79099 0.0
C226 C 0.52692 0.7612 0.81845 0.0
C227 C 0.54548 0.76448 0.83563 0.0
C228 C 0.49451 0.75835 0.78597 0.0
C229 C 0.50245 0.7878 0.79763 0.0
C230 C 0.51939 0.78939 0.81354 0.0
C231 C 0.49217 0.81645 0.79372 0.0
C232 C 0.47842 0.75645 0.76825 0.0
C233 C 0.51968 0.85439 0.79231 0.0
C234 C 0.50987 0.88115 0.78806 0.0
C235 C 0.47234 0.87038 0.78525 0.0
C236 C 0.4448 0.83246 0.78715 0.0
C237 C 0.45463 0.80579 0.7914 0.0
H238 H 0.48386 0.73874 0.75925 0.0
H239 H 0.44777 0.7439 0.76947 0.0
H240 H 0.49019 0.78482 0.76247 0.0
H241 H 0.54878 0.86318 0.79419 0.0
H242 H 0.53174 0.91015 0.78674 0.0
H243 H 0.88048 0.55864 0.16321 0.0
H244 H 0.82439 0.56383 0.1608 0.0
H245 H 0.78818 0.4885 0.11722 0.0
H246 H 0.84383 0.48331 0.11938 0.0
H247 H 0.7815 0.55342 0.11273 0.0
H248 H 0.71821 0.47729 0.17457 0.0
H249 H 0.76477 0.51701 0.17555 0.0
H250 H 0.75634 0.47587 0.16397 0.0
C251 C 0.8607 0.54342 0.15304 0.0
C252 C 0.86655 0.52036 0.14157 0.0
C253 C 0.82861 0.54627 0.15175 0.0
C254 C 0.80201 0.52619 0.13896 0.0
C255 C 0.80836 0.50413 0.12721 0.0
H256 H 0.57159 0.4395 0.12234 0.0
H257 H 0.63424 0.45307 0.12979 0.0
C258 C 0.84019 0.50115 0.12851 0.0
C259 C 0.7669 0.52703 0.13785 0.0
H260 H 0.68228 0.49443 0.1577 0.0
C261 C 0.75995 0.54106 0.12265 0.0
C262 C 0.73883 0.51048 0.15078 0.0
C263 C 0.74457 0.49403 0.16712 0.0
C264 C 0.72521 0.538 0.11979 0.0
C265 C 0.69689 0.52085 0.13258 0.0
C266 C 0.70419 0.50776 0.14799 0.0
C267 C 0.65857 0.51326 0.12948 0.0
C268 C 0.71849 0.55146 0.10274 0.0
C269 C 0.65135 0.54263 0.12723 0.0
C270 C 0.61552 0.53498 0.12293 0.0
C271 C 0.58633 0.49779 0.12086 0.0
C272 C 0.59345 0.46845 0.12376 0.0
C273 C 0.62922 0.47613 0.12806 0.0
H274 H 0.74086 0.55772 0.09308 0.0
H275 H 0.69133 0.53018 0.0972 0.0
H276 H 0.71752 0.57746 0.10493 0.0
H277 H 0.67354 0.57147 0.12852 0.0
H278 H 0.61092 0.55822 0.12087 0.0
H279 H 0.32697 0.86991 0.51035 0.0
H280 H 0.26753 0.8144 0.503 0.0
H281 H 0.27973 0.85352 0.45017 0.0
H282 H 0.33831 0.90991 0.45764 0.0
H283 H 0.20865 0.81991 0.45995 0.0
H284 H 0.26628 0.72946 0.47771 0.0
H285 H 0.26558 0.75691 0.49555 0.0
H286 H 0.29463 0.77976 0.47688 0.0
C287 C 0.31666 0.86695 0.49724 0.0
C288 C 0.3375 0.89406 0.48452 0.0
C289 C 0.28285 0.83506 0.49302 0.0
C290 C 0.26976 0.82916 0.4759 0.0
C291 C 0.28942 0.85727 0.46344 0.0
H292 H 0.12806 0.61341 0.42942 0.0
H293 H 0.17878 0.67388 0.43918 0.0
C294 C 0.32289 0.88955 0.46773 0.0
C295 C 0.23682 0.79299 0.47073 0.0
H296 H 0.20255 0.69862 0.4702 0.0
C297 C 0.20728 0.79336 0.46218 0.0
C298 C 0.23536 0.75838 0.47335 0.0
C299 C 0.2673 0.75602 0.4812 0.0
C300 C 0.17638 0.76015 0.45616 0.0
C301 C 0.1744 0.72546 0.45929 0.0
C302 C 0.20387 0.72514 0.46792 0.0
C303 C 0.143 0.68919 0.4531 0.0
C304 C 0.14691 0.76283 0.44599 0.0
C305 C 0.10591 0.67741 0.45774 0.0
C306 C 0.07674 0.64302 0.45191 0.0
C307 C 0.08423 0.6194 0.44169 0.0
C308 C 0.12139 0.63093 0.43733 0.0
C309 C 0.15042 0.66552 0.4429 0.0
H310 H 0.15782 0.79128 0.44041 0.0
H311 H 0.13614 0.74218 0.43526 0.0
H312 H 0.1233 0.75703 0.45476 0.0
H313 H 0.0995 0.69459 0.46601 0.0
H314 H 0.0484 0.63472 0.45561 0.0
H315 H 0.47881 0.35487 0.84618 0.0
H316 H 0.47097 0.29285 0.84192 0.0
H317 H 0.39545 0.27258 0.7998 0.0
H318 H 0.4028 0.33464 0.80401 0.0
H319 H 0.37487 0.20871 0.8233 0.0
H320 H 0.52069 0.27634 0.79834 0.0
H321 H 0.51493 0.29178 0.81932 0.0
H322 H 0.49576 0.30137 0.80053 0.0
C323 C 0.46013 0.33713 0.83614 0.0
C324 C 0.44182 0.34998 0.82527 0.0
C325 C 0.45574 0.30169 0.83373 0.0
C326 C 0.43314 0.2785 0.82038 0.0
C327 C 0.41313 0.29023 0.81014 0.0
H328 H 0.39198 0.07618 0.7699 0.0
H329 H 0.38664 0.12722 0.78265 0.0
C330 C 0.41742 0.32571 0.81256 0.0
C331 C 0.43274 0.24339 0.81625 0.0
H332 H 0.48787 0.21067 0.80061 0.0
C333 C 0.39954 0.209 0.81839 0.0
C334 C 0.46502 0.24402 0.80985 0.0
C335 C 0.5011 0.28031 0.80671 0.0
C336 C 0.39785 0.17504 0.81437 0.0
C337 C 0.43005 0.17573 0.80775 0.0
C338 C 0.4633 0.21017 0.80581 0.0
C339 C 0.42972 0.14153 0.80173 0.0
C340 C 0.36178 0.13879 0.8174 0.0
C341 C 0.45577 0.13256 0.80819 0.0
C342 C 0.45922 0.10361 0.80078 0.0
C343 C 0.43678 0.08322 0.7867 0.0
C344 C 0.40966 0.09126 0.78075 0.0
C345 C 0.40633 0.12028 0.78812 0.0
H346 H 0.34418 0.14206 0.82736 0.0
H347 H 0.3458 0.13001 0.80514 0.0
H348 H 0.36697 0.11617 0.8216 0.0
H349 H 0.47424 0.14876 0.81863 0.0
H350 H 0.48034 0.0981 0.80569 0.0
H351 H 0.46175 0.85525 0.51734 0.0
H352 H 0.47011 0.80126 0.51947 0.0
H353 H 0.54695 0.84233 0.47621 0.0
H354 H 0.53885 0.89706 0.47391 0.0
H355 H 0.48695 0.76212 0.4753 0.0
H356 H 0.56672 0.80352 0.5366 0.0
H357 H 0.52563 0.8075 0.5372 0.0
H358 H 0.56327 0.83671 0.52265 0.0
C359 C 0.48056 0.85305 0.50826 0.0
C360 C 0.49973 0.88062 0.49547 0.0
C361 C 0.48538 0.82218 0.50956 0.0
C362 C 0.50943 0.8181 0.49813 0.0
C363 C 0.52844 0.84522 0.48521 0.0
H364 H 0.54606 0.63483 0.52681 0.0
H365 H 0.55931 0.69451 0.51411 0.0
C366 C 0.52383 0.87644 0.48396 0.0
C367 C 0.51368 0.78485 0.49973 0.0
H368 H 0.53652 0.73847 0.52917 0.0
C369 C 0.49845 0.75713 0.4869 0.0
C370 C 0.52917 0.77871 0.51475 0.0
C371 C 0.54747 0.80832 0.52853 0.0
C372 C 0.49611 0.72233 0.48927 0.0
C373 C 0.50891 0.71512 0.50494 0.0
C374 C 0.52641 0.74385 0.51721 0.0
C375 C 0.50145 0.67722 0.50974 0.0
C376 C 0.47923 0.69338 0.47514 0.0
C377 C 0.46455 0.64744 0.51121 0.0
C378 C 0.45686 0.6133 0.51845 0.0
C379 C 0.48594 0.6084 0.52454 0.0
C380 C 0.52299 0.63768 0.5223 0.0
C381 C 0.53065 0.67182 0.51503 0.0
H382 H 0.48288 0.70677 0.46222 0.0
H383 H 0.49183 0.67527 0.47474 0.0
H384 H 0.44885 0.67539 0.47762 0.0
H385 H 0.4415 0.65118 0.5076 0.0
H386 H 0.42801 0.59137 0.52 0.0
H387 H 0.61237 0.49008 0.84781 0.0
H388 H 0.67581 0.50149 0.8477 0.0
H389 H 0.70061 0.56802 0.8012 0.0
H390 H 0.63655 0.55667 0.80113 0.0
H391 H 0.72273 0.51161 0.8007 0.0
H392 H 0.77254 0.60087 0.85917 0.0
H393 H 0.72829 0.55901 0.86255 0.0
H394 H 0.73221 0.59347 0.84713 0.0
C395 C 0.63122 0.50733 0.83757 0.0
C396 C 0.61933 0.52252 0.82448 0.0
C397 C 0.66759 0.51399 0.8376 0.0
C398 C 0.69297 0.536 0.82459 0.0
C399 C 0.68141 0.55119 0.81143 0.0
H400 H 0.91583 0.57503 0.8469 0.0
H401 H 0.86932 0.5883 0.83497 0.0
C402 C 0.64488 0.54473 0.81144 0.0
C403 C 0.73101 0.54148 0.82468 0.0
H404 H 0.80521 0.56861 0.85142 0.0
C405 C 0.74125 0.5248 0.81157 0.0
C406 C 0.75537 0.55927 0.8387 0.0
C407 C 0.74676 0.57952 0.8526 0.0
C408 C 0.774 0.52296 0.81284 0.0
C409 C 0.79659 0.5377 0.82771 0.0
C410 C 0.78773 0.55693 0.8401 0.0
C411 C 0.82698 0.53008 0.83176 0.0
C412 C 0.78352 0.50439 0.79847 0.0
C413 C 0.81893 0.49296 0.83357 0.0
C414 C 0.84543 0.48527 0.84035 0.0
C415 C 0.88041 0.51458 0.84565 0.0
C416 C 0.88912 0.55179 0.843 0.0
C417 C 0.86258 0.55945 0.83617 0.0
H418 H 0.77246 0.50727 0.78585 0.0
H419 H 0.81412 0.51643 0.7972 0.0
H420 H 0.77045 0.47403 0.80135 0.0
H421 H 0.7914 0.46979 0.83066 0.0
H422 H 0.83777 0.4563 0.84223 0.0
H423 H 0.11271 0.63128 0.13029 0.0
H424 H 0.16746 0.69212 0.13643 0.0
H425 H 0.10678 0.7106 0.17704 0.0
H426 H 0.05156 0.64987 0.17091 0.0
H427 H 0.15493 0.77597 0.15595 0.0
H428 H 0.22659 0.70304 0.18123 0.0
H429 H 0.20907 0.6908 0.15953 0.0
H430 H 0.17703 0.67901 0.1774 0.0
C431 C 0.11072 0.64844 0.14037 0.0
C432 C 0.07782 0.63541 0.15026 0.0
C433 C 0.14212 0.68318 0.14388 0.0
C434 C 0.14132 0.70546 0.15739 0.0
C435 C 0.10795 0.69367 0.16661 0.0
H436 H 0.29605 0.89939 0.21504 0.0
H437 H 0.24153 0.85002 0.20033 0.0
C438 C 0.07644 0.65892 0.16308 0.0
C439 C 0.17594 0.73963 0.16276 0.0
H440 H 0.26092 0.76886 0.1809 0.0
C441 C 0.17821 0.77453 0.16135 0.0
C442 C 0.20619 0.73756 0.1698 0.0
C443 C 0.20468 0.70062 0.17225 0.0
C444 C 0.21014 0.80756 0.16676 0.0
C445 C 0.24015 0.80539 0.17404 0.0
C446 C 0.238 0.77051 0.17521 0.0
C447 C 0.27324 0.83838 0.18152 0.0
C448 C 0.21153 0.84445 0.1645 0.0
C449 C 0.30928 0.8482 0.17591 0.0
C450 C 0.34061 0.87624 0.18443 0.0
C451 C 0.33643 0.8948 0.19879 0.0
C452 C 0.3003 0.88575 0.204 0.0
C453 C 0.26903 0.85769 0.19551 0.0
H454 H 0.19246 0.84295 0.1541 0.0
H455 H 0.20254 0.85166 0.17678 0.0
H456 H 0.24023 0.86733 0.16134 0.0
H457 H 0.31314 0.83348 0.16521 0.0
H458 H 0.36803 0.88253 0.18008 0.0
H459 H 0.45535 0.10133 0.52755 0.0
H460 H 0.45013 0.15683 0.532 0.0
H461 H 0.43619 0.16349 0.47694 0.0
H462 H 0.43968 0.1066 0.47253 0.0
H463 H 0.49703 0.22362 0.52072 0.0
H464 H 0.35751 0.18352 0.49504 0.0
H465 H 0.37183 0.14966 0.49898 0.0
H466 H 0.38663 0.17776 0.47955 0.0
C467 C 0.45047 0.11422 0.51642 0.0
C468 C 0.44797 0.09972 0.49969 0.0
C469 C 0.44754 0.14598 0.51897 0.0
C470 C 0.44259 0.16436 0.50484 0.0
C471 C 0.43914 0.1494 0.48811 0.0
H472 H 0.51013 0.40056 0.51623 0.0
H473 H 0.50506 0.34176 0.50673 0.0
C474 C 0.44132 0.117 0.48558 0.0
C475 C 0.4443 0.20074 0.50768 0.0
H476 H 0.39747 0.24796 0.50173 0.0
C477 C 0.47515 0.22883 0.5166 0.0
C478 C 0.41569 0.20754 0.50241 0.0
C479 C 0.38087 0.17791 0.49362 0.0
C480 C 0.47801 0.26321 0.52063 0.0
C481 C 0.44996 0.27049 0.51494 0.0
C482 C 0.41918 0.24254 0.50591 0.0
C483 C 0.45136 0.30628 0.51899 0.0
C484 C 0.51045 0.29075 0.53152 0.0
C485 C 0.42195 0.30601 0.5282 0.0
C486 C 0.42441 0.33962 0.5333 0.0
C487 C 0.4565 0.37411 0.52942 0.0
C488 C 0.4853 0.37439 0.51964 0.0
C489 C 0.48253 0.3408 0.51428 0.0
H490 H 0.52289 0.27675 0.5389 0.0
H491 H 0.53251 0.31199 0.52291 0.0
H492 H 0.50179 0.3054 0.54087 0.0
H493 H 0.39753 0.27975 0.5319 0.0
H494 H 0.40171 0.33851 0.54078 0.0
H495 H 0.35074 0.47229 0.86023 0.0
H496 H 0.2904 0.46831 0.86344 0.0
H497 H 0.27086 0.44667 0.80861 0.0
H498 H 0.33063 0.44875 0.80554 0.0
H499 H 0.27225 0.51392 0.85011 0.0
H500 H 0.17059 0.3715 0.82701 0.0
H501 H 0.2185 0.38574 0.83148 0.0
H502 H 0.20622 0.39821 0.81123 0.0
C503 C 0.33321 0.46591 0.84893 0.0
C504 C 0.34529 0.4608 0.83264 0.0
C505 C 0.29875 0.46371 0.85076 0.0
C506 C 0.27585 0.45696 0.8363 0.0
C507 C 0.2875 0.45096 0.82005 0.0
H508 H 0.1129 0.53113 0.83971 0.0
H509 H 0.16595 0.52344 0.83225 0.0
C510 C 0.32175 0.45235 0.81828 0.0
C511 C 0.24162 0.4596 0.83816 0.0
H512 H 0.14779 0.41362 0.83088 0.0
C513 C 0.24501 0.49184 0.84597 0.0
C514 C 0.206 0.43075 0.83287 0.0
C515 C 0.19997 0.39445 0.82534 0.0
C516 C 0.21394 0.49595 0.84883 0.0
C517 C 0.17851 0.46772 0.84301 0.0
C518 C 0.17503 0.43548 0.83513 0.0
C519 C 0.14457 0.4705 0.84573 0.0
C520 C 0.21938 0.52997 0.85862 0.0
C521 C 0.11389 0.44226 0.85489 0.0
C522 C 0.08312 0.44616 0.85878 0.0
C523 C 0.08268 0.47856 0.85375 0.0
C524 C 0.11273 0.50611 0.84399 0.0
C525 C 0.14316 0.50185 0.83981 0.0
H526 H 0.24521 0.54261 0.86649 0.0
H527 H 0.22201 0.5515 0.84923 0.0
H528 H 0.1954 0.52286 0.86741 0.0
H529 H 0.11422 0.41771 0.85951 0.0
H530 H 0.06032 0.42442 0.86629 0.0
H531 H 0.88448 0.355 0.18243 0.0
H532 H 0.82666 0.29665 0.18859 0.0
H533 H 0.79534 0.28874 0.13483 0.0
H534 H 0.85244 0.34808 0.12875 0.0
H535 H 0.7408 0.27998 0.15412 0.0
H536 H 0.78927 0.18862 0.18107 0.0
H537 H 0.80913 0.23185 0.19276 0.0
H538 H 0.82047 0.23206 0.17012 0.0
C539 C 0.86569 0.34041 0.17183 0.0
C540 C 0.873 0.3562 0.15511 0.0
C541 C 0.83266 0.30684 0.17536 0.0
C542 C 0.80673 0.28788 0.16214 0.0
C543 C 0.81488 0.30278 0.14525 0.0
H544 H 0.60343 0.07372 0.18508 0.0
H545 H 0.66388 0.12138 0.17319 0.0
C546 C 0.84756 0.33667 0.14178 0.0
C547 C 0.76954 0.25494 0.1663 0.0
H548 H 0.72605 0.17194 0.18844 0.0
C549 C 0.73765 0.25611 0.1614 0.0
C550 C 0.76516 0.2234 0.17556 0.0
C551 C 0.79787 0.21871 0.17999 0.0
C552 C 0.70172 0.22745 0.16604 0.0
C553 C 0.69753 0.19737 0.17644 0.0
C554 C 0.72926 0.19533 0.18074 0.0
C555 C 0.66063 0.1684 0.1834 0.0
C556 C 0.66869 0.22974 0.15964 0.0
C557 C 0.63888 0.1789 0.19328 0.0
C558 C 0.60417 0.15181 0.19986 0.0
C559 C 0.59081 0.11355 0.19703 0.0
C560 C 0.61292 0.10298 0.18744 0.0
C561 C 0.64748 0.13017 0.18066 0.0
H562 H 0.67551 0.24623 0.14742 0.0
H563 H 0.64425 0.20149 0.15731 0.0
H564 H 0.66083 0.24412 0.16951 0.0
H565 H 0.64889 0.20811 0.19605 0.0
H566 H 0.58806 0.16086 0.20739 0.0
H567 H 0.04034 0.53029 0.07834 0.0
H568 H 0.04166 0.52996 0.0466 0.0
H569 H 0.92364 0.45026 0.04603 0.0
H570 H 0.92183 0.45066 0.07769 0.0
H571 H 0.02113 0.46968 0.02359 0.0
H572 H 0.93408 0.53493 0.01452 0.0
H573 H 0.95511 0.53555 0.03502 0.0
H574 H 0.91303 0.49431 0.02831 0.0
C575 C 0.01462 0.51271 0.07148 0.0
C576 C -0.0191 0.4907 0.08059 0.0
C577 C 0.01547 0.51255 0.05334 0.0
C578 C -0.01735 0.49057 0.04399 0.0
C579 C 0.94914 0.46802 0.05301 0.0
H580 H 0.91632 0.44113 0.93754 0.0
H581 H 0.92174 0.44421 0.96907 0.0
C582 C 0.94822 0.46816 0.07113 0.0
C583 C -0.01664 0.4909 0.02478 0.0
H584 H 0.94573 0.50879 -0.01056 0.0
C585 C 0.00491 0.47851 0.01608 0.0
C586 C 0.96227 0.50259 0.01507 0.0
C587 C 0.94008 0.51794 0.02367 0.0
C588 C 0.00492 0.47625 -0.0021 0.0
C589 C -0.01681 0.4872 0.98822 0.0
C590 C 0.9622 0.50024 -0.00308 0.0
C591 C -0.0191 0.48442 0.96907 0.0
C592 C 0.02719 0.4611 -0.01079 0.0
C593 C 0.01243 0.50607 0.9586 0.0
C594 C 0.00947 0.50437 0.94051 0.0
C595 C -0.02515 0.48114 0.9326 0.0
C596 C 0.94342 0.45932 0.94317 0.0
C597 C 0.94643 0.46104 0.96121 0.0
H598 H 0.03563 0.44634 -0.00146 0.0
H599 H 0.01095 0.44146 0.97863 0.0
H600 H 0.05286 0.48465 0.9834 0.0
H601 H 0.03917 0.52478 0.96443 0.0
H602 H 0.03418 0.52166 0.93276 0.0
H603 H 0.44617 0.01883 0.42282 0.0
H604 H 0.4493 0.02036 0.39116 0.0
H605 H 0.52931 -0.01675 0.39241 0.0
H606 H 0.52692 -0.01779 0.42411 0.0
H607 H 0.54847 0.04128 0.36899 0.0
H608 H 0.40179 0.92777 0.36026 0.0
H609 H 0.4066 0.96591 0.37329 0.0
H610 H 0.42503 0.93747 0.3809 0.0
C611 C 0.46446 0.01099 0.4164 0.0
C612 C 0.48608 0.00012 0.42604 0.0
C613 C 0.46608 0.01172 0.39828 0.0
C614 C 0.48904 0.00129 0.38945 0.0
C615 C 0.51126 -0.00878 0.39899 0.0
H616 H 0.46722 0.94108 0.28068 0.0
H617 H 0.47243 0.94258 0.31224 0.0
C618 C 0.50978 -0.00942 0.41712 0.0
C619 C 0.48976 0.0007 0.37024 0.0
H620 H 0.43452 0.96114 0.33494 0.0
C621 C 0.52362 0.02368 0.36151 0.0
C622 C 0.45741 0.97729 0.36055 0.0
C623 C 0.42072 0.95043 0.3692 0.0
C624 C 0.52584 0.02436 0.34332 0.0
C625 C 0.49318 0.00193 0.33363 0.0
C626 C 0.45948 0.97853 0.34238 0.0
C627 C 0.49309 0.00202 0.3144 0.0
C628 C 0.56323 0.04861 0.33466 0.0
C629 C 0.50323 0.03502 0.30511 0.0
C630 C 0.50053 0.03433 0.28702 0.0
C631 C 0.48716 0.00049 0.27792 0.0
C632 C 0.47756 0.9676 0.28727 0.0
C633 C 0.48049 0.96839 0.30532 0.0
H634 H 0.58659 0.05542 0.34365 0.0
H635 H 0.56647 0.03467 0.32301 0.0
H636 H 0.56548 0.07534 0.3305 0.0
H637 H 0.51225 0.06114 0.31187 0.0
H638 H 0.50791 0.0601 0.28024 0.0
H639 H 0.53095 0.52883 0.75441 0.0
H640 H 0.52709 0.52588 0.72279 0.0
H641 H 0.41326 0.43504 0.72632 0.0
H642 H 0.41694 0.43728 0.75797 0.0
H643 H 0.45518 0.42281 0.70172 0.0
H644 H 0.47094 0.5634 0.69355 0.0
H645 H 0.5078 0.56349 0.70559 0.0
H646 H 0.46114 0.54 0.7143 0.0
C647 C 0.50505 0.5082 0.7485 0.0
C648 C 0.47416 0.48345 0.75877 0.0
C649 C 0.50286 0.50668 0.7304 0.0
C650 C 0.4697 0.48065 0.72222 0.0
C651 C 0.43907 0.45546 0.73239 0.0
H652 H 0.40858 0.48932 0.61616 0.0
H653 H 0.41235 0.48684 0.64766 0.0
C654 C 0.44123 0.45686 0.75049 0.0
C655 C 0.46685 0.47971 0.70305 0.0
H656 H 0.47207 0.53235 0.66791 0.0
C657 C 0.45882 0.44671 0.6943 0.0
C658 C 0.47115 0.51079 0.69345 0.0
C659 C 0.47789 0.54632 0.70218 0.0
C660 C 0.45533 0.44409 0.67617 0.0
C661 C 0.46059 0.47552 0.66654 0.0
C662 C 0.46833 0.50838 0.67531 0.0
C663 C 0.4573 0.47479 0.64738 0.0
C664 C 0.44524 0.40746 0.66753 0.0
C665 C 0.48129 0.46873 0.63673 0.0
C666 C 0.47909 0.46994 0.61866 0.0
C667 C 0.4531 0.47762 0.61092 0.0
C668 C 0.42894 0.48336 0.62166 0.0
C669 C 0.43107 0.482 0.63969 0.0
H670 H 0.43282 0.38373 0.67689 0.0
H671 H 0.42521 0.40127 0.65683 0.0
H672 H 0.47081 0.40932 0.66196 0.0
H673 H 0.50225 0.46386 0.64239 0.0
H674 H 0.49827 0.46562 0.61077 0.0
H675 H 0.51663 0.04238 0.56421 0.0
H676 H 0.51618 0.03847 0.59583 0.0
H677 H 0.42961 0.92235 0.59362 0.0
H678 H 0.43011 0.92574 0.56195 0.0
H679 H 0.45626 0.01988 0.61832 0.0
H680 H 0.50774 0.92002 0.62496 0.0
H681 H 0.5117 0.94447 0.60495 0.0
H682 H 0.46793 0.9044 0.61118 0.0
C683 C 0.49759 0.01592 0.57041 0.0
C684 C 0.47348 -0.01567 0.56051 0.0
C685 C 0.49739 0.01376 0.58849 0.0
C686 C 0.47326 0.98 0.59703 0.0
C687 C 0.44899 0.94847 0.58725 0.0
H688 H 0.42702 0.92055 0.70633 0.0
H689 H 0.42783 0.91991 0.67456 0.0
C690 C 0.44917 0.95056 0.56915 0.0
C691 C 0.47263 0.97829 0.61621 0.0
H692 H 0.4875 0.93592 0.65074 0.0
C693 C 0.4632 0.00163 0.62542 0.0
C694 C 0.48154 0.95428 0.6254 0.0
C695 C 0.49312 0.92957 0.61616 0.0
C696 C 0.46215 0.00143 0.6436 0.0
C697 C 0.47139 0.97771 0.65279 0.0
C698 C 0.48048 0.95408 0.64361 0.0
C699 C 0.47224 0.97752 0.67197 0.0
C700 C 0.45062 0.02622 0.65282 0.0
C701 C 0.49758 0.00986 0.68097 0.0
C702 C 0.49722 0.01036 0.69907 0.0
C703 C 0.47158 0.97843 0.70852 0.0
C704 C 0.44702 0.94566 0.69945 0.0
C705 C 0.44743 0.94521 0.68131 0.0
H706 H 0.43556 0.03534 0.64407 0.0
H707 H 0.43246 0.01156 0.66418 0.0
H708 H 0.47587 0.05165 0.65757 0.0
H709 H 0.51742 0.03486 0.67397 0.0
H710 H 0.5167 0.03599 0.70563 0.0
H711 H 0.47308 0.53682 0.89649 0.0
H712 H 0.4763 0.53829 0.92813 0.0
H713 H 0.51504 0.45934 0.92716 0.0
H714 H 0.51168 0.45737 0.89548 0.0
H715 H 0.45569 0.44087 0.95063 0.0
H716 H 0.56978 0.588 0.95875 0.0
H717 H 0.53241 0.58265 0.94521 0.0
H718 H 0.56075 0.56347 0.93837 0.0
C719 C 0.48251 0.5199 0.90296 0.0
C720 C 0.49219 0.49702 0.89341 0.0
C721 C 0.48455 0.52098 0.92105 0.0
C722 C 0.49643 0.49935 0.92994 0.0
C723 C 0.50604 0.47643 0.9205 0.0
H724 H 0.50389 0.45873 0.04091 0.0
H725 H 0.51018 0.45899 0.00931 0.0
C726 C 0.5041 0.47538 0.9024 0.0
C727 C 0.49721 0.49942 0.94914 0.0
H728 H 0.53551 0.55635 0.9842 0.0
C729 C 0.47338 0.46599 0.95801 0.0
C730 C 0.52031 0.53229 0.95866 0.0
C731 C 0.54753 0.56859 0.94979 0.0
C732 C 0.47111 0.46481 0.97619 0.0
C733 C 0.49384 0.49782 0.98572 0.0
C734 C 0.51811 0.53111 0.97685 0.0
C735 C 0.49175 0.49872 0.00489 0.0
C736 C 0.44345 0.42859 0.98501 0.0
C737 C 0.48047 0.52187 0.01288 0.0
C738 C 0.4771 0.52201 0.03091 0.0
C739 C 0.48508 0.49905 0.04132 0.0
C740 C 0.49727 0.47655 0.03328 0.0
C741 C 0.5007 0.4765 0.01522 0.0
H742 H 0.42225 0.40856 0.97582 0.0
H743 H 0.45849 0.41519 -0.00952 0.0
H744 H 0.42887 0.43379 -0.00418 0.0
H745 H 0.4736 0.53936 0.00513 0.0
H746 H 0.46775 0.53977 0.03666 0.0
H747 H 0.95561 0.54476 0.21567 0.0
H748 H 0.95474 0.54853 0.24729 0.0
H749 H -0.0073 0.4692 0.25126 0.0
H750 H -0.00714 0.46456 0.21969 0.0
H751 H 0.93491 0.45212 0.27301 0.0
H752 H 0.04239 0.60212 0.27979 0.0
H753 H 0.00464 0.59422 0.2659 0.0
H754 H 0.03499 0.57691 0.25972 0.0
C755 C 0.96396 0.52823 0.22325 0.0
C756 C -0.0256 0.50441 0.21512 0.0
C757 C 0.96368 0.53063 0.24134 0.0
C758 C -0.02572 0.50965 0.25163 0.0
C759 C -0.01541 0.48578 0.24356 0.0
H760 H 0.02554 0.53402 0.36133 0.0
H761 H 0.02761 0.5356 0.32961 0.0
C762 C -0.01534 0.48317 0.2255 0.0
C763 C -0.02666 0.51142 0.27083 0.0
H764 H 0.00807 0.57101 0.30529 0.0
C765 C 0.95097 0.4781 0.28007 0.0
C766 C -0.00532 0.54528 0.28002 0.0
C767 C 0.02082 0.58161 0.27088 0.0
C768 C 0.94908 0.4777 0.29825 0.0
C769 C 0.96944 0.51175 0.30742 0.0
C770 C -0.00787 0.54503 0.29821 0.0
C771 C 0.96831 0.51309 0.32662 0.0
C772 C 0.92598 0.44065 0.30745 0.0
C773 C 0.93445 0.50093 0.33546 0.0
C774 C 0.9331 0.49974 0.35357 0.0
C775 C 0.96572 0.51115 0.36321 0.0
C776 C -0.00012 0.52493 0.35431 0.0
C777 C 0.00114 0.52586 0.33619 0.0
H778 H 0.92056 0.41669 0.29899 0.0
H779 H 0.94 0.43926 0.3194 0.0
H780 H 0.89865 0.43735 0.31121 0.0
H781 H 0.90893 0.49184 0.32833 0.0
H782 H 0.90639 0.48935 0.36001 0.0
loop_
_geom_bond_atom_site_label_1
_geom_bond_atom_site_label_2
_geom_bond_distance
_geom_bond_site_symmetry_2
_ccdc_geom_bond_type
O0 Zn1 1.953 . S
O0 C16 1.225 1_655 S
Zn1 O0 1.953 . S
Zn1 O2 1.949 1_655 S
Zn1 O8 1.919 . S
Zn1 O13 1.924 1_655 S
O2 Zn1 1.949 1_455 S
O2 Zn3 1.923 1_455 S
O2 Zn4 1.950 . S
O2 Zn5 1.945 . S
Zn3 O2 1.923 1_655 S
Zn3 O6 1.933 . S
Zn3 O9 1.941 . S
Zn3 O10 1.965 . S
Zn4 O2 1.950 . S
Zn4 O11 1.938 1_455 S
Zn4 O12 1.906 . S
Zn4 O22 1.953 . S
Zn5 O2 1.945 . S
Zn5 O7 1.932 . S
Zn5 O14 1.977 . S
Zn5 O15 1.910 . S
O6 Zn3 1.933 . S
O6 C17 1.226 1_655 S
O7 Zn5 1.932 . S
O7 C17 1.307 . S
O8 Zn1 1.919 . S
O8 C19 1.253 . S
O9 Zn3 1.941 . S
O9 C19 1.283 . S
O10 Zn3 1.965 . S
O10 C18 1.303 . S
O11 Zn4 1.938 1_655 S
O11 C18 1.247 . S
O12 Zn4 1.906 . S
O12 C20 1.304 . S
O13 Zn1 1.924 1_455 S
O13 C21 1.311 . S
O14 Zn5 1.977 . S
O14 C20 1.272 . S
O15 Zn5 1.910 . S
O15 C21 1.231 . S
C16 O0 1.225 1_455 S
C16 O22 1.298 . S
C17 O6 1.226 1_455 S
C17 O7 1.307 . S
C18 O10 1.303 . S
C18 O11 1.247 . S
C19 O8 1.253 . S
C19 O9 1.283 . S
C20 O12 1.304 . S
C20 O14 1.272 . S
C21 O13 1.311 . S
C21 O15 1.231 . S
O22 Zn4 1.953 . S
O22 C16 1.298 . S
O23 Zn24 1.953 . S
O23 C39 1.225 . S
Zn24 O23 1.953 . S
Zn24 O25 1.949 . S
Zn24 O31 1.919 . S
Zn24 O36 1.924 1_545 S
O25 Zn24 1.949 . S
O25 Zn26 1.923 . S
O25 Zn27 1.935 1_545 S
O25 Zn28 1.945 1_545 S
Zn26 O25 1.923 . S
Zn26 O29 1.933 . S
Zn26 O32 1.941 . S
Zn26 O33 1.965 . S
Zn27 O25 1.935 1_565 S
Zn27 O34 1.925 1_565 S
Zn27 O35 1.933 . S
Zn27 O45 1.950 . S
Zn28 O25 1.945 1_565 S
Zn28 O30 1.932 . S
Zn28 O37 1.977 . S
Zn28 O38 1.910 . S
O29 Zn26 1.933 . S
O29 C40 1.226 . S
O30 Zn28 1.932 . S
O30 C40 1.307 1_565 S
O31 Zn24 1.919 . S
O31 C42 1.253 . S
O32 Zn26 1.941 . S
O32 C42 1.283 . S
O33 Zn26 1.965 . S
O33 C41 1.303 . S
O34 Zn27 1.925 1_545 S
O34 C41 1.247 . S
O35 Zn27 1.933 . S
O35 C43 1.304 . S
O36 Zn24 1.924 1_565 S
O36 C44 1.311 . S
O37 Zn28 1.977 . S
O37 C43 1.272 . S
O38 Zn28 1.910 . S
O38 C44 1.231 . S
C39 O23 1.225 . S
C39 O45 1.298 1_545 S
C40 O29 1.226 . S
C40 O30 1.307 1_545 S
C41 O33 1.303 . S
C41 O34 1.247 . S
C42 O31 1.253 . S
C42 O32 1.283 . S
C43 O35 1.304 . S
C43 O37 1.272 . S
C44 O36 1.311 . S
C44 O38 1.231 . S
O45 Zn27 1.950 . S
O45 C39 1.298 1_565 S
O46 Zn47 1.953 . S
O46 C62 1.225 . S
Zn47 O46 1.953 . S
Zn47 O48 1.949 . S
Zn47 O54 1.919 . S
Zn47 O59 1.924 . S
O48 Zn47 1.949 . S
O48 Zn49 1.923 . S
O48 Zn50 1.950 . S
O48 Zn51 1.945 . S
Zn49 O48 1.923 . S
Zn49 O52 1.933 . S
Zn49 O55 1.941 . S
Zn49 O56 1.965 . S
Zn50 O48 1.950 . S
Zn50 O57 1.938 . S
Zn50 O58 1.906 . S
Zn50 O68 1.953 . S
Zn51 O48 1.945 . S
Zn51 O53 1.932 . S
Zn51 O60 1.977 . S
Zn51 O61 1.910 . S
O52 Zn49 1.933 . S
O52 C63 1.226 . S
O53 Zn51 1.932 . S
O53 C63 1.307 . S
O54 Zn47 1.919 . S
O54 C65 1.253 . S
O55 Zn49 1.941 . S
O55 C65 1.283 . S
O56 Zn49 1.965 . S
O56 C64 1.303 . S
O57 Zn50 1.938 . S
O57 C64 1.247 . S
O58 Zn50 1.906 . S
O58 C66 1.304 . S
O59 Zn47 1.924 . S
O59 C67 1.311 . S
O60 Zn51 1.977 . S
O60 C66 1.272 . S
O61 Zn51 1.910 . S
O61 C67 1.231 . S
C62 O46 1.225 . S
C62 O68 1.298 . S
C63 O52 1.226 . S
C63 O53 1.307 . S
C64 O56 1.303 . S
C64 O57 1.247 . S
C65 O54 1.253 . S
C65 O55 1.283 . S
C66 O58 1.304 . S
C66 O60 1.272 . S
C67 O59 1.311 . S
C67 O61 1.231 . S
O68 Zn50 1.953 . S
O68 C62 1.298 . S
O69 Cd70 2.300 . S
O69 C76 1.275 . S
Cd70 O69 2.300 . S
Cd70 O78 2.381 . S
Cd70 O79 2.378 . S
O71 Cd72 2.385 . S
O71 C76 1.255 1_565 S
Cd72 O71 2.385 . S
Cd72 O73 2.317 . S
O73 Cd72 2.317 . S
O73 C74 1.232 . S
C74 O73 1.232 . S
C74 O75 1.218 . S
O75 C74 1.218 . S
C76 O69 1.275 . S
C76 O71 1.255 1_545 S
C77 O78 1.258 . S
C77 O79 1.256 . S
O78 Cd70 2.381 . S
O78 C77 1.258 . S
O79 Cd70 2.378 . S
O79 C77 1.256 . S
O80 Cd81 2.300 . S
O80 C87 1.275 . S
Cd81 O80 2.300 . S
Cd81 O89 2.381 . S
Cd81 O90 2.378 . S
O82 Cd83 2.385 . S
O82 C87 1.255 . S
Cd83 O82 2.385 . S
Cd83 O84 2.317 . S
O84 Cd83 2.317 . S
O84 C85 1.232 . S
C85 O84 1.232 . S
C85 O86 1.218 . S
O86 C85 1.218 . S
C87 O80 1.275 . S
C87 O82 1.255 . S
C88 O89 1.258 . S
C88 O90 1.256 . S
O89 Cd81 2.381 . S
O89 C88 1.258 . S
O90 Cd81 2.378 . S
O90 C88 1.256 . S
O91 Cd92 2.300 . S
O91 C98 1.275 . S
Cd92 O91 2.300 . S
Cd92 O100 2.381 . S
Cd92 O101 2.378 . S
O93 Cd94 2.385 . S
O93 C98 1.255 1_655 S
Cd94 O93 2.385 . S
Cd94 O95 2.317 . S
O95 Cd94 2.317 . S
O95 C96 1.232 . S
C96 O95 1.232 . S
C96 O97 1.218 . S
O97 C96 1.218 . S
C98 O91 1.275 . S
C98 O93 1.255 1_455 S
C99 O100 1.258 . S
C99 O101 1.256 . S
O100 Cd92 2.381 . S
O100 C99 1.258 . S
O101 Cd92 2.378 . S
O101 C99 1.256 . S
O102 Cd103 2.300 . S
O102 C109 1.275 1_455 S
Cd103 O102 2.300 . S
Cd103 O111 2.381 . S
Cd103 O112 2.378 . S
O104 Cd105 2.385 . S
O104 C109 1.255 . S
Cd105 O104 2.385 . S
Cd105 O106 2.317 . S
O106 Cd105 2.317 . S
O106 C107 1.232 . S
C107 O106 1.232 . S
C107 O108 1.218 . S
O108 C107 1.218 . S
C109 O102 1.275 1_655 S
C109 O104 1.255 . S
C110 O111 1.258 . S
C110 O112 1.256 . S
O111 Cd103 2.381 . S
O111 C110 1.258 . S
O112 Cd103 2.378 . S
O112 C110 1.256 . S
O113 Cd114 2.300 . S
O113 C120 1.275 1_565 S
Cd114 O113 2.300 . S
Cd114 O122 2.381 . S
Cd114 O123 2.378 . S
O115 Cd116 2.385 . S
O115 C120 1.255 . S
Cd116 O115 2.385 . S
Cd116 O117 2.317 . S
O117 Cd116 2.317 . S
O117 C118 1.232 . S
C118 O117 1.232 . S
C118 O119 1.218 . S
O119 C118 1.218 . S
C120 O113 1.275 1_545 S
C120 O115 1.255 . S
C121 O122 1.258 . S
C121 O123 1.256 . S
O122 Cd114 2.381 . S
O122 C121 1.258 . S
O123 Cd114 2.378 . S
O123 C121 1.256 . S
O124 Cd125 2.300 . S
O124 C131 1.275 . S
Cd125 O124 2.300 . S
Cd125 O133 2.381 . S
Cd125 O134 2.378 . S
O126 Cd127 2.385 . S
O126 C131 1.255 . S
Cd127 O126 2.385 . S
Cd127 O128 2.317 . S
O128 Cd127 2.317 . S
O128 C129 1.232 . S
C129 O128 1.232 . S
C129 O130 1.218 . S
O130 C129 1.218 . S
C131 O124 1.275 . S
C131 O126 1.255 . S
C132 O133 1.258 . S
C132 O134 1.256 . S
O133 Cd125 2.381 . S
O133 C132 1.258 . S
O134 Cd125 2.378 . S
O134 C132 1.256 . S
H135 C143 0.929 . S
H136 C145 0.930 . S
H137 C147 0.930 . S
H138 C150 0.929 . S
H139 C153 0.930 . S
H140 C155 0.960 . S
H141 C155 0.960 . S
H142 C155 0.960 . S
C143 H135 0.929 . S
C143 C144 1.377 . S
C143 C145 1.384 . S
C144 C143 1.377 . S
C144 C150 1.390 . S
C145 H136 0.930 . S
C145 C143 1.384 . S
C145 C146 1.372 . S
C146 C145 1.372 . S
C146 C147 1.400 . S
C146 C151 1.490 . S
C147 H137 0.930 . S
C147 C146 1.400 . S
C147 C150 1.386 . S
H148 C164 0.930 . S
H149 C165 0.931 . S
C150 H138 0.929 . S
C150 C144 1.390 . S
C150 C147 1.386 . S
C151 C146 1.490 . S
C151 C153 1.395 . S
C151 C154 1.403 . S
H152 C158 0.930 . S
C153 H139 0.930 . S
C153 C151 1.395 . S
C153 C156 1.403 . S
C154 C151 1.403 . S
C154 C155 1.524 . S
C154 C158 1.400 . S
C155 H140 0.960 . S
C155 H141 0.960 . S
C155 H142 0.960 . S
C155 C154 1.524 . S
C156 C153 1.403 . S
C156 C157 1.392 . S
C156 C160 1.495 . S
C157 C156 1.392 . S
C157 C158 1.385 . S
C157 C159 1.478 . S
C158 H152 0.930 . S
C158 C154 1.400 . S
C158 C157 1.385 . S
C159 C157 1.478 . S
C159 C161 1.381 . S
C159 C165 1.383 . S
C160 C156 1.495 . S
C160 H166 0.959 . S
C160 H167 0.961 . S
C160 H168 0.960 . S
C161 C159 1.381 . S
C161 C162 1.394 . S
C161 H169 0.930 . S
C162 C161 1.394 . S
C162 C163 1.383 . S
C162 H170 0.929 . S
C163 C162 1.383 . S
C163 C164 1.377 . S
C164 H148 0.930 . S
C164 C163 1.377 . S
C164 C165 1.379 . S
C165 H149 0.931 . S
C165 C159 1.383 . S
C165 C164 1.379 . S
H166 C160 0.959 . S
H167 C160 0.961 . S
H168 C160 0.960 . S
H169 C161 0.930 . S
H170 C162 0.929 . S
H171 C179 0.929 . S
H172 C181 0.930 . S
H173 C183 0.930 . S
H174 C186 0.929 . S
H175 C189 0.930 . S
H176 C191 0.960 . S
H177 C191 0.960 . S
H178 C191 0.960 . S
C179 H171 0.929 . S
C179 C180 1.377 . S
C179 C181 1.384 . S
C180 C179 1.377 . S
C180 C186 1.390 . S
C181 H172 0.930 . S
C181 C179 1.384 . S
C181 C182 1.372 . S
C182 C181 1.372 . S
C182 C183 1.400 . S
C182 C187 1.490 . S
C183 H173 0.930 . S
C183 C182 1.400 . S
C183 C186 1.386 . S
H184 C200 0.930 . S
H185 C201 0.931 . S
C186 H174 0.929 . S
C186 C180 1.390 . S
C186 C183 1.386 . S
C187 C182 1.490 . S
C187 C189 1.395 . S
C187 C190 1.403 . S
H188 C194 0.930 . S
C189 H175 0.930 . S
C189 C187 1.395 . S
C189 C192 1.403 . S
C190 C187 1.403 . S
C190 C191 1.524 . S
C190 C194 1.400 . S
C191 H176 0.960 . S
C191 H177 0.960 . S
C191 H178 0.960 . S
C191 C190 1.524 . S
C192 C189 1.403 . S
C192 C193 1.392 . S
C192 C196 1.495 . S
C193 C192 1.392 . S
C193 C194 1.385 . S
C193 C195 1.478 . S
C194 H188 0.930 . S
C194 C190 1.400 . S
C194 C193 1.385 . S
C195 C193 1.478 . S
C195 C197 1.381 . S
C195 C201 1.383 . S
C196 C192 1.495 . S
C196 H202 0.959 . S
C196 H203 0.961 . S
C196 H204 0.960 . S
C197 C195 1.381 . S
C197 C198 1.394 . S
C197 H205 0.930 . S
C198 C197 1.394 . S
C198 C199 1.383 . S
C198 H206 0.929 . S
C199 C198 1.383 . S
C199 C200 1.377 . S
C200 H184 0.930 . S
C200 C199 1.377 . S
C200 C201 1.379 . S
C201 H185 0.931 . S
C201 C195 1.383 . S
C201 C200 1.379 . S
H202 C196 0.959 . S
H203 C196 0.961 . S
H204 C196 0.960 . S
H205 C197 0.930 . S
H206 C198 0.929 . S
H207 C215 0.929 . S
H208 C217 0.930 . S
H209 C219 0.930 . S
H210 C222 0.929 . S
H211 C225 0.930 . S
H212 C227 0.960 . S
H213 C227 0.960 . S
H214 C227 0.960 . S
C215 H207 0.929 . S
C215 C216 1.377 . S
C215 C217 1.384 . S
C216 C215 1.377 . S
C216 C222 1.390 . S
C217 H208 0.930 . S
C217 C215 1.384 . S
C217 C218 1.372 . S
C218 C217 1.372 . S
C218 C219 1.400 . S
C218 C223 1.490 . S
C219 H209 0.930 . S
C219 C218 1.400 . S
C219 C222 1.386 . S
H220 C236 0.930 . S
H221 C237 0.931 . S
C222 H210 0.929 . S
C222 C216 1.390 . S
C222 C219 1.386 . S
C223 C218 1.490 . S
C223 C225 1.395 . S
C223 C226 1.403 . S
H224 C230 0.930 . S
C225 H211 0.930 . S
C225 C223 1.395 . S
C225 C228 1.403 . S
C226 C223 1.403 . S
C226 C227 1.524 . S
C226 C230 1.400 . S
C227 H212 0.960 . S
C227 H213 0.960 . S
C227 H214 0.960 . S
C227 C226 1.524 . S
C228 C225 1.403 . S
C228 C229 1.392 . S
C228 C232 1.495 . S
C229 C228 1.392 . S
C229 C230 1.385 . S
C229 C231 1.478 . S
C230 H224 0.930 . S
C230 C226 1.400 . S
C230 C229 1.385 . S
C231 C229 1.478 . S
C231 C233 1.381 . S
C231 C237 1.383 . S
C232 C228 1.495 . S
C232 H238 0.959 . S
C232 H239 0.961 . S
C232 H240 0.960 . S
C233 C231 1.381 . S
C233 C234 1.394 . S
C233 H241 0.930 . S
C234 C233 1.394 . S
C234 C235 1.383 . S
C234 H242 0.929 . S
C235 C234 1.383 . S
C235 C236 1.377 . S
C236 H220 0.930 . S
C236 C235 1.377 . S
C236 C237 1.379 . S
C237 H221 0.931 . S
C237 C231 1.383 . S
C237 C236 1.379 . S
H238 C232 0.959 . S
H239 C232 0.961 . S
H240 C232 0.960 . S
H241 C233 0.930 . S
H242 C234 0.929 . S
H243 C251 0.929 . S
H244 C253 0.930 . S
H245 C255 0.930 . S
H246 C258 0.929 . S
H247 C261 0.930 . S
H248 C263 0.960 . S
H249 C263 0.960 . S
H250 C263 0.960 . S
C251 H243 0.929 . S
C251 C252 1.377 . S
C251 C253 1.384 . S
C252 C251 1.377 . S
C252 C258 1.390 . S
C253 H244 0.930 . S
C253 C251 1.384 . S
C253 C254 1.372 . S
C254 C253 1.372 . S
C254 C255 1.400 . S
C254 C259 1.490 . S
C255 H245 0.930 . S
C255 C254 1.400 . S
C255 C258 1.386 . S
H256 C272 0.930 . S
H257 C273 0.931 . S
C258 H246 0.929 . S
C258 C252 1.390 . S
C258 C255 1.386 . S
C259 C254 1.490 . S
C259 C261 1.395 . S
C259 C262 1.403 . S
H260 C266 0.930 . S
C261 H247 0.930 . S
C261 C259 1.395 . S
C261 C264 1.403 . S
C262 C259 1.403 . S
C262 C263 1.524 . S
C262 C266 1.400 . S
C263 H248 0.960 . S
C263 H249 0.960 . S
C263 H250 0.960 . S
C263 C262 1.524 . S
C264 C261 1.403 . S
C264 C265 1.392 . S
C264 C268 1.495 . S
C265 C264 1.392 . S
C265 C266 1.385 . S
C265 C267 1.478 . S
C266 H260 0.930 . S
C266 C262 1.400 . S
C266 C265 1.385 . S
C267 C265 1.478 . S
C267 C269 1.381 . S
C267 C273 1.383 . S
C268 C264 1.495 . S
C268 H274 0.959 . S
C268 H275 0.961 . S
C268 H276 0.960 . S
C269 C267 1.381 . S
C269 C270 1.394 . S
C269 H277 0.930 . S
C270 C269 1.394 . S
C270 C271 1.383 . S
C270 H278 0.929 . S
C271 C270 1.383 . S
C271 C272 1.377 . S
C272 H256 0.930 . S
C272 C271 1.377 . S
C272 C273 1.379 . S
C273 H257 0.931 . S
C273 C267 1.383 . S
C273 C272 1.379 . S
H274 C268 0.959 . S
H275 C268 0.961 . S
H276 C268 0.960 . S
H277 C269 0.930 . S
H278 C270 0.929 . S
H279 C287 0.929 . S
H280 C289 0.930 . S
H281 C291 0.930 . S
H282 C294 0.929 . S
H283 C297 0.930 . S
H284 C299 0.960 . S
H285 C299 0.960 . S
H286 C299 0.960 . S
C287 H279 0.929 . S
C287 C288 1.377 . S
C287 C289 1.384 . S
C288 C287 1.377 . S
C288 C294 1.390 . S
C289 H280 0.930 . S
C289 C287 1.384 . S
C289 C290 1.372 . S
C290 C289 1.372 . S
C290 C291 1.400 . S
C290 C295 1.490 . S
C291 H281 0.930 . S
C291 C290 1.400 . S
C291 C294 1.386 . S
H292 C308 0.930 . S
H293 C309 0.931 . S
C294 H282 0.929 . S
C294 C288 1.390 . S
C294 C291 1.386 . S
C295 C290 1.490 . S
C295 C297 1.395 . S
C295 C298 1.403 . S
H296 C302 0.930 . S
C297 H283 0.930 . S
C297 C295 1.395 . S
C297 C300 1.403 . S
C298 C295 1.403 . S
C298 C299 1.524 . S
C298 C302 1.400 . S
C299 H284 0.960 . S
C299 H285 0.960 . S
C299 H286 0.960 . S
C299 C298 1.524 . S
C300 C297 1.403 . S
C300 C301 1.392 . S
C300 C304 1.495 . S
C301 C300 1.392 . S
C301 C302 1.385 . S
C301 C303 1.478 . S
C302 H296 0.930 . S
C302 C298 1.400 . S
C302 C301 1.385 . S
C303 C301 1.478 . S
C303 C305 1.381 . S
C303 C309 1.383 . S
C304 C300 1.495 . S
C304 H310 0.959 . S
C304 H311 0.961 . S
C304 H312 0.960 . S
C305 C303 1.381 . S
C305 C306 1.394 . S
C305 H313 0.930 . S
C306 C305 1.394 . S
C306 C307 1.383 . S
C306 H314 0.929 . S
C307 C306 1.383 . S
C307 C308 1.377 . S
C308 H292 0.930 . S
C308 C307 1.377 . S
C308 C309 1.379 . S
C309 H293 0.931 . S
C309 C303 1.383 . S
C309 C308 1.379 . S
H310 C304 0.959 . S
H311 C304 0.961 . S
H312 C304 0.960 . S
H313 C305 0.930 . S
H314 C306 0.929 . S
H315 C323 0.929 . S
H316 C325 0.930 . S
H317 C327 0.930 . S
H318 C330 0.929 . S
H319 C333 0.930 . S
H320 C335 0.960 . S
H321 C335 0.960 . S
H322 C335 0.960 . S
C323 H315 0.929 . S
C323 C324 1.377 . S
C323 C325 1.384 . S
C324 C323 1.377 . S
C324 C330 1.390 . S
C325 H316 0.930 . S
C325 C323 1.384 . S
C325 C326 1.372 . S
C326 C325 1.372 . S
C326 C327 1.400 . S
C326 C331 1.490 . S
C327 H317 0.930 . S
C327 C326 1.400 . S
C327 C330 1.386 . S
H328 C344 0.930 . S
H329 C345 0.931 . S
C330 H318 0.929 . S
C330 C324 1.390 . S
C330 C327 1.386 . S
C331 C326 1.490 . S
C331 C333 1.395 . S
C331 C334 1.403 . S
H332 C338 0.930 . S
C333 H319 0.930 . S
C333 C331 1.395 . S
C333 C336 1.403 . S
C334 C331 1.403 . S
C334 C335 1.524 . S
C334 C338 1.400 . S
C335 H320 0.960 . S
C335 H321 0.960 . S
C335 H322 0.960 . S
C335 C334 1.524 . S
C336 C333 1.403 . S
C336 C337 1.392 . S
C336 C340 1.495 . S
C337 C336 1.392 . S
C337 C338 1.385 . S
C337 C339 1.478 . S
C338 H332 0.930 . S
C338 C334 1.400 . S
C338 C337 1.385 . S
C339 C337 1.478 . S
C339 C341 1.381 . S
C339 C345 1.383 . S
C340 C336 1.495 . S
C340 H346 0.959 . S
C340 H347 0.961 . S
C340 H348 0.960 . S
C341 C339 1.381 . S
C341 C342 1.394 . S
C341 H349 0.930 . S
C342 C341 1.394 . S
C342 C343 1.383 . S
C342 H350 0.929 . S
C343 C342 1.383 . S
C343 C344 1.377 . S
C344 H328 0.930 . S
C344 C343 1.377 . S
C344 C345 1.379 . S
C345 H329 0.931 . S
C345 C339 1.383 . S
C345 C344 1.379 . S
H346 C340 0.959 . S
H347 C340 0.961 . S
H348 C340 0.960 . S
H349 C341 0.930 . S
H350 C342 0.929 . S
H351 C359 0.929 . S
H352 C361 0.930 . S
H353 C363 0.930 . S
H354 C366 0.929 . S
H355 C369 0.930 . S
H356 C371 0.960 . S
H357 C371 0.960 . S
H358 C371 0.960 . S
C359 H351 0.929 . S
C359 C360 1.377 . S
C359 C361 1.384 . S
C360 C359 1.377 . S
C360 C366 1.390 . S
C361 H352 0.930 . S
C361 C359 1.384 . S
C361 C362 1.372 . S
C362 C361 1.372 . S
C362 C363 1.400 . S
C362 C367 1.490 . S
C363 H353 0.930 . S
C363 C362 1.400 . S
C363 C366 1.386 . S
H364 C380 0.930 . S
H365 C381 0.931 . S
C366 H354 0.929 . S
C366 C360 1.390 . S
C366 C363 1.386 . S
C367 C362 1.490 . S
C367 C369 1.395 . S
C367 C370 1.403 . S
H368 C374 0.930 . S
C369 H355 0.930 . S
C369 C367 1.395 . S
C369 C372 1.403 . S
C370 C367 1.403 . S
C370 C371 1.524 . S
C370 C374 1.400 . S
C371 H356 0.960 . S
C371 H357 0.960 . S
C371 H358 0.960 . S
C371 C370 1.524 . S
C372 C369 1.403 . S
C372 C373 1.392 . S
C372 C376 1.495 . S
C373 C372 1.392 . S
C373 C374 1.385 . S
C373 C375 1.478 . S
C374 H368 0.930 . S
C374 C370 1.400 . S
C374 C373 1.385 . S
C375 C373 1.478 . S
C375 C377 1.381 . S
C375 C381 1.383 . S
C376 C372 1.495 . S
C376 H382 0.959 . S
C376 H383 0.961 . S
C376 H384 0.960 . S
C377 C375 1.381 . S
C377 C378 1.394 . S
C377 H385 0.930 . S
C378 C377 1.394 . S
C378 C379 1.383 . S
C378 H386 0.929 . S
C379 C378 1.383 . S
C379 C380 1.377 . S
C380 H364 0.930 . S
C380 C379 1.377 . S
C380 C381 1.379 . S
C381 H365 0.931 . S
C381 C375 1.383 . S
C381 C380 1.379 . S
H382 C376 0.959 . S
H383 C376 0.961 . S
H384 C376 0.960 . S
H385 C377 0.930 . S
H386 C378 0.929 . S
H387 C395 0.929 . S
H388 C397 0.930 . S
H389 C399 0.930 . S
H390 C402 0.929 . S
H391 C405 0.930 . S
H392 C407 0.960 . S
H393 C407 0.960 . S
H394 C407 0.960 . S
C395 H387 0.929 . S
C395 C396 1.377 . S
C395 C397 1.384 . S
C396 C395 1.377 . S
C396 C402 1.390 . S
C397 H388 0.930 . S
C397 C395 1.384 . S
C397 C398 1.372 . S
C398 C397 1.372 . S
C398 C399 1.400 . S
C398 C403 1.490 . S
C399 H389 0.930 . S
C399 C398 1.400 . S
C399 C402 1.386 . S
H400 C416 0.930 . S
H401 C417 0.931 . S
C402 H390 0.929 . S
C402 C396 1.390 . S
C402 C399 1.386 . S
C403 C398 1.490 . S
C403 C405 1.395 . S
C403 C406 1.403 . S
H404 C410 0.930 . S
C405 H391 0.930 . S
C405 C403 1.395 . S
C405 C408 1.403 . S
C406 C403 1.403 . S
C406 C407 1.524 . S
C406 C410 1.400 . S
C407 H392 0.960 . S
C407 H393 0.960 . S
C407 H394 0.960 . S
C407 C406 1.524 . S
C408 C405 1.403 . S
C408 C409 1.392 . S
C408 C412 1.495 . S
C409 C408 1.392 . S
C409 C410 1.385 . S
C409 C411 1.478 . S
C410 H404 0.930 . S
C410 C406 1.400 . S
C410 C409 1.385 . S
C411 C409 1.478 . S
C411 C413 1.381 . S
C411 C417 1.383 . S
C412 C408 1.495 . S
C412 H418 0.959 . S
C412 H419 0.961 . S
C412 H420 0.960 . S
C413 C411 1.381 . S
C413 C414 1.394 . S
C413 H421 0.930 . S
C414 C413 1.394 . S
C414 C415 1.383 . S
C414 H422 0.929 . S
C415 C414 1.383 . S
C415 C416 1.377 . S
C416 H400 0.930 . S
C416 C415 1.377 . S
C416 C417 1.379 . S
C417 H401 0.931 . S
C417 C411 1.383 . S
C417 C416 1.379 . S
H418 C412 0.959 . S
H419 C412 0.961 . S
H420 C412 0.960 . S
H421 C413 0.930 . S
H422 C414 0.929 . S
H423 C431 0.929 . S
H424 C433 0.930 . S
H425 C435 0.930 . S
H426 C438 0.929 . S
H427 C441 0.930 . S
H428 C443 0.960 . S
H429 C443 0.960 . S
H430 C443 0.960 . S
C431 H423 0.929 . S
C431 C432 1.377 . S
C431 C433 1.384 . S
C432 C431 1.377 . S
C432 C438 1.390 . S
C433 H424 0.930 . S
C433 C431 1.384 . S
C433 C434 1.372 . S
C434 C433 1.372 . S
C434 C435 1.400 . S
C434 C439 1.490 . S
C435 H425 0.930 . S
C435 C434 1.400 . S
C435 C438 1.386 . S
H436 C452 0.930 . S
H437 C453 0.931 . S
C438 H426 0.929 . S
C438 C432 1.390 . S
C438 C435 1.386 . S
C439 C434 1.490 . S
C439 C441 1.395 . S
C439 C442 1.403 . S
H440 C446 0.930 . S
C441 H427 0.930 . S
C441 C439 1.395 . S
C441 C444 1.403 . S
C442 C439 1.403 . S
C442 C443 1.524 . S
C442 C446 1.400 . S
C443 H428 0.960 . S
C443 H429 0.960 . S
C443 H430 0.960 . S
C443 C442 1.524 . S
C444 C441 1.403 . S
C444 C445 1.392 . S
C444 C448 1.495 . S
C445 C444 1.392 . S
C445 C446 1.385 . S
C445 C447 1.478 . S
C446 H440 0.930 . S
C446 C442 1.400 . S
C446 C445 1.385 . S
C447 C445 1.478 . S
C447 C449 1.381 . S
C447 C453 1.383 . S
C448 C444 1.495 . S
C448 H454 0.959 . S
C448 H455 0.961 . S
C448 H456 0.960 . S
C449 C447 1.381 . S
C449 C450 1.394 . S
C449 H457 0.930 . S
C450 C449 1.394 . S
C450 C451 1.383 . S
C450 H458 0.929 . S
C451 C450 1.383 . S
C451 C452 1.377 . S
C452 H436 0.930 . S
C452 C451 1.377 . S
C452 C453 1.379 . S
C453 H437 0.931 . S
C453 C447 1.383 . S
C453 C452 1.379 . S
H454 C448 0.959 . S
H455 C448 0.961 . S
H456 C448 0.960 . S
H457 C449 0.930 . S
H458 C450 0.929 . S
H459 C467 0.929 . S
H460 C469 0.930 . S
H461 C471 0.930 . S
H462 C474 0.929 . S
H463 C477 0.930 . S
H464 C479 0.960 . S
H465 C479 0.960 . S
H466 C479 0.960 . S
C467 H459 0.929 . S
C467 C468 1.377 . S
C467 C469 1.384 . S
C468 C467 1.377 . S
C468 C474 1.390 . S
C469 H460 0.930 . S
C469 C467 1.384 . S
C469 C470 1.372 . S
C470 C469 1.372 . S
C470 C471 1.400 . S
C470 C475 1.490 . S
C471 H461 0.930 . S
C471 C470 1.400 . S
C471 C474 1.386 . S
H472 C488 0.930 . S
H473 C489 0.931 . S
C474 H462 0.929 . S
C474 C468 1.390 . S
C474 C471 1.386 . S
C475 C470 1.490 . S
C475 C477 1.395 . S
C475 C478 1.403 . S
H476 C482 0.930 . S
C477 H463 0.930 . S
C477 C475 1.395 . S
C477 C480 1.403 . S
C478 C475 1.403 . S
C478 C479 1.524 . S
C478 C482 1.400 . S
C479 H464 0.960 . S
C479 H465 0.960 . S
C479 H466 0.960 . S
C479 C478 1.524 . S
C480 C477 1.403 . S
C480 C481 1.392 . S
C480 C484 1.495 . S
C481 C480 1.392 . S
C481 C482 1.385 . S
C481 C483 1.478 . S
C482 H476 0.930 . S
C482 C478 1.400 . S
C482 C481 1.385 . S
C483 C481 1.478 . S
C483 C485 1.381 . S
C483 C489 1.383 . S
C484 C480 1.495 . S
C484 H490 0.959 . S
C484 H491 0.961 . S
C484 H492 0.960 . S
C485 C483 1.381 . S
C485 C486 1.394 . S
C485 H493 0.930 . S
C486 C485 1.394 . S
C486 C487 1.383 . S
C486 H494 0.929 . S
C487 C486 1.383 . S
C487 C488 1.377 . S
C488 H472 0.930 . S
C488 C487 1.377 . S
C488 C489 1.379 . S
C489 H473 0.931 . S
C489 C483 1.383 . S
C489 C488 1.379 . S
H490 C484 0.959 . S
H491 C484 0.961 . S
H492 C484 0.960 . S
H493 C485 0.930 . S
H494 C486 0.929 . S
H495 C503 0.929 . S
H496 C505 0.930 . S
H497 C507 0.930 . S
H498 C510 0.929 . S
H499 C513 0.930 . S
H500 C515 0.960 . S
H501 C515 0.960 . S
H502 C515 0.960 . S
C503 H495 0.929 . S
C503 C504 1.377 . S
C503 C505 1.384 . S
C504 C503 1.377 . S
C504 C510 1.390 . S
C505 H496 0.930 . S
C505 C503 1.384 . S
C505 C506 1.372 . S
C506 C505 1.372 . S
C506 C507 1.400 . S
C506 C511 1.490 . S
C507 H497 0.930 . S
C507 C506 1.400 . S
C507 C510 1.386 . S
H508 C524 0.930 . S
H509 C525 0.931 . S
C510 H498 0.929 . S
C510 C504 1.390 . S
C510 C507 1.386 . S
C511 C506 1.490 . S
C511 C513 1.395 . S
C511 C514 1.403 . S
H512 C518 0.930 . S
C513 H499 0.930 . S
C513 C511 1.395 . S
C513 C516 1.403 . S
C514 C511 1.403 . S
C514 C515 1.524 . S
C514 C518 1.400 . S
C515 H500 0.960 . S
C515 H501 0.960 . S
C515 H502 0.960 . S
C515 C514 1.524 . S
C516 C513 1.403 . S
C516 C517 1.392 . S
C516 C520 1.495 . S
C517 C516 1.392 . S
C517 C518 1.385 . S
C517 C519 1.478 . S
C518 H512 0.930 . S
C518 C514 1.400 . S
C518 C517 1.385 . S
C519 C517 1.478 . S
C519 C521 1.381 . S
C519 C525 1.383 . S
C520 C516 1.495 . S
C520 H526 0.959 . S
C520 H527 0.961 . S
C520 H528 0.960 . S
C521 C519 1.381 . S
C521 C522 1.394 . S
C521 H529 0.930 . S
C522 C521 1.394 . S
C522 C523 1.383 . S
C522 H530 0.929 . S
C523 C522 1.383 . S
C523 C524 1.377 . S
C524 H508 0.930 . S
C524 C523 1.377 . S
C524 C525 1.379 . S
C525 H509 0.931 . S
C525 C519 1.383 . S
C525 C524 1.379 . S
H526 C520 0.959 . S
H527 C520 0.961 . S
H528 C520 0.960 . S
H529 C521 0.930 . S
H530 C522 0.929 . S
H531 C539 0.929 . S
H532 C541 0.930 . S
H533 C543 0.930 . S
H534 C546 0.929 . S
H535 C549 0.930 . S
H536 C551 0.960 . S
H537 C551 0.960 . S
H538 C551 0.960 . S
C539 H531 0.929 . S
C539 C540 1.377 . S
C539 C541 1.384 . S
C540 C539 1.377 . S
C540 C546 1.390 . S
C541 H532 0.930 . S
C541 C539 1.384 . S
C541 C542 1.372 . S
C542 C541 1.372 . S
C542 C543 1.400 . S
C542 C547 1.490 . S
C543 H533 0.930 . S
C543 C542 1.400 . S
C543 C546 1.386 . S
H544 C560 0.930 . S
H545 C561 0.931 . S
C546 H534 0.929 . S
C546 C540 1.390 . S
C546 C543 1.386 . S
C547 C542 1.490 . S
C547 C549 1.395 . S
C547 C550 1.403 . S
H548 C554 0.930 . S
C549 H535 0.930 . S
C549 C547 1.395 . S
C549 C552 1.403 . S
C550 C547 1.403 . S
C550 C551 1.524 . S
C550 C554 1.400 . S
C551 H536 0.960 . S
C551 H537 0.960 . S
C551 H538 0.960 . S
C551 C550 1.524 . S
C552 C549 1.403 . S
C552 C553 1.392 . S
C552 C556 1.495 . S
C553 C552 1.392 . S
C553 C554 1.385 . S
C553 C555 1.478 . S
C554 H548 0.930 . S
C554 C550 1.400 . S
C554 C553 1.385 . S
C555 C553 1.478 . S
C555 C557 1.381 . S
C555 C561 1.383 . S
C556 C552 1.495 . S
C556 H562 0.959 . S
C556 H563 0.961 . S
C556 H564 0.960 . S
C557 C555 1.381 . S
C557 C558 1.394 . S
C557 H565 0.930 . S
C558 C557 1.394 . S
C558 C559 1.383 . S
C558 H566 0.929 . S
C559 C558 1.383 . S
C559 C560 1.377 . S
C560 H544 0.930 . S
C560 C559 1.377 . S
C560 C561 1.379 . S
C561 H545 0.931 . S
C561 C555 1.383 . S
C561 C560 1.379 . S
H562 C556 0.959 . S
H563 C556 0.961 . S
H564 C556 0.960 . S
H565 C557 0.930 . S
H566 C558 0.929 . S
H567 C575 0.929 . S
H568 C577 0.930 . S
H569 C579 0.930 . S
H570 C582 0.929 . S
H571 C585 0.930 . S
H572 C587 0.960 . S
H573 C587 0.960 . S
H574 C587 0.960 . S
C575 H567 0.929 . S
C575 C576 1.377 1_655 S
C575 C577 1.384 . S
C576 C575 1.377 1_455 S
C576 C582 1.390 . S
C577 H568 0.930 . S
C577 C575 1.384 . S
C577 C578 1.372 1_655 S
C578 C577 1.372 1_455 S
C578 C579 1.400 . S
C578 C583 1.490 . S
C579 H569 0.930 . S
C579 C578 1.400 . S
C579 C582 1.386 . S
H580 C596 0.930 . S
H581 C597 0.931 . S
C582 H570 0.929 . S
C582 C576 1.390 . S
C582 C579 1.386 . S
C583 C578 1.490 . S
C583 C585 1.395 . S
C583 C586 1.403 1_455 S
H584 C590 0.930 . S
C585 H571 0.930 . S
C585 C583 1.395 . S
C585 C588 1.403 . S
C586 C583 1.403 1_655 S
C586 C587 1.524 . S
C586 C590 1.400 . S
C587 H572 0.960 . S
C587 H573 0.960 . S
C587 H574 0.960 . S
C587 C586 1.524 . S
C588 C585 1.403 . S
C588 C589 1.392 . S
C588 C592 1.495 . S
C589 C588 1.392 . S
C589 C590 1.385 1_455 S
C589 C591 1.478 1_554 S
C590 H584 0.930 . S
C590 C586 1.400 . S
C590 C589 1.385 1_655 S
C591 C589 1.478 1_556 S
C591 C593 1.381 1_455 S
C591 C597 1.383 . S
C592 C588 1.495 . S
C592 H598 0.959 . S
C592 H599 0.986 . S
C592 H600 0.979 . S
C593 C591 1.381 1_655 S
C593 C594 1.394 . S
C593 H601 0.930 . S
C594 C593 1.394 . S
C594 C595 1.383 1_655 S
C594 H602 0.929 . S
C595 C594 1.383 1_455 S
C595 C596 1.377 . S
C596 H580 0.930 . S
C596 C595 1.377 . S
C596 C597 1.379 . S
C597 H581 0.931 . S
C597 C591 1.383 . S
C597 C596 1.379 . S
H598 C592 0.959 . S
H599 C592 0.986 . S
H600 C592 0.979 . S
H601 C593 0.930 . S
H602 C594 0.929 . S
H603 C611 0.929 . S
H604 C613 0.930 . S
H605 C615 0.930 . S
H606 C618 0.929 . S
H607 C621 0.930 . S
H608 C623 0.960 . S
H609 C623 0.960 . S
H610 C623 0.960 . S
C611 H603 0.929 . S
C611 C612 1.377 . S
C611 C613 1.384 . S
C612 C611 1.377 . S
C612 C618 1.390 1_545 S
C613 H604 0.930 . S
C613 C611 1.384 . S
C613 C614 1.372 . S
C614 C613 1.372 . S
C614 C615 1.400 1_545 S
C614 C619 1.490 . S
C615 H605 0.930 . S
C615 C614 1.400 1_565 S
C615 C618 1.386 . S
H616 C632 0.930 . S
H617 C633 0.931 . S
C618 H606 0.929 . S
C618 C612 1.390 1_565 S
C618 C615 1.386 . S
C619 C614 1.490 . S
C619 C621 1.395 . S
C619 C622 1.403 1_545 S
H620 C626 0.930 . S
C621 H607 0.930 . S
C621 C619 1.395 . S
C621 C624 1.403 . S
C622 C619 1.403 1_565 S
C622 C623 1.524 . S
C622 C626 1.400 . S
C623 H608 0.960 . S
C623 H609 0.960 . S
C623 H610 0.960 . S
C623 C622 1.524 . S
C624 C621 1.403 . S
C624 C625 1.392 . S
C624 C628 1.495 . S
C625 C624 1.392 . S
C625 C626 1.385 1_545 S
C625 C627 1.478 . S
C626 H620 0.930 . S
C626 C622 1.400 . S
C626 C625 1.385 1_565 S
C627 C625 1.478 . S
C627 C629 1.381 . S
C627 C633 1.383 1_545 S
C628 C624 1.495 . S
C628 H634 0.959 . S
C628 H635 0.961 . S
C628 H636 0.960 . S
C629 C627 1.381 . S
C629 C630 1.394 . S
C629 H637 0.930 . S
C630 C629 1.394 . S
C630 C631 1.383 . S
C630 H638 0.929 . S
C631 C630 1.383 . S
C631 C632 1.377 1_545 S
C632 H616 0.930 . S
C632 C631 1.377 1_565 S
C632 C633 1.379 . S
C633 H617 0.931 . S
C633 C627 1.383 1_565 S
C633 C632 1.379 . S
H634 C628 0.959 . S
H635 C628 0.961 . S
H636 C628 0.960 . S
H637 C629 0.930 . S
H638 C630 0.929 . S
H639 C647 0.929 . S
H640 C649 0.930 . S
H641 C651 0.930 . S
H642 C654 0.929 . S
H643 C657 0.930 . S
H644 C659 0.960 . S
H645 C659 0.960 . S
H646 C659 0.960 . S
C647 H639 0.929 . S
C647 C648 1.377 . S
C647 C649 1.384 . S
C648 C647 1.377 . S
C648 C654 1.390 . S
C649 H640 0.930 . S
C649 C647 1.384 . S
C649 C650 1.372 . S
C650 C649 1.372 . S
C650 C651 1.400 . S
C650 C655 1.490 . S
C651 H641 0.930 . S
C651 C650 1.400 . S
C651 C654 1.386 . S
H652 C668 0.930 . S
H653 C669 0.931 . S
C654 H642 0.929 . S
C654 C648 1.390 . S
C654 C651 1.386 . S
C655 C650 1.490 . S
C655 C657 1.395 . S
C655 C658 1.403 . S
H656 C662 0.930 . S
C657 H643 0.930 . S
C657 C655 1.395 . S
C657 C660 1.403 . S
C658 C655 1.403 . S
C658 C659 1.524 . S
C658 C662 1.400 . S
C659 H644 0.960 . S
C659 H645 0.960 . S
C659 H646 0.960 . S
C659 C658 1.524 . S
C660 C657 1.403 . S
C660 C661 1.392 . S
C660 C664 1.495 . S
C661 C660 1.392 . S
C661 C662 1.385 . S
C661 C663 1.478 . S
C662 H656 0.930 . S
C662 C658 1.400 . S
C662 C661 1.385 . S
C663 C661 1.478 . S
C663 C665 1.381 . S
C663 C669 1.383 . S
C664 C660 1.495 . S
C664 H670 0.959 . S
C664 H671 0.961 . S
C664 H672 0.960 . S
C665 C663 1.381 . S
C665 C666 1.394 . S
C665 H673 0.930 . S
C666 C665 1.394 . S
C666 C667 1.383 . S
C666 H674 0.929 . S
C667 C666 1.383 . S
C667 C668 1.377 . S
C668 H652 0.930 . S
C668 C667 1.377 . S
C668 C669 1.379 . S
C669 H653 0.931 . S
C669 C663 1.383 . S
C669 C668 1.379 . S
H670 C664 0.959 . S
H671 C664 0.961 . S
H672 C664 0.960 . S
H673 C665 0.930 . S
H674 C666 0.929 . S
H675 C683 0.929 . S
H676 C685 0.943 . S
H677 C687 0.930 . S
H678 C690 0.929 . S
H679 C693 0.930 . S
H680 C695 0.960 . S
H681 C695 0.960 . S
H682 C695 0.960 . S
C683 H675 0.929 . S
C683 C684 1.377 1_565 S
C683 C685 1.384 . S
C684 C683 1.377 1_545 S
C684 C690 1.390 . S
C685 H676 0.943 . S
C685 C683 1.384 . S
C685 C686 1.359 1_565 S
C686 C685 1.359 1_545 S
C686 C687 1.400 . S
C686 C691 1.490 . S
C687 H677 0.930 . S
C687 C686 1.400 . S
C687 C690 1.386 . S
H688 C704 0.930 . S
H689 C705 0.931 . S
C690 H678 0.929 . S
C690 C684 1.390 . S
C690 C687 1.386 . S
C691 C686 1.490 . S
C691 C693 1.395 . S
C691 C694 1.403 1_545 S
H692 C698 0.930 . S
C693 H679 0.930 . S
C693 C691 1.395 . S
C693 C696 1.403 . S
C694 C691 1.403 1_565 S
C694 C695 1.524 . S
C694 C698 1.400 . S
C695 H680 0.960 . S
C695 H681 0.960 . S
C695 H682 0.960 . S
C695 C694 1.524 . S
C696 C693 1.403 . S
C696 C697 1.392 . S
C696 C700 1.495 . S
C697 C696 1.392 . S
C697 C698 1.385 1_545 S
C697 C699 1.478 . S
C698 H692 0.930 . S
C698 C694 1.400 . S
C698 C697 1.385 1_565 S
C699 C697 1.478 . S
C699 C701 1.381 . S
C699 C705 1.383 . S
C700 C696 1.495 . S
C700 H706 0.959 . S
C700 H707 0.961 . S
C700 H708 0.960 . S
C701 C699 1.381 . S
C701 C702 1.394 . S
C701 H709 0.930 1_545 S
C702 C701 1.394 . S
C702 C703 1.383 . S
C702 H710 0.929 1_545 S
C703 C702 1.383 . S
C703 C704 1.377 . S
C704 H688 0.930 . S
C704 C703 1.377 . S
C704 C705 1.379 . S
C705 H689 0.931 . S
C705 C699 1.383 . S
C705 C704 1.379 . S
H706 C700 0.959 . S
H707 C700 0.961 . S
H708 C700 0.960 . S
H709 C701 0.930 1_565 S
H710 C702 0.929 1_565 S
H711 C719 0.929 . S
H712 C721 0.930 . S
H713 C723 0.930 . S
H714 C726 0.929 . S
H715 C729 0.930 . S
H716 C731 0.960 . S
H717 C731 0.960 . S
H718 C731 0.960 . S
C719 H711 0.929 . S
C719 C720 1.377 . S
C719 C721 1.384 . S
C720 C719 1.377 . S
C720 C726 1.390 . S
C721 H712 0.930 . S
C721 C719 1.384 . S
C721 C722 1.372 . S
C722 C721 1.372 . S
C722 C723 1.400 . S
C722 C727 1.490 . S
C723 H713 0.930 . S
C723 C722 1.400 . S
C723 C726 1.386 . S
H724 C740 0.930 . S
H725 C741 0.931 . S
C726 H714 0.929 . S
C726 C720 1.390 . S
C726 C723 1.386 . S
C727 C722 1.490 . S
C727 C729 1.395 . S
C727 C730 1.403 . S
H728 C734 0.930 . S
C729 H715 0.930 . S
C729 C727 1.395 . S
C729 C732 1.403 . S
C730 C727 1.403 . S
C730 C731 1.524 . S
C730 C734 1.400 . S
C731 H716 0.960 . S
C731 H717 0.960 . S
C731 H718 0.960 . S
C731 C730 1.524 . S
C732 C729 1.403 . S
C732 C733 1.392 . S
C732 C736 1.495 . S
C733 C732 1.392 . S
C733 C734 1.385 . S
C733 C735 1.478 1_556 S
C734 H728 0.930 . S
C734 C730 1.400 . S
C734 C733 1.385 . S
C735 C733 1.478 1_554 S
C735 C737 1.381 . S
C735 C741 1.383 . S
C736 C732 1.495 . S
C736 H742 0.959 . S
C736 H743 0.961 . S
C736 H744 0.984 . S
C737 C735 1.381 . S
C737 C738 1.394 . S
C737 H745 0.930 . S
C738 C737 1.394 . S
C738 C739 1.383 . S
C738 H746 0.929 . S
C739 C738 1.383 . S
C739 C740 1.377 . S
C740 H724 0.930 . S
C740 C739 1.377 . S
C740 C741 1.379 . S
C741 H725 0.931 . S
C741 C735 1.383 . S
C741 C740 1.379 . S
H742 C736 0.959 . S
H743 C736 0.961 . S
H744 C736 0.984 . S
H745 C737 0.930 . S
H746 C738 0.929 . S
H747 C755 0.929 . S
H748 C757 0.930 . S
H749 C759 0.930 . S
H750 C762 0.929 . S
H751 C765 0.930 . S
H752 C767 0.960 . S
H753 C767 0.960 . S
H754 C767 0.960 . S
C755 H747 0.929 . S
C755 C756 1.377 1_655 S
C755 C757 1.384 . S
C756 C755 1.377 1_455 S
C756 C762 1.390 . S
C757 H748 0.930 . S
C757 C755 1.384 . S
C757 C758 1.369 1_655 S
C758 C757 1.369 1_455 S
C758 C759 1.403 . S
C758 C763 1.490 1_455 S
C759 H749 0.930 . S
C759 C758 1.403 . S
C759 C762 1.386 . S
H760 C776 0.930 . S
H761 C777 0.931 . S
C762 H750 0.929 . S
C762 C756 1.390 . S
C762 C759 1.386 . S
C763 C758 1.490 1_655 S
C763 C765 1.395 . S
C763 C766 1.403 1_655 S
H764 C770 0.930 . S
C765 H751 0.930 . S
C765 C763 1.395 . S
C765 C768 1.403 . S
C766 C763 1.403 1_455 S
C766 C767 1.524 . S
C766 C770 1.400 . S
C767 H752 0.960 . S
C767 H753 0.960 . S
C767 H754 0.960 . S
C767 C766 1.524 . S
C768 C765 1.403 . S
C768 C769 1.392 . S
C768 C772 1.495 . S
C769 C768 1.392 . S
C769 C770 1.385 1_655 S
C769 C771 1.478 . S
C770 H764 0.930 . S
C770 C766 1.400 . S
C770 C769 1.385 1_455 S
C771 C769 1.478 . S
C771 C773 1.381 . S
C771 C777 1.383 1_655 S
C772 C768 1.495 . S
C772 H778 0.959 . S
C772 H779 0.961 . S
C772 H780 0.960 . S
C773 C771 1.381 . S
C773 C774 1.394 . S
C773 H781 0.930 . S
C774 C773 1.394 . S
C774 C775 1.383 . S
C774 H782 0.929 . S
C775 C774 1.383 . S
C775 C776 1.377 1_655 S
C776 H760 0.930 . S
C776 C775 1.377 1_455 S
C776 C777 1.379 . S
C777 H761 0.931 . S
C777 C771 1.383 1_455 S
C777 C776 1.379 . S
H778 C772 0.959 . S
H779 C772 0.961 . S
H780 C772 0.960 . S
H781 C773 0.930 . S
H782 C774 0.929 . S
C144 C20 1.344 . S
C163 C129 1.229 . S
C180 C41 1.407 . S
C199 C107 1.219 . S
C216 C64 0.996 . S
C235 C121 0.956 . S
C252 C19 0.972 . S
C271 C132 0.951 . S
C307 C110 0.948 . S
C288 C44 0.970 . S
C343 C118 1.259 . S
C324 C67 1.391 . S
C360 C43 1.340 . S
C379 C85 1.196 . S
C396 C66 1.339 . S
C415 C96 1.232 . S
C432 C21 1.398 . S
C451 C74 1.280 . S
C487 C88 0.986 . S
C468 C42 0.975 . S
C523 C99 0.982 . S
C504 C65 0.981 . S
C540 C18 0.983 . S
C559 C77 0.995 . S
C595 C98 1.436 . S
C576 C17 1.495 . S
C612 C39 1.491 . S
C631 C76 1.396 . S
C648 C62 1.511 . S
C667 C87 1.411 . S
C703 C120 1.400 . S
C684 C40 1.474 . S
C739 C131 1.447 . S
C720 C63 1.494 . S
C756 C16 1.491 . S
C775 C109 1.449 . S
