# Generated by pormake.
# Topology ocu, (6,8)-cn, num edge types: 1
# Building blocks:
#     Node 0, Type 0, BuildingBlock: VOLQOD_clean_sbu_1, # of connection points: 6
#     Node 1, Type 0, BuildingBlock: VOLQOD_clean_sbu_1, # of connection points: 6
#     Node 2, Type 0, BuildingBlock: VOLQOD_clean_sbu_1, # of connection points: 6
#     Node 3, Type 0, BuildingBlock: VOLQOD_clean_sbu_1, # of connection points: 6
#     Node 4, Type 0, BuildingBlock: VOLQOD_clean_sbu_1, # of connection points: 6
#     Node 5, Type 0, BuildingBlock: VOLQOD_clean_sbu_1, # of connection points: 6
#     Node 6, Type 0, BuildingBlock: VOLQOD_clean_sbu_1, # of connection points: 6
#     Node 7, Type 0, BuildingBlock: VOLQOD_clean_sbu_1, # of connection points: 6
#     Node 8, Type 1, BuildingBlock: GIZVER_clean_sbu_0, # of connection points: 8
#     Node 9, Type 1, BuildingBlock: GIZVER_clean_sbu_0, # of connection points: 8
#     Node 10, Type 1, BuildingBlock: GIZVER_clean_sbu_0, # of connection points: 8
#     Node 11, Type 1, BuildingBlock: GIZVER_clean_sbu_0, # of connection points: 8
#     Node 12, Type 1, BuildingBlock: GIZVER_clean_sbu_0, # of connection points: 8
#     Node 13, Type 1, BuildingBlock: GIZVER_clean_sbu_0, # of connection points: 8
#     Edge 14, Type (0, 1), BuildingBlock: XUDNAN_clean_linker_2, # of connection points: 2
#     Edge 15, Type (0, 1), BuildingBlock: XUDNAN_clean_linker_2, # of connection points: 2
#     Edge 16, Type (0, 1), BuildingBlock: XUDNAN_clean_linker_2, # of connection points: 2
#     Edge 17, Type (0, 1), BuildingBlock: XUDNAN_clean_linker_2, # of connection points: 2
#     Edge 18, Type (0, 1), BuildingBlock: XUDNAN_clean_linker_2, # of connection points: 2
#     Edge 19, Type (0, 1), BuildingBlock: XUDNAN_clean_linker_2, # of connection points: 2
#     Edge 20, Type (0, 1), BuildingBlock: XUDNAN_clean_linker_2, # of connection points: 2
#     Edge 21, Type (0, 1), BuildingBlock: XUDNAN_clean_linker_2, # of connection points: 2
#     Edge 22, Type (0, 1), BuildingBlock: XUDNAN_clean_linker_2, # of connection points: 2
#     Edge 23, Type (0, 1), BuildingBlock: XUDNAN_clean_linker_2, # of connection points: 2
#     Edge 24, Type (0, 1), BuildingBlock: XUDNAN_clean_linker_2, # of connection points: 2
#     Edge 25, Type (0, 1), BuildingBlock: XUDNAN_clean_linker_2, # of connection points: 2
#     Edge 26, Type (0, 1), BuildingBlock: XUDNAN_clean_linker_2, # of connection points: 2
#     Edge 27, Type (0, 1), BuildingBlock: XUDNAN_clean_linker_2, # of connection points: 2
#     Edge 28, Type (0, 1), BuildingBlock: XUDNAN_clean_linker_2, # of connection points: 2
#     Edge 29, Type (0, 1), BuildingBlock: XUDNAN_clean_linker_2, # of connection points: 2
#     Edge 30, Type (0, 1), BuildingBlock: XUDNAN_clean_linker_2, # of connection points: 2
#     Edge 31, Type (0, 1), BuildingBlock: XUDNAN_clean_linker_2, # of connection points: 2
#     Edge 32, Type (0, 1), BuildingBlock: XUDNAN_clean_linker_2, # of connection points: 2
#     Edge 33, Type (0, 1), BuildingBlock: XUDNAN_clean_linker_2, # of connection points: 2
#     Edge 34, Type (0, 1), BuildingBlock: XUDNAN_clean_linker_2, # of connection points: 2
#     Edge 35, Type (0, 1), BuildingBlock: XUDNAN_clean_linker_2, # of connection points: 2
#     Edge 36, Type (0, 1), BuildingBlock: XUDNAN_clean_linker_2, # of connection points: 2
#     Edge 37, Type (0, 1), BuildingBlock: XUDNAN_clean_linker_2, # of connection points: 2
#     Edge 38, Type (0, 1), BuildingBlock: XUDNAN_clean_linker_2, # of connection points: 2
#     Edge 39, Type (0, 1), BuildingBlock: XUDNAN_clean_linker_2, # of connection points: 2
#     Edge 40, Type (0, 1), BuildingBlock: XUDNAN_clean_linker_2, # of connection points: 2
#     Edge 41, Type (0, 1), BuildingBlock: XUDNAN_clean_linker_2, # of connection points: 2
#     Edge 42, Type (0, 1), BuildingBlock: XUDNAN_clean_linker_2, # of connection points: 2
#     Edge 43, Type (0, 1), BuildingBlock: XUDNAN_clean_linker_2, # of connection points: 2
#     Edge 44, Type (0, 1), BuildingBlock: XUDNAN_clean_linker_2, # of connection points: 2
#     Edge 45, Type (0, 1), BuildingBlock: XUDNAN_clean_linker_2, # of connection points: 2
#     Edge 46, Type (0, 1), BuildingBlock: XUDNAN_clean_linker_2, # of connection points: 2
#     Edge 47, Type (0, 1), BuildingBlock: XUDNAN_clean_linker_2, # of connection points: 2
#     Edge 48, Type (0, 1), BuildingBlock: XUDNAN_clean_linker_2, # of connection points: 2
#     Edge 49, Type (0, 1), BuildingBlock: XUDNAN_clean_linker_2, # of connection points: 2
#     Edge 50, Type (0, 1), BuildingBlock: XUDNAN_clean_linker_2, # of connection points: 2
#     Edge 51, Type (0, 1), BuildingBlock: XUDNAN_clean_linker_2, # of connection points: 2
#     Edge 52, Type (0, 1), BuildingBlock: XUDNAN_clean_linker_2, # of connection points: 2
#     Edge 53, Type (0, 1), BuildingBlock: XUDNAN_clean_linker_2, # of connection points: 2
#     Edge 54, Type (0, 1), BuildingBlock: XUDNAN_clean_linker_2, # of connection points: 2
#     Edge 55, Type (0, 1), BuildingBlock: XUDNAN_clean_linker_2, # of connection points: 2
#     Edge 56, Type (0, 1), BuildingBlock: XUDNAN_clean_linker_2, # of connection points: 2
#     Edge 57, Type (0, 1), BuildingBlock: XUDNAN_clean_linker_2, # of connection points: 2
#     Edge 58, Type (0, 1), BuildingBlock: XUDNAN_clean_linker_2, # of connection points: 2
#     Edge 59, Type (0, 1), BuildingBlock: XUDNAN_clean_linker_2, # of connection points: 2
#     Edge 60, Type (0, 1), BuildingBlock: XUDNAN_clean_linker_2, # of connection points: 2
#     Edge 61, Type (0, 1), BuildingBlock: XUDNAN_clean_linker_2, # of connection points: 2
# Relax obj value: 0.254
# Max RMSD: 0.358
# Mean RMSD: 0.249
data_MOF--net-ocu--node1-VOLQOD_clean_sbu_1--node2-GIZVER_clean_sbu_0--edge1-XUDNAN_clean_linker_2
_symmetry_space_group_name_H-M    P1
_symmetry_Int_Tables_number       1
_symmetry_cell_setting            triclinic
loop_
_symmetry_equiv_pos_as_xyz
'x, y, z'
_cell_length_a     41.95552
_cell_length_b     43.902673
_cell_length_c     30.777484
_cell_angle_alpha  88.748505
_cell_angle_beta   90.777183
_cell_angle_gamma 101.05352
loop_
_atom_site_label
_atom_site_type_symbol
_atom_site_fract_x
_atom_site_fract_y
_atom_site_fract_z
_atom_type_partial_charge
O0 O 0.31434 0.31351 0.27788 0.0
Zn1 Zn 0.28039 0.27925 0.30485 0.0
O2 O 0.25592 0.25248 0.25945 0.0
Zn3 Zn 0.2095 0.25243 0.26231 0.0
Zn4 Zn 0.27107 0.26825 0.20218 0.0
Zn5 Zn 0.26195 0.2095 0.26687 0.0
O6 O 0.18298 0.2095 0.27182 0.0
O7 O 0.21989 0.17961 0.28022 0.0
O8 O 0.24943 0.29985 0.33963 0.0
O9 O 0.20115 0.27795 0.31248 0.0
O10 O 0.19285 0.27195 0.20867 0.0
O11 O 0.23587 0.28214 0.16598 0.0
O12 O 0.29064 0.23674 0.17096 0.0
O13 O 0.30475 0.25398 0.34573 0.0
O14 O 0.28414 0.19515 0.21472 0.0
O15 O 0.2912 0.20697 0.31775 0.0
C16 C 0.3215 0.32102 0.23846 0.0
C17 C 0.19049 0.18321 0.27996 0.0
C18 C 0.20618 0.28271 0.17318 0.0
C19 C 0.2185 0.29594 0.33916 0.0
C20 C 0.29457 0.20917 0.17948 0.0
C21 C 0.30636 0.22524 0.34592 0.0
O22 O 0.30657 0.30571 0.20724 0.0
O23 O 0.75251 0.20684 0.16473 0.0
Zn24 Zn 0.78045 0.23545 0.20804 0.0
O25 O 0.75326 0.25335 0.2476 0.0
Zn26 Zn 0.75775 0.29637 0.23288 0.0
Zn27 Zn 0.70847 0.23502 0.2391 0.0
Zn28 Zn 0.76618 0.24932 0.3085 0.0
O29 O 0.78718 0.32179 0.27529 0.0
O30 O 0.79157 0.29 0.33133 0.0
O31 O 0.81083 0.26989 0.17529 0.0
O32 O 0.78003 0.30566 0.17662 0.0
O33 O 0.71576 0.31061 0.22564 0.0
O34 O 0.68157 0.26586 0.21802 0.0
O35 O 0.69058 0.21556 0.29417 0.0
O36 O 0.80656 0.20946 0.24339 0.0
O37 O 0.72763 0.23033 0.34593 0.0
O38 O 0.79656 0.21913 0.31208 0.0
C39 C 0.72247 0.19439 0.16675 0.0
C40 C 0.79846 0.31661 0.31268 0.0
C41 C 0.68768 0.29539 0.21627 0.0
C42 C 0.80416 0.29569 0.162 0.0
C43 C 0.69958 0.21627 0.33377 0.0
C44 C 0.81047 0.20527 0.28414 0.0
O45 O 0.70391 0.20207 0.19512 0.0
O46 O 0.6971 0.71593 0.27375 0.0
Zn47 Zn 0.73429 0.74596 0.30283 0.0
O48 O 0.76651 0.76365 0.25763 0.0
Zn49 Zn 0.80735 0.75097 0.26845 0.0
Zn50 Zn 0.75326 0.74844 0.19965 0.0
Zn51 Zn 0.77385 0.80908 0.25843 0.0
O52 O 0.8398 0.78601 0.29058 0.0
O53 O 0.82003 0.82866 0.2775 0.0
O54 O 0.75619 0.72095 0.3483 0.0
O55 O 0.80289 0.71933 0.31553 0.0
O56 O 0.82624 0.73424 0.21674 0.0
O57 O 0.78706 0.72982 0.167 0.0
O58 O 0.73993 0.78318 0.16415 0.0
O59 O 0.71543 0.78044 0.33322 0.0
O60 O 0.75788 0.82589 0.20184 0.0
O61 O 0.74592 0.82254 0.30369 0.0
C62 C 0.69361 0.70536 0.23524 0.0
C63 C 0.84259 0.81528 0.29198 0.0
C64 C 0.81526 0.72623 0.17918 0.0
C65 C 0.78289 0.71108 0.34609 0.0
C66 C 0.74337 0.81245 0.16866 0.0
C67 C 0.72392 0.80998 0.32999 0.0
O68 O 0.71392 0.71523 0.20542 0.0
O69 O 0.30295 0.78874 0.3333 0.0
Zn70 Zn 0.27501 0.7544 0.29684 0.0
O71 O 0.24364 0.77106 0.2582 0.0
Zn72 Zn 0.19914 0.75157 0.27063 0.0
Zn73 Zn 0.24774 0.81527 0.26557 0.0
Zn74 Zn 0.25138 0.76423 0.19771 0.0
O75 O 0.17571 0.7292 0.21917 0.0
O76 O 0.21146 0.74221 0.16633 0.0
O77 O 0.25029 0.7209 0.3375 0.0
O78 O 0.19914 0.71974 0.3166 0.0
O79 O 0.17472 0.78136 0.29665 0.0
O80 O 0.20791 0.82694 0.2895 0.0
O81 O 0.26292 0.84015 0.21213 0.0
O82 O 0.30287 0.73138 0.26119 0.0
O83 O 0.27117 0.80396 0.16667 0.0
O84 O 0.282 0.73507 0.19477 0.0
C85 C 0.30099 0.81737 0.33484 0.0
C86 C 0.18389 0.72798 0.17964 0.0
C87 C 0.18136 0.81049 0.30252 0.0
C88 C 0.21995 0.71 0.34072 0.0
C89 C 0.27309 0.83238 0.17605 0.0
C90 C 0.3011 0.72464 0.22105 0.0
O91 O 0.28101 0.82869 0.31104 0.0
O92 O 0.24006 0.70183 0.66957 0.0
Zn93 Zn 0.27587 0.7274 0.70628 0.0
O94 O 0.25756 0.75137 0.75028 0.0
Zn95 Zn 0.27644 0.79472 0.74537 0.0
Zn96 Zn 0.21076 0.74623 0.74229 0.0
Zn97 Zn 0.26687 0.73786 0.80865 0.0
O98 O 0.29871 0.81174 0.79991 0.0
O99 O 0.28884 0.77247 0.84761 0.0
O100 O 0.30532 0.75617 0.6655 0.0
O101 O 0.30851 0.8016 0.69777 0.0
O102 O 0.24268 0.81968 0.73101 0.0
O103 O 0.19529 0.78698 0.7335 0.0
O104 O 0.1872 0.71911 0.79025 0.0
O105 O 0.30422 0.70008 0.73511 0.0
O106 O 0.22719 0.71228 0.83517 0.0
O107 O 0.29777 0.70953 0.80494 0.0
C108 C 0.21042 0.70443 0.66493 0.0
C109 C 0.30106 0.80057 0.83797 0.0
C110 C 0.21185 0.81429 0.72808 0.0
C111 C 0.31701 0.785 0.66838 0.0
C112 C 0.19736 0.70645 0.82404 0.0
C113 C 0.31037 0.69624 0.77526 0.0
O114 O 0.19783 0.722 0.68905 0.0
O115 O 0.19527 0.19627 0.77218 0.0
Zn116 Zn 0.23098 0.22491 0.80563 0.0
O117 O 0.25871 0.25212 0.76306 0.0
Zn118 Zn 0.30417 0.25341 0.77557 0.0
Zn119 Zn 0.25056 0.23742 0.70336 0.0
Zn120 Zn 0.25067 0.29416 0.76664 0.0
O121 O 0.32775 0.29553 0.79227 0.0
O122 O 0.29119 0.32527 0.78109 0.0
O123 O 0.25884 0.20023 0.84372 0.0
O124 O 0.30821 0.22576 0.82598 0.0
O125 O 0.32715 0.23735 0.72665 0.0
O126 O 0.2886 0.22105 0.67785 0.0
O127 O 0.2366 0.27068 0.66406 0.0
O128 O 0.20766 0.25071 0.84534 0.0
O129 O 0.2298 0.3063 0.71178 0.0
O130 O 0.22042 0.29764 0.81483 0.0
C131 C 0.19188 0.18975 0.73193 0.0
C132 C 0.31963 0.32196 0.79255 0.0
C133 C 0.31792 0.22394 0.69112 0.0
C134 C 0.28971 0.20551 0.84887 0.0
C135 C 0.22696 0.29556 0.67357 0.0
C136 C 0.20566 0.27941 0.84382 0.0
O137 O 0.21205 0.20281 0.70358 0.0
O138 O 0.80424 0.26103 0.824 0.0
Zn139 Zn 0.76851 0.23435 0.78678 0.0
O140 O 0.74704 0.26031 0.74653 0.0
Zn141 Zn 0.70039 0.25357 0.7558 0.0
Zn142 Zn 0.76452 0.30344 0.75637 0.0
Zn143 Zn 0.75434 0.25159 0.68582 0.0
O144 O 0.67513 0.23505 0.70296 0.0
O145 O 0.71331 0.22971 0.65615 0.0
O146 O 0.73484 0.20589 0.82354 0.0
O147 O 0.68931 0.22 0.80042 0.0
O148 O 0.68512 0.29179 0.77785 0.0
O149 O 0.73168 0.32564 0.77939 0.0
O150 O 0.78323 0.32516 0.70268 0.0
O151 O 0.79009 0.20547 0.75172 0.0
O152 O 0.77662 0.28939 0.65194 0.0
O153 O 0.78376 0.2215 0.68363 0.0
C154 C 0.81405 0.29043 0.82356 0.0
C155 C 0.6836 0.22502 0.66712 0.0
C156 C 0.70134 0.31872 0.78622 0.0
C157 C 0.70397 0.20278 0.82398 0.0
C158 C 0.78706 0.3171 0.664 0.0
C159 C 0.79493 0.20416 0.71108 0.0
O160 O 0.80107 0.3082 0.79881 0.0
O161 O 0.81592 0.80339 0.76651 0.0
Zn162 Zn 0.78015 0.77055 0.79192 0.0
O163 O 0.75492 0.7464 0.74505 0.0
Zn164 Zn 0.71043 0.75337 0.74424 0.0
Zn165 Zn 0.77517 0.75875 0.6888 0.0
Zn166 Zn 0.75321 0.70208 0.75476 0.0
O167 O 0.67787 0.71441 0.75817 0.0
O168 O 0.7084 0.67903 0.7709 0.0
O169 O 0.75191 0.79416 0.82641 0.0
O170 O 0.70533 0.78421 0.78957 0.0
O171 O 0.69896 0.77147 0.68696 0.0
O172 O 0.74375 0.77512 0.648 0.0
O173 O 0.79211 0.7231 0.66178 0.0
O174 O 0.8015 0.74254 0.83182 0.0
O175 O 0.77013 0.68236 0.703 0.0
O176 O 0.78236 0.69608 0.80457 0.0
C177 C 0.82566 0.81024 0.72786 0.0
C178 C 0.6808 0.68705 0.76967 0.0
C179 C 0.71466 0.7792 0.65205 0.0
C180 C 0.72283 0.79802 0.82006 0.0
C181 C 0.78669 0.69399 0.67016 0.0
C182 C 0.79978 0.7132 0.83212 0.0
O183 O 0.81247 0.79473 0.69566 0.0
Co184 Co 0.04952 0.95312 0.52066 0.0
Co185 Co 0.05251 0.9898 0.58638 0.0
Co186 Co 0.00522 0.00975 0.52015 0.0
O187 O 0.04708 0.99589 0.52733 0.0
H188 H 0.06527 0.01033 0.51527 0.0
O189 O 0.963 0.02269 0.51372 0.0
Co190 Co 0.9559 0.06254 0.52742 0.0
Co191 Co 0.95543 0.03235 0.45784 0.0
H192 H 0.94538 0.0065 0.52331 0.0
O193 O 0.09296 0.99271 0.60796 0.0
O194 O 0.05906 0.94939 0.58461 0.0
O195 O 0.01726 0.99033 0.626 0.0
O196 O 0.98338 0.98338 0.56997 0.0
O197 O 0.02139 0.04419 0.5596 0.0
O198 O 0.94497 0.09772 0.54225 0.0
O199 O 0.91332 0.05013 0.53681 0.0
O200 O 0.00112 0.08051 0.52328 0.0
O201 O 0.02705 0.03628 0.46976 0.0
O202 O 0.98972 0.0328 0.41749 0.0
O203 O 0.94744 0.07186 0.46433 0.0
O204 O 0.91488 0.02906 0.43615 0.0
C205 C 0.0842 0.92911 0.50564 0.0
C206 C 0.98692 0.94705 0.49407 0.0
C207 C 0.9891 0.98089 0.61056 0.0
C208 C 0.0861 0.96274 0.60377 0.0
C209 C 0.91717 0.0791 0.54785 0.0
C210 C 0.02134 0.07255 0.55059 0.0
C211 C 0.01908 0.03946 0.42985 0.0
C212 C 0.92258 0.05902 0.4404 0.0
O213 O 0.05468 0.91528 0.51372 0.0
O214 O 0.09268 0.9592 0.50922 0.0
O215 O 0.98915 0.97506 0.48109 0.0
O216 O 0.0038 0.94058 0.52667 0.0
Co217 Co 0.55049 0.94438 0.98209 0.0
Co218 Co 0.53759 0.94684 0.0603 0.0
Co219 Co 0.50844 0.00148 0.01217 0.0
O220 O 0.54472 0.97794 0.0191 0.0
H221 H 0.56516 0.99179 0.02463 0.0
O222 O 0.47222 0.02475 0.00588 0.0
Co223 Co 0.47654 0.06647 0.02461 0.0
Co224 Co 0.46736 0.03969 0.94977 0.0
H225 H 0.45181 0.01217 0.01508 0.0
O226 O 0.57183 0.94148 0.09535 0.0
O227 O 0.55441 0.91678 0.03321 0.0
O228 O 0.49284 0.93367 0.0742 0.0
O229 O 0.48375 0.98172 0.06482 0.0
O230 O 0.53417 0.03467 0.04854 0.0
O231 O 0.47694 0.10434 0.04331 0.0
O232 O 0.43476 0.06399 0.04179 0.0
O233 O 0.52169 0.07451 0.01082 0.0
O234 O 0.53391 0.02167 0.96074 0.0
O235 O 0.50443 0.04369 0.91308 0.0
O236 O 0.46474 0.07964 0.96502 0.0
O237 O 0.42694 0.04528 0.92973 0.0
C238 C 0.58921 0.93008 0.95457 0.0
C239 C 0.48035 0.94071 0.97299 0.0
C240 C 0.47404 0.9531 0.07518 0.0
C241 C 0.57505 0.92163 0.06569 0.0
C242 C 0.4465 0.09296 0.05078 0.0
C243 C 0.54187 0.06238 0.03348 0.0
C244 C 0.53118 0.03675 0.9254 0.0
C245 C 0.4364 0.07268 0.94578 0.0
O246 O 0.55957 0.91561 0.9478 0.0
O247 O 0.59451 0.95466 0.97883 0.0
O248 O 0.48183 0.96981 0.97483 0.0
O249 O 0.50497 0.9284 0.98045 0.0
Co250 Co 0.03612 0.43331 0.99949 0.0
Co251 Co 0.04521 0.46318 0.0731 0.0
Co252 Co 0.00565 0.50009 0.00692 0.0
O253 O 0.0419 0.47663 0.01502 0.0
H254 H 0.06249 0.48856 0.00545 0.0
O255 O 0.96893 0.5233 0.99897 0.0
Co256 Co 0.97575 0.56627 0.01518 0.0
Co257 Co 0.96496 0.53722 0.94162 0.0
H258 H 0.94843 0.51149 0.00905 0.0
O259 O 0.08516 0.45624 0.09366 0.0
O260 O 0.04577 0.42239 0.06031 0.0
O261 O 0.00746 0.45998 0.10887 0.0
O262 O 0.97923 0.47858 0.05626 0.0
O263 O 0.03004 0.53341 0.0456 0.0
O264 O 0.97937 0.6049 0.03127 0.0
O265 O 0.9341 0.56801 0.03168 0.0
O266 O 0.01971 0.57071 0.00169 0.0
O267 O 0.03195 0.52145 0.95687 0.0
O268 O 0.00188 0.53853 0.90484 0.0
O269 O 0.96623 0.57838 0.95526 0.0
O270 O 0.92566 0.54661 0.92148 0.0
C271 C 0.06512 0.4037 0.9786 0.0
C272 C 0.9747 0.43844 0.98064 0.0
C273 C 0.9808 0.46477 0.09288 0.0
C274 C 0.07438 0.42879 0.07854 0.0
C275 C 0.94861 0.59659 0.03936 0.0
C276 C 0.03735 0.56125 0.03077 0.0
C277 C 0.02909 0.53424 0.91968 0.0
C278 C 0.93776 0.57375 0.93675 0.0
O279 O 0.03422 0.39409 0.98482 0.0
O280 O 0.07792 0.4329 0.98476 0.0
O281 O 0.98208 0.46686 0.96817 0.0
O282 O 0.99109 0.42826 0.01082 0.0
Co283 Co 0.54168 0.45869 0.98726 0.0
Co284 Co 0.55269 0.4811 0.06457 0.0
Co285 Co 0.5031 0.51545 0.02091 0.0
O286 O 0.54252 0.49838 0.01219 0.0
H287 H 0.56056 0.51401 0.00233 0.0
O288 O 0.46306 0.53162 0.03039 0.0
Co289 Co 0.46256 0.57182 0.05072 0.0
Co290 Co 0.45167 0.54557 0.97766 0.0
H291 H 0.44553 0.51606 0.04175 0.0
O292 O 0.59265 0.47184 0.07656 0.0
O293 O 0.5494 0.44076 0.04576 0.0
O294 O 0.52308 0.48016 0.11271 0.0
O295 O 0.48397 0.48209 0.06453 0.0
O296 O 0.52586 0.54211 0.06761 0.0
O297 O 0.45796 0.60798 0.07187 0.0
O298 O 0.42017 0.56454 0.06269 0.0
O299 O 0.50801 0.58383 0.04355 0.0
O300 O 0.52178 0.54845 0.97606 0.0
O301 O 0.48065 0.54547 0.92969 0.0
O302 O 0.45336 0.5864 0.99027 0.0
O303 O 0.41068 0.55047 0.96581 0.0
C304 C 0.57571 0.43878 0.95849 0.0
C305 C 0.47608 0.46052 0.97302 0.0
C306 C 0.49324 0.47505 0.10245 0.0
C307 C 0.57741 0.44435 0.06581 0.0
C308 C 0.42835 0.5928 0.07678 0.0
C309 C 0.52689 0.5713 0.06789 0.0
C310 C 0.51073 0.55315 0.93805 0.0
C311 C 0.42567 0.57917 0.96929 0.0
O312 O 0.54595 0.42364 0.96205 0.0
O313 O 0.58415 0.46601 0.97585 0.0
O314 O 0.48015 0.48983 0.97418 0.0
O315 O 0.49553 0.44604 0.9932 0.0
Co316 Co 0.07449 0.46607 0.51191 0.0
Co317 Co 0.05079 0.46766 0.4325 0.0
Co318 Co 0.01269 0.50593 0.49117 0.0
O319 O 0.03249 0.46827 0.48667 0.0
H320 H 0.01691 0.44924 0.49135 0.0
O321 O 0.99187 0.54298 0.4977 0.0
Co322 Co 0.9494 0.54471 0.47333 0.0
Co323 Co 0.97228 0.54135 0.55287 0.0
H324 H 0.00703 0.56225 0.49294 0.0
O325 O 0.05503 0.43065 0.40941 0.0
O326 O 0.09121 0.4619 0.45199 0.0
O327 O 0.05756 0.50501 0.39843 0.0
O328 O 0.04602 0.53332 0.45306 0.0
O329 O 0.98439 0.49229 0.44028 0.0
O330 O 0.91166 0.55011 0.45076 0.0
O331 O 0.95388 0.58668 0.47215 0.0
O332 O 0.93888 0.50048 0.46965 0.0
O333 O 0.98007 0.4782 0.52836 0.0
O334 O 0.96575 0.50254 0.58516 0.0
O335 O 0.93087 0.54364 0.53276 0.0
O336 O 0.96222 0.57661 0.57779 0.0
C337 C 0.09824 0.43181 0.53346 0.0
C338 C 0.07226 0.52687 0.53485 0.0
C339 C 0.06058 0.53071 0.41749 0.0
C340 C 0.08316 0.43693 0.42876 0.0
C341 C 0.92435 0.57919 0.45647 0.0
C342 C 0.95362 0.48562 0.44393 0.0
C343 C 0.96553 0.47789 0.5644 0.0
C344 C 0.9345 0.56737 0.55839 0.0
O345 O 0.11215 0.46086 0.53446 0.0
O346 O 0.06828 0.42406 0.51937 0.0
O347 O 0.04172 0.51954 0.54134 0.0
O348 O 0.08643 0.51023 0.51085 0.0
Co349 Co 0.57349 0.96875 0.52582 0.0
Co350 Co 0.54705 0.97348 0.44886 0.0
Co351 Co 0.50714 0.00324 0.52083 0.0
O352 O 0.52934 0.96889 0.50465 0.0
H353 H 0.51527 0.94879 0.50785 0.0
O354 O 0.48801 0.03957 0.53762 0.0
Co355 Co 0.45008 0.04921 0.51101 0.0
Co356 Co 0.46455 0.03401 0.58799 0.0
H357 H 0.50447 0.05817 0.53938 0.0
O358 O 0.55579 0.93904 0.41951 0.0
O359 O 0.58912 0.97009 0.46478 0.0
O360 O 0.5513 0.01408 0.42247 0.0
O361 O 0.53361 0.03475 0.48085 0.0
O362 O 0.47292 0.99031 0.47473 0.0
O363 O 0.4162 0.06056 0.48628 0.0
O364 O 0.4622 0.09149 0.50912 0.0
O365 O 0.43275 0.00661 0.50804 0.0
O366 O 0.47988 0.97147 0.56034 0.0
O367 O 0.44833 0.9921 0.6048 0.0
O368 O 0.43052 0.05198 0.56925 0.0
O369 O 0.46687 0.06735 0.62314 0.0
C370 C 0.59962 0.93478 0.54006 0.0
C371 C 0.56846 0.02746 0.55698 0.0
C372 C 0.54774 0.03745 0.44419 0.0
C373 C 0.58398 0.94679 0.43828 0.0
C374 C 0.43325 0.08825 0.49139 0.0
C375 C 0.4426 0.98805 0.48236 0.0
C376 C 0.45783 0.96893 0.58916 0.0
C377 C 0.44231 0.07182 0.59924 0.0
O378 O 0.61257 0.96397 0.5445 0.0
O379 O 0.56944 0.92696 0.52721 0.0
O380 O 0.53984 0.01462 0.56749 0.0
O381 O 0.58366 0.01405 0.52977 0.0
H382 H 0.18578 0.147 0.35375 0.0
H383 H 0.1357 0.16198 0.23345 0.0
H384 H 0.08897 0.12149 0.25577 0.0
H385 H 0.15306 0.06227 0.36814 0.0
H386 H 0.1487 0.06524 0.426 0.0
H387 H 0.1804 0.09148 0.39777 0.0
H388 H 0.15917 0.13834 0.42822 0.0
H389 H 0.12746 0.11227 0.4564 0.0
H390 H 0.11731 0.14126 0.41911 0.0
H391 H 0.04666 0.08279 0.29266 0.0
H392 H 0.0089 0.05143 0.34386 0.0
H393 H 0.08432 0.06367 0.44366 0.0
C394 C 0.1653 0.14095 0.33171 0.0
C395 C 0.16441 0.15688 0.29144 0.0
C396 C 0.13684 0.14955 0.26405 0.0
C397 C 0.11032 0.12658 0.27644 0.0
C398 C 0.11161 0.11158 0.31665 0.0
C399 C 0.13823 0.11858 0.34413 0.0
C400 C 0.13173 0.10168 0.38766 0.0
C401 C 0.15485 0.07881 0.39533 0.0
C402 C 0.13404 0.12477 0.42504 0.0
C403 C 0.09707 0.08464 0.38061 0.0
C404 C 0.0863 0.09022 0.33908 0.0
C405 C 0.05485 0.07808 0.32517 0.0
C406 C 0.03354 0.06027 0.35467 0.0
C407 C 0.0435 0.05504 0.398 0.0
C408 C 0.07596 0.067 0.41077 0.0
H409 H 0.83469 0.19817 0.36651 0.0
H410 H 0.83003 0.16046 0.23669 0.0
H411 H 0.85884 0.1197 0.26319 0.0
H412 H 0.9157 0.18391 0.39407 0.0
H413 H 0.90558 0.17385 0.44999 0.0
H414 H 0.8854 0.20079 0.42067 0.0
H415 H 0.83003 0.16643 0.43973 0.0
H416 H 0.84979 0.13868 0.46792 0.0
H417 H 0.82155 0.12628 0.42429 0.0
H418 H 0.88342 0.08081 0.30403 0.0
H419 H 0.90846 0.04858 0.35584 0.0
H420 H 0.9012 0.11287 0.45869 0.0
C421 C 0.83999 0.18151 0.34357 0.0
C422 C 0.83004 0.18246 0.29948 0.0
C423 C 0.83752 0.16029 0.2705 0.0
C424 C 0.85376 0.13698 0.28527 0.0
C425 C 0.86274 0.13641 0.32895 0.0
C426 C 0.85662 0.15829 0.35764 0.0
C427 C 0.86896 0.1522 0.40301 0.0
C428 C 0.8955 0.1793 0.41778 0.0
C429 C 0.8409 0.14551 0.43565 0.0
C430 C 0.88279 0.12336 0.39523 0.0
C431 C 0.87848 0.11452 0.35235 0.0
C432 C 0.88736 0.08768 0.33753 0.0
C433 C 0.90133 0.06946 0.36721 0.0
C434 C 0.90676 0.07844 0.41098 0.0
C435 C 0.89757 0.10581 0.4252 0.0
H436 H 0.85324 0.87643 0.31786 0.0
H437 H 0.89464 0.79293 0.32414 0.0
H438 H 0.93511 0.81724 0.37747 0.0
H439 H 0.9319 0.9313 0.32883 0.0
H440 H 0.91448 0.95758 0.36118 0.0
H441 H 0.88992 0.93429 0.32109 0.0
H442 H 0.84812 0.91254 0.38069 0.0
H443 H 0.87291 0.93527 0.42106 0.0
H444 H 0.86135 0.8938 0.4285 0.0
H445 H 0.96692 0.84771 0.43644 0.0
H446 H 0.99481 0.88674 0.48784 0.0
H447 H 0.93559 0.95165 0.4406 0.0
C448 C 0.87132 0.86356 0.32957 0.0
C449 C 0.87051 0.83267 0.31684 0.0
C450 C 0.89453 0.81657 0.33337 0.0
C451 C 0.91763 0.83011 0.36392 0.0
C452 C 0.91684 0.85997 0.37724 0.0
C453 C 0.89492 0.87688 0.35987 0.0
C454 C 0.89943 0.90859 0.38013 0.0
C455 C 0.90955 0.93447 0.34576 0.0
C456 C 0.86862 0.91277 0.40401 0.0
C457 C 0.92692 0.90655 0.41186 0.0
C458 C 0.93631 0.87816 0.41006 0.0
C459 C 0.96022 0.87028 0.43767 0.0
C460 C 0.97576 0.89248 0.46697 0.0
C461 C 0.96764 0.92228 0.46778 0.0
C462 C 0.94256 0.92913 0.44029 0.0
H463 H 0.18005 0.87216 0.31462 0.0
H464 H 0.14092 0.77908 0.36363 0.0
H465 H 0.11995 0.80107 0.42757 0.0
H466 H 0.2037 0.90732 0.41683 0.0
H467 H 0.19089 0.94334 0.40353 0.0
H468 H 0.20378 0.92088 0.36111 0.0
H469 H 0.14902 0.91876 0.32004 0.0
H470 H 0.13658 0.94219 0.36147 0.0
H471 H 0.11152 0.9053 0.34853 0.0
H472 H 0.10597 0.83194 0.48741 0.0
H473 H 0.08512 0.87026 0.53039 0.0
H474 H 0.13026 0.94391 0.44234 0.0
C475 C 0.16657 0.85645 0.33846 0.0
C476 C 0.16226 0.82391 0.33422 0.0
C477 C 0.14436 0.80409 0.36595 0.0
C478 C 0.13283 0.81632 0.40282 0.0
C479 C 0.13899 0.84839 0.40711 0.0
C480 C 0.15433 0.86827 0.3752 0.0
C481 C 0.15536 0.90188 0.38655 0.0
C482 C 0.19053 0.91938 0.39235 0.0
C483 C 0.13701 0.91797 0.35212 0.0
C484 C 0.13773 0.89764 0.42957 0.0
C485 C 0.12953 0.86654 0.44128 0.0
C486 C 0.11216 0.85635 0.47865 0.0
C487 C 0.10071 0.87829 0.50307 0.0
C488 C 0.10629 0.90988 0.48965 0.0
C489 C 0.12637 0.91998 0.45374 0.0
H490 H 0.15051 0.81189 0.69275 0.0
H491 H 0.23739 0.87575 0.73419 0.0
H492 H 0.2142 0.91974 0.70644 0.0
H493 H 0.13773 0.85216 0.59328 0.0
H494 H 0.0941 0.84389 0.59798 0.0
H495 H 0.11774 0.81789 0.6225 0.0
H496 H 0.09016 0.82416 0.6963 0.0
H497 H 0.0677 0.85104 0.67115 0.0
H498 H 0.09309 0.86243 0.71798 0.0
H499 H 0.18407 0.95632 0.672 0.0
H500 H 0.14639 0.98513 0.63584 0.0
H501 H 0.07788 0.8988 0.61503 0.0
C502 C 0.16435 0.83517 0.69661 0.0
C503 C 0.19578 0.84038 0.71566 0.0
C504 C 0.21334 0.87116 0.71962 0.0
C505 C 0.20041 0.89634 0.70393 0.0
C506 C 0.16986 0.89041 0.68434 0.0
C507 C 0.15182 0.86075 0.68085 0.0
C508 C 0.11978 0.86119 0.65747 0.0
C509 C 0.11724 0.8427 0.61529 0.0
C510 C 0.09098 0.84898 0.68753 0.0
C511 C 0.12297 0.89574 0.64805 0.0
C512 C 0.15211 0.91196 0.66403 0.0
C513 C 0.16105 0.94399 0.65956 0.0
C514 C 0.13939 0.96012 0.63887 0.0
C515 C 0.109 0.94429 0.62281 0.0
C516 C 0.10088 0.91155 0.627 0.0
H517 H 0.18576 0.14327 0.67346 0.0
H518 H 0.13024 0.19505 0.75143 0.0
H519 H 0.08027 0.17244 0.71066 0.0
H520 H 0.14699 0.14967 0.57426 0.0
H521 H 0.14669 0.11067 0.55694 0.0
H522 H 0.17778 0.12909 0.59385 0.0
H523 H 0.16243 0.08388 0.64993 0.0
H524 H 0.13199 0.06482 0.61259 0.0
H525 H 0.12083 0.07257 0.66701 0.0
H526 H 0.03807 0.14927 0.65462 0.0
H527 H 0.00398 0.11785 0.59899 0.0
H528 H 0.08626 0.0779 0.56252 0.0
C529 C 0.16285 0.14904 0.68274 0.0
C530 C 0.16159 0.17059 0.7157 0.0
C531 C 0.13143 0.17808 0.72677 0.0
C532 C 0.10308 0.16568 0.70343 0.0
C533 C 0.10534 0.14536 0.66989 0.0
C534 C 0.13425 0.13624 0.66061 0.0
C535 C 0.13008 0.11359 0.62363 0.0
C536 C 0.15167 0.12655 0.5849 0.0
C537 C 0.13671 0.08183 0.63923 0.0
C538 C 0.09452 0.11197 0.61284 0.0
C539 C 0.08077 0.13086 0.63932 0.0
C540 C 0.04847 0.13409 0.6341 0.0
C541 C 0.02943 0.11655 0.60213 0.0
C542 C 0.04274 0.09583 0.57655 0.0
C543 C 0.07572 0.09383 0.58163 0.0
H544 H 0.83606 0.21134 0.64302 0.0
H545 H 0.79089 0.14419 0.73991 0.0
H546 H 0.81315 0.10303 0.70355 0.0
H547 H 0.82497 0.16196 0.55068 0.0
H548 H 0.86412 0.17841 0.52823 0.0
H549 H 0.84347 0.2017 0.56128 0.0
H550 H 0.89409 0.21323 0.61235 0.0
H551 H 0.91449 0.18994 0.57898 0.0
H552 H 0.90994 0.1813 0.63634 0.0
H553 H 0.83825 0.06908 0.65402 0.0
H554 H 0.87326 0.04684 0.60432 0.0
H555 H 0.90424 0.13741 0.54316 0.0
C556 C 0.8311 0.18798 0.65672 0.0
C557 C 0.81181 0.1807 0.69404 0.0
C558 C 0.80593 0.1501 0.71147 0.0
C559 C 0.81809 0.1266 0.69076 0.0
C560 C 0.83632 0.1344 0.65318 0.0
C561 C 0.84346 0.16452 0.63699 0.0
C562 C 0.86528 0.16736 0.59787 0.0
C563 C 0.84842 0.17797 0.55712 0.0
C564 C 0.89788 0.18924 0.60695 0.0
C565 C 0.86936 0.13408 0.59447 0.0
C566 C 0.85192 0.11526 0.62602 0.0
C567 C 0.85209 0.08359 0.6293 0.0
C568 C 0.87174 0.07112 0.60073 0.0
C569 C 0.89128 0.09053 0.57016 0.0
C570 C 0.88942 0.12216 0.56631 0.0
H571 H 0.84288 0.83948 0.64981 0.0
H572 H 0.867 0.84345 0.78746 0.0
H573 H 0.90944 0.89 0.77347 0.0
H574 H 0.92348 0.86225 0.61021 0.0
H575 H 0.91188 0.8849 0.56524 0.0
H576 H 0.88335 0.8523 0.58663 0.0
H577 H 0.84191 0.88812 0.59878 0.0
H578 H 0.87052 0.92089 0.57778 0.0
H579 H 0.8536 0.92232 0.63106 0.0
H580 H 0.95115 0.93491 0.74337 0.0
H581 H 0.98856 0.97389 0.69967 0.0
H582 H 0.93469 0.9413 0.58283 0.0
C583 C 0.8571 0.85002 0.67709 0.0
C584 C 0.85169 0.83769 0.71974 0.0
C585 C 0.87071 0.85245 0.7545 0.0
C586 C 0.89482 0.87894 0.74689 0.0
C587 C 0.89935 0.89057 0.70444 0.0
C588 C 0.88094 0.87658 0.67017 0.0
C589 C 0.89068 0.89339 0.62754 0.0
C590 C 0.90309 0.87193 0.59554 0.0
C591 C 0.8625 0.90699 0.60764 0.0
C592 C 0.91783 0.91875 0.64303 0.0
C593 C 0.92251 0.91683 0.68746 0.0
C594 C 0.94746 0.93684 0.70863 0.0
C595 C 0.96855 0.95894 0.68358 0.0
C596 C 0.96441 0.96091 0.63789 0.0
C597 C 0.93824 0.94087 0.61775 0.0
H598 H 0.29864 0.14717 0.1713 0.0
H599 H 0.33958 0.24018 0.12379 0.0
H600 H 0.381 0.2197 0.08415 0.0
H601 H 0.37095 0.12051 0.18779 0.0
H602 H 0.35712 0.08193 0.16764 0.0
H603 H 0.32848 0.10288 0.1901 0.0
H604 H 0.29443 0.09611 0.11887 0.0
H605 H 0.32274 0.07468 0.09645 0.0
H606 H 0.3138 0.10834 0.06779 0.0
H607 H 0.42295 0.19174 0.06081 0.0
H608 H 0.45809 0.15559 0.04141 0.0
H609 H 0.38773 0.0785 0.09418 0.0
C610 C 0.31593 0.16306 0.15181 0.0
C611 C 0.31586 0.19533 0.15082 0.0
C612 C 0.33891 0.21539 0.12494 0.0
C613 C 0.3627 0.20402 0.1024 0.0
C614 C 0.36272 0.17237 0.10504 0.0
C615 C 0.33947 0.15192 0.12789 0.0
C616 C 0.34544 0.11892 0.12496 0.0
C617 C 0.35082 0.10527 0.17033 0.0
C618 C 0.31743 0.0983 0.10056 0.0
C619 C 0.37643 0.12441 0.09855 0.0
C620 C 0.38597 0.15554 0.08794 0.0
C621 C 0.41529 0.16717 0.06767 0.0
C622 C 0.4352 0.14638 0.05704 0.0
C623 C 0.42533 0.11409 0.06527 0.0
C624 C 0.39551 0.10296 0.08646 0.0
H625 H 0.87031 0.30573 0.16838 0.0
H626 H 0.7905 0.33804 0.10282 0.0
H627 H 0.82741 0.38653 0.08117 0.0
H628 H 0.90481 0.37435 0.21361 0.0
H629 H 0.94675 0.37164 0.20663 0.0
H630 H 0.91615 0.33686 0.21079 0.0
H631 H 0.93297 0.31814 0.1365 0.0
H632 H 0.96463 0.3522 0.1331 0.0
H633 H 0.93528 0.34376 0.08957 0.0
H634 H 0.86981 0.43432 0.07778 0.0
H635 H 0.91962 0.47442 0.07539 0.0
H636 H 0.97247 0.41124 0.14264 0.0
C637 C 0.86104 0.32234 0.14762 0.0
C638 C 0.82769 0.31819 0.13696 0.0
C639 C 0.81609 0.34083 0.11096 0.0
C640 C 0.83677 0.36853 0.09893 0.0
C641 C 0.86895 0.37304 0.11296 0.0
C642 C 0.8814 0.35025 0.1354 0.0
C643 C 0.91661 0.3617 0.14808 0.0
C644 C 0.92134 0.36108 0.19773 0.0
C645 C 0.93868 0.34284 0.12545 0.0
C646 C 0.92161 0.3947 0.13036 0.0
C647 C 0.8937 0.40076 0.11055 0.0
C648 C 0.89202 0.42973 0.0925 0.0
C649 C 0.92034 0.4525 0.0919 0.0
C650 C 0.95001 0.446 0.10871 0.0
C651 C 0.95018 0.41716 0.13 0.0
H652 H 0.72541 0.86805 0.18323 0.0
H653 H 0.71764 0.79526 0.08837 0.0
H654 H 0.677 0.81842 0.04713 0.0
H655 H 0.64454 0.86771 0.18934 0.0
H656 H 0.6476 0.90891 0.19537 0.0
H657 H 0.68066 0.89074 0.21271 0.0
H658 H 0.72027 0.92823 0.16305 0.0
H659 H 0.68741 0.94702 0.14613 0.0
H660 H 0.71071 0.93168 0.10608 0.0
H661 H 0.63132 0.84503 0.02235 0.0
H662 H 0.58655 0.87412 0.01473 0.0
H663 H 0.62406 0.92892 0.12643 0.0
C664 C 0.71619 0.85765 0.15287 0.0
C665 C 0.72502 0.82998 0.13886 0.0
C666 C 0.71149 0.8166 0.09961 0.0
C667 C 0.68833 0.82958 0.07596 0.0
C668 C 0.67899 0.856 0.09188 0.0
C669 C 0.69284 0.87012 0.12917 0.0
C670 C 0.67635 0.89636 0.14194 0.0
C671 C 0.66141 0.89056 0.18752 0.0
C672 C 0.7001 0.92768 0.13912 0.0
C673 C 0.65033 0.8941 0.10697 0.0
C674 C 0.65245 0.87099 0.07802 0.0
C675 C 0.62977 0.86349 0.04449 0.0
C676 C 0.60434 0.8801 0.04048 0.0
C677 C 0.60179 0.90394 0.06983 0.0
C678 C 0.6253 0.91096 0.10329 0.0
H679 H 0.13522 0.67867 0.20107 0.0
H680 H 0.18664 0.72761 0.09094 0.0
H681 H 0.15728 0.68782 0.04188 0.0
H682 H 0.13646 0.60212 0.16488 0.0
H683 H 0.09644 0.58548 0.1843 0.0
H684 H 0.12031 0.61838 0.21112 0.0
H685 H 0.07408 0.6494 0.19965 0.0
H686 H 0.04981 0.61636 0.17365 0.0
H687 H 0.05792 0.65351 0.1457 0.0
H688 H 0.12245 0.64337 0.00472 0.0
H689 H 0.08163 0.59844 0.98114 0.0
H690 H 0.05458 0.57621 0.11518 0.0
C691 C 0.1399 0.68133 0.16654 0.0
C692 C 0.1631 0.70644 0.14981 0.0
C693 C 0.16891 0.70869 0.1045 0.0
C694 C 0.15248 0.68612 0.0764 0.0
C695 C 0.13049 0.66126 0.0941 0.0
C696 C 0.12396 0.65879 0.13803 0.0
C697 C 0.09928 0.62957 0.14859 0.0
C698 C 0.11402 0.60759 0.17903 0.0
C699 C 0.06845 0.6377 0.16803 0.0
C700 C 0.09278 0.61613 0.10363 0.0
C701 C 0.11115 0.63484 0.07275 0.0
C702 C 0.10823 0.62837 0.02863 0.0
C703 C 0.08519 0.6027 0.01557 0.0
C704 C 0.06569 0.58354 0.04648 0.0
C705 C 0.07 0.58993 0.09114 0.0
H706 H 0.36138 0.79681 0.8676 0.0
H707 H 0.28537 0.85054 0.87645 0.0
H708 H 0.32202 0.8898 0.91969 0.0
H709 H 0.40068 0.81604 0.97529 0.0
H710 H 0.44118 0.81971 0.95435 0.0
H711 H 0.40801 0.79299 0.93018 0.0
H712 H 0.42071 0.8187 0.8548 0.0
H713 H 0.45433 0.84539 0.87772 0.0
H714 H 0.42295 0.85994 0.84787 0.0
H715 H 0.36809 0.92565 0.95372 0.0
H716 H 0.42072 0.95646 0.97651 0.0
H717 H 0.46831 0.88058 0.94354 0.0
C718 C 0.35222 0.81626 0.88028 0.0
C719 C 0.32045 0.82046 0.87014 0.0
C720 C 0.30947 0.84679 0.88507 0.0
C721 C 0.33011 0.86913 0.90948 0.0
C722 C 0.3617 0.86485 0.91803 0.0
C723 C 0.37275 0.83904 0.90406 0.0
C724 C 0.4088 0.84182 0.91326 0.0
C725 C 0.41503 0.81614 0.94519 0.0
C726 C 0.4278 0.84145 0.87089 0.0
C727 C 0.4164 0.87348 0.93384 0.0
C728 C 0.3888 0.8862 0.93648 0.0
C729 C 0.38985 0.9159 0.952 0.0
C730 C 0.41993 0.93329 0.96463 0.0
C731 C 0.44872 0.92104 0.9615 0.0
C732 C 0.44673 0.8905 0.94657 0.0
H733 H 0.20626 0.34062 0.85978 0.0
H734 H 0.15772 0.24752 0.89708 0.0
H735 H 0.11948 0.26977 0.94169 0.0
H736 H 0.19532 0.37708 0.96595 0.0
H737 H 0.18949 0.41264 0.93946 0.0
H738 H 0.21541 0.38943 0.91536 0.0
H739 H 0.18148 0.38725 0.84403 0.0
H740 H 0.15535 0.41014 0.868 0.0
H741 H 0.13827 0.37281 0.84585 0.0
H742 H 0.08277 0.30207 0.97475 0.0
H743 H 0.05137 0.34148 0.99536 0.0
H744 H 0.12455 0.41384 0.93783 0.0
C745 C 0.18796 0.32482 0.87792 0.0
C746 C 0.18497 0.29223 0.8748 0.0
C747 C 0.16064 0.2725 0.89908 0.0
C748 C 0.13882 0.28496 0.92451 0.0
C749 C 0.14199 0.31719 0.92588 0.0
C750 C 0.16626 0.33686 0.90369 0.0
C751 C 0.16339 0.37056 0.9085 0.0
C752 C 0.19265 0.38848 0.93382 0.0
C753 C 0.15937 0.38608 0.86395 0.0
C754 C 0.13268 0.36677 0.93496 0.0
C755 C 0.121 0.33583 0.94521 0.0
C756 C 0.09191 0.32634 0.96725 0.0
C757 C 0.07412 0.34893 0.97851 0.0
C758 C 0.08538 0.38073 0.96784 0.0
C759 C 0.11541 0.38975 0.94655 0.0
H760 H 0.63795 0.18818 0.82568 0.0
H761 H 0.72411 0.15572 0.87188 0.0
H762 H 0.68932 0.10702 0.89881 0.0
H763 H 0.58458 0.15485 0.91287 0.0
H764 H 0.55007 0.146 0.87666 0.0
H765 H 0.58214 0.17854 0.86479 0.0
H766 H 0.58853 0.15572 0.78893 0.0
H767 H 0.5572 0.1226 0.8012 0.0
H768 H 0.59689 0.11707 0.78544 0.0
H769 H 0.64406 0.06124 0.91923 0.0
H770 H 0.59286 0.02507 0.93674 0.0
H771 H 0.53831 0.08755 0.87142 0.0
C772 C 0.64972 0.17115 0.842 0.0
C773 C 0.68385 0.17587 0.84669 0.0
C774 C 0.69801 0.15275 0.86813 0.0
C775 C 0.67846 0.12493 0.8832 0.0
C776 C 0.64496 0.12063 0.87624 0.0
C777 C 0.6308 0.14333 0.85651 0.0
C778 C 0.59445 0.13324 0.85208 0.0
C779 C 0.57678 0.1544 0.87816 0.0
C780 C 0.58366 0.13209 0.80406 0.0
C781 C 0.59015 0.10111 0.87225 0.0
C782 C 0.61945 0.09417 0.8862 0.0
C783 C 0.62105 0.06637 0.90809 0.0
C784 C 0.59185 0.04584 0.91754 0.0
C785 C 0.5615 0.05323 0.90496 0.0
C786 C 0.56098 0.08074 0.88062 0.0
H787 H 0.79361 0.65153 0.851 0.0
H788 H 0.85312 0.74117 0.8797 0.0
H789 H 0.89247 0.71477 0.91869 0.0
H790 H 0.81264 0.6103 0.95375 0.0
H791 H 0.81261 0.57501 0.92489 0.0
H792 H 0.78637 0.60101 0.90715 0.0
H793 H 0.8112 0.60378 0.83021 0.0
H794 H 0.83773 0.57818 0.84756 0.0
H795 H 0.85451 0.61571 0.82409 0.0
H796 H 0.92942 0.67832 0.94342 0.0
H797 H 0.95941 0.63546 0.95399 0.0
H798 H 0.87512 0.5701 0.90872 0.0
C799 C 0.81444 0.66572 0.8665 0.0
C800 C 0.82032 0.69842 0.86226 0.0
C801 C 0.84799 0.71609 0.88282 0.0
C802 C 0.87047 0.70128 0.905 0.0
C803 C 0.8646 0.66889 0.90683 0.0
C804 C 0.83694 0.65137 0.88866 0.0
C805 C 0.8376 0.61706 0.89111 0.0
C806 C 0.81071 0.59983 0.92102 0.0
C807 C 0.83514 0.60288 0.84554 0.0
C808 C 0.87079 0.61801 0.91124 0.0
C809 C 0.8858 0.648 0.92092 0.0
C810 C 0.91761 0.65472 0.93674 0.0
C811 C 0.9345 0.63021 0.94247 0.0
C812 C 0.91956 0.59939 0.93229 0.0
C813 C 0.88717 0.59335 0.91701 0.0
H814 H 0.14089 0.28409 0.17204 0.0
H815 H 0.23124 0.32178 0.10641 0.0
H816 H 0.20424 0.35894 0.06625 0.0
H817 H 0.08575 0.29728 0.07529 0.0
H818 H 0.05571 0.30646 0.11155 0.0
H819 H 0.08018 0.27858 0.12813 0.0
H820 H 0.09821 0.31054 0.19708 0.0
H821 H 0.07439 0.33871 0.18036 0.0
H822 H 0.11723 0.35087 0.19118 0.0
H823 H 0.17216 0.39942 0.04761 0.0
H824 H 0.13439 0.43629 0.04409 0.0
H825 H 0.06279 0.37062 0.11549 0.0
C826 C 0.15469 0.29942 0.14809 0.0
C827 C 0.18824 0.30004 0.14256 0.0
C828 C 0.20552 0.32068 0.11117 0.0
C829 C 0.19037 0.34194 0.08812 0.0
C830 C 0.15772 0.34177 0.09595 0.0
C831 C 0.13976 0.32047 0.12423 0.0
C832 C 0.10577 0.32694 0.12941 0.0
C833 C 0.08035 0.30075 0.10993 0.0
C834 C 0.09851 0.33208 0.17734 0.0
C835 C 0.10833 0.35659 0.10249 0.0
C836 C 0.13841 0.36453 0.08303 0.0
C837 C 0.14818 0.39297 0.06146 0.0
C838 C 0.12677 0.41385 0.05996 0.0
C839 C 0.09575 0.4059 0.07902 0.0
C840 C 0.08615 0.37673 0.09978 0.0
H841 H 0.13163 0.68644 0.81111 0.0
H842 H 0.21428 0.66607 0.88508 0.0
H843 H 0.1812 0.61663 0.91048 0.0
H844 H 0.07103 0.65367 0.89213 0.0
H845 H 0.04088 0.63936 0.85146 0.0
H846 H 0.07126 0.6734 0.8401 0.0
H847 H 0.08756 0.64695 0.77141 0.0
H848 H 0.05794 0.61243 0.7835 0.0
H849 H 0.09998 0.60994 0.77691 0.0
H850 H 0.14059 0.56817 0.92446 0.0
H851 H 0.09154 0.52878 0.9392 0.0
H852 H 0.03474 0.58097 0.85783 0.0
C853 C 0.14265 0.67185 0.8332 0.0
C854 C 0.17565 0.68017 0.84584 0.0
C855 C 0.18906 0.66036 0.87491 0.0
C856 C 0.17058 0.632 0.88919 0.0
C857 C 0.13864 0.6239 0.87449 0.0
C858 C 0.12447 0.64355 0.84815 0.0
C859 C 0.08922 0.62973 0.83862 0.0
C860 C 0.06678 0.65026 0.85667 0.0
C861 C 0.08335 0.62446 0.7897 0.0
C862 C 0.08589 0.59921 0.86363 0.0
C863 C 0.11485 0.59613 0.88348 0.0
C864 C 0.1177 0.57033 0.90924 0.0
C865 C 0.08971 0.54793 0.9171 0.0
C866 C 0.05919 0.55174 0.89978 0.0
C867 C 0.05768 0.57707 0.87113 0.0
H868 H 0.28475 0.14227 0.85805 0.0
H869 H 0.33401 0.23046 0.90831 0.0
H870 H 0.3742 0.20461 0.9455 0.0
H871 H 0.3042 0.09278 0.95646 0.0
H872 H 0.30958 0.06182 0.92144 0.0
H873 H 0.28058 0.08589 0.90705 0.0
H874 H 0.30879 0.09851 0.83272 0.0
H875 H 0.33836 0.07525 0.84722 0.0
H876 H 0.35149 0.11541 0.83134 0.0
H877 H 0.41556 0.17263 0.96155 0.0
H878 H 0.45104 0.13395 0.96711 0.0
H879 H 0.37444 0.06485 0.91132 0.0
C880 C 0.30294 0.15568 0.87892 0.0
C881 C 0.30601 0.18822 0.88109 0.0
C882 C 0.33102 0.20542 0.90695 0.0
C883 C 0.35405 0.19096 0.92801 0.0
C884 C 0.35164 0.15917 0.9232 0.0
C885 C 0.32627 0.14147 0.90034 0.0
C886 C 0.33129 0.10825 0.89699 0.0
C887 C 0.30484 0.08586 0.92198 0.0
C888 C 0.33256 0.09883 0.84924 0.0
C889 C 0.36416 0.11062 0.91927 0.0
C890 C 0.37534 0.14018 0.9343 0.0
C891 C 0.40655 0.14904 0.95155 0.0
C892 C 0.42657 0.1269 0.95457 0.0
C893 C 0.41523 0.09608 0.94115 0.0
C894 C 0.3836 0.088 0.92299 0.0
H895 H 0.82457 0.30638 0.90977 0.0
H896 H 0.87085 0.30966 0.78431 0.0
H897 H 0.91832 0.34611 0.81252 0.0
H898 H 0.84767 0.38384 0.93306 0.0
H899 H 0.85615 0.37962 0.99024 0.0
H900 H 0.82749 0.3501 0.96322 0.0
H901 H 0.86012 0.30836 0.98827 0.0
H902 H 0.88843 0.33778 0.01618 0.0
H903 H 0.90289 0.31402 0.97669 0.0
H904 H 0.9556 0.38838 0.84887 0.0
H905 H 0.98607 0.42876 0.89643 0.0
H906 H 0.91917 0.39673 0.00123 0.0
C907 C 0.84543 0.31371 0.88911 0.0
C908 C 0.84461 0.30471 0.84519 0.0
C909 C 0.87156 0.31577 0.8183 0.0
C910 C 0.89848 0.33663 0.83395 0.0
C911 C 0.89824 0.34603 0.87681 0.0
C912 C 0.87293 0.33441 0.90457 0.0
C913 C 0.87845 0.34985 0.94858 0.0
C914 C 0.85079 0.36686 0.95937 0.0
C915 C 0.88274 0.32608 0.98455 0.0
C916 C 0.91003 0.37264 0.94036 0.0
C917 C 0.92082 0.37006 0.89862 0.0
C918 C 0.94788 0.39019 0.88196 0.0
C919 C 0.96481 0.41321 0.90894 0.0
C920 C 0.95488 0.41563 0.95217 0.0
C921 C 0.92726 0.39504 0.96823 0.0
H922 H 0.6608 0.80862 0.81756 0.0
H923 H 0.75364 0.83753 0.88301 0.0
H924 H 0.73054 0.87614 0.92386 0.0
H925 H 0.64103 0.88325 0.80464 0.0
H926 H 0.59831 0.86974 0.81415 0.0
H927 H 0.62211 0.8441 0.79136 0.0
H928 H 0.60436 0.80377 0.85352 0.0
H929 H 0.58018 0.82913 0.87614 0.0
H930 H 0.61059 0.81558 0.90922 0.0
H931 H 0.69618 0.91276 0.95673 0.0
H932 H 0.6537 0.94103 0.98034 0.0
H933 H 0.58501 0.88717 0.89158 0.0
C934 C 0.67641 0.8229 0.84057 0.0
C935 C 0.70911 0.82 0.84696 0.0
C936 C 0.72848 0.83923 0.87757 0.0
C937 C 0.7156 0.86131 0.90082 0.0
C938 C 0.68332 0.86381 0.8931 0.0
C939 C 0.66403 0.84488 0.86386 0.0
C940 C 0.63015 0.85178 0.86115 0.0
C941 C 0.62247 0.86288 0.81509 0.0
C942 C 0.60484 0.82338 0.8759 0.0
C943 C 0.63326 0.87771 0.89326 0.0
C944 C 0.66401 0.88452 0.91149 0.0
C945 C 0.67209 0.90763 0.94245 0.0
C946 C 0.64792 0.92375 0.95542 0.0
C947 C 0.61612 0.91647 0.93759 0.0
C948 C 0.60908 0.8934 0.90579 0.0
H949 H 0.80316 0.67019 0.13686 0.0
H950 H 0.87634 0.75285 0.15787 0.0
H951 H 0.91619 0.7298 0.11808 0.0
H952 H 0.85406 0.61757 0.15678 0.0
H953 H 0.83743 0.58988 0.11611 0.0
H954 H 0.81239 0.61429 0.13918 0.0
H955 H 0.79993 0.63458 0.06224 0.0
H956 H 0.82455 0.60973 0.03905 0.0
H957 H 0.83307 0.6508 0.02688 0.0
H958 H 0.94922 0.69726 0.08367 0.0
H959 H 0.97526 0.65641 0.05634 0.0
H960 H 0.88264 0.59186 0.05834 0.0
C961 C 0.82729 0.68369 0.13161 0.0
C962 C 0.83666 0.71357 0.14956 0.0
C963 C 0.86871 0.73017 0.14378 0.0
C964 C 0.89144 0.71727 0.12121 0.0
C965 C 0.88188 0.68754 0.10487 0.0
C966 C 0.85063 0.67083 0.10952 0.0
C967 C 0.84806 0.63812 0.09233 0.0
C968 C 0.83736 0.61352 0.12825 0.0
C969 C 0.82503 0.63302 0.05278 0.0
C970 C 0.88301 0.63884 0.079 0.0
C971 C 0.90171 0.66788 0.08588 0.0
C972 C 0.9348 0.6745 0.07775 0.0
C973 C 0.9494 0.65089 0.06233 0.0
C974 C 0.93115 0.62063 0.05528 0.0
C975 C 0.89731 0.61464 0.06343 0.0
H976 H 0.31872 0.82432 0.11796 0.0
H977 H 0.27495 0.89516 0.17646 0.0
H978 H 0.31913 0.93563 0.14759 0.0
H979 H 0.39407 0.85294 0.14972 0.0
H980 H 0.41478 0.84374 0.10222 0.0
H981 H 0.37574 0.82116 0.11588 0.0
H982 H 0.35371 0.8326 0.04003 0.0
H983 H 0.39237 0.85604 0.02541 0.0
H984 H 0.35596 0.87215 0.02153 0.0
H985 H 0.3729 0.96716 0.12414 0.0
H986 H 0.43068 0.98685 0.10624 0.0
H987 H 0.43988 0.89441 0.06803 0.0
C988 C 0.31751 0.84842 0.1229 0.0
C989 C 0.2933 0.85664 0.14911 0.0
C990 C 0.29318 0.8884 0.15611 0.0
C991 C 0.31817 0.91155 0.13984 0.0
C992 C 0.34295 0.90248 0.11662 0.0
C993 C 0.34255 0.87164 0.10768 0.0
C994 C 0.37411 0.86733 0.08793 0.0
C995 C 0.39062 0.84499 0.11562 0.0
C996 C 0.36869 0.85637 0.0409 0.0
C997 C 0.39301 0.9002 0.08948 0.0
C998 C 0.37447 0.92036 0.10497 0.0
C999 C 0.38751 0.95165 0.11139 0.0
C1000 C 0.42035 0.96257 0.10156 0.0
C1001 C 0.43978 0.94198 0.08664 0.0
C1002 C 0.42573 0.91056 0.08018 0.0
H1003 H 0.6866 0.13796 0.18473 0.0
H1004 H 0.72202 0.20083 0.0783 0.0
H1005 H 0.68334 0.16875 0.0281 0.0
H1006 H 0.66827 0.06422 0.1172 0.0
H1007 H 0.633 0.04945 0.14961 0.0
H1008 H 0.66814 0.07337 0.17401 0.0
H1009 H 0.63181 0.11058 0.20044 0.0
H1010 H 0.59676 0.0874 0.17542 0.0
H1011 H 0.60806 0.12807 0.16132 0.0
H1012 H 0.6325 0.13717 0.9948 0.0
H1013 H 0.57851 0.10499 0.97908 0.0
H1014 H 0.57882 0.06068 0.10625 0.0
C1015 C 0.68722 0.14401 0.15039 0.0
C1016 C 0.70741 0.17141 0.13496 0.0
C1017 C 0.70716 0.17943 0.09027 0.0
C1018 C 0.68516 0.16145 0.06171 0.0
C1019 C 0.6643 0.13525 0.07841 0.0
C1020 C 0.6659 0.12605 0.12155 0.0
C1021 C 0.63899 0.09888 0.13264 0.0
C1022 C 0.65294 0.06975 0.14402 0.0
C1023 C 0.61767 0.10674 0.16961 0.0
C1024 C 0.6207 0.09545 0.08985 0.0
C1025 C 0.63573 0.11643 0.05876 0.0
C1026 C 0.62107 0.12007 0.01847 0.0
C1027 C 0.59033 0.10192 0.00994 0.0
C1028 C 0.57484 0.08024 0.04138 0.0
C1029 C 0.59055 0.07661 0.08136 0.0
H1030 H 0.67742 0.64339 0.83517 0.0
H1031 H 0.61869 0.68224 0.7397 0.0
H1032 H 0.56925 0.64873 0.76915 0.0
H1033 H 0.62857 0.56389 0.84031 0.0
H1034 H 0.63378 0.56033 0.8983 0.0
H1035 H 0.66496 0.58432 0.86634 0.0
H1036 H 0.6619 0.63114 0.91487 0.0
H1037 H 0.63064 0.60738 0.94681 0.0
H1038 H 0.62343 0.64293 0.92166 0.0
H1039 H 0.52634 0.61345 0.81077 0.0
H1040 H 0.49181 0.58078 0.86441 0.0
H1041 H 0.57776 0.5668 0.93652 0.0
C1042 C 0.6542 0.64421 0.81984 0.0
C1043 C 0.65179 0.66497 0.78471 0.0
C1044 C 0.62097 0.66627 0.76638 0.0
C1045 C 0.59283 0.64729 0.78282 0.0
C1046 C 0.59592 0.62746 0.81795 0.0
C1047 C 0.62576 0.62588 0.83649 0.0
C1048 C 0.62197 0.60469 0.87649 0.0
C1049 C 0.63829 0.57664 0.86995 0.0
C1050 C 0.63527 0.62261 0.91736 0.0
C1051 C 0.58532 0.59495 0.87782 0.0
C1052 C 0.57089 0.60799 0.84331 0.0
C1053 C 0.53734 0.60295 0.83778 0.0
C1054 C 0.51794 0.58428 0.86848 0.0
C1055 C 0.53206 0.57112 0.90471 0.0
C1056 C 0.56626 0.57647 0.90918 0.0
H1057 H 0.29663 0.64262 0.82073 0.0
H1058 H 0.37575 0.70968 0.76587 0.0
H1059 H 0.41507 0.68717 0.81125 0.0
H1060 H 0.3239 0.64524 0.92509 0.0
H1061 H 0.31159 0.60451 0.9383 0.0
H1062 H 0.29014 0.62211 0.89674 0.0
H1063 H 0.30107 0.58239 0.84037 0.0
H1064 H 0.32137 0.56376 0.88223 0.0
H1065 H 0.34204 0.57685 0.83231 0.0
H1066 H 0.44409 0.66234 0.87094 0.0
H1067 H 0.46226 0.63023 0.92994 0.0
H1068 H 0.36347 0.57934 0.94418 0.0
C1069 C 0.3224 0.65144 0.81682 0.0
C1070 C 0.33355 0.67716 0.78935 0.0
C1071 C 0.36715 0.68925 0.78594 0.0
C1072 C 0.38948 0.6769 0.81197 0.0
C1073 C 0.37754 0.65244 0.8406 0.0
C1074 C 0.34486 0.63923 0.84217 0.0
C1075 C 0.3379 0.61415 0.87699 0.0
C1076 C 0.3145 0.622 0.91128 0.0
C1077 C 0.32484 0.58241 0.85676 0.0
C1078 C 0.37161 0.61583 0.89564 0.0
C1079 C 0.39416 0.63815 0.87453 0.0
C1080 C 0.42673 0.64451 0.8873 0.0
C1081 C 0.43672 0.62653 0.92124 0.0
C1082 C 0.41416 0.60248 0.94151 0.0
C1083 C 0.38116 0.59763 0.92915 0.0
H1084 H 0.37678 0.32046 0.83611 0.0
H1085 H 0.31275 0.38277 0.79489 0.0
H1086 H 0.34622 0.42482 0.83659 0.0
H1087 H 0.388 0.34622 0.94343 0.0
H1088 H 0.43008 0.34286 0.94758 0.0
H1089 H 0.40308 0.3182 0.91143 0.0
H1090 H 0.44109 0.33721 0.84664 0.0
H1091 H 0.4685 0.36157 0.88274 0.0
H1092 H 0.45264 0.37825 0.83502 0.0
H1093 H 0.38403 0.45881 0.8862 0.0
H1094 H 0.42622 0.48417 0.93678 0.0
H1095 H 0.46557 0.39962 0.9469 0.0
C1096 C 0.37014 0.34311 0.83499 0.0
C1097 C 0.34217 0.34834 0.81199 0.0
C1098 C 0.33411 0.37823 0.81207 0.0
C1099 C 0.35291 0.40223 0.83577 0.0
C1100 C 0.37965 0.39596 0.85916 0.0
C1101 C 0.38849 0.36726 0.85865 0.0
C1102 C 0.41766 0.36631 0.88793 0.0
C1103 C 0.40918 0.34195 0.92477 0.0
C1104 C 0.44669 0.3605 0.8615 0.0
C1105 C 0.42366 0.39893 0.90528 0.0
C1106 C 0.40144 0.41558 0.8882 0.0
C1107 C 0.40172 0.4461 0.89954 0.0
C1108 C 0.42579 0.46025 0.92843 0.0
C1109 C 0.4493 0.4439 0.94577 0.0
C1110 C 0.44789 0.41268 0.93437 0.0
H1111 H 0.63957 0.31106 0.8201 0.0
H1112 H 0.72843 0.3792 0.80112 0.0
H1113 H 0.70593 0.41683 0.84329 0.0
H1114 H 0.58438 0.36657 0.813 0.0
H1115 H 0.55779 0.34649 0.85429 0.0
H1116 H 0.58022 0.32516 0.82058 0.0
H1117 H 0.60476 0.30334 0.88959 0.0
H1118 H 0.58273 0.32492 0.92347 0.0
H1119 H 0.62625 0.32987 0.92876 0.0
H1120 H 0.67582 0.44612 0.89105 0.0
H1121 H 0.63744 0.46694 0.93665 0.0
H1122 H 0.56762 0.38058 0.92416 0.0
C1123 C 0.65408 0.33404 0.82421 0.0
C1124 C 0.68581 0.34206 0.80731 0.0
C1125 C 0.70409 0.37237 0.81378 0.0
C1126 C 0.69157 0.39398 0.83778 0.0
C1127 C 0.66064 0.38509 0.85494 0.0
C1128 C 0.64191 0.35605 0.84809 0.0
C1129 C 0.60953 0.35245 0.87079 0.0
C1130 C 0.58132 0.34738 0.83769 0.0
C1131 C 0.60561 0.32608 0.90519 0.0
C1132 C 0.61327 0.38388 0.89172 0.0
C1133 C 0.64299 0.40228 0.88225 0.0
C1134 C 0.65234 0.43206 0.89848 0.0
C1135 C 0.63044 0.44361 0.92453 0.0
C1136 C 0.59953 0.42544 0.9339 0.0
C1137 C 0.59104 0.39508 0.9175 0.0
H1138 H 0.69324 0.35813 0.2074 0.0
H1139 H 0.62835 0.27098 0.17966 0.0
H1140 H 0.5931 0.29951 0.13641 0.0
H1141 H 0.63104 0.40539 0.21533 0.0
H1142 H 0.65644 0.43859 0.18994 0.0
H1143 H 0.67458 0.41116 0.22131 0.0
H1144 H 0.70953 0.40377 0.15488 0.0
H1145 H 0.69097 0.43062 0.12299 0.0
H1146 H 0.68978 0.39188 0.10395 0.0
H1147 H 0.56716 0.3377 0.09182 0.0
H1148 H 0.54967 0.38287 0.05614 0.0
H1149 H 0.63286 0.44389 0.11291 0.0
C1150 C 0.67132 0.34498 0.193 0.0
C1151 C 0.66357 0.31231 0.19696 0.0
C1152 C 0.6347 0.29605 0.1773 0.0
C1153 C 0.61464 0.31202 0.15244 0.0
C1154 C 0.6238 0.34414 0.14779 0.0
C1155 C 0.65122 0.36043 0.16808 0.0
C1156 C 0.65632 0.39472 0.15727 0.0
C1157 C 0.65446 0.41357 0.19841 0.0
C1158 C 0.68856 0.40588 0.13335 0.0
C1159 C 0.62756 0.39524 0.12748 0.0
C1160 C 0.60908 0.3659 0.12222 0.0
C1161 C 0.58133 0.36081 0.09594 0.0
C1162 C 0.57171 0.38657 0.07564 0.0
C1163 C 0.58984 0.41691 0.08188 0.0
C1164 C 0.61844 0.42104 0.10744 0.0
H1165 H 0.69034 0.65977 0.17616 0.0
H1166 H 0.63158 0.69989 0.2655 0.0
H1167 H 0.58194 0.66709 0.23504 0.0
H1168 H 0.64004 0.65712 0.08645 0.0
H1169 H 0.64652 0.6204 0.06695 0.0
H1170 H 0.67747 0.6442 0.0989 0.0
H1171 H 0.67724 0.59884 0.15425 0.0
H1172 H 0.64658 0.57465 0.12211 0.0
H1173 H 0.63955 0.58017 0.17879 0.0
H1174 H 0.53892 0.63618 0.18691 0.0
H1175 H 0.50572 0.60396 0.13152 0.0
H1176 H 0.59277 0.5812 0.0773 0.0
C1177 C 0.66705 0.6611 0.19 0.0
C1178 C 0.66463 0.68229 0.22312 0.0
C1179 C 0.63386 0.68354 0.24042 0.0
C1180 C 0.60561 0.66513 0.22316 0.0
C1181 C 0.60879 0.6452 0.18942 0.0
C1182 C 0.63881 0.64253 0.17377 0.0
C1183 C 0.63568 0.62018 0.13646 0.0
C1184 C 0.65082 0.63646 0.09474 0.0
C1185 C 0.65064 0.59177 0.14865 0.0
C1186 C 0.59912 0.61147 0.13243 0.0
C1187 C 0.58403 0.62626 0.16315 0.0
C1188 C 0.55044 0.62396 0.1634 0.0
C1189 C 0.53184 0.60589 0.13169 0.0
C1190 C 0.54687 0.59015 0.10066 0.0
C1191 C 0.58084 0.59271 0.10127 0.0
H1192 H 0.36548 0.72639 0.20386 0.0
H1193 H 0.26996 0.66754 0.20134 0.0
H1194 H 0.29248 0.62632 0.16622 0.0
H1195 H 0.38863 0.70679 0.1002 0.0
H1196 H 0.43058 0.70724 0.11414 0.0
H1197 H 0.40795 0.73099 0.14335 0.0
H1198 H 0.42163 0.70543 0.21621 0.0
H1199 H 0.44465 0.68184 0.18724 0.0
H1200 H 0.41225 0.66375 0.22257 0.0
H1201 H 0.32409 0.59324 0.12728 0.0
H1202 H 0.36373 0.56916 0.08852 0.0
H1203 H 0.43882 0.64978 0.11469 0.0
C1204 C 0.34969 0.70446 0.19685 0.0
C1205 C 0.31625 0.69959 0.20571 0.0
C1206 C 0.29579 0.6712 0.1951 0.0
C1207 C 0.30831 0.64778 0.17515 0.0
C1208 C 0.34129 0.65334 0.16588 0.0
C1209 C 0.36181 0.68085 0.17652 0.0
C1210 C 0.39591 0.68142 0.1606 0.0
C1211 C 0.40637 0.7082 0.12761 0.0
C1212 C 0.42003 0.68321 0.19895 0.0
C1213 C 0.39115 0.65017 0.13899 0.0
C1214 C 0.35951 0.63432 0.1426 0.0
C1215 C 0.34905 0.60527 0.12448 0.0
C1216 C 0.3717 0.59184 0.10242 0.0
C1217 C 0.40433 0.60756 0.09859 0.0
C1218 C 0.41403 0.63716 0.11703 0.0
H1219 H 0.33537 0.34986 0.15942 0.0
H1220 H 0.36824 0.35185 0.29387 0.0
H1221 H 0.41465 0.39372 0.27475 0.0
H1222 H 0.41254 0.36094 0.11131 0.0
H1223 H 0.40251 0.38516 0.06714 0.0
H1224 H 0.37117 0.35666 0.09207 0.0
H1225 H 0.33841 0.39954 0.10796 0.0
H1226 H 0.36969 0.42818 0.083 0.0
H1227 H 0.35741 0.43316 0.13788 0.0
H1228 H 0.46008 0.4325 0.23907 0.0
H1229 H 0.49884 0.46662 0.19074 0.0
H1230 H 0.43423 0.44023 0.08092 0.0
C1231 C 0.35213 0.35922 0.18503 0.0
C1232 C 0.34818 0.34749 0.22817 0.0
C1233 C 0.37068 0.36052 0.26063 0.0
C1234 C 0.39714 0.38427 0.25006 0.0
C1235 C 0.4005 0.39497 0.20703 0.0
C1236 C 0.37837 0.38303 0.17516 0.0
C1237 C 0.38767 0.39798 0.1312 0.0
C1238 C 0.39385 0.37374 0.09853 0.0
C1239 C 0.36175 0.41577 0.11402 0.0
C1240 C 0.41879 0.41991 0.14311 0.0
C1241 C 0.42591 0.41784 0.18693 0.0
C1242 C 0.45449 0.43462 0.20484 0.0
C1243 C 0.47638 0.45387 0.17716 0.0
C1244 C 0.4694 0.45635 0.1322 0.0
C1245 C 0.44002 0.43933 0.11528 0.0
H1246 H 0.8513 0.6997 0.65566 0.0
H1247 H 0.75807 0.64118 0.62865 0.0
H1248 H 0.78565 0.60455 0.59011 0.0
H1249 H 0.89326 0.68638 0.55736 0.0
H1250 H 0.93103 0.68391 0.58459 0.0
H1251 H 0.90476 0.70784 0.60607 0.0
H1252 H 0.90181 0.67924 0.68015 0.0
H1253 H 0.92916 0.65576 0.66071 0.0
H1254 H 0.89036 0.63752 0.68255 0.0
H1255 H 0.82414 0.57322 0.55725 0.0
H1256 H 0.86972 0.54732 0.53977 0.0
H1257 H 0.93763 0.6245 0.5942 0.0
C1258 C 0.83674 0.67956 0.64058 0.0
C1259 C 0.80259 0.67351 0.64398 0.0
C1260 C 0.78425 0.64634 0.6256 0.0
C1261 C 0.79972 0.62552 0.60366 0.0
C1262 C 0.83357 0.63192 0.60127 0.0
C1263 C 0.85185 0.65812 0.61978 0.0
C1264 C 0.88784 0.65795 0.61716 0.0
C1265 C 0.90527 0.68565 0.58964 0.0
C1266 C 0.90318 0.65758 0.66285 0.0
C1267 C 0.88705 0.62751 0.59454 0.0
C1268 C 0.85558 0.61307 0.58489 0.0
C1269 C 0.84886 0.58435 0.56471 0.0
C1270 C 0.8749 0.56978 0.55494 0.0
C1271 C 0.90722 0.58369 0.566 0.0
C1272 C 0.9132 0.61311 0.5856 0.0
H1273 H 0.38246 0.80046 0.67312 0.0
H1274 H 0.29884 0.80873 0.59324 0.0
H1275 H 0.33087 0.85393 0.5548 0.0
H1276 H 0.40696 0.87131 0.6952 0.0
H1277 H 0.45042 0.8758 0.69083 0.0
H1278 H 0.42628 0.83814 0.702 0.0
H1279 H 0.44879 0.81537 0.63473 0.0
H1280 H 0.47441 0.85268 0.62418 0.0
H1281 H 0.44741 0.83428 0.58234 0.0
H1282 H 0.36163 0.90629 0.54935 0.0
H1283 H 0.39791 0.95706 0.55685 0.0
H1284 H 0.4673 0.91426 0.62924 0.0
C1285 C 0.37189 0.81053 0.64531 0.0
C1286 C 0.33866 0.80111 0.63516 0.0
C1287 C 0.32458 0.81536 0.60033 0.0
C1288 C 0.34256 0.84112 0.57861 0.0
C1289 C 0.37465 0.85161 0.59167 0.0
C1290 C 0.38989 0.83595 0.62266 0.0
C1291 C 0.42327 0.8544 0.6343 0.0
C1292 C 0.42689 0.86025 0.68348 0.0
C1293 C 0.45006 0.83822 0.61789 0.0
C1294 C 0.42271 0.88417 0.60882 0.0
C1295 C 0.39436 0.8819 0.58451 0.0
C1296 C 0.38487 0.90787 0.56571 0.0
C1297 C 0.4054 0.93659 0.57041 0.0
C1298 C 0.43562 0.93901 0.592 0.0
C1299 C 0.4446 0.91257 0.61147 0.0
H1300 H 0.16528 0.30533 0.67774 0.0
H1301 H 0.25079 0.32232 0.59686 0.0
H1302 H 0.22422 0.35537 0.54721 0.0
H1303 H 0.10533 0.30317 0.58514 0.0
H1304 H 0.07861 0.32128 0.61689 0.0
H1305 H 0.10312 0.2966 0.64315 0.0
H1306 H 0.12738 0.34123 0.69462 0.0
H1307 H 0.10323 0.36609 0.66837 0.0
H1308 H 0.14673 0.37821 0.67174 0.0
H1309 H 0.19324 0.39416 0.51672 0.0
H1310 H 0.15638 0.43023 0.49884 0.0
H1311 H 0.08694 0.38287 0.59243 0.0
C1312 C 0.17799 0.31549 0.64893 0.0
C1313 C 0.20997 0.31152 0.64077 0.0
C1314 C 0.22618 0.32507 0.60318 0.0
C1315 C 0.21128 0.34383 0.575 0.0
C1316 C 0.17991 0.3479 0.58444 0.0
C1317 C 0.16308 0.33347 0.61985 0.0
C1318 C 0.13005 0.34246 0.62343 0.0
C1319 C 0.10265 0.31419 0.61674 0.0
C1320 C 0.12668 0.35792 0.66712 0.0
C1321 C 0.13154 0.36548 0.58576 0.0
C1322 C 0.16064 0.36833 0.5639 0.0
C1323 C 0.16981 0.3912 0.53211 0.0
C1324 C 0.14875 0.41158 0.52226 0.0
C1325 C 0.11835 0.40837 0.54296 0.0
C1326 C 0.10945 0.38483 0.57483 0.0
H1327 H 0.69448 0.18561 0.60242 0.0
H1328 H 0.61782 0.21242 0.6777 0.0
H1329 H 0.57926 0.16734 0.65056 0.0
H1330 H 0.63906 0.15195 0.50841 0.0
H1331 H 0.66111 0.12107 0.50098 0.0
H1332 H 0.68212 0.15845 0.51914 0.0
H1333 H 0.70382 0.13264 0.58669 0.0
H1334 H 0.68311 0.0951 0.56931 0.0
H1335 H 0.67557 0.10842 0.62251 0.0
H1336 H 0.5525 0.11536 0.62909 0.0
H1337 H 0.53593 0.06168 0.60651 0.0
H1338 H 0.62766 0.06728 0.53994 0.0
C1339 C 0.66928 0.18274 0.61176 0.0
C1340 C 0.65924 0.20276 0.64225 0.0
C1341 C 0.62618 0.19764 0.65438 0.0
C1342 C 0.60403 0.17202 0.6391 0.0
C1343 C 0.61508 0.15189 0.61107 0.0
C1344 C 0.64667 0.15723 0.59651 0.0
C1345 C 0.65259 0.1304 0.56906 0.0
C1346 C 0.65912 0.14109 0.52157 0.0
C1347 C 0.68041 0.11579 0.58805 0.0
C1348 C 0.62006 0.10831 0.57314 0.0
C1349 C 0.59881 0.12158 0.59708 0.0
C1350 C 0.56849 0.10509 0.6091 0.0
C1351 C 0.55937 0.07438 0.59606 0.0
C1352 C 0.58013 0.06015 0.57047 0.0
C1353 C 0.61097 0.07753 0.55877 0.0
H1354 H 0.80332 0.34882 0.38944 0.0
H1355 H 0.85457 0.33637 0.27166 0.0
H1356 H 0.90124 0.37587 0.29528 0.0
H1357 H 0.82811 0.43105 0.3898 0.0
H1358 H 0.83221 0.43406 0.44801 0.0
H1359 H 0.80395 0.40237 0.42475 0.0
H1360 H 0.8317 0.36282 0.46767 0.0
H1361 H 0.85948 0.3947 0.49131 0.0
H1362 H 0.87489 0.36519 0.46285 0.0
H1363 H 0.9413 0.4169 0.32929 0.0
H1364 H 0.972 0.46068 0.37049 0.0
H1365 H 0.89418 0.45002 0.46453 0.0
C1366 C 0.82462 0.35427 0.36916 0.0
C1367 C 0.82576 0.33961 0.32903 0.0
C1368 C 0.85354 0.34749 0.30259 0.0
C1369 C 0.88012 0.36974 0.31573 0.0
C1370 C 0.87831 0.38416 0.35513 0.0
C1371 C 0.8513 0.37705 0.38144 0.0
C1372 C 0.85497 0.39797 0.42053 0.0
C1373 C 0.82822 0.41753 0.42075 0.0
C1374 C 0.85529 0.37903 0.46309 0.0
C1375 C 0.88801 0.418 0.4116 0.0
C1376 C 0.90117 0.40919 0.37407 0.0
C1377 C 0.93135 0.42408 0.35879 0.0
C1378 C 0.94859 0.44888 0.38239 0.0
C1379 C 0.93534 0.45885 0.42039 0.0
C1380 C 0.90471 0.44307 0.43528 0.0
H1381 H 0.65935 0.80399 0.35412 0.0
H1382 H 0.75364 0.86474 0.36354 0.0
H1383 H 0.72861 0.9045 0.39768 0.0
H1384 H 0.61624 0.86097 0.32316 0.0
H1385 H 0.5801 0.84619 0.3539 0.0
H1386 H 0.60552 0.82014 0.33664 0.0
H1387 H 0.61162 0.80159 0.41642 0.0
H1388 H 0.58581 0.82736 0.43384 0.0
H1389 H 0.62573 0.82983 0.45749 0.0
H1390 H 0.69324 0.93989 0.42425 0.0
H1391 H 0.64957 0.96817 0.44179 0.0
H1392 H 0.57747 0.88604 0.41328 0.0
C1393 C 0.67476 0.82527 0.36465 0.0
C1394 C 0.70855 0.8311 0.35651 0.0
C1395 C 0.72776 0.85967 0.36957 0.0
C1396 C 0.71377 0.88243 0.38911 0.0
C1397 C 0.68035 0.8765 0.39542 0.0
C1398 C 0.66102 0.84857 0.38391 0.0
C1399 C 0.6254 0.8493 0.39126 0.0
C1400 C 0.60567 0.84383 0.34871 0.0
C1401 C 0.61131 0.8256 0.42686 0.0
C1402 C 0.62775 0.88232 0.40674 0.0
C1403 C 0.65974 0.89736 0.40977 0.0
C1404 C 0.66809 0.92825 0.42234 0.0
C1405 C 0.64313 0.94417 0.43218 0.0
C1406 C 0.61015 0.92938 0.42892 0.0
C1407 C 0.60248 0.898 0.41603 0.0
H1408 H 0.16654 0.70027 0.39121 0.0
H1409 H 0.24437 0.65706 0.34665 0.0
H1410 H 0.21279 0.60557 0.36793 0.0
H1411 H 0.13945 0.64092 0.48422 0.0
H1412 H 0.09752 0.64348 0.475 0.0
H1413 H 0.1291 0.67713 0.46628 0.0
H1414 H 0.10783 0.68277 0.38793 0.0
H1415 H 0.0767 0.64881 0.39536 0.0
H1416 H 0.10497 0.65081 0.35133 0.0
H1417 H 0.16787 0.55999 0.37427 0.0
H1418 H 0.11716 0.52176 0.38295 0.0
H1419 H 0.06882 0.59382 0.42886 0.0
C1420 C 0.17759 0.68005 0.38833 0.0
C1421 C 0.20789 0.6824 0.36781 0.0
C1422 C 0.2215 0.65564 0.36323 0.0
C1423 C 0.20357 0.62633 0.37483 0.0
C1424 C 0.17263 0.62454 0.39198 0.0
C1425 C 0.16024 0.65076 0.40047 0.0
C1426 C 0.12532 0.64238 0.41557 0.0
C1427 C 0.12268 0.65151 0.4631 0.0
C1428 C 0.10239 0.65707 0.38575 0.0
C1429 C 0.11927 0.6075 0.41118 0.0
C1430 C 0.14689 0.59775 0.39754 0.0
C1431 C 0.14639 0.56717 0.38629 0.0
C1432 C 0.11723 0.54575 0.39052 0.0
C1433 C 0.08895 0.55491 0.40628 0.0
C1434 C 0.09007 0.58622 0.41678 0.0
H1435 H 0.30107 0.16469 0.36929 0.0
H1436 H 0.35863 0.25584 0.39408 0.0
H1437 H 0.3965 0.23143 0.43981 0.0
H1438 H 0.31105 0.13022 0.47488 0.0
H1439 H 0.31415 0.0929 0.45383 0.0
H1440 H 0.28999 0.11695 0.42553 0.0
H1441 H 0.3217 0.11638 0.35485 0.0
H1442 H 0.34543 0.09107 0.38082 0.0
H1443 H 0.36538 0.12703 0.35569 0.0
H1444 H 0.43143 0.19489 0.47658 0.0
H1445 H 0.45747 0.15119 0.50175 0.0
H1446 H 0.37507 0.08599 0.45117 0.0
C1447 C 0.32133 0.17971 0.38482 0.0
C1448 C 0.32694 0.21216 0.37805 0.0
C1449 C 0.35374 0.23089 0.3991 0.0
C1450 C 0.3754 0.21721 0.42499 0.0
C1451 C 0.36959 0.18488 0.42981 0.0
C1452 C 0.34288 0.16656 0.41051 0.0
C1453 C 0.34249 0.13245 0.41808 0.0
C1454 C 0.31268 0.11722 0.4447 0.0
C1455 C 0.34385 0.11578 0.3748 0.0
C1456 C 0.37356 0.13417 0.44389 0.0
C1457 C 0.38903 0.16444 0.4507 0.0
C1458 C 0.41927 0.17114 0.47171 0.0
C1459 C 0.43399 0.14623 0.48566 0.0
C1460 C 0.41846 0.11515 0.47823 0.0
C1461 C 0.38771 0.10938 0.45757 0.0
H1462 H 0.65058 0.783 0.63953 0.0
H1463 H 0.74755 0.81931 0.59169 0.0
H1464 H 0.72661 0.85982 0.54986 0.0
H1465 H 0.60651 0.80262 0.53547 0.0
H1466 H 0.5737 0.81186 0.56667 0.0
H1467 H 0.59495 0.78209 0.58592 0.0
H1468 H 0.60713 0.81071 0.65873 0.0
H1469 H 0.58657 0.84082 0.63959 0.0
H1470 H 0.62814 0.85061 0.65818 0.0
H1471 H 0.69885 0.90316 0.52989 0.0
H1472 H 0.66354 0.94176 0.52119 0.0
H1473 H 0.58251 0.8754 0.57349 0.0
C1474 C 0.66714 0.79874 0.6189 0.0
C1475 C 0.70071 0.79799 0.61893 0.0
C1476 C 0.72172 0.8192 0.59193 0.0
C1477 C 0.71005 0.8424 0.56811 0.0
C1478 C 0.67716 0.84353 0.57063 0.0
C1479 C 0.65573 0.82167 0.59414 0.0
C1480 C 0.62202 0.8295 0.59386 0.0
C1481 C 0.59787 0.80506 0.56899 0.0
C1482 C 0.61031 0.83313 0.64035 0.0
C1483 C 0.62844 0.86029 0.56921 0.0
C1484 C 0.66043 0.86786 0.55603 0.0
C1485 C 0.67346 0.89699 0.53841 0.0
C1486 C 0.65327 0.91883 0.53386 0.0
C1487 C 0.62017 0.9112 0.5456 0.0
C1488 C 0.60751 0.88142 0.56303 0.0
H1489 H 0.68905 0.15493 0.32811 0.0
H1490 H 0.66342 0.22901 0.40269 0.0
H1491 H 0.62079 0.19068 0.44058 0.0
H1492 H 0.61184 0.11576 0.30759 0.0
H1493 H 0.62079 0.07727 0.31223 0.0
H1494 H 0.65207 0.10941 0.29621 0.0
H1495 H 0.68912 0.09728 0.35994 0.0
H1496 H 0.65836 0.06442 0.3754 0.0
H1497 H 0.67359 0.09375 0.41454 0.0
H1498 H 0.57811 0.14412 0.46486 0.0
H1499 H 0.54185 0.09347 0.47781 0.0
H1500 H 0.59553 0.05152 0.38363 0.0
C1501 C 0.67506 0.16285 0.35344 0.0
C1502 C 0.67945 0.19449 0.3633 0.0
C1503 C 0.66054 0.20456 0.39566 0.0
C1504 C 0.63625 0.18305 0.4169 0.0
C1505 C 0.63165 0.15192 0.4051 0.0
C1506 C 0.65096 0.14188 0.37457 0.0
C1507 C 0.64036 0.10776 0.36563 0.0
C1508 C 0.63069 0.10226 0.31758 0.0
C1509 C 0.66693 0.08974 0.37974 0.0
C1510 C 0.61128 0.10015 0.39485 0.0
C1511 C 0.60676 0.12572 0.41777 0.0
C1512 C 0.58148 0.12398 0.4471 0.0
C1513 C 0.56087 0.09516 0.45394 0.0
C1514 C 0.56561 0.06856 0.43129 0.0
C1515 C 0.59084 0.07142 0.40088 0.0
H1516 H 0.78159 0.64924 0.34575 0.0
H1517 H 0.81345 0.732 0.42046 0.0
H1518 H 0.85148 0.70558 0.46209 0.0
H1519 H 0.79195 0.59111 0.438 0.0
H1520 H 0.8052 0.56583 0.39961 0.0
H1521 H 0.77575 0.58897 0.38335 0.0
H1522 H 0.81286 0.61185 0.31936 0.0
H1523 H 0.84295 0.5898 0.3362 0.0
H1524 H 0.85391 0.63144 0.33051 0.0
H1525 H 0.89468 0.67469 0.48207 0.0
H1526 H 0.93189 0.63742 0.49098 0.0
H1527 H 0.87008 0.57394 0.4053 0.0
C1528 C 0.79507 0.66098 0.37282 0.0
C1529 C 0.79391 0.6922 0.38108 0.0
C1530 C 0.81319 0.70766 0.41495 0.0
C1531 C 0.83514 0.69295 0.43832 0.0
C1532 C 0.83712 0.66265 0.42769 0.0
C1533 C 0.81677 0.64643 0.39676 0.0
C1534 C 0.82555 0.61513 0.38878 0.0
C1535 C 0.79797 0.58869 0.40332 0.0
C1536 C 0.83434 0.61191 0.34088 0.0
C1537 C 0.85502 0.61696 0.41821 0.0
C1538 C 0.86137 0.64449 0.44044 0.0
C1539 C 0.88924 0.65255 0.4662 0.0
C1540 C 0.91053 0.6315 0.47045 0.0
C1541 C 0.90378 0.60272 0.44905 0.0
C1542 C 0.87567 0.59557 0.42257 0.0
H1543 H 0.36747 0.83248 0.35232 0.0
H1544 H 0.2736 0.8503 0.39014 0.0
H1545 H 0.3004 0.89373 0.43464 0.0
H1546 H 0.40957 0.85619 0.46097 0.0
H1547 H 0.44699 0.87356 0.43471 0.0
H1548 H 0.42083 0.84055 0.41098 0.0
H1549 H 0.41951 0.87208 0.33904 0.0
H1550 H 0.44501 0.90535 0.36287 0.0
H1551 H 0.40614 0.90873 0.33964 0.0
H1552 H 0.33499 0.93966 0.46279 0.0
H1553 H 0.37725 0.98267 0.48604 0.0
H1554 H 0.4514 0.93607 0.43628 0.0
C1555 C 0.35279 0.84484 0.37144 0.0
C1556 C 0.31846 0.83799 0.36818 0.0
C1557 C 0.29989 0.85516 0.39248 0.0
C1558 C 0.31488 0.87989 0.41778 0.0
C1559 C 0.34859 0.88713 0.41884 0.0
C1560 C 0.36755 0.86985 0.39738 0.0
C1561 C 0.40342 0.88426 0.40275 0.0
C1562 C 0.42126 0.86233 0.42891 0.0
C1563 C 0.41945 0.89313 0.35843 0.0
C1564 C 0.40124 0.91296 0.42859 0.0
C1565 C 0.36924 0.91384 0.43733 0.0
C1566 C 0.36024 0.93885 0.45741 0.0
C1567 C 0.38459 0.96333 0.47029 0.0
C1568 C 0.41787 0.9626 0.46403 0.0
C1569 C 0.42627 0.93714 0.44224 0.0
H1570 H 0.22733 0.35889 0.34801 0.0
H1571 H 0.16956 0.27168 0.39305 0.0
H1572 H 0.13294 0.29998 0.43069 0.0
H1573 H 0.21419 0.40717 0.44436 0.0
H1574 H 0.21041 0.44025 0.41037 0.0
H1575 H 0.23651 0.41431 0.39444 0.0
H1576 H 0.20627 0.40542 0.32097 0.0
H1577 H 0.18009 0.43137 0.33586 0.0
H1578 H 0.16283 0.39231 0.32017 0.0
H1579 H 0.09734 0.33559 0.45047 0.0
H1580 H 0.06579 0.37736 0.45523 0.0
H1581 H 0.14567 0.44297 0.3989 0.0
C1582 C 0.20783 0.34601 0.36758 0.0
C1583 C 0.20155 0.31322 0.36874 0.0
C1584 C 0.17495 0.29683 0.39265 0.0
C1585 C 0.15409 0.31271 0.41408 0.0
C1586 C 0.16004 0.34501 0.41099 0.0
C1587 C 0.18639 0.36162 0.38869 0.0
C1588 C 0.18462 0.39585 0.38554 0.0
C1589 C 0.21312 0.41556 0.41016 0.0
C1590 C 0.18337 0.40686 0.33781 0.0
C1591 C 0.15262 0.39562 0.4081 0.0
C1592 C 0.13909 0.36602 0.42281 0.0
C1593 C 0.10804 0.35901 0.44025 0.0
C1594 C 0.09025 0.38279 0.4426 0.0
C1595 C 0.10373 0.41332 0.42841 0.0
C1596 C 0.13538 0.41994 0.41123 0.0
H1597 H 0.30574 0.17178 0.64037 0.0
H1598 H 0.38355 0.24211 0.69099 0.0
H1599 H 0.42386 0.21342 0.66366 0.0
H1600 H 0.33837 0.10912 0.67143 0.0
H1601 H 0.32635 0.0857 0.62444 0.0
H1602 H 0.30329 0.11428 0.63968 0.0
H1603 H 0.31139 0.14004 0.56308 0.0
H1604 H 0.33441 0.11136 0.54745 0.0
H1605 H 0.35188 0.15206 0.54216 0.0
H1606 H 0.45507 0.1742 0.64251 0.0
H1607 H 0.47592 0.12708 0.62609 0.0
H1608 H 0.37916 0.08093 0.58738 0.0
C1609 C 0.3313 0.18168 0.64415 0.0
C1610 C 0.34152 0.20937 0.66749 0.0
C1611 C 0.37516 0.22106 0.67308 0.0
C1612 C 0.39827 0.20497 0.65753 0.0
C1613 C 0.38748 0.17718 0.6362 0.0
C1614 C 0.35484 0.16569 0.62894 0.0
C1615 C 0.34991 0.13366 0.60908 0.0
C1616 C 0.3282 0.10926 0.63789 0.0
C1617 C 0.33607 0.13434 0.5627 0.0
C1618 C 0.38464 0.12837 0.60858 0.0
C1619 C 0.40587 0.15409 0.62373 0.0
C1620 C 0.4388 0.15415 0.62984 0.0
C1621 C 0.45036 0.12716 0.62075 0.0
C1622 C 0.42915 0.10036 0.60558 0.0
C1623 C 0.39595 0.10122 0.59849 0.0
H1624 H 0.80863 0.37899 0.67644 0.0
H1625 H 0.81679 0.30435 0.58944 0.0
H1626 H 0.86374 0.33788 0.55423 0.0
H1627 H 0.83501 0.44404 0.59679 0.0
H1628 H 0.85619 0.46834 0.6386 0.0
H1629 H 0.82042 0.43998 0.65185 0.0
H1630 H 0.85351 0.41661 0.7113 0.0
H1631 H 0.88964 0.44413 0.69728 0.0
H1632 H 0.88975 0.40311 0.69639 0.0
H1633 H 0.9141 0.37657 0.53604 0.0
H1634 H 0.95916 0.42112 0.52699 0.0
H1635 H 0.9181 0.47027 0.62668 0.0
C1636 C 0.81964 0.36993 0.64914 0.0
C1637 C 0.80911 0.33901 0.63578 0.0
C1638 C 0.82429 0.32802 0.60005 0.0
C1639 C 0.85114 0.34681 0.58009 0.0
C1640 C 0.86214 0.37649 0.59602 0.0
C1641 C 0.84637 0.38829 0.62897 0.0
C1642 C 0.86388 0.42036 0.64149 0.0
C1643 C 0.84261 0.44461 0.63157 0.0
C1644 C 0.87483 0.42106 0.68945 0.0
C1645 C 0.89257 0.42439 0.61139 0.0
C1646 C 0.8911 0.39885 0.58542 0.0
C1647 C 0.91529 0.39687 0.55577 0.0
C1648 C 0.94096 0.42223 0.55123 0.0
C1649 C 0.94225 0.44928 0.5762 0.0
C1650 C 0.91803 0.44994 0.60735 0.0
H1651 H 0.2202 0.6518 0.62346 0.0
H1652 H 0.15084 0.71273 0.63732 0.0
H1653 H 0.10983 0.67593 0.59782 0.0
H1654 H 0.18884 0.62189 0.51202 0.0
H1655 H 0.19578 0.58351 0.52523 0.0
H1656 H 0.22202 0.617 0.54762 0.0
H1657 H 0.21005 0.59402 0.62518 0.0
H1658 H 0.18352 0.56068 0.60332 0.0
H1659 H 0.16856 0.58383 0.64314 0.0
H1660 H 0.07362 0.6294 0.57164 0.0
H1661 H 0.04548 0.57742 0.55054 0.0
H1662 H 0.1377 0.54652 0.54787 0.0
C1663 C 0.19677 0.65786 0.61677 0.0
C1664 C 0.1887 0.68504 0.6338 0.0
C1665 C 0.15757 0.69195 0.62497 0.0
C1666 C 0.13407 0.67125 0.60236 0.0
C1667 C 0.14217 0.64395 0.58803 0.0
C1668 C 0.17293 0.63745 0.59377 0.0
C1669 C 0.1742 0.60521 0.57789 0.0
C1670 C 0.19652 0.60702 0.53833 0.0
C1671 C 0.18469 0.58474 0.61458 0.0
C1672 C 0.13894 0.59411 0.56502 0.0
C1673 C 0.12103 0.61699 0.57092 0.0
C1674 C 0.08744 0.6115 0.5657 0.0
C1675 C 0.07164 0.58181 0.55394 0.0
C1676 C 0.08946 0.55806 0.54705 0.0
C1677 C 0.1236 0.56445 0.55217 0.0
loop_
_geom_bond_atom_site_label_1
_geom_bond_atom_site_label_2
_geom_bond_distance
_geom_bond_site_symmetry_2
_ccdc_geom_bond_type
O0 Zn1 1.953 . S
O0 C16 1.225 . S
Zn1 O0 1.953 . S
Zn1 O2 1.949 . S
Zn1 O8 1.919 . S
Zn1 O13 1.924 . S
O2 Zn1 1.949 . S
O2 Zn3 1.923 . S
O2 Zn4 1.950 . S
O2 Zn5 1.945 . S
Zn3 O2 1.923 . S
Zn3 O6 1.933 . S
Zn3 O9 1.941 . S
Zn3 O10 1.965 . S
Zn4 O2 1.950 . S
Zn4 O11 1.938 . S
Zn4 O12 1.906 . S
Zn4 O22 1.953 . S
Zn5 O2 1.945 . S
Zn5 O7 1.932 . S
Zn5 O14 1.977 . S
Zn5 O15 1.910 . S
O6 Zn3 1.933 . S
O6 C17 1.226 . S
O7 Zn5 1.932 . S
O7 C17 1.307 . S
O8 Zn1 1.919 . S
O8 C19 1.253 . S
O9 Zn3 1.941 . S
O9 C19 1.283 . S
O10 Zn3 1.965 . S
O10 C18 1.303 . S
O11 Zn4 1.938 . S
O11 C18 1.247 . S
O12 Zn4 1.906 . S
O12 C20 1.304 . S
O13 Zn1 1.924 . S
O13 C21 1.311 . S
O14 Zn5 1.977 . S
O14 C20 1.272 . S
O15 Zn5 1.910 . S
O15 C21 1.231 . S
C16 O0 1.225 . S
C16 O22 1.298 . S
C17 O6 1.226 . S
C17 O7 1.307 . S
C18 O10 1.303 . S
C18 O11 1.247 . S
C19 O8 1.253 . S
C19 O9 1.283 . S
C20 O12 1.304 . S
C20 O14 1.272 . S
C21 O13 1.311 . S
C21 O15 1.231 . S
O22 Zn4 1.953 . S
O22 C16 1.298 . S
O23 Zn24 1.953 . S
O23 C39 1.225 . S
Zn24 O23 1.953 . S
Zn24 O25 1.949 . S
Zn24 O31 1.919 . S
Zn24 O36 1.924 . S
O25 Zn24 1.949 . S
O25 Zn26 1.923 . S
O25 Zn27 1.950 . S
O25 Zn28 1.945 . S
Zn26 O25 1.923 . S
Zn26 O29 1.933 . S
Zn26 O32 1.941 . S
Zn26 O33 1.965 . S
Zn27 O25 1.950 . S
Zn27 O34 1.938 . S
Zn27 O35 1.906 . S
Zn27 O45 1.953 . S
Zn28 O25 1.945 . S
Zn28 O30 1.932 . S
Zn28 O37 1.977 . S
Zn28 O38 1.910 . S
O29 Zn26 1.933 . S
O29 C40 1.226 . S
O30 Zn28 1.932 . S
O30 C40 1.307 . S
O31 Zn24 1.919 . S
O31 C42 1.253 . S
O32 Zn26 1.941 . S
O32 C42 1.283 . S
O33 Zn26 1.965 . S
O33 C41 1.303 . S
O34 Zn27 1.938 . S
O34 C41 1.247 . S
O35 Zn27 1.906 . S
O35 C43 1.304 . S
O36 Zn24 1.924 . S
O36 C44 1.311 . S
O37 Zn28 1.977 . S
O37 C43 1.272 . S
O38 Zn28 1.910 . S
O38 C44 1.231 . S
C39 O23 1.225 . S
C39 O45 1.298 . S
C40 O29 1.226 . S
C40 O30 1.307 . S
C41 O33 1.303 . S
C41 O34 1.247 . S
C42 O31 1.253 . S
C42 O32 1.283 . S
C43 O35 1.304 . S
C43 O37 1.272 . S
C44 O36 1.311 . S
C44 O38 1.231 . S
O45 Zn27 1.953 . S
O45 C39 1.298 . S
O46 Zn47 1.953 . S
O46 C62 1.225 . S
Zn47 O46 1.953 . S
Zn47 O48 1.949 . S
Zn47 O54 1.919 . S
Zn47 O59 1.924 . S
O48 Zn47 1.949 . S
O48 Zn49 1.923 . S
O48 Zn50 1.950 . S
O48 Zn51 1.945 . S
Zn49 O48 1.923 . S
Zn49 O52 1.933 . S
Zn49 O55 1.941 . S
Zn49 O56 1.965 . S
Zn50 O48 1.950 . S
Zn50 O57 1.938 . S
Zn50 O58 1.906 . S
Zn50 O68 1.953 . S
Zn51 O48 1.945 . S
Zn51 O53 1.932 . S
Zn51 O60 1.977 . S
Zn51 O61 1.910 . S
O52 Zn49 1.933 . S
O52 C63 1.226 . S
O53 Zn51 1.932 . S
O53 C63 1.307 . S
O54 Zn47 1.919 . S
O54 C65 1.253 . S
O55 Zn49 1.941 . S
O55 C65 1.283 . S
O56 Zn49 1.965 . S
O56 C64 1.303 . S
O57 Zn50 1.938 . S
O57 C64 1.247 . S
O58 Zn50 1.906 . S
O58 C66 1.304 . S
O59 Zn47 1.924 . S
O59 C67 1.311 . S
O60 Zn51 1.977 . S
O60 C66 1.272 . S
O61 Zn51 1.910 . S
O61 C67 1.231 . S
C62 O46 1.225 . S
C62 O68 1.298 . S
C63 O52 1.226 . S
C63 O53 1.307 . S
C64 O56 1.303 . S
C64 O57 1.247 . S
C65 O54 1.253 . S
C65 O55 1.283 . S
C66 O58 1.304 . S
C66 O60 1.272 . S
C67 O59 1.311 . S
C67 O61 1.231 . S
O68 Zn50 1.953 . S
O68 C62 1.298 . S
O69 Zn70 1.953 . S
O69 C85 1.225 . S
Zn70 O69 1.953 . S
Zn70 O71 1.949 . S
Zn70 O77 1.919 . S
Zn70 O82 1.924 . S
O71 Zn70 1.949 . S
O71 Zn72 1.923 . S
O71 Zn73 1.950 . S
O71 Zn74 1.945 . S
Zn72 O71 1.923 . S
Zn72 O75 1.933 . S
Zn72 O78 1.941 . S
Zn72 O79 1.965 . S
Zn73 O71 1.950 . S
Zn73 O80 1.938 . S
Zn73 O81 1.906 . S
Zn73 O91 1.953 . S
Zn74 O71 1.945 . S
Zn74 O76 1.932 . S
Zn74 O83 1.977 . S
Zn74 O84 1.910 . S
O75 Zn72 1.933 . S
O75 C86 1.226 . S
O76 Zn74 1.932 . S
O76 C86 1.307 . S
O77 Zn70 1.919 . S
O77 C88 1.253 . S
O78 Zn72 1.941 . S
O78 C88 1.283 . S
O79 Zn72 1.965 . S
O79 C87 1.303 . S
O80 Zn73 1.938 . S
O80 C87 1.247 . S
O81 Zn73 1.906 . S
O81 C89 1.304 . S
O82 Zn70 1.924 . S
O82 C90 1.311 . S
O83 Zn74 1.977 . S
O83 C89 1.272 . S
O84 Zn74 1.910 . S
O84 C90 1.231 . S
C85 O69 1.225 . S
C85 O91 1.298 . S
C86 O75 1.226 . S
C86 O76 1.307 . S
C87 O79 1.303 . S
C87 O80 1.247 . S
C88 O77 1.253 . S
C88 O78 1.283 . S
C89 O81 1.304 . S
C89 O83 1.272 . S
C90 O82 1.311 . S
C90 O84 1.231 . S
O91 Zn73 1.953 . S
O91 C85 1.298 . S
O92 Zn93 1.953 . S
O92 C108 1.225 . S
Zn93 O92 1.953 . S
Zn93 O94 1.949 . S
Zn93 O100 1.919 . S
Zn93 O105 1.924 . S
O94 Zn93 1.949 . S
O94 Zn95 1.923 . S
O94 Zn96 1.950 . S
O94 Zn97 1.945 . S
Zn95 O94 1.923 . S
Zn95 O98 1.933 . S
Zn95 O101 1.941 . S
Zn95 O102 1.965 . S
Zn96 O94 1.950 . S
Zn96 O103 1.938 . S
Zn96 O104 1.906 . S
Zn96 O114 1.953 . S
Zn97 O94 1.945 . S
Zn97 O99 1.932 . S
Zn97 O106 1.977 . S
Zn97 O107 1.910 . S
O98 Zn95 1.933 . S
O98 C109 1.226 . S
O99 Zn97 1.932 . S
O99 C109 1.307 . S
O100 Zn93 1.919 . S
O100 C111 1.253 . S
O101 Zn95 1.941 . S
O101 C111 1.283 . S
O102 Zn95 1.965 . S
O102 C110 1.303 . S
O103 Zn96 1.938 . S
O103 C110 1.247 . S
O104 Zn96 1.906 . S
O104 C112 1.304 . S
O105 Zn93 1.924 . S
O105 C113 1.311 . S
O106 Zn97 1.977 . S
O106 C112 1.272 . S
O107 Zn97 1.910 . S
O107 C113 1.231 . S
C108 O92 1.225 . S
C108 O114 1.298 . S
C109 O98 1.226 . S
C109 O99 1.307 . S
C110 O102 1.303 . S
C110 O103 1.247 . S
C111 O100 1.253 . S
C111 O101 1.283 . S
C112 O104 1.304 . S
C112 O106 1.272 . S
C113 O105 1.311 . S
C113 O107 1.231 . S
O114 Zn96 1.953 . S
O114 C108 1.298 . S
O115 Zn116 1.953 . S
O115 C131 1.225 . S
Zn116 O115 1.953 . S
Zn116 O117 1.949 . S
Zn116 O123 1.919 . S
Zn116 O128 1.924 . S
O117 Zn116 1.949 . S
O117 Zn118 1.923 . S
O117 Zn119 1.950 . S
O117 Zn120 1.945 . S
Zn118 O117 1.923 . S
Zn118 O121 1.933 . S
Zn118 O124 1.941 . S
Zn118 O125 1.965 . S
Zn119 O117 1.950 . S
Zn119 O126 1.938 . S
Zn119 O127 1.906 . S
Zn119 O137 1.953 . S
Zn120 O117 1.945 . S
Zn120 O122 1.932 . S
Zn120 O129 1.977 . S
Zn120 O130 1.910 . S
O121 Zn118 1.933 . S
O121 C132 1.226 . S
O122 Zn120 1.932 . S
O122 C132 1.307 . S
O123 Zn116 1.919 . S
O123 C134 1.253 . S
O124 Zn118 1.941 . S
O124 C134 1.283 . S
O125 Zn118 1.965 . S
O125 C133 1.303 . S
O126 Zn119 1.938 . S
O126 C133 1.247 . S
O127 Zn119 1.906 . S
O127 C135 1.304 . S
O128 Zn116 1.924 . S
O128 C136 1.311 . S
O129 Zn120 1.977 . S
O129 C135 1.272 . S
O130 Zn120 1.910 . S
O130 C136 1.231 . S
C131 O115 1.225 . S
C131 O137 1.298 . S
C132 O121 1.226 . S
C132 O122 1.307 . S
C133 O125 1.303 . S
C133 O126 1.247 . S
C134 O123 1.253 . S
C134 O124 1.283 . S
C135 O127 1.304 . S
C135 O129 1.272 . S
C136 O128 1.311 . S
C136 O130 1.231 . S
O137 Zn119 1.953 . S
O137 C131 1.298 . S
O138 Zn139 1.953 . S
O138 C154 1.225 . S
Zn139 O138 1.953 . S
Zn139 O140 1.949 . S
Zn139 O146 1.919 . S
Zn139 O151 1.924 . S
O140 Zn139 1.949 . S
O140 Zn141 1.923 . S
O140 Zn142 1.950 . S
O140 Zn143 1.945 . S
Zn141 O140 1.923 . S
Zn141 O144 1.933 . S
Zn141 O147 1.941 . S
Zn141 O148 1.965 . S
Zn142 O140 1.950 . S
Zn142 O149 1.938 . S
Zn142 O150 1.906 . S
Zn142 O160 1.953 . S
Zn143 O140 1.945 . S
Zn143 O145 1.932 . S
Zn143 O152 1.977 . S
Zn143 O153 1.910 . S
O144 Zn141 1.933 . S
O144 C155 1.226 . S
O145 Zn143 1.932 . S
O145 C155 1.307 . S
O146 Zn139 1.919 . S
O146 C157 1.253 . S
O147 Zn141 1.941 . S
O147 C157 1.283 . S
O148 Zn141 1.965 . S
O148 C156 1.303 . S
O149 Zn142 1.938 . S
O149 C156 1.247 . S
O150 Zn142 1.906 . S
O150 C158 1.304 . S
O151 Zn139 1.924 . S
O151 C159 1.311 . S
O152 Zn143 1.977 . S
O152 C158 1.272 . S
O153 Zn143 1.910 . S
O153 C159 1.231 . S
C154 O138 1.225 . S
C154 O160 1.298 . S
C155 O144 1.226 . S
C155 O145 1.307 . S
C156 O148 1.303 . S
C156 O149 1.247 . S
C157 O146 1.253 . S
C157 O147 1.283 . S
C158 O150 1.304 . S
C158 O152 1.272 . S
C159 O151 1.311 . S
C159 O153 1.231 . S
O160 Zn142 1.953 . S
O160 C154 1.298 . S
O161 Zn162 1.953 . S
O161 C177 1.225 . S
Zn162 O161 1.953 . S
Zn162 O163 1.949 . S
Zn162 O169 1.919 . S
Zn162 O174 1.924 . S
O163 Zn162 1.949 . S
O163 Zn164 1.923 . S
O163 Zn165 1.950 . S
O163 Zn166 1.945 . S
Zn164 O163 1.923 . S
Zn164 O167 1.933 . S
Zn164 O170 1.941 . S
Zn164 O171 1.965 . S
Zn165 O163 1.950 . S
Zn165 O172 1.938 . S
Zn165 O173 1.906 . S
Zn165 O183 1.953 . S
Zn166 O163 1.945 . S
Zn166 O168 1.932 . S
Zn166 O175 1.977 . S
Zn166 O176 1.910 . S
O167 Zn164 1.933 . S
O167 C178 1.226 . S
O168 Zn166 1.932 . S
O168 C178 1.307 . S
O169 Zn162 1.919 . S
O169 C180 1.253 . S
O170 Zn164 1.941 . S
O170 C180 1.283 . S
O171 Zn164 1.965 . S
O171 C179 1.303 . S
O172 Zn165 1.938 . S
O172 C179 1.247 . S
O173 Zn165 1.906 . S
O173 C181 1.304 . S
O174 Zn162 1.924 . S
O174 C182 1.311 . S
O175 Zn166 1.977 . S
O175 C181 1.272 . S
O176 Zn166 1.910 . S
O176 C182 1.231 . S
C177 O161 1.225 . S
C177 O183 1.298 . S
C178 O167 1.226 . S
C178 O168 1.307 . S
C179 O171 1.303 . S
C179 O172 1.247 . S
C180 O169 1.253 . S
C180 O170 1.283 . S
C181 O173 1.304 . S
C181 O175 1.272 . S
C182 O174 1.311 . S
C182 O176 1.231 . S
O183 Zn165 1.953 . S
O183 C177 1.298 . S
Co184 O187 2.042 . S
Co184 O194 2.264 . S
Co184 O213 2.286 . S
Co184 O214 2.069 . S
Co184 O216 2.015 1_455 S
Co185 O187 2.122 . S
Co185 O193 2.073 . S
Co185 O194 2.327 . S
Co185 O195 1.976 1_455 S
Co186 O187 2.087 1_545 S
Co186 O189 2.087 1_455 S
Co186 O196 2.111 1_445 S
Co186 O197 2.143 . S
Co186 O201 2.111 . S
Co186 O215 2.143 1_445 S
O187 Co184 2.042 . S
O187 Co185 2.122 . S
O187 Co186 2.087 1_565 S
O187 H188 0.980 . S
H188 O187 0.980 . S
O189 Co186 2.087 1_655 S
O189 Co190 2.042 . S
O189 Co191 2.122 . S
O189 H192 0.980 . S
Co190 O189 2.042 . S
Co190 O198 2.286 . S
Co190 O199 2.069 . S
Co190 O200 2.015 1_655 S
Co190 O203 2.264 . S
Co191 O189 2.122 . S
Co191 O202 1.976 1_655 S
Co191 O203 2.327 . S
Co191 O204 2.073 . S
H192 O189 0.980 . S
O193 Co185 2.073 . S
O193 C208 1.245 . S
O194 Co184 2.264 . S
O194 Co185 2.327 . S
O194 C208 1.257 . S
O195 Co185 1.976 1_655 S
O195 C207 1.251 . S
O196 Co186 2.111 1_665 S
O196 C207 1.274 . S
O197 Co186 2.143 . S
O197 C210 1.246 . S
O198 Co190 2.286 . S
O198 C209 1.259 . S
O199 Co190 2.069 . S
O199 C209 1.289 . S
O200 Co190 2.015 1_455 S
O200 C210 1.257 . S
O201 Co186 2.111 . S
O201 C211 1.274 . S
O202 Co191 1.976 1_455 S
O202 C211 1.251 . S
O203 Co190 2.264 . S
O203 Co191 2.327 . S
O203 C212 1.257 . S
O204 Co191 2.073 . S
O204 C212 1.245 . S
C205 O213 1.259 . S
C205 O214 1.289 . S
C206 O215 1.246 . S
C206 O216 1.257 . S
C207 O195 1.251 . S
C207 O196 1.274 . S
C208 O193 1.245 . S
C208 O194 1.257 . S
C209 O198 1.259 . S
C209 O199 1.289 . S
C210 O197 1.246 . S
C210 O200 1.257 . S
C211 O201 1.274 . S
C211 O202 1.251 . S
C212 O203 1.257 . S
C212 O204 1.245 . S
O213 Co184 2.286 . S
O213 C205 1.259 . S
O214 Co184 2.069 . S
O214 C205 1.289 . S
O215 Co186 2.143 1_665 S
O215 C206 1.246 . S
O216 Co184 2.015 1_655 S
O216 C206 1.257 . S
Co217 O220 2.042 1_556 S
Co217 O227 2.264 1_556 S
Co217 O246 2.286 . S
Co217 O247 2.069 . S
Co217 O249 2.015 . S
Co218 O220 2.122 . S
Co218 O226 2.073 . S
Co218 O227 2.327 . S
Co218 O228 1.976 . S
Co219 O220 2.087 1_545 S
Co219 O222 2.087 . S
Co219 O229 2.111 1_545 S
Co219 O230 2.143 . S
Co219 O234 2.111 1_554 S
Co219 O248 2.143 1_544 S
O220 Co217 2.042 1_554 S
O220 Co218 2.122 . S
O220 Co219 2.087 1_565 S
O220 H221 0.980 . S
H221 O220 0.980 . S
O222 Co219 2.087 . S
O222 Co223 2.042 . S
O222 Co224 2.122 1_554 S
O222 H225 0.980 . S
Co223 O222 2.042 . S
Co223 O231 2.286 . S
Co223 O232 2.069 . S
Co223 O233 2.015 . S
Co223 O236 2.264 1_554 S
Co224 O222 2.122 1_556 S
Co224 O235 1.976 . S
Co224 O236 2.327 . S
Co224 O237 2.073 . S
H225 O222 0.980 . S
O226 Co218 2.073 . S
O226 C241 1.245 . S
O227 Co217 2.264 1_554 S
O227 Co218 2.327 . S
O227 C241 1.257 . S
O228 Co218 1.976 . S
O228 C240 1.251 . S
O229 Co219 2.111 1_565 S
O229 C240 1.274 . S
O230 Co219 2.143 . S
O230 C243 1.246 . S
O231 Co223 2.286 . S
O231 C242 1.259 . S
O232 Co223 2.069 . S
O232 C242 1.289 . S
O233 Co223 2.015 . S
O233 C243 1.257 . S
O234 Co219 2.111 1_556 S
O234 C244 1.274 . S
O235 Co224 1.976 . S
O235 C244 1.251 . S
O236 Co223 2.264 1_556 S
O236 Co224 2.327 . S
O236 C245 1.257 . S
O237 Co224 2.073 . S
O237 C245 1.245 . S
C238 O246 1.259 . S
C238 O247 1.289 . S
C239 O248 1.246 . S
C239 O249 1.257 . S
C240 O228 1.251 . S
C240 O229 1.274 . S
C241 O226 1.245 . S
C241 O227 1.257 . S
C242 O231 1.259 . S
C242 O232 1.289 . S
C243 O230 1.246 . S
C243 O233 1.257 . S
C244 O234 1.274 . S
C244 O235 1.251 . S
C245 O236 1.257 . S
C245 O237 1.245 . S
O246 Co217 2.286 . S
O246 C238 1.259 . S
O247 Co217 2.069 . S
O247 C238 1.289 . S
O248 Co219 2.143 1_566 S
O248 C239 1.246 . S
O249 Co217 2.015 . S
O249 C239 1.257 . S
Co250 O253 2.042 1_556 S
Co250 O260 2.264 1_556 S
Co250 O279 2.286 . S
Co250 O280 2.069 . S
Co250 O282 2.015 1_455 S
Co251 O253 2.122 . S
Co251 O259 2.073 . S
Co251 O260 2.327 . S
Co251 O261 1.976 1_455 S
Co252 O253 2.087 . S
Co252 O255 2.087 1_454 S
Co252 O262 2.111 1_455 S
Co252 O263 2.143 . S
Co252 O267 2.111 1_554 S
Co252 O281 2.143 1_454 S
O253 Co250 2.042 1_554 S
O253 Co251 2.122 . S
O253 Co252 2.087 . S
O253 H254 0.980 . S
H254 O253 0.980 . S
O255 Co252 2.087 1_656 S
O255 Co256 2.042 1_556 S
O255 Co257 2.122 . S
O255 H258 0.980 . S
Co256 O255 2.042 1_554 S
Co256 O264 2.286 . S
Co256 O265 2.069 . S
Co256 O266 2.015 1_655 S
Co256 O269 2.264 1_554 S
Co257 O255 2.122 . S
Co257 O268 1.976 1_655 S
Co257 O269 2.327 . S
Co257 O270 2.073 . S
H258 O255 0.980 . S
O259 Co251 2.073 . S
O259 C274 1.245 . S
O260 Co250 2.264 1_554 S
O260 Co251 2.327 . S
O260 C274 1.257 . S
O261 Co251 1.976 1_655 S
O261 C273 1.251 . S
O262 Co252 2.111 1_655 S
O262 C273 1.274 . S
O263 Co252 2.143 . S
O263 C276 1.246 . S
O264 Co256 2.286 . S
O264 C275 1.259 . S
O265 Co256 2.069 . S
O265 C275 1.289 . S
O266 Co256 2.015 1_455 S
O266 C276 1.257 . S
O267 Co252 2.111 1_556 S
O267 C277 1.274 . S
O268 Co257 1.976 1_455 S
O268 C277 1.251 . S
O269 Co256 2.264 1_556 S
O269 Co257 2.327 . S
O269 C278 1.257 . S
O270 Co257 2.073 . S
O270 C278 1.245 . S
C271 O279 1.259 . S
C271 O280 1.289 . S
C272 O281 1.246 . S
C272 O282 1.257 . S
C273 O261 1.251 . S
C273 O262 1.274 . S
C274 O259 1.245 . S
C274 O260 1.257 . S
C275 O264 1.259 . S
C275 O265 1.289 . S
C276 O263 1.246 . S
C276 O266 1.257 . S
C277 O267 1.274 . S
C277 O268 1.251 . S
C278 O269 1.257 . S
C278 O270 1.245 . S
O279 Co250 2.286 . S
O279 C271 1.259 . S
O280 Co250 2.069 . S
O280 C271 1.289 . S
O281 Co252 2.143 1_656 S
O281 C272 1.246 . S
O282 Co250 2.015 1_655 S
O282 C272 1.257 . S
Co283 O286 2.042 1_556 S
Co283 O293 2.264 1_556 S
Co283 O312 2.286 . S
Co283 O313 2.069 . S
Co283 O315 2.015 . S
Co284 O286 2.122 . S
Co284 O292 2.073 . S
Co284 O293 2.327 . S
Co284 O294 1.976 . S
Co285 O286 2.087 . S
Co285 O288 2.087 1_554 S
Co285 O295 2.111 . S
Co285 O296 2.143 . S
Co285 O300 2.111 1_554 S
Co285 O314 2.143 1_554 S
O286 Co283 2.042 1_554 S
O286 Co284 2.122 . S
O286 Co285 2.087 . S
O286 H287 0.980 . S
H287 O286 0.980 . S
O288 Co285 2.087 1_556 S
O288 Co289 2.042 1_556 S
O288 Co290 2.122 . S
O288 H291 0.980 . S
Co289 O288 2.042 1_554 S
Co289 O297 2.286 . S
Co289 O298 2.069 . S
Co289 O299 2.015 . S
Co289 O302 2.264 1_554 S
Co290 O288 2.122 . S
Co290 O301 1.976 . S
Co290 O302 2.327 . S
Co290 O303 2.073 . S
H291 O288 0.980 . S
O292 Co284 2.073 . S
O292 C307 1.245 . S
O293 Co283 2.264 1_554 S
O293 Co284 2.327 . S
O293 C307 1.257 . S
O294 Co284 1.976 . S
O294 C306 1.251 . S
O295 Co285 2.111 . S
O295 C306 1.274 . S
O296 Co285 2.143 . S
O296 C309 1.246 . S
O297 Co289 2.286 . S
O297 C308 1.259 . S
O298 Co289 2.069 . S
O298 C308 1.289 . S
O299 Co289 2.015 . S
O299 C309 1.257 . S
O300 Co285 2.111 1_556 S
O300 C310 1.274 . S
O301 Co290 1.976 . S
O301 C310 1.251 . S
O302 Co289 2.264 1_556 S
O302 Co290 2.327 . S
O302 C311 1.257 . S
O303 Co290 2.073 . S
O303 C311 1.245 . S
C304 O312 1.259 . S
C304 O313 1.289 . S
C305 O314 1.246 . S
C305 O315 1.257 . S
C306 O294 1.251 . S
C306 O295 1.274 . S
C307 O292 1.245 . S
C307 O293 1.257 . S
C308 O297 1.259 . S
C308 O298 1.289 . S
C309 O296 1.246 . S
C309 O299 1.257 . S
C310 O300 1.274 . S
C310 O301 1.251 . S
C311 O302 1.257 . S
C311 O303 1.245 . S
O312 Co283 2.286 . S
O312 C304 1.259 . S
O313 Co283 2.069 . S
O313 C304 1.289 . S
O314 Co285 2.143 1_556 S
O314 C305 1.246 . S
O315 Co283 2.015 . S
O315 C305 1.257 . S
Co316 O319 2.042 . S
Co316 O326 2.264 . S
Co316 O345 2.286 . S
Co316 O346 2.069 . S
Co316 O348 2.015 . S
Co317 O319 2.122 . S
Co317 O325 2.073 . S
Co317 O326 2.327 . S
Co317 O327 1.976 . S
Co318 O319 2.087 . S
Co318 O321 2.087 1_455 S
Co318 O328 2.111 . S
Co318 O329 2.143 1_455 S
Co318 O333 2.111 1_455 S
Co318 O347 2.143 . S
O319 Co316 2.042 . S
O319 Co317 2.122 . S
O319 Co318 2.087 . S
O319 H320 0.980 . S
H320 O319 0.980 . S
O321 Co318 2.087 1_655 S
O321 Co322 2.042 . S
O321 Co323 2.122 . S
O321 H324 0.980 . S
Co322 O321 2.042 . S
Co322 O330 2.286 . S
Co322 O331 2.069 . S
Co322 O332 2.015 . S
Co322 O335 2.264 . S
Co323 O321 2.122 . S
Co323 O334 1.976 . S
Co323 O335 2.327 . S
Co323 O336 2.073 . S
H324 O321 0.980 . S
O325 Co317 2.073 . S
O325 C340 1.245 . S
O326 Co316 2.264 . S
O326 Co317 2.327 . S
O326 C340 1.257 . S
O327 Co317 1.976 . S
O327 C339 1.251 . S
O328 Co318 2.111 . S
O328 C339 1.274 . S
O329 Co318 2.143 1_655 S
O329 C342 1.246 . S
O330 Co322 2.286 . S
O330 C341 1.259 . S
O331 Co322 2.069 . S
O331 C341 1.289 . S
O332 Co322 2.015 . S
O332 C342 1.257 . S
O333 Co318 2.111 1_655 S
O333 C343 1.274 . S
O334 Co323 1.976 . S
O334 C343 1.251 . S
O335 Co322 2.264 . S
O335 Co323 2.327 . S
O335 C344 1.257 . S
O336 Co323 2.073 . S
O336 C344 1.245 . S
C337 O345 1.259 . S
C337 O346 1.289 . S
C338 O347 1.246 . S
C338 O348 1.257 . S
C339 O327 1.251 . S
C339 O328 1.274 . S
C340 O325 1.245 . S
C340 O326 1.257 . S
C341 O330 1.259 . S
C341 O331 1.289 . S
C342 O329 1.246 . S
C342 O332 1.257 . S
C343 O333 1.274 . S
C343 O334 1.251 . S
C344 O335 1.257 . S
C344 O336 1.245 . S
O345 Co316 2.286 . S
O345 C337 1.259 . S
O346 Co316 2.069 . S
O346 C337 1.289 . S
O347 Co318 2.143 . S
O347 C338 1.246 . S
O348 Co316 2.015 . S
O348 C338 1.257 . S
Co349 O352 2.042 . S
Co349 O359 2.264 . S
Co349 O378 2.286 . S
Co349 O379 2.069 . S
Co349 O381 2.015 1_565 S
Co350 O352 2.122 . S
Co350 O358 2.073 . S
Co350 O359 2.327 . S
Co350 O360 1.976 1_565 S
Co351 O352 2.087 1_545 S
Co351 O354 2.087 . S
Co351 O361 2.111 . S
Co351 O362 2.143 1_545 S
Co351 O366 2.111 1_545 S
Co351 O380 2.143 . S
O352 Co349 2.042 . S
O352 Co350 2.122 . S
O352 Co351 2.087 1_565 S
O352 H353 0.980 . S
H353 O352 0.980 . S
O354 Co351 2.087 . S
O354 Co355 2.042 . S
O354 Co356 2.122 . S
O354 H357 0.980 . S
Co355 O354 2.042 . S
Co355 O363 2.286 . S
Co355 O364 2.069 . S
Co355 O365 2.015 1_545 S
Co355 O368 2.264 . S
Co356 O354 2.122 . S
Co356 O367 1.976 1_545 S
Co356 O368 2.327 . S
Co356 O369 2.073 . S
H357 O354 0.980 . S
O358 Co350 2.073 . S
O358 C373 1.245 . S
O359 Co349 2.264 . S
O359 Co350 2.327 . S
O359 C373 1.257 . S
O360 Co350 1.976 1_545 S
O360 C372 1.251 . S
O361 Co351 2.111 . S
O361 C372 1.274 . S
O362 Co351 2.143 1_565 S
O362 C375 1.246 . S
O363 Co355 2.286 . S
O363 C374 1.259 . S
O364 Co355 2.069 . S
O364 C374 1.289 . S
O365 Co355 2.015 1_565 S
O365 C375 1.257 . S
O366 Co351 2.111 1_565 S
O366 C376 1.274 . S
O367 Co356 1.976 1_565 S
O367 C376 1.251 . S
O368 Co355 2.264 . S
O368 Co356 2.327 . S
O368 C377 1.257 . S
O369 Co356 2.073 . S
O369 C377 1.245 . S
C370 O378 1.259 . S
C370 O379 1.289 . S
C371 O380 1.246 . S
C371 O381 1.257 . S
C372 O360 1.251 . S
C372 O361 1.274 . S
C373 O358 1.245 . S
C373 O359 1.257 . S
C374 O363 1.259 . S
C374 O364 1.289 . S
C375 O362 1.246 . S
C375 O365 1.257 . S
C376 O366 1.274 . S
C376 O367 1.251 . S
C377 O368 1.257 . S
C377 O369 1.245 . S
O378 Co349 2.286 . S
O378 C370 1.259 . S
O379 Co349 2.069 . S
O379 C370 1.289 . S
O380 Co351 2.143 . S
O380 C371 1.246 . S
O381 Co349 2.015 1_545 S
O381 C371 1.257 . S
H382 C394 0.930 . S
H383 C396 0.930 . S
H384 C397 0.930 . S
H385 C401 0.959 . S
H386 C401 0.959 . S
H387 C401 0.961 . S
H388 C402 0.960 . S
H389 C402 0.961 . S
H390 C402 0.959 . S
H391 C405 0.929 . S
H392 C406 0.931 . S
H393 C408 0.930 . S
C394 H382 0.930 . S
C394 C395 1.399 . S
C394 C399 1.399 . S
C395 C394 1.399 . S
C395 C396 1.376 . S
C396 H383 0.930 . S
C396 C395 1.376 . S
C396 C397 1.388 . S
C397 H384 0.930 . S
C397 C396 1.388 . S
C397 C398 1.390 . S
C398 C397 1.390 . S
C398 C399 1.394 . S
C398 C404 1.465 . S
C399 C394 1.399 . S
C399 C398 1.394 . S
C399 C400 1.516 . S
C400 C399 1.516 . S
C400 C401 1.502 . S
C400 C402 1.561 . S
C400 C403 1.526 . S
C401 H385 0.959 . S
C401 H386 0.959 . S
C401 H387 0.961 . S
C401 C400 1.502 . S
C402 H388 0.960 . S
C402 H389 0.961 . S
C402 H390 0.959 . S
C402 C400 1.561 . S
C403 C400 1.526 . S
C403 C404 1.396 . S
C403 C408 1.390 . S
C404 C398 1.465 . S
C404 C403 1.396 . S
C404 C405 1.399 . S
C405 H391 0.929 . S
C405 C404 1.399 . S
C405 C406 1.385 . S
C406 H392 0.931 . S
C406 C405 1.385 . S
C406 C407 1.389 . S
C407 C406 1.389 . S
C407 C408 1.387 . S
C408 H393 0.930 . S
C408 C403 1.390 . S
C408 C407 1.387 . S
H409 C421 0.930 . S
H410 C423 0.930 . S
H411 C424 0.930 . S
H412 C428 0.959 . S
H413 C428 0.959 . S
H414 C428 0.961 . S
H415 C429 0.960 . S
H416 C429 0.961 . S
H417 C429 0.959 . S
H418 C432 0.929 . S
H419 C433 0.931 . S
H420 C435 0.930 . S
C421 H409 0.930 . S
C421 C422 1.399 . S
C421 C426 1.399 . S
C422 C421 1.399 . S
C422 C423 1.376 . S
C423 H410 0.930 . S
C423 C422 1.376 . S
C423 C424 1.388 . S
C424 H411 0.930 . S
C424 C423 1.388 . S
C424 C425 1.390 . S
C425 C424 1.390 . S
C425 C426 1.394 . S
C425 C431 1.465 . S
C426 C421 1.399 . S
C426 C425 1.394 . S
C426 C427 1.516 . S
C427 C426 1.516 . S
C427 C428 1.502 . S
C427 C429 1.561 . S
C427 C430 1.526 . S
C428 H412 0.959 . S
C428 H413 0.959 . S
C428 H414 0.961 . S
C428 C427 1.502 . S
C429 H415 0.960 . S
C429 H416 0.961 . S
C429 H417 0.959 . S
C429 C427 1.561 . S
C430 C427 1.526 . S
C430 C431 1.396 . S
C430 C435 1.390 . S
C431 C425 1.465 . S
C431 C430 1.396 . S
C431 C432 1.399 . S
C432 H418 0.929 . S
C432 C431 1.399 . S
C432 C433 1.385 . S
C433 H419 0.931 . S
C433 C432 1.385 . S
C433 C434 1.389 . S
C434 C433 1.389 . S
C434 C435 1.387 . S
C435 H420 0.930 . S
C435 C430 1.390 . S
C435 C434 1.387 . S
H436 C448 0.930 . S
H437 C450 0.930 . S
H438 C451 0.930 . S
H439 C455 0.959 . S
H440 C455 0.959 . S
H441 C455 0.961 . S
H442 C456 0.960 . S
H443 C456 0.961 . S
H444 C456 0.959 . S
H445 C459 0.929 . S
H446 C460 0.931 . S
H447 C462 0.930 . S
C448 H436 0.930 . S
C448 C449 1.399 . S
C448 C453 1.399 . S
C449 C448 1.399 . S
C449 C450 1.376 . S
C450 H437 0.930 . S
C450 C449 1.376 . S
C450 C451 1.388 . S
C451 H438 0.930 . S
C451 C450 1.388 . S
C451 C452 1.390 . S
C452 C451 1.390 . S
C452 C453 1.394 . S
C452 C458 1.465 . S
C453 C448 1.399 . S
C453 C452 1.394 . S
C453 C454 1.516 . S
C454 C453 1.516 . S
C454 C455 1.502 . S
C454 C456 1.561 . S
C454 C457 1.526 . S
C455 H439 0.959 . S
C455 H440 0.959 . S
C455 H441 0.961 . S
C455 C454 1.502 . S
C456 H442 0.960 . S
C456 H443 0.961 . S
C456 H444 0.959 . S
C456 C454 1.561 . S
C457 C454 1.526 . S
C457 C458 1.396 . S
C457 C462 1.390 . S
C458 C452 1.465 . S
C458 C457 1.396 . S
C458 C459 1.399 . S
C459 H445 0.929 . S
C459 C458 1.399 . S
C459 C460 1.385 . S
C460 H446 0.931 . S
C460 C459 1.385 . S
C460 C461 1.389 . S
C461 C460 1.389 . S
C461 C462 1.387 . S
C462 H447 0.930 . S
C462 C457 1.390 . S
C462 C461 1.387 . S
H463 C475 0.930 . S
H464 C477 0.930 . S
H465 C478 0.930 . S
H466 C482 0.959 . S
H467 C482 0.959 . S
H468 C482 0.961 . S
H469 C483 0.960 . S
H470 C483 0.961 . S
H471 C483 0.959 . S
H472 C486 0.929 . S
H473 C487 0.931 . S
H474 C489 0.930 . S
C475 H463 0.930 . S
C475 C476 1.399 . S
C475 C480 1.399 . S
C476 C475 1.399 . S
C476 C477 1.376 . S
C477 H464 0.930 . S
C477 C476 1.376 . S
C477 C478 1.388 . S
C478 H465 0.930 . S
C478 C477 1.388 . S
C478 C479 1.390 . S
C479 C478 1.390 . S
C479 C480 1.394 . S
C479 C485 1.465 . S
C480 C475 1.399 . S
C480 C479 1.394 . S
C480 C481 1.516 . S
C481 C480 1.516 . S
C481 C482 1.502 . S
C481 C483 1.561 . S
C481 C484 1.526 . S
C482 H466 0.959 . S
C482 H467 0.959 . S
C482 H468 0.961 . S
C482 C481 1.502 . S
C483 H469 0.960 . S
C483 H470 0.961 . S
C483 H471 0.959 . S
C483 C481 1.561 . S
C484 C481 1.526 . S
C484 C485 1.396 . S
C484 C489 1.390 . S
C485 C479 1.465 . S
C485 C484 1.396 . S
C485 C486 1.399 . S
C486 H472 0.929 . S
C486 C485 1.399 . S
C486 C487 1.385 . S
C487 H473 0.931 . S
C487 C486 1.385 . S
C487 C488 1.389 . S
C488 C487 1.389 . S
C488 C489 1.387 . S
C489 H474 0.930 . S
C489 C484 1.390 . S
C489 C488 1.387 . S
H490 C502 0.930 . S
H491 C504 0.930 . S
H492 C505 0.930 . S
H493 C509 0.959 . S
H494 C509 0.959 . S
H495 C509 0.961 . S
H496 C510 0.960 . S
H497 C510 0.961 . S
H498 C510 0.959 . S
H499 C513 0.929 . S
H500 C514 0.931 . S
H501 C516 0.930 . S
C502 H490 0.930 . S
C502 C503 1.399 . S
C502 C507 1.399 . S
C503 C502 1.399 . S
C503 C504 1.376 . S
C504 H491 0.930 . S
C504 C503 1.376 . S
C504 C505 1.388 . S
C505 H492 0.930 . S
C505 C504 1.388 . S
C505 C506 1.390 . S
C506 C505 1.390 . S
C506 C507 1.394 . S
C506 C512 1.465 . S
C507 C502 1.399 . S
C507 C506 1.394 . S
C507 C508 1.516 . S
C508 C507 1.516 . S
C508 C509 1.502 . S
C508 C510 1.561 . S
C508 C511 1.526 . S
C509 H493 0.959 . S
C509 H494 0.959 . S
C509 H495 0.961 . S
C509 C508 1.502 . S
C510 H496 0.960 . S
C510 H497 0.961 . S
C510 H498 0.959 . S
C510 C508 1.561 . S
C511 C508 1.526 . S
C511 C512 1.396 . S
C511 C516 1.390 . S
C512 C506 1.465 . S
C512 C511 1.396 . S
C512 C513 1.399 . S
C513 H499 0.929 . S
C513 C512 1.399 . S
C513 C514 1.385 . S
C514 H500 0.931 . S
C514 C513 1.385 . S
C514 C515 1.389 . S
C515 C514 1.389 . S
C515 C516 1.387 . S
C516 H501 0.930 . S
C516 C511 1.390 . S
C516 C515 1.387 . S
H517 C529 0.930 . S
H518 C531 0.930 . S
H519 C532 0.930 . S
H520 C536 0.959 . S
H521 C536 0.959 . S
H522 C536 0.961 . S
H523 C537 0.960 . S
H524 C537 0.961 . S
H525 C537 0.959 . S
H526 C540 0.929 . S
H527 C541 0.931 . S
H528 C543 0.930 . S
C529 H517 0.930 . S
C529 C530 1.399 . S
C529 C534 1.399 . S
C530 C529 1.399 . S
C530 C531 1.376 . S
C531 H518 0.930 . S
C531 C530 1.376 . S
C531 C532 1.388 . S
C532 H519 0.930 . S
C532 C531 1.388 . S
C532 C533 1.390 . S
C533 C532 1.390 . S
C533 C534 1.394 . S
C533 C539 1.465 . S
C534 C529 1.399 . S
C534 C533 1.394 . S
C534 C535 1.516 . S
C535 C534 1.516 . S
C535 C536 1.502 . S
C535 C537 1.561 . S
C535 C538 1.526 . S
C536 H520 0.959 . S
C536 H521 0.959 . S
C536 H522 0.961 . S
C536 C535 1.502 . S
C537 H523 0.960 . S
C537 H524 0.961 . S
C537 H525 0.959 . S
C537 C535 1.561 . S
C538 C535 1.526 . S
C538 C539 1.396 . S
C538 C543 1.390 . S
C539 C533 1.465 . S
C539 C538 1.396 . S
C539 C540 1.399 . S
C540 H526 0.929 . S
C540 C539 1.399 . S
C540 C541 1.385 . S
C541 H527 0.931 . S
C541 C540 1.385 . S
C541 C542 1.389 . S
C542 C541 1.389 . S
C542 C543 1.387 . S
C543 H528 0.930 . S
C543 C538 1.390 . S
C543 C542 1.387 . S
H544 C556 0.930 . S
H545 C558 0.930 . S
H546 C559 0.930 . S
H547 C563 0.959 . S
H548 C563 0.959 . S
H549 C563 0.961 . S
H550 C564 0.960 . S
H551 C564 0.961 . S
H552 C564 0.959 . S
H553 C567 0.929 . S
H554 C568 0.931 . S
H555 C570 0.930 . S
C556 H544 0.930 . S
C556 C557 1.399 . S
C556 C561 1.399 . S
C557 C556 1.399 . S
C557 C558 1.376 . S
C558 H545 0.930 . S
C558 C557 1.376 . S
C558 C559 1.388 . S
C559 H546 0.930 . S
C559 C558 1.388 . S
C559 C560 1.390 . S
C560 C559 1.390 . S
C560 C561 1.394 . S
C560 C566 1.465 . S
C561 C556 1.399 . S
C561 C560 1.394 . S
C561 C562 1.516 . S
C562 C561 1.516 . S
C562 C563 1.502 . S
C562 C564 1.561 . S
C562 C565 1.526 . S
C563 H547 0.959 . S
C563 H548 0.959 . S
C563 H549 0.961 . S
C563 C562 1.502 . S
C564 H550 0.960 . S
C564 H551 0.961 . S
C564 H552 0.959 . S
C564 C562 1.561 . S
C565 C562 1.526 . S
C565 C566 1.396 . S
C565 C570 1.390 . S
C566 C560 1.465 . S
C566 C565 1.396 . S
C566 C567 1.399 . S
C567 H553 0.929 . S
C567 C566 1.399 . S
C567 C568 1.385 . S
C568 H554 0.931 . S
C568 C567 1.385 . S
C568 C569 1.389 . S
C569 C568 1.389 . S
C569 C570 1.387 . S
C570 H555 0.930 . S
C570 C565 1.390 . S
C570 C569 1.387 . S
H571 C583 0.930 . S
H572 C585 0.930 . S
H573 C586 0.930 . S
H574 C590 0.959 . S
H575 C590 0.959 . S
H576 C590 0.961 . S
H577 C591 0.960 . S
H578 C591 0.961 . S
H579 C591 0.959 . S
H580 C594 0.929 . S
H581 C595 0.931 . S
H582 C597 0.930 . S
C583 H571 0.930 . S
C583 C584 1.399 . S
C583 C588 1.399 . S
C584 C583 1.399 . S
C584 C585 1.376 . S
C585 H572 0.930 . S
C585 C584 1.376 . S
C585 C586 1.388 . S
C586 H573 0.930 . S
C586 C585 1.388 . S
C586 C587 1.390 . S
C587 C586 1.390 . S
C587 C588 1.394 . S
C587 C593 1.465 . S
C588 C583 1.399 . S
C588 C587 1.394 . S
C588 C589 1.516 . S
C589 C588 1.516 . S
C589 C590 1.502 . S
C589 C591 1.561 . S
C589 C592 1.526 . S
C590 H574 0.959 . S
C590 H575 0.959 . S
C590 H576 0.961 . S
C590 C589 1.502 . S
C591 H577 0.960 . S
C591 H578 0.961 . S
C591 H579 0.959 . S
C591 C589 1.561 . S
C592 C589 1.526 . S
C592 C593 1.396 . S
C592 C597 1.390 . S
C593 C587 1.465 . S
C593 C592 1.396 . S
C593 C594 1.399 . S
C594 H580 0.929 . S
C594 C593 1.399 . S
C594 C595 1.385 . S
C595 H581 0.931 . S
C595 C594 1.385 . S
C595 C596 1.389 . S
C596 C595 1.389 . S
C596 C597 1.387 . S
C597 H582 0.930 . S
C597 C592 1.390 . S
C597 C596 1.387 . S
H598 C610 0.930 . S
H599 C612 0.930 . S
H600 C613 0.930 . S
H601 C617 0.959 . S
H602 C617 0.959 . S
H603 C617 0.961 . S
H604 C618 0.960 . S
H605 C618 0.961 . S
H606 C618 0.959 . S
H607 C621 0.929 . S
H608 C622 0.931 . S
H609 C624 0.930 . S
C610 H598 0.930 . S
C610 C611 1.399 . S
C610 C615 1.399 . S
C611 C610 1.399 . S
C611 C612 1.376 . S
C612 H599 0.930 . S
C612 C611 1.376 . S
C612 C613 1.388 . S
C613 H600 0.930 . S
C613 C612 1.388 . S
C613 C614 1.390 . S
C614 C613 1.390 . S
C614 C615 1.394 . S
C614 C620 1.465 . S
C615 C610 1.399 . S
C615 C614 1.394 . S
C615 C616 1.516 . S
C616 C615 1.516 . S
C616 C617 1.502 . S
C616 C618 1.561 . S
C616 C619 1.526 . S
C617 H601 0.959 . S
C617 H602 0.959 . S
C617 H603 0.961 . S
C617 C616 1.502 . S
C618 H604 0.960 . S
C618 H605 0.961 . S
C618 H606 0.959 . S
C618 C616 1.561 . S
C619 C616 1.526 . S
C619 C620 1.396 . S
C619 C624 1.390 . S
C620 C614 1.465 . S
C620 C619 1.396 . S
C620 C621 1.399 . S
C621 H607 0.929 . S
C621 C620 1.399 . S
C621 C622 1.385 . S
C622 H608 0.931 . S
C622 C621 1.385 . S
C622 C623 1.389 . S
C623 C622 1.389 . S
C623 C624 1.387 . S
C624 H609 0.930 . S
C624 C619 1.390 . S
C624 C623 1.387 . S
H625 C637 0.930 . S
H626 C639 0.930 . S
H627 C640 0.930 . S
H628 C644 0.959 . S
H629 C644 0.959 . S
H630 C644 0.961 . S
H631 C645 0.960 . S
H632 C645 0.961 . S
H633 C645 0.959 . S
H634 C648 0.929 . S
H635 C649 0.931 . S
H636 C651 0.930 . S
C637 H625 0.930 . S
C637 C638 1.399 . S
C637 C642 1.399 . S
C638 C637 1.399 . S
C638 C639 1.376 . S
C639 H626 0.930 . S
C639 C638 1.376 . S
C639 C640 1.388 . S
C640 H627 0.930 . S
C640 C639 1.388 . S
C640 C641 1.390 . S
C641 C640 1.390 . S
C641 C642 1.394 . S
C641 C647 1.465 . S
C642 C637 1.399 . S
C642 C641 1.394 . S
C642 C643 1.516 . S
C643 C642 1.516 . S
C643 C644 1.502 . S
C643 C645 1.561 . S
C643 C646 1.526 . S
C644 H628 0.959 . S
C644 H629 0.959 . S
C644 H630 0.961 . S
C644 C643 1.502 . S
C645 H631 0.960 . S
C645 H632 0.961 . S
C645 H633 0.959 . S
C645 C643 1.561 . S
C646 C643 1.526 . S
C646 C647 1.396 . S
C646 C651 1.390 . S
C647 C641 1.465 . S
C647 C646 1.396 . S
C647 C648 1.399 . S
C648 H634 0.929 . S
C648 C647 1.399 . S
C648 C649 1.385 . S
C649 H635 0.931 . S
C649 C648 1.385 . S
C649 C650 1.389 . S
C650 C649 1.389 . S
C650 C651 1.387 . S
C651 H636 0.930 . S
C651 C646 1.390 . S
C651 C650 1.387 . S
H652 C664 0.930 . S
H653 C666 0.930 . S
H654 C667 0.930 . S
H655 C671 0.959 . S
H656 C671 0.959 . S
H657 C671 0.961 . S
H658 C672 0.960 . S
H659 C672 0.961 . S
H660 C672 0.959 . S
H661 C675 0.929 . S
H662 C676 0.931 . S
H663 C678 0.930 . S
C664 H652 0.930 . S
C664 C665 1.399 . S
C664 C669 1.399 . S
C665 C664 1.399 . S
C665 C666 1.376 . S
C666 H653 0.930 . S
C666 C665 1.376 . S
C666 C667 1.388 . S
C667 H654 0.930 . S
C667 C666 1.388 . S
C667 C668 1.390 . S
C668 C667 1.390 . S
C668 C669 1.394 . S
C668 C674 1.465 . S
C669 C664 1.399 . S
C669 C668 1.394 . S
C669 C670 1.516 . S
C670 C669 1.516 . S
C670 C671 1.502 . S
C670 C672 1.561 . S
C670 C673 1.526 . S
C671 H655 0.959 . S
C671 H656 0.959 . S
C671 H657 0.961 . S
C671 C670 1.502 . S
C672 H658 0.960 . S
C672 H659 0.961 . S
C672 H660 0.959 . S
C672 C670 1.561 . S
C673 C670 1.526 . S
C673 C674 1.396 . S
C673 C678 1.390 . S
C674 C668 1.465 . S
C674 C673 1.396 . S
C674 C675 1.399 . S
C675 H661 0.929 . S
C675 C674 1.399 . S
C675 C676 1.385 . S
C676 H662 0.931 . S
C676 C675 1.385 . S
C676 C677 1.389 . S
C677 C676 1.389 . S
C677 C678 1.387 . S
C678 H663 0.930 . S
C678 C673 1.390 . S
C678 C677 1.387 . S
H679 C691 0.930 . S
H680 C693 0.930 . S
H681 C694 0.930 . S
H682 C698 0.959 . S
H683 C698 0.959 . S
H684 C698 0.961 . S
H685 C699 0.960 . S
H686 C699 0.961 . S
H687 C699 0.959 . S
H688 C702 0.929 . S
H689 C703 0.931 1_556 S
H690 C705 0.930 . S
C691 H679 0.930 . S
C691 C692 1.399 . S
C691 C696 1.399 . S
C692 C691 1.399 . S
C692 C693 1.376 . S
C693 H680 0.930 . S
C693 C692 1.376 . S
C693 C694 1.388 . S
C694 H681 0.930 . S
C694 C693 1.388 . S
C694 C695 1.390 . S
C695 C694 1.390 . S
C695 C696 1.394 . S
C695 C701 1.465 . S
C696 C691 1.399 . S
C696 C695 1.394 . S
C696 C697 1.516 . S
C697 C696 1.516 . S
C697 C698 1.502 . S
C697 C699 1.561 . S
C697 C700 1.526 . S
C698 H682 0.959 . S
C698 H683 0.959 . S
C698 H684 0.961 . S
C698 C697 1.502 . S
C699 H685 0.960 . S
C699 H686 0.961 . S
C699 H687 0.959 . S
C699 C697 1.561 . S
C700 C697 1.526 . S
C700 C701 1.396 . S
C700 C705 1.390 . S
C701 C695 1.465 . S
C701 C700 1.396 . S
C701 C702 1.399 . S
C702 H688 0.929 . S
C702 C701 1.399 . S
C702 C703 1.385 . S
C703 H689 0.931 1_554 S
C703 C702 1.385 . S
C703 C704 1.389 . S
C704 C703 1.389 . S
C704 C705 1.387 . S
C705 H690 0.930 . S
C705 C700 1.390 . S
C705 C704 1.387 . S
H706 C718 0.930 . S
H707 C720 0.930 . S
H708 C721 0.930 . S
H709 C725 0.959 . S
H710 C725 0.959 . S
H711 C725 0.961 . S
H712 C726 0.960 . S
H713 C726 0.961 . S
H714 C726 0.959 . S
H715 C729 0.929 . S
H716 C730 0.931 1_554 S
H717 C732 0.930 . S
C718 H706 0.930 . S
C718 C719 1.399 . S
C718 C723 1.399 . S
C719 C718 1.399 . S
C719 C720 1.376 . S
C720 H707 0.930 . S
C720 C719 1.376 . S
C720 C721 1.388 . S
C721 H708 0.930 . S
C721 C720 1.388 . S
C721 C722 1.390 . S
C722 C721 1.390 . S
C722 C723 1.394 . S
C722 C728 1.465 . S
C723 C718 1.399 . S
C723 C722 1.394 . S
C723 C724 1.516 . S
C724 C723 1.516 . S
C724 C725 1.502 . S
C724 C726 1.561 . S
C724 C727 1.526 . S
C725 H709 0.959 . S
C725 H710 0.959 . S
C725 H711 0.961 . S
C725 C724 1.502 . S
C726 H712 0.960 . S
C726 H713 0.961 . S
C726 H714 0.959 . S
C726 C724 1.561 . S
C727 C724 1.526 . S
C727 C728 1.396 . S
C727 C732 1.390 . S
C728 C722 1.465 . S
C728 C727 1.396 . S
C728 C729 1.399 . S
C729 H715 0.929 . S
C729 C728 1.399 . S
C729 C730 1.385 . S
C730 H716 0.931 1_556 S
C730 C729 1.385 . S
C730 C731 1.389 . S
C731 C730 1.389 . S
C731 C732 1.387 . S
C732 H717 0.930 . S
C732 C727 1.390 . S
C732 C731 1.387 . S
H733 C745 0.930 . S
H734 C747 0.930 . S
H735 C748 0.930 . S
H736 C752 0.959 . S
H737 C752 0.959 . S
H738 C752 0.961 . S
H739 C753 0.960 . S
H740 C753 0.961 . S
H741 C753 0.959 . S
H742 C756 0.929 . S
H743 C757 0.931 . S
H744 C759 0.930 . S
C745 H733 0.930 . S
C745 C746 1.399 . S
C745 C750 1.399 . S
C746 C745 1.399 . S
C746 C747 1.376 . S
C747 H734 0.930 . S
C747 C746 1.376 . S
C747 C748 1.388 . S
C748 H735 0.930 . S
C748 C747 1.388 . S
C748 C749 1.390 . S
C749 C748 1.390 . S
C749 C750 1.394 . S
C749 C755 1.465 . S
C750 C745 1.399 . S
C750 C749 1.394 . S
C750 C751 1.516 . S
C751 C750 1.516 . S
C751 C752 1.502 . S
C751 C753 1.561 . S
C751 C754 1.526 . S
C752 H736 0.959 . S
C752 H737 0.959 . S
C752 H738 0.961 . S
C752 C751 1.502 . S
C753 H739 0.960 . S
C753 H740 0.961 . S
C753 H741 0.959 . S
C753 C751 1.561 . S
C754 C751 1.526 . S
C754 C755 1.396 . S
C754 C759 1.390 . S
C755 C749 1.465 . S
C755 C754 1.396 . S
C755 C756 1.399 . S
C756 H742 0.929 . S
C756 C755 1.399 . S
C756 C757 1.385 . S
C757 H743 0.931 . S
C757 C756 1.385 . S
C757 C758 1.389 . S
C758 C757 1.389 . S
C758 C759 1.387 . S
C759 H744 0.930 . S
C759 C754 1.390 . S
C759 C758 1.387 . S
H760 C772 0.930 . S
H761 C774 0.930 . S
H762 C775 0.930 . S
H763 C779 0.959 . S
H764 C779 0.959 . S
H765 C779 0.961 . S
H766 C780 0.960 . S
H767 C780 0.961 . S
H768 C780 0.959 . S
H769 C783 0.929 1_554 S
H770 C784 0.931 1_554 S
H771 C786 0.930 . S
C772 H760 0.930 . S
C772 C773 1.399 . S
C772 C777 1.399 . S
C773 C772 1.399 . S
C773 C774 1.376 . S
C774 H761 0.930 . S
C774 C773 1.376 . S
C774 C775 1.388 . S
C775 H762 0.930 . S
C775 C774 1.388 . S
C775 C776 1.390 . S
C776 C775 1.390 . S
C776 C777 1.394 . S
C776 C782 1.465 . S
C777 C772 1.399 . S
C777 C776 1.394 . S
C777 C778 1.516 . S
C778 C777 1.516 . S
C778 C779 1.502 . S
C778 C780 1.561 . S
C778 C781 1.526 . S
C779 H763 0.959 . S
C779 H764 0.959 . S
C779 H765 0.961 . S
C779 C778 1.502 . S
C780 H766 0.960 . S
C780 H767 0.961 . S
C780 H768 0.959 . S
C780 C778 1.561 . S
C781 C778 1.526 . S
C781 C782 1.396 . S
C781 C786 1.390 . S
C782 C776 1.465 . S
C782 C781 1.396 . S
C782 C783 1.399 . S
C783 H769 0.929 1_556 S
C783 C782 1.399 . S
C783 C784 1.385 . S
C784 H770 0.931 1_556 S
C784 C783 1.385 . S
C784 C785 1.389 . S
C785 C784 1.389 . S
C785 C786 1.387 . S
C786 H771 0.930 . S
C786 C781 1.390 . S
C786 C785 1.387 . S
H787 C799 0.930 . S
H788 C801 0.930 . S
H789 C802 0.930 . S
H790 C806 0.959 . S
H791 C806 0.959 . S
H792 C806 0.961 . S
H793 C807 0.960 . S
H794 C807 0.961 . S
H795 C807 0.959 . S
H796 C810 0.929 . S
H797 C811 0.931 . S
H798 C813 0.930 . S
C799 H787 0.930 . S
C799 C800 1.399 . S
C799 C804 1.399 . S
C800 C799 1.399 . S
C800 C801 1.376 . S
C801 H788 0.930 . S
C801 C800 1.376 . S
C801 C802 1.388 . S
C802 H789 0.930 . S
C802 C801 1.388 . S
C802 C803 1.390 . S
C803 C802 1.390 . S
C803 C804 1.394 . S
C803 C809 1.465 . S
C804 C799 1.399 . S
C804 C803 1.394 . S
C804 C805 1.516 . S
C805 C804 1.516 . S
C805 C806 1.502 . S
C805 C807 1.561 . S
C805 C808 1.526 . S
C806 H790 0.959 . S
C806 H791 0.959 . S
C806 H792 0.961 . S
C806 C805 1.502 . S
C807 H793 0.960 . S
C807 H794 0.961 . S
C807 H795 0.959 . S
C807 C805 1.561 . S
C808 C805 1.526 . S
C808 C809 1.396 . S
C808 C813 1.390 . S
C809 C803 1.465 . S
C809 C808 1.396 . S
C809 C810 1.399 . S
C810 H796 0.929 . S
C810 C809 1.399 . S
C810 C811 1.385 . S
C811 H797 0.931 . S
C811 C810 1.385 . S
C811 C812 1.389 . S
C812 C811 1.389 . S
C812 C813 1.387 . S
C813 H798 0.930 . S
C813 C808 1.390 . S
C813 C812 1.387 . S
H814 C826 0.930 . S
H815 C828 0.930 . S
H816 C829 0.930 . S
H817 C833 0.959 . S
H818 C833 0.959 . S
H819 C833 0.961 . S
H820 C834 0.960 . S
H821 C834 0.961 . S
H822 C834 0.959 . S
H823 C837 0.929 . S
H824 C838 0.931 . S
H825 C840 0.930 . S
C826 H814 0.930 . S
C826 C827 1.399 . S
C826 C831 1.399 . S
C827 C826 1.399 . S
C827 C828 1.376 . S
C828 H815 0.930 . S
C828 C827 1.376 . S
C828 C829 1.388 . S
C829 H816 0.930 . S
C829 C828 1.388 . S
C829 C830 1.390 . S
C830 C829 1.390 . S
C830 C831 1.394 . S
C830 C836 1.465 . S
C831 C826 1.399 . S
C831 C830 1.394 . S
C831 C832 1.516 . S
C832 C831 1.516 . S
C832 C833 1.502 . S
C832 C834 1.561 . S
C832 C835 1.526 . S
C833 H817 0.959 . S
C833 H818 0.959 . S
C833 H819 0.961 . S
C833 C832 1.502 . S
C834 H820 0.960 . S
C834 H821 0.961 . S
C834 H822 0.959 . S
C834 C832 1.561 . S
C835 C832 1.526 . S
C835 C836 1.396 . S
C835 C840 1.390 . S
C836 C830 1.465 . S
C836 C835 1.396 . S
C836 C837 1.399 . S
C837 H823 0.929 . S
C837 C836 1.399 . S
C837 C838 1.385 . S
C838 H824 0.931 . S
C838 C837 1.385 . S
C838 C839 1.389 . S
C839 C838 1.389 . S
C839 C840 1.387 . S
C840 H825 0.930 . S
C840 C835 1.390 . S
C840 C839 1.387 . S
H841 C853 0.930 . S
H842 C855 0.930 . S
H843 C856 0.930 . S
H844 C860 0.959 . S
H845 C860 0.959 . S
H846 C860 0.961 . S
H847 C861 0.960 . S
H848 C861 0.961 . S
H849 C861 0.959 . S
H850 C864 0.929 . S
H851 C865 0.931 . S
H852 C867 0.930 . S
C853 H841 0.930 . S
C853 C854 1.399 . S
C853 C858 1.399 . S
C854 C853 1.399 . S
C854 C855 1.376 . S
C855 H842 0.930 . S
C855 C854 1.376 . S
C855 C856 1.388 . S
C856 H843 0.930 . S
C856 C855 1.388 . S
C856 C857 1.390 . S
C857 C856 1.390 . S
C857 C858 1.394 . S
C857 C863 1.465 . S
C858 C853 1.399 . S
C858 C857 1.394 . S
C858 C859 1.516 . S
C859 C858 1.516 . S
C859 C860 1.502 . S
C859 C861 1.561 . S
C859 C862 1.526 . S
C860 H844 0.959 . S
C860 H845 0.959 . S
C860 H846 0.961 . S
C860 C859 1.502 . S
C861 H847 0.960 . S
C861 H848 0.961 . S
C861 H849 0.959 . S
C861 C859 1.561 . S
C862 C859 1.526 . S
C862 C863 1.396 . S
C862 C867 1.390 . S
C863 C857 1.465 . S
C863 C862 1.396 . S
C863 C864 1.399 . S
C864 H850 0.929 . S
C864 C863 1.399 . S
C864 C865 1.385 . S
C865 H851 0.931 . S
C865 C864 1.385 . S
C865 C866 1.389 . S
C866 C865 1.389 . S
C866 C867 1.387 . S
C867 H852 0.930 . S
C867 C862 1.390 . S
C867 C866 1.387 . S
H868 C880 0.930 . S
H869 C882 0.930 . S
H870 C883 0.930 . S
H871 C887 0.959 . S
H872 C887 0.959 . S
H873 C887 0.961 . S
H874 C888 0.960 . S
H875 C888 0.961 . S
H876 C888 0.959 . S
H877 C891 0.929 . S
H878 C892 0.931 . S
H879 C894 0.930 . S
C880 H868 0.930 . S
C880 C881 1.399 . S
C880 C885 1.399 . S
C881 C880 1.399 . S
C881 C882 1.376 . S
C882 H869 0.930 . S
C882 C881 1.376 . S
C882 C883 1.388 . S
C883 H870 0.930 . S
C883 C882 1.388 . S
C883 C884 1.390 . S
C884 C883 1.390 . S
C884 C885 1.394 . S
C884 C890 1.465 . S
C885 C880 1.399 . S
C885 C884 1.394 . S
C885 C886 1.516 . S
C886 C885 1.516 . S
C886 C887 1.502 . S
C886 C888 1.561 . S
C886 C889 1.526 . S
C887 H871 0.959 . S
C887 H872 0.959 . S
C887 H873 0.961 . S
C887 C886 1.502 . S
C888 H874 0.960 . S
C888 H875 0.961 . S
C888 H876 0.959 . S
C888 C886 1.561 . S
C889 C886 1.526 . S
C889 C890 1.396 . S
C889 C894 1.390 . S
C890 C884 1.465 . S
C890 C889 1.396 . S
C890 C891 1.399 . S
C891 H877 0.929 . S
C891 C890 1.399 . S
C891 C892 1.385 . S
C892 H878 0.931 . S
C892 C891 1.385 . S
C892 C893 1.389 . S
C893 C892 1.389 . S
C893 C894 1.387 . S
C894 H879 0.930 . S
C894 C889 1.390 . S
C894 C893 1.387 . S
H895 C907 0.930 . S
H896 C909 0.930 . S
H897 C910 0.930 . S
H898 C914 0.959 . S
H899 C914 0.959 1_554 S
H900 C914 0.961 . S
H901 C915 0.960 . S
H902 C915 0.961 1_554 S
H903 C915 0.959 . S
H904 C918 0.929 . S
H905 C919 0.931 . S
H906 C921 0.930 . S
C907 H895 0.930 . S
C907 C908 1.399 . S
C907 C912 1.399 . S
C908 C907 1.399 . S
C908 C909 1.376 . S
C909 H896 0.930 . S
C909 C908 1.376 . S
C909 C910 1.388 . S
C910 H897 0.930 . S
C910 C909 1.388 . S
C910 C911 1.390 . S
C911 C910 1.390 . S
C911 C912 1.394 . S
C911 C917 1.465 . S
C912 C907 1.399 . S
C912 C911 1.394 . S
C912 C913 1.516 . S
C913 C912 1.516 . S
C913 C914 1.502 . S
C913 C915 1.561 . S
C913 C916 1.526 . S
C914 H898 0.959 . S
C914 H899 0.959 1_556 S
C914 H900 0.961 . S
C914 C913 1.502 . S
C915 H901 0.960 . S
C915 H902 0.961 1_556 S
C915 H903 0.959 . S
C915 C913 1.561 . S
C916 C913 1.526 . S
C916 C917 1.396 . S
C916 C921 1.390 . S
C917 C911 1.465 . S
C917 C916 1.396 . S
C917 C918 1.399 . S
C918 H904 0.929 . S
C918 C917 1.399 . S
C918 C919 1.385 . S
C919 H905 0.931 . S
C919 C918 1.385 . S
C919 C920 1.389 . S
C920 C919 1.389 . S
C920 C921 1.387 . S
C921 H906 0.930 . S
C921 C916 1.390 . S
C921 C920 1.387 . S
H922 C934 0.930 . S
H923 C936 0.930 . S
H924 C937 0.930 . S
H925 C941 0.959 . S
H926 C941 0.959 . S
H927 C941 0.961 . S
H928 C942 0.960 . S
H929 C942 0.961 . S
H930 C942 0.959 . S
H931 C945 0.929 . S
H932 C946 0.931 1_554 S
H933 C948 0.930 . S
C934 H922 0.930 . S
C934 C935 1.399 . S
C934 C939 1.399 . S
C935 C934 1.399 . S
C935 C936 1.376 . S
C936 H923 0.930 . S
C936 C935 1.376 . S
C936 C937 1.388 . S
C937 H924 0.930 . S
C937 C936 1.388 . S
C937 C938 1.390 . S
C938 C937 1.390 . S
C938 C939 1.394 . S
C938 C944 1.465 . S
C939 C934 1.399 . S
C939 C938 1.394 . S
C939 C940 1.516 . S
C940 C939 1.516 . S
C940 C941 1.502 . S
C940 C942 1.561 . S
C940 C943 1.526 . S
C941 H925 0.959 . S
C941 H926 0.959 . S
C941 H927 0.961 . S
C941 C940 1.502 . S
C942 H928 0.960 . S
C942 H929 0.961 . S
C942 H930 0.959 . S
C942 C940 1.561 . S
C943 C940 1.526 . S
C943 C944 1.396 . S
C943 C948 1.390 . S
C944 C938 1.465 . S
C944 C943 1.396 . S
C944 C945 1.399 . S
C945 H931 0.929 . S
C945 C944 1.399 . S
C945 C946 1.385 . S
C946 H932 0.931 1_556 S
C946 C945 1.385 . S
C946 C947 1.389 . S
C947 C946 1.389 . S
C947 C948 1.387 . S
C948 H933 0.930 . S
C948 C943 1.390 . S
C948 C947 1.387 . S
H949 C961 0.930 . S
H950 C963 0.930 . S
H951 C964 0.930 . S
H952 C968 0.959 . S
H953 C968 0.959 . S
H954 C968 0.961 . S
H955 C969 0.960 . S
H956 C969 0.961 . S
H957 C969 0.959 . S
H958 C972 0.929 . S
H959 C973 0.931 . S
H960 C975 0.930 . S
C961 H949 0.930 . S
C961 C962 1.399 . S
C961 C966 1.399 . S
C962 C961 1.399 . S
C962 C963 1.376 . S
C963 H950 0.930 . S
C963 C962 1.376 . S
C963 C964 1.388 . S
C964 H951 0.930 . S
C964 C963 1.388 . S
C964 C965 1.390 . S
C965 C964 1.390 . S
C965 C966 1.394 . S
C965 C971 1.465 . S
C966 C961 1.399 . S
C966 C965 1.394 . S
C966 C967 1.516 . S
C967 C966 1.516 . S
C967 C968 1.502 . S
C967 C969 1.561 . S
C967 C970 1.526 . S
C968 H952 0.959 . S
C968 H953 0.959 . S
C968 H954 0.961 . S
C968 C967 1.502 . S
C969 H955 0.960 . S
C969 H956 0.961 . S
C969 H957 0.959 . S
C969 C967 1.561 . S
C970 C967 1.526 . S
C970 C971 1.396 . S
C970 C975 1.390 . S
C971 C965 1.465 . S
C971 C970 1.396 . S
C971 C972 1.399 . S
C972 H958 0.929 . S
C972 C971 1.399 . S
C972 C973 1.385 . S
C973 H959 0.931 . S
C973 C972 1.385 . S
C973 C974 1.389 . S
C974 C973 1.389 . S
C974 C975 1.387 . S
C975 H960 0.930 . S
C975 C970 1.390 . S
C975 C974 1.387 . S
H976 C988 0.930 . S
H977 C990 0.930 . S
H978 C991 0.930 . S
H979 C995 0.959 . S
H980 C995 0.959 . S
H981 C995 0.961 . S
H982 C996 0.960 . S
H983 C996 0.961 . S
H984 C996 0.959 . S
H985 C999 0.929 . S
H986 C1000 0.931 . S
H987 C1002 0.930 . S
C988 H976 0.930 . S
C988 C989 1.399 . S
C988 C993 1.399 . S
C989 C988 1.399 . S
C989 C990 1.376 . S
C990 H977 0.930 . S
C990 C989 1.376 . S
C990 C991 1.388 . S
C991 H978 0.930 . S
C991 C990 1.388 . S
C991 C992 1.390 . S
C992 C991 1.390 . S
C992 C993 1.394 . S
C992 C998 1.465 . S
C993 C988 1.399 . S
C993 C992 1.394 . S
C993 C994 1.516 . S
C994 C993 1.516 . S
C994 C995 1.502 . S
C994 C996 1.561 . S
C994 C997 1.526 . S
C995 H979 0.959 . S
C995 H980 0.959 . S
C995 H981 0.961 . S
C995 C994 1.502 . S
C996 H982 0.960 . S
C996 H983 0.961 . S
C996 H984 0.959 . S
C996 C994 1.561 . S
C997 C994 1.526 . S
C997 C998 1.396 . S
C997 C1002 1.390 . S
C998 C992 1.465 . S
C998 C997 1.396 . S
C998 C999 1.399 . S
C999 H985 0.929 . S
C999 C998 1.399 . S
C999 C1000 1.385 . S
C1000 H986 0.931 . S
C1000 C999 1.385 . S
C1000 C1001 1.389 . S
C1001 C1000 1.389 . S
C1001 C1002 1.387 . S
C1002 H987 0.930 . S
C1002 C997 1.390 . S
C1002 C1001 1.387 . S
H1003 C1015 0.930 . S
H1004 C1017 0.930 . S
H1005 C1018 0.930 . S
H1006 C1022 0.959 . S
H1007 C1022 0.959 . S
H1008 C1022 0.961 . S
H1009 C1023 0.960 . S
H1010 C1023 0.961 . S
H1011 C1023 0.959 . S
H1012 C1026 0.929 . S
H1013 C1027 0.931 . S
H1014 C1029 0.930 . S
C1015 H1003 0.930 . S
C1015 C1016 1.399 . S
C1015 C1020 1.399 . S
C1016 C1015 1.399 . S
C1016 C1017 1.376 . S
C1017 H1004 0.930 . S
C1017 C1016 1.376 . S
C1017 C1018 1.388 . S
C1018 H1005 0.930 . S
C1018 C1017 1.388 . S
C1018 C1019 1.390 . S
C1019 C1018 1.390 . S
C1019 C1020 1.394 . S
C1019 C1025 1.465 . S
C1020 C1015 1.399 . S
C1020 C1019 1.394 . S
C1020 C1021 1.516 . S
C1021 C1020 1.516 . S
C1021 C1022 1.502 . S
C1021 C1023 1.561 . S
C1021 C1024 1.526 . S
C1022 H1006 0.959 . S
C1022 H1007 0.959 . S
C1022 H1008 0.961 . S
C1022 C1021 1.502 . S
C1023 H1009 0.960 . S
C1023 H1010 0.961 . S
C1023 H1011 0.959 . S
C1023 C1021 1.561 . S
C1024 C1021 1.526 . S
C1024 C1025 1.396 . S
C1024 C1029 1.390 . S
C1025 C1019 1.465 . S
C1025 C1024 1.396 . S
C1025 C1026 1.399 . S
C1026 H1012 0.929 . S
C1026 C1025 1.399 . S
C1026 C1027 1.385 . S
C1027 H1013 0.931 . S
C1027 C1026 1.385 . S
C1027 C1028 1.389 . S
C1028 C1027 1.389 . S
C1028 C1029 1.387 . S
C1029 H1014 0.930 . S
C1029 C1024 1.390 . S
C1029 C1028 1.387 . S
H1030 C1042 0.930 . S
H1031 C1044 0.930 . S
H1032 C1045 0.930 . S
H1033 C1049 0.959 . S
H1034 C1049 0.959 . S
H1035 C1049 0.961 . S
H1036 C1050 0.960 . S
H1037 C1050 0.961 . S
H1038 C1050 0.959 . S
H1039 C1053 0.929 . S
H1040 C1054 0.931 . S
H1041 C1056 0.930 . S
C1042 H1030 0.930 . S
C1042 C1043 1.399 . S
C1042 C1047 1.399 . S
C1043 C1042 1.399 . S
C1043 C1044 1.376 . S
C1044 H1031 0.930 . S
C1044 C1043 1.376 . S
C1044 C1045 1.388 . S
C1045 H1032 0.930 . S
C1045 C1044 1.388 . S
C1045 C1046 1.390 . S
C1046 C1045 1.390 . S
C1046 C1047 1.394 . S
C1046 C1052 1.465 . S
C1047 C1042 1.399 . S
C1047 C1046 1.394 . S
C1047 C1048 1.516 . S
C1048 C1047 1.516 . S
C1048 C1049 1.502 . S
C1048 C1050 1.561 . S
C1048 C1051 1.526 . S
C1049 H1033 0.959 . S
C1049 H1034 0.959 . S
C1049 H1035 0.961 . S
C1049 C1048 1.502 . S
C1050 H1036 0.960 . S
C1050 H1037 0.961 . S
C1050 H1038 0.959 . S
C1050 C1048 1.561 . S
C1051 C1048 1.526 . S
C1051 C1052 1.396 . S
C1051 C1056 1.390 . S
C1052 C1046 1.465 . S
C1052 C1051 1.396 . S
C1052 C1053 1.399 . S
C1053 H1039 0.929 . S
C1053 C1052 1.399 . S
C1053 C1054 1.385 . S
C1054 H1040 0.931 . S
C1054 C1053 1.385 . S
C1054 C1055 1.389 . S
C1055 C1054 1.389 . S
C1055 C1056 1.387 . S
C1056 H1041 0.930 . S
C1056 C1051 1.390 . S
C1056 C1055 1.387 . S
H1057 C1069 0.930 . S
H1058 C1071 0.930 . S
H1059 C1072 0.930 . S
H1060 C1076 0.959 . S
H1061 C1076 0.959 . S
H1062 C1076 0.961 . S
H1063 C1077 0.960 . S
H1064 C1077 0.961 . S
H1065 C1077 0.959 . S
H1066 C1080 0.929 . S
H1067 C1081 0.931 . S
H1068 C1083 0.930 . S
C1069 H1057 0.930 . S
C1069 C1070 1.399 . S
C1069 C1074 1.399 . S
C1070 C1069 1.399 . S
C1070 C1071 1.376 . S
C1071 H1058 0.930 . S
C1071 C1070 1.376 . S
C1071 C1072 1.388 . S
C1072 H1059 0.930 . S
C1072 C1071 1.388 . S
C1072 C1073 1.390 . S
C1073 C1072 1.390 . S
C1073 C1074 1.394 . S
C1073 C1079 1.465 . S
C1074 C1069 1.399 . S
C1074 C1073 1.394 . S
C1074 C1075 1.516 . S
C1075 C1074 1.516 . S
C1075 C1076 1.502 . S
C1075 C1077 1.561 . S
C1075 C1078 1.526 . S
C1076 H1060 0.959 . S
C1076 H1061 0.959 . S
C1076 H1062 0.961 . S
C1076 C1075 1.502 . S
C1077 H1063 0.960 . S
C1077 H1064 0.961 . S
C1077 H1065 0.959 . S
C1077 C1075 1.561 . S
C1078 C1075 1.526 . S
C1078 C1079 1.396 . S
C1078 C1083 1.390 . S
C1079 C1073 1.465 . S
C1079 C1078 1.396 . S
C1079 C1080 1.399 . S
C1080 H1066 0.929 . S
C1080 C1079 1.399 . S
C1080 C1081 1.385 . S
C1081 H1067 0.931 . S
C1081 C1080 1.385 . S
C1081 C1082 1.389 . S
C1082 C1081 1.389 . S
C1082 C1083 1.387 . S
C1083 H1068 0.930 . S
C1083 C1078 1.390 . S
C1083 C1082 1.387 . S
H1084 C1096 0.930 . S
H1085 C1098 0.930 . S
H1086 C1099 0.930 . S
H1087 C1103 0.959 . S
H1088 C1103 0.959 . S
H1089 C1103 0.961 . S
H1090 C1104 0.960 . S
H1091 C1104 0.961 . S
H1092 C1104 0.959 . S
H1093 C1107 0.929 . S
H1094 C1108 0.931 . S
H1095 C1110 0.930 . S
C1096 H1084 0.930 . S
C1096 C1097 1.399 . S
C1096 C1101 1.399 . S
C1097 C1096 1.399 . S
C1097 C1098 1.376 . S
C1098 H1085 0.930 . S
C1098 C1097 1.376 . S
C1098 C1099 1.388 . S
C1099 H1086 0.930 . S
C1099 C1098 1.388 . S
C1099 C1100 1.390 . S
C1100 C1099 1.390 . S
C1100 C1101 1.394 . S
C1100 C1106 1.465 . S
C1101 C1096 1.399 . S
C1101 C1100 1.394 . S
C1101 C1102 1.516 . S
C1102 C1101 1.516 . S
C1102 C1103 1.502 . S
C1102 C1104 1.561 . S
C1102 C1105 1.526 . S
C1103 H1087 0.959 . S
C1103 H1088 0.959 . S
C1103 H1089 0.961 . S
C1103 C1102 1.502 . S
C1104 H1090 0.960 . S
C1104 H1091 0.961 . S
C1104 H1092 0.959 . S
C1104 C1102 1.561 . S
C1105 C1102 1.526 . S
C1105 C1106 1.396 . S
C1105 C1110 1.390 . S
C1106 C1100 1.465 . S
C1106 C1105 1.396 . S
C1106 C1107 1.399 . S
C1107 H1093 0.929 . S
C1107 C1106 1.399 . S
C1107 C1108 1.385 . S
C1108 H1094 0.931 . S
C1108 C1107 1.385 . S
C1108 C1109 1.389 . S
C1109 C1108 1.389 . S
C1109 C1110 1.387 . S
C1110 H1095 0.930 . S
C1110 C1105 1.390 . S
C1110 C1109 1.387 . S
H1111 C1123 0.930 . S
H1112 C1125 0.930 . S
H1113 C1126 0.930 . S
H1114 C1130 0.959 . S
H1115 C1130 0.959 . S
H1116 C1130 0.961 . S
H1117 C1131 0.960 . S
H1118 C1131 0.961 . S
H1119 C1131 0.959 . S
H1120 C1134 0.929 . S
H1121 C1135 0.931 . S
H1122 C1137 0.930 . S
C1123 H1111 0.930 . S
C1123 C1124 1.399 . S
C1123 C1128 1.399 . S
C1124 C1123 1.399 . S
C1124 C1125 1.376 . S
C1125 H1112 0.930 . S
C1125 C1124 1.376 . S
C1125 C1126 1.388 . S
C1126 H1113 0.930 . S
C1126 C1125 1.388 . S
C1126 C1127 1.390 . S
C1127 C1126 1.390 . S
C1127 C1128 1.394 . S
C1127 C1133 1.465 . S
C1128 C1123 1.399 . S
C1128 C1127 1.394 . S
C1128 C1129 1.516 . S
C1129 C1128 1.516 . S
C1129 C1130 1.502 . S
C1129 C1131 1.561 . S
C1129 C1132 1.526 . S
C1130 H1114 0.959 . S
C1130 H1115 0.959 . S
C1130 H1116 0.961 . S
C1130 C1129 1.502 . S
C1131 H1117 0.960 . S
C1131 H1118 0.961 . S
C1131 H1119 0.959 . S
C1131 C1129 1.561 . S
C1132 C1129 1.526 . S
C1132 C1133 1.396 . S
C1132 C1137 1.390 . S
C1133 C1127 1.465 . S
C1133 C1132 1.396 . S
C1133 C1134 1.399 . S
C1134 H1120 0.929 . S
C1134 C1133 1.399 . S
C1134 C1135 1.385 . S
C1135 H1121 0.931 . S
C1135 C1134 1.385 . S
C1135 C1136 1.389 . S
C1136 C1135 1.389 . S
C1136 C1137 1.387 . S
C1137 H1122 0.930 . S
C1137 C1132 1.390 . S
C1137 C1136 1.387 . S
H1138 C1150 0.930 . S
H1139 C1152 0.930 . S
H1140 C1153 0.930 . S
H1141 C1157 0.959 . S
H1142 C1157 0.959 . S
H1143 C1157 0.961 . S
H1144 C1158 0.960 . S
H1145 C1158 0.961 . S
H1146 C1158 0.959 . S
H1147 C1161 0.929 . S
H1148 C1162 0.931 . S
H1149 C1164 0.930 . S
C1150 H1138 0.930 . S
C1150 C1151 1.399 . S
C1150 C1155 1.399 . S
C1151 C1150 1.399 . S
C1151 C1152 1.376 . S
C1152 H1139 0.930 . S
C1152 C1151 1.376 . S
C1152 C1153 1.388 . S
C1153 H1140 0.930 . S
C1153 C1152 1.388 . S
C1153 C1154 1.390 . S
C1154 C1153 1.390 . S
C1154 C1155 1.394 . S
C1154 C1160 1.465 . S
C1155 C1150 1.399 . S
C1155 C1154 1.394 . S
C1155 C1156 1.516 . S
C1156 C1155 1.516 . S
C1156 C1157 1.502 . S
C1156 C1158 1.561 . S
C1156 C1159 1.526 . S
C1157 H1141 0.959 . S
C1157 H1142 0.959 . S
C1157 H1143 0.961 . S
C1157 C1156 1.502 . S
C1158 H1144 0.960 . S
C1158 H1145 0.961 . S
C1158 H1146 0.959 . S
C1158 C1156 1.561 . S
C1159 C1156 1.526 . S
C1159 C1160 1.396 . S
C1159 C1164 1.390 . S
C1160 C1154 1.465 . S
C1160 C1159 1.396 . S
C1160 C1161 1.399 . S
C1161 H1147 0.929 . S
C1161 C1160 1.399 . S
C1161 C1162 1.385 . S
C1162 H1148 0.931 . S
C1162 C1161 1.385 . S
C1162 C1163 1.389 . S
C1163 C1162 1.389 . S
C1163 C1164 1.387 . S
C1164 H1149 0.930 . S
C1164 C1159 1.390 . S
C1164 C1163 1.387 . S
H1165 C1177 0.930 . S
H1166 C1179 0.930 . S
H1167 C1180 0.930 . S
H1168 C1184 0.959 . S
H1169 C1184 0.959 . S
H1170 C1184 0.961 . S
H1171 C1185 0.960 . S
H1172 C1185 0.961 . S
H1173 C1185 0.959 . S
H1174 C1188 0.929 . S
H1175 C1189 0.931 . S
H1176 C1191 0.930 . S
C1177 H1165 0.930 . S
C1177 C1178 1.399 . S
C1177 C1182 1.399 . S
C1178 C1177 1.399 . S
C1178 C1179 1.376 . S
C1179 H1166 0.930 . S
C1179 C1178 1.376 . S
C1179 C1180 1.388 . S
C1180 H1167 0.930 . S
C1180 C1179 1.388 . S
C1180 C1181 1.390 . S
C1181 C1180 1.390 . S
C1181 C1182 1.394 . S
C1181 C1187 1.465 . S
C1182 C1177 1.399 . S
C1182 C1181 1.394 . S
C1182 C1183 1.516 . S
C1183 C1182 1.516 . S
C1183 C1184 1.502 . S
C1183 C1185 1.561 . S
C1183 C1186 1.526 . S
C1184 H1168 0.959 . S
C1184 H1169 0.959 . S
C1184 H1170 0.961 . S
C1184 C1183 1.502 . S
C1185 H1171 0.960 . S
C1185 H1172 0.961 . S
C1185 H1173 0.959 . S
C1185 C1183 1.561 . S
C1186 C1183 1.526 . S
C1186 C1187 1.396 . S
C1186 C1191 1.390 . S
C1187 C1181 1.465 . S
C1187 C1186 1.396 . S
C1187 C1188 1.399 . S
C1188 H1174 0.929 . S
C1188 C1187 1.399 . S
C1188 C1189 1.385 . S
C1189 H1175 0.931 . S
C1189 C1188 1.385 . S
C1189 C1190 1.389 . S
C1190 C1189 1.389 . S
C1190 C1191 1.387 . S
C1191 H1176 0.930 . S
C1191 C1186 1.390 . S
C1191 C1190 1.387 . S
H1192 C1204 0.930 . S
H1193 C1206 0.930 . S
H1194 C1207 0.930 . S
H1195 C1211 0.959 . S
H1196 C1211 0.959 . S
H1197 C1211 0.961 . S
H1198 C1212 0.960 . S
H1199 C1212 0.961 . S
H1200 C1212 0.959 . S
H1201 C1215 0.929 . S
H1202 C1216 0.931 . S
H1203 C1218 0.930 . S
C1204 H1192 0.930 . S
C1204 C1205 1.399 . S
C1204 C1209 1.399 . S
C1205 C1204 1.399 . S
C1205 C1206 1.376 . S
C1206 H1193 0.930 . S
C1206 C1205 1.376 . S
C1206 C1207 1.388 . S
C1207 H1194 0.930 . S
C1207 C1206 1.388 . S
C1207 C1208 1.390 . S
C1208 C1207 1.390 . S
C1208 C1209 1.394 . S
C1208 C1214 1.465 . S
C1209 C1204 1.399 . S
C1209 C1208 1.394 . S
C1209 C1210 1.516 . S
C1210 C1209 1.516 . S
C1210 C1211 1.502 . S
C1210 C1212 1.561 . S
C1210 C1213 1.526 . S
C1211 H1195 0.959 . S
C1211 H1196 0.959 . S
C1211 H1197 0.961 . S
C1211 C1210 1.502 . S
C1212 H1198 0.960 . S
C1212 H1199 0.961 . S
C1212 H1200 0.959 . S
C1212 C1210 1.561 . S
C1213 C1210 1.526 . S
C1213 C1214 1.396 . S
C1213 C1218 1.390 . S
C1214 C1208 1.465 . S
C1214 C1213 1.396 . S
C1214 C1215 1.399 . S
C1215 H1201 0.929 . S
C1215 C1214 1.399 . S
C1215 C1216 1.385 . S
C1216 H1202 0.931 . S
C1216 C1215 1.385 . S
C1216 C1217 1.389 . S
C1217 C1216 1.389 . S
C1217 C1218 1.387 . S
C1218 H1203 0.930 . S
C1218 C1213 1.390 . S
C1218 C1217 1.387 . S
H1219 C1231 0.930 . S
H1220 C1233 0.930 . S
H1221 C1234 0.930 . S
H1222 C1238 0.959 . S
H1223 C1238 0.959 . S
H1224 C1238 0.961 . S
H1225 C1239 0.960 . S
H1226 C1239 0.961 . S
H1227 C1239 0.959 . S
H1228 C1242 0.929 . S
H1229 C1243 0.931 . S
H1230 C1245 0.930 . S
C1231 H1219 0.930 . S
C1231 C1232 1.399 . S
C1231 C1236 1.399 . S
C1232 C1231 1.399 . S
C1232 C1233 1.376 . S
C1233 H1220 0.930 . S
C1233 C1232 1.376 . S
C1233 C1234 1.388 . S
C1234 H1221 0.930 . S
C1234 C1233 1.388 . S
C1234 C1235 1.390 . S
C1235 C1234 1.390 . S
C1235 C1236 1.394 . S
C1235 C1241 1.465 . S
C1236 C1231 1.399 . S
C1236 C1235 1.394 . S
C1236 C1237 1.516 . S
C1237 C1236 1.516 . S
C1237 C1238 1.502 . S
C1237 C1239 1.561 . S
C1237 C1240 1.526 . S
C1238 H1222 0.959 . S
C1238 H1223 0.959 . S
C1238 H1224 0.961 . S
C1238 C1237 1.502 . S
C1239 H1225 0.960 . S
C1239 H1226 0.961 . S
C1239 H1227 0.959 . S
C1239 C1237 1.561 . S
C1240 C1237 1.526 . S
C1240 C1241 1.396 . S
C1240 C1245 1.390 . S
C1241 C1235 1.465 . S
C1241 C1240 1.396 . S
C1241 C1242 1.399 . S
C1242 H1228 0.929 . S
C1242 C1241 1.399 . S
C1242 C1243 1.385 . S
C1243 H1229 0.931 . S
C1243 C1242 1.385 . S
C1243 C1244 1.389 . S
C1244 C1243 1.389 . S
C1244 C1245 1.387 . S
C1245 H1230 0.930 . S
C1245 C1240 1.390 . S
C1245 C1244 1.387 . S
H1246 C1258 0.930 . S
H1247 C1260 0.930 . S
H1248 C1261 0.930 . S
H1249 C1265 0.959 . S
H1250 C1265 0.959 . S
H1251 C1265 0.961 . S
H1252 C1266 0.960 . S
H1253 C1266 0.961 . S
H1254 C1266 0.959 . S
H1255 C1269 0.929 . S
H1256 C1270 0.931 . S
H1257 C1272 0.930 . S
C1258 H1246 0.930 . S
C1258 C1259 1.399 . S
C1258 C1263 1.399 . S
C1259 C1258 1.399 . S
C1259 C1260 1.376 . S
C1260 H1247 0.930 . S
C1260 C1259 1.376 . S
C1260 C1261 1.388 . S
C1261 H1248 0.930 . S
C1261 C1260 1.388 . S
C1261 C1262 1.390 . S
C1262 C1261 1.390 . S
C1262 C1263 1.394 . S
C1262 C1268 1.465 . S
C1263 C1258 1.399 . S
C1263 C1262 1.394 . S
C1263 C1264 1.516 . S
C1264 C1263 1.516 . S
C1264 C1265 1.502 . S
C1264 C1266 1.561 . S
C1264 C1267 1.526 . S
C1265 H1249 0.959 . S
C1265 H1250 0.959 . S
C1265 H1251 0.961 . S
C1265 C1264 1.502 . S
C1266 H1252 0.960 . S
C1266 H1253 0.961 . S
C1266 H1254 0.959 . S
C1266 C1264 1.561 . S
C1267 C1264 1.526 . S
C1267 C1268 1.396 . S
C1267 C1272 1.390 . S
C1268 C1262 1.465 . S
C1268 C1267 1.396 . S
C1268 C1269 1.399 . S
C1269 H1255 0.929 . S
C1269 C1268 1.399 . S
C1269 C1270 1.385 . S
C1270 H1256 0.931 . S
C1270 C1269 1.385 . S
C1270 C1271 1.389 . S
C1271 C1270 1.389 . S
C1271 C1272 1.387 . S
C1272 H1257 0.930 . S
C1272 C1267 1.390 . S
C1272 C1271 1.387 . S
H1273 C1285 0.930 . S
H1274 C1287 0.930 . S
H1275 C1288 0.930 . S
H1276 C1292 0.959 . S
H1277 C1292 0.959 . S
H1278 C1292 0.961 . S
H1279 C1293 0.960 . S
H1280 C1293 0.961 . S
H1281 C1293 0.959 . S
H1282 C1296 0.929 . S
H1283 C1297 0.931 . S
H1284 C1299 0.930 . S
C1285 H1273 0.930 . S
C1285 C1286 1.399 . S
C1285 C1290 1.399 . S
C1286 C1285 1.399 . S
C1286 C1287 1.376 . S
C1287 H1274 0.930 . S
C1287 C1286 1.376 . S
C1287 C1288 1.388 . S
C1288 H1275 0.930 . S
C1288 C1287 1.388 . S
C1288 C1289 1.390 . S
C1289 C1288 1.390 . S
C1289 C1290 1.394 . S
C1289 C1295 1.465 . S
C1290 C1285 1.399 . S
C1290 C1289 1.394 . S
C1290 C1291 1.516 . S
C1291 C1290 1.516 . S
C1291 C1292 1.502 . S
C1291 C1293 1.561 . S
C1291 C1294 1.526 . S
C1292 H1276 0.959 . S
C1292 H1277 0.959 . S
C1292 H1278 0.961 . S
C1292 C1291 1.502 . S
C1293 H1279 0.960 . S
C1293 H1280 0.961 . S
C1293 H1281 0.959 . S
C1293 C1291 1.561 . S
C1294 C1291 1.526 . S
C1294 C1295 1.396 . S
C1294 C1299 1.390 . S
C1295 C1289 1.465 . S
C1295 C1294 1.396 . S
C1295 C1296 1.399 . S
C1296 H1282 0.929 . S
C1296 C1295 1.399 . S
C1296 C1297 1.385 . S
C1297 H1283 0.931 . S
C1297 C1296 1.385 . S
C1297 C1298 1.389 . S
C1298 C1297 1.389 . S
C1298 C1299 1.387 . S
C1299 H1284 0.930 . S
C1299 C1294 1.390 . S
C1299 C1298 1.387 . S
H1300 C1312 0.930 . S
H1301 C1314 0.930 . S
H1302 C1315 0.930 . S
H1303 C1319 0.959 . S
H1304 C1319 0.959 . S
H1305 C1319 0.961 . S
H1306 C1320 0.960 . S
H1307 C1320 0.961 . S
H1308 C1320 0.959 . S
H1309 C1323 0.929 . S
H1310 C1324 0.931 . S
H1311 C1326 0.930 . S
C1312 H1300 0.930 . S
C1312 C1313 1.399 . S
C1312 C1317 1.399 . S
C1313 C1312 1.399 . S
C1313 C1314 1.376 . S
C1314 H1301 0.930 . S
C1314 C1313 1.376 . S
C1314 C1315 1.388 . S
C1315 H1302 0.930 . S
C1315 C1314 1.388 . S
C1315 C1316 1.390 . S
C1316 C1315 1.390 . S
C1316 C1317 1.394 . S
C1316 C1322 1.465 . S
C1317 C1312 1.399 . S
C1317 C1316 1.394 . S
C1317 C1318 1.516 . S
C1318 C1317 1.516 . S
C1318 C1319 1.502 . S
C1318 C1320 1.561 . S
C1318 C1321 1.526 . S
C1319 H1303 0.959 . S
C1319 H1304 0.959 . S
C1319 H1305 0.961 . S
C1319 C1318 1.502 . S
C1320 H1306 0.960 . S
C1320 H1307 0.961 . S
C1320 H1308 0.959 . S
C1320 C1318 1.561 . S
C1321 C1318 1.526 . S
C1321 C1322 1.396 . S
C1321 C1326 1.390 . S
C1322 C1316 1.465 . S
C1322 C1321 1.396 . S
C1322 C1323 1.399 . S
C1323 H1309 0.929 . S
C1323 C1322 1.399 . S
C1323 C1324 1.385 . S
C1324 H1310 0.931 . S
C1324 C1323 1.385 . S
C1324 C1325 1.389 . S
C1325 C1324 1.389 . S
C1325 C1326 1.387 . S
C1326 H1311 0.930 . S
C1326 C1321 1.390 . S
C1326 C1325 1.387 . S
H1327 C1339 0.930 . S
H1328 C1341 0.930 . S
H1329 C1342 0.930 . S
H1330 C1346 0.959 . S
H1331 C1346 0.959 . S
H1332 C1346 0.961 . S
H1333 C1347 0.960 . S
H1334 C1347 0.961 . S
H1335 C1347 0.959 . S
H1336 C1350 0.929 . S
H1337 C1351 0.931 . S
H1338 C1353 0.930 . S
C1339 H1327 0.930 . S
C1339 C1340 1.399 . S
C1339 C1344 1.399 . S
C1340 C1339 1.399 . S
C1340 C1341 1.376 . S
C1341 H1328 0.930 . S
C1341 C1340 1.376 . S
C1341 C1342 1.388 . S
C1342 H1329 0.930 . S
C1342 C1341 1.388 . S
C1342 C1343 1.390 . S
C1343 C1342 1.390 . S
C1343 C1344 1.394 . S
C1343 C1349 1.465 . S
C1344 C1339 1.399 . S
C1344 C1343 1.394 . S
C1344 C1345 1.516 . S
C1345 C1344 1.516 . S
C1345 C1346 1.502 . S
C1345 C1347 1.561 . S
C1345 C1348 1.526 . S
C1346 H1330 0.959 . S
C1346 H1331 0.959 . S
C1346 H1332 0.961 . S
C1346 C1345 1.502 . S
C1347 H1333 0.960 . S
C1347 H1334 0.961 . S
C1347 H1335 0.959 . S
C1347 C1345 1.561 . S
C1348 C1345 1.526 . S
C1348 C1349 1.396 . S
C1348 C1353 1.390 . S
C1349 C1343 1.465 . S
C1349 C1348 1.396 . S
C1349 C1350 1.399 . S
C1350 H1336 0.929 . S
C1350 C1349 1.399 . S
C1350 C1351 1.385 . S
C1351 H1337 0.931 . S
C1351 C1350 1.385 . S
C1351 C1352 1.389 . S
C1352 C1351 1.389 . S
C1352 C1353 1.387 . S
C1353 H1338 0.930 . S
C1353 C1348 1.390 . S
C1353 C1352 1.387 . S
H1354 C1366 0.930 . S
H1355 C1368 0.930 . S
H1356 C1369 0.930 . S
H1357 C1373 0.959 . S
H1358 C1373 0.959 . S
H1359 C1373 0.961 . S
H1360 C1374 0.960 . S
H1361 C1374 0.961 . S
H1362 C1374 0.959 . S
H1363 C1377 0.929 . S
H1364 C1378 0.931 . S
H1365 C1380 0.930 . S
C1366 H1354 0.930 . S
C1366 C1367 1.399 . S
C1366 C1371 1.399 . S
C1367 C1366 1.399 . S
C1367 C1368 1.376 . S
C1368 H1355 0.930 . S
C1368 C1367 1.376 . S
C1368 C1369 1.388 . S
C1369 H1356 0.930 . S
C1369 C1368 1.388 . S
C1369 C1370 1.390 . S
C1370 C1369 1.390 . S
C1370 C1371 1.394 . S
C1370 C1376 1.465 . S
C1371 C1366 1.399 . S
C1371 C1370 1.394 . S
C1371 C1372 1.516 . S
C1372 C1371 1.516 . S
C1372 C1373 1.502 . S
C1372 C1374 1.561 . S
C1372 C1375 1.526 . S
C1373 H1357 0.959 . S
C1373 H1358 0.959 . S
C1373 H1359 0.961 . S
C1373 C1372 1.502 . S
C1374 H1360 0.960 . S
C1374 H1361 0.961 . S
C1374 H1362 0.959 . S
C1374 C1372 1.561 . S
C1375 C1372 1.526 . S
C1375 C1376 1.396 . S
C1375 C1380 1.390 . S
C1376 C1370 1.465 . S
C1376 C1375 1.396 . S
C1376 C1377 1.399 . S
C1377 H1363 0.929 . S
C1377 C1376 1.399 . S
C1377 C1378 1.385 . S
C1378 H1364 0.931 . S
C1378 C1377 1.385 . S
C1378 C1379 1.389 . S
C1379 C1378 1.389 . S
C1379 C1380 1.387 . S
C1380 H1365 0.930 . S
C1380 C1375 1.390 . S
C1380 C1379 1.387 . S
H1381 C1393 0.930 . S
H1382 C1395 0.930 . S
H1383 C1396 0.930 . S
H1384 C1400 0.959 . S
H1385 C1400 0.959 . S
H1386 C1400 0.961 . S
H1387 C1401 0.960 . S
H1388 C1401 0.961 . S
H1389 C1401 0.959 . S
H1390 C1404 0.929 . S
H1391 C1405 0.931 . S
H1392 C1407 0.930 . S
C1393 H1381 0.930 . S
C1393 C1394 1.399 . S
C1393 C1398 1.399 . S
C1394 C1393 1.399 . S
C1394 C1395 1.376 . S
C1395 H1382 0.930 . S
C1395 C1394 1.376 . S
C1395 C1396 1.388 . S
C1396 H1383 0.930 . S
C1396 C1395 1.388 . S
C1396 C1397 1.390 . S
C1397 C1396 1.390 . S
C1397 C1398 1.394 . S
C1397 C1403 1.465 . S
C1398 C1393 1.399 . S
C1398 C1397 1.394 . S
C1398 C1399 1.516 . S
C1399 C1398 1.516 . S
C1399 C1400 1.502 . S
C1399 C1401 1.561 . S
C1399 C1402 1.526 . S
C1400 H1384 0.959 . S
C1400 H1385 0.959 . S
C1400 H1386 0.961 . S
C1400 C1399 1.502 . S
C1401 H1387 0.960 . S
C1401 H1388 0.961 . S
C1401 H1389 0.959 . S
C1401 C1399 1.561 . S
C1402 C1399 1.526 . S
C1402 C1403 1.396 . S
C1402 C1407 1.390 . S
C1403 C1397 1.465 . S
C1403 C1402 1.396 . S
C1403 C1404 1.399 . S
C1404 H1390 0.929 . S
C1404 C1403 1.399 . S
C1404 C1405 1.385 . S
C1405 H1391 0.931 . S
C1405 C1404 1.385 . S
C1405 C1406 1.389 . S
C1406 C1405 1.389 . S
C1406 C1407 1.387 . S
C1407 H1392 0.930 . S
C1407 C1402 1.390 . S
C1407 C1406 1.387 . S
H1408 C1420 0.930 . S
H1409 C1422 0.930 . S
H1410 C1423 0.930 . S
H1411 C1427 0.959 . S
H1412 C1427 0.959 . S
H1413 C1427 0.961 . S
H1414 C1428 0.960 . S
H1415 C1428 0.961 . S
H1416 C1428 0.959 . S
H1417 C1431 0.929 . S
H1418 C1432 0.931 . S
H1419 C1434 0.930 . S
C1420 H1408 0.930 . S
C1420 C1421 1.399 . S
C1420 C1425 1.399 . S
C1421 C1420 1.399 . S
C1421 C1422 1.376 . S
C1422 H1409 0.930 . S
C1422 C1421 1.376 . S
C1422 C1423 1.388 . S
C1423 H1410 0.930 . S
C1423 C1422 1.388 . S
C1423 C1424 1.390 . S
C1424 C1423 1.390 . S
C1424 C1425 1.394 . S
C1424 C1430 1.465 . S
C1425 C1420 1.399 . S
C1425 C1424 1.394 . S
C1425 C1426 1.516 . S
C1426 C1425 1.516 . S
C1426 C1427 1.502 . S
C1426 C1428 1.561 . S
C1426 C1429 1.526 . S
C1427 H1411 0.959 . S
C1427 H1412 0.959 . S
C1427 H1413 0.961 . S
C1427 C1426 1.502 . S
C1428 H1414 0.960 . S
C1428 H1415 0.961 . S
C1428 H1416 0.959 . S
C1428 C1426 1.561 . S
C1429 C1426 1.526 . S
C1429 C1430 1.396 . S
C1429 C1434 1.390 . S
C1430 C1424 1.465 . S
C1430 C1429 1.396 . S
C1430 C1431 1.399 . S
C1431 H1417 0.929 . S
C1431 C1430 1.399 . S
C1431 C1432 1.385 . S
C1432 H1418 0.931 . S
C1432 C1431 1.385 . S
C1432 C1433 1.389 . S
C1433 C1432 1.389 . S
C1433 C1434 1.387 . S
C1434 H1419 0.930 . S
C1434 C1429 1.390 . S
C1434 C1433 1.387 . S
H1435 C1447 0.930 . S
H1436 C1449 0.930 . S
H1437 C1450 0.930 . S
H1438 C1454 0.959 . S
H1439 C1454 0.959 . S
H1440 C1454 0.961 . S
H1441 C1455 0.960 . S
H1442 C1455 0.961 . S
H1443 C1455 0.959 . S
H1444 C1458 0.929 . S
H1445 C1459 0.931 . S
H1446 C1461 0.930 . S
C1447 H1435 0.930 . S
C1447 C1448 1.399 . S
C1447 C1452 1.399 . S
C1448 C1447 1.399 . S
C1448 C1449 1.376 . S
C1449 H1436 0.930 . S
C1449 C1448 1.376 . S
C1449 C1450 1.388 . S
C1450 H1437 0.930 . S
C1450 C1449 1.388 . S
C1450 C1451 1.390 . S
C1451 C1450 1.390 . S
C1451 C1452 1.394 . S
C1451 C1457 1.465 . S
C1452 C1447 1.399 . S
C1452 C1451 1.394 . S
C1452 C1453 1.516 . S
C1453 C1452 1.516 . S
C1453 C1454 1.502 . S
C1453 C1455 1.561 . S
C1453 C1456 1.526 . S
C1454 H1438 0.959 . S
C1454 H1439 0.959 . S
C1454 H1440 0.961 . S
C1454 C1453 1.502 . S
C1455 H1441 0.960 . S
C1455 H1442 0.961 . S
C1455 H1443 0.959 . S
C1455 C1453 1.561 . S
C1456 C1453 1.526 . S
C1456 C1457 1.396 . S
C1456 C1461 1.390 . S
C1457 C1451 1.465 . S
C1457 C1456 1.396 . S
C1457 C1458 1.399 . S
C1458 H1444 0.929 . S
C1458 C1457 1.399 . S
C1458 C1459 1.385 . S
C1459 H1445 0.931 . S
C1459 C1458 1.385 . S
C1459 C1460 1.389 . S
C1460 C1459 1.389 . S
C1460 C1461 1.387 . S
C1461 H1446 0.930 . S
C1461 C1456 1.390 . S
C1461 C1460 1.387 . S
H1462 C1474 0.930 . S
H1463 C1476 0.930 . S
H1464 C1477 0.930 . S
H1465 C1481 0.959 . S
H1466 C1481 0.959 . S
H1467 C1481 0.961 . S
H1468 C1482 0.960 . S
H1469 C1482 0.961 . S
H1470 C1482 0.959 . S
H1471 C1485 0.929 . S
H1472 C1486 0.931 . S
H1473 C1488 0.930 . S
C1474 H1462 0.930 . S
C1474 C1475 1.399 . S
C1474 C1479 1.399 . S
C1475 C1474 1.399 . S
C1475 C1476 1.376 . S
C1476 H1463 0.930 . S
C1476 C1475 1.376 . S
C1476 C1477 1.388 . S
C1477 H1464 0.930 . S
C1477 C1476 1.388 . S
C1477 C1478 1.390 . S
C1478 C1477 1.390 . S
C1478 C1479 1.394 . S
C1478 C1484 1.465 . S
C1479 C1474 1.399 . S
C1479 C1478 1.394 . S
C1479 C1480 1.516 . S
C1480 C1479 1.516 . S
C1480 C1481 1.502 . S
C1480 C1482 1.561 . S
C1480 C1483 1.526 . S
C1481 H1465 0.959 . S
C1481 H1466 0.959 . S
C1481 H1467 0.961 . S
C1481 C1480 1.502 . S
C1482 H1468 0.960 . S
C1482 H1469 0.961 . S
C1482 H1470 0.959 . S
C1482 C1480 1.561 . S
C1483 C1480 1.526 . S
C1483 C1484 1.396 . S
C1483 C1488 1.390 . S
C1484 C1478 1.465 . S
C1484 C1483 1.396 . S
C1484 C1485 1.399 . S
C1485 H1471 0.929 . S
C1485 C1484 1.399 . S
C1485 C1486 1.385 . S
C1486 H1472 0.931 . S
C1486 C1485 1.385 . S
C1486 C1487 1.389 . S
C1487 C1486 1.389 . S
C1487 C1488 1.387 . S
C1488 H1473 0.930 . S
C1488 C1483 1.390 . S
C1488 C1487 1.387 . S
H1489 C1501 0.930 . S
H1490 C1503 0.930 . S
H1491 C1504 0.930 . S
H1492 C1508 0.959 . S
H1493 C1508 0.959 . S
H1494 C1508 0.961 . S
H1495 C1509 0.960 . S
H1496 C1509 0.961 . S
H1497 C1509 0.959 . S
H1498 C1512 0.929 . S
H1499 C1513 0.931 . S
H1500 C1515 0.930 . S
C1501 H1489 0.930 . S
C1501 C1502 1.399 . S
C1501 C1506 1.399 . S
C1502 C1501 1.399 . S
C1502 C1503 1.376 . S
C1503 H1490 0.930 . S
C1503 C1502 1.376 . S
C1503 C1504 1.388 . S
C1504 H1491 0.930 . S
C1504 C1503 1.388 . S
C1504 C1505 1.390 . S
C1505 C1504 1.390 . S
C1505 C1506 1.394 . S
C1505 C1511 1.465 . S
C1506 C1501 1.399 . S
C1506 C1505 1.394 . S
C1506 C1507 1.516 . S
C1507 C1506 1.516 . S
C1507 C1508 1.502 . S
C1507 C1509 1.561 . S
C1507 C1510 1.526 . S
C1508 H1492 0.959 . S
C1508 H1493 0.959 . S
C1508 H1494 0.961 . S
C1508 C1507 1.502 . S
C1509 H1495 0.960 . S
C1509 H1496 0.961 . S
C1509 H1497 0.959 . S
C1509 C1507 1.561 . S
C1510 C1507 1.526 . S
C1510 C1511 1.396 . S
C1510 C1515 1.390 . S
C1511 C1505 1.465 . S
C1511 C1510 1.396 . S
C1511 C1512 1.399 . S
C1512 H1498 0.929 . S
C1512 C1511 1.399 . S
C1512 C1513 1.385 . S
C1513 H1499 0.931 . S
C1513 C1512 1.385 . S
C1513 C1514 1.389 . S
C1514 C1513 1.389 . S
C1514 C1515 1.387 . S
C1515 H1500 0.930 . S
C1515 C1510 1.390 . S
C1515 C1514 1.387 . S
H1516 C1528 0.930 . S
H1517 C1530 0.930 . S
H1518 C1531 0.930 . S
H1519 C1535 0.959 . S
H1520 C1535 0.959 . S
H1521 C1535 0.961 . S
H1522 C1536 0.960 . S
H1523 C1536 0.961 . S
H1524 C1536 0.959 . S
H1525 C1539 0.929 . S
H1526 C1540 0.931 . S
H1527 C1542 0.930 . S
C1528 H1516 0.930 . S
C1528 C1529 1.399 . S
C1528 C1533 1.399 . S
C1529 C1528 1.399 . S
C1529 C1530 1.376 . S
C1530 H1517 0.930 . S
C1530 C1529 1.376 . S
C1530 C1531 1.388 . S
C1531 H1518 0.930 . S
C1531 C1530 1.388 . S
C1531 C1532 1.390 . S
C1532 C1531 1.390 . S
C1532 C1533 1.394 . S
C1532 C1538 1.465 . S
C1533 C1528 1.399 . S
C1533 C1532 1.394 . S
C1533 C1534 1.516 . S
C1534 C1533 1.516 . S
C1534 C1535 1.502 . S
C1534 C1536 1.561 . S
C1534 C1537 1.526 . S
C1535 H1519 0.959 . S
C1535 H1520 0.959 . S
C1535 H1521 0.961 . S
C1535 C1534 1.502 . S
C1536 H1522 0.960 . S
C1536 H1523 0.961 . S
C1536 H1524 0.959 . S
C1536 C1534 1.561 . S
C1537 C1534 1.526 . S
C1537 C1538 1.396 . S
C1537 C1542 1.390 . S
C1538 C1532 1.465 . S
C1538 C1537 1.396 . S
C1538 C1539 1.399 . S
C1539 H1525 0.929 . S
C1539 C1538 1.399 . S
C1539 C1540 1.385 . S
C1540 H1526 0.931 . S
C1540 C1539 1.385 . S
C1540 C1541 1.389 . S
C1541 C1540 1.389 . S
C1541 C1542 1.387 . S
C1542 H1527 0.930 . S
C1542 C1537 1.390 . S
C1542 C1541 1.387 . S
H1543 C1555 0.930 . S
H1544 C1557 0.930 . S
H1545 C1558 0.930 . S
H1546 C1562 0.959 . S
H1547 C1562 0.959 . S
H1548 C1562 0.961 . S
H1549 C1563 0.960 . S
H1550 C1563 0.961 . S
H1551 C1563 0.959 . S
H1552 C1566 0.929 . S
H1553 C1567 0.931 . S
H1554 C1569 0.930 . S
C1555 H1543 0.930 . S
C1555 C1556 1.399 . S
C1555 C1560 1.399 . S
C1556 C1555 1.399 . S
C1556 C1557 1.376 . S
C1557 H1544 0.930 . S
C1557 C1556 1.376 . S
C1557 C1558 1.388 . S
C1558 H1545 0.930 . S
C1558 C1557 1.388 . S
C1558 C1559 1.390 . S
C1559 C1558 1.390 . S
C1559 C1560 1.394 . S
C1559 C1565 1.465 . S
C1560 C1555 1.399 . S
C1560 C1559 1.394 . S
C1560 C1561 1.516 . S
C1561 C1560 1.516 . S
C1561 C1562 1.502 . S
C1561 C1563 1.561 . S
C1561 C1564 1.526 . S
C1562 H1546 0.959 . S
C1562 H1547 0.959 . S
C1562 H1548 0.961 . S
C1562 C1561 1.502 . S
C1563 H1549 0.960 . S
C1563 H1550 0.961 . S
C1563 H1551 0.959 . S
C1563 C1561 1.561 . S
C1564 C1561 1.526 . S
C1564 C1565 1.396 . S
C1564 C1569 1.390 . S
C1565 C1559 1.465 . S
C1565 C1564 1.396 . S
C1565 C1566 1.399 . S
C1566 H1552 0.929 . S
C1566 C1565 1.399 . S
C1566 C1567 1.385 . S
C1567 H1553 0.931 . S
C1567 C1566 1.385 . S
C1567 C1568 1.389 . S
C1568 C1567 1.389 . S
C1568 C1569 1.387 . S
C1569 H1554 0.930 . S
C1569 C1564 1.390 . S
C1569 C1568 1.387 . S
H1570 C1582 0.930 . S
H1571 C1584 0.930 . S
H1572 C1585 0.930 . S
H1573 C1589 0.959 . S
H1574 C1589 0.959 . S
H1575 C1589 0.961 . S
H1576 C1590 0.960 . S
H1577 C1590 0.961 . S
H1578 C1590 0.959 . S
H1579 C1593 0.929 . S
H1580 C1594 0.931 . S
H1581 C1596 0.930 . S
C1582 H1570 0.930 . S
C1582 C1583 1.399 . S
C1582 C1587 1.399 . S
C1583 C1582 1.399 . S
C1583 C1584 1.376 . S
C1584 H1571 0.930 . S
C1584 C1583 1.376 . S
C1584 C1585 1.388 . S
C1585 H1572 0.930 . S
C1585 C1584 1.388 . S
C1585 C1586 1.390 . S
C1586 C1585 1.390 . S
C1586 C1587 1.394 . S
C1586 C1592 1.465 . S
C1587 C1582 1.399 . S
C1587 C1586 1.394 . S
C1587 C1588 1.516 . S
C1588 C1587 1.516 . S
C1588 C1589 1.502 . S
C1588 C1590 1.561 . S
C1588 C1591 1.526 . S
C1589 H1573 0.959 . S
C1589 H1574 0.959 . S
C1589 H1575 0.961 . S
C1589 C1588 1.502 . S
C1590 H1576 0.960 . S
C1590 H1577 0.961 . S
C1590 H1578 0.959 . S
C1590 C1588 1.561 . S
C1591 C1588 1.526 . S
C1591 C1592 1.396 . S
C1591 C1596 1.390 . S
C1592 C1586 1.465 . S
C1592 C1591 1.396 . S
C1592 C1593 1.399 . S
C1593 H1579 0.929 . S
C1593 C1592 1.399 . S
C1593 C1594 1.385 . S
C1594 H1580 0.931 . S
C1594 C1593 1.385 . S
C1594 C1595 1.389 . S
C1595 C1594 1.389 . S
C1595 C1596 1.387 . S
C1596 H1581 0.930 . S
C1596 C1591 1.390 . S
C1596 C1595 1.387 . S
H1597 C1609 0.930 . S
H1598 C1611 0.930 . S
H1599 C1612 0.930 . S
H1600 C1616 0.959 . S
H1601 C1616 0.959 . S
H1602 C1616 0.961 . S
H1603 C1617 0.960 . S
H1604 C1617 0.961 . S
H1605 C1617 0.959 . S
H1606 C1620 0.929 . S
H1607 C1621 0.931 . S
H1608 C1623 0.930 . S
C1609 H1597 0.930 . S
C1609 C1610 1.399 . S
C1609 C1614 1.399 . S
C1610 C1609 1.399 . S
C1610 C1611 1.376 . S
C1611 H1598 0.930 . S
C1611 C1610 1.376 . S
C1611 C1612 1.388 . S
C1612 H1599 0.930 . S
C1612 C1611 1.388 . S
C1612 C1613 1.390 . S
C1613 C1612 1.390 . S
C1613 C1614 1.394 . S
C1613 C1619 1.465 . S
C1614 C1609 1.399 . S
C1614 C1613 1.394 . S
C1614 C1615 1.516 . S
C1615 C1614 1.516 . S
C1615 C1616 1.502 . S
C1615 C1617 1.561 . S
C1615 C1618 1.526 . S
C1616 H1600 0.959 . S
C1616 H1601 0.959 . S
C1616 H1602 0.961 . S
C1616 C1615 1.502 . S
C1617 H1603 0.960 . S
C1617 H1604 0.961 . S
C1617 H1605 0.959 . S
C1617 C1615 1.561 . S
C1618 C1615 1.526 . S
C1618 C1619 1.396 . S
C1618 C1623 1.390 . S
C1619 C1613 1.465 . S
C1619 C1618 1.396 . S
C1619 C1620 1.399 . S
C1620 H1606 0.929 . S
C1620 C1619 1.399 . S
C1620 C1621 1.385 . S
C1621 H1607 0.931 . S
C1621 C1620 1.385 . S
C1621 C1622 1.389 . S
C1622 C1621 1.389 . S
C1622 C1623 1.387 . S
C1623 H1608 0.930 . S
C1623 C1618 1.390 . S
C1623 C1622 1.387 . S
H1624 C1636 0.930 . S
H1625 C1638 0.930 . S
H1626 C1639 0.930 . S
H1627 C1643 0.959 . S
H1628 C1643 0.959 . S
H1629 C1643 0.961 . S
H1630 C1644 0.960 . S
H1631 C1644 0.961 . S
H1632 C1644 0.959 . S
H1633 C1647 0.929 . S
H1634 C1648 0.931 . S
H1635 C1650 0.930 . S
C1636 H1624 0.930 . S
C1636 C1637 1.399 . S
C1636 C1641 1.399 . S
C1637 C1636 1.399 . S
C1637 C1638 1.376 . S
C1638 H1625 0.930 . S
C1638 C1637 1.376 . S
C1638 C1639 1.388 . S
C1639 H1626 0.930 . S
C1639 C1638 1.388 . S
C1639 C1640 1.390 . S
C1640 C1639 1.390 . S
C1640 C1641 1.394 . S
C1640 C1646 1.465 . S
C1641 C1636 1.399 . S
C1641 C1640 1.394 . S
C1641 C1642 1.516 . S
C1642 C1641 1.516 . S
C1642 C1643 1.502 . S
C1642 C1644 1.561 . S
C1642 C1645 1.526 . S
C1643 H1627 0.959 . S
C1643 H1628 0.959 . S
C1643 H1629 0.961 . S
C1643 C1642 1.502 . S
C1644 H1630 0.960 . S
C1644 H1631 0.961 . S
C1644 H1632 0.959 . S
C1644 C1642 1.561 . S
C1645 C1642 1.526 . S
C1645 C1646 1.396 . S
C1645 C1650 1.390 . S
C1646 C1640 1.465 . S
C1646 C1645 1.396 . S
C1646 C1647 1.399 . S
C1647 H1633 0.929 . S
C1647 C1646 1.399 . S
C1647 C1648 1.385 . S
C1648 H1634 0.931 . S
C1648 C1647 1.385 . S
C1648 C1649 1.389 . S
C1649 C1648 1.389 . S
C1649 C1650 1.387 . S
C1650 H1635 0.930 . S
C1650 C1645 1.390 . S
C1650 C1649 1.387 . S
H1651 C1663 0.930 . S
H1652 C1665 0.930 . S
H1653 C1666 0.930 . S
H1654 C1670 0.959 . S
H1655 C1670 0.959 . S
H1656 C1670 0.961 . S
H1657 C1671 0.960 . S
H1658 C1671 0.961 . S
H1659 C1671 0.959 . S
H1660 C1674 0.929 . S
H1661 C1675 0.931 . S
H1662 C1677 0.930 . S
C1663 H1651 0.930 . S
C1663 C1664 1.399 . S
C1663 C1668 1.399 . S
C1664 C1663 1.399 . S
C1664 C1665 1.376 . S
C1665 H1652 0.930 . S
C1665 C1664 1.376 . S
C1665 C1666 1.388 . S
C1666 H1653 0.930 . S
C1666 C1665 1.388 . S
C1666 C1667 1.390 . S
C1667 C1666 1.390 . S
C1667 C1668 1.394 . S
C1667 C1673 1.465 . S
C1668 C1663 1.399 . S
C1668 C1667 1.394 . S
C1668 C1669 1.516 . S
C1669 C1668 1.516 . S
C1669 C1670 1.502 . S
C1669 C1671 1.561 . S
C1669 C1672 1.526 . S
C1670 H1654 0.959 . S
C1670 H1655 0.959 . S
C1670 H1656 0.961 . S
C1670 C1669 1.502 . S
C1671 H1657 0.960 . S
C1671 H1658 0.961 . S
C1671 H1659 0.959 . S
C1671 C1669 1.561 . S
C1672 C1669 1.526 . S
C1672 C1673 1.396 . S
C1672 C1677 1.390 . S
C1673 C1667 1.465 . S
C1673 C1672 1.396 . S
C1673 C1674 1.399 . S
C1674 H1660 0.929 . S
C1674 C1673 1.399 . S
C1674 C1675 1.385 . S
C1675 H1661 0.931 . S
C1675 C1674 1.385 . S
C1675 C1676 1.389 . S
C1676 C1675 1.389 . S
C1676 C1677 1.387 . S
C1677 H1662 0.930 . S
C1677 C1672 1.390 . S
C1677 C1676 1.387 . S
C407 C211 1.119 . S
C395 C17 1.162 . S
C434 C212 1.669 . S
C422 C44 1.734 . S
C461 C206 1.218 . S
C449 C63 1.223 . S
C476 C87 1.024 . S
C488 C205 1.021 . S
C503 C110 1.607 . S
C515 C208 1.496 . S
C542 C210 1.205 . S
C530 C131 1.242 . S
C557 C159 1.177 . S
C569 C209 1.150 . S
C584 C177 1.194 . S
C596 C207 1.126 . S
C623 C242 1.552 . S
C611 C20 1.365 . S
C638 C42 1.417 . S
C650 C273 1.418 . S
C677 C241 1.511 . S
C665 C66 1.365 . S
C704 C276 1.128 . S
C692 C86 1.182 . S
C719 C109 1.355 . S
C731 C239 1.326 . S
C758 C271 1.484 . S
C746 C136 1.468 . S
C773 C157 1.228 . S
C785 C244 1.236 . S
C800 C182 1.397 . S
C812 C278 1.391 . S
C827 C18 1.388 . S
C839 C274 1.318 . S
C854 C112 1.345 . S
C866 C277 1.468 . S
C893 C245 1.351 . S
C881 C134 1.349 . S
C920 C272 1.269 . S
C908 C154 1.271 . S
C935 C180 1.446 . S
C947 C238 1.475 . S
C962 C64 1.448 . S
C974 C275 1.450 . S
C1001 C240 1.361 . S
C989 C89 1.239 . S
C1016 C39 1.486 . S
C1028 C243 1.466 . S
C1043 C178 1.174 . S
C1055 C310 1.028 . S
C1070 C113 1.293 . S
C1082 C311 1.382 . S
C1109 C305 1.220 . S
C1097 C132 1.251 . S
C1136 C304 1.445 . S
C1124 C156 1.440 . S
C1151 C41 1.226 . S
C1163 C307 1.163 . S
C1190 C309 1.200 . S
C1178 C62 1.236 . S
C1205 C90 1.417 . S
C1217 C308 1.554 . S
C1232 C16 1.214 . S
C1244 C306 1.040 . S
C1259 C181 1.427 . S
C1271 C344 1.506 . S
C1298 C376 1.193 . S
C1286 C111 1.204 . S
C1313 C135 1.147 . S
C1325 C337 1.291 . S
C1340 C155 1.356 . S
C1352 C371 1.366 . S
C1379 C342 1.126 . S
C1367 C40 1.090 . S
C1394 C67 1.592 . S
C1406 C373 1.755 . S
C1433 C339 1.387 . S
C1421 C88 1.434 . S
C1460 C374 1.424 . S
C1448 C21 1.233 . S
C1487 C370 1.325 . S
C1475 C179 1.328 . S
C1502 C43 1.271 . S
C1514 C372 1.385 . S
C1529 C65 1.225 . S
C1541 C341 1.298 . S
C1568 C375 1.537 . S
C1556 C85 1.533 . S
C1583 C19 1.531 . S
C1595 C340 1.546 . S
C1610 C133 1.624 . S
C1622 C377 1.540 . S
C1649 C343 1.460 . S
C1637 C158 1.311 . S
C1676 C338 1.323 . S
C1664 C108 1.263 . S
