# Generated by pormake.
# Topology sit, (3,6)-cn, num edge types: 1
# Building blocks:
#     Node 0, Type 0, BuildingBlock: WUSLED_clean_sbu_0, # of connection points: 3
#     Node 1, Type 0, BuildingBlock: WUSLED_clean_sbu_0, # of connection points: 3
#     Node 2, Type 0, BuildingBlock: WUSLED_clean_sbu_0, # of connection points: 3
#     Node 3, Type 0, BuildingBlock: WUSLED_clean_sbu_0, # of connection points: 3
#     Node 4, Type 1, BuildingBlock: MIDCAF_clean_sbu_0, # of connection points: 6
#     Node 5, Type 1, BuildingBlock: MIDCAF_clean_sbu_0, # of connection points: 6
#     Edge 6, Type (0, 1), BuildingBlock: CIFDUS_clean_linker_0, # of connection points: 2
#     Edge 7, Type (0, 1), BuildingBlock: CIFDUS_clean_linker_0, # of connection points: 2
#     Edge 8, Type (0, 1), BuildingBlock: CIFDUS_clean_linker_0, # of connection points: 2
#     Edge 9, Type (0, 1), BuildingBlock: CIFDUS_clean_linker_0, # of connection points: 2
#     Edge 10, Type (0, 1), BuildingBlock: CIFDUS_clean_linker_0, # of connection points: 2
#     Edge 11, Type (0, 1), BuildingBlock: CIFDUS_clean_linker_0, # of connection points: 2
#     Edge 12, Type (0, 1), BuildingBlock: CIFDUS_clean_linker_0, # of connection points: 2
#     Edge 13, Type (0, 1), BuildingBlock: CIFDUS_clean_linker_0, # of connection points: 2
#     Edge 14, Type (0, 1), BuildingBlock: CIFDUS_clean_linker_0, # of connection points: 2
#     Edge 15, Type (0, 1), BuildingBlock: CIFDUS_clean_linker_0, # of connection points: 2
#     Edge 16, Type (0, 1), BuildingBlock: CIFDUS_clean_linker_0, # of connection points: 2
#     Edge 17, Type (0, 1), BuildingBlock: CIFDUS_clean_linker_0, # of connection points: 2
# Relax obj value: 0.107
# Max RMSD: 0.192
# Mean RMSD: 0.104
data_MOF--net-sit--node1-WUSLED_clean_sbu_0--node2-MIDCAF_clean_sbu_0--edge1-CIFDUS_clean_linker_0
_symmetry_space_group_name_H-M    P1
_symmetry_Int_Tables_number       1
_symmetry_cell_setting            triclinic
loop_
_symmetry_equiv_pos_as_xyz
'x, y, z'
_cell_length_a     27.787583
_cell_length_b     33.973166
_cell_length_c     42.70371
_cell_angle_alpha  89.761553
_cell_angle_beta   89.062314
_cell_angle_gamma 84.3592
loop_
_atom_site_label
_atom_site_type_symbol
_atom_site_fract_x
_atom_site_fract_y
_atom_site_fract_z
_atom_type_partial_charge
C0 C 0.92723 0.41208 0.02114 0.0
C1 C 0.93634 0.42921 -0.00807 0.0
C2 C 0.85239 0.45699 0.98915 0.0
C3 C 0.89929 0.45121 0.97601 0.0
C4 C 0.84402 0.44121 0.01913 0.0
C5 C 0.88112 0.41879 0.03492 0.0
U6 U 0.05975 0.3855 0.02937 0.0
O7 O 0.10715 0.37094 0.06935 0.0
O8 O 0.10398 0.32813 0.03122 0.0
C9 C 0.12084 0.3351 0.05903 0.0
C10 C 0.96599 0.38722 0.03686 0.0
C11 C 0.11922 0.30315 0.08224 0.0
C12 C 0.07529 0.26509 0.11945 0.0
C13 C 0.07531 0.29319 0.09529 0.0
C14 C 0.16284 0.25575 0.11672 0.0
C15 C 0.11919 0.24687 0.13095 0.0
C16 C 0.16281 0.28363 0.0926 0.0
C17 C 0.13733 0.44873 0.97753 0.0
C18 C 0.22232 0.45799 0.98327 0.0
C19 C 0.18182 0.47627 0.93473 0.0
C20 C 0.13886 0.4642 0.94712 0.0
C21 C 0.22401 0.47322 0.95264 0.0
C22 C 0.17931 0.44563 -0.0044 0.0
C23 C 0.09125 0.43696 -0.01007 0.0
O24 O -0.00869 0.36176 0.01845 0.0
O25 O -0.00703 0.40624 0.05544 0.0
O26 O 0.08178 0.44468 0.01965 0.0
O27 O 0.07999 0.40197 0.98132 0.0
H28 H 0.97195 0.42476 0.98104 0.0
H29 H 0.9071 0.46235 0.95288 0.0
H30 H 0.80861 0.44568 0.03024 0.0
H31 H 0.87364 0.40629 0.05766 0.0
H32 H 0.04116 0.25913 0.13017 0.0
H33 H 0.04128 0.30801 0.08749 0.0
H34 H 0.19717 0.24197 0.12493 0.0
H35 H 0.197 0.2908 0.08265 0.0
H36 H 0.25446 0.45489 -0.00257 0.0
H37 H 0.182 0.4882 0.91117 0.0
H38 H 0.10671 0.467 0.93294 0.0
H39 H 0.17885 0.43365 0.01914 0.0
C40 C 0.8836 0.75169 0.01184 0.0
C41 C 0.84375 0.77407 -0.00113 0.0
C42 C 0.81928 0.71542 0.97345 0.0
C43 C 0.81199 0.75616 0.97977 0.0
C44 C 0.858 0.69261 0.98752 0.0
C45 C 0.89025 0.71068 0.00637 0.0
U46 U 0.01477 0.76447 0.02776 0.0
O47 O 0.05197 0.81889 0.02915 0.0
O48 O 0.05322 0.77934 0.06999 0.0
C49 C 0.06358 0.81366 0.05869 0.0
C50 C 0.92002 0.77233 0.02823 0.0
C51 C 0.05244 0.84822 0.07938 0.0
C52 C 0.0082 0.88053 0.12329 0.0
C53 C 0.01572 0.84889 0.10238 0.0
C54 C 0.0725 0.91232 0.09769 0.0
C55 C 0.03685 0.91252 0.12152 0.0
C56 C 0.08027 0.88044 0.07692 0.0
C57 C 0.11051 0.69301 0.98683 0.0
C58 C 0.19497 0.70465 0.98139 0.0
C59 C 0.1694 0.64099 0.96722 0.0
C60 C 0.12179 0.6544 0.9757 0.0
C61 C 0.20651 0.66611 0.96968 0.0
C62 C 0.14744 0.71791 -0.01 0.0
C63 C 0.06002 0.70715 -0.00567 0.0
O64 O 0.9455 0.75198 0.0496 0.0
O65 O 0.94632 0.793 0.00977 0.0
O66 O 0.04472 0.74194 0.98267 0.0
O67 O 0.04636 0.70262 0.02362 0.0
H68 H 0.83811 0.80572 0.00267 0.0
H69 H 0.78213 0.77432 0.9694 0.0
H70 H 0.8645 0.6612 0.98284 0.0
H71 H 0.92112 0.69283 0.01582 0.0
H72 H 0.98097 0.8791 0.14157 0.0
H73 H -0.00646 0.8245 0.10472 0.0
H74 H 0.0948 0.9366 0.09526 0.0
H75 H 0.10862 0.88063 0.05921 0.0
H76 H 0.22243 0.72502 0.98315 0.0
H77 H 0.17712 0.61102 0.95869 0.0
H78 H 0.09366 0.63472 0.97329 0.0
H79 H 0.13938 0.74783 -0.00137 0.0
C80 C 0.42854 0.87967 0.51484 0.0
C81 C 0.42618 0.92016 0.50723 0.0
C82 C 0.35465 0.91428 0.47619 0.0
C83 C 0.38918 0.93742 0.48826 0.0
C84 C 0.3562 0.87419 0.48472 0.0
C85 C 0.39267 0.85711 0.50398 0.0
U86 U 0.56396 0.8628 0.52491 0.0
O87 O 0.60941 0.84986 0.56622 0.0
O88 O 0.61148 0.80729 0.5276 0.0
C89 C 0.62453 0.81406 0.55638 0.0
C90 C 0.47049 0.85945 0.53102 0.0
C91 C 0.61862 0.78195 0.57896 0.0
C92 C 0.56987 0.73364 0.60242 0.0
C93 C 0.57585 0.76314 0.58015 0.0
C94 C 0.64951 0.74112 0.62245 0.0
C95 C 0.60635 0.72262 0.62417 0.0
C96 C 0.65554 0.77049 0.60003 0.0
C97 C 0.63931 0.92532 0.47028 0.0
C98 C 0.72218 0.94217 0.47376 0.0
C99 C 0.6837 0.94139 0.42328 0.0
C100 C 0.6415 0.93086 0.43777 0.0
C101 C 0.72462 0.94683 0.44104 0.0
C102 C 0.67985 0.93128 0.4883 0.0
C103 C 0.5941 0.91349 0.48426 0.0
O104 O 0.4984 0.83512 0.51318 0.0
O105 O 0.49488 0.8813 0.54916 0.0
O106 O 0.58511 0.92216 0.51392 0.0
O107 O 0.58315 0.87809 0.47655 0.0
H108 H 0.45377 0.93814 0.51501 0.0
H109 H 0.38885 0.96833 0.48185 0.0
H110 H 0.32971 0.85583 0.47589 0.0
H111 H 0.39394 0.82585 0.50945 0.0
H112 H 0.53641 0.71976 0.60281 0.0
H113 H 0.54685 0.77158 0.56406 0.0
H114 H 0.67803 0.73391 0.6391 0.0
H115 H 0.68873 0.78478 0.59952 0.0
H116 H 0.75335 0.94592 0.48795 0.0
H117 H 0.68438 0.94521 0.39808 0.0
H118 H 0.61052 0.92672 0.42349 0.0
H119 H 0.67901 0.92716 0.51346 0.0
C120 C 0.38707 0.24287 0.5188 0.0
C121 C 0.40732 0.20853 0.50347 0.0
C122 C 0.32775 0.1948 0.48609 0.0
C123 C 0.37796 0.18466 0.48733 0.0
C124 C 0.30748 0.22872 0.50225 0.0
C125 C 0.33696 0.25259 0.51843 0.0
U126 U 0.51221 0.27169 0.5249 0.0
O127 O 0.54211 0.32942 0.52285 0.0
O128 O 0.55598 0.29035 0.56351 0.0
C129 C 0.56082 0.32516 0.55088 0.0
C130 C 0.41887 0.27 0.53261 0.0
C131 C 0.55231 0.35946 0.57194 0.0
C132 C 0.50984 0.39354 0.61572 0.0
C133 C 0.51423 0.36253 0.59404 0.0
C134 C 0.58025 0.41967 0.59255 0.0
C135 C 0.5434 0.42208 0.61564 0.0
C136 C 0.58465 0.38863 0.57096 0.0
C137 C 0.60697 0.20639 0.47726 0.0
C138 C 0.66157 0.1829 0.4349 0.0
C139 C 0.6937 0.19946 0.48506 0.0
C140 C 0.64679 0.2096 0.49654 0.0
C141 C 0.70169 0.1864 0.45399 0.0
C142 C 0.61465 0.19274 0.4465 0.0
C143 C 0.55727 0.21735 0.48859 0.0
O144 O 0.4505 0.2537 0.55257 0.0
O145 O 0.43788 0.29326 0.51216 0.0
O146 O 0.53656 0.25107 0.47791 0.0
O147 O 0.54913 0.212 0.51865 0.0
H148 H 0.44608 0.2007 0.50331 0.0
H149 H 0.39466 0.1586 0.47542 0.0
H150 H 0.26904 0.23773 0.50137 0.0
H151 H 0.3208 0.27922 0.52984 0.0
H152 H 0.48137 0.39415 0.63338 0.0
H153 H 0.48878 0.34034 0.59513 0.0
H154 H 0.60629 0.44138 0.59152 0.0
H155 H 0.61414 0.38686 0.55394 0.0
H156 H 0.66639 0.17354 0.41075 0.0
H157 H 0.72373 0.20196 0.50054 0.0
H158 H 0.64171 0.2201 0.5204 0.0
H159 H 0.58429 0.19016 0.43128 0.0
Zn160 Zn 0.04316 0.14727 0.34943 0.0
Zn161 Zn 0.05795 0.99378 0.33928 0.0
Zn162 Zn 0.05079 0.07085 0.3444 0.0
C163 C 0.05983 1.02195 0.2787 0.0
C164 C 0.97132 1.01463 0.371 0.0
O165 O 0.10826 0.08778 0.37626 0.0
O166 O 0.08952 0.15213 0.38299 0.0
C167 C 0.067 0.13104 0.28711 0.0
O168 O 0.05943 1.055 0.29355 0.0
O169 O 0.05796 0.98991 0.29343 0.0
O170 O -0.00233 0.98428 0.36202 0.0
O171 O -0.01556 1.04945 0.36557 0.0
O172 O 0.06389 0.15926 0.30638 0.0
O173 O 0.06062 0.09572 0.29642 0.0
O174 O 0.97737 0.0908 0.36317 0.0
O175 O 0.97417 0.15611 0.36124 0.0
C176 C 0.95396 0.12518 0.36709 0.0
O177 O 0.11366 1.04638 0.37265 0.0
O178 O 0.11989 0.98259 0.36126 0.0
C179 C 0.1156 0.12078 0.38937 0.0
C180 C 0.13551 1.01123 0.37535 0.0
Zn181 Zn 0.53148 0.64017 0.84827 0.0
Zn182 Zn 0.55888 0.489 0.83583 0.0
Zn183 Zn 0.54772 0.56501 0.84255 0.0
C184 C 0.57666 0.51827 0.77749 0.0
C185 C 0.46594 0.5053 0.85743 0.0
O186 O 0.60588 0.5848 0.87245 0.0
O187 O 0.59435 0.64968 0.86618 0.0
C188 C 0.53577 0.62614 0.78458 0.0
O189 O 0.56083 0.55036 0.79191 0.0
O190 O 0.58385 0.48613 0.79234 0.0
O191 O 0.49123 0.47725 0.84399 0.0
O192 O 0.48216 0.53939 0.86015 0.0
O193 O 0.52049 0.65303 0.80357 0.0
O194 O 0.55088 0.59139 0.79475 0.0
O195 O 0.47502 0.58054 0.86448 0.0
O196 O 0.47445 0.64377 0.87673 0.0
C197 C 0.45428 0.61212 0.87746 0.0
O198 O 0.6096 0.54314 0.87247 0.0
O199 O 0.60461 0.47859 0.87037 0.0
C200 C 0.61888 0.6197 0.87715 0.0
C201 C 0.62348 0.50764 0.88158 0.0
H202 H 0.06492 0.1858 0.14616 0.0
H203 H 0.17517 0.25431 0.18133 0.0
H204 H 0.1728 0.22042 0.23151 0.0
H205 H 0.134 0.17672 0.26713 0.0
H206 H 0.02414 0.10705 0.23379 0.0
H207 H 0.03232 0.13518 0.181 0.0
C208 C 0.08866 0.19292 0.16478 0.0
C209 C 0.12006 0.22267 0.16004 0.0
C210 C 0.0872 0.17312 0.19383 0.0
C211 C 0.151 0.23136 0.18423 0.0
C212 C 0.14952 0.21213 0.21302 0.0
C213 C 0.11251 0.16714 0.24811 0.0
C214 C 0.07836 0.14018 0.25418 0.0
C215 C 0.1171 0.18369 0.21827 0.0
C216 C 0.05093 0.12762 0.22948 0.0
C217 C 0.05526 0.14406 0.19945 0.0
H218 H 0.10812 0.95072 0.14839 0.0
H219 H 0.9533 0.94612 0.1496 0.0
H220 H 0.94579 0.98756 0.19619 0.0
H221 H -0.01529 1.01516 0.24136 0.0
H222 H 0.13891 1.01959 0.24053 0.0
H223 H 0.14505 0.98978 0.18825 0.0
C224 C 0.0725 0.9597 0.15816 0.0
C225 C 0.03149 0.9442 0.14586 0.0
C226 C 0.06835 0.98372 0.18503 0.0
C227 C -0.01426 0.95634 0.15911 0.0
C228 C -0.01869 0.98034 0.18567 0.0
C229 C 0.01928 1.01118 0.22901 0.0
C230 C 0.06126 1.01976 0.24438 0.0
C231 C 0.02255 0.99281 0.19955 0.0
C232 C 0.10611 1.01377 0.22874 0.0
C233 C 0.10963 0.99617 0.1991 0.0
H234 H 0.52365 0.71769 0.65804 0.0
H235 H 0.67055 0.66422 0.64886 0.0
H236 H 0.65924 0.62401 0.69561 0.0
H237 H 0.61019 0.61011 0.74273 0.0
H238 H 0.46509 0.667 0.75218 0.0
H239 H 0.47238 0.69848 0.70111 0.0
C240 C 0.55291 0.69653 0.66569 0.0
C241 C 0.59801 0.69432 0.65003 0.0
C242 C 0.54635 0.67394 0.69272 0.0
C243 C 0.63568 0.6671 0.66076 0.0
C244 C 0.62917 0.64393 0.68743 0.0
C245 C 0.57986 0.6285 0.73306 0.0
C246 C 0.5372 0.63638 0.75104 0.0
C247 C 0.58506 0.64792 0.70414 0.0
C248 C 0.49827 0.66066 0.73864 0.0
C249 C 0.50253 0.67886 0.70957 0.0
H250 H 0.62002 0.44598 0.64678 0.0
H251 H 0.46444 0.46497 0.64236 0.0
H252 H 0.4622 0.50531 0.68973 0.0
H253 H 0.5036 0.52586 0.73678 0.0
H254 H 0.65819 0.50202 0.7427 0.0
H255 H 0.66213 0.47468 0.6897 0.0
C256 C 0.58567 0.45987 0.65558 0.0
C257 C 0.5424 0.45194 0.6412 0.0
C258 C 0.58462 0.48245 0.68311 0.0
C259 C 0.49822 0.46986 0.6533 0.0
C260 C 0.49693 0.49312 0.68032 0.0
C261 C 0.53822 0.51621 0.72579 0.0
C262 C 0.58066 0.5163 0.7432 0.0
C263 C 0.53976 0.49841 0.69606 0.0
C264 C 0.62528 0.50272 0.72936 0.0
C265 C 0.62739 0.48658 0.69928 0.0
H266 H 0.26191 0.45355 0.89549 0.0
H267 H 0.28906 0.51815 0.97905 0.0
H268 H 0.3661 0.53501 0.95653 0.0
H269 H 0.42706 0.52906 0.91363 0.0
H270 H 0.39918 0.46425 0.83039 0.0
H271 H 0.32105 0.44949 0.85226 0.0
C272 C 0.28449 0.47165 0.90864 0.0
C273 C 0.26999 0.48453 0.93887 0.0
C274 C 0.32864 0.48091 0.89568 0.0
C275 C 0.29984 0.50751 0.95586 0.0
C276 C 0.34375 0.5172 0.94299 0.0
C277 C 0.40342 0.51221 0.90021 0.0
C278 C 0.41815 0.49825 0.87032 0.0
C279 C 0.35871 0.50373 0.91302 0.0
C280 C 0.38814 0.4755 0.85338 0.0
C281 C 0.34358 0.46711 0.86584 0.0
H282 H 0.77021 0.64989 0.98075 0.0
H283 H 0.79905 0.74153 0.91482 0.0
H284 H 0.74359 0.71665 0.87771 0.0
H285 H 0.68235 0.67254 0.86563 0.0
H286 H 0.64711 0.58418 0.93248 0.0
H287 H 0.71047 0.60301 0.96726 0.0
C288 C 0.76463 0.66399 0.95809 0.0
C289 C 0.78816 0.69775 0.95059 0.0
C290 C 0.73182 0.64993 0.93703 0.0
C291 C 0.78069 0.71591 0.92124 0.0
C292 C 0.74916 0.70162 0.89999 0.0
C293 C 0.68911 0.65702 0.88763 0.0
C294 C 0.66109 0.62641 0.89623 0.0
C295 C 0.72384 0.66923 0.90789 0.0
C296 C 0.66949 0.60691 0.92495 0.0
C297 C 0.70516 0.61813 0.945 0.0
H298 H 0.76065 0.4364 0.98661 0.0
H299 H 0.85286 0.52074 0.94897 0.0
H300 H 0.78924 0.54574 0.91304 0.0
H301 H 0.70951 0.53921 0.88909 0.0
H302 H 0.61778 0.45623 0.92904 0.0
H303 H 0.67905 0.4353 0.96739 0.0
C304 C 0.76664 0.46094 0.97119 0.0
C305 C 0.8118 0.47628 0.97039 0.0
C306 C 0.73004 0.47518 0.9507 0.0
C307 C 0.81883 0.50771 0.94971 0.0
C308 C 0.78241 0.52214 0.92918 0.0
C309 C 0.70269 0.51732 0.90674 0.0
C310 C 0.65921 0.49948 0.90647 0.0
C311 C 0.73821 0.50543 0.92894 0.0
C312 C 0.65109 0.47036 0.92886 0.0
C313 C 0.68604 0.45839 0.95081 0.0
H314 H 0.23506 0.62229 0.91794 0.0
H315 H 0.29103 0.68055 -0.00271 0.0
H316 H 0.37313 0.66645 0.97654 0.0
H317 H 0.42833 0.64242 0.93387 0.0
H318 H 0.37338 0.584 0.85461 0.0
H319 H 0.29153 0.59238 0.87765 0.0
C320 C 0.26525 0.6312 0.93105 0.0
C321 C 0.25671 0.65306 0.95891 0.0
C322 C 0.31248 0.62302 0.91896 0.0
C323 C 0.29638 0.66455 0.97543 0.0
C324 C 0.3434 0.65634 0.96366 0.0
C325 C 0.39839 0.63114 0.92191 0.0
C326 C 0.40648 0.61251 0.89279 0.0
C327 C 0.35172 0.63647 0.93512 0.0
C328 C 0.36775 0.5981 0.87726 0.0
C329 C 0.32106 0.60312 0.89033 0.0
H330 H 0.78415 1.00343 0.4556 0.0
H331 H 0.76706 0.90924 0.39042 0.0
H332 H 0.84099 0.9229 0.36272 0.0
H333 H 0.91067 0.96091 0.35707 0.0
H334 H 0.92993 1.0549 0.42168 0.0
H335 H 0.85483 1.04238 0.44951 0.0
C336 C 0.79688 0.98586 0.43543 0.0
C337 C 0.77015 0.95544 0.425 0.0
C338 C 0.83952 0.994 0.41945 0.0
C339 C 0.78672 0.93308 0.39867 0.0
C340 C 0.82905 0.94077 0.38288 0.0
C341 C 0.89831 0.97869 0.37723 0.0
C342 C 0.9252 1.00904 0.38716 0.0
C343 C 0.85565 0.97111 0.39303 0.0
C344 C 0.90919 1.03177 0.41337 0.0
C345 C 0.86651 1.02443 0.42935 0.0
H346 H 0.23792 0.17337 0.49993 0.0
H347 H 0.34857 0.16477 0.42753 0.0
H348 H 0.29476 0.13409 0.39249 0.0
H349 H 0.2124 0.118 0.38 0.0
H350 H 0.10044 0.13182 0.4511 0.0
H351 H 0.15834 0.15168 0.4891 0.0
C352 C 0.25034 0.16459 0.47654 0.0
C353 C 0.29701 0.1718 0.46632 0.0
C354 C 0.21881 0.14785 0.45622 0.0
C355 C 0.31291 0.15943 0.43614 0.0
C356 C 0.28203 0.14209 0.41595 0.0
C357 C 0.20133 0.1243 0.40408 0.0
C358 C 0.15273 0.12322 0.41307 0.0
C359 C 0.23444 0.13719 0.42542 0.0
C360 C 0.13802 0.13219 0.44401 0.0
C361 C 0.17097 0.14381 0.46559 0.0
H362 H 0.2915 0.98096 0.4811 0.0
H363 H 0.33873 0.88436 0.41917 0.0
H364 H 0.27803 0.90843 0.38116 0.0
H365 H 0.20871 0.95423 0.3669 0.0
H366 H 0.15522 1.04703 0.43042 0.0
H367 H 0.22197 1.02838 0.46594 0.0
C368 C 0.28861 0.96554 0.45913 0.0
C369 C 0.31911 0.93078 0.45297 0.0
C370 C 0.25289 0.97917 0.43758 0.0
C371 C 0.3151 0.91085 0.42453 0.0
C372 C 0.28058 0.92467 0.40278 0.0
C373 C 0.21197 0.97065 0.38839 0.0
C374 C 0.17799 1.00285 0.39559 0.0
C375 C 0.24883 0.95836 0.40928 0.0
C376 C 0.18232 1.02354 0.42362 0.0
C377 C 0.21991 1.01223 0.44424 0.0
H378 H 0.73717 0.12703 0.41421 0.0
H379 H 0.77862 0.2282 0.46452 0.0
H380 H 0.86019 0.21694 0.44274 0.0
H381 H 0.91919 0.17995 0.40853 0.0
H382 H 0.8786 0.08102 0.35565 0.0
H383 H 0.79694 0.08994 0.3791 0.0
C384 C 0.76397 0.14675 0.42025 0.0
C385 C 0.75169 0.17834 0.44113 0.0
C386 C 0.81081 0.14058 0.40714 0.0
C387 C 0.78714 0.20325 0.44901 0.0
C388 C 0.83375 0.19707 0.43635 0.0
C389 C 0.89237 0.1604 0.40208 0.0
C390 C 0.90475 0.1296 0.38077 0.0
C391 C 0.84584 0.16606 0.4153 0.0
C392 C 0.86988 0.10451 0.37247 0.0
C393 C 0.82326 0.10977 0.38573 0.0
loop_
_geom_bond_atom_site_label_1
_geom_bond_atom_site_label_2
_geom_bond_distance
_geom_bond_site_symmetry_2
_ccdc_geom_bond_type
C0 C1 1.264 . S
C0 C5 1.479 . S
C0 C10 1.465 1_656 S
C1 C0 1.264 . S
C1 C3 1.339 . S
C1 H28 0.931 1_655 S
C2 C3 1.395 . S
C2 C4 1.320 . S
C3 C1 1.339 . S
C3 C2 1.395 . S
C3 H29 0.929 . S
C4 C2 1.320 . S
C4 C5 1.405 . S
C4 H30 0.930 . S
C5 C0 1.479 . S
C5 C4 1.405 . S
C5 H31 0.931 1_556 S
U6 O7 2.454 . S
U6 O8 2.458 . S
U6 C9 2.984 . S
U6 C10 2.847 . S
U6 C23 2.882 . S
U6 O24 2.441 . S
U6 O25 2.420 . S
U6 O26 2.455 . S
U6 O27 2.449 . S
O7 U6 2.454 . S
O7 C9 1.353 . S
O8 U6 2.458 . S
O8 C9 1.286 . S
C9 U6 2.984 . S
C9 O7 1.353 . S
C9 O8 1.286 . S
C9 C11 1.363 . S
C10 C0 1.465 1_454 S
C10 U6 2.847 . S
C10 O24 1.249 . S
C10 O25 1.202 . S
C11 C9 1.363 . S
C11 C13 1.408 . S
C11 C16 1.342 . S
C12 C13 1.310 . S
C12 C15 1.461 . S
C12 H32 0.932 . S
C13 C11 1.408 . S
C13 C12 1.310 . S
C13 H33 0.930 . S
C14 C15 1.474 . S
C14 C16 1.285 . S
C14 H34 0.929 . S
C15 C12 1.461 . S
C15 C14 1.474 . S
C16 C11 1.342 . S
C16 C14 1.285 . S
C16 H35 0.930 . S
C17 C20 1.424 . S
C17 C22 1.245 1_556 S
C17 C23 1.428 1_556 S
C18 C21 1.260 . S
C18 C22 1.477 1_556 S
C18 H36 0.932 . S
C19 C20 1.384 . S
C19 C21 1.479 . S
C19 H37 0.929 . S
C20 C17 1.424 . S
C20 C19 1.384 . S
C20 H38 0.928 . S
C21 C18 1.260 . S
C21 C19 1.479 . S
C22 C17 1.245 1_554 S
C22 C18 1.477 1_554 S
C22 H39 0.932 . S
C23 U6 2.882 . S
C23 C17 1.428 1_554 S
C23 O26 1.301 . S
C23 O27 1.282 . S
O24 U6 2.441 . S
O24 C10 1.249 . S
O25 U6 2.420 . S
O25 C10 1.202 . S
O26 U6 2.455 . S
O26 C23 1.301 . S
O27 U6 2.449 . S
O27 C23 1.282 . S
H28 C1 0.931 1_455 S
H29 C3 0.929 . S
H30 C4 0.930 . S
H31 C5 0.931 1_554 S
H32 C12 0.932 . S
H33 C13 0.930 . S
H34 C14 0.929 . S
H35 C16 0.930 . S
H36 C18 0.932 . S
H37 C19 0.929 . S
H38 C20 0.928 . S
H39 C22 0.932 . S
C40 C41 1.264 . S
C40 C45 1.479 . S
C40 C50 1.465 . S
C41 C40 1.264 . S
C41 C43 1.339 . S
C41 H68 0.931 . S
C42 C43 1.395 . S
C42 C44 1.320 . S
C43 C41 1.339 . S
C43 C42 1.395 . S
C43 H69 0.929 . S
C44 C42 1.320 . S
C44 C45 1.405 . S
C44 H70 0.930 . S
C45 C40 1.479 . S
C45 C44 1.405 . S
C45 H71 0.931 1_556 S
U46 O47 2.454 . S
U46 O48 2.458 1_655 S
U46 C49 2.984 . S
U46 C50 2.847 1_554 S
U46 C63 2.882 1_654 S
U46 O64 2.441 . S
U46 O65 2.420 1_554 S
U46 O66 2.455 1_655 S
U46 O67 2.449 1_654 S
O47 U46 2.454 . S
O47 C49 1.353 . S
O48 U46 2.458 1_455 S
O48 C49 1.286 1_455 S
C49 U46 2.984 . S
C49 O47 1.353 . S
C49 O48 1.286 1_655 S
C49 C51 1.363 . S
C50 C40 1.465 . S
C50 U46 2.847 1_556 S
C50 O64 1.249 1_556 S
C50 O65 1.202 . S
C51 C49 1.363 . S
C51 C53 1.408 . S
C51 C56 1.342 1_655 S
C52 C53 1.310 . S
C52 C55 1.461 . S
C52 H72 0.932 . S
C53 C51 1.408 . S
C53 C52 1.310 . S
C53 H73 0.930 . S
C54 C55 1.474 1_455 S
C54 C56 1.285 . S
C54 H74 0.929 . S
C55 C52 1.461 . S
C55 C54 1.474 1_655 S
C56 C51 1.342 1_455 S
C56 C54 1.285 . S
C56 H75 0.930 . S
C57 C60 1.424 . S
C57 C62 1.245 . S
C57 C63 1.428 . S
C58 C61 1.260 . S
C58 C62 1.477 . S
C58 H76 0.932 . S
C59 C60 1.384 . S
C59 C61 1.479 . S
C59 H77 0.929 . S
C60 C57 1.424 . S
C60 C59 1.384 . S
C60 H78 0.928 . S
C61 C58 1.260 . S
C61 C59 1.479 . S
C62 C57 1.245 . S
C62 C58 1.477 . S
C62 H79 0.932 1_556 S
C63 U46 2.882 1_456 S
C63 C57 1.428 . S
C63 O66 1.301 1_556 S
C63 O67 1.282 . S
O64 U46 2.441 . S
O64 C50 1.249 1_554 S
O65 U46 2.420 1_556 S
O65 C50 1.202 . S
O66 U46 2.455 1_455 S
O66 C63 1.301 1_554 S
O67 U46 2.449 1_456 S
O67 C63 1.282 . S
H68 C41 0.931 . S
H69 C43 0.929 . S
H70 C44 0.930 . S
H71 C45 0.931 1_554 S
H72 C52 0.932 . S
H73 C53 0.930 . S
H74 C54 0.929 . S
H75 C56 0.930 . S
H76 C58 0.932 . S
H77 C59 0.929 . S
H78 C60 0.928 . S
H79 C62 0.932 1_554 S
C80 C81 1.264 . S
C80 C85 1.479 . S
C80 C90 1.465 . S
C81 C80 1.264 . S
C81 C83 1.339 . S
C81 H108 0.931 . S
C82 C83 1.395 . S
C82 C84 1.320 . S
C83 C81 1.339 . S
C83 C82 1.395 . S
C83 H109 0.929 . S
C84 C82 1.320 . S
C84 C85 1.405 . S
C84 H110 0.930 . S
C85 C80 1.479 . S
C85 C84 1.405 . S
C85 H111 0.931 . S
U86 O87 2.454 . S
U86 O88 2.458 . S
U86 C89 2.984 . S
U86 C90 2.847 . S
U86 C103 2.882 . S
U86 O104 2.441 . S
U86 O105 2.420 . S
U86 O106 2.455 . S
U86 O107 2.449 . S
O87 U86 2.454 . S
O87 C89 1.353 . S
O88 U86 2.458 . S
O88 C89 1.286 . S
C89 U86 2.984 . S
C89 O87 1.353 . S
C89 O88 1.286 . S
C89 C91 1.363 . S
C90 C80 1.465 . S
C90 U86 2.847 . S
C90 O104 1.249 . S
C90 O105 1.202 . S
C91 C89 1.363 . S
C91 C93 1.408 . S
C91 C96 1.342 . S
C92 C93 1.310 . S
C92 C95 1.461 . S
C92 H112 0.932 . S
C93 C91 1.408 . S
C93 C92 1.310 . S
C93 H113 0.930 . S
C94 C95 1.474 . S
C94 C96 1.285 . S
C94 H114 0.929 . S
C95 C92 1.461 . S
C95 C94 1.474 . S
C96 C91 1.342 . S
C96 C94 1.285 . S
C96 H115 0.930 . S
C97 C100 1.424 . S
C97 C102 1.245 . S
C97 C103 1.428 . S
C98 C101 1.260 . S
C98 C102 1.477 . S
C98 H116 0.932 . S
C99 C100 1.384 . S
C99 C101 1.479 . S
C99 H117 0.929 . S
C100 C97 1.424 . S
C100 C99 1.384 . S
C100 H118 0.928 . S
C101 C98 1.260 . S
C101 C99 1.479 . S
C102 C97 1.245 . S
C102 C98 1.477 . S
C102 H119 0.932 . S
C103 U86 2.882 . S
C103 C97 1.428 . S
C103 O106 1.301 . S
C103 O107 1.282 . S
O104 U86 2.441 . S
O104 C90 1.249 . S
O105 U86 2.420 . S
O105 C90 1.202 . S
O106 U86 2.455 . S
O106 C103 1.301 . S
O107 U86 2.449 . S
O107 C103 1.282 . S
H108 C81 0.931 . S
H109 C83 0.929 . S
H110 C84 0.930 . S
H111 C85 0.931 . S
H112 C92 0.932 . S
H113 C93 0.930 . S
H114 C94 0.929 . S
H115 C96 0.930 . S
H116 C98 0.932 . S
H117 C99 0.929 . S
H118 C100 0.928 . S
H119 C102 0.932 . S
C120 C121 1.264 . S
C120 C125 1.479 . S
C120 C130 1.465 . S
C121 C120 1.264 . S
C121 C123 1.339 . S
C121 H148 0.931 . S
C122 C123 1.395 . S
C122 C124 1.320 . S
C123 C121 1.339 . S
C123 C122 1.395 . S
C123 H149 0.929 . S
C124 C122 1.320 . S
C124 C125 1.405 . S
C124 H150 0.930 . S
C125 C120 1.479 . S
C125 C124 1.405 . S
C125 H151 0.931 . S
U126 O127 2.454 . S
U126 O128 2.458 . S
U126 C129 2.984 . S
U126 C130 2.847 . S
U126 C143 2.882 . S
U126 O144 2.441 . S
U126 O145 2.420 . S
U126 O146 2.455 . S
U126 O147 2.449 . S
O127 U126 2.454 . S
O127 C129 1.353 . S
O128 U126 2.458 . S
O128 C129 1.286 . S
C129 U126 2.984 . S
C129 O127 1.353 . S
C129 O128 1.286 . S
C129 C131 1.363 . S
C130 C120 1.465 . S
C130 U126 2.847 . S
C130 O144 1.249 . S
C130 O145 1.202 . S
C131 C129 1.363 . S
C131 C133 1.408 . S
C131 C136 1.342 . S
C132 C133 1.310 . S
C132 C135 1.461 . S
C132 H152 0.932 . S
C133 C131 1.408 . S
C133 C132 1.310 . S
C133 H153 0.930 . S
C134 C135 1.474 . S
C134 C136 1.285 . S
C134 H154 0.929 . S
C135 C132 1.461 . S
C135 C134 1.474 . S
C136 C131 1.342 . S
C136 C134 1.285 . S
C136 H155 0.930 . S
C137 C140 1.424 . S
C137 C142 1.245 . S
C137 C143 1.428 . S
C138 C141 1.260 . S
C138 C142 1.477 . S
C138 H156 0.932 . S
C139 C140 1.384 . S
C139 C141 1.479 . S
C139 H157 0.929 . S
C140 C137 1.424 . S
C140 C139 1.384 . S
C140 H158 0.928 . S
C141 C138 1.260 . S
C141 C139 1.479 . S
C142 C137 1.245 . S
C142 C138 1.477 . S
C142 H159 0.932 . S
C143 U126 2.882 . S
C143 C137 1.428 . S
C143 O146 1.301 . S
C143 O147 1.282 . S
O144 U126 2.441 . S
O144 C130 1.249 . S
O145 U126 2.420 . S
O145 C130 1.202 . S
O146 U126 2.455 . S
O146 C143 1.301 . S
O147 U126 2.449 . S
O147 C143 1.282 . S
H148 C121 0.931 . S
H149 C123 0.929 . S
H150 C124 0.930 . S
H151 C125 0.931 . S
H152 C132 0.932 . S
H153 C133 0.930 . S
H154 C134 0.929 . S
H155 C136 0.930 . S
H156 C138 0.932 . S
H157 C139 0.929 . S
H158 C140 0.928 . S
H159 C142 0.932 . S
Zn160 O166 1.920 . S
Zn160 O172 1.898 . S
Zn160 O175 1.905 1_455 S
Zn161 O169 1.905 . S
Zn161 O170 1.898 . S
Zn161 O178 1.920 . S
Zn162 O165 2.080 . S
Zn162 O168 2.114 1_545 S
Zn162 O171 2.120 1_545 S
Zn162 O173 2.120 . S
Zn162 O174 2.114 1_455 S
Zn162 O177 2.080 1_545 S
C163 O168 1.166 . S
C163 O169 1.182 . S
C164 O170 1.167 . S
C164 O171 1.299 . S
O165 Zn162 2.080 . S
O165 C179 1.305 . S
O166 Zn160 1.920 . S
O166 C179 1.234 . S
C167 O172 1.167 . S
C167 O173 1.299 . S
O168 Zn162 2.114 1_565 S
O168 C163 1.166 . S
O169 Zn161 1.905 . S
O169 C163 1.182 . S
O170 Zn161 1.898 . S
O170 C164 1.167 . S
O171 Zn162 2.120 1_565 S
O171 C164 1.299 . S
O172 Zn160 1.898 . S
O172 C167 1.167 . S
O173 Zn162 2.120 . S
O173 C167 1.299 . S
O174 Zn162 2.114 1_655 S
O174 C176 1.166 . S
O175 Zn160 1.905 1_655 S
O175 C176 1.182 . S
C176 O174 1.166 . S
C176 O175 1.182 . S
O177 Zn162 2.080 1_565 S
O177 C180 1.305 . S
O178 Zn161 1.920 . S
O178 C180 1.234 . S
C179 O165 1.305 . S
C179 O166 1.234 . S
C180 O177 1.305 . S
C180 O178 1.234 . S
Zn181 O187 1.920 . S
Zn181 O193 1.898 . S
Zn181 O196 1.905 . S
Zn182 O190 1.905 . S
Zn182 O191 1.898 . S
Zn182 O199 1.920 . S
Zn183 O186 2.080 . S
Zn183 O189 2.114 . S
Zn183 O192 2.120 . S
Zn183 O194 2.120 . S
Zn183 O195 2.114 . S
Zn183 O198 2.080 . S
C184 O189 1.166 . S
C184 O190 1.182 . S
C185 O191 1.167 . S
C185 O192 1.299 . S
O186 Zn183 2.080 . S
O186 C200 1.305 . S
O187 Zn181 1.920 . S
O187 C200 1.234 . S
C188 O193 1.167 . S
C188 O194 1.299 . S
O189 Zn183 2.114 . S
O189 C184 1.166 . S
O190 Zn182 1.905 . S
O190 C184 1.182 . S
O191 Zn182 1.898 . S
O191 C185 1.167 . S
O192 Zn183 2.120 . S
O192 C185 1.299 . S
O193 Zn181 1.898 . S
O193 C188 1.167 . S
O194 Zn183 2.120 . S
O194 C188 1.299 . S
O195 Zn183 2.114 . S
O195 C197 1.166 . S
O196 Zn181 1.905 . S
O196 C197 1.182 . S
C197 O195 1.166 . S
C197 O196 1.182 . S
O198 Zn183 2.080 . S
O198 C201 1.305 . S
O199 Zn182 1.920 . S
O199 C201 1.234 . S
C200 O186 1.305 . S
C200 O187 1.234 . S
C201 O198 1.305 . S
C201 O199 1.234 . S
H202 C208 0.930 . S
H203 C211 0.930 . S
H204 C212 0.930 . S
H205 C213 0.930 . S
H206 C216 0.930 . S
H207 C217 0.930 . S
C208 H202 0.930 . S
C208 C209 1.355 . S
C208 C210 1.415 . S
C209 C208 1.355 . S
C209 C211 1.419 . S
C210 C208 1.415 . S
C210 C215 1.425 . S
C210 C217 1.409 . S
C211 H203 0.930 . S
C211 C209 1.419 . S
C211 C212 1.362 . S
C212 H204 0.930 . S
C212 C211 1.362 . S
C212 C215 1.409 . S
C213 H205 0.930 . S
C213 C214 1.355 . S
C213 C215 1.415 . S
C214 C213 1.355 . S
C214 C216 1.419 . S
C215 C210 1.425 . S
C215 C212 1.409 . S
C215 C213 1.415 . S
C216 H206 0.930 . S
C216 C214 1.419 . S
C216 C217 1.362 . S
C217 H207 0.930 . S
C217 C210 1.409 . S
C217 C216 1.362 . S
H218 C224 0.930 . S
H219 C227 0.930 . S
H220 C228 0.930 . S
H221 C229 0.914 1_655 S
H222 C232 0.930 . S
H223 C233 0.930 . S
C224 H218 0.930 . S
C224 C225 1.355 1_455 S
C224 C226 1.415 . S
C225 C224 1.355 1_655 S
C225 C227 1.419 . S
C226 C224 1.415 . S
C226 C231 1.425 1_455 S
C226 C233 1.409 . S
C227 H219 0.930 . S
C227 C225 1.419 . S
C227 C228 1.362 . S
C228 H220 0.930 . S
C228 C227 1.362 . S
C228 C231 1.409 . S
C229 H221 0.914 1_455 S
C229 C230 1.372 . S
C229 C231 1.412 1_455 S
C230 C229 1.372 . S
C230 C232 1.419 . S
C231 C226 1.425 1_655 S
C231 C228 1.409 . S
C231 C229 1.412 1_655 S
C232 H222 0.930 . S
C232 C230 1.419 . S
C232 C233 1.362 . S
C233 H223 0.930 . S
C233 C226 1.409 . S
C233 C232 1.362 . S
H234 C240 0.930 . S
H235 C243 0.930 . S
H236 C244 0.930 . S
H237 C245 0.930 . S
H238 C248 0.930 . S
H239 C249 0.930 . S
C240 H234 0.930 . S
C240 C241 1.355 . S
C240 C242 1.415 . S
C241 C240 1.355 . S
C241 C243 1.419 . S
C242 C240 1.415 . S
C242 C247 1.425 . S
C242 C249 1.409 . S
C243 H235 0.930 . S
C243 C241 1.419 . S
C243 C244 1.362 . S
C244 H236 0.930 . S
C244 C243 1.362 . S
C244 C247 1.409 . S
C245 H237 0.930 . S
C245 C246 1.355 . S
C245 C247 1.415 . S
C246 C245 1.355 . S
C246 C248 1.419 . S
C247 C242 1.425 . S
C247 C244 1.409 . S
C247 C245 1.415 . S
C248 H238 0.930 . S
C248 C246 1.419 . S
C248 C249 1.362 . S
C249 H239 0.930 . S
C249 C242 1.409 . S
C249 C248 1.362 . S
H250 C256 0.930 . S
H251 C259 0.930 . S
H252 C260 0.930 . S
H253 C261 0.930 . S
H254 C264 0.930 . S
H255 C265 0.930 . S
C256 H250 0.930 . S
C256 C257 1.355 . S
C256 C258 1.415 . S
C257 C256 1.355 . S
C257 C259 1.419 . S
C258 C256 1.415 . S
C258 C263 1.425 . S
C258 C265 1.409 . S
C259 H251 0.930 . S
C259 C257 1.419 . S
C259 C260 1.362 . S
C260 H252 0.930 . S
C260 C259 1.362 . S
C260 C263 1.409 . S
C261 H253 0.930 . S
C261 C262 1.355 . S
C261 C263 1.415 . S
C262 C261 1.355 . S
C262 C264 1.419 . S
C263 C258 1.425 . S
C263 C260 1.409 . S
C263 C261 1.415 . S
C264 H254 0.930 . S
C264 C262 1.419 . S
C264 C265 1.362 . S
C265 H255 0.930 . S
C265 C258 1.409 . S
C265 C264 1.362 . S
H266 C272 0.930 . S
H267 C275 0.930 . S
H268 C276 0.930 . S
H269 C277 0.930 . S
H270 C280 0.930 . S
H271 C281 0.930 . S
C272 H266 0.930 . S
C272 C273 1.355 . S
C272 C274 1.415 . S
C273 C272 1.355 . S
C273 C275 1.419 . S
C274 C272 1.415 . S
C274 C279 1.425 . S
C274 C281 1.409 . S
C275 H267 0.930 . S
C275 C273 1.419 . S
C275 C276 1.362 . S
C276 H268 0.930 . S
C276 C275 1.362 . S
C276 C279 1.409 . S
C277 H269 0.930 . S
C277 C278 1.355 . S
C277 C279 1.415 . S
C278 C277 1.355 . S
C278 C280 1.419 . S
C279 C274 1.425 . S
C279 C276 1.409 . S
C279 C277 1.415 . S
C280 H270 0.930 . S
C280 C278 1.419 . S
C280 C281 1.362 . S
C281 H271 0.930 . S
C281 C274 1.409 . S
C281 C280 1.362 . S
H282 C288 0.930 . S
H283 C291 0.930 . S
H284 C292 0.930 . S
H285 C293 0.930 . S
H286 C296 0.930 . S
H287 C297 0.930 . S
C288 H282 0.930 . S
C288 C289 1.355 . S
C288 C290 1.415 . S
C289 C288 1.355 . S
C289 C291 1.419 . S
C290 C288 1.415 . S
C290 C295 1.425 . S
C290 C297 1.409 . S
C291 H283 0.930 . S
C291 C289 1.419 . S
C291 C292 1.362 . S
C292 H284 0.930 . S
C292 C291 1.362 . S
C292 C295 1.409 . S
C293 H285 0.930 . S
C293 C294 1.355 . S
C293 C295 1.415 . S
C294 C293 1.355 . S
C294 C296 1.419 . S
C295 C290 1.425 . S
C295 C292 1.409 . S
C295 C293 1.415 . S
C296 H286 0.930 . S
C296 C294 1.419 . S
C296 C297 1.362 . S
C297 H287 0.930 . S
C297 C290 1.409 . S
C297 C296 1.362 . S
H298 C304 0.930 . S
H299 C307 0.930 . S
H300 C308 0.930 . S
H301 C309 0.930 . S
H302 C312 0.930 . S
H303 C313 0.930 . S
C304 H298 0.930 . S
C304 C305 1.355 . S
C304 C306 1.415 . S
C305 C304 1.355 . S
C305 C307 1.419 . S
C306 C304 1.415 . S
C306 C311 1.425 . S
C306 C313 1.409 . S
C307 H299 0.930 . S
C307 C305 1.419 . S
C307 C308 1.362 . S
C308 H300 0.930 . S
C308 C307 1.362 . S
C308 C311 1.409 . S
C309 H301 0.930 . S
C309 C310 1.355 . S
C309 C311 1.415 . S
C310 C309 1.355 . S
C310 C312 1.419 . S
C311 C306 1.425 . S
C311 C308 1.409 . S
C311 C309 1.415 . S
C312 H302 0.930 . S
C312 C310 1.419 . S
C312 C313 1.362 . S
C313 H303 0.930 . S
C313 C306 1.409 . S
C313 C312 1.362 . S
H314 C320 0.930 . S
H315 C323 0.930 . S
H316 C324 0.930 . S
H317 C325 0.930 . S
H318 C328 0.930 . S
H319 C329 0.930 . S
C320 H314 0.930 . S
C320 C321 1.355 . S
C320 C322 1.415 . S
C321 C320 1.355 . S
C321 C323 1.419 . S
C322 C320 1.415 . S
C322 C327 1.425 . S
C322 C329 1.409 . S
C323 H315 0.930 . S
C323 C321 1.419 . S
C323 C324 1.362 . S
C324 H316 0.930 . S
C324 C323 1.362 . S
C324 C327 1.409 . S
C325 H317 0.930 . S
C325 C326 1.355 . S
C325 C327 1.415 . S
C326 C325 1.355 . S
C326 C328 1.419 . S
C327 C322 1.425 . S
C327 C324 1.409 . S
C327 C325 1.415 . S
C328 H318 0.930 . S
C328 C326 1.419 . S
C328 C329 1.362 . S
C329 H319 0.930 . S
C329 C322 1.409 . S
C329 C328 1.362 . S
H330 C336 0.930 . S
H331 C339 0.930 . S
H332 C340 0.930 . S
H333 C341 0.930 . S
H334 C344 0.930 . S
H335 C345 0.930 . S
C336 H330 0.930 . S
C336 C337 1.355 . S
C336 C338 1.415 . S
C337 C336 1.355 . S
C337 C339 1.419 . S
C338 C336 1.415 . S
C338 C343 1.425 . S
C338 C345 1.409 . S
C339 H331 0.930 . S
C339 C337 1.419 . S
C339 C340 1.362 . S
C340 H332 0.930 . S
C340 C339 1.362 . S
C340 C343 1.409 . S
C341 H333 0.930 . S
C341 C342 1.355 . S
C341 C343 1.415 . S
C342 C341 1.355 . S
C342 C344 1.419 . S
C343 C338 1.425 . S
C343 C340 1.409 . S
C343 C341 1.415 . S
C344 H334 0.930 . S
C344 C342 1.419 . S
C344 C345 1.362 . S
C345 H335 0.930 . S
C345 C338 1.409 . S
C345 C344 1.362 . S
H346 C352 0.930 . S
H347 C355 0.930 . S
H348 C356 0.930 . S
H349 C357 0.930 . S
H350 C360 0.930 . S
H351 C361 0.930 . S
C352 H346 0.930 . S
C352 C353 1.355 . S
C352 C354 1.415 . S
C353 C352 1.355 . S
C353 C355 1.419 . S
C354 C352 1.415 . S
C354 C359 1.425 . S
C354 C361 1.409 . S
C355 H347 0.930 . S
C355 C353 1.419 . S
C355 C356 1.362 . S
C356 H348 0.930 . S
C356 C355 1.362 . S
C356 C359 1.409 . S
C357 H349 0.930 . S
C357 C358 1.355 . S
C357 C359 1.415 . S
C358 C357 1.355 . S
C358 C360 1.419 . S
C359 C354 1.425 . S
C359 C356 1.409 . S
C359 C357 1.415 . S
C360 H350 0.930 . S
C360 C358 1.419 . S
C360 C361 1.362 . S
C361 H351 0.930 . S
C361 C354 1.409 . S
C361 C360 1.362 . S
H362 C368 0.930 . S
H363 C371 0.930 . S
H364 C372 0.930 . S
H365 C373 0.930 . S
H366 C376 0.930 . S
H367 C377 0.930 . S
C368 H362 0.930 . S
C368 C369 1.355 . S
C368 C370 1.415 . S
C369 C368 1.355 . S
C369 C371 1.419 . S
C370 C368 1.415 . S
C370 C375 1.425 . S
C370 C377 1.409 . S
C371 H363 0.930 . S
C371 C369 1.419 . S
C371 C372 1.362 . S
C372 H364 0.930 . S
C372 C371 1.362 . S
C372 C375 1.409 . S
C373 H365 0.930 . S
C373 C374 1.355 . S
C373 C375 1.415 . S
C374 C373 1.355 . S
C374 C376 1.419 . S
C375 C370 1.425 . S
C375 C372 1.409 . S
C375 C373 1.415 . S
C376 H366 0.930 . S
C376 C374 1.419 . S
C376 C377 1.362 . S
C377 H367 0.930 . S
C377 C370 1.409 . S
C377 C376 1.362 . S
H378 C384 0.930 . S
H379 C387 0.930 . S
H380 C388 0.930 . S
H381 C389 0.930 . S
H382 C392 0.930 . S
H383 C393 0.930 . S
C384 H378 0.930 . S
C384 C385 1.355 . S
C384 C386 1.415 . S
C385 C384 1.355 . S
C385 C387 1.419 . S
C386 C384 1.415 . S
C386 C391 1.425 . S
C386 C393 1.409 . S
C387 H379 0.930 . S
C387 C385 1.419 . S
C387 C388 1.362 . S
C388 H380 0.930 . S
C388 C387 1.362 . S
C388 C391 1.409 . S
C389 H381 0.930 . S
C389 C390 1.355 . S
C389 C391 1.415 . S
C390 C389 1.355 . S
C390 C392 1.419 . S
C391 C386 1.425 . S
C391 C388 1.409 . S
C391 C389 1.415 . S
C392 H382 0.930 . S
C392 C390 1.419 . S
C392 C393 1.362 . S
C393 H383 0.930 . S
C393 C386 1.409 . S
C393 C392 1.362 . S
C214 C167 1.520 . S
C209 C15 1.553 . S
C230 C163 1.481 . S
C225 C55 1.567 . S
C246 C188 1.488 . S
C241 C95 1.572 . S
C257 C135 1.574 . S
C262 C184 1.453 . S
C273 C21 1.191 . S
C278 C185 1.029 . S
C294 C200 1.048 . S
C289 C42 1.311 . S
C305 C2 1.670 . S
C310 C201 1.503 . S
C326 C197 1.596 . S
C321 C61 1.745 . S
C342 C164 1.171 1_655 S
C337 C101 1.276 . S
C353 C122 1.325 . S
C358 C179 1.149 . S
C374 C180 1.601 . S
C369 C82 1.692 . S
C390 C176 1.529 . S
C385 C141 1.727 . S
