# Generated by pormake.
# Topology iac, (4,6)-cn, num edge types: 1
# Building blocks:
#     Node 0, Type 0, BuildingBlock: GALJAG_clean_sbu_0, # of connection points: 4
#     Node 1, Type 0, BuildingBlock: GALJAG_clean_sbu_0, # of connection points: 4
#     Node 2, Type 0, BuildingBlock: GALJAG_clean_sbu_0, # of connection points: 4
#     Node 3, Type 0, BuildingBlock: GALJAG_clean_sbu_0, # of connection points: 4
#     Node 4, Type 0, BuildingBlock: GALJAG_clean_sbu_0, # of connection points: 4
#     Node 5, Type 0, BuildingBlock: GALJAG_clean_sbu_0, # of connection points: 4
#     Node 6, Type 0, BuildingBlock: GALJAG_clean_sbu_0, # of connection points: 4
#     Node 7, Type 0, BuildingBlock: GALJAG_clean_sbu_0, # of connection points: 4
#     Node 8, Type 0, BuildingBlock: GALJAG_clean_sbu_0, # of connection points: 4
#     Node 9, Type 0, BuildingBlock: GALJAG_clean_sbu_0, # of connection points: 4
#     Node 10, Type 0, BuildingBlock: GALJAG_clean_sbu_0, # of connection points: 4
#     Node 11, Type 0, BuildingBlock: GALJAG_clean_sbu_0, # of connection points: 4
#     Node 12, Type 0, BuildingBlock: GALJAG_clean_sbu_0, # of connection points: 4
#     Node 13, Type 0, BuildingBlock: GALJAG_clean_sbu_0, # of connection points: 4
#     Node 14, Type 0, BuildingBlock: GALJAG_clean_sbu_0, # of connection points: 4
#     Node 15, Type 0, BuildingBlock: GALJAG_clean_sbu_0, # of connection points: 4
#     Node 16, Type 0, BuildingBlock: GALJAG_clean_sbu_0, # of connection points: 4
#     Node 17, Type 0, BuildingBlock: GALJAG_clean_sbu_0, # of connection points: 4
#     Node 18, Type 0, BuildingBlock: GALJAG_clean_sbu_0, # of connection points: 4
#     Node 19, Type 0, BuildingBlock: GALJAG_clean_sbu_0, # of connection points: 4
#     Node 20, Type 0, BuildingBlock: GALJAG_clean_sbu_0, # of connection points: 4
#     Node 21, Type 0, BuildingBlock: GALJAG_clean_sbu_0, # of connection points: 4
#     Node 22, Type 0, BuildingBlock: GALJAG_clean_sbu_0, # of connection points: 4
#     Node 23, Type 0, BuildingBlock: GALJAG_clean_sbu_0, # of connection points: 4
#     Node 24, Type 1, BuildingBlock: JUFBIX_clean_sbu_0, # of connection points: 6
#     Node 25, Type 1, BuildingBlock: JUFBIX_clean_sbu_0, # of connection points: 6
#     Node 26, Type 1, BuildingBlock: JUFBIX_clean_sbu_0, # of connection points: 6
#     Node 27, Type 1, BuildingBlock: JUFBIX_clean_sbu_0, # of connection points: 6
#     Node 28, Type 1, BuildingBlock: JUFBIX_clean_sbu_0, # of connection points: 6
#     Node 29, Type 1, BuildingBlock: JUFBIX_clean_sbu_0, # of connection points: 6
#     Node 30, Type 1, BuildingBlock: JUFBIX_clean_sbu_0, # of connection points: 6
#     Node 31, Type 1, BuildingBlock: JUFBIX_clean_sbu_0, # of connection points: 6
#     Node 32, Type 1, BuildingBlock: JUFBIX_clean_sbu_0, # of connection points: 6
#     Node 33, Type 1, BuildingBlock: JUFBIX_clean_sbu_0, # of connection points: 6
#     Node 34, Type 1, BuildingBlock: JUFBIX_clean_sbu_0, # of connection points: 6
#     Node 35, Type 1, BuildingBlock: JUFBIX_clean_sbu_0, # of connection points: 6
#     Node 36, Type 1, BuildingBlock: JUFBIX_clean_sbu_0, # of connection points: 6
#     Node 37, Type 1, BuildingBlock: JUFBIX_clean_sbu_0, # of connection points: 6
#     Node 38, Type 1, BuildingBlock: JUFBIX_clean_sbu_0, # of connection points: 6
#     Node 39, Type 1, BuildingBlock: JUFBIX_clean_sbu_0, # of connection points: 6
#     Edge 40, Type (0, 1), BuildingBlock: EZIPEK_clean_linker_0, # of connection points: 2
#     Edge 41, Type (0, 1), BuildingBlock: EZIPEK_clean_linker_0, # of connection points: 2
#     Edge 42, Type (0, 1), BuildingBlock: EZIPEK_clean_linker_0, # of connection points: 2
#     Edge 43, Type (0, 1), BuildingBlock: EZIPEK_clean_linker_0, # of connection points: 2
#     Edge 44, Type (0, 1), BuildingBlock: EZIPEK_clean_linker_0, # of connection points: 2
#     Edge 45, Type (0, 1), BuildingBlock: EZIPEK_clean_linker_0, # of connection points: 2
#     Edge 46, Type (0, 1), BuildingBlock: EZIPEK_clean_linker_0, # of connection points: 2
#     Edge 47, Type (0, 1), BuildingBlock: EZIPEK_clean_linker_0, # of connection points: 2
#     Edge 48, Type (0, 1), BuildingBlock: EZIPEK_clean_linker_0, # of connection points: 2
#     Edge 49, Type (0, 1), BuildingBlock: EZIPEK_clean_linker_0, # of connection points: 2
#     Edge 50, Type (0, 1), BuildingBlock: EZIPEK_clean_linker_0, # of connection points: 2
#     Edge 51, Type (0, 1), BuildingBlock: EZIPEK_clean_linker_0, # of connection points: 2
#     Edge 52, Type (0, 1), BuildingBlock: EZIPEK_clean_linker_0, # of connection points: 2
#     Edge 53, Type (0, 1), BuildingBlock: EZIPEK_clean_linker_0, # of connection points: 2
#     Edge 54, Type (0, 1), BuildingBlock: EZIPEK_clean_linker_0, # of connection points: 2
#     Edge 55, Type (0, 1), BuildingBlock: EZIPEK_clean_linker_0, # of connection points: 2
#     Edge 56, Type (0, 1), BuildingBlock: EZIPEK_clean_linker_0, # of connection points: 2
#     Edge 57, Type (0, 1), BuildingBlock: EZIPEK_clean_linker_0, # of connection points: 2
#     Edge 58, Type (0, 1), BuildingBlock: EZIPEK_clean_linker_0, # of connection points: 2
#     Edge 59, Type (0, 1), BuildingBlock: EZIPEK_clean_linker_0, # of connection points: 2
#     Edge 60, Type (0, 1), BuildingBlock: EZIPEK_clean_linker_0, # of connection points: 2
#     Edge 61, Type (0, 1), BuildingBlock: EZIPEK_clean_linker_0, # of connection points: 2
#     Edge 62, Type (0, 1), BuildingBlock: EZIPEK_clean_linker_0, # of connection points: 2
#     Edge 63, Type (0, 1), BuildingBlock: EZIPEK_clean_linker_0, # of connection points: 2
#     Edge 64, Type (0, 1), BuildingBlock: EZIPEK_clean_linker_0, # of connection points: 2
#     Edge 65, Type (0, 1), BuildingBlock: EZIPEK_clean_linker_0, # of connection points: 2
#     Edge 66, Type (0, 1), BuildingBlock: EZIPEK_clean_linker_0, # of connection points: 2
#     Edge 67, Type (0, 1), BuildingBlock: EZIPEK_clean_linker_0, # of connection points: 2
#     Edge 68, Type (0, 1), BuildingBlock: EZIPEK_clean_linker_0, # of connection points: 2
#     Edge 69, Type (0, 1), BuildingBlock: EZIPEK_clean_linker_0, # of connection points: 2
#     Edge 70, Type (0, 1), BuildingBlock: EZIPEK_clean_linker_0, # of connection points: 2
#     Edge 71, Type (0, 1), BuildingBlock: EZIPEK_clean_linker_0, # of connection points: 2
#     Edge 72, Type (0, 1), BuildingBlock: EZIPEK_clean_linker_0, # of connection points: 2
#     Edge 73, Type (0, 1), BuildingBlock: EZIPEK_clean_linker_0, # of connection points: 2
#     Edge 74, Type (0, 1), BuildingBlock: EZIPEK_clean_linker_0, # of connection points: 2
#     Edge 75, Type (0, 1), BuildingBlock: EZIPEK_clean_linker_0, # of connection points: 2
#     Edge 76, Type (0, 1), BuildingBlock: EZIPEK_clean_linker_0, # of connection points: 2
#     Edge 77, Type (0, 1), BuildingBlock: EZIPEK_clean_linker_0, # of connection points: 2
#     Edge 78, Type (0, 1), BuildingBlock: EZIPEK_clean_linker_0, # of connection points: 2
#     Edge 79, Type (0, 1), BuildingBlock: EZIPEK_clean_linker_0, # of connection points: 2
#     Edge 80, Type (0, 1), BuildingBlock: EZIPEK_clean_linker_0, # of connection points: 2
#     Edge 81, Type (0, 1), BuildingBlock: EZIPEK_clean_linker_0, # of connection points: 2
#     Edge 82, Type (0, 1), BuildingBlock: EZIPEK_clean_linker_0, # of connection points: 2
#     Edge 83, Type (0, 1), BuildingBlock: EZIPEK_clean_linker_0, # of connection points: 2
#     Edge 84, Type (0, 1), BuildingBlock: EZIPEK_clean_linker_0, # of connection points: 2
#     Edge 85, Type (0, 1), BuildingBlock: EZIPEK_clean_linker_0, # of connection points: 2
#     Edge 86, Type (0, 1), BuildingBlock: EZIPEK_clean_linker_0, # of connection points: 2
#     Edge 87, Type (0, 1), BuildingBlock: EZIPEK_clean_linker_0, # of connection points: 2
#     Edge 88, Type (0, 1), BuildingBlock: EZIPEK_clean_linker_0, # of connection points: 2
#     Edge 89, Type (0, 1), BuildingBlock: EZIPEK_clean_linker_0, # of connection points: 2
#     Edge 90, Type (0, 1), BuildingBlock: EZIPEK_clean_linker_0, # of connection points: 2
#     Edge 91, Type (0, 1), BuildingBlock: EZIPEK_clean_linker_0, # of connection points: 2
#     Edge 92, Type (0, 1), BuildingBlock: EZIPEK_clean_linker_0, # of connection points: 2
#     Edge 93, Type (0, 1), BuildingBlock: EZIPEK_clean_linker_0, # of connection points: 2
#     Edge 94, Type (0, 1), BuildingBlock: EZIPEK_clean_linker_0, # of connection points: 2
#     Edge 95, Type (0, 1), BuildingBlock: EZIPEK_clean_linker_0, # of connection points: 2
#     Edge 96, Type (0, 1), BuildingBlock: EZIPEK_clean_linker_0, # of connection points: 2
#     Edge 97, Type (0, 1), BuildingBlock: EZIPEK_clean_linker_0, # of connection points: 2
#     Edge 98, Type (0, 1), BuildingBlock: EZIPEK_clean_linker_0, # of connection points: 2
#     Edge 99, Type (0, 1), BuildingBlock: EZIPEK_clean_linker_0, # of connection points: 2
#     Edge 100, Type (0, 1), BuildingBlock: EZIPEK_clean_linker_0, # of connection points: 2
#     Edge 101, Type (0, 1), BuildingBlock: EZIPEK_clean_linker_0, # of connection points: 2
#     Edge 102, Type (0, 1), BuildingBlock: EZIPEK_clean_linker_0, # of connection points: 2
#     Edge 103, Type (0, 1), BuildingBlock: EZIPEK_clean_linker_0, # of connection points: 2
#     Edge 104, Type (0, 1), BuildingBlock: EZIPEK_clean_linker_0, # of connection points: 2
#     Edge 105, Type (0, 1), BuildingBlock: EZIPEK_clean_linker_0, # of connection points: 2
#     Edge 106, Type (0, 1), BuildingBlock: EZIPEK_clean_linker_0, # of connection points: 2
#     Edge 107, Type (0, 1), BuildingBlock: EZIPEK_clean_linker_0, # of connection points: 2
#     Edge 108, Type (0, 1), BuildingBlock: EZIPEK_clean_linker_0, # of connection points: 2
#     Edge 109, Type (0, 1), BuildingBlock: EZIPEK_clean_linker_0, # of connection points: 2
#     Edge 110, Type (0, 1), BuildingBlock: EZIPEK_clean_linker_0, # of connection points: 2
#     Edge 111, Type (0, 1), BuildingBlock: EZIPEK_clean_linker_0, # of connection points: 2
#     Edge 112, Type (0, 1), BuildingBlock: EZIPEK_clean_linker_0, # of connection points: 2
#     Edge 113, Type (0, 1), BuildingBlock: EZIPEK_clean_linker_0, # of connection points: 2
#     Edge 114, Type (0, 1), BuildingBlock: EZIPEK_clean_linker_0, # of connection points: 2
#     Edge 115, Type (0, 1), BuildingBlock: EZIPEK_clean_linker_0, # of connection points: 2
#     Edge 116, Type (0, 1), BuildingBlock: EZIPEK_clean_linker_0, # of connection points: 2
#     Edge 117, Type (0, 1), BuildingBlock: EZIPEK_clean_linker_0, # of connection points: 2
#     Edge 118, Type (0, 1), BuildingBlock: EZIPEK_clean_linker_0, # of connection points: 2
#     Edge 119, Type (0, 1), BuildingBlock: EZIPEK_clean_linker_0, # of connection points: 2
#     Edge 120, Type (0, 1), BuildingBlock: EZIPEK_clean_linker_0, # of connection points: 2
#     Edge 121, Type (0, 1), BuildingBlock: EZIPEK_clean_linker_0, # of connection points: 2
#     Edge 122, Type (0, 1), BuildingBlock: EZIPEK_clean_linker_0, # of connection points: 2
#     Edge 123, Type (0, 1), BuildingBlock: EZIPEK_clean_linker_0, # of connection points: 2
#     Edge 124, Type (0, 1), BuildingBlock: EZIPEK_clean_linker_0, # of connection points: 2
#     Edge 125, Type (0, 1), BuildingBlock: EZIPEK_clean_linker_0, # of connection points: 2
#     Edge 126, Type (0, 1), BuildingBlock: EZIPEK_clean_linker_0, # of connection points: 2
#     Edge 127, Type (0, 1), BuildingBlock: EZIPEK_clean_linker_0, # of connection points: 2
#     Edge 128, Type (0, 1), BuildingBlock: EZIPEK_clean_linker_0, # of connection points: 2
#     Edge 129, Type (0, 1), BuildingBlock: EZIPEK_clean_linker_0, # of connection points: 2
#     Edge 130, Type (0, 1), BuildingBlock: EZIPEK_clean_linker_0, # of connection points: 2
#     Edge 131, Type (0, 1), BuildingBlock: EZIPEK_clean_linker_0, # of connection points: 2
#     Edge 132, Type (0, 1), BuildingBlock: EZIPEK_clean_linker_0, # of connection points: 2
#     Edge 133, Type (0, 1), BuildingBlock: EZIPEK_clean_linker_0, # of connection points: 2
#     Edge 134, Type (0, 1), BuildingBlock: EZIPEK_clean_linker_0, # of connection points: 2
#     Edge 135, Type (0, 1), BuildingBlock: EZIPEK_clean_linker_0, # of connection points: 2
# Relax obj value: 0.283
# Max RMSD: 0.244
# Mean RMSD: 0.156
data_MOF--net-iac--node1-GALJAG_clean_sbu_0--node2-JUFBIX_clean_sbu_0--edge1-EZIPEK_clean_linker_0
_symmetry_space_group_name_H-M    P1
_symmetry_Int_Tables_number       1
_symmetry_cell_setting            triclinic
loop_
_symmetry_equiv_pos_as_xyz
'x, y, z'
_cell_length_a     40.232699
_cell_length_b     41.4696
_cell_length_c     41.113342
_cell_angle_alpha  89.005132
_cell_angle_beta   87.587655
_cell_angle_gamma 88.047557
loop_
_atom_site_label
_atom_site_type_symbol
_atom_site_fract_x
_atom_site_fract_y
_atom_site_fract_z
_atom_type_partial_charge
In0 In 0.04491 0.28598 0.16228 0.0
O1 O 0.03682 0.24993 0.11819 0.0
O2 O 0.04795 0.22828 0.16261 0.0
C3 C 0.04906 0.34589 0.12706 0.0
C4 C 0.98205 0.29076 0.19486 0.0
C5 C 0.10239 0.28801 0.19984 0.0
O6 O 0.05899 0.31889 0.11554 0.0
O7 O 0.03734 0.34276 0.15593 0.0
O8 O 0.07293 0.28751 0.21165 0.0
O9 O 0.10343 0.28721 0.16905 0.0
C10 C 0.0411 0.22342 0.13345 0.0
O11 O 0.00868 0.28298 0.20868 0.0
O12 O 0.98696 0.29619 0.16472 0.0
In13 In 0.05798 0.77799 0.44128 0.0
O14 O 0.09477 0.78221 0.39862 0.0
O15 O 0.11432 0.78065 0.44615 0.0
C16 C 0.0104 0.789 0.39832 0.0
C17 C 0.06226 0.71685 0.46316 0.0
C18 C 0.03792 0.82311 0.48461 0.0
O19 O 0.03523 0.80653 0.39962 0.0
O20 O 0.00972 0.76545 0.41811 0.0
O21 O 0.02291 0.79725 0.48181 0.0
O22 O 0.06371 0.82596 0.46637 0.0
C23 C 0.12007 0.78176 0.4157 0.0
O24 O 0.05702 0.74025 0.48211 0.0
O25 O 0.0651 0.72438 0.43337 0.0
In26 In 0.54065 0.78899 0.66313 0.0
O27 O 0.5515 0.82516 0.61807 0.0
O28 O 0.53067 0.84545 0.66076 0.0
C29 C 0.53655 0.72697 0.63381 0.0
C30 C 0.59959 0.78905 0.69887 0.0
C31 C 0.47761 0.7917 0.69375 0.0
O32 O 0.53918 0.75328 0.61782 0.0
O33 O 0.53672 0.73177 0.66411 0.0
O34 O 0.50417 0.78847 0.70908 0.0
O35 O 0.48267 0.79312 0.66321 0.0
C36 C 0.54098 0.8509 0.63187 0.0
O37 O 0.57067 0.79475 0.71101 0.0
O38 O 0.59896 0.78289 0.66886 0.0
In39 In 0.55865 0.29024 0.93144 0.0
O40 O 0.59289 0.31985 0.89865 0.0
O41 O 0.61407 0.28003 0.92509 0.0
C42 C 0.51735 0.28795 0.88226 0.0
C43 C 0.56414 0.23027 0.95568 0.0
C44 C 0.53241 0.33446 0.97275 0.0
O45 O 0.54288 0.3047 0.88058 0.0
O46 O 0.51273 0.27238 0.90853 0.0
O47 O 0.56351 0.33021 0.96852 0.0
O48 O 0.51506 0.31603 0.95707 0.0
C49 C 0.61821 0.30212 0.904 0.0
O50 O 0.55868 0.25425 0.9739 0.0
O51 O 0.56778 0.23672 0.92573 0.0
In52 In 0.16735 0.00929 0.31734 0.0
O53 O 0.22095 0.99703 0.30163 0.0
O54 O 0.19299 0.96206 0.32863 0.0
C55 C 0.19229 0.06605 0.32841 0.0
C56 C 0.13724 0.99729 0.26323 0.0
C57 C 0.12009 0.00604 0.36432 0.0
O58 O 0.18594 0.04614 0.35108 0.0
O59 O 0.18576 0.05765 0.30011 0.0
O60 O 0.11376 0.01546 0.33592 0.0
O61 O 0.14985 0.99694 0.36846 0.0
C62 C 0.22012 0.96921 0.31429 0.0
O63 O 0.14756 0.97486 0.2817 0.0
O64 O 0.14197 0.02571 0.27204 0.0
In65 In 0.2721 0.88083 0.57021 0.0
O66 O 0.23736 0.91803 0.59513 0.0
O67 O 0.22542 0.90219 0.54798 0.0
C68 C 0.31817 0.92575 0.56574 0.0
C69 C 0.257 0.83506 0.61445 0.0
C70 C 0.30082 0.84455 0.52329 0.0
O71 O 0.29764 0.92174 0.54398 0.0
O72 O 0.31506 0.90766 0.59074 0.0
O73 O 0.3147 0.84943 0.54957 0.0
O74 O 0.27194 0.85712 0.52086 0.0
C75 C 0.21804 0.9204 0.57174 0.0
O76 O 0.24298 0.83727 0.58761 0.0
O77 O 0.27824 0.85605 0.61921 0.0
In78 In 0.38615 0.07365 0.76816 0.0
O79 O 0.34741 0.10083 0.73954 0.0
O80 O 0.35974 0.11955 0.78558 0.0
C81 C 0.34346 0.02647 0.77517 0.0
C82 C 0.42788 0.0841 0.71777 0.0
C83 C 0.42788 0.05673 0.81481 0.0
O84 O 0.34181 0.05048 0.79361 0.0
O85 O 0.36667 0.02633 0.75358 0.0
O86 O 0.42466 0.04001 0.78997 0.0
O87 O 0.41024 0.08251 0.81629 0.0
C88 C 0.34227 0.1222 0.76074 0.0
O89 O 0.42704 0.10208 0.74229 0.0
O90 O 0.40757 0.06162 0.71858 0.0
In91 In 0.28015 0.16781 0.04448 0.0
O92 O 0.31572 0.12373 0.03102 0.0
O93 O 0.33725 0.16317 0.05236 0.0
C94 C 0.22149 0.13209 0.04435 0.0
C95 C 0.28235 0.1977 0.10639 0.0
C96 C 0.28261 0.20108 0.98344 0.0
O97 O 0.24978 0.12031 0.05103 0.0
O98 O 0.22204 0.16225 0.03913 0.0
O99 O 0.27483 0.2146 0.01025 0.0
O100 O 0.28897 0.17133 0.98746 0.0
C101 C 0.34206 0.13535 0.04074 0.0
O102 O 0.28371 0.21295 0.07939 0.0
O103 O 0.2787 0.16785 0.1024 0.0
In104 In 0.75748 0.41182 0.05155 0.0
O105 O 0.74849 0.37084 0.08798 0.0
O106 O 0.7531 0.41807 0.10635 0.0
C107 C 0.77586 0.36623 0.00821 0.0
C108 C 0.70169 0.44764 0.04368 0.0
C109 C 0.81169 0.44655 0.04021 0.0
O110 O 0.78934 0.36858 0.03506 0.0
O111 O 0.75198 0.38607 1.00339 0.0
O112 O 0.78782 0.44748 0.02135 0.0
O113 O 0.80796 0.42896 0.06528 0.0
C114 C 0.74989 0.38843 0.11255 0.0
O115 O 0.72921 0.45961 0.04922 0.0
O116 O 0.702 0.4172 0.04206 0.0
In117 In 0.91425 0.56942 0.25956 0.0
O118 O 0.9582 0.58746 0.22981 0.0
O119 O 0.9261 0.55438 0.2082 0.0
C120 C 0.95335 0.55945 0.30925 0.0
C121 C 0.8777 0.62236 0.25049 0.0
C122 C 0.87405 0.52229 0.27818 0.0
O123 O 0.95516 0.54184 0.28455 0.0
O124 O 0.93334 0.58349 0.30805 0.0
O125 O 0.87007 0.55044 0.28902 0.0
O126 O 0.89727 0.51822 0.25694 0.0
C127 C 0.95146 0.57139 0.20535 0.0
O128 O 0.87185 0.59668 0.23608 0.0
O129 O 0.90177 0.62124 0.26917 0.0
In130 In 0.78499 0.66911 0.54032 0.0
O131 O 0.81797 0.62149 0.53963 0.0
O132 O 0.84348 0.66495 0.5407 0.0
C133 C 0.72599 0.63357 0.53952 0.0
C134 C 0.78873 0.69779 0.60269 0.0
C135 C 0.78415 0.70433 0.47988 0.0
O136 O 0.75453 0.62264 0.53062 0.0
O137 O 0.72678 0.66239 0.54903 0.0
O138 O 0.77196 0.71516 0.50659 0.0
O139 O 0.79675 0.6763 0.48363 0.0
C140 C 0.84585 0.63449 0.5403 0.0
O141 O 0.79156 0.71325 0.57591 0.0
O142 O 0.78349 0.66833 0.59821 0.0
In143 In 0.67326 0.50356 0.81677 0.0
O144 O 0.72673 0.48996 0.80301 0.0
O145 O 0.69736 0.45399 0.82665 0.0
C146 C 0.69868 0.56054 0.82692 0.0
C147 C 0.6443 0.49312 0.76129 0.0
C148 C 0.62058 0.50858 0.85845 0.0
O149 O 0.69484 0.53998 0.84968 0.0
O150 O 0.6898 0.55234 0.7993 0.0
O151 O 0.6203 0.51846 0.8294 0.0
O152 O 0.64761 0.49511 0.86696 0.0
C153 C 0.7249 0.46131 0.81314 0.0
O154 O 0.64361 0.47271 0.78444 0.0
O155 O 0.66037 0.51811 0.76578 0.0
In156 In 0.03283 0.78998 0.91929 0.0
O157 O 0.06739 0.7891 0.8724 0.0
O158 O 0.09093 0.78992 0.91722 0.0
C159 C 0.97427 0.78861 0.88342 0.0
C160 C 0.03507 0.72833 0.95114 0.0
C161 C 0.03574 0.85236 0.94779 0.0
O162 O 1.00337 0.78411 0.8713 0.0
O163 O 0.9742 0.79402 0.91366 0.0
O164 O 0.03825 0.82597 0.9637 0.0
O165 O 0.03095 0.84751 0.9181 0.0
C166 C 0.09466 0.78894 0.88659 0.0
O167 O 0.0229 0.75367 0.96456 0.0
O168 O 0.04551 0.73405 0.92236 0.0
In169 In 0.02085 0.29707 0.64376 0.0
O170 O 0.99931 0.32982 0.60374 0.0
O171 O 0.02125 0.35106 0.6441 0.0
C172 C 0.05324 0.25899 0.60003 0.0
C173 C 0.06494 0.29316 0.69049 0.0
C174 C 0.9628 0.28653 0.67523 0.0
O175 O 0.06079 0.2878 0.60401 0.0
O176 O 0.02874 0.24945 0.61737 0.0
O177 O 0.98517 0.30299 0.68653 0.0
O178 O 0.9692 0.27514 0.64725 0.0
C179 C 0.00737 0.35525 0.61744 0.0
O180 O 0.04352 0.27197 0.6876 0.0
O181 O 0.06478 0.31542 0.66923 0.0
In182 In 0.53422 0.29331 0.41989 0.0
O183 O 0.56797 0.2998 0.37247 0.0
O184 O 0.59248 0.28685 0.4153 0.0
C185 C 0.47568 0.29096 0.38333 0.0
C186 C 0.53424 0.23381 0.45645 0.0
C187 C 0.53929 0.35515 0.44916 0.0
O188 O 0.50383 0.27933 0.37413 0.0
O189 O 0.47664 0.30383 0.41092 0.0
O190 O 0.53333 0.32937 0.46506 0.0
O191 O 0.54187 0.34993 0.41897 0.0
C192 C 0.59556 0.2935 0.38519 0.0
O193 O 0.5222 0.26035 0.46728 0.0
O194 O 0.54624 0.23726 0.42777 0.0
In195 In 0.51246 0.8094 0.13735 0.0
O196 O 0.54947 0.7979 0.09591 0.0
O197 O 0.50791 0.76757 0.10263 0.0
C198 C 0.50718 0.87039 0.11758 0.0
C199 C 0.45426 0.80262 0.17035 0.0
C200 C 0.56127 0.79667 0.17758 0.0
O201 O 0.50044 0.84733 0.09969 0.0
O202 O 0.51679 0.86283 0.1456 0.0
O203 O 0.54278 0.77498 0.1682 0.0
O204 O 0.55512 0.82489 0.1669 0.0
C205 C 0.53468 0.77361 0.08683 0.0
O206 O 0.48163 0.79369 0.18171 0.0
O207 O 0.45577 0.81338 0.14154 0.0
In208 In 0.91162 0.07324 0.75833 0.0
O209 O 0.95271 0.10377 0.73536 0.0
O210 O 0.94019 0.06071 0.71176 0.0
C211 C 0.94786 0.07073 0.8109 0.0
C212 C 0.85875 0.11396 0.76562 0.0
C213 C 0.88255 0.01806 0.74858 0.0
O214 O 0.95002 0.04881 0.79005 0.0
O215 O 0.9273 0.09358 0.80554 0.0
O216 O 0.88244 0.04059 0.72748 0.0
O217 O 0.89739 0.02329 0.77432 0.0
C218 C 0.95872 0.08451 0.71235 0.0
O219 O 0.86105 0.08739 0.78069 0.0
O220 O 0.8828 0.11984 0.74592 0.0
In221 In 0.81774 0.17226 0.51875 0.0
O222 O 0.86967 0.16363 0.53666 0.0
O223 O 0.85466 0.13539 0.49718 0.0
C224 C 0.77307 0.12867 0.53719 0.0
C225 C 0.79505 0.2174 0.56086 0.0
C226 C 0.82269 0.20262 0.46142 0.0
O227 O 0.80071 0.12999 0.55027 0.0
O228 O 0.76878 0.14786 0.51353 0.0
O229 O 0.83794 0.21179 0.48566 0.0
O230 O 0.80532 0.17804 0.46597 0.0
C231 C 0.87713 0.14171 0.51638 0.0
O232 O 0.78279 0.21412 0.53351 0.0
O233 O 0.82001 0.19916 0.56639 0.0
In234 In 0.65525 0.02455 0.31329 0.0
O235 O 0.7027 0.99799 0.3273 0.0
O236 O 0.6659 0.97267 0.3025 0.0
C237 C 0.69684 0.07169 0.29871 0.0
C238 C 0.61011 0.03622 0.26836 0.0
C239 C 0.62307 0.01993 0.37065 0.0
O240 O 0.68507 0.06728 0.32731 0.0
O241 O 0.68886 0.05162 0.27805 0.0
O242 O 0.63101 0.04663 0.35789 0.0
O243 O 0.63052 0.99536 0.35395 0.0
C244 C 0.69375 0.97186 0.31566 0.0
O245 O 0.60757 0.04886 0.296 0.0
O246 O 0.63424 0.0164 0.26402 0.0
In247 In 0.78719 0.9174 0.03521 0.0
O248 O 0.75461 0.96523 0.03493 0.0
O249 O 0.7288 0.9219 0.03887 0.0
C250 C 0.84703 0.95143 0.03739 0.0
C251 C 0.78609 0.8843 0.09643 0.0
C252 C 0.78519 0.88663 0.97361 0.0
O253 O 0.81977 0.96374 0.02836 0.0
O254 O 0.84449 0.92183 0.04461 0.0
O255 O 0.78441 0.87173 1.00073 0.0
O256 O 0.78806 0.91651 0.97727 0.0
C257 C 0.72661 0.95235 0.03695 0.0
O258 O 0.79557 0.87137 0.06976 0.0
O259 O 0.77682 0.91352 0.09232 0.0
In260 In 0.30342 0.71354 0.01647 0.0
O261 O 0.30713 0.73789 0.06516 0.0
O262 O 0.26163 0.74404 0.04051 0.0
C263 C 0.31156 0.75576 0.96674 0.0
C264 C 0.35973 0.67707 0.0132 0.0
C265 C 0.26023 0.66611 0.0249 0.0
O266 O 0.32717 0.75786 0.99255 0.0
O267 O 0.2916 0.73297 0.96635 0.0
O268 O 0.28149 0.67205 0.04541 0.0
O269 O 0.26094 0.68371 0.99948 0.0
C270 C 0.27752 0.7491 0.06562 0.0
O271 O 0.3383 0.67649 0.99175 0.0
O272 O 0.35341 0.69678 0.03588 0.0
In273 In 0.18525 0.50067 0.80158 0.0
O274 O 0.22905 0.48519 0.83114 0.0
O275 O 0.21279 0.45243 0.7959 0.0
C276 C 0.21826 0.55487 0.79538 0.0
C277 C 0.14869 0.49599 0.74828 0.0
C278 C 0.1453 0.50099 0.85456 0.0
O279 O 0.22763 0.52967 0.78047 0.0
O280 O 0.1916 0.55314 0.81249 0.0
O281 O 0.14923 0.52568 0.83655 0.0
O282 O 0.16058 0.4755 0.84511 0.0
C283 C 0.23305 0.45836 0.81756 0.0
O284 O 0.13777 0.48931 0.7766 0.0
O285 O 0.17862 0.50396 0.74707 0.0
In286 In 0.2919 0.41497 0.53979 0.0
O287 O 0.29739 0.3685 0.57438 0.0
O288 O 0.28771 0.41285 0.59724 0.0
C289 C 0.2889 0.3846 0.47833 0.0
C290 C 0.23 0.44715 0.5396 0.0
C291 C 0.35095 0.44968 0.54107 0.0
O292 O 0.28426 0.37029 0.50553 0.0
O293 O 0.29613 0.4137 0.48197 0.0
O294 O 0.32222 0.46163 0.54772 0.0
O295 O 0.35031 0.42019 0.53361 0.0
C296 C 0.2923 0.3828 0.60122 0.0
O297 O 0.25696 0.46053 0.53175 0.0
O298 O 0.23414 0.41786 0.54768 0.0
In299 In 0.42055 0.56896 0.25215 0.0
O300 O 0.46817 0.59068 0.23061 0.0
O301 O 0.43661 0.56761 0.19871 0.0
C302 C 0.44761 0.56729 0.31036 0.0
C303 C 0.37478 0.61678 0.25007 0.0
C304 C 0.39115 0.51254 0.25226 0.0
O305 O 0.45779 0.54856 0.28797 0.0
O306 O 0.42312 0.58558 0.30383 0.0
O307 O 0.37571 0.53846 0.2596 0.0
O308 O 0.42191 0.51474 0.2458 0.0
C309 C 0.46328 0.58188 0.20219 0.0
O310 O 0.37128 0.59116 0.23467 0.0
O311 O 0.40171 0.61851 0.26448 0.0
Co312 Co 0.03228 0.0512 0.01846 0.0
C313 C 0.02875 0.09172 0.07527 0.0
Co314 Co 0.0417 0.02466 0.06307 0.0
C315 C 0.02472 0.06521 0.95044 0.0
C316 C 1.00514 0.10359 0.98045 0.0
N317 N 0.02249 0.07507 0.98153 0.0
N318 N 0.00852 0.08578 0.93057 0.0
C319 C 0.99649 0.11016 0.94908 0.0
H320 H 0.03477 0.04193 0.94275 0.0
H321 H 0.99645 0.1175 1.00127 0.0
C322 C 0.046 0.98395 0.00663 0.0
N323 N 0.05032 1.00047 0.09931 0.0
C324 C 0.06815 0.00832 0.12469 0.0
C325 C 0.04091 0.96991 0.10559 0.0
N326 N 0.07025 0.98379 0.14629 0.0
C327 C 0.05335 0.95947 0.13464 0.0
C328 C 0.97468 0.02024 0.04591 0.0
O329 O 0.04054 0.0111 0.99232 0.0
O330 O 0.04964 0.98496 0.03723 0.0
O331 O 0.99492 0.013 0.06811 0.0
O332 O 0.98495 0.039 0.0229 0.0
O333 O 0.0341 0.06454 0.08973 0.0
H334 H 0.02612 0.956 0.08998 0.0
H335 H 0.07956 0.03136 0.12723 0.0
O336 O 0.02475 0.09076 0.04472 0.0
O337 O 0.07899 0.06317 0.01372 0.0
O338 O 0.08874 0.03623 0.05812 0.0
C339 C 0.0998 0.05456 0.03512 0.0
H340 H 0.97991 0.12953 0.94105 0.0
H341 H 0.05013 0.93619 0.14646 0.0
Co342 Co 0.30823 0.78893 0.31837 0.0
C343 C 0.30255 0.72999 0.28909 0.0
Co344 Co 0.2742 0.7903 0.27767 0.0
C345 C 0.32757 0.80056 0.38206 0.0
C346 C 0.36354 0.76876 0.35853 0.0
N347 N 0.33547 0.78665 0.35336 0.0
N348 N 0.34905 0.79189 0.40491 0.0
C349 C 0.3719 0.77181 0.39057 0.0
H350 H 0.30534 0.81538 0.38682 0.0
H351 H 0.3762 0.75329 0.34079 0.0
C352 C 0.28312 0.84923 0.30546 0.0
N353 N 0.24685 0.79295 0.24277 0.0
C354 C 0.25408 0.77963 0.21362 0.0
C355 C 0.22006 0.81277 0.23806 0.0
N356 N 0.2336 0.79086 0.19078 0.0
C357 C 0.212 0.81175 0.20578 0.0
C358 C 0.24128 0.78091 0.33665 0.0
O359 O 0.30309 0.83362 0.32327 0.0
O360 O 0.26747 0.83474 0.28424 0.0
O361 O 0.23724 0.782 0.30619 0.0
O362 O 0.27035 0.78278 0.34722 0.0
O363 O 0.28253 0.74541 0.2709 0.0
H364 H 0.20864 0.82859 0.25628 0.0
H365 H 0.27554 0.76388 0.20848 0.0
O366 O 0.31415 0.74396 0.31312 0.0
O367 O 0.34518 0.79581 0.28912 0.0
O368 O 0.31061 0.79907 0.24925 0.0
C369 C 0.34002 0.79938 0.25892 0.0
H370 H 0.39214 0.75943 0.40266 0.0
H371 H 0.19317 0.8264 0.19389 0.0
Co372 Co 0.51202 0.04176 0.54184 0.0
C373 C 0.53458 0.10501 0.52666 0.0
Co374 Co 0.56061 0.04926 0.56204 0.0
C375 C 0.44624 0.02024 0.54536 0.0
C376 C 0.45922 0.03582 0.49667 0.0
N377 N 0.47038 0.0345 0.52719 0.0
N378 N 0.421 0.01166 0.52737 0.0
C379 C 0.42879 0.02141 0.49668 0.0
H380 H 0.44846 0.01347 0.57074 0.0
H381 H 0.47331 0.04451 0.4755 0.0
C382 C 0.53805 0.98552 0.5757 0.0
N383 N 0.60189 0.0549 0.57796 0.0
C384 C 0.62757 0.07019 0.56339 0.0
C385 C 0.61384 0.04226 0.60583 0.0
N386 N 0.65504 0.06722 0.58084 0.0
C387 C 0.64677 0.04967 0.60756 0.0
C388 C 0.50989 0.06519 0.60456 0.0
O389 O 0.51397 0.99665 0.55912 0.0
O390 O 0.56145 1.00469 0.58046 0.0
O391 O 0.54123 0.06496 0.60091 0.0
O392 O 0.49248 0.05602 0.58169 0.0
O393 O 0.55932 0.09414 0.54284 0.0
H394 H 0.59971 0.02804 0.62346 0.0
H395 H 0.6265 0.0827 0.54014 0.0
O396 O 0.5102 0.0863 0.52409 0.0
O397 O 0.53191 0.02815 0.50213 0.0
O398 O 0.58053 0.03377 0.52318 0.0
C399 C 0.56342 0.02704 0.49918 0.0
H400 H 0.41452 0.01665 0.47565 0.0
H401 H 0.66339 0.04271 0.62668 0.0
Co402 Co 0.3143 0.28996 0.79049 0.0
C403 C 0.28757 0.32041 0.73385 0.0
Co404 Co 0.26015 0.29543 0.79456 0.0
C405 C 0.38223 0.28604 0.80745 0.0
C406 C 0.37632 0.27167 0.7583 0.0
N407 N 0.35919 0.28221 0.78527 0.0
N408 N 0.41295 0.27834 0.79539 0.0
C409 C 0.40968 0.2694 0.76447 0.0
H410 H 0.37669 0.29455 0.8319 0.0
H411 H 0.36523 0.26612 0.73563 0.0
C412 C 0.28672 0.26489 0.85109 0.0
N413 N 0.21501 0.30246 0.79895 0.0
C414 C 0.19376 0.29872 0.77507 0.0
C415 C 0.19561 0.30963 0.82563 0.0
N416 N 0.16196 0.30295 0.7857 0.0
C417 C 0.16268 0.30971 0.81754 0.0
C418 C 0.27937 0.23871 0.76816 0.0
O419 O 0.31403 0.27002 0.83497 0.0
O420 O 0.25982 0.27368 0.83755 0.0
O421 O 0.2533 0.25544 0.77515 0.0
O422 O 0.30764 0.24971 0.77305 0.0
O423 O 0.26056 0.31728 0.75096 0.0
H424 H 0.20472 0.31385 0.84948 0.0
H425 H 0.20134 0.29205 0.75044 0.0
O426 O 0.31436 0.30983 0.74643 0.0
O427 O 0.32136 0.33044 0.80829 0.0
O428 O 0.26698 0.33512 0.8144 0.0
C429 C 0.29559 0.34623 0.81829 0.0
H430 H 0.4299 0.26193 0.74778 0.0
H431 H 0.14104 0.31404 0.83362 0.0
Co432 Co 0.03902 0.02318 0.55257 0.0
C433 C 0.04317 0.06213 0.60461 0.0
Co434 Co 0.07111 0.0642 0.54144 0.0
C435 C 0.02406 0.95771 0.54891 0.0
C436 C 0.98363 0.98294 0.57383 0.0
N437 N 0.0144 0.98693 0.56022 0.0
N438 N 1.00071 0.93577 0.55433 0.0
C439 C 0.97499 0.95123 0.57004 0.0
H440 H 0.04717 0.95287 0.53521 0.0
H441 H 0.96796 1.00211 0.58431 0.0
C442 C 0.06484 0.02632 0.48914 0.0
N443 N 0.09561 0.1005 0.5331 0.0
C444 C 0.08781 0.12923 0.54649 0.0
C445 C 0.12132 0.10625 0.51176 0.0
N446 N 0.10703 0.15264 0.5344 0.0
C447 C 0.12835 0.13869 0.51239 0.0
C448 C 0.10675 0.01116 0.56203 0.0
O449 O 0.04546 0.01113 0.50848 0.0
O450 O 0.07961 0.05064 0.49882 0.0
O451 O 0.10961 0.04085 0.55463 0.0
O452 O 0.07818 0.99901 0.56307 0.0
O453 O 0.06169 0.07793 0.58491 0.0
H454 H 0.13336 0.08835 0.49602 0.0
H455 H 0.06747 0.13348 0.56407 0.0
O456 O 0.03191 0.03551 0.59608 0.0
O457 O 1.0005 0.04763 0.5418 0.0
O458 O 0.03258 0.08716 0.52725 0.0
C459 C 1.0037 0.0759 0.52987 0.0
H460 H 0.95125 0.94086 0.57655 0.0
H461 H 0.14677 0.15114 0.49742 0.0
Co462 Co 0.27998 0.81649 0.78283 0.0
C463 C 0.22528 0.78614 0.81491 0.0
Co464 Co 0.28768 0.76457 0.78866 0.0
C465 C 0.28844 0.88465 0.77963 0.0
C466 C 0.24018 0.87152 0.76547 0.0
N467 N 0.26962 0.85908 0.77545 0.0
N468 N 0.27175 0.9124 0.77283 0.0
C469 C 0.24134 0.90453 0.7641 0.0
H470 H 0.31375 0.88305 0.78765 0.0
H471 H 0.21923 0.85751 0.75951 0.0
C472 C 0.34292 0.79532 0.75752 0.0
N473 N 0.29713 0.72196 0.79586 0.0
C474 C 0.27669 0.69763 0.79182 0.0
C475 C 0.32595 0.70795 0.80558 0.0
N476 N 0.29159 0.66904 0.79856 0.0
C477 C 0.32258 0.67506 0.80721 0.0
C478 C 0.25967 0.77905 0.73117 0.0
O479 O 0.32394 0.82051 0.7606 0.0
O480 O 0.33189 0.76863 0.76834 0.0
O481 O 0.2709 0.75514 0.74736 0.0
O482 O 0.2613 0.80712 0.74264 0.0
O483 O 0.24303 0.76056 0.8094 0.0
H484 H 0.34789 0.72085 0.81111 0.0
H485 H 0.25136 0.70072 0.78409 0.0
O486 O 0.23698 0.81284 0.80517 0.0
O487 O 0.29825 0.82585 0.8233 0.0
O488 O 0.30401 0.77343 0.82969 0.0
C489 C 0.30616 0.80155 0.84083 0.0
H490 H 0.22177 0.92143 0.75694 0.0
H491 H 0.34106 0.65703 0.81442 0.0
Co492 Co 0.5335 0.03844 0.00955 0.0
C493 C 0.59768 0.02518 0.03368 0.0
Co494 Co 0.5397 0.05851 0.05774 0.0
C495 C 0.51035 0.03622 0.94554 0.0
C496 C 0.54173 0.99481 0.9555 0.0
N497 N 0.52873 0.02226 0.9688 0.0
N498 N 0.51117 0.01864 0.91845 0.0
C499 C 0.53088 0.99252 0.92425 0.0
H500 H 0.49615 0.05868 0.9484 0.0
H501 H 0.55765 0.97744 0.96782 0.0
C502 C 0.47541 0.07107 0.03498 0.0
N503 N 0.54351 0.07524 0.09817 0.0
C504 C 0.55672 0.0604 0.12414 0.0
C505 C 0.53068 0.10373 0.10922 0.0
N506 N 0.55236 0.07837 0.15092 0.0
C507 C 0.53605 0.10569 0.14193 0.0
C508 C 0.55409 0.10112 0.00772 0.0
O509 O 0.48738 0.05577 0.01029 0.0
O510 O 0.49391 0.07423 0.05887 0.0
O511 O 0.5526 0.09812 0.0385 0.0
O512 O 0.54826 0.0772 0.99034 0.0
O513 O 0.5859 0.04239 0.05718 0.0
H514 H 0.51766 0.12159 0.09457 0.0
H515 H 0.56881 0.03668 0.12363 0.0
O516 O 0.57932 0.02117 0.0096 0.0
O517 O 0.51876 0.99973 0.02828 0.0
O518 O 0.52676 0.01883 0.07668 0.0
C519 C 0.51902 0.99581 0.05888 0.0
H520 H 0.53631 0.97305 0.90745 0.0
H521 H 0.52876 0.12544 0.15786 0.0
Co522 Co 0.28349 0.26806 0.30554 0.0
C523 C 0.35086 0.28698 0.30874 0.0
Co524 Co 0.29219 0.31273 0.27965 0.0
C525 C 0.25847 0.20607 0.32011 0.0
C526 C 0.28745 0.22312 0.35843 0.0
N527 N 0.27653 0.23094 0.32857 0.0
N528 N 0.25763 0.18322 0.34357 0.0
C529 C 0.27568 0.19355 0.36782 0.0
H530 H 0.24601 0.20474 0.29736 0.0
H531 H 0.3028 0.23802 0.37253 0.0
C532 C 0.22433 0.29458 0.27761 0.0
N533 N 0.29888 0.35023 0.25699 0.0
C534 C 0.31949 0.37347 0.26451 0.0
C535 C 0.28402 0.36099 0.22981 0.0
N536 N 0.31792 0.39835 0.24332 0.0
C537 C 0.29564 0.39094 0.2214 0.0
C538 C 0.29605 0.25832 0.23722 0.0
O539 O 0.23587 0.27127 0.29494 0.0
O540 O 0.24491 0.3163 0.26963 0.0
O541 O 0.29948 0.28878 0.23843 0.0
O542 O 0.29152 0.24342 0.2645 0.0
O543 O 0.34011 0.30943 0.28982 0.0
H544 H 0.26577 0.34802 0.21711 0.0
H545 H 0.33498 0.37257 0.2854 0.0
O546 O 0.33079 0.26467 0.3164 0.0
O547 O 0.27518 0.29194 0.34634 0.0
O548 O 0.28468 0.33731 0.32103 0.0
C549 C 0.27912 0.32221 0.34803 0.0
H550 H 0.28006 0.18054 0.39038 0.0
H551 H 0.28839 0.40612 0.20104 0.0
Co552 Co 0.51589 0.53874 0.02586 0.0
C553 C 0.52649 0.57479 0.07959 0.0
Co554 Co 0.54444 0.58204 0.01469 0.0
C555 C 0.50574 0.47236 0.0243 0.0
C556 C 0.46773 0.4947 0.05502 0.0
N557 N 0.4949 0.50107 0.03583 0.0
N558 N 0.4867 0.44834 0.0353 0.0
C559 C 0.46244 0.46192 0.05455 0.0
H560 H 0.527 0.46905 0.00749 0.0
H561 H 0.45265 0.51269 0.06811 0.0
C562 C 0.53318 0.54596 0.96061 0.0
N563 N 0.56564 0.61977 1.00441 0.0
C564 C 0.55856 0.64771 0.01956 0.0
C565 C 0.58792 0.62725 0.98013 0.0
N566 N 0.57519 0.67226 0.00598 0.0
C567 C 0.59383 0.65991 0.98099 0.0
C568 C 0.58521 0.53026 0.02747 0.0
O569 O 0.51913 0.52743 0.98135 0.0
O570 O 0.54528 0.57174 0.97045 0.0
O571 O 0.58597 0.55974 0.01878 0.0
O572 O 0.55745 0.5171 0.03252 0.0
O573 O 0.54335 0.59207 0.0597 0.0
H574 H 0.59852 0.61031 0.96253 0.0
H575 H 0.54082 0.65046 0.03983 0.0
O576 O 0.51268 0.54997 0.06976 0.0
O577 O 0.47452 0.56051 0.01946 0.0
O578 O 0.50277 0.60438 0.0106 0.0
C579 C 0.47506 0.59069 0.01385 0.0
H580 H 0.44218 0.44923 0.06656 0.0
H581 H 0.61007 0.67349 0.96462 0.0
Co582 Co 0.79111 0.32022 0.29928 0.0
C583 C 0.72651 0.29664 0.31337 0.0
Co584 Co 0.78354 0.27387 0.2769 0.0
C585 C 0.80967 0.38524 0.30369 0.0
C586 C 0.78716 0.36832 0.34865 0.0
N587 N 0.79639 0.35913 0.31812 0.0
N588 N 0.80905 0.41027 0.32393 0.0
C589 C 0.79518 0.40002 0.35238 0.0
H590 H 0.82003 0.38584 0.27895 0.0
H591 H 0.77552 0.35294 0.367 0.0
C592 C 0.84833 0.2965 0.26292 0.0
N593 N 0.77786 0.23484 0.25847 0.0
C594 C 0.76479 0.20926 0.27407 0.0
C595 C 0.78455 0.22519 0.2276 0.0
N596 N 0.76281 0.18413 0.25429 0.0
C597 C 0.77497 0.19376 0.22487 0.0
C598 C 0.76802 0.32589 0.23716 0.0
O599 O 0.83708 0.32024 0.28008 0.0
O600 O 0.82905 0.27324 0.2592 0.0
O601 O 0.76925 0.29528 0.23836 0.0
O602 O 0.77563 0.34161 0.26174 0.0
O603 O 0.73761 0.27401 0.29489 0.0
H604 H 0.79501 0.24022 0.20827 0.0
H605 H 0.75577 0.20932 0.29926 0.0
O606 O 0.74563 0.31983 0.31815 0.0
O607 O 0.8066 0.29948 0.33684 0.0
O608 O 0.79781 0.25269 0.31552 0.0
C609 C 0.80651 0.26905 0.33932 0.0
H610 H 0.79171 0.41424 0.37417 0.0
H611 H 0.77595 0.17945 0.20307 0.0
Co612 Co 0.03302 0.52632 0.51601 0.0
C613 C 0.09669 0.51166 0.5374 0.0
Co614 Co 0.03942 0.54662 0.56357 0.0
C615 C 0.0129 0.52869 0.45123 0.0
C616 C 0.03708 0.48318 0.4621 0.0
N617 N 0.02713 0.51172 0.47528 0.0
N618 N 0.01379 0.51204 0.42358 0.0
C619 C 0.02872 0.4833 0.42996 0.0
H620 H 1.00208 0.55282 0.45384 0.0
H621 H 0.04968 0.46371 0.47498 0.0
C622 C 0.97496 0.56073 0.54249 0.0
N623 N 0.04671 0.5603 0.60489 0.0
C624 C 0.05889 0.53997 0.62758 0.0
C625 C 0.04806 0.58994 0.6178 0.0
N626 N 0.06838 0.55535 0.65373 0.0
C627 C 0.06179 0.58694 0.64809 0.0
C628 C 0.05841 0.58809 0.51445 0.0
O629 O 0.98721 0.54446 0.5185 0.0
O630 O 0.9946 0.5658 0.56531 0.0
O631 O 0.05591 0.58556 0.54527 0.0
O632 O 0.04817 0.56525 0.49797 0.0
O633 O 0.08472 0.52748 0.56173 0.0
H634 H 0.04185 0.61228 0.60515 0.0
H635 H 0.06367 0.51446 0.62399 0.0
O636 O 0.07814 0.50863 0.51347 0.0
O637 O 0.01842 0.48687 0.5335 0.0
O638 O 0.02287 0.50713 0.58175 0.0
C639 C 0.01626 0.48362 0.56411 0.0
H640 H 0.03292 0.46397 0.41276 0.0
H641 H 0.06847 0.60633 0.66359 0.0
Co642 Co 0.80989 0.8043 0.29177 0.0
C643 C 0.78752 0.81886 0.22808 0.0
Co644 Co 0.76034 0.78584 0.28521 0.0
C645 C 0.8758 0.80395 0.31426 0.0
C646 C 0.86316 0.84899 0.29085 0.0
N647 N 0.85142 0.81951 0.29818 0.0
N648 N 0.902 0.82266 0.31768 0.0
C649 C 0.89437 0.85108 0.30311 0.0
H650 H 0.87375 0.77995 0.32479 0.0
H651 H 0.84936 0.86812 0.27863 0.0
C652 C 0.78317 0.77101 0.34881 0.0
N653 N 0.71914 0.77026 0.27906 0.0
C654 C 0.69486 0.78498 0.26228 0.0
C655 C 0.70772 0.74084 0.28726 0.0
N656 N 0.66904 0.76574 0.25917 0.0
C657 C 0.67677 0.73791 0.27478 0.0
C658 C 0.81055 0.74263 0.26932 0.0
O659 O 0.80776 0.78701 0.3373 0.0
O660 O 0.75884 0.76787 0.33023 0.0
O661 O 0.77935 0.74725 0.27017 0.0
O662 O 0.82925 0.76475 0.27771 0.0
O663 O 0.76235 0.80377 0.23982 0.0
H664 H 0.72162 0.72228 0.30021 0.0
H665 H 0.69672 0.80868 0.25102 0.0
O666 O 0.81203 0.82129 0.24658 0.0
O667 O 0.79021 0.84407 0.30543 0.0
O668 O 0.74064 0.8248 0.29997 0.0
C669 C 0.75879 0.84797 0.30651 0.0
H670 H 0.90966 0.87207 0.30259 0.0
H671 H 0.66173 0.71673 0.27583 0.0
Co672 Co 0.80259 0.2835 0.81011 0.0
C673 C 0.78401 0.22594 0.78545 0.0
Co674 Co 0.77554 0.28953 0.76495 0.0
C675 C 0.81115 0.29861 0.8751 0.0
C676 C 0.8438 0.25853 0.86264 0.0
N677 N 0.8213 0.27972 0.85012 0.0
N678 N 0.82587 0.29011 0.90268 0.0
C679 C 0.84679 0.26503 0.89533 0.0
H680 H 0.79258 0.31802 0.8734 0.0
H681 H 0.85652 0.23928 0.84916 0.0
C682 C 0.79444 0.34704 0.78978 0.0
N683 N 0.75631 0.2939 0.72528 0.0
C684 C 0.76558 0.27628 0.69908 0.0
C685 C 0.73378 0.31605 0.71449 0.0
N686 N 0.75012 0.28661 0.6724 0.0
C687 C 0.72997 0.31164 0.68163 0.0
C688 C 0.73333 0.29194 0.81749 0.0
O689 O 0.80667 0.32859 0.81134 0.0
O690 O 0.77917 0.3346 0.76693 0.0
O691 O 0.73338 0.29302 0.78666 0.0
O692 O 0.7604 0.28753 0.83173 0.0
O693 O 0.77225 0.24409 0.76328 0.0
H694 H 0.72194 0.33487 0.72923 0.0
H695 H 0.78439 0.25697 0.69918 0.0
O696 O 0.79842 0.23875 0.80866 0.0
O697 O 0.84482 0.27948 0.78829 0.0
O698 O 0.81769 0.28643 0.74327 0.0
C699 C 0.84478 0.28165 0.75745 0.0
H700 H 0.86247 0.2522 0.91233 0.0
H701 H 0.7146 0.32614 0.66563 0.0
Co702 Co 0.78322 0.76784 0.80198 0.0
C703 C 0.85058 0.78667 0.80756 0.0
Co704 Co 0.79373 0.81262 0.77613 0.0
C705 C 0.75958 0.70458 0.81592 0.0
C706 C 0.78324 0.72424 0.85647 0.0
N707 N 0.77515 0.73077 0.82541 0.0
N708 N 0.75759 0.68219 0.83989 0.0
C709 C 0.77224 0.69429 0.86554 0.0
H710 H 0.74964 0.70199 0.79207 0.0
H711 H 0.79622 0.74019 0.87164 0.0
C712 C 0.72632 0.79404 0.77055 0.0
N713 N 0.80185 0.84976 0.75275 0.0
C714 C 0.81895 0.87525 0.76161 0.0
C715 C 0.79181 0.85721 0.72249 0.0
N716 N 0.81983 0.89814 0.73807 0.0
C717 C 0.80283 0.88715 0.71339 0.0
C718 C 0.79896 0.75723 0.7345 0.0
O719 O 0.73624 0.77086 0.78906 0.0
O720 O 0.74676 0.81641 0.76422 0.0
O721 O 0.80258 0.78767 0.73566 0.0
O722 O 0.79309 0.74258 0.76168 0.0
O723 O 0.84091 0.80912 0.78809 0.0
H724 H 0.77743 0.84192 0.70791 0.0
H725 H 0.83039 0.87716 0.78484 0.0
O726 O 0.82999 0.76464 0.81479 0.0
O727 O 0.77318 0.79278 0.84211 0.0
O728 O 0.78492 0.83773 0.81682 0.0
C729 C 0.77785 0.82299 0.84372 0.0
H730 H 0.77485 0.68222 0.8889 0.0
H731 H 0.79869 0.89994 0.69067 0.0
Co732 Co 0.53417 0.55429 0.51821 0.0
C733 C 0.5262 0.59526 0.57415 0.0
Co734 Co 0.54289 0.5279 0.56279 0.0
C735 C 0.51017 0.56498 0.45529 0.0
C736 C 0.53457 0.6066 0.47136 0.0
N737 N 0.52623 0.57639 0.48043 0.0
N738 N 0.50822 0.58672 0.43089 0.0
C739 C 0.52338 0.61309 0.44063 0.0
H740 H 0.49982 0.54127 0.45486 0.0
H741 H 0.54795 0.62274 0.48609 0.0
C742 C 0.55107 0.48693 0.50713 0.0
N743 N 0.55033 0.50461 0.6 0.0
C744 C 0.57015 0.51134 0.62427 0.0
C745 C 0.53785 0.47551 0.60794 0.0
N746 N 0.57044 0.48759 0.6469 0.0
C747 C 0.55012 0.46501 0.63707 0.0
C748 C 0.47646 0.52233 0.54357 0.0
O749 O 0.54467 0.51404 0.49308 0.0
O750 O 0.55303 0.48798 0.53797 0.0
O751 O 0.49633 0.5151 0.56602 0.0
O752 O 0.48701 0.5414 0.521 0.0
O753 O 0.53251 0.56802 0.58815 0.0
H754 H 0.52115 0.46259 0.5933 0.0
H755 H 0.58413 0.53312 0.62541 0.0
O756 O 0.5241 0.59433 0.54322 0.0
O757 O 0.58063 0.56738 0.51487 0.0
O758 O 0.59015 0.54083 0.55987 0.0
C759 C 0.6006 0.56009 0.53732 0.0
H760 H 0.52625 0.63514 0.42646 0.0
H761 H 0.54474 0.44272 0.65002 0.0
Co762 Co 0.02607 0.53033 0.02288 0.0
C763 C 0.046 0.59455 0.00897 0.0
Co764 Co 0.07479 0.53892 0.04228 0.0
C765 C 0.95924 0.50948 0.02338 0.0
C766 C 0.97453 0.52966 0.97703 0.0
N767 N 0.98511 0.52304 0.00725 0.0
N768 N 0.93312 0.50722 1.00436 0.0
C769 C 0.9424 0.51969 0.97512 0.0
H770 H 0.95972 0.50077 0.04835 0.0
H771 H 0.98936 0.54068 0.95758 0.0
C772 C 0.05321 0.475 0.0576 0.0
N773 N 0.11611 0.54708 0.05705 0.0
C774 C 0.13878 0.56507 0.04083 0.0
C775 C 0.12868 0.54116 0.08657 0.0
N776 N 0.16457 0.57129 0.05915 0.0
C777 C 0.1586 0.55633 0.08801 0.0
C778 C 0.02386 0.55297 0.08536 0.0
O779 O 0.02892 0.48548 0.04076 0.0
O780 O 0.07716 0.49417 0.06089 0.0
O781 O 0.05516 0.55342 0.08129 0.0
O782 O 1.00612 0.54396 0.06265 0.0
O783 O 0.07144 0.58395 0.02404 0.0
H784 H 0.116 0.52838 0.10633 0.0
H785 H 0.13542 0.57544 0.01681 0.0
O786 O 0.02274 0.57488 0.00566 0.0
O787 O 0.04635 0.51688 0.98288 0.0
O788 O 0.09496 0.52449 1.003 0.0
C789 C 0.07778 0.51668 0.97945 0.0
H790 H 0.92718 0.52106 0.95401 0.0
H791 H 0.17374 0.5579 0.10904 0.0
C792 C 0.00774 0.18056 0.10415 0.0
C793 C 0.03774 0.18943 0.11878 0.0
C794 C 0.06069 0.13346 0.10747 0.0
C795 C 0.03079 0.12464 0.09252 0.0
N796 N 0.97678 0.14156 0.07446 0.0
N797 N 0.0916 0.17229 0.13725 0.0
C798 C 1.00471 0.14884 0.0903 0.0
C799 C 0.06369 0.16514 0.12132 0.0
N800 N 0.98101 0.20184 0.10551 0.0
N801 N 0.08755 0.11233 0.10625 0.0
H802 H 0.09664 0.19552 0.14448 0.0
H803 H 0.10921 0.15509 0.14476 0.0
H804 H 0.0868 0.08925 0.09691 0.0
H805 H 0.11145 0.11816 0.11224 0.0
H806 H 0.95718 0.19633 0.09902 0.0
H807 H 0.98182 0.22463 0.11565 0.0
H808 H 0.95878 0.15858 0.06745 0.0
H809 H 0.97215 0.11831 0.06696 0.0
C810 C 0.17499 0.75483 0.39972 0.0
C811 C 0.15383 0.78292 0.40041 0.0
C812 C 0.19049 0.80988 0.36046 0.0
C813 C 0.21193 0.78184 0.35965 0.0
N814 N 0.22826 0.73 0.38247 0.0
N815 N 0.14498 0.8394 0.38839 0.0
C816 C 0.20547 0.75513 0.38078 0.0
C817 C 0.16271 0.81114 0.38286 0.0
N818 N 0.16508 0.7274 0.41575 0.0
N819 N 0.19627 0.83517 0.33946 0.0
H820 H 0.12465 0.84108 0.40499 0.0
H821 H 0.15213 0.86173 0.37907 0.0
H822 H 0.21731 0.83637 0.32404 0.0
H823 H 0.17932 0.85431 0.33592 0.0
H824 H 0.17729 0.70501 0.41315 0.0
H825 H 0.14332 0.72653 0.43042 0.0
H826 H 0.22684 0.71156 0.39992 0.0
H827 H 0.24992 0.72853 0.36764 0.0
C828 C 0.51048 0.90492 0.61803 0.0
C829 C 0.54008 0.88486 0.61591 0.0
C830 C 0.56703 0.92938 0.58394 0.0
C831 C 0.53872 0.95067 0.58942 0.0
N832 N 0.48553 0.95922 0.61772 0.0
N833 N 0.59865 0.88131 0.60096 0.0
C834 C 0.51099 0.93845 0.60803 0.0
C835 C 0.56887 0.89803 0.59985 0.0
N836 N 0.48119 0.89166 0.6284 0.0
N837 N 0.59183 0.93843 0.56232 0.0
H838 H 0.60134 0.85887 0.61256 0.0
H839 H 0.6212 0.891 0.59311 0.0
H840 H 0.5912 0.96041 0.54963 0.0
H841 H 0.61129 0.92287 0.55449 0.0
H842 H 0.45819 0.90383 0.62713 0.0
H843 H 0.47935 0.86737 0.63497 0.0
H844 H 0.46637 0.95273 0.6341 0.0
H845 H 0.48534 0.98385 0.61218 0.0
C846 C 0.47809 0.31447 0.84351 0.0
C847 C 0.49449 0.28609 0.85547 0.0
C848 C 0.45891 0.25239 0.82462 0.0
C849 C 0.44297 0.28067 0.81241 0.0
N850 N 0.44144 0.33797 0.80345 0.0
N851 N 0.50703 0.22899 0.85083 0.0
C852 C 0.45408 0.31155 0.81962 0.0
C853 C 0.48695 0.25527 0.84391 0.0
N854 N 0.4838 0.34387 0.85634 0.0
N855 N 0.44616 0.22297 0.81909 0.0
H856 H 0.52847 0.23055 0.86407 0.0
H857 H 0.50439 0.2064 0.84075 0.0
H858 H 0.42555 0.2202 0.80496 0.0
H859 H 0.45445 0.20168 0.83037 0.0
H860 H 0.46962 0.36469 0.85131 0.0
H861 H 0.50117 0.34723 0.87391 0.0
H862 H 0.45058 0.36102 0.80529 0.0
H863 H 0.42368 0.33617 0.78583 0.0
C864 C 0.00752 0.87644 0.48763 0.0
C865 C 0.02346 0.85011 0.50396 0.0
C866 C 0.01674 0.87817 0.55582 0.0
C867 C 1.0019 0.90477 0.53935 0.0
N868 N 0.97697 0.9279 0.49205 0.0
N869 N 0.03747 0.82247 0.55384 0.0
C870 C 0.99507 0.90325 0.50598 0.0
C871 C 0.02599 0.84977 0.53826 0.0
N872 N 1.00521 0.87613 0.45452 0.0
N873 N 0.02349 0.88103 0.5879 0.0
H874 H 0.04536 0.80165 0.54146 0.0
H875 H 0.03723 0.81962 0.57904 0.0
H876 H 0.01587 0.90136 0.60123 0.0
H877 H 0.03759 0.86416 0.6009 0.0
H878 H 0.99719 0.89584 0.44059 0.0
H879 H 0.01272 0.85634 0.44042 0.0
H880 H 0.96858 0.92763 0.46848 0.0
H881 H 0.96807 0.94793 0.50515 0.0
C882 C 0.43433 0.81658 0.73434 0.0
C883 C 0.44309 0.79321 0.71012 0.0
C884 C 0.38498 0.77538 0.71367 0.0
C885 C 0.37711 0.79616 0.74033 0.0
N886 N 0.39645 0.83352 0.77902 0.0
N887 N 0.42754 0.74633 0.68117 0.0
C888 C 0.40238 0.81604 0.75139 0.0
C889 C 0.41856 0.77158 0.70097 0.0
N890 N 0.45599 0.84028 0.74017 0.0
N891 N 0.35997 0.76017 0.69939 0.0
H892 H 0.45181 0.7421 0.67195 0.0
H893 H 0.41172 0.72773 0.67652 0.0
H894 H 0.33519 0.76318 0.70737 0.0
H895 H 0.36327 0.74757 0.67774 0.0
H896 H 0.4498 0.86003 0.75478 0.0
H897 H 0.47916 0.84188 0.72801 0.0
H898 H 0.4149 0.84548 0.79054 0.0
H899 H 0.37365 0.83391 0.79205 0.0
C900 C 0.5866 0.18467 0.98995 0.0
C901 C 0.56283 0.19678 0.9679 0.0
C902 C 0.5336 0.14609 0.97163 0.0
C903 C 0.55834 0.13323 0.99241 0.0
N904 N 0.6117 0.13752 0.01621 0.0
N905 N 0.51664 0.18775 0.93363 0.0
C906 C 0.58577 0.15179 1.00024 0.0
C907 C 0.53753 0.17696 0.95719 0.0
N908 N 0.60997 0.20455 1.00095 0.0
N909 N 0.50493 0.13005 0.96758 0.0
H910 H 0.51533 0.21148 0.92506 0.0
H911 H 0.50166 0.17258 0.92115 0.0
H912 H 0.49984 0.10792 0.97847 0.0
H913 H 0.48429 0.14017 0.95626 0.0
H914 H 0.62536 0.19835 0.01997 0.0
H915 H 0.61283 0.22812 0.99227 0.0
H916 H 0.63391 0.1488 0.01993 0.0
H917 H 0.61232 0.1132 0.02318 0.0
C918 C 0.14292 0.26351 0.24112 0.0
C919 C 0.13296 0.28997 0.22076 0.0
C920 C 0.17729 0.32187 0.24425 0.0
C921 C 0.18943 0.2945 0.26254 0.0
N922 N 0.17262 0.24436 0.28831 0.0
N923 N 0.14347 0.34359 0.20062 0.0
C924 C 0.16919 0.26662 0.26368 0.0
C925 C 0.15107 0.31884 0.22169 0.0
N926 N 0.12809 0.23463 0.23798 0.0
N927 N 0.18817 0.35177 0.2511 0.0
H928 H 0.12369 0.3431 0.18505 0.0
H929 H 0.15828 0.36351 0.19672 0.0
H930 H 0.20279 0.3559 0.27083 0.0
H931 H 0.17872 0.3731 0.24081 0.0
H932 H 0.13686 0.21315 0.24853 0.0
H933 H 0.10883 0.23147 0.22223 0.0
H934 H 0.15729 0.2248 0.29197 0.0
H935 H 0.18687 0.24803 0.30834 0.0
C936 C 0.13776 0.97945 0.20593 0.0
C937 C 0.11955 0.99085 0.23392 0.0
C938 C 0.0679 0.99289 0.2048 0.0
C939 C 0.08657 0.98418 0.17628 0.0
N940 N 0.13819 0.97059 0.14766 0.0
N941 N 0.06811 0.00887 0.26121 0.0
C942 C 0.12124 0.9776 0.17632 0.0
C943 C 0.08475 0.99756 0.23378 0.0
N944 N 0.17069 0.97049 0.20779 0.0
N945 N 0.03405 0.99654 0.20382 0.0
H946 H 0.07931 0.01078 0.28345 0.0
H947 H 0.04353 0.01751 0.26196 0.0
H948 H 0.02135 0.99444 0.18241 0.0
H949 H 0.01822 0.99995 0.22421 0.0
H950 H 0.18466 0.95918 0.18914 0.0
H951 H 0.1839 0.97269 0.22888 0.0
H952 H 0.164 0.96884 0.14492 0.0
H953 H 0.12623 0.96801 0.12587 0.0
C954 C 0.30819 0.79656 0.48782 0.0
C955 C 0.31827 0.82762 0.49614 0.0
C956 C 0.35815 0.82812 0.44954 0.0
C957 C 0.34427 0.79972 0.43857 0.0
N958 N 0.30703 0.75601 0.44602 0.0
N959 N 0.35234 0.8738 0.48557 0.0
C960 C 0.31994 0.78334 0.45772 0.0
C961 C 0.34366 0.84342 0.47757 0.0
N962 N 0.28767 0.7798 0.50884 0.0
N963 N 0.3846 0.84068 0.43235 0.0
H964 H 0.34211 0.88586 0.50582 0.0
H965 H 0.36821 0.888 0.47126 0.0
H966 H 0.39489 0.82987 0.41134 0.0
H967 H 0.39793 0.86 0.44005 0.0
H968 H 0.2816 0.75591 0.50554 0.0
H969 H 0.27872 0.78904 0.5311 0.0
H970 H 0.28641 0.74478 0.4566 0.0
H971 H 0.31639 0.74524 0.42463 0.0
C972 C 0.44409 0.1012 0.6612 0.0
C973 C 0.45287 0.0866 0.69111 0.0
C974 C 0.50173 0.0602 0.66513 0.0
C975 C 0.4934 0.07554 0.63527 0.0
N976 N 0.46314 0.11803 0.60717 0.0
N977 N 0.494 0.05972 0.72388 0.0
C978 C 0.46669 0.09859 0.63408 0.0
C979 C 0.48331 0.06894 0.69389 0.0
N980 N 0.41356 0.11608 0.65826 0.0
N981 N 0.52509 0.03548 0.66576 0.0
H982 H 0.48062 0.06538 0.74544 0.0
H983 H 0.51752 0.04929 0.72746 0.0
H984 H 0.53819 0.02697 0.6451 0.0
H985 H 0.52928 0.02125 0.68641 0.0
H986 H 0.40447 0.12406 0.63606 0.0
H987 H 0.39634 0.11813 0.67776 0.0
H988 H 0.44566 0.1371 0.60617 0.0
H989 H 0.47998 0.11722 0.58715 0.0
C990 C 0.25956 0.24207 0.94093 0.0
C991 C 0.28409 0.21822 0.94984 0.0
C992 C 0.30768 0.22202 0.89282 0.0
C993 C 0.286 0.24886 0.88528 0.0
N994 N 0.24594 0.28858 0.90688 0.0
N995 N 0.33681 0.19182 0.93466 0.0
C996 C 0.26326 0.25999 0.91071 0.0
C997 C 0.30963 0.21002 0.92584 0.0
N998 N 0.23155 0.24677 0.96043 0.0
N999 N 0.32538 0.20656 0.86829 0.0
H1000 H 0.34044 0.18408 0.95854 0.0
H1001 H 0.35756 0.18774 0.91905 0.0
H1002 H 0.32336 0.21293 0.84381 0.0
H1003 H 0.33896 0.18504 0.87194 0.0
H1004 H 0.21132 0.26131 0.95353 0.0
H1005 H 0.22676 0.23341 0.9817 0.0
H1006 H 0.23179 0.2995 0.92571 0.0
H1007 H 0.2487 0.30323 0.88623 0.0
C1008 C 0.07871 0.0373 0.39981 0.0
C1009 C 0.09578 0.00771 0.39191 0.0
C1010 C 0.08568 0.98693 0.44708 0.0
C1011 C 0.06965 0.01682 0.45515 0.0
N1012 N 0.0401 0.06496 0.43743 0.0
N1013 N 0.10472 0.9511 0.40378 0.0
C1014 C 0.06234 0.04008 0.43075 0.0
C1015 C 0.09533 0.98129 0.41417 0.0
N1016 N 0.0804 0.06363 0.37938 0.0
N1017 N 0.09402 0.96509 0.47089 0.0
H1018 H 0.11146 0.94649 0.37945 0.0
H1019 H 0.10244 0.93044 0.41838 0.0
H1020 H 0.08821 0.96872 0.4955 0.0
H1021 H 0.10904 0.94454 0.46647 0.0
H1022 H 0.07202 0.08665 0.3863 0.0
H1023 H 0.09211 0.06345 0.35637 0.0
H1024 H 0.03158 0.0811 0.41969 0.0
H1025 H 0.02751 0.06725 0.46004 0.0
C1026 C 0.27297 0.78408 0.64382 0.0
C1027 C 0.24939 0.80973 0.63886 0.0
C1028 C 0.21985 0.79562 0.6898 0.0
C1029 C 0.24768 0.77608 0.69788 0.0
N1030 N 0.28859 0.73756 0.67744 0.0
N1031 N 0.19628 0.83564 0.65271 0.0
C1032 C 0.27037 0.76547 0.67305 0.0
C1033 C 0.22092 0.8136 0.66011 0.0
N1034 N 0.29856 0.77876 0.62148 0.0
N1035 N 0.19297 0.79667 0.71108 0.0
H1036 H 0.19612 0.84798 0.63041 0.0
H1037 H 0.17618 0.84179 0.66838 0.0
H1038 H 0.19232 0.78157 0.73168 0.0
H1039 H 0.17097 0.80983 0.70723 0.0
H1040 H 0.3186 0.76282 0.62546 0.0
H1041 H 0.30012 0.79126 0.59923 0.0
H1042 H 0.30406 0.72713 0.65931 0.0
H1043 H 0.28556 0.72344 0.69855 0.0
C1044 C 0.44254 0.01816 0.85962 0.0
C1045 C 0.45019 0.04609 0.84063 0.0
C1046 C 0.50148 0.05182 0.86963 0.0
C1047 C 0.49214 0.0259 0.89045 0.0
N1048 N 0.45225 0.98716 0.90902 0.0
N1049 N 0.48575 0.09063 0.82767 0.0
C1050 C 0.46239 0.00958 0.88629 0.0
C1051 C 0.47935 0.06333 0.84569 0.0
N1052 N 0.4163 0.99988 0.85223 0.0
N1053 N 0.53195 0.06479 0.87262 0.0
H1054 H 0.47111 0.09872 0.80864 0.0
H1055 H 0.5046 0.10624 0.83243 0.0
H1056 H 0.54851 0.05639 0.88997 0.0
H1057 H 0.54193 0.08201 0.85668 0.0
H1058 H 0.4119 0.97732 0.86272 0.0
H1059 H 0.4 0.00616 0.83397 0.0
H1060 H 0.42892 0.97699 0.90963 0.0
H1061 H 0.46624 0.98045 0.92897 0.0
C1062 C 0.31535 0.22985 0.14723 0.0
C1063 C 0.28598 0.21324 0.14 0.0
C1064 C 0.26409 0.22473 0.1967 0.0
C1065 C 0.29352 0.24127 0.20413 0.0
N1066 N 0.34622 0.26143 0.18488 0.0
N1067 N 0.2341 0.19165 0.15994 0.0
C1068 C 0.31877 0.24432 0.1788 0.0
C1069 C 0.26103 0.20972 0.16547 0.0
N1070 N 0.34118 0.22989 0.12451 0.0
N1071 N 0.23758 0.22546 0.21865 0.0
H1072 H 0.22908 0.18297 0.13708 0.0
H1073 H 0.21756 0.18367 0.17824 0.0
H1074 H 0.2382 0.23593 0.24138 0.0
H1075 H 0.21389 0.21815 0.21359 0.0
H1076 H 0.36469 0.23824 0.1286 0.0
H1077 H 0.34006 0.21931 0.1018 0.0
H1078 H 0.3636 0.26878 0.16708 0.0
H1079 H 0.35119 0.26951 0.20799 0.0
C1080 C 0.17393 0.11013 0.0117 0.0
C1081 C 0.19077 0.11151 0.0415 0.0
C1082 C 0.15408 0.0686 0.06404 0.0
C1083 C 0.13458 0.06975 0.03561 0.0
N1084 N 0.13678 0.08141 0.97799 0.0
N1085 N 0.1925 0.09549 0.09791 0.0
C1086 C 0.14735 0.088 0.00826 0.0
C1087 C 0.17965 0.09155 0.06805 0.0
N1088 N 0.18325 0.13007 0.98637 0.0
N1089 N 0.15073 0.04372 0.08603 0.0
H1090 H 0.21078 0.11201 0.10205 0.0
H1091 H 0.1826 0.08493 0.1192 0.0
H1092 H 0.13733 0.02336 0.08165 0.0
H1093 H 0.16574 0.04031 0.10591 0.0
H1094 H 0.16929 0.134 0.96584 0.0
H1095 H 0.204 0.14442 0.98658 0.0
H1096 H 0.14656 0.09157 0.9565 0.0
H1097 H 0.12172 0.0621 0.97371 0.0
C1098 C 0.65349 0.46643 0.01068 0.0
C1099 C 0.6715 0.46829 0.03947 0.0
C1100 C 0.63641 0.51472 0.05721 0.0
C1101 C 0.61615 0.51049 0.03036 0.0
N1102 N 0.60292 0.48039 0.98309 0.0
N1103 N 0.67636 0.48996 0.09315 0.0
C1104 C 0.62387 0.48564 0.00763 0.0
C1105 C 0.66205 0.49139 0.06354 0.0
N1106 N 0.6656 0.44773 0.98548 0.0
N1107 N 0.63124 0.54098 0.07663 0.0
H1108 H 0.69428 0.47239 0.0993 0.0
H1109 H 0.66807 0.50403 0.1128 0.0
H1110 H 0.61228 0.55831 0.07317 0.0
H1111 H 0.64746 0.54708 0.09446 0.0
H1112 H 0.65548 0.44819 0.96257 0.0
H1113 H 0.68767 0.43388 0.98631 0.0
H1114 H 0.60492 0.46018 0.96836 0.0
H1115 H 0.58222 0.49531 0.97865 0.0
C1116 C 0.82159 0.49254 0.28843 0.0
C1117 C 0.85618 0.49506 0.29275 0.0
C1118 C 0.85844 0.4429 0.32117 0.0
C1119 C 0.82403 0.4404 0.31693 0.0
N1120 N 0.77133 0.46312 0.30153 0.0
N1121 N 0.90614 0.47679 0.31916 0.0
C1122 C 0.80507 0.46554 0.30226 0.0
C1123 C 0.87424 0.47145 0.31091 0.0
N1124 N 0.8051 0.51514 0.26995 0.0
N1125 N 0.8761 0.41729 0.33391 0.0
H1126 H 0.91872 0.49739 0.31194 0.0
H1127 H 0.91925 0.46223 0.33542 0.0
H1128 H 0.86482 0.39647 0.34286 0.0
H1129 H 0.90198 0.41579 0.33394 0.0
H1130 H 0.7806 0.51325 0.26328 0.0
H1131 H 0.81656 0.53528 0.2596 0.0
H1132 H 0.7553 0.48155 0.2936 0.0
H1133 H 0.75907 0.44306 0.31106 0.0
C1134 C 0.89055 0.59769 0.51317 0.0
C1135 C 0.87858 0.61519 0.54094 0.0
C1136 C 0.92518 0.59095 0.57169 0.0
C1137 C 0.93916 0.5756 0.54307 0.0
N1138 N 0.92437 0.55289 0.49182 0.0
N1139 N 0.88691 0.63144 0.5958 0.0
C1140 C 0.91898 0.57584 0.5151 0.0
C1141 C 0.89672 0.61273 0.56985 0.0
N1142 N 0.87536 0.6028 0.48432 0.0
N1143 N 0.93639 0.58169 0.60148 0.0
H1144 H 0.86551 0.64637 0.59614 0.0
H1145 H 0.90137 0.63415 0.61594 0.0
H1146 H 0.95254 0.56184 0.60471 0.0
H1147 H 0.92576 0.58991 0.62345 0.0
H1148 H 0.88524 0.59434 0.46213 0.0
H1149 H 0.85449 0.61818 0.482 0.0
H1150 H 0.90926 0.55052 0.47212 0.0
H1151 H 0.93991 0.53262 0.49481 0.0
C1152 C 0.1896 0.12482 0.3388 0.0
C1153 C 0.20886 0.09592 0.3343 0.0
C1154 C 0.26038 0.12485 0.33611 0.0
C1155 C 0.24124 0.15343 0.34219 0.0
N1156 N 0.18891 0.18109 0.35422 0.0
N1157 N 0.26176 0.06656 0.33426 0.0
C1158 C 0.20612 0.15355 0.34498 0.0
C1159 C 0.24406 0.09532 0.33477 0.0
N1160 N 0.15577 0.12477 0.33661 0.0
N1161 N 0.29396 0.12637 0.33007 0.0
H1162 H 0.25063 0.04434 0.33268 0.0
H1163 H 0.28719 0.06447 0.33797 0.0
H1164 H 0.30656 0.14791 0.33065 0.0
H1165 H 0.30894 0.10692 0.32198 0.0
H1166 H 0.14062 0.14561 0.33634 0.0
H1167 H 0.14284 0.10378 0.33317 0.0
H1168 H 0.16337 0.18234 0.35944 0.0
H1169 H 0.20075 0.20238 0.35907 0.0
C1170 C 0.37838 0.93572 0.55393 0.0
C1171 C 0.34551 0.94826 0.56031 0.0
C1172 C 0.36255 1.00258 0.54392 0.0
C1173 C 0.39533 0.99013 0.53783 0.0
N1174 N 0.43605 0.94631 0.5392 0.0
N1175 N 0.30654 0.99335 0.56595 0.0
C1176 C 0.40372 0.95711 0.54368 0.0
C1177 C 0.33765 0.9817 0.55658 0.0
N1178 N 0.3849 0.90314 0.5558 0.0
N1179 N 0.35551 0.03443 0.53726 0.0
H1180 H 0.28807 0.97859 0.57586 0.0
H1181 H 0.29944 0.01769 0.56611 0.0
H1182 H 0.37376 0.05031 0.52915 0.0
H1183 H 0.33168 0.04498 0.53826 0.0
H1184 H 0.40711 0.89193 0.54755 0.0
H1185 H 0.36737 0.88667 0.56409 0.0
H1186 H 0.44504 0.92388 0.54728 0.0
H1187 H 0.45455 0.96041 0.52838 0.0
C1188 C 0.82755 0.6527 0.26986 0.0
C1189 C 0.85608 0.65109 0.24871 0.0
C1190 C 0.84934 0.70826 0.23517 0.0
C1191 C 0.82471 0.71089 0.26072 0.0
N1192 N 0.79344 0.68642 0.30584 0.0
N1193 N 0.89561 0.67643 0.2117 0.0
C1194 C 0.81415 0.68329 0.27874 0.0
C1195 C 0.8673 0.67858 0.23122 0.0
N1196 N 0.81384 0.62506 0.28206 0.0
N1197 N 0.85494 0.7338 0.21442 0.0
H1198 H 0.90854 0.65459 0.20733 0.0
H1199 H 0.90719 0.69643 0.2013 0.0
H1200 H 0.84158 0.75575 0.21633 0.0
H1201 H 0.87053 0.7323 0.1936 0.0
H1202 H 0.79109 0.62484 0.29513 0.0
H1203 H 0.82349 0.60209 0.2764 0.0
H1204 H 0.78813 0.66734 0.32182 0.0
H1205 H 0.78412 0.70852 0.31445 0.0
C1206 C 0.7683 0.42185 0.83243 0.0
C1207 C 0.75179 0.43724 0.80629 0.0
C1208 C 0.78194 0.40184 0.76749 0.0
C1209 C 0.79225 0.38254 0.79399 0.0
N1210 N 0.81195 0.38366 0.84842 0.0
N1211 N 0.74391 0.44365 0.74837 0.0
C1212 C 0.79083 0.39553 0.82564 0.0
C1213 C 0.7597 0.42847 0.77348 0.0
N1214 N 0.7616 0.43172 0.86364 0.0
N1215 N 0.79382 0.39446 0.73682 0.0
H1216 H 0.72727 0.46325 0.75145 0.0
H1217 H 0.74564 0.43565 0.72449 0.0
H1218 H 0.81112 0.37545 0.73274 0.0
H1219 H 0.78949 0.40879 0.7163 0.0
H1220 H 0.76965 0.419 0.88406 0.0
H1221 H 0.74659 0.45208 0.86917 0.0
H1222 H 0.81329 0.39311 0.8716 0.0
H1223 H 0.83131 0.36716 0.84251 0.0
C1224 C 0.06774 0.89487 0.97878 0.0
C1225 C 0.03874 0.88634 0.96239 0.0
C1226 C 0.01679 0.94311 0.97044 0.0
C1227 C 0.04465 0.95099 0.98923 0.0
N1228 N 0.09602 0.93238 0.01243 0.0
N1229 N 0.98352 0.90194 0.94679 0.0
C1230 C 0.06973 0.92613 0.99379 0.0
C1231 C 0.01295 0.91057 0.95907 0.0
N1232 N 0.09451 0.87366 0.97842 0.0
N1233 N 0.99328 0.96657 0.96371 0.0
H1234 H 0.97939 0.8787 0.93892 0.0
H1235 H 0.9621 0.91673 0.94696 0.0
H1236 H 0.99219 0.98922 0.9742 0.0
H1237 H 0.97545 0.96422 0.94635 0.0
H1238 H 0.11785 0.87925 0.98629 0.0
H1239 H 0.09437 0.85113 0.96757 0.0
H1240 H 0.1124 0.91457 0.02107 0.0
H1241 H 0.10083 0.95539 0.02046 0.0
C1242 C 0.91325 0.31285 0.70198 0.0
C1243 C 0.93059 0.28384 0.69309 0.0
C1244 C 0.89062 0.25252 0.7259 0.0
C1245 C 0.87592 0.28186 0.73765 0.0
N1246 N 0.87616 0.33982 0.74129 0.0
N1247 N 0.93842 0.22606 0.69848 0.0
C1248 C 0.88808 0.31201 0.72695 0.0
C1249 C 0.9199 0.25354 0.70533 0.0
N1250 N 0.92027 0.34108 0.6858 0.0
N1251 N 0.8763 0.22388 0.734 0.0
H1252 H 0.95972 0.22588 0.68311 0.0
H1253 H 0.93392 0.20378 0.70957 0.0
H1254 H 0.85558 0.22228 0.75002 0.0
H1255 H 0.88363 0.20201 0.72339 0.0
H1256 H 0.90619 0.36242 0.68901 0.0
H1257 H 0.93807 0.34239 0.66666 0.0
H1258 H 0.88641 0.36225 0.7367 0.0
H1259 H 0.85808 0.34003 0.7602 0.0
C1260 C 0.5243 0.17239 0.45957 0.0
C1261 C 0.5338 0.20102 0.47515 0.0
C1262 C 0.54092 0.16731 0.52574 0.0
C1263 C 0.53481 0.13829 0.50905 0.0
N1264 N 0.52803 0.11381 0.45706 0.0
N1265 N 0.55721 0.2234 0.52251 0.0
C1266 C 0.52851 0.14112 0.47514 0.0
C1267 C 0.54364 0.19777 0.50815 0.0
N1268 N 0.50955 0.17495 0.43026 0.0
N1269 N 0.54289 0.16619 0.55882 0.0
H1270 H 0.56045 0.24554 0.51062 0.0
H1271 H 0.56823 0.22177 0.54497 0.0
H1272 H 0.5407 0.14488 0.57247 0.0
H1273 H 0.54355 0.18673 0.57296 0.0
H1274 H 0.49886 0.15559 0.4193 0.0
H1275 H 0.50457 0.19701 0.41862 0.0
H1276 H 0.52733 0.11425 0.43176 0.0
H1277 H 0.532 0.09071 0.46685 0.0
C1278 C 0.6216 0.78584 0.18488 0.0
C1279 C 0.58889 0.78919 0.19884 0.0
C1280 C 0.60942 0.77793 0.2531 0.0
C1281 C 0.64157 0.77213 0.23879 0.0
N1282 N 0.67774 0.76439 0.19133 0.0
N1283 N 0.55025 0.78535 0.24514 0.0
C1284 C 0.64753 0.77438 0.20469 0.0
C1285 C 0.58232 0.78419 0.23267 0.0
N1286 N 0.62792 0.79404 0.1529 0.0
N1287 N 0.60528 0.77875 0.28623 0.0
H1288 H 0.5299 0.79142 0.2311 0.0
H1289 H 0.54358 0.7785 0.26894 0.0
H1290 H 0.62491 0.7743 0.30166 0.0
H1291 H 0.58316 0.78607 0.29837 0.0
H1292 H 0.65181 0.79525 0.1423 0.0
H1293 H 0.6094 0.80215 0.13745 0.0
H1294 H 0.68281 0.76255 0.16638 0.0
H1295 H 0.69693 0.75499 0.20532 0.0
C1296 C 0.1041 0.22504 0.58597 0.0
C1297 C 0.07228 0.2375 0.57741 0.0
C1298 C 0.07327 0.20222 0.53037 0.0
C1299 C 0.10168 0.18591 0.54245 0.0
N1300 N 0.1458 0.1815 0.57961 0.0
N1301 N 0.02747 0.241 0.54032 0.0
C1302 C 0.11816 0.1979 0.56911 0.0
C1303 C 0.05733 0.22733 0.54888 0.0
N1304 N 0.12027 0.23855 0.61069 0.0
N1305 N 0.06127 0.19249 0.50169 0.0
H1306 H 0.01608 0.26049 0.55265 0.0
H1307 H 0.01347 0.23279 0.52164 0.0
H1308 H 0.07296 0.17387 0.48828 0.0
H1309 H 0.04147 0.20386 0.49012 0.0
H1310 H 0.14465 0.23235 0.61638 0.0
H1311 H 0.11011 0.25764 0.62441 0.0
H1312 H 0.15721 0.18621 0.60119 0.0
H1313 H 0.15677 0.1621 0.56683 0.0
C1314 C 0.65106 0.2665 0.36615 0.0
C1315 C 0.62891 0.29405 0.36626 0.0
C1316 C 0.66881 0.32149 0.32818 0.0
C1317 C 0.6924 0.29526 0.33079 0.0
N1318 N 0.70754 0.24486 0.35745 0.0
N1319 N 0.61983 0.35004 0.35135 0.0
C1320 C 0.68386 0.26828 0.35111 0.0
C1321 C 0.63864 0.32212 0.34823 0.0
N1322 N 0.64034 0.238 0.37929 0.0
N1323 N 0.67456 0.3454 0.30555 0.0
H1324 H 0.59812 0.35181 0.36606 0.0
H1325 H 0.62736 0.37219 0.34186 0.0
H1326 H 0.69583 0.34559 0.29015 0.0
H1327 H 0.65688 0.36331 0.29985 0.0
H1328 H 0.65372 0.21618 0.37673 0.0
H1329 H 0.61662 0.23546 0.39005 0.0
H1330 H 0.70412 0.2267 0.37497 0.0
H1331 H 0.7318 0.24521 0.34757 0.0
C1332 C 0.4848 0.9268 0.11052 0.0
C1333 C 0.51016 0.903 0.10415 0.0
C1334 C 0.53888 0.93866 0.0656 0.0
C1335 C 0.51478 0.96353 0.07339 0.0
N1336 N 0.46645 0.98293 0.10496 0.0
N1337 N 0.56466 0.88773 0.08175 0.0
C1338 C 0.48825 0.95815 0.09652 0.0
C1339 C 0.53811 0.90931 0.08339 0.0
N1340 N 0.45714 0.91906 0.12911 0.0
N1341 N 0.5625 0.94279 0.04111 0.0
H1342 H 0.56517 0.86579 0.09454 0.0
H1343 H 0.58749 0.89282 0.07025 0.0
H1344 H 0.566 0.96443 0.02861 0.0
H1345 H 0.57749 0.92397 0.03159 0.0
H1346 H 0.43607 0.93417 0.13196 0.0
H1347 H 0.45443 0.89647 0.14032 0.0
H1348 H 0.44891 0.98162 0.12423 0.0
H1349 H 0.46685 0.0056 0.09358 0.0
C1350 C 0.93389 0.75986 0.8473 0.0
C1351 C 0.94292 0.78831 0.8634 0.0
C1352 C 0.89166 0.81582 0.8431 0.0
C1353 C 0.88365 0.78801 0.82508 0.0
N1354 N 0.90128 0.73535 0.80614 0.0
N1355 N 0.93302 0.84521 0.87121 0.0
C1356 C 0.90597 0.76053 0.82625 0.0
C1357 C 0.92246 0.81672 0.85973 0.0
N1358 N 0.9513 0.73162 0.85309 0.0
N1359 N 0.86906 0.84104 0.84602 0.0
H1360 H 0.95497 0.84696 0.8836 0.0
H1361 H 0.92169 0.86754 0.86595 0.0
H1362 H 0.84645 0.8419 0.8347 0.0
H1363 H 0.87122 0.85982 0.8622 0.0
H1364 H 0.94401 0.70925 0.8454 0.0
H1365 H 0.97162 0.73013 0.86806 0.0
H1366 H 0.91828 0.71605 0.80299 0.0
H1367 H 0.88186 0.73522 0.79012 0.0
C1368 C 0.95748 0.05063 0.8668 0.0
C1369 C 0.96775 0.06995 0.83981 0.0
C1370 C 0.01018 0.09401 0.87154 0.0
C1371 C 0.99668 0.07821 0.89947 0.0
N1372 N 0.95566 0.04406 0.92538 0.0
N1373 N 1.00377 0.10947 0.81489 0.0
C1374 C 0.97014 0.05678 0.89756 0.0
C1375 C 0.99433 0.09134 0.8416 0.0
N1376 N 0.93537 0.02677 0.86307 0.0
N1377 N 0.03819 0.11136 0.874 0.0
H1378 H 0.99383 0.10665 0.79211 0.0
H1379 H 0.02051 0.12801 0.81538 0.0
H1380 H 0.04984 0.1136 0.89603 0.0
H1381 H 0.05117 0.12159 0.8542 0.0
H1382 H 0.92963 0.00969 0.88112 0.0
H1383 H 0.9248 0.02225 0.84094 0.0
H1384 H 0.93395 0.03108 0.92588 0.0
H1385 H 0.96368 0.04862 0.94857 0.0
C1386 C 0.79981 0.26476 0.59696 0.0
C1387 C 0.78034 0.23977 0.58547 0.0
C1388 C 0.73745 0.25051 0.62833 0.0
C1389 C 0.75733 0.27466 0.64031 0.0
N1390 N 0.80359 0.3094 0.63417 0.0
N1391 N 0.72763 0.21323 0.58539 0.0
C1392 C 0.7873 0.28335 0.62378 0.0
C1393 C 0.74801 0.23426 0.5994 0.0
N1394 N 0.83037 0.27025 0.58247 0.0
N1395 N 0.70955 0.24181 0.64599 0.0
H1396 H 0.73478 0.19946 0.5652 0.0
H1397 H 0.70269 0.2108 0.59245 0.0
H1398 H 0.70099 0.25395 0.6669 0.0
H1399 H 0.69598 0.22163 0.6412 0.0
H1400 H 0.84749 0.28563 0.59158 0.0
H1401 H 0.83917 0.25859 0.56136 0.0
H1402 H 0.82451 0.31883 0.62229 0.0
H1403 H 0.7946 0.32314 0.65387 0.0
C1404 C 0.58174 0.99902 0.41294 0.0
C1405 C 0.60967 0.01783 0.40427 0.0
C1406 C 0.60563 0.04365 0.45664 0.0
C1407 C 0.58003 0.02261 0.46699 0.0
N1408 N 0.54951 0.9747 0.45738 0.0
N1409 N 0.65526 0.04847 0.42257 0.0
C1410 C 0.56981 0.99845 0.4459 0.0
C1411 C 0.62401 0.03695 0.42769 0.0
N1412 N 0.5656 0.9831 0.3898 0.0
N1413 N 0.61086 0.07146 0.4727 0.0
H1414 H 0.67048 0.04251 0.40224 0.0
H1415 H 0.66735 0.06055 0.44047 0.0
H1416 H 0.59525 0.0799 0.49168 0.0
H1417 H 0.62784 0.08839 0.4641 0.0
H1418 H 0.54317 0.97177 0.3947 0.0
H1419 H 0.57282 0.98371 0.36517 0.0
H1420 H 0.54374 0.95503 0.44348 0.0
H1421 H 0.5414 0.97281 0.48175 0.0
C1422 C 0.80081 0.88196 0.15707 0.0
C1423 C 0.78672 0.86708 0.13003 0.0
C1424 C 0.77669 0.819 0.16622 0.0
C1425 C 0.7874 0.83534 0.19408 0.0
N1426 N 0.80258 0.88635 0.21579 0.0
N1427 N 0.75524 0.82293 0.1117 0.0
C1428 C 0.79755 0.86789 0.18934 0.0
C1429 C 0.77309 0.83596 0.13545 0.0
N1430 N 0.81887 0.90903 0.15193 0.0
N1431 N 0.77125 0.78669 0.16855 0.0
H1432 H 0.75134 0.83455 0.08944 0.0
H1433 H 0.74152 0.80223 0.11532 0.0
H1434 H 0.77463 0.77318 0.18984 0.0
H1435 H 0.76679 0.77264 0.14853 0.0
H1436 H 0.83277 0.91897 0.16983 0.0
H1437 H 0.82302 0.91952 0.12896 0.0
H1438 H 0.8062 0.91109 0.2141 0.0
H1439 H 0.79943 0.87797 0.2397 0.0
C1440 C 0.9852 0.1085 0.66255 0.0
C1441 C 0.98744 0.08718 0.68949 0.0
C1442 C 0.03711 0.06055 0.66479 0.0
C1443 C 0.03012 0.07661 0.63521 0.0
N1444 N 0.99928 0.11774 0.60556 0.0
N1445 N 0.01713 0.04574 0.71935 0.0
C1446 C 1.00531 0.10186 0.63417 0.0
C1447 C 0.01431 0.06437 0.69179 0.0
N1448 N 0.96335 0.13446 0.66395 0.0
N1449 N 0.06556 0.04183 0.66669 0.0
H1450 H 1.00188 0.04952 0.7402 0.0
H1451 H 0.03383 0.02616 0.72137 0.0
H1452 H 0.08294 0.0401 0.64717 0.0
H1453 H 0.07348 0.03072 0.68803 0.0
H1454 H 0.96251 0.15263 0.64617 0.0
H1455 H 0.94798 0.13936 0.68446 0.0
H1456 H 0.97866 0.13306 0.60204 0.0
H1457 H 0.01438 0.11463 0.5847 0.0
C1458 C 0.83957 0.20994 0.40265 0.0
C1459 C 0.8219 0.2214 0.43091 0.0
C1460 C 0.79352 0.26312 0.399 0.0
C1461 C 0.81275 0.25319 0.37092 0.0
N1462 N 0.85853 0.22145 0.34699 0.0
N1463 N 0.78763 0.26276 0.45769 0.0
C1464 C 0.83709 0.22774 0.37297 0.0
C1465 C 0.80088 0.24939 0.42965 0.0
N1466 N 0.85839 0.18192 0.40419 0.0
N1467 N 0.76665 0.28396 0.39624 0.0
H1468 H 0.7914 0.25286 0.48076 0.0
H1469 H 0.77533 0.28527 0.4583 0.0
H1470 H 0.75917 0.29376 0.37419 0.0
H1471 H 0.74952 0.28889 0.41536 0.0
H1472 H 0.86878 0.17033 0.38372 0.0
H1473 H 0.86208 0.1692 0.42594 0.0
H1474 H 0.87883 0.20526 0.34802 0.0
H1475 H 0.85786 0.23455 0.32513 0.0
C1476 C 0.56468 0.03287 0.2291 0.0
C1477 C 0.59184 0.04943 0.24077 0.0
C1478 C 0.592 0.08585 0.19347 0.0
C1479 C 0.56418 0.07012 0.18236 0.0
N1480 N 0.52016 0.03288 0.19094 0.0
N1481 N 0.62729 0.09541 0.23812 0.0
C1482 C 0.54928 0.04486 0.20068 0.0
C1483 C 0.60408 0.07726 0.22431 0.0
N1484 N 0.55424 0.00546 0.24477 0.0
N1485 N 0.60806 0.10758 0.17357 0.0
H1486 H 0.63736 0.08948 0.26041 0.0
H1487 H 0.63451 0.11777 0.22891 0.0
H1488 H 0.6001 0.114 0.15047 0.0
H1489 H 0.6308 0.1172 0.17868 0.0
H1490 H 0.53687 0.99033 0.23564 0.0
H1491 H 0.56431 0.99692 0.2664 0.0
H1492 H 0.50633 0.01623 0.20448 0.0
H1493 H 0.50845 0.04163 0.17025 0.0
C1494 C 0.75884 0.88095 0.91752 0.0
C1495 C 0.78314 0.87051 0.94022 0.0
C1496 C 0.80229 0.82802 0.90081 0.0
C1497 C 0.77937 0.83963 0.87708 0.0
N1498 N 0.73847 0.88039 0.86237 0.0
N1499 N 0.83238 0.83785 0.94971 0.0
C1500 C 0.75865 0.86721 0.88532 0.0
C1501 C 0.8058 0.84488 0.93085 0.0
N1502 N 0.73456 0.90296 0.92732 0.0
N1503 N 0.82137 0.80079 0.89469 0.0
H1504 H 0.83634 0.84975 0.97127 0.0
H1505 H 0.85231 0.82256 0.94255 0.0
H1506 H 0.82309 0.78982 0.87217 0.0
H1507 H 0.83448 0.78817 0.91243 0.0
H1508 H 0.71395 0.90919 0.9138 0.0
H1509 H 0.73335 0.91303 0.95042 0.0
H1510 H 0.72594 0.90264 0.86486 0.0
H1511 H 0.73577 0.86997 0.83978 0.0
C1512 C 0.91069 0.95445 0.03062 0.0
C1513 C 0.87943 0.96989 0.03908 0.0
C1514 C 0.91032 0.01997 0.04865 0.0
C1515 C 0.94156 1.00308 0.04433 0.0
N1516 N 0.96995 0.95106 0.03814 0.0
N1517 N 0.85124 0.01676 0.06299 0.0
C1518 C 0.94119 0.96939 0.03761 0.0
C1519 C 0.87971 1.00262 0.04975 0.0
N1520 N 0.91166 0.92618 0.01395 0.0
N1521 N 0.90969 0.05266 0.05215 0.0
H1522 H 0.82901 1.00474 0.06629 0.0
H1523 H 0.85056 0.03918 0.07406 0.0
H1524 H 0.9313 0.06577 0.05308 0.0
H1525 H 0.88788 0.06692 0.0517 0.0
H1526 H 0.93368 0.91548 1.00441 0.0
H1527 H 0.89043 0.91554 0.00599 0.0
H1528 H 0.97057 0.92595 0.03704 0.0
H1529 H 0.99278 0.96051 0.0427 0.0
C1530 C 0.41261 0.65498 0.9867 0.0
C1531 C 0.38874 0.65436 0.01303 0.0
C1532 C 0.42115 0.61147 0.04006 0.0
C1533 C 0.44389 0.61055 0.01266 0.0
N1534 N 0.45739 0.62631 0.9571 0.0
N1535 N 0.36607 0.62738 0.0611 0.0
C1536 C 0.43849 0.63087 0.98514 0.0
C1537 C 0.39177 0.63127 0.03869 0.0
N1538 N 0.41124 0.67926 0.96382 0.0
N1539 N 0.42824 0.59471 0.068 0.0
H1540 H 0.34391 0.64116 0.06084 0.0
H1541 H 0.36541 0.60847 0.07811 0.0
H1542 H 0.4494 0.57985 0.07036 0.0
H1543 H 0.41461 0.59778 0.0899 0.0
H1544 H 0.43005 0.68301 0.94611 0.0
H1545 H 0.39264 0.69741 0.9642 0.0
H1546 H 0.45265 0.63828 0.93523 0.0
H1547 H 0.47574 0.60804 0.95486 0.0
C1548 C 0.2477 0.59951 0.76626 0.0
C1549 C 0.23898 0.58314 0.79577 0.0
C1550 C 0.26593 0.62338 0.82714 0.0
C1551 C 0.27628 0.63862 0.79766 0.0
N1552 N 0.28281 0.63918 0.73937 0.0
N1553 N 0.24683 0.57445 0.85331 0.0
C1554 C 0.26899 0.62594 0.7672 0.0
C1555 C 0.25013 0.59357 0.82601 0.0
N1556 N 0.23443 0.59081 0.73774 0.0
N1557 N 0.26997 0.63814 0.85609 0.0
H1558 H 0.23657 0.5517 0.85323 0.0
H1559 H 0.25735 0.57964 0.87526 0.0
H1560 H 0.28138 0.66023 0.85766 0.0
H1561 H 0.25956 0.62985 0.87818 0.0
H1562 H 0.23727 0.60396 0.71606 0.0
H1563 H 0.21826 0.57181 0.73621 0.0
H1564 H 0.28099 0.62932 0.71642 0.0
H1565 H 0.29859 0.65862 0.7397 0.0
C1566 C 0.16947 0.44938 0.52347 0.0
C1567 C 0.19607 0.46408 0.53873 0.0
C1568 C 0.15872 0.51175 0.54937 0.0
C1569 C 0.13107 0.49537 0.53775 0.0
N1570 N 0.10988 0.44446 0.52125 0.0
N1571 N 0.21319 0.50699 0.57256 0.0
C1572 C 0.13639 0.46304 0.52685 0.0
C1573 C 0.1899 0.49467 0.55344 0.0
N1574 N 0.17581 0.42299 0.50446 0.0
N1575 N 0.1559 0.54408 0.55516 0.0
H1576 H 0.23579 0.49503 0.57701 0.0
H1577 H 0.2086 0.5274 0.58671 0.0
H1578 H 0.13434 0.55789 0.55099 0.0
H1579 H 0.17606 0.55785 0.56064 0.0
H1580 H 0.15798 0.41336 0.4901 0.0
H1581 H 0.19965 0.41292 0.50013 0.0
H1582 H 0.11236 0.41984 0.51666 0.0
H1583 H 0.08522 0.45243 0.52494 0.0
C1584 C 0.83512 0.98269 0.76211 0.0
C1585 C 0.86544 0.98794 0.74422 0.0
C1586 C 0.86586 0.93336 0.72286 0.0
C1587 C 0.83493 0.92869 0.73954 0.0
N1588 N 0.78724 0.94905 0.7707 0.0
N1589 N 0.90801 0.97078 0.70454 0.0
C1590 C 0.81873 0.95344 0.758 0.0
C1591 C 0.88026 0.96406 0.72349 0.0
N1592 N 0.82231 0.00548 0.78324 0.0
N1593 N 0.88188 0.90789 0.7076 0.0
H1594 H 0.91999 0.99265 0.70537 0.0
H1595 H 0.91805 0.9556 0.68651 0.0
H1596 H 0.87169 0.88512 0.70691 0.0
H1597 H 0.90607 0.9085 0.69764 0.0
H1598 H 0.80247 1.00158 0.79974 0.0
H1599 H 0.83265 0.02799 0.78561 0.0
H1600 H 0.77248 0.96715 0.7818 0.0
H1601 H 0.77477 0.92768 0.76794 0.0
C1602 C 0.72999 0.11838 0.58103 0.0
C1603 C 0.7459 0.10922 0.55093 0.0
C1604 C 0.70502 0.0678 0.54448 0.0
C1605 C 0.68684 0.07996 0.57207 0.0
N1606 N 0.6788 0.11926 0.61418 0.0
N1607 N 0.74874 0.07627 0.50308 0.0
C1608 C 0.69865 0.10565 0.58999 0.0
C1609 C 0.73351 0.08413 0.53237 0.0
N1610 N 0.74446 0.13952 0.60084 0.0
N1611 N 0.69527 0.0402 0.5305 0.0
H1612 H 0.77089 0.08639 0.4945 0.0
H1613 H 0.73871 0.06089 0.48662 0.0
H1614 H 0.67476 0.02756 0.53947 0.0
H1615 H 0.70888 0.02835 0.51194 0.0
H1616 H 0.7357 0.14417 0.62455 0.0
H1617 H 0.76662 0.15083 0.59471 0.0
H1618 H 0.68425 0.14051 0.62568 0.0
H1619 H 0.65528 0.11093 0.62084 0.0
C1620 C 0.2546 0.41521 0.85451 0.0
C1621 C 0.25948 0.43531 0.82659 0.0
C1622 C 0.30861 0.40311 0.80953 0.0
C1623 C 0.29742 0.37886 0.83119 0.0
N1624 N 0.27214 0.36572 0.88287 0.0
N1625 N 0.29398 0.45269 0.78061 0.0
C1626 C 0.27481 0.38671 0.85708 0.0
C1627 C 0.28795 0.43105 0.80541 0.0
N1628 N 0.22952 0.42234 0.87696 0.0
N1629 N 0.33853 0.39896 0.7931 0.0
H1630 H 0.27978 0.47405 0.77797 0.0
H1631 H 0.31228 0.44904 0.76225 0.0
H1632 H 0.35396 0.37868 0.7972 0.0
H1633 H 0.34922 0.41659 0.77808 0.0
H1634 H 0.22317 0.40757 0.89679 0.0
H1635 H 0.21477 0.44346 0.87568 0.0
H1636 H 0.25641 0.36929 0.9033 0.0
H1637 H 0.28794 0.34523 0.88414 0.0
C1638 C 0.36445 0.67448 0.2454 0.0
C1639 C 0.35068 0.64421 0.25084 0.0
C1640 C 0.30108 0.67064 0.2765 0.0
C1641 C 0.31884 0.69959 0.27751 0.0
N1642 N 0.37253 0.72481 0.27019 0.0
N1643 N 0.30552 0.61225 0.27226 0.0
C1644 C 0.35193 0.70045 0.26395 0.0
C1645 C 0.31851 0.64181 0.2661 0.0
N1646 N 0.39062 0.67793 0.22357 0.0
N1647 N 0.26822 0.67051 0.28619 0.0
H1648 H 0.31726 0.5909 0.26418 0.0
H1649 H 0.28391 0.60888 0.2866 0.0
H1650 H 0.25544 0.69088 0.29549 0.0
H1651 H 0.25333 0.6508 0.28317 0.0
H1652 H 0.40021 0.7003 0.21705 0.0
H1653 H 0.39982 0.65871 0.20949 0.0
H1654 H 0.39751 0.72473 0.26228 0.0
H1655 H 0.36647 0.74253 0.28688 0.0
C1656 C 0.50953 0.68782 0.59422 0.0
C1657 C 0.53282 0.6932 0.61875 0.0
C1658 C 0.5431 0.63336 0.6211 0.0
C1659 C 0.52465 0.62828 0.5925 0.0
N1660 N 0.48734 0.6529 0.55397 0.0
N1661 N 0.57679 0.66981 0.6504 0.0
C1662 C 0.50735 0.65631 0.5796 0.0
C1663 C 0.55088 0.66555 0.63064 0.0
N1664 N 0.48757 0.71229 0.5863 0.0
N1665 N 0.55189 0.60793 0.64084 0.0
H1666 H 0.58422 0.69252 0.6571 0.0
H1667 H 0.59322 0.65107 0.65696 0.0
H1668 H 0.54398 0.58463 0.63807 0.0
H1669 H 0.56284 0.61082 0.66308 0.0
H1670 H 0.46749 0.70943 0.57158 0.0
H1671 H 0.48731 0.73492 0.59694 0.0
H1672 H 0.47907 0.67222 0.53957 0.0
H1673 H 0.4788 0.63068 0.54712 0.0
C1674 C 0.67221 0.32364 0.88257 0.0
C1675 C 0.64689 0.30103 0.8808 0.0
C1676 C 0.67775 0.27281 0.83671 0.0
C1677 C 0.70235 0.29633 0.83731 0.0
N1678 N 0.72054 0.34746 0.85595 0.0
N1679 N 0.6214 0.25859 0.85197 0.0
C1680 C 0.69888 0.32277 0.85887 0.0
C1681 C 0.64838 0.27696 0.85656 0.0
N1682 N 0.67115 0.34528 0.90733 0.0
N1683 N 0.68313 0.24569 0.81847 0.0
H1684 H 0.5993 0.26067 0.86604 0.0
H1685 H 0.61979 0.24328 0.83232 0.0
H1686 H 0.70438 0.24167 0.80349 0.0
H1687 H 0.66784 0.22592 0.8202 0.0
H1688 H 0.69071 0.36007 0.91209 0.0
H1689 H 0.65145 0.34689 0.92463 0.0
H1690 H 0.7176 0.36883 0.86883 0.0
H1691 H 0.73994 0.34783 0.83837 0.0
C1692 C 0.02175 0.4002 0.10827 0.0
C1693 C 0.05023 0.37863 0.10836 0.0
C1694 C 0.07968 0.41869 0.07215 0.0
C1695 C 0.05238 0.44159 0.07499 0.0
N1696 N 0.99981 0.4553 0.10259 0.0
N1697 N 0.10875 0.37125 0.09439 0.0
C1698 C 0.02409 0.43254 0.09489 0.0
C1699 C 0.0798 0.38898 0.09125 0.0
N1700 N 0.99166 0.38944 0.11968 0.0
N1701 N 0.10519 0.4246 0.05013 0.0
H1702 H 0.11027 0.35014 0.10847 0.0
H1703 H 0.13184 0.37909 0.08571 0.0
H1704 H 0.10583 0.44535 0.03545 0.0
H1705 H 0.124 0.40759 0.04414 0.0
H1706 H 0.96936 0.40256 0.11706 0.0
H1707 H 0.98837 0.36601 0.12854 0.0
H1708 H 0.98058 0.45136 0.11982 0.0
H1709 H 1.00073 0.47923 0.09454 0.0
C1710 C 0.95262 0.81093 0.39181 0.0
C1711 C 0.98252 0.79748 0.37742 0.0
C1712 C 0.9601 0.8038 0.32312 0.0
C1713 C 0.92965 0.81536 0.3377 0.0
N1714 N 0.89498 0.82798 0.38509 0.0
N1715 N 0.01463 0.77829 0.33045 0.0
C1716 C 0.92538 0.81837 0.37186 0.0
C1717 C 0.98635 0.79328 0.34328 0.0
N1718 N 0.9508 0.81776 0.4243 0.0
N1719 N 0.96363 0.80314 0.28994 0.0
H1720 H 0.03431 0.7704 0.34464 0.0
H1721 H 0.018 0.77181 0.30618 0.0
H1722 H 0.94423 0.80978 0.27488 0.0
H1723 H 0.98597 0.79781 0.27721 0.0
H1724 H 0.93123 0.83091 0.43562 0.0
H1725 H 0.97001 0.81216 0.43989 0.0
H1726 H 0.88871 0.82694 0.40989 0.0
H1727 H 0.87517 0.83556 0.37096 0.0
C1728 C 0.49727 0.38506 0.97406 0.0
C1729 C 0.51712 0.36181 0.99091 0.0
C1730 C 0.51069 0.39346 0.04053 0.0
C1731 C 0.49037 0.41607 0.02375 0.0
N1732 N 0.4578 0.43044 0.978 0.0
N1733 N 0.53745 0.34012 0.04141 0.0
C1734 C 0.48118 0.41048 0.99171 0.0
C1735 C 0.52218 0.36478 0.02464 0.0
N1736 N 0.49594 0.38438 0.94088 0.0
N1737 N 0.52021 0.40041 0.07103 0.0
H1738 H 0.5461 0.3188 0.03035 0.0
H1739 H 0.53921 0.33969 0.06661 0.0
H1740 H 0.51112 0.4209 0.08332 0.0
H1741 H 0.53809 0.38687 0.08338 0.0
H1742 H 0.48465 0.4026 0.92707 0.0
H1743 H 0.50903 0.36729 0.92666 0.0
H1744 H 0.44774 0.42623 0.95559 0.0
H1745 H 0.44622 0.44964 0.99064 0.0
C1746 C 0.91934 0.28053 0.19792 0.0
C1747 C 0.94777 0.29283 0.21242 0.0
C1748 C 0.91166 0.30518 0.26158 0.0
C1749 C 0.88267 0.29637 0.24549 0.0
N1750 N 0.85941 0.28389 0.19408 0.0
N1751 N 0.96814 0.32406 0.25601 0.0
C1752 C 0.8867 0.28642 0.21244 0.0
C1753 C 0.94311 0.30716 0.24372 0.0
N1754 N 0.92332 0.26168 0.17102 0.0
N1755 N 0.90979 0.31033 0.29434 0.0
H1756 H 0.99078 0.32752 0.2434 0.0
H1757 H 0.96504 0.33769 0.27705 0.0
H1758 H 0.88792 0.30803 0.30856 0.0
H1759 H 0.93069 0.31353 0.30791 0.0
H1760 H 0.90381 0.24949 0.16146 0.0
H1761 H 0.94653 0.25505 0.16058 0.0
H1762 H 0.86114 0.2799 0.1691 0.0
H1763 H 0.83526 0.28962 0.20274 0.0
C1764 C 0.08546 0.67487 0.5017 0.0
C1765 C 0.06545 0.68306 0.47487 0.0
C1766 C 0.05788 0.626 0.46615 0.0
C1767 C 0.0689 0.61869 0.49785 0.0
N1768 N 0.10037 0.6353 0.5431 0.0
N1769 N 0.02798 0.6656 0.43447 0.0
C1770 C 0.08485 0.64293 0.51495 0.0
C1771 C 0.05044 0.65842 0.45776 0.0
N1772 N 0.10649 0.69687 0.51316 0.0
N1773 N 0.05628 0.6026 0.44338 0.0
H1774 H 0.01968 0.68906 0.42893 0.0
H1775 H 0.01474 0.64785 0.42347 0.0
H1776 H 0.06701 0.57958 0.44651 0.0
H1777 H 0.04968 0.60767 0.41951 0.0
H1778 H 0.12378 0.6914 0.53074 0.0
H1779 H 0.10927 0.71976 0.50273 0.0
H1780 H 0.1077 0.65252 0.55924 0.0
H1781 H 0.10613 0.61157 0.55013 0.0
C1782 C 0.6337 0.77853 0.75067 0.0
C1783 C 0.6317 0.79057 0.71792 0.0
C1784 C 0.69218 0.8005 0.7188 0.0
C1785 C 0.69328 0.79297 0.75284 0.0
N1786 N 0.66162 0.77987 0.80209 0.0
N1787 N 0.65907 0.8214 0.67483 0.0
C1788 C 0.663 0.78339 0.76899 0.0
C1789 C 0.66095 0.80398 0.70323 0.0
N1790 N 0.60838 0.76092 0.76406 0.0
N1791 N 0.72106 0.80224 0.70034 0.0
H1792 H 0.63678 0.82648 0.66349 0.0
H1793 H 0.67903 0.83414 0.66479 0.0
H1794 H 0.74425 0.79676 0.70958 0.0
H1795 H 0.7216 0.80462 0.67504 0.0
H1796 H 0.60985 0.74879 0.78639 0.0
H1797 H 0.58748 0.75537 0.7514 0.0
H1798 H 0.63955 0.77613 0.81558 0.0
H1799 H 0.68183 0.78402 0.81633 0.0
C1800 C 0.63342 0.46661 0.70902 0.0
C1801 C 0.62423 0.49009 0.73268 0.0
C1802 C 0.57662 0.50829 0.70144 0.0
C1803 C 0.58788 0.48732 0.67638 0.0
N1804 N 0.62822 0.44923 0.65347 0.0
N1805 N 0.58878 0.5351 0.75103 0.0
C1806 C 0.61651 0.46698 0.67946 0.0
C1807 C 0.59631 0.51152 0.72879 0.0
N1808 N 0.65824 0.44415 0.7148 0.0
N1809 N 0.54648 0.52426 0.69931 0.0
H1810 H 0.60119 0.53722 0.77256 0.0
H1811 H 0.5714 0.55384 0.74736 0.0
H1812 H 0.53143 0.52197 0.67948 0.0
H1813 H 0.53503 0.53752 0.71817 0.0
H1814 H 0.66384 0.42449 0.6999 0.0
H1815 H 0.67187 0.44382 0.73582 0.0
H1816 H 0.65088 0.43634 0.6528 0.0
H1817 H 0.61629 0.44935 0.63142 0.0
C1818 C 0.81337 0.3585 0.95898 0.0
C1819 C 0.79064 0.34526 0.98254 0.0
C1820 C 0.79586 0.29285 0.95605 0.0
C1821 C 0.81904 0.30596 0.93304 0.0
N1822 N 0.85521 0.34813 0.91578 0.0
N1823 N 0.76475 0.29896 0.00759 0.0
C1824 C 0.82961 0.33785 0.93578 0.0
C1825 C 0.78345 0.31204 0.98249 0.0
N1826 N 0.81859 0.39092 0.95814 0.0
N1827 N 0.78435 0.26275 0.95141 0.0
H1828 H 0.75433 0.31267 0.02672 0.0
H1829 H 0.76141 0.27429 0.01061 0.0
H1830 H 0.79347 0.24806 0.9325 0.0
H1831 H 0.76459 0.25307 0.96504 0.0
H1832 H 0.83209 0.40252 0.93951 0.0
H1833 H 0.80748 0.40684 0.97499 0.0
H1834 H 0.86635 0.37022 0.91801 0.0
H1835 H 0.86725 0.33307 0.89859 0.0
C1836 C 0.96272 0.58794 0.14784 0.0
C1837 C 0.97284 0.57075 0.17596 0.0
C1838 C 0.01748 0.5428 0.14505 0.0
C1839 C 0.00823 0.56089 0.11702 0.0
N1840 N 0.97788 0.60583 0.093 0.0
N1841 N 0.01365 0.53775 0.20375 0.0
C1842 C 0.98258 0.58511 0.11877 0.0
C1843 C 1.00168 0.55032 0.1754 0.0
N1844 N 0.93381 0.60627 0.14878 0.0
N1845 N 0.03945 0.51696 0.14244 0.0
H1846 H 1.00203 0.54186 0.22653 0.0
H1847 H 0.03665 0.52557 0.20499 0.0
H1848 H 0.0511 0.50974 0.12057 0.0
H1849 H 0.04386 0.5007 0.16149 0.0
H1850 H 0.92323 0.61639 0.12812 0.0
H1851 H 0.9192 0.60971 0.17009 0.0
H1852 H 0.96158 0.62587 0.094 0.0
H1853 H 0.99262 0.60479 0.07152 0.0
C1854 C 0.81298 0.72241 0.42539 0.0
C1855 C 0.78402 0.72265 0.44678 0.0
C1856 C 0.75605 0.75833 0.40576 0.0
C1857 C 0.7836 0.75477 0.38289 0.0
N1858 N 0.83579 0.7266 0.36982 0.0
N1859 N 0.7254 0.73664 0.45307 0.0
C1860 C 0.81137 0.73498 0.3925 0.0
C1861 C 0.7549 0.7396 0.43579 0.0
N1862 N 0.84277 0.71144 0.43678 0.0
N1863 N 0.73126 0.78062 0.39954 0.0
H1864 H 0.72295 0.72257 0.47422 0.0
H1865 H 0.70271 0.74538 0.44462 0.0
H1866 H 0.73145 0.79523 0.37863 0.0
H1867 H 0.71237 0.78694 0.41658 0.0
H1868 H 0.8653 0.71374 0.42362 0.0
H1869 H 0.84562 0.70344 0.4607 0.0
H1870 H 0.85469 0.70951 0.37434 0.0
H1871 H 0.83523 0.73393 0.34548 0.0
C1872 C 0.5744 0.49276 0.89806 0.0
C1873 C 0.59282 0.51711 0.88148 0.0
C1874 C 0.55557 0.55873 0.9053 0.0
C1875 C 0.54222 0.53537 0.92691 0.0
N1876 N 0.52625 0.4802 0.9334 0.0
N1877 N 0.60322 0.57375 0.87188 0.0
C1878 C 0.54763 0.50216 0.92009 0.0
C1879 C 0.58357 0.55025 0.88515 0.0
N1880 N 0.58297 0.46097 0.8932 0.0
N1881 N 0.54143 0.58909 0.90455 0.0
H1882 H 0.62564 0.56872 0.85911 0.0
H1883 H 0.59927 0.59821 0.87661 0.0
H1884 H 0.52013 0.59506 0.91881 0.0
H1885 H 0.54835 0.60673 0.88747 0.0
H1886 H 0.57289 0.44202 0.9068 0.0
H1887 H 0.60144 0.45347 0.87615 0.0
H1888 H 0.52792 0.45557 0.92896 0.0
H1889 H 0.50424 0.4873 0.94596 0.0
C1890 C 0.78307 0.37835 0.16187 0.0
C1891 C 0.75299 0.37453 0.14564 0.0
C1892 C 0.73113 0.34158 0.19139 0.0
C1893 C 0.76223 0.3432 0.20614 0.0
N1894 N 0.81956 0.35907 0.20353 0.0
N1895 N 0.69894 0.35146 0.14332 0.0
C1896 C 0.78852 0.36081 0.1911 0.0
C1897 C 0.72717 0.35576 0.15992 0.0
N1898 N 0.80688 0.39834 0.14922 0.0
N1899 N 0.7051 0.32757 0.20806 0.0
H1900 H 0.6941 0.36341 0.12141 0.0
H1901 H 0.68094 0.33502 0.1504 0.0
H1902 H 0.70724 0.31711 0.23118 0.0
H1903 H 0.68081 0.32835 0.20029 0.0
H1904 H 0.82645 0.4062 0.16253 0.0
H1905 H 0.80657 0.40867 0.12603 0.0
H1906 H 0.84086 0.3673 0.19124 0.0
H1907 H 0.82495 0.34687 0.22502 0.0
C1908 C 0.94884 0.53737 0.36573 0.0
C1909 C 0.96915 0.54914 0.33928 0.0
C1910 C 0.0193 0.53652 0.36907 0.0
C1911 C 0.99915 0.5227 0.39419 0.0
N1912 N 0.94624 0.50557 0.41577 0.0
N1913 N 0.02332 0.55762 0.31373 0.0
C1914 C 0.96428 0.52197 0.39234 0.0
C1915 C 1.00435 0.54797 0.34029 0.0
N1916 N 0.91491 0.54087 0.36546 0.0
N1917 N 0.0525 0.53964 0.37349 0.0
H1918 H 0.01312 0.56793 0.29291 0.0
H1919 H 0.04905 0.55403 0.31162 0.0
H1920 H 0.06397 0.53098 0.39435 0.0
H1921 H 0.0682 0.55251 0.35768 0.0
H1922 H 0.89916 0.53628 0.38562 0.0
H1923 H 0.90215 0.55017 0.3457 0.0
H1924 H 0.92107 0.50102 0.41438 0.0
H1925 H 0.95717 0.49411 0.43564 0.0
C1926 C 0.76572 0.70957 0.66123 0.0
C1927 C 0.79162 0.71279 0.63664 0.0
C1928 C 0.82355 0.74291 0.67684 0.0
C1929 C 0.79745 0.74008 0.70135 0.0
N1930 N 0.74104 0.72454 0.71415 0.0
N1931 N 0.84779 0.72798 0.6234 0.0
C1932 C 0.76809 0.72396 0.69286 0.0
C1933 C 0.82106 0.7286 0.64508 0.0
N1934 N 0.7385 0.69239 0.65445 0.0
N1935 N 0.85095 0.75969 0.68385 0.0
H1936 H 0.84734 0.71741 0.60061 0.0
H1937 H 0.87133 0.73558 0.62857 0.0
H1938 H 0.85525 0.76763 0.70718 0.0
H1939 H 0.86888 0.76696 0.66655 0.0
H1940 H 0.72123 0.68438 0.67206 0.0
H1941 H 0.73381 0.68457 0.63119 0.0
H1942 H 0.71739 0.7178 0.70827 0.0
H1943 H 0.74118 0.73428 0.73723 0.0
C1944 C 0.67378 0.60994 0.568 0.0
C1945 C 0.69433 0.61389 0.53923 0.0
C1946 C 0.65657 0.57797 0.51099 0.0
C1947 C 0.63407 0.57691 0.53873 0.0
N1948 N 0.6195 0.59775 0.59216 0.0
N1949 N 0.70173 0.60512 0.48156 0.0
C1950 C 0.64236 0.59436 0.56687 0.0
C1951 C 0.68478 0.59866 0.5103 0.0
N1952 N 0.68477 0.61999 0.59703 0.0
N1953 N 0.65173 0.55822 0.48548 0.0
H1954 H 0.72186 0.62033 0.4798 0.0
H1955 H 0.69397 0.59791 0.45904 0.0
H1956 H 0.6321 0.54244 0.48534 0.0
H1957 H 0.66889 0.55508 0.46603 0.0
H1958 H 0.67302 0.61454 0.61941 0.0
H1959 H 0.70746 0.63104 0.59914 0.0
H1960 H 0.62223 0.61335 0.61138 0.0
H1961 H 0.59634 0.5874 0.59257 0.0
C1962 C 0.19041 0.968 0.54499 0.0
C1963 C 0.19055 0.94492 0.5708 0.0
C1964 C 0.13883 0.9695 0.59409 0.0
C1965 C 0.13656 0.98978 0.56602 0.0
N1966 N 0.15701 1.00323 0.51134 0.0
N1967 N 0.16327 0.92103 0.61824 0.0
C1968 C 0.16155 0.98782 0.54057 0.0
C1969 C 0.16443 0.94504 0.59507 0.0
N1970 N 0.21827 0.97181 0.52525 0.0
N1971 N 0.117 0.97411 0.6201 0.0
H1972 H 0.18164 0.90283 0.61985 0.0
H1973 H 0.14289 0.91765 0.63425 0.0
H1974 H 0.09787 0.99169 0.62021 0.0
H1975 H 0.11955 0.96248 0.64255 0.0
H1976 H 0.2206 0.99063 0.50828 0.0
H1977 H 0.24034 0.95835 0.52815 0.0
H1978 H 0.17273 0.99937 0.49089 0.0
H1979 H 0.13586 0.01724 0.50627 0.0
C1980 C 0.31231 0.98339 0.80596 0.0
C1981 C 0.31888 1.00114 0.77669 0.0
C1982 C 0.29114 0.96158 0.74527 0.0
C1983 C 0.28447 0.94396 0.77435 0.0
N1984 N 0.28032 0.94126 0.83271 0.0
N1985 N 0.3049 0.01321 0.72117 0.0
C1986 C 0.29229 0.95604 0.80489 0.0
C1987 C 0.30509 0.99219 0.74715 0.0
N1988 N 0.32658 0.99134 0.83419 0.0
N1989 N 0.28601 0.94825 0.71582 0.0
H1990 H 0.31382 0.0365 0.72228 0.0
H1991 H 0.29264 0.0089 0.69993 0.0
H1992 H 0.27656 0.92535 0.71353 0.0
H1993 H 0.29384 0.95872 0.69371 0.0
H1994 H 0.32594 0.97672 0.85505 0.0
H1995 H 0.34083 0.01158 0.83645 0.0
H1996 H 0.28256 0.95054 0.85587 0.0
H1997 H 0.26536 0.92121 0.83227 0.0
C1998 C 0.38013 0.08448 0.04518 0.0
C1999 C 0.37605 0.11822 0.03818 0.0
C2000 C 0.43729 0.12118 0.03235 0.0
C2001 C 0.44109 0.08704 0.03544 0.0
N2002 N 0.41516 0.03561 0.04028 0.0
N2003 N 0.4016 0.16623 0.01607 0.0
C2004 C 0.41214 0.06852 0.04014 0.0
C2005 C 0.4049 0.13589 0.0293 0.0
N2006 N 0.3541 0.06789 0.05874 0.0
N2007 N 0.46454 0.13991 0.03276 0.0
H2008 H 0.37863 0.1772 0.01112 0.0
H2009 H 0.42171 0.17887 0.00626 0.0
H2010 H 0.48869 0.1304 0.03464 0.0
H2011 H 0.46281 0.16499 0.03406 0.0
H2012 H 0.35646 0.04419 0.06734 0.0
H2013 H 0.33098 0.07871 0.06479 0.0
H2014 H 0.39481 0.02075 0.04004 0.0
H2015 H 0.43811 0.02318 0.03808 0.0
C2016 C 0.74797 0.59276 0.83774 0.0
C2017 C 0.71355 0.59175 0.83179 0.0
C2018 C 0.70786 0.65036 0.83546 0.0
C2019 C 0.74265 0.65154 0.83825 0.0
N2020 N 0.79688 0.62536 0.83687 0.0
N2021 N 0.6614 0.61934 0.82001 0.0
C2022 C 0.76305 0.62311 0.83823 0.0
C2023 C 0.69362 0.62049 0.82914 0.0
N2024 N 0.7663 0.56481 0.84248 0.0
N2025 N 0.68848 0.67775 0.83991 0.0
H2026 H 0.64978 0.59787 0.81559 0.0
H2027 H 0.64689 0.63979 0.81437 0.0
H2028 H 0.6984 0.69991 0.84514 0.0
H2029 H 0.66257 0.678 0.84138 0.0
H2030 H 0.7905 0.56423 0.85056 0.0
H2031 H 0.75673 0.54193 0.84031 0.0
H2032 H 0.81334 0.60569 0.83338 0.0
H2033 H 0.8086 0.64742 0.83641 0.0
C2034 C 0.84451 0.4963 0.03325 0.0
C2035 C 0.8431 0.46225 0.03173 0.0
C2036 C 0.90156 0.45808 0.01295 0.0
C2037 C 0.90251 0.49211 0.01301 0.0
N2038 N 0.87603 0.54428 0.02063 0.0
N2039 N 0.86823 0.41052 0.01706 0.0
C2040 C 0.87421 0.51144 0.02237 0.0
C2041 C 0.87114 0.443 0.02093 0.0
N2042 N 0.81783 0.51384 0.04608 0.0
N2043 N 0.93006 0.44034 0.00553 0.0
H2044 H 0.84658 0.3984 0.02336 0.0
H2045 H 0.88642 0.39568 0.00572 0.0
H2046 H 0.95222 0.45084 0.99762 0.0
H2047 H 0.93241 0.41544 0.00871 0.0
H2048 H 0.818 0.53843 0.05058 0.0
H2049 H 0.79572 0.50335 0.05423 0.0
H2050 H 0.8557 0.56019 0.02408 0.0
H2051 H 0.89803 0.55578 0.01403 0.0
C2052 C 0.29081 0.15171 0.7808 0.0
C2053 C 0.31715 0.14832 0.75699 0.0
C2054 C 0.29784 0.19764 0.72982 0.0
C2055 C 0.2784 0.20517 0.75805 0.0
N2056 N 0.25176 0.18867 0.80876 0.0
N2057 N 0.34655 0.16831 0.70864 0.0
C2058 C 0.27255 0.18151 0.78259 0.0
C2059 C 0.32031 0.17079 0.73073 0.0
N2060 N 0.28351 0.1266 0.80155 0.0
N2061 N 0.29639 0.21785 0.70336 0.0
H2062 H 0.36492 0.15017 0.70999 0.0
H2063 H 0.35177 0.1858 0.69086 0.0
H2064 H 0.2803 0.23814 0.70341 0.0
H2065 H 0.30839 0.21286 0.68098 0.0
H2066 H 0.26295 0.12678 0.8178 0.0
H2067 H 0.29643 0.10437 0.80041 0.0
H2068 H 0.24997 0.17433 0.82976 0.0
H2069 H 0.2368 0.2097 0.8096 0.0
C2070 C 0.25494 0.92887 0.34193 0.0
C2071 C 0.24819 0.94582 0.3128 0.0
C2072 C 0.27885 0.90431 0.2817 0.0
C2073 C 0.27698 0.8839 0.30965 0.0
N2074 N 0.26089 0.87616 0.36672 0.0
N2075 N 0.25517 0.95108 0.25422 0.0
C2076 C 0.26533 0.89613 0.34021 0.0
C2077 C 0.26137 0.9345 0.28243 0.0
N2078 N 0.24995 0.94389 0.37111 0.0
N2079 N 0.297 0.8946 0.25455 0.0
H2080 H 0.24365 0.97391 0.2536 0.0
H2081 H 0.26025 0.94151 0.23121 0.0
H2082 H 0.3103 0.87256 0.2536 0.0
H2083 H 0.30153 0.90961 0.23438 0.0
H2084 H 0.25681 0.93338 0.39315 0.0
H2085 H 0.24224 0.96816 0.37253 0.0
H2086 H 0.24912 0.88369 0.38847 0.0
H2087 H 0.26575 0.85139 0.36618 0.0
C2088 C 0.56378 0.39367 0.49115 0.0
C2089 C 0.54334 0.38891 0.46403 0.0
C2090 C 0.53571 0.44893 0.45969 0.0
C2091 C 0.55254 0.45383 0.48921 0.0
N2092 N 0.59244 0.43048 0.5255 0.0
N2093 N 0.50361 0.4132 0.42799 0.0
C2094 C 0.56891 0.42587 0.50312 0.0
C2095 C 0.52777 0.41693 0.44989 0.0
N2096 N 0.57864 0.36731 0.50558 0.0
N2097 N 0.52946 0.47439 0.43909 0.0
H2098 H 0.49585 0.3907 0.42103 0.0
H2099 H 0.4885 0.43231 0.41978 0.0
H2100 H 0.5392 0.49698 0.44178 0.0
H2101 H 0.51961 0.47183 0.41627 0.0
H2102 H 0.58957 0.36763 0.52803 0.0
H2103 H 0.57905 0.34434 0.49572 0.0
H2104 H 0.60726 0.41222 0.53557 0.0
H2105 H 0.60032 0.45329 0.53125 0.0
C2106 C 0.39716 0.78383 0.18427 0.0
C2107 C 0.42352 0.80404 0.19092 0.0
C2108 C 0.39228 0.82536 0.23873 0.0
C2109 C 0.36807 0.80188 0.23476 0.0
N2110 N 0.3492 0.75594 0.2057 0.0
N2111 N 0.44741 0.84397 0.22425 0.0
C2112 C 0.37065 0.78063 0.20779 0.0
C2113 C 0.42147 0.82476 0.21814 0.0
N2114 N 0.39764 0.76733 0.15571 0.0
N2115 N 0.38656 0.84923 0.26105 0.0
H2116 H 0.46789 0.84672 0.20817 0.0
H2117 H 0.4494 0.85612 0.246 0.0
H2118 H 0.36499 0.85105 0.27596 0.0
H2119 H 0.40157 0.86903 0.26276 0.0
H2120 H 0.37719 0.7555 0.14762 0.0
H2121 H 0.41759 0.76749 0.1387 0.0
H2122 H 0.35215 0.73764 0.1887 0.0
H2123 H 0.33026 0.75146 0.22295 0.0
C2124 C 0.05006 0.68865 0.99845 0.0
C2125 C 0.03687 0.69433 0.96703 0.0
C2126 C 0.034 0.63462 0.96176 0.0
C2127 C 0.04362 0.6291 0.99449 0.0
N2128 N 0.05494 0.65291 0.04581 0.0
N2129 N 0.00943 0.6715 0.9222 0.0
C2130 C 0.05009 0.65674 0.01327 0.0
C2131 C 0.02699 0.6669 0.94972 0.0
N2132 N 0.06412 0.71342 0.01379 0.0
N2133 N 0.03305 0.60908 0.9413 0.0
H2134 H 1.00253 0.69431 0.91322 0.0
H2135 H 0.9985 0.65278 0.9104 0.0
H2136 H 0.03924 0.58545 0.94835 0.0
H2137 H 0.02977 0.61179 0.91639 0.0
H2138 H 0.07755 0.71018 0.03478 0.0
H2139 H 0.0652 0.73668 1.00387 0.0
H2140 H 0.05622 0.67221 0.06154 0.0
H2141 H 0.05441 0.63055 0.05777 0.0
C2142 C 0.10762 0.26682 0.72599 0.0
C2143 C 0.08669 0.29386 0.71834 0.0
C2144 C 0.11364 0.32642 0.75791 0.0
C2145 C 0.13364 0.29917 0.76636 0.0
N2146 N 0.14443 0.24191 0.76507 0.0
N2147 N 0.0629 0.34598 0.73378 0.0
C2148 C 0.12876 0.26878 0.75255 0.0
C2149 C 0.08753 0.32266 0.73644 0.0
N2150 N 0.10888 0.24015 0.70684 0.0
N2151 N 0.12074 0.35618 0.76894 0.0
H2152 H 0.0425 0.3435 0.71929 0.0
H2153 H 0.06083 0.36614 0.74861 0.0
H2154 H 0.14008 0.35987 0.78441 0.0
H2155 H 0.10926 0.37747 0.76059 0.0
H2156 H 0.12634 0.22124 0.70935 0.0
H2157 H 0.09442 0.238 0.6866 0.0
H2158 H 0.13975 0.21856 0.75797 0.0
H2159 H 0.15968 0.2429 0.78493 0.0
C2160 C 0.58016 0.7359 0.06575 0.0
C2161 C 0.54908 0.75238 0.06117 0.0
C2162 C 0.54148 0.72199 0.01185 0.0
C2163 C 0.57162 0.70464 0.01735 0.0
N2164 N 0.62388 0.70015 0.04293 0.0
N2165 N 0.5045 0.7675 0.02602 0.0
C2166 C 0.59262 0.71386 0.04186 0.0
C2167 C 0.53114 0.74756 0.03283 0.0
N2168 N 0.59631 0.73919 0.09407 0.0
N2169 N 0.52198 0.71239 0.98766 0.0
H2170 H 0.49656 0.78659 0.04097 0.0
H2171 H 0.492 0.76686 1.00439 0.0
H2172 H 0.53001 0.69445 0.97134 0.0
H2173 H 0.49773 0.72111 0.98456 0.0
H2174 H 0.61725 0.72534 0.10018 0.0
H2175 H 0.58731 0.75391 0.11295 0.0
H2176 H 0.64175 0.70753 0.05855 0.0
H2177 H 0.63285 0.68333 0.02585 0.0
C2178 C 0.13427 0.8087 0.84117 0.0
C2179 C 0.12831 0.788 0.86856 0.0
C2180 C 0.18705 0.76815 0.86293 0.0
C2181 C 0.19157 0.78561 0.83299 0.0
N2182 N 0.16586 0.8177 0.79072 0.0
N2183 N 0.14809 0.74297 0.90134 0.0
C2184 C 0.16411 0.80452 0.82135 0.0
C2185 C 0.15446 0.76633 0.8783 0.0
N2186 N 0.11223 0.83358 0.83478 0.0
N2187 N 0.214 0.75466 0.87783 0.0
H2188 H 0.12458 0.7399 0.91238 0.0
H2189 H 0.16528 0.72456 0.90695 0.0
H2190 H 0.23833 0.75651 0.86842 0.0
H2191 H 0.21257 0.74472 0.90128 0.0
H2192 H 0.11703 0.85144 0.81723 0.0
H2193 H 0.09092 0.8386 0.84936 0.0
H2194 H 0.14548 0.8287 0.77965 0.0
H2195 H 0.18661 0.81457 0.77507 0.0
C2196 C 0.97877 0.40444 0.59306 0.0
C2197 C 0.0083 0.38681 0.60069 0.0
C2198 C 0.04149 0.43379 0.58856 0.0
C2199 C 0.01253 0.45112 0.57859 0.0
N2200 N 0.95422 0.4522 0.56716 0.0
N2201 N 0.0682 0.38146 0.59617 0.0
C2202 C 0.98128 0.43614 0.5794 0.0
C2203 C 0.03978 0.40054 0.59558 0.0
N2204 N 0.94852 0.39137 0.59994 0.0
N2205 N 0.07067 0.44902 0.59195 0.0
H2206 H 0.068 0.35654 0.60006 0.0
H2207 H 0.09165 0.3897 0.58911 0.0
H2208 H 0.07353 0.47328 0.58664 0.0
H2209 H 0.09126 0.43815 0.60278 0.0
H2210 H 0.92597 0.40423 0.5982 0.0
H2211 H 0.94607 0.36797 0.60926 0.0
H2212 H 0.9316 0.44145 0.56398 0.0
H2213 H 0.95501 0.47596 0.55842 0.0
C2214 C 0.43387 0.26083 0.34953 0.0
C2215 C 0.44438 0.29014 0.36305 0.0
C2216 C 0.39344 0.31738 0.34167 0.0
C2217 C 0.38439 0.28877 0.32554 0.0
N2218 N 0.40092 0.23477 0.30971 0.0
N2219 N 0.43701 0.34799 0.36472 0.0
C2220 C 0.40609 0.26097 0.32831 0.0
C2221 C 0.42493 0.31882 0.35697 0.0
N2222 N 0.44939 0.23233 0.35814 0.0
N2223 N 0.37117 0.34288 0.34443 0.0
H2224 H 0.45994 0.35038 0.37519 0.0
H2225 H 0.42598 0.36994 0.3576 0.0
H2226 H 0.34754 0.34292 0.3352 0.0
H2227 H 0.37467 0.36258 0.35914 0.0
H2228 H 0.44076 0.20987 0.35222 0.0
H2229 H 0.46901 0.23093 0.37393 0.0
H2230 H 0.41758 0.21504 0.30786 0.0
H2231 H 0.38174 0.23422 0.29346 0.0
C2232 C 0.44457 0.56821 0.37086 0.0
C2233 C 0.46412 0.56957 0.3414 0.0
C2234 C 0.51366 0.57899 0.3718 0.0
C2235 C 0.4933 0.5818 0.40051 0.0
N2236 N 0.43906 0.5839 0.42734 0.0
N2237 N 0.51627 0.58202 0.31306 0.0
C2238 C 0.4586 0.57771 0.40005 0.0
C2239 C 0.4985 0.57633 0.34155 0.0
N2240 N 0.41305 0.55687 0.37106 0.0
N2241 N 0.54749 0.57787 0.37364 0.0
H2242 H 0.5061 0.58133 0.29021 0.0
H2243 H 0.54041 0.59042 0.31224 0.0
H2244 H 0.55929 0.57934 0.39565 0.0
H2245 H 0.56364 0.57249 0.35386 0.0
H2246 H 0.39882 0.55253 0.39234 0.0
H2247 H 0.40235 0.54869 0.35018 0.0
H2248 H 0.41315 0.58432 0.42769 0.0
H2249 H 0.44874 0.59158 0.44892 0.0
C2250 C 0.23506 0.74818 0.11204 0.0
C2251 C 0.26167 0.76387 0.09503 0.0
C2252 C 0.26527 0.80171 0.13958 0.0
C2253 C 0.23904 0.78582 0.15655 0.0
N2254 N 0.19419 0.74935 0.15729 0.0
N2255 N 0.2971 0.80941 0.08872 0.0
C2256 C 0.22214 0.76102 0.14193 0.0
C2257 C 0.27521 0.79194 0.10761 0.0
N2258 N 0.22391 0.71972 0.10102 0.0
N2259 N 0.28136 0.82532 0.15476 0.0
H2260 H 0.30449 0.80293 0.06502 0.0
H2261 H 0.30576 0.83163 0.09534 0.0
H2262 H 0.27333 0.83405 0.17752 0.0
H2263 H 0.30334 0.83523 0.14563 0.0
H2264 H 0.20717 0.7054 0.11413 0.0
H2265 H 0.23325 0.70886 0.07976 0.0
H2266 H 0.17863 0.73331 0.14673 0.0
H2267 H 0.18504 0.75796 0.17974 0.0
C2268 C 0.13707 0.52837 0.90739 0.0
C2269 C 0.1283 0.50335 0.88678 0.0
C2270 C 0.08864 0.48408 0.92884 0.0
C2271 C 0.09428 0.51188 0.94721 0.0
N2272 N 0.11697 0.5652 0.94867 0.0
N2273 N 0.09222 0.45989 0.87551 0.0
C2274 C 0.11652 0.53542 0.93501 0.0
C2275 C 0.10312 0.48173 0.8968 0.0
N2276 N 0.16576 0.54464 0.90147 0.0
N2277 N 0.07056 0.45955 0.94229 0.0
H2278 H 0.10188 0.45786 0.85167 0.0
H2279 H 0.07163 0.44579 0.88058 0.0
H2280 H 0.06016 0.46017 0.96596 0.0
H2281 H 0.06847 0.43742 0.93107 0.0
H2282 H 0.17445 0.56114 0.9177 0.0
H2283 H 0.18289 0.53886 0.88257 0.0
H2284 H 0.13079 0.58396 0.93853 0.0
H2285 H 0.10057 0.57244 0.96758 0.0
C2286 C 0.26737 0.34249 0.64344 0.0
C2287 C 0.29142 0.36605 0.63487 0.0
C2288 C 0.31009 0.36227 0.69192 0.0
C2289 C 0.28818 0.33658 0.69976 0.0
N2290 N 0.24888 0.2995 0.68036 0.0
N2291 N 0.33932 0.39443 0.65036 0.0
C2292 C 0.26755 0.32609 0.67476 0.0
C2293 C 0.31369 0.37482 0.65905 0.0
N2294 N 0.2432 0.33667 0.62213 0.0
N2295 N 0.32641 0.37601 0.71633 0.0
H2296 H 0.34299 0.40387 0.62686 0.0
H2297 H 0.35869 0.39892 0.66551 0.0
H2298 H 0.32394 0.36821 0.74048 0.0
H2299 H 0.33965 0.39707 0.71331 0.0
H2300 H 0.22258 0.32291 0.62807 0.0
H2301 H 0.24217 0.34789 0.59928 0.0
H2302 H 0.23654 0.28811 0.66224 0.0
H2303 H 0.24785 0.28708 0.70259 0.0
C2304 C 0.4769 0.60975 0.14967 0.0
C2305 C 0.48663 0.58783 0.17453 0.0
C2306 C 0.53086 0.56456 0.13897 0.0
C2307 C 0.51938 0.58471 0.11333 0.0
N2308 N 0.48795 0.632 0.09568 0.0
N2309 N 0.52769 0.55098 0.19669 0.0
C2310 C 0.49487 0.60951 0.11933 0.0
C2311 C 0.51556 0.56767 0.17054 0.0
N2312 N 0.44929 0.62944 0.15464 0.0
N2313 N 0.55506 0.54135 0.13251 0.0
H2314 H 0.51648 0.55238 0.21998 0.0
H2315 H 0.5502 0.53784 0.19603 0.0
H2316 H 0.56742 0.53943 0.10978 0.0
H2317 H 0.56203 0.5233 0.14901 0.0
H2318 H 0.43797 0.64297 0.13637 0.0
H2319 H 0.43677 0.63115 0.17725 0.0
H2320 H 0.4728 0.65253 0.09956 0.0
H2321 H 0.49903 0.63132 0.07242 0.0
C2322 C 0.34476 0.7775 0.91887 0.0
C2323 C 0.31517 0.77853 0.93888 0.0
C2324 C 0.28705 0.81187 0.89796 0.0
C2325 C 0.31371 0.80428 0.87547 0.0
N2326 N 0.36959 0.78433 0.86427 0.0
N2327 N 0.25945 0.79948 0.95015 0.0
C2328 C 0.34347 0.78914 0.88618 0.0
C2329 C 0.28688 0.79715 0.92942 0.0
N2330 N 0.37354 0.76453 0.9308 0.0
N2331 N 0.26167 0.83237 0.88885 0.0
H2332 H 0.25954 0.79081 0.97414 0.0
H2333 H 0.2364 0.809 0.94353 0.0
H2334 H 0.26148 0.84384 0.86613 0.0
H2335 H 0.24238 0.84049 0.90459 0.0
H2336 H 0.39653 0.76488 0.91826 0.0
H2337 H 0.37502 0.75547 0.9545 0.0
H2338 H 0.39079 0.77022 0.86887 0.0
H2339 H 0.36943 0.79417 0.84072 0.0
C2340 C 0.0917 0.50515 0.726 0.0
C2341 C 0.1267 0.50217 0.72043 0.0
C2342 C 0.12265 0.53318 0.66959 0.0
C2343 C 0.08866 0.54023 0.67777 0.0
N2344 N 0.0402 0.53385 0.71288 0.0
N2345 N 0.1717 0.49961 0.68015 0.0
C2346 C 0.07297 0.52634 0.70575 0.0
C2347 C 0.14118 0.51215 0.69008 0.0
N2348 N 0.07626 0.48583 0.7488 0.0
N2349 N 0.13713 0.54718 0.64245 0.0
H2350 H 0.18393 0.48148 0.69345 0.0
H2351 H 0.18291 0.50396 0.65729 0.0
H2352 H 0.12396 0.56259 0.62692 0.0
H2353 H 0.16253 0.54553 0.63655 0.0
H2354 H 0.05057 0.48546 0.75286 0.0
H2355 H 0.08887 0.46683 0.76044 0.0
H2356 H 0.0278 0.52715 0.73456 0.0
H2357 H 0.02604 0.54901 0.69793 0.0
C2358 C 0.26515 0.38257 0.42055 0.0
C2359 C 0.28607 0.36867 0.44486 0.0
C2360 C 0.30371 0.32594 0.40505 0.0
C2361 C 0.28123 0.33853 0.38145 0.0
N2362 N 0.23737 0.37701 0.3692 0.0
N2363 N 0.32293 0.32458 0.46043 0.0
C2364 C 0.26137 0.36658 0.38986 0.0
C2365 C 0.30435 0.33952 0.43712 0.0
N2366 N 0.24832 0.41111 0.42686 0.0
N2367 N 0.32641 0.3021 0.39621 0.0
H2368 H 0.32752 0.33499 0.48259 0.0
H2369 H 0.33246 0.30099 0.45856 0.0
H2370 H 0.32749 0.2917 0.37341 0.0
H2371 H 0.3464 0.29474 0.41011 0.0
H2372 H 0.23646 0.42503 0.40923 0.0
H2373 H 0.24732 0.42183 0.44963 0.0
H2374 H 0.21937 0.39487 0.37484 0.0
H2375 H 0.23364 0.36592 0.34714 0.0
C2376 C 0.40394 0.47186 0.51302 0.0
C2377 C 0.38272 0.46902 0.54147 0.0
C2378 C 0.42005 0.50546 0.56945 0.0
C2379 C 0.44307 0.50558 0.54209 0.0
N2380 N 0.45876 0.48309 0.48961 0.0
N2381 N 0.37379 0.47973 0.59861 0.0
C2382 C 0.43535 0.48733 0.51432 0.0
C2383 C 0.39164 0.48507 0.57013 0.0
N2384 N 0.39359 0.4608 0.48413 0.0
N2385 N 0.42463 0.5258 0.59454 0.0
H2386 H 0.35334 0.46491 0.60029 0.0
H2387 H 0.38098 0.48755 0.62112 0.0
H2388 H 0.44451 0.5413 0.59468 0.0
H2389 H 0.40717 0.52962 0.61362 0.0
H2390 H 0.40585 0.46546 0.46181 0.0
H2391 H 0.37097 0.44962 0.48197 0.0
H2392 H 0.45641 0.46693 0.47079 0.0
H2393 H 0.48198 0.49332 0.48939 0.0
C2394 C 0.93897 0.14441 0.515 0.0
C2395 C 0.91036 0.12553 0.5146 0.0
C2396 C 0.94614 0.07718 0.50955 0.0
C2397 C 0.97372 0.09478 0.51904 0.0
N2398 N 0.99575 0.14769 0.52982 0.0
N2399 N 0.88665 0.07262 0.51504 0.0
C2400 C 0.97025 0.12917 0.52112 0.0
C2401 C 0.91382 0.09153 0.51252 0.0
N2402 N 0.93659 0.17679 0.50814 0.0
N2403 N 0.9509 0.04716 0.49663 0.0
H2404 H 0.8624 0.0818 0.51891 0.0
H2405 H 0.88867 0.04751 0.51668 0.0
H2406 H 0.97457 0.03705 0.49129 0.0
H2407 H 0.93165 0.03444 0.48723 0.0
H2408 H 0.95727 0.19113 0.50474 0.0
H2409 H 0.91435 0.18859 0.50201 0.0
H2410 H 0.9921 0.17161 0.53692 0.0
H2411 H 0.02026 0.13972 0.5313 0.0
C2412 C 0.74868 0.09786 0.27809 0.0
C2413 C 0.71471 0.10063 0.2887 0.0
C2414 C 0.71181 0.15682 0.27035 0.0
C2415 C 0.74635 0.155 0.26275 0.0
N2416 N 0.79904 0.12603 0.26282 0.0
N2417 N 0.66492 0.13375 0.29977 0.0
C2418 C 0.76522 0.12604 0.26736 0.0
C2419 C 0.69655 0.13046 0.28641 0.0
N2420 N 0.76499 0.0684 0.27833 0.0
N2421 N 0.69356 0.18359 0.26116 0.0
H2422 H 0.65221 0.11484 0.31101 0.0
H2423 H 0.65208 0.15589 0.30191 0.0
H2424 H 0.7042 0.20298 0.24855 0.0
H2425 H 0.66767 0.18528 0.26307 0.0
H2426 H 0.78862 0.06425 0.2676 0.0
H2427 H 0.75414 0.04756 0.28781 0.0
H2428 H 0.81473 0.10661 0.26901 0.0
H2429 H 0.81164 0.14646 0.25483 0.0
C2430 C 0.68591 0.99142 0.0091 0.0
C2431 C 0.69382 0.97151 0.03648 0.0
C2432 C 0.63831 0.9858 0.06162 0.0
C2433 C 0.63141 0.0077 0.03536 0.0
N2434 N 0.65169 0.03539 0.98694 0.0
N2435 N 0.67954 0.95433 0.09138 0.0
C2436 C 0.6561 0.01155 0.00988 0.0
C2437 C 0.67051 0.96999 0.06342 0.0
N2438 N 0.7062 0.99013 0.98161 0.0
N2439 N 0.61362 0.97877 0.08423 0.0
H2440 H 0.70266 0.94255 0.09372 0.0
H2441 H 0.66541 0.95545 0.11316 0.0
H2442 H 0.58984 0.98947 0.08409 0.0
H2443 H 0.61567 0.96015 0.10141 0.0
H2444 H 0.70006 1.00109 0.95959 0.0
H2445 H 0.7279 0.97565 0.97988 0.0
H2446 H 0.67013 0.04188 0.96977 0.0
H2447 H 0.63068 0.05084 0.98698 0.0
C2448 C 0.37688 0.46382 0.22143 0.0
C2449 C 0.37379 0.48219 0.2503 0.0
C2450 C 0.3303 0.44744 0.27207 0.0
C2451 C 0.33597 0.42726 0.24493 0.0
N2452 N 0.36907 0.41201 0.19723 0.0
N2453 N 0.353 0.48747 0.30605 0.0
C2454 C 0.36058 0.4342 0.22055 0.0
C2455 C 0.35202 0.47288 0.27654 0.0
N2456 N 0.39378 0.47531 0.19433 0.0
N2457 N 0.30355 0.44274 0.29296 0.0
H2458 H 0.36969 0.50537 0.31071 0.0
H2459 H 0.33975 0.47948 0.32679 0.0
H2460 H 0.28658 0.42473 0.28964 0.0
H2461 H 0.29638 0.45859 0.31156 0.0
H2462 H 0.39378 0.46417 0.17181 0.0
H2463 H 0.40506 0.49757 0.19329 0.0
H2464 H 0.38926 0.41444 0.18075 0.0
H2465 H 0.35786 0.38975 0.19634 0.0
C2466 C 0.24589 0.6084 0.03439 0.0
C2467 C 0.23531 0.64134 0.03152 0.0
C2468 C 0.17897 0.62797 0.05065 0.0
C2469 C 0.18899 0.59494 0.05144 0.0
N2470 N 0.22977 0.55259 0.04062 0.0
N2471 N 0.19114 0.68236 0.03263 0.0
C2472 C 0.22193 0.58483 0.04247 0.0
C2473 C 0.20158 0.65109 0.03818 0.0
N2474 N 0.27882 0.59977 0.02948 0.0
N2475 N 0.14814 0.6372 0.06315 0.0
H2476 H 0.20711 0.70049 0.02495 0.0
H2477 H 0.16622 0.69006 0.03349 0.0
H2478 H 0.13133 0.62077 0.07311 0.0
H2479 H 0.14021 0.66112 0.06637 0.0
H2480 H 0.28877 0.5769 0.03486 0.0
H2481 H 0.29671 0.61598 0.02128 0.0
H2482 H 0.25237 0.54322 0.03107 0.0
H2483 H 0.21257 0.53499 0.04679 0.0
C2484 C 0.72251 0.92959 0.28342 0.0
C2485 C 0.71529 0.94282 0.31431 0.0
C2486 C 0.74174 0.89575 0.34039 0.0
C2487 C 0.74376 0.88052 0.30974 0.0
N2488 N 0.72997 0.8811 0.25282 0.0
N2489 N 0.71547 0.93852 0.37293 0.0
C2490 C 0.73249 0.89688 0.28142 0.0
C2491 C 0.72457 0.92617 0.34314 0.0
N2492 N 0.72031 0.94852 0.25595 0.0
N2493 N 0.7557 0.881 0.36673 0.0
H2494 H 0.70301 0.96081 0.37579 0.0
H2495 H 0.71832 0.92579 0.39474 0.0
H2496 H 0.76703 0.858 0.36579 0.0
H2497 H 0.75793 0.89235 0.38889 0.0
H2498 H 0.72859 0.94075 0.23293 0.0
H2499 H 0.71377 0.97308 0.25669 0.0
H2500 H 0.7186 0.89136 0.23262 0.0
H2501 H 0.7361 0.85683 0.25013 0.0
C2502 C 0.81289 0.15022 0.74504 0.0
C2503 C 0.83065 0.13715 0.77171 0.0
C2504 C 0.79784 0.17213 0.80886 0.0
C2505 C 0.78724 0.19036 0.7818 0.0
N2506 N 0.76945 0.18793 0.72689 0.0
N2507 N 0.84029 0.13603 0.82969 0.0
C2508 C 0.78993 0.17665 0.75049 0.0
C2509 C 0.82248 0.14738 0.80403 0.0
N2510 N 0.81851 0.13766 0.7147 0.0
N2511 N 0.78451 0.17916 0.83909 0.0
H2512 H 0.85992 0.1191 0.82756 0.0
H2513 H 0.83755 0.14559 0.85295 0.0
H2514 H 0.76578 0.19704 0.84237 0.0
H2515 H 0.78918 0.16519 0.85981 0.0
H2516 H 0.80933 0.14802 0.69353 0.0
H2517 H 0.83301 0.11668 0.71054 0.0
H2518 H 0.76929 0.1788 0.70351 0.0
H2519 H 0.74969 0.20423 0.73205 0.0
loop_
_geom_bond_atom_site_label_1
_geom_bond_atom_site_label_2
_geom_bond_distance
_geom_bond_site_symmetry_2
_ccdc_geom_bond_type
In0 O1 2.294 . S
In0 O2 2.326 . S
In0 O6 2.266 . S
In0 O7 2.326 . S
In0 O8 2.266 . S
In0 O9 2.326 . S
In0 O11 2.294 1_455 S
In0 O12 2.326 1_455 S
O1 In0 2.294 . S
O1 C10 1.240 . S
O2 In0 2.326 . S
O2 C10 1.252 . S
C3 O6 1.252 . S
C3 O7 1.260 . S
C4 O11 1.240 . S
C4 O12 1.252 . S
C5 O8 1.252 . S
C5 O9 1.260 . S
O6 In0 2.266 . S
O6 C3 1.252 . S
O7 In0 2.326 . S
O7 C3 1.260 . S
O8 In0 2.266 . S
O8 C5 1.252 . S
O9 In0 2.326 . S
O9 C5 1.260 . S
C10 O1 1.240 . S
C10 O2 1.252 . S
O11 In0 2.294 1_655 S
O11 C4 1.240 . S
O12 In0 2.326 1_655 S
O12 C4 1.252 . S
In13 O14 2.294 . S
In13 O15 2.326 . S
In13 O19 2.266 . S
In13 O20 2.326 . S
In13 O21 2.266 . S
In13 O22 2.326 . S
In13 O24 2.294 . S
In13 O25 2.326 . S
O14 In13 2.294 . S
O14 C23 1.240 . S
O15 In13 2.326 . S
O15 C23 1.252 . S
C16 O19 1.252 . S
C16 O20 1.260 . S
C17 O24 1.240 . S
C17 O25 1.252 . S
C18 O21 1.252 . S
C18 O22 1.260 . S
O19 In13 2.266 . S
O19 C16 1.252 . S
O20 In13 2.326 . S
O20 C16 1.260 . S
O21 In13 2.266 . S
O21 C18 1.252 . S
O22 In13 2.326 . S
O22 C18 1.260 . S
C23 O14 1.240 . S
C23 O15 1.252 . S
O24 In13 2.294 . S
O24 C17 1.240 . S
O25 In13 2.326 . S
O25 C17 1.252 . S
In26 O27 2.294 . S
In26 O28 2.326 . S
In26 O32 2.266 . S
In26 O33 2.326 . S
In26 O34 2.266 . S
In26 O35 2.326 . S
In26 O37 2.294 . S
In26 O38 2.326 . S
O27 In26 2.294 . S
O27 C36 1.240 . S
O28 In26 2.326 . S
O28 C36 1.252 . S
C29 O32 1.252 . S
C29 O33 1.260 . S
C30 O37 1.240 . S
C30 O38 1.252 . S
C31 O34 1.252 . S
C31 O35 1.260 . S
O32 In26 2.266 . S
O32 C29 1.252 . S
O33 In26 2.326 . S
O33 C29 1.260 . S
O34 In26 2.266 . S
O34 C31 1.252 . S
O35 In26 2.326 . S
O35 C31 1.260 . S
C36 O27 1.240 . S
C36 O28 1.252 . S
O37 In26 2.294 . S
O37 C30 1.240 . S
O38 In26 2.326 . S
O38 C30 1.252 . S
In39 O40 2.294 . S
In39 O41 2.326 . S
In39 O45 2.266 . S
In39 O46 2.326 . S
In39 O47 2.266 . S
In39 O48 2.326 . S
In39 O50 2.294 . S
In39 O51 2.326 . S
O40 In39 2.294 . S
O40 C49 1.240 . S
O41 In39 2.326 . S
O41 C49 1.252 . S
C42 O45 1.252 . S
C42 O46 1.260 . S
C43 O50 1.240 . S
C43 O51 1.252 . S
C44 O47 1.252 . S
C44 O48 1.260 . S
O45 In39 2.266 . S
O45 C42 1.252 . S
O46 In39 2.326 . S
O46 C42 1.260 . S
O47 In39 2.266 . S
O47 C44 1.252 . S
O48 In39 2.326 . S
O48 C44 1.260 . S
C49 O40 1.240 . S
C49 O41 1.252 . S
O50 In39 2.294 . S
O50 C43 1.240 . S
O51 In39 2.326 . S
O51 C43 1.252 . S
In52 O53 2.294 1_545 S
In52 O54 2.326 1_545 S
In52 O58 2.266 . S
In52 O59 2.326 . S
In52 O60 2.266 . S
In52 O61 2.326 . S
In52 O63 2.296 . S
In52 O64 2.326 . S
O53 In52 2.294 1_565 S
O53 C62 1.240 . S
O54 In52 2.326 1_565 S
O54 C62 1.252 . S
C55 O58 1.252 . S
C55 O59 1.260 . S
C56 O63 1.240 . S
C56 O64 1.252 . S
C57 O60 1.252 . S
C57 O61 1.260 . S
O58 In52 2.266 . S
O58 C55 1.252 . S
O59 In52 2.326 . S
O59 C55 1.260 . S
O60 In52 2.266 . S
O60 C57 1.252 . S
O61 In52 2.326 . S
O61 C57 1.260 . S
C62 O53 1.240 . S
C62 O54 1.252 . S
O63 In52 2.296 . S
O63 C56 1.240 . S
O64 In52 2.326 . S
O64 C56 1.252 . S
In65 O66 2.294 . S
In65 O67 2.326 . S
In65 O71 2.266 . S
In65 O72 2.326 . S
In65 O73 2.266 . S
In65 O74 2.326 . S
In65 O76 2.294 . S
In65 O77 2.326 . S
O66 In65 2.294 . S
O66 C75 1.240 . S
O67 In65 2.326 . S
O67 C75 1.252 . S
C68 O71 1.252 . S
C68 O72 1.260 . S
C69 O76 1.240 . S
C69 O77 1.252 . S
C70 O73 1.252 . S
C70 O74 1.260 . S
O71 In65 2.266 . S
O71 C68 1.252 . S
O72 In65 2.326 . S
O72 C68 1.260 . S
O73 In65 2.266 . S
O73 C70 1.252 . S
O74 In65 2.326 . S
O74 C70 1.260 . S
C75 O66 1.240 . S
C75 O67 1.252 . S
O76 In65 2.294 . S
O76 C69 1.240 . S
O77 In65 2.326 . S
O77 C69 1.252 . S
In78 O79 2.294 . S
In78 O80 2.326 . S
In78 O84 2.266 . S
In78 O85 2.326 . S
In78 O86 2.266 . S
In78 O87 2.326 . S
In78 O89 2.294 . S
In78 O90 2.326 . S
O79 In78 2.294 . S
O79 C88 1.240 . S
O80 In78 2.326 . S
O80 C88 1.252 . S
C81 O84 1.252 . S
C81 O85 1.260 . S
C82 O89 1.240 . S
C82 O90 1.252 . S
C83 O86 1.252 . S
C83 O87 1.260 . S
O84 In78 2.266 . S
O84 C81 1.252 . S
O85 In78 2.326 . S
O85 C81 1.260 . S
O86 In78 2.266 . S
O86 C83 1.252 . S
O87 In78 2.326 . S
O87 C83 1.260 . S
C88 O79 1.240 . S
C88 O80 1.252 . S
O89 In78 2.294 . S
O89 C82 1.240 . S
O90 In78 2.326 . S
O90 C82 1.252 . S
In91 O92 2.294 . S
In91 O93 2.326 . S
In91 O97 2.266 . S
In91 O98 2.326 . S
In91 O99 2.266 . S
In91 O100 2.326 1_554 S
In91 O102 2.294 . S
In91 O103 2.326 . S
O92 In91 2.294 . S
O92 C101 1.240 . S
O93 In91 2.326 . S
O93 C101 1.252 . S
C94 O97 1.252 . S
C94 O98 1.260 . S
C95 O102 1.240 . S
C95 O103 1.252 . S
C96 O99 1.252 1_556 S
C96 O100 1.260 . S
O97 In91 2.266 . S
O97 C94 1.252 . S
O98 In91 2.326 . S
O98 C94 1.260 . S
O99 In91 2.266 . S
O99 C96 1.252 1_554 S
O100 In91 2.326 1_556 S
O100 C96 1.260 . S
C101 O92 1.240 . S
C101 O93 1.252 . S
O102 In91 2.294 . S
O102 C95 1.240 . S
O103 In91 2.326 . S
O103 C95 1.252 . S
In104 O105 2.294 . S
In104 O106 2.326 . S
In104 O110 2.266 . S
In104 O111 2.326 . S
In104 O112 2.266 . S
In104 O113 2.326 . S
In104 O115 2.294 . S
In104 O116 2.326 . S
O105 In104 2.294 . S
O105 C114 1.240 . S
O106 In104 2.326 . S
O106 C114 1.252 . S
C107 O110 1.252 . S
C107 O111 1.260 . S
C108 O115 1.240 . S
C108 O116 1.252 . S
C109 O112 1.252 . S
C109 O113 1.260 . S
O110 In104 2.266 . S
O110 C107 1.252 . S
O111 In104 2.326 . S
O111 C107 1.260 . S
O112 In104 2.266 . S
O112 C109 1.252 . S
O113 In104 2.326 . S
O113 C109 1.260 . S
C114 O105 1.240 . S
C114 O106 1.252 . S
O115 In104 2.294 . S
O115 C108 1.240 . S
O116 In104 2.326 . S
O116 C108 1.252 . S
In117 O118 2.294 . S
In117 O119 2.326 . S
In117 O123 2.266 . S
In117 O124 2.326 . S
In117 O125 2.266 . S
In117 O126 2.326 . S
In117 O128 2.294 . S
In117 O129 2.326 . S
O118 In117 2.294 . S
O118 C127 1.240 . S
O119 In117 2.326 . S
O119 C127 1.252 . S
C120 O123 1.252 . S
C120 O124 1.260 . S
C121 O128 1.240 . S
C121 O129 1.252 . S
C122 O125 1.252 . S
C122 O126 1.260 . S
O123 In117 2.266 . S
O123 C120 1.252 . S
O124 In117 2.326 . S
O124 C120 1.260 . S
O125 In117 2.266 . S
O125 C122 1.252 . S
O126 In117 2.326 . S
O126 C122 1.260 . S
C127 O118 1.240 . S
C127 O119 1.252 . S
O128 In117 2.294 . S
O128 C121 1.240 . S
O129 In117 2.326 . S
O129 C121 1.252 . S
In130 O131 2.294 . S
In130 O132 2.326 . S
In130 O136 2.266 . S
In130 O137 2.326 . S
In130 O138 2.266 . S
In130 O139 2.326 . S
In130 O141 2.294 . S
In130 O142 2.326 . S
O131 In130 2.294 . S
O131 C140 1.240 . S
O132 In130 2.326 . S
O132 C140 1.252 . S
C133 O136 1.252 . S
C133 O137 1.260 . S
C134 O141 1.240 . S
C134 O142 1.252 . S
C135 O138 1.252 . S
C135 O139 1.260 . S
O136 In130 2.266 . S
O136 C133 1.252 . S
O137 In130 2.326 . S
O137 C133 1.260 . S
O138 In130 2.266 . S
O138 C135 1.252 . S
O139 In130 2.326 . S
O139 C135 1.260 . S
C140 O131 1.240 . S
C140 O132 1.252 . S
O141 In130 2.294 . S
O141 C134 1.240 . S
O142 In130 2.326 . S
O142 C134 1.252 . S
In143 O144 2.294 . S
In143 O145 2.326 . S
In143 O149 2.266 . S
In143 O150 2.326 . S
In143 O151 2.266 . S
In143 O152 2.326 . S
In143 O154 2.294 . S
In143 O155 2.326 . S
O144 In143 2.294 . S
O144 C153 1.240 . S
O145 In143 2.326 . S
O145 C153 1.252 . S
C146 O149 1.252 . S
C146 O150 1.260 . S
C147 O154 1.240 . S
C147 O155 1.252 . S
C148 O151 1.252 . S
C148 O152 1.260 . S
O149 In143 2.266 . S
O149 C146 1.252 . S
O150 In143 2.326 . S
O150 C146 1.260 . S
O151 In143 2.266 . S
O151 C148 1.252 . S
O152 In143 2.326 . S
O152 C148 1.260 . S
C153 O144 1.240 . S
C153 O145 1.252 . S
O154 In143 2.294 . S
O154 C147 1.240 . S
O155 In143 2.326 . S
O155 C147 1.252 . S
In156 O157 2.294 . S
In156 O158 2.326 . S
In156 O162 2.266 1_455 S
In156 O163 2.326 1_455 S
In156 O164 2.266 . S
In156 O165 2.326 . S
In156 O167 2.294 . S
In156 O168 2.326 . S
O157 In156 2.294 . S
O157 C166 1.240 . S
O158 In156 2.326 . S
O158 C166 1.252 . S
C159 O162 1.252 . S
C159 O163 1.260 . S
C160 O167 1.240 . S
C160 O168 1.252 . S
C161 O164 1.252 . S
C161 O165 1.260 . S
O162 In156 2.266 1_655 S
O162 C159 1.252 . S
O163 In156 2.326 1_655 S
O163 C159 1.260 . S
O164 In156 2.266 . S
O164 C161 1.252 . S
O165 In156 2.326 . S
O165 C161 1.260 . S
C166 O157 1.240 . S
C166 O158 1.252 . S
O167 In156 2.294 . S
O167 C160 1.240 . S
O168 In156 2.326 . S
O168 C160 1.252 . S
In169 O170 2.294 . S
In169 O171 2.327 . S
In169 O175 2.266 1_455 S
In169 O176 2.325 1_455 S
In169 O177 2.264 1_455 S
In169 O178 2.322 1_455 S
In169 O180 2.296 . S
In169 O181 2.329 . S
O170 In169 2.294 . S
O170 C179 1.240 . S
O171 In169 2.327 . S
O171 C179 1.252 . S
C172 O175 1.252 . S
C172 O176 1.260 . S
C173 O180 1.240 . S
C173 O181 1.252 . S
C174 O177 1.252 . S
C174 O178 1.260 . S
O175 In169 2.266 1_655 S
O175 C172 1.252 . S
O176 In169 2.325 1_655 S
O176 C172 1.260 . S
O177 In169 2.264 1_655 S
O177 C174 1.252 . S
O178 In169 2.322 1_655 S
O178 C174 1.260 . S
C179 O170 1.240 . S
C179 O171 1.252 . S
O180 In169 2.296 . S
O180 C173 1.240 . S
O181 In169 2.329 . S
O181 C173 1.252 . S
In182 O183 2.294 . S
In182 O184 2.326 . S
In182 O188 2.266 . S
In182 O189 2.326 . S
In182 O190 2.266 . S
In182 O191 2.326 . S
In182 O193 2.294 . S
In182 O194 2.326 . S
O183 In182 2.294 . S
O183 C192 1.240 . S
O184 In182 2.326 . S
O184 C192 1.252 . S
C185 O188 1.252 . S
C185 O189 1.260 . S
C186 O193 1.240 . S
C186 O194 1.252 . S
C187 O190 1.252 . S
C187 O191 1.260 . S
O188 In182 2.266 . S
O188 C185 1.252 . S
O189 In182 2.326 . S
O189 C185 1.260 . S
O190 In182 2.266 . S
O190 C187 1.252 . S
O191 In182 2.326 . S
O191 C187 1.260 . S
C192 O183 1.240 . S
C192 O184 1.252 . S
O193 In182 2.294 . S
O193 C186 1.240 . S
O194 In182 2.326 . S
O194 C186 1.252 . S
In195 O196 2.294 . S
In195 O197 2.326 . S
In195 O201 2.266 . S
In195 O202 2.326 . S
In195 O203 2.266 . S
In195 O204 2.326 . S
In195 O206 2.294 . S
In195 O207 2.326 . S
O196 In195 2.294 . S
O196 C205 1.240 . S
O197 In195 2.326 . S
O197 C205 1.252 . S
C198 O201 1.252 . S
C198 O202 1.260 . S
C199 O206 1.240 . S
C199 O207 1.252 . S
C200 O203 1.252 . S
C200 O204 1.260 . S
O201 In195 2.266 . S
O201 C198 1.252 . S
O202 In195 2.326 . S
O202 C198 1.260 . S
O203 In195 2.266 . S
O203 C200 1.252 . S
O204 In195 2.326 . S
O204 C200 1.260 . S
C205 O196 1.240 . S
C205 O197 1.252 . S
O206 In195 2.294 . S
O206 C199 1.240 . S
O207 In195 2.326 . S
O207 C199 1.252 . S
In208 O209 2.294 . S
In208 O210 2.326 . S
In208 O214 2.266 . S
In208 O215 2.326 . S
In208 O216 2.266 . S
In208 O217 2.326 . S
In208 O219 2.294 . S
In208 O220 2.326 . S
O209 In208 2.294 . S
O209 C218 1.240 . S
O210 In208 2.326 . S
O210 C218 1.252 . S
C211 O214 1.252 . S
C211 O215 1.260 . S
C212 O219 1.240 . S
C212 O220 1.252 . S
C213 O216 1.252 . S
C213 O217 1.260 . S
O214 In208 2.266 . S
O214 C211 1.252 . S
O215 In208 2.326 . S
O215 C211 1.260 . S
O216 In208 2.266 . S
O216 C213 1.252 . S
O217 In208 2.326 . S
O217 C213 1.260 . S
C218 O209 1.240 . S
C218 O210 1.252 . S
O219 In208 2.294 . S
O219 C212 1.240 . S
O220 In208 2.326 . S
O220 C212 1.252 . S
In221 O222 2.294 . S
In221 O223 2.326 . S
In221 O227 2.266 . S
In221 O228 2.326 . S
In221 O229 2.266 . S
In221 O230 2.326 . S
In221 O232 2.294 . S
In221 O233 2.326 . S
O222 In221 2.294 . S
O222 C231 1.240 . S
O223 In221 2.326 . S
O223 C231 1.252 . S
C224 O227 1.252 . S
C224 O228 1.260 . S
C225 O232 1.240 . S
C225 O233 1.252 . S
C226 O229 1.252 . S
C226 O230 1.260 . S
O227 In221 2.266 . S
O227 C224 1.252 . S
O228 In221 2.326 . S
O228 C224 1.260 . S
O229 In221 2.266 . S
O229 C226 1.252 . S
O230 In221 2.326 . S
O230 C226 1.260 . S
C231 O222 1.240 . S
C231 O223 1.252 . S
O232 In221 2.294 . S
O232 C225 1.240 . S
O233 In221 2.326 . S
O233 C225 1.252 . S
In234 O235 2.294 1_545 S
In234 O236 2.326 1_545 S
In234 O240 2.266 . S
In234 O241 2.326 . S
In234 O242 2.266 . S
In234 O243 2.326 . S
In234 O245 2.294 . S
In234 O246 2.326 . S
O235 In234 2.294 1_565 S
O235 C244 1.240 . S
O236 In234 2.326 1_565 S
O236 C244 1.252 . S
C237 O240 1.252 . S
C237 O241 1.260 . S
C238 O245 1.240 . S
C238 O246 1.256 . S
C239 O242 1.252 . S
C239 O243 1.260 . S
O240 In234 2.266 . S
O240 C237 1.252 . S
O241 In234 2.326 . S
O241 C237 1.260 . S
O242 In234 2.266 . S
O242 C239 1.252 . S
O243 In234 2.326 . S
O243 C239 1.260 . S
C244 O235 1.240 . S
C244 O236 1.252 . S
O245 In234 2.294 . S
O245 C238 1.240 . S
O246 In234 2.326 . S
O246 C238 1.256 . S
In247 O248 2.294 . S
In247 O249 2.326 . S
In247 O253 2.266 . S
In247 O254 2.326 . S
In247 O255 2.266 1_554 S
In247 O256 2.326 1_554 S
In247 O258 2.294 . S
In247 O259 2.326 . S
O248 In247 2.294 . S
O248 C257 1.240 . S
O249 In247 2.326 . S
O249 C257 1.252 . S
C250 O253 1.252 . S
C250 O254 1.260 . S
C251 O258 1.240 . S
C251 O259 1.252 . S
C252 O255 1.252 . S
C252 O256 1.260 . S
O253 In247 2.266 . S
O253 C250 1.252 . S
O254 In247 2.326 . S
O254 C250 1.260 . S
O255 In247 2.266 1_556 S
O255 C252 1.252 . S
O256 In247 2.326 1_556 S
O256 C252 1.260 . S
C257 O248 1.240 . S
C257 O249 1.252 . S
O258 In247 2.294 . S
O258 C251 1.240 . S
O259 In247 2.326 . S
O259 C251 1.252 . S
In260 O261 2.296 . S
In260 O262 2.329 . S
In260 O266 2.264 1_554 S
In260 O267 2.322 1_554 S
In260 O268 2.266 1_554 S
In260 O269 2.325 1_554 S
In260 O271 2.294 . S
In260 O272 2.327 . S
O261 In260 2.296 . S
O261 C270 1.240 . S
O262 In260 2.329 . S
O262 C270 1.252 . S
C263 O266 1.252 . S
C263 O267 1.260 . S
C264 O271 1.240 . S
C264 O272 1.252 . S
C265 O268 1.252 . S
C265 O269 1.260 . S
O266 In260 2.264 1_556 S
O266 C263 1.252 . S
O267 In260 2.322 1_556 S
O267 C263 1.260 . S
O268 In260 2.266 1_556 S
O268 C265 1.252 . S
O269 In260 2.325 1_556 S
O269 C265 1.260 . S
C270 O261 1.240 . S
C270 O262 1.252 . S
O271 In260 2.294 . S
O271 C264 1.240 . S
O272 In260 2.327 . S
O272 C264 1.252 . S
In273 O274 2.294 . S
In273 O275 2.326 . S
In273 O279 2.266 . S
In273 O280 2.326 . S
In273 O281 2.266 . S
In273 O282 2.326 . S
In273 O284 2.294 . S
In273 O285 2.326 . S
O274 In273 2.294 . S
O274 C283 1.240 . S
O275 In273 2.326 . S
O275 C283 1.252 . S
C276 O279 1.252 . S
C276 O280 1.260 . S
C277 O284 1.240 . S
C277 O285 1.252 . S
C278 O281 1.252 . S
C278 O282 1.260 . S
O279 In273 2.266 . S
O279 C276 1.252 . S
O280 In273 2.326 . S
O280 C276 1.260 . S
O281 In273 2.266 . S
O281 C278 1.252 . S
O282 In273 2.326 . S
O282 C278 1.260 . S
C283 O274 1.240 . S
C283 O275 1.252 . S
O284 In273 2.294 . S
O284 C277 1.240 . S
O285 In273 2.326 . S
O285 C277 1.252 . S
In286 O287 2.294 . S
In286 O288 2.326 . S
In286 O292 2.266 . S
In286 O293 2.326 . S
In286 O294 2.266 . S
In286 O295 2.326 . S
In286 O297 2.294 . S
In286 O298 2.326 . S
O287 In286 2.294 . S
O287 C296 1.240 . S
O288 In286 2.326 . S
O288 C296 1.252 . S
C289 O292 1.252 . S
C289 O293 1.260 . S
C290 O297 1.240 . S
C290 O298 1.252 . S
C291 O294 1.252 . S
C291 O295 1.260 . S
O292 In286 2.266 . S
O292 C289 1.252 . S
O293 In286 2.326 . S
O293 C289 1.260 . S
O294 In286 2.266 . S
O294 C291 1.252 . S
O295 In286 2.326 . S
O295 C291 1.260 . S
C296 O287 1.240 . S
C296 O288 1.252 . S
O297 In286 2.294 . S
O297 C290 1.240 . S
O298 In286 2.326 . S
O298 C290 1.252 . S
In299 O300 2.294 . S
In299 O301 2.326 . S
In299 O305 2.266 . S
In299 O306 2.326 . S
In299 O307 2.266 . S
In299 O308 2.326 . S
In299 O310 2.294 . S
In299 O311 2.326 . S
O300 In299 2.294 . S
O300 C309 1.240 . S
O301 In299 2.326 . S
O301 C309 1.252 . S
C302 O305 1.252 . S
C302 O306 1.260 . S
C303 O310 1.240 . S
C303 O311 1.252 . S
C304 O307 1.252 . S
C304 O308 1.260 . S
O305 In299 2.266 . S
O305 C302 1.252 . S
O306 In299 2.326 . S
O306 C302 1.260 . S
O307 In299 2.266 . S
O307 C304 1.252 . S
O308 In299 2.326 . S
O308 C304 1.260 . S
C309 O300 1.240 . S
C309 O301 1.252 . S
O310 In299 2.294 . S
O310 C303 1.240 . S
O311 In299 2.326 . S
O311 C303 1.252 . S
Co312 N317 2.057 . S
Co312 O329 2.021 1_545 S
Co312 O332 2.062 1_456 S
Co312 O336 2.117 1_556 S
Co312 O337 2.020 . S
C313 O333 1.259 . S
C313 O336 1.258 . S
Co314 N323 2.055 1_545 S
Co314 O330 2.117 1_545 S
Co314 O331 2.020 1_455 S
Co314 O333 2.021 . S
Co314 O338 2.062 . S
C315 N317 1.316 1_655 S
C315 N318 1.347 . S
C315 H320 0.931 1_655 S
C316 N317 1.375 1_655 S
C316 C319 1.350 . S
C316 H321 0.930 . S
N317 Co312 2.057 . S
N317 C315 1.316 1_455 S
N317 C316 1.375 1_455 S
N318 C315 1.347 . S
N318 C319 1.373 . S
C319 C316 1.350 . S
C319 N318 1.373 . S
C319 H340 0.931 . S
H320 C315 0.931 1_455 S
H321 C316 0.930 . S
C322 O329 1.259 1_554 S
C322 O330 1.258 . S
N323 Co314 2.055 1_565 S
N323 C324 1.315 1_565 S
N323 C325 1.378 . S
C324 N323 1.315 1_545 S
C324 N326 1.347 1_545 S
C324 H335 0.931 . S
C325 N323 1.378 . S
C325 C327 1.350 . S
C325 H334 0.930 . S
N326 C324 1.347 1_565 S
N326 C327 1.373 . S
C327 C325 1.350 . S
C327 N326 1.373 . S
C327 H341 0.931 . S
C328 O331 1.256 . S
C328 O332 1.255 . S
O329 Co312 2.021 1_565 S
O329 C322 1.259 1_556 S
O330 Co314 2.117 1_565 S
O330 C322 1.258 . S
O331 Co314 2.020 1_655 S
O331 C328 1.256 . S
O332 Co312 2.062 1_654 S
O332 C328 1.255 . S
O333 C313 1.259 . S
O333 Co314 2.021 . S
H334 C325 0.930 . S
H335 C324 0.931 . S
O336 Co312 2.117 1_554 S
O336 C313 1.258 . S
O337 Co312 2.020 . S
O337 C339 1.256 1_556 S
O338 Co314 2.062 . S
O338 C339 1.255 . S
C339 O337 1.256 1_554 S
C339 O338 1.255 . S
H340 C319 0.931 . S
H341 C327 0.931 . S
Co342 N347 2.057 . S
Co342 O359 2.021 . S
Co342 O362 2.062 . S
Co342 O366 2.117 . S
Co342 O367 2.020 . S
C343 O363 1.259 . S
C343 O366 1.258 . S
Co344 N353 2.057 . S
Co344 O360 2.117 . S
Co344 O361 2.020 . S
Co344 O363 2.021 . S
Co344 O368 2.062 . S
C345 N347 1.316 . S
C345 N348 1.347 . S
C345 H350 0.931 . S
C346 N347 1.375 . S
C346 C349 1.350 . S
C346 H351 0.930 . S
N347 Co342 2.057 . S
N347 C345 1.316 . S
N347 C346 1.375 . S
N348 C345 1.347 . S
N348 C349 1.373 . S
C349 C346 1.350 . S
C349 N348 1.373 . S
C349 H370 0.931 . S
H350 C345 0.931 . S
H351 C346 0.930 . S
C352 O359 1.259 . S
C352 O360 1.258 . S
N353 Co344 2.057 . S
N353 C354 1.316 . S
N353 C355 1.375 . S
C354 N353 1.316 . S
C354 N356 1.347 . S
C354 H365 0.931 . S
C355 N353 1.375 . S
C355 C357 1.350 . S
C355 H364 0.930 . S
N356 C354 1.347 . S
N356 C357 1.373 . S
C357 C355 1.350 . S
C357 N356 1.373 . S
C357 H371 0.931 . S
C358 O361 1.256 . S
C358 O362 1.255 . S
O359 Co342 2.021 . S
O359 C352 1.259 . S
O360 Co344 2.117 . S
O360 C352 1.258 . S
O361 Co344 2.020 . S
O361 C358 1.256 . S
O362 Co342 2.062 . S
O362 C358 1.255 . S
O363 C343 1.259 . S
O363 Co344 2.021 . S
H364 C355 0.930 . S
H365 C354 0.931 . S
O366 Co342 2.117 . S
O366 C343 1.258 . S
O367 Co342 2.020 . S
O367 C369 1.256 . S
O368 Co344 2.062 . S
O368 C369 1.255 . S
C369 O367 1.256 . S
C369 O368 1.255 . S
H370 C349 0.931 . S
H371 C357 0.931 . S
Co372 N377 2.057 . S
Co372 O389 2.021 1_545 S
Co372 O392 2.062 . S
Co372 O396 2.117 . S
Co372 O397 2.020 . S
C373 O393 1.259 . S
C373 O396 1.258 . S
Co374 N383 2.057 . S
Co374 O390 2.117 . S
Co374 O391 2.020 . S
Co374 O393 2.021 . S
Co374 O398 2.062 . S
C375 N377 1.288 1_565 S
C375 N378 1.341 1_565 S
C375 H380 0.961 . S
C376 N377 1.375 . S
C376 C379 1.350 . S
C376 H381 0.930 . S
N377 Co372 2.057 . S
N377 C375 1.288 1_545 S
N377 C376 1.375 . S
N378 C375 1.341 1_545 S
N378 C379 1.373 . S
C379 C376 1.350 . S
C379 N378 1.373 . S
C379 H400 0.931 . S
H380 C375 0.961 . S
H381 C376 0.930 . S
C382 O389 1.259 . S
C382 O390 1.258 1_565 S
N383 Co374 2.057 . S
N383 C384 1.316 . S
N383 C385 1.375 . S
C384 N383 1.316 . S
C384 N386 1.347 . S
C384 H395 0.931 . S
C385 N383 1.375 . S
C385 C387 1.350 . S
C385 H394 0.930 . S
N386 C384 1.347 . S
N386 C387 1.373 . S
C387 C385 1.350 . S
C387 N386 1.373 . S
C387 H401 0.931 . S
C388 O391 1.256 . S
C388 O392 1.255 . S
O389 Co372 2.021 1_565 S
O389 C382 1.259 . S
O390 Co374 2.117 . S
O390 C382 1.258 1_545 S
O391 Co374 2.020 . S
O391 C388 1.256 . S
O392 Co372 2.062 . S
O392 C388 1.255 . S
O393 C373 1.259 . S
O393 Co374 2.021 . S
H394 C385 0.930 . S
H395 C384 0.931 . S
O396 Co372 2.117 . S
O396 C373 1.258 . S
O397 Co372 2.020 . S
O397 C399 1.256 . S
O398 Co374 2.062 . S
O398 C399 1.255 . S
C399 O397 1.256 . S
C399 O398 1.255 . S
H400 C379 0.931 . S
H401 C387 0.931 . S
Co402 N407 2.057 . S
Co402 O419 2.021 . S
Co402 O422 2.062 . S
Co402 O426 2.117 . S
Co402 O427 2.020 . S
C403 O423 1.259 . S
C403 O426 1.258 . S
Co404 N413 2.057 . S
Co404 O420 2.117 . S
Co404 O421 2.020 . S
Co404 O423 2.021 . S
Co404 O428 2.062 . S
C405 N407 1.316 . S
C405 N408 1.347 . S
C405 H410 0.931 . S
C406 N407 1.375 . S
C406 C409 1.350 . S
C406 H411 0.930 . S
N407 Co402 2.057 . S
N407 C405 1.316 . S
N407 C406 1.375 . S
N408 C405 1.347 . S
N408 C409 1.373 . S
C409 C406 1.350 . S
C409 N408 1.373 . S
C409 H430 0.931 . S
H410 C405 0.931 . S
H411 C406 0.930 . S
C412 O419 1.259 . S
C412 O420 1.258 . S
N413 Co404 2.057 . S
N413 C414 1.316 . S
N413 C415 1.375 . S
C414 N413 1.316 . S
C414 N416 1.347 . S
C414 H425 0.931 . S
C415 N413 1.375 . S
C415 C417 1.350 . S
C415 H424 0.930 . S
N416 C414 1.347 . S
N416 C417 1.373 . S
C417 C415 1.350 . S
C417 N416 1.373 . S
C417 H431 0.931 . S
C418 O421 1.256 . S
C418 O422 1.255 . S
O419 Co402 2.021 . S
O419 C412 1.259 . S
O420 Co404 2.117 . S
O420 C412 1.258 . S
O421 Co404 2.020 . S
O421 C418 1.256 . S
O422 Co402 2.062 . S
O422 C418 1.255 . S
O423 C403 1.259 . S
O423 Co404 2.021 . S
H424 C415 0.930 . S
H425 C414 0.931 . S
O426 Co402 2.117 . S
O426 C403 1.258 . S
O427 Co402 2.020 . S
O427 C429 1.256 . S
O428 Co404 2.062 . S
O428 C429 1.255 . S
C429 O427 1.256 . S
C429 O428 1.255 . S
H430 C409 0.931 . S
H431 C417 0.931 . S
Co432 N437 2.057 1_545 S
Co432 O449 2.021 . S
Co432 O452 2.062 1_545 S
Co432 O456 2.117 1_455 S
Co432 O457 2.020 1_455 S
C433 O453 1.259 1_655 S
C433 O456 1.258 . S
Co434 N443 2.057 . S
Co434 O450 2.117 . S
Co434 O451 2.020 . S
Co434 O453 2.021 . S
Co434 O458 2.062 1_455 S
C435 N437 1.316 . S
C435 N438 1.346 1_455 S
C435 H440 0.931 . S
C436 N437 1.375 1_655 S
C436 C439 1.350 . S
C436 H441 0.930 . S
N437 Co432 2.057 1_565 S
N437 C435 1.316 . S
N437 C436 1.375 1_455 S
N438 C435 1.346 1_655 S
N438 C439 1.374 . S
C439 C436 1.350 . S
C439 N438 1.374 . S
C439 H460 0.931 . S
H440 C435 0.931 . S
H441 C436 0.930 . S
C442 O449 1.259 . S
C442 O450 1.258 . S
N443 Co434 2.057 . S
N443 C444 1.316 . S
N443 C445 1.375 . S
C444 N443 1.316 . S
C444 N446 1.347 . S
C444 H455 0.931 . S
C445 N443 1.375 . S
C445 C447 1.350 . S
C445 H454 0.930 . S
N446 C444 1.347 . S
N446 C447 1.373 . S
C447 C445 1.350 . S
C447 N446 1.373 . S
C447 H461 0.931 . S
C448 O451 1.256 . S
C448 O452 1.255 1_545 S
O449 Co432 2.021 . S
O449 C442 1.259 . S
O450 Co434 2.117 . S
O450 C442 1.258 . S
O451 Co434 2.020 . S
O451 C448 1.256 . S
O452 Co432 2.062 1_565 S
O452 C448 1.255 1_565 S
O453 C433 1.259 1_455 S
O453 Co434 2.021 . S
H454 C445 0.930 . S
H455 C444 0.931 . S
O456 Co432 2.117 1_655 S
O456 C433 1.258 . S
O457 Co432 2.020 1_655 S
O457 C459 1.256 . S
O458 Co434 2.062 1_655 S
O458 C459 1.255 . S
C459 O457 1.256 . S
C459 O458 1.255 . S
H460 C439 0.931 . S
H461 C447 0.931 . S
Co462 N467 2.057 . S
Co462 O479 2.021 . S
Co462 O482 2.062 . S
Co462 O486 2.117 . S
Co462 O487 2.020 . S
C463 O483 1.259 . S
C463 O486 1.258 . S
Co464 N473 2.057 . S
Co464 O480 2.117 . S
Co464 O481 2.020 . S
Co464 O483 2.021 . S
Co464 O488 2.062 . S
C465 N467 1.316 . S
C465 N468 1.347 . S
C465 H470 0.931 . S
C466 N467 1.375 . S
C466 C469 1.350 . S
C466 H471 0.930 . S
N467 Co462 2.057 . S
N467 C465 1.316 . S
N467 C466 1.375 . S
N468 C465 1.347 . S
N468 C469 1.373 . S
C469 C466 1.350 . S
C469 N468 1.373 . S
C469 H490 0.931 . S
H470 C465 0.931 . S
H471 C466 0.930 . S
C472 O479 1.259 . S
C472 O480 1.258 . S
N473 Co464 2.057 . S
N473 C474 1.316 . S
N473 C475 1.375 . S
C474 N473 1.316 . S
C474 N476 1.347 . S
C474 H485 0.931 . S
C475 N473 1.375 . S
C475 C477 1.350 . S
C475 H484 0.930 . S
N476 C474 1.347 . S
N476 C477 1.373 . S
C477 C475 1.350 . S
C477 N476 1.373 . S
C477 H491 0.931 . S
C478 O481 1.256 . S
C478 O482 1.255 . S
O479 Co462 2.021 . S
O479 C472 1.259 . S
O480 Co464 2.117 . S
O480 C472 1.258 . S
O481 Co464 2.020 . S
O481 C478 1.256 . S
O482 Co462 2.062 . S
O482 C478 1.255 . S
O483 C463 1.259 . S
O483 Co464 2.021 . S
H484 C475 0.930 . S
H485 C474 0.931 . S
O486 Co462 2.117 . S
O486 C463 1.258 . S
O487 Co462 2.020 . S
O487 C489 1.256 . S
O488 Co464 2.062 . S
O488 C489 1.255 . S
C489 O487 1.256 . S
C489 O488 1.255 . S
H490 C469 0.931 . S
H491 C477 0.931 . S
Co492 N497 2.057 1_554 S
Co492 O509 2.021 . S
Co492 O512 2.062 1_554 S
Co492 O516 2.117 . S
Co492 O517 2.020 1_545 S
C493 O513 1.259 . S
C493 O516 1.258 . S
Co494 N503 2.057 . S
Co494 O510 2.117 . S
Co494 O511 2.020 . S
Co494 O513 2.021 . S
Co494 O518 2.062 1_545 S
C495 N497 1.316 . S
C495 N498 1.347 . S
C495 H500 0.931 . S
C496 N497 1.375 1_565 S
C496 C499 1.350 . S
C496 H501 0.930 . S
N497 Co492 2.057 1_556 S
N497 C495 1.316 . S
N497 C496 1.375 1_545 S
N498 C495 1.347 . S
N498 C499 1.373 1_545 S
C499 C496 1.350 . S
C499 N498 1.373 1_565 S
C499 H520 0.931 . S
H500 C495 0.931 . S
H501 C496 0.930 . S
C502 O509 1.259 . S
C502 O510 1.258 . S
N503 Co494 2.057 . S
N503 C504 1.316 . S
N503 C505 1.375 . S
C504 N503 1.316 . S
C504 N506 1.347 . S
C504 H515 0.931 . S
C505 N503 1.375 . S
C505 C507 1.350 . S
C505 H514 0.930 . S
N506 C504 1.347 . S
N506 C507 1.373 . S
C507 C505 1.350 . S
C507 N506 1.373 . S
C507 H521 0.931 . S
C508 O511 1.256 . S
C508 O512 1.255 1_554 S
O509 Co492 2.021 . S
O509 C502 1.259 . S
O510 Co494 2.117 . S
O510 C502 1.258 . S
O511 Co494 2.020 . S
O511 C508 1.256 . S
O512 Co492 2.062 1_556 S
O512 C508 1.255 1_556 S
O513 C493 1.259 . S
O513 Co494 2.021 . S
H514 C505 0.930 . S
H515 C504 0.931 . S
O516 Co492 2.117 . S
O516 C493 1.258 . S
O517 Co492 2.020 1_565 S
O517 C519 1.256 . S
O518 Co494 2.062 1_565 S
O518 C519 1.255 . S
C519 O517 1.256 . S
C519 O518 1.255 . S
H520 C499 0.931 . S
H521 C507 0.931 . S
Co522 N527 2.057 . S
Co522 O539 2.021 . S
Co522 O542 2.062 . S
Co522 O546 2.117 . S
Co522 O547 2.020 . S
C523 O543 1.259 . S
C523 O546 1.258 . S
Co524 N533 2.057 . S
Co524 O540 2.117 . S
Co524 O541 2.020 . S
Co524 O543 2.021 . S
Co524 O548 2.062 . S
C525 N527 1.316 . S
C525 N528 1.347 . S
C525 H530 0.931 . S
C526 N527 1.375 . S
C526 C529 1.350 . S
C526 H531 0.930 . S
N527 Co522 2.057 . S
N527 C525 1.316 . S
N527 C526 1.375 . S
N528 C525 1.347 . S
N528 C529 1.373 . S
C529 C526 1.350 . S
C529 N528 1.373 . S
C529 H550 0.931 . S
H530 C525 0.931 . S
H531 C526 0.930 . S
C532 O539 1.259 . S
C532 O540 1.258 . S
N533 Co524 2.057 . S
N533 C534 1.316 . S
N533 C535 1.375 . S
C534 N533 1.316 . S
C534 N536 1.347 . S
C534 H545 0.931 . S
C535 N533 1.375 . S
C535 C537 1.350 . S
C535 H544 0.930 . S
N536 C534 1.347 . S
N536 C537 1.373 . S
C537 C535 1.350 . S
C537 N536 1.373 . S
C537 H551 0.931 . S
C538 O541 1.256 . S
C538 O542 1.255 . S
O539 Co522 2.021 . S
O539 C532 1.259 . S
O540 Co524 2.117 . S
O540 C532 1.258 . S
O541 Co524 2.020 . S
O541 C538 1.256 . S
O542 Co522 2.062 . S
O542 C538 1.255 . S
O543 C523 1.259 . S
O543 Co524 2.021 . S
H544 C535 0.930 . S
H545 C534 0.931 . S
O546 Co522 2.117 . S
O546 C523 1.258 . S
O547 Co522 2.020 . S
O547 C549 1.256 . S
O548 Co524 2.062 . S
O548 C549 1.255 . S
C549 O547 1.256 . S
C549 O548 1.255 . S
H550 C529 0.931 . S
H551 C537 0.931 . S
Co552 N557 2.057 . S
Co552 O569 2.021 1_554 S
Co552 O572 2.062 . S
Co552 O576 2.117 . S
Co552 O577 2.020 . S
C553 O573 1.259 . S
C553 O576 1.258 . S
Co554 N563 2.057 . S
Co554 O570 2.117 . S
Co554 O571 2.020 . S
Co554 O573 2.021 . S
Co554 O578 2.062 . S
C555 N557 1.311 1_556 S
C555 N558 1.345 1_556 S
C555 H560 0.936 . S
C556 N557 1.375 . S
C556 C559 1.350 . S
C556 H561 0.930 . S
N557 Co552 2.057 . S
N557 C555 1.311 1_554 S
N557 C556 1.375 . S
N558 C555 1.345 1_554 S
N558 C559 1.373 . S
C559 C556 1.350 . S
C559 N558 1.373 . S
C559 H580 0.931 . S
H560 C555 0.936 . S
H561 C556 0.930 . S
C562 O569 1.259 . S
C562 O570 1.258 1_556 S
N563 Co554 2.057 . S
N563 C564 1.316 . S
N563 C565 1.375 . S
C564 N563 1.316 . S
C564 N566 1.347 . S
C564 H575 0.931 . S
C565 N563 1.375 . S
C565 C567 1.350 . S
C565 H574 0.930 . S
N566 C564 1.347 . S
N566 C567 1.373 . S
C567 C565 1.350 . S
C567 N566 1.373 . S
C567 H581 0.931 . S
C568 O571 1.256 . S
C568 O572 1.255 . S
O569 Co552 2.021 1_556 S
O569 C562 1.259 . S
O570 Co554 2.117 . S
O570 C562 1.258 1_554 S
O571 Co554 2.020 . S
O571 C568 1.256 . S
O572 Co552 2.062 . S
O572 C568 1.255 . S
O573 C553 1.259 . S
O573 Co554 2.021 . S
H574 C565 0.930 . S
H575 C564 0.931 . S
O576 Co552 2.117 . S
O576 C553 1.258 . S
O577 Co552 2.020 . S
O577 C579 1.256 . S
O578 Co554 2.062 . S
O578 C579 1.255 . S
C579 O577 1.256 . S
C579 O578 1.255 . S
H580 C559 0.931 . S
H581 C567 0.931 . S
Co582 N587 2.057 . S
Co582 O599 2.021 . S
Co582 O602 2.062 . S
Co582 O606 2.117 . S
Co582 O607 2.020 . S
C583 O603 1.259 . S
C583 O606 1.258 . S
Co584 N593 2.057 . S
Co584 O600 2.117 . S
Co584 O601 2.020 . S
Co584 O603 2.021 . S
Co584 O608 2.062 . S
C585 N587 1.316 . S
C585 N588 1.347 . S
C585 H590 0.931 . S
C586 N587 1.375 . S
C586 C589 1.350 . S
C586 H591 0.930 . S
N587 Co582 2.057 . S
N587 C585 1.316 . S
N587 C586 1.375 . S
N588 C585 1.347 . S
N588 C589 1.373 . S
C589 C586 1.350 . S
C589 N588 1.373 . S
C589 H610 0.931 . S
H590 C585 0.931 . S
H591 C586 0.930 . S
C592 O599 1.259 . S
C592 O600 1.258 . S
N593 Co584 2.057 . S
N593 C594 1.316 . S
N593 C595 1.375 . S
C594 N593 1.316 . S
C594 N596 1.347 . S
C594 H605 0.931 . S
C595 N593 1.375 . S
C595 C597 1.350 . S
C595 H604 0.930 . S
N596 C594 1.347 . S
N596 C597 1.373 . S
C597 C595 1.350 . S
C597 N596 1.373 . S
C597 H611 0.931 . S
C598 O601 1.256 . S
C598 O602 1.255 . S
O599 Co582 2.021 . S
O599 C592 1.259 . S
O600 Co584 2.117 . S
O600 C592 1.258 . S
O601 Co584 2.020 . S
O601 C598 1.256 . S
O602 Co582 2.062 . S
O602 C598 1.255 . S
O603 C583 1.259 . S
O603 Co584 2.021 . S
H604 C595 0.930 . S
H605 C594 0.931 . S
O606 Co582 2.117 . S
O606 C583 1.258 . S
O607 Co582 2.020 . S
O607 C609 1.256 . S
O608 Co584 2.062 . S
O608 C609 1.255 . S
C609 O607 1.256 . S
C609 O608 1.255 . S
H610 C589 0.931 . S
H611 C597 0.931 . S
Co612 N617 2.057 . S
Co612 O629 2.021 1_455 S
Co612 O632 2.062 . S
Co612 O636 2.117 . S
Co612 O637 2.020 . S
C613 O633 1.259 . S
C613 O636 1.258 . S
Co614 N623 2.057 . S
Co614 O630 2.136 . S
Co614 O631 2.020 . S
Co614 O633 2.021 . S
Co614 O638 2.062 . S
C615 N617 1.316 1_655 S
C615 N618 1.347 1_655 S
C615 H620 0.931 . S
C616 N617 1.375 . S
C616 C619 1.350 . S
C616 H621 0.930 . S
N617 Co612 2.057 . S
N617 C615 1.316 1_455 S
N617 C616 1.375 . S
N618 C615 1.347 1_455 S
N618 C619 1.373 . S
C619 C616 1.350 . S
C619 N618 1.373 . S
C619 H640 0.931 . S
H620 C615 0.931 . S
H621 C616 0.930 . S
C622 O629 1.259 . S
C622 O630 1.243 1_655 S
N623 Co614 2.057 . S
N623 C624 1.316 . S
N623 C625 1.375 . S
C624 N623 1.316 . S
C624 N626 1.347 . S
C624 H635 0.931 . S
C625 N623 1.375 . S
C625 C627 1.350 . S
C625 H634 0.930 . S
N626 C624 1.347 . S
N626 C627 1.373 . S
C627 C625 1.350 . S
C627 N626 1.373 . S
C627 H641 0.931 . S
C628 O631 1.256 . S
C628 O632 1.255 . S
O629 Co612 2.021 1_655 S
O629 C622 1.259 . S
O630 Co614 2.136 . S
O630 C622 1.243 1_455 S
O631 Co614 2.020 . S
O631 C628 1.256 . S
O632 Co612 2.062 . S
O632 C628 1.255 . S
O633 C613 1.259 . S
O633 Co614 2.021 . S
H634 C625 0.930 . S
H635 C624 0.931 . S
O636 Co612 2.117 . S
O636 C613 1.258 . S
O637 Co612 2.020 . S
O637 C639 1.256 . S
O638 Co614 2.062 . S
O638 C639 1.255 . S
C639 O637 1.256 . S
C639 O638 1.255 . S
H640 C619 0.931 . S
H641 C627 0.931 . S
Co642 N647 2.057 . S
Co642 O659 2.021 . S
Co642 O662 2.062 . S
Co642 O666 2.117 . S
Co642 O667 2.020 . S
C643 O663 1.259 . S
C643 O666 1.258 . S
Co644 N653 2.057 . S
Co644 O660 2.117 . S
Co644 O661 2.020 . S
Co644 O663 2.021 . S
Co644 O668 2.062 . S
C645 N647 1.316 . S
C645 N648 1.347 . S
C645 H650 0.931 . S
C646 N647 1.375 . S
C646 C649 1.350 . S
C646 H651 0.930 . S
N647 Co642 2.057 . S
N647 C645 1.316 . S
N647 C646 1.375 . S
N648 C645 1.347 . S
N648 C649 1.373 . S
C649 C646 1.350 . S
C649 N648 1.373 . S
C649 H670 0.931 . S
H650 C645 0.931 . S
H651 C646 0.930 . S
C652 O659 1.259 . S
C652 O660 1.258 . S
N653 Co644 2.057 . S
N653 C654 1.316 . S
N653 C655 1.375 . S
C654 N653 1.316 . S
C654 N656 1.347 . S
C654 H665 0.931 . S
C655 N653 1.375 . S
C655 C657 1.350 . S
C655 H664 0.930 . S
N656 C654 1.347 . S
N656 C657 1.373 . S
C657 C655 1.350 . S
C657 N656 1.373 . S
C657 H671 0.931 . S
C658 O661 1.256 . S
C658 O662 1.255 . S
O659 Co642 2.021 . S
O659 C652 1.259 . S
O660 Co644 2.117 . S
O660 C652 1.258 . S
O661 Co644 2.020 . S
O661 C658 1.256 . S
O662 Co642 2.062 . S
O662 C658 1.255 . S
O663 C643 1.259 . S
O663 Co644 2.021 . S
H664 C655 0.930 . S
H665 C654 0.931 . S
O666 Co642 2.117 . S
O666 C643 1.258 . S
O667 Co642 2.020 . S
O667 C669 1.256 . S
O668 Co644 2.062 . S
O668 C669 1.255 . S
C669 O667 1.256 . S
C669 O668 1.255 . S
H670 C649 0.931 . S
H671 C657 0.931 . S
Co672 N677 2.057 . S
Co672 O689 2.021 . S
Co672 O692 2.062 . S
Co672 O696 2.117 . S
Co672 O697 2.020 . S
C673 O693 1.259 . S
C673 O696 1.258 . S
Co674 N683 2.057 . S
Co674 O690 2.117 . S
Co674 O691 2.020 . S
Co674 O693 2.021 . S
Co674 O698 2.062 . S
C675 N677 1.316 . S
C675 N678 1.347 . S
C675 H680 0.931 . S
C676 N677 1.375 . S
C676 C679 1.350 . S
C676 H681 0.930 . S
N677 Co672 2.057 . S
N677 C675 1.316 . S
N677 C676 1.375 . S
N678 C675 1.347 . S
N678 C679 1.373 . S
C679 C676 1.350 . S
C679 N678 1.373 . S
C679 H700 0.931 . S
H680 C675 0.931 . S
H681 C676 0.930 . S
C682 O689 1.259 . S
C682 O690 1.258 . S
N683 Co674 2.057 . S
N683 C684 1.316 . S
N683 C685 1.375 . S
C684 N683 1.316 . S
C684 N686 1.347 . S
C684 H695 0.931 . S
C685 N683 1.375 . S
C685 C687 1.350 . S
C685 H694 0.930 . S
N686 C684 1.347 . S
N686 C687 1.373 . S
C687 C685 1.350 . S
C687 N686 1.373 . S
C687 H701 0.931 . S
C688 O691 1.256 . S
C688 O692 1.255 . S
O689 Co672 2.021 . S
O689 C682 1.259 . S
O690 Co674 2.117 . S
O690 C682 1.258 . S
O691 Co674 2.020 . S
O691 C688 1.256 . S
O692 Co672 2.062 . S
O692 C688 1.255 . S
O693 C673 1.259 . S
O693 Co674 2.021 . S
H694 C685 0.930 . S
H695 C684 0.931 . S
O696 Co672 2.117 . S
O696 C673 1.258 . S
O697 Co672 2.020 . S
O697 C699 1.256 . S
O698 Co674 2.062 . S
O698 C699 1.255 . S
C699 O697 1.256 . S
C699 O698 1.255 . S
H700 C679 0.931 . S
H701 C687 0.931 . S
Co702 N707 2.057 . S
Co702 O719 2.021 . S
Co702 O722 2.062 . S
Co702 O726 2.117 . S
Co702 O727 2.020 . S
C703 O723 1.259 . S
C703 O726 1.258 . S
Co704 N713 2.057 . S
Co704 O720 2.117 . S
Co704 O721 2.020 . S
Co704 O723 2.021 . S
Co704 O728 2.062 . S
C705 N707 1.316 . S
C705 N708 1.347 . S
C705 H710 0.931 . S
C706 N707 1.375 . S
C706 C709 1.350 . S
C706 H711 0.930 . S
N707 Co702 2.057 . S
N707 C705 1.316 . S
N707 C706 1.375 . S
N708 C705 1.347 . S
N708 C709 1.373 . S
C709 C706 1.350 . S
C709 N708 1.373 . S
C709 H730 0.931 . S
H710 C705 0.931 . S
H711 C706 0.930 . S
C712 O719 1.259 . S
C712 O720 1.258 . S
N713 Co704 2.057 . S
N713 C714 1.316 . S
N713 C715 1.375 . S
C714 N713 1.316 . S
C714 N716 1.347 . S
C714 H725 0.931 . S
C715 N713 1.375 . S
C715 C717 1.350 . S
C715 H724 0.930 . S
N716 C714 1.347 . S
N716 C717 1.373 . S
C717 C715 1.350 . S
C717 N716 1.373 . S
C717 H731 0.931 . S
C718 O721 1.256 . S
C718 O722 1.255 . S
O719 Co702 2.021 . S
O719 C712 1.259 . S
O720 Co704 2.117 . S
O720 C712 1.258 . S
O721 Co704 2.020 . S
O721 C718 1.256 . S
O722 Co702 2.062 . S
O722 C718 1.255 . S
O723 C703 1.259 . S
O723 Co704 2.021 . S
H724 C715 0.930 . S
H725 C714 0.931 . S
O726 Co702 2.117 . S
O726 C703 1.258 . S
O727 Co702 2.020 . S
O727 C729 1.256 . S
O728 Co704 2.062 . S
O728 C729 1.255 . S
C729 O727 1.256 . S
C729 O728 1.255 . S
H730 C709 0.931 . S
H731 C717 0.931 . S
Co732 N737 2.057 . S
Co732 O749 2.021 . S
Co732 O752 2.062 . S
Co732 O756 2.117 . S
Co732 O757 2.020 . S
C733 O753 1.259 . S
C733 O756 1.258 . S
Co734 N743 2.057 . S
Co734 O750 2.117 . S
Co734 O751 2.020 . S
Co734 O753 2.021 . S
Co734 O758 2.062 . S
C735 N737 1.316 . S
C735 N738 1.347 . S
C735 H740 0.931 . S
C736 N737 1.375 . S
C736 C739 1.350 . S
C736 H741 0.930 . S
N737 Co732 2.057 . S
N737 C735 1.316 . S
N737 C736 1.375 . S
N738 C735 1.347 . S
N738 C739 1.373 . S
C739 C736 1.350 . S
C739 N738 1.373 . S
C739 H760 0.931 . S
H740 C735 0.931 . S
H741 C736 0.930 . S
C742 O749 1.259 . S
C742 O750 1.258 . S
N743 Co734 2.057 . S
N743 C744 1.316 . S
N743 C745 1.375 . S
C744 N743 1.316 . S
C744 N746 1.347 . S
C744 H755 0.931 . S
C745 N743 1.375 . S
C745 C747 1.350 . S
C745 H754 0.930 . S
N746 C744 1.347 . S
N746 C747 1.373 . S
C747 C745 1.350 . S
C747 N746 1.373 . S
C747 H761 0.931 . S
C748 O751 1.256 . S
C748 O752 1.255 . S
O749 Co732 2.021 . S
O749 C742 1.259 . S
O750 Co734 2.117 . S
O750 C742 1.258 . S
O751 Co734 2.020 . S
O751 C748 1.256 . S
O752 Co732 2.062 . S
O752 C748 1.255 . S
O753 C733 1.259 . S
O753 Co734 2.021 . S
H754 C745 0.930 . S
H755 C744 0.931 . S
O756 Co732 2.117 . S
O756 C733 1.258 . S
O757 Co732 2.020 . S
O757 C759 1.256 . S
O758 Co734 2.062 . S
O758 C759 1.255 . S
C759 O757 1.256 . S
C759 O758 1.255 . S
H760 C739 0.931 . S
H761 C747 0.931 . S
Co762 N767 2.057 1_455 S
Co762 O779 2.021 . S
Co762 O782 2.062 1_455 S
Co762 O786 2.117 . S
Co762 O787 2.020 1_554 S
C763 O783 1.259 . S
C763 O786 1.258 . S
Co764 N773 2.057 . S
Co764 O780 2.117 . S
Co764 O781 2.020 . S
Co764 O783 2.021 . S
Co764 O788 2.062 1_554 S
C765 N767 1.316 . S
C765 N768 1.347 . S
C765 H770 0.931 . S
C766 N767 1.375 1_556 S
C766 C769 1.350 . S
C766 H771 0.930 . S
N767 Co762 2.057 1_655 S
N767 C765 1.316 . S
N767 C766 1.375 1_554 S
N768 C765 1.347 . S
N768 C769 1.373 1_554 S
C769 C766 1.350 . S
C769 N768 1.373 1_556 S
C769 H790 0.931 . S
H770 C765 0.931 . S
H771 C766 0.930 . S
C772 O779 1.259 . S
C772 O780 1.258 . S
N773 Co764 2.057 . S
N773 C774 1.316 . S
N773 C775 1.375 . S
C774 N773 1.316 . S
C774 N776 1.347 . S
C774 H785 0.931 . S
C775 N773 1.375 . S
C775 C777 1.350 . S
C775 H784 0.930 . S
N776 C774 1.347 . S
N776 C777 1.373 . S
C777 C775 1.350 . S
C777 N776 1.373 . S
C777 H791 0.931 . S
C778 O781 1.256 . S
C778 O782 1.255 1_455 S
O779 Co762 2.021 . S
O779 C772 1.259 . S
O780 Co764 2.117 . S
O780 C772 1.258 . S
O781 Co764 2.020 . S
O781 C778 1.256 . S
O782 Co762 2.062 1_655 S
O782 C778 1.255 1_655 S
O783 C763 1.259 . S
O783 Co764 2.021 . S
H784 C775 0.930 . S
H785 C774 0.931 . S
O786 Co762 2.117 . S
O786 C763 1.258 . S
O787 Co762 2.020 1_556 S
O787 C789 1.256 . S
O788 Co764 2.062 1_556 S
O788 C789 1.255 . S
C789 O787 1.256 . S
C789 O788 1.255 . S
H790 C769 0.931 . S
H791 C777 0.931 . S
C792 C793 1.363 1_655 S
C792 C798 1.379 . S
C792 N800 1.356 . S
C793 C792 1.363 1_455 S
C793 C799 1.363 . S
C794 C795 1.363 . S
C794 C799 1.379 . S
C794 N801 1.356 . S
C795 C794 1.363 . S
C795 C798 1.363 1_455 S
N796 C798 1.356 . S
N796 H808 0.984 . S
N796 H809 0.985 . S
N797 C799 1.356 . S
N797 H802 0.984 . S
N797 H803 0.985 . S
C798 C792 1.379 . S
C798 C795 1.363 1_655 S
C798 N796 1.356 . S
C799 C793 1.363 . S
C799 C794 1.379 . S
C799 N797 1.356 . S
N800 C792 1.356 . S
N800 H806 0.984 . S
N800 H807 0.984 . S
N801 C794 1.356 . S
N801 H804 0.984 . S
N801 H805 0.985 . S
H802 N797 0.984 . S
H803 N797 0.985 . S
H804 N801 0.984 . S
H805 N801 0.985 . S
H806 N800 0.984 . S
H807 N800 0.984 . S
H808 N796 0.984 . S
H809 N796 0.985 . S
C810 C811 1.363 . S
C810 C816 1.379 . S
C810 N818 1.356 . S
C811 C810 1.363 . S
C811 C817 1.363 . S
C812 C813 1.363 . S
C812 C817 1.379 . S
C812 N819 1.356 . S
C813 C812 1.363 . S
C813 C816 1.363 . S
N814 C816 1.356 . S
N814 H826 0.984 . S
N814 H827 0.985 . S
N815 C817 1.356 . S
N815 H820 0.984 . S
N815 H821 0.985 . S
C816 C810 1.379 . S
C816 C813 1.363 . S
C816 N814 1.356 . S
C817 C811 1.363 . S
C817 C812 1.379 . S
C817 N815 1.356 . S
N818 C810 1.356 . S
N818 H824 0.984 . S
N818 H825 0.984 . S
N819 C812 1.356 . S
N819 H822 0.984 . S
N819 H823 0.985 . S
H820 N815 0.984 . S
H821 N815 0.985 . S
H822 N819 0.984 . S
H823 N819 0.985 . S
H824 N818 0.984 . S
H825 N818 0.984 . S
H826 N814 0.984 . S
H827 N814 0.985 . S
C828 C829 1.363 . S
C828 C834 1.379 . S
C828 N836 1.356 . S
C829 C828 1.363 . S
C829 C835 1.363 . S
C830 C831 1.363 . S
C830 C835 1.379 . S
C830 N837 1.356 . S
C831 C830 1.363 . S
C831 C834 1.363 . S
N832 C834 1.356 . S
N832 H844 0.984 . S
N832 H845 0.985 . S
N833 C835 1.356 . S
N833 H838 0.984 . S
N833 H839 0.985 . S
C834 C828 1.379 . S
C834 C831 1.363 . S
C834 N832 1.356 . S
C835 C829 1.363 . S
C835 C830 1.379 . S
C835 N833 1.356 . S
N836 C828 1.356 . S
N836 H842 0.984 . S
N836 H843 0.984 . S
N837 C830 1.356 . S
N837 H840 0.984 . S
N837 H841 0.985 . S
H838 N833 0.984 . S
H839 N833 0.985 . S
H840 N837 0.984 . S
H841 N837 0.985 . S
H842 N836 0.984 . S
H843 N836 0.984 . S
H844 N832 0.984 . S
H845 N832 0.985 . S
C846 C847 1.363 . S
C846 C852 1.379 . S
C846 N854 1.356 . S
C847 C846 1.363 . S
C847 C853 1.363 . S
C848 C849 1.363 . S
C848 C853 1.379 . S
C848 N855 1.356 . S
C849 C848 1.363 . S
C849 C852 1.363 . S
N850 C852 1.356 . S
N850 H862 0.984 . S
N850 H863 0.985 . S
N851 C853 1.356 . S
N851 H856 0.984 . S
N851 H857 0.985 . S
C852 C846 1.379 . S
C852 C849 1.363 . S
C852 N850 1.356 . S
C853 C847 1.363 . S
C853 C848 1.379 . S
C853 N851 1.356 . S
N854 C846 1.356 . S
N854 H860 0.984 . S
N854 H861 0.984 . S
N855 C848 1.356 . S
N855 H858 0.984 . S
N855 H859 0.985 . S
H856 N851 0.984 . S
H857 N851 0.985 . S
H858 N855 0.984 . S
H859 N855 0.985 . S
H860 N854 0.984 . S
H861 N854 0.984 . S
H862 N850 0.984 . S
H863 N850 0.985 . S
C864 C865 1.363 . S
C864 C870 1.379 . S
C864 N872 1.356 . S
C865 C864 1.363 . S
C865 C871 1.363 . S
C866 C867 1.363 . S
C866 C871 1.379 . S
C866 N873 1.356 . S
C867 C866 1.363 . S
C867 C870 1.363 . S
N868 C870 1.356 . S
N868 H880 0.984 . S
N868 H881 0.992 . S
N869 C871 1.356 . S
N869 H874 0.984 . S
N869 H875 0.985 . S
C870 C864 1.379 . S
C870 C867 1.363 . S
C870 N868 1.356 . S
C871 C865 1.363 . S
C871 C866 1.379 . S
C871 N869 1.356 . S
N872 C864 1.356 . S
N872 H878 0.984 . S
N872 H879 0.984 . S
N873 C866 1.356 . S
N873 H876 0.984 1_455 S
N873 H877 0.985 . S
H874 N869 0.984 . S
H875 N869 0.985 . S
H876 N873 0.984 1_655 S
H877 N873 0.985 . S
H878 N872 0.984 . S
H879 N872 0.984 . S
H880 N868 0.984 . S
H881 N868 0.992 . S
C882 C883 1.363 . S
C882 C888 1.379 . S
C882 N890 1.356 . S
C883 C882 1.363 . S
C883 C889 1.363 . S
C884 C885 1.363 . S
C884 C889 1.379 . S
C884 N891 1.356 . S
C885 C884 1.363 . S
C885 C888 1.363 . S
N886 C888 1.356 . S
N886 H898 0.984 . S
N886 H899 0.985 . S
N887 C889 1.356 . S
N887 H892 0.984 . S
N887 H893 0.985 . S
C888 C882 1.379 . S
C888 C885 1.363 . S
C888 N886 1.356 . S
C889 C883 1.363 . S
C889 C884 1.379 . S
C889 N887 1.356 . S
N890 C882 1.356 . S
N890 H896 0.984 . S
N890 H897 0.984 . S
N891 C884 1.356 . S
N891 H894 0.984 . S
N891 H895 0.985 . S
H892 N887 0.984 . S
H893 N887 0.985 . S
H894 N891 0.984 . S
H895 N891 0.985 . S
H896 N890 0.984 . S
H897 N890 0.984 . S
H898 N886 0.984 . S
H899 N886 0.985 . S
C900 C901 1.363 . S
C900 C906 1.381 . S
C900 N908 1.356 . S
C901 C900 1.363 . S
C901 C907 1.363 . S
C902 C903 1.363 . S
C902 C907 1.379 . S
C902 N909 1.356 . S
C903 C902 1.363 . S
C903 C906 1.364 . S
N904 C906 1.353 1_554 S
N904 H916 0.984 . S
N904 H917 0.985 . S
N905 C907 1.356 . S
N905 H910 0.984 . S
N905 H911 0.985 . S
C906 C900 1.381 . S
C906 C903 1.364 . S
C906 N904 1.353 1_556 S
C907 C901 1.363 . S
C907 C902 1.379 . S
C907 N905 1.356 . S
N908 C900 1.356 . S
N908 H914 0.984 . S
N908 H915 0.984 . S
N909 C902 1.356 . S
N909 H912 0.984 . S
N909 H913 0.985 . S
H910 N905 0.984 . S
H911 N905 0.985 . S
H912 N909 0.984 . S
H913 N909 0.985 . S
H914 N908 0.984 . S
H915 N908 0.984 . S
H916 N904 0.984 . S
H917 N904 0.985 . S
C918 C919 1.363 . S
C918 C924 1.379 . S
C918 N926 1.356 . S
C919 C918 1.363 . S
C919 C925 1.363 . S
C920 C921 1.363 . S
C920 C925 1.379 . S
C920 N927 1.356 . S
C921 C920 1.363 . S
C921 C924 1.363 . S
N922 C924 1.356 . S
N922 H934 0.984 . S
N922 H935 0.985 . S
N923 C925 1.356 . S
N923 H928 0.984 . S
N923 H929 0.985 . S
C924 C918 1.379 . S
C924 C921 1.363 . S
C924 N922 1.356 . S
C925 C919 1.363 . S
C925 C920 1.379 . S
C925 N923 1.356 . S
N926 C918 1.356 . S
N926 H932 0.984 . S
N926 H933 0.984 . S
N927 C920 1.356 . S
N927 H930 0.984 . S
N927 H931 0.985 . S
H928 N923 0.984 . S
H929 N923 0.985 . S
H930 N927 0.984 . S
H931 N927 0.985 . S
H932 N926 0.984 . S
H933 N926 0.984 . S
H934 N922 0.984 . S
H935 N922 0.985 . S
C936 C937 1.388 . S
C936 C942 1.379 . S
C936 N944 1.356 . S
C937 C936 1.388 . S
C937 C943 1.342 1_565 S
C938 C939 1.363 1_545 S
C938 C943 1.379 . S
C938 N945 1.356 . S
C939 C938 1.363 1_565 S
C939 C942 1.363 . S
N940 C942 1.356 . S
N940 H952 0.984 . S
N940 H953 0.985 . S
N941 C943 1.356 . S
N941 H946 0.984 . S
N941 H947 0.985 . S
C942 C936 1.379 . S
C942 C939 1.363 . S
C942 N940 1.356 . S
C943 C937 1.342 1_545 S
C943 C938 1.379 . S
C943 N941 1.356 . S
N944 C936 1.356 . S
N944 H950 0.984 . S
N944 H951 0.984 . S
N945 C938 1.356 . S
N945 H948 0.984 . S
N945 H949 0.985 . S
H946 N941 0.984 . S
H947 N941 0.985 . S
H948 N945 0.984 . S
H949 N945 0.985 . S
H950 N944 0.984 . S
H951 N944 0.984 . S
H952 N940 0.984 . S
H953 N940 0.985 . S
C954 C955 1.363 . S
C954 C960 1.379 . S
C954 N962 1.356 . S
C955 C954 1.363 . S
C955 C961 1.363 . S
C956 C957 1.363 . S
C956 C961 1.379 . S
C956 N963 1.356 . S
C957 C956 1.363 . S
C957 C960 1.363 . S
N958 C960 1.356 . S
N958 H970 0.984 . S
N958 H971 0.985 . S
N959 C961 1.356 . S
N959 H964 0.984 . S
N959 H965 0.985 . S
C960 C954 1.379 . S
C960 C957 1.363 . S
C960 N958 1.356 . S
C961 C955 1.363 . S
C961 C956 1.379 . S
C961 N959 1.356 . S
N962 C954 1.356 . S
N962 H968 0.984 . S
N962 H969 0.984 . S
N963 C956 1.356 . S
N963 H966 0.984 . S
N963 H967 0.985 . S
H964 N959 0.984 . S
H965 N959 0.985 . S
H966 N963 0.984 . S
H967 N963 0.985 . S
H968 N962 0.984 . S
H969 N962 0.984 . S
H970 N958 0.984 . S
H971 N958 0.985 . S
C972 C973 1.363 . S
C972 C978 1.379 . S
C972 N980 1.356 . S
C973 C972 1.363 . S
C973 C979 1.363 . S
C974 C975 1.363 . S
C974 C979 1.379 . S
C974 N981 1.356 . S
C975 C974 1.363 . S
C975 C978 1.363 . S
N976 C978 1.356 . S
N976 H988 0.984 . S
N976 H989 0.985 . S
N977 C979 1.356 . S
N977 H982 0.984 . S
N977 H983 0.985 . S
C978 C972 1.379 . S
C978 C975 1.363 . S
C978 N976 1.356 . S
C979 C973 1.363 . S
C979 C974 1.379 . S
C979 N977 1.356 . S
N980 C972 1.356 . S
N980 H986 0.984 . S
N980 H987 0.984 . S
N981 C974 1.356 . S
N981 H984 0.984 . S
N981 H985 0.985 . S
H982 N977 0.984 . S
H983 N977 0.985 . S
H984 N981 0.984 . S
H985 N981 0.985 . S
H986 N980 0.984 . S
H987 N980 0.984 . S
H988 N976 0.984 . S
H989 N976 0.985 . S
C990 C991 1.363 . S
C990 C996 1.379 . S
C990 N998 1.356 . S
C991 C990 1.363 . S
C991 C997 1.363 . S
C992 C993 1.363 . S
C992 C997 1.379 . S
C992 N999 1.356 . S
C993 C992 1.363 . S
C993 C996 1.363 . S
N994 C996 1.356 . S
N994 H1006 0.984 . S
N994 H1007 0.985 . S
N995 C997 1.356 . S
N995 H1000 0.984 . S
N995 H1001 0.985 . S
C996 C990 1.379 . S
C996 C993 1.363 . S
C996 N994 1.356 . S
C997 C991 1.363 . S
C997 C992 1.379 . S
C997 N995 1.356 . S
N998 C990 1.356 . S
N998 H1004 0.984 . S
N998 H1005 0.984 . S
N999 C992 1.356 . S
N999 H1002 0.984 . S
N999 H1003 0.985 . S
H1000 N995 0.984 . S
H1001 N995 0.985 . S
H1002 N999 0.984 . S
H1003 N999 0.985 . S
H1004 N998 0.984 . S
H1005 N998 0.984 . S
H1006 N994 0.984 . S
H1007 N994 0.985 . S
C1008 C1009 1.363 . S
C1008 C1014 1.379 . S
C1008 N1016 1.356 . S
C1009 C1008 1.363 . S
C1009 C1015 1.363 . S
C1010 C1011 1.363 . S
C1010 C1015 1.379 . S
C1010 N1017 1.356 . S
C1011 C1010 1.363 . S
C1011 C1014 1.363 . S
N1012 C1014 1.356 . S
N1012 H1024 0.984 . S
N1012 H1025 0.985 . S
N1013 C1015 1.356 1_565 S
N1013 H1018 0.984 . S
N1013 H1019 0.985 . S
C1014 C1008 1.379 . S
C1014 C1011 1.363 . S
C1014 N1012 1.356 . S
C1015 C1009 1.363 . S
C1015 C1010 1.379 . S
C1015 N1013 1.356 1_545 S
N1016 C1008 1.356 . S
N1016 H1022 0.984 . S
N1016 H1023 0.984 . S
N1017 C1010 1.356 . S
N1017 H1020 0.984 . S
N1017 H1021 0.985 1_545 S
H1018 N1013 0.984 . S
H1019 N1013 0.985 . S
H1020 N1017 0.984 . S
H1021 N1017 0.985 1_565 S
H1022 N1016 0.984 . S
H1023 N1016 0.984 . S
H1024 N1012 0.984 . S
H1025 N1012 0.985 . S
C1026 C1027 1.363 . S
C1026 C1032 1.379 . S
C1026 N1034 1.356 . S
C1027 C1026 1.363 . S
C1027 C1033 1.363 . S
C1028 C1029 1.363 . S
C1028 C1033 1.379 . S
C1028 N1035 1.356 . S
C1029 C1028 1.363 . S
C1029 C1032 1.363 . S
N1030 C1032 1.356 . S
N1030 H1042 0.984 . S
N1030 H1043 0.985 . S
N1031 C1033 1.356 . S
N1031 H1036 0.984 . S
N1031 H1037 0.985 . S
C1032 C1026 1.379 . S
C1032 C1029 1.363 . S
C1032 N1030 1.356 . S
C1033 C1027 1.363 . S
C1033 C1028 1.379 . S
C1033 N1031 1.356 . S
N1034 C1026 1.356 . S
N1034 H1040 0.984 . S
N1034 H1041 0.984 . S
N1035 C1028 1.356 . S
N1035 H1038 0.984 . S
N1035 H1039 0.985 . S
H1036 N1031 0.984 . S
H1037 N1031 0.985 . S
H1038 N1035 0.984 . S
H1039 N1035 0.985 . S
H1040 N1034 0.984 . S
H1041 N1034 0.984 . S
H1042 N1030 0.984 . S
H1043 N1030 0.985 . S
C1044 C1045 1.363 . S
C1044 C1050 1.379 . S
C1044 N1052 1.356 . S
C1045 C1044 1.363 . S
C1045 C1051 1.363 . S
C1046 C1047 1.363 . S
C1046 C1051 1.379 . S
C1046 N1053 1.356 . S
C1047 C1046 1.363 . S
C1047 C1050 1.363 . S
N1048 C1050 1.356 1_565 S
N1048 H1060 0.984 . S
N1048 H1061 0.985 . S
N1049 C1051 1.356 . S
N1049 H1054 0.984 . S
N1049 H1055 0.985 . S
C1050 C1044 1.379 . S
C1050 C1047 1.363 . S
C1050 N1048 1.356 1_545 S
C1051 C1045 1.363 . S
C1051 C1046 1.379 . S
C1051 N1049 1.356 . S
N1052 C1044 1.356 . S
N1052 H1058 0.984 1_545 S
N1052 H1059 0.984 . S
N1053 C1046 1.356 . S
N1053 H1056 0.984 . S
N1053 H1057 0.985 . S
H1054 N1049 0.984 . S
H1055 N1049 0.985 . S
H1056 N1053 0.984 . S
H1057 N1053 0.985 . S
H1058 N1052 0.984 1_565 S
H1059 N1052 0.984 . S
H1060 N1048 0.984 . S
H1061 N1048 0.985 . S
C1062 C1063 1.363 . S
C1062 C1068 1.379 . S
C1062 N1070 1.356 . S
C1063 C1062 1.363 . S
C1063 C1069 1.363 . S
C1064 C1065 1.363 . S
C1064 C1069 1.379 . S
C1064 N1071 1.356 . S
C1065 C1064 1.363 . S
C1065 C1068 1.363 . S
N1066 C1068 1.356 . S
N1066 H1078 0.984 . S
N1066 H1079 0.985 . S
N1067 C1069 1.356 . S
N1067 H1072 0.984 . S
N1067 H1073 0.985 . S
C1068 C1062 1.379 . S
C1068 C1065 1.363 . S
C1068 N1066 1.356 . S
C1069 C1063 1.363 . S
C1069 C1064 1.379 . S
C1069 N1067 1.356 . S
N1070 C1062 1.356 . S
N1070 H1076 0.984 . S
N1070 H1077 0.984 . S
N1071 C1064 1.356 . S
N1071 H1074 0.984 . S
N1071 H1075 0.985 . S
H1072 N1067 0.984 . S
H1073 N1067 0.985 . S
H1074 N1071 0.984 . S
H1075 N1071 0.985 . S
H1076 N1070 0.984 . S
H1077 N1070 0.984 . S
H1078 N1066 0.984 . S
H1079 N1066 0.985 . S
C1080 C1081 1.347 1_556 S
C1080 C1086 1.382 . S
C1080 N1088 1.366 . S
C1081 C1080 1.347 1_554 S
C1081 C1087 1.363 . S
C1082 C1083 1.363 . S
C1082 C1087 1.379 . S
C1082 N1089 1.356 . S
C1083 C1082 1.363 . S
C1083 C1086 1.363 1_554 S
N1084 C1086 1.356 . S
N1084 H1096 0.984 . S
N1084 H1097 0.985 . S
N1085 C1087 1.356 . S
N1085 H1090 0.984 . S
N1085 H1091 0.985 . S
C1086 C1080 1.382 . S
C1086 C1083 1.363 1_556 S
C1086 N1084 1.356 . S
C1087 C1081 1.363 . S
C1087 C1082 1.379 . S
C1087 N1085 1.356 . S
N1088 C1080 1.366 . S
N1088 H1094 0.984 . S
N1088 H1095 0.984 . S
N1089 C1082 1.356 . S
N1089 H1092 0.984 . S
N1089 H1093 0.985 . S
H1090 N1085 0.984 . S
H1091 N1085 0.985 . S
H1092 N1089 0.984 . S
H1093 N1089 0.985 . S
H1094 N1088 0.984 . S
H1095 N1088 0.984 . S
H1096 N1084 0.984 . S
H1097 N1084 0.985 . S
C1098 C1099 1.363 . S
C1098 C1104 1.379 . S
C1098 N1106 1.356 . S
C1099 C1098 1.363 . S
C1099 C1105 1.363 . S
C1100 C1101 1.363 . S
C1100 C1105 1.379 . S
C1100 N1107 1.356 . S
C1101 C1100 1.363 . S
C1101 C1104 1.363 . S
N1102 C1104 1.356 . S
N1102 H1114 0.984 1_554 S
N1102 H1115 0.985 . S
N1103 C1105 1.356 . S
N1103 H1108 0.984 . S
N1103 H1109 0.985 . S
C1104 C1098 1.379 . S
C1104 C1101 1.363 . S
C1104 N1102 1.356 . S
C1105 C1099 1.363 . S
C1105 C1100 1.379 . S
C1105 N1103 1.356 . S
N1106 C1098 1.356 . S
N1106 H1112 0.984 . S
N1106 H1113 0.984 . S
N1107 C1100 1.356 . S
N1107 H1110 0.984 . S
N1107 H1111 0.985 . S
H1108 N1103 0.984 . S
H1109 N1103 0.985 . S
H1110 N1107 0.984 . S
H1111 N1107 0.985 . S
H1112 N1106 0.984 . S
H1113 N1106 0.984 . S
H1114 N1102 0.984 1_556 S
H1115 N1102 0.985 . S
C1116 C1117 1.363 . S
C1116 C1122 1.379 . S
C1116 N1124 1.356 . S
C1117 C1116 1.363 . S
C1117 C1123 1.363 . S
C1118 C1119 1.363 . S
C1118 C1123 1.379 . S
C1118 N1125 1.356 . S
C1119 C1118 1.363 . S
C1119 C1122 1.363 . S
N1120 C1122 1.356 . S
N1120 H1132 0.984 . S
N1120 H1133 0.985 . S
N1121 C1123 1.356 . S
N1121 H1126 0.984 . S
N1121 H1127 0.985 . S
C1122 C1116 1.379 . S
C1122 C1119 1.363 . S
C1122 N1120 1.356 . S
C1123 C1117 1.363 . S
C1123 C1118 1.379 . S
C1123 N1121 1.356 . S
N1124 C1116 1.356 . S
N1124 H1130 0.984 . S
N1124 H1131 0.984 . S
N1125 C1118 1.356 . S
N1125 H1128 0.984 . S
N1125 H1129 0.985 . S
H1126 N1121 0.984 . S
H1127 N1121 0.985 . S
H1128 N1125 0.984 . S
H1129 N1125 0.985 . S
H1130 N1124 0.984 . S
H1131 N1124 0.984 . S
H1132 N1120 0.984 . S
H1133 N1120 0.985 . S
C1134 C1135 1.363 . S
C1134 C1140 1.379 . S
C1134 N1142 1.356 . S
C1135 C1134 1.363 . S
C1135 C1141 1.363 . S
C1136 C1137 1.363 . S
C1136 C1141 1.379 . S
C1136 N1143 1.356 . S
C1137 C1136 1.363 . S
C1137 C1140 1.363 . S
N1138 C1140 1.356 . S
N1138 H1150 0.984 . S
N1138 H1151 0.985 . S
N1139 C1141 1.356 . S
N1139 H1144 0.984 . S
N1139 H1145 0.985 . S
C1140 C1134 1.379 . S
C1140 C1137 1.363 . S
C1140 N1138 1.356 . S
C1141 C1135 1.363 . S
C1141 C1136 1.379 . S
C1141 N1139 1.356 . S
N1142 C1134 1.356 . S
N1142 H1148 0.984 . S
N1142 H1149 0.984 . S
N1143 C1136 1.356 . S
N1143 H1146 0.984 . S
N1143 H1147 0.985 . S
H1144 N1139 0.984 . S
H1145 N1139 0.985 . S
H1146 N1143 0.984 . S
H1147 N1143 0.985 . S
H1148 N1142 0.984 . S
H1149 N1142 0.984 . S
H1150 N1138 0.984 . S
H1151 N1138 0.985 . S
C1152 C1153 1.363 . S
C1152 C1158 1.379 . S
C1152 N1160 1.356 . S
C1153 C1152 1.363 . S
C1153 C1159 1.363 . S
C1154 C1155 1.363 . S
C1154 C1159 1.379 . S
C1154 N1161 1.356 . S
C1155 C1154 1.363 . S
C1155 C1158 1.363 . S
N1156 C1158 1.356 . S
N1156 H1168 0.984 . S
N1156 H1169 0.985 . S
N1157 C1159 1.356 . S
N1157 H1162 0.984 . S
N1157 H1163 0.985 . S
C1158 C1152 1.379 . S
C1158 C1155 1.363 . S
C1158 N1156 1.356 . S
C1159 C1153 1.363 . S
C1159 C1154 1.379 . S
C1159 N1157 1.356 . S
N1160 C1152 1.356 . S
N1160 H1166 0.984 . S
N1160 H1167 0.984 . S
N1161 C1154 1.356 . S
N1161 H1164 0.984 . S
N1161 H1165 0.985 . S
H1162 N1157 0.984 . S
H1163 N1157 0.985 . S
H1164 N1161 0.984 . S
H1165 N1161 0.985 . S
H1166 N1160 0.984 . S
H1167 N1160 0.984 . S
H1168 N1156 0.984 . S
H1169 N1156 0.985 . S
C1170 C1171 1.363 . S
C1170 C1176 1.379 . S
C1170 N1178 1.356 . S
C1171 C1170 1.363 . S
C1171 C1177 1.363 . S
C1172 C1173 1.352 1_545 S
C1172 C1177 1.361 1_545 S
C1172 N1179 1.386 . S
C1173 C1172 1.352 1_565 S
C1173 C1176 1.363 . S
N1174 C1176 1.356 . S
N1174 H1186 0.984 . S
N1174 H1187 0.985 . S
N1175 C1177 1.356 . S
N1175 H1180 0.984 . S
N1175 H1181 0.985 1_565 S
C1176 C1170 1.379 . S
C1176 C1173 1.363 . S
C1176 N1174 1.356 . S
C1177 C1171 1.363 . S
C1177 C1172 1.361 1_565 S
C1177 N1175 1.356 . S
N1178 C1170 1.356 . S
N1178 H1184 0.984 . S
N1178 H1185 0.984 . S
N1179 C1172 1.386 . S
N1179 H1182 0.984 . S
N1179 H1183 0.985 . S
H1180 N1175 0.984 . S
H1181 N1175 0.985 1_545 S
H1182 N1179 0.984 . S
H1183 N1179 0.985 . S
H1184 N1178 0.984 . S
H1185 N1178 0.984 . S
H1186 N1174 0.984 . S
H1187 N1174 0.985 . S
C1188 C1189 1.363 . S
C1188 C1194 1.379 . S
C1188 N1196 1.356 . S
C1189 C1188 1.363 . S
C1189 C1195 1.363 . S
C1190 C1191 1.363 . S
C1190 C1195 1.379 . S
C1190 N1197 1.356 . S
C1191 C1190 1.363 . S
C1191 C1194 1.363 . S
N1192 C1194 1.356 . S
N1192 H1204 0.984 . S
N1192 H1205 0.985 . S
N1193 C1195 1.356 . S
N1193 H1198 0.984 . S
N1193 H1199 0.985 . S
C1194 C1188 1.379 . S
C1194 C1191 1.363 . S
C1194 N1192 1.356 . S
C1195 C1189 1.363 . S
C1195 C1190 1.379 . S
C1195 N1193 1.356 . S
N1196 C1188 1.356 . S
N1196 H1202 0.984 . S
N1196 H1203 0.984 . S
N1197 C1190 1.356 . S
N1197 H1200 0.984 . S
N1197 H1201 0.985 . S
H1198 N1193 0.984 . S
H1199 N1193 0.985 . S
H1200 N1197 0.984 . S
H1201 N1197 0.985 . S
H1202 N1196 0.984 . S
H1203 N1196 0.984 . S
H1204 N1192 0.984 . S
H1205 N1192 0.985 . S
C1206 C1207 1.363 . S
C1206 C1212 1.379 . S
C1206 N1214 1.356 . S
C1207 C1206 1.363 . S
C1207 C1213 1.363 . S
C1208 C1209 1.363 . S
C1208 C1213 1.379 . S
C1208 N1215 1.356 . S
C1209 C1208 1.363 . S
C1209 C1212 1.363 . S
N1210 C1212 1.356 . S
N1210 H1222 0.984 . S
N1210 H1223 0.985 . S
N1211 C1213 1.356 . S
N1211 H1216 0.984 . S
N1211 H1217 0.985 . S
C1212 C1206 1.379 . S
C1212 C1209 1.363 . S
C1212 N1210 1.356 . S
C1213 C1207 1.363 . S
C1213 C1208 1.379 . S
C1213 N1211 1.356 . S
N1214 C1206 1.356 . S
N1214 H1220 0.984 . S
N1214 H1221 0.984 . S
N1215 C1208 1.356 . S
N1215 H1218 0.984 . S
N1215 H1219 0.985 . S
H1216 N1211 0.984 . S
H1217 N1211 0.985 . S
H1218 N1215 0.984 . S
H1219 N1215 0.985 . S
H1220 N1214 0.984 . S
H1221 N1214 0.984 . S
H1222 N1210 0.984 . S
H1223 N1210 0.985 . S
C1224 C1225 1.363 . S
C1224 C1230 1.366 1_556 S
C1224 N1232 1.356 . S
C1225 C1224 1.363 . S
C1225 C1231 1.363 . S
C1226 C1227 1.363 . S
C1226 C1231 1.379 . S
C1226 N1233 1.356 . S
C1227 C1226 1.363 . S
C1227 C1230 1.354 1_556 S
N1228 C1230 1.379 . S
N1228 H1240 0.984 . S
N1228 H1241 0.985 . S
N1229 C1231 1.356 . S
N1229 H1234 0.986 . S
N1229 H1235 0.985 1_455 S
C1230 C1224 1.366 1_554 S
C1230 C1227 1.354 1_554 S
C1230 N1228 1.379 . S
C1231 C1225 1.363 . S
C1231 C1226 1.379 . S
C1231 N1229 1.356 . S
N1232 C1224 1.356 . S
N1232 H1238 0.984 1_556 S
N1232 H1239 0.984 . S
N1233 C1226 1.356 . S
N1233 H1236 0.984 . S
N1233 H1237 0.985 . S
H1234 N1229 0.986 . S
H1235 N1229 0.985 1_655 S
H1236 N1233 0.984 . S
H1237 N1233 0.985 . S
H1238 N1232 0.984 1_554 S
H1239 N1232 0.984 . S
H1240 N1228 0.984 . S
H1241 N1228 0.985 . S
C1242 C1243 1.363 . S
C1242 C1248 1.379 . S
C1242 N1250 1.356 . S
C1243 C1242 1.363 . S
C1243 C1249 1.363 . S
C1244 C1245 1.363 . S
C1244 C1249 1.379 . S
C1244 N1251 1.356 . S
C1245 C1244 1.363 . S
C1245 C1248 1.363 . S
N1246 C1248 1.356 . S
N1246 H1258 0.984 . S
N1246 H1259 0.985 . S
N1247 C1249 1.356 . S
N1247 H1252 0.984 . S
N1247 H1253 0.985 . S
C1248 C1242 1.379 . S
C1248 C1245 1.363 . S
C1248 N1246 1.356 . S
C1249 C1243 1.363 . S
C1249 C1244 1.379 . S
C1249 N1247 1.356 . S
N1250 C1242 1.356 . S
N1250 H1256 0.984 . S
N1250 H1257 0.984 . S
N1251 C1244 1.356 . S
N1251 H1254 0.984 . S
N1251 H1255 0.985 . S
H1252 N1247 0.984 . S
H1253 N1247 0.985 . S
H1254 N1251 0.984 . S
H1255 N1251 0.985 . S
H1256 N1250 0.984 . S
H1257 N1250 0.984 . S
H1258 N1246 0.984 . S
H1259 N1246 0.985 . S
C1260 C1261 1.363 . S
C1260 C1266 1.379 . S
C1260 N1268 1.356 . S
C1261 C1260 1.363 . S
C1261 C1267 1.363 . S
C1262 C1263 1.363 . S
C1262 C1267 1.379 . S
C1262 N1269 1.356 . S
C1263 C1262 1.363 . S
C1263 C1266 1.363 . S
N1264 C1266 1.356 . S
N1264 H1276 0.984 . S
N1264 H1277 0.985 . S
N1265 C1267 1.356 . S
N1265 H1270 0.984 . S
N1265 H1271 0.985 . S
C1266 C1260 1.379 . S
C1266 C1263 1.363 . S
C1266 N1264 1.356 . S
C1267 C1261 1.363 . S
C1267 C1262 1.379 . S
C1267 N1265 1.356 . S
N1268 C1260 1.356 . S
N1268 H1274 0.984 . S
N1268 H1275 0.984 . S
N1269 C1262 1.356 . S
N1269 H1272 0.984 . S
N1269 H1273 0.985 . S
H1270 N1265 0.984 . S
H1271 N1265 0.985 . S
H1272 N1269 0.984 . S
H1273 N1269 0.985 . S
H1274 N1268 0.984 . S
H1275 N1268 0.984 . S
H1276 N1264 0.984 . S
H1277 N1264 0.985 . S
C1278 C1279 1.363 . S
C1278 C1284 1.379 . S
C1278 N1286 1.356 . S
C1279 C1278 1.363 . S
C1279 C1285 1.363 . S
C1280 C1281 1.363 . S
C1280 C1285 1.379 . S
C1280 N1287 1.356 . S
C1281 C1280 1.363 . S
C1281 C1284 1.363 . S
N1282 C1284 1.356 . S
N1282 H1294 0.984 . S
N1282 H1295 0.985 . S
N1283 C1285 1.356 . S
N1283 H1288 0.984 . S
N1283 H1289 0.985 . S
C1284 C1278 1.379 . S
C1284 C1281 1.363 . S
C1284 N1282 1.356 . S
C1285 C1279 1.363 . S
C1285 C1280 1.379 . S
C1285 N1283 1.356 . S
N1286 C1278 1.356 . S
N1286 H1292 0.984 . S
N1286 H1293 0.984 . S
N1287 C1280 1.356 . S
N1287 H1290 0.984 . S
N1287 H1291 0.985 . S
H1288 N1283 0.984 . S
H1289 N1283 0.985 . S
H1290 N1287 0.984 . S
H1291 N1287 0.985 . S
H1292 N1286 0.984 . S
H1293 N1286 0.984 . S
H1294 N1282 0.984 . S
H1295 N1282 0.985 . S
C1296 C1297 1.363 . S
C1296 C1302 1.379 . S
C1296 N1304 1.356 . S
C1297 C1296 1.363 . S
C1297 C1303 1.363 1_455 S
C1298 C1299 1.363 . S
C1298 C1303 1.379 1_455 S
C1298 N1305 1.356 . S
C1299 C1298 1.363 . S
C1299 C1302 1.363 . S
N1300 C1302 1.356 . S
N1300 H1312 0.984 . S
N1300 H1313 0.985 . S
N1301 C1303 1.356 . S
N1301 H1306 0.984 . S
N1301 H1307 0.985 . S
C1302 C1296 1.379 . S
C1302 C1299 1.363 . S
C1302 N1300 1.356 . S
C1303 C1297 1.363 1_655 S
C1303 C1298 1.379 1_655 S
C1303 N1301 1.356 . S
N1304 C1296 1.356 . S
N1304 H1310 0.984 . S
N1304 H1311 0.984 . S
N1305 C1298 1.356 . S
N1305 H1308 0.984 . S
N1305 H1309 0.985 1_455 S
H1306 N1301 0.984 . S
H1307 N1301 0.985 . S
H1308 N1305 0.984 . S
H1309 N1305 0.985 1_655 S
H1310 N1304 0.984 . S
H1311 N1304 0.984 . S
H1312 N1300 0.984 . S
H1313 N1300 0.985 . S
C1314 C1315 1.363 . S
C1314 C1320 1.379 . S
C1314 N1322 1.356 . S
C1315 C1314 1.363 . S
C1315 C1321 1.363 . S
C1316 C1317 1.363 . S
C1316 C1321 1.379 . S
C1316 N1323 1.356 . S
C1317 C1316 1.363 . S
C1317 C1320 1.363 . S
N1318 C1320 1.356 . S
N1318 H1330 0.984 . S
N1318 H1331 0.985 . S
N1319 C1321 1.356 . S
N1319 H1324 0.984 . S
N1319 H1325 0.985 . S
C1320 C1314 1.379 . S
C1320 C1317 1.363 . S
C1320 N1318 1.356 . S
C1321 C1315 1.363 . S
C1321 C1316 1.379 . S
C1321 N1319 1.356 . S
N1322 C1314 1.356 . S
N1322 H1328 0.984 . S
N1322 H1329 0.984 . S
N1323 C1316 1.356 . S
N1323 H1326 0.984 . S
N1323 H1327 0.985 . S
H1324 N1319 0.984 . S
H1325 N1319 0.985 . S
H1326 N1323 0.984 . S
H1327 N1323 0.985 . S
H1328 N1322 0.984 . S
H1329 N1322 0.984 . S
H1330 N1318 0.984 . S
H1331 N1318 0.985 . S
C1332 C1333 1.363 . S
C1332 C1338 1.379 . S
C1332 N1340 1.356 . S
C1333 C1332 1.363 . S
C1333 C1339 1.363 . S
C1334 C1335 1.363 . S
C1334 C1339 1.379 . S
C1334 N1341 1.356 . S
C1335 C1334 1.363 . S
C1335 C1338 1.363 . S
N1336 C1338 1.356 . S
N1336 H1348 1.000 . S
N1336 H1349 0.984 1_565 S
N1337 C1339 1.356 . S
N1337 H1342 0.984 . S
N1337 H1343 0.985 . S
C1338 C1332 1.379 . S
C1338 C1335 1.363 . S
C1338 N1336 1.356 . S
C1339 C1333 1.363 . S
C1339 C1334 1.379 . S
C1339 N1337 1.356 . S
N1340 C1332 1.356 . S
N1340 H1346 0.984 . S
N1340 H1347 0.984 . S
N1341 C1334 1.356 . S
N1341 H1344 0.984 . S
N1341 H1345 0.985 . S
H1342 N1337 0.984 . S
H1343 N1337 0.985 . S
H1344 N1341 0.984 . S
H1345 N1341 0.985 . S
H1346 N1340 0.984 . S
H1347 N1340 0.984 . S
H1348 N1336 1.000 . S
H1349 N1336 0.984 1_545 S
C1350 C1351 1.363 . S
C1350 C1356 1.379 . S
C1350 N1358 1.356 . S
C1351 C1350 1.363 . S
C1351 C1357 1.363 . S
C1352 C1353 1.363 . S
C1352 C1357 1.379 . S
C1352 N1359 1.356 . S
C1353 C1352 1.363 . S
C1353 C1356 1.363 . S
N1354 C1356 1.356 . S
N1354 H1366 0.984 . S
N1354 H1367 0.985 . S
N1355 C1357 1.356 . S
N1355 H1360 0.984 . S
N1355 H1361 0.985 . S
C1356 C1350 1.379 . S
C1356 C1353 1.363 . S
C1356 N1354 1.356 . S
C1357 C1351 1.363 . S
C1357 C1352 1.379 . S
C1357 N1355 1.356 . S
N1358 C1350 1.356 . S
N1358 H1364 0.984 . S
N1358 H1365 0.984 . S
N1359 C1352 1.356 . S
N1359 H1362 0.984 . S
N1359 H1363 0.985 . S
H1360 N1355 0.984 . S
H1361 N1355 0.985 . S
H1362 N1359 0.984 . S
H1363 N1359 0.985 . S
H1364 N1358 0.984 . S
H1365 N1358 0.984 . S
H1366 N1354 0.984 . S
H1367 N1354 0.985 . S
C1368 C1369 1.363 . S
C1368 C1374 1.379 . S
C1368 N1376 1.356 . S
C1369 C1368 1.363 . S
C1369 C1375 1.363 . S
C1370 C1371 1.363 . S
C1370 C1375 1.379 . S
C1370 N1377 1.356 . S
C1371 C1370 1.363 . S
C1371 C1374 1.363 . S
N1372 C1374 1.356 . S
N1372 H1384 0.984 . S
N1372 H1385 0.985 . S
N1373 C1375 1.356 . S
N1373 H1378 0.984 . S
N1373 H1379 0.985 . S
C1374 C1368 1.379 . S
C1374 C1371 1.363 . S
C1374 N1372 1.356 . S
C1375 C1369 1.363 . S
C1375 C1370 1.379 . S
C1375 N1373 1.356 . S
N1376 C1368 1.356 . S
N1376 H1382 0.984 1_545 S
N1376 H1383 0.984 . S
N1377 C1370 1.356 . S
N1377 H1380 0.984 . S
N1377 H1381 0.985 . S
H1378 N1373 0.984 . S
H1379 N1373 0.985 . S
H1380 N1377 0.984 . S
H1381 N1377 0.985 . S
H1382 N1376 0.984 1_565 S
H1383 N1376 0.984 . S
H1384 N1372 0.984 . S
H1385 N1372 0.985 . S
C1386 C1387 1.363 . S
C1386 C1392 1.379 . S
C1386 N1394 1.356 . S
C1387 C1386 1.363 . S
C1387 C1393 1.363 . S
C1388 C1389 1.363 . S
C1388 C1393 1.379 . S
C1388 N1395 1.356 . S
C1389 C1388 1.363 . S
C1389 C1392 1.363 . S
N1390 C1392 1.356 . S
N1390 H1402 0.984 . S
N1390 H1403 0.985 . S
N1391 C1393 1.356 . S
N1391 H1396 0.984 . S
N1391 H1397 0.985 . S
C1392 C1386 1.379 . S
C1392 C1389 1.363 . S
C1392 N1390 1.356 . S
C1393 C1387 1.363 . S
C1393 C1388 1.379 . S
C1393 N1391 1.356 . S
N1394 C1386 1.356 . S
N1394 H1400 0.984 . S
N1394 H1401 0.984 . S
N1395 C1388 1.356 . S
N1395 H1398 0.984 . S
N1395 H1399 0.985 . S
H1396 N1391 0.984 . S
H1397 N1391 0.985 . S
H1398 N1395 0.984 . S
H1399 N1395 0.985 . S
H1400 N1394 0.984 . S
H1401 N1394 0.984 . S
H1402 N1390 0.984 . S
H1403 N1390 0.985 . S
C1404 C1405 1.363 1_565 S
C1404 C1410 1.379 . S
C1404 N1412 1.356 . S
C1405 C1404 1.363 1_545 S
C1405 C1411 1.363 . S
C1406 C1407 1.363 . S
C1406 C1411 1.379 . S
C1406 N1413 1.356 . S
C1407 C1406 1.363 . S
C1407 C1410 1.363 1_545 S
N1408 C1410 1.356 . S
N1408 H1420 0.984 . S
N1408 H1421 0.985 . S
N1409 C1411 1.356 . S
N1409 H1414 0.984 . S
N1409 H1415 0.985 . S
C1410 C1404 1.379 . S
C1410 C1407 1.363 1_565 S
C1410 N1408 1.356 . S
C1411 C1405 1.363 . S
C1411 C1406 1.379 . S
C1411 N1409 1.356 . S
N1412 C1404 1.356 . S
N1412 H1418 0.984 . S
N1412 H1419 0.984 . S
N1413 C1406 1.356 . S
N1413 H1416 0.984 . S
N1413 H1417 0.985 . S
H1414 N1409 0.984 . S
H1415 N1409 0.985 . S
H1416 N1413 0.984 . S
H1417 N1413 0.985 . S
H1418 N1412 0.984 . S
H1419 N1412 0.984 . S
H1420 N1408 0.984 . S
H1421 N1408 0.985 . S
C1422 C1423 1.363 . S
C1422 C1428 1.379 . S
C1422 N1430 1.356 . S
C1423 C1422 1.363 . S
C1423 C1429 1.363 . S
C1424 C1425 1.363 . S
C1424 C1429 1.379 . S
C1424 N1431 1.356 . S
C1425 C1424 1.363 . S
C1425 C1428 1.363 . S
N1426 C1428 1.356 . S
N1426 H1438 0.984 . S
N1426 H1439 0.985 . S
N1427 C1429 1.356 . S
N1427 H1432 0.984 . S
N1427 H1433 0.985 . S
C1428 C1422 1.379 . S
C1428 C1425 1.363 . S
C1428 N1426 1.356 . S
C1429 C1423 1.363 . S
C1429 C1424 1.379 . S
C1429 N1427 1.356 . S
N1430 C1422 1.356 . S
N1430 H1436 0.984 . S
N1430 H1437 0.984 . S
N1431 C1424 1.356 . S
N1431 H1434 0.984 . S
N1431 H1435 0.985 . S
H1432 N1427 0.984 . S
H1433 N1427 0.985 . S
H1434 N1431 0.984 . S
H1435 N1431 0.985 . S
H1436 N1430 0.984 . S
H1437 N1430 0.984 . S
H1438 N1426 0.984 . S
H1439 N1426 0.985 . S
C1440 C1441 1.363 . S
C1440 C1446 1.379 . S
C1440 N1448 1.356 . S
C1441 C1440 1.363 . S
C1441 C1447 1.363 . S
C1442 C1443 1.363 . S
C1442 C1447 1.379 . S
C1442 N1449 1.356 1_655 S
C1443 C1442 1.363 . S
C1443 C1446 1.363 . S
N1444 C1446 1.356 . S
N1444 H1456 0.984 . S
N1444 H1457 0.985 . S
N1445 C1447 1.356 . S
N1445 H1450 0.984 . S
N1445 H1451 0.985 . S
C1446 C1440 1.379 . S
C1446 C1443 1.363 . S
C1446 N1444 1.356 . S
C1447 C1441 1.363 . S
C1447 C1442 1.379 . S
C1447 N1445 1.356 . S
N1448 C1440 1.356 . S
N1448 H1454 0.984 . S
N1448 H1455 0.984 . S
N1449 C1442 1.356 1_455 S
N1449 H1452 0.984 . S
N1449 H1453 0.985 . S
H1450 N1445 0.984 . S
H1451 N1445 0.985 . S
H1452 N1449 0.984 . S
H1453 N1449 0.985 . S
H1454 N1448 0.984 . S
H1455 N1448 0.984 . S
H1456 N1444 0.984 . S
H1457 N1444 0.985 . S
C1458 C1459 1.363 . S
C1458 C1464 1.379 . S
C1458 N1466 1.356 . S
C1459 C1458 1.363 . S
C1459 C1465 1.363 . S
C1460 C1461 1.363 . S
C1460 C1465 1.379 . S
C1460 N1467 1.356 . S
C1461 C1460 1.363 . S
C1461 C1464 1.363 . S
N1462 C1464 1.356 . S
N1462 H1474 0.984 . S
N1462 H1475 0.985 . S
N1463 C1465 1.356 . S
N1463 H1468 0.984 . S
N1463 H1469 0.985 . S
C1464 C1458 1.379 . S
C1464 C1461 1.363 . S
C1464 N1462 1.356 . S
C1465 C1459 1.363 . S
C1465 C1460 1.379 . S
C1465 N1463 1.356 . S
N1466 C1458 1.356 . S
N1466 H1472 0.984 . S
N1466 H1473 0.984 . S
N1467 C1460 1.356 . S
N1467 H1470 0.984 . S
N1467 H1471 0.985 . S
H1468 N1463 0.984 . S
H1469 N1463 0.985 . S
H1470 N1467 0.984 . S
H1471 N1467 0.985 . S
H1472 N1466 0.984 . S
H1473 N1466 0.984 . S
H1474 N1462 0.984 . S
H1475 N1462 0.985 . S
C1476 C1477 1.356 1_565 S
C1476 C1482 1.364 1_565 S
C1476 N1484 1.380 . S
C1477 C1476 1.356 1_545 S
C1477 C1483 1.363 . S
C1478 C1479 1.363 . S
C1478 C1483 1.379 . S
C1478 N1485 1.356 . S
C1479 C1478 1.363 . S
C1479 C1482 1.363 . S
N1480 C1482 1.356 . S
N1480 H1492 0.967 1_545 S
N1480 H1493 0.985 . S
N1481 C1483 1.356 . S
N1481 H1486 0.984 . S
N1481 H1487 0.985 . S
C1482 C1476 1.364 1_545 S
C1482 C1479 1.363 . S
C1482 N1480 1.356 . S
C1483 C1477 1.363 . S
C1483 C1478 1.379 . S
C1483 N1481 1.356 . S
N1484 C1476 1.380 . S
N1484 H1490 0.984 . S
N1484 H1491 0.984 . S
N1485 C1478 1.356 . S
N1485 H1488 0.984 . S
N1485 H1489 0.985 . S
H1486 N1481 0.984 . S
H1487 N1481 0.985 . S
H1488 N1485 0.984 . S
H1489 N1485 0.985 . S
H1490 N1484 0.984 . S
H1491 N1484 0.984 . S
H1492 N1480 0.967 1_565 S
H1493 N1480 0.985 . S
C1494 C1495 1.363 . S
C1494 C1500 1.379 . S
C1494 N1502 1.356 . S
C1495 C1494 1.363 . S
C1495 C1501 1.363 . S
C1496 C1497 1.363 . S
C1496 C1501 1.379 . S
C1496 N1503 1.356 . S
C1497 C1496 1.363 . S
C1497 C1500 1.363 . S
N1498 C1500 1.356 . S
N1498 H1510 0.984 . S
N1498 H1511 0.985 . S
N1499 C1501 1.356 . S
N1499 H1504 0.984 . S
N1499 H1505 0.985 . S
C1500 C1494 1.379 . S
C1500 C1497 1.363 . S
C1500 N1498 1.356 . S
C1501 C1495 1.363 . S
C1501 C1496 1.379 . S
C1501 N1499 1.356 . S
N1502 C1494 1.356 . S
N1502 H1508 0.984 . S
N1502 H1509 0.984 . S
N1503 C1496 1.356 . S
N1503 H1506 0.984 . S
N1503 H1507 0.985 . S
H1504 N1499 0.984 . S
H1505 N1499 0.985 . S
H1506 N1503 0.984 . S
H1507 N1503 0.985 . S
H1508 N1502 0.984 . S
H1509 N1502 0.984 . S
H1510 N1498 0.984 . S
H1511 N1498 0.985 . S
C1512 C1513 1.363 . S
C1512 C1518 1.379 . S
C1512 N1520 1.356 . S
C1513 C1512 1.363 . S
C1513 C1519 1.363 . S
C1514 C1515 1.363 1_545 S
C1514 C1519 1.379 1_545 S
C1514 N1521 1.356 . S
C1515 C1514 1.363 1_565 S
C1515 C1518 1.363 . S
N1516 C1518 1.356 . S
N1516 H1528 0.984 . S
N1516 H1529 0.985 . S
N1517 C1519 1.356 . S
N1517 H1522 0.984 . S
N1517 H1523 0.985 1_565 S
C1518 C1512 1.379 . S
C1518 C1515 1.363 . S
C1518 N1516 1.356 . S
C1519 C1513 1.363 . S
C1519 C1514 1.379 1_565 S
C1519 N1517 1.356 . S
N1520 C1512 1.356 . S
N1520 H1526 0.984 1_554 S
N1520 H1527 0.984 . S
N1521 C1514 1.356 . S
N1521 H1524 0.984 . S
N1521 H1525 0.985 . S
H1522 N1517 0.984 . S
H1523 N1517 0.985 1_545 S
H1524 N1521 0.984 . S
H1525 N1521 0.985 . S
H1526 N1520 0.984 1_556 S
H1527 N1520 0.984 . S
H1528 N1516 0.984 . S
H1529 N1516 0.985 . S
C1530 C1531 1.363 1_556 S
C1530 C1536 1.379 . S
C1530 N1538 1.356 . S
C1531 C1530 1.363 1_554 S
C1531 C1537 1.363 . S
C1532 C1533 1.363 . S
C1532 C1537 1.379 . S
C1532 N1539 1.356 . S
C1533 C1532 1.363 . S
C1533 C1536 1.363 1_554 S
N1534 C1536 1.356 . S
N1534 H1546 0.984 . S
N1534 H1547 0.985 . S
N1535 C1537 1.356 . S
N1535 H1540 0.984 . S
N1535 H1541 0.985 . S
C1536 C1530 1.379 . S
C1536 C1533 1.363 1_556 S
C1536 N1534 1.356 . S
C1537 C1531 1.363 . S
C1537 C1532 1.379 . S
C1537 N1535 1.356 . S
N1538 C1530 1.356 . S
N1538 H1544 0.984 . S
N1538 H1545 0.984 . S
N1539 C1532 1.356 . S
N1539 H1542 0.984 . S
N1539 H1543 0.985 . S
H1540 N1535 0.984 . S
H1541 N1535 0.985 . S
H1542 N1539 0.984 . S
H1543 N1539 0.985 . S
H1544 N1538 0.984 . S
H1545 N1538 0.984 . S
H1546 N1534 0.984 . S
H1547 N1534 0.985 . S
C1548 C1549 1.363 . S
C1548 C1554 1.379 . S
C1548 N1556 1.356 . S
C1549 C1548 1.363 . S
C1549 C1555 1.363 . S
C1550 C1551 1.363 . S
C1550 C1555 1.379 . S
C1550 N1557 1.356 . S
C1551 C1550 1.363 . S
C1551 C1554 1.363 . S
N1552 C1554 1.356 . S
N1552 H1564 0.984 . S
N1552 H1565 0.985 . S
N1553 C1555 1.356 . S
N1553 H1558 0.984 . S
N1553 H1559 0.985 . S
C1554 C1548 1.379 . S
C1554 C1551 1.363 . S
C1554 N1552 1.356 . S
C1555 C1549 1.363 . S
C1555 C1550 1.379 . S
C1555 N1553 1.356 . S
N1556 C1548 1.356 . S
N1556 H1562 0.984 . S
N1556 H1563 0.984 . S
N1557 C1550 1.356 . S
N1557 H1560 0.984 . S
N1557 H1561 0.985 . S
H1558 N1553 0.984 . S
H1559 N1553 0.985 . S
H1560 N1557 0.984 . S
H1561 N1557 0.985 . S
H1562 N1556 0.984 . S
H1563 N1556 0.984 . S
H1564 N1552 0.984 . S
H1565 N1552 0.985 . S
C1566 C1567 1.363 . S
C1566 C1572 1.379 . S
C1566 N1574 1.356 . S
C1567 C1566 1.363 . S
C1567 C1573 1.363 . S
C1568 C1569 1.363 . S
C1568 C1573 1.379 . S
C1568 N1575 1.356 . S
C1569 C1568 1.363 . S
C1569 C1572 1.363 . S
N1570 C1572 1.356 . S
N1570 H1582 0.984 . S
N1570 H1583 0.985 . S
N1571 C1573 1.356 . S
N1571 H1576 0.984 . S
N1571 H1577 0.985 . S
C1572 C1566 1.379 . S
C1572 C1569 1.363 . S
C1572 N1570 1.356 . S
C1573 C1567 1.363 . S
C1573 C1568 1.379 . S
C1573 N1571 1.356 . S
N1574 C1566 1.356 . S
N1574 H1580 0.984 . S
N1574 H1581 0.984 . S
N1575 C1568 1.356 . S
N1575 H1578 0.984 . S
N1575 H1579 0.985 . S
H1576 N1571 0.984 . S
H1577 N1571 0.985 . S
H1578 N1575 0.984 . S
H1579 N1575 0.985 . S
H1580 N1574 0.984 . S
H1581 N1574 0.984 . S
H1582 N1570 0.984 . S
H1583 N1570 0.985 . S
C1584 C1585 1.363 . S
C1584 C1590 1.379 . S
C1584 N1592 1.356 . S
C1585 C1584 1.363 . S
C1585 C1591 1.363 . S
C1586 C1587 1.363 . S
C1586 C1591 1.379 . S
C1586 N1593 1.356 . S
C1587 C1586 1.363 . S
C1587 C1590 1.363 . S
N1588 C1590 1.356 . S
N1588 H1600 0.984 . S
N1588 H1601 0.985 . S
N1589 C1591 1.356 1_545 S
N1589 H1594 0.984 . S
N1589 H1595 0.985 . S
C1590 C1584 1.379 . S
C1590 C1587 1.363 . S
C1590 N1588 1.356 . S
C1591 C1585 1.363 . S
C1591 C1586 1.379 . S
C1591 N1589 1.356 1_565 S
N1592 C1584 1.356 . S
N1592 H1598 0.984 . S
N1592 H1599 1.002 . S
N1593 C1586 1.356 . S
N1593 H1596 0.984 . S
N1593 H1597 0.985 . S
H1594 N1589 0.984 . S
H1595 N1589 0.985 . S
H1596 N1593 0.984 . S
H1597 N1593 0.985 . S
H1598 N1592 0.984 . S
H1599 N1592 1.002 . S
H1600 N1588 0.984 . S
H1601 N1588 0.985 . S
C1602 C1603 1.363 . S
C1602 C1608 1.379 . S
C1602 N1610 1.356 . S
C1603 C1602 1.363 . S
C1603 C1609 1.363 . S
C1604 C1605 1.363 . S
C1604 C1609 1.379 . S
C1604 N1611 1.356 . S
C1605 C1604 1.363 . S
C1605 C1608 1.363 . S
N1606 C1608 1.356 . S
N1606 H1618 0.984 . S
N1606 H1619 0.985 . S
N1607 C1609 1.356 . S
N1607 H1612 0.984 . S
N1607 H1613 0.985 . S
C1608 C1602 1.379 . S
C1608 C1605 1.363 . S
C1608 N1606 1.356 . S
C1609 C1603 1.363 . S
C1609 C1604 1.379 . S
C1609 N1607 1.356 . S
N1610 C1602 1.356 . S
N1610 H1616 0.984 . S
N1610 H1617 0.984 . S
N1611 C1604 1.356 . S
N1611 H1614 0.984 . S
N1611 H1615 0.985 . S
H1612 N1607 0.984 . S
H1613 N1607 0.985 . S
H1614 N1611 0.984 . S
H1615 N1611 0.985 . S
H1616 N1610 0.984 . S
H1617 N1610 0.984 . S
H1618 N1606 0.984 . S
H1619 N1606 0.985 . S
C1620 C1621 1.363 . S
C1620 C1626 1.379 . S
C1620 N1628 1.356 . S
C1621 C1620 1.363 . S
C1621 C1627 1.363 . S
C1622 C1623 1.363 . S
C1622 C1627 1.379 . S
C1622 N1629 1.356 . S
C1623 C1622 1.363 . S
C1623 C1626 1.363 . S
N1624 C1626 1.356 . S
N1624 H1636 0.984 . S
N1624 H1637 0.985 . S
N1625 C1627 1.356 . S
N1625 H1630 0.984 . S
N1625 H1631 0.985 . S
C1626 C1620 1.379 . S
C1626 C1623 1.363 . S
C1626 N1624 1.356 . S
C1627 C1621 1.363 . S
C1627 C1622 1.379 . S
C1627 N1625 1.356 . S
N1628 C1620 1.356 . S
N1628 H1634 0.984 . S
N1628 H1635 0.984 . S
N1629 C1622 1.356 . S
N1629 H1632 0.984 . S
N1629 H1633 0.985 . S
H1630 N1625 0.984 . S
H1631 N1625 0.985 . S
H1632 N1629 0.984 . S
H1633 N1629 0.985 . S
H1634 N1628 0.984 . S
H1635 N1628 0.984 . S
H1636 N1624 0.984 . S
H1637 N1624 0.985 . S
C1638 C1639 1.363 . S
C1638 C1644 1.379 . S
C1638 N1646 1.356 . S
C1639 C1638 1.363 . S
C1639 C1645 1.363 . S
C1640 C1641 1.363 . S
C1640 C1645 1.379 . S
C1640 N1647 1.356 . S
C1641 C1640 1.363 . S
C1641 C1644 1.363 . S
N1642 C1644 1.356 . S
N1642 H1654 0.984 . S
N1642 H1655 0.985 . S
N1643 C1645 1.356 . S
N1643 H1648 0.984 . S
N1643 H1649 0.985 . S
C1644 C1638 1.379 . S
C1644 C1641 1.363 . S
C1644 N1642 1.356 . S
C1645 C1639 1.363 . S
C1645 C1640 1.379 . S
C1645 N1643 1.356 . S
N1646 C1638 1.356 . S
N1646 H1652 0.984 . S
N1646 H1653 0.984 . S
N1647 C1640 1.356 . S
N1647 H1650 0.984 . S
N1647 H1651 0.985 . S
H1648 N1643 0.984 . S
H1649 N1643 0.985 . S
H1650 N1647 0.984 . S
H1651 N1647 0.985 . S
H1652 N1646 0.984 . S
H1653 N1646 0.984 . S
H1654 N1642 0.984 . S
H1655 N1642 0.985 . S
C1656 C1657 1.363 . S
C1656 C1662 1.379 . S
C1656 N1664 1.356 . S
C1657 C1656 1.363 . S
C1657 C1663 1.363 . S
C1658 C1659 1.363 . S
C1658 C1663 1.379 . S
C1658 N1665 1.356 . S
C1659 C1658 1.363 . S
C1659 C1662 1.363 . S
N1660 C1662 1.356 . S
N1660 H1672 0.984 . S
N1660 H1673 0.985 . S
N1661 C1663 1.356 . S
N1661 H1666 0.984 . S
N1661 H1667 0.985 . S
C1662 C1656 1.379 . S
C1662 C1659 1.363 . S
C1662 N1660 1.356 . S
C1663 C1657 1.363 . S
C1663 C1658 1.379 . S
C1663 N1661 1.356 . S
N1664 C1656 1.356 . S
N1664 H1670 0.984 . S
N1664 H1671 0.984 . S
N1665 C1658 1.356 . S
N1665 H1668 0.984 . S
N1665 H1669 0.985 . S
H1666 N1661 0.984 . S
H1667 N1661 0.985 . S
H1668 N1665 0.984 . S
H1669 N1665 0.985 . S
H1670 N1664 0.984 . S
H1671 N1664 0.984 . S
H1672 N1660 0.984 . S
H1673 N1660 0.985 . S
C1674 C1675 1.363 . S
C1674 C1680 1.379 . S
C1674 N1682 1.356 . S
C1675 C1674 1.363 . S
C1675 C1681 1.363 . S
C1676 C1677 1.363 . S
C1676 C1681 1.379 . S
C1676 N1683 1.356 . S
C1677 C1676 1.363 . S
C1677 C1680 1.363 . S
N1678 C1680 1.356 . S
N1678 H1690 0.984 . S
N1678 H1691 0.985 . S
N1679 C1681 1.356 . S
N1679 H1684 0.984 . S
N1679 H1685 0.985 . S
C1680 C1674 1.379 . S
C1680 C1677 1.363 . S
C1680 N1678 1.356 . S
C1681 C1675 1.363 . S
C1681 C1676 1.379 . S
C1681 N1679 1.356 . S
N1682 C1674 1.356 . S
N1682 H1688 0.984 . S
N1682 H1689 0.984 . S
N1683 C1676 1.356 . S
N1683 H1686 0.984 . S
N1683 H1687 0.985 . S
H1684 N1679 0.984 . S
H1685 N1679 0.985 . S
H1686 N1683 0.984 . S
H1687 N1683 0.985 . S
H1688 N1682 0.984 . S
H1689 N1682 0.984 . S
H1690 N1678 0.984 . S
H1691 N1678 0.985 . S
C1692 C1693 1.363 . S
C1692 C1698 1.379 . S
C1692 N1700 1.356 . S
C1693 C1692 1.363 . S
C1693 C1699 1.363 . S
C1694 C1695 1.363 . S
C1694 C1699 1.379 . S
C1694 N1701 1.356 . S
C1695 C1694 1.363 . S
C1695 C1698 1.363 . S
N1696 C1698 1.356 . S
N1696 H1708 0.984 . S
N1696 H1709 0.985 . S
N1697 C1699 1.356 . S
N1697 H1702 0.984 . S
N1697 H1703 0.985 . S
C1698 C1692 1.379 . S
C1698 C1695 1.363 . S
C1698 N1696 1.356 . S
C1699 C1693 1.363 . S
C1699 C1694 1.379 . S
C1699 N1697 1.356 . S
N1700 C1692 1.356 . S
N1700 H1706 0.984 . S
N1700 H1707 0.984 . S
N1701 C1694 1.356 . S
N1701 H1704 0.984 . S
N1701 H1705 0.985 . S
H1702 N1697 0.984 . S
H1703 N1697 0.985 . S
H1704 N1701 0.984 . S
H1705 N1701 0.985 . S
H1706 N1700 0.984 . S
H1707 N1700 0.984 . S
H1708 N1696 0.984 . S
H1709 N1696 0.985 . S
C1710 C1711 1.363 . S
C1710 C1716 1.379 . S
C1710 N1718 1.356 . S
C1711 C1710 1.363 . S
C1711 C1717 1.363 . S
C1712 C1713 1.363 . S
C1712 C1717 1.379 . S
C1712 N1719 1.356 . S
C1713 C1712 1.363 . S
C1713 C1716 1.363 . S
N1714 C1716 1.356 . S
N1714 H1726 0.984 . S
N1714 H1727 0.985 . S
N1715 C1717 1.356 . S
N1715 H1720 0.984 . S
N1715 H1721 0.985 . S
C1716 C1710 1.379 . S
C1716 C1713 1.363 . S
C1716 N1714 1.356 . S
C1717 C1711 1.363 . S
C1717 C1712 1.379 . S
C1717 N1715 1.356 . S
N1718 C1710 1.356 . S
N1718 H1724 0.988 . S
N1718 H1725 0.984 1_655 S
N1719 C1712 1.356 . S
N1719 H1722 0.984 . S
N1719 H1723 0.985 . S
H1720 N1715 0.984 . S
H1721 N1715 0.985 . S
H1722 N1719 0.984 . S
H1723 N1719 0.985 . S
H1724 N1718 0.988 . S
H1725 N1718 0.984 1_455 S
H1726 N1714 0.984 . S
H1727 N1714 0.985 . S
C1728 C1729 1.363 . S
C1728 C1734 1.379 . S
C1728 N1736 1.356 . S
C1729 C1728 1.363 . S
C1729 C1735 1.363 . S
C1730 C1731 1.363 . S
C1730 C1735 1.379 . S
C1730 N1737 1.356 1_556 S
C1731 C1730 1.363 . S
C1731 C1734 1.363 . S
N1732 C1734 1.356 . S
N1732 H1744 0.984 . S
N1732 H1745 0.985 . S
N1733 C1735 1.356 . S
N1733 H1738 0.984 . S
N1733 H1739 0.985 . S
C1734 C1728 1.379 . S
C1734 C1731 1.363 . S
C1734 N1732 1.356 . S
C1735 C1729 1.363 . S
C1735 C1730 1.379 . S
C1735 N1733 1.356 . S
N1736 C1728 1.356 . S
N1736 H1742 0.984 . S
N1736 H1743 0.984 . S
N1737 C1730 1.356 1_554 S
N1737 H1740 0.984 . S
N1737 H1741 0.985 . S
H1738 N1733 0.984 . S
H1739 N1733 0.985 . S
H1740 N1737 0.984 . S
H1741 N1737 0.985 . S
H1742 N1736 0.984 . S
H1743 N1736 0.984 . S
H1744 N1732 0.984 . S
H1745 N1732 0.985 . S
C1746 C1747 1.363 . S
C1746 C1752 1.379 . S
C1746 N1754 1.356 . S
C1747 C1746 1.363 . S
C1747 C1753 1.363 . S
C1748 C1749 1.363 . S
C1748 C1753 1.379 . S
C1748 N1755 1.356 . S
C1749 C1748 1.363 . S
C1749 C1752 1.363 . S
N1750 C1752 1.356 . S
N1750 H1762 0.984 . S
N1750 H1763 0.985 . S
N1751 C1753 1.356 . S
N1751 H1756 0.984 . S
N1751 H1757 0.985 . S
C1752 C1746 1.379 . S
C1752 C1749 1.363 . S
C1752 N1750 1.356 . S
C1753 C1747 1.363 . S
C1753 C1748 1.379 . S
C1753 N1751 1.356 . S
N1754 C1746 1.356 . S
N1754 H1760 0.984 . S
N1754 H1761 0.984 . S
N1755 C1748 1.356 . S
N1755 H1758 0.984 . S
N1755 H1759 0.985 . S
H1756 N1751 0.984 . S
H1757 N1751 0.985 . S
H1758 N1755 0.984 . S
H1759 N1755 0.985 . S
H1760 N1754 0.984 . S
H1761 N1754 0.984 . S
H1762 N1750 0.984 . S
H1763 N1750 0.985 . S
C1764 C1765 1.363 . S
C1764 C1770 1.379 . S
C1764 N1772 1.356 . S
C1765 C1764 1.363 . S
C1765 C1771 1.363 . S
C1766 C1767 1.363 . S
C1766 C1771 1.379 . S
C1766 N1773 1.356 . S
C1767 C1766 1.363 . S
C1767 C1770 1.363 . S
N1768 C1770 1.356 . S
N1768 H1780 0.984 . S
N1768 H1781 0.985 . S
N1769 C1771 1.356 . S
N1769 H1774 0.984 . S
N1769 H1775 0.985 . S
C1770 C1764 1.379 . S
C1770 C1767 1.363 . S
C1770 N1768 1.356 . S
C1771 C1765 1.363 . S
C1771 C1766 1.379 . S
C1771 N1769 1.356 . S
N1772 C1764 1.356 . S
N1772 H1778 0.984 . S
N1772 H1779 0.984 . S
N1773 C1766 1.356 . S
N1773 H1776 0.984 . S
N1773 H1777 0.985 . S
H1774 N1769 0.984 . S
H1775 N1769 0.985 . S
H1776 N1773 0.984 . S
H1777 N1773 0.985 . S
H1778 N1772 0.984 . S
H1779 N1772 0.984 . S
H1780 N1768 0.984 . S
H1781 N1768 0.985 . S
C1782 C1783 1.363 . S
C1782 C1788 1.379 . S
C1782 N1790 1.356 . S
C1783 C1782 1.363 . S
C1783 C1789 1.363 . S
C1784 C1785 1.363 . S
C1784 C1789 1.379 . S
C1784 N1791 1.356 . S
C1785 C1784 1.363 . S
C1785 C1788 1.363 . S
N1786 C1788 1.356 . S
N1786 H1798 0.984 . S
N1786 H1799 0.985 . S
N1787 C1789 1.356 . S
N1787 H1792 0.984 . S
N1787 H1793 0.985 . S
C1788 C1782 1.379 . S
C1788 C1785 1.363 . S
C1788 N1786 1.356 . S
C1789 C1783 1.363 . S
C1789 C1784 1.379 . S
C1789 N1787 1.356 . S
N1790 C1782 1.356 . S
N1790 H1796 0.984 . S
N1790 H1797 0.984 . S
N1791 C1784 1.356 . S
N1791 H1794 0.984 . S
N1791 H1795 0.985 . S
H1792 N1787 0.984 . S
H1793 N1787 0.985 . S
H1794 N1791 0.984 . S
H1795 N1791 0.985 . S
H1796 N1790 0.984 . S
H1797 N1790 0.984 . S
H1798 N1786 0.984 . S
H1799 N1786 0.985 . S
C1800 C1801 1.363 . S
C1800 C1806 1.379 . S
C1800 N1808 1.356 . S
C1801 C1800 1.363 . S
C1801 C1807 1.363 . S
C1802 C1803 1.363 . S
C1802 C1807 1.379 . S
C1802 N1809 1.356 . S
C1803 C1802 1.363 . S
C1803 C1806 1.363 . S
N1804 C1806 1.356 . S
N1804 H1816 0.984 . S
N1804 H1817 0.985 . S
N1805 C1807 1.356 . S
N1805 H1810 0.984 . S
N1805 H1811 0.985 . S
C1806 C1800 1.379 . S
C1806 C1803 1.363 . S
C1806 N1804 1.356 . S
C1807 C1801 1.363 . S
C1807 C1802 1.379 . S
C1807 N1805 1.356 . S
N1808 C1800 1.356 . S
N1808 H1814 0.984 . S
N1808 H1815 0.984 . S
N1809 C1802 1.356 . S
N1809 H1812 0.984 . S
N1809 H1813 0.985 . S
H1810 N1805 0.984 . S
H1811 N1805 0.985 . S
H1812 N1809 0.984 . S
H1813 N1809 0.985 . S
H1814 N1808 0.984 . S
H1815 N1808 0.984 . S
H1816 N1804 0.984 . S
H1817 N1804 0.985 . S
C1818 C1819 1.363 . S
C1818 C1824 1.379 . S
C1818 N1826 1.356 . S
C1819 C1818 1.363 . S
C1819 C1825 1.363 . S
C1820 C1821 1.363 . S
C1820 C1825 1.379 . S
C1820 N1827 1.356 . S
C1821 C1820 1.363 . S
C1821 C1824 1.363 . S
N1822 C1824 1.356 . S
N1822 H1834 0.984 . S
N1822 H1835 0.985 . S
N1823 C1825 1.356 1_554 S
N1823 H1828 0.984 . S
N1823 H1829 0.985 . S
C1824 C1818 1.379 . S
C1824 C1821 1.363 . S
C1824 N1822 1.356 . S
C1825 C1819 1.363 . S
C1825 C1820 1.379 . S
C1825 N1823 1.356 1_556 S
N1826 C1818 1.356 . S
N1826 H1832 0.984 . S
N1826 H1833 0.984 . S
N1827 C1820 1.356 . S
N1827 H1830 0.984 . S
N1827 H1831 0.985 . S
H1828 N1823 0.984 . S
H1829 N1823 0.985 . S
H1830 N1827 0.984 . S
H1831 N1827 0.985 . S
H1832 N1826 0.984 . S
H1833 N1826 0.984 . S
H1834 N1822 0.984 . S
H1835 N1822 0.985 . S
C1836 C1837 1.363 . S
C1836 C1842 1.379 . S
C1836 N1844 1.356 . S
C1837 C1836 1.363 . S
C1837 C1843 1.363 . S
C1838 C1839 1.363 . S
C1838 C1843 1.379 . S
C1838 N1845 1.356 1_655 S
C1839 C1838 1.363 . S
C1839 C1842 1.363 . S
N1840 C1842 1.356 . S
N1840 H1852 0.984 . S
N1840 H1853 0.985 . S
N1841 C1843 1.356 . S
N1841 H1846 0.984 . S
N1841 H1847 0.985 . S
C1842 C1836 1.379 . S
C1842 C1839 1.363 . S
C1842 N1840 1.356 . S
C1843 C1837 1.363 . S
C1843 C1838 1.379 . S
C1843 N1841 1.356 . S
N1844 C1836 1.356 . S
N1844 H1850 0.984 . S
N1844 H1851 0.984 . S
N1845 C1838 1.356 1_455 S
N1845 H1848 0.984 . S
N1845 H1849 0.985 . S
H1846 N1841 0.984 . S
H1847 N1841 0.985 . S
H1848 N1845 0.984 . S
H1849 N1845 0.985 . S
H1850 N1844 0.984 . S
H1851 N1844 0.984 . S
H1852 N1840 0.984 . S
H1853 N1840 0.985 . S
C1854 C1855 1.363 . S
C1854 C1860 1.379 . S
C1854 N1862 1.356 . S
C1855 C1854 1.363 . S
C1855 C1861 1.363 . S
C1856 C1857 1.363 . S
C1856 C1861 1.379 . S
C1856 N1863 1.356 . S
C1857 C1856 1.363 . S
C1857 C1860 1.363 . S
N1858 C1860 1.356 . S
N1858 H1870 0.984 . S
N1858 H1871 0.985 . S
N1859 C1861 1.356 . S
N1859 H1864 0.984 . S
N1859 H1865 0.985 . S
C1860 C1854 1.379 . S
C1860 C1857 1.363 . S
C1860 N1858 1.356 . S
C1861 C1855 1.363 . S
C1861 C1856 1.379 . S
C1861 N1859 1.356 . S
N1862 C1854 1.356 . S
N1862 H1868 0.984 . S
N1862 H1869 0.984 . S
N1863 C1856 1.356 . S
N1863 H1866 0.984 . S
N1863 H1867 0.985 . S
H1864 N1859 0.984 . S
H1865 N1859 0.985 . S
H1866 N1863 0.984 . S
H1867 N1863 0.985 . S
H1868 N1862 0.984 . S
H1869 N1862 0.984 . S
H1870 N1858 0.984 . S
H1871 N1858 0.985 . S
C1872 C1873 1.363 . S
C1872 C1878 1.379 . S
C1872 N1880 1.356 . S
C1873 C1872 1.363 . S
C1873 C1879 1.363 . S
C1874 C1875 1.363 . S
C1874 C1879 1.379 . S
C1874 N1881 1.356 . S
C1875 C1874 1.363 . S
C1875 C1878 1.363 . S
N1876 C1878 1.356 . S
N1876 H1888 0.984 . S
N1876 H1889 0.985 . S
N1877 C1879 1.356 . S
N1877 H1882 0.984 . S
N1877 H1883 0.985 . S
C1878 C1872 1.379 . S
C1878 C1875 1.363 . S
C1878 N1876 1.356 . S
C1879 C1873 1.363 . S
C1879 C1874 1.379 . S
C1879 N1877 1.356 . S
N1880 C1872 1.356 . S
N1880 H1886 0.984 . S
N1880 H1887 0.984 . S
N1881 C1874 1.356 . S
N1881 H1884 0.984 . S
N1881 H1885 0.985 . S
H1882 N1877 0.984 . S
H1883 N1877 0.985 . S
H1884 N1881 0.984 . S
H1885 N1881 0.985 . S
H1886 N1880 0.984 . S
H1887 N1880 0.984 . S
H1888 N1876 0.984 . S
H1889 N1876 0.985 . S
C1890 C1891 1.363 . S
C1890 C1896 1.379 . S
C1890 N1898 1.356 . S
C1891 C1890 1.363 . S
C1891 C1897 1.363 . S
C1892 C1893 1.363 . S
C1892 C1897 1.379 . S
C1892 N1899 1.356 . S
C1893 C1892 1.363 . S
C1893 C1896 1.363 . S
N1894 C1896 1.356 . S
N1894 H1906 0.984 . S
N1894 H1907 0.985 . S
N1895 C1897 1.356 . S
N1895 H1900 0.984 . S
N1895 H1901 0.985 . S
C1896 C1890 1.379 . S
C1896 C1893 1.363 . S
C1896 N1894 1.356 . S
C1897 C1891 1.363 . S
C1897 C1892 1.379 . S
C1897 N1895 1.356 . S
N1898 C1890 1.356 . S
N1898 H1904 0.984 . S
N1898 H1905 0.984 . S
N1899 C1892 1.356 . S
N1899 H1902 0.984 . S
N1899 H1903 0.985 . S
H1900 N1895 0.984 . S
H1901 N1895 0.985 . S
H1902 N1899 0.984 . S
H1903 N1899 0.985 . S
H1904 N1898 0.984 . S
H1905 N1898 0.984 . S
H1906 N1894 0.984 . S
H1907 N1894 0.985 . S
C1908 C1909 1.363 . S
C1908 C1914 1.379 . S
C1908 N1916 1.356 . S
C1909 C1908 1.363 . S
C1909 C1915 1.363 . S
C1910 C1911 1.363 . S
C1910 C1915 1.379 . S
C1910 N1917 1.356 1_655 S
C1911 C1910 1.363 . S
C1911 C1914 1.363 . S
N1912 C1914 1.356 . S
N1912 H1924 0.984 . S
N1912 H1925 0.985 . S
N1913 C1915 1.356 . S
N1913 H1918 0.984 . S
N1913 H1919 0.985 . S
C1914 C1908 1.379 . S
C1914 C1911 1.363 . S
C1914 N1912 1.356 . S
C1915 C1909 1.363 . S
C1915 C1910 1.379 . S
C1915 N1913 1.356 . S
N1916 C1908 1.356 . S
N1916 H1922 0.984 . S
N1916 H1923 0.984 . S
N1917 C1910 1.356 1_455 S
N1917 H1920 0.984 . S
N1917 H1921 0.985 . S
H1918 N1913 0.984 . S
H1919 N1913 0.985 . S
H1920 N1917 0.984 . S
H1921 N1917 0.985 . S
H1922 N1916 0.984 . S
H1923 N1916 0.984 . S
H1924 N1912 0.984 . S
H1925 N1912 0.985 . S
C1926 C1927 1.363 . S
C1926 C1932 1.379 . S
C1926 N1934 1.356 . S
C1927 C1926 1.363 . S
C1927 C1933 1.363 . S
C1928 C1929 1.363 . S
C1928 C1933 1.379 . S
C1928 N1935 1.356 . S
C1929 C1928 1.363 . S
C1929 C1932 1.363 . S
N1930 C1932 1.356 . S
N1930 H1942 0.984 . S
N1930 H1943 0.985 . S
N1931 C1933 1.356 . S
N1931 H1936 0.984 . S
N1931 H1937 0.985 . S
C1932 C1926 1.379 . S
C1932 C1929 1.363 . S
C1932 N1930 1.356 . S
C1933 C1927 1.363 . S
C1933 C1928 1.379 . S
C1933 N1931 1.356 . S
N1934 C1926 1.356 . S
N1934 H1940 0.984 . S
N1934 H1941 0.984 . S
N1935 C1928 1.356 . S
N1935 H1938 0.984 . S
N1935 H1939 0.985 . S
H1936 N1931 0.984 . S
H1937 N1931 0.985 . S
H1938 N1935 0.984 . S
H1939 N1935 0.985 . S
H1940 N1934 0.984 . S
H1941 N1934 0.984 . S
H1942 N1930 0.984 . S
H1943 N1930 0.985 . S
C1944 C1945 1.363 . S
C1944 C1950 1.379 . S
C1944 N1952 1.356 . S
C1945 C1944 1.363 . S
C1945 C1951 1.363 . S
C1946 C1947 1.363 . S
C1946 C1951 1.379 . S
C1946 N1953 1.356 . S
C1947 C1946 1.363 . S
C1947 C1950 1.363 . S
N1948 C1950 1.356 . S
N1948 H1960 0.984 . S
N1948 H1961 0.985 . S
N1949 C1951 1.356 . S
N1949 H1954 0.984 . S
N1949 H1955 0.985 . S
C1950 C1944 1.379 . S
C1950 C1947 1.363 . S
C1950 N1948 1.356 . S
C1951 C1945 1.363 . S
C1951 C1946 1.379 . S
C1951 N1949 1.356 . S
N1952 C1944 1.356 . S
N1952 H1958 0.984 . S
N1952 H1959 0.984 . S
N1953 C1946 1.356 . S
N1953 H1956 0.984 . S
N1953 H1957 0.985 . S
H1954 N1949 0.984 . S
H1955 N1949 0.985 . S
H1956 N1953 0.984 . S
H1957 N1953 0.985 . S
H1958 N1952 0.984 . S
H1959 N1952 0.984 . S
H1960 N1948 0.984 . S
H1961 N1948 0.985 . S
C1962 C1963 1.363 . S
C1962 C1968 1.379 . S
C1962 N1970 1.356 . S
C1963 C1962 1.363 . S
C1963 C1969 1.363 . S
C1964 C1965 1.363 . S
C1964 C1969 1.379 . S
C1964 N1971 1.356 . S
C1965 C1964 1.363 . S
C1965 C1968 1.363 . S
N1966 C1968 1.356 1_545 S
N1966 H1978 0.984 . S
N1966 H1979 0.985 . S
N1967 C1969 1.356 . S
N1967 H1972 0.984 . S
N1967 H1973 0.985 . S
C1968 C1962 1.379 . S
C1968 C1965 1.363 . S
C1968 N1966 1.356 1_565 S
C1969 C1963 1.363 . S
C1969 C1964 1.379 . S
C1969 N1967 1.356 . S
N1970 C1962 1.356 . S
N1970 H1976 0.984 . S
N1970 H1977 0.984 . S
N1971 C1964 1.356 . S
N1971 H1974 0.967 1_565 S
N1971 H1975 0.985 . S
H1972 N1967 0.984 . S
H1973 N1967 0.985 . S
H1974 N1971 0.967 1_545 S
H1975 N1971 0.985 . S
H1976 N1970 0.984 . S
H1977 N1970 0.984 . S
H1978 N1966 0.984 . S
H1979 N1966 0.985 . S
C1980 C1981 1.363 . S
C1980 C1986 1.379 . S
C1980 N1988 1.356 . S
C1981 C1980 1.363 . S
C1981 C1987 1.363 . S
C1982 C1983 1.363 . S
C1982 C1987 1.379 . S
C1982 N1989 1.356 . S
C1983 C1982 1.363 . S
C1983 C1986 1.363 . S
N1984 C1986 1.356 . S
N1984 H1996 0.984 . S
N1984 H1997 0.985 . S
N1985 C1987 1.356 . S
N1985 H1990 0.984 1_565 S
N1985 H1991 0.985 . S
C1986 C1980 1.379 . S
C1986 C1983 1.363 . S
C1986 N1984 1.356 . S
C1987 C1981 1.363 . S
C1987 C1982 1.379 . S
C1987 N1985 1.356 . S
N1988 C1980 1.356 . S
N1988 H1994 0.984 . S
N1988 H1995 0.984 1_565 S
N1989 C1982 1.356 . S
N1989 H1992 0.984 . S
N1989 H1993 0.985 . S
H1990 N1985 0.984 1_545 S
H1991 N1985 0.985 . S
H1992 N1989 0.984 . S
H1993 N1989 0.985 . S
H1994 N1988 0.984 . S
H1995 N1988 0.984 1_545 S
H1996 N1984 0.984 . S
H1997 N1984 0.985 . S
C1998 C1999 1.363 . S
C1998 C2004 1.379 . S
C1998 N2006 1.356 . S
C1999 C1998 1.363 . S
C1999 C2005 1.363 . S
C2000 C2001 1.363 . S
C2000 C2005 1.379 . S
C2000 N2007 1.356 . S
C2001 C2000 1.363 . S
C2001 C2004 1.363 . S
N2002 C2004 1.356 . S
N2002 H2014 0.984 . S
N2002 H2015 0.985 . S
N2003 C2005 1.356 . S
N2003 H2008 0.984 . S
N2003 H2009 0.985 1_554 S
C2004 C1998 1.379 . S
C2004 C2001 1.363 . S
C2004 N2002 1.356 . S
C2005 C1999 1.363 . S
C2005 C2000 1.379 . S
C2005 N2003 1.356 . S
N2006 C1998 1.356 . S
N2006 H2012 0.984 . S
N2006 H2013 0.984 . S
N2007 C2000 1.356 . S
N2007 H2010 0.984 . S
N2007 H2011 1.005 . S
H2008 N2003 0.984 . S
H2009 N2003 0.985 1_556 S
H2010 N2007 0.984 . S
H2011 N2007 1.005 . S
H2012 N2006 0.984 . S
H2013 N2006 0.984 . S
H2014 N2002 0.984 . S
H2015 N2002 0.985 . S
C2016 C2017 1.363 . S
C2016 C2022 1.379 . S
C2016 N2024 1.356 . S
C2017 C2016 1.363 . S
C2017 C2023 1.363 . S
C2018 C2019 1.363 . S
C2018 C2023 1.379 . S
C2018 N2025 1.356 . S
C2019 C2018 1.363 . S
C2019 C2022 1.363 . S
N2020 C2022 1.356 . S
N2020 H2032 0.984 . S
N2020 H2033 0.985 . S
N2021 C2023 1.356 . S
N2021 H2026 0.984 . S
N2021 H2027 0.985 . S
C2022 C2016 1.379 . S
C2022 C2019 1.363 . S
C2022 N2020 1.356 . S
C2023 C2017 1.363 . S
C2023 C2018 1.379 . S
C2023 N2021 1.356 . S
N2024 C2016 1.356 . S
N2024 H2030 0.984 . S
N2024 H2031 0.984 . S
N2025 C2018 1.356 . S
N2025 H2028 0.984 . S
N2025 H2029 0.985 . S
H2026 N2021 0.984 . S
H2027 N2021 0.985 . S
H2028 N2025 0.984 . S
H2029 N2025 0.985 . S
H2030 N2024 0.984 . S
H2031 N2024 0.984 . S
H2032 N2020 0.984 . S
H2033 N2020 0.985 . S
C2034 C2035 1.363 . S
C2034 C2040 1.379 . S
C2034 N2042 1.356 . S
C2035 C2034 1.363 . S
C2035 C2041 1.363 . S
C2036 C2037 1.363 . S
C2036 C2041 1.379 . S
C2036 N2043 1.356 1_554 S
C2037 C2036 1.363 . S
C2037 C2040 1.363 . S
N2038 C2040 1.356 . S
N2038 H2050 0.984 . S
N2038 H2051 0.985 . S
N2039 C2041 1.356 . S
N2039 H2044 0.984 . S
N2039 H2045 0.985 1_554 S
C2040 C2034 1.379 . S
C2040 C2037 1.363 . S
C2040 N2038 1.356 . S
C2041 C2035 1.363 . S
C2041 C2036 1.379 . S
C2041 N2039 1.356 . S
N2042 C2034 1.356 . S
N2042 H2048 0.984 . S
N2042 H2049 0.984 . S
N2043 C2036 1.356 1_556 S
N2043 H2046 0.984 . S
N2043 H2047 0.985 . S
H2044 N2039 0.984 . S
H2045 N2039 0.985 1_556 S
H2046 N2043 0.984 . S
H2047 N2043 0.985 . S
H2048 N2042 0.984 . S
H2049 N2042 0.984 . S
H2050 N2038 0.984 . S
H2051 N2038 0.985 . S
C2052 C2053 1.363 . S
C2052 C2058 1.379 . S
C2052 N2060 1.356 . S
C2053 C2052 1.363 . S
C2053 C2059 1.363 . S
C2054 C2055 1.363 . S
C2054 C2059 1.379 . S
C2054 N2061 1.356 . S
C2055 C2054 1.363 . S
C2055 C2058 1.363 . S
N2056 C2058 1.356 . S
N2056 H2068 0.984 . S
N2056 H2069 0.985 . S
N2057 C2059 1.356 . S
N2057 H2062 0.984 . S
N2057 H2063 0.985 . S
C2058 C2052 1.379 . S
C2058 C2055 1.363 . S
C2058 N2056 1.356 . S
C2059 C2053 1.363 . S
C2059 C2054 1.379 . S
C2059 N2057 1.356 . S
N2060 C2052 1.356 . S
N2060 H2066 0.984 . S
N2060 H2067 0.984 . S
N2061 C2054 1.356 . S
N2061 H2064 0.984 . S
N2061 H2065 0.985 . S
H2062 N2057 0.984 . S
H2063 N2057 0.985 . S
H2064 N2061 0.984 . S
H2065 N2061 0.985 . S
H2066 N2060 0.984 . S
H2067 N2060 0.984 . S
H2068 N2056 0.984 . S
H2069 N2056 0.985 . S
C2070 C2071 1.363 . S
C2070 C2076 1.379 . S
C2070 N2078 1.356 . S
C2071 C2070 1.363 . S
C2071 C2077 1.363 . S
C2072 C2073 1.363 . S
C2072 C2077 1.379 . S
C2072 N2079 1.356 . S
C2073 C2072 1.363 . S
C2073 C2076 1.363 . S
N2074 C2076 1.356 . S
N2074 H2086 0.984 . S
N2074 H2087 0.985 . S
N2075 C2077 1.356 . S
N2075 H2080 0.984 . S
N2075 H2081 0.985 . S
C2076 C2070 1.379 . S
C2076 C2073 1.363 . S
C2076 N2074 1.356 . S
C2077 C2071 1.363 . S
C2077 C2072 1.379 . S
C2077 N2075 1.356 . S
N2078 C2070 1.356 . S
N2078 H2084 0.984 . S
N2078 H2085 0.984 . S
N2079 C2072 1.356 . S
N2079 H2082 0.984 . S
N2079 H2083 0.985 . S
H2080 N2075 0.984 . S
H2081 N2075 0.985 . S
H2082 N2079 0.984 . S
H2083 N2079 0.985 . S
H2084 N2078 0.984 . S
H2085 N2078 0.984 . S
H2086 N2074 0.984 . S
H2087 N2074 0.985 . S
C2088 C2089 1.363 . S
C2088 C2094 1.379 . S
C2088 N2096 1.356 . S
C2089 C2088 1.363 . S
C2089 C2095 1.363 . S
C2090 C2091 1.363 . S
C2090 C2095 1.379 . S
C2090 N2097 1.356 . S
C2091 C2090 1.363 . S
C2091 C2094 1.363 . S
N2092 C2094 1.356 . S
N2092 H2104 0.984 . S
N2092 H2105 0.985 . S
N2093 C2095 1.356 . S
N2093 H2098 0.984 . S
N2093 H2099 0.985 . S
C2094 C2088 1.379 . S
C2094 C2091 1.363 . S
C2094 N2092 1.356 . S
C2095 C2089 1.363 . S
C2095 C2090 1.379 . S
C2095 N2093 1.356 . S
N2096 C2088 1.356 . S
N2096 H2102 0.984 . S
N2096 H2103 0.984 . S
N2097 C2090 1.356 . S
N2097 H2100 0.984 . S
N2097 H2101 0.985 . S
H2098 N2093 0.984 . S
H2099 N2093 0.985 . S
H2100 N2097 0.984 . S
H2101 N2097 0.985 . S
H2102 N2096 0.984 . S
H2103 N2096 0.984 . S
H2104 N2092 0.984 . S
H2105 N2092 0.985 . S
C2106 C2107 1.363 . S
C2106 C2112 1.379 . S
C2106 N2114 1.356 . S
C2107 C2106 1.363 . S
C2107 C2113 1.363 . S
C2108 C2109 1.363 . S
C2108 C2113 1.379 . S
C2108 N2115 1.356 . S
C2109 C2108 1.363 . S
C2109 C2112 1.363 . S
N2110 C2112 1.356 . S
N2110 H2122 0.984 . S
N2110 H2123 0.985 . S
N2111 C2113 1.356 . S
N2111 H2116 0.984 . S
N2111 H2117 0.985 . S
C2112 C2106 1.379 . S
C2112 C2109 1.363 . S
C2112 N2110 1.356 . S
C2113 C2107 1.363 . S
C2113 C2108 1.379 . S
C2113 N2111 1.356 . S
N2114 C2106 1.356 . S
N2114 H2120 0.984 . S
N2114 H2121 0.984 . S
N2115 C2108 1.356 . S
N2115 H2118 0.984 . S
N2115 H2119 0.985 . S
H2116 N2111 0.984 . S
H2117 N2111 0.985 . S
H2118 N2115 0.984 . S
H2119 N2115 0.985 . S
H2120 N2114 0.984 . S
H2121 N2114 0.984 . S
H2122 N2110 0.984 . S
H2123 N2110 0.985 . S
C2124 C2125 1.363 . S
C2124 C2130 1.379 . S
C2124 N2132 1.356 . S
C2125 C2124 1.363 . S
C2125 C2131 1.363 . S
C2126 C2127 1.363 . S
C2126 C2131 1.379 . S
C2126 N2133 1.356 1_455 S
C2127 C2126 1.363 . S
C2127 C2130 1.363 . S
N2128 C2130 1.356 1_554 S
N2128 H2140 0.984 . S
N2128 H2141 0.985 . S
N2129 C2131 1.356 . S
N2129 H2134 0.984 . S
N2129 H2135 0.985 1_455 S
C2130 C2124 1.379 . S
C2130 C2127 1.363 . S
C2130 N2128 1.356 1_556 S
C2131 C2125 1.363 . S
C2131 C2126 1.379 . S
C2131 N2129 1.356 . S
N2132 C2124 1.356 . S
N2132 H2138 0.984 1_556 S
N2132 H2139 0.984 . S
N2133 C2126 1.356 1_655 S
N2133 H2136 0.984 . S
N2133 H2137 0.985 . S
H2134 N2129 0.984 . S
H2135 N2129 0.985 1_655 S
H2136 N2133 0.984 . S
H2137 N2133 0.985 . S
H2138 N2132 0.984 1_554 S
H2139 N2132 0.984 . S
H2140 N2128 0.984 . S
H2141 N2128 0.985 . S
C2142 C2143 1.363 . S
C2142 C2148 1.379 . S
C2142 N2150 1.356 . S
C2143 C2142 1.363 . S
C2143 C2149 1.363 . S
C2144 C2145 1.363 . S
C2144 C2149 1.379 . S
C2144 N2151 1.356 . S
C2145 C2144 1.363 . S
C2145 C2148 1.363 . S
N2146 C2148 1.356 . S
N2146 H2158 0.984 . S
N2146 H2159 0.985 . S
N2147 C2149 1.356 . S
N2147 H2152 0.984 . S
N2147 H2153 0.985 . S
C2148 C2142 1.379 . S
C2148 C2145 1.363 . S
C2148 N2146 1.356 . S
C2149 C2143 1.363 . S
C2149 C2144 1.379 . S
C2149 N2147 1.356 . S
N2150 C2142 1.356 . S
N2150 H2156 0.984 . S
N2150 H2157 0.984 . S
N2151 C2144 1.356 . S
N2151 H2154 0.984 . S
N2151 H2155 0.985 . S
H2152 N2147 0.984 . S
H2153 N2147 0.985 . S
H2154 N2151 0.984 . S
H2155 N2151 0.985 . S
H2156 N2150 0.984 . S
H2157 N2150 0.984 . S
H2158 N2146 0.984 . S
H2159 N2146 0.985 . S
C2160 C2161 1.363 . S
C2160 C2166 1.379 . S
C2160 N2168 1.356 . S
C2161 C2160 1.363 . S
C2161 C2167 1.363 . S
C2162 C2163 1.363 . S
C2162 C2167 1.379 . S
C2162 N2169 1.356 . S
C2163 C2162 1.363 . S
C2163 C2166 1.363 . S
N2164 C2166 1.356 . S
N2164 H2176 0.984 . S
N2164 H2177 0.985 . S
N2165 C2167 1.356 . S
N2165 H2170 0.984 . S
N2165 H2171 0.985 . S
C2166 C2160 1.379 . S
C2166 C2163 1.363 . S
C2166 N2164 1.356 . S
C2167 C2161 1.363 . S
C2167 C2162 1.379 . S
C2167 N2165 1.356 . S
N2168 C2160 1.356 . S
N2168 H2174 0.984 . S
N2168 H2175 0.984 . S
N2169 C2162 1.356 . S
N2169 H2172 0.984 . S
N2169 H2173 0.985 . S
H2170 N2165 0.984 . S
H2171 N2165 0.985 . S
H2172 N2169 0.984 . S
H2173 N2169 0.985 . S
H2174 N2168 0.984 . S
H2175 N2168 0.984 . S
H2176 N2164 0.984 . S
H2177 N2164 0.985 . S
C2178 C2179 1.363 . S
C2178 C2184 1.379 . S
C2178 N2186 1.356 . S
C2179 C2178 1.363 . S
C2179 C2185 1.363 . S
C2180 C2181 1.363 . S
C2180 C2185 1.379 . S
C2180 N2187 1.356 . S
C2181 C2180 1.363 . S
C2181 C2184 1.363 . S
N2182 C2184 1.356 . S
N2182 H2194 0.984 . S
N2182 H2195 0.985 . S
N2183 C2185 1.356 . S
N2183 H2188 0.984 . S
N2183 H2189 0.985 . S
C2184 C2178 1.379 . S
C2184 C2181 1.363 . S
C2184 N2182 1.356 . S
C2185 C2179 1.363 . S
C2185 C2180 1.379 . S
C2185 N2183 1.356 . S
N2186 C2178 1.356 . S
N2186 H2192 0.984 . S
N2186 H2193 0.984 . S
N2187 C2180 1.356 . S
N2187 H2190 0.984 . S
N2187 H2191 0.985 . S
H2188 N2183 0.984 . S
H2189 N2183 0.985 . S
H2190 N2187 0.984 . S
H2191 N2187 0.985 . S
H2192 N2186 0.984 . S
H2193 N2186 0.984 . S
H2194 N2182 0.984 . S
H2195 N2182 0.985 . S
C2196 C2197 1.363 1_655 S
C2196 C2202 1.379 . S
C2196 N2204 1.356 . S
C2197 C2196 1.363 1_455 S
C2197 C2203 1.363 . S
C2198 C2199 1.363 . S
C2198 C2203 1.379 . S
C2198 N2205 1.356 . S
C2199 C2198 1.363 . S
C2199 C2202 1.363 1_455 S
N2200 C2202 1.356 . S
N2200 H2212 0.984 . S
N2200 H2213 0.985 . S
N2201 C2203 1.356 . S
N2201 H2206 0.984 . S
N2201 H2207 0.985 . S
C2202 C2196 1.379 . S
C2202 C2199 1.363 1_655 S
C2202 N2200 1.356 . S
C2203 C2197 1.363 . S
C2203 C2198 1.379 . S
C2203 N2201 1.356 . S
N2204 C2196 1.356 . S
N2204 H2210 0.984 . S
N2204 H2211 0.984 . S
N2205 C2198 1.356 . S
N2205 H2208 0.984 . S
N2205 H2209 0.985 . S
H2206 N2201 0.984 . S
H2207 N2201 0.985 . S
H2208 N2205 0.984 . S
H2209 N2205 0.985 . S
H2210 N2204 0.984 . S
H2211 N2204 0.984 . S
H2212 N2200 0.984 . S
H2213 N2200 0.985 . S
C2214 C2215 1.363 . S
C2214 C2220 1.379 . S
C2214 N2222 1.356 . S
C2215 C2214 1.363 . S
C2215 C2221 1.363 . S
C2216 C2217 1.363 . S
C2216 C2221 1.379 . S
C2216 N2223 1.356 . S
C2217 C2216 1.363 . S
C2217 C2220 1.363 . S
N2218 C2220 1.356 . S
N2218 H2230 0.984 . S
N2218 H2231 0.985 . S
N2219 C2221 1.356 . S
N2219 H2224 0.984 . S
N2219 H2225 0.985 . S
C2220 C2214 1.379 . S
C2220 C2217 1.363 . S
C2220 N2218 1.356 . S
C2221 C2215 1.363 . S
C2221 C2216 1.379 . S
C2221 N2219 1.356 . S
N2222 C2214 1.356 . S
N2222 H2228 0.984 . S
N2222 H2229 0.984 . S
N2223 C2216 1.356 . S
N2223 H2226 0.984 . S
N2223 H2227 0.985 . S
H2224 N2219 0.984 . S
H2225 N2219 0.985 . S
H2226 N2223 0.984 . S
H2227 N2223 0.985 . S
H2228 N2222 0.984 . S
H2229 N2222 0.984 . S
H2230 N2218 0.984 . S
H2231 N2218 0.985 . S
C2232 C2233 1.363 . S
C2232 C2238 1.379 . S
C2232 N2240 1.356 . S
C2233 C2232 1.363 . S
C2233 C2239 1.363 . S
C2234 C2235 1.363 . S
C2234 C2239 1.379 . S
C2234 N2241 1.356 . S
C2235 C2234 1.363 . S
C2235 C2238 1.363 . S
N2236 C2238 1.356 . S
N2236 H2248 0.984 . S
N2236 H2249 0.985 . S
N2237 C2239 1.356 . S
N2237 H2242 0.984 . S
N2237 H2243 0.985 . S
C2238 C2232 1.379 . S
C2238 C2235 1.363 . S
C2238 N2236 1.356 . S
C2239 C2233 1.363 . S
C2239 C2234 1.379 . S
C2239 N2237 1.356 . S
N2240 C2232 1.356 . S
N2240 H2246 0.984 . S
N2240 H2247 0.984 . S
N2241 C2234 1.356 . S
N2241 H2244 0.984 . S
N2241 H2245 0.985 . S
H2242 N2237 0.984 . S
H2243 N2237 0.985 . S
H2244 N2241 0.984 . S
H2245 N2241 0.985 . S
H2246 N2240 0.984 . S
H2247 N2240 0.984 . S
H2248 N2236 0.984 . S
H2249 N2236 0.985 . S
C2250 C2251 1.363 . S
C2250 C2256 1.379 . S
C2250 N2258 1.356 . S
C2251 C2250 1.363 . S
C2251 C2257 1.363 . S
C2252 C2253 1.363 . S
C2252 C2257 1.379 . S
C2252 N2259 1.356 . S
C2253 C2252 1.363 . S
C2253 C2256 1.363 . S
N2254 C2256 1.356 . S
N2254 H2266 0.984 . S
N2254 H2267 0.985 . S
N2255 C2257 1.356 . S
N2255 H2260 0.984 . S
N2255 H2261 0.985 . S
C2256 C2250 1.379 . S
C2256 C2253 1.363 . S
C2256 N2254 1.356 . S
C2257 C2251 1.363 . S
C2257 C2252 1.379 . S
C2257 N2255 1.356 . S
N2258 C2250 1.356 . S
N2258 H2264 0.984 . S
N2258 H2265 0.984 . S
N2259 C2252 1.356 . S
N2259 H2262 0.984 . S
N2259 H2263 0.985 . S
H2260 N2255 0.984 . S
H2261 N2255 0.985 . S
H2262 N2259 0.984 . S
H2263 N2259 0.985 . S
H2264 N2258 0.984 . S
H2265 N2258 0.984 . S
H2266 N2254 0.984 . S
H2267 N2254 0.985 . S
C2268 C2269 1.363 . S
C2268 C2274 1.379 . S
C2268 N2276 1.356 . S
C2269 C2268 1.363 . S
C2269 C2275 1.363 . S
C2270 C2271 1.363 . S
C2270 C2275 1.379 . S
C2270 N2277 1.356 . S
C2271 C2270 1.363 . S
C2271 C2274 1.363 . S
N2272 C2274 1.356 . S
N2272 H2284 0.984 . S
N2272 H2285 0.985 . S
N2273 C2275 1.356 . S
N2273 H2278 0.984 . S
N2273 H2279 0.985 . S
C2274 C2268 1.379 . S
C2274 C2271 1.363 . S
C2274 N2272 1.356 . S
C2275 C2269 1.363 . S
C2275 C2270 1.379 . S
C2275 N2273 1.356 . S
N2276 C2268 1.356 . S
N2276 H2282 0.984 . S
N2276 H2283 0.984 . S
N2277 C2270 1.356 . S
N2277 H2280 0.984 . S
N2277 H2281 0.985 . S
H2278 N2273 0.984 . S
H2279 N2273 0.985 . S
H2280 N2277 0.984 . S
H2281 N2277 0.985 . S
H2282 N2276 0.984 . S
H2283 N2276 0.984 . S
H2284 N2272 0.984 . S
H2285 N2272 0.985 . S
C2286 C2287 1.363 . S
C2286 C2292 1.379 . S
C2286 N2294 1.356 . S
C2287 C2286 1.363 . S
C2287 C2293 1.363 . S
C2288 C2289 1.363 . S
C2288 C2293 1.379 . S
C2288 N2295 1.356 . S
C2289 C2288 1.363 . S
C2289 C2292 1.363 . S
N2290 C2292 1.356 . S
N2290 H2302 0.984 . S
N2290 H2303 0.985 . S
N2291 C2293 1.356 . S
N2291 H2296 0.984 . S
N2291 H2297 0.985 . S
C2292 C2286 1.379 . S
C2292 C2289 1.363 . S
C2292 N2290 1.356 . S
C2293 C2287 1.363 . S
C2293 C2288 1.379 . S
C2293 N2291 1.356 . S
N2294 C2286 1.356 . S
N2294 H2300 0.984 . S
N2294 H2301 0.984 . S
N2295 C2288 1.356 . S
N2295 H2298 0.984 . S
N2295 H2299 0.985 . S
H2296 N2291 0.984 . S
H2297 N2291 0.985 . S
H2298 N2295 0.984 . S
H2299 N2295 0.985 . S
H2300 N2294 0.984 . S
H2301 N2294 0.984 . S
H2302 N2290 0.984 . S
H2303 N2290 0.985 . S
C2304 C2305 1.363 . S
C2304 C2310 1.379 . S
C2304 N2312 1.356 . S
C2305 C2304 1.363 . S
C2305 C2311 1.363 . S
C2306 C2307 1.363 . S
C2306 C2311 1.379 . S
C2306 N2313 1.356 . S
C2307 C2306 1.363 . S
C2307 C2310 1.363 . S
N2308 C2310 1.356 . S
N2308 H2320 0.984 . S
N2308 H2321 0.985 . S
N2309 C2311 1.356 . S
N2309 H2314 0.984 . S
N2309 H2315 0.985 . S
C2310 C2304 1.379 . S
C2310 C2307 1.363 . S
C2310 N2308 1.356 . S
C2311 C2305 1.363 . S
C2311 C2306 1.379 . S
C2311 N2309 1.356 . S
N2312 C2304 1.356 . S
N2312 H2318 0.984 . S
N2312 H2319 0.984 . S
N2313 C2306 1.356 . S
N2313 H2316 0.984 . S
N2313 H2317 0.985 . S
H2314 N2309 0.984 . S
H2315 N2309 0.985 . S
H2316 N2313 0.984 . S
H2317 N2313 0.985 . S
H2318 N2312 0.984 . S
H2319 N2312 0.984 . S
H2320 N2308 0.984 . S
H2321 N2308 0.985 . S
C2322 C2323 1.363 . S
C2322 C2328 1.379 . S
C2322 N2330 1.356 . S
C2323 C2322 1.363 . S
C2323 C2329 1.363 . S
C2324 C2325 1.363 . S
C2324 C2329 1.379 . S
C2324 N2331 1.356 . S
C2325 C2324 1.363 . S
C2325 C2328 1.363 . S
N2326 C2328 1.356 . S
N2326 H2338 0.984 . S
N2326 H2339 0.985 . S
N2327 C2329 1.356 . S
N2327 H2332 0.984 . S
N2327 H2333 0.985 . S
C2328 C2322 1.379 . S
C2328 C2325 1.363 . S
C2328 N2326 1.356 . S
C2329 C2323 1.363 . S
C2329 C2324 1.379 . S
C2329 N2327 1.356 . S
N2330 C2322 1.356 . S
N2330 H2336 0.984 . S
N2330 H2337 0.984 . S
N2331 C2324 1.356 . S
N2331 H2334 0.984 . S
N2331 H2335 0.985 . S
H2332 N2327 0.984 . S
H2333 N2327 0.985 . S
H2334 N2331 0.984 . S
H2335 N2331 0.985 . S
H2336 N2330 0.984 . S
H2337 N2330 0.984 . S
H2338 N2326 0.984 . S
H2339 N2326 0.985 . S
C2340 C2341 1.363 . S
C2340 C2346 1.379 . S
C2340 N2348 1.356 . S
C2341 C2340 1.363 . S
C2341 C2347 1.363 . S
C2342 C2343 1.363 . S
C2342 C2347 1.379 . S
C2342 N2349 1.356 . S
C2343 C2342 1.363 . S
C2343 C2346 1.363 . S
N2344 C2346 1.356 . S
N2344 H2356 0.984 . S
N2344 H2357 0.985 . S
N2345 C2347 1.356 . S
N2345 H2350 0.984 . S
N2345 H2351 0.985 . S
C2346 C2340 1.379 . S
C2346 C2343 1.363 . S
C2346 N2344 1.356 . S
C2347 C2341 1.363 . S
C2347 C2342 1.379 . S
C2347 N2345 1.356 . S
N2348 C2340 1.356 . S
N2348 H2354 0.984 . S
N2348 H2355 0.984 . S
N2349 C2342 1.356 . S
N2349 H2352 0.984 . S
N2349 H2353 0.985 . S
H2350 N2345 0.984 . S
H2351 N2345 0.985 . S
H2352 N2349 0.984 . S
H2353 N2349 0.985 . S
H2354 N2348 0.984 . S
H2355 N2348 0.984 . S
H2356 N2344 0.984 . S
H2357 N2344 0.985 . S
C2358 C2359 1.363 . S
C2358 C2364 1.379 . S
C2358 N2366 1.356 . S
C2359 C2358 1.363 . S
C2359 C2365 1.363 . S
C2360 C2361 1.363 . S
C2360 C2365 1.379 . S
C2360 N2367 1.356 . S
C2361 C2360 1.363 . S
C2361 C2364 1.363 . S
N2362 C2364 1.356 . S
N2362 H2374 0.984 . S
N2362 H2375 0.985 . S
N2363 C2365 1.356 . S
N2363 H2368 0.984 . S
N2363 H2369 0.985 . S
C2364 C2358 1.379 . S
C2364 C2361 1.363 . S
C2364 N2362 1.356 . S
C2365 C2359 1.363 . S
C2365 C2360 1.379 . S
C2365 N2363 1.356 . S
N2366 C2358 1.356 . S
N2366 H2372 0.984 . S
N2366 H2373 0.984 . S
N2367 C2360 1.356 . S
N2367 H2370 0.984 . S
N2367 H2371 0.985 . S
H2368 N2363 0.984 . S
H2369 N2363 0.985 . S
H2370 N2367 0.984 . S
H2371 N2367 0.985 . S
H2372 N2366 0.984 . S
H2373 N2366 0.984 . S
H2374 N2362 0.984 . S
H2375 N2362 0.985 . S
C2376 C2377 1.363 . S
C2376 C2382 1.379 . S
C2376 N2384 1.356 . S
C2377 C2376 1.363 . S
C2377 C2383 1.363 . S
C2378 C2379 1.363 . S
C2378 C2383 1.379 . S
C2378 N2385 1.356 . S
C2379 C2378 1.363 . S
C2379 C2382 1.363 . S
N2380 C2382 1.356 . S
N2380 H2392 0.984 . S
N2380 H2393 0.985 . S
N2381 C2383 1.356 . S
N2381 H2386 0.984 . S
N2381 H2387 0.985 . S
C2382 C2376 1.379 . S
C2382 C2379 1.363 . S
C2382 N2380 1.356 . S
C2383 C2377 1.363 . S
C2383 C2378 1.379 . S
C2383 N2381 1.356 . S
N2384 C2376 1.356 . S
N2384 H2390 0.984 . S
N2384 H2391 0.984 . S
N2385 C2378 1.356 . S
N2385 H2388 0.984 . S
N2385 H2389 0.985 . S
H2386 N2381 0.984 . S
H2387 N2381 0.985 . S
H2388 N2385 0.984 . S
H2389 N2385 0.985 . S
H2390 N2384 0.984 . S
H2391 N2384 0.984 . S
H2392 N2380 0.984 . S
H2393 N2380 0.985 . S
C2394 C2395 1.363 . S
C2394 C2400 1.379 . S
C2394 N2402 1.356 . S
C2395 C2394 1.363 . S
C2395 C2401 1.363 . S
C2396 C2397 1.363 . S
C2396 C2401 1.379 . S
C2396 N2403 1.356 . S
C2397 C2396 1.363 . S
C2397 C2400 1.363 . S
N2398 C2400 1.356 . S
N2398 H2410 0.984 . S
N2398 H2411 0.985 . S
N2399 C2401 1.356 . S
N2399 H2404 0.984 . S
N2399 H2405 0.985 . S
C2400 C2394 1.379 . S
C2400 C2397 1.363 . S
C2400 N2398 1.356 . S
C2401 C2395 1.363 . S
C2401 C2396 1.379 . S
C2401 N2399 1.356 . S
N2402 C2394 1.356 . S
N2402 H2408 0.984 . S
N2402 H2409 0.984 . S
N2403 C2396 1.356 . S
N2403 H2406 0.984 . S
N2403 H2407 0.985 . S
H2404 N2399 0.984 . S
H2405 N2399 0.985 . S
H2406 N2403 0.984 . S
H2407 N2403 0.985 . S
H2408 N2402 0.984 . S
H2409 N2402 0.984 . S
H2410 N2398 0.984 . S
H2411 N2398 0.985 . S
C2412 C2413 1.363 . S
C2412 C2418 1.379 . S
C2412 N2420 1.356 . S
C2413 C2412 1.363 . S
C2413 C2419 1.363 . S
C2414 C2415 1.363 . S
C2414 C2419 1.379 . S
C2414 N2421 1.356 . S
C2415 C2414 1.363 . S
C2415 C2418 1.363 . S
N2416 C2418 1.356 . S
N2416 H2428 0.984 . S
N2416 H2429 0.985 . S
N2417 C2419 1.356 . S
N2417 H2422 0.984 . S
N2417 H2423 0.985 . S
C2418 C2412 1.379 . S
C2418 C2415 1.363 . S
C2418 N2416 1.356 . S
C2419 C2413 1.363 . S
C2419 C2414 1.379 . S
C2419 N2417 1.356 . S
N2420 C2412 1.356 . S
N2420 H2426 0.984 . S
N2420 H2427 0.984 . S
N2421 C2414 1.356 . S
N2421 H2424 0.984 . S
N2421 H2425 0.985 . S
H2422 N2417 0.984 . S
H2423 N2417 0.985 . S
H2424 N2421 0.984 . S
H2425 N2421 0.985 . S
H2426 N2420 0.984 . S
H2427 N2420 0.984 . S
H2428 N2416 0.984 . S
H2429 N2416 0.985 . S
C2430 C2431 1.363 . S
C2430 C2436 1.379 . S
C2430 N2438 1.356 . S
C2431 C2430 1.363 . S
C2431 C2437 1.363 . S
C2432 C2433 1.363 . S
C2432 C2437 1.379 . S
C2432 N2439 1.356 . S
C2433 C2432 1.363 . S
C2433 C2436 1.363 . S
N2434 C2436 1.356 1_546 S
N2434 H2446 0.984 . S
N2434 H2447 0.985 . S
N2435 C2437 1.356 . S
N2435 H2440 0.984 . S
N2435 H2441 0.985 . S
C2436 C2430 1.379 . S
C2436 C2433 1.363 . S
C2436 N2434 1.356 1_564 S
C2437 C2431 1.363 . S
C2437 C2432 1.379 . S
C2437 N2435 1.356 . S
N2438 C2430 1.356 . S
N2438 H2444 0.984 1_564 S
N2438 H2445 0.984 . S
N2439 C2432 1.356 . S
N2439 H2442 0.984 . S
N2439 H2443 0.985 . S
H2440 N2435 0.984 . S
H2441 N2435 0.985 . S
H2442 N2439 0.984 . S
H2443 N2439 0.985 . S
H2444 N2438 0.984 1_546 S
H2445 N2438 0.984 . S
H2446 N2434 0.984 . S
H2447 N2434 0.985 . S
C2448 C2449 1.363 . S
C2448 C2454 1.379 . S
C2448 N2456 1.356 . S
C2449 C2448 1.363 . S
C2449 C2455 1.363 . S
C2450 C2451 1.363 . S
C2450 C2455 1.379 . S
C2450 N2457 1.356 . S
C2451 C2450 1.363 . S
C2451 C2454 1.363 . S
N2452 C2454 1.356 . S
N2452 H2464 0.984 . S
N2452 H2465 0.985 . S
N2453 C2455 1.356 . S
N2453 H2458 0.984 . S
N2453 H2459 0.985 . S
C2454 C2448 1.379 . S
C2454 C2451 1.363 . S
C2454 N2452 1.356 . S
C2455 C2449 1.363 . S
C2455 C2450 1.379 . S
C2455 N2453 1.356 . S
N2456 C2448 1.356 . S
N2456 H2462 0.984 . S
N2456 H2463 0.984 . S
N2457 C2450 1.356 . S
N2457 H2460 0.984 . S
N2457 H2461 0.985 . S
H2458 N2453 0.984 . S
H2459 N2453 0.985 . S
H2460 N2457 0.984 . S
H2461 N2457 0.985 . S
H2462 N2456 0.984 . S
H2463 N2456 0.984 . S
H2464 N2452 0.984 . S
H2465 N2452 0.985 . S
C2466 C2467 1.365 . S
C2466 C2472 1.379 . S
C2466 N2474 1.356 . S
C2467 C2466 1.365 . S
C2467 C2473 1.363 . S
C2468 C2469 1.363 . S
C2468 C2473 1.379 . S
C2468 N2475 1.356 . S
C2469 C2468 1.363 . S
C2469 C2472 1.363 . S
N2470 C2472 1.356 . S
N2470 H2482 0.984 . S
N2470 H2483 0.985 . S
N2471 C2473 1.356 1_556 S
N2471 H2476 0.984 . S
N2471 H2477 0.985 . S
C2472 C2466 1.379 . S
C2472 C2469 1.363 . S
C2472 N2470 1.356 . S
C2473 C2467 1.363 . S
C2473 C2468 1.379 . S
C2473 N2471 1.356 1_554 S
N2474 C2466 1.356 . S
N2474 H2480 0.984 . S
N2474 H2481 0.984 1_554 S
N2475 C2468 1.356 . S
N2475 H2478 0.984 . S
N2475 H2479 0.985 . S
H2476 N2471 0.984 . S
H2477 N2471 0.985 . S
H2478 N2475 0.984 . S
H2479 N2475 0.985 . S
H2480 N2474 0.984 . S
H2481 N2474 0.984 1_556 S
H2482 N2470 0.984 . S
H2483 N2470 0.985 . S
C2484 C2485 1.363 . S
C2484 C2490 1.379 . S
C2484 N2492 1.356 . S
C2485 C2484 1.363 . S
C2485 C2491 1.363 . S
C2486 C2487 1.363 . S
C2486 C2491 1.379 . S
C2486 N2493 1.356 . S
C2487 C2486 1.363 . S
C2487 C2490 1.363 . S
N2488 C2490 1.356 . S
N2488 H2500 0.984 . S
N2488 H2501 0.985 . S
N2489 C2491 1.356 . S
N2489 H2494 0.984 . S
N2489 H2495 0.985 . S
C2490 C2484 1.379 . S
C2490 C2487 1.363 . S
C2490 N2488 1.356 . S
C2491 C2485 1.363 . S
C2491 C2486 1.379 . S
C2491 N2489 1.356 . S
N2492 C2484 1.356 . S
N2492 H2498 0.984 . S
N2492 H2499 0.984 . S
N2493 C2486 1.356 . S
N2493 H2496 0.984 . S
N2493 H2497 0.985 . S
H2494 N2489 0.984 . S
H2495 N2489 0.985 . S
H2496 N2493 0.984 . S
H2497 N2493 0.985 . S
H2498 N2492 0.984 . S
H2499 N2492 0.984 . S
H2500 N2488 0.984 . S
H2501 N2488 0.985 . S
C2502 C2503 1.363 . S
C2502 C2508 1.379 . S
C2502 N2510 1.356 . S
C2503 C2502 1.363 . S
C2503 C2509 1.363 . S
C2504 C2505 1.363 . S
C2504 C2509 1.379 . S
C2504 N2511 1.356 . S
C2505 C2504 1.363 . S
C2505 C2508 1.363 . S
N2506 C2508 1.356 . S
N2506 H2518 0.984 . S
N2506 H2519 0.985 . S
N2507 C2509 1.356 . S
N2507 H2512 0.984 . S
N2507 H2513 0.985 . S
C2508 C2502 1.379 . S
C2508 C2505 1.363 . S
C2508 N2506 1.356 . S
C2509 C2503 1.363 . S
C2509 C2504 1.379 . S
C2509 N2507 1.356 . S
N2510 C2502 1.356 . S
N2510 H2516 0.984 . S
N2510 H2517 0.984 . S
N2511 C2504 1.356 . S
N2511 H2514 0.984 . S
N2511 H2515 0.985 . S
H2512 N2507 0.984 . S
H2513 N2507 0.985 . S
H2514 N2511 0.984 . S
H2515 N2511 0.985 . S
H2516 N2510 0.984 . S
H2517 N2510 0.984 . S
H2518 N2506 0.984 . S
H2519 N2506 0.985 . S
C795 C313 1.992 . S
C793 C10 2.035 . S
C811 C23 1.270 . S
C813 C358 1.278 . S
C829 C36 1.930 . S
C831 C382 1.901 . S
C849 N408 1.331 . S
C847 C42 1.308 . S
C865 C18 1.405 . S
C867 N438 1.426 1_455 S
C885 C472 1.820 . S
C883 C31 1.847 . S
C903 C508 1.424 1_556 S
C901 C43 1.417 . S
C919 C5 2.018 . S
C921 C532 1.984 . S
C937 C56 1.179 1_565 S
C939 N326 1.182 . S
C955 C70 1.423 . S
C957 N348 1.445 . S
C975 C388 1.318 . S
C973 C82 1.311 . S
C993 C412 1.975 . S
C991 C96 2.007 . S
C1009 C57 1.472 . S
C1011 C442 1.432 . S
C1029 C478 1.405 . S
C1027 C69 1.394 . S
C1047 N498 1.379 . S
C1045 C83 1.357 . S
C1065 C538 1.967 . S
C1063 C95 1.991 . S
C1083 C339 1.914 . S
C1081 C94 1.947 . S
C1101 C568 1.284 . S
C1099 C108 1.274 . S
C1117 C122 1.365 . S
C1119 N588 1.386 . S
C1137 C622 1.801 . S
C1135 C140 1.828 . S
C1153 C55 1.156 . S
C1155 N528 1.159 . S
C1173 N378 1.352 1_565 S
C1171 C68 1.329 . S
C1189 C121 1.348 . S
C1191 C658 1.354 . S
C1209 C682 1.321 . S
C1207 C153 1.356 . S
C1225 C161 1.810 . S
C1227 C322 1.775 1_556 S
C1245 C699 1.025 . S
C1243 C174 1.032 . S
C1261 C186 1.675 . S
C1263 C373 1.633 . S
C1279 C200 1.172 . S
C1281 N656 1.220 . S
C1299 N446 1.279 . S
C1297 C172 1.232 1_455 S
C1317 C583 1.560 . S
C1315 C192 1.599 . S
C1335 C519 1.158 . S
C1333 C198 1.164 . S
C1353 C703 1.761 . S
C1351 C159 1.794 . S
C1371 N318 1.069 . S
C1369 C211 1.064 . S
C1387 C225 1.245 . S
C1389 N686 1.287 . S
C1407 C399 1.052 . S
C1405 C239 1.058 . S
C1423 C251 1.762 . S
C1425 C643 1.719 . S
C1441 C218 1.254 . S
C1443 C433 1.218 . S
C1459 C226 1.134 . S
C1461 C609 1.131 . S
C1479 N506 1.236 . S
C1477 C238 1.203 . S
C1495 C252 1.768 . S
C1497 C729 1.746 . S
C1513 C250 1.721 . S
C1515 C328 1.700 1_565 S
C1531 C264 1.022 . S
C1533 C579 1.020 . S
C1549 C276 1.205 . S
C1551 N476 1.250 . S
C1567 C290 1.592 . S
C1569 C613 1.551 . S
C1587 N716 1.033 . S
C1585 C213 1.028 1_565 S
C1605 N386 1.235 . S
C1603 C224 1.188 . S
C1623 C429 1.084 . S
C1621 C283 1.090 . S
C1641 C343 1.100 . S
C1639 C303 1.137 . S
C1657 C29 2.044 . S
C1659 C733 1.998 . S
C1677 C688 1.278 . S
C1675 C49 1.269 . S
C1695 C772 1.906 . S
C1693 C3 1.937 . S
C1711 C16 1.308 1_655 S
C1713 N648 1.331 . S
C1729 C44 1.405 . S
C1731 N558 1.426 1_556 S
C1749 C592 1.814 . S
C1747 C4 1.839 . S
C1767 C628 1.425 . S
C1765 C17 1.417 . S
C1785 C712 1.978 . S
C1783 C30 2.008 . S
C1803 N746 1.183 . S
C1801 C147 1.182 . S
C1819 C107 1.425 1_556 S
C1821 N678 1.447 . S
C1837 C127 1.313 . S
C1839 C778 1.320 1_655 S
C1857 C652 1.977 . S
C1855 C135 2.009 . S
C1875 C562 1.430 . S
C1873 C148 1.470 . S
C1891 C114 1.391 . S
C1893 C598 1.403 . S
C1911 N618 1.377 1_655 S
C1909 C120 1.355 . S
C1927 C134 1.990 . S
C1929 C718 1.966 . S
C1947 C759 1.915 . S
C1945 C133 1.947 . S
C1965 C448 1.286 1_565 S
C1963 C75 1.276 . S
C1983 N468 1.385 . S
C1981 C81 1.365 1_565 S
C1999 C101 1.830 . S
C2001 C502 1.803 . S
C2019 N708 1.159 . S
C2017 C146 1.156 . S
C2035 C109 1.328 . S
C2037 N768 1.352 . S
C2055 C418 1.352 . S
C2053 C88 1.346 . S
C2073 C352 1.319 . S
C2071 C62 1.354 . S
C2089 C187 1.810 . S
C2091 C742 1.775 . S
C2109 C369 1.017 . S
C2107 C199 1.019 . S
C2127 C763 1.634 1_556 S
C2125 C160 1.676 . S
C2143 C173 1.169 . S
C2145 N416 1.208 . S
C2161 C205 1.230 . S
C2163 N566 1.270 . S
C2179 C166 1.599 . S
C2181 C463 1.560 . S
C2197 C179 1.154 . S
C2199 C639 1.149 . S
C2215 C185 1.794 . S
C2217 C523 1.761 . S
C2235 N738 1.070 . S
C2233 C302 1.065 . S
C2251 C270 1.249 . S
C2253 N356 1.289 . S
C2271 C789 1.053 . S
C2269 C278 1.058 . S
C2287 C296 1.765 . S
C2289 C403 1.723 . S
C2305 C309 1.258 . S
C2307 C553 1.223 . S
C2325 C489 1.131 . S
C2323 C263 1.138 . S
C2341 C277 1.201 . S
C2343 N626 1.240 . S
C2361 C549 1.747 . S
C2359 C289 1.769 . S
C2379 C748 1.699 . S
C2377 C291 1.721 . S
C2397 C459 1.020 . S
C2395 C231 1.021 . S
C2413 C237 1.205 . S
C2415 N596 1.249 . S
C2433 C493 1.548 1_565 S
C2431 C257 1.589 . S
C2451 N536 1.033 . S
C2449 C304 1.028 . S
C2467 C265 1.188 1_554 S
C2469 N776 1.235 . S
C2487 C669 1.082 . S
C2485 C244 1.088 . S
C2505 C673 1.096 . S
C2503 C212 1.134 . S
