# Generated by pormake.
# Topology ocu, (6,8)-cn, num edge types: 1
# Building blocks:
#     Node 0, Type 0, BuildingBlock: KUMJIN_clean_sbu_1, # of connection points: 6
#     Node 1, Type 0, BuildingBlock: KUMJIN_clean_sbu_1, # of connection points: 6
#     Node 2, Type 0, BuildingBlock: KUMJIN_clean_sbu_1, # of connection points: 6
#     Node 3, Type 0, BuildingBlock: KUMJIN_clean_sbu_1, # of connection points: 6
#     Node 4, Type 0, BuildingBlock: KUMJIN_clean_sbu_1, # of connection points: 6
#     Node 5, Type 0, BuildingBlock: KUMJIN_clean_sbu_1, # of connection points: 6
#     Node 6, Type 0, BuildingBlock: KUMJIN_clean_sbu_1, # of connection points: 6
#     Node 7, Type 0, BuildingBlock: KUMJIN_clean_sbu_1, # of connection points: 6
#     Node 8, Type 1, BuildingBlock: GIZVER_clean_sbu_0, # of connection points: 8
#     Node 9, Type 1, BuildingBlock: GIZVER_clean_sbu_0, # of connection points: 8
#     Node 10, Type 1, BuildingBlock: GIZVER_clean_sbu_0, # of connection points: 8
#     Node 11, Type 1, BuildingBlock: GIZVER_clean_sbu_0, # of connection points: 8
#     Node 12, Type 1, BuildingBlock: GIZVER_clean_sbu_0, # of connection points: 8
#     Node 13, Type 1, BuildingBlock: GIZVER_clean_sbu_0, # of connection points: 8
#     Edge 14, Type (0, 1), BuildingBlock: XIVTED_clean_linker_0, # of connection points: 2
#     Edge 15, Type (0, 1), BuildingBlock: XIVTED_clean_linker_0, # of connection points: 2
#     Edge 16, Type (0, 1), BuildingBlock: XIVTED_clean_linker_0, # of connection points: 2
#     Edge 17, Type (0, 1), BuildingBlock: XIVTED_clean_linker_0, # of connection points: 2
#     Edge 18, Type (0, 1), BuildingBlock: XIVTED_clean_linker_0, # of connection points: 2
#     Edge 19, Type (0, 1), BuildingBlock: XIVTED_clean_linker_0, # of connection points: 2
#     Edge 20, Type (0, 1), BuildingBlock: XIVTED_clean_linker_0, # of connection points: 2
#     Edge 21, Type (0, 1), BuildingBlock: XIVTED_clean_linker_0, # of connection points: 2
#     Edge 22, Type (0, 1), BuildingBlock: XIVTED_clean_linker_0, # of connection points: 2
#     Edge 23, Type (0, 1), BuildingBlock: XIVTED_clean_linker_0, # of connection points: 2
#     Edge 24, Type (0, 1), BuildingBlock: XIVTED_clean_linker_0, # of connection points: 2
#     Edge 25, Type (0, 1), BuildingBlock: XIVTED_clean_linker_0, # of connection points: 2
#     Edge 26, Type (0, 1), BuildingBlock: XIVTED_clean_linker_0, # of connection points: 2
#     Edge 27, Type (0, 1), BuildingBlock: XIVTED_clean_linker_0, # of connection points: 2
#     Edge 28, Type (0, 1), BuildingBlock: XIVTED_clean_linker_0, # of connection points: 2
#     Edge 29, Type (0, 1), BuildingBlock: XIVTED_clean_linker_0, # of connection points: 2
#     Edge 30, Type (0, 1), BuildingBlock: XIVTED_clean_linker_0, # of connection points: 2
#     Edge 31, Type (0, 1), BuildingBlock: XIVTED_clean_linker_0, # of connection points: 2
#     Edge 32, Type (0, 1), BuildingBlock: XIVTED_clean_linker_0, # of connection points: 2
#     Edge 33, Type (0, 1), BuildingBlock: XIVTED_clean_linker_0, # of connection points: 2
#     Edge 34, Type (0, 1), BuildingBlock: XIVTED_clean_linker_0, # of connection points: 2
#     Edge 35, Type (0, 1), BuildingBlock: XIVTED_clean_linker_0, # of connection points: 2
#     Edge 36, Type (0, 1), BuildingBlock: XIVTED_clean_linker_0, # of connection points: 2
#     Edge 37, Type (0, 1), BuildingBlock: XIVTED_clean_linker_0, # of connection points: 2
#     Edge 38, Type (0, 1), BuildingBlock: XIVTED_clean_linker_0, # of connection points: 2
#     Edge 39, Type (0, 1), BuildingBlock: XIVTED_clean_linker_0, # of connection points: 2
#     Edge 40, Type (0, 1), BuildingBlock: XIVTED_clean_linker_0, # of connection points: 2
#     Edge 41, Type (0, 1), BuildingBlock: XIVTED_clean_linker_0, # of connection points: 2
#     Edge 42, Type (0, 1), BuildingBlock: XIVTED_clean_linker_0, # of connection points: 2
#     Edge 43, Type (0, 1), BuildingBlock: XIVTED_clean_linker_0, # of connection points: 2
#     Edge 44, Type (0, 1), BuildingBlock: XIVTED_clean_linker_0, # of connection points: 2
#     Edge 45, Type (0, 1), BuildingBlock: XIVTED_clean_linker_0, # of connection points: 2
#     Edge 46, Type (0, 1), BuildingBlock: XIVTED_clean_linker_0, # of connection points: 2
#     Edge 47, Type (0, 1), BuildingBlock: XIVTED_clean_linker_0, # of connection points: 2
#     Edge 48, Type (0, 1), BuildingBlock: XIVTED_clean_linker_0, # of connection points: 2
#     Edge 49, Type (0, 1), BuildingBlock: XIVTED_clean_linker_0, # of connection points: 2
#     Edge 50, Type (0, 1), BuildingBlock: XIVTED_clean_linker_0, # of connection points: 2
#     Edge 51, Type (0, 1), BuildingBlock: XIVTED_clean_linker_0, # of connection points: 2
#     Edge 52, Type (0, 1), BuildingBlock: XIVTED_clean_linker_0, # of connection points: 2
#     Edge 53, Type (0, 1), BuildingBlock: XIVTED_clean_linker_0, # of connection points: 2
#     Edge 54, Type (0, 1), BuildingBlock: XIVTED_clean_linker_0, # of connection points: 2
#     Edge 55, Type (0, 1), BuildingBlock: XIVTED_clean_linker_0, # of connection points: 2
#     Edge 56, Type (0, 1), BuildingBlock: XIVTED_clean_linker_0, # of connection points: 2
#     Edge 57, Type (0, 1), BuildingBlock: XIVTED_clean_linker_0, # of connection points: 2
#     Edge 58, Type (0, 1), BuildingBlock: XIVTED_clean_linker_0, # of connection points: 2
#     Edge 59, Type (0, 1), BuildingBlock: XIVTED_clean_linker_0, # of connection points: 2
#     Edge 60, Type (0, 1), BuildingBlock: XIVTED_clean_linker_0, # of connection points: 2
#     Edge 61, Type (0, 1), BuildingBlock: XIVTED_clean_linker_0, # of connection points: 2
# Relax obj value: 0.165
# Max RMSD: 0.210
# Mean RMSD: 0.171
data_MOF--net-ocu--node1-KUMJIN_clean_sbu_1--node2-GIZVER_clean_sbu_0--edge1-XIVTED_clean_linker_0
_symmetry_space_group_name_H-M    P1
_symmetry_Int_Tables_number       1
_symmetry_cell_setting            triclinic
loop_
_symmetry_equiv_pos_as_xyz
'x, y, z'
_cell_length_a     42.882986
_cell_length_b     45.079775
_cell_length_c     35.107832
_cell_angle_alpha  100.62055
_cell_angle_beta   79.626582
_cell_angle_gamma 111.41496
loop_
_atom_site_label
_atom_site_type_symbol
_atom_site_fract_x
_atom_site_fract_y
_atom_site_fract_z
_atom_type_partial_charge
Eu0 Eu 0.26058 0.25574 0.21181 0.0
C1 C 0.33526 0.35469 0.34526 0.0
N2 N 0.3486 0.34378 0.30963 0.0
C3 C 0.38735 0.3969 0.30184 0.0
C4 C 0.34738 0.38754 0.36028 0.0
C5 C 0.37462 0.36415 0.28812 0.0
C6 C 0.37364 0.40867 0.33801 0.0
C7 C 0.29424 0.34392 0.40319 0.0
C8 C 0.3088 0.33305 0.36648 0.0
C9 C 0.30643 0.3766 0.4182 0.0
C10 C 0.33286 0.39832 0.39681 0.0
Eu11 Eu 0.32557 0.28809 0.2899 0.0
N12 N 0.29663 0.30164 0.35069 0.0
C13 C 0.26773 0.32163 0.42371 0.0
C14 C 0.2717 0.27966 0.37126 0.0
C15 C 0.25661 0.28934 0.40779 0.0
H16 H 0.38612 0.35511 0.26075 0.0
H17 H 0.23662 0.27182 0.42383 0.0
H18 H 0.19701 0.18873 0.2338 0.0
H19 H 0.35382 0.27565 0.08158 0.0
H20 H 0.26377 0.25457 0.36017 0.0
H21 H 0.25594 0.32903 0.45203 0.0
H22 H 0.32224 0.29147 0.14263 0.0
H23 H 0.40793 0.413 0.28465 0.0
H24 H 0.29549 0.38534 0.44631 0.0
H25 H 0.34186 0.42347 0.40877 0.0
H26 H 0.17574 0.13115 0.20773 0.0
H27 H 0.3836 0.43407 0.34854 0.0
H28 H 0.33808 0.21851 0.05333 0.0
N29 N 0.23759 0.20067 0.18841 0.0
C30 C 0.25306 0.19035 0.15395 0.0
C31 C 0.19765 0.14749 0.19246 0.0
C32 C 0.24157 0.15777 0.13768 0.0
C33 C 0.20997 0.18 0.20748 0.0
C34 C 0.21361 0.13628 0.15752 0.0
N35 N 0.29139 0.24372 0.1515 0.0
C36 C 0.31626 0.26643 0.1319 0.0
C37 C 0.29723 0.20238 0.0992 0.0
C38 C 0.28064 0.21245 0.13491 0.0
C39 C 0.32447 0.22532 0.08053 0.0
C40 C 0.33365 0.25756 0.09661 0.0
H41 H 0.20401 0.11107 0.14595 0.0
H42 H 0.24986 0.12272 0.08943 0.0
H43 H 0.29856 0.16177 0.05577 0.0
O44 O 0.24859 0.2863 0.17925 0.0
O45 O 0.29604 0.22722 0.21053 0.0
O46 O 0.34465 0.26497 0.23117 0.0
O47 O 0.21039 0.2416 0.19372 0.0
O48 O 0.29838 0.30711 0.21319 0.0
O49 O 0.34619 0.3043 0.23055 0.0
O50 O 0.33928 0.25923 0.32354 0.0
O51 O 0.28821 0.31508 0.29303 0.0
O52 O 0.24034 0.27688 0.27109 0.0
O53 O 0.3752 0.3051 0.30972 0.0
O54 O 0.28755 0.23729 0.2912 0.0
O55 O 0.2393 0.23627 0.2697 0.0
C56 C 0.32879 0.23678 0.21227 0.0
C57 C 0.20752 0.26043 0.13601 0.0
C58 C 0.18295 0.27664 0.08901 0.0
C59 C 0.18607 0.25019 0.06219 0.0
C60 C 0.21034 0.23423 0.10886 0.0
C61 C 0.19982 0.22929 0.07208 0.0
C62 C 0.19421 0.28166 0.12581 0.0
C63 C 0.3313 0.31787 0.21317 0.0
C64 C 0.21817 0.2663 0.17514 0.0
C65 C 0.25828 0.14768 0.1023 0.0
C66 C 0.28604 0.1699 0.08313 0.0
C67 C 0.25543 0.30485 0.29095 0.0
C68 C 0.39716 0.26493 0.31403 0.0
C69 C 0.42799 0.23401 0.33098 0.0
C70 C 0.4494 0.23923 0.29562 0.0
C71 C 0.41889 0.26986 0.27893 0.0
C72 C 0.40171 0.24685 0.33987 0.0
C73 C 0.44474 0.25694 0.26978 0.0
C74 C 0.2548 0.22481 0.28942 0.0
C75 C 0.37021 0.27906 0.32446 0.0
H76 H 0.17735 0.24522 0.03383 0.0
H77 H 0.22045 0.21754 0.11606 0.0
H78 H 0.20199 0.20898 0.05128 0.0
H79 H 0.19286 0.30223 0.14671 0.0
H80 H 0.46952 0.22927 0.2877 0.0
H81 H 0.416 0.28386 0.2587 0.0
H82 H 0.38517 0.24331 0.36716 0.0
H83 H 0.46129 0.26072 0.24258 0.0
Eu84 Eu 0.7421 0.29261 0.28147 0.0
C85 C 0.86368 0.24831 0.17759 0.0
N86 N 0.83553 0.22992 0.19821 0.0
C87 C 0.8308 0.18536 0.14768 0.0
C88 C 0.87635 0.2359 0.14069 0.0
C89 C 0.81924 0.1987 0.1842 0.0
C90 C 0.85938 0.20407 0.12573 0.0
C91 C 0.90976 0.29917 0.17339 0.0
C92 C 0.88016 0.27955 0.19367 0.0
C93 C 0.9222 0.28707 0.13637 0.0
C94 C 0.90555 0.25552 0.12006 0.0
Eu95 Eu 0.81693 0.25493 0.25852 0.0
N96 N 0.86709 0.29082 0.22916 0.0
C97 C 0.92604 0.33029 0.19107 0.0
C98 C 0.88379 0.32044 0.24744 0.0
C99 C 0.91319 0.34084 0.22845 0.0
H100 H 0.79745 0.18401 0.20137 0.0
H101 H 0.92595 0.36462 0.24269 0.0
H102 H 0.7596 0.33965 0.36668 0.0
H103 H 0.63297 0.18578 0.24803 0.0
H104 H 0.8742 0.32842 0.27641 0.0
H105 H 0.94879 0.34616 0.1764 0.0
H106 H 0.68598 0.22993 0.23297 0.0
H107 H 0.81773 0.16063 0.13655 0.0
H108 H 0.94482 0.30183 0.12024 0.0
H109 H 0.91558 0.24644 0.0916 0.0
H110 H 0.73469 0.34133 0.43581 0.0
H111 H 0.86831 0.19365 0.09747 0.0
H112 H 0.60588 0.18265 0.31631 0.0
N113 N 0.72081 0.29665 0.34818 0.0
C114 C 0.69082 0.27363 0.3584 0.0
C115 C 0.7222 0.3221 0.41435 0.0
C116 C 0.67558 0.27386 0.39749 0.0
C117 C 0.73641 0.32093 0.37523 0.0
C118 C 0.69173 0.29843 0.42556 0.0
N119 N 0.69106 0.24947 0.29218 0.0
C120 C 0.67551 0.22781 0.26292 0.0
C121 C 0.64462 0.2252 0.33955 0.0
C122 C 0.67562 0.24937 0.32968 0.0
C123 C 0.62963 0.20166 0.3099 0.0
C124 C 0.64495 0.20322 0.27135 0.0
H125 H 0.68083 0.29942 0.45591 0.0
H126 H 0.63289 0.24932 0.43729 0.0
H127 H 0.60577 0.20687 0.38662 0.0
O128 O 0.71244 0.30142 0.24315 0.0
O129 O 0.74584 0.25834 0.31997 0.0
O130 O 0.76555 0.22154 0.27928 0.0
O131 O 0.72253 0.33234 0.29769 0.0
O132 O 0.74825 0.26313 0.22212 0.0
O133 O 0.7691 0.22458 0.23122 0.0
O134 O 0.84742 0.26144 0.30478 0.0
O135 O 0.81925 0.29022 0.21836 0.0
O136 O 0.79117 0.32464 0.25135 0.0
O137 O 0.83589 0.21728 0.26495 0.0
O138 O 0.80996 0.28809 0.31452 0.0
O139 O 0.79108 0.32651 0.30253 0.0
C140 C 0.74471 0.22858 0.3086 0.0
C141 C 0.67154 0.32454 0.27342 0.0
C142 C 0.628 0.33945 0.25379 0.0
C143 C 0.60451 0.32279 0.28281 0.0
C144 C 0.64792 0.30866 0.30275 0.0
C145 C 0.61452 0.30755 0.30715 0.0
C146 C 0.66146 0.33986 0.24904 0.0
C147 C 0.75182 0.23475 0.21225 0.0
C148 C 0.7066 0.32507 0.26712 0.0
C149 C 0.64491 0.24958 0.40737 0.0
C150 C 0.62948 0.22536 0.37851 0.0
C151 C 0.81291 0.31723 0.22313 0.0
C152 C 0.84136 0.21466 0.33001 0.0
C153 C 0.85925 0.18958 0.37416 0.0
C154 C 0.82735 0.1835 0.39648 0.0
C155 C 0.80976 0.20838 0.35273 0.0
C156 C 0.86599 0.20509 0.34065 0.0
C157 C 0.80279 0.19277 0.38569 0.0
C158 C 0.81194 0.31819 0.31791 0.0
C159 C 0.84934 0.23271 0.29652 0.0
H160 H 0.57868 0.32232 0.28744 0.0
H161 H 0.6552 0.29732 0.32238 0.0
H162 H 0.59643 0.29518 0.32982 0.0
H163 H 0.67975 0.35212 0.22634 0.0
H164 H 0.82124 0.17125 0.42207 0.0
H165 H 0.79067 0.21593 0.34527 0.0
H166 H 0.89058 0.21039 0.32341 0.0
H167 H 0.77832 0.18798 0.40306 0.0
Eu168 Eu 0.77236 0.74154 0.2946 0.0
C169 C 0.87443 0.81312 0.16072 0.0
N170 N 0.86011 0.82708 0.19343 0.0
C171 C 0.91243 0.87066 0.19971 0.0
C172 C 0.90874 0.82743 0.14653 0.0
C173 C 0.87829 0.85573 0.21257 0.0
C174 C 0.92777 0.85638 0.1667 0.0
C175 C 0.86865 0.77005 0.10645 0.0
C176 C 0.85464 0.78462 0.1409 0.0
C177 C 0.90289 0.78409 0.09256 0.0
C178 C 0.92287 0.81265 0.11258 0.0
Eu179 Eu 0.80259 0.79942 0.21281 0.0
N180 N 0.82162 0.77118 0.15532 0.0
C181 C 0.84773 0.74195 0.08672 0.0
C182 C 0.80078 0.74473 0.13524 0.0
C183 C 0.81357 0.72943 0.10099 0.0
H184 H 0.86637 0.86744 0.23731 0.0
H185 H 0.79703 0.70814 0.08546 0.0
H186 H 0.71032 0.67281 0.26718 0.0
H187 H 0.77845 0.82319 0.43066 0.0
H188 H 0.77431 0.73547 0.14544 0.0
H189 H 0.85754 0.73008 0.06013 0.0
H190 H 0.79928 0.80298 0.3645 0.0
H191 H 0.92681 0.89333 0.21507 0.0
H192 H 0.9141 0.77318 0.0662 0.0
H193 H 0.9492 0.8233 0.10133 0.0
H194 H 0.65173 0.64228 0.29137 0.0
H195 H 0.9542 0.86812 0.15672 0.0
H196 H 0.72051 0.79483 0.46021 0.0
N197 N 0.71604 0.71031 0.31481 0.0
C198 C 0.70235 0.72063 0.35049 0.0
C199 C 0.66555 0.66446 0.30809 0.0
C200 C 0.66935 0.7032 0.36622 0.0
C201 C 0.69856 0.6822 0.29403 0.0
C202 C 0.65078 0.6751 0.34423 0.0
N203 N 0.75323 0.76485 0.35581 0.0
C204 C 0.7738 0.79099 0.37668 0.0
C205 C 0.70885 0.75863 0.40988 0.0
C206 C 0.72174 0.7482 0.37195 0.0
C207 C 0.72947 0.78608 0.431 0.0
C208 C 0.76213 0.80224 0.41436 0.0
H209 H 0.62534 0.66107 0.35526 0.0
H210 H 0.63087 0.70086 0.41608 0.0
H211 H 0.66554 0.74926 0.45441 0.0
O212 O 0.81099 0.73955 0.32591 0.0
O213 O 0.74548 0.77915 0.30286 0.0
O214 O 0.77933 0.82185 0.26903 0.0
O215 O 0.7659 0.69798 0.31863 0.0
O216 O 0.82487 0.78005 0.2909 0.0
O217 O 0.8222 0.82435 0.27059 0.0
O218 O 0.766 0.80289 0.17968 0.0
O219 O 0.83108 0.76442 0.21243 0.0
O220 O 0.79179 0.71935 0.23562 0.0
O221 O 0.81327 0.8423 0.18475 0.0
O222 O 0.74908 0.76287 0.21675 0.0
O223 O 0.75096 0.71837 0.23723 0.0
C224 C 0.75322 0.80877 0.29444 0.0
C225 C 0.81684 0.68901 0.31869 0.0
C226 C 0.85911 0.66989 0.33352 0.0
C227 C 0.86005 0.65321 0.29554 0.0
C228 C 0.81753 0.67159 0.28127 0.0
C229 C 0.83924 0.65398 0.26969 0.0
C230 C 0.8375 0.68796 0.34483 0.0
C231 C 0.83359 0.81141 0.29327 0.0
C232 C 0.79573 0.70933 0.33025 0.0
C233 C 0.65616 0.71395 0.40359 0.0
C234 C 0.67592 0.74149 0.42544 0.0
C235 C 0.82051 0.7333 0.21476 0.0
C236 C 0.78654 0.83414 0.12789 0.0
C237 C 0.76193 0.84718 0.07833 0.0
C238 C 0.78521 0.83816 0.04935 0.0
C239 C 0.80991 0.8257 0.09866 0.0
C240 C 0.76267 0.84476 0.11757 0.0
C241 C 0.8091 0.82758 0.05956 0.0
C242 C 0.73894 0.73157 0.2156 0.0
C243 C 0.78518 0.83071 0.16911 0.0
H244 H 0.87615 0.6388 0.28621 0.0
H245 H 0.80124 0.6716 0.2611 0.0
H246 H 0.83972 0.64064 0.24074 0.0
H247 H 0.83688 0.70133 0.37382 0.0
H248 H 0.78545 0.8399 0.01896 0.0
H249 H 0.82862 0.81761 0.10591 0.0
H250 H 0.74435 0.85083 0.14022 0.0
H251 H 0.82715 0.82095 0.0371 0.0
Eu252 Eu 0.25452 0.78698 0.2611 0.0
C253 C 0.3803 0.73607 0.27815 0.0
N254 N 0.37898 0.75966 0.26033 0.0
C255 C 0.43298 0.79404 0.27897 0.0
C256 C 0.40758 0.74078 0.29844 0.0
C257 C 0.40542 0.7879 0.25889 0.0
C258 C 0.43382 0.77054 0.29942 0.0
C259 C 0.35704 0.68021 0.2884 0.0
C260 C 0.35558 0.70644 0.27318 0.0
C261 C 0.38303 0.68502 0.31068 0.0
C262 C 0.40832 0.71531 0.31569 0.0
Eu263 Eu 0.32993 0.74979 0.23123 0.0
N264 N 0.33155 0.70276 0.25074 0.0
C265 C 0.33308 0.64983 0.27949 0.0
C266 C 0.30951 0.6729 0.23984 0.0
C267 C 0.30952 0.64608 0.25457 0.0
H268 H 0.40485 0.80593 0.24279 0.0
H269 H 0.29143 0.62257 0.24661 0.0
H270 H 0.24428 0.80191 0.17536 0.0
H271 H 0.24879 0.86058 0.40345 0.0
H272 H 0.29143 0.66985 0.22035 0.0
H273 H 0.33324 0.62901 0.29062 0.0
H274 H 0.24472 0.81071 0.35847 0.0
H275 H 0.45355 0.81681 0.27859 0.0
H276 H 0.38442 0.66528 0.32303 0.0
H277 H 0.42885 0.71849 0.33182 0.0
H278 H 0.24782 0.84807 0.14407 0.0
H279 H 0.45527 0.77521 0.31471 0.0
H280 H 0.25915 0.91113 0.37728 0.0
N281 N 0.25351 0.82933 0.23077 0.0
C282 C 0.25787 0.85819 0.25284 0.0
C283 C 0.25083 0.85132 0.17468 0.0
C284 C 0.25996 0.88524 0.23641 0.0
C285 C 0.24871 0.8252 0.19248 0.0
C286 C 0.25698 0.88161 0.19662 0.0
N287 N 0.2538 0.83285 0.30711 0.0
C288 C 0.24919 0.8326 0.34661 0.0
C289 C 0.26022 0.88907 0.31702 0.0
C290 C 0.25802 0.86003 0.29241 0.0
C291 C 0.25754 0.88933 0.35737 0.0
C292 C 0.25157 0.86084 0.37224 0.0
H293 H 0.25849 0.9018 0.18285 0.0
H294 H 0.26589 0.93582 0.24828 0.0
H295 H 0.26611 0.93917 0.31905 0.0
O296 O 0.20157 0.78286 0.26706 0.0
O297 O 0.29533 0.80229 0.21018 0.0
O298 O 0.34307 0.80333 0.23092 0.0
O299 O 0.21411 0.73996 0.25817 0.0
O300 O 0.2907 0.80205 0.30755 0.0
O301 O 0.34037 0.79267 0.27895 0.0
O302 O 0.32923 0.7542 0.17082 0.0
O303 O 0.28091 0.72083 0.26508 0.0
O304 O 0.26129 0.7586 0.30449 0.0
O305 O 0.36614 0.73689 0.18466 0.0
O306 O 0.27792 0.72005 0.2142 0.0
O307 O 0.267 0.76222 0.20142 0.0
C308 C 0.32731 0.81688 0.21474 0.0
C309 C 0.16481 0.73954 0.29917 0.0
C310 C 0.14563 0.74817 0.36858 0.0
C311 C 0.1145 0.72369 0.36244 0.0
C312 C 0.13378 0.71544 0.2932 0.0
C313 C 0.10901 0.70694 0.32505 0.0
C314 C 0.17134 0.7538 0.337 0.0
C315 C 0.32303 0.80656 0.30674 0.0
C316 C 0.18998 0.75174 0.26638 0.0
C317 C 0.26388 0.91466 0.2604 0.0
C318 C 0.26401 0.91657 0.30068 0.0
C319 C 0.26156 0.72903 0.29575 0.0
C320 C 0.37987 0.76464 0.12919 0.0
C321 C 0.4076 0.76722 0.06227 0.0
C322 C 0.42191 0.80083 0.07087 0.0
C323 C 0.39501 0.798 0.13772 0.0
C324 C 0.38636 0.74946 0.0918 0.0
C325 C 0.41565 0.81605 0.10848 0.0
C326 C 0.26102 0.73124 0.19645 0.0
C327 C 0.35508 0.74526 0.15753 0.0
H328 H 0.09378 0.71855 0.38574 0.0
H329 H 0.12853 0.70371 0.26406 0.0
H330 H 0.08487 0.68849 0.32045 0.0
H331 H 0.19607 0.77112 0.34109 0.0
H332 H 0.43829 0.81524 0.04881 0.0
H333 H 0.39071 0.80997 0.16674 0.0
H334 H 0.37533 0.72351 0.08622 0.0
H335 H 0.42699 0.84187 0.11503 0.0
Eu336 Eu 0.25534 0.77716 0.77177 0.0
C337 C 0.38175 0.76753 0.66586 0.0
N338 N 0.35261 0.74315 0.67491 0.0
C339 C 0.35127 0.72134 0.6074 0.0
C340 C 0.39656 0.7699 0.62678 0.0
C341 C 0.33753 0.71992 0.64656 0.0
C342 C 0.38083 0.74649 0.59743 0.0
C343 C 0.42697 0.81574 0.68736 0.0
C344 C 0.39661 0.79037 0.6959 0.0
C345 C 0.44151 0.8184 0.6484 0.0
C346 C 0.42638 0.79555 0.61822 0.0
Eu347 Eu 0.33172 0.74257 0.7418 0.0
N348 N 0.38189 0.78732 0.73343 0.0
C349 C 0.44222 0.83731 0.71833 0.0
C350 C 0.39837 0.80646 0.76363 0.0
C351 C 0.42816 0.83228 0.75667 0.0
H352 H 0.31512 0.70011 0.65415 0.0
H353 H 0.4407 0.84779 0.78089 0.0
H354 H 0.27563 0.84618 0.8328 0.0
H355 H 0.14856 0.66568 0.78504 0.0
H356 H 0.38947 0.80111 0.79299 0.0
H357 H 0.4655 0.85715 0.71299 0.0
H358 H 0.20064 0.70264 0.75292 0.0
H359 H 0.33915 0.70294 0.58494 0.0
H360 H 0.46467 0.83788 0.64133 0.0
H361 H 0.43801 0.79787 0.58834 0.0
H362 H 0.25543 0.86747 0.8988 0.0
H363 H 0.3914 0.74751 0.56705 0.0
H364 H 0.12461 0.68285 0.85128 0.0
N365 N 0.23787 0.7999 0.83417 0.0
C366 C 0.20982 0.78078 0.85418 0.0
C367 C 0.24247 0.843 0.88667 0.0
C368 C 0.19703 0.79212 0.89163 0.0
C369 C 0.25404 0.83078 0.84948 0.0
C370 C 0.2139 0.82356 0.90791 0.0
N371 N 0.20685 0.73951 0.8011 0.0
C372 C 0.19067 0.71008 0.782 0.0
C373 C 0.16382 0.72968 0.85637 0.0
C374 C 0.19355 0.74987 0.83693 0.0
C375 C 0.14764 0.699 0.83746 0.0
C376 C 0.16108 0.68921 0.80005 0.0
H377 H 0.20489 0.83316 0.93663 0.0
H378 H 0.15758 0.78016 0.94026 0.0
H379 H 0.12844 0.72555 0.90931 0.0
O380 O 0.21884 0.76967 0.73238 0.0
O381 O 0.25811 0.74342 0.81096 0.0
O382 O 0.28392 0.70913 0.77287 0.0
O383 O 0.23667 0.8157 0.76795 0.0
O384 O 0.25872 0.74431 0.7145 0.0
O385 O 0.28284 0.70788 0.72139 0.0
O386 O 0.36296 0.73176 0.77617 0.0
O387 O 0.32313 0.77458 0.70396 0.0
O388 O 0.30465 0.8112 0.7464 0.0
O389 O 0.35191 0.70368 0.72021 0.0
O390 O 0.3273 0.77162 0.80201 0.0
O391 O 0.30459 0.80915 0.79461 0.0
C392 C 0.26315 0.71569 0.80298 0.0
C393 C 0.22279 0.81454 0.70523 0.0
C394 C 0.19912 0.8375 0.66491 0.0
C395 C 0.22632 0.83817 0.63555 0.0
C396 C 0.24994 0.81559 0.6758 0.0
C397 C 0.25169 0.82746 0.64116 0.0
C398 C 0.19762 0.82576 0.69986 0.0
C399 C 0.26057 0.71526 0.70731 0.0
C400 C 0.21881 0.79904 0.73988 0.0
C401 C 0.16775 0.77188 0.91144 0.0
C402 C 0.15114 0.74078 0.89381 0.0
C403 C 0.32385 0.80419 0.71526 0.0
C404 C 0.40457 0.71171 0.74042 0.0
C405 C 0.45101 0.69873 0.75563 0.0
C406 C 0.47256 0.71608 0.726 0.0
C407 C 0.42618 0.72824 0.71027 0.0
C408 C 0.41712 0.69713 0.76302 0.0
C409 C 0.46009 0.7307 0.70342 0.0
C410 C 0.32369 0.79998 0.812 0.0
C411 C 0.36907 0.7097 0.74947 0.0
H412 H 0.22821 0.84744 0.60855 0.0
H413 H 0.26934 0.80661 0.67929 0.0
H414 H 0.27262 0.82813 0.61849 0.0
H415 H 0.17645 0.82458 0.72243 0.0
H416 H 0.49868 0.71747 0.71948 0.0
H417 H 0.41697 0.73902 0.69189 0.0
H418 H 0.40038 0.68436 0.78633 0.0
H419 H 0.47663 0.74358 0.68017 0.0
Eu420 Eu 0.27673 0.23605 0.80404 0.0
C421 C 0.37613 0.30106 0.66304 0.0
N422 N 0.36326 0.31648 0.69553 0.0
C423 C 0.41617 0.35987 0.69725 0.0
C424 C 0.40996 0.31447 0.64663 0.0
C425 C 0.38246 0.34571 0.71241 0.0
C426 C 0.43005 0.34411 0.66436 0.0
C427 C 0.36775 0.25571 0.61161 0.0
C428 C 0.35529 0.27192 0.64575 0.0
C429 C 0.40155 0.26881 0.59554 0.0
C430 C 0.4226 0.29808 0.61302 0.0
Eu431 Eu 0.30661 0.28992 0.71961 0.0
N432 N 0.32279 0.25942 0.66238 0.0
C433 C 0.34576 0.22691 0.59445 0.0
C434 C 0.30084 0.23228 0.64468 0.0
C435 C 0.31208 0.21536 0.61082 0.0
H436 H 0.37161 0.35841 0.73713 0.0
H437 H 0.2947 0.19351 0.59724 0.0
H438 H 0.21237 0.16745 0.7831 0.0
H439 H 0.28508 0.32989 0.9288 0.0
H440 H 0.27469 0.22363 0.65645 0.0
H441 H 0.35438 0.21374 0.56821 0.0
H442 H 0.30657 0.30106 0.86932 0.0
H443 H 0.43136 0.38302 0.71078 0.0
H444 H 0.41161 0.25661 0.56943 0.0
H445 H 0.44856 0.30798 0.6001 0.0
H446 H 0.1522 0.14226 0.80712 0.0
H447 H 0.45616 0.3552 0.65262 0.0
H448 H 0.22489 0.30896 0.95561 0.0
N449 N 0.21952 0.20883 0.82561 0.0
C450 C 0.2058 0.22354 0.85811 0.0
C451 C 0.16693 0.16522 0.82155 0.0
C452 C 0.17168 0.20967 0.87327 0.0
C453 C 0.20091 0.17977 0.80769 0.0
C454 C 0.15218 0.18032 0.85432 0.0
N455 N 0.25887 0.26528 0.86136 0.0
C456 C 0.28025 0.29208 0.88031 0.0
C457 C 0.21273 0.26778 0.91094 0.0
C458 C 0.22607 0.25233 0.87675 0.0
C459 C 0.23417 0.29628 0.92939 0.0
C460 C 0.26815 0.30826 0.91425 0.0
H461 H 0.12587 0.1689 0.86507 0.0
H462 H 0.13198 0.21504 0.91891 0.0
H463 H 0.16789 0.26586 0.95183 0.0
O464 O 0.31582 0.23131 0.83208 0.0
O465 O 0.25037 0.27308 0.80505 0.0
O466 O 0.28971 0.31592 0.77694 0.0
O467 O 0.26612 0.19496 0.83531 0.0
O468 O 0.33014 0.2732 0.80134 0.0
O469 O 0.33 0.31627 0.7752 0.0
O470 O 0.26678 0.29446 0.69272 0.0
O471 O 0.33455 0.25461 0.71972 0.0
O472 O 0.29541 0.21105 0.74648 0.0
O473 O 0.31655 0.33068 0.68801 0.0
O474 O 0.25278 0.25297 0.72347 0.0
O475 O 0.2549 0.21009 0.74791 0.0
C476 C 0.26187 0.30385 0.80024 0.0
C477 C 0.29826 0.20411 0.88758 0.0
C478 C 0.3255 0.19125 0.9347 0.0
C479 C 0.30533 0.20308 0.96526 0.0
C480 C 0.27818 0.21561 0.91845 0.0
C481 C 0.2818 0.21513 0.9571 0.0
C482 C 0.32183 0.19205 0.89586 0.0
C483 C 0.34168 0.30417 0.79865 0.0
C484 C 0.29603 0.20523 0.84654 0.0
C485 C 0.15818 0.22529 0.90695 0.0
C486 C 0.17864 0.25425 0.92574 0.0
C487 C 0.32363 0.22381 0.72394 0.0
C488 C 0.28341 0.32063 0.63646 0.0
C489 C 0.25509 0.33211 0.58925 0.0
C490 C 0.27549 0.32044 0.55874 0.0
C491 C 0.30364 0.30931 0.60563 0.0
C492 C 0.25912 0.33177 0.62814 0.0
C493 C 0.29954 0.30911 0.56699 0.0
C494 C 0.2413 0.22205 0.72659 0.0
C495 C 0.28635 0.32026 0.67751 0.0
H496 H 0.30722 0.2024 0.99539 0.0
H497 H 0.2598 0.22492 0.91277 0.0
H498 H 0.2662 0.22399 0.98082 0.0
H499 H 0.3376 0.18355 0.87192 0.0
H500 H 0.27344 0.32074 0.52852 0.0
H501 H 0.32254 0.30068 0.61133 0.0
H502 H 0.24321 0.34003 0.65211 0.0
H503 H 0.31528 0.3004 0.54332 0.0
Eu504 Eu 0.76003 0.29234 0.75679 0.0
C505 C 0.79442 0.17188 0.77014 0.0
N506 N 0.8149 0.20278 0.77718 0.0
C507 C 0.82575 0.1924 0.83722 0.0
C508 C 0.78766 0.15011 0.79724 0.0
C509 C 0.83154 0.21305 0.80944 0.0
C510 C 0.80327 0.1609 0.83141 0.0
C511 C 0.7625 0.12908 0.72494 0.0
C512 C 0.78198 0.16165 0.73465 0.0
C513 C 0.75374 0.1077 0.75276 0.0
C514 C 0.76632 0.11821 0.7889 0.0
Eu515 Eu 0.82042 0.23776 0.7318 0.0
N516 N 0.79147 0.18292 0.70836 0.0
C517 C 0.75383 0.11868 0.68698 0.0
C518 C 0.78576 0.17209 0.67045 0.0
C519 C 0.76626 0.14014 0.65934 0.0
H520 H 0.84891 0.23733 0.81406 0.0
H521 H 0.76107 0.13207 0.62939 0.0
H522 H 0.6831 0.24832 0.73017 0.0
H523 H 0.83529 0.41286 0.71985 0.0
H524 H 0.79596 0.18818 0.64859 0.0
H525 H 0.73895 0.09388 0.67828 0.0
H526 H 0.81238 0.36914 0.7616 0.0
H527 H 0.8385 0.20082 0.86313 0.0
H528 H 0.73834 0.08273 0.74606 0.0
H529 H 0.76031 0.10126 0.80963 0.0
H530 H 0.65158 0.23992 0.67421 0.0
H531 H 0.79873 0.14495 0.85298 0.0
H532 H 0.81383 0.4056 0.65658 0.0
N533 N 0.72521 0.28637 0.70835 0.0
C534 C 0.7376 0.30724 0.68154 0.0
C535 C 0.67592 0.2588 0.67571 0.0
C536 C 0.72038 0.30388 0.64954 0.0
C537 C 0.69383 0.26355 0.70723 0.0
C538 C 0.68961 0.27864 0.64624 0.0
N539 N 0.7793 0.33735 0.72172 0.0
C540 C 0.80273 0.36598 0.73417 0.0
C541 C 0.77773 0.35804 0.66387 0.0
C542 C 0.76572 0.3338 0.68856 0.0
C543 C 0.80379 0.3864 0.67477 0.0
C544 C 0.81583 0.39067 0.71054 0.0
H545 H 0.67558 0.27514 0.62205 0.0
H546 H 0.72105 0.32427 0.59794 0.0
H547 H 0.77144 0.37184 0.61052 0.0
O548 O 0.74413 0.29547 0.81942 0.0
O549 O 0.81508 0.3115 0.73231 0.0
O550 O 0.82279 0.27049 0.68833 0.0
O551 O 0.72639 0.31891 0.78387 0.0
O552 O 0.8072 0.31377 0.78768 0.0
O553 O 0.8329 0.27564 0.78457 0.0
O554 O 0.8604 0.21772 0.71072 0.0
O555 O 0.78686 0.24039 0.78942 0.0
O556 O 0.73872 0.24131 0.77242 0.0
O557 O 0.87311 0.2692 0.72092 0.0
O558 O 0.78685 0.23477 0.68619 0.0
O559 O 0.7405 0.24196 0.7248 0.0
C560 C 0.82987 0.30138 0.69928 0.0
C561 C 0.73967 0.34519 0.8469 0.0
C562 C 0.74167 0.37011 0.91479 0.0
C563 C 0.75852 0.40033 0.9013 0.0
C564 C 0.75616 0.37547 0.83423 0.0
C565 C 0.76604 0.40281 0.86139 0.0
C566 C 0.73373 0.34256 0.88687 0.0
C567 C 0.82868 0.3033 0.79896 0.0
C568 C 0.72918 0.3158 0.81913 0.0
C569 C 0.7336 0.32667 0.62306 0.0
C570 C 0.76228 0.35375 0.63024 0.0
C571 C 0.75396 0.22898 0.79115 0.0
C572 C 0.90009 0.24738 0.66453 0.0
C573 C 0.89675 0.22328 0.59656 0.0
C574 C 0.93204 0.23858 0.58877 0.0
C575 C 0.93504 0.26189 0.65662 0.0
C576 C 0.881 0.23123 0.63375 0.0
C577 C 0.95075 0.25852 0.6184 0.0
C578 C 0.75422 0.22964 0.69234 0.0
C579 C 0.88332 0.24546 0.70477 0.0
H580 H 0.76455 0.42244 0.92121 0.0
H581 H 0.76124 0.37808 0.80349 0.0
H582 H 0.77858 0.42616 0.85152 0.0
H583 H 0.72202 0.31884 0.8959 0.0
H584 H 0.94583 0.23375 0.5608 0.0
H585 H 0.95012 0.27502 0.67997 0.0
H586 H 0.85385 0.2221 0.64024 0.0
H587 H 0.97786 0.26952 0.61224 0.0
Eu588 Eu 0.7681 0.7513 0.71569 0.0
C589 C 0.82279 0.83737 0.86263 0.0
N590 N 0.8416 0.83276 0.82797 0.0
C591 C 0.87256 0.88926 0.83167 0.0
C592 C 0.82786 0.86853 0.88286 0.0
C593 C 0.86651 0.85797 0.81254 0.0
C594 C 0.85306 0.8946 0.86689 0.0
C595 C 0.77845 0.81494 0.91366 0.0
C596 C 0.79802 0.81082 0.87753 0.0
C597 C 0.78275 0.84603 0.93327 0.0
C598 C 0.80744 0.87272 0.91799 0.0
Eu599 Eu 0.82951 0.77927 0.79753 0.0
N600 N 0.79406 0.78094 0.85761 0.0
C601 C 0.75592 0.78763 0.92967 0.0
C602 C 0.77502 0.75443 0.87533 0.0
C603 C 0.75483 0.75724 0.91087 0.0
H604 H 0.88186 0.85387 0.78568 0.0
H605 H 0.7391 0.73599 0.92421 0.0
H606 H 0.69863 0.69093 0.74521 0.0
H607 H 0.85802 0.75449 0.58349 0.0
H608 H 0.77631 0.73114 0.86316 0.0
H609 H 0.74054 0.78975 0.95741 0.0
H610 H 0.83349 0.77659 0.64625 0.0
H611 H 0.89227 0.90924 0.81924 0.0
H612 H 0.7675 0.84967 0.96062 0.0
H613 H 0.81069 0.89651 0.93372 0.0
H614 H 0.66931 0.63365 0.72329 0.0
H615 H 0.8577 0.9189 0.88154 0.0
H616 H 0.83154 0.69752 0.55703 0.0
N617 N 0.73767 0.69659 0.69734 0.0
C618 C 0.74979 0.6828 0.6629 0.0
C619 C 0.69202 0.64715 0.70616 0.0
C620 C 0.73343 0.65029 0.64893 0.0
C621 C 0.70893 0.67951 0.71874 0.0
C622 C 0.70436 0.63244 0.67117 0.0
N623 N 0.79437 0.73239 0.65606 0.0
C624 C 0.82203 0.75165 0.63538 0.0
C625 C 0.79171 0.68769 0.60552 0.0
C626 C 0.77868 0.70127 0.64143 0.0
C627 C 0.82074 0.70707 0.58472 0.0
C628 C 0.83584 0.73922 0.59963 0.0
H629 H 0.6911 0.60739 0.66144 0.0
H630 H 0.73425 0.61171 0.6021 0.0
H631 H 0.78519 0.64444 0.56412 0.0
O632 O 0.76087 0.78573 0.68459 0.0
O633 O 0.80446 0.72291 0.71114 0.0
O634 O 0.85129 0.75744 0.73959 0.0
O635 O 0.71981 0.74167 0.69494 0.0
O636 O 0.81062 0.79977 0.71245 0.0
O637 O 0.85553 0.80088 0.74175 0.0
O638 O 0.8461 0.75024 0.82734 0.0
O639 O 0.79817 0.81079 0.79362 0.0
O640 O 0.74915 0.77341 0.77501 0.0
O641 O 0.87887 0.79852 0.8192 0.0
O642 O 0.79139 0.72792 0.79172 0.0
O643 O 0.74571 0.73467 0.77466 0.0
C644 C 0.83642 0.73112 0.71667 0.0
C645 C 0.72111 0.76471 0.639 0.0
C646 C 0.69727 0.78326 0.59354 0.0
C647 C 0.7028 0.75908 0.56443 0.0
C648 C 0.72627 0.74074 0.60955 0.0
C649 C 0.71721 0.73803 0.57247 0.0
C650 C 0.70666 0.7859 0.63086 0.0
C651 C 0.84283 0.81146 0.71766 0.0
C652 C 0.73012 0.76778 0.67849 0.0
C653 C 0.74648 0.63666 0.61326 0.0
C654 C 0.77549 0.65531 0.5916 0.0
C655 C 0.76536 0.80185 0.79285 0.0
C656 C 0.88107 0.77804 0.87629 0.0
C657 C 0.89591 0.75785 0.9282 0.0
C658 C 0.89262 0.78459 0.95422 0.0
C659 C 0.87794 0.80452 0.90278 0.0
C660 C 0.89009 0.75488 0.88916 0.0
C661 C 0.88368 0.80769 0.94151 0.0
C662 C 0.75864 0.7187 0.79104 0.0
C663 C 0.87389 0.77324 0.83557 0.0
H664 H 0.69641 0.75668 0.53527 0.0
H665 H 0.73708 0.72405 0.61519 0.0
H666 H 0.72139 0.71953 0.54985 0.0
H667 H 0.70225 0.80411 0.65386 0.0
H668 H 0.89647 0.78741 0.98452 0.0
H669 H 0.87099 0.82267 0.89367 0.0
H670 H 0.89278 0.73461 0.86855 0.0
H671 H 0.88102 0.82807 0.96183 0.0
Co672 Co 0.06418 0.94708 0.50486 0.0
Co673 Co 0.06827 0.99283 0.56377 0.0
Co674 Co 0.04701 1.01451 0.50066 0.0
O675 O 0.07703 0.99307 0.50985 0.0
H676 H 0.10058 1.0042 0.50161 0.0
O677 O 1.01695 0.03506 0.49038 0.0
Co678 Co 0.99455 0.05887 0.52777 0.0
Co679 Co 1.03949 0.07378 0.47578 0.0
H680 H 1.00295 0.02194 0.47058 0.0
O681 O 0.09736 0.98834 0.59114 0.0
O682 O 0.05401 0.94876 0.56368 0.0
O683 O 1.0335 1.00792 0.59359 0.0
O684 O 1.00873 0.99122 0.54048 0.0
O685 O 0.06739 0.05004 0.54168 0.0
O686 O 0.96804 0.07771 0.5597 0.0
O687 O 0.95728 0.04345 0.50415 0.0
O688 O 1.0331 0.0788 0.55752 0.0
O689 O 0.08452 0.03755 0.45991 0.0
O690 O 0.08715 0.08845 0.47698 0.0
O691 O 1.01256 0.09714 0.49754 0.0
O692 O 1.02558 0.08046 0.4335 0.0
C693 C 0.08865 0.91598 0.50436 0.0
C694 C 1.01153 0.94995 0.46766 0.0
C695 C 1.0069 0.99354 0.57764 0.0
C696 C 0.07745 0.95851 0.58719 0.0
C697 C 0.94783 0.06173 0.53344 0.0
C698 C 0.05983 0.07378 0.56128 0.0
C699 C 0.10059 0.06793 0.45985 0.0
C700 C 1.01079 0.0966 0.46046 0.0
O701 O 0.05672 0.90572 0.50053 0.0
O702 O 0.10556 0.94681 0.50844 0.0
O703 O 1.0276 0.97855 0.45991 0.0
O704 O 1.01816 0.94012 0.49628 0.0
Co705 Co 0.58284 0.95727 0.95532 0.0
Co706 Co 0.56253 0.9623 0.02333 0.0
Co707 Co 0.54521 0.01834 1.00096 0.0
O708 O 0.57932 0.99495 0.99345 0.0
H709 H 0.60122 1.00932 0.99999 0.0
O710 O 0.51099 0.04162 0.00858 0.0
Co711 Co 0.50701 0.07862 0.04776 0.0
Co712 Co 0.5271 0.07447 0.9791 0.0
H713 H 0.48907 0.02712 1.00212 0.0
O714 O 0.59038 0.96306 0.05574 0.0
O715 O 0.57879 0.93135 0.99792 0.0
O716 O 0.51559 0.94745 0.0399 0.0
O717 O 0.51583 0.99759 0.04863 0.0
O718 O 0.57554 0.0532 0.03591 0.0
O719 O 0.50086 0.11055 0.08329 0.0
O720 O 0.46031 0.07041 0.05411 0.0
O721 O 0.55456 0.09346 0.04847 0.0
O722 O 0.57461 0.03932 0.95332 0.0
O723 O 0.57377 0.08918 0.96201 0.0
O724 O 0.51153 0.10542 0.0061 0.0
O725 O 0.49842 0.07479 0.94813 0.0
C726 C 0.62043 0.93804 0.92499 0.0
C727 C 0.51157 0.95366 0.95571 0.0
C728 C 0.50141 0.96789 0.05365 0.0
C729 C 0.59477 0.94025 0.029 0.0
C730 C 0.46924 0.09733 0.07818 0.0
C731 C 0.57826 0.08253 0.04784 0.0
C732 C 0.58832 0.06906 0.94805 0.0
C733 C 0.4946 0.09719 0.97588 0.0
O734 O 0.58866 0.92468 0.92055 0.0
O735 O 0.62962 0.96535 0.94831 0.0
O736 O 0.51488 0.98331 0.96611 0.0
O737 O 0.53508 0.94251 0.95548 0.0
Co738 Co 0.08076 0.45994 0.95984 0.0
Co739 Co 0.05632 0.45893 0.02705 0.0
Co740 Co 1.03698 0.51602 0.00991 0.0
O741 O 0.07341 0.49455 1.00176 0.0
H742 H 0.09429 0.50911 0.01098 0.0
O743 O 1.00087 0.53682 0.01851 0.0
Co744 Co 1.00269 0.57851 0.04857 0.0
Co745 Co 1.00092 0.5551 0.97551 0.0
H746 H 0.97872 0.52111 0.02384 0.0
O747 O 0.08238 0.45434 0.05874 0.0
O748 O 0.07166 0.42873 0.99781 0.0
O749 O 1.00912 0.44149 0.03857 0.0
O750 O 1.0058 0.49021 0.05305 0.0
O751 O 0.06253 0.54926 0.04989 0.0
O752 O 1.00041 0.61566 0.07702 0.0
O753 O 0.95678 0.57137 0.06157 0.0
O754 O 0.05097 0.59197 0.04089 0.0
O755 O 0.06839 0.54301 0.96832 0.0
O756 O 1.03985 0.56232 0.93802 0.0
O757 O 1.00178 0.59535 1.00029 0.0
O758 O 0.96253 0.55924 0.96425 0.0
C759 C 0.11981 0.44206 0.93171 0.0
C760 C 1.00991 0.45526 0.95519 0.0
C761 C 0.99265 0.45977 0.05358 0.0
C762 C 0.08464 0.43203 0.03011 0.0
C763 C 0.96789 0.6011 0.0786 0.0
C764 C 0.0696 0.57968 0.05259 0.0
C765 C 0.06691 0.55863 0.94205 0.0
C766 C 0.97513 0.58797 0.98253 0.0
O767 O 0.08932 0.43035 0.92244 0.0
O768 O 0.1272 0.4675 0.95833 0.0
O769 O 1.01028 0.48346 0.96997 0.0
O770 O 1.03476 0.44593 0.95393 0.0
Co771 Co 0.56357 0.4613 0.02579 0.0
Co772 Co 0.55073 0.50589 0.08023 0.0
Co773 Co 0.54123 0.52113 0.00423 0.0
O774 O 0.56933 0.50546 0.02748 0.0
H775 H 0.59274 0.51926 0.02515 0.0
O776 O 0.51328 0.53758 0.98133 0.0
Co777 Co 0.52319 0.58314 0.98252 0.0
Co778 Co 0.53226 0.53615 0.9288 0.0
H779 H 0.48955 0.52487 0.98431 0.0
O780 O 0.57373 0.50485 0.1186 0.0
O781 O 0.54125 0.46243 0.0813 0.0
O782 O 0.50949 0.51542 0.09658 0.0
O783 O 0.49824 0.49603 0.03658 0.0
O784 O 0.55057 0.55897 0.04513 0.0
O785 O 0.52846 0.62346 0.98158 0.0
O786 O 0.48378 0.57948 0.9666 0.0
O787 O 0.56573 0.59476 0.00378 0.0
O788 O 0.58444 0.54586 0.97143 0.0
O789 O 0.57261 0.52499 0.91208 0.0
O790 O 0.54347 0.57956 0.92626 0.0
O791 O 0.5091 0.53661 0.8911 0.0
C792 C 0.59242 0.43839 0.03923 0.0
C793 C 0.51624 0.45444 0.97189 0.0
C794 C 0.48836 0.49907 0.07323 0.0
C795 C 0.55898 0.47401 0.11074 0.0
C796 C 0.49866 0.61067 0.97018 0.0
C797 C 0.56796 0.58696 0.03625 0.0
C798 C 0.59408 0.54187 0.93478 0.0
C799 C 0.52476 0.56742 0.89765 0.0
O800 O 0.56341 0.42181 0.02661 0.0
O801 O 0.60291 0.46965 0.04315 0.0
O802 O 0.53173 0.48298 0.96351 0.0
O803 O 0.52092 0.44615 1.00294 0.0
Co804 Co 0.10271 0.4806 0.50264 0.0
Co805 Co 0.08742 0.47837 0.43623 0.0
Co806 Co 0.04476 0.51715 0.50209 0.0
O807 O 0.06229 0.47982 0.48454 0.0
H808 H 0.04424 0.45942 0.48678 0.0
O809 O 1.02721 0.55421 0.52012 0.0
Co810 Co 0.98597 0.55287 0.50422 0.0
Co811 Co 1.00363 0.55585 0.56985 0.0
H812 H 0.04504 0.57457 0.51716 0.0
O813 O 0.08758 0.4394 0.40739 0.0
O814 O 0.12525 0.47163 0.44766 0.0
O815 O 0.10053 0.51713 0.41329 0.0
O816 O 0.07616 0.54517 0.46086 0.0
O817 O 1.00949 0.49622 0.46602 0.0
O818 O 0.95029 0.55488 0.48789 0.0
O819 O 0.9994 0.59495 0.49846 0.0
O820 O 0.96738 0.50749 0.50548 0.0
O821 O 1.01356 0.48913 0.54298 0.0
O822 O 0.99073 0.51678 0.59269 0.0
O823 O 0.96511 0.56238 0.56003 0.0
O824 O 1.00354 0.595 0.59899 0.0
C825 C 0.11845 0.44853 0.52093 0.0
C826 C 0.1111 0.54413 0.52871 0.0
C827 C 0.09527 0.54305 0.42838 0.0
C828 C 0.11558 0.44598 0.42184 0.0
C829 C 0.96936 0.58483 0.4874 0.0
C830 C 0.97795 0.48985 0.47727 0.0
C831 C 0.99529 0.49084 0.57607 0.0
C832 C 0.97511 0.58824 0.58544 0.0
O833 O 0.1371 0.47862 0.52143 0.0
O834 O 0.08928 0.43802 0.50747 0.0
O835 O 0.07955 0.5384 0.53845 0.0
O836 O 0.12189 0.52573 0.5019 0.0
Co837 Co 0.59185 0.97565 0.51151 0.0
Co838 Co 0.57881 0.9744 0.44435 0.0
Co839 Co 0.53533 1.01378 0.50818 0.0
O840 O 0.55254 0.97619 0.49213 0.0
H841 H 0.5341 0.956 0.49383 0.0
O842 O 0.51859 0.05138 0.52369 0.0
Co843 Co 0.48062 0.05332 0.50329 0.0
Co844 Co 0.49283 0.05456 0.57092 0.0
H845 H 0.53737 0.07133 0.52222 0.0
O846 O 0.57992 0.93634 0.41422 0.0
O847 O 0.61611 0.9675 0.45695 0.0
O848 O 0.59213 1.01245 0.42038 0.0
O849 O 0.56728 0.04062 0.46704 0.0
O850 O 0.50117 0.99259 0.47116 0.0
O851 O 0.44878 0.05924 0.4824 0.0
O852 O 0.49797 0.09572 0.49951 0.0
O853 O 0.45815 1.00761 0.50212 0.0
O854 O 0.50304 0.98721 0.54962 0.0
O855 O 0.47883 0.01666 0.59555 0.0
O856 O 0.45622 0.06221 0.5576 0.0
O857 O 0.49353 0.09417 0.59856 0.0
C858 C 0.60536 0.94157 0.52915 0.0
C859 C 0.60116 0.04127 0.53597 0.0
C860 C 0.58647 0.03823 0.4349 0.0
C861 C 0.6078 0.94319 0.42902 0.0
C862 C 0.47027 0.0885 0.4839 0.0
C863 C 0.46952 0.98738 0.47904 0.0
C864 C 0.4839 0.99044 0.58168 0.0
C865 C 0.46566 0.08761 0.58384 0.0
O866 O 0.62497 0.97153 0.53145 0.0
O867 O 0.57678 0.93296 0.51485 0.0
O868 O 0.56948 0.03508 0.54526 0.0
O869 O 0.61264 0.02144 0.51232 0.0
H870 H 0.27857 0.19217 0.32926 0.0
H871 H 0.16561 0.10257 0.47201 0.0
H872 H 0.18567 0.19493 0.30142 0.0
H873 H 0.09939 0.06464 0.3826 0.0
H874 H 0.20738 0.1379 0.42736 0.0
H875 H 0.24577 0.14818 0.36752 0.0
C876 C 0.25131 0.18346 0.33085 0.0
C877 C 0.23494 0.19729 0.31164 0.0
C878 C 0.18427 0.12099 0.41696 0.0
C879 C 0.19734 0.14668 0.35537 0.0
C880 C 0.16062 0.10066 0.44231 0.0
C881 C 0.12958 0.08004 0.43042 0.0
C882 C 0.1762 0.12139 0.38002 0.0
C883 C 0.12351 0.07954 0.39232 0.0
C884 C 0.23266 0.15836 0.35283 0.0
C885 C 0.19952 0.18477 0.31493 0.0
N886 N 0.14627 0.10046 0.36875 0.0
N887 N 0.18194 0.16009 0.33619 0.0
H888 H 0.90075 0.15987 0.32758 0.0
H889 H 0.98364 0.14054 0.50511 0.0
H890 H 0.87676 0.1963 0.44753 0.0
H891 H 0.99439 0.09255 0.3877 0.0
H892 H 0.95056 0.16722 0.4834 0.0
H893 H 0.94081 0.14066 0.34813 0.0
C894 C 0.90417 0.16413 0.35819 0.0
C895 C 0.88517 0.17951 0.38589 0.0
C896 C 0.95997 0.15067 0.46252 0.0
C897 C 0.93093 0.15745 0.40973 0.0
C898 C 0.97908 0.13562 0.47484 0.0
C899 C 0.99174 0.11415 0.44827 0.0
C900 C 0.95314 0.14391 0.42351 0.0
C901 C 0.98515 0.10884 0.40932 0.0
C902 C 0.92691 0.153 0.36996 0.0
C903 C 0.89048 0.18412 0.42523 0.0
N904 N 0.96617 0.1234 0.39825 0.0
N905 N 0.91281 0.17311 0.43595 0.0
H906 H 0.85826 0.87767 0.30836 0.0
H907 H 0.97692 0.88459 0.46549 0.0
H908 H 0.86779 0.79309 0.33863 0.0
H909 H 0.98289 0.96735 0.41549 0.0
H910 H 0.93327 0.85089 0.42381 0.0
H911 H 0.90054 0.91106 0.35146 0.0
C912 C 0.86935 0.86604 0.32375 0.0
C913 C 0.85955 0.83237 0.31924 0.0
C914 C 0.94413 0.87645 0.42205 0.0
C915 C 0.90773 0.87068 0.36963 0.0
C916 C 0.96898 0.89574 0.44598 0.0
C917 C 0.98384 0.92894 0.44406 0.0
C918 C 0.93369 0.89042 0.39619 0.0
C919 C 0.97244 0.94191 0.418 0.0
C920 C 0.89344 0.88518 0.34858 0.0
C921 C 0.8745 0.81887 0.34083 0.0
N922 N 0.94816 0.92272 0.39528 0.0
N923 N 0.89767 0.83798 0.36501 0.0
H924 H 0.1829 0.81213 0.37457 0.0
H925 H 0.15612 0.92589 0.5027 0.0
H926 H 0.11531 0.73966 0.44495 0.0
H927 H 0.0576 0.85209 0.50925 0.0
H928 H 0.18169 0.88387 0.49017 0.0
H929 H 0.18216 0.85266 0.42823 0.0
C930 C 0.16939 0.8042 0.40195 0.0
C931 C 0.14961 0.77184 0.40475 0.0
C932 C 0.15446 0.87705 0.49513 0.0
C933 C 0.14616 0.81977 0.46669 0.0
C934 C 0.13991 0.90095 0.50202 0.0
C935 C 0.10479 0.89228 0.50469 0.0
C936 C 0.13359 0.84456 0.49027 0.0
C937 C 0.08488 0.85974 0.50525 0.0
C938 C 0.16868 0.82788 0.43301 0.0
C939 C 0.13045 0.76424 0.44083 0.0
N940 N 0.09957 0.83697 0.4972 0.0
N941 N 0.12817 0.78821 0.46994 0.0
H942 H 0.17504 0.88003 0.71538 0.0
H943 H 0.05333 0.89188 0.57586 0.0
H944 H 0.16381 0.82326 0.60219 0.0
H945 H 0.11655 0.97332 0.64556 0.0
H946 H 0.07681 0.85704 0.59917 0.0
H947 H 0.13591 0.90461 0.70345 0.0
C948 C 0.16385 0.87234 0.68833 0.0
C949 C 0.1729 0.84993 0.65951 0.0
C950 C 0.08502 0.88252 0.6096 0.0
C951 C 0.12803 0.87757 0.64598 0.0
C952 C 0.07184 0.90238 0.59621 0.0
C953 C 0.08439 0.93575 0.60709 0.0
C954 C 0.1095 0.89613 0.63547 0.0
C955 C 0.10704 0.94788 0.63518 0.0
C956 C 0.14163 0.88637 0.68156 0.0
C957 C 0.1578 0.84086 0.62486 0.0
N958 N 0.11904 0.92814 0.64815 0.0
N959 N 0.13615 0.85487 0.6189 0.0
H960 H 0.22086 0.15624 0.70974 0.0
H961 H 0.06701 0.13663 0.59402 0.0
H962 H 0.19714 0.23741 0.692 0.0
H963 H 0.10839 0.06207 0.59096 0.0
H964 H 0.10991 0.17297 0.63554 0.0
H965 H 0.17541 0.12064 0.67214 0.0
C966 C 0.20592 0.16663 0.69829 0.0
C967 C 0.21291 0.20001 0.70442 0.0
C968 C 0.10946 0.1486 0.62583 0.0
C969 C 0.16047 0.15903 0.66073 0.0
C970 C 0.08482 0.12776 0.60228 0.0
C971 C 0.08395 0.09612 0.5887 0.0
C972 C 0.13319 0.13767 0.6364 0.0
C973 C 0.108 0.08621 0.60033 0.0
C974 C 0.18 0.14623 0.67654 0.0
C975 C 0.19279 0.21189 0.68813 0.0
N976 N 0.13138 0.10675 0.62337 0.0
N977 N 0.16753 0.1915 0.6672 0.0
H978 H 0.83885 0.17256 0.61656 0.0
H979 H 0.90394 0.0718 0.59612 0.0
H980 H 0.91141 0.20395 0.51676 0.0
H981 H 0.9222 0.06746 0.47081 0.0
H982 H 0.86463 0.09933 0.59765 0.0
H983 H 0.82401 0.11869 0.58547 0.0
C984 C 0.85092 0.16907 0.58746 0.0
C985 C 0.87828 0.19376 0.57089 0.0
C986 C 0.87594 0.09132 0.56942 0.0
C987 C 0.86401 0.13007 0.53751 0.0
C988 C 0.8987 0.0758 0.5688 0.0
C989 C 0.91688 0.06841 0.53353 0.0
C990 C 0.87284 0.10099 0.53468 0.0
C991 C 0.90901 0.07358 0.49874 0.0
C992 C 0.84267 0.13746 0.56986 0.0
C993 C 0.89234 0.18581 0.53275 0.0
N994 N 0.88866 0.09097 0.50027 0.0
N995 N 0.88628 0.15437 0.51813 0.0
H996 H 0.82775 0.83819 0.66184 0.0
H997 H 1.00122 0.98489 0.65399 0.0
H998 H 0.91022 0.84643 0.72254 0.0
H999 H 0.94758 0.94875 0.55274 0.0
H1000 H 0.96058 0.94087 0.68712 0.0
H1001 H 0.86497 0.88388 0.62801 0.0
C1002 C 0.85355 0.84959 0.66832 0.0
C1003 C 0.86555 0.83855 0.69581 0.0
C1004 C 0.95751 0.94274 0.65779 0.0
C1005 C 0.90803 0.89133 0.65744 0.0
C1006 C 0.98056 0.9681 0.63882 0.0
C1007 C 0.97814 0.97065 0.60017 0.0
C1008 C 0.93121 0.9198 0.63854 0.0
C1009 C 0.95056 0.94788 0.58244 0.0
C1010 C 0.87475 0.87566 0.64886 0.0
C1011 C 0.89943 0.85429 0.70238 0.0
N1012 N 0.92818 0.92337 0.60174 0.0
N1013 N 0.91927 0.88001 0.68375 0.0
H1014 H 0.39775 0.25149 0.19866 0.0
H1015 H 0.4 0.08254 0.07446 0.0
H1016 H 0.30547 0.17327 0.17722 0.0
H1017 H 0.48461 0.15403 0.12677 0.0
H1018 H 0.36477 0.11549 0.10593 0.0
H1019 H 0.42978 0.21679 0.16664 0.0
C1020 C 0.38407 0.22699 0.18742 0.0
C1021 C 0.34859 0.21556 0.19126 0.0
C1022 C 0.39105 0.12377 0.11056 0.0
C1023 C 0.38569 0.17518 0.15305 0.0
C1024 C 0.41119 0.10487 0.09265 0.0
C1025 C 0.44554 0.1151 0.09793 0.0
C1026 C 0.40537 0.15339 0.13361 0.0
C1027 C 0.45842 0.14467 0.12164 0.0
C1028 C 0.4025 0.20708 0.1688 0.0
C1029 C 0.33269 0.18348 0.17494 0.0
N1030 N 0.4386 0.16253 0.13818 0.0
N1031 N 0.35123 0.16456 0.15659 0.0
H1032 H 0.83326 0.38329 0.23813 0.0
H1033 H 0.94551 0.40412 0.02984 0.0
H1034 H 0.84049 0.3058 0.14839 0.0
H1035 H 0.96468 0.47987 0.12671 0.0
H1036 H 0.89681 0.37168 0.06963 0.0
H1037 H 0.8725 0.42201 0.1951 0.0
C1038 C 0.84268 0.37446 0.20922 0.0
C1039 C 0.83371 0.34128 0.19681 0.0
C1040 C 0.91129 0.39553 0.08222 0.0
C1041 C 0.87813 0.38524 0.14763 0.0
C1042 C 0.93897 0.41414 0.05942 0.0
C1043 C 0.95926 0.44455 0.07519 0.0
C1044 C 0.90382 0.40714 0.12141 0.0
C1045 C 0.94958 0.45652 0.11353 0.0
C1046 C 0.86515 0.39653 0.18482 0.0
C1047 C 0.84685 0.33112 0.15925 0.0
N1048 N 0.92273 0.43753 0.13569 0.0
N1049 N 0.86834 0.35296 0.13612 0.0
H1050 H 0.7237 0.82561 0.01681 0.0
H1051 H 0.62967 0.95347 0.09095 0.0
H1052 H 0.74447 0.89816 0.11696 0.0
H1053 H 0.6134 0.89132 0.98153 0.0
H1054 H 0.66986 0.93054 0.10102 0.0
H1055 H 0.68257 0.84721 1.00267 0.0
C1056 C 0.71979 0.84617 0.03564 0.0
C1057 C 0.73743 0.85998 0.06828 0.0
C1058 C 0.65766 0.92179 0.0747 0.0
C1059 C 0.69019 0.88437 0.05268 0.0
C1060 C 0.63444 0.93487 0.0689 0.0
C1061 C 0.61806 0.92448 0.03517 0.0
C1062 C 0.66488 0.89792 0.04666 0.0
C1063 C 0.62552 0.90019 0.00788 0.0
C1064 C 0.69619 0.85833 0.02768 0.0
C1065 C 0.73107 0.88631 0.09194 0.0
N1066 N 0.6485 0.88771 0.01418 0.0
N1067 N 0.70801 0.8975 0.08373 0.0
H1068 H 0.21995 0.74646 0.1579 0.0
H1069 H 0.11443 0.56375 0.08461 0.0
H1070 H 0.23985 0.66542 0.18326 0.0
H1071 H 0.09332 0.64556 0.06347 0.0
H1072 H 0.16195 0.60039 0.11836 0.0
H1073 H 0.17478 0.70969 0.12119 0.0
C1074 C 0.21491 0.72094 0.15569 0.0
C1075 C 0.23381 0.70907 0.17367 0.0
C1076 C 0.14696 0.6103 0.10623 0.0
C1077 C 0.1819 0.66661 0.13155 0.0
C1078 C 0.11982 0.58939 0.08687 0.0
C1079 C 0.09965 0.60152 0.07127 0.0
C1080 C 0.15405 0.64361 0.11002 0.0
C1081 C 0.108 0.63502 0.0751 0.0
C1082 C 0.18904 0.69989 0.13468 0.0
C1083 C 0.22599 0.67566 0.16981 0.0
N1084 N 0.13445 0.65482 0.09415 0.0
N1085 N 0.20061 0.65559 0.14919 0.0
H1086 H 0.34201 0.8658 0.82308 0.0
H1087 H 0.48773 0.888 0.94885 0.0
H1088 H 0.35374 0.78753 0.86674 0.0
H1089 H 0.46258 0.96796 0.92942 0.0
H1090 H 0.43755 0.85109 0.92037 0.0
H1091 H 0.38405 0.90387 0.86376 0.0
C1092 C 0.35294 0.85661 0.84174 0.0
C1093 C 0.34465 0.82337 0.84108 0.0
C1094 C 0.4428 0.8767 0.92257 0.0
C1095 C 0.39315 0.86682 0.88728 0.0
C1096 C 0.47159 0.89784 0.9387 0.0
C1097 C 0.47968 0.9312 0.94115 0.0
C1098 C 0.42199 0.88886 0.90819 0.0
C1099 C 0.45746 0.94244 0.92797 0.0
C1100 C 0.37707 0.87837 0.86483 0.0
C1101 C 0.35967 0.81291 0.86591 0.0
N1102 N 0.42987 0.92133 0.91162 0.0
N1103 N 0.38349 0.83451 0.88752 0.0
H1104 H 0.28473 0.37033 0.81637 0.0
H1105 H 0.10207 0.38037 0.89635 0.0
H1106 H 0.19563 0.28727 0.83442 0.0
H1107 H 0.19086 0.46009 0.92666 0.0
H1108 H 0.13708 0.34822 0.86761 0.0
H1109 H 0.25262 0.40509 0.85064 0.0
C1110 C 0.25845 0.3593 0.82748 0.0
C1111 C 0.24299 0.32556 0.82211 0.0
C1112 C 0.14914 0.3727 0.88047 0.0
C1113 C 0.20584 0.36561 0.8613 0.0
C1114 C 0.12908 0.39142 0.89685 0.0
C1115 C 0.14322 0.42345 0.91413 0.0
C1116 C 0.18428 0.38579 0.88009 0.0
C1117 C 0.17859 0.43568 0.91383 0.0
C1118 C 0.24019 0.37927 0.84727 0.0
C1119 C 0.20886 0.31297 0.83764 0.0
N1120 N 0.19789 0.417 0.89676 0.0
N1121 N 0.19156 0.33285 0.85597 0.0
H1122 H 0.76472 0.215 0.85922 0.0
H1123 H 0.59636 0.05955 0.86844 0.0
H1124 H 0.6979 0.17916 0.7703 0.0
H1125 H 0.64932 0.10869 0.96766 0.0
H1126 H 0.64148 0.09497 0.82655 0.0
H1127 H 0.73005 0.16907 0.89415 0.0
C1128 C 0.74287 0.1973 0.84695 0.0
C1129 C 0.73396 0.20096 0.81203 0.0
C1130 C 0.64373 0.09743 0.8573 0.0
C1131 C 0.69423 0.14835 0.85162 0.0
C1132 C 0.61828 0.07685 0.88102 0.0
C1133 C 0.61955 0.0809 0.92132 0.0
C1134 C 0.67044 0.12232 0.87415 0.0
C1135 C 0.64782 0.10449 0.93654 0.0
C1136 C 0.72308 0.17113 0.86685 0.0
C1137 C 0.70535 0.17745 0.79741 0.0
N1138 N 0.67197 0.12451 0.91305 0.0
N1139 N 0.68649 0.1522 0.81726 0.0
H1140 H 0.94271 0.76657 0.97746 0.0
H1141 H 0.91858 0.57947 0.95036 0.0
H1142 H 0.87025 0.6924 0.90976 0.0
H1143 H 0.99756 0.65263 0.01035 0.0
H1144 H 0.89689 0.62043 0.94193 0.0
H1145 H 0.95936 0.72525 0.9962 0.0
C1146 C 0.9301 0.74161 0.96676 0.0
C1147 C 0.90529 0.73304 0.94155 0.0
C1148 C 0.91889 0.62762 0.95709 0.0
C1149 C 0.92442 0.68564 0.96275 0.0
C1150 C 0.93133 0.60417 0.96197 0.0
C1151 C 0.96028 0.61262 0.98064 0.0
C1152 C 0.93546 0.65995 0.97087 0.0
C1153 C 0.97538 0.64504 0.99543 0.0
C1154 C 0.93976 0.71805 0.97734 0.0
C1155 C 0.88999 0.70028 0.92852 0.0
N1156 N 0.96295 0.66758 0.98997 0.0
N1157 N 0.89988 0.67789 0.93912 0.0
H1158 H 0.14285 0.30697 0.13776 0.0
H1159 H 0.09985 0.38437 0.97697 0.0
H1160 H 0.18709 0.29632 0.01761 0.0
H1161 H 0.10259 0.42562 0.09799 0.0
H1162 H 0.12422 0.34594 0.9895 0.0
H1163 H 0.11951 0.34432 0.12202 0.0
C1164 C 0.14798 0.3126 0.1081 0.0
C1165 C 0.16752 0.29865 0.07913 0.0
C1166 C 0.11953 0.36356 0.01313 0.0
C1167 C 0.13974 0.34092 0.06069 0.0
C1168 C 0.10573 0.38551 0.006 0.0
C1169 C 0.09945 0.40851 0.03631 0.0
C1170 C 0.12621 0.36417 0.05106 0.0
C1171 C 0.10709 0.40852 0.07359 0.0
C1172 C 0.13438 0.33382 0.0991 0.0
C1173 C 0.17203 0.3062 0.04087 0.0
N1174 N 0.11978 0.3866 0.07992 0.0
N1175 N 0.15822 0.3268 0.03272 0.0
H1176 H 0.24418 0.64978 0.78352 0.0
H1177 H 0.08172 0.6205 0.93363 0.0
H1178 H 0.23113 0.72302 0.87666 0.0
H1179 H 0.12419 0.54475 0.90555 0.0
H1180 H 0.13367 0.65699 0.9033 0.0
H1181 H 0.19905 0.60898 0.81933 0.0
C1182 C 0.23241 0.65723 0.81178 0.0
C1183 C 0.24106 0.68998 0.82679 0.0
C1184 C 0.13164 0.63236 0.90346 0.0
C1185 C 0.18931 0.6437 0.86714 0.0
C1186 C 0.10191 0.61141 0.92052 0.0
C1187 C 0.09851 0.57944 0.92173 0.0
C1188 C 0.15813 0.62125 0.88628 0.0
C1189 C 0.12582 0.56921 0.905 0.0
C1190 C 0.20665 0.63395 0.83206 0.0
C1191 C 0.22486 0.6982 0.8635 0.0
N1192 N 0.15448 0.58999 0.88731 0.0
N1193 N 0.19941 0.67537 0.88197 0.0
H1194 H 0.33632 0.13639 0.89813 0.0
H1195 H 0.47951 0.14754 0.02437 0.0
H1196 H 0.36998 0.21436 0.98984 0.0
H1197 H 0.45444 0.08256 0.91857 0.0
H1198 H 0.43738 0.17067 0.01683 0.0
H1199 H 0.37721 0.11437 0.90985 0.0
C1200 C 0.35243 0.14896 0.92073 0.0
C1201 C 0.34979 0.17735 0.94292 0.0
C1202 C 0.44133 0.15141 0.9953 0.0
C1203 C 0.39679 0.15202 0.95691 0.0
C1204 C 0.46532 0.13819 0.99961 0.0
C1205 C 0.47061 0.11302 0.97211 0.0
C1206 C 0.42261 0.13927 0.96334 0.0
C1207 C 0.45149 0.10193 0.94056 0.0
C1208 C 0.37575 0.1363 0.92756 0.0
C1209 C 0.3709 0.19219 0.97241 0.0
N1210 N 0.42847 0.11505 0.93716 0.0
N1211 N 0.39363 0.17941 0.97852 0.0
H1212 H 0.83042 0.36324 0.83633 0.0
H1213 H 0.99607 0.39115 0.93241 0.0
H1214 H 0.88007 0.29359 0.82522 0.0
H1215 H 0.9555 0.46668 0.93711 0.0
H1216 H 0.94931 0.35378 0.89918 0.0
H1217 H 0.87177 0.40006 0.87877 0.0
C1218 C 0.84977 0.35553 0.84296 0.0
C1219 C 0.85174 0.32517 0.82695 0.0
C1220 C 0.95047 0.37849 0.90746 0.0
C1221 C 0.89899 0.3672 0.87547 0.0
C1222 C 0.97731 0.39996 0.92644 0.0
C1223 C 0.9801 0.43233 0.93706 0.0
C1224 C 0.92606 0.38926 0.8987 0.0
C1225 C 0.95453 0.44201 0.92914 0.0
C1226 C 0.87336 0.3766 0.86719 0.0
C1227 C 0.87731 0.31656 0.83678 0.0
N1228 N 0.92866 0.4206 0.9101 0.0
N1229 N 0.8999 0.33747 0.86018 0.0
H1230 H 0.78923 0.86649 0.82388 0.0
H1231 H 0.60408 0.87955 0.88012 0.0
H1232 H 0.69649 0.78748 0.80757 0.0
H1233 H 0.69068 0.95431 0.92464 0.0
H1234 H 0.63949 0.84815 0.84978 0.0
H1235 H 0.75618 0.90054 0.85752 0.0
C1236 C 0.762 0.85606 0.82775 0.0
C1237 C 0.74591 0.8236 0.81322 0.0
C1238 C 0.65103 0.8714 0.86605 0.0
C1239 C 0.70755 0.86319 0.85075 0.0
C1240 C 0.63069 0.88968 0.8835 0.0
C1241 C 0.64407 0.9201 0.90521 0.0
C1242 C 0.68569 0.8832 0.86959 0.0
C1243 C 0.679 0.93121 0.90817 0.0
C1244 C 0.74308 0.87572 0.84676 0.0
C1245 C 0.71036 0.81214 0.81813 0.0
N1246 N 0.69853 0.91289 0.89053 0.0
N1247 N 0.69265 0.83175 0.83615 0.0
H1248 H 0.88859 0.754 0.18893 0.0
H1249 H 0.89754 0.57941 0.09318 0.0
H1250 H 0.80095 0.6678 0.18947 0.0
H1251 H 0.98477 0.66508 0.10785 0.0
H1252 H 0.86118 0.61091 0.1247 0.0
H1253 H 0.92321 0.72192 0.1552 0.0
C1254 C 0.87652 0.7283 0.18199 0.0
C1255 C 0.84168 0.71371 0.19286 0.0
C1256 C 0.8883 0.62278 0.12104 0.0
C1257 C 0.88164 0.67632 0.15364 0.0
C1258 C 0.90914 0.60474 0.103 0.0
C1259 C 0.94454 0.61931 0.09791 0.0
C1260 C 0.90275 0.65588 0.13391 0.0
C1261 C 0.95779 0.65245 0.11121 0.0
C1262 C 0.89642 0.70988 0.16273 0.0
C1263 C 0.82773 0.68018 0.18251 0.0
N1264 N 0.93708 0.66939 0.12835 0.0
N1265 N 0.84763 0.66273 0.16368 0.0
H1266 H 0.38434 0.86413 0.23701 0.0
H1267 H 0.44048 0.92928 0.03274 0.0
H1268 H 0.31762 0.83471 0.14822 0.0
H1269 H 0.49185 0.97774 0.13327 0.0
H1270 H 0.39313 0.89723 0.0753 0.0
H1271 H 0.42231 0.9079 0.20092 0.0
C1272 C 0.37747 0.8672 0.21015 0.0
C1273 C 0.34783 0.84573 0.19553 0.0
C1274 C 0.41425 0.91549 0.08831 0.0
C1275 C 0.39143 0.8956 0.15371 0.0
C1276 C 0.44111 0.93398 0.06405 0.0
C1277 C 0.46967 0.95657 0.07974 0.0
C1278 C 0.41643 0.91898 0.12846 0.0
C1279 C 0.4699 0.96103 0.12026 0.0
C1280 C 0.39911 0.89225 0.18959 0.0
C1281 C 0.34009 0.85085 0.16066 0.0
N1282 N 0.44393 0.94202 0.14319 0.0
N1283 N 0.36202 0.87495 0.1406 0.0
H1284 H 0.72432 0.24984 0.15732 0.0
H1285 H 0.62623 0.06714 0.07482 0.0
H1286 H 0.73517 0.16899 0.19596 0.0
H1287 H 0.60059 0.1482 0.06041 0.0
H1288 H 0.67335 0.1041 0.10953 0.0
H1289 H 0.68647 0.21284 0.11183 0.0
C1290 C 0.71909 0.2243 0.15593 0.0
C1291 C 0.73276 0.21254 0.18084 0.0
C1292 C 0.65753 0.11375 0.09846 0.0
C1293 C 0.68917 0.16988 0.12864 0.0
C1294 C 0.63072 0.0927 0.07849 0.0
C1295 C 0.60912 0.10452 0.06503 0.0
C1296 C 0.66303 0.14687 0.1046 0.0
C1297 C 0.61624 0.1379 0.07067 0.0
C1298 C 0.69736 0.20315 0.12997 0.0
C1299 C 0.72525 0.17916 0.17735 0.0
N1300 N 0.64242 0.15781 0.0901 0.0
N1301 N 0.70371 0.15896 0.152 0.0
H1302 H 0.69859 0.71414 0.83606 0.0
H1303 H 0.63218 0.53399 0.86458 0.0
H1304 H 0.76729 0.66199 0.79458 0.0
H1305 H 0.6258 0.60459 0.96408 0.0
H1306 H 0.67517 0.57685 0.82999 0.0
H1307 H 0.66279 0.6705 0.87425 0.0
C1308 C 0.70589 0.69331 0.83466 0.0
C1309 C 0.73586 0.69156 0.81215 0.0
C1310 C 0.66465 0.58271 0.85964 0.0
C1311 C 0.69491 0.64158 0.85516 0.0
C1312 C 0.64031 0.55833 0.87946 0.0
C1313 C 0.62533 0.56562 0.91738 0.0
C1314 C 0.67313 0.61473 0.87731 0.0
C1315 C 0.63659 0.59772 0.93503 0.0
C1316 C 0.68569 0.66866 0.85669 0.0
C1317 C 0.74439 0.66421 0.81169 0.0
N1318 N 0.65917 0.62118 0.91453 0.0
N1319 N 0.72377 0.64001 0.83248 0.0
H1320 H 0.41854 0.63769 0.7725 0.0
H1321 H 0.55759 0.63223 0.89256 0.0
H1322 H 0.51076 0.71811 0.78734 0.0
H1323 H 0.47446 0.55007 0.85243 0.0
H1324 H 0.54081 0.66592 0.85813 0.0
H1325 H 0.43789 0.60712 0.80714 0.0
C1326 C 0.44282 0.64901 0.78338 0.0
C1327 C 0.46299 0.68053 0.77723 0.0
C1328 C 0.52652 0.64045 0.85677 0.0
C1329 C 0.48575 0.64535 0.81649 0.0
C1330 C 0.53606 0.62128 0.87635 0.0
C1331 C 0.51734 0.58835 0.87546 0.0
C1332 C 0.49805 0.62643 0.83657 0.0
C1333 C 0.48971 0.57531 0.85401 0.0
C1334 C 0.45403 0.63144 0.8029 0.0
C1335 C 0.49456 0.69376 0.79131 0.0
N1336 N 0.48086 0.59438 0.83571 0.0
N1337 N 0.50502 0.67609 0.81045 0.0
H1338 H 0.37321 0.28776 0.84914 0.0
H1339 H 0.4927 0.46823 0.91206 0.0
H1340 H 0.37028 0.3705 0.80662 0.0
H1341 H 0.48057 0.38931 0.97332 0.0
H1342 H 0.45094 0.43204 0.87033 0.0
H1343 H 0.41501 0.32352 0.89147 0.0
C1344 C 0.38146 0.31341 0.84835 0.0
C1345 C 0.36823 0.32592 0.82361 0.0
C1346 C 0.45732 0.42254 0.89287 0.0
C1347 C 0.41651 0.36726 0.87251 0.0
C1348 C 0.48136 0.44324 0.9168 0.0
C1349 C 0.49047 0.43195 0.94647 0.0
C1350 C 0.44216 0.38995 0.89805 0.0
C1351 C 0.4745 0.39921 0.95096 0.0
C1352 C 0.40534 0.33386 0.87276 0.0
C1353 C 0.37996 0.35951 0.82446 0.0
N1354 N 0.45131 0.37941 0.92697 0.0
N1355 N 0.40339 0.37887 0.84829 0.0
H1356 H 0.68577 0.32274 0.94677 0.0
H1357 H 0.65375 0.46556 0.06703 0.0
H1358 H 0.76436 0.41171 0.98123 0.0
H1359 H 0.57875 0.37371 0.03509 0.0
H1360 H 0.69431 0.43879 0.06475 0.0
H1361 H 0.65152 0.33082 0.00684 0.0
C1362 C 0.69662 0.34374 0.96699 0.0
C1363 C 0.72732 0.36806 0.95673 0.0
C1364 C 0.66873 0.42431 0.05926 0.0
C1365 C 0.68633 0.37821 0.02519 0.0
C1366 C 0.64562 0.43965 0.06018 0.0
C1367 C 0.61363 0.42198 0.04855 0.0
C1368 C 0.65986 0.39132 0.04564 0.0
C1369 C 0.60384 0.38843 0.04207 0.0
C1370 C 0.67655 0.34839 1.00174 0.0
C1371 C 0.7396 0.39372 0.98592 0.0
N1372 N 0.62721 0.37423 0.03959 0.0
N1373 N 0.71845 0.39896 0.01809 0.0
H1374 H 0.66357 0.39972 0.23474 0.0
H1375 H 0.52855 0.40846 0.11083 0.0
H1376 H 0.56996 0.32128 0.21905 0.0
H1377 H 0.60826 0.49068 0.15764 0.0
H1378 H 0.54549 0.37389 0.14352 0.0
H1379 H 0.64647 0.43096 0.19821 0.0
C1380 C 0.63953 0.38892 0.22324 0.0
C1381 C 0.61817 0.35784 0.22998 0.0
C1382 C 0.55905 0.39954 0.14667 0.0
C1383 C 0.59811 0.39378 0.18856 0.0
C1384 C 0.54939 0.41923 0.12814 0.0
C1385 C 0.56689 0.45251 0.13168 0.0
C1386 C 0.58653 0.41331 0.16847 0.0
C1387 C 0.59382 0.46523 0.15426 0.0
C1388 C 0.62963 0.4069 0.20267 0.0
C1389 C 0.58703 0.34531 0.21486 0.0
N1390 N 0.60285 0.44562 0.17158 0.0
N1391 N 0.57789 0.36334 0.19481 0.0
H1392 H 0.7048 0.75004 0.1702 0.0
H1393 H 0.59122 0.57108 0.09454 0.0
H1394 H 0.71555 0.66549 0.19886 0.0
H1395 H 0.60378 0.65205 0.03681 0.0
H1396 H 0.63266 0.60614 0.13732 0.0
H1397 H 0.66422 0.71559 0.12559 0.0
C1398 C 0.6985 0.72426 0.16748 0.0
C1399 C 0.71335 0.71076 0.18915 0.0
C1400 C 0.62646 0.61631 0.11528 0.0
C1401 C 0.6666 0.67107 0.13788 0.0
C1402 C 0.60262 0.59629 0.09081 0.0
C1403 C 0.59378 0.60855 0.06189 0.0
C1404 C 0.6415 0.64915 0.11147 0.0
C1405 C 0.60976 0.64148 0.05858 0.0
C1406 C 0.67536 0.70461 0.14181 0.0
C1407 C 0.70426 0.67711 0.1838 0.0
N1408 N 0.63264 0.66066 0.08321 0.0
N1409 N 0.68142 0.65853 0.15901 0.0
H1410 H 0.46995 0.78145 0.0189 0.0
H1411 H 0.43142 0.59896 0.96702 0.0
H1412 H 0.36858 0.71282 0.01959 0.0
H1413 H 0.53029 0.67115 0.95154 0.0
H1414 H 0.40628 0.63975 0.96638 0.0
H1415 H 0.49021 0.74341 0.97284 0.0
C1416 C 0.45169 0.75877 0.00852 0.0
C1417 C 0.41773 0.74972 0.02475 0.0
C1418 C 0.4335 0.64647 0.9621 0.0
C1419 C 0.4411 0.70529 0.97335 0.0
C1420 C 0.44779 0.62319 0.96261 0.0
C1421 C 0.48284 0.63211 0.96106 0.0
C1422 C 0.45458 0.67867 0.96022 0.0
C1423 C 0.50302 0.66358 0.95449 0.0
C1424 C 0.46337 0.73678 0.98233 0.0
C1425 C 0.39534 0.7201 0.00946 0.0
N1426 N 0.48861 0.68584 0.95505 0.0
N1427 N 0.40757 0.69841 0.98571 0.0
H1428 H 0.39159 0.32526 0.16765 0.0
H1429 H 0.44888 0.50479 0.14293 0.0
H1430 H 0.31813 0.37213 0.20911 0.0
H1431 H 0.45886 0.43672 0.04178 0.0
H1432 H 0.40692 0.46037 0.17592 0.0
H1433 H 0.425 0.36988 0.12987 0.0
C1434 C 0.38268 0.34508 0.16897 0.0
C1435 C 0.35212 0.34511 0.19138 0.0
C1436 C 0.41793 0.45542 0.14622 0.0
C1437 C 0.3903 0.39616 0.14901 0.0
C1438 C 0.44166 0.48068 0.12733 0.0
C1439 C 0.45736 0.47452 0.08947 0.0
C1440 C 0.41085 0.42375 0.12764 0.0
C1441 C 0.44738 0.44269 0.07082 0.0
C1442 C 0.40152 0.37027 0.14724 0.0
C1443 C 0.3415 0.37122 0.19194 0.0
N1444 N 0.42541 0.4184 0.09044 0.0
N1445 N 0.36084 0.39603 0.17149 0.0
H1446 H 0.90469 0.74273 0.71368 0.0
H1447 H 0.90875 0.57903 0.57508 0.0
H1448 H 0.81512 0.67102 0.67182 0.0
H1449 H 0.99201 0.64548 0.63407 0.0
H1450 H 0.87481 0.61327 0.60529 0.0
H1451 H 0.93731 0.70866 0.68063 0.0
C1452 C 0.89173 0.71992 0.69741 0.0
C1453 C 0.8568 0.71025 0.69557 0.0
C1454 C 0.90053 0.62034 0.61158 0.0
C1455 C 0.89471 0.67044 0.6569 0.0
C1456 C 0.92004 0.60076 0.59417 0.0
C1457 C 0.95354 0.60899 0.60191 0.0
C1458 C 0.91451 0.6487 0.63686 0.0
C1459 C 0.96643 0.63771 0.62709 0.0
C1460 C 0.91053 0.70033 0.6784 0.0
C1461 C 0.84192 0.68008 0.67379 0.0
N1462 N 0.94712 0.65624 0.64339 0.0
N1463 N 0.8608 0.66145 0.65542 0.0
H1464 H 0.34635 0.80329 0.6368 0.0
H1465 H 0.45744 0.99014 0.65829 0.0
H1466 H 0.35619 0.86526 0.74651 0.0
H1467 H 0.46539 0.9263 0.55198 0.0
H1468 H 0.41985 0.94425 0.69046 0.0
H1469 H 0.38873 0.84759 0.60416 0.0
C1470 C 0.35754 0.8262 0.65395 0.0
C1471 C 0.34803 0.83064 0.69438 0.0
C1472 C 0.42997 0.94013 0.66019 0.0
C1473 C 0.39599 0.88134 0.65744 0.0
C1474 C 0.4515 0.96637 0.64177 0.0
C1475 C 0.46454 0.9621 0.60232 0.0
C1476 C 0.42088 0.90923 0.639 0.0
C1477 C 0.45604 0.93067 0.58249 0.0
C1478 C 0.38165 0.85144 0.63538 0.0
C1479 C 0.36271 0.86089 0.71524 0.0
N1480 N 0.43443 0.90543 0.60093 0.0
N1481 N 0.38594 0.88503 0.69657 0.0
H1482 H 0.21387 0.31101 0.53048 0.0
H1483 H 0.15364 0.46324 0.58202 0.0
H1484 H 0.24097 0.38501 0.62825 0.0
H1485 H 0.11468 0.38631 0.49127 0.0
H1486 H 0.18324 0.43242 0.60076 0.0
H1487 H 0.17599 0.3361 0.51608 0.0
C1488 C 0.21183 0.33243 0.54899 0.0
C1489 C 0.23071 0.34586 0.58072 0.0
C1490 C 0.168 0.42192 0.57699 0.0
C1491 C 0.18718 0.37444 0.56456 0.0
C1492 C 0.15102 0.43954 0.56634 0.0
C1493 C 0.1317 0.42722 0.53515 0.0
C1494 C 0.16628 0.39184 0.55586 0.0
C1495 C 0.1291 0.39643 0.51578 0.0
C1496 C 0.19 0.34658 0.54089 0.0
C1497 C 0.22666 0.37342 0.60389 0.0
N1498 N 0.14663 0.37986 0.52615 0.0
N1499 N 0.20555 0.38678 0.59523 0.0
H1500 H 0.68858 0.19363 0.71127 0.0
H1501 H 0.67046 0.06799 0.51945 0.0
H1502 H 0.76725 0.20935 0.61365 0.0
H1503 H 0.58533 0.0831 0.59623 0.0
H1504 H 0.70814 0.11659 0.55444 0.0
H1505 H 0.65184 0.15014 0.67059 0.0
C1506 C 0.69817 0.18807 0.68116 0.0
C1507 C 0.73136 0.20485 0.66613 0.0
C1508 C 0.68117 0.10927 0.56325 0.0
C1509 C 0.68922 0.15443 0.61922 0.0
C1510 C 0.65967 0.0815 0.54349 0.0
C1511 C 0.62465 0.07122 0.55509 0.0
C1512 C 0.66752 0.12652 0.59511 0.0
C1513 C 0.6121 0.08986 0.58627 0.0
C1514 C 0.67709 0.16312 0.6579 0.0
C1515 C 0.7421 0.19652 0.62668 0.0
N1516 N 0.63349 0.11631 0.60534 0.0
N1517 N 0.72125 0.17151 0.60465 0.0
H1518 H 0.83178 0.31131 0.38483 0.0
H1519 H 0.98258 0.47434 0.39845 0.0
H1520 H 0.84498 0.38095 0.30857 0.0
H1521 H 0.91785 0.44646 0.50449 0.0
H1522 H 0.94089 0.43216 0.36049 0.0
H1523 H 0.87171 0.35323 0.42566 0.0
C1524 C 0.84309 0.33539 0.37674 0.0
C1525 C 0.83509 0.34287 0.34349 0.0
C1526 C 0.93597 0.4353 0.39207 0.0
C1527 C 0.88101 0.39014 0.38905 0.0
C1528 C 0.95969 0.45914 0.41369 0.0
C1529 C 0.95343 0.46385 0.45455 0.0
C1530 C 0.90636 0.41542 0.41153 0.0
C1531 C 0.92335 0.44365 0.47296 0.0
C1532 C 0.86563 0.35917 0.40003 0.0
C1533 C 0.85032 0.37438 0.33421 0.0
N1534 N 0.90096 0.41996 0.45129 0.0
N1535 N 0.87298 0.39679 0.35655 0.0
H1536 H 0.70991 0.80179 0.36401 0.0
H1537 H 0.62002 0.9224 0.3514 0.0
H1538 H 0.74784 0.86258 0.27287 0.0
H1539 H 0.64993 0.92302 0.46234 0.0
H1540 H 0.65653 0.89145 0.31955 0.0
H1541 H 0.67787 0.8362 0.39832 0.0
C1542 C 0.71187 0.82238 0.35124 0.0
C1543 C 0.73252 0.82925 0.31566 0.0
C1544 C 0.65512 0.89837 0.35086 0.0
C1545 C 0.69414 0.86842 0.35426 0.0
C1546 C 0.63419 0.91602 0.36921 0.0
C1547 C 0.63165 0.92551 0.40988 0.0
C1548 C 0.673 0.88884 0.37325 0.0
C1549 C 0.65091 0.91639 0.43109 0.0
C1550 C 0.69339 0.8421 0.37093 0.0
C1551 C 0.73282 0.85623 0.30036 0.0
N1552 N 0.67022 0.89817 0.41271 0.0
N1553 N 0.71369 0.87439 0.31932 0.0
H1554 H 0.23956 0.66501 0.26937 0.0
H1555 H 0.10898 0.60745 0.45805 0.0
H1556 H 0.22235 0.73282 0.36752 0.0
H1557 H 0.12673 0.54534 0.35363 0.0
H1558 H 0.14751 0.65421 0.42622 0.0
H1559 H 0.19667 0.6217 0.3008 0.0
C1560 C 0.22705 0.67087 0.29784 0.0
C1561 C 0.23522 0.70276 0.31599 0.0
C1562 C 0.14266 0.63032 0.41028 0.0
C1563 C 0.18486 0.65255 0.35246 0.0
C1564 C 0.1205 0.60361 0.42833 0.0
C1565 C 0.11465 0.57224 0.40867 0.0
C1566 C 0.15904 0.62559 0.37233 0.0
C1567 C 0.13055 0.56887 0.37026 0.0
C1568 C 0.20213 0.64596 0.31574 0.0
C1569 C 0.2171 0.7086 0.35251 0.0
N1570 N 0.15198 0.59502 0.35364 0.0
N1571 N 0.19288 0.68373 0.36967 0.0
H1572 H 0.38013 0.18677 0.37028 0.0
H1573 H 0.5139 0.14809 0.46799 0.0
H1574 H 0.48745 0.23788 0.35363 0.0
H1575 H 0.41102 0.08456 0.46108 0.0
H1576 H 0.50303 0.1859 0.43465 0.0
H1577 H 0.3895 0.15377 0.41219 0.0
C1578 C 0.40562 0.19126 0.37576 0.0
C1579 C 0.43306 0.21497 0.35821 0.0
C1580 C 0.4828 0.16376 0.44067 0.0
C1581 C 0.444 0.17722 0.40601 0.0
C1582 C 0.48894 0.14223 0.45985 0.0
C1583 C 0.46341 0.11299 0.46708 0.0
C1584 C 0.45081 0.15612 0.42894 0.0
C1585 C 0.43155 0.10667 0.45582 0.0
C1586 C 0.41098 0.17229 0.39949 0.0
C1587 C 0.46561 0.21954 0.36608 0.0
N1588 N 0.42619 0.12799 0.43725 0.0
N1589 N 0.47018 0.20082 0.38934 0.0
H1590 H 0.64496 0.76977 0.55041 0.0
H1591 H 0.6582 0.95349 0.56952 0.0
H1592 H 0.71488 0.84819 0.61662 0.0
H1593 H 0.5792 0.87538 0.5154 0.0
H1594 H 0.67943 0.91482 0.58592 0.0
H1595 H 0.62113 0.80756 0.53573 0.0
C1596 C 0.65537 0.79493 0.56181 0.0
C1597 C 0.68201 0.80577 0.58487 0.0
C1598 C 0.65735 0.90601 0.57063 0.0
C1599 C 0.65461 0.84912 0.56834 0.0
C1600 C 0.64517 0.92813 0.56121 0.0
C1601 C 0.6168 0.9177 0.54106 0.0
C1602 C 0.6413 0.87303 0.55964 0.0
C1603 C 0.60102 0.88449 0.53114 0.0
C1604 C 0.64158 0.81645 0.5536 0.0
C1605 C 0.69412 0.8386 0.5992 0.0
N1606 N 0.6136 0.86332 0.54035 0.0
N1607 N 0.68043 0.85905 0.5906 0.0
H1608 H 0.71627 0.22923 0.38539 0.0
H1609 H 0.61455 0.0403 0.35892 0.0
H1610 H 0.71542 0.16739 0.27583 0.0
H1611 H 0.60133 0.10187 0.46573 0.0
H1612 H 0.65055 0.08743 0.32815 0.0
H1613 H 0.67358 0.18388 0.41586 0.0
C1614 C 0.70691 0.20617 0.36777 0.0
C1615 C 0.71921 0.20199 0.32807 0.0
C1616 C 0.63962 0.09078 0.35823 0.0
C1617 C 0.671 0.15011 0.3626 0.0
C1618 C 0.61902 0.06381 0.37585 0.0
C1619 C 0.60502 0.0671 0.41504 0.0
C1620 C 0.64678 0.12143 0.37998 0.0
C1621 C 0.61154 0.09824 0.4354 0.0
C1622 C 0.68266 0.18032 0.38513 0.0
C1623 C 0.70677 0.17156 0.30662 0.0
N1624 N 0.63228 0.12423 0.41776 0.0
N1625 N 0.68344 0.14684 0.32414 0.0
H1626 H 0.9256 0.67447 0.32212 0.0
H1627 H 0.90529 0.58501 0.50143 0.0
H1628 H 0.83812 0.65772 0.40901 0.0
H1629 H 1.00343 0.63315 0.44226 0.0
H1630 H 0.88104 0.61403 0.46998 0.0
H1631 H 0.95575 0.66195 0.36656 0.0
C1632 C 0.91291 0.66851 0.35074 0.0
C1633 C 0.87922 0.66677 0.36179 0.0
C1634 C 0.90798 0.61876 0.46432 0.0
C1635 C 0.91338 0.65229 0.41254 0.0
C1636 C 0.92179 0.60216 0.48222 0.0
C1637 C 0.95628 0.6066 0.47408 0.0
C1638 C 0.92866 0.63928 0.4372 0.0
C1639 C 0.97668 0.62915 0.4492 0.0
C1640 C 0.93017 0.66159 0.37615 0.0
C1641 C 0.86407 0.65936 0.39935 0.0
N1642 N 0.96242 0.64422 0.4309 0.0
N1643 N 0.88107 0.65188 0.42312 0.0
H1644 H 0.30077 0.82923 0.38177 0.0
H1645 H 0.48639 0.94251 0.42458 0.0
H1646 H 0.39005 0.84117 0.29817 0.0
H1647 H 0.39959 0.96587 0.48509 0.0
H1648 H 0.44945 0.89726 0.38623 0.0
H1649 H 0.33465 0.87268 0.42697 0.0
C1650 C 0.32731 0.84095 0.37278 0.0
C1651 C 0.3425 0.83139 0.33597 0.0
C1652 C 0.4384 0.91221 0.40793 0.0
C1653 C 0.38142 0.88011 0.38784 0.0
C1654 C 0.4595 0.93813 0.43002 0.0
C1655 C 0.44622 0.95846 0.45789 0.0
C1656 C 0.40351 0.90612 0.41368 0.0
C1657 C 0.41099 0.95105 0.46368 0.0
C1658 C 0.34664 0.86554 0.39869 0.0
C1659 C 0.37725 0.84692 0.32641 0.0
N1660 N 0.39077 0.92546 0.44162 0.0
N1661 N 0.39543 0.87029 0.35211 0.0
H1662 H 0.18638 0.29057 0.29845 0.0
H1663 H 0.1821 0.45597 0.43192 0.0
H1664 H 0.2768 0.36654 0.3316 0.0
H1665 H 0.0983 0.3879 0.37507 0.0
H1666 H 0.21629 0.42196 0.40183 0.0
H1667 H 0.15324 0.32409 0.33193 0.0
C1668 C 0.19942 0.31419 0.3129 0.0
C1669 C 0.23474 0.32529 0.31218 0.0
C1670 C 0.19039 0.41449 0.39601 0.0
C1671 C 0.19632 0.36434 0.35133 0.0
C1672 C 0.17076 0.43392 0.41333 0.0
C1673 C 0.13709 0.42519 0.40599 0.0
C1674 C 0.17631 0.38576 0.3714 0.0
C1675 C 0.12406 0.39606 0.3816 0.0
C1676 C 0.18033 0.33345 0.33213 0.0
C1677 C 0.24975 0.35643 0.33167 0.0
N1678 N 0.14349 0.37764 0.36542 0.0
N1679 N 0.2306 0.37467 0.35037 0.0
H1680 H 0.30224 0.15755 0.70433 0.0
H1681 H 0.48589 0.15052 0.61688 0.0
H1682 H 0.39034 0.24234 0.69132 0.0
H1683 H 0.39574 0.07172 0.58923 0.0
H1684 H 0.45124 0.18306 0.6485 0.0
H1685 H 0.33534 0.12456 0.66733 0.0
C1686 C 0.32853 0.16931 0.69388 0.0
C1687 C 0.34335 0.203 0.70135 0.0
C1688 C 0.4389 0.15873 0.63538 0.0
C1689 C 0.38174 0.16499 0.65888 0.0
C1690 C 0.45876 0.14 0.61722 0.0
C1691 C 0.44396 0.1081 0.60007 0.0
C1692 C 0.40352 0.1456 0.63755 0.0
C1693 C 0.40848 0.09614 0.6017 0.0
C1694 C 0.3474 0.15038 0.67249 0.0
C1695 C 0.37758 0.2166 0.68651 0.0
N1696 N 0.38955 0.11466 0.62044 0.0
N1697 N 0.39549 0.19768 0.6665 0.0
H1698 H 0.8567 0.29981 0.62115 0.0
H1699 H 0.97025 0.48602 0.65275 0.0
H1700 H 0.8704 0.35806 0.73314 0.0
H1701 H 0.97596 0.42775 0.54128 0.0
H1702 H 0.93403 0.43804 0.68181 0.0
H1703 H 0.90104 0.34444 0.59023 0.0
C1704 C 0.86925 0.32175 0.63922 0.0
C1705 C 0.85932 0.32545 0.67966 0.0
C1706 C 0.94338 0.43552 0.65104 0.0
C1707 C 0.90969 0.37641 0.64474 0.0
C1708 C 0.96413 0.46304 0.63439 0.0
C1709 C 0.97627 0.46103 0.59448 0.0
C1710 C 0.93404 0.40549 0.62767 0.0
C1711 C 0.9674 0.43042 0.57225 0.0
C1712 C 0.89444 0.34722 0.6216 0.0
C1713 C 0.87655 0.35432 0.70174 0.0
N1714 N 0.94652 0.40389 0.58903 0.0
N1715 N 0.90048 0.37861 0.68404 0.0
H1716 H 0.21041 0.72017 0.67284 0.0
H1717 H 0.17593 0.5515 0.53722 0.0
H1718 H 0.26239 0.65507 0.67712 0.0
H1719 H 0.10097 0.59745 0.57202 0.0
H1720 H 0.21361 0.59411 0.57913 0.0
H1721 H 0.17533 0.67972 0.62699 0.0
C1722 C 0.21461 0.69748 0.66409 0.0
C1723 C 0.23951 0.69112 0.67893 0.0
C1724 C 0.18895 0.59486 0.57741 0.0
C1725 C 0.1996 0.64487 0.62603 0.0
C1726 C 0.16754 0.57072 0.55334 0.0
C1727 C 0.13522 0.57088 0.55132 0.0
C1728 C 0.17816 0.61959 0.59902 0.0
C1729 C 0.12559 0.59628 0.57298 0.0
C1730 C 0.19451 0.6744 0.63793 0.0
C1731 C 0.24363 0.66116 0.66642 0.0
N1732 N 0.14699 0.61966 0.59587 0.0
N1733 N 0.22399 0.63921 0.64056 0.0
loop_
_geom_bond_atom_site_label_1
_geom_bond_atom_site_label_2
_geom_bond_distance
_geom_bond_site_symmetry_2
_ccdc_geom_bond_type
Eu0 N29 2.600 . S
Eu0 N35 2.562 . S
Eu0 O44 2.462 . S
Eu0 O45 2.373 . S
Eu0 O47 2.432 . S
Eu0 O48 2.291 . S
Eu0 O52 2.335 . S
Eu0 O55 2.372 . S
Eu0 C64 2.787 . S
C1 N2 1.365 . S
C1 C4 1.405 . S
C1 C8 1.448 . S
N2 C1 1.365 . S
N2 C5 1.319 . S
N2 Eu11 2.600 . S
C3 C5 1.397 . S
C3 C6 1.367 . S
C3 H23 0.931 . S
C4 C1 1.405 . S
C4 C6 1.403 . S
C4 C10 1.439 . S
C5 N2 1.319 . S
C5 C3 1.397 . S
C5 H16 0.930 . S
C6 C3 1.367 . S
C6 C4 1.403 . S
C6 H27 0.929 . S
C7 C8 1.430 . S
C7 C9 1.387 . S
C7 C13 1.404 . S
C8 C1 1.448 . S
C8 C7 1.430 . S
C8 N12 1.351 . S
C9 C7 1.387 . S
C9 C10 1.374 . S
C9 H24 0.931 . S
C10 C4 1.439 . S
C10 C9 1.374 . S
C10 H25 0.931 . S
Eu11 N2 2.600 . S
Eu11 N12 2.562 . S
Eu11 O46 2.335 . S
Eu11 O49 2.372 . S
Eu11 O50 2.462 . S
Eu11 O51 2.373 . S
Eu11 O53 2.432 . S
Eu11 O54 2.291 . S
Eu11 C75 2.787 . S
N12 C8 1.351 . S
N12 Eu11 2.562 . S
N12 C14 1.325 . S
C13 C7 1.404 . S
C13 C15 1.366 . S
C13 H21 0.930 . S
C14 N12 1.325 . S
C14 C15 1.416 . S
C14 H20 0.929 . S
C15 C13 1.366 . S
C15 C14 1.416 . S
C15 H17 0.930 . S
H16 C5 0.930 . S
H17 C15 0.930 . S
H18 C33 0.930 . S
H19 C40 0.930 . S
H20 C14 0.929 . S
H21 C13 0.930 . S
H22 C36 0.929 . S
H23 C3 0.931 . S
H24 C9 0.931 . S
H25 C10 0.931 . S
H26 C31 0.931 . S
H27 C6 0.929 . S
H28 C39 0.930 . S
N29 Eu0 2.600 . S
N29 C30 1.365 . S
N29 C33 1.319 . S
C30 N29 1.365 . S
C30 C32 1.405 . S
C30 C38 1.448 . S
C31 H26 0.931 . S
C31 C33 1.397 . S
C31 C34 1.367 . S
C32 C30 1.405 . S
C32 C34 1.403 . S
C32 C65 1.439 . S
C33 H18 0.930 . S
C33 N29 1.319 . S
C33 C31 1.397 . S
C34 C31 1.367 . S
C34 C32 1.403 . S
C34 H41 0.929 . S
N35 Eu0 2.562 . S
N35 C36 1.325 . S
N35 C38 1.351 . S
C36 H22 0.929 . S
C36 N35 1.325 . S
C36 C40 1.416 . S
C37 C38 1.430 . S
C37 C39 1.404 . S
C37 C66 1.387 . S
C38 C30 1.448 . S
C38 N35 1.351 . S
C38 C37 1.430 . S
C39 H28 0.930 . S
C39 C37 1.404 . S
C39 C40 1.366 . S
C40 H19 0.930 . S
C40 C36 1.416 . S
C40 C39 1.366 . S
H41 C34 0.929 . S
H42 C65 0.931 . S
H43 C66 0.931 . S
O44 Eu0 2.462 . S
O44 C64 1.252 . S
O45 Eu0 2.373 . S
O45 C56 1.249 . S
O46 Eu11 2.335 . S
O46 C56 1.264 . S
O47 Eu0 2.432 . S
O47 C64 1.268 . S
O48 Eu0 2.291 . S
O48 C63 1.255 . S
O49 Eu11 2.372 . S
O49 C63 1.257 . S
O50 Eu11 2.462 . S
O50 C75 1.252 . S
O51 Eu11 2.373 . S
O51 C67 1.249 . S
O52 Eu0 2.335 . S
O52 C67 1.264 . S
O53 Eu11 2.432 . S
O53 C75 1.268 . S
O54 Eu11 2.291 . S
O54 C74 1.255 . S
O55 Eu0 2.372 . S
O55 C74 1.257 . S
C56 O45 1.249 . S
C56 O46 1.264 . S
C57 C60 1.382 . S
C57 C62 1.390 . S
C57 C64 1.506 . S
C58 C59 1.398 . S
C58 C62 1.392 . S
C59 C58 1.398 . S
C59 C61 1.372 . S
C59 H76 0.931 . S
C60 C57 1.382 . S
C60 C61 1.390 . S
C60 H77 0.931 . S
C61 C59 1.372 . S
C61 C60 1.390 . S
C61 H78 0.929 . S
C62 C57 1.390 . S
C62 C58 1.392 . S
C62 H79 0.930 . S
C63 O48 1.255 . S
C63 O49 1.257 . S
C64 Eu0 2.787 . S
C64 O44 1.252 . S
C64 O47 1.268 . S
C64 C57 1.506 . S
C65 C32 1.439 . S
C65 H42 0.931 . S
C65 C66 1.374 . S
C66 C37 1.387 . S
C66 H43 0.931 . S
C66 C65 1.374 . S
C67 O51 1.249 . S
C67 O52 1.264 . S
C68 C71 1.382 . S
C68 C72 1.390 . S
C68 C75 1.506 . S
C69 C70 1.398 . S
C69 C72 1.392 . S
C70 C69 1.398 . S
C70 C73 1.372 . S
C70 H80 0.931 . S
C71 C68 1.382 . S
C71 C73 1.390 . S
C71 H81 0.931 . S
C72 C68 1.390 . S
C72 C69 1.392 . S
C72 H82 0.930 . S
C73 C70 1.372 . S
C73 C71 1.390 . S
C73 H83 0.929 . S
C74 O54 1.255 . S
C74 O55 1.257 . S
C75 Eu11 2.787 . S
C75 O50 1.252 . S
C75 O53 1.268 . S
C75 C68 1.506 . S
H76 C59 0.931 . S
H77 C60 0.931 . S
H78 C61 0.929 . S
H79 C62 0.930 . S
H80 C70 0.931 . S
H81 C71 0.931 . S
H82 C72 0.930 . S
H83 C73 0.929 . S
Eu84 N113 2.600 . S
Eu84 N119 2.562 . S
Eu84 O128 2.462 . S
Eu84 O129 2.373 . S
Eu84 O131 2.432 . S
Eu84 O132 2.291 . S
Eu84 O136 2.335 . S
Eu84 O139 2.372 . S
Eu84 C148 2.787 . S
C85 N86 1.365 . S
C85 C88 1.405 . S
C85 C92 1.448 . S
N86 C85 1.365 . S
N86 C89 1.319 . S
N86 Eu95 2.600 . S
C87 C89 1.397 . S
C87 C90 1.367 . S
C87 H107 0.931 . S
C88 C85 1.405 . S
C88 C90 1.403 . S
C88 C94 1.439 . S
C89 N86 1.319 . S
C89 C87 1.397 . S
C89 H100 0.930 . S
C90 C87 1.367 . S
C90 C88 1.403 . S
C90 H111 0.929 . S
C91 C92 1.430 . S
C91 C93 1.387 . S
C91 C97 1.404 . S
C92 C85 1.448 . S
C92 C91 1.430 . S
C92 N96 1.351 . S
C93 C91 1.387 . S
C93 C94 1.374 . S
C93 H108 0.931 . S
C94 C88 1.439 . S
C94 C93 1.374 . S
C94 H109 0.931 . S
Eu95 N86 2.600 . S
Eu95 N96 2.562 . S
Eu95 O130 2.335 . S
Eu95 O133 2.372 . S
Eu95 O134 2.462 . S
Eu95 O135 2.373 . S
Eu95 O137 2.432 . S
Eu95 O138 2.291 . S
Eu95 C159 2.787 . S
N96 C92 1.351 . S
N96 Eu95 2.562 . S
N96 C98 1.325 . S
C97 C91 1.404 . S
C97 C99 1.366 . S
C97 H105 0.930 . S
C98 N96 1.325 . S
C98 C99 1.416 . S
C98 H104 0.929 . S
C99 C97 1.366 . S
C99 C98 1.416 . S
C99 H101 0.930 . S
H100 C89 0.930 . S
H101 C99 0.930 . S
H102 C117 0.930 . S
H103 C124 0.930 . S
H104 C98 0.929 . S
H105 C97 0.930 . S
H106 C120 0.929 . S
H107 C87 0.931 . S
H108 C93 0.931 . S
H109 C94 0.931 . S
H110 C115 0.931 . S
H111 C90 0.929 . S
H112 C123 0.930 . S
N113 Eu84 2.600 . S
N113 C114 1.365 . S
N113 C117 1.319 . S
C114 N113 1.365 . S
C114 C116 1.405 . S
C114 C122 1.448 . S
C115 H110 0.931 . S
C115 C117 1.397 . S
C115 C118 1.367 . S
C116 C114 1.405 . S
C116 C118 1.403 . S
C116 C149 1.439 . S
C117 H102 0.930 . S
C117 N113 1.319 . S
C117 C115 1.397 . S
C118 C115 1.367 . S
C118 C116 1.403 . S
C118 H125 0.929 . S
N119 Eu84 2.562 . S
N119 C120 1.325 . S
N119 C122 1.351 . S
C120 H106 0.929 . S
C120 N119 1.325 . S
C120 C124 1.416 . S
C121 C122 1.430 . S
C121 C123 1.404 . S
C121 C150 1.387 . S
C122 C114 1.448 . S
C122 N119 1.351 . S
C122 C121 1.430 . S
C123 H112 0.930 . S
C123 C121 1.404 . S
C123 C124 1.366 . S
C124 H103 0.930 . S
C124 C120 1.416 . S
C124 C123 1.366 . S
H125 C118 0.929 . S
H126 C149 0.931 . S
H127 C150 0.931 . S
O128 Eu84 2.462 . S
O128 C148 1.252 . S
O129 Eu84 2.373 . S
O129 C140 1.249 . S
O130 Eu95 2.335 . S
O130 C140 1.264 . S
O131 Eu84 2.432 . S
O131 C148 1.268 . S
O132 Eu84 2.291 . S
O132 C147 1.255 . S
O133 Eu95 2.372 . S
O133 C147 1.257 . S
O134 Eu95 2.462 . S
O134 C159 1.252 . S
O135 Eu95 2.373 . S
O135 C151 1.249 . S
O136 Eu84 2.335 . S
O136 C151 1.264 . S
O137 Eu95 2.432 . S
O137 C159 1.268 . S
O138 Eu95 2.291 . S
O138 C158 1.255 . S
O139 Eu84 2.372 . S
O139 C158 1.257 . S
C140 O129 1.249 . S
C140 O130 1.264 . S
C141 C144 1.382 . S
C141 C146 1.390 . S
C141 C148 1.506 . S
C142 C143 1.398 . S
C142 C146 1.392 . S
C143 C142 1.398 . S
C143 C145 1.372 . S
C143 H160 0.931 . S
C144 C141 1.382 . S
C144 C145 1.390 . S
C144 H161 0.931 . S
C145 C143 1.372 . S
C145 C144 1.390 . S
C145 H162 0.929 . S
C146 C141 1.390 . S
C146 C142 1.392 . S
C146 H163 0.930 . S
C147 O132 1.255 . S
C147 O133 1.257 . S
C148 Eu84 2.787 . S
C148 O128 1.252 . S
C148 O131 1.268 . S
C148 C141 1.506 . S
C149 C116 1.439 . S
C149 H126 0.931 . S
C149 C150 1.374 . S
C150 C121 1.387 . S
C150 H127 0.931 . S
C150 C149 1.374 . S
C151 O135 1.249 . S
C151 O136 1.264 . S
C152 C155 1.382 . S
C152 C156 1.390 . S
C152 C159 1.506 . S
C153 C154 1.398 . S
C153 C156 1.392 . S
C154 C153 1.398 . S
C154 C157 1.372 . S
C154 H164 0.931 . S
C155 C152 1.382 . S
C155 C157 1.390 . S
C155 H165 0.931 . S
C156 C152 1.390 . S
C156 C153 1.392 . S
C156 H166 0.930 . S
C157 C154 1.372 . S
C157 C155 1.390 . S
C157 H167 0.929 . S
C158 O138 1.255 . S
C158 O139 1.257 . S
C159 Eu95 2.787 . S
C159 O134 1.252 . S
C159 O137 1.268 . S
C159 C152 1.506 . S
H160 C143 0.931 . S
H161 C144 0.931 . S
H162 C145 0.929 . S
H163 C146 0.930 . S
H164 C154 0.931 . S
H165 C155 0.931 . S
H166 C156 0.930 . S
H167 C157 0.929 . S
Eu168 N197 2.600 . S
Eu168 N203 2.562 . S
Eu168 O212 2.462 . S
Eu168 O213 2.373 . S
Eu168 O215 2.432 . S
Eu168 O216 2.291 . S
Eu168 O220 2.335 . S
Eu168 O223 2.372 . S
Eu168 C232 2.787 . S
C169 N170 1.365 . S
C169 C172 1.405 . S
C169 C176 1.448 . S
N170 C169 1.365 . S
N170 C173 1.319 . S
N170 Eu179 2.600 . S
C171 C173 1.397 . S
C171 C174 1.367 . S
C171 H191 0.931 . S
C172 C169 1.405 . S
C172 C174 1.403 . S
C172 C178 1.439 . S
C173 N170 1.319 . S
C173 C171 1.397 . S
C173 H184 0.930 . S
C174 C171 1.367 . S
C174 C172 1.403 . S
C174 H195 0.929 . S
C175 C176 1.430 . S
C175 C177 1.387 . S
C175 C181 1.404 . S
C176 C169 1.448 . S
C176 C175 1.430 . S
C176 N180 1.351 . S
C177 C175 1.387 . S
C177 C178 1.374 . S
C177 H192 0.931 . S
C178 C172 1.439 . S
C178 C177 1.374 . S
C178 H193 0.931 . S
Eu179 N170 2.600 . S
Eu179 N180 2.562 . S
Eu179 O214 2.335 . S
Eu179 O217 2.372 . S
Eu179 O218 2.462 . S
Eu179 O219 2.373 . S
Eu179 O221 2.432 . S
Eu179 O222 2.291 . S
Eu179 C243 2.787 . S
N180 C176 1.351 . S
N180 Eu179 2.562 . S
N180 C182 1.325 . S
C181 C175 1.404 . S
C181 C183 1.366 . S
C181 H189 0.930 . S
C182 N180 1.325 . S
C182 C183 1.416 . S
C182 H188 0.929 . S
C183 C181 1.366 . S
C183 C182 1.416 . S
C183 H185 0.930 . S
H184 C173 0.930 . S
H185 C183 0.930 . S
H186 C201 0.930 . S
H187 C208 0.930 . S
H188 C182 0.929 . S
H189 C181 0.930 . S
H190 C204 0.929 . S
H191 C171 0.931 . S
H192 C177 0.931 . S
H193 C178 0.931 . S
H194 C199 0.931 . S
H195 C174 0.929 . S
H196 C207 0.930 . S
N197 Eu168 2.600 . S
N197 C198 1.365 . S
N197 C201 1.319 . S
C198 N197 1.365 . S
C198 C200 1.405 . S
C198 C206 1.448 . S
C199 H194 0.931 . S
C199 C201 1.397 . S
C199 C202 1.367 . S
C200 C198 1.405 . S
C200 C202 1.403 . S
C200 C233 1.439 . S
C201 H186 0.930 . S
C201 N197 1.319 . S
C201 C199 1.397 . S
C202 C199 1.367 . S
C202 C200 1.403 . S
C202 H209 0.929 . S
N203 Eu168 2.562 . S
N203 C204 1.325 . S
N203 C206 1.351 . S
C204 H190 0.929 . S
C204 N203 1.325 . S
C204 C208 1.416 . S
C205 C206 1.430 . S
C205 C207 1.404 . S
C205 C234 1.387 . S
C206 C198 1.448 . S
C206 N203 1.351 . S
C206 C205 1.430 . S
C207 H196 0.930 . S
C207 C205 1.404 . S
C207 C208 1.366 . S
C208 H187 0.930 . S
C208 C204 1.416 . S
C208 C207 1.366 . S
H209 C202 0.929 . S
H210 C233 0.931 . S
H211 C234 0.931 . S
O212 Eu168 2.462 . S
O212 C232 1.252 . S
O213 Eu168 2.373 . S
O213 C224 1.249 . S
O214 Eu179 2.335 . S
O214 C224 1.264 . S
O215 Eu168 2.432 . S
O215 C232 1.268 . S
O216 Eu168 2.291 . S
O216 C231 1.255 . S
O217 Eu179 2.372 . S
O217 C231 1.257 . S
O218 Eu179 2.462 . S
O218 C243 1.252 . S
O219 Eu179 2.373 . S
O219 C235 1.249 . S
O220 Eu168 2.335 . S
O220 C235 1.264 . S
O221 Eu179 2.432 . S
O221 C243 1.268 . S
O222 Eu179 2.291 . S
O222 C242 1.255 . S
O223 Eu168 2.372 . S
O223 C242 1.257 . S
C224 O213 1.249 . S
C224 O214 1.264 . S
C225 C228 1.382 . S
C225 C230 1.390 . S
C225 C232 1.506 . S
C226 C227 1.398 . S
C226 C230 1.392 . S
C227 C226 1.398 . S
C227 C229 1.372 . S
C227 H244 0.931 . S
C228 C225 1.382 . S
C228 C229 1.390 . S
C228 H245 0.931 . S
C229 C227 1.372 . S
C229 C228 1.390 . S
C229 H246 0.929 . S
C230 C225 1.390 . S
C230 C226 1.392 . S
C230 H247 0.930 . S
C231 O216 1.255 . S
C231 O217 1.257 . S
C232 Eu168 2.787 . S
C232 O212 1.252 . S
C232 O215 1.268 . S
C232 C225 1.506 . S
C233 C200 1.439 . S
C233 H210 0.931 . S
C233 C234 1.374 . S
C234 C205 1.387 . S
C234 H211 0.931 . S
C234 C233 1.374 . S
C235 O219 1.249 . S
C235 O220 1.264 . S
C236 C239 1.382 . S
C236 C240 1.390 . S
C236 C243 1.506 . S
C237 C238 1.398 . S
C237 C240 1.392 . S
C238 C237 1.398 . S
C238 C241 1.372 . S
C238 H248 0.931 . S
C239 C236 1.382 . S
C239 C241 1.390 . S
C239 H249 0.931 . S
C240 C236 1.390 . S
C240 C237 1.392 . S
C240 H250 0.930 . S
C241 C238 1.372 . S
C241 C239 1.390 . S
C241 H251 0.929 . S
C242 O222 1.255 . S
C242 O223 1.257 . S
C243 Eu179 2.787 . S
C243 O218 1.252 . S
C243 O221 1.268 . S
C243 C236 1.506 . S
H244 C227 0.931 . S
H245 C228 0.931 . S
H246 C229 0.929 . S
H247 C230 0.930 . S
H248 C238 0.931 . S
H249 C239 0.931 . S
H250 C240 0.930 . S
H251 C241 0.929 . S
Eu252 N281 2.600 . S
Eu252 N287 2.562 . S
Eu252 O296 2.462 . S
Eu252 O297 2.373 . S
Eu252 O299 2.432 . S
Eu252 O300 2.291 . S
Eu252 O304 2.335 . S
Eu252 O307 2.372 . S
Eu252 C316 2.787 . S
C253 N254 1.365 . S
C253 C256 1.405 . S
C253 C260 1.448 . S
N254 C253 1.365 . S
N254 C257 1.319 . S
N254 Eu263 2.600 . S
C255 C257 1.397 . S
C255 C258 1.367 . S
C255 H275 0.931 . S
C256 C253 1.405 . S
C256 C258 1.403 . S
C256 C262 1.439 . S
C257 N254 1.319 . S
C257 C255 1.397 . S
C257 H268 0.930 . S
C258 C255 1.367 . S
C258 C256 1.403 . S
C258 H279 0.929 . S
C259 C260 1.430 . S
C259 C261 1.387 . S
C259 C265 1.404 . S
C260 C253 1.448 . S
C260 C259 1.430 . S
C260 N264 1.351 . S
C261 C259 1.387 . S
C261 C262 1.374 . S
C261 H276 0.931 . S
C262 C256 1.439 . S
C262 C261 1.374 . S
C262 H277 0.931 . S
Eu263 N254 2.600 . S
Eu263 N264 2.562 . S
Eu263 O298 2.335 . S
Eu263 O301 2.372 . S
Eu263 O302 2.462 . S
Eu263 O303 2.373 . S
Eu263 O305 2.432 . S
Eu263 O306 2.291 . S
Eu263 C327 2.787 . S
N264 C260 1.351 . S
N264 Eu263 2.562 . S
N264 C266 1.325 . S
C265 C259 1.404 . S
C265 C267 1.366 . S
C265 H273 0.930 . S
C266 N264 1.325 . S
C266 C267 1.416 . S
C266 H272 0.929 . S
C267 C265 1.366 . S
C267 C266 1.416 . S
C267 H269 0.930 . S
H268 C257 0.930 . S
H269 C267 0.930 . S
H270 C285 0.930 . S
H271 C292 0.930 . S
H272 C266 0.929 . S
H273 C265 0.930 . S
H274 C288 0.929 . S
H275 C255 0.931 . S
H276 C261 0.931 . S
H277 C262 0.931 . S
H278 C283 0.931 . S
H279 C258 0.929 . S
H280 C291 0.930 . S
N281 Eu252 2.600 . S
N281 C282 1.365 . S
N281 C285 1.319 . S
C282 N281 1.365 . S
C282 C284 1.405 . S
C282 C290 1.448 . S
C283 H278 0.931 . S
C283 C285 1.397 . S
C283 C286 1.367 . S
C284 C282 1.405 . S
C284 C286 1.403 . S
C284 C317 1.439 . S
C285 H270 0.930 . S
C285 N281 1.319 . S
C285 C283 1.397 . S
C286 C283 1.367 . S
C286 C284 1.403 . S
C286 H293 0.929 . S
N287 Eu252 2.562 . S
N287 C288 1.325 . S
N287 C290 1.351 . S
C288 H274 0.929 . S
C288 N287 1.325 . S
C288 C292 1.416 . S
C289 C290 1.430 . S
C289 C291 1.404 . S
C289 C318 1.387 . S
C290 C282 1.448 . S
C290 N287 1.351 . S
C290 C289 1.430 . S
C291 H280 0.930 . S
C291 C289 1.404 . S
C291 C292 1.366 . S
C292 H271 0.930 . S
C292 C288 1.416 . S
C292 C291 1.366 . S
H293 C286 0.929 . S
H294 C317 0.931 . S
H295 C318 0.931 . S
O296 Eu252 2.462 . S
O296 C316 1.252 . S
O297 Eu252 2.373 . S
O297 C308 1.249 . S
O298 Eu263 2.335 . S
O298 C308 1.264 . S
O299 Eu252 2.432 . S
O299 C316 1.268 . S
O300 Eu252 2.291 . S
O300 C315 1.255 . S
O301 Eu263 2.372 . S
O301 C315 1.257 . S
O302 Eu263 2.462 . S
O302 C327 1.252 . S
O303 Eu263 2.373 . S
O303 C319 1.249 . S
O304 Eu252 2.335 . S
O304 C319 1.264 . S
O305 Eu263 2.432 . S
O305 C327 1.268 . S
O306 Eu263 2.291 . S
O306 C326 1.255 . S
O307 Eu252 2.372 . S
O307 C326 1.257 . S
C308 O297 1.249 . S
C308 O298 1.264 . S
C309 C312 1.382 . S
C309 C314 1.390 . S
C309 C316 1.506 . S
C310 C311 1.398 . S
C310 C314 1.392 . S
C311 C310 1.398 . S
C311 C313 1.372 . S
C311 H328 0.931 . S
C312 C309 1.382 . S
C312 C313 1.390 . S
C312 H329 0.931 . S
C313 C311 1.372 . S
C313 C312 1.390 . S
C313 H330 0.929 . S
C314 C309 1.390 . S
C314 C310 1.392 . S
C314 H331 0.930 . S
C315 O300 1.255 . S
C315 O301 1.257 . S
C316 Eu252 2.787 . S
C316 O296 1.252 . S
C316 O299 1.268 . S
C316 C309 1.506 . S
C317 C284 1.439 . S
C317 H294 0.931 . S
C317 C318 1.374 . S
C318 C289 1.387 . S
C318 H295 0.931 . S
C318 C317 1.374 . S
C319 O303 1.249 . S
C319 O304 1.264 . S
C320 C323 1.382 . S
C320 C324 1.390 . S
C320 C327 1.506 . S
C321 C322 1.398 . S
C321 C324 1.392 . S
C322 C321 1.398 . S
C322 C325 1.372 . S
C322 H332 0.931 . S
C323 C320 1.382 . S
C323 C325 1.390 . S
C323 H333 0.931 . S
C324 C320 1.390 . S
C324 C321 1.392 . S
C324 H334 0.930 . S
C325 C322 1.372 . S
C325 C323 1.390 . S
C325 H335 0.929 . S
C326 O306 1.255 . S
C326 O307 1.257 . S
C327 Eu263 2.787 . S
C327 O302 1.252 . S
C327 O305 1.268 . S
C327 C320 1.506 . S
H328 C311 0.931 . S
H329 C312 0.931 . S
H330 C313 0.929 . S
H331 C314 0.930 . S
H332 C322 0.931 . S
H333 C323 0.931 . S
H334 C324 0.930 . S
H335 C325 0.929 . S
Eu336 N365 2.600 . S
Eu336 N371 2.562 . S
Eu336 O380 2.462 . S
Eu336 O381 2.373 . S
Eu336 O383 2.432 . S
Eu336 O384 2.291 . S
Eu336 O388 2.335 . S
Eu336 O391 2.372 . S
Eu336 C400 2.787 . S
C337 N338 1.365 . S
C337 C340 1.405 . S
C337 C344 1.448 . S
N338 C337 1.365 . S
N338 C341 1.319 . S
N338 Eu347 2.600 . S
C339 C341 1.397 . S
C339 C342 1.367 . S
C339 H359 0.931 . S
C340 C337 1.405 . S
C340 C342 1.403 . S
C340 C346 1.439 . S
C341 N338 1.319 . S
C341 C339 1.397 . S
C341 H352 0.930 . S
C342 C339 1.367 . S
C342 C340 1.403 . S
C342 H363 0.929 . S
C343 C344 1.430 . S
C343 C345 1.387 . S
C343 C349 1.404 . S
C344 C337 1.448 . S
C344 C343 1.430 . S
C344 N348 1.351 . S
C345 C343 1.387 . S
C345 C346 1.374 . S
C345 H360 0.931 . S
C346 C340 1.439 . S
C346 C345 1.374 . S
C346 H361 0.931 . S
Eu347 N338 2.600 . S
Eu347 N348 2.562 . S
Eu347 O382 2.335 . S
Eu347 O385 2.372 . S
Eu347 O386 2.462 . S
Eu347 O387 2.373 . S
Eu347 O389 2.432 . S
Eu347 O390 2.291 . S
Eu347 C411 2.787 . S
N348 C344 1.351 . S
N348 Eu347 2.562 . S
N348 C350 1.325 . S
C349 C343 1.404 . S
C349 C351 1.366 . S
C349 H357 0.930 . S
C350 N348 1.325 . S
C350 C351 1.416 . S
C350 H356 0.929 . S
C351 C349 1.366 . S
C351 C350 1.416 . S
C351 H353 0.930 . S
H352 C341 0.930 . S
H353 C351 0.930 . S
H354 C369 0.930 . S
H355 C376 0.930 . S
H356 C350 0.929 . S
H357 C349 0.930 . S
H358 C372 0.929 . S
H359 C339 0.931 . S
H360 C345 0.931 . S
H361 C346 0.931 . S
H362 C367 0.931 . S
H363 C342 0.929 . S
H364 C375 0.930 . S
N365 Eu336 2.600 . S
N365 C366 1.365 . S
N365 C369 1.319 . S
C366 N365 1.365 . S
C366 C368 1.405 . S
C366 C374 1.448 . S
C367 H362 0.931 . S
C367 C369 1.397 . S
C367 C370 1.367 . S
C368 C366 1.405 . S
C368 C370 1.403 . S
C368 C401 1.439 . S
C369 H354 0.930 . S
C369 N365 1.319 . S
C369 C367 1.397 . S
C370 C367 1.367 . S
C370 C368 1.403 . S
C370 H377 0.929 . S
N371 Eu336 2.562 . S
N371 C372 1.325 . S
N371 C374 1.351 . S
C372 H358 0.929 . S
C372 N371 1.325 . S
C372 C376 1.416 . S
C373 C374 1.430 . S
C373 C375 1.404 . S
C373 C402 1.387 . S
C374 C366 1.448 . S
C374 N371 1.351 . S
C374 C373 1.430 . S
C375 H364 0.930 . S
C375 C373 1.404 . S
C375 C376 1.366 . S
C376 H355 0.930 . S
C376 C372 1.416 . S
C376 C375 1.366 . S
H377 C370 0.929 . S
H378 C401 0.931 . S
H379 C402 0.931 . S
O380 Eu336 2.462 . S
O380 C400 1.252 . S
O381 Eu336 2.373 . S
O381 C392 1.249 . S
O382 Eu347 2.335 . S
O382 C392 1.264 . S
O383 Eu336 2.432 . S
O383 C400 1.268 . S
O384 Eu336 2.291 . S
O384 C399 1.255 . S
O385 Eu347 2.372 . S
O385 C399 1.257 . S
O386 Eu347 2.462 . S
O386 C411 1.252 . S
O387 Eu347 2.373 . S
O387 C403 1.249 . S
O388 Eu336 2.335 . S
O388 C403 1.264 . S
O389 Eu347 2.432 . S
O389 C411 1.268 . S
O390 Eu347 2.291 . S
O390 C410 1.255 . S
O391 Eu336 2.372 . S
O391 C410 1.257 . S
C392 O381 1.249 . S
C392 O382 1.264 . S
C393 C396 1.382 . S
C393 C398 1.390 . S
C393 C400 1.506 . S
C394 C395 1.398 . S
C394 C398 1.392 . S
C395 C394 1.398 . S
C395 C397 1.372 . S
C395 H412 0.931 . S
C396 C393 1.382 . S
C396 C397 1.390 . S
C396 H413 0.931 . S
C397 C395 1.372 . S
C397 C396 1.390 . S
C397 H414 0.929 . S
C398 C393 1.390 . S
C398 C394 1.392 . S
C398 H415 0.930 . S
C399 O384 1.255 . S
C399 O385 1.257 . S
C400 Eu336 2.787 . S
C400 O380 1.252 . S
C400 O383 1.268 . S
C400 C393 1.506 . S
C401 C368 1.439 . S
C401 H378 0.931 . S
C401 C402 1.374 . S
C402 C373 1.387 . S
C402 H379 0.931 . S
C402 C401 1.374 . S
C403 O387 1.249 . S
C403 O388 1.264 . S
C404 C407 1.382 . S
C404 C408 1.390 . S
C404 C411 1.506 . S
C405 C406 1.398 . S
C405 C408 1.392 . S
C406 C405 1.398 . S
C406 C409 1.372 . S
C406 H416 0.931 . S
C407 C404 1.382 . S
C407 C409 1.390 . S
C407 H417 0.931 . S
C408 C404 1.390 . S
C408 C405 1.392 . S
C408 H418 0.930 . S
C409 C406 1.372 . S
C409 C407 1.390 . S
C409 H419 0.929 . S
C410 O390 1.255 . S
C410 O391 1.257 . S
C411 Eu347 2.787 . S
C411 O386 1.252 . S
C411 O389 1.268 . S
C411 C404 1.506 . S
H412 C395 0.931 . S
H413 C396 0.931 . S
H414 C397 0.929 . S
H415 C398 0.930 . S
H416 C406 0.931 . S
H417 C407 0.931 . S
H418 C408 0.930 . S
H419 C409 0.929 . S
Eu420 N449 2.600 . S
Eu420 N455 2.562 . S
Eu420 O464 2.462 . S
Eu420 O465 2.373 . S
Eu420 O467 2.432 . S
Eu420 O468 2.291 . S
Eu420 O472 2.335 . S
Eu420 O475 2.372 . S
Eu420 C484 2.787 . S
C421 N422 1.365 . S
C421 C424 1.405 . S
C421 C428 1.448 . S
N422 C421 1.365 . S
N422 C425 1.319 . S
N422 Eu431 2.600 . S
C423 C425 1.397 . S
C423 C426 1.367 . S
C423 H443 0.931 . S
C424 C421 1.405 . S
C424 C426 1.403 . S
C424 C430 1.439 . S
C425 N422 1.319 . S
C425 C423 1.397 . S
C425 H436 0.930 . S
C426 C423 1.367 . S
C426 C424 1.403 . S
C426 H447 0.929 . S
C427 C428 1.430 . S
C427 C429 1.387 . S
C427 C433 1.404 . S
C428 C421 1.448 . S
C428 C427 1.430 . S
C428 N432 1.351 . S
C429 C427 1.387 . S
C429 C430 1.374 . S
C429 H444 0.931 . S
C430 C424 1.439 . S
C430 C429 1.374 . S
C430 H445 0.931 . S
Eu431 N422 2.600 . S
Eu431 N432 2.562 . S
Eu431 O466 2.335 . S
Eu431 O469 2.372 . S
Eu431 O470 2.462 . S
Eu431 O471 2.373 . S
Eu431 O473 2.432 . S
Eu431 O474 2.291 . S
Eu431 C495 2.787 . S
N432 C428 1.351 . S
N432 Eu431 2.562 . S
N432 C434 1.325 . S
C433 C427 1.404 . S
C433 C435 1.366 . S
C433 H441 0.930 . S
C434 N432 1.325 . S
C434 C435 1.416 . S
C434 H440 0.929 . S
C435 C433 1.366 . S
C435 C434 1.416 . S
C435 H437 0.930 . S
H436 C425 0.930 . S
H437 C435 0.930 . S
H438 C453 0.930 . S
H439 C460 0.930 . S
H440 C434 0.929 . S
H441 C433 0.930 . S
H442 C456 0.929 . S
H443 C423 0.931 . S
H444 C429 0.931 . S
H445 C430 0.931 . S
H446 C451 0.931 . S
H447 C426 0.929 . S
H448 C459 0.930 . S
N449 Eu420 2.600 . S
N449 C450 1.365 . S
N449 C453 1.319 . S
C450 N449 1.365 . S
C450 C452 1.405 . S
C450 C458 1.448 . S
C451 H446 0.931 . S
C451 C453 1.397 . S
C451 C454 1.367 . S
C452 C450 1.405 . S
C452 C454 1.403 . S
C452 C485 1.439 . S
C453 H438 0.930 . S
C453 N449 1.319 . S
C453 C451 1.397 . S
C454 C451 1.367 . S
C454 C452 1.403 . S
C454 H461 0.929 . S
N455 Eu420 2.562 . S
N455 C456 1.325 . S
N455 C458 1.351 . S
C456 H442 0.929 . S
C456 N455 1.325 . S
C456 C460 1.416 . S
C457 C458 1.430 . S
C457 C459 1.404 . S
C457 C486 1.387 . S
C458 C450 1.448 . S
C458 N455 1.351 . S
C458 C457 1.430 . S
C459 H448 0.930 . S
C459 C457 1.404 . S
C459 C460 1.366 . S
C460 H439 0.930 . S
C460 C456 1.416 . S
C460 C459 1.366 . S
H461 C454 0.929 . S
H462 C485 0.931 . S
H463 C486 0.931 . S
O464 Eu420 2.462 . S
O464 C484 1.252 . S
O465 Eu420 2.373 . S
O465 C476 1.249 . S
O466 Eu431 2.335 . S
O466 C476 1.264 . S
O467 Eu420 2.432 . S
O467 C484 1.268 . S
O468 Eu420 2.291 . S
O468 C483 1.255 . S
O469 Eu431 2.372 . S
O469 C483 1.257 . S
O470 Eu431 2.462 . S
O470 C495 1.252 . S
O471 Eu431 2.373 . S
O471 C487 1.249 . S
O472 Eu420 2.335 . S
O472 C487 1.264 . S
O473 Eu431 2.432 . S
O473 C495 1.268 . S
O474 Eu431 2.291 . S
O474 C494 1.255 . S
O475 Eu420 2.372 . S
O475 C494 1.257 . S
C476 O465 1.249 . S
C476 O466 1.264 . S
C477 C480 1.382 . S
C477 C482 1.390 . S
C477 C484 1.506 . S
C478 C479 1.398 . S
C478 C482 1.392 . S
C479 C478 1.398 . S
C479 C481 1.372 . S
C479 H496 0.931 . S
C480 C477 1.382 . S
C480 C481 1.390 . S
C480 H497 0.931 . S
C481 C479 1.372 . S
C481 C480 1.390 . S
C481 H498 0.929 . S
C482 C477 1.390 . S
C482 C478 1.392 . S
C482 H499 0.930 . S
C483 O468 1.255 . S
C483 O469 1.257 . S
C484 Eu420 2.787 . S
C484 O464 1.252 . S
C484 O467 1.268 . S
C484 C477 1.506 . S
C485 C452 1.439 . S
C485 H462 0.931 . S
C485 C486 1.374 . S
C486 C457 1.387 . S
C486 H463 0.931 . S
C486 C485 1.374 . S
C487 O471 1.249 . S
C487 O472 1.264 . S
C488 C491 1.382 . S
C488 C492 1.390 . S
C488 C495 1.506 . S
C489 C490 1.398 . S
C489 C492 1.392 . S
C490 C489 1.398 . S
C490 C493 1.372 . S
C490 H500 0.931 . S
C491 C488 1.382 . S
C491 C493 1.390 . S
C491 H501 0.931 . S
C492 C488 1.390 . S
C492 C489 1.392 . S
C492 H502 0.930 . S
C493 C490 1.372 . S
C493 C491 1.390 . S
C493 H503 0.929 . S
C494 O474 1.255 . S
C494 O475 1.257 . S
C495 Eu431 2.787 . S
C495 O470 1.252 . S
C495 O473 1.268 . S
C495 C488 1.506 . S
H496 C479 0.931 . S
H497 C480 0.931 . S
H498 C481 0.929 . S
H499 C482 0.930 . S
H500 C490 0.931 . S
H501 C491 0.931 . S
H502 C492 0.930 . S
H503 C493 0.929 . S
Eu504 N533 2.600 . S
Eu504 N539 2.562 . S
Eu504 O548 2.462 . S
Eu504 O549 2.373 . S
Eu504 O551 2.432 . S
Eu504 O552 2.291 . S
Eu504 O556 2.335 . S
Eu504 O559 2.372 . S
Eu504 C568 2.787 . S
C505 N506 1.365 . S
C505 C508 1.405 . S
C505 C512 1.448 . S
N506 C505 1.365 . S
N506 C509 1.319 . S
N506 Eu515 2.600 . S
C507 C509 1.397 . S
C507 C510 1.367 . S
C507 H527 0.931 . S
C508 C505 1.405 . S
C508 C510 1.403 . S
C508 C514 1.439 . S
C509 N506 1.319 . S
C509 C507 1.397 . S
C509 H520 0.930 . S
C510 C507 1.367 . S
C510 C508 1.403 . S
C510 H531 0.929 . S
C511 C512 1.430 . S
C511 C513 1.387 . S
C511 C517 1.404 . S
C512 C505 1.448 . S
C512 C511 1.430 . S
C512 N516 1.351 . S
C513 C511 1.387 . S
C513 C514 1.374 . S
C513 H528 0.931 . S
C514 C508 1.439 . S
C514 C513 1.374 . S
C514 H529 0.931 . S
Eu515 N506 2.600 . S
Eu515 N516 2.562 . S
Eu515 O550 2.335 . S
Eu515 O553 2.372 . S
Eu515 O554 2.462 . S
Eu515 O555 2.373 . S
Eu515 O557 2.432 . S
Eu515 O558 2.291 . S
Eu515 C579 2.787 . S
N516 C512 1.351 . S
N516 Eu515 2.562 . S
N516 C518 1.325 . S
C517 C511 1.404 . S
C517 C519 1.366 . S
C517 H525 0.930 . S
C518 N516 1.325 . S
C518 C519 1.416 . S
C518 H524 0.929 . S
C519 C517 1.366 . S
C519 C518 1.416 . S
C519 H521 0.930 . S
H520 C509 0.930 . S
H521 C519 0.930 . S
H522 C537 0.930 . S
H523 C544 0.930 . S
H524 C518 0.929 . S
H525 C517 0.930 . S
H526 C540 0.929 . S
H527 C507 0.931 . S
H528 C513 0.931 . S
H529 C514 0.931 . S
H530 C535 0.931 . S
H531 C510 0.929 . S
H532 C543 0.930 . S
N533 Eu504 2.600 . S
N533 C534 1.365 . S
N533 C537 1.319 . S
C534 N533 1.365 . S
C534 C536 1.405 . S
C534 C542 1.448 . S
C535 H530 0.931 . S
C535 C537 1.397 . S
C535 C538 1.367 . S
C536 C534 1.405 . S
C536 C538 1.403 . S
C536 C569 1.439 . S
C537 H522 0.930 . S
C537 N533 1.319 . S
C537 C535 1.397 . S
C538 C535 1.367 . S
C538 C536 1.403 . S
C538 H545 0.929 . S
N539 Eu504 2.562 . S
N539 C540 1.325 . S
N539 C542 1.351 . S
C540 H526 0.929 . S
C540 N539 1.325 . S
C540 C544 1.416 . S
C541 C542 1.430 . S
C541 C543 1.404 . S
C541 C570 1.387 . S
C542 C534 1.448 . S
C542 N539 1.351 . S
C542 C541 1.430 . S
C543 H532 0.930 . S
C543 C541 1.404 . S
C543 C544 1.366 . S
C544 H523 0.930 . S
C544 C540 1.416 . S
C544 C543 1.366 . S
H545 C538 0.929 . S
H546 C569 0.931 . S
H547 C570 0.931 . S
O548 Eu504 2.462 . S
O548 C568 1.252 . S
O549 Eu504 2.373 . S
O549 C560 1.249 . S
O550 Eu515 2.335 . S
O550 C560 1.264 . S
O551 Eu504 2.432 . S
O551 C568 1.268 . S
O552 Eu504 2.291 . S
O552 C567 1.255 . S
O553 Eu515 2.372 . S
O553 C567 1.257 . S
O554 Eu515 2.462 . S
O554 C579 1.252 . S
O555 Eu515 2.373 . S
O555 C571 1.249 . S
O556 Eu504 2.335 . S
O556 C571 1.264 . S
O557 Eu515 2.432 . S
O557 C579 1.268 . S
O558 Eu515 2.291 . S
O558 C578 1.255 . S
O559 Eu504 2.372 . S
O559 C578 1.257 . S
C560 O549 1.249 . S
C560 O550 1.264 . S
C561 C564 1.382 . S
C561 C566 1.390 . S
C561 C568 1.506 . S
C562 C563 1.398 . S
C562 C566 1.392 . S
C563 C562 1.398 . S
C563 C565 1.372 . S
C563 H580 0.931 . S
C564 C561 1.382 . S
C564 C565 1.390 . S
C564 H581 0.931 . S
C565 C563 1.372 . S
C565 C564 1.390 . S
C565 H582 0.929 . S
C566 C561 1.390 . S
C566 C562 1.392 . S
C566 H583 0.930 . S
C567 O552 1.255 . S
C567 O553 1.257 . S
C568 Eu504 2.787 . S
C568 O548 1.252 . S
C568 O551 1.268 . S
C568 C561 1.506 . S
C569 C536 1.439 . S
C569 H546 0.931 . S
C569 C570 1.374 . S
C570 C541 1.387 . S
C570 H547 0.931 . S
C570 C569 1.374 . S
C571 O555 1.249 . S
C571 O556 1.264 . S
C572 C575 1.382 . S
C572 C576 1.390 . S
C572 C579 1.506 . S
C573 C574 1.398 . S
C573 C576 1.392 . S
C574 C573 1.398 . S
C574 C577 1.372 . S
C574 H584 0.931 . S
C575 C572 1.382 . S
C575 C577 1.390 . S
C575 H585 0.931 . S
C576 C572 1.390 . S
C576 C573 1.392 . S
C576 H586 0.930 . S
C577 C574 1.372 . S
C577 C575 1.390 . S
C577 H587 0.929 . S
C578 O558 1.255 . S
C578 O559 1.257 . S
C579 Eu515 2.787 . S
C579 O554 1.252 . S
C579 O557 1.268 . S
C579 C572 1.506 . S
H580 C563 0.931 . S
H581 C564 0.931 . S
H582 C565 0.929 . S
H583 C566 0.930 . S
H584 C574 0.931 . S
H585 C575 0.931 . S
H586 C576 0.930 . S
H587 C577 0.929 . S
Eu588 N617 2.600 . S
Eu588 N623 2.562 . S
Eu588 O632 2.462 . S
Eu588 O633 2.373 . S
Eu588 O635 2.432 . S
Eu588 O636 2.291 . S
Eu588 O640 2.335 . S
Eu588 O643 2.372 . S
Eu588 C652 2.787 . S
C589 N590 1.365 . S
C589 C592 1.405 . S
C589 C596 1.448 . S
N590 C589 1.365 . S
N590 C593 1.319 . S
N590 Eu599 2.600 . S
C591 C593 1.397 . S
C591 C594 1.367 . S
C591 H611 0.931 . S
C592 C589 1.405 . S
C592 C594 1.403 . S
C592 C598 1.439 . S
C593 N590 1.319 . S
C593 C591 1.397 . S
C593 H604 0.930 . S
C594 C591 1.367 . S
C594 C592 1.403 . S
C594 H615 0.929 . S
C595 C596 1.430 . S
C595 C597 1.387 . S
C595 C601 1.404 . S
C596 C589 1.448 . S
C596 C595 1.430 . S
C596 N600 1.351 . S
C597 C595 1.387 . S
C597 C598 1.374 . S
C597 H612 0.931 . S
C598 C592 1.439 . S
C598 C597 1.374 . S
C598 H613 0.931 . S
Eu599 N590 2.600 . S
Eu599 N600 2.562 . S
Eu599 O634 2.335 . S
Eu599 O637 2.372 . S
Eu599 O638 2.462 . S
Eu599 O639 2.373 . S
Eu599 O641 2.432 . S
Eu599 O642 2.291 . S
Eu599 C663 2.787 . S
N600 C596 1.351 . S
N600 Eu599 2.562 . S
N600 C602 1.325 . S
C601 C595 1.404 . S
C601 C603 1.366 . S
C601 H609 0.930 . S
C602 N600 1.325 . S
C602 C603 1.416 . S
C602 H608 0.929 . S
C603 C601 1.366 . S
C603 C602 1.416 . S
C603 H605 0.930 . S
H604 C593 0.930 . S
H605 C603 0.930 . S
H606 C621 0.930 . S
H607 C628 0.930 . S
H608 C602 0.929 . S
H609 C601 0.930 . S
H610 C624 0.929 . S
H611 C591 0.931 . S
H612 C597 0.931 . S
H613 C598 0.931 . S
H614 C619 0.931 . S
H615 C594 0.929 . S
H616 C627 0.930 . S
N617 Eu588 2.600 . S
N617 C618 1.365 . S
N617 C621 1.319 . S
C618 N617 1.365 . S
C618 C620 1.405 . S
C618 C626 1.448 . S
C619 H614 0.931 . S
C619 C621 1.397 . S
C619 C622 1.367 . S
C620 C618 1.405 . S
C620 C622 1.403 . S
C620 C653 1.439 . S
C621 H606 0.930 . S
C621 N617 1.319 . S
C621 C619 1.397 . S
C622 C619 1.367 . S
C622 C620 1.403 . S
C622 H629 0.929 . S
N623 Eu588 2.562 . S
N623 C624 1.325 . S
N623 C626 1.351 . S
C624 H610 0.929 . S
C624 N623 1.325 . S
C624 C628 1.416 . S
C625 C626 1.430 . S
C625 C627 1.404 . S
C625 C654 1.387 . S
C626 C618 1.448 . S
C626 N623 1.351 . S
C626 C625 1.430 . S
C627 H616 0.930 . S
C627 C625 1.404 . S
C627 C628 1.366 . S
C628 H607 0.930 . S
C628 C624 1.416 . S
C628 C627 1.366 . S
H629 C622 0.929 . S
H630 C653 0.931 . S
H631 C654 0.931 . S
O632 Eu588 2.462 . S
O632 C652 1.252 . S
O633 Eu588 2.373 . S
O633 C644 1.249 . S
O634 Eu599 2.335 . S
O634 C644 1.264 . S
O635 Eu588 2.432 . S
O635 C652 1.268 . S
O636 Eu588 2.291 . S
O636 C651 1.255 . S
O637 Eu599 2.372 . S
O637 C651 1.257 . S
O638 Eu599 2.462 . S
O638 C663 1.252 . S
O639 Eu599 2.373 . S
O639 C655 1.249 . S
O640 Eu588 2.335 . S
O640 C655 1.264 . S
O641 Eu599 2.432 . S
O641 C663 1.268 . S
O642 Eu599 2.291 . S
O642 C662 1.255 . S
O643 Eu588 2.372 . S
O643 C662 1.257 . S
C644 O633 1.249 . S
C644 O634 1.264 . S
C645 C648 1.382 . S
C645 C650 1.390 . S
C645 C652 1.506 . S
C646 C647 1.398 . S
C646 C650 1.392 . S
C647 C646 1.398 . S
C647 C649 1.372 . S
C647 H664 0.931 . S
C648 C645 1.382 . S
C648 C649 1.390 . S
C648 H665 0.931 . S
C649 C647 1.372 . S
C649 C648 1.390 . S
C649 H666 0.929 . S
C650 C645 1.390 . S
C650 C646 1.392 . S
C650 H667 0.930 . S
C651 O636 1.255 . S
C651 O637 1.257 . S
C652 Eu588 2.787 . S
C652 O632 1.252 . S
C652 O635 1.268 . S
C652 C645 1.506 . S
C653 C620 1.439 . S
C653 H630 0.931 . S
C653 C654 1.374 . S
C654 C625 1.387 . S
C654 H631 0.931 . S
C654 C653 1.374 . S
C655 O639 1.249 . S
C655 O640 1.264 . S
C656 C659 1.382 . S
C656 C660 1.390 . S
C656 C663 1.506 . S
C657 C658 1.398 . S
C657 C660 1.392 . S
C658 C657 1.398 . S
C658 C661 1.372 . S
C658 H668 0.931 . S
C659 C656 1.382 . S
C659 C661 1.390 . S
C659 H669 0.931 . S
C660 C656 1.390 . S
C660 C657 1.392 . S
C660 H670 0.930 . S
C661 C658 1.372 . S
C661 C659 1.390 . S
C661 H671 0.929 . S
C662 O642 1.255 . S
C662 O643 1.257 . S
C663 Eu599 2.787 . S
C663 O638 1.252 . S
C663 O641 1.268 . S
C663 C656 1.506 . S
H664 C647 0.931 . S
H665 C648 0.931 . S
H666 C649 0.929 . S
H667 C650 0.930 . S
H668 C658 0.931 . S
H669 C659 0.931 . S
H670 C660 0.930 . S
H671 C661 0.929 . S
Co672 O675 2.042 . S
Co672 O682 2.264 . S
Co672 O701 2.286 . S
Co672 O702 2.069 . S
Co672 O704 2.015 1_455 S
Co673 O675 2.122 . S
Co673 O681 2.073 . S
Co673 O682 2.327 . S
Co673 O683 1.976 1_455 S
Co674 O675 2.095 1_545 S
Co674 O677 2.078 1_455 S
Co674 O684 2.107 1_445 S
Co674 O685 2.147 . S
Co674 O689 2.116 . S
Co674 O703 2.140 1_445 S
O675 Co672 2.042 . S
O675 Co673 2.122 . S
O675 Co674 2.095 1_565 S
O675 H676 0.980 . S
H676 O675 0.980 . S
O677 Co674 2.078 1_655 S
O677 Co678 2.042 . S
O677 Co679 2.122 . S
O677 H680 0.980 . S
Co678 O677 2.042 . S
Co678 O686 2.286 . S
Co678 O687 2.069 . S
Co678 O688 2.015 1_655 S
Co678 O691 2.264 . S
Co679 O677 2.122 . S
Co679 O690 1.976 1_655 S
Co679 O691 2.327 . S
Co679 O692 2.073 . S
H680 O677 0.980 . S
O681 Co673 2.073 . S
O681 C696 1.245 . S
O682 Co672 2.264 . S
O682 Co673 2.327 . S
O682 C696 1.257 . S
O683 Co673 1.976 1_655 S
O683 C695 1.251 . S
O684 Co674 2.107 1_665 S
O684 C695 1.274 . S
O685 Co674 2.147 . S
O685 C698 1.246 . S
O686 Co678 2.286 . S
O686 C697 1.259 . S
O687 Co678 2.069 . S
O687 C697 1.289 . S
O688 Co678 2.015 1_455 S
O688 C698 1.257 . S
O689 Co674 2.116 . S
O689 C699 1.274 . S
O690 Co679 1.976 1_455 S
O690 C699 1.251 . S
O691 Co678 2.264 . S
O691 Co679 2.327 . S
O691 C700 1.257 . S
O692 Co679 2.073 . S
O692 C700 1.245 . S
C693 O701 1.259 . S
C693 O702 1.289 . S
C694 O703 1.246 . S
C694 O704 1.257 . S
C695 O683 1.251 . S
C695 O684 1.274 . S
C696 O681 1.245 . S
C696 O682 1.257 . S
C697 O686 1.259 . S
C697 O687 1.289 . S
C698 O685 1.246 . S
C698 O688 1.257 . S
C699 O689 1.274 . S
C699 O690 1.251 . S
C700 O691 1.257 . S
C700 O692 1.245 . S
O701 Co672 2.286 . S
O701 C693 1.259 . S
O702 Co672 2.069 . S
O702 C693 1.289 . S
O703 Co674 2.140 1_665 S
O703 C694 1.246 . S
O704 Co672 2.015 1_655 S
O704 C694 1.257 . S
Co705 O708 2.042 1_556 S
Co705 O715 2.264 1_556 S
Co705 O734 2.286 . S
Co705 O735 2.069 . S
Co705 O737 2.015 . S
Co706 O708 2.122 . S
Co706 O714 2.073 . S
Co706 O715 2.327 . S
Co706 O716 1.976 . S
Co707 O708 2.087 1_545 S
Co707 O710 2.087 1_554 S
Co707 O717 2.111 1_545 S
Co707 O718 2.144 . S
Co707 O722 2.111 1_554 S
Co707 O736 2.143 1_544 S
O708 Co705 2.042 1_554 S
O708 Co706 2.122 . S
O708 Co707 2.087 1_565 S
O708 H709 0.980 . S
H709 O708 0.980 . S
O710 Co707 2.087 1_556 S
O710 Co711 2.042 1_556 S
O710 Co712 2.122 . S
O710 H713 0.980 . S
Co711 O710 2.042 1_554 S
Co711 O719 2.286 . S
Co711 O720 2.069 . S
Co711 O721 2.015 . S
Co711 O724 2.264 1_554 S
Co712 O710 2.122 . S
Co712 O723 1.976 . S
Co712 O724 2.327 . S
Co712 O725 2.073 . S
H713 O710 0.980 . S
O714 Co706 2.073 . S
O714 C729 1.245 . S
O715 Co705 2.264 1_554 S
O715 Co706 2.327 . S
O715 C729 1.257 . S
O716 Co706 1.976 . S
O716 C728 1.251 . S
O717 Co707 2.111 1_565 S
O717 C728 1.274 . S
O718 Co707 2.144 . S
O718 C731 1.246 . S
O719 Co711 2.286 . S
O719 C730 1.259 . S
O720 Co711 2.069 . S
O720 C730 1.289 . S
O721 Co711 2.015 . S
O721 C731 1.257 . S
O722 Co707 2.111 1_556 S
O722 C732 1.274 . S
O723 Co712 1.976 . S
O723 C732 1.251 . S
O724 Co711 2.264 1_556 S
O724 Co712 2.327 . S
O724 C733 1.257 . S
O725 Co712 2.073 . S
O725 C733 1.245 . S
C726 O734 1.259 . S
C726 O735 1.289 . S
C727 O736 1.246 . S
C727 O737 1.257 . S
C728 O716 1.251 . S
C728 O717 1.274 . S
C729 O714 1.245 . S
C729 O715 1.257 . S
C730 O719 1.259 . S
C730 O720 1.289 . S
C731 O718 1.246 . S
C731 O721 1.257 . S
C732 O722 1.274 . S
C732 O723 1.251 . S
C733 O724 1.257 . S
C733 O725 1.245 . S
O734 Co705 2.286 . S
O734 C726 1.259 . S
O735 Co705 2.069 . S
O735 C726 1.289 . S
O736 Co707 2.143 1_566 S
O736 C727 1.246 . S
O737 Co705 2.015 . S
O737 C727 1.257 . S
Co738 O741 2.042 1_556 S
Co738 O748 2.264 1_556 S
Co738 O767 2.286 . S
Co738 O768 2.069 . S
Co738 O770 2.015 1_455 S
Co739 O741 2.122 . S
Co739 O747 2.073 . S
Co739 O748 2.327 . S
Co739 O749 1.976 1_455 S
Co740 O741 2.095 . S
Co740 O743 2.079 1_454 S
Co740 O750 2.107 1_455 S
Co740 O751 2.147 . S
Co740 O755 2.116 1_554 S
Co740 O769 2.140 1_454 S
O741 Co738 2.042 1_554 S
O741 Co739 2.122 . S
O741 Co740 2.095 . S
O741 H742 0.980 . S
H742 O741 0.980 . S
O743 Co740 2.079 1_656 S
O743 Co744 2.042 1_556 S
O743 Co745 2.122 . S
O743 H746 0.980 . S
Co744 O743 2.042 1_554 S
Co744 O752 2.286 . S
Co744 O753 2.069 . S
Co744 O754 2.015 1_655 S
Co744 O757 2.264 1_554 S
Co745 O743 2.122 . S
Co745 O756 1.976 1_655 S
Co745 O757 2.327 . S
Co745 O758 2.073 . S
H746 O743 0.980 . S
O747 Co739 2.073 . S
O747 C762 1.245 . S
O748 Co738 2.264 1_554 S
O748 Co739 2.327 . S
O748 C762 1.257 . S
O749 Co739 1.976 1_655 S
O749 C761 1.251 . S
O750 Co740 2.107 1_655 S
O750 C761 1.274 . S
O751 Co740 2.147 . S
O751 C764 1.246 . S
O752 Co744 2.286 . S
O752 C763 1.259 . S
O753 Co744 2.069 . S
O753 C763 1.289 . S
O754 Co744 2.015 1_455 S
O754 C764 1.257 . S
O755 Co740 2.116 1_556 S
O755 C765 1.274 . S
O756 Co745 1.976 1_455 S
O756 C765 1.251 . S
O757 Co744 2.264 1_556 S
O757 Co745 2.327 . S
O757 C766 1.257 . S
O758 Co745 2.073 . S
O758 C766 1.245 . S
C759 O767 1.259 . S
C759 O768 1.289 . S
C760 O769 1.246 . S
C760 O770 1.257 . S
C761 O749 1.251 . S
C761 O750 1.274 . S
C762 O747 1.245 . S
C762 O748 1.257 . S
C763 O752 1.259 . S
C763 O753 1.289 . S
C764 O751 1.246 . S
C764 O754 1.257 . S
C765 O755 1.274 . S
C765 O756 1.251 . S
C766 O757 1.257 . S
C766 O758 1.245 . S
O767 Co738 2.286 . S
O767 C759 1.259 . S
O768 Co738 2.069 . S
O768 C759 1.289 . S
O769 Co740 2.140 1_656 S
O769 C760 1.246 . S
O770 Co738 2.015 1_655 S
O770 C760 1.257 . S
Co771 O774 2.042 1_556 S
Co771 O781 2.264 1_556 S
Co771 O800 2.286 . S
Co771 O801 2.069 . S
Co771 O803 2.015 . S
Co772 O774 2.122 . S
Co772 O780 2.073 . S
Co772 O781 2.327 . S
Co772 O782 1.976 . S
Co773 O774 2.087 . S
Co773 O776 2.087 1_554 S
Co773 O783 2.111 . S
Co773 O784 2.143 . S
Co773 O788 2.111 1_554 S
Co773 O802 2.143 1_554 S
O774 Co771 2.042 1_554 S
O774 Co772 2.122 . S
O774 Co773 2.087 . S
O774 H775 0.980 . S
H775 O774 0.980 . S
O776 Co773 2.087 1_556 S
O776 Co777 2.042 1_556 S
O776 Co778 2.122 . S
O776 H779 0.980 . S
Co777 O776 2.042 1_554 S
Co777 O785 2.286 . S
Co777 O786 2.069 . S
Co777 O787 2.015 . S
Co777 O790 2.264 1_554 S
Co778 O776 2.122 . S
Co778 O789 1.976 . S
Co778 O790 2.327 . S
Co778 O791 2.073 . S
H779 O776 0.980 . S
O780 Co772 2.073 . S
O780 C795 1.245 . S
O781 Co771 2.264 1_554 S
O781 Co772 2.327 . S
O781 C795 1.257 . S
O782 Co772 1.976 . S
O782 C794 1.251 . S
O783 Co773 2.111 . S
O783 C794 1.274 . S
O784 Co773 2.143 . S
O784 C797 1.246 . S
O785 Co777 2.286 . S
O785 C796 1.259 . S
O786 Co777 2.069 . S
O786 C796 1.289 . S
O787 Co777 2.015 . S
O787 C797 1.257 . S
O788 Co773 2.111 1_556 S
O788 C798 1.274 . S
O789 Co778 1.976 . S
O789 C798 1.251 . S
O790 Co777 2.264 1_556 S
O790 Co778 2.327 . S
O790 C799 1.257 . S
O791 Co778 2.073 . S
O791 C799 1.245 . S
C792 O800 1.259 . S
C792 O801 1.289 . S
C793 O802 1.246 . S
C793 O803 1.257 . S
C794 O782 1.251 . S
C794 O783 1.274 . S
C795 O780 1.245 . S
C795 O781 1.257 . S
C796 O785 1.259 . S
C796 O786 1.289 . S
C797 O784 1.246 . S
C797 O787 1.257 . S
C798 O788 1.274 . S
C798 O789 1.251 . S
C799 O790 1.257 . S
C799 O791 1.245 . S
O800 Co771 2.286 . S
O800 C792 1.259 . S
O801 Co771 2.069 . S
O801 C792 1.289 . S
O802 Co773 2.143 1_556 S
O802 C793 1.246 . S
O803 Co771 2.015 . S
O803 C793 1.257 . S
Co804 O807 2.042 . S
Co804 O814 2.264 . S
Co804 O833 2.286 . S
Co804 O834 2.069 . S
Co804 O836 2.015 . S
Co805 O807 2.122 . S
Co805 O813 2.073 . S
Co805 O814 2.327 . S
Co805 O815 1.976 . S
Co806 O807 2.095 . S
Co806 O809 2.079 1_455 S
Co806 O816 2.113 . S
Co806 O817 2.138 1_455 S
Co806 O821 2.110 1_455 S
Co806 O835 2.149 . S
O807 Co804 2.042 . S
O807 Co805 2.122 . S
O807 Co806 2.095 . S
O807 H808 0.980 . S
H808 O807 0.980 . S
O809 Co806 2.079 1_655 S
O809 Co810 2.042 . S
O809 Co811 2.122 . S
O809 H812 0.980 . S
Co810 O809 2.042 . S
Co810 O818 2.286 . S
Co810 O819 2.069 . S
Co810 O820 2.015 . S
Co810 O823 2.264 . S
Co811 O809 2.122 . S
Co811 O822 1.976 . S
Co811 O823 2.327 . S
Co811 O824 2.073 . S
H812 O809 0.980 . S
O813 Co805 2.073 . S
O813 C828 1.245 . S
O814 Co804 2.264 . S
O814 Co805 2.327 . S
O814 C828 1.257 . S
O815 Co805 1.976 . S
O815 C827 1.251 . S
O816 Co806 2.113 . S
O816 C827 1.274 . S
O817 Co806 2.138 1_655 S
O817 C830 1.246 . S
O818 Co810 2.286 . S
O818 C829 1.259 . S
O819 Co810 2.069 . S
O819 C829 1.289 . S
O820 Co810 2.015 . S
O820 C830 1.257 . S
O821 Co806 2.110 1_655 S
O821 C831 1.274 . S
O822 Co811 1.976 . S
O822 C831 1.251 . S
O823 Co810 2.264 . S
O823 Co811 2.327 . S
O823 C832 1.257 . S
O824 Co811 2.073 . S
O824 C832 1.245 . S
C825 O833 1.259 . S
C825 O834 1.289 . S
C826 O835 1.246 . S
C826 O836 1.257 . S
C827 O815 1.251 . S
C827 O816 1.274 . S
C828 O813 1.245 . S
C828 O814 1.257 . S
C829 O818 1.259 . S
C829 O819 1.289 . S
C830 O817 1.246 . S
C830 O820 1.257 . S
C831 O821 1.274 . S
C831 O822 1.251 . S
C832 O823 1.257 . S
C832 O824 1.245 . S
O833 Co804 2.286 . S
O833 C825 1.259 . S
O834 Co804 2.069 . S
O834 C825 1.289 . S
O835 Co806 2.149 . S
O835 C826 1.246 . S
O836 Co804 2.015 . S
O836 C826 1.257 . S
Co837 O840 2.042 . S
Co837 O847 2.264 . S
Co837 O866 2.286 . S
Co837 O867 2.069 . S
Co837 O869 2.015 1_565 S
Co838 O840 2.122 . S
Co838 O846 2.073 . S
Co838 O847 2.327 . S
Co838 O848 1.976 1_565 S
Co839 O840 2.087 1_545 S
Co839 O842 2.087 . S
Co839 O849 2.111 . S
Co839 O850 2.143 1_545 S
Co839 O854 2.111 1_545 S
Co839 O868 2.143 . S
O840 Co837 2.042 . S
O840 Co838 2.122 . S
O840 Co839 2.087 1_565 S
O840 H841 0.980 . S
H841 O840 0.980 . S
O842 Co839 2.087 . S
O842 Co843 2.042 . S
O842 Co844 2.122 . S
O842 H845 0.980 . S
Co843 O842 2.042 . S
Co843 O851 2.286 . S
Co843 O852 2.069 . S
Co843 O853 2.015 1_545 S
Co843 O856 2.264 . S
Co844 O842 2.122 . S
Co844 O855 1.976 1_545 S
Co844 O856 2.327 . S
Co844 O857 2.073 . S
H845 O842 0.980 . S
O846 Co838 2.073 . S
O846 C861 1.245 . S
O847 Co837 2.264 . S
O847 Co838 2.327 . S
O847 C861 1.257 . S
O848 Co838 1.976 1_545 S
O848 C860 1.251 . S
O849 Co839 2.111 . S
O849 C860 1.274 . S
O850 Co839 2.143 1_565 S
O850 C863 1.246 . S
O851 Co843 2.286 . S
O851 C862 1.259 . S
O852 Co843 2.069 . S
O852 C862 1.289 . S
O853 Co843 2.015 1_565 S
O853 C863 1.257 . S
O854 Co839 2.111 1_565 S
O854 C864 1.274 . S
O855 Co844 1.976 1_565 S
O855 C864 1.251 . S
O856 Co843 2.264 . S
O856 Co844 2.327 . S
O856 C865 1.257 . S
O857 Co844 2.073 . S
O857 C865 1.245 . S
C858 O866 1.259 . S
C858 O867 1.289 . S
C859 O868 1.246 . S
C859 O869 1.257 . S
C860 O848 1.251 . S
C860 O849 1.274 . S
C861 O846 1.245 . S
C861 O847 1.257 . S
C862 O851 1.259 . S
C862 O852 1.289 . S
C863 O850 1.246 . S
C863 O853 1.257 . S
C864 O854 1.274 . S
C864 O855 1.251 . S
C865 O856 1.257 . S
C865 O857 1.245 . S
O866 Co837 2.286 . S
O866 C858 1.259 . S
O867 Co837 2.069 . S
O867 C858 1.289 . S
O868 Co839 2.143 . S
O868 C859 1.246 . S
O869 Co837 2.015 1_545 S
O869 C859 1.257 . S
H870 C876 0.930 . S
H871 C880 0.930 . S
H872 C885 0.929 . S
H873 C883 0.929 . S
H874 C878 0.929 . S
H875 C884 0.929 . S
C876 H870 0.930 . S
C876 C877 1.367 . S
C876 C884 1.378 . S
C877 C876 1.367 . S
C877 C885 1.433 . S
C878 H874 0.929 . S
C878 C880 1.378 . S
C878 C882 1.350 . S
C879 C882 1.463 . S
C879 C884 1.350 . S
C879 N887 1.427 . S
C880 H871 0.930 . S
C880 C878 1.378 . S
C880 C881 1.367 . S
C881 C880 1.367 . S
C881 C883 1.433 . S
C882 C878 1.350 . S
C882 C879 1.463 . S
C882 N886 1.427 . S
C883 H873 0.929 . S
C883 C881 1.433 . S
C883 N886 1.384 . S
C884 H875 0.929 . S
C884 C876 1.378 . S
C884 C879 1.350 . S
C885 H872 0.929 . S
C885 C877 1.433 . S
C885 N887 1.384 . S
N886 C882 1.427 . S
N886 C883 1.384 . S
N887 C879 1.427 . S
N887 C885 1.384 . S
H888 C894 0.930 . S
H889 C898 0.930 . S
H890 C903 0.929 . S
H891 C901 0.929 . S
H892 C896 0.929 . S
H893 C902 0.929 . S
C894 H888 0.930 . S
C894 C895 1.367 . S
C894 C902 1.378 . S
C895 C894 1.367 . S
C895 C903 1.433 . S
C896 H892 0.929 . S
C896 C898 1.378 . S
C896 C900 1.350 . S
C897 C900 1.463 . S
C897 C902 1.350 . S
C897 N905 1.427 . S
C898 H889 0.930 . S
C898 C896 1.378 . S
C898 C899 1.367 . S
C899 C898 1.367 . S
C899 C901 1.433 . S
C900 C896 1.350 . S
C900 C897 1.463 . S
C900 N904 1.427 . S
C901 H891 0.929 . S
C901 C899 1.433 . S
C901 N904 1.384 . S
C902 H893 0.929 . S
C902 C894 1.378 . S
C902 C897 1.350 . S
C903 H890 0.929 . S
C903 C895 1.433 . S
C903 N905 1.384 . S
N904 C900 1.427 . S
N904 C901 1.384 . S
N905 C897 1.427 . S
N905 C903 1.384 . S
H906 C912 0.930 . S
H907 C916 0.930 . S
H908 C921 0.929 . S
H909 C919 0.929 . S
H910 C914 0.929 . S
H911 C920 0.929 . S
C912 H906 0.930 . S
C912 C913 1.367 . S
C912 C920 1.378 . S
C913 C912 1.367 . S
C913 C921 1.433 . S
C914 H910 0.929 . S
C914 C916 1.378 . S
C914 C918 1.350 . S
C915 C918 1.463 . S
C915 C920 1.350 . S
C915 N923 1.427 . S
C916 H907 0.930 . S
C916 C914 1.378 . S
C916 C917 1.367 . S
C917 C916 1.367 . S
C917 C919 1.433 . S
C918 C914 1.350 . S
C918 C915 1.463 . S
C918 N922 1.427 . S
C919 H909 0.929 . S
C919 C917 1.433 . S
C919 N922 1.384 . S
C920 H911 0.929 . S
C920 C912 1.378 . S
C920 C915 1.350 . S
C921 H908 0.929 . S
C921 C913 1.433 . S
C921 N923 1.384 . S
N922 C918 1.427 . S
N922 C919 1.384 . S
N923 C915 1.427 . S
N923 C921 1.384 . S
H924 C930 0.930 . S
H925 C934 0.930 . S
H926 C939 0.929 . S
H927 C937 0.929 . S
H928 C932 0.929 . S
H929 C938 0.929 . S
C930 H924 0.930 . S
C930 C931 1.367 . S
C930 C938 1.378 . S
C931 C930 1.367 . S
C931 C939 1.433 . S
C932 H928 0.929 . S
C932 C934 1.378 . S
C932 C936 1.350 . S
C933 C936 1.463 . S
C933 C938 1.350 . S
C933 N941 1.427 . S
C934 H925 0.930 . S
C934 C932 1.378 . S
C934 C935 1.367 . S
C935 C934 1.367 . S
C935 C937 1.433 . S
C936 C932 1.350 . S
C936 C933 1.463 . S
C936 N940 1.427 . S
C937 H927 0.929 . S
C937 C935 1.433 . S
C937 N940 1.384 . S
C938 H929 0.929 . S
C938 C930 1.378 . S
C938 C933 1.350 . S
C939 H926 0.929 . S
C939 C931 1.433 . S
C939 N941 1.384 . S
N940 C936 1.427 . S
N940 C937 1.384 . S
N941 C933 1.427 . S
N941 C939 1.384 . S
H942 C948 0.930 . S
H943 C952 0.930 . S
H944 C957 0.929 . S
H945 C955 0.929 . S
H946 C950 0.929 . S
H947 C956 0.929 . S
C948 H942 0.930 . S
C948 C949 1.367 . S
C948 C956 1.378 . S
C949 C948 1.367 . S
C949 C957 1.433 . S
C950 H946 0.929 . S
C950 C952 1.378 . S
C950 C954 1.350 . S
C951 C954 1.463 . S
C951 C956 1.350 . S
C951 N959 1.427 . S
C952 H943 0.930 . S
C952 C950 1.378 . S
C952 C953 1.367 . S
C953 C952 1.367 . S
C953 C955 1.433 . S
C954 C950 1.350 . S
C954 C951 1.463 . S
C954 N958 1.427 . S
C955 H945 0.929 . S
C955 C953 1.433 . S
C955 N958 1.384 . S
C956 H947 0.929 . S
C956 C948 1.378 . S
C956 C951 1.350 . S
C957 H944 0.929 . S
C957 C949 1.433 . S
C957 N959 1.384 . S
N958 C954 1.427 . S
N958 C955 1.384 . S
N959 C951 1.427 . S
N959 C957 1.384 . S
H960 C966 0.930 . S
H961 C970 0.930 . S
H962 C975 0.929 . S
H963 C973 0.929 . S
H964 C968 0.929 . S
H965 C974 0.929 . S
C966 H960 0.930 . S
C966 C967 1.367 . S
C966 C974 1.378 . S
C967 C966 1.367 . S
C967 C975 1.433 . S
C968 H964 0.929 . S
C968 C970 1.378 . S
C968 C972 1.350 . S
C969 C972 1.463 . S
C969 C974 1.350 . S
C969 N977 1.427 . S
C970 H961 0.930 . S
C970 C968 1.378 . S
C970 C971 1.367 . S
C971 C970 1.367 . S
C971 C973 1.433 . S
C972 C968 1.350 . S
C972 C969 1.463 . S
C972 N976 1.427 . S
C973 H963 0.929 . S
C973 C971 1.433 . S
C973 N976 1.384 . S
C974 H965 0.929 . S
C974 C966 1.378 . S
C974 C969 1.350 . S
C975 H962 0.929 . S
C975 C967 1.433 . S
C975 N977 1.384 . S
N976 C972 1.427 . S
N976 C973 1.384 . S
N977 C969 1.427 . S
N977 C975 1.384 . S
H978 C984 0.930 . S
H979 C988 0.930 . S
H980 C993 0.929 . S
H981 C991 0.929 . S
H982 C986 0.929 . S
H983 C992 0.929 . S
C984 H978 0.930 . S
C984 C985 1.367 . S
C984 C992 1.378 . S
C985 C984 1.367 . S
C985 C993 1.433 . S
C986 H982 0.929 . S
C986 C988 1.378 . S
C986 C990 1.350 . S
C987 C990 1.463 . S
C987 C992 1.350 . S
C987 N995 1.427 . S
C988 H979 0.930 . S
C988 C986 1.378 . S
C988 C989 1.367 . S
C989 C988 1.367 . S
C989 C991 1.433 . S
C990 C986 1.350 . S
C990 C987 1.463 . S
C990 N994 1.427 . S
C991 H981 0.929 . S
C991 C989 1.433 . S
C991 N994 1.384 . S
C992 H983 0.929 . S
C992 C984 1.378 . S
C992 C987 1.350 . S
C993 H980 0.929 . S
C993 C985 1.433 . S
C993 N995 1.384 . S
N994 C990 1.427 . S
N994 C991 1.384 . S
N995 C987 1.427 . S
N995 C993 1.384 . S
H996 C1002 0.930 . S
H997 C1006 0.930 . S
H998 C1011 0.929 . S
H999 C1009 0.929 . S
H1000 C1004 0.929 . S
H1001 C1010 0.929 . S
C1002 H996 0.930 . S
C1002 C1003 1.367 . S
C1002 C1010 1.378 . S
C1003 C1002 1.367 . S
C1003 C1011 1.433 . S
C1004 H1000 0.929 . S
C1004 C1006 1.378 . S
C1004 C1008 1.350 . S
C1005 C1008 1.463 . S
C1005 C1010 1.350 . S
C1005 N1013 1.427 . S
C1006 H997 0.930 . S
C1006 C1004 1.378 . S
C1006 C1007 1.367 . S
C1007 C1006 1.367 . S
C1007 C1009 1.433 . S
C1008 C1004 1.350 . S
C1008 C1005 1.463 . S
C1008 N1012 1.427 . S
C1009 H999 0.929 . S
C1009 C1007 1.433 . S
C1009 N1012 1.384 . S
C1010 H1001 0.929 . S
C1010 C1002 1.378 . S
C1010 C1005 1.350 . S
C1011 H998 0.929 . S
C1011 C1003 1.433 . S
C1011 N1013 1.384 . S
N1012 C1008 1.427 . S
N1012 C1009 1.384 . S
N1013 C1005 1.427 . S
N1013 C1011 1.384 . S
H1014 C1020 0.930 . S
H1015 C1024 0.930 . S
H1016 C1029 0.929 . S
H1017 C1027 0.929 . S
H1018 C1022 0.929 . S
H1019 C1028 0.929 . S
C1020 H1014 0.930 . S
C1020 C1021 1.367 . S
C1020 C1028 1.378 . S
C1021 C1020 1.367 . S
C1021 C1029 1.433 . S
C1022 H1018 0.929 . S
C1022 C1024 1.378 . S
C1022 C1026 1.350 . S
C1023 C1026 1.463 . S
C1023 C1028 1.350 . S
C1023 N1031 1.427 . S
C1024 H1015 0.930 . S
C1024 C1022 1.378 . S
C1024 C1025 1.367 . S
C1025 C1024 1.367 . S
C1025 C1027 1.433 . S
C1026 C1022 1.350 . S
C1026 C1023 1.463 . S
C1026 N1030 1.427 . S
C1027 H1017 0.929 . S
C1027 C1025 1.433 . S
C1027 N1030 1.384 . S
C1028 H1019 0.929 . S
C1028 C1020 1.378 . S
C1028 C1023 1.350 . S
C1029 H1016 0.929 . S
C1029 C1021 1.433 . S
C1029 N1031 1.384 . S
N1030 C1026 1.427 . S
N1030 C1027 1.384 . S
N1031 C1023 1.427 . S
N1031 C1029 1.384 . S
H1032 C1038 0.930 . S
H1033 C1042 0.930 . S
H1034 C1047 0.929 . S
H1035 C1045 0.929 . S
H1036 C1040 0.929 . S
H1037 C1046 0.929 . S
C1038 H1032 0.930 . S
C1038 C1039 1.367 . S
C1038 C1046 1.378 . S
C1039 C1038 1.367 . S
C1039 C1047 1.433 . S
C1040 H1036 0.929 . S
C1040 C1042 1.378 . S
C1040 C1044 1.350 . S
C1041 C1044 1.463 . S
C1041 C1046 1.350 . S
C1041 N1049 1.427 . S
C1042 H1033 0.930 . S
C1042 C1040 1.378 . S
C1042 C1043 1.367 . S
C1043 C1042 1.367 . S
C1043 C1045 1.433 . S
C1044 C1040 1.350 . S
C1044 C1041 1.463 . S
C1044 N1048 1.427 . S
C1045 H1035 0.929 . S
C1045 C1043 1.433 . S
C1045 N1048 1.384 . S
C1046 H1037 0.929 . S
C1046 C1038 1.378 . S
C1046 C1041 1.350 . S
C1047 H1034 0.929 . S
C1047 C1039 1.433 . S
C1047 N1049 1.384 . S
N1048 C1044 1.427 . S
N1048 C1045 1.384 . S
N1049 C1041 1.427 . S
N1049 C1047 1.384 . S
H1050 C1056 0.930 . S
H1051 C1060 0.930 . S
H1052 C1065 0.929 . S
H1053 C1063 0.929 1_556 S
H1054 C1058 0.929 . S
H1055 C1064 0.929 . S
C1056 H1050 0.930 . S
C1056 C1057 1.367 . S
C1056 C1064 1.378 . S
C1057 C1056 1.367 . S
C1057 C1065 1.433 . S
C1058 H1054 0.929 . S
C1058 C1060 1.378 . S
C1058 C1062 1.350 . S
C1059 C1062 1.463 . S
C1059 C1064 1.350 . S
C1059 N1067 1.427 . S
C1060 H1051 0.930 . S
C1060 C1058 1.378 . S
C1060 C1061 1.367 . S
C1061 C1060 1.367 . S
C1061 C1063 1.433 . S
C1062 C1058 1.350 . S
C1062 C1059 1.463 . S
C1062 N1066 1.427 . S
C1063 H1053 0.929 1_554 S
C1063 C1061 1.433 . S
C1063 N1066 1.384 . S
C1064 H1055 0.929 . S
C1064 C1056 1.378 . S
C1064 C1059 1.350 . S
C1065 H1052 0.929 . S
C1065 C1057 1.433 . S
C1065 N1067 1.384 . S
N1066 C1062 1.427 . S
N1066 C1063 1.384 . S
N1067 C1059 1.427 . S
N1067 C1065 1.384 . S
H1068 C1074 0.930 . S
H1069 C1078 0.930 . S
H1070 C1083 0.929 . S
H1071 C1081 0.929 . S
H1072 C1076 0.929 . S
H1073 C1082 0.929 . S
C1074 H1068 0.930 . S
C1074 C1075 1.367 . S
C1074 C1082 1.378 . S
C1075 C1074 1.367 . S
C1075 C1083 1.433 . S
C1076 H1072 0.929 . S
C1076 C1078 1.378 . S
C1076 C1080 1.350 . S
C1077 C1080 1.463 . S
C1077 C1082 1.350 . S
C1077 N1085 1.427 . S
C1078 H1069 0.930 . S
C1078 C1076 1.378 . S
C1078 C1079 1.367 . S
C1079 C1078 1.367 . S
C1079 C1081 1.433 . S
C1080 C1076 1.350 . S
C1080 C1077 1.463 . S
C1080 N1084 1.427 . S
C1081 H1071 0.929 . S
C1081 C1079 1.433 . S
C1081 N1084 1.384 . S
C1082 H1073 0.929 . S
C1082 C1074 1.378 . S
C1082 C1077 1.350 . S
C1083 H1070 0.929 . S
C1083 C1075 1.433 . S
C1083 N1085 1.384 . S
N1084 C1080 1.427 . S
N1084 C1081 1.384 . S
N1085 C1077 1.427 . S
N1085 C1083 1.384 . S
H1086 C1092 0.930 . S
H1087 C1096 0.930 . S
H1088 C1101 0.929 . S
H1089 C1099 0.929 . S
H1090 C1094 0.929 . S
H1091 C1100 0.929 . S
C1092 H1086 0.930 . S
C1092 C1093 1.367 . S
C1092 C1100 1.378 . S
C1093 C1092 1.367 . S
C1093 C1101 1.433 . S
C1094 H1090 0.929 . S
C1094 C1096 1.378 . S
C1094 C1098 1.350 . S
C1095 C1098 1.463 . S
C1095 C1100 1.350 . S
C1095 N1103 1.427 . S
C1096 H1087 0.930 . S
C1096 C1094 1.378 . S
C1096 C1097 1.367 . S
C1097 C1096 1.367 . S
C1097 C1099 1.433 . S
C1098 C1094 1.350 . S
C1098 C1095 1.463 . S
C1098 N1102 1.427 . S
C1099 H1089 0.929 . S
C1099 C1097 1.433 . S
C1099 N1102 1.384 . S
C1100 H1091 0.929 . S
C1100 C1092 1.378 . S
C1100 C1095 1.350 . S
C1101 H1088 0.929 . S
C1101 C1093 1.433 . S
C1101 N1103 1.384 . S
N1102 C1098 1.427 . S
N1102 C1099 1.384 . S
N1103 C1095 1.427 . S
N1103 C1101 1.384 . S
H1104 C1110 0.930 . S
H1105 C1114 0.930 . S
H1106 C1119 0.929 . S
H1107 C1117 0.929 . S
H1108 C1112 0.929 . S
H1109 C1118 0.929 . S
C1110 H1104 0.930 . S
C1110 C1111 1.367 . S
C1110 C1118 1.378 . S
C1111 C1110 1.367 . S
C1111 C1119 1.433 . S
C1112 H1108 0.929 . S
C1112 C1114 1.378 . S
C1112 C1116 1.350 . S
C1113 C1116 1.463 . S
C1113 C1118 1.350 . S
C1113 N1121 1.427 . S
C1114 H1105 0.930 . S
C1114 C1112 1.378 . S
C1114 C1115 1.367 . S
C1115 C1114 1.367 . S
C1115 C1117 1.433 . S
C1116 C1112 1.350 . S
C1116 C1113 1.463 . S
C1116 N1120 1.427 . S
C1117 H1107 0.929 . S
C1117 C1115 1.433 . S
C1117 N1120 1.384 . S
C1118 H1109 0.929 . S
C1118 C1110 1.378 . S
C1118 C1113 1.350 . S
C1119 H1106 0.929 . S
C1119 C1111 1.433 . S
C1119 N1121 1.384 . S
N1120 C1116 1.427 . S
N1120 C1117 1.384 . S
N1121 C1113 1.427 . S
N1121 C1119 1.384 . S
H1122 C1128 0.930 . S
H1123 C1132 0.930 . S
H1124 C1137 0.929 . S
H1125 C1135 0.929 . S
H1126 C1130 0.929 . S
H1127 C1136 0.929 . S
C1128 H1122 0.930 . S
C1128 C1129 1.367 . S
C1128 C1136 1.378 . S
C1129 C1128 1.367 . S
C1129 C1137 1.433 . S
C1130 H1126 0.929 . S
C1130 C1132 1.378 . S
C1130 C1134 1.350 . S
C1131 C1134 1.463 . S
C1131 C1136 1.350 . S
C1131 N1139 1.427 . S
C1132 H1123 0.930 . S
C1132 C1130 1.378 . S
C1132 C1133 1.367 . S
C1133 C1132 1.367 . S
C1133 C1135 1.433 . S
C1134 C1130 1.350 . S
C1134 C1131 1.463 . S
C1134 N1138 1.427 . S
C1135 H1125 0.929 . S
C1135 C1133 1.433 . S
C1135 N1138 1.384 . S
C1136 H1127 0.929 . S
C1136 C1128 1.378 . S
C1136 C1131 1.350 . S
C1137 H1124 0.929 . S
C1137 C1129 1.433 . S
C1137 N1139 1.384 . S
N1138 C1134 1.427 . S
N1138 C1135 1.384 . S
N1139 C1131 1.427 . S
N1139 C1137 1.384 . S
H1140 C1146 0.930 . S
H1141 C1150 0.930 . S
H1142 C1155 0.929 . S
H1143 C1153 0.929 . S
H1144 C1148 0.929 . S
H1145 C1154 0.929 . S
C1146 H1140 0.930 . S
C1146 C1147 1.367 . S
C1146 C1154 1.378 . S
C1147 C1146 1.367 . S
C1147 C1155 1.433 . S
C1148 H1144 0.929 . S
C1148 C1150 1.378 . S
C1148 C1152 1.350 . S
C1149 C1152 1.463 . S
C1149 C1154 1.350 . S
C1149 N1157 1.427 . S
C1150 H1141 0.930 . S
C1150 C1148 1.378 . S
C1150 C1151 1.367 . S
C1151 C1150 1.367 . S
C1151 C1153 1.433 . S
C1152 C1148 1.350 . S
C1152 C1149 1.463 . S
C1152 N1156 1.427 . S
C1153 H1143 0.929 . S
C1153 C1151 1.433 . S
C1153 N1156 1.384 . S
C1154 H1145 0.929 . S
C1154 C1146 1.378 . S
C1154 C1149 1.350 . S
C1155 H1142 0.929 . S
C1155 C1147 1.433 . S
C1155 N1157 1.384 . S
N1156 C1152 1.427 . S
N1156 C1153 1.384 . S
N1157 C1149 1.427 . S
N1157 C1155 1.384 . S
H1158 C1164 0.930 . S
H1159 C1168 0.930 1_556 S
H1160 C1173 0.929 . S
H1161 C1171 0.929 . S
H1162 C1166 0.929 . S
H1163 C1172 0.929 . S
C1164 H1158 0.930 . S
C1164 C1165 1.367 . S
C1164 C1172 1.378 . S
C1165 C1164 1.367 . S
C1165 C1173 1.433 . S
C1166 H1162 0.929 . S
C1166 C1168 1.378 . S
C1166 C1170 1.350 . S
C1167 C1170 1.463 . S
C1167 C1172 1.350 . S
C1167 N1175 1.427 . S
C1168 H1159 0.930 1_554 S
C1168 C1166 1.378 . S
C1168 C1169 1.367 . S
C1169 C1168 1.367 . S
C1169 C1171 1.433 . S
C1170 C1166 1.350 . S
C1170 C1167 1.463 . S
C1170 N1174 1.427 . S
C1171 H1161 0.929 . S
C1171 C1169 1.433 . S
C1171 N1174 1.384 . S
C1172 H1163 0.929 . S
C1172 C1164 1.378 . S
C1172 C1167 1.350 . S
C1173 H1160 0.929 . S
C1173 C1165 1.433 . S
C1173 N1175 1.384 . S
N1174 C1170 1.427 . S
N1174 C1171 1.384 . S
N1175 C1167 1.427 . S
N1175 C1173 1.384 . S
H1176 C1182 0.930 . S
H1177 C1186 0.930 . S
H1178 C1191 0.929 . S
H1179 C1189 0.929 . S
H1180 C1184 0.929 . S
H1181 C1190 0.929 . S
C1182 H1176 0.930 . S
C1182 C1183 1.367 . S
C1182 C1190 1.378 . S
C1183 C1182 1.367 . S
C1183 C1191 1.433 . S
C1184 H1180 0.929 . S
C1184 C1186 1.378 . S
C1184 C1188 1.350 . S
C1185 C1188 1.463 . S
C1185 C1190 1.350 . S
C1185 N1193 1.427 . S
C1186 H1177 0.930 . S
C1186 C1184 1.378 . S
C1186 C1187 1.367 . S
C1187 C1186 1.367 . S
C1187 C1189 1.433 . S
C1188 C1184 1.350 . S
C1188 C1185 1.463 . S
C1188 N1192 1.427 . S
C1189 H1179 0.929 . S
C1189 C1187 1.433 . S
C1189 N1192 1.384 . S
C1190 H1181 0.929 . S
C1190 C1182 1.378 . S
C1190 C1185 1.350 . S
C1191 H1178 0.929 . S
C1191 C1183 1.433 . S
C1191 N1193 1.384 . S
N1192 C1188 1.427 . S
N1192 C1189 1.384 . S
N1193 C1185 1.427 . S
N1193 C1191 1.384 . S
H1194 C1200 0.930 . S
H1195 C1204 0.930 1_554 S
H1196 C1209 0.929 . S
H1197 C1207 0.929 . S
H1198 C1202 0.929 . S
H1199 C1208 0.929 . S
C1200 H1194 0.930 . S
C1200 C1201 1.367 . S
C1200 C1208 1.378 . S
C1201 C1200 1.367 . S
C1201 C1209 1.433 . S
C1202 H1198 0.929 . S
C1202 C1204 1.378 . S
C1202 C1206 1.350 . S
C1203 C1206 1.463 . S
C1203 C1208 1.350 . S
C1203 N1211 1.427 . S
C1204 H1195 0.930 1_556 S
C1204 C1202 1.378 . S
C1204 C1205 1.367 . S
C1205 C1204 1.367 . S
C1205 C1207 1.433 . S
C1206 C1202 1.350 . S
C1206 C1203 1.463 . S
C1206 N1210 1.427 . S
C1207 H1197 0.929 . S
C1207 C1205 1.433 . S
C1207 N1210 1.384 . S
C1208 H1199 0.929 . S
C1208 C1200 1.378 . S
C1208 C1203 1.350 . S
C1209 H1196 0.929 . S
C1209 C1201 1.433 . S
C1209 N1211 1.384 . S
N1210 C1206 1.427 . S
N1210 C1207 1.384 . S
N1211 C1203 1.427 . S
N1211 C1209 1.384 . S
H1212 C1218 0.930 . S
H1213 C1222 0.930 . S
H1214 C1227 0.929 . S
H1215 C1225 0.929 . S
H1216 C1220 0.929 . S
H1217 C1226 0.929 . S
C1218 H1212 0.930 . S
C1218 C1219 1.367 . S
C1218 C1226 1.378 . S
C1219 C1218 1.367 . S
C1219 C1227 1.433 . S
C1220 H1216 0.929 . S
C1220 C1222 1.378 . S
C1220 C1224 1.350 . S
C1221 C1224 1.463 . S
C1221 C1226 1.350 . S
C1221 N1229 1.427 . S
C1222 H1213 0.930 . S
C1222 C1220 1.378 . S
C1222 C1223 1.367 . S
C1223 C1222 1.367 . S
C1223 C1225 1.433 . S
C1224 C1220 1.350 . S
C1224 C1221 1.463 . S
C1224 N1228 1.427 . S
C1225 H1215 0.929 . S
C1225 C1223 1.433 . S
C1225 N1228 1.384 . S
C1226 H1217 0.929 . S
C1226 C1218 1.378 . S
C1226 C1221 1.350 . S
C1227 H1214 0.929 . S
C1227 C1219 1.433 . S
C1227 N1229 1.384 . S
N1228 C1224 1.427 . S
N1228 C1225 1.384 . S
N1229 C1221 1.427 . S
N1229 C1227 1.384 . S
H1230 C1236 0.930 . S
H1231 C1240 0.930 . S
H1232 C1245 0.929 . S
H1233 C1243 0.929 . S
H1234 C1238 0.929 . S
H1235 C1244 0.929 . S
C1236 H1230 0.930 . S
C1236 C1237 1.367 . S
C1236 C1244 1.378 . S
C1237 C1236 1.367 . S
C1237 C1245 1.433 . S
C1238 H1234 0.929 . S
C1238 C1240 1.378 . S
C1238 C1242 1.350 . S
C1239 C1242 1.463 . S
C1239 C1244 1.350 . S
C1239 N1247 1.427 . S
C1240 H1231 0.930 . S
C1240 C1238 1.378 . S
C1240 C1241 1.367 . S
C1241 C1240 1.367 . S
C1241 C1243 1.433 . S
C1242 C1238 1.350 . S
C1242 C1239 1.463 . S
C1242 N1246 1.427 . S
C1243 H1233 0.929 . S
C1243 C1241 1.433 . S
C1243 N1246 1.384 . S
C1244 H1235 0.929 . S
C1244 C1236 1.378 . S
C1244 C1239 1.350 . S
C1245 H1232 0.929 . S
C1245 C1237 1.433 . S
C1245 N1247 1.384 . S
N1246 C1242 1.427 . S
N1246 C1243 1.384 . S
N1247 C1239 1.427 . S
N1247 C1245 1.384 . S
H1248 C1254 0.930 . S
H1249 C1258 0.930 . S
H1250 C1263 0.929 . S
H1251 C1261 0.929 . S
H1252 C1256 0.929 . S
H1253 C1262 0.929 . S
C1254 H1248 0.930 . S
C1254 C1255 1.367 . S
C1254 C1262 1.378 . S
C1255 C1254 1.367 . S
C1255 C1263 1.433 . S
C1256 H1252 0.929 . S
C1256 C1258 1.378 . S
C1256 C1260 1.350 . S
C1257 C1260 1.463 . S
C1257 C1262 1.350 . S
C1257 N1265 1.427 . S
C1258 H1249 0.930 . S
C1258 C1256 1.378 . S
C1258 C1259 1.367 . S
C1259 C1258 1.367 . S
C1259 C1261 1.433 . S
C1260 C1256 1.350 . S
C1260 C1257 1.463 . S
C1260 N1264 1.427 . S
C1261 H1251 0.929 . S
C1261 C1259 1.433 . S
C1261 N1264 1.384 . S
C1262 H1253 0.929 . S
C1262 C1254 1.378 . S
C1262 C1257 1.350 . S
C1263 H1250 0.929 . S
C1263 C1255 1.433 . S
C1263 N1265 1.384 . S
N1264 C1260 1.427 . S
N1264 C1261 1.384 . S
N1265 C1257 1.427 . S
N1265 C1263 1.384 . S
H1266 C1272 0.930 . S
H1267 C1276 0.930 . S
H1268 C1281 0.929 . S
H1269 C1279 0.929 . S
H1270 C1274 0.929 . S
H1271 C1280 0.929 . S
C1272 H1266 0.930 . S
C1272 C1273 1.367 . S
C1272 C1280 1.378 . S
C1273 C1272 1.367 . S
C1273 C1281 1.433 . S
C1274 H1270 0.929 . S
C1274 C1276 1.378 . S
C1274 C1278 1.350 . S
C1275 C1278 1.463 . S
C1275 C1280 1.350 . S
C1275 N1283 1.427 . S
C1276 H1267 0.930 . S
C1276 C1274 1.378 . S
C1276 C1277 1.367 . S
C1277 C1276 1.367 . S
C1277 C1279 1.433 . S
C1278 C1274 1.350 . S
C1278 C1275 1.463 . S
C1278 N1282 1.427 . S
C1279 H1269 0.929 . S
C1279 C1277 1.433 . S
C1279 N1282 1.384 . S
C1280 H1271 0.929 . S
C1280 C1272 1.378 . S
C1280 C1275 1.350 . S
C1281 H1268 0.929 . S
C1281 C1273 1.433 . S
C1281 N1283 1.384 . S
N1282 C1278 1.427 . S
N1282 C1279 1.384 . S
N1283 C1275 1.427 . S
N1283 C1281 1.384 . S
H1284 C1290 0.930 . S
H1285 C1294 0.930 . S
H1286 C1299 0.929 . S
H1287 C1297 0.929 . S
H1288 C1292 0.929 . S
H1289 C1298 0.929 . S
C1290 H1284 0.930 . S
C1290 C1291 1.367 . S
C1290 C1298 1.378 . S
C1291 C1290 1.367 . S
C1291 C1299 1.433 . S
C1292 H1288 0.929 . S
C1292 C1294 1.378 . S
C1292 C1296 1.350 . S
C1293 C1296 1.463 . S
C1293 C1298 1.350 . S
C1293 N1301 1.427 . S
C1294 H1285 0.930 . S
C1294 C1292 1.378 . S
C1294 C1295 1.367 . S
C1295 C1294 1.367 . S
C1295 C1297 1.433 . S
C1296 C1292 1.350 . S
C1296 C1293 1.463 . S
C1296 N1300 1.427 . S
C1297 H1287 0.929 . S
C1297 C1295 1.433 . S
C1297 N1300 1.384 . S
C1298 H1289 0.929 . S
C1298 C1290 1.378 . S
C1298 C1293 1.350 . S
C1299 H1286 0.929 . S
C1299 C1291 1.433 . S
C1299 N1301 1.384 . S
N1300 C1296 1.427 . S
N1300 C1297 1.384 . S
N1301 C1293 1.427 . S
N1301 C1299 1.384 . S
H1302 C1308 0.930 . S
H1303 C1312 0.930 . S
H1304 C1317 0.929 . S
H1305 C1315 0.929 . S
H1306 C1310 0.929 . S
H1307 C1316 0.929 . S
C1308 H1302 0.930 . S
C1308 C1309 1.367 . S
C1308 C1316 1.378 . S
C1309 C1308 1.367 . S
C1309 C1317 1.433 . S
C1310 H1306 0.929 . S
C1310 C1312 1.378 . S
C1310 C1314 1.350 . S
C1311 C1314 1.463 . S
C1311 C1316 1.350 . S
C1311 N1319 1.427 . S
C1312 H1303 0.930 . S
C1312 C1310 1.378 . S
C1312 C1313 1.367 . S
C1313 C1312 1.367 . S
C1313 C1315 1.433 . S
C1314 C1310 1.350 . S
C1314 C1311 1.463 . S
C1314 N1318 1.427 . S
C1315 H1305 0.929 . S
C1315 C1313 1.433 . S
C1315 N1318 1.384 . S
C1316 H1307 0.929 . S
C1316 C1308 1.378 . S
C1316 C1311 1.350 . S
C1317 H1304 0.929 . S
C1317 C1309 1.433 . S
C1317 N1319 1.384 . S
N1318 C1314 1.427 . S
N1318 C1315 1.384 . S
N1319 C1311 1.427 . S
N1319 C1317 1.384 . S
H1320 C1326 0.930 . S
H1321 C1330 0.930 . S
H1322 C1335 0.929 . S
H1323 C1333 0.929 . S
H1324 C1328 0.929 . S
H1325 C1334 0.929 . S
C1326 H1320 0.930 . S
C1326 C1327 1.367 . S
C1326 C1334 1.378 . S
C1327 C1326 1.367 . S
C1327 C1335 1.433 . S
C1328 H1324 0.929 . S
C1328 C1330 1.378 . S
C1328 C1332 1.350 . S
C1329 C1332 1.463 . S
C1329 C1334 1.350 . S
C1329 N1337 1.427 . S
C1330 H1321 0.930 . S
C1330 C1328 1.378 . S
C1330 C1331 1.367 . S
C1331 C1330 1.367 . S
C1331 C1333 1.433 . S
C1332 C1328 1.350 . S
C1332 C1329 1.463 . S
C1332 N1336 1.427 . S
C1333 H1323 0.929 . S
C1333 C1331 1.433 . S
C1333 N1336 1.384 . S
C1334 H1325 0.929 . S
C1334 C1326 1.378 . S
C1334 C1329 1.350 . S
C1335 H1322 0.929 . S
C1335 C1327 1.433 . S
C1335 N1337 1.384 . S
N1336 C1332 1.427 . S
N1336 C1333 1.384 . S
N1337 C1329 1.427 . S
N1337 C1335 1.384 . S
H1338 C1344 0.930 . S
H1339 C1348 0.930 . S
H1340 C1353 0.929 . S
H1341 C1351 0.929 . S
H1342 C1346 0.929 . S
H1343 C1352 0.929 . S
C1344 H1338 0.930 . S
C1344 C1345 1.367 . S
C1344 C1352 1.378 . S
C1345 C1344 1.367 . S
C1345 C1353 1.433 . S
C1346 H1342 0.929 . S
C1346 C1348 1.378 . S
C1346 C1350 1.350 . S
C1347 C1350 1.463 . S
C1347 C1352 1.350 . S
C1347 N1355 1.427 . S
C1348 H1339 0.930 . S
C1348 C1346 1.378 . S
C1348 C1349 1.367 . S
C1349 C1348 1.367 . S
C1349 C1351 1.433 . S
C1350 C1346 1.350 . S
C1350 C1347 1.463 . S
C1350 N1354 1.427 . S
C1351 H1341 0.929 . S
C1351 C1349 1.433 . S
C1351 N1354 1.384 . S
C1352 H1343 0.929 . S
C1352 C1344 1.378 . S
C1352 C1347 1.350 . S
C1353 H1340 0.929 . S
C1353 C1345 1.433 . S
C1353 N1355 1.384 . S
N1354 C1350 1.427 . S
N1354 C1351 1.384 . S
N1355 C1347 1.427 . S
N1355 C1353 1.384 . S
H1356 C1362 0.930 . S
H1357 C1366 0.930 . S
H1358 C1371 0.929 . S
H1359 C1369 0.929 . S
H1360 C1364 0.929 . S
H1361 C1370 0.929 . S
C1362 H1356 0.930 . S
C1362 C1363 1.367 . S
C1362 C1370 1.378 . S
C1363 C1362 1.367 . S
C1363 C1371 1.433 . S
C1364 H1360 0.929 . S
C1364 C1366 1.378 . S
C1364 C1368 1.350 . S
C1365 C1368 1.463 . S
C1365 C1370 1.350 . S
C1365 N1373 1.427 . S
C1366 H1357 0.930 . S
C1366 C1364 1.378 . S
C1366 C1367 1.367 . S
C1367 C1366 1.367 . S
C1367 C1369 1.433 . S
C1368 C1364 1.350 . S
C1368 C1365 1.463 . S
C1368 N1372 1.427 . S
C1369 H1359 0.929 . S
C1369 C1367 1.433 . S
C1369 N1372 1.384 . S
C1370 H1361 0.929 . S
C1370 C1362 1.378 . S
C1370 C1365 1.350 . S
C1371 H1358 0.929 . S
C1371 C1363 1.433 . S
C1371 N1373 1.384 . S
N1372 C1368 1.427 . S
N1372 C1369 1.384 . S
N1373 C1365 1.427 . S
N1373 C1371 1.384 . S
H1374 C1380 0.930 . S
H1375 C1384 0.930 . S
H1376 C1389 0.929 . S
H1377 C1387 0.929 . S
H1378 C1382 0.929 . S
H1379 C1388 0.929 . S
C1380 H1374 0.930 . S
C1380 C1381 1.367 . S
C1380 C1388 1.378 . S
C1381 C1380 1.367 . S
C1381 C1389 1.433 . S
C1382 H1378 0.929 . S
C1382 C1384 1.378 . S
C1382 C1386 1.350 . S
C1383 C1386 1.463 . S
C1383 C1388 1.350 . S
C1383 N1391 1.427 . S
C1384 H1375 0.930 . S
C1384 C1382 1.378 . S
C1384 C1385 1.367 . S
C1385 C1384 1.367 . S
C1385 C1387 1.433 . S
C1386 C1382 1.350 . S
C1386 C1383 1.463 . S
C1386 N1390 1.427 . S
C1387 H1377 0.929 . S
C1387 C1385 1.433 . S
C1387 N1390 1.384 . S
C1388 H1379 0.929 . S
C1388 C1380 1.378 . S
C1388 C1383 1.350 . S
C1389 H1376 0.929 . S
C1389 C1381 1.433 . S
C1389 N1391 1.384 . S
N1390 C1386 1.427 . S
N1390 C1387 1.384 . S
N1391 C1383 1.427 . S
N1391 C1389 1.384 . S
H1392 C1398 0.930 . S
H1393 C1402 0.930 . S
H1394 C1407 0.929 . S
H1395 C1405 0.929 . S
H1396 C1400 0.929 . S
H1397 C1406 0.929 . S
C1398 H1392 0.930 . S
C1398 C1399 1.367 . S
C1398 C1406 1.378 . S
C1399 C1398 1.367 . S
C1399 C1407 1.433 . S
C1400 H1396 0.929 . S
C1400 C1402 1.378 . S
C1400 C1404 1.350 . S
C1401 C1404 1.463 . S
C1401 C1406 1.350 . S
C1401 N1409 1.427 . S
C1402 H1393 0.930 . S
C1402 C1400 1.378 . S
C1402 C1403 1.367 . S
C1403 C1402 1.367 . S
C1403 C1405 1.433 . S
C1404 C1400 1.350 . S
C1404 C1401 1.463 . S
C1404 N1408 1.427 . S
C1405 H1395 0.929 . S
C1405 C1403 1.433 . S
C1405 N1408 1.384 . S
C1406 H1397 0.929 . S
C1406 C1398 1.378 . S
C1406 C1401 1.350 . S
C1407 H1394 0.929 . S
C1407 C1399 1.433 . S
C1407 N1409 1.384 . S
N1408 C1404 1.427 . S
N1408 C1405 1.384 . S
N1409 C1401 1.427 . S
N1409 C1407 1.384 . S
H1410 C1416 0.930 . S
H1411 C1420 0.930 . S
H1412 C1425 0.929 . S
H1413 C1423 0.929 . S
H1414 C1418 0.929 . S
H1415 C1424 0.929 . S
C1416 H1410 0.930 . S
C1416 C1417 1.367 . S
C1416 C1424 1.378 . S
C1417 C1416 1.367 . S
C1417 C1425 1.433 . S
C1418 H1414 0.929 . S
C1418 C1420 1.378 . S
C1418 C1422 1.350 . S
C1419 C1422 1.463 . S
C1419 C1424 1.350 . S
C1419 N1427 1.427 . S
C1420 H1411 0.930 . S
C1420 C1418 1.378 . S
C1420 C1421 1.367 . S
C1421 C1420 1.367 . S
C1421 C1423 1.433 . S
C1422 C1418 1.350 . S
C1422 C1419 1.463 . S
C1422 N1426 1.427 . S
C1423 H1413 0.929 . S
C1423 C1421 1.433 . S
C1423 N1426 1.384 . S
C1424 H1415 0.929 . S
C1424 C1416 1.378 . S
C1424 C1419 1.350 . S
C1425 H1412 0.929 . S
C1425 C1417 1.433 . S
C1425 N1427 1.384 . S
N1426 C1422 1.427 . S
N1426 C1423 1.384 . S
N1427 C1419 1.427 . S
N1427 C1425 1.384 . S
H1428 C1434 0.930 . S
H1429 C1438 0.930 . S
H1430 C1443 0.929 . S
H1431 C1441 0.929 . S
H1432 C1436 0.929 . S
H1433 C1442 0.929 . S
C1434 H1428 0.930 . S
C1434 C1435 1.367 . S
C1434 C1442 1.378 . S
C1435 C1434 1.367 . S
C1435 C1443 1.433 . S
C1436 H1432 0.929 . S
C1436 C1438 1.378 . S
C1436 C1440 1.350 . S
C1437 C1440 1.463 . S
C1437 C1442 1.350 . S
C1437 N1445 1.427 . S
C1438 H1429 0.930 . S
C1438 C1436 1.378 . S
C1438 C1439 1.367 . S
C1439 C1438 1.367 . S
C1439 C1441 1.433 . S
C1440 C1436 1.350 . S
C1440 C1437 1.463 . S
C1440 N1444 1.427 . S
C1441 H1431 0.929 . S
C1441 C1439 1.433 . S
C1441 N1444 1.384 . S
C1442 H1433 0.929 . S
C1442 C1434 1.378 . S
C1442 C1437 1.350 . S
C1443 H1430 0.929 . S
C1443 C1435 1.433 . S
C1443 N1445 1.384 . S
N1444 C1440 1.427 . S
N1444 C1441 1.384 . S
N1445 C1437 1.427 . S
N1445 C1443 1.384 . S
H1446 C1452 0.930 . S
H1447 C1456 0.930 . S
H1448 C1461 0.929 . S
H1449 C1459 0.929 . S
H1450 C1454 0.929 . S
H1451 C1460 0.929 . S
C1452 H1446 0.930 . S
C1452 C1453 1.367 . S
C1452 C1460 1.378 . S
C1453 C1452 1.367 . S
C1453 C1461 1.433 . S
C1454 H1450 0.929 . S
C1454 C1456 1.378 . S
C1454 C1458 1.350 . S
C1455 C1458 1.463 . S
C1455 C1460 1.350 . S
C1455 N1463 1.427 . S
C1456 H1447 0.930 . S
C1456 C1454 1.378 . S
C1456 C1457 1.367 . S
C1457 C1456 1.367 . S
C1457 C1459 1.433 . S
C1458 C1454 1.350 . S
C1458 C1455 1.463 . S
C1458 N1462 1.427 . S
C1459 H1449 0.929 . S
C1459 C1457 1.433 . S
C1459 N1462 1.384 . S
C1460 H1451 0.929 . S
C1460 C1452 1.378 . S
C1460 C1455 1.350 . S
C1461 H1448 0.929 . S
C1461 C1453 1.433 . S
C1461 N1463 1.384 . S
N1462 C1458 1.427 . S
N1462 C1459 1.384 . S
N1463 C1455 1.427 . S
N1463 C1461 1.384 . S
H1464 C1470 0.930 . S
H1465 C1474 0.930 . S
H1466 C1479 0.929 . S
H1467 C1477 0.929 . S
H1468 C1472 0.929 . S
H1469 C1478 0.929 . S
C1470 H1464 0.930 . S
C1470 C1471 1.367 . S
C1470 C1478 1.378 . S
C1471 C1470 1.367 . S
C1471 C1479 1.433 . S
C1472 H1468 0.929 . S
C1472 C1474 1.378 . S
C1472 C1476 1.350 . S
C1473 C1476 1.463 . S
C1473 C1478 1.350 . S
C1473 N1481 1.427 . S
C1474 H1465 0.930 . S
C1474 C1472 1.378 . S
C1474 C1475 1.367 . S
C1475 C1474 1.367 . S
C1475 C1477 1.433 . S
C1476 C1472 1.350 . S
C1476 C1473 1.463 . S
C1476 N1480 1.427 . S
C1477 H1467 0.929 . S
C1477 C1475 1.433 . S
C1477 N1480 1.384 . S
C1478 H1469 0.929 . S
C1478 C1470 1.378 . S
C1478 C1473 1.350 . S
C1479 H1466 0.929 . S
C1479 C1471 1.433 . S
C1479 N1481 1.384 . S
N1480 C1476 1.427 . S
N1480 C1477 1.384 . S
N1481 C1473 1.427 . S
N1481 C1479 1.384 . S
H1482 C1488 0.930 . S
H1483 C1492 0.930 . S
H1484 C1497 0.929 . S
H1485 C1495 0.929 . S
H1486 C1490 0.929 . S
H1487 C1496 0.929 . S
C1488 H1482 0.930 . S
C1488 C1489 1.367 . S
C1488 C1496 1.378 . S
C1489 C1488 1.367 . S
C1489 C1497 1.433 . S
C1490 H1486 0.929 . S
C1490 C1492 1.378 . S
C1490 C1494 1.350 . S
C1491 C1494 1.463 . S
C1491 C1496 1.350 . S
C1491 N1499 1.427 . S
C1492 H1483 0.930 . S
C1492 C1490 1.378 . S
C1492 C1493 1.367 . S
C1493 C1492 1.367 . S
C1493 C1495 1.433 . S
C1494 C1490 1.350 . S
C1494 C1491 1.463 . S
C1494 N1498 1.427 . S
C1495 H1485 0.929 . S
C1495 C1493 1.433 . S
C1495 N1498 1.384 . S
C1496 H1487 0.929 . S
C1496 C1488 1.378 . S
C1496 C1491 1.350 . S
C1497 H1484 0.929 . S
C1497 C1489 1.433 . S
C1497 N1499 1.384 . S
N1498 C1494 1.427 . S
N1498 C1495 1.384 . S
N1499 C1491 1.427 . S
N1499 C1497 1.384 . S
H1500 C1506 0.930 . S
H1501 C1510 0.930 . S
H1502 C1515 0.929 . S
H1503 C1513 0.929 . S
H1504 C1508 0.929 . S
H1505 C1514 0.929 . S
C1506 H1500 0.930 . S
C1506 C1507 1.367 . S
C1506 C1514 1.378 . S
C1507 C1506 1.367 . S
C1507 C1515 1.433 . S
C1508 H1504 0.929 . S
C1508 C1510 1.378 . S
C1508 C1512 1.350 . S
C1509 C1512 1.463 . S
C1509 C1514 1.350 . S
C1509 N1517 1.427 . S
C1510 H1501 0.930 . S
C1510 C1508 1.378 . S
C1510 C1511 1.367 . S
C1511 C1510 1.367 . S
C1511 C1513 1.433 . S
C1512 C1508 1.350 . S
C1512 C1509 1.463 . S
C1512 N1516 1.427 . S
C1513 H1503 0.929 . S
C1513 C1511 1.433 . S
C1513 N1516 1.384 . S
C1514 H1505 0.929 . S
C1514 C1506 1.378 . S
C1514 C1509 1.350 . S
C1515 H1502 0.929 . S
C1515 C1507 1.433 . S
C1515 N1517 1.384 . S
N1516 C1512 1.427 . S
N1516 C1513 1.384 . S
N1517 C1509 1.427 . S
N1517 C1515 1.384 . S
H1518 C1524 0.930 . S
H1519 C1528 0.930 . S
H1520 C1533 0.929 . S
H1521 C1531 0.929 . S
H1522 C1526 0.929 . S
H1523 C1532 0.929 . S
C1524 H1518 0.930 . S
C1524 C1525 1.367 . S
C1524 C1532 1.378 . S
C1525 C1524 1.367 . S
C1525 C1533 1.433 . S
C1526 H1522 0.929 . S
C1526 C1528 1.378 . S
C1526 C1530 1.350 . S
C1527 C1530 1.463 . S
C1527 C1532 1.350 . S
C1527 N1535 1.427 . S
C1528 H1519 0.930 . S
C1528 C1526 1.378 . S
C1528 C1529 1.367 . S
C1529 C1528 1.367 . S
C1529 C1531 1.433 . S
C1530 C1526 1.350 . S
C1530 C1527 1.463 . S
C1530 N1534 1.427 . S
C1531 H1521 0.929 . S
C1531 C1529 1.433 . S
C1531 N1534 1.384 . S
C1532 H1523 0.929 . S
C1532 C1524 1.378 . S
C1532 C1527 1.350 . S
C1533 H1520 0.929 . S
C1533 C1525 1.433 . S
C1533 N1535 1.384 . S
N1534 C1530 1.427 . S
N1534 C1531 1.384 . S
N1535 C1527 1.427 . S
N1535 C1533 1.384 . S
H1536 C1542 0.930 . S
H1537 C1546 0.930 . S
H1538 C1551 0.929 . S
H1539 C1549 0.929 . S
H1540 C1544 0.929 . S
H1541 C1550 0.929 . S
C1542 H1536 0.930 . S
C1542 C1543 1.367 . S
C1542 C1550 1.378 . S
C1543 C1542 1.367 . S
C1543 C1551 1.433 . S
C1544 H1540 0.929 . S
C1544 C1546 1.378 . S
C1544 C1548 1.350 . S
C1545 C1548 1.463 . S
C1545 C1550 1.350 . S
C1545 N1553 1.427 . S
C1546 H1537 0.930 . S
C1546 C1544 1.378 . S
C1546 C1547 1.367 . S
C1547 C1546 1.367 . S
C1547 C1549 1.433 . S
C1548 C1544 1.350 . S
C1548 C1545 1.463 . S
C1548 N1552 1.427 . S
C1549 H1539 0.929 . S
C1549 C1547 1.433 . S
C1549 N1552 1.384 . S
C1550 H1541 0.929 . S
C1550 C1542 1.378 . S
C1550 C1545 1.350 . S
C1551 H1538 0.929 . S
C1551 C1543 1.433 . S
C1551 N1553 1.384 . S
N1552 C1548 1.427 . S
N1552 C1549 1.384 . S
N1553 C1545 1.427 . S
N1553 C1551 1.384 . S
H1554 C1560 0.930 . S
H1555 C1564 0.930 . S
H1556 C1569 0.929 . S
H1557 C1567 0.929 . S
H1558 C1562 0.929 . S
H1559 C1568 0.929 . S
C1560 H1554 0.930 . S
C1560 C1561 1.367 . S
C1560 C1568 1.378 . S
C1561 C1560 1.367 . S
C1561 C1569 1.433 . S
C1562 H1558 0.929 . S
C1562 C1564 1.378 . S
C1562 C1566 1.350 . S
C1563 C1566 1.463 . S
C1563 C1568 1.350 . S
C1563 N1571 1.427 . S
C1564 H1555 0.930 . S
C1564 C1562 1.378 . S
C1564 C1565 1.367 . S
C1565 C1564 1.367 . S
C1565 C1567 1.433 . S
C1566 C1562 1.350 . S
C1566 C1563 1.463 . S
C1566 N1570 1.427 . S
C1567 H1557 0.929 . S
C1567 C1565 1.433 . S
C1567 N1570 1.384 . S
C1568 H1559 0.929 . S
C1568 C1560 1.378 . S
C1568 C1563 1.350 . S
C1569 H1556 0.929 . S
C1569 C1561 1.433 . S
C1569 N1571 1.384 . S
N1570 C1566 1.427 . S
N1570 C1567 1.384 . S
N1571 C1563 1.427 . S
N1571 C1569 1.384 . S
H1572 C1578 0.930 . S
H1573 C1582 0.930 . S
H1574 C1587 0.929 . S
H1575 C1585 0.929 . S
H1576 C1580 0.929 . S
H1577 C1586 0.929 . S
C1578 H1572 0.930 . S
C1578 C1579 1.367 . S
C1578 C1586 1.378 . S
C1579 C1578 1.367 . S
C1579 C1587 1.433 . S
C1580 H1576 0.929 . S
C1580 C1582 1.378 . S
C1580 C1584 1.350 . S
C1581 C1584 1.463 . S
C1581 C1586 1.350 . S
C1581 N1589 1.427 . S
C1582 H1573 0.930 . S
C1582 C1580 1.378 . S
C1582 C1583 1.367 . S
C1583 C1582 1.367 . S
C1583 C1585 1.433 . S
C1584 C1580 1.350 . S
C1584 C1581 1.463 . S
C1584 N1588 1.427 . S
C1585 H1575 0.929 . S
C1585 C1583 1.433 . S
C1585 N1588 1.384 . S
C1586 H1577 0.929 . S
C1586 C1578 1.378 . S
C1586 C1581 1.350 . S
C1587 H1574 0.929 . S
C1587 C1579 1.433 . S
C1587 N1589 1.384 . S
N1588 C1584 1.427 . S
N1588 C1585 1.384 . S
N1589 C1581 1.427 . S
N1589 C1587 1.384 . S
H1590 C1596 0.930 . S
H1591 C1600 0.930 . S
H1592 C1605 0.929 . S
H1593 C1603 0.929 . S
H1594 C1598 0.929 . S
H1595 C1604 0.929 . S
C1596 H1590 0.930 . S
C1596 C1597 1.367 . S
C1596 C1604 1.378 . S
C1597 C1596 1.367 . S
C1597 C1605 1.433 . S
C1598 H1594 0.929 . S
C1598 C1600 1.378 . S
C1598 C1602 1.350 . S
C1599 C1602 1.463 . S
C1599 C1604 1.350 . S
C1599 N1607 1.427 . S
C1600 H1591 0.930 . S
C1600 C1598 1.378 . S
C1600 C1601 1.367 . S
C1601 C1600 1.367 . S
C1601 C1603 1.433 . S
C1602 C1598 1.350 . S
C1602 C1599 1.463 . S
C1602 N1606 1.427 . S
C1603 H1593 0.929 . S
C1603 C1601 1.433 . S
C1603 N1606 1.384 . S
C1604 H1595 0.929 . S
C1604 C1596 1.378 . S
C1604 C1599 1.350 . S
C1605 H1592 0.929 . S
C1605 C1597 1.433 . S
C1605 N1607 1.384 . S
N1606 C1602 1.427 . S
N1606 C1603 1.384 . S
N1607 C1599 1.427 . S
N1607 C1605 1.384 . S
H1608 C1614 0.930 . S
H1609 C1618 0.930 . S
H1610 C1623 0.929 . S
H1611 C1621 0.929 . S
H1612 C1616 0.929 . S
H1613 C1622 0.929 . S
C1614 H1608 0.930 . S
C1614 C1615 1.367 . S
C1614 C1622 1.378 . S
C1615 C1614 1.367 . S
C1615 C1623 1.433 . S
C1616 H1612 0.929 . S
C1616 C1618 1.378 . S
C1616 C1620 1.350 . S
C1617 C1620 1.463 . S
C1617 C1622 1.350 . S
C1617 N1625 1.427 . S
C1618 H1609 0.930 . S
C1618 C1616 1.378 . S
C1618 C1619 1.367 . S
C1619 C1618 1.367 . S
C1619 C1621 1.433 . S
C1620 C1616 1.350 . S
C1620 C1617 1.463 . S
C1620 N1624 1.427 . S
C1621 H1611 0.929 . S
C1621 C1619 1.433 . S
C1621 N1624 1.384 . S
C1622 H1613 0.929 . S
C1622 C1614 1.378 . S
C1622 C1617 1.350 . S
C1623 H1610 0.929 . S
C1623 C1615 1.433 . S
C1623 N1625 1.384 . S
N1624 C1620 1.427 . S
N1624 C1621 1.384 . S
N1625 C1617 1.427 . S
N1625 C1623 1.384 . S
H1626 C1632 0.930 . S
H1627 C1636 0.930 . S
H1628 C1641 0.929 . S
H1629 C1639 0.929 . S
H1630 C1634 0.929 . S
H1631 C1640 0.929 . S
C1632 H1626 0.930 . S
C1632 C1633 1.367 . S
C1632 C1640 1.378 . S
C1633 C1632 1.367 . S
C1633 C1641 1.433 . S
C1634 H1630 0.929 . S
C1634 C1636 1.378 . S
C1634 C1638 1.350 . S
C1635 C1638 1.463 . S
C1635 C1640 1.350 . S
C1635 N1643 1.427 . S
C1636 H1627 0.930 . S
C1636 C1634 1.378 . S
C1636 C1637 1.367 . S
C1637 C1636 1.367 . S
C1637 C1639 1.433 . S
C1638 C1634 1.350 . S
C1638 C1635 1.463 . S
C1638 N1642 1.427 . S
C1639 H1629 0.929 . S
C1639 C1637 1.433 . S
C1639 N1642 1.384 . S
C1640 H1631 0.929 . S
C1640 C1632 1.378 . S
C1640 C1635 1.350 . S
C1641 H1628 0.929 . S
C1641 C1633 1.433 . S
C1641 N1643 1.384 . S
N1642 C1638 1.427 . S
N1642 C1639 1.384 . S
N1643 C1635 1.427 . S
N1643 C1641 1.384 . S
H1644 C1650 0.930 . S
H1645 C1654 0.930 . S
H1646 C1659 0.929 . S
H1647 C1657 0.929 . S
H1648 C1652 0.929 . S
H1649 C1658 0.929 . S
C1650 H1644 0.930 . S
C1650 C1651 1.367 . S
C1650 C1658 1.378 . S
C1651 C1650 1.367 . S
C1651 C1659 1.433 . S
C1652 H1648 0.929 . S
C1652 C1654 1.378 . S
C1652 C1656 1.350 . S
C1653 C1656 1.463 . S
C1653 C1658 1.350 . S
C1653 N1661 1.427 . S
C1654 H1645 0.930 . S
C1654 C1652 1.378 . S
C1654 C1655 1.367 . S
C1655 C1654 1.367 . S
C1655 C1657 1.433 . S
C1656 C1652 1.350 . S
C1656 C1653 1.463 . S
C1656 N1660 1.427 . S
C1657 H1647 0.929 . S
C1657 C1655 1.433 . S
C1657 N1660 1.384 . S
C1658 H1649 0.929 . S
C1658 C1650 1.378 . S
C1658 C1653 1.350 . S
C1659 H1646 0.929 . S
C1659 C1651 1.433 . S
C1659 N1661 1.384 . S
N1660 C1656 1.427 . S
N1660 C1657 1.384 . S
N1661 C1653 1.427 . S
N1661 C1659 1.384 . S
H1662 C1668 0.930 . S
H1663 C1672 0.930 . S
H1664 C1677 0.929 . S
H1665 C1675 0.929 . S
H1666 C1670 0.929 . S
H1667 C1676 0.929 . S
C1668 H1662 0.930 . S
C1668 C1669 1.367 . S
C1668 C1676 1.378 . S
C1669 C1668 1.367 . S
C1669 C1677 1.433 . S
C1670 H1666 0.929 . S
C1670 C1672 1.378 . S
C1670 C1674 1.350 . S
C1671 C1674 1.463 . S
C1671 C1676 1.350 . S
C1671 N1679 1.427 . S
C1672 H1663 0.930 . S
C1672 C1670 1.378 . S
C1672 C1673 1.367 . S
C1673 C1672 1.367 . S
C1673 C1675 1.433 . S
C1674 C1670 1.350 . S
C1674 C1671 1.463 . S
C1674 N1678 1.427 . S
C1675 H1665 0.929 . S
C1675 C1673 1.433 . S
C1675 N1678 1.384 . S
C1676 H1667 0.929 . S
C1676 C1668 1.378 . S
C1676 C1671 1.350 . S
C1677 H1664 0.929 . S
C1677 C1669 1.433 . S
C1677 N1679 1.384 . S
N1678 C1674 1.427 . S
N1678 C1675 1.384 . S
N1679 C1671 1.427 . S
N1679 C1677 1.384 . S
H1680 C1686 0.930 . S
H1681 C1690 0.930 . S
H1682 C1695 0.929 . S
H1683 C1693 0.929 . S
H1684 C1688 0.929 . S
H1685 C1694 0.929 . S
C1686 H1680 0.930 . S
C1686 C1687 1.367 . S
C1686 C1694 1.378 . S
C1687 C1686 1.367 . S
C1687 C1695 1.433 . S
C1688 H1684 0.929 . S
C1688 C1690 1.378 . S
C1688 C1692 1.350 . S
C1689 C1692 1.463 . S
C1689 C1694 1.350 . S
C1689 N1697 1.427 . S
C1690 H1681 0.930 . S
C1690 C1688 1.378 . S
C1690 C1691 1.367 . S
C1691 C1690 1.367 . S
C1691 C1693 1.433 . S
C1692 C1688 1.350 . S
C1692 C1689 1.463 . S
C1692 N1696 1.427 . S
C1693 H1683 0.929 . S
C1693 C1691 1.433 . S
C1693 N1696 1.384 . S
C1694 H1685 0.929 . S
C1694 C1686 1.378 . S
C1694 C1689 1.350 . S
C1695 H1682 0.929 . S
C1695 C1687 1.433 . S
C1695 N1697 1.384 . S
N1696 C1692 1.427 . S
N1696 C1693 1.384 . S
N1697 C1689 1.427 . S
N1697 C1695 1.384 . S
H1698 C1704 0.930 . S
H1699 C1708 0.930 . S
H1700 C1713 0.929 . S
H1701 C1711 0.929 . S
H1702 C1706 0.929 . S
H1703 C1712 0.929 . S
C1704 H1698 0.930 . S
C1704 C1705 1.367 . S
C1704 C1712 1.378 . S
C1705 C1704 1.367 . S
C1705 C1713 1.433 . S
C1706 H1702 0.929 . S
C1706 C1708 1.378 . S
C1706 C1710 1.350 . S
C1707 C1710 1.463 . S
C1707 C1712 1.350 . S
C1707 N1715 1.427 . S
C1708 H1699 0.930 . S
C1708 C1706 1.378 . S
C1708 C1709 1.367 . S
C1709 C1708 1.367 . S
C1709 C1711 1.433 . S
C1710 C1706 1.350 . S
C1710 C1707 1.463 . S
C1710 N1714 1.427 . S
C1711 H1701 0.929 . S
C1711 C1709 1.433 . S
C1711 N1714 1.384 . S
C1712 H1703 0.929 . S
C1712 C1704 1.378 . S
C1712 C1707 1.350 . S
C1713 H1700 0.929 . S
C1713 C1705 1.433 . S
C1713 N1715 1.384 . S
N1714 C1710 1.427 . S
N1714 C1711 1.384 . S
N1715 C1707 1.427 . S
N1715 C1713 1.384 . S
H1716 C1722 0.930 . S
H1717 C1726 0.930 . S
H1718 C1731 0.929 . S
H1719 C1729 0.929 . S
H1720 C1724 0.929 . S
H1721 C1730 0.929 . S
C1722 H1716 0.930 . S
C1722 C1723 1.367 . S
C1722 C1730 1.378 . S
C1723 C1722 1.367 . S
C1723 C1731 1.433 . S
C1724 H1720 0.929 . S
C1724 C1726 1.378 . S
C1724 C1728 1.350 . S
C1725 C1728 1.463 . S
C1725 C1730 1.350 . S
C1725 N1733 1.427 . S
C1726 H1717 0.930 . S
C1726 C1724 1.378 . S
C1726 C1727 1.367 . S
C1727 C1726 1.367 . S
C1727 C1729 1.433 . S
C1728 C1724 1.350 . S
C1728 C1725 1.463 . S
C1728 N1732 1.427 . S
C1729 H1719 0.929 . S
C1729 C1727 1.433 . S
C1729 N1732 1.384 . S
C1730 H1721 0.929 . S
C1730 C1722 1.378 . S
C1730 C1725 1.350 . S
C1731 H1718 0.929 . S
C1731 C1723 1.433 . S
C1731 N1733 1.384 . S
N1732 C1728 1.427 . S
N1732 C1729 1.384 . S
N1733 C1725 1.427 . S
N1733 C1731 1.384 . S
C881 C699 1.363 . S
C877 C74 1.484 . S
C899 C700 1.608 . S
C895 C153 1.520 . S
C917 C694 1.586 . S
C913 C231 1.602 . S
C931 C310 0.896 . S
C935 C693 0.283 . S
C949 C394 1.516 . S
C953 C696 1.606 . S
C971 C698 1.579 . S
C967 C494 1.600 . S
C985 C573 0.931 . S
C989 C697 0.277 . S
C1003 C651 1.479 . S
C1007 C695 1.352 . S
C1025 C730 2.617 . S
C1021 C56 2.610 . S
C1039 C151 1.621 . S
C1043 C761 1.508 . S
C1061 C729 1.364 . S
C1057 C237 1.287 . S
C1079 C764 1.379 . S
C1075 C326 1.330 . S
C1093 C410 1.632 . S
C1097 C727 1.638 . S
C1115 C759 2.620 . S
C1111 C476 2.627 . S
C1129 C571 1.349 . S
C1133 C732 1.237 . S
C1147 C657 1.239 . S
C1151 C766 1.341 . S
C1165 C58 1.253 . S
C1169 C762 1.342 . S
C1183 C392 1.622 . S
C1187 C765 1.496 . S
C1205 C733 1.378 . S
C1201 C478 1.272 . S
C1223 C760 1.370 . S
C1219 C567 1.349 . S
C1237 C655 2.614 . S
C1241 C726 2.615 . S
C1255 C235 2.626 . S
C1259 C763 2.623 . S
C1277 C728 1.257 . S
C1273 C308 1.348 . S
C1291 C147 1.643 . S
C1295 C731 1.638 . S
C1309 C662 1.519 . S
C1313 C798 1.412 . S
C1327 C405 1.241 . S
C1331 C799 1.245 . S
C1349 C793 1.415 . S
C1345 C483 1.428 . S
C1367 C792 0.307 . S
C1363 C562 0.709 . S
C1381 C142 1.230 . S
C1385 C795 1.254 . S
C1403 C797 1.422 . S
C1399 C242 1.430 . S
C1417 C321 0.746 . S
C1421 C796 0.314 . S
C1435 C63 1.517 . S
C1439 C794 1.415 . S
C1453 C644 2.818 . S
C1457 C832 2.735 . S
C1475 C864 1.316 . S
C1471 C403 1.400 . S
C1489 C489 1.167 . S
C1493 C825 1.308 . S
C1507 C578 1.632 . S
C1511 C859 1.629 . S
C1529 C830 1.360 . S
C1525 C158 1.345 . S
C1543 C224 2.842 . S
C1547 C861 2.757 . S
C1565 C827 1.655 . S
C1561 C319 1.719 . S
C1583 C862 1.319 . S
C1579 C69 1.217 . S
C1601 C858 1.317 . S
C1597 C646 1.200 . S
C1615 C140 1.399 . S
C1619 C860 1.320 . S
C1633 C226 1.154 . S
C1637 C829 1.311 . S
C1655 C863 1.627 . S
C1651 C315 1.642 . S
C1669 C67 2.817 . S
C1673 C828 2.737 . S
C1687 C487 2.840 . S
C1691 C865 2.763 . S
C1709 C831 1.644 . S
C1705 C560 1.726 . S
C1727 C826 1.350 . S
C1723 C399 1.351 . S
