# Generated by pormake.
# Topology nia, (6,6)-cn, num edge types: 1
# Building blocks:
#     Node 0, Type 0, BuildingBlock: BETGAK_clean_sbu_0, # of connection points: 6
#     Node 1, Type 0, BuildingBlock: BETGAK_clean_sbu_0, # of connection points: 6
#     Node 2, Type 1, BuildingBlock: MIDCAF_clean_sbu_0, # of connection points: 6
#     Node 3, Type 1, BuildingBlock: MIDCAF_clean_sbu_0, # of connection points: 6
#     Edge 4, Type (0, 1), BuildingBlock: EZIPEK_clean_linker_0, # of connection points: 2
#     Edge 5, Type (0, 1), BuildingBlock: EZIPEK_clean_linker_0, # of connection points: 2
#     Edge 6, Type (0, 1), BuildingBlock: EZIPEK_clean_linker_0, # of connection points: 2
#     Edge 7, Type (0, 1), BuildingBlock: EZIPEK_clean_linker_0, # of connection points: 2
#     Edge 8, Type (0, 1), BuildingBlock: EZIPEK_clean_linker_0, # of connection points: 2
#     Edge 9, Type (0, 1), BuildingBlock: EZIPEK_clean_linker_0, # of connection points: 2
#     Edge 10, Type (0, 1), BuildingBlock: EZIPEK_clean_linker_0, # of connection points: 2
#     Edge 11, Type (0, 1), BuildingBlock: EZIPEK_clean_linker_0, # of connection points: 2
#     Edge 12, Type (0, 1), BuildingBlock: EZIPEK_clean_linker_0, # of connection points: 2
#     Edge 13, Type (0, 1), BuildingBlock: EZIPEK_clean_linker_0, # of connection points: 2
#     Edge 14, Type (0, 1), BuildingBlock: EZIPEK_clean_linker_0, # of connection points: 2
#     Edge 15, Type (0, 1), BuildingBlock: EZIPEK_clean_linker_0, # of connection points: 2
# Relax obj value: 0.381
# Max RMSD: 0.284
# Mean RMSD: 0.265
data_MOF--net-nia--node1-BETGAK_clean_sbu_0--node2-MIDCAF_clean_sbu_0--edge1-EZIPEK_clean_linker_0
_symmetry_space_group_name_H-M    P1
_symmetry_Int_Tables_number       1
_symmetry_cell_setting            triclinic
loop_
_symmetry_equiv_pos_as_xyz
'x, y, z'
_cell_length_a     19.00763
_cell_length_b     22.197557
_cell_length_c     26.21714
_cell_angle_alpha  62.944976
_cell_angle_beta   105.33572
_cell_angle_gamma 128.7285
loop_
_atom_site_label
_atom_site_type_symbol
_atom_site_fract_x
_atom_site_fract_y
_atom_site_fract_z
_atom_type_partial_charge
La0 La 0.11559 0.05016 0.07712 0.0
La1 La 0.99665 0.93979 1.02373 0.0
C2 C 0.22874 0.16897 0.11005 0.0
C3 C 0.22029 0.20411 0.14175 0.0
C4 C 0.1543 0.15258 0.18584 0.0
C5 C 0.14897 0.18719 0.21654 0.0
C6 C 0.20947 0.27342 0.20316 0.0
C7 C 0.27414 0.32477 0.15861 0.0
C8 C 0.27952 0.29031 0.12808 0.0
C9 C 0.95639 0.92608 0.13594 0.0
C10 C 0.98543 0.08512 0.9883 0.0
C11 C 0.88346 0.8207 0.99109 0.0
C12 C 0.89209 0.7852 0.95984 0.0
C13 C 0.96024 0.83611 0.91728 0.0
C14 C 0.96572 0.80131 0.88682 0.0
C15 C 0.90332 0.71547 0.89903 0.0
C16 C 0.83649 0.6647 0.94211 0.0
C17 C 0.83089 0.69938 0.97235 0.0
C18 C 0.15575 0.06423 0.96475 0.0
C19 C 0.12669 0.90477 0.11252 0.0
O20 O 0.20629 0.09319 0.13877 0.0
O21 O 0.19691 0.17939 0.05848 0.0
O22 O 0.03479 0.95933 0.15792 0.0
O23 O 0.96927 0.96501 0.08277 0.0
O24 O 0.06988 0.12118 1.00501 0.0
O25 O 0.93449 0.00362 1.00281 0.0
O26 O 0.90625 0.89656 0.96205 0.0
O27 O 0.91503 0.81047 0.04273 0.0
O28 O 0.0773 0.03054 0.94288 0.0
O29 O 0.14302 0.02511 1.01794 0.0
O30 O 0.04224 0.86877 0.09588 0.0
O31 O 0.17769 -0.01372 0.09795 0.0
H32 H 0.10766 0.08568 0.19696 0.0
H33 H 0.0988 0.14707 0.25084 0.0
H34 H 0.32113 0.39165 0.14792 0.0
H35 H 0.33039 0.3308 0.09414 0.0
H36 H 1.00842 0.9027 0.90713 0.0
H37 H 1.01756 0.84098 0.85364 0.0
H38 H 0.788 0.59813 0.95188 0.0
H39 H 0.77835 0.65938 1.00512 0.0
La40 La 0.99666 0.01567 0.55739 0.0
La41 La 0.11518 0.97463 0.54327 0.0
C42 C 0.943 0.09479 0.55685 0.0
C43 C 0.93192 0.11619 0.59804 0.0
C44 C 0.94035 0.07955 0.65722 0.0
C45 C 0.92117 0.09537 0.69591 0.0
C46 C 0.89344 0.14782 0.67549 0.0
C47 C 0.88811 0.18632 0.61631 0.0
C48 C 0.90727 0.17064 0.57785 0.0
C49 C 0.93796 0.85774 0.61694 0.0
C50 C 0.94473 0.94121 0.46404 0.0
C51 C 0.16804 0.89555 0.54278 0.0
C52 C 0.17867 0.87529 0.50057 0.0
C53 C 0.19014 0.92534 0.44169 0.0
C54 C 0.21055 0.91021 0.40316 0.0
C55 C 0.21916 0.84477 0.42335 0.0
C56 C 0.20303 0.79241 0.48165 0.0
C57 C 0.18296 0.80761 0.52002 0.0
C58 C 0.17364 0.13256 0.48373 0.0
C59 C 0.16723 0.04897 0.63665 0.0
O60 O 0.02593 0.1304 0.54344 0.0
O61 O 0.88978 0.01536 0.56537 0.0
O62 O 0.88884 0.88454 0.60351 0.0
O63 O 1.01948 0.92152 0.60568 0.0
O64 O 0.93338 0.98105 0.48289 0.0
O65 O 1.01252 0.93472 0.48027 0.0
O66 O 0.08521 0.85986 0.55647 0.0
O67 O 0.22184 0.97457 0.53552 0.0
O68 O 0.22293 0.10592 0.49714 0.0
O69 O 0.09228 0.06856 0.49507 0.0
O70 O 0.17823 0.00879 0.61791 0.0
O71 O 0.09965 0.05581 0.62028 0.0
H72 H 0.95935 0.03723 0.6734 0.0
H73 H 0.92523 0.06502 0.74152 0.0
H74 H 0.86663 0.22681 0.59999 0.0
H75 H 0.90048 0.19931 0.53237 0.0
H76 H 0.18648 0.97766 0.42595 0.0
H77 H 0.22326 0.95133 0.35828 0.0
H78 H 0.20983 0.74188 0.49782 0.0
H79 H 0.17394 0.76829 0.56521 0.0
Zn80 Zn 0.42824 0.71979 0.1821 0.0
Zn81 Zn 0.43007 0.64017 0.41039 0.0
Zn82 Zn 0.43242 0.68291 0.29631 0.0
C83 C 0.61228 0.75542 0.36835 0.0
C84 C 0.33781 0.49018 0.39965 0.0
O85 O 0.35819 0.74207 0.25146 0.0
O86 O 0.36568 0.77452 0.15881 0.0
C87 C 0.6097 0.78937 0.21407 0.0
O88 O 0.57547 0.75247 0.3198 0.0
O89 O 0.56434 0.71113 0.41366 0.0
O90 O 0.36217 0.51638 0.43933 0.0
O91 O 0.358 0.54267 0.34688 0.0
O92 O 0.56145 0.78434 0.17039 0.0
O93 O 0.57404 0.75841 0.26332 0.0
O94 O 0.3558 0.56466 0.28805 0.0
O95 O 0.35164 0.59879 0.19413 0.0
C96 C 0.331 0.54404 0.24462 0.0
O97 O 0.3722 0.7327 0.3096 0.0
O98 O 0.36919 0.69039 0.40419 0.0
C99 C 0.33858 0.77233 0.19919 0.0
C100 C 0.35307 0.72871 0.3551 0.0
Zn101 Zn 0.68306 0.26911 0.91843 0.0
Zn102 Zn 0.68387 0.35063 0.69024 0.0
Zn103 Zn 0.67994 0.30728 0.80435 0.0
C104 C 0.77442 0.5002 0.70126 0.0
C105 C 0.50104 0.23473 0.73185 0.0
O106 O 0.75384 0.24772 0.84949 0.0
O107 O 0.74523 0.21408 0.94223 0.0
C108 C 0.78111 0.4452 0.85664 0.0
O109 O 0.75445 0.44763 0.75402 0.0
O110 O 0.75029 0.47417 0.66152 0.0
O111 O 0.54952 0.2786 0.68684 0.0
O112 O 0.53719 0.23795 0.7805 0.0
O113 O 0.7599 0.38993 0.90694 0.0
O114 O 0.75665 0.42526 0.81291 0.0
O115 O 0.53806 0.23251 0.83694 0.0
O116 O 0.55004 0.20485 0.93013 0.0
C117 C 0.50211 0.20068 0.88629 0.0
O118 O 0.74066 0.25771 0.79119 0.0
O119 O 0.74699 0.30227 0.69655 0.0
C120 C 0.77292 0.21689 0.9018 0.0
C121 C 0.76186 0.2631 0.74578 0.0
C122 C 0.23562 0.8833 0.18378 0.0
C123 C 0.16858 0.85829 0.14252 0.0
C124 C 0.19736 0.75887 0.15424 0.0
C125 C 0.27619 0.79711 0.18524 0.0
N126 N 0.37749 0.90599 0.22216 0.0
N127 N 0.0954 0.77722 0.08266 0.0
C128 C 0.29706 0.86178 0.19844 0.0
C129 C 0.15112 0.79665 0.12654 0.0
N130 N 0.23907 0.9255 0.21044 0.0
N131 N 0.16551 0.68538 0.15187 0.0
H132 H 0.0613 0.80357 0.0593 0.0
H133 H 0.08985 0.74034 0.06548 0.0
H134 H 0.19603 0.65465 0.1728 0.0
H135 H 0.10352 0.65049 0.13465 0.0
H136 H 0.28173 0.93897 0.24418 0.0
H137 H 0.19169 0.93756 0.2037 0.0
H138 H 0.39969 0.95928 0.22734 0.0
H139 H 0.42511 0.89348 0.23225 0.0
C140 C 0.26785 0.04781 0.72114 0.0
C141 C 0.23648 0.09122 0.67532 0.0
C142 C 0.35921 0.21954 0.69251 0.0
C143 C 0.402 0.18059 0.72613 0.0
N144 N 0.39669 0.05599 0.77507 0.0
N145 N 0.25308 0.22225 0.61842 0.0
C146 C 0.35553 0.09376 0.7422 0.0
C147 C 0.28067 0.17773 0.66228 0.0
N148 N 0.2123 0.9627 0.74568 0.0
N149 N 0.39519 0.29734 0.6889 0.0
H150 H 0.19784 0.19699 0.59353 0.0
H151 H 0.29004 0.2871 0.60299 0.0
H152 H 0.45282 0.32847 0.7109 0.0
H153 H 0.36313 0.32666 0.66954 0.0
H154 H 0.22862 0.92727 0.78186 0.0
H155 H 0.1452 0.92928 0.73427 0.0
H156 H 0.3701 -0.00508 0.78252 0.0
H157 H 0.45986 0.08744 0.79247 0.0
C158 C 0.16358 0.35037 0.21369 0.0
C159 C 0.20945 0.31279 0.23567 0.0
C160 C 0.32003 0.41268 0.27995 0.0
C161 C 0.27986 0.45591 0.25299 0.0
N162 N 0.14789 0.45133 0.21277 0.0
N163 N 0.30401 0.28426 0.30777 0.0
C164 C 0.19566 0.41925 0.22637 0.0
C165 C 0.27762 0.33529 0.27588 0.0
N166 N 0.09359 0.32352 0.17784 0.0
N167 N 0.40228 0.44862 0.30448 0.0
H168 H 0.27352 0.2277 0.30414 0.0
H169 H 0.34836 0.29362 0.3414 0.0
H170 H 0.43777 0.50675 0.30679 0.0
H171 H 0.43846 0.42328 0.31922 0.0
H172 H 0.06387 0.35448 0.15481 0.0
H173 H 0.06725 0.27092 0.16996 0.0
H174 H 0.08304 0.42389 0.19688 0.0
H175 H 0.17038 0.50139 0.22257 0.0
C176 C 0.769 0.10953 0.72593 0.0
C177 C 0.86283 0.15909 0.71479 0.0
C178 C 0.88939 0.25562 0.75108 0.0
C179 C 0.79546 0.21669 0.74962 0.0
N180 N 0.64361 0.10189 0.74304 0.0
N181 N 1.0146 0.27286 0.72246 0.0
C182 C 0.73441 0.14103 0.74043 0.0
C183 C 0.92403 0.22926 0.73045 0.0
N184 N 0.71358 0.03335 0.72151 0.0
N185 N 0.94468 0.31829 0.77124 0.0
H186 H 0.04117 0.25254 0.70948 0.0
H187 H 0.06307 0.32975 0.72706 0.0
H188 H 0.91975 0.33807 0.78628 0.0
H189 H 1.01327 0.3457 0.77754 0.0
H190 H 0.64528 -0.0091 0.73299 0.0
H191 H 0.73798 0.00951 0.71069 0.0
H192 H 0.59505 0.05199 0.73039 0.0
H193 H 0.61668 0.1213 0.75673 0.0
C194 C 0.81405 0.8053 0.19728 0.0
C195 C 0.87441 0.89245 0.16553 0.0
C196 C 0.76815 0.91411 0.17721 0.0
C197 C 0.70651 0.8267 0.2073 0.0
N198 N 0.67768 0.69123 0.25741 0.0
N199 N 0.92 0.03198 0.13819 0.0
C200 C 0.73215 0.7731 0.22135 0.0
C201 C 0.85482 0.94757 0.15958 0.0
N202 N 0.83335 0.75298 0.20229 0.0
N203 N 0.74253 0.96482 0.16414 0.0
H204 H 0.98407 0.05834 0.12535 0.0
H205 H 0.91382 0.07561 0.13774 0.0
H206 H 0.68221 0.943 0.17975 0.0
H207 H 0.77879 0.02732 0.13613 0.0
H208 H 0.78815 0.68806 0.21897 0.0
H209 H 0.89376 0.77482 0.18681 0.0
H210 H 0.69555 0.65022 0.2738 0.0
H211 H 0.61699 0.6657 0.27491 0.0
C212 C 0.94623 0.73269 0.67865 0.0
C213 C 0.89954 0.76611 0.63929 0.0
C214 C 0.76587 0.62183 0.65305 0.0
C215 C 0.81637 0.59033 0.68538 0.0
N216 N 0.95819 0.61645 0.72465 0.0
N217 N 0.76945 0.73876 0.57888 0.0
C218 C 0.90757 0.64594 0.6971 0.0
C219 C 0.81042 0.70958 0.62394 0.0
N220 N 0.02542 0.78223 0.70071 0.0
N221 N 0.6743 0.56767 0.65083 0.0
H222 H 0.80147 0.80132 0.55153 0.0
H223 H 0.70828 0.69969 0.56307 0.0
H224 H 0.63896 0.50292 0.67225 0.0
H225 H 0.63269 0.58738 0.63316 0.0
H226 H 0.05651 0.75926 0.73456 0.0
H227 H 0.05601 0.84519 0.68878 0.0
H228 H 0.02777 0.6552 0.7286 0.0
H229 H 0.93145 0.55329 0.74015 0.0
C230 C 0.19524 0.77381 0.36227 0.0
C231 C 0.25543 0.83542 0.38603 0.0
C232 C 0.38291 0.84962 0.36306 0.0
C233 C 0.32092 0.77614 0.35142 0.0
N234 N 0.17043 0.67332 0.33194 0.0
N235 N 0.40706 0.9382 0.40518 0.0
C236 C 0.22768 0.74074 0.34732 0.0
C237 C 0.34986 0.87675 0.38389 0.0
N238 N 0.1074 0.74674 0.35505 0.0
N239 N 0.47325 0.89256 0.35443 0.0
H240 H 0.38539 0.96181 0.41873 0.0
H241 H 0.47526 0.96365 0.41162 0.0
H242 H 0.49849 0.87349 0.33886 0.0
H243 H 0.52228 0.95049 0.35746 0.0
H244 H 0.06063 0.706 0.3345 0.0
H245 H 0.08321 0.77076 0.36587 0.0
H246 H 0.10049 0.63888 0.33329 0.0
H247 H 0.19369 0.65052 0.3188 0.0
C248 C 0.25665 0.04451 0.93763 0.0
C249 C 0.23802 0.09894 0.93483 0.0
C250 C 0.38615 0.22092 0.88721 0.0
C251 C 0.40637 0.16651 0.89258 0.0
N252 N 0.3559 0.02884 0.9104 0.0
N253 N 0.27464 0.23701 0.89569 0.0
C254 C 0.33966 0.07885 0.91377 0.0
C255 C 0.29952 0.18666 0.90574 0.0
N256 N 0.19579 0.95997 0.96443 0.0
N257 N 0.45151 0.30541 0.86661 0.0
H258 H 0.21234 0.21371 0.90943 0.0
H259 H 0.31219 0.30063 0.87024 0.0
H260 H 0.51369 0.33256 0.85011 0.0
H261 H 0.44613 0.34859 0.86782 0.0
H262 H 0.20871 0.9168 0.97422 0.0
H263 H 0.13231 0.93258 0.97894 0.0
H264 H 0.30798 0.96502 0.92004 0.0
H265 H 0.41624 0.05294 0.89327 0.0
C266 C 0.301 0.28048 0.47713 0.0
C267 C 0.21189 0.2241 0.46169 0.0
C268 C 0.20426 0.3445 0.40386 0.0
C269 C 0.29552 0.39995 0.41561 0.0
N270 N 0.43739 0.42221 0.45027 0.0
N271 N 0.08583 0.20812 0.4005 0.0
C272 C 0.3458 0.36824 0.44801 0.0
C273 C 0.16529 0.25765 0.42238 0.0
N274 N 0.34175 0.25114 0.52227 0.0
N275 N 0.15389 0.37425 0.37625 0.0
H276 H 0.05465 0.14497 0.41275 0.0
H277 H 0.05484 0.23118 0.36661 0.0
H278 H 0.18086 0.43746 0.36073 0.0
H279 H 0.0843 0.33568 0.37225 0.0
H280 H 0.4029 0.29012 0.53813 0.0
H281 H 0.30957 0.18856 0.5496 0.0
H282 H 0.4788 0.40228 0.468 0.0
H283 H 0.47295 0.48697 0.42883 0.0
C284 C 0.96017 0.19243 0.97481 0.0
C285 C 0.94335 0.13141 0.95842 0.0
C286 C 0.81504 0.12801 0.9023 0.0
C287 C 0.83547 0.19229 0.91578 0.0
N288 N 0.94533 0.30329 0.94996 0.0
N289 N 0.87362 0.0649 0.89011 0.0
C290 C 0.9139 0.23018 0.94716 0.0
C291 C 0.87665 0.10669 0.91695 0.0
N292 N 1.01524 0.21121 1.01906 0.0
N293 N 0.73481 0.0839 0.87838 0.0
H294 H 0.92104 0.05286 0.89693 0.0
H295 H 0.83126 0.05171 0.85621 0.0
H296 H 0.68714 0.09637 0.86817 0.0
H297 H 0.71285 0.03075 0.87311 0.0
H298 H 1.02027 0.24759 1.0365 0.0
H299 H 0.04923 0.18474 0.04241 0.0
H300 H 1.00704 0.33792 0.96751 0.0
H301 H 0.91479 0.33401 0.92909 0.0
C302 C 0.83167 0.81229 0.43872 0.0
C303 C 0.87578 0.89887 0.42535 0.0
C304 C 0.75834 0.89662 0.35681 0.0
C305 C 0.71144 0.80954 0.3737 0.0
N306 N 0.71779 0.69241 0.41227 0.0
N307 N 0.90112 0.02759 0.35439 0.0
C308 C 0.75374 0.77043 0.40818 0.0
C309 C 0.84532 0.94246 0.37876 0.0
N310 N 0.85873 0.7678 0.48318 0.0
N311 N 0.71823 0.93474 0.32216 0.0
H312 H 0.96776 0.06093 0.36663 0.0
H313 H 0.88572 0.06327 0.31774 0.0
H314 H 0.65611 0.90352 0.30368 0.0
H315 H 0.74467 -0.00398 0.314 0.0
H316 H 0.82183 0.70295 0.49874 0.0
H317 H 0.91335 0.79313 0.50841 0.0
H318 H 0.74953 0.66285 0.43232 0.0
H319 H 0.66057 0.6613 0.39 0.0
C320 C 0.94841 0.63742 0.88928 0.0
C321 C 0.90359 0.67601 0.86671 0.0
C322 C 0.79346 0.57721 0.82157 0.0
C323 C 0.83268 0.53316 0.84884 0.0
N324 N 0.96344 0.53607 0.89021 0.0
N325 N 0.81124 0.70648 0.79355 0.0
C326 C 0.91628 0.56881 0.87623 0.0
C327 C 0.83637 0.65455 0.82586 0.0
N328 N 1.01734 0.66297 0.92599 0.0
N329 N 0.71153 0.54209 0.79656 0.0
H330 H 0.8421 0.76302 0.79734 0.0
H331 H 0.76765 0.69782 0.75951 0.0
H332 H 0.67553 0.48393 0.7942 0.0
H333 H 0.67605 0.56813 0.78156 0.0
H334 H 0.04599 0.6311 0.94941 0.0
H335 H 0.04378 0.71531 0.93423 0.0
H336 H 0.02793 0.56285 0.90667 0.0
H337 H 0.94098 0.48623 0.88014 0.0
loop_
_geom_bond_atom_site_label_1
_geom_bond_atom_site_label_2
_geom_bond_distance
_geom_bond_site_symmetry_2
_ccdc_geom_bond_type
La0 C2 2.928 . S
La0 O20 2.521 . S
La0 O21 2.628 . S
La0 O22 2.554 1_445 S
La0 O23 2.757 1_445 S
La0 O24 2.470 . S
La0 O29 2.482 1_554 S
La0 O31 2.503 1_545 S
La1 C11 2.928 . S
La1 O23 2.482 1_556 S
La1 O25 2.503 1_565 S
La1 O26 2.521 . S
La1 O27 2.628 . S
La1 O28 2.554 1_665 S
La1 O29 2.757 1_665 S
La1 O30 2.470 1_656 S
C2 La0 2.928 . S
C2 C3 1.503 . S
C2 O20 1.261 . S
C2 O21 1.243 . S
C3 C2 1.503 . S
C3 C4 1.394 . S
C3 C8 1.373 . S
C4 C3 1.394 . S
C4 C5 1.380 . S
C4 H32 0.930 . S
C5 C4 1.380 . S
C5 C6 1.376 . S
C5 H33 0.930 . S
C6 C5 1.376 . S
C6 C7 1.370 . S
C7 C6 1.370 . S
C7 C8 1.396 . S
C7 H34 0.929 . S
C8 C3 1.373 . S
C8 C7 1.396 . S
C8 H35 0.929 . S
C9 O22 1.240 . S
C9 O23 1.289 . S
C10 O24 1.258 1_656 S
C10 O25 1.256 . S
C11 La1 2.928 . S
C11 C12 1.503 . S
C11 O26 1.261 . S
C11 O27 1.243 . S
C12 C11 1.503 . S
C12 C13 1.394 . S
C12 C17 1.373 . S
C13 C12 1.394 . S
C13 C14 1.380 . S
C13 H36 0.930 . S
C14 C13 1.380 . S
C14 C15 1.376 . S
C14 H37 0.930 . S
C15 C14 1.376 . S
C15 C16 1.370 . S
C16 C15 1.370 . S
C16 C17 1.396 . S
C16 H38 0.929 1_556 S
C17 C12 1.373 . S
C17 C16 1.396 . S
C17 H39 0.929 1_556 S
C18 O28 1.240 . S
C18 O29 1.289 . S
C19 O30 1.258 . S
C19 O31 1.256 . S
O20 La0 2.521 . S
O20 C2 1.261 . S
O21 La0 2.628 . S
O21 C2 1.243 . S
O22 La0 2.554 1_665 S
O22 C9 1.240 . S
O23 La0 2.757 1_665 S
O23 La1 2.482 1_554 S
O23 C9 1.289 . S
O24 La0 2.470 . S
O24 C10 1.258 1_454 S
O25 La1 2.503 1_545 S
O25 C10 1.256 . S
O26 La1 2.521 . S
O26 C11 1.261 . S
O27 La1 2.628 . S
O27 C11 1.243 . S
O28 La1 2.554 1_445 S
O28 C18 1.240 . S
O29 La0 2.482 1_556 S
O29 La1 2.757 1_445 S
O29 C18 1.289 . S
O30 La1 2.470 1_454 S
O30 C19 1.258 . S
O31 La0 2.503 1_565 S
O31 C19 1.256 . S
H32 C4 0.930 . S
H33 C5 0.930 . S
H34 C7 0.929 . S
H35 C8 0.929 . S
H36 C13 0.930 . S
H37 C14 0.930 . S
H38 C16 0.929 1_554 S
H39 C17 0.929 1_554 S
La40 C42 2.928 1_455 S
La40 O60 2.521 1_455 S
La40 O61 2.628 1_455 S
La40 O62 2.554 1_445 S
La40 O63 2.757 1_545 S
La40 O64 2.470 1_445 S
La40 O69 2.482 . S
La40 O71 2.503 . S
La41 C51 2.928 . S
La41 O63 2.482 . S
La41 O65 2.503 1_455 S
La41 O66 2.521 1_565 S
La41 O67 2.628 . S
La41 O68 2.554 1_565 S
La41 O69 2.757 1_565 S
La41 O70 2.470 1_565 S
C42 La40 2.928 1_655 S
C42 C43 1.503 . S
C42 O60 1.261 . S
C42 O61 1.243 . S
C43 C42 1.503 . S
C43 C44 1.394 . S
C43 C48 1.373 . S
C44 C43 1.394 . S
C44 C45 1.380 . S
C44 H72 0.930 1_545 S
C45 C44 1.380 . S
C45 C46 1.376 . S
C45 H73 0.930 . S
C46 C45 1.376 . S
C46 C47 1.370 . S
C47 C46 1.370 . S
C47 C48 1.396 . S
C47 H74 0.929 . S
C48 C43 1.373 . S
C48 C47 1.396 . S
C48 H75 0.929 . S
C49 O62 1.240 . S
C49 O63 1.289 1_655 S
C50 O64 1.258 . S
C50 O65 1.256 . S
C51 La41 2.928 . S
C51 C52 1.503 . S
C51 O66 1.261 1_565 S
C51 O67 1.243 . S
C52 C51 1.503 . S
C52 C53 1.394 1_565 S
C52 C57 1.373 . S
C53 C52 1.394 1_545 S
C53 C54 1.380 . S
C53 H76 0.930 . S
C54 C53 1.380 . S
C54 C55 1.376 1_545 S
C54 H77 0.930 . S
C55 C54 1.376 1_565 S
C55 C56 1.370 . S
C56 C55 1.370 . S
C56 C57 1.396 . S
C56 H78 0.929 . S
C57 C52 1.373 . S
C57 C56 1.396 . S
C57 H79 0.929 . S
C58 O68 1.240 . S
C58 O69 1.289 . S
C59 O70 1.258 . S
C59 O71 1.256 . S
O60 La40 2.521 1_655 S
O60 C42 1.261 . S
O61 La40 2.628 1_655 S
O61 C42 1.243 . S
O62 La40 2.554 1_665 S
O62 C49 1.240 . S
O63 La40 2.757 1_565 S
O63 La41 2.482 . S
O63 C49 1.289 1_455 S
O64 La40 2.470 1_665 S
O64 C50 1.258 . S
O65 La41 2.503 1_655 S
O65 C50 1.256 . S
O66 La41 2.521 1_545 S
O66 C51 1.261 1_545 S
O67 La41 2.628 . S
O67 C51 1.243 . S
O68 La41 2.554 1_545 S
O68 C58 1.240 . S
O69 La40 2.482 . S
O69 La41 2.757 1_545 S
O69 C58 1.289 . S
O70 La41 2.470 1_545 S
O70 C59 1.258 . S
O71 La40 2.503 . S
O71 C59 1.256 . S
H72 C44 0.930 1_565 S
H73 C45 0.930 . S
H74 C47 0.929 . S
H75 C48 0.929 . S
H76 C53 0.930 . S
H77 C54 0.930 . S
H78 C56 0.929 . S
H79 C57 0.929 . S
Zn80 O86 1.920 . S
Zn80 O92 1.898 . S
Zn80 O95 1.905 . S
Zn81 O89 1.905 . S
Zn81 O90 1.898 . S
Zn81 O98 1.920 . S
Zn82 O85 2.080 . S
Zn82 O88 2.114 . S
Zn82 O91 2.120 . S
Zn82 O93 2.120 . S
Zn82 O94 2.114 . S
Zn82 O97 2.080 . S
C83 O88 1.166 . S
C83 O89 1.182 . S
C84 O90 1.167 . S
C84 O91 1.299 . S
O85 Zn82 2.080 . S
O85 C99 1.305 . S
O86 Zn80 1.920 . S
O86 C99 1.234 . S
C87 O92 1.167 . S
C87 O93 1.299 . S
O88 Zn82 2.114 . S
O88 C83 1.166 . S
O89 Zn81 1.905 . S
O89 C83 1.182 . S
O90 Zn81 1.898 . S
O90 C84 1.167 . S
O91 Zn82 2.120 . S
O91 C84 1.299 . S
O92 Zn80 1.898 . S
O92 C87 1.167 . S
O93 Zn82 2.120 . S
O93 C87 1.299 . S
O94 Zn82 2.114 . S
O94 C96 1.166 . S
O95 Zn80 1.905 . S
O95 C96 1.182 . S
C96 O94 1.166 . S
C96 O95 1.182 . S
O97 Zn82 2.080 . S
O97 C100 1.305 . S
O98 Zn81 1.920 . S
O98 C100 1.234 . S
C99 O85 1.305 . S
C99 O86 1.234 . S
C100 O97 1.305 . S
C100 O98 1.234 . S
Zn101 O107 1.920 . S
Zn101 O113 1.898 . S
Zn101 O116 1.905 . S
Zn102 O110 1.905 . S
Zn102 O111 1.898 . S
Zn102 O119 1.920 . S
Zn103 O106 2.080 . S
Zn103 O109 2.114 . S
Zn103 O112 2.120 . S
Zn103 O114 2.120 . S
Zn103 O115 2.114 . S
Zn103 O118 2.080 . S
C104 O109 1.166 . S
C104 O110 1.182 . S
C105 O111 1.167 . S
C105 O112 1.299 . S
O106 Zn103 2.080 . S
O106 C120 1.305 . S
O107 Zn101 1.920 . S
O107 C120 1.234 . S
C108 O113 1.167 . S
C108 O114 1.299 . S
O109 Zn103 2.114 . S
O109 C104 1.166 . S
O110 Zn102 1.905 . S
O110 C104 1.182 . S
O111 Zn102 1.898 . S
O111 C105 1.167 . S
O112 Zn103 2.120 . S
O112 C105 1.299 . S
O113 Zn101 1.898 . S
O113 C108 1.167 . S
O114 Zn103 2.120 . S
O114 C108 1.299 . S
O115 Zn103 2.114 . S
O115 C117 1.166 . S
O116 Zn101 1.905 . S
O116 C117 1.182 . S
C117 O115 1.166 . S
C117 O116 1.182 . S
O118 Zn103 2.080 . S
O118 C121 1.305 . S
O119 Zn102 1.920 . S
O119 C121 1.234 . S
C120 O106 1.305 . S
C120 O107 1.234 . S
C121 O118 1.305 . S
C121 O119 1.234 . S
C122 C123 1.363 . S
C122 C128 1.379 . S
C122 N130 1.356 . S
C123 C122 1.363 . S
C123 C129 1.363 . S
C124 C125 1.363 . S
C124 C129 1.379 . S
C124 N131 1.356 . S
C125 C124 1.363 . S
C125 C128 1.363 . S
N126 C128 1.356 . S
N126 H138 0.984 . S
N126 H139 0.985 . S
N127 C129 1.356 . S
N127 H132 0.984 . S
N127 H133 0.985 . S
C128 C122 1.379 . S
C128 C125 1.363 . S
C128 N126 1.356 . S
C129 C123 1.363 . S
C129 C124 1.379 . S
C129 N127 1.356 . S
N130 C122 1.356 . S
N130 H136 0.984 . S
N130 H137 0.984 . S
N131 C124 1.356 . S
N131 H134 0.984 . S
N131 H135 0.985 . S
H132 N127 0.984 . S
H133 N127 0.985 . S
H134 N131 0.984 . S
H135 N131 0.985 . S
H136 N130 0.984 . S
H137 N130 0.984 . S
H138 N126 0.984 . S
H139 N126 0.985 . S
C140 C141 1.363 . S
C140 C146 1.379 . S
C140 N148 1.356 1_545 S
C141 C140 1.363 . S
C141 C147 1.363 . S
C142 C143 1.363 . S
C142 C147 1.379 . S
C142 N149 1.356 . S
C143 C142 1.363 . S
C143 C146 1.363 . S
N144 C146 1.356 . S
N144 H156 0.984 . S
N144 H157 0.985 . S
N145 C147 1.356 . S
N145 H150 0.984 . S
N145 H151 0.985 . S
C146 C140 1.379 . S
C146 C143 1.363 . S
C146 N144 1.356 . S
C147 C141 1.363 . S
C147 C142 1.379 . S
C147 N145 1.356 . S
N148 C140 1.356 1_565 S
N148 H154 0.984 . S
N148 H155 0.984 . S
N149 C142 1.356 . S
N149 H152 0.984 . S
N149 H153 0.985 . S
H150 N145 0.984 . S
H151 N145 0.985 . S
H152 N149 0.984 . S
H153 N149 0.985 . S
H154 N148 0.984 . S
H155 N148 0.984 . S
H156 N144 0.984 . S
H157 N144 0.985 . S
C158 C159 1.363 . S
C158 C164 1.379 . S
C158 N166 1.356 . S
C159 C158 1.363 . S
C159 C165 1.363 . S
C160 C161 1.363 . S
C160 C165 1.379 . S
C160 N167 1.356 . S
C161 C160 1.363 . S
C161 C164 1.363 . S
N162 C164 1.356 . S
N162 H174 0.984 . S
N162 H175 0.985 . S
N163 C165 1.356 . S
N163 H168 0.984 . S
N163 H169 0.985 . S
C164 C158 1.379 . S
C164 C161 1.363 . S
C164 N162 1.356 . S
C165 C159 1.363 . S
C165 C160 1.379 . S
C165 N163 1.356 . S
N166 C158 1.356 . S
N166 H172 0.984 . S
N166 H173 0.984 . S
N167 C160 1.356 . S
N167 H170 0.984 . S
N167 H171 0.985 . S
H168 N163 0.984 . S
H169 N163 0.985 . S
H170 N167 0.984 . S
H171 N167 0.985 . S
H172 N166 0.984 . S
H173 N166 0.984 . S
H174 N162 0.984 . S
H175 N162 0.985 . S
C176 C177 1.363 . S
C176 C182 1.379 . S
C176 N184 1.356 . S
C177 C176 1.363 . S
C177 C183 1.363 . S
C178 C179 1.363 . S
C178 C183 1.379 . S
C178 N185 1.356 . S
C179 C178 1.363 . S
C179 C182 1.363 . S
N180 C182 1.356 . S
N180 H192 0.984 . S
N180 H193 0.985 . S
N181 C183 1.356 . S
N181 H186 0.984 . S
N181 H187 0.985 . S
C182 C176 1.379 . S
C182 C179 1.363 . S
C182 N180 1.356 . S
C183 C177 1.363 . S
C183 C178 1.379 . S
C183 N181 1.356 . S
N184 C176 1.356 . S
N184 H190 0.984 1_545 S
N184 H191 0.984 . S
N185 C178 1.356 . S
N185 H188 0.984 . S
N185 H189 0.985 . S
H186 N181 0.984 . S
H187 N181 0.985 . S
H188 N185 0.984 . S
H189 N185 0.985 . S
H190 N184 0.984 1_565 S
H191 N184 0.984 . S
H192 N180 0.984 . S
H193 N180 0.985 . S
C194 C195 1.363 . S
C194 C200 1.379 . S
C194 N202 1.356 . S
C195 C194 1.363 . S
C195 C201 1.363 . S
C196 C197 1.363 . S
C196 C201 1.379 . S
C196 N203 1.356 . S
C197 C196 1.363 . S
C197 C200 1.363 . S
N198 C200 1.356 . S
N198 H210 0.984 . S
N198 H211 0.985 . S
N199 C201 1.356 1_545 S
N199 H204 0.980 1_545 S
N199 H205 0.989 . S
C200 C194 1.379 . S
C200 C197 1.363 . S
C200 N198 1.356 . S
C201 C195 1.363 . S
C201 C196 1.379 . S
C201 N199 1.356 1_565 S
N202 C194 1.356 . S
N202 H208 0.984 . S
N202 H209 0.984 . S
N203 C196 1.356 . S
N203 H206 0.984 . S
N203 H207 0.985 1_565 S
H204 N199 0.980 1_565 S
H205 N199 0.989 . S
H206 N203 0.984 . S
H207 N203 0.985 1_545 S
H208 N202 0.984 . S
H209 N202 0.984 . S
H210 N198 0.984 . S
H211 N198 0.985 . S
C212 C213 1.363 . S
C212 C218 1.379 . S
C212 N220 1.356 . S
C213 C212 1.363 . S
C213 C219 1.363 . S
C214 C215 1.363 . S
C214 C219 1.379 . S
C214 N221 1.356 . S
C215 C214 1.363 . S
C215 C218 1.363 . S
N216 C218 1.356 . S
N216 H228 0.984 . S
N216 H229 0.985 . S
N217 C219 1.356 . S
N217 H222 0.984 . S
N217 H223 0.985 . S
C218 C212 1.379 . S
C218 C215 1.363 . S
C218 N216 1.356 . S
C219 C213 1.363 . S
C219 C214 1.379 . S
C219 N217 1.356 . S
N220 C212 1.356 . S
N220 H226 0.984 . S
N220 H227 0.984 . S
N221 C214 1.356 . S
N221 H224 0.984 . S
N221 H225 0.985 . S
H222 N217 0.984 . S
H223 N217 0.985 . S
H224 N221 0.984 . S
H225 N221 0.985 . S
H226 N220 0.984 . S
H227 N220 0.984 . S
H228 N216 0.984 . S
H229 N216 0.985 . S
C230 C231 1.363 . S
C230 C236 1.379 . S
C230 N238 1.356 . S
C231 C230 1.363 . S
C231 C237 1.363 . S
C232 C233 1.363 . S
C232 C237 1.379 . S
C232 N239 1.356 . S
C233 C232 1.363 . S
C233 C236 1.363 . S
N234 C236 1.356 . S
N234 H246 0.984 . S
N234 H247 0.985 . S
N235 C237 1.356 . S
N235 H240 0.984 1_565 S
N235 H241 0.985 1_565 S
C236 C230 1.379 . S
C236 C233 1.363 . S
C236 N234 1.356 . S
C237 C231 1.363 . S
C237 C232 1.379 . S
C237 N235 1.356 . S
N238 C230 1.356 . S
N238 H244 0.984 . S
N238 H245 0.984 . S
N239 C232 1.356 . S
N239 H242 0.984 . S
N239 H243 0.985 . S
H240 N235 0.984 1_545 S
H241 N235 0.985 1_545 S
H242 N239 0.984 . S
H243 N239 0.985 . S
H244 N238 0.984 . S
H245 N238 0.984 . S
H246 N234 0.984 . S
H247 N234 0.985 . S
C248 C249 1.363 . S
C248 C254 1.379 . S
C248 N256 1.356 . S
C249 C248 1.363 . S
C249 C255 1.363 . S
C250 C251 1.363 . S
C250 C255 1.379 . S
C250 N257 1.356 . S
C251 C250 1.363 . S
C251 C254 1.363 . S
N252 C254 1.356 . S
N252 H264 0.984 . S
N252 H265 0.985 . S
N253 C255 1.356 . S
N253 H258 0.984 . S
N253 H259 0.985 . S
C254 C248 1.379 . S
C254 C251 1.363 . S
C254 N252 1.356 . S
C255 C249 1.363 . S
C255 C250 1.379 . S
C255 N253 1.356 . S
N256 C248 1.356 . S
N256 H262 0.984 1_545 S
N256 H263 0.984 . S
N257 C250 1.356 . S
N257 H260 0.984 . S
N257 H261 0.985 . S
H258 N253 0.984 . S
H259 N253 0.985 . S
H260 N257 0.984 . S
H261 N257 0.985 . S
H262 N256 0.984 1_565 S
H263 N256 0.984 . S
H264 N252 0.984 . S
H265 N252 0.985 . S
C266 C267 1.363 . S
C266 C272 1.379 . S
C266 N274 1.356 . S
C267 C266 1.363 . S
C267 C273 1.363 . S
C268 C269 1.363 . S
C268 C273 1.379 . S
C268 N275 1.356 . S
C269 C268 1.363 . S
C269 C272 1.363 . S
N270 C272 1.356 . S
N270 H282 0.984 . S
N270 H283 0.985 . S
N271 C273 1.356 . S
N271 H276 0.984 . S
N271 H277 0.985 . S
C272 C266 1.379 . S
C272 C269 1.363 . S
C272 N270 1.356 . S
C273 C267 1.363 . S
C273 C268 1.379 . S
C273 N271 1.356 . S
N274 C266 1.356 . S
N274 H280 0.984 . S
N274 H281 0.984 . S
N275 C268 1.356 . S
N275 H278 0.984 . S
N275 H279 0.985 . S
H276 N271 0.984 . S
H277 N271 0.985 . S
H278 N275 0.984 . S
H279 N275 0.985 . S
H280 N274 0.984 . S
H281 N274 0.984 . S
H282 N270 0.984 . S
H283 N270 0.985 . S
C284 C285 1.363 . S
C284 C290 1.379 . S
C284 N292 1.356 . S
C285 C284 1.363 . S
C285 C291 1.363 . S
C286 C287 1.363 . S
C286 C291 1.379 . S
C286 N293 1.356 . S
C287 C286 1.363 . S
C287 C290 1.363 . S
N288 C290 1.356 . S
N288 H300 0.984 . S
N288 H301 0.985 . S
N289 C291 1.356 . S
N289 H294 0.984 . S
N289 H295 0.985 . S
C290 C284 1.379 . S
C290 C287 1.363 . S
C290 N288 1.356 . S
C291 C285 1.363 . S
C291 C286 1.379 . S
C291 N289 1.356 . S
N292 C284 1.356 . S
N292 H298 0.985 1_556 S
N292 H299 0.984 . S
N293 C286 1.356 . S
N293 H296 0.984 . S
N293 H297 0.985 . S
H294 N289 0.984 . S
H295 N289 0.985 . S
H296 N293 0.984 . S
H297 N293 0.985 . S
H298 N292 0.985 1_554 S
H299 N292 0.984 . S
H300 N288 0.984 . S
H301 N288 0.985 . S
C302 C303 1.363 . S
C302 C308 1.379 . S
C302 N310 1.356 . S
C303 C302 1.363 . S
C303 C309 1.363 . S
C304 C305 1.363 . S
C304 C309 1.379 . S
C304 N311 1.356 . S
C305 C304 1.363 . S
C305 C308 1.363 . S
N306 C308 1.356 . S
N306 H318 0.984 . S
N306 H319 0.985 . S
N307 C309 1.356 . S
N307 H312 0.984 1_565 S
N307 H313 0.985 1_565 S
C308 C302 1.379 . S
C308 C305 1.363 . S
C308 N306 1.356 . S
C309 C303 1.363 . S
C309 C304 1.379 . S
C309 N307 1.356 . S
N310 C302 1.356 . S
N310 H316 0.984 . S
N310 H317 0.984 . S
N311 C304 1.356 . S
N311 H314 0.984 . S
N311 H315 0.985 . S
H312 N307 0.984 1_545 S
H313 N307 0.985 1_545 S
H314 N311 0.984 . S
H315 N311 0.985 . S
H316 N310 0.984 . S
H317 N310 0.984 . S
H318 N306 0.984 . S
H319 N306 0.985 . S
C320 C321 1.363 . S
C320 C326 1.379 . S
C320 N328 1.356 . S
C321 C320 1.363 . S
C321 C327 1.363 . S
C322 C323 1.363 . S
C322 C327 1.379 . S
C322 N329 1.356 . S
C323 C322 1.363 . S
C323 C326 1.363 . S
N324 C326 1.356 . S
N324 H336 0.984 . S
N324 H337 0.985 . S
N325 C327 1.356 . S
N325 H330 0.984 . S
N325 H331 0.985 . S
C326 C320 1.379 . S
C326 C323 1.363 . S
C326 N324 1.356 . S
C327 C321 1.363 . S
C327 C322 1.379 . S
C327 N325 1.356 . S
N328 C320 1.356 . S
N328 H334 0.984 1_556 S
N328 H335 0.984 1_556 S
N329 C322 1.356 . S
N329 H332 0.984 . S
N329 H333 0.985 . S
H330 N325 0.984 . S
H331 N325 0.985 . S
H332 N329 0.984 . S
H333 N329 0.985 . S
H334 N328 0.984 1_554 S
H335 N328 0.984 1_554 S
H336 N324 0.984 . S
H337 N324 0.985 . S
C123 C19 1.889 . S
C125 C99 1.909 . S
C141 C59 1.294 . S
C143 C105 1.224 . S
C159 C6 1.101 . S
C161 C96 0.965 . S
C177 C46 1.646 . S
C179 C121 1.474 . S
C195 C9 2.162 . S
C197 C87 2.063 . S
C215 C104 2.323 . S
C213 C49 2.367 . S
C231 C55 1.417 . S
C233 C100 1.323 . S
C251 C117 1.741 . S
C249 C18 1.777 . S
C269 C84 2.106 . S
C267 C58 2.173 . S
C287 C120 2.193 . S
C285 C10 2.155 . S
C305 C83 1.569 . S
C303 C50 1.621 . S
C323 C108 0.932 . S
C321 C15 1.068 . S
