# Generated by pormake.
# Topology pyr, (3,6)-cn, num edge types: 1
# Building blocks:
#     Node 0, Type 0, BuildingBlock: OLANEW_clean_sbu_2, # of connection points: 3
#     Node 1, Type 0, BuildingBlock: OLANEW_clean_sbu_2, # of connection points: 3
#     Node 2, Type 0, BuildingBlock: OLANEW_clean_sbu_2, # of connection points: 3
#     Node 3, Type 0, BuildingBlock: OLANEW_clean_sbu_2, # of connection points: 3
#     Node 4, Type 0, BuildingBlock: OLANEW_clean_sbu_2, # of connection points: 3
#     Node 5, Type 0, BuildingBlock: OLANEW_clean_sbu_2, # of connection points: 3
#     Node 6, Type 0, BuildingBlock: OLANEW_clean_sbu_2, # of connection points: 3
#     Node 7, Type 0, BuildingBlock: OLANEW_clean_sbu_2, # of connection points: 3
#     Node 8, Type 1, BuildingBlock: INOVEN_clean_sbu_0, # of connection points: 6
#     Node 9, Type 1, BuildingBlock: INOVEN_clean_sbu_0, # of connection points: 6
#     Node 10, Type 1, BuildingBlock: INOVEN_clean_sbu_0, # of connection points: 6
#     Node 11, Type 1, BuildingBlock: INOVEN_clean_sbu_0, # of connection points: 6
#     Edge 12, Type (0, 1), BuildingBlock: KIFKEQ_clean_linker_1, # of connection points: 2
#     Edge 13, Type (0, 1), BuildingBlock: KIFKEQ_clean_linker_1, # of connection points: 2
#     Edge 14, Type (0, 1), BuildingBlock: KIFKEQ_clean_linker_1, # of connection points: 2
#     Edge 15, Type (0, 1), BuildingBlock: KIFKEQ_clean_linker_1, # of connection points: 2
#     Edge 16, Type (0, 1), BuildingBlock: KIFKEQ_clean_linker_1, # of connection points: 2
#     Edge 17, Type (0, 1), BuildingBlock: KIFKEQ_clean_linker_1, # of connection points: 2
#     Edge 18, Type (0, 1), BuildingBlock: KIFKEQ_clean_linker_1, # of connection points: 2
#     Edge 19, Type (0, 1), BuildingBlock: KIFKEQ_clean_linker_1, # of connection points: 2
#     Edge 20, Type (0, 1), BuildingBlock: KIFKEQ_clean_linker_1, # of connection points: 2
#     Edge 21, Type (0, 1), BuildingBlock: KIFKEQ_clean_linker_1, # of connection points: 2
#     Edge 22, Type (0, 1), BuildingBlock: KIFKEQ_clean_linker_1, # of connection points: 2
#     Edge 23, Type (0, 1), BuildingBlock: KIFKEQ_clean_linker_1, # of connection points: 2
#     Edge 24, Type (0, 1), BuildingBlock: KIFKEQ_clean_linker_1, # of connection points: 2
#     Edge 25, Type (0, 1), BuildingBlock: KIFKEQ_clean_linker_1, # of connection points: 2
#     Edge 26, Type (0, 1), BuildingBlock: KIFKEQ_clean_linker_1, # of connection points: 2
#     Edge 27, Type (0, 1), BuildingBlock: KIFKEQ_clean_linker_1, # of connection points: 2
#     Edge 28, Type (0, 1), BuildingBlock: KIFKEQ_clean_linker_1, # of connection points: 2
#     Edge 29, Type (0, 1), BuildingBlock: KIFKEQ_clean_linker_1, # of connection points: 2
#     Edge 30, Type (0, 1), BuildingBlock: KIFKEQ_clean_linker_1, # of connection points: 2
#     Edge 31, Type (0, 1), BuildingBlock: KIFKEQ_clean_linker_1, # of connection points: 2
#     Edge 32, Type (0, 1), BuildingBlock: KIFKEQ_clean_linker_1, # of connection points: 2
#     Edge 33, Type (0, 1), BuildingBlock: KIFKEQ_clean_linker_1, # of connection points: 2
#     Edge 34, Type (0, 1), BuildingBlock: KIFKEQ_clean_linker_1, # of connection points: 2
#     Edge 35, Type (0, 1), BuildingBlock: KIFKEQ_clean_linker_1, # of connection points: 2
# Relax obj value: 0.121
# Max RMSD: 0.167
# Mean RMSD: 0.121
data_MOF--net-pyr--node1-OLANEW_clean_sbu_2--node2-INOVEN_clean_sbu_0--edge1-KIFKEQ_clean_linker_1
_symmetry_space_group_name_H-M    P1
_symmetry_Int_Tables_number       1
_symmetry_cell_setting            triclinic
loop_
_symmetry_equiv_pos_as_xyz
'x, y, z'
_cell_length_a     41.351047
_cell_length_b     45.888899
_cell_length_c     40.22828
_cell_angle_alpha  96.229752
_cell_angle_beta   87.80886
_cell_angle_gamma 103.33303
loop_
_atom_site_label
_atom_site_type_symbol
_atom_site_fract_x
_atom_site_fract_y
_atom_site_fract_z
_atom_type_partial_charge
O0 O 0.37376 0.2815 0.17886 0.0
Cd1 Cd 0.35673 0.32569 0.20965 0.0
O2 O 0.3565 0.26481 0.22625 0.0
Cd3 Cd 0.33952 0.23802 0.26756 0.0
O4 O 0.30456 0.23101 0.30924 0.0
C5 C 0.31245 0.22629 0.33804 0.0
O6 O 0.34298 0.22432 0.34335 0.0
C7 C 0.36966 0.2603 0.19763 0.0
C8 C 0.30493 0.34894 0.18783 0.0
O9 O 0.33542 0.36138 0.18208 0.0
O10 O 0.29878 0.32484 0.20264 0.0
O11 O 0.29438 0.89098 0.66441 0.0
Cd12 Cd 0.27097 0.87052 0.61001 0.0
O13 O 0.25374 0.85837 0.68502 0.0
Cd14 Cd 0.21727 0.84223 0.72317 0.0
O15 O 0.17795 0.86058 0.70523 0.0
C16 C 0.18524 0.88895 0.70433 0.0
O17 O 0.2133 0.90472 0.7175 0.0
C18 C 0.27979 0.87923 0.68966 0.0
C19 C 0.3031 0.82496 0.59038 0.0
O20 O 0.31563 0.85216 0.5844 0.0
O21 O 0.27413 0.81883 0.60403 0.0
O22 O 0.72415 0.40359 0.85513 0.0
Cd23 Cd 0.67757 0.3906 0.81183 0.0
O24 O 0.71054 0.36515 0.88569 0.0
Cd25 Cd 0.69017 0.32314 0.91293 0.0
O26 O 0.65696 0.27875 0.92761 0.0
C27 C 0.6558 0.26997 0.95689 0.0
O28 O 0.67484 0.28733 0.98 0.0
C29 C 0.73091 0.38982 0.87934 0.0
C30 C 0.65595 0.42649 0.766 0.0
O31 O 0.64111 0.4216 0.79414 0.0
O32 O 0.68234 0.41643 0.76014 0.0
O33 O 0.9237 0.74723 0.36873 0.0
Cd34 Cd 0.9003 0.69742 0.33602 0.0
O35 O 0.89094 0.73354 0.41164 0.0
Cd36 Cd 0.86238 0.68904 0.39272 0.0
O37 O 0.81583 0.65896 0.40689 0.0
C38 C 0.80348 0.66849 0.43424 0.0
O39 O 0.81955 0.69388 0.45029 0.0
C40 C 0.91329 0.75306 0.39852 0.0
C41 C 0.93014 0.67082 0.2793 0.0
O42 O 0.91142 0.68905 0.27608 0.0
O43 O 0.93645 0.66659 0.30916 0.0
O44 O 0.69619 0.74697 0.78084 0.0
Cd45 Cd 0.66707 0.70714 0.81364 0.0
O46 O 0.68117 0.77803 0.82025 0.0
Cd47 Cd 0.67515 0.82042 0.8475 0.0
O48 O 0.65321 0.85114 0.88189 0.0
C49 C 0.6277 0.85934 0.8732 0.0
O50 O 0.6157 0.84996 0.84315 0.0
C51 C 0.69727 0.77381 0.79326 0.0
C52 C 0.71462 0.68495 0.84375 0.0
O53 O 0.70075 0.67152 0.81657 0.0
O54 O 0.70546 0.70847 0.85705 0.0
O55 O 0.72145 0.16223 0.4501 0.0
Cd56 Cd 0.74876 0.17408 0.50349 0.0
O57 O 0.76422 0.19491 0.43284 0.0
Cd58 Cd 0.78267 0.23297 0.40429 0.0
O59 O 0.76608 0.2731 0.42493 0.0
C60 C 0.74259 0.26778 0.44639 0.0
O61 O 0.731 0.24003 0.45351 0.0
C62 C 0.73619 0.17705 0.42695 0.0
C63 C 0.80305 0.14842 0.50049 0.0
O64 O 0.77381 0.13352 0.50739 0.0
O65 O 0.80696 0.17612 0.49536 0.0
O66 O 0.42051 0.78264 0.23449 0.0
Cd67 Cd 0.40974 0.73116 0.26134 0.0
O68 O 0.37773 0.77419 0.19963 0.0
Cd69 Cd 0.34111 0.73004 0.19816 0.0
O70 O 0.29441 0.69732 0.18048 0.0
C71 C 0.28757 0.69369 0.14942 0.0
O72 O 0.30878 0.70883 0.12882 0.0
C73 C 0.40426 0.79148 0.21213 0.0
C74 C 0.43555 0.70282 0.31349 0.0
O75 O 0.44838 0.70333 0.28389 0.0
O76 O 0.41253 0.71737 0.31956 0.0
O77 O 0.17022 0.42683 0.75446 0.0
Cd78 Cd 0.19337 0.40373 0.70267 0.0
O79 O 0.13439 0.38521 0.76638 0.0
Cd80 Cd 0.14186 0.35089 0.72562 0.0
O81 O 0.1318 0.30517 0.6982 0.0
C82 C 0.10893 0.28511 0.70996 0.0
O83 O 0.09285 0.29275 0.73711 0.0
C84 C 0.14738 0.41318 0.77331 0.0
C85 C 0.25373 0.4336 0.67329 0.0
O86 O 0.22586 0.43928 0.66663 0.0
O87 O 0.2534 0.41486 0.69481 0.0
Gd88 Gd 0.0211 0.02333 0.53542 0.0
Gd89 Gd 0.99192 1.00492 0.60119 0.0
C90 C 0.03779 0.07038 0.60241 0.0
C91 C 0.0425 0.05262 0.48504 0.0
C92 C 0.06947 0.07914 0.48049 0.0
C93 C 0.10287 0.07861 0.48498 0.0
C94 C 0.06176 0.10546 0.47164 0.0
C95 C 0.12052 0.12945 0.46899 0.0
C96 C 0.08706 0.13045 0.46599 0.0
C97 C 0.12815 0.10354 0.47923 0.0
C98 C 0.05695 0.99398 0.56839 0.0
C99 C 0.97637 0.95836 0.53238 0.0
C100 C 0.96942 0.97839 0.65365 0.0
C101 C 0.93893 0.95729 0.66393 0.0
C102 C 0.90779 0.9649 0.66501 0.0
C103 C 0.94121 0.92967 0.67438 0.0
C104 C 0.88214 0.9182 0.68843 0.0
C105 C 0.91311 0.91029 0.68646 0.0
C106 C 0.87969 0.94553 0.67715 0.0
C107 C 0.95677 0.03517 0.56871 0.0
O108 O 0.03409 0.06662 0.56967 0.0
O109 O 0.02863 0.0473 0.62044 0.0
O110 O 0.05129 0.02794 0.4905 0.0
O111 O 0.01741 0.05765 0.5038 0.0
O112 O 0.05407 0.99051 0.53623 0.0
O113 O 0.0428 0.01389 0.58154 0.0
O114 O 0.97933 0.96151 0.56543 0.0
O115 O 0.98554 0.9817 0.51501 0.0
O116 O 0.96669 1.00547 0.6491 0.0
O117 O 0.98869 0.96772 0.6313 0.0
O118 O 0.95959 0.03805 0.6008 0.0
O119 O 0.9703 0.01485 0.55553 0.0
H120 H 0.10962 0.05876 0.4922 0.0
H121 H 0.03615 0.10651 0.4685 0.0
H122 H 0.08052 0.15026 0.45841 0.0
H123 H 0.15373 0.10197 0.48128 0.0
H124 H 0.90516 0.98605 0.65711 0.0
H125 H 0.96489 0.92329 0.67371 0.0
H126 H 0.91567 0.88917 0.6945 0.0
H127 H 0.85625 0.95237 0.67863 0.0
Gd128 Gd 0.51756 0.04675 0.09279 0.0
Gd129 Gd 0.45801 0.02852 0.05032 0.0
C130 C 0.45325 0.07468 0.1125 0.0
C131 C 0.57201 0.07929 0.11797 0.0
C132 C 0.58475 0.09312 0.15088 0.0
C133 C 0.58054 0.07676 0.17887 0.0
C134 C 0.60151 0.12349 0.15422 0.0
C135 C 0.61186 0.12069 0.2127 0.0
C136 C 0.61482 0.13721 0.18485 0.0
C137 C 0.59412 0.09041 0.20951 0.0
C138 C 0.47841 0.99945 0.12173 0.0
C139 C 0.52018 0.99856 0.02915 0.0
C140 C 0.40799 1.00192 0.01292 0.0
C141 C 0.40172 0.98716 0.9785 0.0
C142 C 0.40505 1.00416 0.95097 0.0
C143 C 0.38986 0.95582 0.97328 0.0
C144 C 0.3825 0.95892 0.91418 0.0
C145 C 0.3804 0.94182 0.94144 0.0
C146 C 0.3956 0.99015 0.91912 0.0
C147 C 0.50182 0.07979 0.0343 0.0
O148 O 0.4858 0.07866 0.1139 0.0
O149 O 0.4354 0.05197 0.09351 0.0
O150 O 0.56633 0.04988 0.11236 0.0
O151 O 0.5491 0.09066 0.10614 0.0
O152 O 0.50602 0.01603 0.13353 0.0
O153 O 0.47092 0.01 0.09568 0.0
O154 O 0.48936 0.9995 0.02315 0.0
O155 O 0.53732 0.01617 0.05365 0.0
O156 O 0.41971 0.031 0.01636 0.0
O157 O 0.42126 0.98805 0.03359 0.0
O158 O 0.46984 0.07593 0.0346 0.0
O159 O 0.50902 0.05596 0.04166 0.0
H160 H 0.56728 0.05336 0.17698 0.0
H161 H 0.60457 0.13655 0.13295 0.0
H162 H 0.6277 0.16071 0.18663 0.0
H163 H 0.59161 0.07695 0.23036 0.0
H164 H 0.414 0.02839 0.9541 0.0
H165 H 0.38703 0.94218 0.99403 0.0
H166 H 0.37078 0.91766 0.93827 0.0
H167 H 0.3972 1.00396 0.89866 0.0
Gd168 Gd 0.52469 0.52079 0.51234 0.0
Gd169 Gd 0.52198 0.57049 0.56319 0.0
C170 C 0.55244 0.51985 0.58786 0.0
C171 C 0.54202 0.47707 0.47587 0.0
C172 C 0.5648 0.45789 0.48195 0.0
C173 C 0.55316 0.4265 0.47934 0.0
C174 C 0.59785 0.47061 0.49148 0.0
C175 C 0.6078 0.42076 0.49335 0.0
C176 C 0.61921 0.45216 0.49687 0.0
C177 C 0.57446 0.40804 0.48517 0.0
C178 C 0.46503 0.5157 0.54422 0.0
C179 C 0.49909 0.5746 0.4863 0.0
C180 C 0.50304 0.61153 0.60249 0.0
C181 C 0.48289 0.63312 0.59761 0.0
C182 C 0.49559 0.66379 0.607 0.0
C183 C 0.45143 0.62355 0.5829 0.0
C184 C 0.44479 0.67506 0.58888 0.0
C185 C 0.43246 0.64432 0.5788 0.0
C186 C 0.47682 0.68463 0.60247 0.0
C187 C 0.58261 0.57454 0.53476 0.0
O188 O 0.55488 0.51141 0.55539 0.0
O189 O 0.53645 0.54098 0.59814 0.0
O190 O 0.51484 0.47339 0.49409 0.0
O191 O 0.55551 0.5054 0.47275 0.0
O192 O 0.46832 0.50984 0.51212 0.0
O193 O 0.49319 0.5239 0.55743 0.0
O194 O 0.49727 0.58368 0.51867 0.0
O195 O 0.5114 0.55084 0.47646 0.0
O196 O 0.53211 0.61608 0.58748 0.0
O197 O 0.4874 0.58315 0.60031 0.0
O198 O 0.57757 0.58143 0.56638 0.0
O199 O 0.55539 0.56692 0.51942 0.0
H200 H 0.52767 0.41626 0.47246 0.0
H201 H 0.60737 0.49479 0.49444 0.0
H202 H 0.64481 0.46239 0.50335 0.0
H203 H 0.56525 0.38383 0.48205 0.0
H204 H 0.52005 0.67162 0.61784 0.0
H205 H 0.44125 0.60001 0.57487 0.0
H206 H 0.40782 0.63613 0.56852 0.0
H207 H 0.48739 0.70824 0.60973 0.0
Gd208 Gd 0.02064 0.49883 0.03525 0.0
Gd209 Gd 0.00911 0.55686 0.00613 0.0
C210 C 0.07326 0.56391 0.04999 0.0
C211 C 0.04762 0.45444 0.04173 0.0
C212 C 0.0745 0.44805 0.06117 0.0
C213 C 0.07344 0.449 0.0963 0.0
C214 C 0.10181 0.44023 0.0437 0.0
C215 C 0.12545 0.43231 0.09555 0.0
C216 C 0.12695 0.43252 0.06063 0.0
C217 C 0.09881 0.44127 0.11337 0.0
C218 C 0.99677 0.53566 0.08373 0.0
C219 C 0.95124 0.49321 0.99658 0.0
C220 C 0.98728 0.60089 0.98796 0.0
C221 C 0.95796 0.60554 0.9714 0.0
C222 C 0.96215 0.61764 0.94055 0.0
C223 C 0.92613 0.59902 0.98623 0.0
C224 C 0.90351 0.61809 0.94025 0.0
C225 C 0.89915 0.60528 0.97079 0.0
C226 C 0.9352 0.62376 0.92506 0.0
C227 C 0.04723 0.52458 0.96884 0.0
O228 O 0.069 0.53421 0.04457 0.0
O229 O 0.05076 0.57801 0.04151 0.0
O230 O 0.01988 0.45751 0.05734 0.0
O231 O 0.05742 0.47353 0.01937 0.0
O232 O 0.00505 0.51107 0.08959 0.0
O233 O 1.0018 0.53807 0.05315 0.0
O234 O 0.9605 0.5227 0.99413 0.0
O235 O 0.97069 0.4784 0.01029 0.0
O236 O 0.00696 0.5872 0.96919 0.0
O237 O 0.9832 0.5926 0.01832 0.0
O238 O 0.05341 0.55381 0.97241 0.0
O239 O 0.02093 0.51397 0.98478 0.0
H240 H 0.05285 0.45521 0.11053 0.0
H241 H 0.10346 0.4396 0.01669 0.0
H242 H 0.14744 0.42624 0.04627 0.0
H243 H 0.09699 0.44128 0.1403 0.0
H244 H 0.98644 0.62274 0.92857 0.0
H245 H 0.9221 0.58959 0.00999 0.0
H246 H 0.87511 0.60092 0.98327 0.0
H247 H 0.93923 0.63315 0.90127 0.0
H248 H 0.25495 0.24581 0.3434 0.0
H249 H 0.31178 0.19509 0.3921 0.0
H250 H 0.20912 0.23202 0.38266 0.0
H251 H 0.26532 0.17967 0.43011 0.0
H252 H 0.18017 0.15579 0.4988 0.0
H253 H 0.22807 0.18811 0.47359 0.0
H254 H 0.16933 0.18772 0.38671 0.0
H255 H 0.12183 0.15659 0.41228 0.0
C256 C 0.25765 0.23179 0.36265 0.0
C257 C 0.28663 0.22103 0.36439 0.0
C258 C 0.23135 0.22379 0.38508 0.0
C259 C 0.23314 0.2042 0.40918 0.0
C260 C 0.26303 0.195 0.41215 0.0
C261 C 0.28964 0.20359 0.39015 0.0
C262 C 0.1775 0.16329 0.47464 0.0
C263 C 0.14743 0.15352 0.45735 0.0
C264 C 0.20492 0.18165 0.46011 0.0
C265 C 0.20282 0.19023 0.42786 0.0
C266 C 0.17196 0.18205 0.41174 0.0
C267 C 0.14457 0.16404 0.42639 0.0
H268 H 0.31586 0.93518 0.71036 0.0
H269 H 0.27427 0.84821 0.74465 0.0
H270 H 0.34116 0.95297 0.76462 0.0
H271 H 0.30033 0.86562 0.79879 0.0
H272 H 0.32379 0.91819 0.90221 0.0
H273 H 0.29843 0.89824 0.84846 0.0
H274 H 0.38487 0.94739 0.79803 0.0
H275 H 0.40985 0.96788 0.85202 0.0
C276 C 0.31204 0.9199 0.72961 0.0
C277 C 0.29271 0.89047 0.72346 0.0
C278 C 0.32683 0.92997 0.76062 0.0
C279 C 0.32305 0.91067 0.78607 0.0
C280 C 0.30339 0.88125 0.77996 0.0
C281 C 0.28828 0.87128 0.74899 0.0
C282 C 0.33758 0.92437 0.87962 0.0
C283 C 0.36876 0.94468 0.88131 0.0
C284 C 0.32303 0.91292 0.84876 0.0
C285 C 0.33942 0.9214 0.81885 0.0
C286 C 0.37116 0.94094 0.82057 0.0
C287 C 0.38559 0.95257 0.85147 0.0
H288 H 0.68598 0.4494 0.7088 0.0
H289 H 0.59328 0.4369 0.76416 0.0
H290 H 0.66182 0.47173 0.66606 0.0
H291 H 0.56872 0.45804 0.72107 0.0
H292 H 0.54152 0.52344 0.6556 0.0
H293 H 0.56689 0.50214 0.69778 0.0
H294 H 0.62407 0.46266 0.62081 0.0
H295 H 0.59884 0.48463 0.57844 0.0
C296 C 0.66042 0.45137 0.71191 0.0
C297 C 0.64181 0.44149 0.74031 0.0
C298 C 0.64637 0.46399 0.68712 0.0
C299 C 0.61308 0.46692 0.68968 0.0
C300 C 0.59455 0.45692 0.71816 0.0
C301 C 0.60869 0.44462 0.74303 0.0
C302 C 0.55956 0.51028 0.64753 0.0
C303 C 0.56802 0.5059 0.61338 0.0
C304 C 0.57403 0.49774 0.67189 0.0
C305 C 0.59773 0.48039 0.66315 0.0
C306 C 0.60629 0.47607 0.6289 0.0
C307 C 0.59157 0.4885 0.60441 0.0
H308 H 0.92194 0.67509 0.21251 0.0
H309 H 0.96532 0.62698 0.27853 0.0
H310 H 0.93968 0.64533 0.16427 0.0
H311 H 0.98149 0.59618 0.23085 0.0
H312 H 0.02962 0.55657 0.14144 0.0
H313 H 0.01629 0.59171 0.1867 0.0
H314 H 0.9317 0.60006 0.13137 0.0
H315 H 0.9472 0.56658 0.08495 0.0
C316 C 0.93536 0.65819 0.21676 0.0
C317 C 0.94241 0.65371 0.24955 0.0
C318 C 0.94527 0.64076 0.18898 0.0
C319 C 0.96229 0.61806 0.19309 0.0
C320 C 0.96927 0.61374 0.22606 0.0
C321 C 0.95971 0.63137 0.25373 0.0
C322 C 0.00839 0.56624 0.13891 0.0
C323 C 0.98939 0.5588 0.10979 0.0
C324 C 1.00039 0.58622 0.1651 0.0
C325 C 0.97234 0.59864 0.16353 0.0
C326 C 0.9537 0.5915 0.13379 0.0
C327 C 0.96241 0.57214 0.10709 0.0
H328 H 0.37825 0.21599 0.2354 0.0
H329 H 0.38591 0.24012 0.13413 0.0
H330 H 0.39621 0.16982 0.21645 0.0
H331 H 0.40435 0.19408 0.11532 0.0
H332 H 0.40124 0.09334 0.08919 0.0
H333 H 0.38016 0.13752 0.11034 0.0
H334 H 0.44922 0.15567 0.19184 0.0
H335 H 0.47089 0.11174 0.17017 0.0
C336 C 0.38321 0.21134 0.20905 0.0
C337 C 0.37989 0.23165 0.18625 0.0
C338 C 0.39396 0.18497 0.19826 0.0
C339 C 0.40149 0.17814 0.16434 0.0
C340 C 0.39824 0.19843 0.14154 0.0
C341 C 0.38778 0.2249 0.15238 0.0
C342 C 0.4115 0.10641 0.11199 0.0
C343 C 0.43751 0.09887 0.12823 0.0
C344 C 0.39967 0.13193 0.12388 0.0
C345 C 0.41306 0.15018 0.15271 0.0
C346 C 0.43825 0.142 0.16967 0.0
C347 C 0.45066 0.11686 0.15729 0.0
H348 H 0.18722 0.94883 0.70711 0.0
H349 H 0.13785 0.86242 0.65806 0.0
H350 H 0.15592 0.97369 0.67387 0.0
H351 H 0.1076 0.88733 0.62355 0.0
H352 H 0.03456 0.93955 0.59095 0.0
H353 H 0.06481 0.91363 0.6246 0.0
H354 H 0.15208 0.98639 0.61946 0.0
H355 H 0.12086 0.01272 0.58739 0.0
C356 C 0.16965 0.93515 0.68918 0.0
C357 C 0.16476 0.90368 0.68542 0.0
C358 C 0.15195 0.94942 0.66982 0.0
C359 C 0.1293 0.93257 0.64584 0.0
C360 C 0.12438 0.90101 0.64215 0.0
C361 C 0.14177 0.88671 0.66189 0.0
C362 C 0.06021 0.94982 0.59723 0.0
C363 C 0.07562 0.97795 0.58702 0.0
C364 C 0.07764 0.93496 0.61621 0.0
C365 C 0.11091 0.94794 0.62491 0.0
C366 C 0.12633 0.976 0.61388 0.0
C367 C 0.10869 0.99098 0.59531 0.0
H368 H 0.77664 0.44165 0.86964 0.0
H369 H 0.75836 0.36879 0.93228 0.0
H370 H 0.82816 0.46429 0.89803 0.0
H371 H 0.81049 0.39227 0.96184 0.0
H372 H 0.92371 0.43147 0.98708 0.0
H373 H 0.87093 0.40552 0.96045 0.0
H374 H 0.85033 0.49154 0.94718 0.0
H375 H 0.90279 0.51707 0.97266 0.0
C376 C 0.78336 0.43041 0.88977 0.0
C377 C 0.76264 0.40325 0.89855 0.0
C378 C 0.81321 0.44371 0.90642 0.0
C379 C 0.82391 0.43066 0.9329 0.0
C380 C 0.80348 0.40319 0.9416 0.0
C381 C 0.77331 0.38973 0.92474 0.0
C382 C 0.90785 0.44484 0.97857 0.0
C383 C 0.91806 0.47656 0.98205 0.0
C384 C 0.87733 0.42988 0.96333 0.0
C385 C 0.85595 0.44613 0.95101 0.0
C386 C 0.86602 0.47786 0.95534 0.0
C387 C 0.89635 0.49269 0.97036 0.0
H388 H 0.77225 0.684 0.4919 0.0
H389 H 0.76215 0.61588 0.40749 0.0
H390 H 0.71956 0.65816 0.51459 0.0
H391 H 0.70916 0.5895 0.43077 0.0
H392 H 0.59736 0.57562 0.46777 0.0
H393 H 0.65158 0.5959 0.44229 0.0
H394 H 0.69614 0.61227 0.53996 0.0
H395 H 0.64216 0.5927 0.56524 0.0
C396 C 0.75889 0.66336 0.47824 0.0
C397 C 0.7715 0.65198 0.44789 0.0
C398 C 0.7287 0.6484 0.49141 0.0
C399 C 0.71027 0.62159 0.47467 0.0
C400 C 0.72272 0.61019 0.44418 0.0
C401 C 0.75311 0.62521 0.43095 0.0
C402 C 0.61889 0.58328 0.48364 0.0
C403 C 0.61555 0.58306 0.51851 0.0
C404 C 0.64992 0.59476 0.46907 0.0
C405 C 0.67807 0.60614 0.48918 0.0
C406 C 0.67483 0.60434 0.52385 0.0
C407 C 0.64393 0.59299 0.53833 0.0
H408 H 0.23996 0.32053 0.17723 0.0
H409 H 0.30809 0.40735 0.17672 0.0
H410 H 0.19546 0.34171 0.15861 0.0
H411 H 0.26325 0.42865 0.15865 0.0
H412 H 0.16081 0.45714 0.15256 0.0
H413 H 0.20376 0.43798 0.17841 0.0
H414 H 0.18922 0.36234 0.10246 0.0
H415 H 0.14685 0.3813 0.0768 0.0
C416 C 0.24537 0.34418 0.1734 0.0
C417 C 0.27765 0.36215 0.17793 0.0
C418 C 0.2199 0.35629 0.16277 0.0
C419 C 0.22595 0.38678 0.15707 0.0
C420 C 0.25787 0.40511 0.16295 0.0
C421 C 0.28356 0.39283 0.17296 0.0
C422 C 0.16675 0.43635 0.14161 0.0
C423 C 0.15062 0.4208 0.11254 0.0
C424 C 0.19138 0.42551 0.15626 0.0
C425 C 0.1997 0.39862 0.14247 0.0
C426 C 0.18312 0.38295 0.11381 0.0
C427 C 0.15904 0.39395 0.09897 0.0
H428 H 0.6537 0.24422 0.01536 0.0
H429 H 0.60706 0.22897 0.91891 0.0
H430 H 0.61794 0.19788 0.03157 0.0
H431 H 0.57081 0.18213 0.93544 0.0
H432 H 0.48676 0.1212 0.99706 0.0
H433 H 0.52392 0.16506 0.97584 0.0
H434 H 0.60738 0.14234 0.01956 0.0
H435 H 0.57013 0.09793 0.0401 0.0
C436 C 0.63591 0.23096 0.9974 0.0
C437 C 0.63356 0.2407 0.96568 0.0
C438 C 0.6154 0.20408 0.00675 0.0
C439 C 0.5914 0.18589 0.98492 0.0
C440 C 0.58883 0.19553 0.9531 0.0
C441 C 0.60976 0.22241 0.94353 0.0
C442 C 0.51309 0.12543 1.00203 0.0
C443 C 0.52531 0.10601 0.02059 0.0
C444 C 0.53449 0.15057 0.98961 0.0
C445 C 0.56883 0.15759 0.99596 0.0
C446 C 0.5811 0.13796 0.01433 0.0
C447 C 0.55974 0.11239 0.02612 0.0
H448 H 0.9503 0.80629 0.37731 0.0
H449 H 0.90252 0.76767 0.46485 0.0
H450 H 0.96531 0.85557 0.41002 0.0
H451 H 0.91642 0.81654 0.49695 0.0
H452 H 0.97206 0.90332 0.55496 0.0
H453 H 0.95926 0.85402 0.52269 0.0
H454 H 0.94188 0.89544 0.43557 0.0
H455 H 0.95579 0.94473 0.46758 0.0
C456 C 0.94321 0.80821 0.4035 0.0
C457 C 0.92521 0.78288 0.41829 0.0
C458 C 0.95146 0.83656 0.42225 0.0
C459 C 0.942 0.84027 0.45628 0.0
C460 C 0.92459 0.81473 0.47106 0.0
C461 C 0.91639 0.78657 0.45243 0.0
C462 C 0.96516 0.90186 0.52902 0.0
C463 C 0.96495 0.92802 0.51393 0.0
C464 C 0.9578 0.87352 0.51041 0.0
C465 C 0.94971 0.87054 0.47625 0.0
C466 C 0.94871 0.89675 0.46149 0.0
C467 C 0.95636 0.92507 0.48001 0.0
H468 H 0.28116 0.7636 0.5821 0.0
H469 H 0.37014 0.8351 0.5876 0.0
H470 H 0.31557 0.72628 0.57897 0.0
H471 H 0.40408 0.79798 0.58533 0.0
H472 H 0.44007 0.72299 0.63373 0.0
H473 H 0.40535 0.75875 0.63048 0.0
H474 H 0.36555 0.71147 0.537 0.0
H475 H 0.40159 0.67627 0.5391 0.0
C476 C 0.30798 0.77126 0.58223 0.0
C477 C 0.32306 0.80215 0.58489 0.0
C478 C 0.32753 0.75001 0.58039 0.0
C479 C 0.36226 0.75951 0.58202 0.0
C480 C 0.37729 0.79029 0.58407 0.0
C481 C 0.35788 0.81143 0.58516 0.0
C482 C 0.42448 0.72046 0.6121 0.0
C483 C 0.42382 0.69688 0.58654 0.0
C484 C 0.40444 0.74078 0.61045 0.0
C485 C 0.38297 0.73765 0.58351 0.0
C486 C 0.38184 0.71403 0.5581 0.0
C487 C 0.40235 0.69392 0.55943 0.0
H488 H 0.7105 0.77717 0.72696 0.0
H489 H 0.73397 0.82625 0.82403 0.0
H490 H 0.7533 0.8145 0.70127 0.0
H491 H 0.77696 0.86349 0.79836 0.0
H492 H 0.88009 0.88967 0.74477 0.0
H493 H 0.8321 0.8576 0.7699 0.0
H494 H 0.76975 0.87076 0.69179 0.0
H495 H 0.81797 0.90265 0.66623 0.0
C496 C 0.72435 0.79631 0.74266 0.0
C497 C 0.71879 0.79899 0.77742 0.0
C498 C 0.74876 0.81766 0.72798 0.0
C499 C 0.76851 0.84173 0.74789 0.0
C500 C 0.76213 0.84502 0.78251 0.0
C501 C 0.73729 0.82395 0.79713 0.0
C502 C 0.85621 0.8856 0.73283 0.0
C503 C 0.85284 0.89859 0.70344 0.0
C504 C 0.82868 0.86757 0.74746 0.0
C505 C 0.79722 0.86195 0.73292 0.0
C506 C 0.79377 0.87478 0.70348 0.0
C507 C 0.82129 0.8931 0.68898 0.0
H508 H 0.6722 0.17971 0.41935 0.0
H509 H 0.76156 0.17139 0.36402 0.0
H510 H 0.64159 0.17195 0.36728 0.0
H511 H 0.73074 0.16145 0.31193 0.0
H512 H 0.67315 0.15878 0.22007 0.0
H513 H 0.70274 0.1787 0.27155 0.0
H514 H 0.61978 0.13146 0.32826 0.0
H515 H 0.58924 0.11349 0.27689 0.0
C516 C 0.6852 0.17626 0.39587 0.0
C517 C 0.71903 0.17595 0.39543 0.0
C518 C 0.66769 0.17155 0.36608 0.0
C519 C 0.68348 0.16558 0.33533 0.0
C520 C 0.71778 0.1664 0.33499 0.0
C521 C 0.73547 0.17193 0.36479 0.0
C522 C 0.66085 0.15329 0.24358 0.0
C523 C 0.62884 0.13442 0.24433 0.0
C524 C 0.67807 0.16436 0.27313 0.0
C525 C 0.6639 0.1565 0.30415 0.0
C526 C 0.63145 0.13833 0.30494 0.0
C527 C 0.61407 0.12759 0.2754 0.0
H528 H 0.4092 0.69361 0.37673 0.0
H529 H 0.4842 0.66979 0.30871 0.0
H530 H 0.42298 0.66239 0.41693 0.0
H531 H 0.4989 0.63923 0.34932 0.0
H532 H 0.50141 0.56532 0.41701 0.0
H533 H 0.4862 0.59535 0.37615 0.0
H534 H 0.45892 0.65576 0.45663 0.0
H535 H 0.47316 0.6252 0.49718 0.0
C536 C 0.42899 0.68203 0.37039 0.0
C537 C 0.4456 0.68471 0.33918 0.0
C538 C 0.43712 0.66402 0.39374 0.0
C539 C 0.46235 0.64787 0.38705 0.0
C540 C 0.47903 0.65066 0.35577 0.0
C541 C 0.47078 0.66862 0.33235 0.0
C542 C 0.49193 0.58488 0.42606 0.0
C543 C 0.48853 0.59248 0.46077 0.0
C544 C 0.48342 0.60248 0.40243 0.0
C545 C 0.47119 0.62852 0.41246 0.0
C546 C 0.46763 0.63588 0.44727 0.0
C547 C 0.47608 0.61827 0.47084 0.0
H548 H 0.15631 0.47443 0.78965 0.0
H549 H 0.10995 0.38912 0.82542 0.0
H550 H 0.13299 0.50056 0.83739 0.0
H551 H 0.08811 0.41499 0.87389 0.0
H552 H 0.02388 0.46706 0.93969 0.0
H553 H 0.04857 0.44069 0.89317 0.0
H554 H 0.13374 0.51598 0.89397 0.0
H555 H 0.10784 0.5428 0.93918 0.0
C556 C 0.14152 0.46124 0.80793 0.0
C557 C 0.13497 0.42961 0.80346 0.0
C558 C 0.12821 0.47625 0.8356 0.0
C559 C 0.10834 0.4601 0.85993 0.0
C560 C 0.1025 0.42845 0.85563 0.0
C561 C 0.11536 0.41349 0.82778 0.0
C562 C 0.04798 0.47783 0.93001 0.0
C563 C 0.06382 0.50707 0.94302 0.0
C564 C 0.06236 0.46264 0.90331 0.0
C565 C 0.09336 0.47603 0.88924 0.0
C566 C 0.10958 0.505 0.90324 0.0
C567 C 0.09489 0.52035 0.92952 0.0
H568 H 0.58119 0.88962 0.85892 0.0
H569 H 0.63727 0.87312 0.94053 0.0
H570 H 0.55531 0.92271 0.89703 0.0
H571 H 0.61044 0.90536 0.97902 0.0
H572 H 0.58418 0.99133 0.03032 0.0
H573 H 0.60964 0.95708 0.99318 0.0
H574 H 0.51645 0.92309 0.94182 0.0
H575 H 0.4914 0.95785 0.9781 0.0
C576 C 0.58781 0.89288 0.88508 0.0
C577 C 0.6115 0.87895 0.89663 0.0
C578 C 0.57278 0.91171 0.90703 0.0
C579 C 0.5808 0.91682 0.94117 0.0
C580 C 0.60413 0.90245 0.9528 0.0
C581 C 0.61942 0.88385 0.93076 0.0
C582 C 0.56917 0.9766 0.01105 0.0
C583 C 0.53584 0.97755 0.00707 0.0
C584 C 0.58369 0.95676 0.9899 0.0
C585 C 0.56516 0.93734 0.96436 0.0
C586 C 0.53169 0.93807 0.96076 0.0
C587 C 0.51725 0.95796 0.98175 0.0
H588 H 0.80074 0.08867 0.49283 0.0
H589 H 0.86913 0.17565 0.507 0.0
H590 H 0.84575 0.06414 0.50026 0.0
H591 H 0.91447 0.15084 0.51474 0.0
H592 H 0.94908 0.09069 0.59144 0.0
H593 H 0.91894 0.1215 0.56489 0.0
H594 H 0.90231 0.05542 0.47856 0.0
H595 H 0.93307 0.0246 0.50517 0.0
C596 C 0.82557 0.10251 0.49691 0.0
C597 C 0.83141 0.13403 0.49989 0.0
C598 C 0.8514 0.08844 0.50076 0.0
C599 C 0.8835 0.10564 0.50803 0.0
C600 C 0.88985 0.13716 0.50912 0.0
C601 C 0.86398 0.15129 0.50475 0.0
C602 C 0.93945 0.08303 0.56654 0.0
C603 C 0.94252 0.05507 0.55054 0.0
C604 C 0.92265 0.10083 0.55118 0.0
C605 C 0.90824 0.0907 0.51979 0.0
C606 C 0.91319 0.06359 0.50284 0.0
C607 C 0.93056 0.04598 0.51804 0.0
H608 H 0.23325 0.66399 0.18445 0.0
H609 H 0.27016 0.67748 0.08407 0.0
H610 H 0.1812 0.632 0.16155 0.0
H611 H 0.21862 0.64554 0.06149 0.0
H612 H 0.13676 0.55955 0.03417 0.0
H613 H 0.18841 0.59008 0.05918 0.0
H614 H 0.13159 0.63877 0.12733 0.0
H615 H 0.07994 0.60876 0.10148 0.0
C616 C 0.23039 0.66009 0.15758 0.0
C617 C 0.25605 0.67338 0.13618 0.0
C618 C 0.2005 0.64187 0.14447 0.0
C619 C 0.19578 0.63614 0.10966 0.0
C620 C 0.22155 0.64919 0.08838 0.0
C621 C 0.25112 0.66764 0.10141 0.0
C622 C 0.13537 0.57675 0.05453 0.0
C623 C 0.10441 0.58192 0.06577 0.0
C624 C 0.16491 0.5943 0.06879 0.0
C625 C 0.16416 0.61688 0.09529 0.0
C626 C 0.13305 0.6215 0.10709 0.0
C627 C 0.10352 0.60449 0.09216 0.0
H628 H 0.26322 0.47657 0.62918 0.0
H629 H 0.31516 0.42103 0.67665 0.0
H630 H 0.31395 0.49717 0.59836 0.0
H631 H 0.36568 0.44131 0.64549 0.0
H632 H 0.45869 0.5072 0.61037 0.0
H633 H 0.40801 0.48811 0.64188 0.0
H634 H 0.35016 0.48142 0.55308 0.0
H635 H 0.40113 0.50049 0.52149 0.0
C636 C 0.28544 0.46876 0.63311 0.0
C637 C 0.28504 0.44719 0.65557 0.0
C638 C 0.3145 0.48045 0.61523 0.0
C639 C 0.34397 0.47091 0.61934 0.0
C640 C 0.34362 0.4495 0.64199 0.0
C641 C 0.31456 0.4378 0.65985 0.0
C642 C 0.43513 0.50182 0.5976 0.0
C643 C 0.43387 0.50539 0.56343 0.0
C644 C 0.40607 0.49065 0.61562 0.0
C645 C 0.37491 0.48314 0.60008 0.0
C646 C 0.37366 0.4872 0.56596 0.0
C647 C 0.40284 0.498 0.54779 0.0
H648 H 0.72817 0.6292 0.83287 0.0
H649 H 0.76121 0.7166 0.88817 0.0
H650 H 0.77367 0.61219 0.856 0.0
H651 H 0.80671 0.69963 0.91109 0.0
H652 H 0.90488 0.66958 0.91158 0.0
H653 H 0.85866 0.68483 0.88805 0.0
H654 H 0.79227 0.60215 0.91204 0.0
H655 H 0.83877 0.58642 0.93486 0.0
C656 C 0.7451 0.64472 0.85002 0.0
C657 C 0.74118 0.6742 0.85873 0.0
C658 C 0.771 0.63495 0.86334 0.0
C659 C 0.79374 0.65465 0.88519 0.0
C660 C 0.7897 0.68407 0.89404 0.0
C661 C 0.76353 0.6937 0.88112 0.0
C662 C 0.88053 0.65446 0.91146 0.0
C663 C 0.87547 0.62677 0.92505 0.0
C664 C 0.85402 0.66336 0.89834 0.0
C665 C 0.8219 0.64475 0.89844 0.0
C666 C 0.81685 0.61686 0.91153 0.0
C667 C 0.84337 0.60799 0.92482 0.0
H668 H 0.37339 0.8155 0.16604 0.0
H669 H 0.46003 0.8382 0.22837 0.0
H670 H 0.38879 0.86429 0.1449 0.0
H671 H 0.47631 0.8872 0.20617 0.0
H672 H 0.48538 0.9837 0.18363 0.0
H673 H 0.46802 0.935 0.20513 0.0
H674 H 0.42125 0.89744 0.11097 0.0
H675 H 0.43788 0.94711 0.08998 0.0
C676 C 0.396 0.83081 0.17529 0.0
C677 C 0.41526 0.82234 0.19935 0.0
C678 C 0.40507 0.85911 0.16271 0.0
C679 C 0.43399 0.88051 0.17341 0.0
C680 C 0.45349 0.87201 0.19738 0.0
C681 C 0.44429 0.84356 0.21013 0.0
C682 C 0.4709 0.96519 0.16756 0.0
C683 C 0.46283 0.96977 0.13507 0.0
C684 C 0.46127 0.93681 0.17984 0.0
C685 C 0.44336 0.91139 0.16005 0.0
C686 C 0.43461 0.91611 0.12756 0.0
C687 C 0.44407 0.9448 0.11533 0.0
H688 H 0.0625 0.23787 0.73083 0.0
H689 H 0.13582 0.26067 0.65281 0.0
H690 H 0.04768 0.18625 0.7052 0.0
H691 H 0.12143 0.20854 0.62741 0.0
H692 H 0.05906 0.12185 0.57181 0.0
H693 H 0.07757 0.17311 0.59756 0.0
H694 H 0.06706 0.14073 0.69521 0.0
H695 H 0.04755 0.08921 0.66936 0.0
C696 C 0.07565 0.23186 0.70826 0.0
C697 C 0.10041 0.25354 0.69393 0.0
C698 C 0.0673 0.20207 0.69369 0.0
C699 C 0.08346 0.193 0.66432 0.0
C700 C 0.10824 0.2147 0.64988 0.0
C701 C 0.11663 0.2446 0.66453 0.0
C702 C 0.06086 0.12552 0.5988 0.0
C703 C 0.05166 0.10127 0.61851 0.0
C704 C 0.07172 0.15504 0.61358 0.0
C705 C 0.07377 0.16124 0.64852 0.0
C706 C 0.06532 0.13691 0.66823 0.0
C707 C 0.05436 0.10729 0.65342 0.0
H708 H 0.76885 0.32842 0.45463 0.0
H709 H 0.68016 0.2607 0.47236 0.0
H710 H 0.74022 0.36774 0.47564 0.0
H711 H 0.6508 0.29959 0.49102 0.0
H712 H 0.60276 0.37326 0.5304 0.0
H713 H 0.63972 0.33842 0.52788 0.0
H714 H 0.7012 0.38896 0.45447 0.0
H715 H 0.6655 0.42427 0.45877 0.0
C716 C 0.7432 0.32202 0.46295 0.0
C717 C 0.72651 0.29164 0.46131 0.0
C718 C 0.7267 0.34448 0.47487 0.0
C719 C 0.69289 0.33699 0.48444 0.0
C720 C 0.67684 0.30642 0.48429 0.0
C721 C 0.6936 0.28402 0.47319 0.0
C722 C 0.6246 0.37701 0.51428 0.0
C723 C 0.63142 0.40129 0.49475 0.0
C724 C 0.64569 0.35704 0.51263 0.0
C725 C 0.67346 0.36063 0.49076 0.0
C726 C 0.68063 0.38566 0.47216 0.0
C727 C 0.66 0.40587 0.47437 0.0
loop_
_geom_bond_atom_site_label_1
_geom_bond_atom_site_label_2
_geom_bond_distance
_geom_bond_site_symmetry_2
_ccdc_geom_bond_type
O0 Cd1 2.300 . S
O0 C7 1.275 . S
Cd1 O0 2.300 . S
Cd1 O9 2.381 . S
Cd1 O10 2.378 . S
O2 Cd3 2.385 . S
O2 C7 1.255 . S
Cd3 O2 2.385 . S
Cd3 O4 2.317 . S
O4 Cd3 2.317 . S
O4 C5 1.232 . S
C5 O4 1.232 . S
C5 O6 1.218 . S
O6 C5 1.218 . S
C7 O0 1.275 . S
C7 O2 1.255 . S
C8 O9 1.258 . S
C8 O10 1.256 . S
O9 Cd1 2.381 . S
O9 C8 1.258 . S
O10 Cd1 2.378 . S
O10 C8 1.256 . S
O11 Cd12 2.300 . S
O11 C18 1.275 . S
Cd12 O11 2.300 . S
Cd12 O20 2.381 . S
Cd12 O21 2.378 . S
O13 Cd14 2.385 . S
O13 C18 1.255 . S
Cd14 O13 2.385 . S
Cd14 O15 2.317 . S
O15 Cd14 2.317 . S
O15 C16 1.232 . S
C16 O15 1.232 . S
C16 O17 1.218 . S
O17 C16 1.218 . S
C18 O11 1.275 . S
C18 O13 1.255 . S
C19 O20 1.258 . S
C19 O21 1.256 . S
O20 Cd12 2.381 . S
O20 C19 1.258 . S
O21 Cd12 2.378 . S
O21 C19 1.256 . S
O22 Cd23 2.300 . S
O22 C29 1.275 . S
Cd23 O22 2.300 . S
Cd23 O31 2.381 . S
Cd23 O32 2.378 . S
O24 Cd25 2.385 . S
O24 C29 1.255 . S
Cd25 O24 2.385 . S
Cd25 O26 2.317 . S
O26 Cd25 2.317 . S
O26 C27 1.232 . S
C27 O26 1.232 . S
C27 O28 1.218 . S
O28 C27 1.218 . S
C29 O22 1.275 . S
C29 O24 1.255 . S
C30 O31 1.258 . S
C30 O32 1.256 . S
O31 Cd23 2.381 . S
O31 C30 1.258 . S
O32 Cd23 2.378 . S
O32 C30 1.256 . S
O33 Cd34 2.300 . S
O33 C40 1.275 . S
Cd34 O33 2.300 . S
Cd34 O42 2.381 . S
Cd34 O43 2.378 . S
O35 Cd36 2.385 . S
O35 C40 1.255 . S
Cd36 O35 2.385 . S
Cd36 O37 2.317 . S
O37 Cd36 2.317 . S
O37 C38 1.232 . S
C38 O37 1.232 . S
C38 O39 1.218 . S
O39 C38 1.218 . S
C40 O33 1.275 . S
C40 O35 1.255 . S
C41 O42 1.258 . S
C41 O43 1.256 . S
O42 Cd34 2.381 . S
O42 C41 1.258 . S
O43 Cd34 2.378 . S
O43 C41 1.256 . S
O44 Cd45 2.300 . S
O44 C51 1.275 . S
Cd45 O44 2.300 . S
Cd45 O53 2.381 . S
Cd45 O54 2.378 . S
O46 Cd47 2.385 . S
O46 C51 1.255 . S
Cd47 O46 2.385 . S
Cd47 O48 2.317 . S
O48 Cd47 2.317 . S
O48 C49 1.232 . S
C49 O48 1.232 . S
C49 O50 1.218 . S
O50 C49 1.218 . S
C51 O44 1.275 . S
C51 O46 1.255 . S
C52 O53 1.258 . S
C52 O54 1.256 . S
O53 Cd45 2.381 . S
O53 C52 1.258 . S
O54 Cd45 2.378 . S
O54 C52 1.256 . S
O55 Cd56 2.300 . S
O55 C62 1.275 . S
Cd56 O55 2.300 . S
Cd56 O64 2.381 . S
Cd56 O65 2.378 . S
O57 Cd58 2.385 . S
O57 C62 1.255 . S
Cd58 O57 2.385 . S
Cd58 O59 2.317 . S
O59 Cd58 2.317 . S
O59 C60 1.232 . S
C60 O59 1.232 . S
C60 O61 1.218 . S
O61 C60 1.218 . S
C62 O55 1.275 . S
C62 O57 1.255 . S
C63 O64 1.258 . S
C63 O65 1.256 . S
O64 Cd56 2.381 . S
O64 C63 1.258 . S
O65 Cd56 2.378 . S
O65 C63 1.256 . S
O66 Cd67 2.300 . S
O66 C73 1.275 . S
Cd67 O66 2.300 . S
Cd67 O75 2.381 . S
Cd67 O76 2.378 . S
O68 Cd69 2.385 . S
O68 C73 1.255 . S
Cd69 O68 2.385 . S
Cd69 O70 2.317 . S
O70 Cd69 2.317 . S
O70 C71 1.232 . S
C71 O70 1.232 . S
C71 O72 1.218 . S
O72 C71 1.218 . S
C73 O66 1.275 . S
C73 O68 1.255 . S
C74 O75 1.258 . S
C74 O76 1.256 . S
O75 Cd67 2.381 . S
O75 C74 1.258 . S
O76 Cd67 2.378 . S
O76 C74 1.256 . S
O77 Cd78 2.300 . S
O77 C84 1.275 . S
Cd78 O77 2.300 . S
Cd78 O86 2.381 . S
Cd78 O87 2.378 . S
O79 Cd80 2.385 . S
O79 C84 1.255 . S
Cd80 O79 2.385 . S
Cd80 O81 2.317 . S
O81 Cd80 2.317 . S
O81 C82 1.232 . S
C82 O81 1.232 . S
C82 O83 1.218 . S
O83 C82 1.218 . S
C84 O77 1.275 . S
C84 O79 1.255 . S
C85 O86 1.258 . S
C85 O87 1.256 . S
O86 Cd78 2.381 . S
O86 C85 1.258 . S
O87 Cd78 2.378 . S
O87 C85 1.256 . S
Gd88 C91 2.818 . S
Gd88 O108 2.377 . S
Gd88 O110 2.448 . S
Gd88 O111 2.506 . S
Gd88 O112 2.435 1_545 S
Gd88 O113 2.717 1_545 S
Gd88 O115 2.395 1_445 S
Gd88 O119 2.327 1_455 S
Gd89 C100 2.818 1_545 S
Gd89 O109 2.395 1_655 S
Gd89 O113 2.327 1_645 S
Gd89 O114 2.377 1_545 S
Gd89 O116 2.448 1_545 S
Gd89 O117 2.506 1_545 S
Gd89 O118 2.435 . S
Gd89 O119 2.717 . S
C90 O108 1.240 . S
C90 O109 1.240 . S
C91 Gd88 2.818 . S
C91 C92 1.510 . S
C91 O110 1.249 . S
C91 O111 1.252 . S
C92 C91 1.510 . S
C92 C93 1.404 . S
C92 C94 1.352 . S
C93 C92 1.404 . S
C93 C97 1.389 . S
C93 H120 0.930 . S
C94 C92 1.352 . S
C94 C96 1.374 . S
C94 H121 0.931 . S
C95 C96 1.359 . S
C95 C97 1.364 . S
C96 C94 1.374 . S
C96 C95 1.359 . S
C96 H122 0.931 . S
C97 C93 1.389 . S
C97 C95 1.364 . S
C97 H123 0.931 . S
C98 O112 1.256 . S
C98 O113 1.257 . S
C99 O114 1.240 . S
C99 O115 1.240 . S
C100 Gd89 2.818 1_565 S
C100 C101 1.510 . S
C100 O116 1.249 . S
C100 O117 1.252 . S
C101 C100 1.510 . S
C101 C102 1.404 . S
C101 C103 1.352 . S
C102 C101 1.404 . S
C102 C106 1.389 . S
C102 H124 0.930 . S
C103 C101 1.352 . S
C103 C105 1.374 . S
C103 H125 0.931 . S
C104 C105 1.359 . S
C104 C106 1.364 . S
C105 C103 1.374 . S
C105 C104 1.359 . S
C105 H126 0.931 . S
C106 C102 1.389 . S
C106 C104 1.364 . S
C106 H127 0.931 . S
C107 O118 1.256 . S
C107 O119 1.257 . S
O108 Gd88 2.377 . S
O108 C90 1.240 . S
O109 Gd89 2.395 1_455 S
O109 C90 1.240 . S
O110 Gd88 2.448 . S
O110 C91 1.249 . S
O111 Gd88 2.506 . S
O111 C91 1.252 . S
O112 Gd88 2.435 1_565 S
O112 C98 1.256 . S
O113 Gd88 2.717 1_565 S
O113 Gd89 2.327 1_465 S
O113 C98 1.257 . S
O114 Gd89 2.377 1_565 S
O114 C99 1.240 . S
O115 Gd88 2.395 1_665 S
O115 C99 1.240 . S
O116 Gd89 2.448 1_565 S
O116 C100 1.249 . S
O117 Gd89 2.506 1_565 S
O117 C100 1.252 . S
O118 Gd89 2.435 . S
O118 C107 1.256 . S
O119 Gd88 2.327 1_655 S
O119 Gd89 2.717 . S
O119 C107 1.257 . S
H120 C93 0.930 . S
H121 C94 0.931 . S
H122 C96 0.931 . S
H123 C97 0.931 . S
H124 C102 0.930 . S
H125 C103 0.931 . S
H126 C105 0.931 . S
H127 C106 0.931 . S
Gd128 C131 2.818 . S
Gd128 O148 2.377 . S
Gd128 O150 2.448 . S
Gd128 O151 2.506 . S
Gd128 O152 2.435 1_545 S
Gd128 O153 2.717 . S
Gd128 O155 2.395 . S
Gd128 O159 2.327 . S
Gd129 C140 2.818 1_544 S
Gd129 O149 2.395 . S
Gd129 O153 2.327 . S
Gd129 O154 2.377 . S
Gd129 O156 2.448 1_554 S
Gd129 O157 2.506 1_544 S
Gd129 O158 2.435 . S
Gd129 O159 2.717 . S
C130 O148 1.240 . S
C130 O149 1.240 . S
C131 Gd128 2.818 . S
C131 C132 1.510 . S
C131 O150 1.249 . S
C131 O151 1.252 . S
C132 C131 1.510 . S
C132 C133 1.404 . S
C132 C134 1.352 . S
C133 C132 1.404 . S
C133 C137 1.389 . S
C133 H160 0.930 . S
C134 C132 1.352 . S
C134 C136 1.374 . S
C134 H161 0.931 . S
C135 C136 1.359 . S
C135 C137 1.364 . S
C136 C134 1.374 . S
C136 C135 1.359 . S
C136 H162 0.931 . S
C137 C133 1.389 . S
C137 C135 1.364 . S
C137 H163 0.931 . S
C138 O152 1.256 . S
C138 O153 1.257 1_565 S
C139 O154 1.240 1_565 S
C139 O155 1.240 1_565 S
C140 Gd129 2.818 1_566 S
C140 C141 1.510 . S
C140 O156 1.249 1_565 S
C140 O157 1.252 . S
C141 C140 1.510 . S
C141 C142 1.404 . S
C141 C143 1.352 . S
C142 C141 1.404 . S
C142 C146 1.389 . S
C142 H164 0.930 1_565 S
C143 C141 1.352 . S
C143 C145 1.374 . S
C143 H165 0.931 . S
C144 C145 1.359 . S
C144 C146 1.364 . S
C145 C143 1.374 . S
C145 C144 1.359 . S
C145 H166 0.931 . S
C146 C142 1.389 . S
C146 C144 1.364 . S
C146 H167 0.931 . S
C147 O158 1.256 . S
C147 O159 1.257 . S
O148 Gd128 2.377 . S
O148 C130 1.240 . S
O149 Gd129 2.395 . S
O149 C130 1.240 . S
O150 Gd128 2.448 . S
O150 C131 1.249 . S
O151 Gd128 2.506 . S
O151 C131 1.252 . S
O152 Gd128 2.435 1_565 S
O152 C138 1.256 . S
O153 Gd128 2.717 . S
O153 Gd129 2.327 . S
O153 C138 1.257 1_545 S
O154 Gd129 2.377 . S
O154 C139 1.240 1_545 S
O155 Gd128 2.395 . S
O155 C139 1.240 1_545 S
O156 Gd129 2.448 1_556 S
O156 C140 1.249 1_545 S
O157 Gd129 2.506 1_566 S
O157 C140 1.252 . S
O158 Gd129 2.435 . S
O158 C147 1.256 . S
O159 Gd128 2.327 . S
O159 Gd129 2.717 . S
O159 C147 1.257 . S
H160 C133 0.930 . S
H161 C134 0.931 . S
H162 C136 0.931 . S
H163 C137 0.931 . S
H164 C142 0.930 1_545 S
H165 C143 0.931 . S
H166 C145 0.931 . S
H167 C146 0.931 . S
Gd168 C171 2.818 . S
Gd168 O188 2.377 . S
Gd168 O190 2.448 . S
Gd168 O191 2.506 . S
Gd168 O192 2.435 . S
Gd168 O193 2.717 . S
Gd168 O195 2.395 . S
Gd168 O199 2.327 . S
Gd169 C180 2.818 . S
Gd169 O189 2.395 . S
Gd169 O193 2.327 . S
Gd169 O194 2.377 . S
Gd169 O196 2.448 . S
Gd169 O197 2.506 . S
Gd169 O198 2.435 . S
Gd169 O199 2.717 . S
C170 O188 1.240 . S
C170 O189 1.240 . S
C171 Gd168 2.818 . S
C171 C172 1.510 . S
C171 O190 1.249 . S
C171 O191 1.252 . S
C172 C171 1.510 . S
C172 C173 1.404 . S
C172 C174 1.352 . S
C173 C172 1.404 . S
C173 C177 1.389 . S
C173 H200 0.930 . S
C174 C172 1.352 . S
C174 C176 1.374 . S
C174 H201 0.931 . S
C175 C176 1.359 . S
C175 C177 1.364 . S
C176 C174 1.374 . S
C176 C175 1.359 . S
C176 H202 0.931 . S
C177 C173 1.389 . S
C177 C175 1.364 . S
C177 H203 0.931 . S
C178 O192 1.256 . S
C178 O193 1.257 . S
C179 O194 1.240 . S
C179 O195 1.240 . S
C180 Gd169 2.818 . S
C180 C181 1.510 . S
C180 O196 1.249 . S
C180 O197 1.252 . S
C181 C180 1.510 . S
C181 C182 1.404 . S
C181 C183 1.352 . S
C182 C181 1.404 . S
C182 C186 1.389 . S
C182 H204 0.930 . S
C183 C181 1.352 . S
C183 C185 1.374 . S
C183 H205 0.931 . S
C184 C185 1.359 . S
C184 C186 1.364 . S
C185 C183 1.374 . S
C185 C184 1.359 . S
C185 H206 0.931 . S
C186 C182 1.389 . S
C186 C184 1.364 . S
C186 H207 0.931 . S
C187 O198 1.256 . S
C187 O199 1.257 . S
O188 Gd168 2.377 . S
O188 C170 1.240 . S
O189 Gd169 2.395 . S
O189 C170 1.240 . S
O190 Gd168 2.448 . S
O190 C171 1.249 . S
O191 Gd168 2.506 . S
O191 C171 1.252 . S
O192 Gd168 2.435 . S
O192 C178 1.256 . S
O193 Gd168 2.717 . S
O193 Gd169 2.327 . S
O193 C178 1.257 . S
O194 Gd169 2.377 . S
O194 C179 1.240 . S
O195 Gd168 2.395 . S
O195 C179 1.240 . S
O196 Gd169 2.448 . S
O196 C180 1.249 . S
O197 Gd169 2.506 . S
O197 C180 1.252 . S
O198 Gd169 2.435 . S
O198 C187 1.256 . S
O199 Gd168 2.327 . S
O199 Gd169 2.717 . S
O199 C187 1.257 . S
H200 C173 0.930 . S
H201 C174 0.931 . S
H202 C176 0.931 . S
H203 C177 0.931 . S
H204 C182 0.930 . S
H205 C183 0.931 . S
H206 C185 0.931 . S
H207 C186 0.931 . S
Gd208 C211 2.818 . S
Gd208 O228 2.377 . S
Gd208 O230 2.448 . S
Gd208 O231 2.506 . S
Gd208 O232 2.435 1_455 S
Gd208 O233 2.717 1_455 S
Gd208 O235 2.395 1_455 S
Gd208 O239 2.327 1_554 S
Gd209 C220 2.818 1_455 S
Gd209 O229 2.395 1_556 S
Gd209 O233 2.327 1_456 S
Gd209 O234 2.377 1_455 S
Gd209 O236 2.448 1_455 S
Gd209 O237 2.506 1_455 S
Gd209 O238 2.435 . S
Gd209 O239 2.717 . S
C210 O228 1.240 . S
C210 O229 1.240 . S
C211 Gd208 2.818 . S
C211 C212 1.510 . S
C211 O230 1.249 . S
C211 O231 1.252 . S
C212 C211 1.510 . S
C212 C213 1.404 . S
C212 C214 1.352 . S
C213 C212 1.404 . S
C213 C217 1.389 . S
C213 H240 0.930 . S
C214 C212 1.352 . S
C214 C216 1.374 . S
C214 H241 0.931 . S
C215 C216 1.359 . S
C215 C217 1.364 . S
C216 C214 1.374 . S
C216 C215 1.359 . S
C216 H242 0.931 . S
C217 C213 1.389 . S
C217 C215 1.364 . S
C217 H243 0.931 . S
C218 O232 1.256 . S
C218 O233 1.257 . S
C219 O234 1.240 . S
C219 O235 1.240 1_556 S
C220 Gd209 2.818 1_655 S
C220 C221 1.510 . S
C220 O236 1.249 . S
C220 O237 1.252 . S
C221 C220 1.510 . S
C221 C222 1.404 . S
C221 C223 1.352 . S
C222 C221 1.404 . S
C222 C226 1.389 . S
C222 H244 0.930 . S
C223 C221 1.352 . S
C223 C225 1.374 . S
C223 H245 0.931 . S
C224 C225 1.359 . S
C224 C226 1.364 . S
C225 C223 1.374 . S
C225 C224 1.359 . S
C225 H246 0.931 . S
C226 C222 1.389 . S
C226 C224 1.364 . S
C226 H247 0.931 . S
C227 O238 1.256 . S
C227 O239 1.257 . S
O228 Gd208 2.377 . S
O228 C210 1.240 . S
O229 Gd209 2.395 1_554 S
O229 C210 1.240 . S
O230 Gd208 2.448 . S
O230 C211 1.249 . S
O231 Gd208 2.506 . S
O231 C211 1.252 . S
O232 Gd208 2.435 1_655 S
O232 C218 1.256 . S
O233 Gd208 2.717 1_655 S
O233 Gd209 2.327 1_654 S
O233 C218 1.257 . S
O234 Gd209 2.377 1_655 S
O234 C219 1.240 . S
O235 Gd208 2.395 1_655 S
O235 C219 1.240 1_554 S
O236 Gd209 2.448 1_655 S
O236 C220 1.249 . S
O237 Gd209 2.506 1_655 S
O237 C220 1.252 . S
O238 Gd209 2.435 . S
O238 C227 1.256 . S
O239 Gd208 2.327 1_556 S
O239 Gd209 2.717 . S
O239 C227 1.257 . S
H240 C213 0.930 . S
H241 C214 0.931 . S
H242 C216 0.931 . S
H243 C217 0.931 . S
H244 C222 0.930 . S
H245 C223 0.931 . S
H246 C225 0.931 . S
H247 C226 0.931 . S
H248 C256 0.950 . S
H249 C261 0.950 . S
H250 C258 0.950 . S
H251 C260 0.950 . S
H252 C262 0.950 . S
H253 C264 0.950 . S
H254 C266 0.950 . S
H255 C267 0.950 . S
C256 H248 0.950 . S
C256 C257 1.386 . S
C256 C258 1.391 . S
C257 C256 1.386 . S
C257 C261 1.393 . S
C258 H250 0.950 . S
C258 C256 1.391 . S
C258 C259 1.400 . S
C259 C258 1.400 . S
C259 C260 1.398 . S
C259 C265 1.491 . S
C260 H251 0.950 . S
C260 C259 1.398 . S
C260 C261 1.391 . S
C261 H249 0.950 . S
C261 C257 1.393 . S
C261 C260 1.391 . S
C262 H252 0.950 . S
C262 C263 1.386 . S
C262 C264 1.391 . S
C263 C262 1.386 . S
C263 C267 1.393 . S
C264 H253 0.950 . S
C264 C262 1.391 . S
C264 C265 1.400 . S
C265 C259 1.491 . S
C265 C264 1.400 . S
C265 C266 1.398 . S
C266 H254 0.950 . S
C266 C265 1.398 . S
C266 C267 1.391 . S
C267 H255 0.950 . S
C267 C263 1.393 . S
C267 C266 1.391 . S
H268 C276 0.950 . S
H269 C281 0.950 . S
H270 C278 0.950 . S
H271 C280 0.950 . S
H272 C282 0.950 . S
H273 C284 0.950 . S
H274 C286 0.950 . S
H275 C287 0.950 . S
C276 H268 0.950 . S
C276 C277 1.386 . S
C276 C278 1.391 . S
C277 C276 1.386 . S
C277 C281 1.393 . S
C278 H270 0.950 . S
C278 C276 1.391 . S
C278 C279 1.400 . S
C279 C278 1.400 . S
C279 C280 1.398 . S
C279 C285 1.491 . S
C280 H271 0.950 . S
C280 C279 1.398 . S
C280 C281 1.391 . S
C281 H269 0.950 . S
C281 C277 1.393 . S
C281 C280 1.391 . S
C282 H272 0.950 . S
C282 C283 1.386 . S
C282 C284 1.391 . S
C283 C282 1.386 . S
C283 C287 1.393 . S
C284 H273 0.950 . S
C284 C282 1.391 . S
C284 C285 1.400 . S
C285 C279 1.491 . S
C285 C284 1.400 . S
C285 C286 1.398 . S
C286 H274 0.950 . S
C286 C285 1.398 . S
C286 C287 1.391 . S
C287 H275 0.950 . S
C287 C283 1.393 . S
C287 C286 1.391 . S
H288 C296 0.950 . S
H289 C301 0.950 . S
H290 C298 0.950 . S
H291 C300 0.950 . S
H292 C302 0.950 . S
H293 C304 0.950 . S
H294 C306 0.950 . S
H295 C307 0.950 . S
C296 H288 0.950 . S
C296 C297 1.386 . S
C296 C298 1.391 . S
C297 C296 1.386 . S
C297 C301 1.393 . S
C298 H290 0.950 . S
C298 C296 1.391 . S
C298 C299 1.400 . S
C299 C298 1.400 . S
C299 C300 1.398 . S
C299 C305 1.491 . S
C300 H291 0.950 . S
C300 C299 1.398 . S
C300 C301 1.391 . S
C301 H289 0.950 . S
C301 C297 1.393 . S
C301 C300 1.391 . S
C302 H292 0.950 . S
C302 C303 1.386 . S
C302 C304 1.391 . S
C303 C302 1.386 . S
C303 C307 1.393 . S
C304 H293 0.950 . S
C304 C302 1.391 . S
C304 C305 1.400 . S
C305 C299 1.491 . S
C305 C304 1.400 . S
C305 C306 1.398 . S
C306 H294 0.950 . S
C306 C305 1.398 . S
C306 C307 1.391 . S
C307 H295 0.950 . S
C307 C303 1.393 . S
C307 C306 1.391 . S
H308 C316 0.950 . S
H309 C321 0.950 . S
H310 C318 0.950 . S
H311 C320 0.950 . S
H312 C322 0.950 1_455 S
H313 C324 0.950 . S
H314 C326 0.950 . S
H315 C327 0.950 . S
C316 H308 0.950 . S
C316 C317 1.386 . S
C316 C318 1.391 . S
C317 C316 1.386 . S
C317 C321 1.393 . S
C318 H310 0.950 . S
C318 C316 1.391 . S
C318 C319 1.400 . S
C319 C318 1.400 . S
C319 C320 1.398 . S
C319 C325 1.491 . S
C320 H311 0.950 . S
C320 C319 1.398 . S
C320 C321 1.391 . S
C321 H309 0.950 . S
C321 C317 1.393 . S
C321 C320 1.391 . S
C322 H312 0.950 1_655 S
C322 C323 1.386 . S
C322 C324 1.391 . S
C323 C322 1.386 . S
C323 C327 1.393 . S
C324 H313 0.950 . S
C324 C322 1.391 . S
C324 C325 1.400 . S
C325 C319 1.491 . S
C325 C324 1.400 . S
C325 C326 1.398 . S
C326 H314 0.950 . S
C326 C325 1.398 . S
C326 C327 1.391 . S
C327 H315 0.950 . S
C327 C323 1.393 . S
C327 C326 1.391 . S
H328 C336 0.950 . S
H329 C341 0.950 . S
H330 C338 0.950 . S
H331 C340 0.950 . S
H332 C342 0.950 . S
H333 C344 0.950 . S
H334 C346 0.950 . S
H335 C347 0.950 . S
C336 H328 0.950 . S
C336 C337 1.386 . S
C336 C338 1.391 . S
C337 C336 1.386 . S
C337 C341 1.393 . S
C338 H330 0.950 . S
C338 C336 1.391 . S
C338 C339 1.400 . S
C339 C338 1.400 . S
C339 C340 1.398 . S
C339 C345 1.491 . S
C340 H331 0.950 . S
C340 C339 1.398 . S
C340 C341 1.391 . S
C341 H329 0.950 . S
C341 C337 1.393 . S
C341 C340 1.391 . S
C342 H332 0.950 . S
C342 C343 1.386 . S
C342 C344 1.391 . S
C343 C342 1.386 . S
C343 C347 1.393 . S
C344 H333 0.950 . S
C344 C342 1.391 . S
C344 C345 1.400 . S
C345 C339 1.491 . S
C345 C344 1.400 . S
C345 C346 1.398 . S
C346 H334 0.950 . S
C346 C345 1.398 . S
C346 C347 1.391 . S
C347 H335 0.950 . S
C347 C343 1.393 . S
C347 C346 1.391 . S
H348 C356 0.950 . S
H349 C361 0.950 . S
H350 C358 0.950 . S
H351 C360 0.950 . S
H352 C362 0.950 . S
H353 C364 0.950 . S
H354 C366 0.950 . S
H355 C367 0.950 1_545 S
C356 H348 0.950 . S
C356 C357 1.386 . S
C356 C358 1.391 . S
C357 C356 1.386 . S
C357 C361 1.393 . S
C358 H350 0.950 . S
C358 C356 1.391 . S
C358 C359 1.400 . S
C359 C358 1.400 . S
C359 C360 1.398 . S
C359 C365 1.491 . S
C360 H351 0.950 . S
C360 C359 1.398 . S
C360 C361 1.391 . S
C361 H349 0.950 . S
C361 C357 1.393 . S
C361 C360 1.391 . S
C362 H352 0.950 . S
C362 C363 1.386 . S
C362 C364 1.391 . S
C363 C362 1.386 . S
C363 C367 1.393 . S
C364 H353 0.950 . S
C364 C362 1.391 . S
C364 C365 1.400 . S
C365 C359 1.491 . S
C365 C364 1.400 . S
C365 C366 1.398 . S
C366 H354 0.950 . S
C366 C365 1.398 . S
C366 C367 1.391 . S
C367 H355 0.950 1_565 S
C367 C363 1.393 . S
C367 C366 1.391 . S
H368 C376 0.950 . S
H369 C381 0.950 . S
H370 C378 0.950 . S
H371 C380 0.950 . S
H372 C382 0.950 . S
H373 C384 0.950 . S
H374 C386 0.950 . S
H375 C387 0.950 . S
C376 H368 0.950 . S
C376 C377 1.386 . S
C376 C378 1.391 . S
C377 C376 1.386 . S
C377 C381 1.393 . S
C378 H370 0.950 . S
C378 C376 1.391 . S
C378 C379 1.400 . S
C379 C378 1.400 . S
C379 C380 1.398 . S
C379 C385 1.491 . S
C380 H371 0.950 . S
C380 C379 1.398 . S
C380 C381 1.391 . S
C381 H369 0.950 . S
C381 C377 1.393 . S
C381 C380 1.391 . S
C382 H372 0.950 . S
C382 C383 1.386 . S
C382 C384 1.391 . S
C383 C382 1.386 . S
C383 C387 1.393 . S
C384 H373 0.950 . S
C384 C382 1.391 . S
C384 C385 1.400 . S
C385 C379 1.491 . S
C385 C384 1.400 . S
C385 C386 1.398 . S
C386 H374 0.950 . S
C386 C385 1.398 . S
C386 C387 1.391 . S
C387 H375 0.950 . S
C387 C383 1.393 . S
C387 C386 1.391 . S
H388 C396 0.950 . S
H389 C401 0.950 . S
H390 C398 0.950 . S
H391 C400 0.950 . S
H392 C402 0.950 . S
H393 C404 0.950 . S
H394 C406 0.950 . S
H395 C407 0.950 . S
C396 H388 0.950 . S
C396 C397 1.386 . S
C396 C398 1.391 . S
C397 C396 1.386 . S
C397 C401 1.393 . S
C398 H390 0.950 . S
C398 C396 1.391 . S
C398 C399 1.400 . S
C399 C398 1.400 . S
C399 C400 1.398 . S
C399 C405 1.491 . S
C400 H391 0.950 . S
C400 C399 1.398 . S
C400 C401 1.391 . S
C401 H389 0.950 . S
C401 C397 1.393 . S
C401 C400 1.391 . S
C402 H392 0.950 . S
C402 C403 1.386 . S
C402 C404 1.391 . S
C403 C402 1.386 . S
C403 C407 1.393 . S
C404 H393 0.950 . S
C404 C402 1.391 . S
C404 C405 1.400 . S
C405 C399 1.491 . S
C405 C404 1.400 . S
C405 C406 1.398 . S
C406 H394 0.950 . S
C406 C405 1.398 . S
C406 C407 1.391 . S
C407 H395 0.950 . S
C407 C403 1.393 . S
C407 C406 1.391 . S
H408 C416 0.950 . S
H409 C421 0.950 . S
H410 C418 0.950 . S
H411 C420 0.950 . S
H412 C422 0.950 . S
H413 C424 0.950 . S
H414 C426 0.950 . S
H415 C427 0.950 . S
C416 H408 0.950 . S
C416 C417 1.386 . S
C416 C418 1.391 . S
C417 C416 1.386 . S
C417 C421 1.393 . S
C418 H410 0.950 . S
C418 C416 1.391 . S
C418 C419 1.400 . S
C419 C418 1.400 . S
C419 C420 1.398 . S
C419 C425 1.491 . S
C420 H411 0.950 . S
C420 C419 1.398 . S
C420 C421 1.391 . S
C421 H409 0.950 . S
C421 C417 1.393 . S
C421 C420 1.391 . S
C422 H412 0.950 . S
C422 C423 1.386 . S
C422 C424 1.391 . S
C423 C422 1.386 . S
C423 C427 1.393 . S
C424 H413 0.950 . S
C424 C422 1.391 . S
C424 C425 1.400 . S
C425 C419 1.491 . S
C425 C424 1.400 . S
C425 C426 1.398 . S
C426 H414 0.950 . S
C426 C425 1.398 . S
C426 C427 1.391 . S
C427 H415 0.950 . S
C427 C423 1.393 . S
C427 C426 1.391 . S
H428 C436 0.950 . S
H429 C441 0.950 . S
H430 C438 0.950 . S
H431 C440 0.950 . S
H432 C442 0.950 . S
H433 C444 0.950 . S
H434 C446 0.950 . S
H435 C447 0.950 . S
C436 H428 0.950 . S
C436 C437 1.386 . S
C436 C438 1.391 . S
C437 C436 1.386 . S
C437 C441 1.393 . S
C438 H430 0.950 . S
C438 C436 1.391 . S
C438 C439 1.400 . S
C439 C438 1.400 . S
C439 C440 1.398 . S
C439 C445 1.491 . S
C440 H431 0.950 . S
C440 C439 1.398 . S
C440 C441 1.391 . S
C441 H429 0.950 . S
C441 C437 1.393 . S
C441 C440 1.391 . S
C442 H432 0.950 . S
C442 C443 1.386 1_556 S
C442 C444 1.391 . S
C443 C442 1.386 1_554 S
C443 C447 1.393 . S
C444 H433 0.950 . S
C444 C442 1.391 . S
C444 C445 1.400 . S
C445 C439 1.491 . S
C445 C444 1.400 . S
C445 C446 1.398 1_556 S
C446 H434 0.950 . S
C446 C445 1.398 1_554 S
C446 C447 1.391 . S
C447 H435 0.950 . S
C447 C443 1.393 . S
C447 C446 1.391 . S
H448 C456 0.950 . S
H449 C461 0.950 . S
H450 C458 0.950 . S
H451 C460 0.950 . S
H452 C462 0.950 . S
H453 C464 0.950 . S
H454 C466 0.950 . S
H455 C467 0.950 . S
C456 H448 0.950 . S
C456 C457 1.386 . S
C456 C458 1.391 . S
C457 C456 1.386 . S
C457 C461 1.393 . S
C458 H450 0.950 . S
C458 C456 1.391 . S
C458 C459 1.400 . S
C459 C458 1.400 . S
C459 C460 1.398 . S
C459 C465 1.491 . S
C460 H451 0.950 . S
C460 C459 1.398 . S
C460 C461 1.391 . S
C461 H449 0.950 . S
C461 C457 1.393 . S
C461 C460 1.391 . S
C462 H452 0.950 . S
C462 C463 1.386 . S
C462 C464 1.391 . S
C463 C462 1.386 . S
C463 C467 1.393 . S
C464 H453 0.950 . S
C464 C462 1.391 . S
C464 C465 1.400 . S
C465 C459 1.491 . S
C465 C464 1.400 . S
C465 C466 1.398 . S
C466 H454 0.950 . S
C466 C465 1.398 . S
C466 C467 1.391 . S
C467 H455 0.950 . S
C467 C463 1.393 . S
C467 C466 1.391 . S
H468 C476 0.950 . S
H469 C481 0.950 . S
H470 C478 0.950 . S
H471 C480 0.950 . S
H472 C482 0.950 . S
H473 C484 0.950 . S
H474 C486 0.950 . S
H475 C487 0.950 . S
C476 H468 0.950 . S
C476 C477 1.386 . S
C476 C478 1.391 . S
C477 C476 1.386 . S
C477 C481 1.393 . S
C478 H470 0.950 . S
C478 C476 1.391 . S
C478 C479 1.400 . S
C479 C478 1.400 . S
C479 C480 1.398 . S
C479 C485 1.491 . S
C480 H471 0.950 . S
C480 C479 1.398 . S
C480 C481 1.391 . S
C481 H469 0.950 . S
C481 C477 1.393 . S
C481 C480 1.391 . S
C482 H472 0.950 . S
C482 C483 1.386 . S
C482 C484 1.391 . S
C483 C482 1.386 . S
C483 C487 1.393 . S
C484 H473 0.950 . S
C484 C482 1.391 . S
C484 C485 1.400 . S
C485 C479 1.491 . S
C485 C484 1.400 . S
C485 C486 1.398 . S
C486 H474 0.950 . S
C486 C485 1.398 . S
C486 C487 1.391 . S
C487 H475 0.950 . S
C487 C483 1.393 . S
C487 C486 1.391 . S
H488 C496 0.950 . S
H489 C501 0.950 . S
H490 C498 0.950 . S
H491 C500 0.950 . S
H492 C502 0.950 . S
H493 C504 0.950 . S
H494 C506 0.950 . S
H495 C507 0.950 . S
C496 H488 0.950 . S
C496 C497 1.386 . S
C496 C498 1.391 . S
C497 C496 1.386 . S
C497 C501 1.393 . S
C498 H490 0.950 . S
C498 C496 1.391 . S
C498 C499 1.400 . S
C499 C498 1.400 . S
C499 C500 1.398 . S
C499 C505 1.491 . S
C500 H491 0.950 . S
C500 C499 1.398 . S
C500 C501 1.391 . S
C501 H489 0.950 . S
C501 C497 1.393 . S
C501 C500 1.391 . S
C502 H492 0.950 . S
C502 C503 1.386 . S
C502 C504 1.391 . S
C503 C502 1.386 . S
C503 C507 1.393 . S
C504 H493 0.950 . S
C504 C502 1.391 . S
C504 C505 1.400 . S
C505 C499 1.491 . S
C505 C504 1.400 . S
C505 C506 1.398 . S
C506 H494 0.950 . S
C506 C505 1.398 . S
C506 C507 1.391 . S
C507 H495 0.950 . S
C507 C503 1.393 . S
C507 C506 1.391 . S
H508 C516 0.950 . S
H509 C521 0.950 . S
H510 C518 0.950 . S
H511 C520 0.950 . S
H512 C522 0.950 . S
H513 C524 0.950 . S
H514 C526 0.950 . S
H515 C527 0.950 . S
C516 H508 0.950 . S
C516 C517 1.386 . S
C516 C518 1.391 . S
C517 C516 1.386 . S
C517 C521 1.393 . S
C518 H510 0.950 . S
C518 C516 1.391 . S
C518 C519 1.400 . S
C519 C518 1.400 . S
C519 C520 1.398 . S
C519 C525 1.491 . S
C520 H511 0.950 . S
C520 C519 1.398 . S
C520 C521 1.391 . S
C521 H509 0.950 . S
C521 C517 1.393 . S
C521 C520 1.391 . S
C522 H512 0.950 . S
C522 C523 1.386 . S
C522 C524 1.391 . S
C523 C522 1.386 . S
C523 C527 1.393 . S
C524 H513 0.950 . S
C524 C522 1.391 . S
C524 C525 1.400 . S
C525 C519 1.491 . S
C525 C524 1.400 . S
C525 C526 1.398 . S
C526 H514 0.950 . S
C526 C525 1.398 . S
C526 C527 1.391 . S
C527 H515 0.950 . S
C527 C523 1.393 . S
C527 C526 1.391 . S
H528 C536 0.950 . S
H529 C541 0.950 . S
H530 C538 0.950 . S
H531 C540 0.950 . S
H532 C542 0.950 . S
H533 C544 0.950 . S
H534 C546 0.950 . S
H535 C547 0.950 . S
C536 H528 0.950 . S
C536 C537 1.386 . S
C536 C538 1.391 . S
C537 C536 1.386 . S
C537 C541 1.393 . S
C538 H530 0.950 . S
C538 C536 1.391 . S
C538 C539 1.400 . S
C539 C538 1.400 . S
C539 C540 1.398 . S
C539 C545 1.491 . S
C540 H531 0.950 . S
C540 C539 1.398 . S
C540 C541 1.391 . S
C541 H529 0.950 . S
C541 C537 1.393 . S
C541 C540 1.391 . S
C542 H532 0.950 . S
C542 C543 1.386 . S
C542 C544 1.391 . S
C543 C542 1.386 . S
C543 C547 1.393 . S
C544 H533 0.950 . S
C544 C542 1.391 . S
C544 C545 1.400 . S
C545 C539 1.491 . S
C545 C544 1.400 . S
C545 C546 1.398 . S
C546 H534 0.950 . S
C546 C545 1.398 . S
C546 C547 1.391 . S
C547 H535 0.950 . S
C547 C543 1.393 . S
C547 C546 1.391 . S
H548 C556 0.950 . S
H549 C561 0.950 . S
H550 C558 0.950 . S
H551 C560 0.950 . S
H552 C562 0.950 . S
H553 C564 0.950 . S
H554 C566 0.950 . S
H555 C567 0.950 . S
C556 H548 0.950 . S
C556 C557 1.386 . S
C556 C558 1.391 . S
C557 C556 1.386 . S
C557 C561 1.393 . S
C558 H550 0.950 . S
C558 C556 1.391 . S
C558 C559 1.400 . S
C559 C558 1.400 . S
C559 C560 1.398 . S
C559 C565 1.491 . S
C560 H551 0.950 . S
C560 C559 1.398 . S
C560 C561 1.391 . S
C561 H549 0.950 . S
C561 C557 1.393 . S
C561 C560 1.391 . S
C562 H552 0.950 . S
C562 C563 1.386 . S
C562 C564 1.391 . S
C563 C562 1.386 . S
C563 C567 1.393 . S
C564 H553 0.950 . S
C564 C562 1.391 . S
C564 C565 1.400 . S
C565 C559 1.491 . S
C565 C564 1.400 . S
C565 C566 1.398 . S
C566 H554 0.950 . S
C566 C565 1.398 . S
C566 C567 1.391 . S
C567 H555 0.950 . S
C567 C563 1.393 . S
C567 C566 1.391 . S
H568 C576 0.950 . S
H569 C581 0.950 . S
H570 C578 0.950 . S
H571 C580 0.950 . S
H572 C582 0.950 1_554 S
H573 C584 0.950 . S
H574 C586 0.950 . S
H575 C587 0.950 . S
C576 H568 0.950 . S
C576 C577 1.386 . S
C576 C578 1.391 . S
C577 C576 1.386 . S
C577 C581 1.393 . S
C578 H570 0.950 . S
C578 C576 1.391 . S
C578 C579 1.400 . S
C579 C578 1.400 . S
C579 C580 1.398 . S
C579 C585 1.491 . S
C580 H571 0.950 . S
C580 C579 1.398 . S
C580 C581 1.391 . S
C581 H569 0.950 . S
C581 C577 1.393 . S
C581 C580 1.391 . S
C582 H572 0.950 1_556 S
C582 C583 1.386 . S
C582 C584 1.391 . S
C583 C582 1.386 . S
C583 C587 1.393 . S
C584 H573 0.950 . S
C584 C582 1.391 . S
C584 C585 1.400 . S
C585 C579 1.491 . S
C585 C584 1.400 . S
C585 C586 1.398 . S
C586 H574 0.950 . S
C586 C585 1.398 . S
C586 C587 1.391 . S
C587 H575 0.950 . S
C587 C583 1.393 . S
C587 C586 1.391 . S
H588 C596 0.950 . S
H589 C601 0.950 . S
H590 C598 0.950 . S
H591 C600 0.950 . S
H592 C602 0.950 . S
H593 C604 0.950 . S
H594 C606 0.950 . S
H595 C607 0.950 . S
C596 H588 0.950 . S
C596 C597 1.386 . S
C596 C598 1.391 . S
C597 C596 1.386 . S
C597 C601 1.393 . S
C598 H590 0.950 . S
C598 C596 1.391 . S
C598 C599 1.400 . S
C599 C598 1.400 . S
C599 C600 1.398 . S
C599 C605 1.491 . S
C600 H591 0.950 . S
C600 C599 1.398 . S
C600 C601 1.391 . S
C601 H589 0.950 . S
C601 C597 1.393 . S
C601 C600 1.391 . S
C602 H592 0.950 . S
C602 C603 1.386 . S
C602 C604 1.391 . S
C603 C602 1.386 . S
C603 C607 1.393 . S
C604 H593 0.950 . S
C604 C602 1.391 . S
C604 C605 1.400 . S
C605 C599 1.491 . S
C605 C604 1.400 . S
C605 C606 1.398 . S
C606 H594 0.950 . S
C606 C605 1.398 . S
C606 C607 1.391 . S
C607 H595 0.950 . S
C607 C603 1.393 . S
C607 C606 1.391 . S
H608 C616 0.950 . S
H609 C621 0.950 . S
H610 C618 0.950 . S
H611 C620 0.950 . S
H612 C622 0.950 . S
H613 C624 0.950 . S
H614 C626 0.950 . S
H615 C627 0.950 . S
C616 H608 0.950 . S
C616 C617 1.386 . S
C616 C618 1.391 . S
C617 C616 1.386 . S
C617 C621 1.393 . S
C618 H610 0.950 . S
C618 C616 1.391 . S
C618 C619 1.400 . S
C619 C618 1.400 . S
C619 C620 1.398 . S
C619 C625 1.491 . S
C620 H611 0.950 . S
C620 C619 1.398 . S
C620 C621 1.391 . S
C621 H609 0.950 . S
C621 C617 1.393 . S
C621 C620 1.391 . S
C622 H612 0.950 . S
C622 C623 1.386 . S
C622 C624 1.391 . S
C623 C622 1.386 . S
C623 C627 1.393 . S
C624 H613 0.950 . S
C624 C622 1.391 . S
C624 C625 1.400 . S
C625 C619 1.491 . S
C625 C624 1.400 . S
C625 C626 1.398 . S
C626 H614 0.950 . S
C626 C625 1.398 . S
C626 C627 1.391 . S
C627 H615 0.950 . S
C627 C623 1.393 . S
C627 C626 1.391 . S
H628 C636 0.950 . S
H629 C641 0.950 . S
H630 C638 0.950 . S
H631 C640 0.950 . S
H632 C642 0.950 . S
H633 C644 0.950 . S
H634 C646 0.950 . S
H635 C647 0.950 . S
C636 H628 0.950 . S
C636 C637 1.386 . S
C636 C638 1.391 . S
C637 C636 1.386 . S
C637 C641 1.393 . S
C638 H630 0.950 . S
C638 C636 1.391 . S
C638 C639 1.400 . S
C639 C638 1.400 . S
C639 C640 1.398 . S
C639 C645 1.491 . S
C640 H631 0.950 . S
C640 C639 1.398 . S
C640 C641 1.391 . S
C641 H629 0.950 . S
C641 C637 1.393 . S
C641 C640 1.391 . S
C642 H632 0.950 . S
C642 C643 1.386 . S
C642 C644 1.391 . S
C643 C642 1.386 . S
C643 C647 1.393 . S
C644 H633 0.950 . S
C644 C642 1.391 . S
C644 C645 1.400 . S
C645 C639 1.491 . S
C645 C644 1.400 . S
C645 C646 1.398 . S
C646 H634 0.950 . S
C646 C645 1.398 . S
C646 C647 1.391 . S
C647 H635 0.950 . S
C647 C643 1.393 . S
C647 C646 1.391 . S
H648 C656 0.950 . S
H649 C661 0.950 . S
H650 C658 0.950 . S
H651 C660 0.950 . S
H652 C662 0.950 . S
H653 C664 0.950 . S
H654 C666 0.950 . S
H655 C667 0.950 . S
C656 H648 0.950 . S
C656 C657 1.386 . S
C656 C658 1.391 . S
C657 C656 1.386 . S
C657 C661 1.393 . S
C658 H650 0.950 . S
C658 C656 1.391 . S
C658 C659 1.400 . S
C659 C658 1.400 . S
C659 C660 1.398 . S
C659 C665 1.491 . S
C660 H651 0.950 . S
C660 C659 1.398 . S
C660 C661 1.391 . S
C661 H649 0.950 . S
C661 C657 1.393 . S
C661 C660 1.391 . S
C662 H652 0.950 . S
C662 C663 1.386 . S
C662 C664 1.391 . S
C663 C662 1.386 . S
C663 C667 1.393 . S
C664 H653 0.950 . S
C664 C662 1.391 . S
C664 C665 1.400 . S
C665 C659 1.491 . S
C665 C664 1.400 . S
C665 C666 1.398 . S
C666 H654 0.950 . S
C666 C665 1.398 . S
C666 C667 1.391 . S
C667 H655 0.950 . S
C667 C663 1.393 . S
C667 C666 1.391 . S
H668 C676 0.950 . S
H669 C681 0.950 . S
H670 C678 0.950 . S
H671 C680 0.950 . S
H672 C682 0.950 . S
H673 C684 0.950 . S
H674 C686 0.950 . S
H675 C687 0.950 . S
C676 H668 0.950 . S
C676 C677 1.386 . S
C676 C678 1.391 . S
C677 C676 1.386 . S
C677 C681 1.393 . S
C678 H670 0.950 . S
C678 C676 1.391 . S
C678 C679 1.400 . S
C679 C678 1.400 . S
C679 C680 1.398 . S
C679 C685 1.491 . S
C680 H671 0.950 . S
C680 C679 1.398 . S
C680 C681 1.391 . S
C681 H669 0.950 . S
C681 C677 1.393 . S
C681 C680 1.391 . S
C682 H672 0.950 . S
C682 C683 1.386 . S
C682 C684 1.391 . S
C683 C682 1.386 . S
C683 C687 1.393 . S
C684 H673 0.950 . S
C684 C682 1.391 . S
C684 C685 1.400 . S
C685 C679 1.491 . S
C685 C684 1.400 . S
C685 C686 1.398 . S
C686 H674 0.950 . S
C686 C685 1.398 . S
C686 C687 1.391 . S
C687 H675 0.950 . S
C687 C683 1.393 . S
C687 C686 1.391 . S
H688 C696 0.950 . S
H689 C701 0.950 . S
H690 C698 0.950 . S
H691 C700 0.950 . S
H692 C702 0.950 . S
H693 C704 0.950 . S
H694 C706 0.950 . S
H695 C707 0.950 . S
C696 H688 0.950 . S
C696 C697 1.386 . S
C696 C698 1.391 . S
C697 C696 1.386 . S
C697 C701 1.393 . S
C698 H690 0.950 . S
C698 C696 1.391 . S
C698 C699 1.400 . S
C699 C698 1.400 . S
C699 C700 1.398 . S
C699 C705 1.491 . S
C700 H691 0.950 . S
C700 C699 1.398 . S
C700 C701 1.391 . S
C701 H689 0.950 . S
C701 C697 1.393 . S
C701 C700 1.391 . S
C702 H692 0.950 . S
C702 C703 1.386 . S
C702 C704 1.391 . S
C703 C702 1.386 . S
C703 C707 1.393 . S
C704 H693 0.950 . S
C704 C702 1.391 . S
C704 C705 1.400 . S
C705 C699 1.491 . S
C705 C704 1.400 . S
C705 C706 1.398 . S
C706 H694 0.950 . S
C706 C705 1.398 . S
C706 C707 1.391 . S
C707 H695 0.950 . S
C707 C703 1.393 . S
C707 C706 1.391 . S
H708 C716 0.950 . S
H709 C721 0.950 . S
H710 C718 0.950 . S
H711 C720 0.950 . S
H712 C722 0.950 . S
H713 C724 0.950 . S
H714 C726 0.950 . S
H715 C727 0.950 . S
C716 H708 0.950 . S
C716 C717 1.386 . S
C716 C718 1.391 . S
C717 C716 1.386 . S
C717 C721 1.393 . S
C718 H710 0.950 . S
C718 C716 1.391 . S
C718 C719 1.400 . S
C719 C718 1.400 . S
C719 C720 1.398 . S
C719 C725 1.491 . S
C720 H711 0.950 . S
C720 C719 1.398 . S
C720 C721 1.391 . S
C721 H709 0.950 . S
C721 C717 1.393 . S
C721 C720 1.391 . S
C722 H712 0.950 . S
C722 C723 1.386 . S
C722 C724 1.391 . S
C723 C722 1.386 . S
C723 C727 1.393 . S
C724 H713 0.950 . S
C724 C722 1.391 . S
C724 C725 1.400 . S
C725 C719 1.491 . S
C725 C724 1.400 . S
C725 C726 1.398 . S
C726 H714 0.950 . S
C726 C725 1.398 . S
C726 C727 1.391 . S
C727 H715 0.950 . S
C727 C723 1.393 . S
C727 C726 1.391 . S
C257 C5 0.972 . S
C263 C95 1.262 . S
C277 C18 1.038 . S
C283 C144 1.107 . S
C303 C170 2.306 . S
C297 C30 2.326 . S
C317 C41 2.053 . S
C323 C218 2.001 . S
C343 C130 2.363 . S
C337 C7 2.156 . S
C363 C98 1.003 . S
C357 C16 0.942 . S
C383 C219 1.940 . S
C377 C29 1.905 . S
C403 C187 1.202 . S
C397 C38 1.108 . S
C417 C8 1.528 . S
C423 C215 1.623 . S
C443 C147 2.551 . S
C437 C27 2.382 . S
C457 C40 2.419 . S
C463 C99 2.440 . S
C477 C19 0.744 . S
C483 C184 0.722 . S
C503 C104 1.161 . S
C497 C51 1.003 . S
C517 C62 1.387 . S
C523 C135 1.359 . S
C537 C74 2.409 . S
C543 C179 2.396 . S
C557 C84 2.165 . S
C563 C227 2.224 . S
C577 C49 1.990 . S
C583 C139 2.572 1_556 S
C603 C107 0.989 . S
C597 C63 1.010 . S
C623 C210 1.815 . S
C617 C71 1.666 . S
C643 C178 1.319 . S
C637 C85 1.325 . S
C657 C52 1.533 . S
C663 C224 1.622 . S
C683 C138 2.613 . S
C677 C73 2.656 . S
C703 C90 1.953 . S
C697 C82 1.692 . S
C717 C60 0.796 . S
C723 C175 0.840 . S
