# Generated by pormake.
# Topology myd, (4,6)-cn, num edge types: 1
# Building blocks:
#     Node 0, Type 0, BuildingBlock: KOZSID_clean_sbu_0, # of connection points: 4
#     Node 1, Type 0, BuildingBlock: KOZSID_clean_sbu_0, # of connection points: 4
#     Node 2, Type 0, BuildingBlock: KOZSID_clean_sbu_0, # of connection points: 4
#     Node 3, Type 0, BuildingBlock: KOZSID_clean_sbu_0, # of connection points: 4
#     Node 4, Type 0, BuildingBlock: KOZSID_clean_sbu_0, # of connection points: 4
#     Node 5, Type 0, BuildingBlock: KOZSID_clean_sbu_0, # of connection points: 4
#     Node 6, Type 0, BuildingBlock: KOZSID_clean_sbu_0, # of connection points: 4
#     Node 7, Type 0, BuildingBlock: KOZSID_clean_sbu_0, # of connection points: 4
#     Node 8, Type 0, BuildingBlock: KOZSID_clean_sbu_0, # of connection points: 4
#     Node 9, Type 0, BuildingBlock: KOZSID_clean_sbu_0, # of connection points: 4
#     Node 10, Type 0, BuildingBlock: KOZSID_clean_sbu_0, # of connection points: 4
#     Node 11, Type 0, BuildingBlock: KOZSID_clean_sbu_0, # of connection points: 4
#     Node 12, Type 1, BuildingBlock: LEVNOQ01_clean_sbu_1, # of connection points: 6
#     Node 13, Type 1, BuildingBlock: LEVNOQ01_clean_sbu_1, # of connection points: 6
#     Node 14, Type 1, BuildingBlock: LEVNOQ01_clean_sbu_1, # of connection points: 6
#     Node 15, Type 1, BuildingBlock: LEVNOQ01_clean_sbu_1, # of connection points: 6
#     Node 16, Type 1, BuildingBlock: LEVNOQ01_clean_sbu_1, # of connection points: 6
#     Node 17, Type 1, BuildingBlock: LEVNOQ01_clean_sbu_1, # of connection points: 6
#     Node 18, Type 1, BuildingBlock: LEVNOQ01_clean_sbu_1, # of connection points: 6
#     Node 19, Type 1, BuildingBlock: LEVNOQ01_clean_sbu_1, # of connection points: 6
#     Edge 20, Type (0, 1), BuildingBlock: KIFKEQ_clean_linker_1, # of connection points: 2
#     Edge 21, Type (0, 1), BuildingBlock: KIFKEQ_clean_linker_1, # of connection points: 2
#     Edge 22, Type (0, 1), BuildingBlock: KIFKEQ_clean_linker_1, # of connection points: 2
#     Edge 23, Type (0, 1), BuildingBlock: KIFKEQ_clean_linker_1, # of connection points: 2
#     Edge 24, Type (0, 1), BuildingBlock: KIFKEQ_clean_linker_1, # of connection points: 2
#     Edge 25, Type (0, 1), BuildingBlock: KIFKEQ_clean_linker_1, # of connection points: 2
#     Edge 26, Type (0, 1), BuildingBlock: KIFKEQ_clean_linker_1, # of connection points: 2
#     Edge 27, Type (0, 1), BuildingBlock: KIFKEQ_clean_linker_1, # of connection points: 2
#     Edge 28, Type (0, 1), BuildingBlock: KIFKEQ_clean_linker_1, # of connection points: 2
#     Edge 29, Type (0, 1), BuildingBlock: KIFKEQ_clean_linker_1, # of connection points: 2
#     Edge 30, Type (0, 1), BuildingBlock: KIFKEQ_clean_linker_1, # of connection points: 2
#     Edge 31, Type (0, 1), BuildingBlock: KIFKEQ_clean_linker_1, # of connection points: 2
#     Edge 32, Type (0, 1), BuildingBlock: KIFKEQ_clean_linker_1, # of connection points: 2
#     Edge 33, Type (0, 1), BuildingBlock: KIFKEQ_clean_linker_1, # of connection points: 2
#     Edge 34, Type (0, 1), BuildingBlock: KIFKEQ_clean_linker_1, # of connection points: 2
#     Edge 35, Type (0, 1), BuildingBlock: KIFKEQ_clean_linker_1, # of connection points: 2
#     Edge 36, Type (0, 1), BuildingBlock: KIFKEQ_clean_linker_1, # of connection points: 2
#     Edge 37, Type (0, 1), BuildingBlock: KIFKEQ_clean_linker_1, # of connection points: 2
#     Edge 38, Type (0, 1), BuildingBlock: KIFKEQ_clean_linker_1, # of connection points: 2
#     Edge 39, Type (0, 1), BuildingBlock: KIFKEQ_clean_linker_1, # of connection points: 2
#     Edge 40, Type (0, 1), BuildingBlock: KIFKEQ_clean_linker_1, # of connection points: 2
#     Edge 41, Type (0, 1), BuildingBlock: KIFKEQ_clean_linker_1, # of connection points: 2
#     Edge 42, Type (0, 1), BuildingBlock: KIFKEQ_clean_linker_1, # of connection points: 2
#     Edge 43, Type (0, 1), BuildingBlock: KIFKEQ_clean_linker_1, # of connection points: 2
#     Edge 44, Type (0, 1), BuildingBlock: KIFKEQ_clean_linker_1, # of connection points: 2
#     Edge 45, Type (0, 1), BuildingBlock: KIFKEQ_clean_linker_1, # of connection points: 2
#     Edge 46, Type (0, 1), BuildingBlock: KIFKEQ_clean_linker_1, # of connection points: 2
#     Edge 47, Type (0, 1), BuildingBlock: KIFKEQ_clean_linker_1, # of connection points: 2
#     Edge 48, Type (0, 1), BuildingBlock: KIFKEQ_clean_linker_1, # of connection points: 2
#     Edge 49, Type (0, 1), BuildingBlock: KIFKEQ_clean_linker_1, # of connection points: 2
#     Edge 50, Type (0, 1), BuildingBlock: KIFKEQ_clean_linker_1, # of connection points: 2
#     Edge 51, Type (0, 1), BuildingBlock: KIFKEQ_clean_linker_1, # of connection points: 2
#     Edge 52, Type (0, 1), BuildingBlock: KIFKEQ_clean_linker_1, # of connection points: 2
#     Edge 53, Type (0, 1), BuildingBlock: KIFKEQ_clean_linker_1, # of connection points: 2
#     Edge 54, Type (0, 1), BuildingBlock: KIFKEQ_clean_linker_1, # of connection points: 2
#     Edge 55, Type (0, 1), BuildingBlock: KIFKEQ_clean_linker_1, # of connection points: 2
#     Edge 56, Type (0, 1), BuildingBlock: KIFKEQ_clean_linker_1, # of connection points: 2
#     Edge 57, Type (0, 1), BuildingBlock: KIFKEQ_clean_linker_1, # of connection points: 2
#     Edge 58, Type (0, 1), BuildingBlock: KIFKEQ_clean_linker_1, # of connection points: 2
#     Edge 59, Type (0, 1), BuildingBlock: KIFKEQ_clean_linker_1, # of connection points: 2
#     Edge 60, Type (0, 1), BuildingBlock: KIFKEQ_clean_linker_1, # of connection points: 2
#     Edge 61, Type (0, 1), BuildingBlock: KIFKEQ_clean_linker_1, # of connection points: 2
#     Edge 62, Type (0, 1), BuildingBlock: KIFKEQ_clean_linker_1, # of connection points: 2
#     Edge 63, Type (0, 1), BuildingBlock: KIFKEQ_clean_linker_1, # of connection points: 2
#     Edge 64, Type (0, 1), BuildingBlock: KIFKEQ_clean_linker_1, # of connection points: 2
#     Edge 65, Type (0, 1), BuildingBlock: KIFKEQ_clean_linker_1, # of connection points: 2
#     Edge 66, Type (0, 1), BuildingBlock: KIFKEQ_clean_linker_1, # of connection points: 2
#     Edge 67, Type (0, 1), BuildingBlock: KIFKEQ_clean_linker_1, # of connection points: 2
# Relax obj value: 0.184
# Max RMSD: 0.194
# Mean RMSD: 0.138
data_MOF--net-myd--node1-KOZSID_clean_sbu_0--node2-LEVNOQ01_clean_sbu_1--edge1-KIFKEQ_clean_linker_1
_symmetry_space_group_name_H-M    P1
_symmetry_Int_Tables_number       1
_symmetry_cell_setting            triclinic
loop_
_symmetry_equiv_pos_as_xyz
'x, y, z'
_cell_length_a     51.066535
_cell_length_b     51.798659
_cell_length_c     50.753177
_cell_angle_alpha  92.302152
_cell_angle_beta   92.128599
_cell_angle_gamma 94.270139
loop_
_atom_site_label
_atom_site_type_symbol
_atom_site_fract_x
_atom_site_fract_y
_atom_site_fract_z
_atom_type_partial_charge
C0 C 0.99621 0.29985 0.33178 0.0
C1 C 0.97038 0.30352 0.33754 0.0
C2 C 0.95528 0.28339 0.32524 0.0
C3 C 0.97268 0.26867 0.31271 0.0
N4 N 0.99809 0.27764 0.31705 0.0
Co5 Co 0.02961 0.26435 0.30001 0.0
N6 N 0.007 0.23978 0.2758 0.0
C7 C 0.98056 0.23529 0.27603 0.0
C8 C 0.97037 0.21766 0.25684 0.0
C9 C 0.99153 0.21036 0.24359 0.0
C10 C 0.0136 0.22387 0.25567 0.0
N11 N 0.06116 0.25183 0.28249 0.0
C12 C 0.06274 0.23493 0.26156 0.0
C13 C 0.08868 0.23188 0.25564 0.0
C14 C 0.10398 0.24741 0.27345 0.0
C15 C 0.08662 0.25902 0.2892 0.0
N16 N 0.05183 0.28921 0.32433 0.0
C17 C 0.07832 0.29106 0.32731 0.0
C18 C 0.08801 0.31176 0.34346 0.0
C19 C 0.06648 0.32423 0.35059 0.0
C20 C 0.04483 0.31039 0.33833 0.0
N21 N 0.03158 0.23595 0.32564 0.0
C22 C 0.03483 0.18563 0.34456 0.0
C23 C 0.05737 0.20246 0.34321 0.0
C24 C 0.05527 0.22752 0.33405 0.0
C25 C 0.01056 0.19566 0.33976 0.0
C26 C 0.00941 0.22085 0.33109 0.0
N27 N 0.02793 0.29149 0.27398 0.0
C28 C 0.04982 0.32382 0.24784 0.0
C29 C 0.02643 0.3268 0.23354 0.0
C30 C 0.00361 0.31253 0.24051 0.0
C31 C 0.00477 0.29517 0.26073 0.0
C32 C 0.05013 0.30618 0.26788 0.0
H33 H 0.9868 0.28466 0.26518 0.0
H34 H 0.06859 0.30437 0.27796 0.0
H35 H 0.07318 0.2392 0.33293 0.0
H36 H 0.99029 0.22711 0.32783 0.0
C37 C 0.96565 0.2491 0.29345 0.0
C38 C 0.01813 0.31888 0.33898 0.0
C39 C 0.04032 0.22075 0.24736 0.0
C40 C 0.09346 0.27691 0.31028 0.0
H41 H 0.96312 0.31975 0.34839 0.0
H42 H 0.93403 0.28084 0.324 0.0
H43 H 0.94993 0.21123 0.25265 0.0
H44 H 0.99071 0.19671 0.22682 0.0
H45 H 0.09579 0.21956 0.24016 0.0
H46 H 0.12523 0.24994 0.27475 0.0
H47 H 0.10841 0.31826 0.34778 0.0
H48 H 0.06676 0.34216 0.36234 0.0
H49 H 0.07662 0.19592 0.34778 0.0
H50 H 0.99244 0.18381 0.34196 0.0
H51 H 0.06797 0.33454 0.24316 0.0
H52 H 0.98488 0.31473 0.23043 0.0
C53 C 0.98101 0.71694 0.11746 0.0
C54 C 0.95561 0.71006 0.10754 0.0
C55 C 0.93955 0.72561 0.12057 0.0
C56 C 0.95596 0.74087 0.13766 0.0
N57 N 0.98165 0.73656 0.13589 0.0
Co58 Co 0.01202 0.75279 0.15838 0.0
N59 N 0.98809 0.7745 0.17865 0.0
C60 C 0.96175 0.77508 0.17495 0.0
C61 C 0.95098 0.79328 0.19061 0.0
C62 C 0.97171 0.80542 0.20492 0.0
C63 C 0.99401 0.79379 0.19707 0.0
N64 N 0.04221 0.76847 0.18141 0.0
C65 C 0.04278 0.78768 0.20035 0.0
C66 C 0.06797 0.79346 0.21126 0.0
C67 C 0.08391 0.7774 0.1986 0.0
C68 C 0.06764 0.76278 0.18075 0.0
N69 N 0.03599 0.73205 0.13719 0.0
C70 C 0.0625 0.73258 0.13964 0.0
C71 C 0.07316 0.71541 0.12257 0.0
C72 C 0.05216 0.70295 0.10872 0.0
C73 C 0.02991 0.71325 0.11829 0.0
N74 N 0.01726 0.78128 0.13393 0.0
C75 C 0.02519 0.82786 0.10821 0.0
C76 C 0.0465 0.81463 0.11663 0.0
C77 C 0.04211 0.79138 0.12909 0.0
C78 C -0.00015 0.81642 0.11088 0.0
C79 C 0.99635 0.79314 0.1236 0.0
N80 N 0.00714 0.72432 0.1833 0.0
C81 C 0.02482 0.68923 0.20656 0.0
C82 C 0.0018 0.68505 0.2203 0.0
C83 C 0.98114 0.70058 0.21453 0.0
C84 C 0.98407 0.71965 0.19584 0.0
C85 C 0.02719 0.70894 0.18875 0.0
H86 H 0.96749 0.73052 0.19207 0.0
H87 H 0.04562 0.7113 0.17975 0.0
H88 H 0.05918 0.7825 0.13547 0.0
H89 H 0.97659 0.78563 0.12576 0.0
C90 C 0.94775 0.75886 0.15604 0.0
C91 C 0.00343 0.70246 0.11125 0.0
C92 C 0.02028 0.80169 0.20782 0.0
C93 C 0.07619 0.74642 0.16074 0.0
H94 H 0.94906 0.69483 0.09311 0.0
H95 H 0.91835 0.72524 0.11845 0.0
H96 H 0.93057 0.79755 0.19118 0.0
H97 H 0.97053 0.82123 0.21931 0.0
H98 H 0.07427 0.80832 0.22623 0.0
H99 H 0.10503 0.77728 0.20121 0.0
H100 H 0.09359 0.71134 0.12145 0.0
H101 H 0.0529 0.68715 0.0942 0.0
H102 H 0.06649 0.82244 0.11413 0.0
H103 H 0.98273 0.82594 0.10431 0.0
H104 H 0.0412 0.6774 0.20938 0.0
H105 H 0.96286 0.6985 0.22463 0.0
C106 C 0.34645 0.97866 0.27085 0.0
C107 C 0.35758 0.95502 0.27064 0.0
C108 C 0.34523 0.94013 0.2503 0.0
C109 C 0.32844 0.95598 0.23843 0.0
N110 N 0.33041 0.98031 0.24916 0.0
Co111 Co 0.31237 0.01067 0.23642 0.0
N112 N 0.28955 0.98812 0.21052 0.0
C113 C 0.29058 0.96232 0.20562 0.0
C114 C 0.27284 0.9522 0.18633 0.0
C115 C 0.25994 0.97279 0.17819 0.0
C116 C 0.27073 0.99443 0.19296 0.0
N117 N 0.29398 0.04118 0.2245 0.0
C118 C 0.27452 0.04248 0.20576 0.0
C119 C 0.26759 0.06771 0.20341 0.0
C120 C 0.28341 0.08286 0.22113 0.0
C121 C 0.29907 0.06613 0.23332 0.0
N122 N 0.3356 0.03268 0.26231 0.0
C123 C 0.3383 0.05879 0.26443 0.0
C124 C 0.35691 0.0681 0.28334 0.0
C125 C 0.36561 0.04654 0.29464 0.0
C126 C 0.35088 0.02535 0.28273 0.0
N127 N 0.33828 0.01655 0.20806 0.0
C128 C 0.36232 0.0266 0.15985 0.0
C129 C 0.35927 0.0466 0.17839 0.0
C130 C 0.34747 0.04118 0.20218 0.0
C131 C 0.3556 0.00127 0.16691 0.0
C132 C 0.3442 0.99671 0.1911 0.0
N133 N 0.28627 0.00534 0.26374 0.0
C134 C 0.26196 0.02261 0.29939 0.0
C135 C 0.24638 0.99931 0.30031 0.0
C136 C 0.2519 0.97875 0.28307 0.0
C137 C 0.27214 0.98201 0.26546 0.0
C138 C 0.28133 0.0253 0.2809 0.0
H139 H 0.27592 0.96555 0.25318 0.0
H140 H 0.29202 0.04379 0.28071 0.0
H141 H 0.34512 0.05752 0.21479 0.0
H142 H 0.33954 0.977 0.19499 0.0
C143 C 0.30905 0.94831 0.2189 0.0
C144 C 0.3498 0.9988 0.29231 0.0
C145 C 0.26318 0.02063 0.18882 0.0
C146 C 0.32011 0.07345 0.25142 0.0
H147 H 0.37259 0.94888 0.28408 0.0
H148 H 0.34767 0.91997 0.24528 0.0
H149 H 0.26994 0.93232 0.17875 0.0
H150 H 0.24466 0.97202 0.16276 0.0
H151 H 0.25307 0.07454 0.18981 0.0
H152 H 0.28397 0.1037 0.22418 0.0
H153 H 0.36237 0.08813 0.28931 0.0
H154 H 0.37989 0.04652 0.31093 0.0
H155 H 0.36472 0.06656 0.17405 0.0
H156 H 0.35864 0.98499 0.15358 0.0
H157 H 0.25929 0.0389 0.31279 0.0
H158 H 0.24044 0.9603 0.28267 0.0
C159 C 0.63847 0.46315 0.21167 0.0
C160 C 0.62834 0.43796 0.2054 0.0
C161 C 0.64096 0.42245 0.22193 0.0
C162 C 0.65801 0.43902 0.23713 0.0
N163 N 0.65663 0.46425 0.23179 0.0
Co164 Co 0.67882 0.49485 0.24775 0.0
N165 N 0.69916 0.4717 0.27014 0.0
C166 C 0.69602 0.44554 0.27086 0.0
C167 C 0.71103 0.43539 0.2902 0.0
C168 C 0.7243 0.45631 0.3029 0.0
C169 C 0.71663 0.47805 0.29035 0.0
N170 N 0.70094 0.52538 0.26371 0.0
C171 C 0.71888 0.52645 0.28406 0.0
C172 C 0.729 0.55168 0.29024 0.0
C173 C 0.71666 0.56716 0.27338 0.0
C174 C 0.6998 0.55058 0.25794 0.0
N175 N 0.658 0.51789 0.22575 0.0
C176 C 0.66054 0.54406 0.22534 0.0
C177 C 0.64363 0.55407 0.2075 0.0
C178 C 0.62986 0.53297 0.19544 0.0
C179 C 0.63934 0.51134 0.20666 0.0
N180 N 0.65411 0.49847 0.27687 0.0
C181 C 0.62976 0.50615 0.32517 0.0
C182 C 0.63459 0.52663 0.30859 0.0
C183 C 0.64666 0.5224 0.28474 0.0
C184 C 0.63535 0.48137 0.31624 0.0
C185 C 0.64692 0.4779 0.2919 0.0
N186 N 0.70421 0.4917 0.21883 0.0
C187 C 0.73 0.51137 0.18458 0.0
C188 C 0.74224 0.48859 0.17975 0.0
C189 C 0.73476 0.46714 0.19437 0.0
C190 C 0.71551 0.46895 0.21334 0.0
C191 C 0.71146 0.51259 0.20417 0.0
H192 H 0.71025 0.45179 0.22349 0.0
H193 H 0.70358 0.53084 0.20728 0.0
H194 H 0.65067 0.53905 0.27359 0.0
H195 H 0.65065 0.45857 0.28605 0.0
C196 C 0.67675 0.4313 0.25514 0.0
C197 C 0.63251 0.48508 0.19636 0.0
C198 C 0.72643 0.50424 0.29851 0.0
C199 C 0.6806 0.55837 0.24023 0.0
H200 H 0.61408 0.43132 0.18985 0.0
H201 H 0.63876 0.40151 0.2221 0.0
H202 H 0.71137 0.41531 0.29523 0.0
H203 H 0.73765 0.4557 0.31991 0.0
H204 H 0.74327 0.55827 0.30582 0.0
H205 H 0.71884 0.5881 0.27321 0.0
H206 H 0.64232 0.57419 0.20296 0.0
H207 H 0.61539 0.5333 0.17933 0.0
H208 H 0.63013 0.54611 0.31449 0.0
H209 H 0.63101 0.46476 0.32808 0.0
H210 H 0.73533 0.52852 0.17383 0.0
H211 H 0.74372 0.44902 0.19115 0.0
C212 C 0.29652 0.35895 0.98913 0.0
C213 C 0.30144 0.36589 0.96352 0.0
C214 C 0.28157 0.354 0.94772 0.0
C215 C 0.26592 0.34037 0.96447 0.0
N216 N 0.27404 0.34346 0.99015 0.0
Co217 Co 0.25947 0.32434 0.02066 0.0
N218 N 0.23365 0.30293 0.99674 0.0
C219 C 0.22919 0.3055 0.97056 0.0
C220 C 0.20929 0.28885 0.95964 0.0
C221 C 0.20016 0.27507 0.98012 0.0
C222 C 0.21513 0.28421 0.00247 0.0
N223 N 0.24609 0.30431 0.05103 0.0
C224 C 0.227 0.28476 0.05145 0.0
C225 C 0.22376 0.27618 0.07676 0.0
C226 C 0.24131 0.29108 0.09298 0.0
C227 C 0.25427 0.30775 0.07668 0.0
N228 N 0.28468 0.34657 0.04448 0.0
C229 C 0.28599 0.34747 0.07114 0.0
C230 C 0.30615 0.3641 0.08181 0.0
C231 C 0.31875 0.3739 0.06068 0.0
C232 C 0.30556 0.36251 0.03829 0.0
N233 N 0.23195 0.34947 0.0258 0.0
C234 C 0.18517 0.37492 0.03079 0.0
C235 C 0.19774 0.36532 0.05278 0.0
C236 C 0.22123 0.35331 0.04997 0.0
C237 C 0.19746 0.37337 0.0067 0.0
C238 C 0.22063 0.36078 0.00467 0.0
N239 N 0.28621 0.2989 0.01571 0.0
C240 C 0.32083 0.27444 0.03355 0.0
C241 C 0.32272 0.26106 0.00929 0.0
C242 C 0.30637 0.26742 0.98817 0.0
C243 C 0.2885 0.28633 0.99174 0.0
C244 C 0.30254 0.29307 0.03633 0.0
H245 H 0.27662 0.29045 0.97488 0.0
H246 H 0.30175 0.30239 0.05542 0.0
H247 H 0.22987 0.34674 0.06763 0.0
H248 H 0.22845 0.35983 0.98557 0.0
C249 C 0.24476 0.32292 0.95654 0.0
C250 C 0.31454 0.3659 0.01166 0.0
C251 C 0.21052 0.27491 0.0287 0.0
C252 C 0.27202 0.32859 0.08507 0.0
H253 H 0.31814 0.37748 0.95672 0.0
H254 H 0.27952 0.35419 0.92642 0.0
H255 H 0.20227 0.28694 0.93921 0.0
H256 H 0.18415 0.2601 0.97876 0.0
H257 H 0.20963 0.26123 0.08293 0.0
H258 H 0.24369 0.29046 0.11422 0.0
H259 H 0.3122 0.36724 0.10243 0.0
H260 H 0.33637 0.38693 0.06159 0.0
H261 H 0.18941 0.3669 0.07205 0.0
H262 H 0.18865 0.38092 0.98914 0.0
H263 H 0.33296 0.27015 0.05054 0.0
H264 H 0.30744 0.25797 0.96885 0.0
C265 C 0.20219 0.64664 0.4823 0.0
C266 C 0.19788 0.63658 0.4566 0.0
C267 C 0.21551 0.6498 0.44165 0.0
C268 C 0.2294 0.66707 0.45903 0.0
N269 N 0.22217 0.66529 0.4843 0.0
Co270 Co 0.23589 0.68747 0.51577 0.0
N271 N 0.26114 0.70768 0.49364 0.0
C272 C 0.26429 0.70433 0.46736 0.0
C273 C 0.28431 0.71996 0.458 0.0
C274 C 0.29502 0.7338 0.47963 0.0
C275 C 0.28086 0.72568 0.50109 0.0
N276 N 0.24939 0.71004 0.5471 0.0
C277 C 0.26988 0.7283 0.54933 0.0
C278 C 0.27359 0.73863 0.57496 0.0
C279 C 0.25493 0.72625 0.58951 0.0
C280 C 0.24094 0.70912 0.57203 0.0
N281 N 0.21141 0.66657 0.53802 0.0
C282 C 0.20894 0.66908 0.56441 0.0
C283 C 0.18987 0.65216 0.57378 0.0
C284 C 0.17925 0.63833 0.55197 0.0
C285 C 0.19253 0.64775 0.5306 0.0
N286 N 0.26361 0.66364 0.52295 0.0
C287 C 0.31143 0.64243 0.53372 0.0
C288 C 0.29504 0.64816 0.55415 0.0
C289 C 0.27118 0.6586 0.54832 0.0
C290 C 0.30218 0.64449 0.50776 0.0
C291 C 0.2781 0.65467 0.50284 0.0
N292 N 0.20817 0.71176 0.50867 0.0
C293 C 0.17141 0.73519 0.52293 0.0
C294 C 0.16965 0.74699 0.49875 0.0
C295 C 0.18711 0.74051 0.47947 0.0
C296 C 0.20579 0.72277 0.48466 0.0
C297 C 0.19086 0.71801 0.52756 0.0
H298 H 0.2181 0.71837 0.4689 0.0
H299 H 0.19161 0.71024 0.54666 0.0
H300 H 0.25992 0.66371 0.56472 0.0
H301 H 0.27232 0.65637 0.48267 0.0
C302 C 0.24896 0.68547 0.45216 0.0
C303 C 0.18497 0.64005 0.50346 0.0
C304 C 0.28719 0.73537 0.52813 0.0
C305 C 0.22252 0.68955 0.57915 0.0
H306 H 0.18293 0.62188 0.44929 0.0
H307 H 0.21747 0.6476 0.42053 0.0
H308 H 0.29078 0.72072 0.43796 0.0
H309 H 0.31168 0.74797 0.47956 0.0
H310 H 0.28882 0.75295 0.58252 0.0
H311 H 0.25272 0.72849 0.61059 0.0
H312 H 0.18358 0.6509 0.59385 0.0
H313 H 0.16293 0.62372 0.55158 0.0
H314 H 0.30129 0.64617 0.57455 0.0
H315 H 0.31396 0.63924 0.49133 0.0
H316 H 0.15834 0.73978 0.5385 0.0
H317 H 0.18627 0.74902 0.46033 0.0
C318 C 0.77687 0.84292 0.48024 0.0
C319 C 0.77979 0.84849 0.45393 0.0
C320 C 0.75916 0.83546 0.44007 0.0
C321 C 0.74501 0.82265 0.45861 0.0
N322 N 0.75481 0.82734 0.48361 0.0
Co323 Co 0.74203 0.81066 0.51632 0.0
N324 N 0.71486 0.78778 0.49541 0.0
C325 C 0.70928 0.78809 0.46916 0.0
C326 C 0.6892 0.77049 0.46041 0.0
C327 C 0.68117 0.75848 0.48243 0.0
C328 C 0.6968 0.76964 0.50349 0.0
N329 N 0.73018 0.79338 0.54897 0.0
C330 C 0.71088 0.77446 0.55199 0.0
C331 C 0.70863 0.76854 0.57829 0.0
C332 C 0.72714 0.78437 0.59239 0.0
C333 C 0.73958 0.79898 0.57399 0.0
N334 N 0.76892 0.83413 0.53706 0.0
C335 C 0.77205 0.83679 0.56359 0.0
C336 C 0.79304 0.8536 0.57197 0.0
C337 C 0.80429 0.8617 0.54943 0.0
C338 C 0.78949 0.84927 0.52857 0.0
N339 N 0.71489 0.83651 0.521 0.0
C340 C 0.66798 0.86203 0.52653 0.0
C341 C 0.68231 0.85476 0.54863 0.0
C342 C 0.70584 0.84274 0.54548 0.0
C343 C 0.67863 0.85815 0.50185 0.0
C344 C 0.70183 0.84558 0.49956 0.0
N345 N 0.76822 0.78434 0.51179 0.0
C346 C 0.80167 0.75852 0.53002 0.0
C347 C 0.80308 0.74447 0.50597 0.0
C348 C 0.7871 0.75143 0.48476 0.0
C349 C 0.77002 0.77116 0.48806 0.0
C350 C 0.78437 0.77825 0.53245 0.0
H351 H 0.75829 0.77537 0.47114 0.0
H352 H 0.78412 0.7882 0.5513 0.0
H353 H 0.71593 0.83812 0.5632 0.0
H354 H 0.70823 0.84278 0.48005 0.0
C355 C 0.72375 0.80452 0.45307 0.0
C356 C 0.79644 0.85126 0.50109 0.0
C357 C 0.6933 0.7627 0.5308 0.0
C358 C 0.75835 0.81971 0.57971 0.0
H359 H 0.79568 0.85998 0.4455 0.0
H360 H 0.75561 0.83445 0.41888 0.0
H361 H 0.68136 0.7668 0.44039 0.0
H362 H 0.66545 0.74331 0.48287 0.0
H363 H 0.69458 0.75473 0.58652 0.0
H364 H 0.73051 0.78569 0.6136 0.0
H365 H 0.80035 0.85807 0.59206 0.0
H366 H 0.82197 0.87446 0.5484 0.0
H367 H 0.67536 0.85824 0.56827 0.0
H368 H 0.6685 0.86385 0.48411 0.0
H369 H 0.81346 0.75404 0.54717 0.0
H370 H 0.78781 0.74184 0.46547 0.0
C371 C 0.49881 0.8122 0.84259 0.0
C372 C 0.47335 0.8164 0.84949 0.0
C373 C 0.45763 0.79551 0.83978 0.0
C374 C 0.47411 0.77983 0.82724 0.0
N375 N 0.49964 0.78906 0.82903 0.0
Co376 Co 0.52949 0.77461 0.80995 0.0
N377 N 0.50506 0.74878 0.78887 0.0
C378 C 0.47869 0.7452 0.7908 0.0
C379 C 0.46695 0.72657 0.77344 0.0
C380 C 0.487 0.7175 0.7597 0.0
C381 C 0.51003 0.73096 0.76976 0.0
N382 N 0.55937 0.76044 0.79082 0.0
C383 C 0.55941 0.74103 0.77196 0.0
C384 C 0.58478 0.73672 0.76494 0.0
C385 C 0.60131 0.75395 0.77984 0.0
C386 C 0.58521 0.76773 0.79516 0.0
N387 N 0.55355 0.80095 0.83074 0.0
C388 C 0.5801 0.80313 0.83095 0.0
C389 C 0.5911 0.82453 0.84525 0.0
C390 C 0.57032 0.83724 0.85392 0.0
C391 C 0.54775 0.82288 0.84428 0.0
N392 N 0.53378 0.74814 0.83726 0.0
C393 C 0.54111 0.70098 0.86154 0.0
C394 C 0.56228 0.71918 0.85883 0.0
C395 C 0.55817 0.74262 0.84687 0.0
C396 C 0.516 0.708 0.85479 0.0
C397 C 0.51277 0.73177 0.84347 0.0
N398 N 0.5254 0.80017 0.78249 0.0
C399 C 0.54385 0.83283 0.75431 0.0
C400 C 0.51878 0.83722 0.74426 0.0
C401 C 0.49723 0.82257 0.7535 0.0
C402 C 0.50094 0.80434 0.7724 0.0
C403 C 0.5467 0.81433 0.77337 0.0
H404 H 0.48371 0.79383 0.77862 0.0
H405 H 0.56624 0.81178 0.78058 0.0
H406 H 0.57516 0.75539 0.84471 0.0
H407 H 0.49311 0.73585 0.83892 0.0
C408 C 0.46548 0.75979 0.80903 0.0
C409 C 0.52127 0.83152 0.84721 0.0
C410 C 0.53608 0.72555 0.76096 0.0
C411 C 0.59369 0.78743 0.81393 0.0
H412 H 0.46628 0.83337 0.85906 0.0
H413 H 0.43639 0.79319 0.83978 0.0
H414 H 0.44626 0.72035 0.77104 0.0
H415 H 0.48482 0.70253 0.74412 0.0
H416 H 0.59076 0.72233 0.75079 0.0
H417 H 0.62256 0.75598 0.77974 0.0
H418 H 0.61172 0.83107 0.84757 0.0
H419 H 0.57157 0.8556 0.86505 0.0
H420 H 0.58205 0.71483 0.86463 0.0
H421 H 0.4989 0.69485 0.8576 0.0
H422 H 0.56112 0.84373 0.74767 0.0
H423 H 0.47748 0.8248 0.74583 0.0
C424 C 0.55105 0.30333 0.64308 0.0
C425 C 0.57625 0.31083 0.63554 0.0
C426 C 0.59186 0.29187 0.64292 0.0
C427 C 0.57545 0.27405 0.65469 0.0
N428 N 0.55023 0.28028 0.65488 0.0
Co429 Co 0.52048 0.2613 0.67241 0.0
N430 N 0.54472 0.23766 0.68972 0.0
C431 C 0.57059 0.23635 0.6855 0.0
C432 C 0.58053 0.21439 0.69457 0.0
C433 C 0.55998 0.2014 0.70598 0.0
C434 C 0.53902 0.21697 0.7047 0.0
N435 N 0.49066 0.2417 0.68924 0.0
C436 C 0.4908 0.22036 0.70398 0.0
C437 C 0.46589 0.20752 0.70361 0.0
C438 C 0.44914 0.22289 0.69122 0.0
C439 C 0.46486 0.24337 0.68315 0.0
N440 N 0.49637 0.2855 0.65617 0.0
C441 C 0.4699 0.28453 0.65729 0.0
C442 C 0.45887 0.30443 0.64502 0.0
C443 C 0.47966 0.31947 0.63637 0.0
C444 C 0.50221 0.30779 0.64394 0.0
N445 N 0.51497 0.23663 0.64117 0.0
C446 C 0.50135 0.19142 0.61029 0.0
C447 C 0.48353 0.21026 0.61311 0.0
C448 C 0.49101 0.23298 0.62789 0.0
C449 C 0.52725 0.19733 0.61943 0.0
C450 C 0.53371 0.22026 0.63427 0.0
N451 N 0.5255 0.28577 0.70292 0.0
C452 C 0.50687 0.31707 0.7315 0.0
C453 C 0.5319 0.32861 0.73852 0.0
C454 C 0.55376 0.31735 0.72851 0.0
C455 C 0.55012 0.29575 0.71112 0.0
C456 C 0.50413 0.29563 0.71393 0.0
H457 H 0.56735 0.28776 0.70386 0.0
H458 H 0.48457 0.28762 0.70887 0.0
H459 H 0.47668 0.24672 0.62872 0.0
H460 H 0.55373 0.22372 0.6405 0.0
C461 C 0.5838 0.25373 0.66931 0.0
C462 C 0.52876 0.31926 0.64042 0.0
C463 C 0.51425 0.21207 0.71831 0.0
C464 C 0.45614 0.26412 0.66929 0.0
H465 H 0.58304 0.32858 0.62663 0.0
H466 H 0.61295 0.2919 0.64139 0.0
H467 H 0.59996 0.2079 0.69193 0.0
H468 H 0.56043 0.18245 0.71411 0.0
H469 H 0.4603 0.18865 0.71089 0.0
H470 H 0.42813 0.21914 0.68773 0.0
H471 H 0.43824 0.30776 0.64289 0.0
H472 H 0.47843 0.33727 0.62607 0.0
H473 H 0.46365 0.20711 0.60476 0.0
H474 H 0.54212 0.18372 0.61657 0.0
H475 H 0.48943 0.32439 0.73964 0.0
H476 H 0.57356 0.32534 0.73372 0.0
C477 C 0.83957 0.48253 0.78188 0.0
C478 C 0.84381 0.45702 0.78708 0.0
C479 C 0.83241 0.44204 0.76642 0.0
C480 C 0.82175 0.45916 0.74998 0.0
N481 N 0.82619 0.48424 0.75855 0.0
Co482 Co 0.81153 0.51515 0.74258 0.0
N483 N 0.79053 0.49269 0.71531 0.0
C484 C 0.7929 0.46727 0.70971 0.0
C485 C 0.78234 0.45887 0.68539 0.0
C486 C 0.77212 0.48011 0.67521 0.0
C487 C 0.77565 0.49985 0.69466 0.0
N488 N 0.79619 0.54597 0.72698 0.0
C489 C 0.77904 0.54699 0.70602 0.0
C490 C 0.77929 0.57207 0.69722 0.0
C491 C 0.79429 0.58766 0.71515 0.0
C492 C 0.80374 0.57117 0.73297 0.0
N493 N 0.833 0.53757 0.76961 0.0
C494 C 0.83584 0.56375 0.77124 0.0
C495 C 0.85089 0.57357 0.79279 0.0
C496 C 0.85761 0.55239 0.80598 0.0
C497 C 0.84617 0.53082 0.79164 0.0
N498 N 0.84063 0.51825 0.71743 0.0
C499 C 0.86374 0.52309 0.66844 0.0
C500 C 0.861 0.54492 0.68478 0.0
C501 C 0.85023 0.54197 0.70944 0.0
C502 C 0.85878 0.49875 0.67892 0.0
C503 C 0.84808 0.49688 0.70373 0.0
N504 N 0.78264 0.51231 0.76701 0.0
C505 C 0.7586 0.53201 0.80132 0.0
C506 C 0.74598 0.50804 0.80653 0.0
C507 C 0.75103 0.48636 0.7907 0.0
C508 C 0.76936 0.48894 0.771 0.0
C509 C 0.77655 0.53373 0.78145 0.0
H510 H 0.77297 0.47188 0.75944 0.0
H511 H 0.78563 0.55253 0.77827 0.0
H512 H 0.84927 0.55921 0.7212 0.0
H513 H 0.84508 0.47792 0.71082 0.0
C514 C 0.80656 0.45227 0.72697 0.0
C515 C 0.8474 0.50439 0.80021 0.0
C516 C 0.76297 0.52432 0.69417 0.0
C517 C 0.82178 0.57845 0.7539 0.0
H518 H 0.85353 0.44987 0.80432 0.0
H519 H 0.83128 0.42112 0.76409 0.0
H520 H 0.78256 0.43978 0.67596 0.0
H521 H 0.76244 0.48074 0.65594 0.0
H522 H 0.77073 0.57853 0.67908 0.0
H523 H 0.79889 0.60836 0.71446 0.0
H524 H 0.85548 0.59373 0.79883 0.0
H525 H 0.869 0.55276 0.82443 0.0
H526 H 0.86656 0.5642 0.67839 0.0
H527 H 0.8618 0.4811 0.66765 0.0
H528 H 0.7546 0.54944 0.81248 0.0
H529 H 0.74138 0.46747 0.79388 0.0
C530 C 0.14627 0.03105 0.77872 0.0
C531 C 0.13898 0.05587 0.78446 0.0
C532 C 0.15001 0.07135 0.76607 0.0
C533 C 0.16323 0.05513 0.75021 0.0
N534 N 0.16068 0.0301 0.75691 0.0
Co535 Co 0.17758 1.00016 0.74029 0.0
N536 N 0.19939 0.02377 0.71779 0.0
C537 C 0.19917 0.04988 0.71727 0.0
C538 C 0.21703 0.06106 0.7009 0.0
C539 C 0.22946 0.04096 0.69026 0.0
C540 C 0.21821 0.01847 0.70056 0.0
N541 N 0.19429 0.9702 0.72325 0.0
C542 C 0.21277 0.96979 0.70465 0.0
C543 C 0.21763 0.94457 0.69714 0.0
C544 C 0.20198 0.92856 0.71168 0.0
C545 C 0.1883 0.94475 0.72707 0.0
N546 N 0.15643 0.97677 0.76349 0.0
C547 C 0.15572 0.9506 0.76357 0.0
C548 C 0.14198 0.94024 0.78382 0.0
C549 C 0.13404 0.96105 0.79794 0.0
C550 C 0.14327 0.983 0.7853 0.0
N551 N 0.14925 0.99619 0.71231 0.0
C552 C 0.11608 0.98812 0.66721 0.0
C553 C 0.11976 0.96799 0.68385 0.0
C554 C 0.13595 0.97255 0.70641 0.0
C555 C 0.12727 0.01284 0.67444 0.0
C556 C 0.14367 0.01643 0.69701 0.0
N557 N 0.2054 0.00372 0.76818 0.0
C558 C 0.22975 0.98402 0.80243 0.0
C559 C 0.24076 0.00821 0.81187 0.0
C560 C 0.23386 0.03022 0.79888 0.0
C561 C 0.2161 0.02755 0.77726 0.0
C562 C 0.21279 0.98221 0.78038 0.0
H563 H 0.21118 0.0449 0.76818 0.0
H564 H 0.20564 0.96317 0.77374 0.0
H565 H 0.13785 0.95634 0.71812 0.0
H566 H 0.15221 0.03554 0.70106 0.0
C567 C 0.18177 0.06337 0.73221 0.0
C568 C 0.14092 0.00942 0.79564 0.0
C569 C 0.22603 0.99262 0.69329 0.0
C570 C 0.17063 0.93668 0.74612 0.0
H571 H 0.12793 0.06227 0.80098 0.0
H572 H 0.1499 0.09221 0.76546 0.0
H573 H 0.22064 0.08142 0.69719 0.0
H574 H 0.24508 0.04277 0.67649 0.0
H575 H 0.23106 0.93834 0.6826 0.0
H576 H 0.20083 0.90759 0.71119 0.0
H577 H 0.13933 0.92007 0.78862 0.0
H578 H 0.12361 0.96012 0.81607 0.0
H579 H 0.11079 0.94865 0.67907 0.0
H580 H 0.12456 0.02902 0.66198 0.0
H581 H 0.23425 0.9664 0.81184 0.0
H582 H 0.24246 0.04938 0.80493 0.0
C583 C 0.71968 0.16249 0.99089 0.0
C584 C 0.71418 0.15179 0.96558 0.0
C585 C 0.73156 0.16404 0.94962 0.0
C586 C 0.74659 0.18128 0.96612 0.0
N587 N 0.74034 0.18028 0.99175 0.0
Co588 Co 0.75606 0.20216 0.02255 0.0
N589 N 0.77924 0.22259 0.99871 0.0
C590 C 0.7805 0.21953 0.97214 0.0
C591 C 0.79969 0.23535 0.9616 0.0
C592 C 0.81166 0.24912 0.98265 0.0
C593 C 0.79892 0.24088 0.00493 0.0
N594 N 0.77194 0.22403 0.05336 0.0
C595 C 0.79222 0.24241 0.05423 0.0
C596 C 0.7983 0.25218 0.07976 0.0
C597 C 0.78144 0.23913 0.09572 0.0
C598 C 0.76612 0.22228 0.07906 0.0
N599 N 0.73285 0.18149 0.04622 0.0
C600 C 0.73218 0.18375 0.07283 0.0
C601 C 0.7127 0.16801 0.08312 0.0
C602 C 0.69974 0.15543 0.06176 0.0
C603 C 0.71229 0.1642 0.03966 0.0
N604 N 0.78419 0.17796 0.02737 0.0
C605 C 0.832 0.15536 0.03504 0.0
C606 C 0.81634 0.16011 0.05633 0.0
C607 C 0.79249 0.17127 0.05204 0.0
C608 C 0.82223 0.1595 0.00971 0.0
C609 C 0.79821 0.17028 0.00632 0.0
N610 N 0.72822 0.22677 0.01786 0.0
C611 C 0.69585 0.25369 0.03609 0.0
C612 C 0.69013 0.26327 0.01132 0.0
C613 C 0.70337 0.25367 0.98981 0.0
C614 C 0.72201 0.23551 0.99344 0.0
C615 C 0.71486 0.2357 0.03891 0.0
H616 H 0.73126 0.22891 0.97622 0.0
H617 H 0.71862 0.22946 0.05837 0.0
H618 H 0.78175 0.17533 0.0691 0.0
H619 H 0.79209 0.17331 0.98654 0.0
C620 C 0.76507 0.20007 0.95786 0.0
C621 C 0.70282 0.15764 0.01275 0.0
C622 C 0.80694 0.25029 0.03159 0.0
C623 C 0.74774 0.20317 0.08714 0.0
H624 H 0.69837 0.13758 0.95918 0.0
H625 H 0.73232 0.16158 0.92839 0.0
H626 H 0.80502 0.23604 0.94118 0.0
H627 H 0.82839 0.26312 0.98172 0.0
H628 H 0.8138 0.2667 0.08622 0.0
H629 H 0.78104 0.24103 0.11702 0.0
H630 H 0.70755 0.16693 0.10356 0.0
H631 H 0.68239 0.14221 0.06239 0.0
H632 H 0.8231 0.15658 0.07626 0.0
H633 H 0.83356 0.15529 0.99263 0.0
H634 H 0.68626 0.26059 0.05341 0.0
H635 H 0.69935 0.26011 0.97012 0.0
O636 O 0.07145 0.07457 0.10606 0.0
Mg637 Mg 0.09081 0.08623 0.07236 0.0
O638 O 0.04532 0.08791 0.07577 0.0
Mg639 Mg 0.06252 0.06749 0.03628 0.0
O640 O 0.10595 0.0571 0.0516 0.0
O641 O 0.12951 0.0857 0.07939 0.0
O642 O 0.07795 0.05075 0.99594 0.0
O643 O 0.04944 0.02642 0.05013 0.0
Mg644 Mg 0.01833 0.04106 0.99673 0.0
O645 O 0.02079 0.07402 0.02026 0.0
O646 O 0.04483 0.04201 0.96668 0.0
O647 O 0.01981 0.0087 0.02018 0.0
O648 O 0.98581 0.06158 0.99373 0.0
C649 C 0.08217 0.12724 0.03596 0.0
C650 C 0.0514 0.08619 0.1003 0.0
C651 C 0.12778 0.06475 0.06474 0.0
C652 C 0.06918 0.04414 0.97251 0.0
C653 C 0.03419 0.00725 0.04091 0.0
C654 C 0.9973 0.07773 0.01127 0.0
O655 O 0.08602 0.12417 0.06022 0.0
O656 O 0.0762 0.10756 0.02068 0.0
O657 O 0.94703 0.43863 0.1109 0.0
Mg658 Mg 0.91301 0.44207 0.08865 0.0
O659 O 0.97113 0.44653 0.07653 0.0
Mg660 Mg 0.94857 0.45951 0.03872 0.0
O661 O 0.90696 0.46585 0.05701 0.0
O662 O 0.91693 0.48281 0.09604 0.0
O663 O 0.92681 0.46993 0.99863 0.0
O664 O 0.9598 0.50195 0.0528 0.0
Mg665 Mg 0.98448 0.48556 0.00338 0.0
O666 O 0.99055 0.45162 0.02142 0.0
O667 O 0.95713 0.48463 0.97198 0.0
O668 O 0.99118 0.51843 0.02832 0.0
O669 O 0.01761 0.47068 0.99272 0.0
C670 C 0.92437 0.40149 0.04164 0.0
C671 C 0.96902 0.44042 0.10048 0.0
C672 C 0.90281 0.48323 0.07496 0.0
C673 C 0.93348 0.47792 0.97616 0.0
C674 C 0.97657 0.52025 0.04771 0.0
C675 C 0.01242 0.45238 0.00867 0.0
O676 O 0.91489 0.40776 0.06364 0.0
O677 O 0.93656 0.4178 0.02763 0.0
O678 O 0.0975 0.95643 0.43415 0.0
Mg679 Mg 0.06831 0.9268 0.42017 0.0
O680 O 0.06902 0.96723 0.40504 0.0
Mg681 Mg 0.03203 0.9445 0.42447 0.0
O682 O 0.04678 0.90313 0.44268 0.0
O683 O 0.08656 0.89514 0.42813 0.0
O684 O 0.99133 0.92549 0.44001 0.0
O685 O 0.04672 0.96047 0.46523 0.0
Mg686 Mg 0.99862 0.98277 0.44393 0.0
O687 O 0.01925 0.98561 0.41 0.0
O688 O 0.96518 0.95732 0.44326 0.0
O689 O 0.02119 0.99004 0.47944 0.0
O690 O 0.99196 0.01478 0.42476 0.0
C691 C 0.03811 0.91865 0.36937 0.0
C692 C 0.09225 0.97009 0.415 0.0
C693 C 0.06668 0.88863 0.4418 0.0
C694 C 0.96857 0.9335 0.44372 0.0
C695 C 0.0408 0.97685 0.48282 0.0
C696 C 0.00849 0.00766 0.40782 0.0
O697 O 0.06135 0.92066 0.37906 0.0
O698 O 0.01957 0.92564 0.38342 0.0
O699 O 0.9445 0.62027 0.43999 0.0
Mg700 Mg 0.93663 0.59049 0.41015 0.0
O701 O 0.92397 0.58572 0.45385 0.0
Mg702 Mg 0.94621 0.55148 0.43068 0.0
O703 O 0.96226 0.56949 0.39029 0.0
O704 O 0.9487 0.60775 0.37791 0.0
O705 O 0.96297 0.51229 0.41064 0.0
O706 O 0.98616 0.56988 0.44644 0.0
Mg707 Mg 0.97116 0.51955 0.46983 0.0
O708 O 0.93447 0.53361 0.47036 0.0
O709 O 0.97449 0.48844 0.44364 0.0
O710 O 0.00348 0.54672 0.47711 0.0
O711 O 0.95119 0.50901 0.50143 0.0
C712 C 0.89044 0.55201 0.40317 0.0
C713 C 0.92853 0.61031 0.45565 0.0
C714 C 0.96265 0.58839 0.37411 0.0
C715 C 0.97077 0.49096 0.4192 0.0
C716 C 0.00438 0.56643 0.46325 0.0
C717 C 0.9323 0.52177 0.49238 0.0
O718 O 0.89727 0.57596 0.40194 0.0
O719 O 0.90628 0.53662 0.41257 0.0
O720 O 0.42788 0.90547 0.57821 0.0
Mg721 Mg 0.40216 0.9261 0.55236 0.0
O722 O 0.45119 0.94206 0.57839 0.0
Mg723 Mg 0.4299 0.94798 0.53865 0.0
O724 O 0.38849 0.96013 0.56201 0.0
O725 O 0.37039 0.92223 0.57424 0.0
O726 O 0.40731 0.95596 0.49697 0.0
O727 O 0.4397 0.99232 0.54988 0.0
Mg728 Mg 0.46557 0.97159 0.50511 0.0
O729 O 0.47179 0.93741 0.52195 0.0
O730 O 0.43832 0.97558 0.47441 0.0
O731 O 0.47613 0.00337 0.52983 0.0
O732 O 0.49741 0.95592 0.49174 0.0
C733 C 0.40284 0.89321 0.51505 0.0
C734 C 0.44687 0.92017 0.58804 0.0
C735 C 0.36999 0.94693 0.57404 0.0
C736 C 0.41466 0.96719 0.4761 0.0
C737 C 0.45932 0.00838 0.54646 0.0
C738 C 0.49306 0.93796 0.50825 0.0
O739 O 0.38511 0.90862 0.51639 0.0
O740 O 0.42485 0.90116 0.52598 0.0
O741 O 0.55403 0.56461 0.62961 0.0
Mg742 Mg 0.57117 0.57677 0.59469 0.0
O743 O 0.52714 0.57911 0.60099 0.0
Mg744 Mg 0.54316 0.55683 0.56158 0.0
O745 O 0.58773 0.54849 0.57415 0.0
O746 O 0.60993 0.57864 0.60123 0.0
O747 O 0.55567 0.53857 0.52081 0.0
O748 O 0.53336 0.51671 0.57966 0.0
Mg749 Mg 0.49725 0.52385 0.53204 0.0
O750 O 0.50043 0.56145 0.54714 0.0
O751 O 0.5206 0.51925 0.49942 0.0
O752 O 0.49759 0.49595 0.56103 0.0
O753 O 0.46422 0.54256 0.52597 0.0
C754 C 0.56229 0.61656 0.55773 0.0
C755 C 0.53455 0.57746 0.62516 0.0
C756 C 0.60934 0.55774 0.5866 0.0
C757 C 0.5448 0.52669 0.50016 0.0
C758 C 0.51645 0.49725 0.57804 0.0
C759 C 0.47636 0.56246 0.53833 0.0
O760 O 0.56553 0.61468 0.58227 0.0
O761 O 0.55584 0.59619 0.5435 0.0
O762 O 0.61649 0.47317 0.95774 0.0
Mg763 Mg 0.58493 0.44667 0.94351 0.0
O764 O 0.58649 0.48954 0.93428 0.0
Mg765 Mg 0.55069 0.46688 0.95533 0.0
O766 O 0.56689 0.42464 0.9702 0.0
O767 O 0.60105 0.41309 0.94679 0.0
O768 O 0.51127 0.44897 0.97363 0.0
O769 O 0.56831 0.4823 0.99542 0.0
Mg770 Mg 0.51904 0.50855 0.97876 0.0
O771 O 0.53688 0.5077 0.94354 0.0
O772 O 0.48742 0.48188 0.98252 0.0
O773 O 0.54571 0.5138 0.0112 0.0
O774 O 0.51218 0.53943 0.95722 0.0
C775 C 0.54853 0.44455 0.89736 0.0
C776 C 0.61051 0.48977 0.94168 0.0
C777 C 0.58498 0.40863 0.96521 0.0
C778 C 0.48994 0.4578 0.98138 0.0
C779 C 0.56442 0.49923 0.01339 0.0
C780 C 0.52726 0.53005 0.94 0.0
O781 O 0.57287 0.44464 0.9027 0.0
O782 O 0.53326 0.44986 0.91557 0.0
O783 O 0.43447 0.13385 0.92884 0.0
Mg784 Mg 0.44444 0.10578 0.90207 0.0
O785 O 0.451 0.10796 0.95688 0.0
Mg786 Mg 0.4657 0.07223 0.93088 0.0
O787 O 0.48067 0.09466 0.89189 0.0
O788 O 0.46062 0.12851 0.87604 0.0
O789 O 0.47892 0.03312 0.90702 0.0
O790 O 0.50745 0.08601 0.94578 0.0
Mg791 Mg 0.48733 0.03317 0.9655 0.0
O792 O 0.45394 0.0523 0.96998 0.0
O793 O 0.4851 0.00377 0.93672 0.0
O794 O 0.523 0.05574 0.97012 0.0
O795 O 0.4684 0.02366 0.99824 0.0
C796 C 0.40785 0.06411 0.89708 0.0
C797 C 0.43979 0.12862 0.9522 0.0
C798 C 0.47962 0.11364 0.87568 0.0
C799 C 0.48349 0.00983 0.91296 0.0
C800 C 0.52587 0.07736 0.95949 0.0
C801 C 0.45112 0.03929 0.99129 0.0
O802 O 0.41327 0.08365 0.8838 0.0
O803 O 0.42323 0.05822 0.9158 0.0
H804 H 0.01119 0.14494 0.31526 0.0
H805 H 0.06178 0.16283 0.3845 0.0
H806 H 0.00971 0.09905 0.32421 0.0
H807 H 0.05959 0.11671 0.39423 0.0
H808 H 0.05814 0.02981 0.40224 0.0
H809 H 0.06892 0.07209 0.3834 0.0
H810 H 0.98811 0.07343 0.35531 0.0
H811 H 0.97779 0.03161 0.37383 0.0
C812 C 0.02197 0.13899 0.33249 0.0
C813 C 0.03615 0.15755 0.34947 0.0
C814 C 0.02113 0.11264 0.33767 0.0
C815 C 0.03412 0.10401 0.36023 0.0
C816 C 0.04944 0.12249 0.37657 0.0
C817 C 0.05057 0.14898 0.37114 0.0
C818 C 0.0431 0.03869 0.39089 0.0
C819 C 0.01723 0.0272 0.38896 0.0
C820 C 0.04911 0.06316 0.38057 0.0
C821 C 0.02938 0.07645 0.36793 0.0
C822 C 0.00399 0.06386 0.36449 0.0
C823 C 0.99802 0.0397 0.37498 0.0
H824 H 0.01144 0.36196 0.31064 0.0
H825 H 0.01211 0.33538 0.3899 0.0
H826 H 0.99843 0.40436 0.32676 0.0
H827 H -0.00015 0.37757 0.40634 0.0
H828 H 0.95205 0.44244 0.42803 0.0
H829 H 0.96337 0.4021 0.40722 0.0
H830 H 0.00962 0.44485 0.35161 0.0
H831 H 0.99733 0.48581 0.37242 0.0
C832 C 0.00914 0.36541 0.33159 0.0
C833 C 0.01286 0.34551 0.34908 0.0
C834 C 0.00173 0.38971 0.34088 0.0
C835 C 0.99764 0.39459 0.3679 0.0
C836 C 0.00211 0.37462 0.38534 0.0
C837 C 0.00949 0.35045 0.37604 0.0
C838 C 0.96425 0.44332 0.41101 0.0
C839 C 0.97382 0.46742 0.40197 0.0
C840 C 0.97111 0.42005 0.39924 0.0
C841 C 0.98819 0.41989 0.37813 0.0
C842 C 0.99655 0.44404 0.3679 0.0
C843 C 0.98941 0.46759 0.3797 0.0
H844 H 0.05829 0.86811 0.12843 0.0
H845 H 0.00113 0.84647 0.06502 0.0
H846 H 0.06356 0.91203 0.11252 0.0
H847 H 0.00548 0.8904 0.04978 0.0
H848 H 0.03423 0.9623 0.01291 0.0
H849 H 0.03588 0.91905 0.02909 0.0
H850 H 0.03944 0.95071 0.10942 0.0
H851 H 0.03919 0.99462 0.09285 0.0
C852 C 0.04703 0.87274 0.11097 0.0
C853 C 0.02932 0.85398 0.09786 0.0
C854 C 0.0498 0.89792 0.10209 0.0
C855 C 0.03496 0.90468 0.07992 0.0
C856 C 0.0175 0.88574 0.06671 0.0
C857 C 0.01476 0.86064 0.07555 0.0
C858 C 0.03533 0.96002 0.03405 0.0
C859 C 0.03593 0.98159 0.05173 0.0
C860 C 0.03625 0.93525 0.04331 0.0
C861 C 0.03716 0.9314 0.07052 0.0
C862 C 0.03877 0.9531 0.08832 0.0
C863 C 0.03842 0.97814 0.07894 0.0
H864 H 0.98355 0.67903 0.06523 0.0
H865 H 0.01362 0.66365 0.14321 0.0
H866 H 0.97377 0.6324 0.05595 0.0
H867 H 0.00499 0.61685 0.13343 0.0
H868 H 0.02134 0.54513 0.06813 0.0
H869 H 0.02627 0.58875 0.08899 0.0
H870 H 0.94214 0.59291 0.08327 0.0
H871 H 0.93708 0.54868 0.06333 0.0
C872 C 0.98796 0.66556 0.08029 0.0
C873 C 0.999 0.67452 0.10491 0.0
C874 C 0.98225 0.63914 0.07511 0.0
C875 C 0.98825 0.6215 0.09427 0.0
C876 C -8e-05 0.63038 0.11867 0.0
C877 C 0.00505 0.65688 0.12408 0.0
C878 C 0.00392 0.55518 0.07205 0.0
C879 C 0.97889 0.54405 0.06409 0.0
C880 C 0.00672 0.57988 0.08403 0.0
C881 C 0.98456 0.59381 0.08746 0.0
C882 C 0.95938 0.58219 0.08078 0.0
C883 C 0.95651 0.55712 0.06947 0.0
H884 H 0.34022 0.00712 0.11296 0.0
H885 H 0.4041 0.059 0.14609 0.0
H886 H 0.35498 0.01501 0.0687 0.0
H887 H 0.41959 0.06628 0.10182 0.0
H888 H 0.43952 0.08296 0.01909 0.0
H889 H 0.41344 0.08356 0.05878 0.0
H890 H 0.39014 0.0021 0.04406 0.0
H891 H 0.41568 0.00192 0.00473 0.0
C892 C 0.35756 0.0201 0.11074 0.0
C893 C 0.37127 0.03209 0.13299 0.0
C894 C 0.366 0.0247 0.08536 0.0
C895 C 0.38863 0.04114 0.08157 0.0
C896 C 0.40187 0.0538 0.10386 0.0
C897 C 0.39318 0.04945 0.12928 0.0
C898 C 0.4278 0.0656 0.02386 0.0
C899 C 0.4293 0.04243 0.00889 0.0
C900 C 0.41325 0.06577 0.0468 0.0
C901 C 0.39994 0.04277 0.05493 0.0
C902 C 0.39983 0.02025 0.03846 0.0
C903 C 0.41444 0.02009 0.01582 0.0
H904 H 0.58538 0.46592 0.1747 0.0
H905 H 0.66313 0.49593 0.15551 0.0
H906 H 0.57134 0.46567 0.12807 0.0
H907 H 0.64893 0.49677 0.10895 0.0
H908 H 0.61175 0.47955 0.02387 0.0
H909 H 0.6302 0.47071 0.06762 0.0
H910 H 0.56576 0.5063 0.10377 0.0
H911 H 0.54754 0.51517 0.06065 0.0
C912 C 0.59949 0.47191 0.1603 0.0
C913 C 0.62512 0.48106 0.16823 0.0
C914 C 0.59154 0.47193 0.13382 0.0
C915 C 0.60902 0.48163 0.11521 0.0
C916 C 0.6352 0.48912 0.12298 0.0
C917 C 0.64321 0.48885 0.14945 0.0
C918 C 0.60187 0.48581 0.04127 0.0
C919 C 0.57833 0.49813 0.03899 0.0
C920 C 0.61228 0.48061 0.06614 0.0
C921 C 0.59896 0.48729 0.08881 0.0
C922 C 0.57602 0.50042 0.08647 0.0
C923 C 0.56587 0.50594 0.06181 0.0
H924 H 0.34504 0.03233 0.33665 0.0
H925 H 0.34833 0.95069 0.31828 0.0
H926 H 0.35498 0.02509 0.38233 0.0
H927 H 0.35934 0.94375 0.36357 0.0
H928 H 0.37352 0.93535 0.45193 0.0
H929 H 0.35063 0.94245 0.40949 0.0
H930 H 0.39371 0.01728 0.4067 0.0
H931 H 0.41562 0.01038 0.44853 0.0
C932 C 0.34965 0.01307 0.34147 0.0
C933 C 0.35053 0.99306 0.32179 0.0
C934 C 0.35469 0.00878 0.36825 0.0
C935 C 0.35981 0.98406 0.37672 0.0
C936 C 0.35675 0.96334 0.35789 0.0
C937 C 0.35153 0.96769 0.33111 0.0
C938 C 0.37741 0.95355 0.44248 0.0
C939 C 0.39644 0.97226 0.45359 0.0
C940 C 0.36457 0.95755 0.41799 0.0
C941 C 0.37032 0.98046 0.40433 0.0
C942 C 0.3883 0.99957 0.41646 0.0
C943 C 0.40109 0.99552 0.44055 0.0
H944 H 0.64825 0.48971 0.37231 0.0
H945 H 0.58793 0.53337 0.33777 0.0
H946 H 0.63 0.4962 0.41594 0.0
H947 H 0.5697 0.53976 0.38122 0.0
H948 H 0.52473 0.50942 0.45175 0.0
H949 H 0.54711 0.50644 0.41062 0.0
H950 H 0.62055 0.53331 0.45096 0.0
H951 H 0.59794 0.5367 0.49279 0.0
C952 C 0.63109 0.50065 0.37409 0.0
C953 C 0.61923 0.5107 0.35165 0.0
C954 C 0.62087 0.50461 0.39904 0.0
C955 C 0.59836 0.51832 0.40188 0.0
C956 C 0.58695 0.52892 0.37952 0.0
C957 C 0.59738 0.52531 0.3547 0.0
C958 C 0.54568 0.51464 0.45211 0.0
C959 C 0.55951 0.52333 0.4757 0.0
C960 C 0.55844 0.5131 0.42839 0.0
C961 C 0.58547 0.51991 0.42754 0.0
C962 C 0.59964 0.52797 0.45112 0.0
C963 C 0.58672 0.52989 0.475 0.0
H964 H 0.14072 0.35421 0.05335 0.0
H965 H 0.17094 0.42046 0.01189 0.0
H966 H 0.0964 0.36976 0.05032 0.0
H967 H 0.12711 0.43607 0.00916 0.0
H968 H 0.04685 0.43716 0.97345 0.0
H969 H 0.08772 0.41758 0.98223 0.0
H970 H 0.06733 0.40785 0.06321 0.0
H971 H 0.02576 0.42794 0.05429 0.0
C972 C 0.13797 0.37234 0.04408 0.0
C973 C 0.15919 0.38596 0.03248 0.0
C974 C 0.11263 0.38121 0.04236 0.0
C975 C 0.10817 0.40383 0.02902 0.0
C976 C 0.12978 0.41819 0.01896 0.0
C977 C 0.1549 0.40932 0.02055 0.0
C978 C 0.05071 0.43039 0.99305 0.0
C979 C 0.03315 0.4343 0.01324 0.0
C980 C 0.0743 0.41937 0.99813 0.0
C981 C 0.08114 0.41188 0.02359 0.0
C982 C 0.06268 0.41369 0.04343 0.0
C983 C 0.03881 0.42494 0.0383 0.0
H984 H 0.14493 0.67086 0.49852 0.0
H985 H 0.16407 0.59122 0.49197 0.0
H986 H 0.09939 0.65781 0.48346 0.0
H987 H 0.11876 0.57801 0.47699 0.0
H988 H 0.04438 0.56264 0.43103 0.0
H989 H 0.08836 0.58475 0.43728 0.0
H990 H 0.06186 0.62994 0.50322 0.0
H991 H 0.01785 0.60762 0.49685 0.0
C992 C 0.13912 0.65055 0.49402 0.0
C993 C 0.15741 0.63183 0.49648 0.0
C994 C 0.11335 0.64317 0.48531 0.0
C995 C 0.10584 0.61703 0.47879 0.0
C996 C 0.1243 0.59837 0.4814 0.0
C997 C 0.14996 0.60574 0.49027 0.0
C998 C 0.04797 0.57777 0.44641 0.0
C999 C 0.02837 0.58335 0.46385 0.0
C1000 C 0.07296 0.59032 0.45 0.0
C1001 C 0.07844 0.60857 0.47104 0.0
C1002 C 0.05803 0.61584 0.48692 0.0
C1003 C 0.03305 0.60308 0.48344 0.0
H1004 H 0.84166 0.82654 0.5 0.0
H1005 H 0.81053 0.90011 0.48651 0.0
H1006 H 0.88461 0.84324 0.48492 0.0
H1007 H 0.85327 0.91717 0.47201 0.0
H1008 H 0.92035 0.93342 0.42062 0.0
H1009 H 0.87962 0.91185 0.43464 0.0
H1010 H 0.92308 0.87385 0.49456 0.0
H1011 H 0.96428 0.89505 0.4796 0.0
C1012 C 0.84424 0.8464 0.49407 0.0
C1013 C 0.82298 0.86209 0.49421 0.0
C1014 C 0.86876 0.85599 0.4855 0.0
C1015 C 0.87239 0.88145 0.47684 0.0
C1016 C 0.85111 0.89729 0.47789 0.0
C1017 C 0.82669 0.88769 0.48642 0.0
C1018 C 0.92126 0.91997 0.43638 0.0
C1019 C 0.94543 0.91582 0.44896 0.0
C1020 C 0.89787 0.90786 0.4447 0.0
C1021 C 0.8979 0.89159 0.46621 0.0
C1022 C 0.9223 0.88624 0.47792 0.0
C1023 C 0.94592 0.89823 0.4693 0.0
H1024 H 0.3292 0.60531 0.56519 0.0
H1025 H 0.35511 0.66669 0.51501 0.0
H1026 H 0.37456 0.5938 0.5712 0.0
H1027 H 0.4005 0.65592 0.52163 0.0
H1028 H 0.46035 0.59426 0.5017 0.0
H1029 H 0.42258 0.6199 0.50497 0.0
H1030 H 0.41945 0.6053 0.58816 0.0
H1031 H 0.45744 0.5793 0.58449 0.0
C1032 C 0.34473 0.61658 0.55588 0.0
C1033 C 0.3388 0.63646 0.53923 0.0
C1034 C 0.37071 0.61024 0.55952 0.0
C1035 C 0.39115 0.62394 0.54682 0.0
C1036 C 0.38518 0.64477 0.53136 0.0
C1037 C 0.35925 0.65086 0.52747 0.0
C1038 C 0.45234 0.59768 0.52091 0.0
C1039 C 0.46171 0.5852 0.54289 0.0
C1040 C 0.43063 0.61228 0.52284 0.0
C1041 C 0.41775 0.61431 0.54677 0.0
C1042 C 0.42877 0.60377 0.56939 0.0
C1043 C 0.4507 0.58928 0.56744 0.0
H1044 H 0.53009 0.65638 0.83232 0.0
H1045 H 0.5605 0.6855 0.90901 0.0
H1046 H 0.53277 0.61192 0.84596 0.0
H1047 H 0.56227 0.64097 0.92329 0.0
H1048 H 0.57358 0.55887 0.94135 0.0
H1049 H 0.58171 0.59983 0.91952 0.0
H1050 H 0.50852 0.58422 0.87419 0.0
H1051 H 0.50069 0.54351 0.89612 0.0
C1052 C 0.53742 0.65315 0.85213 0.0
C1053 C 0.54491 0.67427 0.8697 0.0
C1054 C 0.53889 0.62771 0.86001 0.0
C1055 C 0.54754 0.62269 0.88582 0.0
C1056 C 0.55588 0.64397 0.90314 0.0
C1057 C 0.55472 0.6695 0.89509 0.0
C1058 C 0.55997 0.56368 0.92572 0.0
C1059 C 0.5368 0.5478 0.91992 0.0
C1060 C 0.56432 0.5874 0.91361 0.0
C1061 C 0.54561 0.59564 0.89531 0.0
C1062 C 0.52352 0.57856 0.88798 0.0
C1063 C 0.51906 0.55505 0.90034 0.0
H1064 H 0.53563 0.87523 0.82076 0.0
H1065 H 0.49907 0.85085 0.89173 0.0
H1066 H 0.52676 0.92039 0.83193 0.0
H1067 H 0.48897 0.8955 0.90215 0.0
H1068 H 0.44829 0.97018 0.89748 0.0
H1069 H 0.45859 0.92753 0.88013 0.0
H1070 H 0.53869 0.95688 0.87015 0.0
H1071 H 0.52829 0.99964 0.88791 0.0
C1072 C 0.52562 0.87952 0.83869 0.0
C1073 C 0.51733 0.85933 0.85495 0.0
C1074 C 0.5205 0.90535 0.84505 0.0
C1075 C 0.50657 0.91152 0.86761 0.0
C1076 C 0.49915 0.89139 0.88429 0.0
C1077 C 0.50487 0.86578 0.8783 0.0
C1078 C 0.46777 0.96788 0.8904 0.0
C1079 C 0.4872 0.98861 0.89321 0.0
C1080 C 0.47383 0.94328 0.88094 0.0
C1081 C 0.49955 0.93865 0.87398 0.0
C1082 C 0.51865 0.9598 0.87511 0.0
C1083 C 0.5126 0.98443 0.8849 0.0
H1084 H 0.51621 0.35944 0.67202 0.0
H1085 H 0.54814 0.34158 0.59647 0.0
H1086 H 0.51553 0.40507 0.66091 0.0
H1087 H 0.54884 0.38748 0.58601 0.0
H1088 H 0.56322 0.47935 0.59324 0.0
H1089 H 0.5701 0.43706 0.6114 0.0
H1090 H 0.48625 0.42104 0.61513 0.0
H1091 H 0.47922 0.46281 0.59613 0.0
C1092 C 0.52377 0.3655 0.65339 0.0
C1093 C 0.53251 0.34723 0.63519 0.0
C1094 C 0.5234 0.39146 0.6471 0.0
C1095 C 0.53234 0.39958 0.62278 0.0
C1096 C 0.54223 0.38158 0.60505 0.0
C1097 C 0.54195 0.35547 0.61105 0.0
C1098 C 0.5463 0.46704 0.59852 0.0
C1099 C 0.52068 0.47431 0.59343 0.0
C1100 C 0.55026 0.44287 0.6087 0.0
C1101 C 0.52867 0.42607 0.61462 0.0
C1102 C 0.50314 0.43389 0.61085 0.0
C1103 C 0.49915 0.45769 0.60003 0.0
H1104 H 0.45829 0.16209 0.6242 0.0
H1105 H 0.52493 0.16141 0.57426 0.0
H1106 H 0.44634 0.1166 0.61188 0.0
H1107 H 0.51277 0.11612 0.56149 0.0
H1108 H 0.50501 0.03113 0.56656 0.0
H1109 H 0.51351 0.07564 0.58344 0.0
H1110 H 0.43057 0.0868 0.57497 0.0
H1111 H 0.42202 0.04154 0.5589 0.0
C1112 C 0.47001 0.1523 0.61012 0.0
C1113 C 0.49252 0.1651 0.60012 0.0
C1114 C 0.46323 0.1263 0.60317 0.0
C1115 C 0.47883 0.11276 0.58606 0.0
C1116 C 0.50075 0.12593 0.57527 0.0
C1117 C 0.50763 0.15184 0.58237 0.0
C1118 C 0.48856 0.04301 0.56881 0.0
C1119 C 0.46294 0.03326 0.56122 0.0
C1120 C 0.49343 0.0685 0.5782 0.0
C1121 C 0.4728 0.08486 0.57972 0.0
C1122 C 0.44685 0.07459 0.57386 0.0
C1123 C 0.44191 0.04879 0.56477 0.0
H1124 H 0.89633 0.49394 0.64034 0.0
H1125 H 0.84699 0.55783 0.63334 0.0
H1126 H 0.90474 0.49536 0.59363 0.0
H1127 H 0.85602 0.55955 0.58634 0.0
H1128 H 0.91769 0.56646 0.51507 0.0
H1129 H 0.89618 0.56875 0.5574 0.0
H1130 H 0.87762 0.48595 0.55137 0.0
H1131 H 0.89971 0.48371 0.50969 0.0
C1132 C 0.88717 0.50821 0.62882 0.0
C1133 C 0.87081 0.52558 0.64053 0.0
C1134 C 0.89191 0.50898 0.60203 0.0
C1135 C 0.88049 0.52719 0.58629 0.0
C1136 C 0.86487 0.54522 0.59804 0.0
C1137 C 0.85993 0.54433 0.62494 0.0
C1138 C 0.90773 0.54905 0.5222 0.0
C1139 C 0.91024 0.52489 0.5094 0.0
C1140 C 0.89563 0.55031 0.54648 0.0
C1141 C 0.88595 0.5274 0.55789 0.0
C1142 C 0.88547 0.50379 0.54322 0.0
C1143 C 0.89774 0.50253 0.51924 0.0
H1144 H 0.07459 0.01142 0.64673 0.0
H1145 H 0.12901 0.9538 0.6293 0.0
H1146 H 0.05707 0.00715 0.6013 0.0
H1147 H 0.1127 0.95042 0.58344 0.0
H1148 H 0.06048 0.93692 0.50778 0.0
H1149 H 0.07771 0.93733 0.5532 0.0
H1150 H 0.07147 0.0202 0.56012 0.0
H1151 H 0.05254 0.01928 0.51528 0.0
C1152 C 0.08263 0.99778 0.63307 0.0
C1153 C 0.10307 0.98303 0.64116 0.0
C1154 C 0.07292 0.99552 0.60705 0.0
C1155 C 0.08398 0.97895 0.5886 0.0
C1156 C 0.1037 0.96331 0.59714 0.0
C1157 C 0.11304 0.96522 0.62332 0.0
C1158 C 0.06307 0.95522 0.51905 0.0
C1159 C 0.05493 0.97806 0.50844 0.0
C1160 C 0.07297 0.95547 0.54501 0.0
C1161 C 0.07538 0.9787 0.56047 0.0
C1162 C 0.06888 0.00182 0.54905 0.0
C1163 C 0.05835 0.00142 0.52336 0.0
H1164 H 0.89585 0.48997 0.81385 0.0
H1165 H 0.82253 0.50857 0.84647 0.0
H1166 H 0.91332 0.4816 0.85791 0.0
H1167 H 0.83963 0.49974 0.89083 0.0
H1168 H 0.89533 0.51114 0.96735 0.0
H1169 H 0.87237 0.51691 0.92487 0.0
H1170 H 0.90774 0.4504 0.89147 0.0
H1171 H 0.93106 0.44537 0.93355 0.0
C1172 C 0.88353 0.49212 0.8306 0.0
C1173 C 0.85795 0.49972 0.82704 0.0
C1174 C 0.89334 0.48715 0.85577 0.0
C1175 C 0.87774 0.48969 0.87792 0.0
C1176 C 0.85217 0.4977 0.87425 0.0
C1177 C 0.84236 0.50267 0.84897 0.0
C1178 C 0.8974 0.49736 0.95108 0.0
C1179 C 0.91455 0.47761 0.95363 0.0
C1180 C 0.88442 0.50068 0.92674 0.0
C1181 C 0.88852 0.48433 0.90464 0.0
C1182 C 0.90455 0.46367 0.90788 0.0
C1183 C 0.91759 0.46051 0.93204 0.0
H1184 H 0.09277 0.99938 0.81548 0.0
H1185 H 0.17122 0.03177 0.83688 0.0
H1186 H 0.07964 0.00731 0.86069 0.0
H1187 H 0.15825 0.03975 0.88253 0.0
H1188 H 0.10832 0.07496 0.95154 0.0
H1189 H 0.12861 0.06651 0.90914 0.0
H1190 H 0.08887 0.98975 0.90383 0.0
H1191 H 0.06825 0.99857 0.94543 0.0
C1192 C 0.1072 0.008 0.83006 0.0
C1193 C 0.13304 0.01446 0.82309 0.0
C1194 C 0.0998 0.01248 0.85592 0.0
C1195 C 0.11807 0.0237 0.87533 0.0
C1196 C 0.1438 0.03097 0.86807 0.0
C1197 C 0.15123 0.02634 0.8421 0.0
C1198 C 0.1047 0.05607 0.94158 0.0
C1199 C 0.08682 0.03738 0.95153 0.0
C1200 C 0.11616 0.05125 0.91732 0.0
C1201 C 0.10984 0.02766 0.90288 0.0
C1202 C 0.09358 0.00834 0.91412 0.0
C1203 C 0.08203 0.01324 0.93805 0.0
H1204 H 0.62495 0.84356 0.55321 0.0
H1205 H 0.65215 0.90565 0.50455 0.0
H1206 H 0.58044 0.8588 0.55107 0.0
H1207 H 0.60826 0.92111 0.50283 0.0
H1208 H 0.52631 0.92197 0.4721 0.0
H1209 H 0.56772 0.90302 0.47978 0.0
H1210 H 0.55101 0.89579 0.56203 0.0
H1211 H 0.50873 0.91492 0.55414 0.0
C1212 C 0.62153 0.86075 0.54251 0.0
C1213 C 0.64197 0.8732 0.52869 0.0
C1214 C 0.59605 0.86946 0.54128 0.0
C1215 C 0.59058 0.89082 0.52625 0.0
C1216 C 0.61152 0.90413 0.51392 0.0
C1217 C 0.63675 0.89536 0.51498 0.0
C1218 C 0.53109 0.91587 0.49177 0.0
C1219 C 0.51427 0.9202 0.51253 0.0
C1220 C 0.55506 0.90525 0.49625 0.0
C1221 C 0.56317 0.89864 0.52169 0.0
C1222 C 0.54548 0.90093 0.54223 0.0
C1223 C 0.52118 0.91168 0.53769 0.0
H1224 H 0.66613 0.18409 0.98813 0.0
H1225 H 0.67873 0.11103 0.02259 0.0
H1226 H 0.62256 0.16674 0.97101 0.0
H1227 H 0.63489 0.09405 0.00702 0.0
H1228 H 0.57287 0.05858 0.95353 0.0
H1229 H 0.61574 0.08091 0.96432 0.0
H1230 H 0.5786 0.15123 0.98379 0.0
H1231 H 0.53558 0.12896 0.97134 0.0
C1232 C 0.6591 0.16454 0.99255 0.0
C1233 C 0.67524 0.14878 0.00676 0.0
C1234 C 0.63436 0.15465 0.98281 0.0
C1235 C 0.62562 0.12894 0.98731 0.0
C1236 C 0.64146 0.11373 0.00266 0.0
C1237 C 0.66625 0.12348 0.01202 0.0
C1238 C 0.57403 0.07891 0.95978 0.0
C1239 C 0.55127 0.09205 0.96241 0.0
C1240 C 0.59842 0.09163 0.96607 0.0
C1241 C 0.60031 0.11746 0.97587 0.0
C1242 C 0.57761 0.13122 0.97652 0.0
C1243 C 0.55311 0.11856 0.96955 0.0
H1244 H 0.36066 0.34355 0.01946 0.0
H1245 H 0.3286 0.41388 0.99509 0.0
H1246 H 0.40545 0.36304 0.0136 0.0
H1247 H 0.37289 0.43318 0.98871 0.0
H1248 H 0.45106 0.47155 0.01234 0.0
H1249 H 0.41013 0.44724 0.0204 0.0
H1250 H 0.43552 0.38093 0.97682 0.0
H1251 H 0.47737 0.40563 0.96859 0.0
C1252 C 0.36333 0.36311 0.01269 0.0
C1253 C 0.34148 0.37734 0.00763 0.0
C1254 C 0.3888 0.37414 0.00919 0.0
C1255 C 0.39263 0.39963 0.00083 0.0
C1256 C 0.37056 0.41361 0.99551 0.0
C1257 C 0.34526 0.40263 -0.00097 0.0
C1258 C 0.44818 0.45172 0.00453 0.0
C1259 C 0.46726 0.44072 0.98923 0.0
C1260 C 0.42462 0.43783 0.00914 0.0
C1261 C 0.41935 0.41248 0.99864 0.0
C1262 C 0.43906 0.40059 0.98495 0.0
C1263 C 0.46294 0.41467 0.98024 0.0
H1264 H 0.87603 0.18436 0.02446 0.0
H1265 H 0.84899 0.11062 0.05406 0.0
H1266 H 0.92115 0.17165 0.02577 0.0
H1267 H 0.8941 0.0973 0.05459 0.0
H1268 H 0.97831 0.08061 0.06028 0.0
H1269 H 0.93995 0.10364 0.07241 0.0
H1270 H 0.94154 0.14087 0.99769 0.0
H1271 H 0.97949 0.11782 0.98587 0.0
C1272 C 0.87993 0.16549 0.03149 0.0
C1273 C 0.85925 0.14831 0.03894 0.0
C1274 C 0.90568 0.1582 0.03223 0.0
C1275 C 0.91121 0.13341 0.04009 0.0
C1276 C 0.89057 0.11667 0.04879 0.0
C1277 C 0.86476 0.12414 0.04832 0.0
C1278 C 0.97111 0.09473 0.04715 0.0
C1279 C 0.98189 0.0979 0.02236 0.0
C1280 C 0.94895 0.10756 0.05386 0.0
C1281 C 0.93753 0.12388 0.03592 0.0
C1282 C 0.94994 0.12868 0.01211 0.0
C1283 C 0.97178 0.11561 0.00532 0.0
H1284 H 0.03454 0.16826 0.24866 0.0
H1285 H 0.05381 0.2303 0.19701 0.0
H1286 H 0.03457 0.13666 0.21144 0.0
H1287 H 0.05382 0.19885 0.15956 0.0
H1288 H 0.0815 0.13033 0.10899 0.0
H1289 H 0.07889 0.16358 0.14354 0.0
H1290 H 0.00845 0.12303 0.17031 0.0
H1291 H 0.01118 0.08937 0.13498 0.0
C1292 C 0.03911 0.17499 0.2293 0.0
C1293 C 0.04426 0.20155 0.22555 0.0
C1294 C 0.03873 0.15702 0.20795 0.0
C1295 C 0.04373 0.16524 0.18243 0.0
C1296 C 0.04984 0.19185 0.17894 0.0
C1297 C 0.05002 0.20985 0.20031 0.0
C1298 C 0.06488 0.12896 0.12159 0.0
C1299 C 0.04613 0.10764 0.11888 0.0
C1300 C 0.0635 0.14798 0.14158 0.0
C1301 C 0.0435 0.14602 0.15975 0.0
C1302 C 0.02426 0.12495 0.15672 0.0
C1303 C 0.02559 0.10586 0.13641 0.0
H1304 H 0.00106 0.31781 0.18547 0.0
H1305 H 0.05028 0.37575 0.23154 0.0
H1306 H 0.99676 0.34807 0.15035 0.0
H1307 H 0.04655 0.40588 0.19597 0.0
H1308 H 0.98642 0.4556 0.14976 0.0
H1309 H 0.00817 0.4284 0.18041 0.0
H1310 H 0.01979 0.37352 0.1163 0.0
H1311 H 0.99782 0.40097 0.08562 0.0
C1312 C 0.01119 0.33694 0.18795 0.0
C1313 C 0.02573 0.34454 0.21138 0.0
C1314 C 0.0091 0.35412 0.16765 0.0
C1315 C 0.02149 0.3793 0.17035 0.0
C1316 C 0.03682 0.38659 0.19337 0.0
C1317 C 0.039 0.36934 0.21367 0.0
C1318 C 0.99495 0.43844 0.14206 0.0
C1319 C 0.99085 0.43047 0.11542 0.0
C1320 C 0.00729 0.42277 0.1596 0.0
C1321 C 0.01539 0.39868 0.15079 0.0
C1322 C 0.01356 0.39192 0.12361 0.0
C1323 C 0.00143 0.40781 0.10599 0.0
H1324 H 0.02092 0.85434 0.20756 0.0
H1325 H 0.02324 0.79 0.25873 0.0
H1326 H 0.0214 0.88455 0.24642 0.0
H1327 H 0.0234 0.81976 0.29732 0.0
H1328 H 0.06658 0.88077 0.35217 0.0
H1329 H 0.06024 0.85394 0.31226 0.0
H1330 H 0.99238 0.89421 0.28964 0.0
H1331 H 0.99871 0.92177 0.3307 0.0
C1332 C 0.02172 0.84687 0.22719 0.0
C1333 C 0.02272 0.82021 0.23062 0.0
C1334 C 0.02151 0.86394 0.2492 0.0
C1335 C 0.02235 0.85433 0.27465 0.0
C1336 C 0.02286 0.82755 0.27782 0.0
C1337 C 0.02308 0.81062 0.25595 0.0
C1338 C 0.0504 0.88427 0.33868 0.0
C1339 C 0.03326 0.90354 0.34436 0.0
C1340 C 0.04668 0.86869 0.31593 0.0
C1341 C 0.0258 0.87199 0.29811 0.0
C1342 C 0.00865 0.89147 0.30329 0.0
C1343 C 0.01218 0.90705 0.32663 0.0
H1344 H 0.04134 0.66833 0.25242 0.0
H1345 H 0.95761 0.65605 0.235 0.0
H1346 H 0.03813 0.63588 0.28535 0.0
H1347 H 0.95411 0.62566 0.26988 0.0
H1348 H 0.94818 0.56643 0.32632 0.0
H1349 H 0.96192 0.58468 0.28502 0.0
H1350 H 0.02352 0.63261 0.32806 0.0
H1351 H 0.01018 0.61347 0.36884 0.0
C1352 C 0.02222 0.65864 0.25531 0.0
C1353 C -0.00026 0.66499 0.24068 0.0
C1354 C 0.02037 0.64018 0.27461 0.0
C1355 C 0.9959 0.62793 0.28036 0.0
C1356 C 0.97345 0.63412 0.26567 0.0
C1357 C 0.97537 0.65216 0.24596 0.0
C1358 C 0.96567 0.57966 0.32655 0.0
C1359 C 0.97823 0.58855 0.35054 0.0
C1360 C 0.97318 0.59063 0.30302 0.0
C1361 C 0.99317 0.61091 0.30326 0.0
C1362 C 0.00794 0.6172 0.32695 0.0
C1363 C 0.00048 0.60608 0.35041 0.0
H1364 H 0.2114 0.02884 0.19105 0.0
H1365 H 0.27323 0.02031 0.13656 0.0
H1366 H 0.17971 0.03147 0.15399 0.0
H1367 H 0.24158 0.02282 0.09923 0.0
H1368 H 0.17924 0.07337 0.05428 0.0
H1369 H 0.21447 0.05774 0.08174 0.0
H1370 H 0.15836 0.00354 0.11582 0.0
H1371 H 0.1233 0.01891 0.08785 0.0
C1372 C 0.21811 0.02771 0.17106 0.0
C1373 C 0.2446 0.02473 0.16647 0.0
C1374 C 0.20001 0.02876 0.14987 0.0
C1375 C 0.20811 0.02689 0.12368 0.0
C1376 C 0.23478 0.0242 0.11917 0.0
C1377 C 0.25286 0.02299 0.14041 0.0
C1378 C 0.17481 0.05699 0.06641 0.0
C1379 C 0.14868 0.04729 0.06898 0.0
C1380 C 0.19491 0.04822 0.08239 0.0
C1381 C 0.18898 0.03 0.10149 0.0
C1382 C 0.16337 0.01796 0.10158 0.0
C1383 C 0.14339 0.02638 0.0852 0.0
H1384 H 0.73885 0.49222 0.12596 0.0
H1385 H 0.79412 0.48418 0.19082 0.0
H1386 H 0.77511 0.49349 0.09513 0.0
H1387 H 0.83031 0.48634 0.16035 0.0
H1388 H 0.88906 0.52329 0.10596 0.0
H1389 H 0.84826 0.52492 0.12925 0.0
H1390 H 0.81381 0.45991 0.08098 0.0
H1391 H 0.85519 0.45759 0.05806 0.0
C1392 C 0.75874 0.49061 0.13354 0.0
C1393 C 0.76372 0.48791 0.16072 0.0
C1394 C 0.77943 0.49135 0.11595 0.0
C1395 C 0.80556 0.4902 0.12534 0.0
C1396 C 0.81041 0.48745 0.15254 0.0
C1397 C 0.78973 0.48605 0.16996 0.0
C1398 C 0.8725 0.50992 0.09954 0.0
C1399 C 0.87559 0.49022 0.08018 0.0
C1400 C 0.84922 0.51068 0.11315 0.0
C1401 C 0.82805 0.49222 0.10733 0.0
C1402 C 0.82989 0.47431 0.08597 0.0
C1403 C 0.85352 0.47321 0.0726 0.0
H1404 H 0.22719 0.95563 0.32471 0.0
H1405 H 0.21511 0.03705 0.31788 0.0
H1406 H 0.1895 0.95115 0.35269 0.0
H1407 H 0.17876 0.03253 0.34751 0.0
H1408 H 0.13566 0.00298 0.42885 0.0
H1409 H 0.17414 0.01202 0.40168 0.0
H1410 H 0.13638 0.96368 0.33799 0.0
H1411 H 0.09778 0.95587 0.36422 0.0
C1412 C 0.21672 0.97259 0.32911 0.0
C1413 C 0.22436 0.9967 0.31875 0.0
C1414 C 0.19535 0.97002 0.34542 0.0
C1415 C 0.1816 0.99158 0.35228 0.0
C1416 C 0.18943 0.01577 0.34268 0.0
C1417 C 0.21039 0.01828 0.32583 0.0
C1418 C 0.13547 0.99494 0.4088 0.0
C1419 C 0.11372 0.97914 0.3984 0.0
C1420 C 0.15737 0.99994 0.39342 0.0
C1421 C 0.15803 0.98833 0.36798 0.0
C1422 C 0.13619 0.9728 0.35758 0.0
C1423 C 0.11409 0.96855 0.37251 0.0
H1424 H 0.72838 0.51727 0.35113 0.0
H1425 H 0.77569 0.49698 0.28585 0.0
H1426 H 0.76835 0.52384 0.38019 0.0
H1427 H 0.81532 0.5032 0.31461 0.0
H1428 H 0.86879 0.56905 0.35898 0.0
H1429 H 0.82795 0.55267 0.3361 0.0
H1430 H 0.81462 0.49637 0.39559 0.0
H1431 H 0.85644 0.51259 0.41862 0.0
C1432 C 0.74735 0.51402 0.34328 0.0
C1433 C 0.74959 0.50731 0.31649 0.0
C1434 C 0.76992 0.51732 0.35979 0.0
C1435 C 0.79454 0.51391 0.34937 0.0
C1436 C 0.79638 0.50582 0.32287 0.0
C1437 C 0.77398 0.50259 0.30648 0.0
C1438 C 0.85709 0.5533 0.36732 0.0
C1439 C 0.86544 0.54208 0.39053 0.0
C1440 C 0.83393 0.54389 0.35418 0.0
C1441 C 0.81856 0.52334 0.36422 0.0
C1442 C 0.82646 0.51225 0.38769 0.0
C1443 C 0.85017 0.5214 0.40068 0.0
H1444 H 0.21334 0.22316 0.02927 0.0
H1445 H 0.15893 0.28285 0.03266 0.0
H1446 H 0.17655 0.19001 0.02487 0.0
H1447 H 0.12184 0.24974 0.02802 0.0
H1448 H 0.07327 0.17412 0.05745 0.0
H1449 H 0.10234 0.21321 0.05388 0.0
H1450 H 0.14116 0.17597 0.99013 0.0
H1451 H 0.11197 0.13679 0.9938 0.0
C1452 C 0.1934 0.22899 0.02956 0.0
C1453 C 0.18864 0.25521 0.03158 0.0
C1454 C 0.17242 0.21021 0.02651 0.0
C1455 C 0.1464 0.21744 0.02539 0.0
C1456 C 0.14171 0.24373 0.02859 0.0
C1457 C 0.16276 0.26255 0.03154 0.0
C1458 C 0.08718 0.17482 0.04183 0.0
C1459 C 0.0907 0.15253 0.02608 0.0
C1460 C 0.1039 0.1971 0.03988 0.0
C1461 C 0.12444 0.19721 0.02229 0.0
C1462 C 0.12577 0.17605 0.00425 0.0
C1463 C 0.10882 0.15383 0.00603 0.0
H1464 H 0.11625 0.74282 0.50448 0.0
H1465 H 0.18007 0.79564 0.48195 0.0
H1466 H 0.08497 0.77567 0.49525 0.0
H1467 H 0.14913 0.82844 0.47342 0.0
H1468 H 0.09394 0.8899 0.48776 0.0
H1469 H 0.11669 0.85383 0.50471 0.0
H1470 H 0.07217 0.80121 0.44893 0.0
H1471 H 0.04991 0.83774 0.43132 0.0
C1472 C 0.12355 0.7615 0.49776 0.0
C1473 C 0.15054 0.76673 0.49387 0.0
C1474 C 0.1057 0.78018 0.49243 0.0
C1475 C 0.11469 0.80462 0.48384 0.0
C1476 C 0.1417 0.80985 0.48028 0.0
C1477 C 0.15938 0.79106 0.485 0.0
C1478 C 0.08793 0.87043 0.48012 0.0
C1479 C 0.06968 0.86652 0.45869 0.0
C1480 C 0.10126 0.84985 0.48954 0.0
C1481 C 0.09633 0.8248 0.47799 0.0
C1482 C 0.07619 0.82033 0.45829 0.0
C1483 C 0.06318 0.84114 0.44846 0.0
H1484 H 0.85248 0.74071 0.52889 0.0
H1485 H 0.79449 0.6988 0.47607 0.0
H1486 H 0.88206 0.7064 0.5224 0.0
H1487 H 0.82456 0.66518 0.46859 0.0
H1488 H 0.87769 0.59913 0.47024 0.0
H1489 H 0.84692 0.6298 0.48605 0.0
H1490 H 0.90909 0.69124 0.48864 0.0
H1491 H 0.93963 0.66063 0.47306 0.0
C1492 C 0.84588 0.72415 0.51601 0.0
C1493 C 0.82101 0.72287 0.50284 0.0
C1494 C 0.86305 0.70451 0.51205 0.0
C1495 C 0.85597 0.68293 0.49476 0.0
C1496 C 0.83079 0.68128 0.48222 0.0
C1497 C 0.81361 0.70089 0.4862 0.0
C1498 C 0.88494 0.61905 0.47488 0.0
C1499 C 0.91122 0.62738 0.47039 0.0
C1500 C 0.86718 0.63677 0.48362 0.0
C1501 C 0.8753 0.66323 0.48843 0.0
C1502 C 0.90198 0.67111 0.48539 0.0
C1503 C 0.91959 0.65351 0.47637 0.0
H1504 H 0.34027 0.73161 0.52935 0.0
H1505 H 0.28082 0.78629 0.53449 0.0
H1506 H 0.37386 0.76737 0.52367 0.0
H1507 H 0.31403 0.82187 0.52904 0.0
H1508 H 0.36411 0.87221 0.48146 0.0
H1509 H 0.33883 0.8312 0.48703 0.0
H1510 H 0.39592 0.81114 0.54614 0.0
H1511 H 0.42149 0.85236 0.54043 0.0
C1512 C 0.33469 0.75139 0.53019 0.0
C1513 C 0.3082 0.7565 0.53236 0.0
C1514 C 0.35375 0.77172 0.52673 0.0
C1515 C 0.34632 0.79719 0.52518 0.0
C1516 C 0.32011 0.80229 0.5295 0.0
C1517 C 0.3012 0.78209 0.53303 0.0
C1518 C 0.37188 0.85857 0.49479 0.0
C1519 C 0.39462 0.8655 0.51062 0.0
C1520 C 0.35723 0.8353 0.49827 0.0
C1521 C 0.36505 0.81852 0.51764 0.0
C1522 C 0.3894 0.82393 0.53127 0.0
C1523 C 0.40417 0.84736 0.52775 0.0
H1524 H 0.52509 0.67395 0.76757 0.0
H1525 H 0.55125 0.72814 0.71005 0.0
H1526 H 0.52252 0.63861 0.73368 0.0
H1527 H 0.54916 0.69284 0.67616 0.0
H1528 H 0.57117 0.61653 0.63446 0.0
H1529 H 0.57197 0.65249 0.6668 0.0
H1530 H 0.49505 0.62495 0.69108 0.0
H1531 H 0.49417 0.58863 0.65789 0.0
C1532 C 0.53061 0.67815 0.74769 0.0
C1533 C 0.53836 0.70368 0.74131 0.0
C1534 C 0.52882 0.65805 0.72826 0.0
C1535 C 0.53521 0.663 0.70216 0.0
C1536 C 0.54401 0.68842 0.69608 0.0
C1537 C 0.54541 0.70859 0.71544 0.0
C1538 C 0.55414 0.61844 0.64629 0.0
C1539 C 0.53244 0.60003 0.64348 0.0
C1540 C 0.55465 0.63903 0.66488 0.0
C1541 C 0.53361 0.64161 0.68151 0.0
C1542 C 0.51165 0.62332 0.6786 0.0
C1543 C 0.51099 0.60271 0.65956 0.0
H1544 H 0.48131 0.87197 0.74154 0.0
H1545 H 0.54679 0.84466 0.69982 0.0
H1546 H 0.469 0.89648 0.70364 0.0
H1547 H 0.53472 0.86973 0.66194 0.0
H1548 H 0.4711 0.87565 0.59213 0.0
H1549 H 0.49483 0.86099 0.63086 0.0
H1550 H 0.48186 0.93246 0.67355 0.0
H1551 H 0.45867 0.94731 0.63439 0.0
C1552 C 0.49336 0.87161 0.72442 0.0
C1553 C 0.51469 0.85598 0.72343 0.0
C1554 C 0.48647 0.88587 0.70282 0.0
C1555 C 0.50073 0.88476 0.67972 0.0
C1556 C 0.5232 0.87064 0.6794 0.0
C1557 C 0.53021 0.85646 0.70113 0.0
C1558 C 0.47367 0.88827 0.60973 0.0
C1559 C 0.46294 0.91239 0.61056 0.0
C1560 C 0.48745 0.88006 0.63177 0.0
C1561 C 0.49014 0.89557 0.65524 0.0
C1562 C 0.48004 0.92011 0.65574 0.0
C1563 C 0.46683 0.92859 0.63342 0.0
H1564 H 0.5688 0.33703 0.77867 0.0
H1565 H 0.50211 0.37057 0.74218 0.0
H1566 H 0.56962 0.36929 0.81479 0.0
H1567 H 0.50261 0.40257 0.77922 0.0
H1568 H 0.5421 0.4656 0.84928 0.0
H1569 H 0.53697 0.44074 0.80665 0.0
H1570 H 0.52989 0.36961 0.84825 0.0
H1571 H 0.53447 0.39427 0.89032 0.0
C1572 C 0.55468 0.3516 0.77801 0.0
C1573 C 0.53505 0.3509 0.75785 0.0
C1574 C 0.55504 0.36992 0.79881 0.0
C1575 C 0.53579 0.38785 0.79989 0.0
C1576 C 0.51746 0.38869 0.77878 0.0
C1577 C 0.51707 0.37027 0.75784 0.0
C1578 C 0.53843 0.44472 0.84904 0.0
C1579 C 0.53838 0.43163 0.8727 0.0
C1580 C 0.53567 0.43059 0.82486 0.0
C1581 C 0.53356 0.40339 0.82445 0.0
C1582 C 0.53176 0.39059 0.84822 0.0
C1583 C 0.53409 0.40463 0.87218 0.0
H1584 H 0.55547 0.20063 0.75435 0.0
H1585 H 0.4713 0.20039 0.75149 0.0
H1586 H 0.55333 0.16962 0.78847 0.0
H1587 H 0.46912 0.16974 0.78558 0.0
H1588 H 0.46609 0.09707 0.82674 0.0
H1589 H 0.4772 0.12217 0.78877 0.0
H1590 H 0.54025 0.16459 0.83484 0.0
H1591 H 0.52817 0.1399 0.87341 0.0
C1592 C 0.53626 0.19233 0.75875 0.0
C1593 C 0.5132 0.19864 0.74473 0.0
C1594 C 0.53517 0.17523 0.77947 0.0
C1595 C 0.51092 0.16526 0.78813 0.0
C1596 C 0.48806 0.17505 0.77759 0.0
C1597 C 0.4893 0.19213 0.75694 0.0
C1598 C 0.48336 0.11063 0.82833 0.0
C1599 C 0.49632 0.11646 0.85294 0.0
C1600 C 0.48932 0.12549 0.80674 0.0
C1601 C 0.50902 0.14595 0.80906 0.0
C1602 C 0.52468 0.1492 0.83257 0.0
C1603 C 0.51814 0.13472 0.85454 0.0
H1604 H 0.7241 0.48386 0.67987 0.0
H1605 H 0.73099 0.56687 0.68706 0.0
H1606 H 0.68979 0.48532 0.64592 0.0
H1607 H 0.69699 0.56859 0.65343 0.0
H1608 H 0.65962 0.57208 0.57659 0.0
H1609 H 0.6962 0.55965 0.60424 0.0
H1610 H 0.64573 0.49831 0.63509 0.0
H1611 H 0.60942 0.51034 0.60659 0.0
C1612 C 0.72019 0.5026 0.67276 0.0
C1613 C 0.73564 0.52545 0.68134 0.0
C1614 C 0.69963 0.50334 0.6539 0.0
C1615 C 0.69278 0.52715 0.64479 0.0
C1616 C 0.70398 0.54993 0.65785 0.0
C1617 C 0.7245 0.54899 0.6766 0.0
C1618 C 0.65689 0.55492 0.58801 0.0
C1619 C 0.63186 0.54225 0.58973 0.0
C1620 C 0.67758 0.54817 0.60431 0.0
C1621 C 0.67338 0.52882 0.62266 0.0
C1622 C 0.64941 0.51355 0.62141 0.0
C1623 C 0.62872 0.52016 0.60478 0.0
H1624 H 0.27393 0.97426 0.70309 0.0
H1625 H 0.22644 0.00406 0.64096 0.0
H1626 H 0.30902 0.96834 0.67208 0.0
H1627 H 0.26186 0.99855 0.60999 0.0
H1628 H 0.36456 0.99839 0.59098 0.0
H1629 H 0.32952 0.01383 0.61881 0.0
H1630 H 0.29144 0.93667 0.61622 0.0
H1631 H 0.32524 0.92139 0.58874 0.0
C1632 C 0.27119 0.97984 0.68288 0.0
C1633 C 0.24755 0.98961 0.6744 0.0
C1634 C 0.29132 0.97676 0.66528 0.0
C1635 C 0.28837 0.98368 0.6389 0.0
C1636 C 0.26485 0.99373 0.6304 0.0
C1637 C 0.24457 0.99662 0.648 0.0
C1638 C 0.34846 0.98491 0.596 0.0
C1639 C 0.34805 0.95857 0.58783 0.0
C1640 C 0.32851 0.9937 0.61192 0.0
C1641 C 0.30799 0.97626 0.61971 0.0
C1642 C 0.30706 0.95042 0.61055 0.0
C1643 C 0.32664 0.94174 0.59482 0.0
H1644 H 0.75254 0.53006 0.85624 0.0
H1645 H 0.69747 0.4819 0.80549 0.0
H1646 H 0.72023 0.53068 0.89049 0.0
H1647 H 0.6654 0.48199 0.84001 0.0
H1648 H 0.60432 0.5094 0.89301 0.0
H1649 H 0.63837 0.51517 0.86094 0.0
H1650 H 0.69734 0.50036 0.92051 0.0
H1651 H 0.66333 0.49467 0.95271 0.0
C1652 C 0.73353 0.51956 0.85247 0.0
C1653 C 0.72734 0.50619 0.8281 0.0
C1654 C 0.71514 0.51982 0.8721 0.0
C1655 C 0.69019 0.50681 0.86768 0.0
C1656 C 0.68431 0.49271 0.84367 0.0
C1657 C 0.70275 0.49235 0.82407 0.0
C1658 C 0.62463 0.50823 0.89953 0.0
C1659 C 0.63116 0.5013 0.9253 0.0
C1660 C 0.64405 0.51115 0.88105 0.0
C1661 C 0.67034 0.50755 0.88812 0.0
C1662 C 0.67719 0.5031 0.91451 0.0
C1663 C 0.65774 0.49996 0.93295 0.0
H1664 H 0.25004 0.04649 0.85085 0.0
H1665 H 0.2781 0.9743 0.82156 0.0
H1666 H 0.28985 0.05437 0.87886 0.0
H1667 H 0.31648 0.98132 0.85093 0.0
H1668 H 0.39472 0.03433 0.85361 0.0
H1669 H 0.35119 0.01457 0.84066 0.0
H1670 H 0.32153 0.04236 0.91451 0.0
H1671 H 0.36565 0.06203 0.92743 0.0
C1672 C 0.26428 0.03201 0.85088 0.0
C1673 C 0.26124 0.01019 0.83336 0.0
C1674 C 0.28681 0.03628 0.8673 0.0
C1675 C 0.30635 0.01862 0.86655 0.0
C1676 C 0.30181 0.99539 0.85145 0.0
C1677 C 0.27963 0.99133 0.83475 0.0
C1678 C 0.37899 0.03545 0.86728 0.0
C1679 C 0.38312 0.04911 0.8915 0.0
C1680 C 0.35418 0.02408 0.86005 0.0
C1681 C 0.33312 0.0267 0.87681 0.0
C1682 C 0.33754 0.0399 0.90145 0.0
C1683 C 0.36259 0.05096 0.90884 0.0
H1684 H 0.64078 0.76848 0.52863 0.0
H1685 H 0.69778 0.71331 0.54507 0.0
H1686 H 0.60505 0.73434 0.53143 0.0
H1687 H 0.66225 0.67921 0.5482 0.0
H1688 H 0.59832 0.6194 0.52029 0.0
H1689 H 0.62927 0.6567 0.51398 0.0
H1690 H 0.58509 0.70393 0.56545 0.0
H1691 H 0.55445 0.66632 0.57222 0.0
C1692 C 0.64549 0.74909 0.53332 0.0
C1693 C 0.67179 0.74325 0.53658 0.0
C1694 C 0.62518 0.72964 0.53482 0.0
C1695 C 0.63097 0.70409 0.53947 0.0
C1696 C 0.65731 0.69863 0.54392 0.0
C1697 C 0.67757 0.71808 0.54248 0.0
C1698 C 0.59456 0.63804 0.52925 0.0
C1699 C 0.57388 0.64019 0.54645 0.0
C1700 C 0.61253 0.65923 0.52607 0.0
C1701 C 0.60978 0.68301 0.53963 0.0
C1702 C 0.58767 0.68579 0.55485 0.0
C1703 C 0.57002 0.66441 0.5585 0.0
H1704 H 0.69627 0.30632 0.98223 0.0
H1705 H 0.64172 0.26706 0.03301 0.0
H1706 H 0.66651 0.34065 0.97711 0.0
H1707 H 0.61168 0.30168 0.0276 0.0
H1708 H 0.5623 0.35879 0.96706 0.0
H1709 H 0.5858 0.32185 0.98218 0.0
H1710 H 0.64926 0.37482 0.01409 0.0
H1711 H 0.62557 0.41136 -3e-05 0.0
C1712 C 0.67782 0.30487 0.99213 0.0
C1713 C 0.67141 0.28386 0.008 0.0
C1714 C 0.66086 0.32465 0.98934 0.0
C1715 C 0.63684 0.32387 0.00205 0.0
C1716 C 0.63006 0.30273 0.01758 0.0
C1717 C 0.64732 0.28304 0.02076 0.0
C1718 C 0.5805 0.36249 0.97871 0.0
C1719 C 0.59182 0.38796 0.98289 0.0
C1720 C 0.59411 0.34138 0.98705 0.0
C1721 C 0.6195 0.34553 -0.001 0.0
C1722 C 0.62978 0.37106 0.00491 0.0
C1723 C 0.61601 0.39199 0.99715 0.0
H1724 H 0.31384 0.21394 0.98289 0.0
H1725 H 0.37371 0.26136 0.02854 0.0
H1726 H 0.34451 0.18057 0.97651 0.0
H1727 H 0.4043 0.22763 0.02266 0.0
H1728 H 0.4558 0.17819 0.96662 0.0
H1729 H 0.42784 0.20985 0.98534 0.0
H1730 H 0.36903 0.1482 -0.00046 0.0
H1731 H 0.39732 0.11658 0.98086 0.0
C1732 C 0.33354 0.21721 0.99165 0.0
C1733 C 0.34134 0.2404 0.00612 0.0
C1734 C 0.35103 0.1979 0.98832 0.0
C1735 C 0.37684 0.20129 -0.00072 0.0
C1736 C 0.38458 0.22439 0.01396 0.0
C1737 C 0.367 0.24366 0.01744 0.0
C1738 C 0.43753 0.17134 0.9751 0.0
C1739 C 0.42898 0.14494 0.97289 0.0
C1740 C 0.42135 0.18948 0.98559 0.0
C1741 C 0.39601 0.18162 0.99359 0.0
C1742 C 0.38832 0.15492 0.99327 0.0
C1743 C 0.40472 0.13674 0.9831 0.0
H1744 H 0.80432 0.30118 0.0258 0.0
H1745 H 0.85828 0.24309 0.04209 0.0
H1746 H 0.84115 0.33307 0.02059 0.0
H1747 H 0.89563 0.27519 0.0371 0.0
H1748 H 0.93571 0.35996 0.06853 0.0
H1749 H 0.91209 0.31745 0.06235 0.0
H1750 H 0.87822 0.34024 0.98834 0.0
H1751 H 0.90194 0.383 0.99471 0.0
C1752 C 0.82421 0.29558 0.02879 0.0
C1753 C 0.82887 0.27017 0.03464 0.0
C1754 C 0.8452 0.31347 0.02516 0.0
C1755 C 0.87112 0.30618 0.02752 0.0
C1756 C 0.87577 0.28097 0.03466 0.0
C1757 C 0.85462 0.2629 0.03798 0.0
C1758 C 0.92421 0.35532 0.05034 0.0
C1759 C 0.91988 0.37456 0.03238 0.0
C1760 C 0.91082 0.33103 0.04675 0.0
C1761 C 0.89281 0.3261 0.02533 0.0
C1762 C 0.89175 0.34399 0.00526 0.0
C1763 C 0.90535 0.3683 0.00878 0.0
loop_
_geom_bond_atom_site_label_1
_geom_bond_atom_site_label_2
_geom_bond_distance
_geom_bond_site_symmetry_2
_ccdc_geom_bond_type
C0 C1 1.444 . S
C0 N4 1.376 1_655 S
C0 C38 1.388 1_655 S
C1 C0 1.444 . S
C1 C2 1.340 . S
C1 H41 0.951 . S
C2 C1 1.340 . S
C2 C3 1.439 . S
C2 H42 0.950 . S
C3 C2 1.439 . S
C3 N4 1.374 1_655 S
C3 C37 1.395 . S
N4 C0 1.376 1_455 S
N4 C3 1.374 1_455 S
N4 Co5 2.008 . S
Co5 N4 2.008 . S
Co5 N6 1.995 . S
Co5 N11 2.008 . S
Co5 N16 1.995 . S
Co5 N21 2.282 . S
Co5 N27 2.282 . S
N6 Co5 1.995 . S
N6 C7 1.376 1_455 S
N6 C10 1.383 . S
C7 N6 1.376 1_655 S
C7 C8 1.446 . S
C7 C37 1.391 . S
C8 C7 1.446 . S
C8 C9 1.339 1_655 S
C8 H43 0.949 . S
C9 C8 1.339 1_455 S
C9 C10 1.439 . S
C9 H44 0.950 . S
C10 N6 1.383 . S
C10 C9 1.439 . S
C10 C39 1.392 . S
N11 Co5 2.008 . S
N11 C12 1.376 . S
N11 C15 1.374 . S
C12 N11 1.376 . S
C12 C13 1.443 . S
C12 C39 1.389 . S
C13 C12 1.443 . S
C13 C14 1.340 . S
C13 H45 0.951 . S
C14 C13 1.340 . S
C14 C15 1.439 . S
C14 H46 0.950 . S
C15 N11 1.374 . S
C15 C14 1.439 . S
C15 C40 1.395 . S
N16 Co5 1.995 . S
N16 C17 1.376 . S
N16 C20 1.383 . S
C17 N16 1.376 . S
C17 C18 1.446 . S
C17 C40 1.391 . S
C18 C17 1.446 . S
C18 C19 1.339 . S
C18 H47 0.949 . S
C19 C18 1.339 . S
C19 C20 1.439 . S
C19 H48 0.950 . S
C20 N16 1.383 . S
C20 C19 1.439 . S
C20 C38 1.392 . S
N21 Co5 2.282 . S
N21 C24 1.332 . S
N21 C26 1.332 . S
C22 C23 1.386 . S
C22 C25 1.388 . S
C23 C22 1.386 . S
C23 C24 1.382 . S
C23 H49 0.950 . S
C24 N21 1.332 . S
C24 C23 1.382 . S
C24 H35 0.952 . S
C25 C22 1.388 . S
C25 C26 1.382 . S
C25 H50 0.950 . S
C26 N21 1.332 . S
C26 C25 1.382 . S
C26 H36 0.948 . S
N27 Co5 2.282 . S
N27 C31 1.332 . S
N27 C32 1.332 . S
C28 C29 1.388 . S
C28 C32 1.382 . S
C28 H51 0.950 . S
C29 C28 1.388 . S
C29 C30 1.386 . S
C30 C29 1.386 . S
C30 C31 1.382 . S
C30 H52 0.950 1_455 S
C31 N27 1.332 . S
C31 C30 1.382 . S
C31 H33 0.952 1_455 S
C32 N27 1.332 . S
C32 C28 1.382 . S
C32 H34 0.948 . S
H33 C31 0.952 1_655 S
H34 C32 0.948 . S
H35 C24 0.952 . S
H36 C26 0.948 . S
C37 C3 1.395 . S
C37 C7 1.391 . S
C38 C0 1.388 1_455 S
C38 C20 1.392 . S
C39 C10 1.392 . S
C39 C12 1.389 . S
C40 C15 1.395 . S
C40 C17 1.391 . S
H41 C1 0.951 . S
H42 C2 0.950 . S
H43 C8 0.949 . S
H44 C9 0.950 . S
H45 C13 0.951 . S
H46 C14 0.950 . S
H47 C18 0.949 . S
H48 C19 0.950 . S
H49 C23 0.950 . S
H50 C25 0.950 . S
H51 C28 0.950 . S
H52 C30 0.950 1_655 S
C53 C54 1.443 . S
C53 N57 1.376 . S
C53 C91 1.389 1_655 S
C54 C53 1.443 . S
C54 C55 1.340 . S
C54 H94 0.951 . S
C55 C54 1.340 . S
C55 C56 1.439 . S
C55 H95 0.950 . S
C56 C55 1.439 . S
C56 N57 1.374 . S
C56 C90 1.395 . S
N57 C53 1.376 . S
N57 C56 1.374 . S
N57 Co58 2.008 1_655 S
Co58 N57 2.008 1_455 S
Co58 N59 1.995 1_455 S
Co58 N64 2.008 . S
Co58 N69 1.995 . S
Co58 N74 2.282 . S
Co58 N80 2.282 . S
N59 Co58 1.995 1_655 S
N59 C60 1.376 . S
N59 C63 1.377 1_655 S
C60 N59 1.376 . S
C60 C61 1.446 . S
C60 C90 1.391 . S
C61 C60 1.446 . S
C61 C62 1.339 . S
C61 H96 0.949 . S
C62 C61 1.339 . S
C62 C63 1.413 1_655 S
C62 H97 0.950 . S
C63 N59 1.377 1_455 S
C63 C62 1.413 1_455 S
C63 C92 1.420 . S
N64 Co58 2.008 . S
N64 C65 1.376 . S
N64 C68 1.374 . S
C65 N64 1.376 . S
C65 C66 1.443 . S
C65 C92 1.389 . S
C66 C65 1.443 . S
C66 C67 1.340 . S
C66 H98 0.951 . S
C67 C66 1.340 . S
C67 C68 1.439 . S
C67 H99 0.950 . S
C68 N64 1.374 . S
C68 C67 1.439 . S
C68 C93 1.395 . S
N69 Co58 1.995 . S
N69 C70 1.376 . S
N69 C73 1.383 . S
C70 N69 1.376 . S
C70 C71 1.446 . S
C70 C93 1.391 . S
C71 C70 1.446 . S
C71 C72 1.339 . S
C71 H100 0.949 . S
C72 C71 1.339 . S
C72 C73 1.439 . S
C72 H101 0.950 . S
C73 N69 1.383 . S
C73 C72 1.439 . S
C73 C91 1.392 . S
N74 Co58 2.282 . S
N74 C77 1.332 . S
N74 C79 1.332 . S
C75 C76 1.386 . S
C75 C78 1.388 . S
C76 C75 1.386 . S
C76 C77 1.382 . S
C76 H102 0.950 . S
C77 N74 1.332 . S
C77 C76 1.382 . S
C77 H88 0.952 . S
C78 C75 1.388 . S
C78 C79 1.382 . S
C78 H103 0.950 1_455 S
C79 N74 1.332 . S
C79 C78 1.382 . S
C79 H89 0.948 1_455 S
N80 Co58 2.282 . S
N80 C84 1.332 1_455 S
N80 C85 1.332 . S
C81 C82 1.388 1_455 S
C81 C85 1.382 . S
C81 H104 0.950 . S
C82 C81 1.388 1_655 S
C82 C83 1.386 . S
C83 C82 1.386 . S
C83 C84 1.382 . S
C83 H105 0.950 . S
C84 N80 1.332 1_655 S
C84 C83 1.382 . S
C84 H86 0.952 . S
C85 N80 1.332 . S
C85 C81 1.382 . S
C85 H87 0.948 . S
H86 C84 0.952 . S
H87 C85 0.948 . S
H88 C77 0.952 . S
H89 C79 0.948 1_655 S
C90 C56 1.395 . S
C90 C60 1.391 . S
C91 C53 1.389 1_455 S
C91 C73 1.392 . S
C92 C63 1.420 . S
C92 C65 1.389 . S
C93 C68 1.395 . S
C93 C70 1.391 . S
H94 C54 0.951 . S
H95 C55 0.950 . S
H96 C61 0.949 . S
H97 C62 0.950 . S
H98 C66 0.951 . S
H99 C67 0.950 . S
H100 C71 0.949 . S
H101 C72 0.950 . S
H102 C76 0.950 . S
H103 C78 0.950 1_655 S
H104 C81 0.950 . S
H105 C83 0.950 . S
C106 C107 1.443 . S
C106 N110 1.376 . S
C106 C144 1.389 . S
C107 C106 1.443 . S
C107 C108 1.340 . S
C107 H147 0.951 . S
C108 C107 1.340 . S
C108 C109 1.439 . S
C108 H148 0.950 . S
C109 C108 1.439 . S
C109 N110 1.374 . S
C109 C143 1.395 . S
N110 C106 1.376 . S
N110 C109 1.374 . S
N110 Co111 2.008 1_565 S
Co111 N110 2.008 1_545 S
Co111 N112 1.995 1_545 S
Co111 N117 2.008 . S
Co111 N122 1.995 . S
Co111 N127 2.282 . S
Co111 N133 2.282 . S
N112 Co111 1.995 1_565 S
N112 C113 1.376 . S
N112 C116 1.383 1_565 S
C113 N112 1.376 . S
C113 C114 1.446 . S
C113 C143 1.391 . S
C114 C113 1.446 . S
C114 C115 1.339 . S
C114 H149 0.949 . S
C115 C114 1.339 . S
C115 C116 1.438 1_565 S
C115 H150 0.950 . S
C116 N112 1.383 1_545 S
C116 C115 1.438 1_545 S
C116 C145 1.393 . S
N117 Co111 2.008 . S
N117 C118 1.376 . S
N117 C121 1.374 . S
C118 N117 1.376 . S
C118 C119 1.443 . S
C118 C145 1.389 . S
C119 C118 1.443 . S
C119 C120 1.340 . S
C119 H151 0.951 . S
C120 C119 1.340 . S
C120 C121 1.439 . S
C120 H152 0.950 . S
C121 N117 1.374 . S
C121 C120 1.439 . S
C121 C146 1.395 . S
N122 Co111 1.995 . S
N122 C123 1.376 . S
N122 C126 1.383 . S
C123 N122 1.376 . S
C123 C124 1.446 . S
C123 C146 1.391 . S
C124 C123 1.446 . S
C124 C125 1.339 . S
C124 H153 0.949 . S
C125 C124 1.339 . S
C125 C126 1.439 . S
C125 H154 0.950 . S
C126 N122 1.383 . S
C126 C125 1.439 . S
C126 C144 1.392 1_545 S
N127 Co111 2.282 . S
N127 C130 1.332 . S
N127 C132 1.332 . S
C128 C129 1.386 . S
C128 C131 1.388 . S
C129 C128 1.386 . S
C129 C130 1.382 . S
C129 H155 0.950 . S
C130 N127 1.332 . S
C130 C129 1.382 . S
C130 H141 0.952 . S
C131 C128 1.388 . S
C131 C132 1.382 . S
C131 H156 0.950 1_545 S
C132 N127 1.332 . S
C132 C131 1.382 . S
C132 H142 0.948 1_545 S
N133 Co111 2.282 . S
N133 C137 1.332 1_545 S
N133 C138 1.332 . S
C134 C135 1.388 1_545 S
C134 C138 1.382 . S
C134 H157 0.950 . S
C135 C134 1.388 1_565 S
C135 C136 1.386 . S
C136 C135 1.386 . S
C136 C137 1.382 . S
C136 H158 0.950 . S
C137 N133 1.332 1_565 S
C137 C136 1.382 . S
C137 H139 0.952 . S
C138 N133 1.332 . S
C138 C134 1.382 . S
C138 H140 0.948 . S
H139 C137 0.952 . S
H140 C138 0.948 . S
H141 C130 0.952 . S
H142 C132 0.948 1_565 S
C143 C109 1.395 . S
C143 C113 1.391 . S
C144 C106 1.389 . S
C144 C126 1.392 1_565 S
C145 C116 1.393 . S
C145 C118 1.389 . S
C146 C121 1.395 . S
C146 C123 1.391 . S
H147 C107 0.951 . S
H148 C108 0.950 . S
H149 C114 0.949 . S
H150 C115 0.950 . S
H151 C119 0.951 . S
H152 C120 0.950 . S
H153 C124 0.949 . S
H154 C125 0.950 . S
H155 C129 0.950 . S
H156 C131 0.950 1_565 S
H157 C134 0.950 . S
H158 C136 0.950 . S
C159 C160 1.443 . S
C159 N163 1.376 . S
C159 C197 1.389 . S
C160 C159 1.443 . S
C160 C161 1.340 . S
C160 H200 0.951 . S
C161 C160 1.340 . S
C161 C162 1.439 . S
C161 H201 0.950 . S
C162 C161 1.439 . S
C162 N163 1.374 . S
C162 C196 1.395 . S
N163 C159 1.376 . S
N163 C162 1.374 . S
N163 Co164 2.008 . S
Co164 N163 2.008 . S
Co164 N165 1.995 . S
Co164 N170 2.008 . S
Co164 N175 1.995 . S
Co164 N180 2.282 . S
Co164 N186 2.282 . S
N165 Co164 1.995 . S
N165 C166 1.376 . S
N165 C169 1.383 . S
C166 N165 1.376 . S
C166 C167 1.446 . S
C166 C196 1.391 . S
C167 C166 1.446 . S
C167 C168 1.339 . S
C167 H202 0.949 . S
C168 C167 1.339 . S
C168 C169 1.439 . S
C168 H203 0.950 . S
C169 N165 1.383 . S
C169 C168 1.439 . S
C169 C198 1.392 . S
N170 Co164 2.008 . S
N170 C171 1.376 . S
N170 C174 1.374 . S
C171 N170 1.376 . S
C171 C172 1.443 . S
C171 C198 1.389 . S
C172 C171 1.443 . S
C172 C173 1.340 . S
C172 H204 0.951 . S
C173 C172 1.340 . S
C173 C174 1.439 . S
C173 H205 0.950 . S
C174 N170 1.374 . S
C174 C173 1.439 . S
C174 C199 1.395 . S
N175 Co164 1.995 . S
N175 C176 1.376 . S
N175 C179 1.383 . S
C176 N175 1.376 . S
C176 C177 1.446 . S
C176 C199 1.391 . S
C177 C176 1.446 . S
C177 C178 1.339 . S
C177 H206 0.949 . S
C178 C177 1.339 . S
C178 C179 1.439 . S
C178 H207 0.950 . S
C179 N175 1.383 . S
C179 C178 1.439 . S
C179 C197 1.392 . S
N180 Co164 2.282 . S
N180 C183 1.332 . S
N180 C185 1.332 . S
C181 C182 1.386 . S
C181 C184 1.388 . S
C182 C181 1.386 . S
C182 C183 1.382 . S
C182 H208 0.950 . S
C183 N180 1.332 . S
C183 C182 1.382 . S
C183 H194 0.952 . S
C184 C181 1.388 . S
C184 C185 1.382 . S
C184 H209 0.950 . S
C185 N180 1.332 . S
C185 C184 1.382 . S
C185 H195 0.948 . S
N186 Co164 2.282 . S
N186 C190 1.332 . S
N186 C191 1.332 . S
C187 C188 1.388 . S
C187 C191 1.382 . S
C187 H210 0.950 . S
C188 C187 1.388 . S
C188 C189 1.386 . S
C189 C188 1.386 . S
C189 C190 1.382 . S
C189 H211 0.950 . S
C190 N186 1.332 . S
C190 C189 1.382 . S
C190 H192 0.952 . S
C191 N186 1.332 . S
C191 C187 1.382 . S
C191 H193 0.948 . S
H192 C190 0.952 . S
H193 C191 0.948 . S
H194 C183 0.952 . S
H195 C185 0.948 . S
C196 C162 1.395 . S
C196 C166 1.391 . S
C197 C159 1.389 . S
C197 C179 1.392 . S
C198 C169 1.392 . S
C198 C171 1.389 . S
C199 C174 1.395 . S
C199 C176 1.391 . S
H200 C160 0.951 . S
H201 C161 0.950 . S
H202 C167 0.949 . S
H203 C168 0.950 . S
H204 C172 0.951 . S
H205 C173 0.950 . S
H206 C177 0.949 . S
H207 C178 0.950 . S
H208 C182 0.950 . S
H209 C184 0.950 . S
H210 C187 0.950 . S
H211 C189 0.950 . S
C212 C213 1.443 . S
C212 N216 1.376 . S
C212 C250 1.389 1_556 S
C213 C212 1.443 . S
C213 C214 1.340 . S
C213 H253 0.951 . S
C214 C213 1.340 . S
C214 C215 1.439 . S
C214 H254 0.950 . S
C215 C214 1.439 . S
C215 N216 1.374 . S
C215 C249 1.395 . S
N216 C212 1.376 . S
N216 C215 1.374 . S
N216 Co217 2.008 1_556 S
Co217 N216 2.008 1_554 S
Co217 N218 1.993 1_554 S
Co217 N223 2.008 . S
Co217 N228 1.995 . S
Co217 N233 2.282 . S
Co217 N239 2.282 . S
N218 Co217 1.993 1_556 S
N218 C219 1.379 . S
N218 C222 1.382 1_556 S
C219 N218 1.379 . S
C219 C220 1.446 . S
C219 C249 1.391 . S
C220 C219 1.446 . S
C220 C221 1.339 . S
C220 H255 0.949 . S
C221 C220 1.339 . S
C221 C222 1.439 1_556 S
C221 H256 0.950 . S
C222 N218 1.382 1_554 S
C222 C221 1.439 1_554 S
C222 C251 1.392 . S
N223 Co217 2.008 . S
N223 C224 1.376 . S
N223 C227 1.374 . S
C224 N223 1.376 . S
C224 C225 1.443 . S
C224 C251 1.389 . S
C225 C224 1.443 . S
C225 C226 1.340 . S
C225 H257 0.951 . S
C226 C225 1.340 . S
C226 C227 1.439 . S
C226 H258 0.950 . S
C227 N223 1.374 . S
C227 C226 1.439 . S
C227 C252 1.395 . S
N228 Co217 1.995 . S
N228 C229 1.376 . S
N228 C232 1.383 . S
C229 N228 1.376 . S
C229 C230 1.446 . S
C229 C252 1.391 . S
C230 C229 1.446 . S
C230 C231 1.339 . S
C230 H259 0.949 . S
C231 C230 1.339 . S
C231 C232 1.439 . S
C231 H260 0.950 . S
C232 N228 1.383 . S
C232 C231 1.439 . S
C232 C250 1.392 . S
N233 Co217 2.282 . S
N233 C236 1.332 . S
N233 C238 1.332 . S
C234 C235 1.386 . S
C234 C237 1.388 . S
C235 C234 1.386 . S
C235 C236 1.382 . S
C235 H261 0.950 . S
C236 N233 1.332 . S
C236 C235 1.382 . S
C236 H247 0.952 . S
C237 C234 1.388 . S
C237 C238 1.382 . S
C237 H262 0.950 . S
C238 N233 1.332 . S
C238 C237 1.382 . S
C238 H248 0.948 1_554 S
N239 Co217 2.282 . S
N239 C243 1.332 1_554 S
N239 C244 1.332 . S
C240 C241 1.388 . S
C240 C244 1.382 . S
C240 H263 0.950 . S
C241 C240 1.388 . S
C241 C242 1.386 1_554 S
C242 C241 1.386 1_556 S
C242 C243 1.382 . S
C242 H264 0.950 . S
C243 N239 1.332 1_556 S
C243 C242 1.382 . S
C243 H245 0.952 . S
C244 N239 1.332 . S
C244 C240 1.382 . S
C244 H246 0.948 . S
H245 C243 0.952 . S
H246 C244 0.948 . S
H247 C236 0.952 . S
H248 C238 0.948 1_556 S
C249 C215 1.395 . S
C249 C219 1.391 . S
C250 C212 1.389 1_554 S
C250 C232 1.392 . S
C251 C222 1.392 . S
C251 C224 1.389 . S
C252 C227 1.395 . S
C252 C229 1.391 . S
H253 C213 0.951 . S
H254 C214 0.950 . S
H255 C220 0.949 . S
H256 C221 0.950 . S
H257 C225 0.951 . S
H258 C226 0.950 . S
H259 C230 0.949 . S
H260 C231 0.950 . S
H261 C235 0.950 . S
H262 C237 0.950 . S
H263 C240 0.950 . S
H264 C242 0.950 . S
C265 C266 1.443 . S
C265 N269 1.376 . S
C265 C303 1.389 . S
C266 C265 1.443 . S
C266 C267 1.340 . S
C266 H306 0.951 . S
C267 C266 1.340 . S
C267 C268 1.439 . S
C267 H307 0.950 . S
C268 C267 1.439 . S
C268 N269 1.374 . S
C268 C302 1.395 . S
N269 C265 1.376 . S
N269 C268 1.374 . S
N269 Co270 2.008 . S
Co270 N269 2.008 . S
Co270 N271 1.995 . S
Co270 N276 2.008 . S
Co270 N281 1.995 . S
Co270 N286 2.282 . S
Co270 N292 2.282 . S
N271 Co270 1.995 . S
N271 C272 1.376 . S
N271 C275 1.383 . S
C272 N271 1.376 . S
C272 C273 1.446 . S
C272 C302 1.391 . S
C273 C272 1.446 . S
C273 C274 1.339 . S
C273 H308 0.949 . S
C274 C273 1.339 . S
C274 C275 1.439 . S
C274 H309 0.950 . S
C275 N271 1.383 . S
C275 C274 1.439 . S
C275 C304 1.392 . S
N276 Co270 2.008 . S
N276 C277 1.376 . S
N276 C280 1.374 . S
C277 N276 1.376 . S
C277 C278 1.443 . S
C277 C304 1.389 . S
C278 C277 1.443 . S
C278 C279 1.340 . S
C278 H310 0.951 . S
C279 C278 1.340 . S
C279 C280 1.439 . S
C279 H311 0.950 . S
C280 N276 1.374 . S
C280 C279 1.439 . S
C280 C305 1.395 . S
N281 Co270 1.995 . S
N281 C282 1.376 . S
N281 C285 1.383 . S
C282 N281 1.376 . S
C282 C283 1.446 . S
C282 C305 1.391 . S
C283 C282 1.446 . S
C283 C284 1.339 . S
C283 H312 0.949 . S
C284 C283 1.339 . S
C284 C285 1.439 . S
C284 H313 0.950 . S
C285 N281 1.383 . S
C285 C284 1.439 . S
C285 C303 1.392 . S
N286 Co270 2.282 . S
N286 C289 1.332 . S
N286 C291 1.332 . S
C287 C288 1.386 . S
C287 C290 1.388 . S
C288 C287 1.386 . S
C288 C289 1.382 . S
C288 H314 0.950 . S
C289 N286 1.332 . S
C289 C288 1.382 . S
C289 H300 0.952 . S
C290 C287 1.388 . S
C290 C291 1.382 . S
C290 H315 0.950 . S
C291 N286 1.332 . S
C291 C290 1.382 . S
C291 H301 0.948 . S
N292 Co270 2.282 . S
N292 C296 1.332 . S
N292 C297 1.332 . S
C293 C294 1.388 . S
C293 C297 1.382 . S
C293 H316 0.950 . S
C294 C293 1.388 . S
C294 C295 1.386 . S
C295 C294 1.386 . S
C295 C296 1.382 . S
C295 H317 0.950 . S
C296 N292 1.332 . S
C296 C295 1.382 . S
C296 H298 0.952 . S
C297 N292 1.332 . S
C297 C293 1.382 . S
C297 H299 0.948 . S
H298 C296 0.952 . S
H299 C297 0.948 . S
H300 C289 0.952 . S
H301 C291 0.948 . S
C302 C268 1.395 . S
C302 C272 1.391 . S
C303 C265 1.389 . S
C303 C285 1.392 . S
C304 C275 1.392 . S
C304 C277 1.389 . S
C305 C280 1.395 . S
C305 C282 1.391 . S
H306 C266 0.951 . S
H307 C267 0.950 . S
H308 C273 0.949 . S
H309 C274 0.950 . S
H310 C278 0.951 . S
H311 C279 0.950 . S
H312 C283 0.949 . S
H313 C284 0.950 . S
H314 C288 0.950 . S
H315 C290 0.950 . S
H316 C293 0.950 . S
H317 C295 0.950 . S
C318 C319 1.443 . S
C318 N322 1.376 . S
C318 C356 1.389 . S
C319 C318 1.443 . S
C319 C320 1.340 . S
C319 H359 0.951 . S
C320 C319 1.340 . S
C320 C321 1.439 . S
C320 H360 0.950 . S
C321 C320 1.439 . S
C321 N322 1.374 . S
C321 C355 1.395 . S
N322 C318 1.376 . S
N322 C321 1.374 . S
N322 Co323 2.008 . S
Co323 N322 2.008 . S
Co323 N324 1.995 . S
Co323 N329 2.008 . S
Co323 N334 1.995 . S
Co323 N339 2.282 . S
Co323 N345 2.282 . S
N324 Co323 1.995 . S
N324 C325 1.376 . S
N324 C328 1.383 . S
C325 N324 1.376 . S
C325 C326 1.446 . S
C325 C355 1.391 . S
C326 C325 1.446 . S
C326 C327 1.339 . S
C326 H361 0.949 . S
C327 C326 1.339 . S
C327 C328 1.439 . S
C327 H362 0.950 . S
C328 N324 1.383 . S
C328 C327 1.439 . S
C328 C357 1.392 . S
N329 Co323 2.008 . S
N329 C330 1.376 . S
N329 C333 1.374 . S
C330 N329 1.376 . S
C330 C331 1.443 . S
C330 C357 1.389 . S
C331 C330 1.443 . S
C331 C332 1.340 . S
C331 H363 0.951 . S
C332 C331 1.340 . S
C332 C333 1.439 . S
C332 H364 0.950 . S
C333 N329 1.374 . S
C333 C332 1.439 . S
C333 C358 1.395 . S
N334 Co323 1.995 . S
N334 C335 1.376 . S
N334 C338 1.383 . S
C335 N334 1.376 . S
C335 C336 1.446 . S
C335 C358 1.391 . S
C336 C335 1.446 . S
C336 C337 1.339 . S
C336 H365 0.949 . S
C337 C336 1.339 . S
C337 C338 1.439 . S
C337 H366 0.950 . S
C338 N334 1.383 . S
C338 C337 1.439 . S
C338 C356 1.392 . S
N339 Co323 2.282 . S
N339 C342 1.332 . S
N339 C344 1.332 . S
C340 C341 1.386 . S
C340 C343 1.388 . S
C341 C340 1.386 . S
C341 C342 1.382 . S
C341 H367 0.950 . S
C342 N339 1.332 . S
C342 C341 1.382 . S
C342 H353 0.952 . S
C343 C340 1.388 . S
C343 C344 1.382 . S
C343 H368 0.950 . S
C344 N339 1.332 . S
C344 C343 1.382 . S
C344 H354 0.948 . S
N345 Co323 2.282 . S
N345 C349 1.332 . S
N345 C350 1.332 . S
C346 C347 1.388 . S
C346 C350 1.382 . S
C346 H369 0.950 . S
C347 C346 1.388 . S
C347 C348 1.386 . S
C348 C347 1.386 . S
C348 C349 1.382 . S
C348 H370 0.950 . S
C349 N345 1.332 . S
C349 C348 1.382 . S
C349 H351 0.952 . S
C350 N345 1.332 . S
C350 C346 1.382 . S
C350 H352 0.948 . S
H351 C349 0.952 . S
H352 C350 0.948 . S
H353 C342 0.952 . S
H354 C344 0.948 . S
C355 C321 1.395 . S
C355 C325 1.391 . S
C356 C318 1.389 . S
C356 C338 1.392 . S
C357 C328 1.392 . S
C357 C330 1.389 . S
C358 C333 1.395 . S
C358 C335 1.391 . S
H359 C319 0.951 . S
H360 C320 0.950 . S
H361 C326 0.949 . S
H362 C327 0.950 . S
H363 C331 0.951 . S
H364 C332 0.950 . S
H365 C336 0.949 . S
H366 C337 0.950 . S
H367 C341 0.950 . S
H368 C343 0.950 . S
H369 C346 0.950 . S
H370 C348 0.950 . S
C371 C372 1.443 . S
C371 N375 1.376 . S
C371 C409 1.389 . S
C372 C371 1.443 . S
C372 C373 1.340 . S
C372 H412 0.951 . S
C373 C372 1.340 . S
C373 C374 1.439 . S
C373 H413 0.950 . S
C374 C373 1.439 . S
C374 N375 1.374 . S
C374 C408 1.395 . S
N375 C371 1.376 . S
N375 C374 1.374 . S
N375 Co376 2.008 . S
Co376 N375 2.008 . S
Co376 N377 1.995 . S
Co376 N382 2.008 . S
Co376 N387 1.995 . S
Co376 N392 2.282 . S
Co376 N398 2.282 . S
N377 Co376 1.995 . S
N377 C378 1.376 . S
N377 C381 1.383 . S
C378 N377 1.376 . S
C378 C379 1.446 . S
C378 C408 1.391 . S
C379 C378 1.446 . S
C379 C380 1.339 . S
C379 H414 0.949 . S
C380 C379 1.339 . S
C380 C381 1.439 . S
C380 H415 0.950 . S
C381 N377 1.383 . S
C381 C380 1.439 . S
C381 C410 1.392 . S
N382 Co376 2.008 . S
N382 C383 1.376 . S
N382 C386 1.374 . S
C383 N382 1.376 . S
C383 C384 1.443 . S
C383 C410 1.389 . S
C384 C383 1.443 . S
C384 C385 1.340 . S
C384 H416 0.951 . S
C385 C384 1.340 . S
C385 C386 1.439 . S
C385 H417 0.950 . S
C386 N382 1.374 . S
C386 C385 1.439 . S
C386 C411 1.395 . S
N387 Co376 1.995 . S
N387 C388 1.376 . S
N387 C391 1.383 . S
C388 N387 1.376 . S
C388 C389 1.446 . S
C388 C411 1.391 . S
C389 C388 1.446 . S
C389 C390 1.339 . S
C389 H418 0.949 . S
C390 C389 1.339 . S
C390 C391 1.439 . S
C390 H419 0.950 . S
C391 N387 1.383 . S
C391 C390 1.439 . S
C391 C409 1.392 . S
N392 Co376 2.282 . S
N392 C395 1.332 . S
N392 C397 1.332 . S
C393 C394 1.386 . S
C393 C396 1.388 . S
C394 C393 1.386 . S
C394 C395 1.382 . S
C394 H420 0.950 . S
C395 N392 1.332 . S
C395 C394 1.382 . S
C395 H406 0.952 . S
C396 C393 1.388 . S
C396 C397 1.382 . S
C396 H421 0.950 . S
C397 N392 1.332 . S
C397 C396 1.382 . S
C397 H407 0.948 . S
N398 Co376 2.282 . S
N398 C402 1.332 . S
N398 C403 1.332 . S
C399 C400 1.388 . S
C399 C403 1.382 . S
C399 H422 0.950 . S
C400 C399 1.388 . S
C400 C401 1.386 . S
C401 C400 1.386 . S
C401 C402 1.382 . S
C401 H423 0.950 . S
C402 N398 1.332 . S
C402 C401 1.382 . S
C402 H404 0.952 . S
C403 N398 1.332 . S
C403 C399 1.382 . S
C403 H405 0.948 . S
H404 C402 0.952 . S
H405 C403 0.948 . S
H406 C395 0.952 . S
H407 C397 0.948 . S
C408 C374 1.395 . S
C408 C378 1.391 . S
C409 C371 1.389 . S
C409 C391 1.392 . S
C410 C381 1.392 . S
C410 C383 1.389 . S
C411 C386 1.395 . S
C411 C388 1.391 . S
H412 C372 0.951 . S
H413 C373 0.950 . S
H414 C379 0.949 . S
H415 C380 0.950 . S
H416 C384 0.951 . S
H417 C385 0.950 . S
H418 C389 0.949 . S
H419 C390 0.950 . S
H420 C394 0.950 . S
H421 C396 0.950 . S
H422 C399 0.950 . S
H423 C401 0.950 . S
C424 C425 1.443 . S
C424 N428 1.376 . S
C424 C462 1.389 . S
C425 C424 1.443 . S
C425 C426 1.340 . S
C425 H465 0.951 . S
C426 C425 1.340 . S
C426 C427 1.439 . S
C426 H466 0.950 . S
C427 C426 1.439 . S
C427 N428 1.374 . S
C427 C461 1.395 . S
N428 C424 1.376 . S
N428 C427 1.374 . S
N428 Co429 2.008 . S
Co429 N428 2.008 . S
Co429 N430 1.995 . S
Co429 N435 2.008 . S
Co429 N440 1.995 . S
Co429 N445 2.282 . S
Co429 N451 2.282 . S
N430 Co429 1.995 . S
N430 C431 1.376 . S
N430 C434 1.383 . S
C431 N430 1.376 . S
C431 C432 1.446 . S
C431 C461 1.391 . S
C432 C431 1.446 . S
C432 C433 1.339 . S
C432 H467 0.949 . S
C433 C432 1.339 . S
C433 C434 1.439 . S
C433 H468 0.950 . S
C434 N430 1.383 . S
C434 C433 1.439 . S
C434 C463 1.392 . S
N435 Co429 2.008 . S
N435 C436 1.376 . S
N435 C439 1.374 . S
C436 N435 1.376 . S
C436 C437 1.443 . S
C436 C463 1.389 . S
C437 C436 1.443 . S
C437 C438 1.340 . S
C437 H469 0.951 . S
C438 C437 1.340 . S
C438 C439 1.439 . S
C438 H470 0.950 . S
C439 N435 1.374 . S
C439 C438 1.439 . S
C439 C464 1.395 . S
N440 Co429 1.995 . S
N440 C441 1.376 . S
N440 C444 1.383 . S
C441 N440 1.376 . S
C441 C442 1.446 . S
C441 C464 1.391 . S
C442 C441 1.446 . S
C442 C443 1.339 . S
C442 H471 0.949 . S
C443 C442 1.339 . S
C443 C444 1.439 . S
C443 H472 0.950 . S
C444 N440 1.383 . S
C444 C443 1.439 . S
C444 C462 1.392 . S
N445 Co429 2.282 . S
N445 C448 1.332 . S
N445 C450 1.332 . S
C446 C447 1.386 . S
C446 C449 1.388 . S
C447 C446 1.386 . S
C447 C448 1.382 . S
C447 H473 0.950 . S
C448 N445 1.332 . S
C448 C447 1.382 . S
C448 H459 0.952 . S
C449 C446 1.388 . S
C449 C450 1.382 . S
C449 H474 0.950 . S
C450 N445 1.332 . S
C450 C449 1.382 . S
C450 H460 0.948 . S
N451 Co429 2.282 . S
N451 C455 1.332 . S
N451 C456 1.332 . S
C452 C453 1.388 . S
C452 C456 1.382 . S
C452 H475 0.950 . S
C453 C452 1.388 . S
C453 C454 1.386 . S
C454 C453 1.386 . S
C454 C455 1.382 . S
C454 H476 0.950 . S
C455 N451 1.332 . S
C455 C454 1.382 . S
C455 H457 0.952 . S
C456 N451 1.332 . S
C456 C452 1.382 . S
C456 H458 0.948 . S
H457 C455 0.952 . S
H458 C456 0.948 . S
H459 C448 0.952 . S
H460 C450 0.948 . S
C461 C427 1.395 . S
C461 C431 1.391 . S
C462 C424 1.389 . S
C462 C444 1.392 . S
C463 C434 1.392 . S
C463 C436 1.389 . S
C464 C439 1.395 . S
C464 C441 1.391 . S
H465 C425 0.951 . S
H466 C426 0.950 . S
H467 C432 0.949 . S
H468 C433 0.950 . S
H469 C437 0.951 . S
H470 C438 0.950 . S
H471 C442 0.949 . S
H472 C443 0.950 . S
H473 C447 0.950 . S
H474 C449 0.950 . S
H475 C452 0.950 . S
H476 C454 0.950 . S
C477 C478 1.443 . S
C477 N481 1.376 . S
C477 C515 1.389 . S
C478 C477 1.443 . S
C478 C479 1.340 . S
C478 H518 0.951 . S
C479 C478 1.340 . S
C479 C480 1.439 . S
C479 H519 0.950 . S
C480 C479 1.439 . S
C480 N481 1.374 . S
C480 C514 1.395 . S
N481 C477 1.376 . S
N481 C480 1.374 . S
N481 Co482 2.008 . S
Co482 N481 2.008 . S
Co482 N483 1.995 . S
Co482 N488 2.008 . S
Co482 N493 1.995 . S
Co482 N498 2.282 . S
Co482 N504 2.282 . S
N483 Co482 1.995 . S
N483 C484 1.376 . S
N483 C487 1.383 . S
C484 N483 1.376 . S
C484 C485 1.446 . S
C484 C514 1.391 . S
C485 C484 1.446 . S
C485 C486 1.339 . S
C485 H520 0.949 . S
C486 C485 1.339 . S
C486 C487 1.439 . S
C486 H521 0.950 . S
C487 N483 1.383 . S
C487 C486 1.439 . S
C487 C516 1.392 . S
N488 Co482 2.008 . S
N488 C489 1.376 . S
N488 C492 1.374 . S
C489 N488 1.376 . S
C489 C490 1.443 . S
C489 C516 1.389 . S
C490 C489 1.443 . S
C490 C491 1.340 . S
C490 H522 0.951 . S
C491 C490 1.340 . S
C491 C492 1.439 . S
C491 H523 0.950 . S
C492 N488 1.374 . S
C492 C491 1.439 . S
C492 C517 1.395 . S
N493 Co482 1.995 . S
N493 C494 1.376 . S
N493 C497 1.383 . S
C494 N493 1.376 . S
C494 C495 1.446 . S
C494 C517 1.391 . S
C495 C494 1.446 . S
C495 C496 1.339 . S
C495 H524 0.949 . S
C496 C495 1.339 . S
C496 C497 1.439 . S
C496 H525 0.950 . S
C497 N493 1.383 . S
C497 C496 1.439 . S
C497 C515 1.392 . S
N498 Co482 2.282 . S
N498 C501 1.332 . S
N498 C503 1.332 . S
C499 C500 1.386 . S
C499 C502 1.388 . S
C500 C499 1.386 . S
C500 C501 1.382 . S
C500 H526 0.950 . S
C501 N498 1.332 . S
C501 C500 1.382 . S
C501 H512 0.952 . S
C502 C499 1.388 . S
C502 C503 1.382 . S
C502 H527 0.950 . S
C503 N498 1.332 . S
C503 C502 1.382 . S
C503 H513 0.948 . S
N504 Co482 2.282 . S
N504 C508 1.332 . S
N504 C509 1.332 . S
C505 C506 1.388 . S
C505 C509 1.382 . S
C505 H528 0.950 . S
C506 C505 1.388 . S
C506 C507 1.386 . S
C507 C506 1.386 . S
C507 C508 1.382 . S
C507 H529 0.950 . S
C508 N504 1.332 . S
C508 C507 1.382 . S
C508 H510 0.952 . S
C509 N504 1.332 . S
C509 C505 1.382 . S
C509 H511 0.948 . S
H510 C508 0.952 . S
H511 C509 0.948 . S
H512 C501 0.952 . S
H513 C503 0.948 . S
C514 C480 1.395 . S
C514 C484 1.391 . S
C515 C477 1.389 . S
C515 C497 1.392 . S
C516 C487 1.392 . S
C516 C489 1.389 . S
C517 C492 1.395 . S
C517 C494 1.391 . S
H518 C478 0.951 . S
H519 C479 0.950 . S
H520 C485 0.949 . S
H521 C486 0.950 . S
H522 C490 0.951 . S
H523 C491 0.950 . S
H524 C495 0.949 . S
H525 C496 0.950 . S
H526 C500 0.950 . S
H527 C502 0.950 . S
H528 C505 0.950 . S
H529 C507 0.950 . S
C530 C531 1.443 . S
C530 N534 1.376 . S
C530 C568 1.389 . S
C531 C530 1.443 . S
C531 C532 1.340 . S
C531 H571 0.951 . S
C532 C531 1.340 . S
C532 C533 1.439 . S
C532 H572 0.950 . S
C533 C532 1.439 . S
C533 N534 1.374 . S
C533 C567 1.395 . S
N534 C530 1.376 . S
N534 C533 1.374 . S
N534 Co535 2.008 . S
Co535 N534 2.008 . S
Co535 N536 1.995 . S
Co535 N541 2.008 1_545 S
Co535 N546 1.995 1_545 S
Co535 N551 2.282 1_545 S
Co535 N557 2.282 . S
N536 Co535 1.995 . S
N536 C537 1.376 . S
N536 C540 1.383 . S
C537 N536 1.376 . S
C537 C538 1.446 . S
C537 C567 1.391 . S
C538 C537 1.446 . S
C538 C539 1.339 . S
C538 H573 0.949 . S
C539 C538 1.339 . S
C539 C540 1.439 . S
C539 H574 0.950 . S
C540 N536 1.383 . S
C540 C539 1.439 . S
C540 C569 1.392 1_545 S
N541 Co535 2.008 1_565 S
N541 C542 1.376 . S
N541 C545 1.374 . S
C542 N541 1.376 . S
C542 C543 1.443 . S
C542 C569 1.389 . S
C543 C542 1.443 . S
C543 C544 1.340 . S
C543 H575 0.951 . S
C544 C543 1.340 . S
C544 C545 1.439 . S
C544 H576 0.950 . S
C545 N541 1.374 . S
C545 C544 1.439 . S
C545 C570 1.395 . S
N546 Co535 1.995 1_565 S
N546 C547 1.376 . S
N546 C550 1.383 . S
C547 N546 1.376 . S
C547 C548 1.446 . S
C547 C570 1.391 . S
C548 C547 1.446 . S
C548 C549 1.339 . S
C548 H577 0.949 . S
C549 C548 1.339 . S
C549 C550 1.439 . S
C549 H578 0.950 . S
C550 N546 1.383 . S
C550 C549 1.439 . S
C550 C568 1.392 1_565 S
N551 Co535 2.282 1_565 S
N551 C554 1.332 . S
N551 C556 1.332 1_565 S
C552 C553 1.386 . S
C552 C555 1.388 1_565 S
C553 C552 1.386 . S
C553 C554 1.382 . S
C553 H579 0.950 . S
C554 N551 1.332 . S
C554 C553 1.382 . S
C554 H565 0.952 . S
C555 C552 1.388 1_545 S
C555 C556 1.382 . S
C555 H580 0.950 . S
C556 N551 1.332 1_545 S
C556 C555 1.382 . S
C556 H566 0.948 . S
N557 Co535 2.282 . S
N557 C561 1.332 . S
N557 C562 1.332 1_545 S
C558 C559 1.388 1_565 S
C558 C562 1.382 . S
C558 H581 0.950 . S
C559 C558 1.388 1_545 S
C559 C560 1.386 . S
C560 C559 1.386 . S
C560 C561 1.382 . S
C560 H582 0.950 . S
C561 N557 1.332 . S
C561 C560 1.382 . S
C561 H563 0.952 . S
C562 N557 1.332 1_565 S
C562 C558 1.382 . S
C562 H564 0.948 . S
H563 C561 0.952 . S
H564 C562 0.948 . S
H565 C554 0.952 . S
H566 C556 0.948 . S
C567 C533 1.395 . S
C567 C537 1.391 . S
C568 C530 1.389 . S
C568 C550 1.392 1_545 S
C569 C540 1.392 1_565 S
C569 C542 1.389 . S
C570 C545 1.395 . S
C570 C547 1.391 . S
H571 C531 0.951 . S
H572 C532 0.950 . S
H573 C538 0.949 . S
H574 C539 0.950 . S
H575 C543 0.951 . S
H576 C544 0.950 . S
H577 C548 0.949 . S
H578 C549 0.950 . S
H579 C553 0.950 . S
H580 C555 0.950 . S
H581 C558 0.950 . S
H582 C560 0.950 . S
C583 C584 1.443 . S
C583 N587 1.376 . S
C583 C621 1.389 1_556 S
C584 C583 1.443 . S
C584 C585 1.340 . S
C584 H624 0.951 . S
C585 C584 1.340 . S
C585 C586 1.439 . S
C585 H625 0.950 . S
C586 C585 1.439 . S
C586 N587 1.374 . S
C586 C620 1.395 . S
N587 C583 1.376 . S
N587 C586 1.374 . S
N587 Co588 2.008 1_556 S
Co588 N587 2.008 1_554 S
Co588 N589 1.995 . S
Co588 N594 2.008 . S
Co588 N599 1.995 . S
Co588 N604 2.282 . S
Co588 N610 2.282 . S
N589 Co588 1.995 . S
N589 C590 1.376 1_554 S
N589 C593 1.383 . S
C590 N589 1.376 1_556 S
C590 C591 1.446 . S
C590 C620 1.391 . S
C591 C590 1.446 . S
C591 C592 1.339 . S
C591 H626 0.949 . S
C592 C591 1.339 . S
C592 C593 1.439 1_556 S
C592 H627 0.950 . S
C593 N589 1.383 . S
C593 C592 1.439 1_554 S
C593 C622 1.392 . S
N594 Co588 2.008 . S
N594 C595 1.376 . S
N594 C598 1.374 . S
C595 N594 1.376 . S
C595 C596 1.443 . S
C595 C622 1.389 . S
C596 C595 1.443 . S
C596 C597 1.340 . S
C596 H628 0.951 . S
C597 C596 1.340 . S
C597 C598 1.439 . S
C597 H629 0.950 . S
C598 N594 1.374 . S
C598 C597 1.439 . S
C598 C623 1.395 . S
N599 Co588 1.995 . S
N599 C600 1.376 . S
N599 C603 1.383 . S
C600 N599 1.376 . S
C600 C601 1.446 . S
C600 C623 1.391 . S
C601 C600 1.446 . S
C601 C602 1.339 . S
C601 H630 0.949 . S
C602 C601 1.339 . S
C602 C603 1.439 . S
C602 H631 0.950 . S
C603 N599 1.383 . S
C603 C602 1.439 . S
C603 C621 1.392 . S
N604 Co588 2.282 . S
N604 C607 1.332 . S
N604 C609 1.332 . S
C605 C606 1.386 . S
C605 C608 1.388 . S
C606 C605 1.386 . S
C606 C607 1.382 . S
C606 H632 0.950 . S
C607 N604 1.332 . S
C607 C606 1.382 . S
C607 H618 0.952 . S
C608 C605 1.388 . S
C608 C609 1.382 . S
C608 H633 0.975 . S
C609 N604 1.332 . S
C609 C608 1.382 . S
C609 H619 0.948 1_554 S
N610 Co588 2.282 . S
N610 C614 1.332 1_554 S
N610 C615 1.332 . S
C611 C612 1.388 . S
C611 C615 1.382 . S
C611 H634 0.950 . S
C612 C611 1.388 . S
C612 C613 1.386 1_554 S
C613 C612 1.386 1_556 S
C613 C614 1.382 . S
C613 H635 0.950 . S
C614 N610 1.332 1_556 S
C614 C613 1.382 . S
C614 H616 0.952 . S
C615 N610 1.332 . S
C615 C611 1.382 . S
C615 H617 0.948 . S
H616 C614 0.952 . S
H617 C615 0.948 . S
H618 C607 0.952 . S
H619 C609 0.948 1_556 S
C620 C586 1.395 . S
C620 C590 1.391 . S
C621 C583 1.389 1_554 S
C621 C603 1.392 . S
C622 C593 1.392 . S
C622 C595 1.389 . S
C623 C598 1.395 . S
C623 C600 1.391 . S
H624 C584 0.951 . S
H625 C585 0.950 . S
H626 C591 0.949 . S
H627 C592 0.950 . S
H628 C596 0.951 . S
H629 C597 0.950 . S
H630 C601 0.949 . S
H631 C602 0.950 . S
H632 C606 0.950 . S
H633 C608 0.975 . S
H634 C611 0.950 . S
H635 C613 0.950 . S
O636 Mg637 1.990 . S
O636 C650 1.253 . S
Mg637 O636 1.990 . S
Mg637 O640 2.180 . S
Mg637 O641 2.117 . S
Mg637 O655 2.030 . S
O638 Mg639 2.072 . S
O638 C650 1.260 . S
Mg639 O638 2.072 . S
Mg639 O640 2.099 . S
Mg639 O642 2.079 . S
Mg639 O643 2.072 . S
Mg639 O645 2.099 . S
Mg639 O656 2.079 . S
O640 Mg637 2.180 . S
O640 Mg639 2.099 . S
O640 C651 1.279 . S
O641 Mg637 2.117 . S
O641 C651 1.250 . S
O642 Mg639 2.079 . S
O642 C652 1.264 1_554 S
O643 Mg639 2.072 . S
O643 C653 1.260 . S
Mg644 O645 2.180 . S
Mg644 O646 2.030 1_554 S
Mg644 O647 1.990 . S
Mg644 O648 2.117 1_455 S
O645 Mg639 2.099 . S
O645 Mg644 2.180 . S
O645 C654 1.279 . S
O646 Mg644 2.030 1_556 S
O646 C652 1.248 . S
O647 Mg644 1.990 . S
O647 C653 1.253 . S
O648 Mg644 2.117 1_655 S
O648 C654 1.250 1_655 S
C649 O655 1.248 . S
C649 O656 1.264 . S
C650 O636 1.253 . S
C650 O638 1.260 . S
C651 O640 1.279 . S
C651 O641 1.250 . S
C652 O642 1.264 1_556 S
C652 O646 1.248 . S
C653 O643 1.260 . S
C653 O647 1.253 . S
C654 O645 1.279 . S
C654 O648 1.250 1_455 S
O655 Mg637 2.030 . S
O655 C649 1.248 . S
O656 Mg639 2.079 . S
O656 C649 1.264 . S
O657 Mg658 1.990 . S
O657 C671 1.253 . S
Mg658 O657 1.990 . S
Mg658 O661 2.180 . S
Mg658 O662 2.117 . S
Mg658 O676 2.030 . S
O659 Mg660 2.072 . S
O659 C671 1.260 . S
Mg660 O659 2.072 . S
Mg660 O661 2.099 . S
Mg660 O663 2.079 . S
Mg660 O664 2.072 . S
Mg660 O666 2.099 . S
Mg660 O677 2.079 . S
O661 Mg658 2.180 . S
O661 Mg660 2.099 . S
O661 C672 1.279 . S
O662 Mg658 2.117 . S
O662 C672 1.250 . S
O663 Mg660 2.079 . S
O663 C673 1.264 1_554 S
O664 Mg660 2.072 . S
O664 C674 1.260 . S
Mg665 O666 2.169 1_556 S
Mg665 O667 2.037 . S
Mg665 O668 1.969 1_556 S
Mg665 O669 2.110 1_656 S
O666 Mg660 2.099 . S
O666 Mg665 2.169 1_554 S
O666 C675 1.279 1_655 S
O667 Mg665 2.037 . S
O667 C673 1.248 . S
O668 Mg665 1.969 1_554 S
O668 C674 1.253 . S
O669 Mg665 2.110 1_454 S
O669 C675 1.250 . S
C670 O676 1.248 . S
C670 O677 1.264 . S
C671 O657 1.253 . S
C671 O659 1.260 . S
C672 O661 1.279 . S
C672 O662 1.250 . S
C673 O663 1.264 1_556 S
C673 O667 1.248 . S
C674 O664 1.260 . S
C674 O668 1.253 . S
C675 O666 1.279 1_455 S
C675 O669 1.250 . S
O676 Mg658 2.030 . S
O676 C670 1.248 . S
O677 Mg660 2.079 . S
O677 C670 1.264 . S
O678 Mg679 1.990 . S
O678 C692 1.253 . S
Mg679 O678 1.990 . S
Mg679 O682 2.180 . S
Mg679 O683 2.117 . S
Mg679 O697 2.030 . S
O680 Mg681 2.072 . S
O680 C692 1.260 . S
Mg681 O680 2.072 . S
Mg681 O682 2.099 . S
Mg681 O684 2.112 . S
Mg681 O685 2.072 . S
Mg681 O687 2.099 . S
Mg681 O698 2.079 . S
O682 Mg679 2.180 . S
O682 Mg681 2.099 . S
O682 C693 1.279 . S
O683 Mg679 2.117 . S
O683 C693 1.250 . S
O684 Mg681 2.112 . S
O684 C694 1.238 1_455 S
O685 Mg681 2.072 . S
O685 C695 1.260 . S
Mg686 O687 2.190 . S
Mg686 O688 2.023 1_455 S
Mg686 O689 2.010 . S
Mg686 O690 2.124 1_565 S
O687 Mg681 2.099 . S
O687 Mg686 2.190 . S
O687 C696 1.279 . S
O688 Mg686 2.023 1_655 S
O688 C694 1.248 . S
O689 Mg686 2.010 . S
O689 C695 1.253 . S
O690 Mg686 2.124 1_545 S
O690 C696 1.250 1_545 S
C691 O697 1.248 . S
C691 O698 1.264 . S
C692 O678 1.253 . S
C692 O680 1.260 . S
C693 O682 1.279 . S
C693 O683 1.250 . S
C694 O684 1.238 1_655 S
C694 O688 1.248 . S
C695 O685 1.260 . S
C695 O689 1.253 . S
C696 O687 1.279 . S
C696 O690 1.250 1_565 S
O697 Mg679 2.030 . S
O697 C691 1.248 . S
O698 Mg681 2.079 . S
O698 C691 1.264 . S
O699 Mg700 1.990 . S
O699 C713 1.253 . S
Mg700 O699 1.990 . S
Mg700 O703 2.180 . S
Mg700 O704 2.117 . S
Mg700 O718 2.030 . S
O701 Mg702 2.072 . S
O701 C713 1.260 . S
Mg702 O701 2.072 . S
Mg702 O703 2.099 . S
Mg702 O705 2.079 . S
Mg702 O706 2.072 . S
Mg702 O708 2.099 . S
Mg702 O719 2.079 . S
O703 Mg700 2.180 . S
O703 Mg702 2.099 . S
O703 C714 1.279 . S
O704 Mg700 2.117 . S
O704 C714 1.250 . S
O705 Mg702 2.079 . S
O705 C715 1.264 . S
O706 Mg702 2.072 . S
O706 C716 1.260 . S
Mg707 O708 2.180 . S
Mg707 O709 2.030 . S
Mg707 O710 1.990 . S
Mg707 O711 2.117 . S
O708 Mg702 2.099 . S
O708 Mg707 2.180 . S
O708 C717 1.279 . S
O709 Mg707 2.030 . S
O709 C715 1.248 . S
O710 Mg707 1.990 . S
O710 C716 1.253 . S
O711 Mg707 2.117 . S
O711 C717 1.250 . S
C712 O718 1.248 . S
C712 O719 1.264 . S
C713 O699 1.253 . S
C713 O701 1.260 . S
C714 O703 1.279 . S
C714 O704 1.250 . S
C715 O705 1.264 . S
C715 O709 1.248 . S
C716 O706 1.260 . S
C716 O710 1.253 . S
C717 O708 1.279 . S
C717 O711 1.250 . S
O718 Mg700 2.030 . S
O718 C712 1.248 . S
O719 Mg702 2.079 . S
O719 C712 1.264 . S
O720 Mg721 1.990 . S
O720 C734 1.253 . S
Mg721 O720 1.990 . S
Mg721 O724 2.180 . S
Mg721 O725 2.117 . S
Mg721 O739 2.030 . S
O722 Mg723 2.072 . S
O722 C734 1.260 . S
Mg723 O722 2.072 . S
Mg723 O724 2.099 . S
Mg723 O726 2.079 . S
Mg723 O727 2.072 . S
Mg723 O729 2.099 . S
Mg723 O740 2.079 . S
O724 Mg721 2.180 . S
O724 Mg723 2.099 . S
O724 C735 1.279 . S
O725 Mg721 2.117 . S
O725 C735 1.250 . S
O726 Mg723 2.079 . S
O726 C736 1.264 . S
O727 Mg723 2.072 . S
O727 C737 1.260 . S
Mg728 O729 2.180 . S
Mg728 O730 2.030 . S
Mg728 O731 1.990 . S
Mg728 O732 2.117 . S
O729 Mg723 2.099 . S
O729 Mg728 2.180 . S
O729 C738 1.279 . S
O730 Mg728 2.030 . S
O730 C736 1.248 . S
O731 Mg728 1.990 . S
O731 C737 1.253 . S
O732 Mg728 2.117 . S
O732 C738 1.250 . S
C733 O739 1.248 . S
C733 O740 1.264 . S
C734 O720 1.253 . S
C734 O722 1.260 . S
C735 O724 1.279 . S
C735 O725 1.250 . S
C736 O726 1.264 . S
C736 O730 1.248 . S
C737 O727 1.260 . S
C737 O731 1.253 . S
C738 O729 1.279 . S
C738 O732 1.250 . S
O739 Mg721 2.030 . S
O739 C733 1.248 . S
O740 Mg723 2.079 . S
O740 C733 1.264 . S
O741 Mg742 1.990 . S
O741 C755 1.253 . S
Mg742 O741 1.990 . S
Mg742 O745 2.180 . S
Mg742 O746 2.117 . S
Mg742 O760 2.030 . S
O743 Mg744 2.072 . S
O743 C755 1.260 . S
Mg744 O743 2.072 . S
Mg744 O745 2.099 . S
Mg744 O747 2.079 . S
Mg744 O748 2.072 . S
Mg744 O750 2.099 . S
Mg744 O761 2.079 . S
O745 Mg742 2.180 . S
O745 Mg744 2.099 . S
O745 C756 1.279 . S
O746 Mg742 2.117 . S
O746 C756 1.250 . S
O747 Mg744 2.079 . S
O747 C757 1.264 . S
O748 Mg744 2.072 . S
O748 C758 1.260 . S
Mg749 O750 2.180 . S
Mg749 O751 2.030 . S
Mg749 O752 1.990 . S
Mg749 O753 2.117 . S
O750 Mg744 2.099 . S
O750 Mg749 2.180 . S
O750 C759 1.279 . S
O751 Mg749 2.030 . S
O751 C757 1.248 . S
O752 Mg749 1.990 . S
O752 C758 1.253 . S
O753 Mg749 2.117 . S
O753 C759 1.250 . S
C754 O760 1.248 . S
C754 O761 1.264 . S
C755 O741 1.253 . S
C755 O743 1.260 . S
C756 O745 1.279 . S
C756 O746 1.250 . S
C757 O747 1.264 . S
C757 O751 1.248 . S
C758 O748 1.260 . S
C758 O752 1.253 . S
C759 O750 1.279 . S
C759 O753 1.250 . S
O760 Mg742 2.030 . S
O760 C754 1.248 . S
O761 Mg744 2.079 . S
O761 C754 1.264 . S
O762 Mg763 1.990 . S
O762 C776 1.253 . S
Mg763 O762 1.990 . S
Mg763 O766 2.180 . S
Mg763 O767 2.117 . S
Mg763 O781 2.030 . S
O764 Mg765 2.072 . S
O764 C776 1.260 . S
Mg765 O764 2.072 . S
Mg765 O766 2.099 . S
Mg765 O768 2.079 . S
Mg765 O769 2.072 . S
Mg765 O771 2.099 . S
Mg765 O782 2.079 . S
O766 Mg763 2.180 . S
O766 Mg765 2.099 . S
O766 C777 1.279 . S
O767 Mg763 2.117 . S
O767 C777 1.250 . S
O768 Mg765 2.079 . S
O768 C778 1.264 . S
O769 Mg765 2.072 . S
O769 C779 1.260 1_556 S
Mg770 O771 2.180 . S
Mg770 O772 2.031 . S
Mg770 O773 1.990 1_556 S
Mg770 O774 2.117 . S
O771 Mg765 2.099 . S
O771 Mg770 2.180 . S
O771 C780 1.279 . S
O772 Mg770 2.031 . S
O772 C778 1.250 . S
O773 Mg770 1.990 1_554 S
O773 C779 1.253 . S
O774 Mg770 2.117 . S
O774 C780 1.250 . S
C775 O781 1.248 . S
C775 O782 1.264 . S
C776 O762 1.253 . S
C776 O764 1.260 . S
C777 O766 1.279 . S
C777 O767 1.250 . S
C778 O768 1.264 . S
C778 O772 1.250 . S
C779 O769 1.260 1_554 S
C779 O773 1.253 . S
C780 O771 1.279 . S
C780 O774 1.250 . S
O781 Mg763 2.030 . S
O781 C775 1.248 . S
O782 Mg765 2.079 . S
O782 C775 1.264 . S
O783 Mg784 1.990 . S
O783 C797 1.253 . S
Mg784 O783 1.990 . S
Mg784 O787 2.180 . S
Mg784 O788 2.117 . S
Mg784 O802 2.030 . S
O785 Mg786 2.072 . S
O785 C797 1.260 . S
Mg786 O785 2.072 . S
Mg786 O787 2.099 . S
Mg786 O789 2.079 . S
Mg786 O790 2.072 . S
Mg786 O792 2.099 . S
Mg786 O803 2.079 . S
O787 Mg784 2.180 . S
O787 Mg786 2.099 . S
O787 C798 1.279 . S
O788 Mg784 2.117 . S
O788 C798 1.250 . S
O789 Mg786 2.079 . S
O789 C799 1.264 . S
O790 Mg786 2.072 . S
O790 C800 1.260 . S
Mg791 O792 2.180 . S
Mg791 O793 2.030 . S
Mg791 O794 1.990 . S
Mg791 O795 2.117 1_556 S
O792 Mg786 2.099 . S
O792 Mg791 2.180 . S
O792 C801 1.279 . S
O793 Mg791 2.030 . S
O793 C799 1.248 . S
O794 Mg791 1.990 . S
O794 C800 1.253 . S
O795 Mg791 2.117 1_554 S
O795 C801 1.250 1_554 S
C796 O802 1.248 . S
C796 O803 1.264 . S
C797 O783 1.253 . S
C797 O785 1.260 . S
C798 O787 1.279 . S
C798 O788 1.250 . S
C799 O789 1.264 . S
C799 O793 1.248 . S
C800 O790 1.260 . S
C800 O794 1.253 . S
C801 O792 1.279 . S
C801 O795 1.250 1_556 S
O802 Mg784 2.030 . S
O802 C796 1.248 . S
O803 Mg786 2.079 . S
O803 C796 1.264 . S
H804 C812 0.950 . S
H805 C817 0.950 . S
H806 C814 0.950 . S
H807 C816 0.950 . S
H808 C818 0.950 . S
H809 C820 0.950 . S
H810 C822 0.966 . S
H811 C823 0.950 1_655 S
C812 H804 0.950 . S
C812 C813 1.386 . S
C812 C814 1.391 . S
C813 C812 1.386 . S
C813 C817 1.393 . S
C814 H806 0.950 . S
C814 C812 1.391 . S
C814 C815 1.400 . S
C815 C814 1.400 . S
C815 C816 1.398 . S
C815 C821 1.491 . S
C816 H807 0.950 . S
C816 C815 1.398 . S
C816 C817 1.391 . S
C817 H805 0.950 . S
C817 C813 1.393 . S
C817 C816 1.391 . S
C818 H808 0.950 . S
C818 C819 1.386 . S
C818 C820 1.391 . S
C819 C818 1.386 . S
C819 C823 1.393 . S
C820 H809 0.950 . S
C820 C818 1.391 . S
C820 C821 1.400 . S
C821 C815 1.491 . S
C821 C820 1.400 . S
C821 C822 1.398 . S
C822 H810 0.966 . S
C822 C821 1.398 . S
C822 C823 1.391 . S
C823 H811 0.950 1_455 S
C823 C819 1.393 . S
C823 C822 1.391 . S
H824 C832 0.950 . S
H825 C837 0.950 1_655 S
H826 C834 0.950 . S
H827 C836 0.950 . S
H828 C838 0.950 . S
H829 C840 0.950 . S
H830 C842 0.951 . S
H831 C843 0.950 . S
C832 H824 0.950 . S
C832 C833 1.386 . S
C832 C834 1.391 . S
C833 C832 1.386 . S
C833 C837 1.393 . S
C834 H826 0.950 . S
C834 C832 1.391 . S
C834 C835 1.417 . S
C835 C834 1.417 . S
C835 C836 1.394 1_455 S
C835 C841 1.480 1_455 S
C836 H827 0.950 . S
C836 C835 1.394 1_655 S
C836 C837 1.391 1_655 S
C837 H825 0.950 1_455 S
C837 C833 1.393 . S
C837 C836 1.391 1_455 S
C838 H828 0.950 . S
C838 C839 1.386 . S
C838 C840 1.391 . S
C839 C838 1.386 . S
C839 C843 1.393 . S
C840 H829 0.950 . S
C840 C838 1.391 . S
C840 C841 1.400 . S
C841 C835 1.480 1_655 S
C841 C840 1.400 . S
C841 C842 1.398 1_655 S
C842 H830 0.951 . S
C842 C841 1.398 1_455 S
C842 C843 1.390 1_455 S
C843 H831 0.950 . S
C843 C839 1.393 . S
C843 C842 1.390 1_655 S
H844 C852 0.950 . S
H845 C857 0.950 . S
H846 C854 0.950 . S
H847 C856 0.950 . S
H848 C858 0.950 . S
H849 C860 0.950 . S
H850 C862 0.950 . S
H851 C863 0.950 . S
C852 H844 0.950 . S
C852 C853 1.386 . S
C852 C854 1.391 . S
C853 C852 1.386 . S
C853 C857 1.393 . S
C854 H846 0.950 . S
C854 C852 1.391 . S
C854 C855 1.400 . S
C855 C854 1.400 . S
C855 C856 1.398 . S
C855 C861 1.491 . S
C856 H847 0.950 . S
C856 C855 1.398 . S
C856 C857 1.391 . S
C857 H845 0.950 . S
C857 C853 1.393 . S
C857 C856 1.391 . S
C858 H848 0.950 . S
C858 C859 1.386 . S
C858 C860 1.391 . S
C859 C858 1.386 . S
C859 C863 1.393 . S
C860 H849 0.950 . S
C860 C858 1.391 . S
C860 C861 1.400 . S
C861 C855 1.491 . S
C861 C860 1.400 . S
C861 C862 1.398 . S
C862 H850 0.950 . S
C862 C861 1.398 . S
C862 C863 1.391 . S
C863 H851 0.950 . S
C863 C859 1.393 . S
C863 C862 1.391 . S
H864 C872 0.950 . S
H865 C877 0.950 . S
H866 C874 0.950 . S
H867 C876 0.950 . S
H868 C878 0.950 1_455 S
H869 C880 0.950 . S
H870 C882 0.950 . S
H871 C883 0.950 . S
C872 H864 0.950 . S
C872 C873 1.354 1_655 S
C872 C874 1.391 . S
C873 C872 1.354 1_455 S
C873 C877 1.422 . S
C874 H866 0.950 . S
C874 C872 1.391 . S
C874 C875 1.400 . S
C875 C874 1.400 . S
C875 C876 1.398 1_655 S
C875 C881 1.491 . S
C876 H867 0.950 . S
C876 C875 1.398 1_455 S
C876 C877 1.391 . S
C877 H865 0.950 . S
C877 C873 1.422 . S
C877 C876 1.391 . S
C878 H868 0.950 1_655 S
C878 C879 1.386 . S
C878 C880 1.391 1_655 S
C879 C878 1.386 . S
C879 C883 1.393 . S
C880 H869 0.950 . S
C880 C878 1.391 1_455 S
C880 C881 1.400 1_455 S
C881 C875 1.491 . S
C881 C880 1.400 1_655 S
C881 C882 1.398 . S
C882 H870 0.950 . S
C882 C881 1.398 . S
C882 C883 1.391 . S
C883 H871 0.950 . S
C883 C879 1.393 . S
C883 C882 1.391 . S
H884 C892 0.950 . S
H885 C897 0.950 . S
H886 C894 0.950 . S
H887 C896 0.950 . S
H888 C898 0.950 . S
H889 C900 0.950 . S
H890 C902 0.950 . S
H891 C903 0.942 1_556 S
C892 H884 0.950 . S
C892 C893 1.386 . S
C892 C894 1.391 . S
C893 C892 1.386 . S
C893 C897 1.393 . S
C894 H886 0.950 . S
C894 C892 1.391 . S
C894 C895 1.400 . S
C895 C894 1.400 . S
C895 C896 1.398 . S
C895 C901 1.491 . S
C896 H887 0.950 . S
C896 C895 1.398 . S
C896 C897 1.391 . S
C897 H885 0.950 . S
C897 C893 1.393 . S
C897 C896 1.391 . S
C898 H888 0.950 . S
C898 C899 1.386 . S
C898 C900 1.391 . S
C899 C898 1.386 . S
C899 C903 1.393 . S
C900 H889 0.950 . S
C900 C898 1.391 . S
C900 C901 1.400 . S
C901 C895 1.491 . S
C901 C900 1.400 . S
C901 C902 1.398 . S
C902 H890 0.950 . S
C902 C901 1.398 . S
C902 C903 1.391 . S
C903 H891 0.942 1_554 S
C903 C899 1.393 . S
C903 C902 1.391 . S
H904 C912 0.950 . S
H905 C917 0.950 . S
H906 C914 0.950 . S
H907 C916 0.950 . S
H908 C918 0.950 . S
H909 C920 0.950 . S
H910 C922 0.950 . S
H911 C923 0.950 . S
C912 H904 0.950 . S
C912 C913 1.386 . S
C912 C914 1.391 . S
C913 C912 1.386 . S
C913 C917 1.393 . S
C914 H906 0.950 . S
C914 C912 1.391 . S
C914 C915 1.400 . S
C915 C914 1.400 . S
C915 C916 1.398 . S
C915 C921 1.491 . S
C916 H907 0.950 . S
C916 C915 1.398 . S
C916 C917 1.391 . S
C917 H905 0.950 . S
C917 C913 1.393 . S
C917 C916 1.391 . S
C918 H908 0.950 . S
C918 C919 1.386 . S
C918 C920 1.391 . S
C919 C918 1.386 . S
C919 C923 1.393 . S
C920 H909 0.950 . S
C920 C918 1.391 . S
C920 C921 1.400 . S
C921 C915 1.491 . S
C921 C920 1.400 . S
C921 C922 1.398 . S
C922 H910 0.950 . S
C922 C921 1.398 . S
C922 C923 1.391 . S
C923 H911 0.950 . S
C923 C919 1.393 . S
C923 C922 1.391 . S
H924 C932 0.950 . S
H925 C937 0.950 . S
H926 C934 0.950 . S
H927 C936 0.950 . S
H928 C938 0.950 . S
H929 C940 0.950 . S
H930 C942 0.950 . S
H931 C943 0.950 . S
C932 H924 0.950 . S
C932 C933 1.386 1_545 S
C932 C934 1.391 . S
C933 C932 1.386 1_565 S
C933 C937 1.393 . S
C934 H926 0.950 . S
C934 C932 1.391 . S
C934 C935 1.400 1_545 S
C935 C934 1.400 1_565 S
C935 C936 1.398 . S
C935 C941 1.491 . S
C936 H927 0.950 . S
C936 C935 1.398 . S
C936 C937 1.391 . S
C937 H925 0.950 . S
C937 C933 1.393 . S
C937 C936 1.391 . S
C938 H928 0.950 . S
C938 C939 1.386 . S
C938 C940 1.391 . S
C939 C938 1.386 . S
C939 C943 1.393 1_565 S
C940 H929 0.950 . S
C940 C938 1.391 . S
C940 C941 1.400 . S
C941 C935 1.491 . S
C941 C940 1.400 . S
C941 C942 1.398 1_565 S
C942 H930 0.950 . S
C942 C941 1.398 1_545 S
C942 C943 1.391 . S
C943 H931 0.950 . S
C943 C939 1.393 1_545 S
C943 C942 1.391 . S
H944 C952 0.950 . S
H945 C957 0.950 . S
H946 C954 0.950 . S
H947 C956 0.950 . S
H948 C958 0.950 . S
H949 C960 0.950 . S
H950 C962 0.950 . S
H951 C963 0.950 . S
C952 H944 0.950 . S
C952 C953 1.386 . S
C952 C954 1.391 . S
C953 C952 1.386 . S
C953 C957 1.393 . S
C954 H946 0.950 . S
C954 C952 1.391 . S
C954 C955 1.400 . S
C955 C954 1.400 . S
C955 C956 1.398 . S
C955 C961 1.491 . S
C956 H947 0.950 . S
C956 C955 1.398 . S
C956 C957 1.391 . S
C957 H945 0.950 . S
C957 C953 1.393 . S
C957 C956 1.391 . S
C958 H948 0.950 . S
C958 C959 1.386 . S
C958 C960 1.391 . S
C959 C958 1.386 . S
C959 C963 1.393 . S
C960 H949 0.950 . S
C960 C958 1.391 . S
C960 C961 1.400 . S
C961 C955 1.491 . S
C961 C960 1.400 . S
C961 C962 1.398 . S
C962 H950 0.950 . S
C962 C961 1.398 . S
C962 C963 1.391 . S
C963 H951 0.950 . S
C963 C959 1.393 . S
C963 C962 1.391 . S
H964 C972 0.950 . S
H965 C977 0.950 . S
H966 C974 0.950 . S
H967 C976 0.950 . S
H968 C978 0.957 . S
H969 C980 0.950 . S
H970 C982 0.950 . S
H971 C983 0.950 . S
C972 H964 0.950 . S
C972 C973 1.386 . S
C972 C974 1.391 . S
C973 C972 1.386 . S
C973 C977 1.393 . S
C974 H966 0.950 . S
C974 C972 1.391 . S
C974 C975 1.400 . S
C975 C974 1.400 . S
C975 C976 1.398 . S
C975 C981 1.491 . S
C976 H967 0.950 . S
C976 C975 1.398 . S
C976 C977 1.391 . S
C977 H965 0.950 . S
C977 C973 1.393 . S
C977 C976 1.391 . S
C978 H968 0.957 . S
C978 C979 1.386 . S
C978 C980 1.391 . S
C979 C978 1.386 . S
C979 C983 1.393 . S
C980 H969 0.950 . S
C980 C978 1.391 . S
C980 C981 1.400 . S
C981 C975 1.491 . S
C981 C980 1.400 . S
C981 C982 1.398 . S
C982 H970 0.950 . S
C982 C981 1.398 . S
C982 C983 1.391 . S
C983 H971 0.950 . S
C983 C979 1.393 . S
C983 C982 1.391 . S
H984 C992 0.950 . S
H985 C997 0.950 . S
H986 C994 0.950 . S
H987 C996 0.950 . S
H988 C998 0.950 . S
H989 C1000 0.950 . S
H990 C1002 0.950 . S
H991 C1003 0.950 . S
C992 H984 0.950 . S
C992 C993 1.386 . S
C992 C994 1.391 . S
C993 C992 1.386 . S
C993 C997 1.393 . S
C994 H986 0.950 . S
C994 C992 1.391 . S
C994 C995 1.400 . S
C995 C994 1.400 . S
C995 C996 1.398 . S
C995 C1001 1.491 . S
C996 H987 0.950 . S
C996 C995 1.398 . S
C996 C997 1.391 . S
C997 H985 0.950 . S
C997 C993 1.393 . S
C997 C996 1.391 . S
C998 H988 0.950 . S
C998 C999 1.386 . S
C998 C1000 1.391 . S
C999 C998 1.386 . S
C999 C1003 1.393 . S
C1000 H989 0.950 . S
C1000 C998 1.391 . S
C1000 C1001 1.400 . S
C1001 C995 1.491 . S
C1001 C1000 1.400 . S
C1001 C1002 1.398 . S
C1002 H990 0.950 . S
C1002 C1001 1.398 . S
C1002 C1003 1.391 . S
C1003 H991 0.950 . S
C1003 C999 1.393 . S
C1003 C1002 1.391 . S
H1004 C1012 0.950 . S
H1005 C1017 0.950 . S
H1006 C1014 0.950 . S
H1007 C1016 0.950 . S
H1008 C1018 0.950 . S
H1009 C1020 0.950 . S
H1010 C1022 0.950 . S
H1011 C1023 0.950 . S
C1012 H1004 0.950 . S
C1012 C1013 1.386 . S
C1012 C1014 1.391 . S
C1013 C1012 1.386 . S
C1013 C1017 1.393 . S
C1014 H1006 0.950 . S
C1014 C1012 1.391 . S
C1014 C1015 1.400 . S
C1015 C1014 1.400 . S
C1015 C1016 1.398 . S
C1015 C1021 1.491 . S
C1016 H1007 0.950 . S
C1016 C1015 1.398 . S
C1016 C1017 1.391 . S
C1017 H1005 0.950 . S
C1017 C1013 1.393 . S
C1017 C1016 1.391 . S
C1018 H1008 0.950 . S
C1018 C1019 1.386 . S
C1018 C1020 1.391 . S
C1019 C1018 1.386 . S
C1019 C1023 1.393 . S
C1020 H1009 0.950 . S
C1020 C1018 1.391 . S
C1020 C1021 1.400 . S
C1021 C1015 1.491 . S
C1021 C1020 1.400 . S
C1021 C1022 1.398 . S
C1022 H1010 0.950 . S
C1022 C1021 1.398 . S
C1022 C1023 1.391 . S
C1023 H1011 0.950 . S
C1023 C1019 1.393 . S
C1023 C1022 1.391 . S
H1024 C1032 0.950 . S
H1025 C1037 0.950 . S
H1026 C1034 0.950 . S
H1027 C1036 0.950 . S
H1028 C1038 0.950 . S
H1029 C1040 0.950 . S
H1030 C1042 0.950 . S
H1031 C1043 0.950 . S
C1032 H1024 0.950 . S
C1032 C1033 1.386 . S
C1032 C1034 1.391 . S
C1033 C1032 1.386 . S
C1033 C1037 1.393 . S
C1034 H1026 0.950 . S
C1034 C1032 1.391 . S
C1034 C1035 1.400 . S
C1035 C1034 1.400 . S
C1035 C1036 1.398 . S
C1035 C1041 1.491 . S
C1036 H1027 0.950 . S
C1036 C1035 1.398 . S
C1036 C1037 1.391 . S
C1037 H1025 0.950 . S
C1037 C1033 1.393 . S
C1037 C1036 1.391 . S
C1038 H1028 0.950 . S
C1038 C1039 1.386 . S
C1038 C1040 1.391 . S
C1039 C1038 1.386 . S
C1039 C1043 1.393 . S
C1040 H1029 0.950 . S
C1040 C1038 1.391 . S
C1040 C1041 1.400 . S
C1041 C1035 1.491 . S
C1041 C1040 1.400 . S
C1041 C1042 1.398 . S
C1042 H1030 0.950 . S
C1042 C1041 1.398 . S
C1042 C1043 1.391 . S
C1043 H1031 0.950 . S
C1043 C1039 1.393 . S
C1043 C1042 1.391 . S
H1044 C1052 0.950 . S
H1045 C1057 0.950 . S
H1046 C1054 0.950 . S
H1047 C1056 0.950 . S
H1048 C1058 0.950 . S
H1049 C1060 0.950 . S
H1050 C1062 0.950 . S
H1051 C1063 0.950 . S
C1052 H1044 0.950 . S
C1052 C1053 1.386 . S
C1052 C1054 1.391 . S
C1053 C1052 1.386 . S
C1053 C1057 1.393 . S
C1054 H1046 0.950 . S
C1054 C1052 1.391 . S
C1054 C1055 1.400 . S
C1055 C1054 1.400 . S
C1055 C1056 1.398 . S
C1055 C1061 1.491 . S
C1056 H1047 0.950 . S
C1056 C1055 1.398 . S
C1056 C1057 1.391 . S
C1057 H1045 0.950 . S
C1057 C1053 1.393 . S
C1057 C1056 1.391 . S
C1058 H1048 0.950 . S
C1058 C1059 1.386 . S
C1058 C1060 1.391 . S
C1059 C1058 1.386 . S
C1059 C1063 1.393 . S
C1060 H1049 0.950 . S
C1060 C1058 1.391 . S
C1060 C1061 1.400 . S
C1061 C1055 1.491 . S
C1061 C1060 1.400 . S
C1061 C1062 1.398 . S
C1062 H1050 0.950 . S
C1062 C1061 1.398 . S
C1062 C1063 1.391 . S
C1063 H1051 0.950 . S
C1063 C1059 1.393 . S
C1063 C1062 1.391 . S
H1064 C1072 0.950 . S
H1065 C1077 0.950 . S
H1066 C1074 0.950 . S
H1067 C1076 0.950 . S
H1068 C1078 0.950 . S
H1069 C1080 0.950 . S
H1070 C1082 0.950 . S
H1071 C1083 0.950 . S
C1072 H1064 0.950 . S
C1072 C1073 1.386 . S
C1072 C1074 1.391 . S
C1073 C1072 1.386 . S
C1073 C1077 1.393 . S
C1074 H1066 0.950 . S
C1074 C1072 1.391 . S
C1074 C1075 1.400 . S
C1075 C1074 1.400 . S
C1075 C1076 1.398 . S
C1075 C1081 1.491 . S
C1076 H1067 0.950 . S
C1076 C1075 1.398 . S
C1076 C1077 1.391 . S
C1077 H1065 0.950 . S
C1077 C1073 1.393 . S
C1077 C1076 1.391 . S
C1078 H1068 0.950 . S
C1078 C1079 1.386 . S
C1078 C1080 1.391 . S
C1079 C1078 1.386 . S
C1079 C1083 1.393 . S
C1080 H1069 0.950 . S
C1080 C1078 1.391 . S
C1080 C1081 1.400 . S
C1081 C1075 1.491 . S
C1081 C1080 1.400 . S
C1081 C1082 1.398 . S
C1082 H1070 0.950 . S
C1082 C1081 1.398 . S
C1082 C1083 1.391 . S
C1083 H1071 0.950 . S
C1083 C1079 1.393 . S
C1083 C1082 1.391 . S
H1084 C1092 0.950 . S
H1085 C1097 0.950 . S
H1086 C1094 0.950 . S
H1087 C1096 0.950 . S
H1088 C1098 0.950 . S
H1089 C1100 0.950 . S
H1090 C1102 0.950 . S
H1091 C1103 0.950 . S
C1092 H1084 0.950 . S
C1092 C1093 1.386 . S
C1092 C1094 1.391 . S
C1093 C1092 1.386 . S
C1093 C1097 1.393 . S
C1094 H1086 0.950 . S
C1094 C1092 1.391 . S
C1094 C1095 1.400 . S
C1095 C1094 1.400 . S
C1095 C1096 1.398 . S
C1095 C1101 1.491 . S
C1096 H1087 0.950 . S
C1096 C1095 1.398 . S
C1096 C1097 1.391 . S
C1097 H1085 0.950 . S
C1097 C1093 1.393 . S
C1097 C1096 1.391 . S
C1098 H1088 0.950 . S
C1098 C1099 1.386 . S
C1098 C1100 1.391 . S
C1099 C1098 1.386 . S
C1099 C1103 1.393 . S
C1100 H1089 0.950 . S
C1100 C1098 1.391 . S
C1100 C1101 1.400 . S
C1101 C1095 1.491 . S
C1101 C1100 1.400 . S
C1101 C1102 1.398 . S
C1102 H1090 0.950 . S
C1102 C1101 1.398 . S
C1102 C1103 1.391 . S
C1103 H1091 0.950 . S
C1103 C1099 1.393 . S
C1103 C1102 1.391 . S
H1104 C1112 0.950 . S
H1105 C1117 0.950 . S
H1106 C1114 0.950 . S
H1107 C1116 0.950 . S
H1108 C1118 0.950 . S
H1109 C1120 0.950 . S
H1110 C1122 0.950 . S
H1111 C1123 0.950 . S
C1112 H1104 0.950 . S
C1112 C1113 1.386 . S
C1112 C1114 1.391 . S
C1113 C1112 1.386 . S
C1113 C1117 1.393 . S
C1114 H1106 0.950 . S
C1114 C1112 1.391 . S
C1114 C1115 1.400 . S
C1115 C1114 1.400 . S
C1115 C1116 1.398 . S
C1115 C1121 1.491 . S
C1116 H1107 0.950 . S
C1116 C1115 1.398 . S
C1116 C1117 1.391 . S
C1117 H1105 0.950 . S
C1117 C1113 1.393 . S
C1117 C1116 1.391 . S
C1118 H1108 0.950 . S
C1118 C1119 1.386 . S
C1118 C1120 1.391 . S
C1119 C1118 1.386 . S
C1119 C1123 1.393 . S
C1120 H1109 0.950 . S
C1120 C1118 1.391 . S
C1120 C1121 1.400 . S
C1121 C1115 1.491 . S
C1121 C1120 1.400 . S
C1121 C1122 1.398 . S
C1122 H1110 0.950 . S
C1122 C1121 1.398 . S
C1122 C1123 1.391 . S
C1123 H1111 0.950 . S
C1123 C1119 1.393 . S
C1123 C1122 1.391 . S
H1124 C1132 0.950 . S
H1125 C1137 0.950 . S
H1126 C1134 0.950 . S
H1127 C1136 0.950 . S
H1128 C1138 0.950 . S
H1129 C1140 0.950 . S
H1130 C1142 0.950 . S
H1131 C1143 0.950 . S
C1132 H1124 0.950 . S
C1132 C1133 1.386 . S
C1132 C1134 1.391 . S
C1133 C1132 1.386 . S
C1133 C1137 1.393 . S
C1134 H1126 0.950 . S
C1134 C1132 1.391 . S
C1134 C1135 1.400 . S
C1135 C1134 1.400 . S
C1135 C1136 1.398 . S
C1135 C1141 1.491 . S
C1136 H1127 0.950 . S
C1136 C1135 1.398 . S
C1136 C1137 1.391 . S
C1137 H1125 0.950 . S
C1137 C1133 1.393 . S
C1137 C1136 1.391 . S
C1138 H1128 0.950 . S
C1138 C1139 1.386 . S
C1138 C1140 1.391 . S
C1139 C1138 1.386 . S
C1139 C1143 1.393 . S
C1140 H1129 0.950 . S
C1140 C1138 1.391 . S
C1140 C1141 1.400 . S
C1141 C1135 1.491 . S
C1141 C1140 1.400 . S
C1141 C1142 1.398 . S
C1142 H1130 0.950 . S
C1142 C1141 1.398 . S
C1142 C1143 1.391 . S
C1143 H1131 0.950 . S
C1143 C1139 1.393 . S
C1143 C1142 1.391 . S
H1144 C1152 0.950 1_545 S
H1145 C1157 0.950 . S
H1146 C1154 0.950 1_545 S
H1147 C1156 0.950 . S
H1148 C1158 0.950 . S
H1149 C1160 0.950 . S
H1150 C1162 0.950 1_545 S
H1151 C1163 0.914 1_545 S
C1152 H1144 0.950 1_565 S
C1152 C1153 1.386 . S
C1152 C1154 1.391 . S
C1153 C1152 1.386 . S
C1153 C1157 1.393 . S
C1154 H1146 0.950 1_565 S
C1154 C1152 1.391 . S
C1154 C1155 1.400 . S
C1155 C1154 1.400 . S
C1155 C1156 1.398 . S
C1155 C1161 1.491 . S
C1156 H1147 0.950 . S
C1156 C1155 1.398 . S
C1156 C1157 1.391 . S
C1157 H1145 0.950 . S
C1157 C1153 1.393 . S
C1157 C1156 1.391 . S
C1158 H1148 0.950 . S
C1158 C1159 1.386 . S
C1158 C1160 1.391 . S
C1159 C1158 1.386 . S
C1159 C1163 1.393 . S
C1160 H1149 0.950 . S
C1160 C1158 1.391 . S
C1160 C1161 1.400 . S
C1161 C1155 1.491 . S
C1161 C1160 1.400 . S
C1161 C1162 1.398 . S
C1162 H1150 0.950 1_565 S
C1162 C1161 1.398 . S
C1162 C1163 1.391 . S
C1163 H1151 0.914 1_565 S
C1163 C1159 1.393 . S
C1163 C1162 1.391 . S
H1164 C1172 0.950 . S
H1165 C1177 0.950 . S
H1166 C1174 0.950 . S
H1167 C1176 0.950 . S
H1168 C1178 0.950 . S
H1169 C1180 0.950 . S
H1170 C1182 0.950 . S
H1171 C1183 0.950 . S
C1172 H1164 0.950 . S
C1172 C1173 1.386 . S
C1172 C1174 1.391 . S
C1173 C1172 1.386 . S
C1173 C1177 1.393 . S
C1174 H1166 0.950 . S
C1174 C1172 1.391 . S
C1174 C1175 1.400 . S
C1175 C1174 1.400 . S
C1175 C1176 1.398 . S
C1175 C1181 1.491 . S
C1176 H1167 0.950 . S
C1176 C1175 1.398 . S
C1176 C1177 1.391 . S
C1177 H1165 0.950 . S
C1177 C1173 1.393 . S
C1177 C1176 1.391 . S
C1178 H1168 0.950 . S
C1178 C1179 1.386 . S
C1178 C1180 1.391 . S
C1179 C1178 1.386 . S
C1179 C1183 1.393 . S
C1180 H1169 0.950 . S
C1180 C1178 1.391 . S
C1180 C1181 1.400 . S
C1181 C1175 1.491 . S
C1181 C1180 1.400 . S
C1181 C1182 1.398 . S
C1182 H1170 0.950 . S
C1182 C1181 1.398 . S
C1182 C1183 1.391 . S
C1183 H1171 0.950 . S
C1183 C1179 1.393 . S
C1183 C1182 1.391 . S
H1184 C1192 0.956 . S
H1185 C1197 0.950 . S
H1186 C1194 0.950 1_565 S
H1187 C1196 0.950 . S
H1188 C1198 0.950 . S
H1189 C1200 0.950 . S
H1190 C1202 0.950 1_565 S
H1191 C1203 0.928 1_565 S
C1192 H1184 0.956 . S
C1192 C1193 1.380 1_565 S
C1192 C1194 1.390 1_565 S
C1193 C1192 1.380 1_545 S
C1193 C1197 1.393 . S
C1194 H1186 0.950 1_545 S
C1194 C1192 1.390 1_545 S
C1194 C1195 1.400 . S
C1195 C1194 1.400 . S
C1195 C1196 1.398 . S
C1195 C1201 1.491 . S
C1196 H1187 0.950 . S
C1196 C1195 1.398 . S
C1196 C1197 1.391 . S
C1197 H1185 0.950 . S
C1197 C1193 1.393 . S
C1197 C1196 1.391 . S
C1198 H1188 0.950 . S
C1198 C1199 1.386 . S
C1198 C1200 1.391 . S
C1199 C1198 1.386 . S
C1199 C1203 1.393 . S
C1200 H1189 0.950 . S
C1200 C1198 1.391 . S
C1200 C1201 1.400 . S
C1201 C1195 1.491 . S
C1201 C1200 1.400 . S
C1201 C1202 1.398 . S
C1202 H1190 0.950 1_545 S
C1202 C1201 1.398 . S
C1202 C1203 1.391 . S
C1203 H1191 0.928 1_545 S
C1203 C1199 1.393 . S
C1203 C1202 1.391 . S
H1204 C1212 0.950 . S
H1205 C1217 0.950 . S
H1206 C1214 0.950 . S
H1207 C1216 0.950 . S
H1208 C1218 0.950 . S
H1209 C1220 0.950 . S
H1210 C1222 0.950 . S
H1211 C1223 0.950 . S
C1212 H1204 0.950 . S
C1212 C1213 1.386 . S
C1212 C1214 1.391 . S
C1213 C1212 1.386 . S
C1213 C1217 1.393 . S
C1214 H1206 0.950 . S
C1214 C1212 1.391 . S
C1214 C1215 1.400 . S
C1215 C1214 1.400 . S
C1215 C1216 1.398 . S
C1215 C1221 1.491 . S
C1216 H1207 0.950 . S
C1216 C1215 1.398 . S
C1216 C1217 1.391 . S
C1217 H1205 0.950 . S
C1217 C1213 1.393 . S
C1217 C1216 1.391 . S
C1218 H1208 0.950 . S
C1218 C1219 1.386 . S
C1218 C1220 1.391 . S
C1219 C1218 1.386 . S
C1219 C1223 1.393 . S
C1220 H1209 0.950 . S
C1220 C1218 1.391 . S
C1220 C1221 1.400 . S
C1221 C1215 1.491 . S
C1221 C1220 1.400 . S
C1221 C1222 1.398 . S
C1222 H1210 0.950 . S
C1222 C1221 1.398 . S
C1222 C1223 1.391 . S
C1223 H1211 0.950 . S
C1223 C1219 1.393 . S
C1223 C1222 1.391 . S
H1224 C1232 0.950 . S
H1225 C1237 0.950 . S
H1226 C1234 0.950 . S
H1227 C1236 0.956 . S
H1228 C1238 0.950 . S
H1229 C1240 0.950 . S
H1230 C1242 0.950 . S
H1231 C1243 0.950 . S
C1232 H1224 0.950 . S
C1232 C1233 1.386 1_556 S
C1232 C1234 1.391 . S
C1233 C1232 1.386 1_554 S
C1233 C1237 1.393 . S
C1234 H1226 0.950 . S
C1234 C1232 1.391 . S
C1234 C1235 1.400 . S
C1235 C1234 1.400 . S
C1235 C1236 1.398 . S
C1235 C1241 1.491 . S
C1236 H1227 0.956 . S
C1236 C1235 1.398 . S
C1236 C1237 1.391 1_556 S
C1237 H1225 0.950 . S
C1237 C1233 1.393 . S
C1237 C1236 1.391 1_554 S
C1238 H1228 0.950 . S
C1238 C1239 1.386 . S
C1238 C1240 1.391 . S
C1239 C1238 1.386 . S
C1239 C1243 1.393 . S
C1240 H1229 0.950 . S
C1240 C1238 1.391 . S
C1240 C1241 1.400 . S
C1241 C1235 1.491 . S
C1241 C1240 1.400 . S
C1241 C1242 1.398 . S
C1242 H1230 0.950 . S
C1242 C1241 1.398 . S
C1242 C1243 1.391 . S
C1243 H1231 0.950 . S
C1243 C1239 1.393 . S
C1243 C1242 1.391 . S
H1244 C1252 0.950 . S
H1245 C1257 0.950 . S
H1246 C1254 0.950 . S
H1247 C1256 0.944 1_556 S
H1248 C1258 0.950 . S
H1249 C1260 0.950 . S
H1250 C1262 0.950 . S
H1251 C1263 0.949 1_554 S
C1252 H1244 0.950 . S
C1252 C1253 1.386 . S
C1252 C1254 1.391 . S
C1253 C1252 1.386 . S
C1253 C1257 1.393 . S
C1254 H1246 0.950 . S
C1254 C1252 1.391 . S
C1254 C1255 1.400 . S
C1255 C1254 1.400 . S
C1255 C1256 1.400 . S
C1255 C1261 1.493 . S
C1256 H1247 0.944 1_554 S
C1256 C1255 1.400 . S
C1256 C1257 1.396 . S
C1257 H1245 0.950 . S
C1257 C1253 1.393 . S
C1257 C1256 1.396 . S
C1258 H1248 0.950 . S
C1258 C1259 1.386 . S
C1258 C1260 1.391 . S
C1259 C1258 1.386 . S
C1259 C1263 1.400 . S
C1260 H1249 0.950 . S
C1260 C1258 1.391 . S
C1260 C1261 1.397 1_556 S
C1261 C1255 1.493 . S
C1261 C1260 1.397 1_554 S
C1261 C1262 1.399 . S
C1262 H1250 0.950 . S
C1262 C1261 1.399 . S
C1262 C1263 1.386 1_554 S
C1263 H1251 0.949 1_556 S
C1263 C1259 1.400 . S
C1263 C1262 1.386 1_556 S
H1264 C1272 0.950 . S
H1265 C1277 0.950 . S
H1266 C1274 0.950 . S
H1267 C1276 0.950 . S
H1268 C1278 0.950 . S
H1269 C1280 0.950 . S
H1270 C1282 0.950 . S
H1271 C1283 0.970 . S
C1272 H1264 0.950 . S
C1272 C1273 1.386 . S
C1272 C1274 1.391 . S
C1273 C1272 1.386 . S
C1273 C1277 1.393 . S
C1274 H1266 0.950 . S
C1274 C1272 1.391 . S
C1274 C1275 1.400 . S
C1275 C1274 1.400 . S
C1275 C1276 1.398 . S
C1275 C1281 1.491 . S
C1276 H1267 0.950 . S
C1276 C1275 1.398 . S
C1276 C1277 1.391 . S
C1277 H1265 0.950 . S
C1277 C1273 1.393 . S
C1277 C1276 1.391 . S
C1278 H1268 0.950 . S
C1278 C1279 1.386 . S
C1278 C1280 1.391 . S
C1279 C1278 1.386 . S
C1279 C1283 1.393 . S
C1280 H1269 0.950 . S
C1280 C1278 1.391 . S
C1280 C1281 1.400 . S
C1281 C1275 1.491 . S
C1281 C1280 1.400 . S
C1281 C1282 1.398 . S
C1282 H1270 0.950 . S
C1282 C1281 1.398 . S
C1282 C1283 1.391 . S
C1283 H1271 0.970 . S
C1283 C1279 1.393 . S
C1283 C1282 1.391 . S
H1284 C1292 0.950 . S
H1285 C1297 0.950 . S
H1286 C1294 0.950 . S
H1287 C1296 0.950 . S
H1288 C1298 0.950 . S
H1289 C1300 0.950 . S
H1290 C1302 0.950 . S
H1291 C1303 0.950 . S
C1292 H1284 0.950 . S
C1292 C1293 1.386 . S
C1292 C1294 1.391 . S
C1293 C1292 1.386 . S
C1293 C1297 1.393 . S
C1294 H1286 0.950 . S
C1294 C1292 1.391 . S
C1294 C1295 1.400 . S
C1295 C1294 1.400 . S
C1295 C1296 1.398 . S
C1295 C1301 1.491 . S
C1296 H1287 0.950 . S
C1296 C1295 1.398 . S
C1296 C1297 1.391 . S
C1297 H1285 0.950 . S
C1297 C1293 1.393 . S
C1297 C1296 1.391 . S
C1298 H1288 0.950 . S
C1298 C1299 1.386 . S
C1298 C1300 1.391 . S
C1299 C1298 1.386 . S
C1299 C1303 1.393 . S
C1300 H1289 0.950 . S
C1300 C1298 1.391 . S
C1300 C1301 1.400 . S
C1301 C1295 1.491 . S
C1301 C1300 1.400 . S
C1301 C1302 1.398 . S
C1302 H1290 0.950 . S
C1302 C1301 1.398 . S
C1302 C1303 1.391 . S
C1303 H1291 0.950 . S
C1303 C1299 1.393 . S
C1303 C1302 1.391 . S
H1304 C1312 0.950 . S
H1305 C1317 0.950 . S
H1306 C1314 0.950 . S
H1307 C1316 0.950 . S
H1308 C1318 0.950 . S
H1309 C1320 0.932 1_455 S
H1310 C1322 0.950 . S
H1311 C1323 0.950 . S
C1312 H1304 0.950 . S
C1312 C1313 1.384 1_655 S
C1312 C1314 1.392 . S
C1313 C1312 1.384 1_455 S
C1313 C1317 1.393 . S
C1314 H1306 0.950 . S
C1314 C1312 1.392 . S
C1314 C1315 1.404 . S
C1315 C1314 1.404 . S
C1315 C1316 1.390 1_655 S
C1315 C1321 1.495 . S
C1316 H1307 0.950 . S
C1316 C1315 1.390 1_455 S
C1316 C1317 1.391 . S
C1317 H1305 0.950 . S
C1317 C1313 1.393 . S
C1317 C1316 1.391 . S
C1318 H1308 0.950 . S
C1318 C1319 1.386 . S
C1318 C1320 1.402 . S
C1319 C1318 1.386 . S
C1319 C1323 1.393 . S
C1320 H1309 0.932 1_655 S
C1320 C1318 1.402 . S
C1320 C1321 1.408 . S
C1321 C1315 1.495 . S
C1321 C1320 1.408 . S
C1321 C1322 1.398 . S
C1322 H1310 0.950 . S
C1322 C1321 1.398 . S
C1322 C1323 1.391 . S
C1323 H1311 0.950 . S
C1323 C1319 1.393 . S
C1323 C1322 1.391 . S
H1324 C1332 0.950 1_655 S
H1325 C1337 0.950 . S
H1326 C1334 0.950 1_655 S
H1327 C1336 0.950 . S
H1328 C1338 0.950 . S
H1329 C1340 0.950 . S
H1330 C1342 0.950 1_655 S
H1331 C1343 0.950 1_655 S
C1332 H1324 0.950 1_455 S
C1332 C1333 1.386 . S
C1332 C1334 1.391 . S
C1333 C1332 1.386 . S
C1333 C1337 1.393 . S
C1334 H1326 0.950 1_455 S
C1334 C1332 1.391 . S
C1334 C1335 1.400 . S
C1335 C1334 1.400 . S
C1335 C1336 1.398 . S
C1335 C1341 1.491 . S
C1336 H1327 0.950 . S
C1336 C1335 1.398 . S
C1336 C1337 1.391 . S
C1337 H1325 0.950 . S
C1337 C1333 1.393 . S
C1337 C1336 1.391 . S
C1338 H1328 0.950 . S
C1338 C1339 1.386 . S
C1338 C1340 1.391 . S
C1339 C1338 1.386 . S
C1339 C1343 1.393 . S
C1340 H1329 0.950 . S
C1340 C1338 1.391 . S
C1340 C1341 1.400 . S
C1341 C1335 1.491 . S
C1341 C1340 1.400 . S
C1341 C1342 1.398 . S
C1342 H1330 0.950 1_455 S
C1342 C1341 1.398 . S
C1342 C1343 1.391 . S
C1343 H1331 0.950 1_455 S
C1343 C1339 1.393 . S
C1343 C1342 1.391 . S
H1344 C1352 0.950 . S
H1345 C1357 0.950 . S
H1346 C1354 0.950 . S
H1347 C1356 0.950 . S
H1348 C1358 0.950 . S
H1349 C1360 0.950 . S
H1350 C1362 0.977 . S
H1351 C1363 0.950 1_455 S
C1352 H1344 0.950 . S
C1352 C1353 1.386 1_455 S
C1352 C1354 1.391 . S
C1353 C1352 1.386 1_655 S
C1353 C1357 1.393 . S
C1354 H1346 0.950 . S
C1354 C1352 1.391 . S
C1354 C1355 1.400 1_455 S
C1355 C1354 1.400 1_655 S
C1355 C1356 1.398 . S
C1355 C1361 1.491 . S
C1356 H1347 0.950 . S
C1356 C1355 1.398 . S
C1356 C1357 1.391 . S
C1357 H1345 0.950 . S
C1357 C1353 1.393 . S
C1357 C1356 1.391 . S
C1358 H1348 0.950 . S
C1358 C1359 1.386 . S
C1358 C1360 1.391 . S
C1359 C1358 1.386 . S
C1359 C1363 1.393 . S
C1360 H1349 0.950 . S
C1360 C1358 1.391 . S
C1360 C1361 1.400 . S
C1361 C1355 1.491 . S
C1361 C1360 1.400 . S
C1361 C1362 1.376 1_655 S
C1362 H1350 0.977 . S
C1362 C1361 1.376 1_455 S
C1362 C1363 1.387 1_455 S
C1363 H1351 0.950 1_655 S
C1363 C1359 1.393 . S
C1363 C1362 1.387 1_655 S
H1364 C1372 0.950 . S
H1365 C1377 0.950 . S
H1366 C1374 0.950 . S
H1367 C1376 0.950 . S
H1368 C1378 0.950 . S
H1369 C1380 0.950 . S
H1370 C1382 0.950 . S
H1371 C1383 0.950 . S
C1372 H1364 0.950 . S
C1372 C1373 1.386 . S
C1372 C1374 1.391 . S
C1373 C1372 1.386 . S
C1373 C1377 1.393 . S
C1374 H1366 0.950 . S
C1374 C1372 1.391 . S
C1374 C1375 1.400 . S
C1375 C1374 1.400 . S
C1375 C1376 1.398 . S
C1375 C1381 1.491 . S
C1376 H1367 0.950 . S
C1376 C1375 1.398 . S
C1376 C1377 1.391 . S
C1377 H1365 0.950 . S
C1377 C1373 1.393 . S
C1377 C1376 1.391 . S
C1378 H1368 0.950 . S
C1378 C1379 1.386 . S
C1378 C1380 1.391 . S
C1379 C1378 1.386 . S
C1379 C1383 1.393 . S
C1380 H1369 0.950 . S
C1380 C1378 1.391 . S
C1380 C1381 1.400 . S
C1381 C1375 1.491 . S
C1381 C1380 1.400 . S
C1381 C1382 1.398 . S
C1382 H1370 0.950 . S
C1382 C1381 1.398 . S
C1382 C1383 1.391 . S
C1383 H1371 0.950 . S
C1383 C1379 1.393 . S
C1383 C1382 1.391 . S
H1384 C1392 0.950 . S
H1385 C1397 0.950 . S
H1386 C1394 0.950 . S
H1387 C1396 0.950 . S
H1388 C1398 0.950 . S
H1389 C1400 0.950 . S
H1390 C1402 0.950 . S
H1391 C1403 0.950 . S
C1392 H1384 0.950 . S
C1392 C1393 1.386 . S
C1392 C1394 1.391 . S
C1393 C1392 1.386 . S
C1393 C1397 1.393 . S
C1394 H1386 0.950 . S
C1394 C1392 1.391 . S
C1394 C1395 1.400 . S
C1395 C1394 1.400 . S
C1395 C1396 1.398 . S
C1395 C1401 1.491 . S
C1396 H1387 0.950 . S
C1396 C1395 1.398 . S
C1396 C1397 1.391 . S
C1397 H1385 0.950 . S
C1397 C1393 1.393 . S
C1397 C1396 1.391 . S
C1398 H1388 0.950 . S
C1398 C1399 1.386 . S
C1398 C1400 1.391 . S
C1399 C1398 1.386 . S
C1399 C1403 1.393 . S
C1400 H1389 0.950 . S
C1400 C1398 1.391 . S
C1400 C1401 1.400 . S
C1401 C1395 1.491 . S
C1401 C1400 1.400 . S
C1401 C1402 1.398 . S
C1402 H1390 0.950 . S
C1402 C1401 1.398 . S
C1402 C1403 1.391 . S
C1403 H1391 0.950 . S
C1403 C1399 1.393 . S
C1403 C1402 1.391 . S
H1404 C1412 0.950 . S
H1405 C1417 0.950 . S
H1406 C1414 0.950 . S
H1407 C1416 0.948 1_545 S
H1408 C1418 0.950 . S
H1409 C1420 0.950 1_545 S
H1410 C1422 0.950 . S
H1411 C1423 0.950 . S
C1412 H1404 0.950 . S
C1412 C1413 1.386 . S
C1412 C1414 1.391 . S
C1413 C1412 1.386 . S
C1413 C1417 1.393 1_565 S
C1414 H1406 0.950 . S
C1414 C1412 1.391 . S
C1414 C1415 1.400 . S
C1415 C1414 1.400 . S
C1415 C1416 1.400 . S
C1415 C1421 1.491 . S
C1416 H1407 0.948 1_565 S
C1416 C1415 1.400 . S
C1416 C1417 1.390 1_565 S
C1417 H1405 0.950 . S
C1417 C1413 1.393 1_545 S
C1417 C1416 1.390 1_545 S
C1418 H1408 0.950 . S
C1418 C1419 1.386 . S
C1418 C1420 1.391 . S
C1419 C1418 1.386 . S
C1419 C1423 1.393 . S
C1420 H1409 0.950 1_565 S
C1420 C1418 1.391 . S
C1420 C1421 1.400 . S
C1421 C1415 1.491 . S
C1421 C1420 1.400 . S
C1421 C1422 1.398 . S
C1422 H1410 0.950 . S
C1422 C1421 1.398 . S
C1422 C1423 1.391 . S
C1423 H1411 0.950 . S
C1423 C1419 1.393 . S
C1423 C1422 1.391 . S
H1424 C1432 0.950 . S
H1425 C1437 0.950 . S
H1426 C1434 0.950 . S
H1427 C1436 0.950 . S
H1428 C1438 0.950 . S
H1429 C1440 0.950 . S
H1430 C1442 0.950 . S
H1431 C1443 0.950 . S
C1432 H1424 0.950 . S
C1432 C1433 1.386 . S
C1432 C1434 1.391 . S
C1433 C1432 1.386 . S
C1433 C1437 1.393 . S
C1434 H1426 0.950 . S
C1434 C1432 1.391 . S
C1434 C1435 1.400 . S
C1435 C1434 1.400 . S
C1435 C1436 1.398 . S
C1435 C1441 1.491 . S
C1436 H1427 0.950 . S
C1436 C1435 1.398 . S
C1436 C1437 1.391 . S
C1437 H1425 0.950 . S
C1437 C1433 1.393 . S
C1437 C1436 1.391 . S
C1438 H1428 0.950 . S
C1438 C1439 1.386 . S
C1438 C1440 1.391 . S
C1439 C1438 1.386 . S
C1439 C1443 1.393 . S
C1440 H1429 0.950 . S
C1440 C1438 1.391 . S
C1440 C1441 1.400 . S
C1441 C1435 1.491 . S
C1441 C1440 1.400 . S
C1441 C1442 1.398 . S
C1442 H1430 0.950 . S
C1442 C1441 1.398 . S
C1442 C1443 1.391 . S
C1443 H1431 0.950 . S
C1443 C1439 1.393 . S
C1443 C1442 1.391 . S
H1444 C1452 0.950 . S
H1445 C1457 0.950 . S
H1446 C1454 0.950 . S
H1447 C1456 0.950 . S
H1448 C1458 0.950 . S
H1449 C1460 0.950 . S
H1450 C1462 0.950 . S
H1451 C1463 0.950 . S
C1452 H1444 0.950 . S
C1452 C1453 1.386 . S
C1452 C1454 1.391 . S
C1453 C1452 1.386 . S
C1453 C1457 1.393 . S
C1454 H1446 0.950 . S
C1454 C1452 1.391 . S
C1454 C1455 1.400 . S
C1455 C1454 1.400 . S
C1455 C1456 1.398 . S
C1455 C1461 1.491 . S
C1456 H1447 0.950 . S
C1456 C1455 1.398 . S
C1456 C1457 1.391 . S
C1457 H1445 0.950 . S
C1457 C1453 1.393 . S
C1457 C1456 1.391 . S
C1458 H1448 0.950 . S
C1458 C1459 1.386 . S
C1458 C1460 1.391 . S
C1459 C1458 1.386 . S
C1459 C1463 1.393 . S
C1460 H1449 0.950 . S
C1460 C1458 1.391 . S
C1460 C1461 1.400 . S
C1461 C1455 1.491 . S
C1461 C1460 1.400 . S
C1461 C1462 1.398 . S
C1462 H1450 0.950 . S
C1462 C1461 1.398 . S
C1462 C1463 1.391 . S
C1463 H1451 0.950 . S
C1463 C1459 1.393 . S
C1463 C1462 1.391 . S
H1464 C1472 0.950 . S
H1465 C1477 0.950 . S
H1466 C1474 0.950 . S
H1467 C1476 0.950 . S
H1468 C1478 0.950 . S
H1469 C1480 0.950 . S
H1470 C1482 0.950 . S
H1471 C1483 0.950 . S
C1472 H1464 0.950 . S
C1472 C1473 1.386 . S
C1472 C1474 1.391 . S
C1473 C1472 1.386 . S
C1473 C1477 1.393 . S
C1474 H1466 0.950 . S
C1474 C1472 1.391 . S
C1474 C1475 1.400 . S
C1475 C1474 1.400 . S
C1475 C1476 1.398 . S
C1475 C1481 1.491 . S
C1476 H1467 0.950 . S
C1476 C1475 1.398 . S
C1476 C1477 1.391 . S
C1477 H1465 0.950 . S
C1477 C1473 1.393 . S
C1477 C1476 1.391 . S
C1478 H1468 0.950 . S
C1478 C1479 1.386 . S
C1478 C1480 1.391 . S
C1479 C1478 1.386 . S
C1479 C1483 1.393 . S
C1480 H1469 0.950 . S
C1480 C1478 1.391 . S
C1480 C1481 1.400 . S
C1481 C1475 1.491 . S
C1481 C1480 1.400 . S
C1481 C1482 1.398 . S
C1482 H1470 0.950 . S
C1482 C1481 1.398 . S
C1482 C1483 1.391 . S
C1483 H1471 0.950 . S
C1483 C1479 1.393 . S
C1483 C1482 1.391 . S
H1484 C1492 0.950 . S
H1485 C1497 0.950 . S
H1486 C1494 0.950 . S
H1487 C1496 0.950 . S
H1488 C1498 0.950 . S
H1489 C1500 0.950 . S
H1490 C1502 0.950 . S
H1491 C1503 0.950 . S
C1492 H1484 0.950 . S
C1492 C1493 1.386 . S
C1492 C1494 1.391 . S
C1493 C1492 1.386 . S
C1493 C1497 1.393 . S
C1494 H1486 0.950 . S
C1494 C1492 1.391 . S
C1494 C1495 1.400 . S
C1495 C1494 1.400 . S
C1495 C1496 1.398 . S
C1495 C1501 1.491 . S
C1496 H1487 0.950 . S
C1496 C1495 1.398 . S
C1496 C1497 1.391 . S
C1497 H1485 0.950 . S
C1497 C1493 1.393 . S
C1497 C1496 1.391 . S
C1498 H1488 0.950 . S
C1498 C1499 1.386 . S
C1498 C1500 1.391 . S
C1499 C1498 1.386 . S
C1499 C1503 1.393 . S
C1500 H1489 0.950 . S
C1500 C1498 1.391 . S
C1500 C1501 1.400 . S
C1501 C1495 1.491 . S
C1501 C1500 1.400 . S
C1501 C1502 1.398 . S
C1502 H1490 0.950 . S
C1502 C1501 1.398 . S
C1502 C1503 1.391 . S
C1503 H1491 0.950 . S
C1503 C1499 1.393 . S
C1503 C1502 1.391 . S
H1504 C1512 0.950 . S
H1505 C1517 0.950 . S
H1506 C1514 0.950 . S
H1507 C1516 0.950 . S
H1508 C1518 0.950 . S
H1509 C1520 0.950 . S
H1510 C1522 0.950 . S
H1511 C1523 0.950 . S
C1512 H1504 0.950 . S
C1512 C1513 1.386 . S
C1512 C1514 1.391 . S
C1513 C1512 1.386 . S
C1513 C1517 1.393 . S
C1514 H1506 0.950 . S
C1514 C1512 1.391 . S
C1514 C1515 1.400 . S
C1515 C1514 1.400 . S
C1515 C1516 1.398 . S
C1515 C1521 1.491 . S
C1516 H1507 0.950 . S
C1516 C1515 1.398 . S
C1516 C1517 1.391 . S
C1517 H1505 0.950 . S
C1517 C1513 1.393 . S
C1517 C1516 1.391 . S
C1518 H1508 0.950 . S
C1518 C1519 1.386 . S
C1518 C1520 1.391 . S
C1519 C1518 1.386 . S
C1519 C1523 1.393 . S
C1520 H1509 0.950 . S
C1520 C1518 1.391 . S
C1520 C1521 1.400 . S
C1521 C1515 1.491 . S
C1521 C1520 1.400 . S
C1521 C1522 1.398 . S
C1522 H1510 0.950 . S
C1522 C1521 1.398 . S
C1522 C1523 1.391 . S
C1523 H1511 0.950 . S
C1523 C1519 1.393 . S
C1523 C1522 1.391 . S
H1524 C1532 0.950 . S
H1525 C1537 0.950 . S
H1526 C1534 0.950 . S
H1527 C1536 0.950 . S
H1528 C1538 0.950 . S
H1529 C1540 0.950 . S
H1530 C1542 0.950 . S
H1531 C1543 0.950 . S
C1532 H1524 0.950 . S
C1532 C1533 1.386 . S
C1532 C1534 1.391 . S
C1533 C1532 1.386 . S
C1533 C1537 1.393 . S
C1534 H1526 0.950 . S
C1534 C1532 1.391 . S
C1534 C1535 1.400 . S
C1535 C1534 1.400 . S
C1535 C1536 1.398 . S
C1535 C1541 1.491 . S
C1536 H1527 0.950 . S
C1536 C1535 1.398 . S
C1536 C1537 1.391 . S
C1537 H1525 0.950 . S
C1537 C1533 1.393 . S
C1537 C1536 1.391 . S
C1538 H1528 0.950 . S
C1538 C1539 1.386 . S
C1538 C1540 1.391 . S
C1539 C1538 1.386 . S
C1539 C1543 1.393 . S
C1540 H1529 0.950 . S
C1540 C1538 1.391 . S
C1540 C1541 1.400 . S
C1541 C1535 1.491 . S
C1541 C1540 1.400 . S
C1541 C1542 1.398 . S
C1542 H1530 0.950 . S
C1542 C1541 1.398 . S
C1542 C1543 1.391 . S
C1543 H1531 0.950 . S
C1543 C1539 1.393 . S
C1543 C1542 1.391 . S
H1544 C1552 0.950 . S
H1545 C1557 0.950 . S
H1546 C1554 0.950 . S
H1547 C1556 0.950 . S
H1548 C1558 0.950 . S
H1549 C1560 0.950 . S
H1550 C1562 0.950 . S
H1551 C1563 0.950 . S
C1552 H1544 0.950 . S
C1552 C1553 1.386 . S
C1552 C1554 1.391 . S
C1553 C1552 1.386 . S
C1553 C1557 1.393 . S
C1554 H1546 0.950 . S
C1554 C1552 1.391 . S
C1554 C1555 1.400 . S
C1555 C1554 1.400 . S
C1555 C1556 1.398 . S
C1555 C1561 1.491 . S
C1556 H1547 0.950 . S
C1556 C1555 1.398 . S
C1556 C1557 1.391 . S
C1557 H1545 0.950 . S
C1557 C1553 1.393 . S
C1557 C1556 1.391 . S
C1558 H1548 0.950 . S
C1558 C1559 1.386 . S
C1558 C1560 1.391 . S
C1559 C1558 1.386 . S
C1559 C1563 1.393 . S
C1560 H1549 0.950 . S
C1560 C1558 1.391 . S
C1560 C1561 1.400 . S
C1561 C1555 1.491 . S
C1561 C1560 1.400 . S
C1561 C1562 1.398 . S
C1562 H1550 0.950 . S
C1562 C1561 1.398 . S
C1562 C1563 1.391 . S
C1563 H1551 0.950 . S
C1563 C1559 1.393 . S
C1563 C1562 1.391 . S
H1564 C1572 0.950 . S
H1565 C1577 0.950 . S
H1566 C1574 0.950 . S
H1567 C1576 0.950 . S
H1568 C1578 0.950 . S
H1569 C1580 0.950 . S
H1570 C1582 0.950 . S
H1571 C1583 0.950 . S
C1572 H1564 0.950 . S
C1572 C1573 1.386 . S
C1572 C1574 1.391 . S
C1573 C1572 1.386 . S
C1573 C1577 1.393 . S
C1574 H1566 0.950 . S
C1574 C1572 1.391 . S
C1574 C1575 1.400 . S
C1575 C1574 1.400 . S
C1575 C1576 1.398 . S
C1575 C1581 1.491 . S
C1576 H1567 0.950 . S
C1576 C1575 1.398 . S
C1576 C1577 1.391 . S
C1577 H1565 0.950 . S
C1577 C1573 1.393 . S
C1577 C1576 1.391 . S
C1578 H1568 0.950 . S
C1578 C1579 1.386 . S
C1578 C1580 1.391 . S
C1579 C1578 1.386 . S
C1579 C1583 1.393 . S
C1580 H1569 0.950 . S
C1580 C1578 1.391 . S
C1580 C1581 1.400 . S
C1581 C1575 1.491 . S
C1581 C1580 1.400 . S
C1581 C1582 1.398 . S
C1582 H1570 0.950 . S
C1582 C1581 1.398 . S
C1582 C1583 1.391 . S
C1583 H1571 0.950 . S
C1583 C1579 1.393 . S
C1583 C1582 1.391 . S
H1584 C1592 0.950 . S
H1585 C1597 0.950 . S
H1586 C1594 0.950 . S
H1587 C1596 0.950 . S
H1588 C1598 0.950 . S
H1589 C1600 0.950 . S
H1590 C1602 0.950 . S
H1591 C1603 0.950 . S
C1592 H1584 0.950 . S
C1592 C1593 1.386 . S
C1592 C1594 1.391 . S
C1593 C1592 1.386 . S
C1593 C1597 1.393 . S
C1594 H1586 0.950 . S
C1594 C1592 1.391 . S
C1594 C1595 1.400 . S
C1595 C1594 1.400 . S
C1595 C1596 1.398 . S
C1595 C1601 1.491 . S
C1596 H1587 0.950 . S
C1596 C1595 1.398 . S
C1596 C1597 1.391 . S
C1597 H1585 0.950 . S
C1597 C1593 1.393 . S
C1597 C1596 1.391 . S
C1598 H1588 0.950 . S
C1598 C1599 1.386 . S
C1598 C1600 1.391 . S
C1599 C1598 1.386 . S
C1599 C1603 1.393 . S
C1600 H1589 0.950 . S
C1600 C1598 1.391 . S
C1600 C1601 1.400 . S
C1601 C1595 1.491 . S
C1601 C1600 1.400 . S
C1601 C1602 1.398 . S
C1602 H1590 0.950 . S
C1602 C1601 1.398 . S
C1602 C1603 1.391 . S
C1603 H1591 0.950 . S
C1603 C1599 1.393 . S
C1603 C1602 1.391 . S
H1604 C1612 0.950 . S
H1605 C1617 0.950 . S
H1606 C1614 0.950 . S
H1607 C1616 0.950 . S
H1608 C1618 0.950 . S
H1609 C1620 0.950 . S
H1610 C1622 0.950 . S
H1611 C1623 0.950 . S
C1612 H1604 0.950 . S
C1612 C1613 1.386 . S
C1612 C1614 1.391 . S
C1613 C1612 1.386 . S
C1613 C1617 1.393 . S
C1614 H1606 0.950 . S
C1614 C1612 1.391 . S
C1614 C1615 1.400 . S
C1615 C1614 1.400 . S
C1615 C1616 1.398 . S
C1615 C1621 1.491 . S
C1616 H1607 0.950 . S
C1616 C1615 1.398 . S
C1616 C1617 1.391 . S
C1617 H1605 0.950 . S
C1617 C1613 1.393 . S
C1617 C1616 1.391 . S
C1618 H1608 0.950 . S
C1618 C1619 1.386 . S
C1618 C1620 1.391 . S
C1619 C1618 1.386 . S
C1619 C1623 1.393 . S
C1620 H1609 0.950 . S
C1620 C1618 1.391 . S
C1620 C1621 1.400 . S
C1621 C1615 1.491 . S
C1621 C1620 1.400 . S
C1621 C1622 1.398 . S
C1622 H1610 0.950 . S
C1622 C1621 1.398 . S
C1622 C1623 1.391 . S
C1623 H1611 0.950 . S
C1623 C1619 1.393 . S
C1623 C1622 1.391 . S
H1624 C1632 0.950 . S
H1625 C1637 0.950 . S
H1626 C1634 0.950 . S
H1627 C1636 0.949 1_545 S
H1628 C1638 0.950 1_545 S
H1629 C1640 0.950 1_545 S
H1630 C1642 0.950 . S
H1631 C1643 0.950 . S
C1632 H1624 0.950 . S
C1632 C1633 1.386 . S
C1632 C1634 1.391 . S
C1633 C1632 1.386 . S
C1633 C1637 1.393 1_565 S
C1634 H1626 0.950 . S
C1634 C1632 1.391 . S
C1634 C1635 1.400 . S
C1635 C1634 1.400 . S
C1635 C1636 1.399 . S
C1635 C1641 1.491 . S
C1636 H1627 0.949 1_565 S
C1636 C1635 1.399 . S
C1636 C1637 1.391 1_565 S
C1637 H1625 0.950 . S
C1637 C1633 1.393 1_545 S
C1637 C1636 1.391 1_545 S
C1638 H1628 0.950 1_565 S
C1638 C1639 1.386 . S
C1638 C1640 1.391 . S
C1639 C1638 1.386 . S
C1639 C1643 1.393 . S
C1640 H1629 0.950 1_565 S
C1640 C1638 1.391 . S
C1640 C1641 1.400 . S
C1641 C1635 1.491 . S
C1641 C1640 1.400 . S
C1641 C1642 1.398 . S
C1642 H1630 0.950 . S
C1642 C1641 1.398 . S
C1642 C1643 1.391 . S
C1643 H1631 0.950 . S
C1643 C1639 1.393 . S
C1643 C1642 1.391 . S
H1644 C1652 0.950 . S
H1645 C1657 0.950 . S
H1646 C1654 0.950 . S
H1647 C1656 0.950 . S
H1648 C1658 0.950 . S
H1649 C1660 0.950 . S
H1650 C1662 0.950 . S
H1651 C1663 0.950 . S
C1652 H1644 0.950 . S
C1652 C1653 1.386 . S
C1652 C1654 1.391 . S
C1653 C1652 1.386 . S
C1653 C1657 1.393 . S
C1654 H1646 0.950 . S
C1654 C1652 1.391 . S
C1654 C1655 1.400 . S
C1655 C1654 1.400 . S
C1655 C1656 1.398 . S
C1655 C1661 1.491 . S
C1656 H1647 0.950 . S
C1656 C1655 1.398 . S
C1656 C1657 1.391 . S
C1657 H1645 0.950 . S
C1657 C1653 1.393 . S
C1657 C1656 1.391 . S
C1658 H1648 0.950 . S
C1658 C1659 1.386 . S
C1658 C1660 1.391 . S
C1659 C1658 1.386 . S
C1659 C1663 1.393 . S
C1660 H1649 0.950 . S
C1660 C1658 1.391 . S
C1660 C1661 1.400 . S
C1661 C1655 1.491 . S
C1661 C1660 1.400 . S
C1661 C1662 1.398 . S
C1662 H1650 0.950 . S
C1662 C1661 1.398 . S
C1662 C1663 1.391 . S
C1663 H1651 0.950 . S
C1663 C1659 1.393 . S
C1663 C1662 1.391 . S
H1664 C1672 0.950 . S
H1665 C1677 0.950 . S
H1666 C1674 0.950 . S
H1667 C1676 0.950 . S
H1668 C1678 0.950 . S
H1669 C1680 0.950 . S
H1670 C1682 0.950 . S
H1671 C1683 0.950 . S
C1672 H1664 0.950 . S
C1672 C1673 1.386 . S
C1672 C1674 1.391 . S
C1673 C1672 1.386 . S
C1673 C1677 1.393 . S
C1674 H1666 0.950 . S
C1674 C1672 1.391 . S
C1674 C1675 1.400 . S
C1675 C1674 1.400 . S
C1675 C1676 1.398 . S
C1675 C1681 1.491 . S
C1676 H1667 0.950 . S
C1676 C1675 1.398 . S
C1676 C1677 1.391 . S
C1677 H1665 0.950 . S
C1677 C1673 1.393 . S
C1677 C1676 1.391 . S
C1678 H1668 0.950 . S
C1678 C1679 1.386 . S
C1678 C1680 1.391 . S
C1679 C1678 1.386 . S
C1679 C1683 1.393 . S
C1680 H1669 0.950 . S
C1680 C1678 1.391 . S
C1680 C1681 1.400 . S
C1681 C1675 1.491 . S
C1681 C1680 1.400 . S
C1681 C1682 1.398 . S
C1682 H1670 0.950 . S
C1682 C1681 1.398 . S
C1682 C1683 1.391 . S
C1683 H1671 0.950 . S
C1683 C1679 1.393 . S
C1683 C1682 1.391 . S
H1684 C1692 0.950 . S
H1685 C1697 0.950 . S
H1686 C1694 0.950 . S
H1687 C1696 0.950 . S
H1688 C1698 0.950 . S
H1689 C1700 0.950 . S
H1690 C1702 0.950 . S
H1691 C1703 0.950 . S
C1692 H1684 0.950 . S
C1692 C1693 1.386 . S
C1692 C1694 1.391 . S
C1693 C1692 1.386 . S
C1693 C1697 1.393 . S
C1694 H1686 0.950 . S
C1694 C1692 1.391 . S
C1694 C1695 1.400 . S
C1695 C1694 1.400 . S
C1695 C1696 1.398 . S
C1695 C1701 1.491 . S
C1696 H1687 0.950 . S
C1696 C1695 1.398 . S
C1696 C1697 1.391 . S
C1697 H1685 0.950 . S
C1697 C1693 1.393 . S
C1697 C1696 1.391 . S
C1698 H1688 0.950 . S
C1698 C1699 1.386 . S
C1698 C1700 1.391 . S
C1699 C1698 1.386 . S
C1699 C1703 1.393 . S
C1700 H1689 0.950 . S
C1700 C1698 1.391 . S
C1700 C1701 1.400 . S
C1701 C1695 1.491 . S
C1701 C1700 1.400 . S
C1701 C1702 1.398 . S
C1702 H1690 0.950 . S
C1702 C1701 1.398 . S
C1702 C1703 1.391 . S
C1703 H1691 0.950 . S
C1703 C1699 1.393 . S
C1703 C1702 1.391 . S
H1704 C1712 0.950 . S
H1705 C1717 0.950 . S
H1706 C1714 0.950 . S
H1707 C1716 0.950 . S
H1708 C1718 0.950 . S
H1709 C1720 0.950 . S
H1710 C1722 0.950 . S
H1711 C1723 0.950 . S
C1712 H1704 0.950 . S
C1712 C1713 1.386 1_556 S
C1712 C1714 1.391 . S
C1713 C1712 1.386 1_554 S
C1713 C1717 1.393 . S
C1714 H1706 0.950 . S
C1714 C1712 1.391 . S
C1714 C1715 1.400 . S
C1715 C1714 1.400 . S
C1715 C1716 1.398 1_556 S
C1715 C1721 1.491 . S
C1716 H1707 0.950 . S
C1716 C1715 1.398 1_554 S
C1716 C1717 1.391 . S
C1717 H1705 0.950 . S
C1717 C1713 1.393 . S
C1717 C1716 1.391 . S
C1718 H1708 0.950 . S
C1718 C1719 1.386 1_554 S
C1718 C1720 1.391 . S
C1719 C1718 1.386 1_556 S
C1719 C1723 1.393 . S
C1720 H1709 0.950 . S
C1720 C1718 1.391 . S
C1720 C1721 1.400 1_554 S
C1721 C1715 1.491 . S
C1721 C1720 1.400 1_556 S
C1721 C1722 1.398 . S
C1722 H1710 0.950 . S
C1722 C1721 1.398 . S
C1722 C1723 1.391 . S
C1723 H1711 0.950 . S
C1723 C1719 1.393 . S
C1723 C1722 1.391 . S
H1724 C1732 0.950 . S
H1725 C1737 0.962 . S
H1726 C1734 0.950 . S
H1727 C1736 0.950 . S
H1728 C1738 0.950 . S
H1729 C1740 0.950 . S
H1730 C1742 0.950 . S
H1731 C1743 0.950 . S
C1732 H1724 0.950 . S
C1732 C1733 1.392 . S
C1732 C1734 1.391 . S
C1733 C1732 1.392 . S
C1733 C1737 1.394 1_556 S
C1734 H1726 0.950 . S
C1734 C1732 1.391 . S
C1734 C1735 1.400 . S
C1735 C1734 1.400 . S
C1735 C1736 1.398 . S
C1735 C1741 1.491 . S
C1736 H1727 0.950 . S
C1736 C1735 1.398 . S
C1736 C1737 1.380 1_556 S
C1737 H1725 0.962 . S
C1737 C1733 1.394 1_554 S
C1737 C1736 1.380 1_554 S
C1738 H1728 0.950 . S
C1738 C1739 1.386 . S
C1738 C1740 1.391 . S
C1739 C1738 1.386 . S
C1739 C1743 1.393 . S
C1740 H1729 0.950 . S
C1740 C1738 1.391 . S
C1740 C1741 1.400 . S
C1741 C1735 1.491 . S
C1741 C1740 1.400 . S
C1741 C1742 1.398 . S
C1742 H1730 0.950 . S
C1742 C1741 1.398 . S
C1742 C1743 1.391 . S
C1743 H1731 0.950 . S
C1743 C1739 1.393 . S
C1743 C1742 1.391 . S
H1744 C1752 0.917 1_556 S
H1745 C1757 0.950 . S
H1746 C1754 0.950 1_556 S
H1747 C1756 0.950 . S
H1748 C1758 0.950 . S
H1749 C1760 0.950 . S
H1750 C1762 0.950 1_556 S
H1751 C1763 0.950 1_556 S
C1752 H1744 0.917 1_554 S
C1752 C1753 1.386 . S
C1752 C1754 1.391 . S
C1753 C1752 1.386 . S
C1753 C1757 1.393 . S
C1754 H1746 0.950 1_554 S
C1754 C1752 1.391 . S
C1754 C1755 1.400 . S
C1755 C1754 1.400 . S
C1755 C1756 1.398 . S
C1755 C1761 1.491 . S
C1756 H1747 0.950 . S
C1756 C1755 1.398 . S
C1756 C1757 1.391 . S
C1757 H1745 0.950 . S
C1757 C1753 1.393 . S
C1757 C1756 1.391 . S
C1758 H1748 0.950 . S
C1758 C1759 1.386 . S
C1758 C1760 1.391 . S
C1759 C1758 1.386 . S
C1759 C1763 1.393 . S
C1760 H1749 0.950 . S
C1760 C1758 1.391 . S
C1760 C1761 1.400 . S
C1761 C1755 1.491 . S
C1761 C1760 1.400 . S
C1761 C1762 1.398 . S
C1762 H1750 0.950 1_554 S
C1762 C1761 1.398 . S
C1762 C1763 1.391 . S
C1763 H1751 0.950 1_554 S
C1763 C1759 1.393 . S
C1763 C1762 1.391 . S
C813 C22 2.003 . S
C819 C696 1.797 1_545 S
C839 C715 1.955 . S
C833 C38 1.996 . S
C859 C653 1.670 1_565 S
C853 C75 1.663 . S
C873 C91 1.629 . S
C879 C674 1.622 . S
C893 C128 1.622 . S
C899 C801 1.448 1_554 S
C913 C197 1.463 . S
C919 C779 1.477 . S
C939 C736 1.894 . S
C933 C144 1.963 . S
C953 C181 1.560 . S
C959 C757 1.517 . S
C979 C675 1.591 . S
C973 C234 1.730 . S
C999 C716 1.584 1_455 S
C993 C303 1.609 . S
C1013 C356 1.846 . S
C1019 C694 1.805 . S
C1033 C287 1.692 . S
C1039 C759 1.525 . S
C1059 C780 1.753 . S
C1053 C393 1.923 . S
C1079 C799 1.948 1_565 S
C1073 C409 2.016 . S
C1093 C462 1.783 . S
C1099 C758 1.790 . S
C1119 C737 1.556 1_545 S
C1113 C446 1.567 . S
C1133 C499 1.566 . S
C1139 C717 1.384 . S
C1153 C552 1.450 . S
C1159 C695 1.466 . S
C1179 C673 1.791 . S
C1173 C515 1.836 . S
C1193 C568 1.743 . S
C1199 C652 1.689 . S
C1219 C738 1.643 . S
C1213 C340 1.796 . S
C1239 C800 1.540 . S
C1233 C621 1.565 . S
C1253 C250 1.747 . S
C1259 C778 1.706 . S
C1273 C605 1.645 . S
C1279 C654 1.462 1_655 S
C1299 C650 1.200 . S
C1293 C39 1.261 . S
C1313 C29 1.052 . S
C1319 C671 1.049 . S
C1339 C691 1.302 . S
C1333 C92 1.402 . S
C1359 C714 1.381 . S
C1353 C82 1.647 . S
C1373 C145 1.228 . S
C1379 C651 1.022 . S
C1393 C188 1.590 . S
C1399 C672 1.219 . S
C1419 C692 1.051 . S
C1413 C135 1.087 . S
C1433 C198 1.131 . S
C1439 C712 1.086 . S
C1453 C251 1.054 . S
C1459 C649 1.016 . S
C1479 C693 1.302 . S
C1473 C294 1.589 . S
C1493 C347 1.485 . S
C1499 C713 1.440 . S
C1513 C304 1.209 . S
C1519 C733 1.112 . S
C1539 C755 1.212 . S
C1533 C410 1.292 . S
C1553 C400 1.125 . S
C1559 C734 1.101 . S
C1573 C453 1.153 . S
C1579 C775 1.081 . S
C1593 C463 2.000 . S
C1599 C798 1.635 . S
C1613 C516 1.213 . S
C1619 C756 1.014 . S
C1639 C735 1.530 . S
C1633 C569 1.938 . S
C1653 C506 0.985 . S
C1659 C776 0.932 . S
C1679 C796 0.956 . S
C1673 C559 0.995 . S
C1699 C754 0.960 . S
C1693 C357 1.015 . S
C1719 C777 1.292 . S
C1713 C612 1.584 . S
C1739 C797 1.426 . S
C1733 C241 1.437 1_556 S
C1753 C622 1.137 . S
C1759 C670 1.081 . S
