# Generated by pormake.
# Topology alb, (6,12)-cn, num edge types: 1
# Building blocks:
#     Node 0, Type 0, BuildingBlock: OJICUG_clean_sbu_0, # of connection points: 6
#     Node 1, Type 0, BuildingBlock: OJICUG_clean_sbu_0, # of connection points: 6
#     Node 2, Type 1, BuildingBlock: QEWDON_clean_sbu_0, # of connection points: 12
#     Edge 3, Type (0, 1), BuildingBlock: ZUJKAS_clean_linker_0, # of connection points: 2
#     Edge 4, Type (0, 1), BuildingBlock: ZUJKAS_clean_linker_0, # of connection points: 2
#     Edge 5, Type (0, 1), BuildingBlock: ZUJKAS_clean_linker_0, # of connection points: 2
#     Edge 6, Type (0, 1), BuildingBlock: ZUJKAS_clean_linker_0, # of connection points: 2
#     Edge 7, Type (0, 1), BuildingBlock: ZUJKAS_clean_linker_0, # of connection points: 2
#     Edge 8, Type (0, 1), BuildingBlock: ZUJKAS_clean_linker_0, # of connection points: 2
#     Edge 9, Type (0, 1), BuildingBlock: ZUJKAS_clean_linker_0, # of connection points: 2
#     Edge 10, Type (0, 1), BuildingBlock: ZUJKAS_clean_linker_0, # of connection points: 2
#     Edge 11, Type (0, 1), BuildingBlock: ZUJKAS_clean_linker_0, # of connection points: 2
#     Edge 12, Type (0, 1), BuildingBlock: ZUJKAS_clean_linker_0, # of connection points: 2
#     Edge 13, Type (0, 1), BuildingBlock: ZUJKAS_clean_linker_0, # of connection points: 2
#     Edge 14, Type (0, 1), BuildingBlock: ZUJKAS_clean_linker_0, # of connection points: 2
# Relax obj value: 0.122
# Max RMSD: 0.219
# Mean RMSD: 0.143
data_MOF--net-alb--node1-OJICUG_clean_sbu_0--node2-QEWDON_clean_sbu_0--edge1-ZUJKAS_clean_linker_0
_symmetry_space_group_name_H-M    P1
_symmetry_Int_Tables_number       1
_symmetry_cell_setting            triclinic
loop_
_symmetry_equiv_pos_as_xyz
'x, y, z'
_cell_length_a     30.638943
_cell_length_b     32.074554
_cell_length_c     25.712734
_cell_angle_alpha  90.233778
_cell_angle_beta   91.353511
_cell_angle_gamma 121.75848
loop_
_atom_site_label
_atom_site_type_symbol
_atom_site_fract_x
_atom_site_fract_y
_atom_site_fract_z
_atom_type_partial_charge
Sc0 Sc 0.29021 0.69134 0.12895 0.0
Sc1 Sc 0.17258 0.57724 0.13072 0.0
Sc2 Sc 0.29014 0.58213 0.12458 0.0
O3 O 0.2509 0.61693 0.12837 0.0
C4 C 0.35794 0.67271 0.05118 0.0
C5 C 0.19478 0.66356 0.05274 0.0
C6 C 0.19586 0.5182 0.04647 0.0
C7 C 0.20069 0.66708 0.20762 0.0
C8 C 0.35921 0.6692 0.205 0.0
C9 C 0.20055 0.51322 0.20234 0.0
O10 O 0.34102 0.69865 0.06814 0.0
O11 O 0.1656 0.62075 0.0705 0.0
O12 O 0.24249 0.53656 0.06085 0.0
O13 O 0.24498 0.69477 0.18941 0.0
O14 O 0.34217 0.62604 0.18727 0.0
O15 O 0.17116 0.52906 0.19099 0.0
O16 O 0.34418 0.69679 0.18756 0.0
O17 O 0.17018 0.62336 0.19095 0.0
O18 O 0.24284 0.52844 0.18019 0.0
O19 O 0.24026 0.69269 0.07027 0.0
O20 O 0.3432 0.63043 0.06837 0.0
O21 O 0.16536 0.52711 0.06976 0.0
Sc22 Sc 0.72424 0.31449 0.07594 0.0
Sc23 Sc 0.83057 0.43552 0.07023 0.0
Sc24 Sc 0.70413 0.41252 0.06897 0.0
O25 O 0.75302 0.38759 0.07181 0.0
C26 C 0.64394 0.31623 0.99701 0.0
C27 C 0.81517 0.34795 0.99641 0.0
C28 C 0.78849 0.48151 0.98768 0.0
C29 C 0.82211 0.35803 0.15299 0.0
C30 C 0.64981 0.32656 0.15109 0.0
C31 C 0.79503 0.49236 0.1437 0.0
O32 O 0.66725 0.29646 0.0158 0.0
O33 O 0.84113 0.39266 0.01171 0.0
O34 O 0.7435 0.46036 0.0055 0.0
O35 O 0.77807 0.32401 0.13643 0.0
O36 O 0.65879 0.36673 0.13177 0.0
O37 O 0.82856 0.48341 0.12839 0.0
O38 O 0.67091 0.30396 0.13505 0.0
O39 O 0.84621 0.40025 0.13295 0.0
O40 O 0.74925 0.47023 0.12521 0.0
O41 O 0.77318 0.31643 0.01657 0.0
O42 O 0.65287 0.35777 0.01245 0.0
O43 O 0.82391 0.47655 0.00749 0.0
Zn44 Zn 0.07562 0.07072 0.42394 0.0
Zn45 Zn 0.09459 0.00585 0.4868 0.0
O46 O 0.06309 0.04586 0.4975 0.0
H47 H 0.03376 0.03789 0.51803 0.0
C48 C 0.12372 0.14758 0.57209 0.0
O49 O 0.09387 0.13457 0.61228 0.0
Zn50 Zn 0.9138 0.90256 0.7248 0.0
Zn51 Zn 0.91184 0.99476 0.72082 0.0
O52 O 0.96242 0.97373 0.73573 0.0
H53 H 0.99094 0.98875 0.7606 0.0
Zn54 Zn 0.13186 0.06347 0.60489 0.0
O55 O 0.06135 0.01303 0.62944 0.0
Zn56 Zn 0.07615 0.96618 0.66561 0.0
H57 H 0.03087 0.00318 0.60842 0.0
Zn58 Zn 0.9131 0.01454 0.54963 0.0
O59 O 0.93715 0.97355 0.58585 0.0
H60 H 0.94713 0.97776 0.62229 0.0
Zn61 Zn 0.92281 0.91864 0.53583 0.0
C62 C 0.9354 0.10663 0.60393 0.0
O63 O 0.98079 0.12455 0.58388 0.0
O64 O 0.14701 0.08979 0.39909 0.0
O65 O 0.1641 0.04581 0.45277 0.0
O66 O 0.83979 0.9465 0.74838 0.0
O67 O 0.84633 0.88141 0.75992 0.0
O68 O 0.1891 0.06568 0.64961 0.0
O69 O 0.14542 0.00408 0.70428 0.0
C70 C -0.00039 0.92343 0.45845 0.0
O71 O 0.85861 0.97326 0.49244 0.0
O72 O 0.86662 0.90828 0.48512 0.0
O73 O 0.94273 0.06707 0.73973 0.0
C74 C 0.17756 0.07721 0.4167 0.0
O75 O 0.0476 0.11408 0.40124 0.0
C76 C -0.00519 0.88712 0.73714 0.0
O77 O 0.1448 0.1236 0.56115 0.0
C78 C 0.8213 0.90285 0.76406 0.0
O79 O 0.90109 0.06176 0.59526 0.0
C80 C 0.09039 0.938 0.56612 0.0
O81 O 0.04531 0.94771 0.44264 0.0
O82 O 0.98829 0.93961 0.49796 0.0
C83 C 0.18746 0.04107 0.68916 0.0
O84 O 0.94918 0.86922 0.75227 0.0
O85 O 0.01405 0.92497 0.70903 0.0
C86 C 0.89314 0.85222 0.62188 0.0
O87 O 0.0807 0.92244 0.61225 0.0
O88 O 0.0975 0.97991 0.55666 0.0
C89 C 0.84497 0.93165 0.47202 0.0
O90 O 0.89801 0.85445 0.57294 0.0
O91 O 0.90419 0.89085 0.64714 0.0
C92 C 0.98763 0.09869 0.7256 0.0
O93 O 0.01206 0.08513 0.69525 0.0
C94 C 0.0276 0.12858 0.43379 0.0
O95 O 0.02351 0.11462 0.48228 0.0
H96 H 0.25537 0.75869 0.25243 0.0
H97 H 0.22473 0.79726 0.31067 0.0
H98 H 0.07551 0.66421 0.31037 0.0
H99 H 0.10575 0.62478 0.25167 0.0
H100 H 0.13577 0.80682 0.28686 0.0
H101 H 0.11812 0.70488 0.46797 0.0
H102 H 0.15792 0.70825 0.41545 0.0
H103 H 0.08939 0.66986 0.40869 0.0
C104 C 0.21612 0.7372 0.26497 0.0
C105 C 0.18304 0.68848 0.24717 0.0
C106 C 0.19867 0.75949 0.29819 0.0
C107 C 0.14796 0.73359 0.31477 0.0
C108 C 0.11496 0.68466 0.29824 0.0
H109 H 0.02449 0.83989 0.54904 0.0
H110 H 0.03015 0.78815 0.48227 0.0
C111 C 0.13235 0.66222 0.26474 0.0
C112 C 0.12989 0.75883 0.34822 0.0
H113 H 0.09974 0.76708 0.47307 0.0
C114 C 0.12747 0.79799 0.32753 0.0
C115 C 0.11855 0.74677 0.40093 0.0
C116 C 0.12127 0.70534 0.425 0.0
C117 C 0.11498 0.82619 0.35848 0.0
C118 C 0.10593 0.81564 0.412 0.0
C119 C 0.10662 0.77527 0.43213 0.0
C120 C 0.09896 0.84758 0.44858 0.0
C121 C 0.1111 0.86653 0.33308 0.0
C122 C 0.13531 0.89824 0.45167 0.0
C123 C 0.13118 0.92784 0.4887 0.0
C124 C 0.09158 0.90716 0.52437 0.0
C125 C 0.0553 0.85658 0.52171 0.0
C126 C 0.05859 0.8271 0.48368 0.0
H127 H 0.09892 0.85752 0.29143 0.0
H128 H 0.08343 0.87322 0.35282 0.0
H129 H 0.14944 0.9009 0.33458 0.0
H130 H 0.16793 0.91478 0.4266 0.0
H131 H 0.16031 0.96655 0.491 0.0
H132 H 0.6146 0.23768 0.19672 0.0
H133 H 0.54009 0.19314 0.25141 0.0
H134 H 0.51844 0.31544 0.24912 0.0
H135 H 0.59302 0.3606 0.19442 0.0
H136 H 0.50396 0.26555 0.35064 0.0
H137 H 0.39381 0.14102 0.18243 0.0
H138 H 0.45486 0.14833 0.19904 0.0
H139 H 0.4525 0.19946 0.17464 0.0
C140 C 0.5946 0.25558 0.20839 0.0
C141 C 0.60956 0.30262 0.1905 0.0
C142 C 0.55193 0.22993 0.2396 0.0
C143 C 0.5235 0.2508 0.25362 0.0
C144 C 0.53992 0.29872 0.2385 0.0
H145 H 0.21441 0.13836 0.33426 0.0
H146 H 0.29992 0.17775 0.29871 0.0
C147 C 0.58252 0.32442 0.20714 0.0
C148 C 0.47443 0.22141 0.2805 0.0
H149 H 0.35041 0.12688 0.26075 0.0
C150 C 0.47046 0.23491 0.33133 0.0
C151 C 0.43083 0.18177 0.25481 0.0
C152 C 0.43274 0.16676 0.19959 0.0
C153 C 0.42362 0.20996 0.35702 0.0
C154 C 0.37999 0.17065 0.33109 0.0
C155 C 0.38418 0.15679 0.28056 0.0
C156 C 0.32851 0.14628 0.35375 0.0
C157 C 0.42046 0.22674 0.41091 0.0
C158 C 0.31618 0.1151 0.39628 0.0
C159 C 0.26696 0.09211 0.41673 0.0
C160 C 0.22949 0.10019 0.39496 0.0
C161 C 0.24222 0.13133 0.35215 0.0
C162 C 0.29111 0.15392 0.33168 0.0
H163 H 0.45628 0.26132 0.42322 0.0
H164 H 0.38776 0.23243 0.41254 0.0
H165 H 0.41348 0.19793 0.43914 0.0
H166 H 0.34451 0.10841 0.41345 0.0
H167 H 0.2584 0.06832 0.44966 0.0
H168 H 0.24392 0.45912 0.22095 0.0
H169 H 0.22168 0.39667 0.28572 0.0
H170 H 0.10162 0.41656 0.33973 0.0
H171 H 0.12356 0.47984 0.27405 0.0
H172 H 0.17061 0.41537 0.42013 0.0
H173 H 0.0922 0.25664 0.28338 0.0
H174 H 0.15471 0.30621 0.26666 0.0
H175 H 0.10128 0.31483 0.26458 0.0
C176 C 0.21262 0.45042 0.24633 0.0
C177 C 0.18553 0.47472 0.24209 0.0
C178 C 0.19978 0.41434 0.28323 0.0
C179 C 0.15957 0.40146 0.317 0.0
C180 C 0.1326 0.42579 0.31366 0.0
H181 H 0.08376 0.20581 0.58426 0.0
H182 H 0.08932 0.26756 0.52505 0.0
C183 C 0.14511 0.46183 0.2761 0.0
C184 C 0.14758 0.36357 0.35655 0.0
H185 H 0.11658 0.24527 0.36877 0.0
C186 C 0.15788 0.37785 0.40923 0.0
C187 C 0.13158 0.3149 0.34202 0.0
C188 C 0.11884 0.29705 0.28611 0.0
C189 C 0.15526 0.34547 0.44758 0.0
C190 C 0.14022 0.29689 0.43292 0.0
C191 C 0.12815 0.28233 0.38028 0.0
C192 C 0.13837 0.26085 0.47071 0.0
C193 C 0.17156 0.36474 0.50275 0.0
C194 C 0.16311 0.23543 0.45974 0.0
C195 C 0.15917 0.19936 0.49309 0.0
C196 C 0.13043 0.18786 0.53835 0.0
C197 C 0.10642 0.21388 0.54986 0.0
C198 C 0.11009 0.24974 0.51624 0.0
H199 H 0.19679 0.40537 0.50423 0.0
H200 H 0.13699 0.35469 0.52523 0.0
H201 H 0.19235 0.34902 0.52208 0.0
H202 H 0.18522 0.24319 0.42496 0.0
H203 H 0.17804 0.17997 0.4829 0.0
H204 H 0.90536 0.42238 0.21532 0.0
H205 H 0.94759 0.40166 0.28378 0.0
H206 H 0.83758 0.24774 0.25473 0.0
H207 H 0.79448 0.26789 0.1883 0.0
H208 H 0.85656 0.26754 0.35668 0.0
H209 H 0.03998 0.35139 0.25127 0.0
H210 H 0.0196 0.39232 0.27045 0.0
H211 H 0.98263 0.34495 0.22233 0.0
C212 C 0.8901 0.38417 0.22386 0.0
C213 C 0.84683 0.34677 0.19607 0.0
C214 C 0.91433 0.37242 0.26285 0.0
C215 C 0.89615 0.32315 0.27382 0.0
C216 C 0.85219 0.28603 0.24707 0.0
H217 H 0.01663 0.15212 0.33485 0.0
H218 H 0.98997 0.20806 0.30712 0.0
C219 C 0.82767 0.29765 0.20886 0.0
C220 C 0.92356 0.30883 0.31073 0.0
H221 H 0.03167 0.30391 0.3232 0.0
C222 C 0.89521 0.27601 0.35004 0.0
C223 C 0.97406 0.32021 0.30189 0.0
C224 C 0.00588 0.35385 0.25905 0.0
C225 C 0.914 0.25068 0.37744 0.0
C226 C 0.96347 0.26017 0.36664 0.0
C227 C 0.99369 0.29651 0.33095 0.0
C228 C 0.9813 0.22781 0.3852 0.0
C229 C 0.87901 0.21126 0.41438 0.0
C230 C 0.98511 0.2201 0.43835 0.0
C231 C -0.00123 0.18673 0.45427 0.0
C232 C 0.01076 0.16208 0.41736 0.0
C233 C 0.00774 0.17057 0.36427 0.0
C234 C 0.99289 0.20288 0.34839 0.0
H235 H 0.83876 0.20231 0.41047 0.0
H236 H 0.87914 0.17713 0.40751 0.0
H237 H 0.89272 0.22408 0.455 0.0
H238 H 0.97736 0.23963 0.46749 0.0
H239 H 0.00073 0.18092 0.49546 0.0
H240 H 0.40443 0.75856 0.25475 0.0
H241 H 0.48621 0.80004 0.30351 0.0
H242 H 0.49488 0.67056 0.29039 0.0
H243 H 0.41324 0.62859 0.24108 0.0
H244 H 0.52384 0.7752 0.39588 0.0
H245 H 0.62289 0.78089 0.21486 0.0
H246 H 0.55762 0.76701 0.21427 0.0
H247 H 0.57153 0.72134 0.23349 0.0
C248 C 0.42318 0.73849 0.26289 0.0
C249 C 0.40274 0.69054 0.24314 0.0
C250 C 0.46986 0.76229 0.29081 0.0
C251 C 0.49677 0.73857 0.29933 0.0
C252 C 0.47483 0.68958 0.2832 0.0
H253 H 0.80164 0.84144 0.42454 0.0
H254 H 0.71744 0.79513 0.38046 0.0
C255 C 0.42808 0.66565 0.25531 0.0
C256 C 0.54939 0.76639 0.32171 0.0
H257 H 0.67464 0.81463 0.29117 0.0
C258 C 0.55689 0.78382 0.37317 0.0
C259 C 0.59212 0.77758 0.29154 0.0
C260 C 0.58597 0.76114 0.23532 0.0
C261 C 0.60637 0.81192 0.39567 0.0
C262 C 0.64913 0.82348 0.36536 0.0
C263 C 0.64159 0.80572 0.31402 0.0
C264 C 0.70203 0.85344 0.38674 0.0
C265 C 0.61246 0.82839 0.45186 0.0
C266 C 0.72187 0.90221 0.40253 0.0
C267 C 0.76993 0.92885 0.42771 0.0
C268 C 0.79885 0.90704 0.43731 0.0
C269 C 0.78017 0.85919 0.41819 0.0
C270 C 0.73208 0.83262 0.39306 0.0
H271 H 0.576 0.80697 0.47283 0.0
H272 H 0.64257 0.82482 0.47246 0.0
H273 H 0.62432 0.86757 0.45358 0.0
H274 H 0.6995 0.91913 0.39677 0.0
H275 H 0.78337 0.96575 0.4415 0.0
H276 H 0.8727 0.52618 0.21758 0.0
H277 H 0.89786 0.59136 0.28282 0.0
H278 H 0.77791 0.61255 0.22399 0.0
H279 H 0.75113 0.54606 0.1607 0.0
H280 H 0.93542 0.68231 0.26919 0.0
H281 H 0.75659 0.61687 0.3745 0.0
H282 H 0.76434 0.57776 0.32999 0.0
H283 H 0.745 0.61866 0.30619 0.0
C284 C 0.85134 0.54438 0.21906 0.0
C285 C 0.80987 0.53091 0.1841 0.0
C286 C 0.86562 0.58152 0.25645 0.0
C287 C 0.83915 0.60635 0.2592 0.0
C288 C 0.79781 0.59293 0.22413 0.0
H289 H 0.97927 0.90658 0.35517 0.0
H290 H 0.93487 0.8267 0.31009 0.0
C291 C 0.78288 0.55519 0.18748 0.0
C292 C 0.85782 0.64931 0.29508 0.0
H293 H 0.81874 0.70439 0.38059 0.0
C294 C 0.90987 0.68662 0.29401 0.0
C295 C 0.82494 0.65492 0.32843 0.0
C296 C 0.76978 0.61459 0.33529 0.0
C297 C 0.92941 0.72997 0.3235 0.0
C298 C 0.89572 0.73728 0.35334 0.0
C299 C 0.8442 0.69923 0.35653 0.0
C300 C 0.91384 0.78468 0.38066 0.0
C301 C 0.9862 0.76746 0.32268 0.0
C302 C 0.91388 0.78738 0.43518 0.0
C303 C 0.93833 0.83309 0.46091 0.0
C304 C 0.96283 0.87645 0.43241 0.0
C305 C 0.9601 0.87355 0.37789 0.0
C306 C 0.93522 0.82803 0.35221 0.0
H307 H 0.00834 0.75062 0.31109 0.0
H308 H 0.99333 0.79599 0.29402 0.0
H309 H 0.00085 0.7855 0.36148 0.0
H310 H 0.89781 0.75436 0.45784 0.0
H311 H 0.94177 0.83448 0.50291 0.0
H312 H 0.24088 0.75618 0.0147 0.0
H313 H 0.20764 0.78713 0.94854 0.0
H314 H 0.07221 0.6428 0.92717 0.0
H315 H 0.10466 0.61138 0.99467 0.0
H316 H 0.18028 0.7632 0.84542 0.0
H317 H 0.01209 0.72583 0.96024 0.0
H318 H 0.06406 0.72128 0.98781 0.0
H319 H 0.01582 0.67298 0.94611 0.0
C320 C 0.20402 0.73077 0.99601 0.0
C321 C 0.17514 0.6813 0.01055 0.0
C322 C 0.18519 0.7486 0.95797 0.0
C323 C 0.13719 0.71747 0.9335 0.0
C324 C 0.10892 0.66768 0.94642 0.0
H325 H 0.95421 0.79022 0.73945 0.0
H326 H 0.99179 0.74624 0.77732 0.0
C327 C 0.12758 0.64976 0.98489 0.0
C328 C 0.11639 0.73814 0.89607 0.0
H329 H 0.02006 0.76059 0.87826 0.0
C330 C 0.14507 0.76243 0.85234 0.0
C331 C 0.07056 0.73717 0.90535 0.0
C332 C 0.039 0.71331 0.95261 0.0
C333 C 0.12919 0.78599 0.81769 0.0
C334 C 0.0839 0.78573 0.82759 0.0
C335 C 0.05479 0.76065 0.87074 0.0
C336 C 0.06575 0.81176 0.79476 0.0
C337 C 0.16075 0.8106 0.77075 0.0
C338 C 0.09538 0.86308 0.7901 0.0
C339 C 0.07374 0.88809 0.76751 0.0
C340 C 0.02212 0.86201 0.75033 0.0
C341 C -0.00614 0.81075 0.75246 0.0
C342 C 0.01539 0.78575 0.77412 0.0
H343 H 0.18522 0.79583 0.76076 0.0
H344 H 0.1358 0.80594 0.7364 0.0
H345 H 0.18636 0.85045 0.7793 0.0
H346 H 0.13401 0.88401 0.80676 0.0
H347 H 0.096 0.92776 0.76711 0.0
H348 H 0.62828 0.23903 0.93664 0.0
H349 H 0.55539 0.18802 0.87718 0.0
H350 H 0.49186 0.277 0.9115 0.0
H351 H 0.56522 0.32901 0.96971 0.0
H352 H 0.45618 0.13258 0.90039 0.0
H353 H 0.48072 0.26973 0.75548 0.0
H354 H 0.53048 0.28132 0.80279 0.0
H355 H 0.47878 0.28945 0.82025 0.0
C356 C 0.59912 0.24814 0.93094 0.0
C357 C 0.6025 0.28811 0.95772 0.0
C358 C 0.55753 0.21893 0.89705 0.0
C359 C 0.51862 0.22911 0.88951 0.0
C360 C 0.52216 0.26926 0.91577 0.0
H361 H 0.20212 0.038 0.79396 0.0
H362 H 0.28487 0.07834 0.84191 0.0
C363 C 0.56402 0.29885 0.94917 0.0
C364 C 0.47284 0.19622 0.85649 0.0
H365 H 0.39742 0.19618 0.75717 0.0
C366 C 0.44359 0.14625 0.86856 0.0
C367 C 0.45704 0.21403 0.81456 0.0
C368 C 0.48874 0.26646 0.79715 0.0
C369 C 0.39785 0.11386 0.84083 0.0
C370 C 0.38041 0.13238 0.80108 0.0
C371 C 0.41058 0.18204 0.78801 0.0
C372 C 0.3306 0.10169 0.77285 0.0
C373 C 0.369 0.06025 0.85423 0.0
C374 C 0.32887 0.10131 0.71831 0.0
C375 C 0.28193 0.07962 0.69117 0.0
C376 C 0.23584 0.05727 0.71807 0.0
C377 C 0.23725 0.05481 0.77248 0.0
C378 C 0.28446 0.07754 0.7998 0.0
H379 H 0.39508 0.0496 0.87201 0.0
H380 H 0.33955 0.05315 0.88302 0.0
H381 H 0.34942 0.03656 0.8193 0.0
H382 H 0.36397 0.11958 0.69676 0.0
H383 H 0.28172 0.0815 0.6491 0.0
H384 H 0.25209 0.51429 0.96835 0.0
H385 H 0.22172 0.45594 0.89531 0.0
H386 H 0.06662 0.38772 0.94855 0.0
H387 H 0.09652 0.44717 0.02073 0.0
H388 H 0.18136 0.36206 0.90444 0.0
H389 H 0.04118 0.38935 0.79562 0.0
H390 H 0.08565 0.43326 0.84382 0.0
H391 H 0.02633 0.38007 0.86315 0.0
C392 C 0.21138 0.48726 0.9641 0.0
C393 C 0.17667 0.48499 0.00048 0.0
C394 C 0.19408 0.45414 0.92218 0.0
C395 C 0.14184 0.41789 0.916 0.0
C396 C 0.1069 0.41625 0.9516 0.0
H397 H 0.96069 0.12995 0.80976 0.0
H398 H 0.00107 0.2133 0.84494 0.0
C399 C 0.12409 0.44991 0.99318 0.0
C400 C 0.12496 0.37817 0.87656 0.0
H401 H 0.03051 0.309 0.78558 0.0
C402 C 0.14926 0.3513 0.87744 0.0
C403 C 0.08321 0.36424 0.8412 0.0
C404 C 0.05802 0.39367 0.83548 0.0
C405 C 0.13086 0.30906 0.84637 0.0
C406 C 0.08707 0.2934 0.81378 0.0
C407 C 0.06418 0.32138 0.8108 0.0
C408 C 0.06072 0.24472 0.7883 0.0
C409 C 0.15627 0.27965 0.85084 0.0
C410 C 0.08099 0.23523 0.74467 0.0
C411 C 0.05732 0.18758 0.72387 0.0
C412 C 0.01308 0.14921 0.74645 0.0
C413 C 0.99339 0.15914 0.79033 0.0
C414 C 0.01664 0.20658 0.81071 0.0
H415 H 0.18862 0.29574 0.88001 0.0
H416 H 0.12771 0.24149 0.86197 0.0
H417 H 0.17122 0.27789 0.81253 0.0
H418 H 0.11527 0.26447 0.7272 0.0
H419 H 0.07336 0.18088 0.69011 0.0
H420 H 0.91279 0.39108 0.95807 0.0
H421 H 0.94161 0.35839 0.88937 0.0
H422 H 0.78693 0.23466 0.86699 0.0
H423 H 0.75826 0.26609 0.93575 0.0
H424 H 0.85608 0.20701 0.87939 0.0
H425 H 0.92363 0.35276 0.73134 0.0
H426 H 0.94918 0.37229 0.79656 0.0
H427 H 0.88215 0.34746 0.783 0.0
C428 C 0.88493 0.35716 0.9381 0.0
C429 C 0.83332 0.33102 0.95278 0.0
C430 C 0.9014 0.33867 0.8986 0.0
C431 C 0.86637 0.29421 0.87264 0.0
C432 C 0.81472 0.26894 0.88647 0.0
H433 H 0.8457 0.08138 0.65096 0.0
H434 H 0.8313 0.12957 0.71413 0.0
C435 C 0.79842 0.28698 0.92601 0.0
C436 C 0.88298 0.27153 0.83345 0.0
H437 H 0.93019 0.28463 0.71159 0.0
C438 C 0.87255 0.22413 0.84276 0.0
C439 C 0.90479 0.29398 0.78588 0.0
C440 C 0.91538 0.34428 0.77311 0.0
C441 C 0.88177 0.19784 0.80553 0.0
C442 C 0.90198 0.21946 0.75699 0.0
C443 C 0.9145 0.26783 0.7485 0.0
C444 C 0.9093 0.19222 0.71433 0.0
C445 C 0.86879 0.14694 0.81936 0.0
C446 C 0.95674 0.21268 0.69008 0.0
C447 C 0.9646 0.18568 0.65254 0.0
C448 C 0.92541 0.13737 0.63909 0.0
C449 C 0.8771 0.11805 0.66121 0.0
C450 C 0.86893 0.14548 0.69774 0.0
H451 H 0.82686 0.12102 0.81316 0.0
H452 H 0.88921 0.13403 0.79576 0.0
H453 H 0.8781 0.14553 0.8611 0.0
H454 H 0.98829 0.24899 0.70132 0.0
H455 H 0.002 0.20208 0.6355 0.0
H456 H 0.40432 0.76374 0.0074 0.0
H457 H 0.47825 0.80078 0.95099 0.0
H458 H 0.48026 0.66739 0.95281 0.0
H459 H 0.40607 0.62974 0.00826 0.0
H460 H 0.5731 0.81602 0.97768 0.0
H461 H 0.49526 0.69918 0.79914 0.0
H462 H 0.45447 0.69956 0.84845 0.0
H463 H 0.48489 0.66495 0.85742 0.0
C464 C 0.41986 0.74192 0.9951 0.0
C465 C 0.39916 0.69372 0.01254 0.0
C466 C 0.46219 0.76321 0.96291 0.0
C467 C 0.48441 0.73667 0.94723 0.0
C468 C 0.4631 0.68821 0.96347 0.0
H469 H 0.76719 0.80864 0.79969 0.0
H470 H 0.68478 0.76832 0.84319 0.0
C471 C 0.42078 0.66686 0.99554 0.0
C472 C 0.53235 0.76086 0.91758 0.0
H473 H 0.58648 0.75181 0.80678 0.0
C474 C 0.57589 0.80228 0.94007 0.0
C475 C 0.536 0.74259 0.86874 0.0
C476 C 0.49005 0.69939 0.84174 0.0
C477 C 0.62323 0.8254 0.91552 0.0
C478 C 0.62693 0.80702 0.86682 0.0
C479 C 0.58345 0.76569 0.8442 0.0
C480 C 0.67567 0.83067 0.8387 0.0
C481 C 0.66924 0.86864 0.94246 0.0
C482 C 0.69721 0.87868 0.82099 0.0
C483 C 0.74416 0.90182 0.79622 0.0
C484 C 0.77048 0.87731 0.78852 0.0
C485 C 0.74813 0.82869 0.80526 0.0
C486 C 0.70102 0.80554 0.83 0.0
H487 H 0.66299 0.87084 0.98452 0.0
H488 H 0.70407 0.86659 0.93838 0.0
H489 H 0.67659 0.90299 0.92426 0.0
H490 H 0.67779 0.89839 0.8266 0.0
H491 H 0.76001 0.93914 0.78359 0.0
H492 H 0.88125 0.53868 0.94134 0.0
H493 H 0.90075 0.59512 0.86949 0.0
H494 H 0.74243 0.5546 0.85976 0.0
H495 H 0.72228 0.49785 0.93106 0.0
H496 H 0.78883 0.56203 0.76057 0.0
H497 H 0.90569 0.72563 0.89076 0.0
H498 H 0.92318 0.68024 0.89016 0.0
H499 H 0.86279 0.66538 0.91598 0.0
C500 C 0.85044 0.54148 0.92377 0.0
C501 C 0.80024 0.514 0.94245 0.0
C502 C 0.86173 0.57381 0.88274 0.0
C503 C 0.82309 0.57927 0.85974 0.0
C504 C 0.77275 0.55085 0.87706 0.0
H505 H 0.82812 0.8141 0.7014 0.0
H506 H 0.81013 0.74404 0.75455 0.0
C507 C 0.76141 0.51861 0.91806 0.0
C508 C 0.83521 0.61648 0.8196 0.0
H509 H 0.89382 0.73984 0.80389 0.0
C510 C 0.81242 0.60098 0.76961 0.0
C511 C 0.86568 0.66717 0.83186 0.0
C512 C 0.89057 0.68588 0.88513 0.0
C513 C 0.81885 0.63503 0.73163 0.0
C514 C 0.84845 0.6856 0.74432 0.0
C515 C 0.87162 0.701 0.79411 0.0
C516 C 0.85395 0.72351 0.70782 0.0
C517 C 0.79253 0.61689 0.67893 0.0
C518 C 0.88367 0.73457 0.66334 0.0
C519 C 0.89544 0.77584 0.63411 0.0
C520 C 0.8775 0.80627 0.64912 0.0
C521 C 0.84486 0.79296 0.69126 0.0
C522 C 0.8337 0.75236 0.7208 0.0
H523 H 0.76515 0.57655 0.67771 0.0
H524 H 0.77147 0.63528 0.66819 0.0
H525 H 0.82183 0.62616 0.64922 0.0
H526 H 0.90005 0.71298 0.65299 0.0
H527 H 0.92021 0.78509 0.60124 0.0
loop_
_geom_bond_atom_site_label_1
_geom_bond_atom_site_label_2
_geom_bond_distance
_geom_bond_site_symmetry_2
_ccdc_geom_bond_type
Sc0 O3 2.025 . S
Sc0 O10 2.105 . S
Sc0 O13 2.105 . S
Sc0 O16 2.105 . S
Sc0 O19 2.105 . S
Sc1 O3 2.025 . S
Sc1 O11 2.105 . S
Sc1 O15 2.105 . S
Sc1 O17 2.105 . S
Sc1 O21 2.105 . S
Sc2 O3 2.025 . S
Sc2 O12 2.105 . S
Sc2 O14 2.105 . S
Sc2 O18 2.105 . S
Sc2 O20 2.105 . S
O3 Sc0 2.025 . S
O3 Sc1 2.025 . S
O3 Sc2 2.025 . S
C4 O10 1.268 . S
C4 O20 1.268 . S
C5 O11 1.268 . S
C5 O19 1.268 . S
C6 O12 1.268 . S
C6 O21 1.268 . S
C7 O13 1.268 . S
C7 O17 1.268 . S
C8 O14 1.268 . S
C8 O16 1.268 . S
C9 O15 1.268 . S
C9 O18 1.268 . S
O10 Sc0 2.105 . S
O10 C4 1.268 . S
O11 Sc1 2.105 . S
O11 C5 1.268 . S
O12 Sc2 2.105 . S
O12 C6 1.268 . S
O13 Sc0 2.105 . S
O13 C7 1.268 . S
O14 Sc2 2.105 . S
O14 C8 1.268 . S
O15 Sc1 2.105 . S
O15 C9 1.268 . S
O16 Sc0 2.105 . S
O16 C8 1.268 . S
O17 Sc1 2.105 . S
O17 C7 1.268 . S
O18 Sc2 2.105 . S
O18 C9 1.268 . S
O19 Sc0 2.105 . S
O19 C5 1.268 . S
O20 Sc2 2.105 . S
O20 C4 1.268 . S
O21 Sc1 2.105 . S
O21 C6 1.268 . S
Sc22 O25 2.025 . S
Sc22 O32 2.105 1_554 S
Sc22 O35 2.105 . S
Sc22 O38 2.105 . S
Sc22 O41 2.105 1_554 S
Sc23 O25 2.025 . S
Sc23 O33 2.105 1_554 S
Sc23 O37 2.105 . S
Sc23 O39 2.105 . S
Sc23 O43 2.105 1_554 S
Sc24 O25 2.025 . S
Sc24 O34 2.105 1_554 S
Sc24 O36 2.105 . S
Sc24 O40 2.105 . S
Sc24 O42 2.105 1_554 S
O25 Sc22 2.025 . S
O25 Sc23 2.025 . S
O25 Sc24 2.025 . S
C26 O32 1.268 . S
C26 O42 1.268 . S
C27 O33 1.268 . S
C27 O41 1.268 . S
C28 O34 1.268 . S
C28 O43 1.268 . S
C29 O35 1.268 . S
C29 O39 1.268 . S
C30 O36 1.268 . S
C30 O38 1.268 . S
C31 O37 1.268 . S
C31 O40 1.268 . S
O32 Sc22 2.105 1_556 S
O32 C26 1.268 . S
O33 Sc23 2.105 1_556 S
O33 C27 1.268 . S
O34 Sc24 2.105 1_556 S
O34 C28 1.268 . S
O35 Sc22 2.105 . S
O35 C29 1.268 . S
O36 Sc24 2.105 . S
O36 C30 1.268 . S
O37 Sc23 2.105 . S
O37 C31 1.268 . S
O38 Sc22 2.105 . S
O38 C30 1.268 . S
O39 Sc23 2.105 . S
O39 C29 1.268 . S
O40 Sc24 2.105 . S
O40 C31 1.268 . S
O41 Sc22 2.105 1_556 S
O41 C27 1.268 . S
O42 Sc24 2.105 1_556 S
O42 C26 1.268 . S
O43 Sc23 2.105 1_556 S
O43 C28 1.268 . S
Zn44 O46 1.933 . S
Zn44 O64 1.985 . S
Zn44 O75 1.955 . S
Zn45 O46 1.911 1_565 S
Zn45 O65 1.970 1_565 S
Zn45 O81 1.945 . S
Zn45 O88 1.981 . S
O46 Zn44 1.933 . S
O46 Zn45 1.911 1_545 S
O46 H47 0.841 1_445 S
H47 O46 0.841 1_665 S
C48 O49 1.246 . S
C48 O77 1.276 . S
O49 C48 1.246 . S
Zn50 O52 1.911 . S
Zn50 O67 1.970 . S
Zn50 O84 1.945 1_655 S
Zn50 O91 1.981 . S
Zn51 O52 1.933 1_545 S
Zn51 O66 1.985 1_545 S
Zn51 O73 1.955 1_655 S
O52 Zn50 1.911 . S
O52 Zn51 1.933 1_565 S
O52 H53 0.841 1_665 S
H53 O52 0.841 1_445 S
Zn54 O55 1.933 . S
Zn54 O68 1.985 . S
Zn54 O77 1.955 . S
O55 Zn54 1.933 . S
O55 Zn56 1.911 . S
O55 H57 0.841 . S
Zn56 O55 1.911 . S
Zn56 O69 1.970 . S
Zn56 O85 1.981 1_545 S
Zn56 O87 1.945 1_545 S
H57 O55 0.841 . S
Zn58 O59 1.933 . S
Zn58 O71 1.985 . S
Zn58 O79 1.955 1_565 S
O59 Zn58 1.933 . S
O59 H60 0.841 . S
O59 Zn61 1.911 . S
H60 O59 0.841 . S
Zn61 O59 1.911 . S
Zn61 O72 1.970 . S
Zn61 O82 1.981 . S
Zn61 O90 1.945 . S
C62 O63 1.246 . S
C62 O79 1.276 . S
O63 C62 1.246 . S
O64 Zn44 1.985 . S
O64 C74 1.245 . S
O65 Zn45 1.970 1_545 S
O65 C74 1.263 . S
O66 Zn51 1.985 1_565 S
O66 C78 1.245 . S
O67 Zn50 1.970 . S
O67 C78 1.263 . S
O68 Zn54 1.985 . S
O68 C83 1.245 . S
O69 Zn56 1.970 . S
O69 C83 1.263 . S
C70 O81 1.262 1_655 S
C70 O82 1.245 . S
O71 Zn58 1.985 . S
O71 C89 1.245 . S
O72 Zn61 1.970 . S
O72 C89 1.263 . S
O73 Zn51 1.955 1_455 S
O73 C92 1.276 . S
C74 O64 1.245 . S
C74 O65 1.263 . S
O75 Zn44 1.955 . S
O75 C94 1.276 1_455 S
C76 O84 1.262 . S
C76 O85 1.245 . S
O77 C48 1.276 . S
O77 Zn54 1.955 . S
C78 O66 1.245 . S
C78 O67 1.263 . S
O79 Zn58 1.955 1_545 S
O79 C62 1.276 . S
C80 O87 1.262 . S
C80 O88 1.245 . S
O81 Zn45 1.945 . S
O81 C70 1.262 1_455 S
O82 Zn61 1.981 . S
O82 C70 1.245 . S
C83 O68 1.245 . S
C83 O69 1.263 . S
O84 Zn50 1.945 1_455 S
O84 C76 1.262 . S
O85 Zn56 1.981 1_565 S
O85 C76 1.245 . S
C86 O90 1.262 . S
C86 O91 1.245 . S
O87 Zn56 1.945 1_565 S
O87 C80 1.262 . S
O88 Zn45 1.981 . S
O88 C80 1.245 . S
C89 O71 1.245 . S
C89 O72 1.263 . S
O90 Zn61 1.945 . S
O90 C86 1.262 . S
O91 Zn50 1.981 . S
O91 C86 1.245 . S
C92 O73 1.276 . S
C92 O93 1.246 . S
O93 C92 1.246 . S
C94 O75 1.276 1_655 S
C94 O95 1.246 . S
O95 C94 1.246 . S
H96 C104 0.929 . S
H97 C106 0.930 . S
H98 C108 0.930 . S
H99 C111 0.929 . S
H100 C114 0.930 . S
H101 C116 0.960 . S
H102 C116 0.960 . S
H103 C116 0.960 . S
C104 H96 0.929 . S
C104 C105 1.377 . S
C104 C106 1.384 . S
C105 C104 1.377 . S
C105 C111 1.390 . S
C106 H97 0.930 . S
C106 C104 1.384 . S
C106 C107 1.372 . S
C107 C106 1.372 . S
C107 C108 1.400 . S
C107 C112 1.490 . S
C108 H98 0.930 . S
C108 C107 1.400 . S
C108 C111 1.386 . S
H109 C125 0.930 . S
H110 C126 0.931 . S
C111 H99 0.929 . S
C111 C105 1.390 . S
C111 C108 1.386 . S
C112 C107 1.490 . S
C112 C114 1.395 . S
C112 C115 1.403 . S
H113 C119 0.930 . S
C114 H100 0.930 . S
C114 C112 1.395 . S
C114 C117 1.403 . S
C115 C112 1.403 . S
C115 C116 1.524 . S
C115 C119 1.400 . S
C116 H101 0.960 . S
C116 H102 0.960 . S
C116 H103 0.960 . S
C116 C115 1.524 . S
C117 C114 1.403 . S
C117 C118 1.392 . S
C117 C121 1.495 . S
C118 C117 1.392 . S
C118 C119 1.385 . S
C118 C120 1.478 . S
C119 H113 0.930 . S
C119 C115 1.400 . S
C119 C118 1.385 . S
C120 C118 1.478 . S
C120 C122 1.381 . S
C120 C126 1.383 . S
C121 C117 1.495 . S
C121 H127 0.959 . S
C121 H128 0.961 . S
C121 H129 0.960 . S
C122 C120 1.381 . S
C122 C123 1.394 . S
C122 H130 0.930 . S
C123 C122 1.394 . S
C123 C124 1.383 . S
C123 H131 0.929 . S
C124 C123 1.383 . S
C124 C125 1.377 . S
C125 H109 0.930 . S
C125 C124 1.377 . S
C125 C126 1.379 . S
C126 H110 0.931 . S
C126 C120 1.383 . S
C126 C125 1.379 . S
H127 C121 0.959 . S
H128 C121 0.961 . S
H129 C121 0.960 . S
H130 C122 0.930 . S
H131 C123 0.929 . S
H132 C140 0.929 . S
H133 C142 0.930 . S
H134 C144 0.930 . S
H135 C147 0.929 . S
H136 C150 0.930 . S
H137 C152 0.960 . S
H138 C152 0.960 . S
H139 C152 0.960 . S
C140 H132 0.929 . S
C140 C141 1.377 . S
C140 C142 1.384 . S
C141 C140 1.377 . S
C141 C147 1.390 . S
C142 H133 0.930 . S
C142 C140 1.384 . S
C142 C143 1.372 . S
C143 C142 1.372 . S
C143 C144 1.400 . S
C143 C148 1.490 . S
C144 H134 0.930 . S
C144 C143 1.400 . S
C144 C147 1.386 . S
H145 C161 0.930 . S
H146 C162 0.931 . S
C147 H135 0.929 . S
C147 C141 1.390 . S
C147 C144 1.386 . S
C148 C143 1.490 . S
C148 C150 1.395 . S
C148 C151 1.403 . S
H149 C155 0.930 . S
C150 H136 0.930 . S
C150 C148 1.395 . S
C150 C153 1.403 . S
C151 C148 1.403 . S
C151 C152 1.524 . S
C151 C155 1.400 . S
C152 H137 0.960 . S
C152 H138 0.960 . S
C152 H139 0.960 . S
C152 C151 1.524 . S
C153 C150 1.403 . S
C153 C154 1.392 . S
C153 C157 1.495 . S
C154 C153 1.392 . S
C154 C155 1.385 . S
C154 C156 1.478 . S
C155 H149 0.930 . S
C155 C151 1.400 . S
C155 C154 1.385 . S
C156 C154 1.478 . S
C156 C158 1.381 . S
C156 C162 1.383 . S
C157 C153 1.495 . S
C157 H163 0.959 . S
C157 H164 0.961 . S
C157 H165 0.960 . S
C158 C156 1.381 . S
C158 C159 1.394 . S
C158 H166 0.930 . S
C159 C158 1.394 . S
C159 C160 1.383 . S
C159 H167 0.929 . S
C160 C159 1.383 . S
C160 C161 1.377 . S
C161 H145 0.930 . S
C161 C160 1.377 . S
C161 C162 1.379 . S
C162 H146 0.931 . S
C162 C156 1.383 . S
C162 C161 1.379 . S
H163 C157 0.959 . S
H164 C157 0.961 . S
H165 C157 0.960 . S
H166 C158 0.930 . S
H167 C159 0.929 . S
H168 C176 0.929 . S
H169 C178 0.930 . S
H170 C180 0.930 . S
H171 C183 0.929 . S
H172 C186 0.930 . S
H173 C188 0.960 . S
H174 C188 0.960 . S
H175 C188 0.960 . S
C176 H168 0.929 . S
C176 C177 1.377 . S
C176 C178 1.384 . S
C177 C176 1.377 . S
C177 C183 1.390 . S
C178 H169 0.930 . S
C178 C176 1.384 . S
C178 C179 1.372 . S
C179 C178 1.372 . S
C179 C180 1.400 . S
C179 C184 1.490 . S
C180 H170 0.930 . S
C180 C179 1.400 . S
C180 C183 1.386 . S
H181 C197 0.930 . S
H182 C198 0.931 . S
C183 H171 0.929 . S
C183 C177 1.390 . S
C183 C180 1.386 . S
C184 C179 1.490 . S
C184 C186 1.395 . S
C184 C187 1.403 . S
H185 C191 0.930 . S
C186 H172 0.930 . S
C186 C184 1.395 . S
C186 C189 1.403 . S
C187 C184 1.403 . S
C187 C188 1.524 . S
C187 C191 1.400 . S
C188 H173 0.960 . S
C188 H174 0.960 . S
C188 H175 0.960 . S
C188 C187 1.524 . S
C189 C186 1.403 . S
C189 C190 1.392 . S
C189 C193 1.495 . S
C190 C189 1.392 . S
C190 C191 1.385 . S
C190 C192 1.478 . S
C191 H185 0.930 . S
C191 C187 1.400 . S
C191 C190 1.385 . S
C192 C190 1.478 . S
C192 C194 1.381 . S
C192 C198 1.383 . S
C193 C189 1.495 . S
C193 H199 0.959 . S
C193 H200 0.961 . S
C193 H201 0.960 . S
C194 C192 1.381 . S
C194 C195 1.394 . S
C194 H202 0.930 . S
C195 C194 1.394 . S
C195 C196 1.383 . S
C195 H203 0.929 . S
C196 C195 1.383 . S
C196 C197 1.377 . S
C197 H181 0.930 . S
C197 C196 1.377 . S
C197 C198 1.379 . S
C198 H182 0.931 . S
C198 C192 1.383 . S
C198 C197 1.379 . S
H199 C193 0.959 . S
H200 C193 0.961 . S
H201 C193 0.960 . S
H202 C194 0.930 . S
H203 C195 0.929 . S
H204 C212 0.929 . S
H205 C214 0.930 . S
H206 C216 0.930 . S
H207 C219 0.929 . S
H208 C222 0.930 . S
H209 C224 0.960 . S
H210 C224 0.960 . S
H211 C224 0.960 . S
C212 H204 0.929 . S
C212 C213 1.377 . S
C212 C214 1.384 . S
C213 C212 1.377 . S
C213 C219 1.390 . S
C214 H205 0.930 . S
C214 C212 1.384 . S
C214 C215 1.372 . S
C215 C214 1.372 . S
C215 C216 1.400 . S
C215 C220 1.490 . S
C216 H206 0.930 . S
C216 C215 1.400 . S
C216 C219 1.386 . S
H217 C233 0.930 . S
H218 C234 0.931 . S
C219 H207 0.929 . S
C219 C213 1.390 . S
C219 C216 1.386 . S
C220 C215 1.490 . S
C220 C222 1.395 . S
C220 C223 1.403 . S
H221 C227 0.930 . S
C222 H208 0.930 . S
C222 C220 1.395 . S
C222 C225 1.403 . S
C223 C220 1.403 . S
C223 C224 1.524 . S
C223 C227 1.400 . S
C224 H209 0.960 . S
C224 H210 0.960 . S
C224 H211 0.960 . S
C224 C223 1.524 . S
C225 C222 1.403 . S
C225 C226 1.392 . S
C225 C229 1.495 . S
C226 C225 1.392 . S
C226 C227 1.385 . S
C226 C228 1.478 . S
C227 H221 0.930 . S
C227 C223 1.400 . S
C227 C226 1.385 . S
C228 C226 1.478 . S
C228 C230 1.381 . S
C228 C234 1.383 . S
C229 C225 1.495 . S
C229 H235 0.959 . S
C229 H236 0.961 . S
C229 H237 0.960 . S
C230 C228 1.381 . S
C230 C231 1.394 . S
C230 H238 0.930 . S
C231 C230 1.394 . S
C231 C232 1.383 . S
C231 H239 0.929 . S
C232 C231 1.383 . S
C232 C233 1.377 . S
C233 H217 0.930 . S
C233 C232 1.377 . S
C233 C234 1.379 . S
C234 H218 0.931 . S
C234 C228 1.383 . S
C234 C233 1.379 . S
H235 C229 0.959 . S
H236 C229 0.961 . S
H237 C229 0.960 . S
H238 C230 0.930 . S
H239 C231 0.929 . S
H240 C248 0.929 . S
H241 C250 0.930 . S
H242 C252 0.930 . S
H243 C255 0.929 . S
H244 C258 0.930 . S
H245 C260 0.960 . S
H246 C260 0.960 . S
H247 C260 0.960 . S
C248 H240 0.929 . S
C248 C249 1.377 . S
C248 C250 1.384 . S
C249 C248 1.377 . S
C249 C255 1.390 . S
C250 H241 0.930 . S
C250 C248 1.384 . S
C250 C251 1.372 . S
C251 C250 1.372 . S
C251 C252 1.400 . S
C251 C256 1.490 . S
C252 H242 0.930 . S
C252 C251 1.400 . S
C252 C255 1.386 . S
H253 C269 0.930 . S
H254 C270 0.931 . S
C255 H243 0.929 . S
C255 C249 1.390 . S
C255 C252 1.386 . S
C256 C251 1.490 . S
C256 C258 1.395 . S
C256 C259 1.403 . S
H257 C263 0.930 . S
C258 H244 0.930 . S
C258 C256 1.395 . S
C258 C261 1.403 . S
C259 C256 1.403 . S
C259 C260 1.524 . S
C259 C263 1.400 . S
C260 H245 0.960 . S
C260 H246 0.960 . S
C260 H247 0.960 . S
C260 C259 1.524 . S
C261 C258 1.403 . S
C261 C262 1.392 . S
C261 C265 1.495 . S
C262 C261 1.392 . S
C262 C263 1.385 . S
C262 C264 1.478 . S
C263 H257 0.930 . S
C263 C259 1.400 . S
C263 C262 1.385 . S
C264 C262 1.478 . S
C264 C266 1.381 . S
C264 C270 1.383 . S
C265 C261 1.495 . S
C265 H271 0.959 . S
C265 H272 0.961 . S
C265 H273 0.960 . S
C266 C264 1.381 . S
C266 C267 1.394 . S
C266 H274 0.930 . S
C267 C266 1.394 . S
C267 C268 1.383 . S
C267 H275 0.929 . S
C268 C267 1.383 . S
C268 C269 1.377 . S
C269 H253 0.930 . S
C269 C268 1.377 . S
C269 C270 1.379 . S
C270 H254 0.931 . S
C270 C264 1.383 . S
C270 C269 1.379 . S
H271 C265 0.959 . S
H272 C265 0.961 . S
H273 C265 0.960 . S
H274 C266 0.930 . S
H275 C267 0.929 . S
H276 C284 0.929 . S
H277 C286 0.930 . S
H278 C288 0.930 . S
H279 C291 0.929 . S
H280 C294 0.930 . S
H281 C296 0.960 . S
H282 C296 0.960 . S
H283 C296 0.960 . S
C284 H276 0.929 . S
C284 C285 1.377 . S
C284 C286 1.384 . S
C285 C284 1.377 . S
C285 C291 1.390 . S
C286 H277 0.930 . S
C286 C284 1.384 . S
C286 C287 1.372 . S
C287 C286 1.372 . S
C287 C288 1.400 . S
C287 C292 1.490 . S
C288 H278 0.930 . S
C288 C287 1.400 . S
C288 C291 1.386 . S
H289 C305 0.930 . S
H290 C306 0.931 . S
C291 H279 0.929 . S
C291 C285 1.390 . S
C291 C288 1.386 . S
C292 C287 1.490 . S
C292 C294 1.395 . S
C292 C295 1.403 . S
H293 C299 0.930 . S
C294 H280 0.930 . S
C294 C292 1.395 . S
C294 C297 1.403 . S
C295 C292 1.403 . S
C295 C296 1.524 . S
C295 C299 1.400 . S
C296 H281 0.960 . S
C296 H282 0.960 . S
C296 H283 0.960 . S
C296 C295 1.524 . S
C297 C294 1.403 . S
C297 C298 1.392 . S
C297 C301 1.495 . S
C298 C297 1.392 . S
C298 C299 1.385 . S
C298 C300 1.478 . S
C299 H293 0.930 . S
C299 C295 1.400 . S
C299 C298 1.385 . S
C300 C298 1.478 . S
C300 C302 1.381 . S
C300 C306 1.383 . S
C301 C297 1.495 . S
C301 H307 0.959 . S
C301 H308 0.961 . S
C301 H309 0.960 . S
C302 C300 1.381 . S
C302 C303 1.394 . S
C302 H310 0.930 . S
C303 C302 1.394 . S
C303 C304 1.383 . S
C303 H311 0.929 . S
C304 C303 1.383 . S
C304 C305 1.377 . S
C305 H289 0.930 . S
C305 C304 1.377 . S
C305 C306 1.379 . S
C306 H290 0.931 . S
C306 C300 1.383 . S
C306 C305 1.379 . S
H307 C301 0.959 . S
H308 C301 0.961 . S
H309 C301 0.960 . S
H310 C302 0.930 . S
H311 C303 0.929 . S
H312 C320 0.929 . S
H313 C322 0.930 . S
H314 C324 0.930 . S
H315 C327 0.929 . S
H316 C330 0.930 . S
H317 C332 0.960 . S
H318 C332 0.960 . S
H319 C332 0.960 . S
C320 H312 0.929 . S
C320 C321 1.377 . S
C320 C322 1.384 1_554 S
C321 C320 1.377 . S
C321 C327 1.390 1_554 S
C322 H313 0.930 . S
C322 C320 1.384 1_556 S
C322 C323 1.372 . S
C323 C322 1.372 . S
C323 C324 1.400 . S
C323 C328 1.490 . S
C324 H314 0.930 . S
C324 C323 1.400 . S
C324 C327 1.386 . S
H325 C341 0.930 . S
H326 C342 0.931 . S
C327 H315 0.929 . S
C327 C321 1.390 1_556 S
C327 C324 1.386 . S
C328 C323 1.490 . S
C328 C330 1.395 . S
C328 C331 1.403 . S
H329 C335 0.930 . S
C330 H316 0.930 . S
C330 C328 1.395 . S
C330 C333 1.403 . S
C331 C328 1.403 . S
C331 C332 1.524 . S
C331 C335 1.400 . S
C332 H317 0.960 . S
C332 H318 0.960 . S
C332 H319 0.960 . S
C332 C331 1.524 . S
C333 C330 1.403 . S
C333 C334 1.392 . S
C333 C337 1.495 . S
C334 C333 1.392 . S
C334 C335 1.385 . S
C334 C336 1.478 . S
C335 H329 0.930 . S
C335 C331 1.400 . S
C335 C334 1.385 . S
C336 C334 1.478 . S
C336 C338 1.381 . S
C336 C342 1.383 . S
C337 C333 1.495 . S
C337 H343 0.959 . S
C337 H344 0.961 . S
C337 H345 0.960 . S
C338 C336 1.381 . S
C338 C339 1.394 . S
C338 H346 0.930 . S
C339 C338 1.394 . S
C339 C340 1.383 . S
C339 H347 0.929 . S
C340 C339 1.383 . S
C340 C341 1.377 . S
C341 H325 0.930 . S
C341 C340 1.377 . S
C341 C342 1.379 . S
C342 H326 0.931 . S
C342 C336 1.383 . S
C342 C341 1.379 . S
H343 C337 0.959 . S
H344 C337 0.961 . S
H345 C337 0.960 . S
H346 C338 0.930 . S
H347 C339 0.929 . S
H348 C356 0.929 . S
H349 C358 0.930 . S
H350 C360 0.930 . S
H351 C363 0.929 . S
H352 C366 0.930 . S
H353 C368 0.960 . S
H354 C368 0.960 . S
H355 C368 0.960 . S
C356 H348 0.929 . S
C356 C357 1.377 . S
C356 C358 1.384 . S
C357 C356 1.377 . S
C357 C363 1.390 . S
C358 H349 0.930 . S
C358 C356 1.384 . S
C358 C359 1.372 . S
C359 C358 1.372 . S
C359 C360 1.400 . S
C359 C364 1.490 . S
C360 H350 0.930 . S
C360 C359 1.400 . S
C360 C363 1.386 . S
H361 C377 0.930 . S
H362 C378 0.931 . S
C363 H351 0.929 . S
C363 C357 1.390 . S
C363 C360 1.386 . S
C364 C359 1.490 . S
C364 C366 1.395 . S
C364 C367 1.403 . S
H365 C371 0.930 . S
C366 H352 0.930 . S
C366 C364 1.395 . S
C366 C369 1.403 . S
C367 C364 1.403 . S
C367 C368 1.524 . S
C367 C371 1.400 . S
C368 H353 0.960 . S
C368 H354 0.960 . S
C368 H355 0.960 . S
C368 C367 1.524 . S
C369 C366 1.403 . S
C369 C370 1.392 . S
C369 C373 1.495 . S
C370 C369 1.392 . S
C370 C371 1.385 . S
C370 C372 1.478 . S
C371 H365 0.930 . S
C371 C367 1.400 . S
C371 C370 1.385 . S
C372 C370 1.478 . S
C372 C374 1.381 . S
C372 C378 1.383 . S
C373 C369 1.495 . S
C373 H379 0.959 . S
C373 H380 0.961 . S
C373 H381 0.960 . S
C374 C372 1.381 . S
C374 C375 1.394 . S
C374 H382 0.930 . S
C375 C374 1.394 . S
C375 C376 1.383 . S
C375 H383 0.929 . S
C376 C375 1.383 . S
C376 C377 1.377 . S
C377 H361 0.930 . S
C377 C376 1.377 . S
C377 C378 1.379 . S
C378 H362 0.931 . S
C378 C372 1.383 . S
C378 C377 1.379 . S
H379 C373 0.959 . S
H380 C373 0.961 . S
H381 C373 0.960 . S
H382 C374 0.930 . S
H383 C375 0.929 . S
H384 C392 0.929 1_554 S
H385 C394 0.930 . S
H386 C396 0.930 . S
H387 C399 0.929 . S
H388 C402 0.930 . S
H389 C404 0.960 . S
H390 C404 0.960 . S
H391 C404 0.960 . S
C392 H384 0.929 1_556 S
C392 C393 1.377 1_556 S
C392 C394 1.384 . S
C393 C392 1.377 1_554 S
C393 C399 1.390 . S
C394 H385 0.930 . S
C394 C392 1.384 . S
C394 C395 1.372 . S
C395 C394 1.372 . S
C395 C396 1.400 . S
C395 C400 1.490 . S
C396 H386 0.930 . S
C396 C395 1.400 . S
C396 C399 1.386 1_556 S
H397 C413 0.930 . S
H398 C414 0.931 . S
C399 H387 0.929 . S
C399 C393 1.390 . S
C399 C396 1.386 1_554 S
C400 C395 1.490 . S
C400 C402 1.395 . S
C400 C403 1.403 . S
H401 C407 0.930 . S
C402 H388 0.930 . S
C402 C400 1.395 . S
C402 C405 1.403 . S
C403 C400 1.403 . S
C403 C404 1.524 . S
C403 C407 1.400 . S
C404 H389 0.960 . S
C404 H390 0.960 . S
C404 H391 0.960 . S
C404 C403 1.524 . S
C405 C402 1.403 . S
C405 C406 1.392 . S
C405 C409 1.495 . S
C406 C405 1.392 . S
C406 C407 1.385 . S
C406 C408 1.478 . S
C407 H401 0.930 . S
C407 C403 1.400 . S
C407 C406 1.385 . S
C408 C406 1.478 . S
C408 C410 1.381 . S
C408 C414 1.383 . S
C409 C405 1.495 . S
C409 H415 0.959 . S
C409 H416 0.961 . S
C409 H417 0.960 . S
C410 C408 1.381 . S
C410 C411 1.394 . S
C410 H418 0.930 . S
C411 C410 1.394 . S
C411 C412 1.383 . S
C411 H419 0.929 . S
C412 C411 1.383 . S
C412 C413 1.377 . S
C413 H397 0.930 . S
C413 C412 1.377 . S
C413 C414 1.379 . S
C414 H398 0.931 . S
C414 C408 1.383 . S
C414 C413 1.379 . S
H415 C409 0.959 . S
H416 C409 0.961 . S
H417 C409 0.960 . S
H418 C410 0.930 . S
H419 C411 0.929 . S
H420 C428 0.929 . S
H421 C430 0.930 . S
H422 C432 0.930 . S
H423 C435 0.929 . S
H424 C438 0.930 . S
H425 C440 0.960 . S
H426 C440 0.960 . S
H427 C440 0.960 . S
C428 H420 0.929 . S
C428 C429 1.377 . S
C428 C430 1.384 . S
C429 C428 1.377 . S
C429 C435 1.390 . S
C430 H421 0.930 . S
C430 C428 1.384 . S
C430 C431 1.372 . S
C431 C430 1.372 . S
C431 C432 1.400 . S
C431 C436 1.490 . S
C432 H422 0.930 . S
C432 C431 1.400 . S
C432 C435 1.386 . S
H433 C449 0.930 . S
H434 C450 0.931 . S
C435 H423 0.929 . S
C435 C429 1.390 . S
C435 C432 1.386 . S
C436 C431 1.490 . S
C436 C438 1.395 . S
C436 C439 1.403 . S
H437 C443 0.930 . S
C438 H424 0.930 . S
C438 C436 1.395 . S
C438 C441 1.403 . S
C439 C436 1.403 . S
C439 C440 1.524 . S
C439 C443 1.400 . S
C440 H425 0.960 . S
C440 H426 0.960 . S
C440 H427 0.960 . S
C440 C439 1.524 . S
C441 C438 1.403 . S
C441 C442 1.392 . S
C441 C445 1.495 . S
C442 C441 1.392 . S
C442 C443 1.385 . S
C442 C444 1.478 . S
C443 H437 0.930 . S
C443 C439 1.400 . S
C443 C442 1.385 . S
C444 C442 1.478 . S
C444 C446 1.381 . S
C444 C450 1.383 . S
C445 C441 1.495 . S
C445 H451 0.959 . S
C445 H452 0.961 . S
C445 H453 0.960 . S
C446 C444 1.381 . S
C446 C447 1.394 . S
C446 H454 0.930 . S
C447 C446 1.394 . S
C447 C448 1.383 . S
C447 H455 0.929 . S
C448 C447 1.383 . S
C448 C449 1.377 . S
C449 H433 0.930 . S
C449 C448 1.377 . S
C449 C450 1.379 . S
C450 H434 0.931 . S
C450 C444 1.383 . S
C450 C449 1.379 . S
H451 C445 0.959 . S
H452 C445 0.961 . S
H453 C445 0.960 . S
H454 C446 0.930 . S
H455 C447 0.929 . S
H456 C464 0.929 . S
H457 C466 0.930 . S
H458 C468 0.930 . S
H459 C471 0.929 . S
H460 C474 0.930 1_554 S
H461 C476 0.960 . S
H462 C476 0.960 . S
H463 C476 0.960 . S
C464 H456 0.929 . S
C464 C465 1.377 . S
C464 C466 1.384 . S
C465 C464 1.377 . S
C465 C471 1.390 . S
C466 H457 0.930 . S
C466 C464 1.384 . S
C466 C467 1.372 1_554 S
C467 C466 1.372 1_556 S
C467 C468 1.400 . S
C467 C472 1.490 . S
C468 H458 0.930 . S
C468 C467 1.400 . S
C468 C471 1.386 1_556 S
H469 C485 0.930 . S
H470 C486 0.931 . S
C471 H459 0.929 . S
C471 C465 1.390 . S
C471 C468 1.386 1_554 S
C472 C467 1.490 . S
C472 C474 1.395 . S
C472 C475 1.403 . S
H473 C479 0.930 . S
C474 H460 0.930 1_556 S
C474 C472 1.395 . S
C474 C477 1.403 . S
C475 C472 1.403 . S
C475 C476 1.524 . S
C475 C479 1.400 . S
C476 H461 0.960 . S
C476 H462 0.960 . S
C476 H463 0.960 . S
C476 C475 1.524 . S
C477 C474 1.403 . S
C477 C478 1.392 . S
C477 C481 1.495 . S
C478 C477 1.392 . S
C478 C479 1.385 . S
C478 C480 1.478 . S
C479 H473 0.930 . S
C479 C475 1.400 . S
C479 C478 1.385 . S
C480 C478 1.478 . S
C480 C482 1.381 . S
C480 C486 1.383 . S
C481 C477 1.495 . S
C481 H487 0.959 1_556 S
C481 H488 0.961 . S
C481 H489 0.960 . S
C482 C480 1.381 . S
C482 C483 1.394 . S
C482 H490 0.930 . S
C483 C482 1.394 . S
C483 C484 1.383 . S
C483 H491 0.929 . S
C484 C483 1.383 . S
C484 C485 1.377 . S
C485 H469 0.930 . S
C485 C484 1.377 . S
C485 C486 1.379 . S
C486 H470 0.931 . S
C486 C480 1.383 . S
C486 C485 1.379 . S
H487 C481 0.959 1_554 S
H488 C481 0.961 . S
H489 C481 0.960 . S
H490 C482 0.930 . S
H491 C483 0.929 . S
H492 C500 0.929 . S
H493 C502 0.930 . S
H494 C504 0.930 . S
H495 C507 0.929 . S
H496 C510 0.930 . S
H497 C512 0.960 . S
H498 C512 0.960 . S
H499 C512 0.960 . S
C500 H492 0.929 . S
C500 C501 1.377 . S
C500 C502 1.384 . S
C501 C500 1.377 . S
C501 C507 1.390 . S
C502 H493 0.930 . S
C502 C500 1.384 . S
C502 C503 1.372 . S
C503 C502 1.372 . S
C503 C504 1.400 . S
C503 C508 1.490 . S
C504 H494 0.930 . S
C504 C503 1.400 . S
C504 C507 1.386 . S
H505 C521 0.930 . S
H506 C522 0.931 . S
C507 H495 0.929 . S
C507 C501 1.390 . S
C507 C504 1.386 . S
C508 C503 1.490 . S
C508 C510 1.395 . S
C508 C511 1.403 . S
H509 C515 0.930 . S
C510 H496 0.930 . S
C510 C508 1.395 . S
C510 C513 1.403 . S
C511 C508 1.403 . S
C511 C512 1.524 . S
C511 C515 1.400 . S
C512 H497 0.960 . S
C512 H498 0.960 . S
C512 H499 0.960 . S
C512 C511 1.524 . S
C513 C510 1.403 . S
C513 C514 1.392 . S
C513 C517 1.495 . S
C514 C513 1.392 . S
C514 C515 1.385 . S
C514 C516 1.478 . S
C515 H509 0.930 . S
C515 C511 1.400 . S
C515 C514 1.385 . S
C516 C514 1.478 . S
C516 C518 1.381 . S
C516 C522 1.383 . S
C517 C513 1.495 . S
C517 H523 0.959 . S
C517 H524 0.961 . S
C517 H525 0.960 . S
C518 C516 1.381 . S
C518 C519 1.394 . S
C518 H526 0.930 . S
C519 C518 1.394 . S
C519 C520 1.383 . S
C519 H527 0.929 . S
C520 C519 1.383 . S
C520 C521 1.377 . S
C521 H505 0.930 . S
C521 C520 1.377 . S
C521 C522 1.379 . S
C522 H506 0.931 . S
C522 C516 1.383 . S
C522 C521 1.379 . S
H523 C517 0.959 . S
H524 C517 0.961 . S
H525 C517 0.960 . S
H526 C518 0.930 . S
H527 C519 0.929 . S
C105 C7 1.361 . S
C124 C80 1.391 . S
C160 C74 1.655 . S
C141 C30 1.615 . S
C196 C48 1.425 . S
C177 C9 1.412 . S
C232 C94 2.028 . S
C213 C29 2.067 . S
C268 C89 0.148 . S
C249 C8 0.394 . S
C285 C31 1.977 . S
C304 C70 1.923 . S
C321 C5 1.971 . S
C340 C76 1.944 . S
C357 C26 0.423 . S
C376 C83 0.232 . S
C393 C6 2.071 . S
C412 C92 1.988 . S
C429 C27 1.419 . S
C448 C62 1.430 . S
C484 C78 1.666 . S
C465 C4 1.621 . S
C501 C28 1.366 . S
C520 C86 1.369 . S
