# Generated by pormake.
# Topology myd, (4,6)-cn, num edge types: 1
# Building blocks:
#     Node 0, Type 0, BuildingBlock: KOZSID_clean_sbu_0, # of connection points: 4
#     Node 1, Type 0, BuildingBlock: KOZSID_clean_sbu_0, # of connection points: 4
#     Node 2, Type 0, BuildingBlock: KOZSID_clean_sbu_0, # of connection points: 4
#     Node 3, Type 0, BuildingBlock: KOZSID_clean_sbu_0, # of connection points: 4
#     Node 4, Type 0, BuildingBlock: KOZSID_clean_sbu_0, # of connection points: 4
#     Node 5, Type 0, BuildingBlock: KOZSID_clean_sbu_0, # of connection points: 4
#     Node 6, Type 0, BuildingBlock: KOZSID_clean_sbu_0, # of connection points: 4
#     Node 7, Type 0, BuildingBlock: KOZSID_clean_sbu_0, # of connection points: 4
#     Node 8, Type 0, BuildingBlock: KOZSID_clean_sbu_0, # of connection points: 4
#     Node 9, Type 0, BuildingBlock: KOZSID_clean_sbu_0, # of connection points: 4
#     Node 10, Type 0, BuildingBlock: KOZSID_clean_sbu_0, # of connection points: 4
#     Node 11, Type 0, BuildingBlock: KOZSID_clean_sbu_0, # of connection points: 4
#     Node 12, Type 1, BuildingBlock: VOLQOD_clean_sbu_1, # of connection points: 6
#     Node 13, Type 1, BuildingBlock: VOLQOD_clean_sbu_1, # of connection points: 6
#     Node 14, Type 1, BuildingBlock: VOLQOD_clean_sbu_1, # of connection points: 6
#     Node 15, Type 1, BuildingBlock: VOLQOD_clean_sbu_1, # of connection points: 6
#     Node 16, Type 1, BuildingBlock: VOLQOD_clean_sbu_1, # of connection points: 6
#     Node 17, Type 1, BuildingBlock: VOLQOD_clean_sbu_1, # of connection points: 6
#     Node 18, Type 1, BuildingBlock: VOLQOD_clean_sbu_1, # of connection points: 6
#     Node 19, Type 1, BuildingBlock: VOLQOD_clean_sbu_1, # of connection points: 6
#     Edge 20, Type (0, 1), BuildingBlock: UVAHIK_clean_linker_0, # of connection points: 2
#     Edge 21, Type (0, 1), BuildingBlock: UVAHIK_clean_linker_0, # of connection points: 2
#     Edge 22, Type (0, 1), BuildingBlock: UVAHIK_clean_linker_0, # of connection points: 2
#     Edge 23, Type (0, 1), BuildingBlock: UVAHIK_clean_linker_0, # of connection points: 2
#     Edge 24, Type (0, 1), BuildingBlock: UVAHIK_clean_linker_0, # of connection points: 2
#     Edge 25, Type (0, 1), BuildingBlock: UVAHIK_clean_linker_0, # of connection points: 2
#     Edge 26, Type (0, 1), BuildingBlock: UVAHIK_clean_linker_0, # of connection points: 2
#     Edge 27, Type (0, 1), BuildingBlock: UVAHIK_clean_linker_0, # of connection points: 2
#     Edge 28, Type (0, 1), BuildingBlock: UVAHIK_clean_linker_0, # of connection points: 2
#     Edge 29, Type (0, 1), BuildingBlock: UVAHIK_clean_linker_0, # of connection points: 2
#     Edge 30, Type (0, 1), BuildingBlock: UVAHIK_clean_linker_0, # of connection points: 2
#     Edge 31, Type (0, 1), BuildingBlock: UVAHIK_clean_linker_0, # of connection points: 2
#     Edge 32, Type (0, 1), BuildingBlock: UVAHIK_clean_linker_0, # of connection points: 2
#     Edge 33, Type (0, 1), BuildingBlock: UVAHIK_clean_linker_0, # of connection points: 2
#     Edge 34, Type (0, 1), BuildingBlock: UVAHIK_clean_linker_0, # of connection points: 2
#     Edge 35, Type (0, 1), BuildingBlock: UVAHIK_clean_linker_0, # of connection points: 2
#     Edge 36, Type (0, 1), BuildingBlock: UVAHIK_clean_linker_0, # of connection points: 2
#     Edge 37, Type (0, 1), BuildingBlock: UVAHIK_clean_linker_0, # of connection points: 2
#     Edge 38, Type (0, 1), BuildingBlock: UVAHIK_clean_linker_0, # of connection points: 2
#     Edge 39, Type (0, 1), BuildingBlock: UVAHIK_clean_linker_0, # of connection points: 2
#     Edge 40, Type (0, 1), BuildingBlock: UVAHIK_clean_linker_0, # of connection points: 2
#     Edge 41, Type (0, 1), BuildingBlock: UVAHIK_clean_linker_0, # of connection points: 2
#     Edge 42, Type (0, 1), BuildingBlock: UVAHIK_clean_linker_0, # of connection points: 2
#     Edge 43, Type (0, 1), BuildingBlock: UVAHIK_clean_linker_0, # of connection points: 2
#     Edge 44, Type (0, 1), BuildingBlock: UVAHIK_clean_linker_0, # of connection points: 2
#     Edge 45, Type (0, 1), BuildingBlock: UVAHIK_clean_linker_0, # of connection points: 2
#     Edge 46, Type (0, 1), BuildingBlock: UVAHIK_clean_linker_0, # of connection points: 2
#     Edge 47, Type (0, 1), BuildingBlock: UVAHIK_clean_linker_0, # of connection points: 2
#     Edge 48, Type (0, 1), BuildingBlock: UVAHIK_clean_linker_0, # of connection points: 2
#     Edge 49, Type (0, 1), BuildingBlock: UVAHIK_clean_linker_0, # of connection points: 2
#     Edge 50, Type (0, 1), BuildingBlock: UVAHIK_clean_linker_0, # of connection points: 2
#     Edge 51, Type (0, 1), BuildingBlock: UVAHIK_clean_linker_0, # of connection points: 2
#     Edge 52, Type (0, 1), BuildingBlock: UVAHIK_clean_linker_0, # of connection points: 2
#     Edge 53, Type (0, 1), BuildingBlock: UVAHIK_clean_linker_0, # of connection points: 2
#     Edge 54, Type (0, 1), BuildingBlock: UVAHIK_clean_linker_0, # of connection points: 2
#     Edge 55, Type (0, 1), BuildingBlock: UVAHIK_clean_linker_0, # of connection points: 2
#     Edge 56, Type (0, 1), BuildingBlock: UVAHIK_clean_linker_0, # of connection points: 2
#     Edge 57, Type (0, 1), BuildingBlock: UVAHIK_clean_linker_0, # of connection points: 2
#     Edge 58, Type (0, 1), BuildingBlock: UVAHIK_clean_linker_0, # of connection points: 2
#     Edge 59, Type (0, 1), BuildingBlock: UVAHIK_clean_linker_0, # of connection points: 2
#     Edge 60, Type (0, 1), BuildingBlock: UVAHIK_clean_linker_0, # of connection points: 2
#     Edge 61, Type (0, 1), BuildingBlock: UVAHIK_clean_linker_0, # of connection points: 2
#     Edge 62, Type (0, 1), BuildingBlock: UVAHIK_clean_linker_0, # of connection points: 2
#     Edge 63, Type (0, 1), BuildingBlock: UVAHIK_clean_linker_0, # of connection points: 2
#     Edge 64, Type (0, 1), BuildingBlock: UVAHIK_clean_linker_0, # of connection points: 2
#     Edge 65, Type (0, 1), BuildingBlock: UVAHIK_clean_linker_0, # of connection points: 2
#     Edge 66, Type (0, 1), BuildingBlock: UVAHIK_clean_linker_0, # of connection points: 2
#     Edge 67, Type (0, 1), BuildingBlock: UVAHIK_clean_linker_0, # of connection points: 2
# Relax obj value: 0.173
# Max RMSD: 0.165
# Mean RMSD: 0.128
data_MOF--net-myd--node1-KOZSID_clean_sbu_0--node2-VOLQOD_clean_sbu_1--edge1-UVAHIK_clean_linker_0
_symmetry_space_group_name_H-M    P1
_symmetry_Int_Tables_number       1
_symmetry_cell_setting            triclinic
loop_
_symmetry_equiv_pos_as_xyz
'x, y, z'
_cell_length_a     65.122513
_cell_length_b     65.261039
_cell_length_c     65.281505
_cell_angle_alpha  92.383563
_cell_angle_beta   90.323199
_cell_angle_gamma 92.715523
loop_
_atom_site_label
_atom_site_type_symbol
_atom_site_fract_x
_atom_site_fract_y
_atom_site_fract_z
_atom_type_partial_charge
C0 C 0.97543 0.27142 0.34706 0.0
C1 C 0.95549 0.27461 0.35334 0.0
C2 C 0.94322 0.25971 0.34349 0.0
C3 C 0.95635 0.24831 0.33185 0.0
N4 N 0.9763 0.25484 0.33397 0.0
Co5 Co 0.00051 0.24364 0.31924 0.0
N6 N 0.98218 0.22475 0.30135 0.0
C7 C 0.96143 0.22238 0.30217 0.0
C8 C 0.95312 0.20873 0.28752 0.0
C9 C 0.9695 0.20211 0.27656 0.0
C10 C 0.98692 0.21216 0.28522 0.0
N11 N 0.02476 0.23233 0.30465 0.0
C12 C 0.02547 0.21865 0.2885 0.0
C13 C 0.04558 0.21503 0.28296 0.0
C14 C 0.058 0.22684 0.29608 0.0
C15 C 0.04486 0.23699 0.30879 0.0
N16 N 0.01875 0.26293 0.33676 0.0
C17 C 0.03954 0.26447 0.33688 0.0
C18 C 0.04766 0.28006 0.34959 0.0
C19 C 0.03106 0.28936 0.35772 0.0
C20 C 0.01373 0.27877 0.34952 0.0
N21 N 0.00229 0.22188 0.3397 0.0
C22 C 0.00626 0.18695 0.36336 0.0
C23 C 0.02276 0.20115 0.36112 0.0
C24 C 0.02047 0.21831 0.34933 0.0
C25 C 0.98736 0.19143 0.35482 0.0
C26 C 0.98569 0.20892 0.34348 0.0
N27 N -0.00125 0.26496 0.29874 0.0
C28 C 0.01508 0.28935 0.27638 0.0
C29 C 0.99621 0.29255 0.26706 0.0
C30 C 0.97859 0.28244 0.2744 0.0
C31 C 0.98015 0.26899 0.29029 0.0
C32 C 0.01602 0.27543 0.29206 0.0
H33 H 0.96616 0.26176 0.29529 0.0
H34 H 0.03086 0.27306 0.29833 0.0
H35 H 0.03381 0.22813 0.34794 0.0
H36 H 0.97087 0.21117 0.33748 0.0
C37 C 0.95018 0.23346 0.3167 0.0
C38 C 0.99287 0.28519 0.35299 0.0
C39 C 0.00761 0.2092 0.2776 0.0
C40 C 0.0509 0.25206 0.32371 0.0
H41 H 0.95034 0.28687 0.36345 0.0
H42 H 0.92661 0.25806 0.34393 0.0
H43 H 0.93706 0.20426 0.28499 0.0
H44 H 0.96874 0.19118 0.26362 0.0
H45 H 0.05075 0.20512 0.27053 0.0
H46 H 0.07463 0.22826 0.29601 0.0
H47 H 0.06372 0.28465 0.35198 0.0
H48 H 0.0317 0.30283 0.36798 0.0
H49 H 0.03759 0.1989 0.36805 0.0
H50 H 0.97397 0.18109 0.35605 0.0
H51 H 0.02909 0.29699 0.27113 0.0
H52 H 0.96362 0.28481 0.26781 0.0
C53 C 0.00537 0.71626 0.13106 0.0
C54 C 0.98703 0.71003 0.1213 0.0
C55 C 0.9727 0.72322 0.12823 0.0
C56 C 0.98312 0.73658 0.14183 0.0
N57 N 0.00334 0.73307 0.14355 0.0
Co58 Co 0.02387 0.74704 0.16306 0.0
N59 N 0.00227 0.7642 0.17582 0.0
C60 C 0.98262 0.76545 0.1693 0.0
C61 C 0.97164 0.77912 0.18077 0.0
C62 C 0.98508 0.7871 0.19546 0.0
C63 C 0.00353 0.77771 0.19213 0.0
N64 N 0.04421 0.76011 0.18335 0.0
C65 C 0.04128 0.77331 0.1995 0.0
C66 C 0.05937 0.77773 0.21052 0.0
C67 C 0.07428 0.76701 0.20091 0.0
C68 C 0.06447 0.75656 0.18475 0.0
N69 N 0.04559 0.73056 0.14968 0.0
C70 C 0.06605 0.7322 0.15332 0.0
C71 C 0.07689 0.71833 0.14191 0.0
C72 C 0.0624 0.70694 0.1306 0.0
C73 C 0.04356 0.71461 0.13584 0.0
N74 N 0.02987 0.76928 0.14364 0.0
C75 C 0.03617 0.80543 0.122 0.0
C76 C 0.05215 0.79757 0.1331 0.0
C77 C 0.04877 0.77949 0.14351 0.0
C78 C 0.01756 0.794 0.12041 0.0
C79 C 0.0148 0.77606 0.13117 0.0
N80 N 0.01783 0.72517 0.18251 0.0
C81 C 0.02933 0.69962 0.20517 0.0
C82 C 0.00936 0.6963 0.21243 0.0
C83 C 0.99361 0.70705 0.20391 0.0
C84 C 0.99812 0.72115 0.18891 0.0
C85 C 0.03324 0.71416 0.19037 0.0
H86 H 0.98546 0.72887 0.18287 0.0
H87 H 0.04886 0.71654 0.18574 0.0
H88 H 0.06157 0.77451 0.15177 0.0
H89 H 9e-05 0.76846 0.12957 0.0
C90 C 0.97436 0.75209 0.15377 0.0
C91 C 0.024 0.705 0.12911 0.0
C92 C 0.02173 0.78202 0.20493 0.0
C93 C 0.07397 0.74401 0.17013 0.0
H94 H 0.98427 0.69696 0.11071 0.0
H95 H 0.9565 0.72273 0.12434 0.0
H96 H 0.95563 0.78248 0.17899 0.0
H97 H 0.98164 0.79839 0.20741 0.0
H98 H 0.06159 0.78772 0.22408 0.0
H99 H 0.09037 0.76689 0.20515 0.0
H100 H 0.09318 0.71583 0.14276 0.0
H101 H 0.06523 0.69387 0.12044 0.0
H102 H 0.06708 0.80562 0.13421 0.0
H103 H 0.00477 0.79939 0.11178 0.0
H104 H 0.04197 0.69158 0.21141 0.0
H105 H 0.97787 0.70466 0.20888 0.0
C106 C 0.35971 0.97447 0.2777 0.0
C107 C 0.36432 0.95444 0.28146 0.0
C108 C 0.35336 0.94215 0.26745 0.0
C109 C 0.3428 0.95537 0.25596 0.0
N110 N 0.3467 0.97535 0.26157 0.0
Co111 Co 0.33427 -0.00024 0.24971 0.0
N112 N 0.31434 0.98175 0.2327 0.0
C113 C 0.3126 0.96098 0.23208 0.0
C114 C 0.29719 0.95292 0.21935 0.0
C115 C 0.28849 0.96951 0.21144 0.0
C116 C 0.29916 0.98682 0.21982 0.0
N117 N 0.32237 0.02419 0.23727 0.0
C118 C 0.30702 0.02522 0.2233 0.0
C119 C 0.30395 0.04535 0.21838 0.0
C120 C 0.31798 0.05745 0.22949 0.0
C121 C 0.32875 0.0441 0.24055 0.0
N122 N 0.35348 0.01771 0.26755 0.0
C123 C 0.35545 0.03845 0.2682 0.0
C124 C 0.36852 0.04649 0.28332 0.0
C125 C 0.37483 0.02992 0.29332 0.0
C126 C 0.3653 0.01269 0.28356 0.0
N127 N 0.35475 -0.00096 0.22716 0.0
C128 C 0.37932 -0.00025 0.19181 0.0
C129 C 0.37954 0.01659 0.20568 0.0
C130 C 0.36723 0.01592 0.22314 0.0
C131 C 0.36774 0.98211 0.19656 0.0
C132 C 0.35588 0.98201 0.21426 0.0
N133 N 0.31383 0.00046 0.27197 0.0
C134 C 0.29262 0.0194 0.29559 0.0
C135 C 0.28403 0.00112 0.30292 0.0
C136 C 0.29082 0.98257 0.29474 0.0
C137 C 0.30552 0.98258 0.27933 0.0
C138 C 0.30756 0.01873 0.28032 0.0
H139 H 0.30977 0.96792 0.27341 0.0
H140 H 0.31377 0.03312 0.27539 0.0
H141 H 0.36773 0.02946 0.23276 0.0
H142 H 0.34742 0.96807 0.21678 0.0
C143 C 0.32646 0.94948 0.24268 0.0
C144 C 0.36665 0.99201 0.29083 0.0
C145 C 0.29476 0.00768 0.21453 0.0
C146 C 0.34387 0.0499 0.25518 0.0
H147 H 0.37387 0.94927 0.29366 0.0
H148 H 0.35217 0.92554 0.26664 0.0
H149 H 0.29301 0.93688 0.21597 0.0
H150 H 0.2759 0.96893 0.2005 0.0
H151 H 0.29261 0.05078 0.20798 0.0
H152 H 0.31984 0.07402 0.22977 0.0
H153 H 0.37234 0.06252 0.28713 0.0
H154 H 0.38479 0.03051 0.30667 0.0
H155 H 0.38843 0.03058 0.20264 0.0
H156 H 0.36753 0.96851 0.18644 0.0
H157 H 0.28785 0.03412 0.30163 0.0
H158 H 0.28437 0.96803 0.29978 0.0
C159 C 0.64381 0.48292 0.22969 0.0
C160 C 0.63327 0.46493 0.22295 0.0
C161 C 0.64197 0.44938 0.23276 0.0
C162 C 0.65725 0.4588 0.24486 0.0
N163 N 0.6585 0.47945 0.24366 0.0
Co164 Co 0.67889 0.49936 0.25763 0.0
N165 N 0.69446 0.47638 0.26875 0.0
C166 C 0.69001 0.45597 0.2659 0.0
C167 C 0.70357 0.44397 0.2754 0.0
C168 C 0.7175 0.4575 0.28493 0.0
C169 C 0.71158 0.47704 0.28066 0.0
N170 N 0.69906 0.51934 0.27184 0.0
C171 C 0.71549 0.51589 0.28379 0.0
C172 C 0.72537 0.53414 0.29097 0.0
C173 C 0.71464 0.54967 0.28348 0.0
C174 C 0.69892 0.54008 0.27217 0.0
N175 N 0.66355 0.52224 0.24604 0.0
C176 C 0.66748 0.54267 0.24923 0.0
C177 C 0.65507 0.55448 0.23804 0.0
C178 C 0.64282 0.54077 0.22662 0.0
C179 C 0.64849 0.52137 0.23163 0.0
N180 N 0.66152 0.49995 0.28267 0.0
C181 C 0.64221 0.50088 0.32116 0.0
C182 C 0.64642 0.51895 0.311 0.0
C183 C 0.6561 0.51816 0.29194 0.0
C184 C 0.64666 0.4823 0.31133 0.0
C185 C 0.6559 0.48217 0.2921 0.0
N186 N 0.69644 0.49871 0.23291 0.0
C187 C 0.71948 0.51589 0.20951 0.0
C188 C 0.72461 0.4971 0.20023 0.0
C189 C 0.71455 0.47925 0.20706 0.0
C190 C 0.7005 0.48043 0.22308 0.0
C191 C 0.70551 0.51634 0.22571 0.0
H192 H 0.69342 0.46627 0.22756 0.0
H193 H 0.70249 0.53107 0.23242 0.0
H194 H 0.65949 0.53252 0.28536 0.0
H195 H 0.65873 0.46747 0.28549 0.0
C196 C 0.67243 0.44858 0.25501 0.0
C197 C 0.64073 0.50264 0.22092 0.0
C198 C 0.7222 0.49573 0.28894 0.0
C199 C 0.68404 0.55016 0.26146 0.0
H200 H 0.62118 0.46323 0.21147 0.0
H201 H 0.63841 0.43308 0.23043 0.0
H202 H 0.70318 0.42739 0.27566 0.0
H203 H 0.73037 0.45344 0.29425 0.0
H204 H 0.73891 0.53604 0.30068 0.0
H205 H 0.7179 0.566 0.28598 0.0
H206 H 0.65552 0.57105 0.23755 0.0
H207 H 0.63157 0.54459 0.21531 0.0
H208 H 0.64306 0.53371 0.31811 0.0
H209 H 0.64323 0.4679 0.31857 0.0
H210 H 0.72633 0.53025 0.20449 0.0
H211 H 0.71793 0.46424 0.20063 0.0
C212 C 0.2998 0.36833 0.98708 0.0
C213 C 0.30535 0.37512 0.96795 0.0
C214 C 0.29313 0.3641 0.95399 0.0
C215 C 0.28088 0.3513 0.96538 0.0
N216 N 0.28422 0.35385 0.98582 0.0
Co217 Co 0.27112 0.33772 0.00811 0.0
N218 N 0.25656 0.31835 0.98755 0.0
C219 C 0.25711 0.31919 0.96686 0.0
C220 C 0.24561 0.30373 0.95682 0.0
C221 C 0.2372 0.29231 0.97196 0.0
C222 C 0.24413 0.30151 0.99046 0.0
N223 N 0.25798 0.32168 0.03047 0.0
C224 C 0.24519 0.30467 0.02929 0.0
C225 C 0.23953 0.29837 0.04861 0.0
C226 C 0.24896 0.31198 0.06248 0.0
C227 C 0.25983 0.32572 0.05092 0.0
N228 N 0.28603 0.35691 0.02858 0.0
C229 C 0.28459 0.35703 0.04924 0.0
C230 C 0.29788 0.37108 0.05916 0.0
C231 C 0.30887 0.38012 0.04394 0.0
C232 C 0.30151 0.37104 0.02558 0.0
N233 N 0.24709 0.3556 0.00826 0.0
C234 C 0.20917 0.37467 0.00901 0.0
C235 C 0.22067 0.3733 0.02693 0.0
C236 C 0.23946 0.36375 0.02622 0.0
C237 C 0.21755 0.36775 0.99056 0.0
C238 C 0.23652 0.35867 0.9905 0.0
N239 N 0.29475 0.31972 0.00795 0.0
C240 C 0.31944 0.3004 0.02592 0.0
C241 C 0.32644 0.29172 0.00741 0.0
C242 C 0.31769 0.29795 0.9892 0.0
C243 C 0.30219 0.31196 0.98982 0.0
C244 C 0.30367 0.31422 0.02584 0.0
H245 H 0.29616 0.31602 0.97542 0.0
H246 H 0.29873 0.32012 0.04041 0.0
H247 H 0.24714 0.36266 0.04049 0.0
H248 H 0.24193 0.35383 0.97591 0.0
C249 C 0.26844 0.33482 0.95732 0.0
C250 C 0.31087 0.37479 0.00582 0.0
C251 C 0.23806 0.29395 0.01034 0.0
C252 C 0.27231 0.3422 0.05883 0.0
H253 H 0.31756 0.38624 0.96449 0.0
H254 H 0.29394 0.36449 0.93745 0.0
H255 H 0.2435 0.30113 0.94044 0.0
H256 H 0.22699 0.27883 0.96965 0.0
H257 H 0.22966 0.28526 0.05231 0.0
H258 H 0.2481 0.3118 0.07903 0.0
H259 H 0.3001 0.37366 0.07553 0.0
H260 H 0.32142 0.39146 0.04618 0.0
H261 H 0.2148 0.37871 0.04157 0.0
H262 H 0.20934 0.36903 0.97622 0.0
H263 H 0.32597 0.29648 0.04045 0.0
H264 H 0.32226 0.29161 0.97442 0.0
C265 C 0.22688 0.62848 0.477 0.0
C266 C 0.22245 0.61812 0.45841 0.0
C267 C 0.2358 0.62619 0.44448 0.0
C268 C 0.24754 0.64093 0.45537 0.0
N269 N 0.24273 0.64247 0.47549 0.0
Co270 Co 0.25508 0.66225 0.4969 0.0
N271 N 0.2718 0.67691 0.47583 0.0
C272 C 0.27253 0.67216 0.45547 0.0
C273 C 0.28495 0.68547 0.44485 0.0
C274 C 0.29249 0.69966 0.45924 0.0
C275 C 0.28423 0.69411 0.47789 0.0
N276 N 0.26761 0.68186 0.51843 0.0
C277 C 0.28069 0.69838 0.51643 0.0
C278 C 0.28577 0.70793 0.53531 0.0
C279 C 0.27539 0.69712 0.54975 0.0
C280 C 0.26464 0.68164 0.53893 0.0
N281 N 0.23795 0.64787 0.51787 0.0
C282 C 0.2379 0.65183 0.53839 0.0
C283 C 0.22348 0.64016 0.54852 0.0
C284 C 0.21339 0.62838 0.53353 0.0
C285 C 0.22236 0.63355 0.51511 0.0
N286 N 0.27794 0.64353 0.50119 0.0
C287 C 0.31408 0.62261 0.50815 0.0
C288 C 0.30149 0.62844 0.52436 0.0
C289 C 0.2836 0.63858 0.52056 0.0
C290 C 0.30754 0.62603 0.48825 0.0
C291 C 0.28952 0.63639 0.48514 0.0
N292 N 0.23264 0.68111 0.49269 0.0
C293 C 0.20995 0.70634 0.50653 0.0
C294 C 0.20396 0.71131 0.48685 0.0
C295 C 0.21177 0.70015 0.47014 0.0
C296 C 0.22604 0.68522 0.47338 0.0
C297 C 0.22404 0.6912 0.50909 0.0
H298 H 0.23192 0.67749 0.46007 0.0
H299 H 0.22811 0.68817 0.52448 0.0
H300 H 0.27496 0.64265 0.53368 0.0
H301 H 0.28567 0.63888 0.46965 0.0
C302 C 0.26117 0.65526 0.44675 0.0
C303 C 0.21459 0.62574 0.49525 0.0
C304 C 0.28844 0.70576 0.49706 0.0
C305 C 0.25059 0.6676 0.54744 0.0
H306 H 0.21032 0.60651 0.45517 0.0
H307 H 0.23617 0.62251 0.42817 0.0
H308 H 0.28799 0.68501 0.42856 0.0
H309 H 0.3028 0.7127 0.45635 0.0
H310 H 0.29577 0.72146 0.53832 0.0
H311 H 0.27533 0.70042 0.56614 0.0
H312 H 0.22017 0.64074 0.56475 0.0
H313 H 0.20047 0.61769 0.5358 0.0
H314 H 0.30564 0.62553 0.54004 0.0
H315 H 0.31672 0.62155 0.47516 0.0
H316 H 0.20392 0.71426 0.51995 0.0
H317 H 0.2075 0.70344 0.45459 0.0
C318 C 0.7823 0.8447 0.48407 0.0
C319 C 0.78624 0.85043 0.46421 0.0
C320 C 0.77222 0.8396 0.45188 0.0
C321 C 0.76064 0.82792 0.46492 0.0
N322 N 0.76603 0.83107 0.48488 0.0
Co323 Co 0.75501 0.81592 0.50885 0.0
N324 N 0.73685 0.79738 0.49053 0.0
C325 C 0.73397 0.79875 0.47009 0.0
C326 C 0.72006 0.78427 0.4618 0.0
C327 C 0.71356 0.77304 0.47791 0.0
C328 C 0.72401 0.78132 0.49515 0.0
N329 N 0.74471 0.80021 0.53279 0.0
C330 C 0.73162 0.78349 0.53332 0.0
C331 C 0.72912 0.77689 0.55314 0.0
C332 C 0.74096 0.79001 0.5656 0.0
C333 C 0.75006 0.80373 0.55274 0.0
N334 N 0.77268 0.83488 0.52717 0.0
C335 C 0.77325 0.83572 0.54789 0.0
C336 C 0.78756 0.84991 0.55604 0.0
C337 C 0.79698 0.85832 0.53952 0.0
C338 C 0.78779 0.84873 0.52222 0.0
N339 N 0.732 0.83486 0.512 0.0
C340 C 0.69539 0.85599 0.51617 0.0
C341 C 0.70612 0.85017 0.53338 0.0
C342 C 0.72433 0.8399 0.53098 0.0
C343 C 0.70405 0.85241 0.49694 0.0
C344 C 0.72224 0.84201 0.49523 0.0
N345 N 0.77768 0.79693 0.50571 0.0
C346 C 0.80582 0.77925 0.52007 0.0
C347 C 0.80896 0.76872 0.50132 0.0
C348 C 0.79638 0.77296 0.48473 0.0
C349 C 0.78109 0.78708 0.4872 0.0
C350 C 0.79018 0.79314 0.52193 0.0
H351 H 0.77202 0.78964 0.47398 0.0
H352 H 0.78837 0.80056 0.53665 0.0
H353 H 0.73156 0.8358 0.54473 0.0
H354 H 0.72768 0.83948 0.4801 0.0
C355 C 0.74552 0.81294 0.45888 0.0
C356 C 0.79521 0.85153 0.50151 0.0
C357 C 0.72104 0.77351 0.51558 0.0
C358 C 0.76293 0.82061 0.55899 0.0
H359 H 0.79842 0.86088 0.45917 0.0
H360 H 0.77112 0.83963 0.43533 0.0
H361 H 0.71537 0.78199 0.4459 0.0
H362 H 0.70241 0.76019 0.47706 0.0
H363 H 0.71962 0.764 0.55811 0.0
H364 H 0.74258 0.78969 0.5821 0.0
H365 H 0.79163 0.8528 0.57203 0.0
H366 H 0.8098 0.86949 0.54017 0.0
H367 H 0.70031 0.85318 0.54868 0.0
H368 H 0.69637 0.85678 0.48313 0.0
H369 H 0.81536 0.77683 0.53331 0.0
H370 H 0.79792 0.76507 0.46994 0.0
C371 C 0.47976 0.78771 0.86162 0.0
C372 C 0.46057 0.79107 0.86983 0.0
C373 C 0.44761 0.77551 0.86215 0.0
C374 C 0.45962 0.76359 0.84977 0.0
N375 N 0.47954 0.77039 0.84942 0.0
Co376 Co 0.50217 0.75865 0.83263 0.0
N377 N 0.48234 0.73876 0.81761 0.0
C378 C 0.4618 0.73654 0.82055 0.0
C379 C 0.45224 0.72174 0.80786 0.0
C380 C 0.46755 0.71403 0.79609 0.0
C381 C 0.48566 0.72463 0.80232 0.0
N382 N 0.5249 0.74674 0.8161 0.0
C383 C 0.52426 0.73152 0.80131 0.0
C384 C 0.54375 0.72777 0.79391 0.0
C385 C 0.55718 0.74093 0.80455 0.0
C386 C 0.54522 0.75197 0.81774 0.0
N387 N 0.52184 0.779 0.84721 0.0
C388 C 0.54247 0.78081 0.84496 0.0
C389 C 0.55162 0.79718 0.8559 0.0
C390 C 0.53582 0.80674 0.8653 0.0
C391 C 0.51792 0.79552 0.85957 0.0
N392 N 0.5066 0.73801 0.85375 0.0
C393 C 0.51425 0.70393 0.8776 0.0
C394 C 0.52987 0.71865 0.8736 0.0
C395 C 0.52576 0.73536 0.86175 0.0
C396 C 0.4944 0.70758 0.87083 0.0
C397 C 0.49093 0.7247 0.85938 0.0
N398 N 0.49778 0.7789 0.81146 0.0
C399 C 0.5111 0.80281 0.78693 0.0
C400 C 0.49122 0.80627 0.78016 0.0
C401 C 0.4747 0.79624 0.7897 0.0
C402 C 0.47828 0.78285 0.80528 0.0
C403 C 0.51403 0.78906 0.80245 0.0
H404 H 0.46505 0.77574 0.81202 0.0
H405 H 0.52954 0.78668 0.80679 0.0
H406 H 0.53851 0.74557 0.85891 0.0
H407 H 0.47548 0.72635 0.85476 0.0
C408 C 0.45209 0.74813 0.83585 0.0
C409 C 0.49744 0.80199 0.86482 0.0
C410 C 0.50567 0.72027 0.7937 0.0
C411 C 0.55254 0.76785 0.8312 0.0
H412 H 0.45629 0.80387 0.87973 0.0
H413 H 0.43117 0.7738 0.86437 0.0
H414 H 0.43609 0.71695 0.80739 0.0
H415 H 0.46566 0.70181 0.78442 0.0
H416 H 0.54784 0.7167 0.782 0.0
H417 H 0.57369 0.74241 0.80275 0.0
H418 H 0.56773 0.80209 0.85626 0.0
H419 H 0.53729 0.8208 0.87469 0.0
H420 H 0.54539 0.71714 0.87918 0.0
H421 H 0.48159 0.69687 0.8735 0.0
H422 H 0.52436 0.81024 0.77991 0.0
H423 H 0.45901 0.79874 0.78517 0.0
C424 C 0.54344 0.27479 0.65178 0.0
C425 C 0.56304 0.27881 0.64435 0.0
C426 C 0.57463 0.26284 0.65002 0.0
C427 C 0.56144 0.25004 0.66054 0.0
N428 N 0.54239 0.25706 0.66173 0.0
Co429 Co 0.51866 0.24427 0.6759 0.0
N430 N 0.53686 0.22846 0.69302 0.0
C431 C 0.55645 0.2242 0.68873 0.0
C432 C 0.56501 0.21244 0.70319 0.0
C433 C 0.54978 0.20897 0.71727 0.0
C434 C 0.5327 0.21887 0.7106 0.0
N435 N 0.49481 0.23157 0.69007 0.0
C436 C 0.49414 0.22192 0.70801 0.0
C437 C 0.47413 0.21528 0.71242 0.0
C438 C 0.46203 0.2207 0.69643 0.0
C439 C 0.47522 0.2304 0.68322 0.0
N440 N 0.50059 0.25986 0.65852 0.0
C441 C 0.48054 0.25558 0.65456 0.0
C442 C 0.47216 0.26973 0.64235 0.0
C443 C 0.488 0.2837 0.63849 0.0
C444 C 0.50518 0.27717 0.64855 0.0
N445 N 0.51751 0.2216 0.65544 0.0
C446 C 0.51978 0.18837 0.62732 0.0
C447 C 0.51568 0.18527 0.64801 0.0
C448 C 0.51467 0.20199 0.66175 0.0
C449 C 0.52182 0.20854 0.62078 0.0
C450 C 0.52058 0.22498 0.63512 0.0
N451 N 0.52005 0.26678 0.69643 0.0
C452 C 0.50353 0.29163 0.71813 0.0
C453 C 0.52228 0.29685 0.72801 0.0
C454 C 0.53996 0.28739 0.72129 0.0
C455 C 0.53855 0.27255 0.70538 0.0
C456 C 0.50272 0.27639 0.70241 0.0
H457 H 0.55241 0.2654 0.70063 0.0
H458 H 0.48804 0.27205 0.69539 0.0
H459 H 0.51203 0.19893 0.67761 0.0
H460 H 0.52259 0.24041 0.62987 0.0
C461 C 0.56708 0.23416 0.67299 0.0
C462 C 0.52575 0.28723 0.64832 0.0
C463 C 0.51232 0.21718 0.72008 0.0
C464 C 0.46948 0.24126 0.66615 0.0
H465 H 0.56834 0.29188 0.63582 0.0
H466 H 0.59094 0.26136 0.64769 0.0
H467 H 0.58062 0.20749 0.70379 0.0
H468 H 0.551 0.19994 0.73072 0.0
H469 H 0.46883 0.20717 0.72566 0.0
H470 H 0.4455 0.21841 0.69496 0.0
H471 H 0.45622 0.27055 0.63783 0.0
H472 H 0.48688 0.29721 0.62959 0.0
H473 H 0.51332 0.16997 0.65366 0.0
H474 H 0.52486 0.21161 0.60488 0.0
H475 H 0.48955 0.29868 0.72303 0.0
H476 H 0.55476 0.29125 0.72848 0.0
C477 C 0.87199 0.48307 0.78208 0.0
C478 C 0.87716 0.46348 0.78693 0.0
C479 C 0.86486 0.45015 0.7751 0.0
C480 C 0.85296 0.46235 0.76376 0.0
N481 N 0.85728 0.48266 0.76732 0.0
Co482 Co 0.84301 0.50602 0.75546 0.0
N483 N 0.82163 0.48674 0.74191 0.0
C484 C 0.82062 0.46597 0.74221 0.0
C485 C 0.80406 0.45695 0.73171 0.0
C486 C 0.79382 0.47287 0.72432 0.0
C487 C 0.80477 0.49078 0.73078 0.0
N488 N 0.82887 0.52941 0.74347 0.0
C489 C 0.81154 0.52938 0.73185 0.0
C490 C 0.80702 0.5491 0.72667 0.0
C491 C 0.82209 0.56203 0.7352 0.0
C492 C 0.83488 0.54955 0.74511 0.0
N493 N 0.86412 0.52524 0.76949 0.0
C494 C 0.866 0.54588 0.76832 0.0
C495 C 0.88098 0.55496 0.78096 0.0
C496 C 0.88875 0.53923 0.79125 0.0
C497 C 0.87805 0.52143 0.78416 0.0
N498 N 0.86043 0.504 0.73048 0.0
C499 C 0.88065 0.50204 0.69246 0.0
C500 C 0.88093 0.52031 0.70432 0.0
C501 C 0.87075 0.52095 0.72311 0.0
C502 C 0.87115 0.48454 0.70035 0.0
C503 C 0.8615 0.4858 0.71934 0.0
N504 N 0.82563 0.50799 0.78012 0.0
C505 C 0.80928 0.52815 0.80671 0.0
C506 C 0.79985 0.51044 0.81455 0.0
C507 C 0.80394 0.49151 0.805 0.0
C508 C 0.81686 0.49064 0.7881 0.0
C509 C 0.82196 0.52659 0.78956 0.0
H510 H 0.81936 0.47575 0.78156 0.0
H511 H 0.82857 0.5406 0.78408 0.0
H512 H 0.87109 0.53548 0.73106 0.0
H513 H 0.8547 0.47184 0.72435 0.0
C514 C 0.83561 0.45538 0.75232 0.0
C515 C 0.88018 0.50155 0.79303 0.0
C516 C 0.79878 0.51119 0.72557 0.0
C517 C 0.85207 0.5564 0.75682 0.0
H518 H 0.88807 0.45936 0.79846 0.0
H519 H 0.86382 0.43358 0.77565 0.0
H520 H 0.79996 0.44073 0.72962 0.0
H521 H 0.77993 0.47145 0.71508 0.0
H522 H 0.79408 0.55371 0.71777 0.0
H523 H 0.82341 0.57858 0.73449 0.0
H524 H 0.88503 0.57118 0.78322 0.0
H525 H 0.90037 0.54081 0.80319 0.0
H526 H 0.88823 0.53425 0.69876 0.0
H527 H 0.87097 0.46995 0.69179 0.0
H528 H 0.80687 0.54318 0.8137 0.0
H529 H 0.7968 0.47732 0.81013 0.0
C530 C 0.16086 0.03164 0.77917 0.0
C531 C 0.15576 0.05109 0.78615 0.0
C532 C 0.16618 0.06468 0.77412 0.0
C533 C 0.17692 0.05276 0.7605 0.0
N534 N 0.17365 0.03243 0.76295 0.0
Co535 Co 0.18622 0.00959 0.74688 0.0
N536 N 0.20641 0.02912 0.73384 0.0
C537 C 0.20798 0.04976 0.73705 0.0
C538 C 0.22373 0.05907 0.72651 0.0
C539 C 0.23288 0.04343 0.71609 0.0
C540 C 0.2221 0.02539 0.72084 0.0
N541 N 0.19798 0.9868 0.72992 0.0
C542 C 0.21369 0.98715 0.71638 0.0
C543 C 0.21637 0.9678 0.70739 0.0
C544 C 0.20169 0.95487 0.71535 0.0
C545 C 0.19095 0.96695 0.72874 0.0
N546 N 0.16719 0.98995 0.76125 0.0
C547 C 0.16517 0.96938 0.75788 0.0
C548 C 0.15259 0.95972 0.77161 0.0
C549 C 0.14669 0.97499 0.78494 0.0
C550 C 0.15591 0.99315 0.77836 0.0
N551 N 0.16569 0.01276 0.72458 0.0
C552 C 0.1399 0.01524 0.69008 0.0
C553 C 0.13798 0.99854 0.70266 0.0
C554 C 0.15089 0.99762 0.71971 0.0
C555 C 0.15397 0.03125 0.69567 0.0
C556 C 0.16644 0.02981 0.71291 0.0
N557 N 0.2065 0.00647 0.76889 0.0
C558 C 0.2273 0.98514 0.78911 0.0
C559 C 0.23468 0.00232 0.80084 0.0
C560 C 0.22783 0.02156 0.79632 0.0
C561 C 0.21399 0.02331 0.78024 0.0
C562 C 0.21308 0.98752 0.77339 0.0
H563 H 0.20958 0.03846 0.77718 0.0
H564 H 0.20755 0.97389 0.76504 0.0
H565 H 0.14877 0.98421 0.72828 0.0
H566 H 0.17679 0.04262 0.71605 0.0
C567 C 0.19339 0.05999 0.74875 0.0
C568 C 0.15457 0.01295 0.78932 0.0
C569 C 0.22666 0.00527 0.71183 0.0
C570 C 0.17599 0.95965 0.74219 0.0
H571 H 0.14628 0.055 0.79917 0.0
H572 H 0.16704 0.08125 0.77609 0.0
H573 H 0.22781 0.07532 0.72612 0.0
H574 H 0.24577 0.04516 0.70581 0.0
H575 H 0.22793 0.96337 0.69644 0.0
H576 H 0.19954 0.93849 0.71225 0.0
H577 H 0.14876 0.94344 0.77229 0.0
H578 H 0.13714 0.97287 0.79825 0.0
H579 H 0.12721 0.98576 0.69889 0.0
H580 H 0.15564 0.04471 0.68654 0.0
H581 H 0.23234 0.96997 0.79218 0.0
H582 H 0.23351 0.03528 0.80485 0.0
C583 C 0.73743 0.14261 0.97551 0.0
C584 C 0.73156 0.13087 0.9581 0.0
C585 C 0.74478 0.1368 0.94285 0.0
C586 C 0.75787 0.15176 0.95186 0.0
N587 N 0.75363 0.15545 0.97175 0.0
Co588 Co 0.76768 0.17594 0.9907 0.0
N589 N 0.77852 0.19175 0.96758 0.0
C590 C 0.78 0.18471 0.94796 0.0
C591 C 0.78826 0.19924 0.93539 0.0
C592 C 0.79242 0.21635 0.94794 0.0
C593 C 0.78651 0.21124 0.96757 0.0
N594 N 0.78189 0.19623 0.00983 0.0
C595 C 0.7897 0.2153 0.00634 0.0
C596 C 0.79889 0.22423 0.02403 0.0
C597 C 0.79688 0.21005 0.03892 0.0
C598 C 0.78662 0.1933 0.0296 0.0
N599 N 0.75675 0.16001 0.01365 0.0
C600 C 0.76401 0.16054 0.03297 0.0
C601 C 0.75239 0.14808 0.0454 0.0
C602 C 0.73693 0.13928 0.03301 0.0
C603 C 0.7401 0.14692 0.01375 0.0
N604 N 0.79232 0.15992 0.99015 0.0
C605 C 0.82855 0.13872 0.99264 0.0
C606 C 0.8093 0.12826 0.99396 0.0
C607 C 0.79131 0.13918 0.99264 0.0
C608 C 0.82914 0.15972 0.98909 0.0
C609 C 0.81102 0.16997 0.98802 0.0
N610 N 0.74334 0.19236 0.99137 0.0
C611 C 0.72224 0.21572 0.01018 0.0
C612 C 0.71336 0.2217 0.99191 0.0
C613 C 0.71874 0.21157 0.97349 0.0
C614 C 0.73376 0.19695 0.97356 0.0
C615 C 0.73705 0.20094 0.00959 0.0
H616 H 0.73832 0.19006 0.95909 0.0
H617 H 0.7441 0.19716 0.02383 0.0
H618 H 0.77663 0.13098 0.99409 0.0
H619 H 0.81229 0.18623 0.98591 0.0
C620 C 0.77078 0.16562 0.94151 0.0
C621 C 0.72777 0.14121 0.99552 0.0
C622 C 0.79081 0.22434 0.98609 0.0
C623 C 0.77849 0.17606 0.03954 0.0
H624 H 0.71893 0.1195 0.95659 0.0
H625 H 0.74409 0.13169 0.92686 0.0
H626 H 0.79048 0.1978 0.91899 0.0
H627 H 0.79936 0.23079 0.94324 0.0
H628 H 0.8066 0.23926 0.0259 0.0
H629 H 0.80182 0.21197 0.05477 0.0
H630 H 0.75419 0.14649 0.06174 0.0
H631 H 0.72471 0.12866 0.03758 0.0
H632 H 0.80815 0.11197 0.9966 0.0
H633 H 0.8436 0.16836 0.98738 0.0
H634 H 0.7182 0.22284 0.0248 0.0
H635 H 0.71224 0.21569 0.95901 0.0
O636 O 0.10958 0.04998 0.0879 0.0
Zn637 Zn 0.08101 0.054 0.07778 0.0
O638 O 0.08165 0.06433 0.05024 0.0
Zn639 Zn 0.07017 0.09142 0.05071 0.0
Zn640 Zn 0.11006 0.06591 0.04058 0.0
Zn641 Zn 0.06508 0.04575 0.03189 0.0
O642 O 0.04378 0.09094 0.03442 0.0
O643 O 0.03865 0.0583 0.02391 0.0
O644 O 0.06784 0.07343 0.09806 0.0
O645 O 0.0626 0.10039 0.07943 0.0
O646 O 0.09059 0.1128 0.04047 0.0
O647 O 0.11875 0.09529 0.03586 0.0
O648 O 0.11257 0.05081 0.01308 0.0
O649 O 0.0665 0.0262 0.07789 0.0
O650 O 0.08057 0.03924 0.00606 0.0
O651 O 0.05781 0.01921 0.04533 0.0
C652 C 0.12735 0.0504 0.07988 0.0
C653 C 0.03269 0.07661 0.02544 0.0
C654 C 0.10953 0.11207 0.0358 0.0
C655 C 0.0619 0.09162 0.09649 0.0
C656 C 0.09935 0.04169 0.00096 0.0
C657 C 0.0588 0.01398 0.06387 0.0
O658 O 0.12999 0.05545 0.06137 0.0
O659 O 0.91942 0.46183 0.08706 0.0
Zn660 Zn 0.94864 0.45695 0.0786 0.0
O661 O 0.94972 0.44742 0.04995 0.0
Zn662 Zn 0.95942 0.41954 0.04817 0.0
Zn663 Zn 0.92238 0.44823 0.03787 0.0
Zn664 Zn 0.96849 0.46521 0.03488 0.0
O665 O 0.9875 0.41871 0.03513 0.0
O666 O 0.99483 0.4514 0.0288 0.0
O667 O 0.95944 0.43618 0.09742 0.0
O668 O 0.96289 0.40886 0.07648 0.0
O669 O 0.93913 0.40034 0.03273 0.0
O670 O 0.91237 0.41977 0.02885 0.0
O671 O 0.92285 0.46431 0.01225 0.0
O672 O 0.96477 0.48383 0.08295 0.0
O673 O 0.95585 0.47321 0.00818 0.0
O674 O 0.9761 0.49073 0.05182 0.0
C675 C 0.90264 0.46306 0.07716 0.0
C676 C -5e-05 0.43283 0.02911 0.0
C677 C 0.9207 0.40255 0.02685 0.0
C678 C 0.96344 0.41738 0.09441 0.0
C679 C 0.93728 0.47244 0.00179 0.0
C680 C 0.97427 0.49567 0.07077 0.0
O681 O 0.90165 0.45935 0.05786 0.0
O682 O 0.09067 0.90385 0.4582 0.0
Zn683 Zn 0.08246 0.9327 0.45311 0.0
O684 O 0.05534 0.93246 0.43996 0.0
Zn685 Zn 0.0576 0.94431 0.41302 0.0
Zn686 Zn 0.044 0.90424 0.4371 0.0
Zn687 Zn 0.03687 0.94873 0.45665 0.0
O688 O 0.0419 0.97002 0.41153 0.0
O689 O 0.03008 0.97478 0.4431 0.0
O690 O 0.10433 0.94567 0.43531 0.0
O691 O 0.08694 0.95294 0.40737 0.0
O692 O 0.04775 0.92414 0.39049 0.0
O693 O 0.03861 0.89645 0.4075 0.0
O694 O 0.01672 0.90096 0.45132 0.0
O695 O 0.08237 0.94846 0.48036 0.0
O696 O 0.01053 0.93272 0.46225 0.0
O697 O 0.04993 0.95717 0.48365 0.0
C698 C 0.08176 0.88615 0.45524 0.0
C699 C 0.03255 0.98074 0.42492 0.0
C700 C 0.04067 0.90563 0.39077 0.0
C701 C 0.10371 0.95286 0.41748 0.0
C702 C 0.00499 0.91379 0.45989 0.0
C703 C 0.06816 0.95672 0.49067 0.0
O704 O 0.06374 0.88403 0.44752 0.0
O705 O 0.96811 0.58334 0.40428 0.0
Zn706 Zn 0.96458 0.57489 0.43342 0.0
O707 O 0.95259 0.54697 0.43405 0.0
Zn708 Zn 0.92574 0.54745 0.44714 0.0
Zn709 Zn 0.94984 0.53532 0.40611 0.0
Zn710 Zn 0.97035 0.53002 0.44962 0.0
O711 O 0.92574 0.53306 0.47386 0.0
O712 O 0.95796 0.5238 0.47693 0.0
O713 O 0.94658 0.59543 0.44752 0.0
O714 O 0.91831 0.57652 0.45401 0.0
O715 O 0.90358 0.53457 0.4286 0.0
O716 O 0.92009 0.52872 0.39942 0.0
O717 O 0.96336 0.50831 0.40308 0.0
O718 O 0.99273 0.57667 0.44644 0.0
O719 O 0.97494 0.50308 0.43438 0.0
O720 O 0.99764 0.54474 0.45525 0.0
C721 C 0.96684 0.57379 0.38686 0.0
C722 C 0.93991 0.52524 0.48407 0.0
C723 C 0.9036 0.52845 0.40983 0.0
C724 C 0.92821 0.59382 0.4541 0.0
C725 C 0.97184 0.49699 0.41577 0.0
C726 C 0.00406 0.56336 0.45383 0.0
O727 O 0.96098 0.55488 0.38519 0.0
O728 O 0.41328 0.96431 0.58574 0.0
Zn729 Zn 0.44138 0.95567 0.57698 0.0
O730 O 0.43897 0.94004 0.5508 0.0
Zn731 Zn 0.44748 0.91246 0.55488 0.0
Zn732 Zn 0.41073 0.93907 0.54039 0.0
Zn733 Zn 0.45694 0.95249 0.53066 0.0
O734 O 0.47538 0.90824 0.543 0.0
O735 O 0.48216 0.93625 0.52567 0.0
O736 O 0.45168 0.93848 0.59986 0.0
O737 O 0.44989 0.90731 0.5848 0.0
O738 O 0.4272 0.89147 0.54248 0.0
O739 O 0.40019 0.90967 0.53575 0.0
O740 O 0.40921 0.95141 0.51248 0.0
O741 O 0.4596 0.9814 0.57419 0.0
O742 O 0.44207 0.95594 0.50411 0.0
O743 O 0.46689 0.98046 0.54091 0.0
C744 C 0.39525 0.96239 0.57797 0.0
C745 C 0.48732 0.91896 0.53186 0.0
C746 C 0.40873 0.89254 0.5363 0.0
C747 C 0.45265 0.91906 0.60072 0.0
C748 C 0.42305 0.95613 0.49952 0.0
C749 C 0.46771 0.98953 0.55854 0.0
O750 O 0.39195 0.95326 0.56052 0.0
O751 O 0.59771 0.53777 0.61744 0.0
Zn752 Zn 0.56822 0.54062 0.60889 0.0
O753 O 0.56686 0.54954 0.5807 0.0
Zn754 Zn 0.55556 0.57659 0.58054 0.0
Zn755 Zn 0.5944 0.5505 0.56896 0.0
Zn756 Zn 0.5491 0.53041 0.56409 0.0
O757 O 0.52834 0.57565 0.56582 0.0
O758 O 0.52203 0.54263 0.55738 0.0
O759 O 0.55573 0.56095 0.62915 0.0
O760 O 0.54957 0.58666 0.60912 0.0
O761 O 0.5752 0.59742 0.56821 0.0
O762 O 0.60271 0.57941 0.56196 0.0
O763 O 0.59526 0.53385 0.54224 0.0
O764 O 0.55463 0.51234 0.61076 0.0
O765 O 0.56257 0.52349 0.53715 0.0
O766 O 0.54377 0.50421 0.57897 0.0
C767 C 0.61473 0.53778 0.60791 0.0
C768 C 0.51652 0.56112 0.55827 0.0
C769 C 0.59363 0.59626 0.56199 0.0
C770 C 0.54964 0.57898 0.62672 0.0
C771 C 0.58108 0.52509 0.53101 0.0
C772 C 0.54638 0.4995 0.59754 0.0
O773 O 0.61567 0.54149 0.58891 0.0
O774 O 0.60904 0.42126 0.97485 0.0
Zn775 Zn 0.60149 0.4506 0.97078 0.0
O776 O 0.57424 0.45157 0.95816 0.0
Zn777 Zn 0.57645 0.46303 0.93103 0.0
Zn778 Zn 0.56183 0.42377 0.95566 0.0
Zn779 Zn 0.55692 0.46892 0.97517 0.0
O780 O 0.5622 0.48968 0.9298 0.0
O781 O 0.55119 0.49533 0.96157 0.0
O782 O 0.62329 0.46386 0.95312 0.0
O783 O 0.60611 0.46961 0.92457 0.0
O784 O 0.56485 0.44337 0.90883 0.0
O785 O 0.55635 0.41569 0.92613 0.0
O786 O 0.53445 0.42196 0.96984 0.0
O787 O 0.60212 0.46507 0.9986 0.0
O788 O 0.52985 0.45406 0.9809 0.0
O789 O 0.5707 0.47649 0.00218 0.0
C790 C 0.59911 0.40398 0.97273 0.0
C791 C 0.55361 0.50099 0.94327 0.0
C792 C 0.55785 0.42485 0.90934 0.0
C793 C 0.62283 0.46994 0.93483 0.0
C794 C 0.52339 0.43537 0.97847 0.0
C795 C 0.58872 0.4743 0.00917 0.0
O796 O 0.58061 0.40276 0.96617 0.0
O797 O 0.48019 0.1024 0.91353 0.0
Zn798 Zn 0.47637 0.09359 0.94242 0.0
O799 O 0.46403 0.06583 0.94244 0.0
Zn800 Zn 0.43739 0.0667 0.95588 0.0
Zn801 Zn 0.46048 0.05471 0.91424 0.0
Zn802 Zn 0.48193 0.04841 0.95748 0.0
O803 O 0.43755 0.05162 0.98209 0.0
O804 O 0.46941 0.04115 0.98455 0.0
O805 O 0.45875 0.11426 0.95683 0.0
O806 O 0.43021 0.09577 0.96326 0.0
O807 O 0.41485 0.05408 0.93777 0.0
O808 O 0.43057 0.04761 0.90827 0.0
O809 O 0.47416 0.0277 0.9103 0.0
O810 O 0.50433 0.09495 0.95556 0.0
O811 O 0.48621 0.02191 0.94131 0.0
O812 O 0.50948 0.06285 0.9636 0.0
C813 C 0.47775 0.09373 0.89579 0.0
C814 C 0.45144 0.04286 0.99182 0.0
C815 C 0.41438 0.04755 0.91913 0.0
C816 C 0.44042 0.11291 0.9635 0.0
C817 C 0.48279 0.01612 0.92267 0.0
C818 C 0.51575 0.08157 0.96266 0.0
O819 O 0.47078 0.07516 0.89355 0.0
C820 C 0.02742 0.15683 0.37072 0.0
C821 C 0.00897 0.16701 0.37317 0.0
C822 C 0.02931 0.13717 0.37794 0.0
C823 C 0.00432 0.0979 0.41089 0.0
H824 H 0.0354 0.06105 0.37638 0.0
C825 C 0.0239 0.01671 0.43505 0.0
C826 C 0.02605 0.00129 0.41965 0.0
C827 C 0.02033 0.03682 0.42992 0.0
C828 C 0.02636 0.07098 0.38607 0.0
H829 H 0.97843 0.16469 0.38632 0.0
H830 H 0.98133 0.13004 0.39786 0.0
H831 H 0.0324 0.09624 0.36695 0.0
H832 H 0.02486 0.99452 0.38687 0.0
H833 H 0.01769 0.0293 0.37791 0.0
H834 H 0.9975 0.07225 0.42948 0.0
C835 C 0.99451 0.13739 0.39065 0.0
C836 C 0.025 0.09138 0.38087 0.0
C837 C 0.99273 0.15722 0.38372 0.0
C838 C 0.02351 0.00614 0.39907 0.0
C839 C 0.01958 0.02615 0.39395 0.0
C840 C 0.00544 0.07736 0.41595 0.0
C841 C 0.0127 0.12694 0.38749 0.0
C842 C 0.01409 0.10519 0.39327 0.0
C843 C 0.0185 0.0419 0.40926 0.0
C844 C 0.01656 0.06363 0.40364 0.0
H845 H 0.04024 0.16367 0.36254 0.0
H846 H 0.04375 0.12986 0.37568 0.0
H847 H 0.99593 0.10809 0.42093 0.0
H848 H 0.02591 0.01347 0.45106 0.0
H849 H 0.01983 0.04851 0.44214 0.0
C850 C 0.99273 0.31279 0.3808 0.0
C851 C 0.98948 0.30655 0.36019 0.0
C852 C 0.99085 0.33333 0.38715 0.0
C853 C 0.96846 0.38152 0.37213 0.0
H854 H 0.01028 0.40742 0.40842 0.0
C855 C 0.97328 0.46882 0.3886 0.0
C856 C 0.97659 0.47575 0.40909 0.0
C857 C 0.97569 0.44828 0.38267 0.0
C858 C 0.99837 0.40037 0.39845 0.0
H859 H 0.98127 0.31627 0.3301 0.0
H860 H 0.97795 0.35228 0.34108 0.0
H861 H 0.01187 0.37108 0.39842 0.0
H862 H 0.98571 0.46658 0.43927 0.0
H863 H 0.98975 0.43069 0.42892 0.0
H864 H 0.95491 0.41073 0.37217 0.0
C865 C 0.98184 0.34141 0.35241 0.0
C866 C -0.00074 0.37954 0.39274 0.0
C867 C 0.98378 0.32089 0.34609 0.0
C868 C 0.98307 0.46178 0.42335 0.0
C869 C 0.98544 0.4412 0.41741 0.0
C870 C 0.96755 0.40231 0.37785 0.0
C871 C 0.98557 0.34792 0.37297 0.0
C872 C 0.98434 0.3699 0.37947 0.0
C873 C 0.98143 0.43414 0.39707 0.0
C874 C 0.98254 0.41202 0.391 0.0
H875 H 0.99704 0.30182 0.39187 0.0
H876 H 0.99353 0.33781 0.40314 0.0
H877 H 0.95656 0.37448 0.36213 0.0
H878 H 0.96841 0.47916 0.37716 0.0
H879 H 0.97288 0.44343 0.36679 0.0
C880 C 0.03037 0.83022 0.09433 0.0
C881 C 0.03822 0.82622 0.11379 0.0
C882 C 0.03075 0.85029 0.08758 0.0
C883 C 0.03148 0.90348 0.10758 0.0
H884 H 0.05246 0.91785 0.05434 0.0
C885 C 0.05523 0.98621 0.08904 0.0
C886 C 0.05221 0.99283 0.06908 0.0
C887 C 0.05085 0.96581 0.09363 0.0
C888 C 0.04617 0.91404 0.0691 0.0
H889 H 0.05271 0.84 0.14136 0.0
H890 H 0.05346 0.87494 0.12954 0.0
H891 H 0.05051 0.88192 0.0636 0.0
H892 H 0.04143 0.98331 0.03846 0.0
H893 H 0.03344 0.94767 0.04662 0.0
H894 H 0.02716 0.93546 0.11322 0.0
C895 C 0.04697 0.8626 0.11954 0.0
C896 C 0.04515 0.89349 0.07441 0.0
C897 C 0.04678 0.84258 0.12619 0.0
C898 C 0.04403 0.9787 0.05397 0.0
C899 C 0.03957 0.95825 0.05861 0.0
C900 C 0.03234 0.92396 0.10224 0.0
C901 C 0.03872 0.86668 0.10031 0.0
C902 C 0.03822 0.88811 0.09387 0.0
C903 C 0.04322 0.95152 0.07842 0.0
C904 C 0.04013 0.92954 0.08312 0.0
H905 H 0.02375 0.81786 0.08444 0.0
H906 H 0.0243 0.85307 0.07267 0.0
H907 H 0.02569 0.89966 0.12255 0.0
H908 H 0.06155 0.99665 0.10105 0.0
H909 H 0.05414 0.9611 0.10897 0.0
C910 C 0.01589 0.66966 0.14013 0.0
C911 C 0.0223 0.68269 0.12466 0.0
C912 C 0.01324 0.64859 0.13591 0.0
C913 C 0.02613 0.60697 0.09888 0.0
H914 H 0.97558 0.58068 0.11809 0.0
C915 C 0.9926 0.52953 0.06528 0.0
C916 C 0.98288 0.51585 0.07864 0.0
C917 C -0.00032 0.54904 0.07241 0.0
C918 C 0.98994 0.58768 0.11292 0.0
H919 H 0.03127 0.68455 0.09295 0.0
H920 H 0.02644 0.64751 0.08533 0.0
H921 H 0.98385 0.61654 0.12774 0.0
H922 H 0.97366 0.51169 0.11017 0.0
H923 H 0.98618 0.54576 0.12262 0.0
H924 H 0.032 0.57814 0.08373 0.0
C925 C 0.02374 0.65345 0.10077 0.0
C926 C 0.99467 0.60823 0.11842 0.0
C927 C 0.02639 0.67455 0.10502 0.0
C928 C 0.98093 0.52191 0.09943 0.0
C929 C 0.98804 0.54144 0.10656 0.0
C930 C 0.02141 0.58638 0.09337 0.0
C931 C 0.01692 0.64029 0.11613 0.0
C932 C 0.01269 0.61815 0.11127 0.0
C933 C 0.99722 0.5553 0.09305 0.0
C934 C 0.00314 0.57661 0.10015 0.0
H935 H 0.01274 0.67585 0.15539 0.0
H936 H 0.00821 0.6388 0.14809 0.0
H937 H 0.04027 0.61417 0.09338 0.0
H938 H 0.99438 0.52535 0.04917 0.0
H939 H 0.00647 0.55947 0.06158 0.0
C940 C 0.41014 0.00886 0.17049 0.0
C941 C 0.38978 0.00101 0.17182 0.0
C942 C 0.41948 0.01072 0.15136 0.0
C943 C 0.41255 0.99466 0.09593 0.0
H944 H 0.44725 0.04346 0.08738 0.0
C945 C 0.42621 0.02998 0.0175 0.0
C946 C 0.44666 0.03503 0.01222 0.0
C947 C 0.42149 0.0234 0.03706 0.0
C948 C 0.4378 0.02963 0.08964 0.0
H949 H 0.36308 0.98924 0.15434 0.0
H950 H 0.37894 0.99311 0.1211 0.0
H951 H 0.43488 0.03661 0.12173 0.0
H952 H 0.47822 0.03705 0.0232 0.0
H953 H 0.4698 0.02607 0.05773 0.0
H954 H 0.41459 0.98847 0.06351 0.0
C955 C 0.38811 0.99714 0.13468 0.0
C956 C 0.43076 0.02562 0.10933 0.0
C957 C 0.37894 0.995 0.15375 0.0
C958 C 0.46233 0.03318 0.02683 0.0
C959 C 0.45755 0.027 0.04656 0.0
C960 C 0.41928 -0.00111 0.07622 0.0
C961 C 0.40849 0.00507 0.13318 0.0
C962 C 0.41773 0.00827 0.11267 0.0
C963 C 0.43708 0.02211 0.05182 0.0
C964 C 0.4317 0.01656 0.07289 0.0
H965 H 0.41885 0.01348 0.18424 0.0
H966 H 0.43528 0.01661 0.15084 0.0
H967 H 0.403 0.98087 0.09795 0.0
H968 H 0.41383 0.03119 0.00652 0.0
H969 H 0.40557 0.01986 0.04084 0.0
C970 C 0.61484 0.50868 0.19365 0.0
C971 C 0.63459 0.5032 0.19919 0.0
C972 C 0.60926 0.50895 0.17297 0.0
C973 C 0.63123 0.51022 0.12082 0.0
H974 H 0.57871 0.48426 0.10395 0.0
C975 C 0.61374 0.47983 0.03836 0.0
C976 C 0.59392 0.48191 0.03031 0.0
C977 C 0.61827 0.48573 0.05874 0.0
C978 C 0.59328 0.49189 0.10843 0.0
H979 H 0.66405 0.49377 0.1881 0.0
H980 H 0.65431 0.49391 0.1519 0.0
H981 H 0.58729 0.4884 0.14031 0.0
H982 H 0.56351 0.49251 0.0372 0.0
H983 H 0.57149 0.50283 0.07278 0.0
H984 H 0.63743 0.5132 0.08888 0.0
C985 C 0.64321 0.49835 0.16334 0.0
C986 C 0.59819 0.49426 0.12926 0.0
C987 C 0.64874 0.49807 0.18397 0.0
C988 C 0.5789 0.49059 0.04293 0.0
C989 C 0.58343 0.49643 0.06334 0.0
C990 C 0.62634 0.50782 0.09999 0.0
C991 C 0.62339 0.50374 0.1576 0.0
C992 C 0.61738 0.50309 0.13565 0.0
C993 C 0.60308 0.4938 0.07152 0.0
C994 C 0.60746 0.49829 0.09358 0.0
H995 H 0.60379 0.51267 0.20532 0.0
H996 H 0.59394 0.5133 0.16899 0.0
H997 H 0.64599 0.51743 0.12531 0.0
H998 H 0.62568 0.47324 0.02907 0.0
H999 H 0.63349 0.4833 0.06467 0.0
C1000 C 0.3933 0.99082 0.3185 0.0
C1001 C 0.37264 0.98886 0.31234 0.0
C1002 C 0.39876 0.98783 0.33886 0.0
C1003 C 0.37745 0.98717 0.39122 0.0
H1004 H 0.42548 0.95661 0.4029 0.0
C1005 C 0.39627 0.96017 0.47229 0.0
C1006 C 0.41702 0.96132 0.47848 0.0
C1007 C 0.39078 0.9642 0.45215 0.0
C1008 C 0.41217 0.9654 0.39992 0.0
H1009 H 0.34147 0.982 0.32203 0.0
H1010 H 0.35093 0.97653 0.35769 0.0
H1011 H 0.41615 0.96222 0.36745 0.0
H1012 H 0.44824 0.96811 0.4684 0.0
H1013 H 0.43864 0.97533 0.43347 0.0
H1014 H 0.37346 0.9903 0.42372 0.0
C1015 C 0.36292 0.98071 0.34699 0.0
C1016 C 0.40682 0.96861 0.37959 0.0
C1017 C 0.35749 0.98369 0.32664 0.0
C1018 C 0.43211 0.96694 0.46416 0.0
C1019 C 0.42663 0.97097 0.44407 0.0
C1020 C 0.38281 0.98397 0.41157 0.0
C1021 C 0.38362 0.98276 0.35336 0.0
C1022 C 0.38939 0.97951 0.375 0.0
C1023 C 0.40593 0.96947 0.43776 0.0
C1024 C 0.40023 0.97304 0.41616 0.0
H1025 H 0.40516 0.99474 0.30757 0.0
H1026 H 0.41481 0.98971 0.34331 0.0
H1027 H 0.3641 0.99589 0.38821 0.0
H1028 H 0.38424 0.95584 0.48289 0.0
H1029 H 0.37471 0.96271 0.44773 0.0
C1030 C 0.6162 0.51126 0.34724 0.0
C1031 C 0.63431 0.50142 0.34233 0.0
C1032 C 0.60904 0.51188 0.36741 0.0
C1033 C 0.61677 0.48875 0.4184 0.0
H1034 H 0.58938 0.53704 0.43841 0.0
C1035 C 0.60612 0.51437 0.50405 0.0
C1036 C 0.58587 0.51844 0.50972 0.0
C1037 C 0.61092 0.51011 0.48351 0.0
C1038 C 0.59688 0.52341 0.43293 0.0
H1039 H 0.65941 0.4849 0.35443 0.0
H1040 H 0.64764 0.48683 0.38973 0.0
H1041 H 0.60015 0.53447 0.40277 0.0
H1042 H 0.55473 0.52089 0.49836 0.0
H1043 H 0.56334 0.51405 0.46239 0.0
H1044 H 0.61436 0.4784 0.44913 0.0
C1045 C 0.63835 0.49335 0.37807 0.0
C1046 C 0.60295 0.52182 0.41246 0.0
C1047 C 0.64523 0.49235 0.35786 0.0
C1048 C 0.57045 0.5177 0.4945 0.0
C1049 C 0.57535 0.5139 0.47393 0.0
C1050 C 0.61109 0.49059 0.43899 0.0
C1051 C 0.62012 0.5031 0.38317 0.0
C1052 C 0.61304 0.50448 0.40488 0.0
C1053 C 0.59565 0.5103 0.46826 0.0
C1054 C 0.60111 0.50792 0.44639 0.0
H1055 H 0.60748 0.51825 0.33543 0.0
H1056 H 0.59474 0.51917 0.37056 0.0
H1057 H 0.62405 0.47495 0.41313 0.0
H1058 H 0.6183 0.51482 0.51545 0.0
H1059 H 0.6267 0.50744 0.47943 0.0
C1060 C 0.18383 0.40087 0.01949 0.0
C1061 C 0.18805 0.38206 0.0096 0.0
C1062 C 0.16371 0.40751 0.02012 0.0
C1063 C 0.11152 0.3966 0.99653 0.0
H1064 H 0.09367 0.42709 0.04493 0.0
C1065 C 0.02635 0.4076 0.01892 0.0
C1066 C 0.0213 0.4279 0.02393 0.0
C1067 C 0.04681 0.40285 0.01555 0.0
C1068 C 0.09853 0.41871 0.03127 0.0
H1069 H 0.17467 0.35519 0.99306 0.0
H1070 H 0.13956 0.36619 0.9949 0.0
H1071 H 0.12919 0.41709 0.04264 0.0
H1072 H 0.03374 0.45915 0.02914 0.0
H1073 H 0.0695 0.45068 0.02374 0.0
H1074 H 0.0804 0.39751 0.98574 0.0
C1075 C 0.15171 0.37634 0.00148 0.0
C1076 C 0.11892 0.41306 0.02985 0.0
C1077 C 0.17183 0.36993 0.00052 0.0
C1078 C 0.0371 0.44338 0.0252 0.0
C1079 C 0.05757 0.43855 0.02224 0.0
C1080 C 0.09103 0.40191 0.99815 0.0
C1081 C 0.14733 0.39526 0.01124 0.0
C1082 C 0.12572 0.40187 0.01248 0.0
C1083 C 0.06261 0.41824 0.01754 0.0
C1084 C 0.08437 0.41298 0.01554 0.0
H1085 H 0.19614 0.41054 0.02651 0.0
H1086 H 0.16108 0.42233 0.02746 0.0
H1087 H 0.11619 0.38842 0.98269 0.0
H1088 H 0.01452 0.39536 0.01782 0.0
H1089 H 0.05037 0.38705 0.01202 0.0
C1090 C 0.1785 0.63234 0.48631 0.0
C1091 C 0.19282 0.6187 0.493 0.0
C1092 C 0.15788 0.6259 0.4839 0.0
C1093 C 0.1242 0.57969 0.47529 0.0
H1094 H 0.08138 0.61596 0.49227 0.0
C1095 C 0.03815 0.55509 0.46855 0.0
C1096 C 0.02527 0.56953 0.46052 0.0
C1097 C 0.05839 0.56075 0.47421 0.0
C1098 C 0.09317 0.60573 0.48733 0.0
H1099 H 0.19743 0.58787 0.5024 0.0
H1100 H 0.16112 0.57643 0.49829 0.0
H1101 H 0.11732 0.62638 0.49908 0.0
H1102 H 0.02352 0.60135 0.45243 0.0
H1103 H 0.05889 0.61112 0.46213 0.0
H1104 H 0.10008 0.55917 0.46328 0.0
C1105 C 0.16579 0.59205 0.4948 0.0
C1106 C 0.11373 0.61169 0.49123 0.0
C1107 C 0.18644 0.59854 0.49724 0.0
C1108 C 0.033 0.58983 0.45858 0.0
C1109 C 0.05324 0.59548 0.46425 0.0
C1110 C 0.10363 0.57374 0.47138 0.0
C1111 C 0.1513 0.60568 0.4881 0.0
C1112 C 0.12946 0.59883 0.48505 0.0
C1113 C 0.06619 0.58096 0.47199 0.0
C1114 C 0.08792 0.5868 0.47716 0.0
H1115 H 0.18332 0.64794 0.4829 0.0
H1116 H 0.14715 0.63665 0.47841 0.0
H1117 H 0.136 0.56958 0.47012 0.0
H1118 H 0.03267 0.53934 0.47034 0.0
H1119 H 0.06794 0.54929 0.48037 0.0
C1120 C 0.83081 0.84311 0.49183 0.0
C1121 C 0.81697 0.85787 0.49812 0.0
C1122 C 0.85141 0.84883 0.48853 0.0
C1123 C 0.89112 0.8895 0.50139 0.0
H1124 H 0.91843 0.86702 0.45345 0.0
C1125 C 0.97037 0.92091 0.4744 0.0
C1126 C 0.98417 0.90676 0.46639 0.0
C1127 C 0.9503 0.91452 0.47933 0.0
C1128 C 0.91113 0.87321 0.46707 0.0
H1129 H 0.81326 0.89004 0.50566 0.0
H1130 H 0.84943 0.90024 0.49985 0.0
H1131 H 0.88263 0.85683 0.45974 0.0
H1132 H 0.98781 0.87463 0.45788 0.0
H1133 H 0.95288 0.86347 0.46675 0.0
H1134 H 0.91963 0.90592 0.5087 0.0
C1135 C 0.84449 0.88421 0.49774 0.0
C1136 C 0.8906 0.8674 0.47065 0.0
C1137 C 0.82386 0.87846 0.50098 0.0
C1138 C 0.97756 0.88597 0.4639 0.0
C1139 C 0.9575 0.87958 0.46887 0.0
C1140 C 0.91168 0.89529 0.49784 0.0
C1141 C 0.85848 0.86945 0.49147 0.0
C1142 C 0.88035 0.87552 0.48781 0.0
C1143 C 0.94356 0.89382 0.47641 0.0
C1144 C 0.9219 0.88725 0.4806 0.0
H1145 H 0.82566 0.82712 0.48958 0.0
H1146 H 0.86184 0.83708 0.48392 0.0
H1147 H 0.88372 0.89579 0.51491 0.0
H1148 H 0.97491 0.93705 0.47649 0.0
H1149 H 0.93989 0.92592 0.4849 0.0
C1150 C 0.34122 0.59704 0.50107 0.0
C1151 C 0.3344 0.61426 0.51225 0.0
C1152 C 0.36043 0.58933 0.50536 0.0
C1153 C 0.4008 0.5915 0.54608 0.0
H1154 H 0.43617 0.57222 0.50247 0.0
C1155 C 0.48736 0.58462 0.55746 0.0
C1156 C 0.49563 0.56584 0.55136 0.0
C1157 C 0.46732 0.58885 0.55199 0.0
C1158 C 0.42633 0.57738 0.51478 0.0
H1159 H 0.34264 0.63742 0.53599 0.0
H1160 H 0.37611 0.62441 0.54315 0.0
H1161 H 0.4016 0.58277 0.4942 0.0
H1162 H 0.4895 0.53699 0.53418 0.0
H1163 H 0.45439 0.54467 0.52425 0.0
H1164 H 0.42579 0.58683 0.56652 0.0
C1165 C 0.36647 0.61631 0.53159 0.0
C1166 C 0.40652 0.58335 0.51009 0.0
C1167 C 0.34729 0.62384 0.52746 0.0
C1168 C 0.48354 0.55157 0.53919 0.0
C1169 C 0.46351 0.55596 0.53344 0.0
C1170 C 0.42061 0.5858 0.55069 0.0
C1171 C 0.37324 0.59883 0.52078 0.0
C1172 C 0.39366 0.59085 0.52567 0.0
C1173 C 0.45516 0.57452 0.54007 0.0
C1174 C 0.43367 0.57899 0.53508 0.0
H1175 H 0.33155 0.58934 0.48928 0.0
H1176 H 0.36508 0.57576 0.49683 0.0
H1177 H 0.39115 0.59663 0.55855 0.0
H1178 H 0.49622 0.59596 0.56686 0.0
H1179 H 0.46129 0.60337 0.55711 0.0
C1180 C 0.53752 0.67504 0.88371 0.0
C1181 C 0.51878 0.68437 0.88744 0.0
C1182 C 0.54114 0.65583 0.89127 0.0
C1183 C 0.52116 0.61672 0.9274 0.0
H1184 H 0.55219 0.58052 0.89215 0.0
C1185 C 0.5456 0.53735 0.95278 0.0
C1186 C 0.5473 0.52154 0.9377 0.0
C1187 C 0.54137 0.55722 0.94728 0.0
C1188 C 0.54322 0.59025 0.9021 0.0
H1189 H 0.48954 0.68089 0.90308 0.0
H1190 H 0.49537 0.64697 0.9152 0.0
H1191 H 0.54632 0.6149 0.88174 0.0
H1192 H 0.5449 0.5139 0.90512 0.0
H1193 H 0.53659 0.54818 0.89558 0.0
H1194 H 0.51717 0.59159 0.94725 0.0
C1195 C 0.50749 0.6547 0.90675 0.0
C1196 C 0.54019 0.61024 0.89629 0.0
C1197 C 0.504 0.67411 0.89948 0.0
C1198 C 0.54392 0.52582 0.91708 0.0
C1199 C 0.53932 0.54557 0.91161 0.0
C1200 C 0.52392 0.59658 0.93307 0.0
C1201 C 0.52599 0.64513 0.90246 0.0
C1202 C 0.52922 0.62383 0.9089 0.0
C1203 C 0.5384 0.56167 0.92658 0.0
C1204 C 0.53504 0.58306 0.92051 0.0
H1205 H 0.54925 0.68221 0.87434 0.0
H1206 H 0.5558 0.64926 0.88806 0.0
H1207 H 0.51282 0.62675 0.93765 0.0
H1208 H 0.54826 0.53455 0.9688 0.0
H1209 H 0.54106 0.56919 0.95925 0.0
C1210 C 0.48774 0.83735 0.85699 0.0
C1211 C 0.49449 0.82368 0.8713 0.0
C1212 C 0.4865 0.85819 0.86247 0.0
C1213 C 0.50766 0.8979 0.89971 0.0
H1214 H 0.46246 0.92919 0.88119 0.0
C1215 C 0.49457 0.98096 0.92963 0.0
C1216 C 0.48709 0.99479 0.91575 0.0
C1217 C 0.49639 0.96027 0.92377 0.0
C1218 C 0.47535 0.92075 0.88625 0.0
H1219 H 0.50465 0.8205 0.90252 0.0
H1220 H 0.50232 0.857 0.91232 0.0
H1221 H 0.46287 0.89256 0.8723 0.0
H1222 H 0.47645 0.99776 0.88448 0.0
H1223 H 0.47993 0.96179 0.87421 0.0
H1224 H 0.52015 0.92608 0.91366 0.0
C1225 C 0.49828 0.85177 0.89679 0.0
C1226 C 0.47555 0.89973 0.88119 0.0
C1227 C 0.49947 0.83092 0.8913 0.0
C1228 C 0.48219 0.98756 0.89563 0.0
C1229 C 0.48401 0.96687 0.88977 0.0
C1230 C 0.50748 0.91893 0.90475 0.0
C1231 C 0.49202 0.86571 0.88236 0.0
C1232 C 0.49169 0.88804 0.88789 0.0
C1233 C 0.49079 0.9529 0.90387 0.0
C1234 C 0.49131 0.93062 0.8981 0.0
H1235 H 0.48393 0.83197 0.84145 0.0
H1236 H 0.4818 0.86851 0.85094 0.0
H1237 H 0.52051 0.88943 0.90482 0.0
H1238 H 0.49845 0.98594 0.94527 0.0
H1239 H 0.5015 0.94992 0.93508 0.0
C1240 C 0.53353 0.32397 0.6584 0.0
C1241 C 0.52866 0.30893 0.64299 0.0
C1242 C 0.53516 0.34469 0.65372 0.0
C1243 C 0.51828 0.38045 0.61547 0.0
H1244 H 0.56168 0.41684 0.63916 0.0
C1245 C 0.53509 0.46288 0.58868 0.0
C1246 C 0.54135 0.47818 0.60353 0.0
C1247 C 0.53248 0.44237 0.59393 0.0
C1248 C 0.54927 0.40696 0.63265 0.0
H1249 H 0.52245 0.30318 0.61064 0.0
H1250 H 0.52536 0.33947 0.60229 0.0
H1251 H 0.56004 0.38068 0.64725 0.0
H1252 H 0.54888 0.48396 0.63575 0.0
H1253 H 0.54398 0.44829 0.64492 0.0
H1254 H 0.50749 0.40672 0.60088 0.0
C1255 C 0.52756 0.3354 0.61805 0.0
C1256 C 0.54838 0.38622 0.63725 0.0
C1257 C 0.52599 0.31469 0.62274 0.0
C1258 C 0.54419 0.47258 0.62389 0.0
C1259 C 0.54153 0.45209 0.62913 0.0
C1260 C 0.51914 0.40121 0.61091 0.0
C1261 C 0.53196 0.35065 0.63352 0.0
C1262 C 0.53291 0.37271 0.62866 0.0
C1263 C 0.53601 0.43668 0.61414 0.0
C1264 C 0.53468 0.41471 0.61941 0.0
H1265 H 0.53564 0.3197 0.67411 0.0
H1266 H 0.53842 0.35606 0.66601 0.0
H1267 H 0.50597 0.3705 0.60887 0.0
H1268 H 0.53282 0.46661 0.57284 0.0
H1269 H 0.5284 0.43089 0.58196 0.0
C1270 C 0.51225 0.16943 0.59357 0.0
C1271 C 0.52172 0.17035 0.61299 0.0
C1272 C 0.51137 0.15106 0.58167 0.0
C1273 C 0.5292 0.09699 0.5803 0.0
H1274 H 0.47437 0.08414 0.55852 0.0
C1275 C 0.48609 0.01773 0.5795 0.0
C1276 C 0.47779 0.01022 0.56061 0.0
C1277 C 0.49515 0.03755 0.58142 0.0
C1278 C 0.48984 0.08762 0.56425 0.0
H1279 H 0.53958 0.15353 0.63419 0.0
H1280 H 0.53714 0.12152 0.61424 0.0
H1281 H 0.48441 0.11941 0.56898 0.0
H1282 H 0.47251 0.01743 0.5289 0.0
H1283 H 0.48766 0.05245 0.53258 0.0
H1284 H 0.53374 0.06466 0.57713 0.0
C1285 C 0.53057 0.13479 0.60783 0.0
C1286 C 0.49572 0.10787 0.57011 0.0
C1287 C 0.53167 0.15313 0.61953 0.0
C1288 C 0.47886 0.02281 0.54363 0.0
C1289 C 0.48749 0.04278 0.54569 0.0
C1290 C 0.52313 0.07667 0.57488 0.0
C1291 C 0.51979 0.13328 0.58906 0.0
C1292 C 0.51524 0.11272 0.57887 0.0
C1293 C 0.49564 0.05028 0.56459 0.0
C1294 C 0.50323 0.07183 0.56734 0.0
H1295 H 0.50457 0.18251 0.58805 0.0
H1296 H 0.50336 0.1506 0.56707 0.0
H1297 H 0.54455 0.10019 0.58643 0.0
H1298 H 0.48555 0.00831 0.59279 0.0
H1299 H 0.50119 0.04318 0.5962 0.0
C1300 C 0.87681 0.49338 0.65506 0.0
C1301 C 0.88906 0.50147 0.67147 0.0
C1302 C 0.8841 0.49373 0.63502 0.0
C1303 C 0.9238 0.51999 0.60346 0.0
H1304 H 0.90515 0.47827 0.56259 0.0
C1305 C 0.95174 0.51823 0.5195 0.0
C1306 C 0.93564 0.51887 0.50513 0.0
C1307 C 0.94756 0.51404 0.53991 0.0
C1308 C 0.91048 0.48997 0.5739 0.0
H1309 H 0.91871 0.51573 0.68006 0.0
H1310 H 0.93193 0.51562 0.6451 0.0
H1311 H 0.89585 0.47444 0.59843 0.0
H1312 H 0.90265 0.51477 0.50065 0.0
H1313 H 0.89543 0.50688 0.53629 0.0
H1314 H 0.93875 0.53522 0.57877 0.0
C1315 C 0.91641 0.50956 0.64755 0.0
C1316 C 0.90506 0.4879 0.59441 0.0
C1317 C 0.90894 0.50954 0.66759 0.0
C1318 C 0.91536 0.51445 0.5114 0.0
C1319 C 0.91123 0.50985 0.53172 0.0
C1320 C 0.92953 0.52182 0.58301 0.0
C1321 C 0.90399 0.50188 0.63095 0.0
C1322 C 0.9113 0.5031 0.60942 0.0
C1323 C 0.92726 0.50998 0.5462 0.0
C1324 C 0.92262 0.50702 0.56803 0.0
H1325 H 0.8613 0.48733 0.65766 0.0
H1326 H 0.87386 0.48812 0.62271 0.0
H1327 H 0.92863 0.5322 0.61441 0.0
H1328 H 0.96752 0.52165 0.51514 0.0
H1329 H 0.96015 0.51416 0.55083 0.0
C1330 C 0.10778 0.00897 0.66891 0.0
C1331 C 0.12872 0.01507 0.67031 0.0
C1332 C 0.09799 0.00674 0.64979 0.0
C1333 C 0.1053 0.01672 0.5942 0.0
H1334 H 0.07039 0.96716 0.58638 0.0
C1335 C 0.09317 0.97198 0.51691 0.0
C1336 C 0.07284 0.9661 0.51121 0.0
C1337 C 0.09751 0.98093 0.53633 0.0
C1338 C 0.07988 0.9812 0.58842 0.0
H1339 H 0.15575 0.02401 0.65299 0.0
H1340 H 0.13899 0.01958 0.61975 0.0
H1341 H 0.08206 0.97817 0.62077 0.0
H1342 H 0.04112 0.96495 0.52134 0.0
H1343 H 0.0489 0.98009 0.55555 0.0
H1344 H 0.10404 0.01887 0.56155 0.0
C1345 C 0.12983 0.01709 0.63329 0.0
C1346 C 0.08648 0.98761 0.60813 0.0
C1347 C 0.13951 0.01956 0.65237 0.0
C1348 C 0.05694 0.96935 0.5253 0.0
C1349 C 0.06135 0.97797 0.54485 0.0
C1350 C 0.09896 0.0101 0.57447 0.0
C1351 C 0.10905 0.01028 0.63171 0.0
C1352 C 0.09967 0.0052 0.61122 0.0
C1353 C 0.08166 0.98384 0.55049 0.0
C1354 C 0.08654 0.99208 0.57142 0.0
H1355 H 0.09909 0.00562 0.68257 0.0
H1356 H 0.08187 0.00183 0.64916 0.0
H1357 H 0.11505 0.03059 0.59606 0.0
H1358 H 0.1057 0.96976 0.50633 0.0
H1359 H 0.11333 0.98515 0.54046 0.0
C1360 C 0.87286 0.49694 0.82996 0.0
C1361 C 0.88729 0.50042 0.8145 0.0
C1362 C 0.87926 0.49609 0.85034 0.0
C1363 C 0.92445 0.487 0.8824 0.0
H1364 H 0.89189 0.51165 0.92559 0.0
C1365 C 0.94824 0.48575 0.96775 0.0
C1366 C 0.93245 0.47977 0.98119 0.0
C1367 C 0.94365 0.4907 0.94764 0.0
C1368 C 0.9011 0.50461 0.91371 0.0
H1369 H 0.91954 0.50547 0.80775 0.0
H1370 H 0.9309 0.50418 0.84355 0.0
H1371 H 0.88218 0.51524 0.88983 0.0
H1372 H 0.89939 0.47506 0.98417 0.0
H1373 H 0.89147 0.4836 0.9492 0.0
H1374 H 0.9432 0.47613 0.90631 0.0
C1375 C 0.91467 0.50199 0.83998 0.0
C1376 C 0.89551 0.50663 0.89322 0.0
C1377 C 0.90823 0.50284 0.81957 0.0
C1378 C 0.91195 0.47957 0.97426 0.0
C1379 C 0.90738 0.48459 0.95421 0.0
C1380 C 0.93005 0.485 0.9029 0.0
C1381 C 0.90023 0.49867 0.85562 0.0
C1382 C 0.90694 0.49759 0.87734 0.0
C1383 C 0.92318 0.48989 0.94056 0.0
C1384 C 0.91826 0.49353 0.9188 0.0
H1385 H 0.85663 0.49495 0.82624 0.0
H1386 H 0.86778 0.49315 0.86194 0.0
H1387 H 0.93346 0.47967 0.87055 0.0
H1388 H 0.9642 0.4861 0.97258 0.0
H1389 H 0.95615 0.49497 0.93755 0.0
C1390 C 0.12834 0.0101 0.8171 0.0
C1391 C 0.14874 0.01412 0.81121 0.0
C1392 C 0.123 0.01142 0.8378 0.0
C1393 C 0.14535 0.01213 0.89026 0.0
H1394 H 0.09437 0.03688 0.90551 0.0
C1395 C 0.12598 0.03839 0.97348 0.0
C1396 C 0.10557 0.03513 0.97997 0.0
C1397 C 0.13136 0.03397 0.95311 0.0
C1398 C 0.10852 0.02968 0.90149 0.0
H1399 H 0.17952 0.02303 0.82181 0.0
H1400 H 0.17022 0.02577 0.85806 0.0
H1401 H 0.10344 0.03314 0.86947 0.0
H1402 H 0.07499 0.02389 0.97024 0.0
H1403 H 0.08442 0.01614 0.93482 0.0
H1404 H 0.15054 0.00903 0.92241 0.0
C1405 C 0.15839 0.02111 0.84686 0.0
C1406 C 0.11373 0.02752 0.88082 0.0
C1407 C 0.16371 0.01971 0.82617 0.0
C1408 C 0.09083 0.0267 0.96578 0.0
C1409 C 0.09619 0.02237 0.94543 0.0
C1410 C 0.14017 0.01437 0.91097 0.0
C1411 C 0.13796 0.01697 0.85294 0.0
C1412 C 0.13223 0.01879 0.87494 0.0
C1413 C 0.11643 0.02628 0.93878 0.0
C1414 C 0.12172 0.02321 0.91681 0.0
H1415 H 0.11658 0.00593 0.80568 0.0
H1416 H 0.10718 0.00795 0.84195 0.0
H1417 H 0.15956 0.00505 0.88626 0.0
H1418 H 0.13774 0.04484 0.98398 0.0
H1419 H 0.14705 0.03728 0.94843 0.0
C1420 C 0.66892 0.88069 0.50625 0.0
C1421 C 0.67471 0.86443 0.51816 0.0
C1422 C 0.64896 0.88766 0.50736 0.0
C1423 C 0.6023 0.88607 0.53978 0.0
H1424 H 0.57434 0.89899 0.48964 0.0
C1425 C 0.51515 0.89445 0.53683 0.0
C1426 C 0.50823 0.91196 0.52757 0.0
C1427 C 0.53552 0.88902 0.53474 0.0
C1428 C 0.58204 0.89559 0.50377 0.0
H1429 H 0.66408 0.84261 0.54038 0.0
H1430 H 0.62935 0.85458 0.54219 0.0
H1431 H 0.61019 0.88949 0.48839 0.0
H1432 H 0.51715 0.93698 0.50807 0.0
H1433 H 0.55278 0.92732 0.50432 0.0
H1434 H 0.57406 0.89178 0.55508 0.0
C1435 C 0.64028 0.86232 0.53235 0.0
C1436 C 0.60258 0.89023 0.50309 0.0
C1437 C 0.66021 0.85544 0.53132 0.0
C1438 C 0.52197 0.92342 0.51545 0.0
C1439 C 0.54236 0.91788 0.51324 0.0
C1440 C 0.58178 0.89126 0.54042 0.0
C1441 C 0.63436 0.87845 0.52032 0.0
C1442 C 0.61289 0.88523 0.52108 0.0
C1443 C 0.54942 0.90088 0.52324 0.0
C1444 C 0.57137 0.89589 0.52241 0.0
H1445 H 0.67983 0.88802 0.49609 0.0
H1446 H 0.64499 0.90032 0.49811 0.0
H1447 H 0.60988 0.88274 0.55399 0.0
H1448 H 0.50501 0.8852 0.5462 0.0
H1449 H 0.54047 0.87564 0.54234 0.0
C1450 C 0.69889 0.11528 -0.0001 0.0
C1451 C 0.7057 0.1356 0.99688 0.0
C1452 C 0.6779 0.10974 0.99879 0.0
C1453 C 0.6306 0.12632 0.97503 0.0
H1454 H 0.60311 0.08763 0.01049 0.0
C1455 C 0.54372 0.1087 0.9692 0.0
C1456 C 0.53692 0.08794 0.96939 0.0
C1457 C 0.56395 0.1147 0.97448 0.0
C1458 C 0.61065 0.09834 0.00039 0.0
H1459 H 0.69657 0.16623 0.99099 0.0
H1460 H 0.65979 0.15674 0.98938 0.0
H1461 H 0.6393 0.09798 0.01668 0.0
H1462 H 0.54598 0.05726 0.97584 0.0
H1463 H 0.58147 0.06777 0.98484 0.0
H1464 H 0.60219 0.12657 0.95859 0.0
C1465 C 0.67051 0.14498 0.99232 0.0
C1466 C 0.63133 0.10426 0.00394 0.0
C1467 C 0.69145 0.15047 0.99337 0.0
C1468 C 0.55072 0.07338 0.97551 0.0
C1469 C 0.57102 0.0794 0.98078 0.0
C1470 C 0.61 0.12042 0.9715 0.0
C1471 C 0.66352 0.12448 0.99458 0.0
C1472 C 0.6415 0.11835 0.9913 0.0
C1473 C 0.57791 0.10009 0.98003 0.0
C1474 C 0.59977 0.10639 0.98414 0.0
H1475 H 0.70984 0.10364 0.00242 0.0
H1476 H 0.67301 0.0938 0.0004 0.0
H1477 H 0.63811 0.13684 0.96473 0.0
H1478 H 0.53347 0.12037 0.96476 0.0
H1479 H 0.56871 0.13081 0.97411 0.0
C1480 C 0.33899 0.40231 0.00899 0.0
C1481 C 0.33278 0.38172 0.00475 0.0
C1482 C 0.35978 0.40859 0.00801 0.0
C1483 C 0.41204 0.3885 0.00846 0.0
H1484 H 0.42756 0.4395 0.98297 0.0
C1485 C 0.49466 0.40882 0.98208 0.0
C1486 C 0.5022 0.42931 0.98476 0.0
C1487 C 0.47423 0.40336 0.98656 0.0
C1488 C 0.42348 0.42537 0.99041 0.0
H1489 H 0.34284 0.35155 0.99588 0.0
H1490 H 0.3792 0.36248 0.99381 0.0
H1491 H 0.39129 0.42942 0.98659 0.0
H1492 H 0.49426 0.46003 0.99489 0.0
H1493 H 0.45864 0.45043 0.0028 0.0
H1494 H 0.44426 0.38431 0.01197 0.0
C1495 C 0.36822 0.37375 0.9983 0.0
C1496 C 0.40269 0.41958 0.99248 0.0
C1497 C 0.34747 0.3675 -0.00069 0.0
C1498 C 0.48896 0.44411 0.99256 0.0
C1499 C 0.4685 0.43865 0.99699 0.0
C1500 C 0.43283 0.39426 0.00636 0.0
C1501 C 0.37464 0.39437 0.00268 0.0
C1502 C 0.39672 0.40098 0.00135 0.0
C1503 C 0.46084 0.41827 0.99379 0.0
C1504 C 0.43879 0.41268 0.99714 0.0
H1505 H 0.32777 0.41347 0.01312 0.0
H1506 H 0.36423 0.42454 0.01163 0.0
H1507 H 0.40796 0.37425 0.0157 0.0
H1508 H 0.50441 0.39701 0.97611 0.0
H1509 H 0.46875 0.38756 0.98374 0.0
C1510 C 0.86427 0.13877 0.00667 0.0
C1511 C 0.84817 0.12841 0.99543 0.0
C1512 C 0.88365 0.13072 0.00742 0.0
C1513 C 0.91295 0.0853 0.00371 0.0
H1514 H 0.95731 0.12359 0.98898 0.0
C1515 C -0.0012 0.06553 0.00879 0.0
C1516 C 0.01197 0.08114 0.01782 0.0
C1517 C 0.9787 0.06963 0.00306 0.0
C1518 C 0.94515 0.11273 0.99324 0.0
H1519 H 0.83947 0.10074 0.9773 0.0
H1520 H 0.87363 0.08628 0.97911 0.0
H1521 H 0.92179 0.13312 0.98555 0.0
H1522 H 0.01438 0.1134 0.0275 0.0
H1523 H 0.97949 0.12042 0.01783 0.0
H1524 H 0.93637 0.06526 0.01233 0.0
C1525 C 0.87108 0.10086 0.987 0.0
C1526 C 0.92482 0.11816 0.99117 0.0
C1527 C 0.85158 0.10908 0.98604 0.0
C1528 C 0.00473 0.10101 0.02053 0.0
C1529 C 0.98471 0.10508 0.01484 0.0
C1530 C 0.93339 0.0799 0.00599 0.0
C1531 C 0.88738 0.11195 0.99722 0.0
C1532 C 0.90857 0.10473 0.99688 0.0
C1533 C 0.97137 0.08943 0.00619 0.0
C1534 C 0.94972 0.09382 0.0013 0.0
H1535 H 0.86201 0.1534 0.0146 0.0
H1536 H 0.89585 0.13933 0.01581 0.0
H1537 H 0.90064 0.07472 0.00824 0.0
H1538 H 0.00388 0.05005 0.00645 0.0
H1539 H 0.96889 0.05729 0.99625 0.0
C1540 C 0.00781 0.20447 0.23949 0.0
C1541 C 0.01059 0.19632 0.25876 0.0
C1542 C 0.01174 0.19274 0.22167 0.0
C1543 C 0.01814 0.13952 0.20176 0.0
H1544 H 0.04931 0.1662 0.15912 0.0
C1545 C 0.0548 0.09445 0.13426 0.0
C1546 C 0.05433 0.10299 0.11485 0.0
C1547 C 0.04826 0.10552 0.15163 0.0
C1548 C 0.04035 0.15857 0.17074 0.0
H1549 H 0.01913 0.16973 0.27493 0.0
H1550 H 0.02617 0.14908 0.24376 0.0
H1551 H 0.03971 0.18607 0.18968 0.0
H1552 H 0.04614 0.12975 0.09846 0.0
H1553 H 0.03454 0.14888 0.12866 0.0
H1554 H 0.01889 0.11198 0.18282 0.0
C1555 C 0.02079 0.16441 0.2423 0.0
C1556 C 0.03485 0.16997 0.18826 0.0
C1557 C 0.01689 0.17618 0.2601 0.0
C1558 C 0.04686 0.12272 0.11318 0.0
C1559 C 0.0403 0.13376 0.13052 0.0
C1560 C 0.02362 0.12811 0.1842 0.0
C1561 C 0.01848 0.17264 0.22288 0.0
C1562 C 0.02374 0.16057 0.204 0.0
C1563 C 0.04107 0.12537 0.14998 0.0
C1564 C 0.03485 0.1375 0.1685 0.0
H1565 H 0.00289 0.22 0.23826 0.0
H1566 H 0.00955 0.19941 0.20694 0.0
H1567 H 0.00935 0.13189 0.21351 0.0
H1568 H 0.06049 0.0793 0.13612 0.0
H1569 H 0.04928 0.0987 0.16642 0.0
C1570 C 0.98479 0.29789 0.23129 0.0
C1571 C 0.99479 0.30568 0.24924 0.0
C1572 C 0.98257 0.31028 0.21461 0.0
C1573 C 0.00135 0.35953 0.19273 0.0
H1574 H 0.95091 0.35159 0.1609 0.0
C1575 C 0.97453 0.41463 0.13103 0.0
C1576 C 0.96841 0.40504 0.11214 0.0
C1577 C 0.97876 0.4029 0.14786 0.0
C1578 C 0.96511 0.35389 0.1696 0.0
H1579 H 0.01052 0.33236 0.26391 0.0
H1580 H 0.00601 0.35444 0.23498 0.0
H1581 H 0.95618 0.33075 0.19034 0.0
H1582 H 0.96202 0.37562 0.09609 0.0
H1583 H 0.96898 0.35521 0.12563 0.0
H1584 H 0.00981 0.38324 0.17212 0.0
C1585 C 0.0003 0.3386 0.23354 0.0
C1586 C 0.96823 0.34187 0.18641 0.0
C1587 C 0.00283 0.32603 0.25015 0.0
C1588 C 0.96673 0.38348 0.11041 0.0
C1589 C 0.97062 0.37179 0.12732 0.0
C1590 C 0.99805 0.3718 0.17605 0.0
C1591 C 0.98996 0.33092 0.2156 0.0
C1592 C 0.9865 0.34432 0.19808 0.0
C1593 C 0.9766 0.38139 0.1462 0.0
C1594 C 0.98 0.36891 0.16422 0.0
H1595 H 0.97874 0.28212 0.23014 0.0
H1596 H 0.97505 0.30361 0.2009 0.0
H1597 H 0.0157 0.36173 0.20116 0.0
H1598 H 0.97606 0.43121 0.13282 0.0
H1599 H 0.98327 0.41064 0.16231 0.0
C1600 C 0.0116 0.7882 0.2413 0.0
C1601 C 0.02049 0.79567 0.22345 0.0
C1602 C 0.01135 0.80072 0.25915 0.0
C1603 C 0.01672 0.8546 0.27875 0.0
H1604 H 0.03405 0.83027 0.32881 0.0
C1605 C 0.04069 0.90238 0.35235 0.0
C1606 C 0.0353 0.89422 0.37128 0.0
C1607 C 0.03682 0.89089 0.33408 0.0
C1608 C 0.02886 0.83724 0.31505 0.0
H1609 H 0.03556 0.82183 0.20962 0.0
H1610 H 0.03532 0.84387 0.24094 0.0
H1611 H 0.03078 0.80916 0.29728 0.0
H1612 H 0.02079 0.86799 0.38581 0.0
H1613 H 0.01377 0.84817 0.35398 0.0
H1614 H 0.01498 0.88276 0.29657 0.0
C1615 C 0.02839 0.82847 0.24119 0.0
C1616 C 0.027 0.82513 0.29698 0.0
C1617 C 0.02866 0.81591 0.22337 0.0
C1618 C 0.02535 0.87465 0.3715 0.0
C1619 C 0.02141 0.86323 0.35327 0.0
C1620 C 0.01853 0.86673 0.29688 0.0
C1621 C 0.01996 0.82091 0.25934 0.0
C1622 C 0.02102 0.8337 0.27862 0.0
C1623 C 0.02741 0.87106 0.33438 0.0
C1624 C 0.02471 0.85819 0.31521 0.0
H1625 H 0.00516 0.77259 0.24149 0.0
H1626 H 0.00454 0.79458 0.27283 0.0
H1627 H 0.01188 0.86155 0.26485 0.0
H1628 H 0.04839 0.91741 0.35164 0.0
H1629 H 0.0418 0.89728 0.31978 0.0
C1630 C 0.99397 0.68947 0.24652 0.0
C1631 C 0.00502 0.68247 0.22944 0.0
C1632 C 0.98989 0.67669 0.26277 0.0
C1633 C 0.00599 0.62862 0.28581 0.0
H1634 H 0.9552 0.63437 0.31581 0.0
C1635 C 0.97666 0.57473 0.34973 0.0
C1636 C 0.9717 0.58516 0.36821 0.0
C1637 C 0.98095 0.58564 0.33212 0.0
C1638 C 0.96945 0.63264 0.30756 0.0
H1639 H 0.02038 0.65663 0.21578 0.0
H1640 H 0.01262 0.63388 0.24385 0.0
H1641 H 0.96178 0.65471 0.28591 0.0
H1642 H 0.96724 0.61516 0.38264 0.0
H1643 H 0.97422 0.63407 0.35177 0.0
H1644 H 0.01322 0.60604 0.3074 0.0
C1645 C 0.00754 0.64944 0.24501 0.0
C1646 C 0.97333 0.64439 0.2905 0.0
C1647 C 0.01192 0.6624 0.22887 0.0
C1648 C 0.97108 0.60668 0.36868 0.0
C1649 C 0.97496 0.61751 0.35101 0.0
C1650 C 0.00191 0.61659 0.3027 0.0
C1651 C 0.99646 0.65642 0.2622 0.0
C1652 C 0.99183 0.64284 0.27959 0.0
C1653 C 0.97992 0.6071 0.33258 0.0
C1654 C 0.98375 0.61876 0.3139 0.0
H1655 H 0.98878 0.70501 0.24747 0.0
H1656 H 0.98183 0.68288 0.27591 0.0
H1657 H 0.0205 0.62714 0.27801 0.0
H1658 H 0.97732 0.55816 0.34891 0.0
H1659 H 0.98469 0.5773 0.31804 0.0
C1660 C 0.28243 0.01651 0.17974 0.0
C1661 C 0.27792 0.0111 0.19984 0.0
C1662 C 0.26657 0.0204 0.16611 0.0
C1663 C 0.21257 0.03514 0.16538 0.0
H1664 H 0.21341 0.01558 0.10848 0.0
C1665 C 0.14205 0.03905 0.11282 0.0
C1666 C 0.14517 0.0452 0.09263 0.0
C1667 C 0.15865 0.03475 0.12526 0.0
C1668 C 0.21308 0.02135 0.12427 0.0
H1669 H 0.2537 0.00511 0.22159 0.0
H1670 H 0.22582 0.01169 0.19776 0.0
H1671 H 0.24159 0.00809 0.13147 0.0
H1672 H 0.16832 0.05133 0.06963 0.0
H1673 H 0.19743 0.04392 0.09151 0.0
H1674 H 0.18413 0.0484 0.15827 0.0
C1675 C 0.24155 0.01324 0.19253 0.0
C1676 C 0.22921 0.01705 0.13744 0.0
C1677 C 0.25741 0.00934 0.20612 0.0
C1678 C 0.16536 0.04663 0.08509 0.0
C1679 C 0.18203 0.0423 0.0976 0.0
C1680 C 0.19649 0.03944 0.15224 0.0
C1681 C 0.24594 0.01897 0.1724 0.0
C1682 C 0.22905 0.02377 0.1582 0.0
C1683 C 0.17886 0.03649 0.1179 0.0
C1684 C 0.19644 0.03246 0.13157 0.0
H1685 H 0.29824 0.01794 0.1747 0.0
H1686 H 0.27049 0.02496 0.1508 0.0
H1687 H 0.21218 0.04092 0.18116 0.0
H1688 H 0.12673 0.03762 0.11914 0.0
H1689 H 0.15562 0.02993 0.14068 0.0
C1690 C 0.7401 0.48029 0.16879 0.0
C1691 C 0.74103 0.49589 0.18439 0.0
C1692 C 0.75655 0.47775 0.1554 0.0
C1693 C 0.80184 0.50299 0.13303 0.0
H1694 H 0.8249 0.44921 0.1322 0.0
C1695 C 0.86693 0.47603 0.07834 0.0
C1696 C 0.88377 0.46815 0.08848 0.0
C1697 C 0.84897 0.48033 0.08907 0.0
C1698 C 0.81856 0.46426 0.13225 0.0
H1699 H 0.76 0.52155 0.19741 0.0
H1700 H 0.78824 0.51754 0.17346 0.0
H1701 H 0.79374 0.45535 0.1519 0.0
H1702 H 0.89492 0.45853 0.11778 0.0
H1703 H 0.86333 0.4655 0.1363 0.0
H1704 H 0.82666 0.5118 0.1132 0.0
C1705 C 0.77476 0.50721 0.17183 0.0
C1706 C 0.80071 0.46774 0.14339 0.0
C1707 C 0.75848 0.50954 0.18549 0.0
C1708 C 0.88227 0.46467 0.10954 0.0
C1709 C 0.86418 0.46855 0.12013 0.0
C1710 C 0.81949 0.49938 0.12151 0.0
C1711 C 0.77414 0.49102 0.15698 0.0
C1712 C 0.79231 0.48718 0.14407 0.0
C1713 C 0.84737 0.47639 0.10999 0.0
C1714 C 0.82813 0.48005 0.12126 0.0
H1715 H 0.72677 0.46979 0.16704 0.0
H1716 H 0.75562 0.46528 0.14389 0.0
H1717 H 0.79563 0.5181 0.13331 0.0
H1718 H 0.86765 0.47893 0.06214 0.0
H1719 H 0.83616 0.48632 0.08093 0.0
C1720 C 0.25015 0.01308 0.31526 0.0
C1721 C 0.26725 0.00116 0.31813 0.0
C1722 C 0.23308 0.01107 0.32801 0.0
C1723 C 0.21455 0.99195 0.37722 0.0
H1724 H 0.16331 0.98031 0.34754 0.0
C1725 C 0.14216 0.9558 0.41511 0.0
C1726 C 0.12279 0.96124 0.40815 0.0
C1727 C 0.16007 0.96295 0.40546 0.0
C1728 C 0.17734 0.98394 0.35618 0.0
H1729 H 0.2805 0.97878 0.33726 0.0
H1730 H 0.25067 0.97537 0.35966 0.0
H1731 H 0.19424 0.9898 0.32888 0.0
H1732 H 0.10703 0.97924 0.38631 0.0
H1733 H 0.13817 0.99226 0.36999 0.0
H1734 H 0.19764 0.98614 0.40457 0.0
C1735 C 0.25045 0.98619 0.34753 0.0
C1736 C 0.1951 0.98934 0.34544 0.0
C1737 C 0.26742 0.98802 0.33463 0.0
C1738 C 0.12172 0.97452 0.39183 0.0
C1739 C 0.1396 0.9819 0.3824 0.0
C1740 C 0.19669 0.98678 0.38805 0.0
C1741 C 0.23291 0.99729 0.34399 0.0
C1742 C 0.21391 0.99319 0.3558 0.0
C1743 C 0.159 0.97593 0.38883 0.0
C1744 C 0.17789 0.9825 0.37763 0.0
H1745 H 0.24958 0.02324 0.30258 0.0
H1746 H 0.2198 0.01993 0.32507 0.0
H1747 H 0.22886 0.99497 0.38558 0.0
H1748 H 0.14347 0.94554 0.42763 0.0
H1749 H 0.1747 0.95779 0.41068 0.0
C1750 C 0.75912 0.4903 0.29608 0.0
C1751 C 0.73951 0.49435 0.30342 0.0
C1752 C 0.77579 0.49055 0.30963 0.0
C1753 C 0.79279 0.51361 0.35928 0.0
H1754 H 0.83733 0.47654 0.35274 0.0
C1755 C 0.86536 0.52184 0.41035 0.0
C1756 C 0.88406 0.52114 0.39974 0.0
C1757 C 0.84686 0.51577 0.40046 0.0
C1758 C 0.82501 0.48702 0.35471 0.0
H1759 H 0.7214 0.50123 0.33027 0.0
H1760 H 0.75057 0.50153 0.35419 0.0
H1761 H 0.80616 0.47064 0.33194 0.0
H1762 H 0.89801 0.51298 0.37057 0.0
H1763 H 0.86576 0.50265 0.35333 0.0
H1764 H 0.81179 0.53029 0.38165 0.0
C1765 C 0.75319 0.49837 0.33802 0.0
C1766 C 0.8072 0.48365 0.34281 0.0
C1767 C 0.73653 0.49811 0.32445 0.0
C1768 C 0.8839 0.51377 0.3792 0.0
C1769 C 0.86542 0.50767 0.36935 0.0
C1770 C 0.81058 0.51697 0.37117 0.0
C1771 C 0.77305 0.4949 0.3307 0.0
C1772 C 0.79106 0.49714 0.34472 0.0
C1773 C 0.84669 0.50883 0.3798 0.0
C1774 C 0.82703 0.50393 0.36874 0.0
H1775 H 0.76158 0.48746 0.27983 0.0
H1776 H 0.79094 0.4881 0.30349 0.0
H1777 H 0.78075 0.52445 0.3609 0.0
H1778 H 0.86495 0.52734 0.42622 0.0
H1779 H 0.83266 0.51663 0.40896 0.0
C1780 C 0.20306 0.27796 0.01596 0.0
C1781 C 0.22382 0.27566 0.0113 0.0
C1782 C 0.18966 0.2607 0.01714 0.0
C1783 C 0.18392 0.20556 0.00152 0.0
H1784 H 0.14523 0.20334 0.04641 0.0
C1785 C 0.14199 0.13046 0.0248 0.0
C1786 C 0.12131 0.13116 0.03075 0.0
C1787 C 0.15347 0.14847 0.02095 0.0
C1788 C 0.15573 0.20384 0.03361 0.0
H1789 H 0.24711 0.25403 0.0041 0.0
H1790 H 0.22378 0.22366 0.00638 0.0
H1791 H 0.16734 0.23411 0.04259 0.0
H1792 H 0.09636 0.1514 0.0369 0.0
H1793 H 0.11644 0.18288 0.03007 0.0
H1794 H 0.1725 0.17514 0.99273 0.0
C1795 C 0.2177 0.23871 0.00885 0.0
C1796 C 0.16841 0.22147 0.03143 0.0
C1797 C 0.23107 0.25599 0.00767 0.0
C1798 C 0.11227 0.1503 0.0324 0.0
C1799 C 0.12379 0.16835 0.0286 0.0
C1800 C 0.17126 0.18792 0.00372 0.0
C1801 C 0.19685 0.24087 0.01367 0.0
C1802 C 0.18278 0.22246 0.01546 0.0
C1803 C 0.14456 0.16763 0.02298 0.0
C1804 C 0.15716 0.18679 0.01991 0.0
H1805 H 0.19727 0.29312 0.0187 0.0
H1806 H 0.17366 0.26289 0.02063 0.0
H1807 H 0.19457 0.20597 0.98884 0.0
H1808 H 0.14947 0.11599 0.02337 0.0
H1809 H 0.1695 0.14742 0.01688 0.0
C1810 C 0.19436 0.74742 0.49491 0.0
C1811 C 0.19047 0.72867 0.48387 0.0
C1812 C 0.18209 0.76404 0.49195 0.0
C1813 C 0.13117 0.77785 0.47454 0.0
H1814 H 0.15799 0.83133 0.46714 0.0
C1815 C 0.08615 0.84813 0.45203 0.0
C1816 C 0.09302 0.86764 0.45994 0.0
C1817 C 0.09753 0.83089 0.45529 0.0
C1818 C 0.15019 0.8166 0.46952 0.0
H1819 H 0.17051 0.71255 0.46126 0.0
H1820 H 0.14885 0.74168 0.45619 0.0
H1821 H 0.17869 0.80181 0.47206 0.0
H1822 H 0.11687 0.88418 0.47815 0.0
H1823 H 0.13632 0.85411 0.4844 0.0
H1824 H 0.10265 0.79265 0.47242 0.0
C1825 C 0.16145 0.74344 0.46712 0.0
C1826 C 0.1621 0.79966 0.47223 0.0
C1827 C 0.17391 0.72685 0.4699 0.0
C1828 C 0.11122 0.86942 0.47167 0.0
C1829 C 0.12248 0.85215 0.47513 0.0
C1830 C 0.11922 0.79486 0.47204 0.0
C1831 C 0.16552 0.76226 0.47802 0.0
C1832 C 0.15273 0.78011 0.4748 0.0
C1833 C 0.11596 0.83269 0.46673 0.0
C1834 C 0.12858 0.81449 0.46952 0.0
H1835 H 0.20713 0.74936 0.50562 0.0
H1836 H 0.18549 0.77829 0.50068 0.0
H1837 H 0.12354 0.76299 0.4767 0.0
H1838 H 0.07225 0.84622 0.44282 0.0
H1839 H 0.09213 0.81625 0.44835 0.0
C1840 C 0.83542 0.75017 0.4807 0.0
C1841 C 0.82464 0.75289 0.49915 0.0
C1842 C 0.84873 0.73414 0.47798 0.0
C1843 C 0.85877 0.68339 0.49825 0.0
H1844 H 0.90635 0.68765 0.46301 0.0
C1845 C 0.89657 0.61179 0.46456 0.0
C1846 C 0.91793 0.61246 0.46155 0.0
C1847 C 0.88666 0.62944 0.47091 0.0
C1848 C 0.89331 0.68622 0.47314 0.0
H1849 H 0.82012 0.74116 0.52951 0.0
H1850 H 0.84402 0.71385 0.52511 0.0
H1851 H 0.88753 0.71811 0.47161 0.0
H1852 H 0.94572 0.63216 0.46331 0.0
H1853 H 0.9285 0.66287 0.47495 0.0
H1854 H 0.86483 0.65165 0.50024 0.0
C1855 C 0.84173 0.72377 0.51249 0.0
C1856 C 0.88231 0.70367 0.47785 0.0
C1857 C 0.82823 0.73968 0.51513 0.0
C1858 C 0.92921 0.63115 0.46535 0.0
C1859 C 0.91931 0.64879 0.47192 0.0
C1860 C 0.86989 0.66601 0.49373 0.0
C1861 C 0.85184 0.72052 0.49373 0.0
C1862 C 0.86467 0.70241 0.49016 0.0
C1863 C 0.89787 0.6482 0.47465 0.0
C1864 C 0.88707 0.66709 0.4808 0.0
H1865 H 0.83337 0.76028 0.46818 0.0
H1866 H 0.85606 0.73207 0.46324 0.0
H1867 H 0.84517 0.68171 0.5076 0.0
H1868 H 0.88737 0.5977 0.46163 0.0
H1869 H 0.8701 0.62843 0.47242 0.0
C1870 C 0.2924 0.74391 0.49739 0.0
C1871 C 0.30147 0.72488 0.49713 0.0
C1872 C 0.30466 0.76204 0.49916 0.0
C1873 C 0.35453 0.78134 0.51963 0.0
H1874 H 0.34415 0.82957 0.4891 0.0
C1875 C 0.40671 0.85466 0.52835 0.0
C1876 C 0.39697 0.87343 0.52974 0.0
C1877 C 0.3956 0.83652 0.5226 0.0
C1878 C 0.34711 0.81627 0.49786 0.0
H1879 H 0.33003 0.70937 0.49804 0.0
H1880 H 0.35169 0.74113 0.50108 0.0
H1881 H 0.32372 0.7977 0.48179 0.0
H1882 H 0.36793 0.88788 0.52589 0.0
H1883 H 0.34845 0.85612 0.51621 0.0
H1884 H 0.37756 0.79987 0.53601 0.0
C1885 C 0.33516 0.74213 0.50004 0.0
C1886 C 0.33546 0.79804 0.49364 0.0
C1887 C 0.32289 0.72403 0.49819 0.0
C1888 C 0.37591 0.87368 0.52496 0.0
C1889 C 0.36477 0.8555 0.51928 0.0
C1890 C 0.3661 0.79954 0.5239 0.0
C1891 C 0.32615 0.76131 0.50084 0.0
C1892 C 0.33902 0.78042 0.50454 0.0
C1893 C 0.37447 0.8367 0.51819 0.0
C1894 C 0.36249 0.81724 0.51313 0.0
H1895 H 0.27583 0.7447 0.49669 0.0
H1896 H 0.29729 0.77658 0.49996 0.0
H1897 H 0.35736 0.76811 0.52854 0.0
H1898 H 0.42295 0.85392 0.53175 0.0
H1899 H 0.40359 0.82234 0.52157 0.0
C1900 C 0.50196 0.70822 0.75701 0.0
C1901 C 0.50729 0.70415 0.77719 0.0
C1902 C 0.50495 0.69364 0.74116 0.0
C1903 C 0.51389 0.6387 0.72989 0.0
H1904 H 0.53858 0.65924 0.68041 0.0
C1905 C 0.54599 0.58584 0.66478 0.0
C1906 C 0.54281 0.59168 0.64455 0.0
C1907 C 0.54056 0.5987 0.68141 0.0
C1908 C 0.53143 0.65324 0.694 0.0
H1909 H 0.51937 0.68183 0.79704 0.0
H1910 H 0.52477 0.6562 0.76928 0.0
H1911 H 0.53062 0.68318 0.70843 0.0
H1912 H 0.5306 0.61522 0.62601 0.0
H1913 H 0.52094 0.63729 0.65481 0.0
H1914 H 0.51479 0.60868 0.71535 0.0
C1915 C 0.51812 0.67052 0.76565 0.0
C1916 C 0.52685 0.66699 0.71007 0.0
C1917 C 0.51514 0.68514 0.78149 0.0
C1918 C 0.53353 0.61032 0.64136 0.0
C1919 C 0.52807 0.62307 0.6579 0.0
C1920 C 0.51843 0.62489 0.71373 0.0
C1921 C 0.51336 0.67474 0.74525 0.0
C1922 C 0.51796 0.65992 0.72818 0.0
C1923 C 0.53182 0.61762 0.67813 0.0
C1924 C 0.52717 0.63203 0.69555 0.0
H1925 H 0.49585 0.72284 0.75348 0.0
H1926 H 0.50085 0.69724 0.72566 0.0
H1927 H 0.5069 0.63279 0.7436 0.0
H1928 H 0.55309 0.57158 0.66778 0.0
H1929 H 0.54376 0.5941 0.69681 0.0
C1930 C 0.49756 0.83919 0.762 0.0
C1931 C 0.48759 0.81968 0.76285 0.0
C1932 C 0.49362 0.85186 0.74577 0.0
C1933 C 0.45562 0.85812 0.7038 0.0
H1934 H 0.49969 0.89123 0.6801 0.0
C1935 C 0.45123 0.88881 0.62293 0.0
C1936 C 0.45659 0.90969 0.62055 0.0
C1937 C 0.45469 0.8797 0.6415 0.0
C1938 C 0.48721 0.88225 0.68675 0.0
H1939 H 0.46627 0.79784 0.74709 0.0
H1940 H 0.45983 0.81952 0.7186 0.0
H1941 H 0.50662 0.87147 0.71019 0.0
H1942 H 0.46999 0.93736 0.6358 0.0
H1943 H 0.47652 0.92114 0.66834 0.0
H1944 H 0.43648 0.86825 0.67981 0.0
C1945 C 0.47014 0.82547 0.73073 0.0
C1946 C 0.49113 0.87095 0.70401 0.0
C1947 C 0.4739 0.81295 0.74702 0.0
C1948 C 0.46565 0.92125 0.63719 0.0
C1949 C 0.46946 0.91199 0.65574 0.0
C1950 C 0.45181 0.86916 0.68644 0.0
C1951 C 0.47978 0.84518 0.72995 0.0
C1952 C 0.47544 0.85845 0.71255 0.0
C1953 C 0.46387 0.89115 0.65807 0.0
C1954 C 0.46762 0.88108 0.67757 0.0
H1955 H 0.50809 0.8448 0.77409 0.0
H1956 H 0.50118 0.867 0.74581 0.0
H1957 H 0.44301 0.84916 0.71025 0.0
H1958 H 0.44416 0.87947 0.61046 0.0
H1959 H 0.45042 0.86356 0.64283 0.0
C1960 C 0.53184 0.30458 0.76443 0.0
C1961 C 0.5235 0.31112 0.74612 0.0
C1962 C 0.53442 0.31814 0.78136 0.0
C1963 C 0.51928 0.36833 0.8037 0.0
H1964 H 0.56824 0.36248 0.83669 0.0
C1965 C 0.54867 0.42358 0.87187 0.0
C1966 C 0.55218 0.41334 0.89002 0.0
C1967 C 0.54416 0.4124 0.85351 0.0
C1968 C 0.55451 0.36425 0.8276 0.0
H1969 H 0.51082 0.33664 0.73106 0.0
H1970 H 0.51589 0.36081 0.76066 0.0
H1971 H 0.56248 0.34078 0.80581 0.0
H1972 H 0.55349 0.3834 0.90318 0.0
H1973 H 0.54613 0.36403 0.87107 0.0
H1974 H 0.51174 0.39226 0.8256 0.0
C1975 C 0.52012 0.34508 0.76205 0.0
C1976 C 0.5511 0.35175 0.80999 0.0
C1977 C 0.51725 0.33133 0.74512 0.0
C1978 C 0.55084 0.39177 0.88949 0.0
C1979 C 0.54671 0.38066 0.87113 0.0
C1980 C 0.52289 0.38111 0.82123 0.0
C1981 C 0.52904 0.33869 0.78028 0.0
C1982 C 0.53321 0.35326 0.79808 0.0
C1983 C 0.5435 0.39087 0.85298 0.0
C1984 C 0.54032 0.37882 0.83351 0.0
H1985 H 0.53647 0.28893 0.76559 0.0
H1986 H 0.54073 0.31248 0.79531 0.0
H1987 H 0.50531 0.36984 0.79494 0.0
H1988 H 0.54951 0.44019 0.87185 0.0
H1989 H 0.54177 0.42054 0.83963 0.0
C1990 C 0.50352 0.18366 0.73572 0.0
C1991 C 0.5096 0.20452 0.73828 0.0
C1992 C 0.50088 0.17158 0.75275 0.0
C1993 C 0.49178 0.17525 0.80853 0.0
H1994 H 0.50875 0.11902 0.80658 0.0
C1995 C 0.49021 0.12634 0.87999 0.0
C1996 C 0.48266 0.10582 0.87753 0.0
C1997 C 0.49415 0.13814 0.86297 0.0
C1998 C 0.50374 0.13463 0.80729 0.0
H1999 H 0.51832 0.22914 0.7602 0.0
H2000 H 0.51392 0.20797 0.79022 0.0
H2001 H 0.51473 0.14026 0.7771 0.0
H2002 H 0.47361 0.08157 0.85508 0.0
H2003 H 0.48041 0.10227 0.82532 0.0
H2004 H 0.48078 0.16963 0.8387 0.0
C2005 C 0.51078 0.201 0.77511 0.0
C2006 C 0.50717 0.14681 0.7904 0.0
C2007 C 0.51339 0.2131 0.75802 0.0
C2008 C 0.47944 0.0973 0.85756 0.0
C2009 C 0.48342 0.10914 0.84049 0.0
C2010 C 0.48838 0.16309 0.82542 0.0
C2011 C 0.50441 0.1801 0.77267 0.0
C2012 C 0.50119 0.16726 0.7908 0.0
C2013 C 0.49066 0.12976 0.84302 0.0
C2014 C 0.49431 0.14263 0.825 0.0
H2015 H 0.50068 0.17679 0.72051 0.0
H2016 H 0.49574 0.15563 0.7503 0.0
H2017 H 0.48666 0.19081 0.80924 0.0
H2018 H 0.49299 0.13342 0.89512 0.0
H2019 H 0.50003 0.15386 0.86546 0.0
C2020 C 0.78162 0.51755 0.69221 0.0
C2021 C 0.78001 0.51338 0.71304 0.0
C2022 C 0.76393 0.51956 0.68038 0.0
C2023 C 0.70797 0.50657 0.6791 0.0
H2024 H 0.70679 0.54973 0.6401 0.0
C2025 C 0.63302 0.5292 0.64016 0.0
C2026 C 0.63382 0.5338 0.6193 0.0
C2027 C 0.65101 0.526 0.65109 0.0
C2028 C 0.70696 0.53743 0.65073 0.0
H2029 H 0.75908 0.50794 0.73802 0.0
H2030 H 0.728 0.51167 0.71745 0.0
H2031 H 0.73787 0.54563 0.66022 0.0
H2032 H 0.65426 0.53838 0.59358 0.0
H2033 H 0.68563 0.53266 0.61268 0.0
H2034 H 0.67699 0.49848 0.66972 0.0
C2035 C 0.74283 0.51315 0.71012 0.0
C2036 C 0.72478 0.53508 0.66227 0.0
C2037 C 0.76054 0.51115 0.72193 0.0
C2038 C 0.65306 0.53492 0.60962 0.0
C2039 C 0.67106 0.53176 0.62059 0.0
C2040 C 0.69014 0.50894 0.66758 0.0
C2041 C 0.74431 0.5174 0.68919 0.0
C2042 C 0.72547 0.51967 0.67666 0.0
C2043 C 0.67025 0.52734 0.64148 0.0
C2044 C 0.6894 0.52445 0.65332 0.0
H2045 H 0.79658 0.5192 0.68513 0.0
H2046 H 0.76562 0.52256 0.66427 0.0
H2047 H 0.70809 0.49432 0.68979 0.0
H2048 H 0.61849 0.52824 0.64814 0.0
H2049 H 0.64986 0.52287 0.66722 0.0
C2050 C 0.23944 -0.00075 0.67608 0.0
C2051 C 0.24371 0.00339 0.69696 0.0
C2052 C 0.25546 0.99664 0.66218 0.0
C2053 C 0.31116 0.00732 0.65515 0.0
H2054 H 0.30641 0.96093 0.61604 0.0
C2055 C 0.38073 0.97786 0.61028 0.0
C2056 C 0.37768 0.96993 0.59006 0.0
C2057 C 0.36408 0.9836 0.62227 0.0
C2058 C 0.30788 0.97417 0.6266 0.0
H2059 H 0.26774 0.00855 0.71982 0.0
H2060 H 0.29592 0.00405 0.69554 0.0
H2061 H 0.27794 0.96796 0.63892 0.0
H2062 H 0.35465 0.96247 0.56643 0.0
H2063 H 0.32564 0.97284 0.58724 0.0
H2064 H 0.34112 0.01352 0.64289 0.0
C2065 C 0.28025 0.00288 0.68983 0.0
C2066 C 0.29155 0.97817 0.63976 0.0
C2067 C 0.2642 0.00537 0.70373 0.0
C2068 C 0.35758 0.96841 0.58197 0.0
C2069 C 0.34091 0.97423 0.59395 0.0
C2070 C 0.32746 0.00339 0.64191 0.0
C2071 C 0.27605 0.99829 0.66892 0.0
C2072 C 0.29307 0.99467 0.65432 0.0
C2073 C 0.34392 0.98166 0.61435 0.0
C2074 C 0.32612 0.98663 0.62761 0.0
H2075 H 0.22368 0.99782 0.67059 0.0
H2076 H 0.25173 0.99337 0.64615 0.0
H2077 H 0.31269 0.02033 0.66599 0.0
H2078 H 0.39597 0.97921 0.61708 0.0
H2079 H 0.36699 0.98899 0.63798 0.0
C2080 C 0.78337 0.49576 0.84579 0.0
C2081 C 0.785 0.51154 0.83178 0.0
C2082 C 0.76749 0.49511 0.86005 0.0
C2083 C 0.71525 0.51405 0.86698 0.0
H2084 H 0.71849 0.48521 0.91752 0.0
C2085 C 0.64311 0.47859 0.90375 0.0
C2086 C 0.64206 0.4775 0.92515 0.0
C2087 C 0.66121 0.48552 0.89442 0.0
C2088 C 0.7173 0.49362 0.90365 0.0
H2089 H 0.77195 0.5399 0.82292 0.0
H2090 H 0.74504 0.5394 0.84853 0.0
H2091 H 0.74979 0.49392 0.89907 0.0
H2092 H 0.65909 0.48316 0.95362 0.0
H2093 H 0.69057 0.49591 0.93738 0.0
H2094 H 0.68289 0.51432 0.87184 0.0
C2095 C 0.75555 0.52703 0.84796 0.0
C2096 C 0.73528 0.49836 0.89287 0.0
C2097 C 0.77125 0.52749 0.83344 0.0
C2098 C 0.65948 0.48368 0.93707 0.0
C2099 C 0.67755 0.49092 0.92774 0.0
C2100 C 0.69736 0.50962 0.87792 0.0
C2101 C 0.75302 0.51045 0.86097 0.0
C2102 C 0.73443 0.50809 0.87406 0.0
C2103 C 0.67867 0.49186 0.90627 0.0
C2104 C 0.69804 0.49877 0.89606 0.0
H2105 H 0.794 0.48349 0.84537 0.0
H2106 H 0.76608 0.482 0.86966 0.0
H2107 H 0.71383 0.52138 0.8525 0.0
H2108 H 0.63003 0.47376 0.8941 0.0
H2109 H 0.66158 0.48549 0.87784 0.0
C2110 C 0.26884 0.99144 0.81259 0.0
C2111 C 0.25028 0.00064 0.81707 0.0
C2112 C 0.28496 0.99287 0.82685 0.0
C2113 C 0.30357 0.02713 0.8699 0.0
H2114 H 0.34595 0.9876 0.87332 0.0
C2115 C 0.37603 0.04259 0.92021 0.0
C2116 C 0.39464 0.03953 0.90996 0.0
C2117 C 0.35737 0.03535 0.91136 0.0
C2118 C 0.33419 0.99874 0.87251 0.0
H2119 H 0.23321 0.01705 0.84034 0.0
H2120 H 0.26108 0.01895 0.86561 0.0
H2121 H 0.31432 0.97831 0.85411 0.0
H2122 H 0.40828 0.02596 0.88265 0.0
H2123 H 0.37565 0.01333 0.86725 0.0
H2124 H 0.32352 0.04758 0.88812 0.0
C2125 C 0.26353 0.01125 0.85088 0.0
C2126 C 0.31611 0.99347 0.86149 0.0
C2127 C 0.24754 0.01007 0.8365 0.0
C2128 C 0.39421 0.02868 0.89089 0.0
C2129 C 0.37556 0.02127 0.88215 0.0
C2130 C 0.32151 0.03229 0.88107 0.0
C2131 C 0.2827 0.00334 0.84594 0.0
C2132 C 0.30076 0.00776 0.85969 0.0
C2133 C 0.35696 0.02472 0.89221 0.0
C2134 C 0.33716 0.01832 0.88213 0.0
H2135 H 0.27131 0.9842 0.79763 0.0
H2136 H 0.29954 0.98679 0.82241 0.0
H2137 H 0.29232 0.0387 0.86854 0.0
H2138 H 0.37583 0.05083 0.93495 0.0
H2139 H 0.34323 0.03811 0.91947 0.0
C2140 C 0.71253 0.7358 0.51388 0.0
C2141 C 0.70652 0.75577 0.51848 0.0
C2142 C 0.69903 0.719 0.51715 0.0
C2143 C 0.65325 0.70387 0.54706 0.0
H2144 H 0.65083 0.65644 0.50916 0.0
C2145 C 0.59652 0.63429 0.5573 0.0
C2146 C 0.60497 0.6149 0.55505 0.0
C2147 C 0.6077 0.65192 0.55155 0.0
C2148 C 0.65142 0.66954 0.51993 0.0
H2149 H 0.68197 0.77427 0.52969 0.0
H2150 H 0.65807 0.74492 0.5352 0.0
H2151 H 0.67262 0.68653 0.50144 0.0
H2152 H 0.63166 0.59883 0.54456 0.0
H2153 H 0.65109 0.62954 0.53461 0.0
H2154 H 0.63215 0.6868 0.5656 0.0
C2155 C 0.67326 0.7421 0.52938 0.0
C2156 C 0.66393 0.68676 0.51554 0.0
C2157 C 0.68681 0.75887 0.52614 0.0
C2158 C 0.62467 0.61351 0.54654 0.0
C2159 C 0.63578 0.6311 0.5407 0.0
C2160 C 0.64069 0.68668 0.55142 0.0
C2161 C 0.67925 0.72195 0.52503 0.0
C2162 C 0.66517 0.70404 0.52916 0.0
C2163 C 0.6275 0.65052 0.5433 0.0
C2164 C 0.63982 0.66924 0.53801 0.0
H2165 H 0.72777 0.73322 0.50801 0.0
H2166 H 0.70424 0.7037 0.51392 0.0
H2167 H 0.65407 0.7168 0.55803 0.0
H2168 H 0.58137 0.63592 0.56377 0.0
H2169 H 0.60084 0.66667 0.55354 0.0
C2170 C 0.70579 0.25765 0.00334 0.0
C2171 C 0.69997 0.23954 0.99192 0.0
C2172 C 0.69412 0.27501 0.00245 0.0
C2173 C 0.64293 0.29265 0.99001 0.0
H2174 H 0.67236 0.34449 0.98094 0.0
C2175 C 0.60107 0.36563 0.96998 0.0
C2176 C 0.60956 0.38487 0.97704 0.0
C2177 C 0.61153 0.34772 0.97286 0.0
C2178 C 0.66386 0.33026 0.98385 0.0
H2179 H 0.67707 0.22529 0.971 0.0
H2180 H 0.65649 0.2557 0.96957 0.0
H2181 H 0.69138 0.31357 0.98417 0.0
H2182 H 0.63541 0.40024 0.99334 0.0
H2183 H 0.65332 0.36901 -0.00106 0.0
H2184 H 0.61542 0.30933 0.99001 0.0
C2185 C 0.67013 0.2564 0.97919 0.0
C2186 C 0.6748 0.31249 0.9856 0.0
C2187 C 0.68196 0.23905 0.9799 0.0
C2188 C 0.6285 0.3857 0.98754 0.0
C2189 C 0.63885 0.36776 0.99062 0.0
C2190 C 0.63197 0.31049 0.98848 0.0
C2191 C 0.67625 0.27465 0.99025 0.0
C2192 C 0.66447 0.29349 0.98864 0.0
C2193 C 0.63066 0.34854 0.98307 0.0
C2194 C 0.64228 0.32955 0.9853 0.0
H2195 H 0.71971 0.2586 0.01255 0.0
H2196 H 0.69913 0.28879 0.01127 0.0
H2197 H 0.63457 0.27825 0.99256 0.0
H2198 H 0.58656 0.36442 0.96172 0.0
H2199 H 0.60482 0.33331 0.96655 0.0
C2200 C 0.35586 0.27393 0.99065 0.0
C2201 C 0.3419 0.27556 0.00694 0.0
C2202 C 0.36861 0.25735 0.98882 0.0
C2203 C 0.37197 0.20408 0.00599 0.0
H2204 H 0.42402 0.20775 0.9776 0.0
C2205 C 0.40905 0.13206 0.97228 0.0
C2206 C 0.43056 0.13168 0.9712 0.0
C2207 C 0.39962 0.14994 0.97878 0.0
C2208 C 0.40969 0.20641 0.98587 0.0
H2209 H 0.33137 0.26137 0.03475 0.0
H2210 H 0.35441 0.23322 0.03221 0.0
H2211 H 0.40642 0.23885 0.98632 0.0
H2212 H 0.45909 0.14961 0.97665 0.0
H2213 H 0.44269 0.18061 0.98878 0.0
H2214 H 0.3756 0.17175 0.00626 0.0
C2215 C 0.35496 0.24436 0.02037 0.0
C2216 C 0.39939 0.2243 0.99059 0.0
C2217 C 0.34194 0.26077 0.02202 0.0
C2218 C 0.44246 0.14948 0.97716 0.0
C2219 C 0.43302 0.1673 0.984 0.0
C2220 C 0.38244 0.18625 0.00159 0.0
C2221 C 0.36808 0.2421 0.00345 0.0
C2222 C 0.38015 0.22335 0.00032 0.0
C2223 C 0.41144 0.16785 0.98473 0.0
C2224 C 0.40122 0.18708 0.99104 0.0
H2225 H 0.35666 0.28525 0.97898 0.0
H2226 H 0.37832 0.25617 0.97546 0.0
H2227 H 0.35712 0.20257 0.01328 0.0
H2228 H 0.39943 0.11865 0.96763 0.0
H2229 H 0.38299 0.1498 0.97865 0.0
C2230 C 0.82507 0.24147 0.98069 0.0
C2231 C 0.80401 0.24318 0.98425 0.0
C2232 C 0.83827 0.25891 0.9815 0.0
C2233 C 0.84091 0.31523 0.98064 0.0
H2234 H 0.88833 0.311 0.01618 0.0
C2235 C 0.88713 0.38592 0.01492 0.0
C2236 C 0.9084 0.38465 0.01809 0.0
C2237 C 0.8752 0.36875 0.00781 0.0
C2238 C 0.87543 0.31238 0.00586 0.0
H2239 H 0.7799 0.26401 0.99104 0.0
H2240 H 0.80308 0.29487 0.99238 0.0
H2241 H 0.86574 0.28088 0.00865 0.0
H2242 H 0.93396 0.36459 0.0154 0.0
H2243 H 0.91318 0.3347 0.00256 0.0
H2244 H 0.85056 0.34679 0.97793 0.0
C2245 C 0.80934 0.28008 0.98873 0.0
C2246 C 0.86245 0.29512 0.00161 0.0
C2247 C 0.79612 0.26255 0.98803 0.0
C2248 C 0.91758 0.36601 0.01333 0.0
C2249 C 0.90566 0.34887 0.00605 0.0
C2250 C 0.85402 0.3325 0.98475 0.0
C2251 C 0.8306 0.27833 0.98592 0.0
C2252 C 0.84494 0.29643 0.98916 0.0
C2253 C 0.88428 0.34996 0.00353 0.0
C2254 C 0.87128 0.33133 0.99765 0.0
H2255 H 0.83137 0.22653 0.97794 0.0
H2256 H 0.85456 0.25717 0.97912 0.0
H2257 H 0.8276 0.31656 0.97083 0.0
H2258 H 0.87954 0.40004 0.01846 0.0
H2259 H 0.85875 0.37007 0.00634 0.0
loop_
_geom_bond_atom_site_label_1
_geom_bond_atom_site_label_2
_geom_bond_distance
_geom_bond_site_symmetry_2
_ccdc_geom_bond_type
C0 C1 1.443 . S
C0 N4 1.376 . S
C0 C38 1.389 . S
C1 C0 1.443 . S
C1 C2 1.340 . S
C1 H41 0.951 . S
C2 C1 1.340 . S
C2 C3 1.439 . S
C2 H42 0.950 . S
C3 C2 1.439 . S
C3 N4 1.374 . S
C3 C37 1.395 . S
N4 C0 1.376 . S
N4 C3 1.374 . S
N4 Co5 2.008 1_655 S
Co5 N4 2.008 1_455 S
Co5 N6 1.995 1_455 S
Co5 N11 2.008 . S
Co5 N16 1.995 . S
Co5 N21 2.282 . S
Co5 N27 2.282 1_455 S
N6 Co5 1.995 1_655 S
N6 C7 1.376 . S
N6 C10 1.383 . S
C7 N6 1.376 . S
C7 C8 1.446 . S
C7 C37 1.391 . S
C8 C7 1.446 . S
C8 C9 1.339 . S
C8 H43 0.949 . S
C9 C8 1.339 . S
C9 C10 1.439 . S
C9 H44 0.950 . S
C10 N6 1.383 . S
C10 C9 1.439 . S
C10 C39 1.392 1_655 S
N11 Co5 2.008 . S
N11 C12 1.376 . S
N11 C15 1.374 . S
C12 N11 1.376 . S
C12 C13 1.443 . S
C12 C39 1.389 . S
C13 C12 1.443 . S
C13 C14 1.340 . S
C13 H45 0.951 . S
C14 C13 1.340 . S
C14 C15 1.439 . S
C14 H46 0.950 . S
C15 N11 1.374 . S
C15 C14 1.439 . S
C15 C40 1.395 . S
N16 Co5 1.995 . S
N16 C17 1.376 . S
N16 C20 1.383 . S
C17 N16 1.376 . S
C17 C18 1.446 . S
C17 C40 1.391 . S
C18 C17 1.446 . S
C18 C19 1.339 . S
C18 H47 0.949 . S
C19 C18 1.339 . S
C19 C20 1.439 . S
C19 H48 0.950 . S
C20 N16 1.383 . S
C20 C19 1.439 . S
C20 C38 1.392 1_455 S
N21 Co5 2.282 . S
N21 C24 1.332 . S
N21 C26 1.332 1_455 S
C22 C23 1.386 . S
C22 C25 1.388 1_455 S
C23 C22 1.386 . S
C23 C24 1.382 . S
C23 H49 0.950 . S
C24 N21 1.332 . S
C24 C23 1.382 . S
C24 H35 0.952 . S
C25 C22 1.388 1_655 S
C25 C26 1.382 . S
C25 H50 0.950 . S
C26 N21 1.332 1_655 S
C26 C25 1.382 . S
C26 H36 0.948 . S
N27 Co5 2.282 1_655 S
N27 C31 1.332 . S
N27 C32 1.332 1_655 S
C28 C29 1.388 1_455 S
C28 C32 1.382 . S
C28 H51 0.950 . S
C29 C28 1.388 1_655 S
C29 C30 1.386 . S
C30 C29 1.386 . S
C30 C31 1.382 . S
C30 H52 0.950 . S
C31 N27 1.332 . S
C31 C30 1.382 . S
C31 H33 0.952 . S
C32 N27 1.332 1_455 S
C32 C28 1.382 . S
C32 H34 0.948 . S
H33 C31 0.952 . S
H34 C32 0.948 . S
H35 C24 0.952 . S
H36 C26 0.948 . S
C37 C3 1.395 . S
C37 C7 1.391 . S
C38 C0 1.389 . S
C38 C20 1.392 1_655 S
C39 C10 1.392 1_455 S
C39 C12 1.389 . S
C40 C15 1.395 . S
C40 C17 1.391 . S
H41 C1 0.951 . S
H42 C2 0.950 . S
H43 C8 0.949 . S
H44 C9 0.950 . S
H45 C13 0.951 . S
H46 C14 0.950 . S
H47 C18 0.949 . S
H48 C19 0.950 . S
H49 C23 0.950 . S
H50 C25 0.950 . S
H51 C28 0.950 . S
H52 C30 0.950 . S
C53 C54 1.443 . S
C53 N57 1.376 . S
C53 C91 1.389 1_655 S
C54 C53 1.443 . S
C54 C55 1.340 . S
C54 H94 0.951 . S
C55 C54 1.340 . S
C55 C56 1.439 . S
C55 H95 0.950 . S
C56 C55 1.439 . S
C56 N57 1.374 . S
C56 C90 1.395 . S
N57 C53 1.376 . S
N57 C56 1.374 . S
N57 Co58 2.008 1_655 S
Co58 N57 2.008 1_455 S
Co58 N59 1.995 . S
Co58 N64 2.008 . S
Co58 N69 1.995 . S
Co58 N74 2.282 . S
Co58 N80 2.282 . S
N59 Co58 1.995 . S
N59 C60 1.376 1_455 S
N59 C63 1.383 . S
C60 N59 1.376 1_655 S
C60 C61 1.446 . S
C60 C90 1.391 . S
C61 C60 1.446 . S
C61 C62 1.339 . S
C61 H96 0.949 . S
C62 C61 1.339 . S
C62 C63 1.439 1_655 S
C62 H97 0.950 . S
C63 N59 1.383 . S
C63 C62 1.439 1_455 S
C63 C92 1.392 . S
N64 Co58 2.008 . S
N64 C65 1.376 . S
N64 C68 1.374 . S
C65 N64 1.376 . S
C65 C66 1.443 . S
C65 C92 1.389 . S
C66 C65 1.443 . S
C66 C67 1.340 . S
C66 H98 0.951 . S
C67 C66 1.340 . S
C67 C68 1.439 . S
C67 H99 0.950 . S
C68 N64 1.374 . S
C68 C67 1.439 . S
C68 C93 1.395 . S
N69 Co58 1.995 . S
N69 C70 1.376 . S
N69 C73 1.383 . S
C70 N69 1.376 . S
C70 C71 1.446 . S
C70 C93 1.391 . S
C71 C70 1.446 . S
C71 C72 1.339 . S
C71 H100 0.949 . S
C72 C71 1.339 . S
C72 C73 1.439 . S
C72 H101 0.950 . S
C73 N69 1.383 . S
C73 C72 1.439 . S
C73 C91 1.392 . S
N74 Co58 2.282 . S
N74 C77 1.332 . S
N74 C79 1.332 . S
C75 C76 1.386 . S
C75 C78 1.388 . S
C76 C75 1.386 . S
C76 C77 1.382 . S
C76 H102 0.950 . S
C77 N74 1.332 . S
C77 C76 1.382 . S
C77 H88 0.952 . S
C78 C75 1.388 . S
C78 C79 1.382 . S
C78 H103 0.950 . S
C79 N74 1.332 . S
C79 C78 1.382 . S
C79 H89 0.948 . S
N80 Co58 2.282 . S
N80 C84 1.329 . S
N80 C85 1.332 . S
C81 C82 1.388 . S
C81 C85 1.382 . S
C81 H104 0.950 . S
C82 C81 1.388 . S
C82 C83 1.386 1_455 S
C83 C82 1.386 1_655 S
C83 C84 1.383 1_655 S
C83 H105 0.950 . S
C84 N80 1.329 . S
C84 C83 1.383 1_455 S
C84 H86 0.954 1_455 S
C85 N80 1.332 . S
C85 C81 1.382 . S
C85 H87 0.948 . S
H86 C84 0.954 1_655 S
H87 C85 0.948 . S
H88 C77 0.952 . S
H89 C79 0.948 . S
C90 C56 1.395 . S
C90 C60 1.391 . S
C91 C53 1.389 1_455 S
C91 C73 1.392 . S
C92 C63 1.392 . S
C92 C65 1.389 . S
C93 C68 1.395 . S
C93 C70 1.391 . S
H94 C54 0.951 . S
H95 C55 0.950 . S
H96 C61 0.949 . S
H97 C62 0.950 . S
H98 C66 0.951 . S
H99 C67 0.950 . S
H100 C71 0.949 . S
H101 C72 0.950 . S
H102 C76 0.950 . S
H103 C78 0.950 . S
H104 C81 0.950 . S
H105 C83 0.950 . S
C106 C107 1.443 . S
C106 N110 1.376 . S
C106 C144 1.389 . S
C107 C106 1.443 . S
C107 C108 1.340 . S
C107 H147 0.951 . S
C108 C107 1.340 . S
C108 C109 1.439 . S
C108 H148 0.950 . S
C109 C108 1.439 . S
C109 N110 1.374 . S
C109 C143 1.395 . S
N110 C106 1.376 . S
N110 C109 1.374 . S
N110 Co111 2.008 1_565 S
Co111 N110 2.008 1_545 S
Co111 N112 1.995 1_545 S
Co111 N117 2.008 . S
Co111 N122 1.995 . S
Co111 N127 2.282 . S
Co111 N133 2.283 1_545 S
N112 Co111 1.995 1_565 S
N112 C113 1.376 . S
N112 C116 1.383 . S
C113 N112 1.376 . S
C113 C114 1.446 . S
C113 C143 1.391 . S
C114 C113 1.446 . S
C114 C115 1.339 . S
C114 H149 0.949 . S
C115 C114 1.339 . S
C115 C116 1.439 . S
C115 H150 0.950 . S
C116 N112 1.383 . S
C116 C115 1.439 . S
C116 C145 1.392 1_565 S
N117 Co111 2.008 . S
N117 C118 1.376 . S
N117 C121 1.374 . S
C118 N117 1.376 . S
C118 C119 1.443 . S
C118 C145 1.389 . S
C119 C118 1.443 . S
C119 C120 1.340 . S
C119 H151 0.951 . S
C120 C119 1.340 . S
C120 C121 1.439 . S
C120 H152 0.950 . S
C121 N117 1.374 . S
C121 C120 1.439 . S
C121 C146 1.395 . S
N122 Co111 1.995 . S
N122 C123 1.376 . S
N122 C126 1.383 . S
C123 N122 1.376 . S
C123 C124 1.446 . S
C123 C146 1.391 . S
C124 C123 1.446 . S
C124 C125 1.339 . S
C124 H153 0.949 . S
C125 C124 1.339 . S
C125 C126 1.439 . S
C125 H154 0.950 . S
C126 N122 1.383 . S
C126 C125 1.439 . S
C126 C144 1.392 1_545 S
N127 Co111 2.282 . S
N127 C130 1.332 . S
N127 C132 1.332 1_545 S
C128 C129 1.386 . S
C128 C131 1.388 . S
C129 C128 1.386 . S
C129 C130 1.382 . S
C129 H155 0.950 . S
C130 N127 1.332 . S
C130 C129 1.382 . S
C130 H141 0.952 . S
C131 C128 1.388 . S
C131 C132 1.382 1_545 S
C131 H156 0.950 1_545 S
C132 N127 1.332 1_565 S
C132 C131 1.382 1_565 S
C132 H142 0.948 . S
N133 Co111 2.283 1_565 S
N133 C137 1.329 . S
N133 C138 1.334 1_565 S
C134 C135 1.388 1_545 S
C134 C138 1.382 . S
C134 H157 0.950 . S
C135 C134 1.388 1_565 S
C135 C136 1.386 . S
C136 C135 1.386 . S
C136 C137 1.382 . S
C136 H158 0.950 . S
C137 N133 1.329 . S
C137 C136 1.382 . S
C137 H139 0.952 . S
C138 N133 1.334 1_545 S
C138 C134 1.382 . S
C138 H140 0.948 . S
H139 C137 0.952 . S
H140 C138 0.948 . S
H141 C130 0.952 . S
H142 C132 0.948 . S
C143 C109 1.395 . S
C143 C113 1.391 . S
C144 C106 1.389 . S
C144 C126 1.392 1_565 S
C145 C116 1.392 1_545 S
C145 C118 1.389 . S
C146 C121 1.395 . S
C146 C123 1.391 . S
H147 C107 0.951 . S
H148 C108 0.950 . S
H149 C114 0.949 . S
H150 C115 0.950 . S
H151 C119 0.951 . S
H152 C120 0.950 . S
H153 C124 0.949 . S
H154 C125 0.950 . S
H155 C129 0.950 . S
H156 C131 0.950 1_565 S
H157 C134 0.950 . S
H158 C136 0.950 . S
C159 C160 1.443 . S
C159 N163 1.376 . S
C159 C197 1.389 . S
C160 C159 1.443 . S
C160 C161 1.340 . S
C160 H200 0.951 . S
C161 C160 1.340 . S
C161 C162 1.439 . S
C161 H201 0.950 . S
C162 C161 1.439 . S
C162 N163 1.374 . S
C162 C196 1.395 . S
N163 C159 1.376 . S
N163 C162 1.374 . S
N163 Co164 2.008 . S
Co164 N163 2.008 . S
Co164 N165 1.995 . S
Co164 N170 2.008 . S
Co164 N175 1.995 . S
Co164 N180 2.282 . S
Co164 N186 2.282 . S
N165 Co164 1.995 . S
N165 C166 1.376 . S
N165 C169 1.383 . S
C166 N165 1.376 . S
C166 C167 1.446 . S
C166 C196 1.391 . S
C167 C166 1.446 . S
C167 C168 1.339 . S
C167 H202 0.949 . S
C168 C167 1.339 . S
C168 C169 1.439 . S
C168 H203 0.950 . S
C169 N165 1.383 . S
C169 C168 1.439 . S
C169 C198 1.392 . S
N170 Co164 2.008 . S
N170 C171 1.376 . S
N170 C174 1.374 . S
C171 N170 1.376 . S
C171 C172 1.443 . S
C171 C198 1.389 . S
C172 C171 1.443 . S
C172 C173 1.340 . S
C172 H204 0.951 . S
C173 C172 1.340 . S
C173 C174 1.439 . S
C173 H205 0.950 . S
C174 N170 1.374 . S
C174 C173 1.439 . S
C174 C199 1.395 . S
N175 Co164 1.995 . S
N175 C176 1.376 . S
N175 C179 1.383 . S
C176 N175 1.376 . S
C176 C177 1.446 . S
C176 C199 1.391 . S
C177 C176 1.446 . S
C177 C178 1.339 . S
C177 H206 0.949 . S
C178 C177 1.339 . S
C178 C179 1.439 . S
C178 H207 0.950 . S
C179 N175 1.383 . S
C179 C178 1.439 . S
C179 C197 1.392 . S
N180 Co164 2.282 . S
N180 C183 1.332 . S
N180 C185 1.332 . S
C181 C182 1.386 . S
C181 C184 1.388 . S
C182 C181 1.386 . S
C182 C183 1.382 . S
C182 H208 0.950 . S
C183 N180 1.332 . S
C183 C182 1.382 . S
C183 H194 0.952 . S
C184 C181 1.388 . S
C184 C185 1.382 . S
C184 H209 0.950 . S
C185 N180 1.332 . S
C185 C184 1.382 . S
C185 H195 0.948 . S
N186 Co164 2.282 . S
N186 C190 1.332 . S
N186 C191 1.332 . S
C187 C188 1.388 . S
C187 C191 1.382 . S
C187 H210 0.950 . S
C188 C187 1.388 . S
C188 C189 1.386 . S
C189 C188 1.386 . S
C189 C190 1.382 . S
C189 H211 0.950 . S
C190 N186 1.332 . S
C190 C189 1.382 . S
C190 H192 0.952 . S
C191 N186 1.332 . S
C191 C187 1.382 . S
C191 H193 0.948 . S
H192 C190 0.952 . S
H193 C191 0.948 . S
H194 C183 0.952 . S
H195 C185 0.948 . S
C196 C162 1.395 . S
C196 C166 1.391 . S
C197 C159 1.389 . S
C197 C179 1.392 . S
C198 C169 1.392 . S
C198 C171 1.389 . S
C199 C174 1.395 . S
C199 C176 1.391 . S
H200 C160 0.951 . S
H201 C161 0.950 . S
H202 C167 0.949 . S
H203 C168 0.950 . S
H204 C172 0.951 . S
H205 C173 0.950 . S
H206 C177 0.949 . S
H207 C178 0.950 . S
H208 C182 0.950 . S
H209 C184 0.950 . S
H210 C187 0.950 . S
H211 C189 0.950 . S
C212 C213 1.443 . S
C212 N216 1.376 . S
C212 C250 1.389 1_556 S
C213 C212 1.443 . S
C213 C214 1.340 . S
C213 H253 0.951 . S
C214 C213 1.340 . S
C214 C215 1.439 . S
C214 H254 0.950 . S
C215 C214 1.439 . S
C215 N216 1.374 . S
C215 C249 1.395 . S
N216 C212 1.376 . S
N216 C215 1.374 . S
N216 Co217 2.008 1_556 S
Co217 N216 2.008 1_554 S
Co217 N218 1.995 . S
Co217 N223 2.008 . S
Co217 N228 1.995 . S
Co217 N233 2.282 . S
Co217 N239 2.282 . S
N218 Co217 1.995 . S
N218 C219 1.376 1_554 S
N218 C222 1.383 . S
C219 N218 1.376 1_556 S
C219 C220 1.446 . S
C219 C249 1.391 . S
C220 C219 1.446 . S
C220 C221 1.339 . S
C220 H255 0.949 . S
C221 C220 1.339 . S
C221 C222 1.439 1_556 S
C221 H256 0.950 . S
C222 N218 1.383 . S
C222 C221 1.439 1_554 S
C222 C251 1.392 . S
N223 Co217 2.008 . S
N223 C224 1.376 . S
N223 C227 1.374 . S
C224 N223 1.376 . S
C224 C225 1.443 . S
C224 C251 1.389 . S
C225 C224 1.443 . S
C225 C226 1.340 . S
C225 H257 0.951 . S
C226 C225 1.340 . S
C226 C227 1.439 . S
C226 H258 0.950 . S
C227 N223 1.374 . S
C227 C226 1.439 . S
C227 C252 1.395 . S
N228 Co217 1.995 . S
N228 C229 1.376 . S
N228 C232 1.383 . S
C229 N228 1.376 . S
C229 C230 1.446 . S
C229 C252 1.391 . S
C230 C229 1.446 . S
C230 C231 1.339 . S
C230 H259 0.949 . S
C231 C230 1.339 . S
C231 C232 1.439 . S
C231 H260 0.950 . S
C232 N228 1.383 . S
C232 C231 1.439 . S
C232 C250 1.392 . S
N233 Co217 2.282 . S
N233 C236 1.332 . S
N233 C238 1.332 . S
C234 C235 1.386 . S
C234 C237 1.388 . S
C235 C234 1.386 . S
C235 C236 1.382 . S
C235 H261 0.950 . S
C236 N233 1.332 . S
C236 C235 1.382 . S
C236 H247 0.952 . S
C237 C234 1.388 . S
C237 C238 1.382 . S
C237 H262 0.950 . S
C238 N233 1.332 . S
C238 C237 1.382 . S
C238 H248 0.948 1_554 S
N239 Co217 2.282 . S
N239 C243 1.332 1_554 S
N239 C244 1.332 . S
C240 C241 1.388 . S
C240 C244 1.382 . S
C240 H263 0.950 . S
C241 C240 1.388 . S
C241 C242 1.386 1_554 S
C242 C241 1.386 1_556 S
C242 C243 1.382 . S
C242 H264 0.950 . S
C243 N239 1.332 1_556 S
C243 C242 1.382 . S
C243 H245 0.952 . S
C244 N239 1.332 . S
C244 C240 1.382 . S
C244 H246 0.948 . S
H245 C243 0.952 . S
H246 C244 0.948 . S
H247 C236 0.952 . S
H248 C238 0.948 1_556 S
C249 C215 1.395 . S
C249 C219 1.391 . S
C250 C212 1.389 1_554 S
C250 C232 1.392 . S
C251 C222 1.392 . S
C251 C224 1.389 . S
C252 C227 1.395 . S
C252 C229 1.391 . S
H253 C213 0.951 . S
H254 C214 0.950 . S
H255 C220 0.949 . S
H256 C221 0.950 . S
H257 C225 0.951 . S
H258 C226 0.950 . S
H259 C230 0.949 . S
H260 C231 0.950 . S
H261 C235 0.950 . S
H262 C237 0.950 . S
H263 C240 0.950 . S
H264 C242 0.950 . S
C265 C266 1.443 . S
C265 N269 1.376 . S
C265 C303 1.389 . S
C266 C265 1.443 . S
C266 C267 1.340 . S
C266 H306 0.951 . S
C267 C266 1.340 . S
C267 C268 1.439 . S
C267 H307 0.950 . S
C268 C267 1.439 . S
C268 N269 1.374 . S
C268 C302 1.395 . S
N269 C265 1.376 . S
N269 C268 1.374 . S
N269 Co270 2.008 . S
Co270 N269 2.008 . S
Co270 N271 1.995 . S
Co270 N276 2.008 . S
Co270 N281 1.995 . S
Co270 N286 2.282 . S
Co270 N292 2.282 . S
N271 Co270 1.995 . S
N271 C272 1.376 . S
N271 C275 1.383 . S
C272 N271 1.376 . S
C272 C273 1.446 . S
C272 C302 1.391 . S
C273 C272 1.446 . S
C273 C274 1.339 . S
C273 H308 0.949 . S
C274 C273 1.339 . S
C274 C275 1.439 . S
C274 H309 0.950 . S
C275 N271 1.383 . S
C275 C274 1.439 . S
C275 C304 1.392 . S
N276 Co270 2.008 . S
N276 C277 1.376 . S
N276 C280 1.374 . S
C277 N276 1.376 . S
C277 C278 1.443 . S
C277 C304 1.389 . S
C278 C277 1.443 . S
C278 C279 1.340 . S
C278 H310 0.951 . S
C279 C278 1.340 . S
C279 C280 1.439 . S
C279 H311 0.950 . S
C280 N276 1.374 . S
C280 C279 1.439 . S
C280 C305 1.395 . S
N281 Co270 1.995 . S
N281 C282 1.376 . S
N281 C285 1.383 . S
C282 N281 1.376 . S
C282 C283 1.446 . S
C282 C305 1.391 . S
C283 C282 1.446 . S
C283 C284 1.339 . S
C283 H312 0.949 . S
C284 C283 1.339 . S
C284 C285 1.439 . S
C284 H313 0.950 . S
C285 N281 1.383 . S
C285 C284 1.439 . S
C285 C303 1.392 . S
N286 Co270 2.282 . S
N286 C289 1.332 . S
N286 C291 1.332 . S
C287 C288 1.386 . S
C287 C290 1.388 . S
C288 C287 1.386 . S
C288 C289 1.382 . S
C288 H314 0.950 . S
C289 N286 1.332 . S
C289 C288 1.382 . S
C289 H300 0.952 . S
C290 C287 1.388 . S
C290 C291 1.382 . S
C290 H315 0.950 . S
C291 N286 1.332 . S
C291 C290 1.382 . S
C291 H301 0.948 . S
N292 Co270 2.282 . S
N292 C296 1.332 . S
N292 C297 1.332 . S
C293 C294 1.388 . S
C293 C297 1.382 . S
C293 H316 0.950 . S
C294 C293 1.388 . S
C294 C295 1.386 . S
C295 C294 1.386 . S
C295 C296 1.382 . S
C295 H317 0.950 . S
C296 N292 1.332 . S
C296 C295 1.382 . S
C296 H298 0.952 . S
C297 N292 1.332 . S
C297 C293 1.382 . S
C297 H299 0.948 . S
H298 C296 0.952 . S
H299 C297 0.948 . S
H300 C289 0.952 . S
H301 C291 0.948 . S
C302 C268 1.395 . S
C302 C272 1.391 . S
C303 C265 1.389 . S
C303 C285 1.392 . S
C304 C275 1.392 . S
C304 C277 1.389 . S
C305 C280 1.395 . S
C305 C282 1.391 . S
H306 C266 0.951 . S
H307 C267 0.950 . S
H308 C273 0.949 . S
H309 C274 0.950 . S
H310 C278 0.951 . S
H311 C279 0.950 . S
H312 C283 0.949 . S
H313 C284 0.950 . S
H314 C288 0.950 . S
H315 C290 0.950 . S
H316 C293 0.950 . S
H317 C295 0.950 . S
C318 C319 1.443 . S
C318 N322 1.376 . S
C318 C356 1.389 . S
C319 C318 1.443 . S
C319 C320 1.340 . S
C319 H359 0.951 . S
C320 C319 1.340 . S
C320 C321 1.439 . S
C320 H360 0.950 . S
C321 C320 1.439 . S
C321 N322 1.374 . S
C321 C355 1.395 . S
N322 C318 1.376 . S
N322 C321 1.374 . S
N322 Co323 2.008 . S
Co323 N322 2.008 . S
Co323 N324 1.995 . S
Co323 N329 2.008 . S
Co323 N334 1.995 . S
Co323 N339 2.282 . S
Co323 N345 2.282 . S
N324 Co323 1.995 . S
N324 C325 1.376 . S
N324 C328 1.383 . S
C325 N324 1.376 . S
C325 C326 1.446 . S
C325 C355 1.391 . S
C326 C325 1.446 . S
C326 C327 1.339 . S
C326 H361 0.949 . S
C327 C326 1.339 . S
C327 C328 1.439 . S
C327 H362 0.950 . S
C328 N324 1.383 . S
C328 C327 1.439 . S
C328 C357 1.392 . S
N329 Co323 2.008 . S
N329 C330 1.376 . S
N329 C333 1.374 . S
C330 N329 1.376 . S
C330 C331 1.443 . S
C330 C357 1.389 . S
C331 C330 1.443 . S
C331 C332 1.340 . S
C331 H363 0.951 . S
C332 C331 1.340 . S
C332 C333 1.439 . S
C332 H364 0.950 . S
C333 N329 1.374 . S
C333 C332 1.439 . S
C333 C358 1.395 . S
N334 Co323 1.995 . S
N334 C335 1.376 . S
N334 C338 1.383 . S
C335 N334 1.376 . S
C335 C336 1.446 . S
C335 C358 1.391 . S
C336 C335 1.446 . S
C336 C337 1.339 . S
C336 H365 0.949 . S
C337 C336 1.339 . S
C337 C338 1.439 . S
C337 H366 0.950 . S
C338 N334 1.383 . S
C338 C337 1.439 . S
C338 C356 1.392 . S
N339 Co323 2.282 . S
N339 C342 1.332 . S
N339 C344 1.332 . S
C340 C341 1.386 . S
C340 C343 1.388 . S
C341 C340 1.386 . S
C341 C342 1.382 . S
C341 H367 0.950 . S
C342 N339 1.332 . S
C342 C341 1.382 . S
C342 H353 0.952 . S
C343 C340 1.388 . S
C343 C344 1.382 . S
C343 H368 0.950 . S
C344 N339 1.332 . S
C344 C343 1.382 . S
C344 H354 0.948 . S
N345 Co323 2.282 . S
N345 C349 1.332 . S
N345 C350 1.332 . S
C346 C347 1.388 . S
C346 C350 1.382 . S
C346 H369 0.950 . S
C347 C346 1.388 . S
C347 C348 1.386 . S
C348 C347 1.386 . S
C348 C349 1.382 . S
C348 H370 0.950 . S
C349 N345 1.332 . S
C349 C348 1.382 . S
C349 H351 0.952 . S
C350 N345 1.332 . S
C350 C346 1.382 . S
C350 H352 0.948 . S
H351 C349 0.952 . S
H352 C350 0.948 . S
H353 C342 0.952 . S
H354 C344 0.948 . S
C355 C321 1.395 . S
C355 C325 1.391 . S
C356 C318 1.389 . S
C356 C338 1.392 . S
C357 C328 1.392 . S
C357 C330 1.389 . S
C358 C333 1.395 . S
C358 C335 1.391 . S
H359 C319 0.951 . S
H360 C320 0.950 . S
H361 C326 0.949 . S
H362 C327 0.950 . S
H363 C331 0.951 . S
H364 C332 0.950 . S
H365 C336 0.949 . S
H366 C337 0.950 . S
H367 C341 0.950 . S
H368 C343 0.950 . S
H369 C346 0.950 . S
H370 C348 0.950 . S
C371 C372 1.443 . S
C371 N375 1.376 . S
C371 C409 1.389 . S
C372 C371 1.443 . S
C372 C373 1.340 . S
C372 H412 0.951 . S
C373 C372 1.340 . S
C373 C374 1.439 . S
C373 H413 0.950 . S
C374 C373 1.439 . S
C374 N375 1.374 . S
C374 C408 1.395 . S
N375 C371 1.376 . S
N375 C374 1.374 . S
N375 Co376 2.008 . S
Co376 N375 2.008 . S
Co376 N377 1.995 . S
Co376 N382 2.008 . S
Co376 N387 1.995 . S
Co376 N392 2.282 . S
Co376 N398 2.282 . S
N377 Co376 1.995 . S
N377 C378 1.376 . S
N377 C381 1.383 . S
C378 N377 1.376 . S
C378 C379 1.446 . S
C378 C408 1.391 . S
C379 C378 1.446 . S
C379 C380 1.339 . S
C379 H414 0.949 . S
C380 C379 1.339 . S
C380 C381 1.439 . S
C380 H415 0.950 . S
C381 N377 1.383 . S
C381 C380 1.439 . S
C381 C410 1.392 . S
N382 Co376 2.008 . S
N382 C383 1.376 . S
N382 C386 1.374 . S
C383 N382 1.376 . S
C383 C384 1.443 . S
C383 C410 1.389 . S
C384 C383 1.443 . S
C384 C385 1.340 . S
C384 H416 0.951 . S
C385 C384 1.340 . S
C385 C386 1.439 . S
C385 H417 0.950 . S
C386 N382 1.374 . S
C386 C385 1.439 . S
C386 C411 1.395 . S
N387 Co376 1.995 . S
N387 C388 1.376 . S
N387 C391 1.383 . S
C388 N387 1.376 . S
C388 C389 1.446 . S
C388 C411 1.391 . S
C389 C388 1.446 . S
C389 C390 1.339 . S
C389 H418 0.949 . S
C390 C389 1.339 . S
C390 C391 1.439 . S
C390 H419 0.950 . S
C391 N387 1.383 . S
C391 C390 1.439 . S
C391 C409 1.392 . S
N392 Co376 2.282 . S
N392 C395 1.332 . S
N392 C397 1.332 . S
C393 C394 1.386 . S
C393 C396 1.388 . S
C394 C393 1.386 . S
C394 C395 1.382 . S
C394 H420 0.950 . S
C395 N392 1.332 . S
C395 C394 1.382 . S
C395 H406 0.952 . S
C396 C393 1.388 . S
C396 C397 1.382 . S
C396 H421 0.950 . S
C397 N392 1.332 . S
C397 C396 1.382 . S
C397 H407 0.948 . S
N398 Co376 2.282 . S
N398 C402 1.332 . S
N398 C403 1.332 . S
C399 C400 1.388 . S
C399 C403 1.382 . S
C399 H422 0.950 . S
C400 C399 1.388 . S
C400 C401 1.386 . S
C401 C400 1.386 . S
C401 C402 1.382 . S
C401 H423 0.950 . S
C402 N398 1.332 . S
C402 C401 1.382 . S
C402 H404 0.952 . S
C403 N398 1.332 . S
C403 C399 1.382 . S
C403 H405 0.948 . S
H404 C402 0.952 . S
H405 C403 0.948 . S
H406 C395 0.952 . S
H407 C397 0.948 . S
C408 C374 1.395 . S
C408 C378 1.391 . S
C409 C371 1.389 . S
C409 C391 1.392 . S
C410 C381 1.392 . S
C410 C383 1.389 . S
C411 C386 1.395 . S
C411 C388 1.391 . S
H412 C372 0.951 . S
H413 C373 0.950 . S
H414 C379 0.949 . S
H415 C380 0.950 . S
H416 C384 0.951 . S
H417 C385 0.950 . S
H418 C389 0.949 . S
H419 C390 0.950 . S
H420 C394 0.950 . S
H421 C396 0.950 . S
H422 C399 0.950 . S
H423 C401 0.950 . S
C424 C425 1.443 . S
C424 N428 1.376 . S
C424 C462 1.389 . S
C425 C424 1.443 . S
C425 C426 1.340 . S
C425 H465 0.951 . S
C426 C425 1.340 . S
C426 C427 1.439 . S
C426 H466 0.950 . S
C427 C426 1.439 . S
C427 N428 1.374 . S
C427 C461 1.395 . S
N428 C424 1.376 . S
N428 C427 1.374 . S
N428 Co429 2.008 . S
Co429 N428 2.008 . S
Co429 N430 1.995 . S
Co429 N435 2.008 . S
Co429 N440 1.995 . S
Co429 N445 2.282 . S
Co429 N451 2.282 . S
N430 Co429 1.995 . S
N430 C431 1.376 . S
N430 C434 1.383 . S
C431 N430 1.376 . S
C431 C432 1.446 . S
C431 C461 1.391 . S
C432 C431 1.446 . S
C432 C433 1.339 . S
C432 H467 0.949 . S
C433 C432 1.339 . S
C433 C434 1.439 . S
C433 H468 0.950 . S
C434 N430 1.383 . S
C434 C433 1.439 . S
C434 C463 1.392 . S
N435 Co429 2.008 . S
N435 C436 1.376 . S
N435 C439 1.374 . S
C436 N435 1.376 . S
C436 C437 1.443 . S
C436 C463 1.389 . S
C437 C436 1.443 . S
C437 C438 1.340 . S
C437 H469 0.951 . S
C438 C437 1.340 . S
C438 C439 1.439 . S
C438 H470 0.950 . S
C439 N435 1.374 . S
C439 C438 1.439 . S
C439 C464 1.395 . S
N440 Co429 1.995 . S
N440 C441 1.376 . S
N440 C444 1.383 . S
C441 N440 1.376 . S
C441 C442 1.446 . S
C441 C464 1.391 . S
C442 C441 1.446 . S
C442 C443 1.339 . S
C442 H471 0.949 . S
C443 C442 1.339 . S
C443 C444 1.439 . S
C443 H472 0.950 . S
C444 N440 1.383 . S
C444 C443 1.439 . S
C444 C462 1.392 . S
N445 Co429 2.282 . S
N445 C448 1.332 . S
N445 C450 1.332 . S
C446 C447 1.386 . S
C446 C449 1.388 . S
C447 C446 1.386 . S
C447 C448 1.382 . S
C447 H473 0.950 . S
C448 N445 1.332 . S
C448 C447 1.382 . S
C448 H459 0.952 . S
C449 C446 1.388 . S
C449 C450 1.382 . S
C449 H474 0.950 . S
C450 N445 1.332 . S
C450 C449 1.382 . S
C450 H460 0.948 . S
N451 Co429 2.282 . S
N451 C455 1.332 . S
N451 C456 1.332 . S
C452 C453 1.388 . S
C452 C456 1.382 . S
C452 H475 0.950 . S
C453 C452 1.388 . S
C453 C454 1.386 . S
C454 C453 1.386 . S
C454 C455 1.382 . S
C454 H476 0.950 . S
C455 N451 1.332 . S
C455 C454 1.382 . S
C455 H457 0.952 . S
C456 N451 1.332 . S
C456 C452 1.382 . S
C456 H458 0.948 . S
H457 C455 0.952 . S
H458 C456 0.948 . S
H459 C448 0.952 . S
H460 C450 0.948 . S
C461 C427 1.395 . S
C461 C431 1.391 . S
C462 C424 1.389 . S
C462 C444 1.392 . S
C463 C434 1.392 . S
C463 C436 1.389 . S
C464 C439 1.395 . S
C464 C441 1.391 . S
H465 C425 0.951 . S
H466 C426 0.950 . S
H467 C432 0.949 . S
H468 C433 0.950 . S
H469 C437 0.951 . S
H470 C438 0.950 . S
H471 C442 0.949 . S
H472 C443 0.950 . S
H473 C447 0.950 . S
H474 C449 0.950 . S
H475 C452 0.950 . S
H476 C454 0.950 . S
C477 C478 1.443 . S
C477 N481 1.376 . S
C477 C515 1.389 . S
C478 C477 1.443 . S
C478 C479 1.340 . S
C478 H518 0.951 . S
C479 C478 1.340 . S
C479 C480 1.439 . S
C479 H519 0.950 . S
C480 C479 1.439 . S
C480 N481 1.374 . S
C480 C514 1.395 . S
N481 C477 1.376 . S
N481 C480 1.374 . S
N481 Co482 2.008 . S
Co482 N481 2.008 . S
Co482 N483 1.995 . S
Co482 N488 2.008 . S
Co482 N493 1.995 . S
Co482 N498 2.282 . S
Co482 N504 2.282 . S
N483 Co482 1.995 . S
N483 C484 1.376 . S
N483 C487 1.383 . S
C484 N483 1.376 . S
C484 C485 1.446 . S
C484 C514 1.391 . S
C485 C484 1.446 . S
C485 C486 1.339 . S
C485 H520 0.949 . S
C486 C485 1.339 . S
C486 C487 1.439 . S
C486 H521 0.950 . S
C487 N483 1.383 . S
C487 C486 1.439 . S
C487 C516 1.392 . S
N488 Co482 2.008 . S
N488 C489 1.376 . S
N488 C492 1.374 . S
C489 N488 1.376 . S
C489 C490 1.443 . S
C489 C516 1.389 . S
C490 C489 1.443 . S
C490 C491 1.340 . S
C490 H522 0.951 . S
C491 C490 1.340 . S
C491 C492 1.439 . S
C491 H523 0.950 . S
C492 N488 1.374 . S
C492 C491 1.439 . S
C492 C517 1.395 . S
N493 Co482 1.995 . S
N493 C494 1.376 . S
N493 C497 1.383 . S
C494 N493 1.376 . S
C494 C495 1.446 . S
C494 C517 1.391 . S
C495 C494 1.446 . S
C495 C496 1.339 . S
C495 H524 0.949 . S
C496 C495 1.339 . S
C496 C497 1.439 . S
C496 H525 0.950 . S
C497 N493 1.383 . S
C497 C496 1.439 . S
C497 C515 1.392 . S
N498 Co482 2.282 . S
N498 C501 1.332 . S
N498 C503 1.332 . S
C499 C500 1.386 . S
C499 C502 1.388 . S
C500 C499 1.386 . S
C500 C501 1.382 . S
C500 H526 0.950 . S
C501 N498 1.332 . S
C501 C500 1.382 . S
C501 H512 0.952 . S
C502 C499 1.388 . S
C502 C503 1.382 . S
C502 H527 0.950 . S
C503 N498 1.332 . S
C503 C502 1.382 . S
C503 H513 0.948 . S
N504 Co482 2.282 . S
N504 C508 1.332 . S
N504 C509 1.332 . S
C505 C506 1.388 . S
C505 C509 1.382 . S
C505 H528 0.950 . S
C506 C505 1.388 . S
C506 C507 1.386 . S
C507 C506 1.386 . S
C507 C508 1.382 . S
C507 H529 0.950 . S
C508 N504 1.332 . S
C508 C507 1.382 . S
C508 H510 0.952 . S
C509 N504 1.332 . S
C509 C505 1.382 . S
C509 H511 0.948 . S
H510 C508 0.952 . S
H511 C509 0.948 . S
H512 C501 0.952 . S
H513 C503 0.948 . S
C514 C480 1.395 . S
C514 C484 1.391 . S
C515 C477 1.389 . S
C515 C497 1.392 . S
C516 C487 1.392 . S
C516 C489 1.389 . S
C517 C492 1.395 . S
C517 C494 1.391 . S
H518 C478 0.951 . S
H519 C479 0.950 . S
H520 C485 0.949 . S
H521 C486 0.950 . S
H522 C490 0.951 . S
H523 C491 0.950 . S
H524 C495 0.949 . S
H525 C496 0.950 . S
H526 C500 0.950 . S
H527 C502 0.950 . S
H528 C505 0.950 . S
H529 C507 0.950 . S
C530 C531 1.443 . S
C530 N534 1.376 . S
C530 C568 1.389 . S
C531 C530 1.443 . S
C531 C532 1.340 . S
C531 H571 0.951 . S
C532 C531 1.340 . S
C532 C533 1.439 . S
C532 H572 0.950 . S
C533 C532 1.439 . S
C533 N534 1.374 . S
C533 C567 1.395 . S
N534 C530 1.376 . S
N534 C533 1.374 . S
N534 Co535 2.008 . S
Co535 N534 2.008 . S
Co535 N536 1.995 . S
Co535 N541 2.008 1_545 S
Co535 N546 1.995 1_545 S
Co535 N551 2.282 . S
Co535 N557 2.282 . S
N536 Co535 1.995 . S
N536 C537 1.376 . S
N536 C540 1.383 . S
C537 N536 1.376 . S
C537 C538 1.446 . S
C537 C567 1.391 . S
C538 C537 1.446 . S
C538 C539 1.339 . S
C538 H573 0.949 . S
C539 C538 1.339 . S
C539 C540 1.439 . S
C539 H574 0.950 . S
C540 N536 1.383 . S
C540 C539 1.439 . S
C540 C569 1.392 . S
N541 Co535 2.008 1_565 S
N541 C542 1.376 . S
N541 C545 1.374 . S
C542 N541 1.376 . S
C542 C543 1.443 . S
C542 C569 1.389 1_565 S
C543 C542 1.443 . S
C543 C544 1.340 . S
C543 H575 0.951 . S
C544 C543 1.340 . S
C544 C545 1.439 . S
C544 H576 0.950 . S
C545 N541 1.374 . S
C545 C544 1.439 . S
C545 C570 1.395 . S
N546 Co535 1.995 1_565 S
N546 C547 1.376 . S
N546 C550 1.383 1_565 S
C547 N546 1.376 . S
C547 C548 1.446 . S
C547 C570 1.391 . S
C548 C547 1.446 . S
C548 C549 1.339 . S
C548 H577 0.949 . S
C549 C548 1.339 . S
C549 C550 1.439 1_565 S
C549 H578 0.950 . S
C550 N546 1.383 1_545 S
C550 C549 1.439 1_545 S
C550 C568 1.392 . S
N551 Co535 2.282 . S
N551 C554 1.332 1_545 S
N551 C556 1.332 . S
C552 C553 1.386 . S
C552 C555 1.388 1_565 S
C553 C552 1.386 . S
C553 C554 1.382 . S
C553 H579 0.950 . S
C554 N551 1.332 1_565 S
C554 C553 1.382 . S
C554 H565 0.952 . S
C555 C552 1.388 1_545 S
C555 C556 1.382 . S
C555 H580 0.950 . S
C556 N551 1.332 . S
C556 C555 1.382 . S
C556 H566 0.948 . S
N557 Co535 2.282 . S
N557 C561 1.332 . S
N557 C562 1.332 . S
C558 C559 1.388 . S
C558 C562 1.382 . S
C558 H581 0.951 1_545 S
C559 C558 1.388 . S
C559 C560 1.386 . S
C560 C559 1.386 . S
C560 C561 1.382 . S
C560 H582 0.950 . S
C561 N557 1.332 . S
C561 C560 1.382 . S
C561 H563 0.952 . S
C562 N557 1.332 . S
C562 C558 1.382 . S
C562 H564 0.948 1_545 S
H563 C561 0.952 . S
H564 C562 0.948 1_565 S
H565 C554 0.952 . S
H566 C556 0.948 . S
C567 C533 1.395 . S
C567 C537 1.391 . S
C568 C530 1.389 . S
C568 C550 1.392 . S
C569 C540 1.392 . S
C569 C542 1.389 1_545 S
C570 C545 1.395 . S
C570 C547 1.391 . S
H571 C531 0.951 . S
H572 C532 0.950 . S
H573 C538 0.949 . S
H574 C539 0.950 . S
H575 C543 0.951 . S
H576 C544 0.950 . S
H577 C548 0.949 . S
H578 C549 0.950 . S
H579 C553 0.950 . S
H580 C555 0.950 . S
H581 C558 0.951 1_565 S
H582 C560 0.950 . S
C583 C584 1.443 . S
C583 N587 1.376 . S
C583 C621 1.389 . S
C584 C583 1.443 . S
C584 C585 1.340 . S
C584 H624 0.951 . S
C585 C584 1.340 . S
C585 C586 1.439 . S
C585 H625 0.950 . S
C586 C585 1.439 . S
C586 N587 1.374 . S
C586 C620 1.395 . S
N587 C583 1.376 . S
N587 C586 1.374 . S
N587 Co588 2.008 1_556 S
Co588 N587 2.008 1_554 S
Co588 N589 1.995 1_554 S
Co588 N594 2.008 . S
Co588 N599 1.995 . S
Co588 N604 2.282 . S
Co588 N610 2.282 1_554 S
N589 Co588 1.995 1_556 S
N589 C590 1.376 . S
N589 C593 1.383 . S
C590 N589 1.376 . S
C590 C591 1.446 . S
C590 C620 1.391 . S
C591 C590 1.446 . S
C591 C592 1.339 . S
C591 H626 0.949 . S
C592 C591 1.339 . S
C592 C593 1.439 . S
C592 H627 0.950 . S
C593 N589 1.383 . S
C593 C592 1.439 . S
C593 C622 1.392 1_556 S
N594 Co588 2.008 . S
N594 C595 1.376 . S
N594 C598 1.374 . S
C595 N594 1.376 . S
C595 C596 1.443 . S
C595 C622 1.389 . S
C596 C595 1.443 . S
C596 C597 1.340 . S
C596 H628 0.951 . S
C597 C596 1.340 . S
C597 C598 1.439 . S
C597 H629 0.950 . S
C598 N594 1.374 . S
C598 C597 1.439 . S
C598 C623 1.395 . S
N599 Co588 1.995 . S
N599 C600 1.376 . S
N599 C603 1.383 . S
C600 N599 1.376 . S
C600 C601 1.446 . S
C600 C623 1.391 . S
C601 C600 1.446 . S
C601 C602 1.339 . S
C601 H630 0.949 . S
C602 C601 1.339 . S
C602 C603 1.439 . S
C602 H631 0.950 . S
C603 N599 1.383 . S
C603 C602 1.439 . S
C603 C621 1.392 1_554 S
N604 Co588 2.282 . S
N604 C607 1.332 . S
N604 C609 1.332 1_554 S
C605 C606 1.386 . S
C605 C608 1.388 1_554 S
C606 C605 1.386 . S
C606 C607 1.382 . S
C606 H632 0.950 . S
C607 N604 1.332 . S
C607 C606 1.382 . S
C607 H618 0.952 . S
C608 C605 1.388 1_556 S
C608 C609 1.382 . S
C608 H633 0.950 . S
C609 N604 1.332 1_556 S
C609 C608 1.382 . S
C609 H619 0.948 . S
N610 Co588 2.282 1_556 S
N610 C614 1.332 . S
N610 C615 1.332 1_556 S
C611 C612 1.388 1_554 S
C611 C615 1.382 . S
C611 H634 0.950 . S
C612 C611 1.388 1_556 S
C612 C613 1.386 . S
C613 C612 1.386 . S
C613 C614 1.382 . S
C613 H635 0.950 . S
C614 N610 1.332 . S
C614 C613 1.382 . S
C614 H616 0.952 . S
C615 N610 1.332 1_554 S
C615 C611 1.382 . S
C615 H617 0.948 . S
H616 C614 0.952 . S
H617 C615 0.948 . S
H618 C607 0.952 . S
H619 C609 0.948 . S
C620 C586 1.395 . S
C620 C590 1.391 . S
C621 C583 1.389 . S
C621 C603 1.392 1_556 S
C622 C593 1.392 1_554 S
C622 C595 1.389 . S
C623 C598 1.395 . S
C623 C600 1.391 . S
H624 C584 0.951 . S
H625 C585 0.950 . S
H626 C591 0.949 . S
H627 C592 0.950 . S
H628 C596 0.951 . S
H629 C597 0.950 . S
H630 C601 0.949 . S
H631 C602 0.950 . S
H632 C606 0.950 . S
H633 C608 0.950 . S
H634 C611 0.950 . S
H635 C613 0.950 . S
O636 Zn637 1.953 . S
O636 C652 1.225 . S
Zn637 O636 1.953 . S
Zn637 O638 1.949 . S
Zn637 O644 1.919 . S
Zn637 O649 1.924 . S
O638 Zn637 1.949 . S
O638 Zn639 1.923 . S
O638 Zn640 1.950 . S
O638 Zn641 1.945 . S
Zn639 O638 1.923 . S
Zn639 O642 1.933 . S
Zn639 O645 1.941 . S
Zn639 O646 1.965 . S
Zn640 O638 1.950 . S
Zn640 O647 1.938 . S
Zn640 O648 1.906 . S
Zn640 O658 1.953 . S
Zn641 O638 1.945 . S
Zn641 O643 1.932 . S
Zn641 O650 1.977 . S
Zn641 O651 1.910 . S
O642 Zn639 1.933 . S
O642 C653 1.226 . S
O643 Zn641 1.932 . S
O643 C653 1.307 . S
O644 Zn637 1.919 . S
O644 C655 1.253 . S
O645 Zn639 1.941 . S
O645 C655 1.283 . S
O646 Zn639 1.965 . S
O646 C654 1.303 . S
O647 Zn640 1.938 . S
O647 C654 1.247 . S
O648 Zn640 1.906 . S
O648 C656 1.304 . S
O649 Zn637 1.924 . S
O649 C657 1.311 . S
O650 Zn641 1.977 . S
O650 C656 1.272 . S
O651 Zn641 1.910 . S
O651 C657 1.231 . S
C652 O636 1.225 . S
C652 O658 1.298 . S
C653 O642 1.226 . S
C653 O643 1.307 . S
C654 O646 1.303 . S
C654 O647 1.247 . S
C655 O644 1.253 . S
C655 O645 1.283 . S
C656 O648 1.304 . S
C656 O650 1.272 . S
C657 O649 1.311 . S
C657 O651 1.231 . S
O658 Zn640 1.953 . S
O658 C652 1.298 . S
O659 Zn660 1.953 . S
O659 C675 1.225 . S
Zn660 O659 1.953 . S
Zn660 O661 1.949 . S
Zn660 O667 1.919 . S
Zn660 O672 1.924 . S
O661 Zn660 1.949 . S
O661 Zn662 1.923 . S
O661 Zn663 1.950 . S
O661 Zn664 1.945 . S
Zn662 O661 1.923 . S
Zn662 O665 1.933 . S
Zn662 O668 1.941 . S
Zn662 O669 1.965 . S
Zn663 O661 1.950 . S
Zn663 O670 1.938 . S
Zn663 O671 1.906 . S
Zn663 O681 1.953 . S
Zn664 O661 1.945 . S
Zn664 O666 1.955 . S
Zn664 O673 1.977 . S
Zn664 O674 1.910 . S
O665 Zn662 1.933 . S
O665 C676 1.226 1_655 S
O666 Zn664 1.955 . S
O666 C676 1.301 1_655 S
O667 Zn660 1.919 . S
O667 C678 1.253 . S
O668 Zn662 1.941 . S
O668 C678 1.283 . S
O669 Zn662 1.965 . S
O669 C677 1.303 . S
O670 Zn663 1.938 . S
O670 C677 1.247 . S
O671 Zn663 1.906 . S
O671 C679 1.313 . S
O672 Zn660 1.924 . S
O672 C680 1.311 . S
O673 Zn664 1.977 . S
O673 C679 1.284 . S
O674 Zn664 1.910 . S
O674 C680 1.231 . S
C675 O659 1.225 . S
C675 O681 1.298 . S
C676 O665 1.226 1_455 S
C676 O666 1.301 1_455 S
C677 O669 1.303 . S
C677 O670 1.247 . S
C678 O667 1.253 . S
C678 O668 1.283 . S
C679 O671 1.313 . S
C679 O673 1.284 . S
C680 O672 1.311 . S
C680 O674 1.231 . S
O681 Zn663 1.953 . S
O681 C675 1.298 . S
O682 Zn683 1.953 . S
O682 C698 1.225 . S
Zn683 O682 1.953 . S
Zn683 O684 1.949 . S
Zn683 O690 1.919 . S
Zn683 O695 1.924 . S
O684 Zn683 1.949 . S
O684 Zn685 1.923 . S
O684 Zn686 1.950 . S
O684 Zn687 1.945 . S
Zn685 O684 1.923 . S
Zn685 O688 1.933 . S
Zn685 O691 1.941 . S
Zn685 O692 1.965 . S
Zn686 O684 1.950 . S
Zn686 O693 1.938 . S
Zn686 O694 1.906 . S
Zn686 O704 1.953 . S
Zn687 O684 1.945 . S
Zn687 O689 1.932 . S
Zn687 O696 1.977 . S
Zn687 O697 1.910 . S
O688 Zn685 1.933 . S
O688 C699 1.226 . S
O689 Zn687 1.932 . S
O689 C699 1.307 . S
O690 Zn683 1.919 . S
O690 C701 1.253 . S
O691 Zn685 1.941 . S
O691 C701 1.283 . S
O692 Zn685 1.965 . S
O692 C700 1.303 . S
O693 Zn686 1.938 . S
O693 C700 1.247 . S
O694 Zn686 1.906 . S
O694 C702 1.304 . S
O695 Zn683 1.924 . S
O695 C703 1.311 . S
O696 Zn687 1.977 . S
O696 C702 1.272 . S
O697 Zn687 1.910 . S
O697 C703 1.231 . S
C698 O682 1.225 . S
C698 O704 1.298 . S
C699 O688 1.226 . S
C699 O689 1.307 . S
C700 O692 1.303 . S
C700 O693 1.247 . S
C701 O690 1.253 . S
C701 O691 1.283 . S
C702 O694 1.304 . S
C702 O696 1.272 . S
C703 O695 1.311 . S
C703 O697 1.231 . S
O704 Zn686 1.953 . S
O704 C698 1.298 . S
O705 Zn706 1.953 . S
O705 C721 1.225 . S
Zn706 O705 1.953 . S
Zn706 O707 1.949 . S
Zn706 O713 1.919 . S
Zn706 O718 1.924 . S
O707 Zn706 1.949 . S
O707 Zn708 1.923 . S
O707 Zn709 1.950 . S
O707 Zn710 1.945 . S
Zn708 O707 1.923 . S
Zn708 O711 1.933 . S
Zn708 O714 1.941 . S
Zn708 O715 1.965 . S
Zn709 O707 1.950 . S
Zn709 O716 1.938 . S
Zn709 O717 1.906 . S
Zn709 O727 1.953 . S
Zn710 O707 1.945 . S
Zn710 O712 1.932 . S
Zn710 O719 1.977 . S
Zn710 O720 1.910 . S
O711 Zn708 1.933 . S
O711 C722 1.226 . S
O712 Zn710 1.932 . S
O712 C722 1.307 . S
O713 Zn706 1.919 . S
O713 C724 1.253 . S
O714 Zn708 1.941 . S
O714 C724 1.283 . S
O715 Zn708 1.965 . S
O715 C723 1.303 . S
O716 Zn709 1.938 . S
O716 C723 1.247 . S
O717 Zn709 1.906 . S
O717 C725 1.304 . S
O718 Zn706 1.924 . S
O718 C726 1.311 1_655 S
O719 Zn710 1.977 . S
O719 C725 1.272 . S
O720 Zn710 1.910 . S
O720 C726 1.231 1_655 S
C721 O705 1.225 . S
C721 O727 1.298 . S
C722 O711 1.226 . S
C722 O712 1.307 . S
C723 O715 1.303 . S
C723 O716 1.247 . S
C724 O713 1.253 . S
C724 O714 1.283 . S
C725 O717 1.304 . S
C725 O719 1.272 . S
C726 O718 1.311 1_455 S
C726 O720 1.231 1_455 S
O727 Zn709 1.953 . S
O727 C721 1.298 . S
O728 Zn729 1.953 . S
O728 C744 1.225 . S
Zn729 O728 1.953 . S
Zn729 O730 1.949 . S
Zn729 O736 1.919 . S
Zn729 O741 1.924 . S
O730 Zn729 1.949 . S
O730 Zn731 1.923 . S
O730 Zn732 1.950 . S
O730 Zn733 1.945 . S
Zn731 O730 1.923 . S
Zn731 O734 1.933 . S
Zn731 O737 1.941 . S
Zn731 O738 1.965 . S
Zn732 O730 1.950 . S
Zn732 O739 1.938 . S
Zn732 O740 1.906 . S
Zn732 O750 1.953 . S
Zn733 O730 1.945 . S
Zn733 O735 1.932 . S
Zn733 O742 1.977 . S
Zn733 O743 1.910 . S
O734 Zn731 1.933 . S
O734 C745 1.226 . S
O735 Zn733 1.932 . S
O735 C745 1.307 . S
O736 Zn729 1.919 . S
O736 C747 1.253 . S
O737 Zn731 1.941 . S
O737 C747 1.283 . S
O738 Zn731 1.965 . S
O738 C746 1.303 . S
O739 Zn732 1.938 . S
O739 C746 1.247 . S
O740 Zn732 1.906 . S
O740 C748 1.304 . S
O741 Zn729 1.924 . S
O741 C749 1.311 . S
O742 Zn733 1.977 . S
O742 C748 1.272 . S
O743 Zn733 1.910 . S
O743 C749 1.231 . S
C744 O728 1.225 . S
C744 O750 1.298 . S
C745 O734 1.226 . S
C745 O735 1.307 . S
C746 O738 1.303 . S
C746 O739 1.247 . S
C747 O736 1.253 . S
C747 O737 1.283 . S
C748 O740 1.304 . S
C748 O742 1.272 . S
C749 O741 1.311 . S
C749 O743 1.231 . S
O750 Zn732 1.953 . S
O750 C744 1.298 . S
O751 Zn752 1.953 . S
O751 C767 1.225 . S
Zn752 O751 1.953 . S
Zn752 O753 1.949 . S
Zn752 O759 1.919 . S
Zn752 O764 1.924 . S
O753 Zn752 1.949 . S
O753 Zn754 1.923 . S
O753 Zn755 1.950 . S
O753 Zn756 1.945 . S
Zn754 O753 1.923 . S
Zn754 O757 1.933 . S
Zn754 O760 1.941 . S
Zn754 O761 1.965 . S
Zn755 O753 1.950 . S
Zn755 O762 1.938 . S
Zn755 O763 1.906 . S
Zn755 O773 1.953 . S
Zn756 O753 1.945 . S
Zn756 O758 1.932 . S
Zn756 O765 1.977 . S
Zn756 O766 1.910 . S
O757 Zn754 1.933 . S
O757 C768 1.226 . S
O758 Zn756 1.932 . S
O758 C768 1.307 . S
O759 Zn752 1.919 . S
O759 C770 1.253 . S
O760 Zn754 1.941 . S
O760 C770 1.283 . S
O761 Zn754 1.965 . S
O761 C769 1.303 . S
O762 Zn755 1.938 . S
O762 C769 1.247 . S
O763 Zn755 1.906 . S
O763 C771 1.304 . S
O764 Zn752 1.924 . S
O764 C772 1.311 . S
O765 Zn756 1.977 . S
O765 C771 1.272 . S
O766 Zn756 1.910 . S
O766 C772 1.231 . S
C767 O751 1.225 . S
C767 O773 1.298 . S
C768 O757 1.226 . S
C768 O758 1.307 . S
C769 O761 1.303 . S
C769 O762 1.247 . S
C770 O759 1.253 . S
C770 O760 1.283 . S
C771 O763 1.304 . S
C771 O765 1.272 . S
C772 O764 1.311 . S
C772 O766 1.231 . S
O773 Zn755 1.953 . S
O773 C767 1.298 . S
O774 Zn775 1.953 . S
O774 C790 1.225 . S
Zn775 O774 1.953 . S
Zn775 O776 1.949 . S
Zn775 O782 1.919 . S
Zn775 O787 1.924 . S
O776 Zn775 1.949 . S
O776 Zn777 1.923 . S
O776 Zn778 1.950 . S
O776 Zn779 1.945 . S
Zn777 O776 1.923 . S
Zn777 O780 1.933 . S
Zn777 O783 1.941 . S
Zn777 O784 1.965 . S
Zn778 O776 1.950 . S
Zn778 O785 1.938 . S
Zn778 O786 1.906 . S
Zn778 O796 1.953 . S
Zn779 O776 1.945 . S
Zn779 O781 1.932 . S
Zn779 O788 1.977 . S
Zn779 O789 1.910 1_556 S
O780 Zn777 1.933 . S
O780 C791 1.226 . S
O781 Zn779 1.932 . S
O781 C791 1.307 . S
O782 Zn775 1.919 . S
O782 C793 1.253 . S
O783 Zn777 1.941 . S
O783 C793 1.283 . S
O784 Zn777 1.965 . S
O784 C792 1.303 . S
O785 Zn778 1.938 . S
O785 C792 1.247 . S
O786 Zn778 1.906 . S
O786 C794 1.304 . S
O787 Zn775 1.924 . S
O787 C795 1.311 1_556 S
O788 Zn779 1.977 . S
O788 C794 1.272 . S
O789 Zn779 1.910 1_554 S
O789 C795 1.231 . S
C790 O774 1.225 . S
C790 O796 1.298 . S
C791 O780 1.226 . S
C791 O781 1.307 . S
C792 O784 1.303 . S
C792 O785 1.247 . S
C793 O782 1.253 . S
C793 O783 1.283 . S
C794 O786 1.304 . S
C794 O788 1.272 . S
C795 O787 1.311 1_554 S
C795 O789 1.231 . S
O796 Zn778 1.953 . S
O796 C790 1.298 . S
O797 Zn798 1.953 . S
O797 C813 1.225 . S
Zn798 O797 1.953 . S
Zn798 O799 1.949 . S
Zn798 O805 1.919 . S
Zn798 O810 1.924 . S
O799 Zn798 1.949 . S
O799 Zn800 1.923 . S
O799 Zn801 1.950 . S
O799 Zn802 1.945 . S
Zn800 O799 1.923 . S
Zn800 O803 1.933 . S
Zn800 O806 1.941 . S
Zn800 O807 1.965 . S
Zn801 O799 1.950 . S
Zn801 O808 1.938 . S
Zn801 O809 1.906 . S
Zn801 O819 1.953 . S
Zn802 O799 1.945 . S
Zn802 O804 1.932 . S
Zn802 O811 1.977 . S
Zn802 O812 1.910 . S
O803 Zn800 1.933 . S
O803 C814 1.226 . S
O804 Zn802 1.932 . S
O804 C814 1.307 . S
O805 Zn798 1.919 . S
O805 C816 1.253 . S
O806 Zn800 1.941 . S
O806 C816 1.283 . S
O807 Zn800 1.965 . S
O807 C815 1.303 . S
O808 Zn801 1.938 . S
O808 C815 1.247 . S
O809 Zn801 1.906 . S
O809 C817 1.304 . S
O810 Zn798 1.924 . S
O810 C818 1.311 . S
O811 Zn802 1.977 . S
O811 C817 1.272 . S
O812 Zn802 1.910 . S
O812 C818 1.231 . S
C813 O797 1.225 . S
C813 O819 1.298 . S
C814 O803 1.226 . S
C814 O804 1.307 . S
C815 O807 1.303 . S
C815 O808 1.247 . S
C816 O805 1.253 . S
C816 O806 1.283 . S
C817 O809 1.304 . S
C817 O811 1.272 . S
C818 O810 1.311 . S
C818 O812 1.231 . S
O819 Zn801 1.953 . S
O819 C813 1.298 . S
C820 C821 1.349 . S
C820 C822 1.327 . S
C820 H845 0.950 . S
C821 C820 1.349 . S
C821 C837 1.349 . S
C822 C820 1.327 . S
C822 C841 1.429 . S
C822 H846 0.950 . S
C823 C840 1.574 . S
C823 C842 1.368 . S
C823 H847 0.949 . S
H824 C828 0.949 . S
C825 C826 1.349 . S
C825 C827 1.327 . S
C825 H848 0.950 . S
C826 C825 1.349 . S
C826 C838 1.349 . S
C827 C825 1.327 . S
C827 C843 1.429 . S
C827 H849 0.950 . S
C828 H824 0.949 . S
C828 C836 1.574 . S
C828 C844 1.368 . S
H829 C837 0.950 1_655 S
H830 C835 0.958 . S
H831 C836 0.949 . S
H832 C838 0.950 . S
H833 C839 0.950 . S
H834 C840 0.949 . S
C835 H830 0.958 . S
C835 C837 1.327 . S
C835 C841 1.429 . S
C836 C828 1.574 . S
C836 H831 0.949 . S
C836 C842 1.368 . S
C837 C821 1.349 . S
C837 H829 0.950 1_455 S
C837 C835 1.327 . S
C838 C826 1.349 . S
C838 H832 0.950 . S
C838 C839 1.327 . S
C839 H833 0.950 . S
C839 C838 1.327 . S
C839 C843 1.429 . S
C840 C823 1.574 . S
C840 H834 0.949 . S
C840 C844 1.368 . S
C841 C822 1.429 . S
C841 C835 1.429 . S
C841 C842 1.523 . S
C842 C823 1.368 . S
C842 C836 1.368 . S
C842 C841 1.523 . S
C843 C827 1.429 . S
C843 C839 1.429 . S
C843 C844 1.523 . S
C844 C828 1.368 . S
C844 C840 1.368 . S
C844 C843 1.523 . S
H845 C820 0.950 . S
H846 C822 0.950 . S
H847 C823 0.949 . S
H848 C825 0.950 . S
H849 C827 0.950 . S
C850 C851 1.349 1_455 S
C850 C852 1.327 . S
C850 H875 0.950 . S
C851 C850 1.349 1_655 S
C851 C867 1.349 . S
C852 C850 1.327 . S
C852 C871 1.429 1_455 S
C852 H876 0.950 . S
C853 C870 1.574 . S
C853 C872 1.368 . S
C853 H877 0.949 . S
H854 C858 0.949 1_455 S
C855 C856 1.349 . S
C855 C857 1.327 . S
C855 H878 0.950 . S
C856 C855 1.349 . S
C856 C868 1.349 . S
C857 C855 1.327 . S
C857 C873 1.429 . S
C857 H879 0.950 . S
C858 H854 0.949 1_655 S
C858 C866 1.580 . S
C858 C874 1.368 . S
H859 C867 0.950 . S
H860 C865 0.950 . S
H861 C866 0.910 1_455 S
H862 C868 0.950 1_455 S
H863 C869 0.950 1_455 S
H864 C870 0.949 . S
C865 H860 0.950 . S
C865 C867 1.327 . S
C865 C871 1.429 . S
C866 C858 1.580 . S
C866 H861 0.910 1_655 S
C866 C872 1.407 . S
C867 C851 1.349 . S
C867 H859 0.950 . S
C867 C865 1.327 . S
C868 C856 1.349 . S
C868 H862 0.950 1_655 S
C868 C869 1.327 . S
C869 H863 0.950 1_655 S
C869 C868 1.327 . S
C869 C873 1.429 . S
C870 C853 1.574 . S
C870 H864 0.949 . S
C870 C874 1.368 . S
C871 C852 1.429 1_655 S
C871 C865 1.429 . S
C871 C872 1.523 . S
C872 C853 1.368 . S
C872 C866 1.407 . S
C872 C871 1.523 . S
C873 C857 1.429 . S
C873 C869 1.429 . S
C873 C874 1.523 . S
C874 C858 1.368 . S
C874 C870 1.368 . S
C874 C873 1.523 . S
H875 C850 0.950 . S
H876 C852 0.950 . S
H877 C853 0.949 . S
H878 C855 0.950 . S
H879 C857 0.950 . S
C880 C881 1.349 . S
C880 C882 1.327 . S
C880 H905 0.950 . S
C881 C880 1.349 . S
C881 C897 1.349 . S
C882 C880 1.327 . S
C882 C901 1.429 . S
C882 H906 0.950 . S
C883 C900 1.574 . S
C883 C902 1.368 . S
C883 H907 0.949 . S
H884 C888 0.949 . S
C885 C886 1.349 . S
C885 C887 1.327 . S
C885 H908 0.950 . S
C886 C885 1.349 . S
C886 C898 1.349 . S
C887 C885 1.327 . S
C887 C903 1.429 . S
C887 H909 0.950 . S
C888 H884 0.949 . S
C888 C896 1.574 . S
C888 C904 1.368 . S
H889 C897 0.950 . S
H890 C895 0.950 . S
H891 C896 0.949 . S
H892 C898 0.950 . S
H893 C899 0.950 . S
H894 C900 0.949 . S
C895 H890 0.950 . S
C895 C897 1.327 . S
C895 C901 1.429 . S
C896 C888 1.574 . S
C896 H891 0.949 . S
C896 C902 1.368 . S
C897 C881 1.349 . S
C897 H889 0.950 . S
C897 C895 1.327 . S
C898 C886 1.349 . S
C898 H892 0.950 . S
C898 C899 1.327 . S
C899 H893 0.950 . S
C899 C898 1.327 . S
C899 C903 1.429 . S
C900 C883 1.574 . S
C900 H894 0.949 . S
C900 C904 1.368 . S
C901 C882 1.429 . S
C901 C895 1.429 . S
C901 C902 1.523 . S
C902 C883 1.368 . S
C902 C896 1.368 . S
C902 C901 1.523 . S
C903 C887 1.429 . S
C903 C899 1.429 . S
C903 C904 1.523 . S
C904 C888 1.368 . S
C904 C900 1.368 . S
C904 C903 1.523 . S
H905 C880 0.950 . S
H906 C882 0.950 . S
H907 C883 0.949 . S
H908 C885 0.950 . S
H909 C887 0.950 . S
C910 C911 1.349 1_655 S
C910 C912 1.327 . S
C910 H935 0.950 . S
C911 C910 1.349 1_455 S
C911 C927 1.349 . S
C912 C910 1.327 . S
C912 C931 1.429 1_655 S
C912 H936 0.950 . S
C913 C930 1.574 . S
C913 C932 1.368 1_455 S
C913 H937 0.949 . S
H914 C918 0.949 . S
C915 C916 1.349 . S
C915 C917 1.327 . S
C915 H938 0.950 . S
C916 C915 1.349 . S
C916 C928 1.349 . S
C917 C915 1.327 . S
C917 C933 1.429 . S
C917 H939 0.950 1_655 S
C918 H914 0.949 . S
C918 C926 1.574 . S
C918 C934 1.368 . S
H919 C927 0.950 . S
H920 C925 0.950 . S
H921 C926 0.949 . S
H922 C928 0.950 . S
H923 C929 0.950 . S
H924 C930 0.949 . S
C925 H920 0.950 . S
C925 C927 1.327 . S
C925 C931 1.429 . S
C926 C918 1.574 . S
C926 H921 0.949 . S
C926 C932 1.368 . S
C927 C911 1.349 . S
C927 H919 0.950 . S
C927 C925 1.327 . S
C928 C916 1.349 . S
C928 H922 0.950 . S
C928 C929 1.327 . S
C929 H923 0.950 . S
C929 C928 1.327 . S
C929 C933 1.429 . S
C930 C913 1.574 . S
C930 H924 0.949 . S
C930 C934 1.368 1_455 S
C931 C912 1.429 1_455 S
C931 C925 1.429 . S
C931 C932 1.523 1_455 S
C932 C913 1.368 1_655 S
C932 C926 1.368 . S
C932 C931 1.523 1_655 S
C933 C917 1.429 . S
C933 C929 1.429 . S
C933 C934 1.523 . S
C934 C918 1.368 . S
C934 C930 1.368 1_655 S
C934 C933 1.523 . S
H935 C910 0.950 . S
H936 C912 0.950 . S
H937 C913 0.949 . S
H938 C915 0.950 . S
H939 C917 0.950 1_455 S
C940 C941 1.349 . S
C940 C942 1.327 . S
C940 H965 0.950 . S
C941 C940 1.349 . S
C941 C957 1.349 . S
C942 C940 1.327 . S
C942 C961 1.429 . S
C942 H966 0.950 . S
C943 C960 1.574 . S
C943 C962 1.368 . S
C943 H967 0.949 . S
H944 C948 0.949 . S
C945 C946 1.349 . S
C945 C947 1.327 . S
C945 H968 0.950 . S
C946 C945 1.349 . S
C946 C958 1.349 . S
C947 C945 1.327 . S
C947 C963 1.429 . S
C947 H969 0.950 . S
C948 H944 0.949 . S
C948 C956 1.574 . S
C948 C964 1.368 . S
H949 C957 0.950 1_565 S
H950 C955 0.945 . S
H951 C956 0.949 . S
H952 C958 0.950 . S
H953 C959 0.950 . S
H954 C960 0.949 . S
C955 H950 0.945 . S
C955 C957 1.327 . S
C955 C961 1.429 . S
C956 C948 1.574 . S
C956 H951 0.949 . S
C956 C962 1.368 . S
C957 C941 1.349 . S
C957 H949 0.950 1_545 S
C957 C955 1.327 . S
C958 C946 1.349 . S
C958 H952 0.950 . S
C958 C959 1.327 . S
C959 H953 0.950 . S
C959 C958 1.327 . S
C959 C963 1.429 . S
C960 C943 1.574 . S
C960 H954 0.949 . S
C960 C964 1.368 . S
C961 C942 1.429 . S
C961 C955 1.429 . S
C961 C962 1.523 . S
C962 C943 1.368 . S
C962 C956 1.368 . S
C962 C961 1.523 . S
C963 C947 1.429 . S
C963 C959 1.429 . S
C963 C964 1.523 . S
C964 C948 1.368 . S
C964 C960 1.368 . S
C964 C963 1.523 . S
H965 C940 0.950 . S
H966 C942 0.950 . S
H967 C943 0.949 . S
H968 C945 0.950 . S
H969 C947 0.950 . S
C970 C971 1.349 . S
C970 C972 1.327 . S
C970 H995 0.950 . S
C971 C970 1.349 . S
C971 C987 1.349 . S
C972 C970 1.327 . S
C972 C991 1.429 . S
C972 H996 0.950 . S
C973 C990 1.574 . S
C973 C992 1.368 . S
C973 H997 0.949 . S
H974 C978 0.949 . S
C975 C976 1.349 . S
C975 C977 1.327 . S
C975 H998 0.950 . S
C976 C975 1.349 . S
C976 C988 1.349 . S
C977 C975 1.327 . S
C977 C993 1.429 . S
C977 H999 0.950 . S
C978 H974 0.949 . S
C978 C986 1.574 . S
C978 C994 1.368 . S
H979 C987 0.950 . S
H980 C985 0.950 . S
H981 C986 0.949 . S
H982 C988 0.950 . S
H983 C989 0.950 . S
H984 C990 0.949 . S
C985 H980 0.950 . S
C985 C987 1.327 . S
C985 C991 1.429 . S
C986 C978 1.574 . S
C986 H981 0.949 . S
C986 C992 1.368 . S
C987 C971 1.349 . S
C987 H979 0.950 . S
C987 C985 1.327 . S
C988 C976 1.349 . S
C988 H982 0.950 . S
C988 C989 1.327 . S
C989 H983 0.950 . S
C989 C988 1.327 . S
C989 C993 1.429 . S
C990 C973 1.574 . S
C990 H984 0.949 . S
C990 C994 1.368 . S
C991 C972 1.429 . S
C991 C985 1.429 . S
C991 C992 1.523 . S
C992 C973 1.368 . S
C992 C986 1.368 . S
C992 C991 1.523 . S
C993 C977 1.429 . S
C993 C989 1.429 . S
C993 C994 1.523 . S
C994 C978 1.368 . S
C994 C990 1.368 . S
C994 C993 1.523 . S
H995 C970 0.950 . S
H996 C972 0.950 . S
H997 C973 0.949 . S
H998 C975 0.950 . S
H999 C977 0.950 . S
C1000 C1001 1.349 . S
C1000 C1002 1.327 . S
C1000 H1025 0.950 . S
C1001 C1000 1.349 . S
C1001 C1017 1.349 . S
C1002 C1000 1.327 . S
C1002 C1021 1.429 . S
C1002 H1026 0.950 . S
C1003 C1020 1.574 . S
C1003 C1022 1.368 . S
C1003 H1027 0.949 . S
H1004 C1008 0.949 . S
C1005 C1006 1.349 . S
C1005 C1007 1.327 . S
C1005 H1028 0.950 . S
C1006 C1005 1.349 . S
C1006 C1018 1.349 . S
C1007 C1005 1.327 . S
C1007 C1023 1.429 . S
C1007 H1029 0.950 . S
C1008 H1004 0.949 . S
C1008 C1016 1.574 . S
C1008 C1024 1.368 . S
H1009 C1017 0.950 1_545 S
H1010 C1015 0.950 . S
H1011 C1016 0.949 . S
H1012 C1018 0.950 . S
H1013 C1019 0.950 . S
H1014 C1020 0.949 . S
C1015 H1010 0.950 . S
C1015 C1017 1.327 . S
C1015 C1021 1.429 . S
C1016 C1008 1.574 . S
C1016 H1011 0.949 . S
C1016 C1022 1.368 . S
C1017 C1001 1.349 . S
C1017 H1009 0.950 1_565 S
C1017 C1015 1.327 . S
C1018 C1006 1.349 . S
C1018 H1012 0.950 . S
C1018 C1019 1.327 . S
C1019 H1013 0.950 . S
C1019 C1018 1.327 . S
C1019 C1023 1.429 . S
C1020 C1003 1.574 . S
C1020 H1014 0.949 . S
C1020 C1024 1.368 . S
C1021 C1002 1.429 . S
C1021 C1015 1.429 . S
C1021 C1022 1.523 . S
C1022 C1003 1.368 . S
C1022 C1016 1.368 . S
C1022 C1021 1.523 . S
C1023 C1007 1.429 . S
C1023 C1019 1.429 . S
C1023 C1024 1.523 . S
C1024 C1008 1.368 . S
C1024 C1020 1.368 . S
C1024 C1023 1.523 . S
H1025 C1000 0.950 . S
H1026 C1002 0.950 . S
H1027 C1003 0.949 . S
H1028 C1005 0.950 . S
H1029 C1007 0.950 . S
C1030 C1031 1.349 . S
C1030 C1032 1.327 . S
C1030 H1055 0.950 . S
C1031 C1030 1.349 . S
C1031 C1047 1.349 . S
C1032 C1030 1.327 . S
C1032 C1051 1.429 . S
C1032 H1056 0.950 . S
C1033 C1050 1.574 . S
C1033 C1052 1.368 . S
C1033 H1057 0.949 . S
H1034 C1038 0.949 . S
C1035 C1036 1.349 . S
C1035 C1037 1.327 . S
C1035 H1058 0.950 . S
C1036 C1035 1.349 . S
C1036 C1048 1.349 . S
C1037 C1035 1.327 . S
C1037 C1053 1.429 . S
C1037 H1059 0.950 . S
C1038 H1034 0.949 . S
C1038 C1046 1.574 . S
C1038 C1054 1.368 . S
H1039 C1047 0.950 . S
H1040 C1045 0.950 . S
H1041 C1046 0.949 . S
H1042 C1048 0.950 . S
H1043 C1049 0.950 . S
H1044 C1050 0.949 . S
C1045 H1040 0.950 . S
C1045 C1047 1.327 . S
C1045 C1051 1.429 . S
C1046 C1038 1.574 . S
C1046 H1041 0.949 . S
C1046 C1052 1.368 . S
C1047 C1031 1.349 . S
C1047 H1039 0.950 . S
C1047 C1045 1.327 . S
C1048 C1036 1.349 . S
C1048 H1042 0.950 . S
C1048 C1049 1.327 . S
C1049 H1043 0.950 . S
C1049 C1048 1.327 . S
C1049 C1053 1.429 . S
C1050 C1033 1.574 . S
C1050 H1044 0.949 . S
C1050 C1054 1.368 . S
C1051 C1032 1.429 . S
C1051 C1045 1.429 . S
C1051 C1052 1.523 . S
C1052 C1033 1.368 . S
C1052 C1046 1.368 . S
C1052 C1051 1.523 . S
C1053 C1037 1.429 . S
C1053 C1049 1.429 . S
C1053 C1054 1.523 . S
C1054 C1038 1.368 . S
C1054 C1050 1.368 . S
C1054 C1053 1.523 . S
H1055 C1030 0.950 . S
H1056 C1032 0.950 . S
H1057 C1033 0.949 . S
H1058 C1035 0.950 . S
H1059 C1037 0.950 . S
C1060 C1061 1.349 . S
C1060 C1062 1.327 . S
C1060 H1085 0.950 . S
C1061 C1060 1.349 . S
C1061 C1077 1.349 . S
C1062 C1060 1.327 . S
C1062 C1081 1.429 . S
C1062 H1086 0.950 . S
C1063 C1080 1.574 . S
C1063 C1082 1.368 . S
C1063 H1087 0.949 . S
H1064 C1068 0.949 . S
C1065 C1066 1.349 . S
C1065 C1067 1.327 . S
C1065 H1088 0.950 . S
C1066 C1065 1.349 . S
C1066 C1078 1.349 . S
C1067 C1065 1.327 . S
C1067 C1083 1.429 . S
C1067 H1089 0.950 . S
C1068 H1064 0.949 . S
C1068 C1076 1.574 . S
C1068 C1084 1.368 . S
H1069 C1077 0.950 . S
H1070 C1075 0.950 . S
H1071 C1076 0.949 . S
H1072 C1078 0.950 . S
H1073 C1079 0.950 . S
H1074 C1080 0.949 . S
C1075 H1070 0.950 . S
C1075 C1077 1.327 . S
C1075 C1081 1.429 . S
C1076 C1068 1.574 . S
C1076 H1071 0.949 . S
C1076 C1082 1.368 . S
C1077 C1061 1.349 . S
C1077 H1069 0.950 . S
C1077 C1075 1.327 . S
C1078 C1066 1.349 . S
C1078 H1072 0.950 . S
C1078 C1079 1.327 . S
C1079 H1073 0.950 . S
C1079 C1078 1.327 . S
C1079 C1083 1.429 . S
C1080 C1063 1.574 . S
C1080 H1074 0.949 . S
C1080 C1084 1.368 . S
C1081 C1062 1.429 . S
C1081 C1075 1.429 . S
C1081 C1082 1.523 . S
C1082 C1063 1.368 . S
C1082 C1076 1.368 . S
C1082 C1081 1.523 . S
C1083 C1067 1.429 . S
C1083 C1079 1.429 . S
C1083 C1084 1.523 . S
C1084 C1068 1.368 . S
C1084 C1080 1.368 . S
C1084 C1083 1.523 . S
H1085 C1060 0.950 . S
H1086 C1062 0.950 . S
H1087 C1063 0.949 . S
H1088 C1065 0.950 . S
H1089 C1067 0.950 . S
C1090 C1091 1.349 . S
C1090 C1092 1.327 . S
C1090 H1115 0.950 . S
C1091 C1090 1.349 . S
C1091 C1107 1.349 . S
C1092 C1090 1.327 . S
C1092 C1111 1.429 . S
C1092 H1116 0.950 . S
C1093 C1110 1.574 . S
C1093 C1112 1.368 . S
C1093 H1117 0.949 . S
H1094 C1098 0.949 . S
C1095 C1096 1.349 . S
C1095 C1097 1.327 . S
C1095 H1118 0.950 . S
C1096 C1095 1.349 . S
C1096 C1108 1.349 . S
C1097 C1095 1.327 . S
C1097 C1113 1.429 . S
C1097 H1119 0.950 . S
C1098 H1094 0.949 . S
C1098 C1106 1.574 . S
C1098 C1114 1.368 . S
H1099 C1107 0.950 . S
H1100 C1105 0.950 . S
H1101 C1106 0.949 . S
H1102 C1108 0.950 . S
H1103 C1109 0.950 . S
H1104 C1110 0.949 . S
C1105 H1100 0.950 . S
C1105 C1107 1.327 . S
C1105 C1111 1.429 . S
C1106 C1098 1.574 . S
C1106 H1101 0.949 . S
C1106 C1112 1.368 . S
C1107 C1091 1.349 . S
C1107 H1099 0.950 . S
C1107 C1105 1.327 . S
C1108 C1096 1.349 . S
C1108 H1102 0.950 . S
C1108 C1109 1.327 . S
C1109 H1103 0.950 . S
C1109 C1108 1.327 . S
C1109 C1113 1.429 . S
C1110 C1093 1.574 . S
C1110 H1104 0.949 . S
C1110 C1114 1.368 . S
C1111 C1092 1.429 . S
C1111 C1105 1.429 . S
C1111 C1112 1.523 . S
C1112 C1093 1.368 . S
C1112 C1106 1.368 . S
C1112 C1111 1.523 . S
C1113 C1097 1.429 . S
C1113 C1109 1.429 . S
C1113 C1114 1.523 . S
C1114 C1098 1.368 . S
C1114 C1110 1.368 . S
C1114 C1113 1.523 . S
H1115 C1090 0.950 . S
H1116 C1092 0.950 . S
H1117 C1093 0.949 . S
H1118 C1095 0.950 . S
H1119 C1097 0.950 . S
C1120 C1121 1.349 . S
C1120 C1122 1.327 . S
C1120 H1145 0.950 . S
C1121 C1120 1.349 . S
C1121 C1137 1.349 . S
C1122 C1120 1.327 . S
C1122 C1141 1.429 . S
C1122 H1146 0.950 . S
C1123 C1140 1.574 . S
C1123 C1142 1.368 . S
C1123 H1147 0.949 . S
H1124 C1128 0.949 . S
C1125 C1126 1.349 . S
C1125 C1127 1.327 . S
C1125 H1148 0.950 . S
C1126 C1125 1.349 . S
C1126 C1138 1.349 . S
C1127 C1125 1.327 . S
C1127 C1143 1.429 . S
C1127 H1149 0.950 . S
C1128 H1124 0.949 . S
C1128 C1136 1.574 . S
C1128 C1144 1.368 . S
H1129 C1137 0.950 . S
H1130 C1135 0.950 . S
H1131 C1136 0.949 . S
H1132 C1138 0.950 . S
H1133 C1139 0.950 . S
H1134 C1140 0.949 . S
C1135 H1130 0.950 . S
C1135 C1137 1.327 . S
C1135 C1141 1.429 . S
C1136 C1128 1.574 . S
C1136 H1131 0.949 . S
C1136 C1142 1.368 . S
C1137 C1121 1.349 . S
C1137 H1129 0.950 . S
C1137 C1135 1.327 . S
C1138 C1126 1.349 . S
C1138 H1132 0.950 . S
C1138 C1139 1.327 . S
C1139 H1133 0.950 . S
C1139 C1138 1.327 . S
C1139 C1143 1.429 . S
C1140 C1123 1.574 . S
C1140 H1134 0.949 . S
C1140 C1144 1.368 . S
C1141 C1122 1.429 . S
C1141 C1135 1.429 . S
C1141 C1142 1.523 . S
C1142 C1123 1.368 . S
C1142 C1136 1.368 . S
C1142 C1141 1.523 . S
C1143 C1127 1.429 . S
C1143 C1139 1.429 . S
C1143 C1144 1.523 . S
C1144 C1128 1.368 . S
C1144 C1140 1.368 . S
C1144 C1143 1.523 . S
H1145 C1120 0.950 . S
H1146 C1122 0.950 . S
H1147 C1123 0.949 . S
H1148 C1125 0.950 . S
H1149 C1127 0.950 . S
C1150 C1151 1.349 . S
C1150 C1152 1.327 . S
C1150 H1175 0.950 . S
C1151 C1150 1.349 . S
C1151 C1167 1.349 . S
C1152 C1150 1.327 . S
C1152 C1171 1.429 . S
C1152 H1176 0.950 . S
C1153 C1170 1.574 . S
C1153 C1172 1.368 . S
C1153 H1177 0.949 . S
H1154 C1158 0.949 . S
C1155 C1156 1.349 . S
C1155 C1157 1.327 . S
C1155 H1178 0.950 . S
C1156 C1155 1.349 . S
C1156 C1168 1.349 . S
C1157 C1155 1.327 . S
C1157 C1173 1.429 . S
C1157 H1179 0.950 . S
C1158 H1154 0.949 . S
C1158 C1166 1.574 . S
C1158 C1174 1.368 . S
H1159 C1167 0.950 . S
H1160 C1165 0.950 . S
H1161 C1166 0.949 . S
H1162 C1168 0.950 . S
H1163 C1169 0.950 . S
H1164 C1170 0.949 . S
C1165 H1160 0.950 . S
C1165 C1167 1.327 . S
C1165 C1171 1.429 . S
C1166 C1158 1.574 . S
C1166 H1161 0.949 . S
C1166 C1172 1.368 . S
C1167 C1151 1.349 . S
C1167 H1159 0.950 . S
C1167 C1165 1.327 . S
C1168 C1156 1.349 . S
C1168 H1162 0.950 . S
C1168 C1169 1.327 . S
C1169 H1163 0.950 . S
C1169 C1168 1.327 . S
C1169 C1173 1.429 . S
C1170 C1153 1.574 . S
C1170 H1164 0.949 . S
C1170 C1174 1.368 . S
C1171 C1152 1.429 . S
C1171 C1165 1.429 . S
C1171 C1172 1.523 . S
C1172 C1153 1.368 . S
C1172 C1166 1.368 . S
C1172 C1171 1.523 . S
C1173 C1157 1.429 . S
C1173 C1169 1.429 . S
C1173 C1174 1.523 . S
C1174 C1158 1.368 . S
C1174 C1170 1.368 . S
C1174 C1173 1.523 . S
H1175 C1150 0.950 . S
H1176 C1152 0.950 . S
H1177 C1153 0.949 . S
H1178 C1155 0.950 . S
H1179 C1157 0.950 . S
C1180 C1181 1.349 . S
C1180 C1182 1.327 . S
C1180 H1205 0.950 . S
C1181 C1180 1.349 . S
C1181 C1197 1.349 . S
C1182 C1180 1.327 . S
C1182 C1201 1.429 . S
C1182 H1206 0.950 . S
C1183 C1200 1.574 . S
C1183 C1202 1.368 . S
C1183 H1207 0.949 . S
H1184 C1188 0.949 . S
C1185 C1186 1.349 . S
C1185 C1187 1.327 . S
C1185 H1208 0.950 . S
C1186 C1185 1.349 . S
C1186 C1198 1.349 . S
C1187 C1185 1.327 . S
C1187 C1203 1.429 . S
C1187 H1209 0.950 . S
C1188 H1184 0.949 . S
C1188 C1196 1.574 . S
C1188 C1204 1.368 . S
H1189 C1197 0.950 . S
H1190 C1195 0.950 . S
H1191 C1196 0.949 . S
H1192 C1198 0.950 . S
H1193 C1199 0.950 . S
H1194 C1200 0.949 . S
C1195 H1190 0.950 . S
C1195 C1197 1.327 . S
C1195 C1201 1.429 . S
C1196 C1188 1.574 . S
C1196 H1191 0.949 . S
C1196 C1202 1.368 . S
C1197 C1181 1.349 . S
C1197 H1189 0.950 . S
C1197 C1195 1.327 . S
C1198 C1186 1.349 . S
C1198 H1192 0.950 . S
C1198 C1199 1.327 . S
C1199 H1193 0.950 . S
C1199 C1198 1.327 . S
C1199 C1203 1.429 . S
C1200 C1183 1.574 . S
C1200 H1194 0.949 . S
C1200 C1204 1.368 . S
C1201 C1182 1.429 . S
C1201 C1195 1.429 . S
C1201 C1202 1.523 . S
C1202 C1183 1.368 . S
C1202 C1196 1.368 . S
C1202 C1201 1.523 . S
C1203 C1187 1.429 . S
C1203 C1199 1.429 . S
C1203 C1204 1.523 . S
C1204 C1188 1.368 . S
C1204 C1200 1.368 . S
C1204 C1203 1.523 . S
H1205 C1180 0.950 . S
H1206 C1182 0.950 . S
H1207 C1183 0.949 . S
H1208 C1185 0.950 . S
H1209 C1187 0.950 . S
C1210 C1211 1.349 . S
C1210 C1212 1.327 . S
C1210 H1235 0.950 . S
C1211 C1210 1.349 . S
C1211 C1227 1.349 . S
C1212 C1210 1.327 . S
C1212 C1231 1.429 . S
C1212 H1236 0.950 . S
C1213 C1230 1.574 . S
C1213 C1232 1.368 . S
C1213 H1237 0.949 . S
H1214 C1218 0.949 . S
C1215 C1216 1.349 . S
C1215 C1217 1.327 . S
C1215 H1238 0.950 . S
C1216 C1215 1.349 . S
C1216 C1228 1.349 . S
C1217 C1215 1.327 . S
C1217 C1233 1.429 . S
C1217 H1239 0.950 . S
C1218 H1214 0.949 . S
C1218 C1226 1.574 . S
C1218 C1234 1.368 . S
H1219 C1227 0.950 . S
H1220 C1225 0.950 . S
H1221 C1226 0.949 . S
H1222 C1228 0.950 . S
H1223 C1229 0.950 . S
H1224 C1230 0.949 . S
C1225 H1220 0.950 . S
C1225 C1227 1.327 . S
C1225 C1231 1.429 . S
C1226 C1218 1.574 . S
C1226 H1221 0.949 . S
C1226 C1232 1.368 . S
C1227 C1211 1.349 . S
C1227 H1219 0.950 . S
C1227 C1225 1.327 . S
C1228 C1216 1.349 . S
C1228 H1222 0.950 . S
C1228 C1229 1.327 . S
C1229 H1223 0.950 . S
C1229 C1228 1.327 . S
C1229 C1233 1.429 . S
C1230 C1213 1.574 . S
C1230 H1224 0.949 . S
C1230 C1234 1.368 . S
C1231 C1212 1.429 . S
C1231 C1225 1.429 . S
C1231 C1232 1.523 . S
C1232 C1213 1.368 . S
C1232 C1226 1.368 . S
C1232 C1231 1.523 . S
C1233 C1217 1.429 . S
C1233 C1229 1.429 . S
C1233 C1234 1.523 . S
C1234 C1218 1.368 . S
C1234 C1230 1.368 . S
C1234 C1233 1.523 . S
H1235 C1210 0.950 . S
H1236 C1212 0.950 . S
H1237 C1213 0.949 . S
H1238 C1215 0.950 . S
H1239 C1217 0.950 . S
C1240 C1241 1.349 . S
C1240 C1242 1.327 . S
C1240 H1265 0.950 . S
C1241 C1240 1.349 . S
C1241 C1257 1.349 . S
C1242 C1240 1.327 . S
C1242 C1261 1.429 . S
C1242 H1266 0.950 . S
C1243 C1260 1.574 . S
C1243 C1262 1.368 . S
C1243 H1267 0.949 . S
H1244 C1248 0.949 . S
C1245 C1246 1.349 . S
C1245 C1247 1.327 . S
C1245 H1268 0.950 . S
C1246 C1245 1.349 . S
C1246 C1258 1.349 . S
C1247 C1245 1.327 . S
C1247 C1263 1.429 . S
C1247 H1269 0.950 . S
C1248 H1244 0.949 . S
C1248 C1256 1.574 . S
C1248 C1264 1.368 . S
H1249 C1257 0.950 . S
H1250 C1255 0.950 . S
H1251 C1256 0.949 . S
H1252 C1258 0.950 . S
H1253 C1259 0.950 . S
H1254 C1260 0.949 . S
C1255 H1250 0.950 . S
C1255 C1257 1.327 . S
C1255 C1261 1.429 . S
C1256 C1248 1.574 . S
C1256 H1251 0.949 . S
C1256 C1262 1.368 . S
C1257 C1241 1.349 . S
C1257 H1249 0.950 . S
C1257 C1255 1.327 . S
C1258 C1246 1.349 . S
C1258 H1252 0.950 . S
C1258 C1259 1.327 . S
C1259 H1253 0.950 . S
C1259 C1258 1.327 . S
C1259 C1263 1.429 . S
C1260 C1243 1.574 . S
C1260 H1254 0.949 . S
C1260 C1264 1.368 . S
C1261 C1242 1.429 . S
C1261 C1255 1.429 . S
C1261 C1262 1.523 . S
C1262 C1243 1.368 . S
C1262 C1256 1.368 . S
C1262 C1261 1.523 . S
C1263 C1247 1.429 . S
C1263 C1259 1.429 . S
C1263 C1264 1.523 . S
C1264 C1248 1.368 . S
C1264 C1260 1.368 . S
C1264 C1263 1.523 . S
H1265 C1240 0.950 . S
H1266 C1242 0.950 . S
H1267 C1243 0.949 . S
H1268 C1245 0.950 . S
H1269 C1247 0.950 . S
C1270 C1271 1.349 . S
C1270 C1272 1.327 . S
C1270 H1295 0.950 . S
C1271 C1270 1.349 . S
C1271 C1287 1.349 . S
C1272 C1270 1.327 . S
C1272 C1291 1.429 . S
C1272 H1296 0.950 . S
C1273 C1290 1.574 . S
C1273 C1292 1.368 . S
C1273 H1297 0.949 . S
H1274 C1278 0.949 . S
C1275 C1276 1.349 . S
C1275 C1277 1.327 . S
C1275 H1298 0.950 . S
C1276 C1275 1.349 . S
C1276 C1288 1.349 . S
C1277 C1275 1.327 . S
C1277 C1293 1.429 . S
C1277 H1299 0.950 . S
C1278 H1274 0.949 . S
C1278 C1286 1.574 . S
C1278 C1294 1.368 . S
H1279 C1287 0.950 . S
H1280 C1285 0.950 . S
H1281 C1286 0.949 . S
H1282 C1288 0.950 . S
H1283 C1289 0.950 . S
H1284 C1290 0.949 . S
C1285 H1280 0.950 . S
C1285 C1287 1.327 . S
C1285 C1291 1.429 . S
C1286 C1278 1.574 . S
C1286 H1281 0.949 . S
C1286 C1292 1.368 . S
C1287 C1271 1.349 . S
C1287 H1279 0.950 . S
C1287 C1285 1.327 . S
C1288 C1276 1.349 . S
C1288 H1282 0.950 . S
C1288 C1289 1.327 . S
C1289 H1283 0.950 . S
C1289 C1288 1.327 . S
C1289 C1293 1.429 . S
C1290 C1273 1.574 . S
C1290 H1284 0.949 . S
C1290 C1294 1.368 . S
C1291 C1272 1.429 . S
C1291 C1285 1.429 . S
C1291 C1292 1.523 . S
C1292 C1273 1.368 . S
C1292 C1286 1.368 . S
C1292 C1291 1.523 . S
C1293 C1277 1.429 . S
C1293 C1289 1.429 . S
C1293 C1294 1.523 . S
C1294 C1278 1.368 . S
C1294 C1290 1.368 . S
C1294 C1293 1.523 . S
H1295 C1270 0.950 . S
H1296 C1272 0.950 . S
H1297 C1273 0.949 . S
H1298 C1275 0.950 . S
H1299 C1277 0.950 . S
C1300 C1301 1.349 . S
C1300 C1302 1.327 . S
C1300 H1325 0.950 . S
C1301 C1300 1.349 . S
C1301 C1317 1.349 . S
C1302 C1300 1.327 . S
C1302 C1321 1.429 . S
C1302 H1326 0.950 . S
C1303 C1320 1.574 . S
C1303 C1322 1.368 . S
C1303 H1327 0.949 . S
H1304 C1308 0.949 . S
C1305 C1306 1.349 . S
C1305 C1307 1.327 . S
C1305 H1328 0.950 . S
C1306 C1305 1.349 . S
C1306 C1318 1.349 . S
C1307 C1305 1.327 . S
C1307 C1323 1.429 . S
C1307 H1329 0.950 . S
C1308 H1304 0.949 . S
C1308 C1316 1.574 . S
C1308 C1324 1.368 . S
H1309 C1317 0.950 . S
H1310 C1315 0.950 . S
H1311 C1316 0.949 . S
H1312 C1318 0.950 . S
H1313 C1319 0.950 . S
H1314 C1320 0.949 . S
C1315 H1310 0.950 . S
C1315 C1317 1.327 . S
C1315 C1321 1.429 . S
C1316 C1308 1.574 . S
C1316 H1311 0.949 . S
C1316 C1322 1.368 . S
C1317 C1301 1.349 . S
C1317 H1309 0.950 . S
C1317 C1315 1.327 . S
C1318 C1306 1.349 . S
C1318 H1312 0.950 . S
C1318 C1319 1.327 . S
C1319 H1313 0.950 . S
C1319 C1318 1.327 . S
C1319 C1323 1.429 . S
C1320 C1303 1.574 . S
C1320 H1314 0.949 . S
C1320 C1324 1.368 . S
C1321 C1302 1.429 . S
C1321 C1315 1.429 . S
C1321 C1322 1.523 . S
C1322 C1303 1.368 . S
C1322 C1316 1.368 . S
C1322 C1321 1.523 . S
C1323 C1307 1.429 . S
C1323 C1319 1.429 . S
C1323 C1324 1.523 . S
C1324 C1308 1.368 . S
C1324 C1320 1.368 . S
C1324 C1323 1.523 . S
H1325 C1300 0.950 . S
H1326 C1302 0.950 . S
H1327 C1303 0.949 . S
H1328 C1305 0.950 . S
H1329 C1307 0.950 . S
C1330 C1331 1.349 . S
C1330 C1332 1.327 . S
C1330 H1355 0.950 . S
C1331 C1330 1.349 . S
C1331 C1347 1.349 1_565 S
C1332 C1330 1.327 . S
C1332 C1351 1.429 . S
C1332 H1356 0.950 . S
C1333 C1350 1.574 . S
C1333 C1352 1.368 . S
C1333 H1357 0.949 1_565 S
H1334 C1338 0.949 . S
C1335 C1336 1.349 . S
C1335 C1337 1.327 . S
C1335 H1358 0.950 . S
C1336 C1335 1.349 . S
C1336 C1348 1.349 . S
C1337 C1335 1.327 . S
C1337 C1353 1.429 . S
C1337 H1359 0.950 . S
C1338 H1334 0.949 . S
C1338 C1346 1.574 . S
C1338 C1354 1.368 . S
H1339 C1347 0.950 . S
H1340 C1345 0.950 . S
H1341 C1346 0.949 . S
H1342 C1348 0.950 . S
H1343 C1349 0.950 . S
H1344 C1350 0.949 . S
C1345 H1340 0.950 . S
C1345 C1347 1.327 . S
C1345 C1351 1.429 1_545 S
C1346 C1338 1.574 . S
C1346 H1341 0.949 . S
C1346 C1352 1.368 . S
C1347 C1331 1.349 1_545 S
C1347 H1339 0.950 . S
C1347 C1345 1.327 . S
C1348 C1336 1.349 . S
C1348 H1342 0.950 . S
C1348 C1349 1.327 . S
C1349 H1343 0.950 . S
C1349 C1348 1.327 . S
C1349 C1353 1.429 . S
C1350 C1333 1.574 . S
C1350 H1344 0.949 . S
C1350 C1354 1.368 . S
C1351 C1332 1.429 . S
C1351 C1345 1.429 1_565 S
C1351 C1352 1.523 . S
C1352 C1333 1.368 . S
C1352 C1346 1.368 . S
C1352 C1351 1.523 . S
C1353 C1337 1.429 . S
C1353 C1349 1.429 . S
C1353 C1354 1.523 . S
C1354 C1338 1.368 . S
C1354 C1350 1.368 . S
C1354 C1353 1.523 . S
H1355 C1330 0.950 . S
H1356 C1332 0.950 . S
H1357 C1333 0.949 1_545 S
H1358 C1335 0.950 . S
H1359 C1337 0.950 . S
C1360 C1361 1.349 . S
C1360 C1362 1.327 . S
C1360 H1385 0.950 . S
C1361 C1360 1.349 . S
C1361 C1377 1.349 . S
C1362 C1360 1.327 . S
C1362 C1381 1.429 . S
C1362 H1386 0.950 . S
C1363 C1380 1.574 . S
C1363 C1382 1.368 . S
C1363 H1387 0.949 . S
H1364 C1368 0.949 . S
C1365 C1366 1.349 . S
C1365 C1367 1.327 . S
C1365 H1388 0.950 . S
C1366 C1365 1.349 . S
C1366 C1378 1.349 . S
C1367 C1365 1.327 . S
C1367 C1383 1.429 . S
C1367 H1389 0.950 . S
C1368 H1364 0.949 . S
C1368 C1376 1.574 . S
C1368 C1384 1.368 . S
H1369 C1377 0.950 . S
H1370 C1375 0.950 . S
H1371 C1376 0.949 . S
H1372 C1378 0.950 . S
H1373 C1379 0.950 . S
H1374 C1380 0.949 . S
C1375 H1370 0.950 . S
C1375 C1377 1.327 . S
C1375 C1381 1.429 . S
C1376 C1368 1.574 . S
C1376 H1371 0.949 . S
C1376 C1382 1.368 . S
C1377 C1361 1.349 . S
C1377 H1369 0.950 . S
C1377 C1375 1.327 . S
C1378 C1366 1.349 . S
C1378 H1372 0.950 . S
C1378 C1379 1.327 . S
C1379 H1373 0.950 . S
C1379 C1378 1.327 . S
C1379 C1383 1.429 . S
C1380 C1363 1.574 . S
C1380 H1374 0.949 . S
C1380 C1384 1.368 . S
C1381 C1362 1.429 . S
C1381 C1375 1.429 . S
C1381 C1382 1.523 . S
C1382 C1363 1.368 . S
C1382 C1376 1.368 . S
C1382 C1381 1.523 . S
C1383 C1367 1.429 . S
C1383 C1379 1.429 . S
C1383 C1384 1.523 . S
C1384 C1368 1.368 . S
C1384 C1380 1.368 . S
C1384 C1383 1.523 . S
H1385 C1360 0.950 . S
H1386 C1362 0.950 . S
H1387 C1363 0.949 . S
H1388 C1365 0.950 . S
H1389 C1367 0.950 . S
C1390 C1391 1.349 . S
C1390 C1392 1.327 . S
C1390 H1415 0.950 . S
C1391 C1390 1.349 . S
C1391 C1407 1.349 . S
C1392 C1390 1.327 . S
C1392 C1411 1.429 . S
C1392 H1416 0.950 . S
C1393 C1410 1.574 . S
C1393 C1412 1.368 . S
C1393 H1417 0.949 . S
H1394 C1398 0.949 . S
C1395 C1396 1.349 . S
C1395 C1397 1.327 . S
C1395 H1418 0.950 . S
C1396 C1395 1.349 . S
C1396 C1408 1.349 . S
C1397 C1395 1.327 . S
C1397 C1413 1.429 . S
C1397 H1419 0.950 . S
C1398 H1394 0.949 . S
C1398 C1406 1.574 . S
C1398 C1414 1.368 . S
H1399 C1407 0.950 . S
H1400 C1405 0.950 . S
H1401 C1406 0.949 . S
H1402 C1408 0.950 . S
H1403 C1409 0.950 . S
H1404 C1410 0.949 . S
C1405 H1400 0.950 . S
C1405 C1407 1.327 . S
C1405 C1411 1.429 . S
C1406 C1398 1.574 . S
C1406 H1401 0.949 . S
C1406 C1412 1.368 . S
C1407 C1391 1.349 . S
C1407 H1399 0.950 . S
C1407 C1405 1.327 . S
C1408 C1396 1.349 . S
C1408 H1402 0.950 . S
C1408 C1409 1.327 . S
C1409 H1403 0.950 . S
C1409 C1408 1.327 . S
C1409 C1413 1.429 . S
C1410 C1393 1.574 . S
C1410 H1404 0.949 . S
C1410 C1414 1.368 . S
C1411 C1392 1.429 . S
C1411 C1405 1.429 . S
C1411 C1412 1.523 . S
C1412 C1393 1.368 . S
C1412 C1406 1.368 . S
C1412 C1411 1.523 . S
C1413 C1397 1.429 . S
C1413 C1409 1.429 . S
C1413 C1414 1.523 . S
C1414 C1398 1.368 . S
C1414 C1410 1.368 . S
C1414 C1413 1.523 . S
H1415 C1390 0.950 . S
H1416 C1392 0.950 . S
H1417 C1393 0.949 . S
H1418 C1395 0.950 . S
H1419 C1397 0.950 . S
C1420 C1421 1.349 . S
C1420 C1422 1.327 . S
C1420 H1445 0.950 . S
C1421 C1420 1.349 . S
C1421 C1437 1.349 . S
C1422 C1420 1.327 . S
C1422 C1441 1.429 . S
C1422 H1446 0.950 . S
C1423 C1440 1.574 . S
C1423 C1442 1.368 . S
C1423 H1447 0.949 . S
H1424 C1428 0.949 . S
C1425 C1426 1.349 . S
C1425 C1427 1.327 . S
C1425 H1448 0.950 . S
C1426 C1425 1.349 . S
C1426 C1438 1.349 . S
C1427 C1425 1.327 . S
C1427 C1443 1.429 . S
C1427 H1449 0.950 . S
C1428 H1424 0.949 . S
C1428 C1436 1.574 . S
C1428 C1444 1.368 . S
H1429 C1437 0.950 . S
H1430 C1435 0.950 . S
H1431 C1436 0.949 . S
H1432 C1438 0.950 . S
H1433 C1439 0.950 . S
H1434 C1440 0.949 . S
C1435 H1430 0.950 . S
C1435 C1437 1.327 . S
C1435 C1441 1.429 . S
C1436 C1428 1.574 . S
C1436 H1431 0.949 . S
C1436 C1442 1.368 . S
C1437 C1421 1.349 . S
C1437 H1429 0.950 . S
C1437 C1435 1.327 . S
C1438 C1426 1.349 . S
C1438 H1432 0.950 . S
C1438 C1439 1.327 . S
C1439 H1433 0.950 . S
C1439 C1438 1.327 . S
C1439 C1443 1.429 . S
C1440 C1423 1.574 . S
C1440 H1434 0.949 . S
C1440 C1444 1.368 . S
C1441 C1422 1.429 . S
C1441 C1435 1.429 . S
C1441 C1442 1.523 . S
C1442 C1423 1.368 . S
C1442 C1436 1.368 . S
C1442 C1441 1.523 . S
C1443 C1427 1.429 . S
C1443 C1439 1.429 . S
C1443 C1444 1.523 . S
C1444 C1428 1.368 . S
C1444 C1440 1.368 . S
C1444 C1443 1.523 . S
H1445 C1420 0.950 . S
H1446 C1422 0.950 . S
H1447 C1423 0.949 . S
H1448 C1425 0.950 . S
H1449 C1427 0.950 . S
C1450 C1451 1.349 . S
C1450 C1452 1.327 . S
C1450 H1475 0.950 1_556 S
C1451 C1450 1.349 . S
C1451 C1467 1.349 . S
C1452 C1450 1.327 . S
C1452 C1471 1.429 . S
C1452 H1476 0.950 1_556 S
C1453 C1470 1.574 . S
C1453 C1472 1.368 . S
C1453 H1477 0.949 . S
H1454 C1458 0.949 . S
C1455 C1456 1.349 . S
C1455 C1457 1.327 . S
C1455 H1478 0.950 . S
C1456 C1455 1.349 . S
C1456 C1468 1.349 . S
C1457 C1455 1.327 . S
C1457 C1473 1.429 . S
C1457 H1479 0.950 . S
C1458 H1454 0.949 . S
C1458 C1466 1.574 . S
C1458 C1474 1.368 . S
H1459 C1467 0.950 . S
H1460 C1465 0.950 . S
H1461 C1466 0.949 . S
H1462 C1468 0.950 . S
H1463 C1469 0.950 . S
H1464 C1470 0.949 . S
C1465 H1460 0.950 . S
C1465 C1467 1.327 . S
C1465 C1471 1.429 . S
C1466 C1458 1.574 . S
C1466 H1461 0.949 . S
C1466 C1472 1.368 . S
C1467 C1451 1.349 . S
C1467 H1459 0.950 . S
C1467 C1465 1.327 . S
C1468 C1456 1.349 . S
C1468 H1462 0.950 . S
C1468 C1469 1.327 . S
C1469 H1463 0.950 . S
C1469 C1468 1.327 . S
C1469 C1473 1.429 . S
C1470 C1453 1.574 . S
C1470 H1464 0.949 . S
C1470 C1474 1.368 . S
C1471 C1452 1.429 . S
C1471 C1465 1.429 . S
C1471 C1472 1.523 . S
C1472 C1453 1.368 . S
C1472 C1466 1.368 . S
C1472 C1471 1.523 . S
C1473 C1457 1.429 . S
C1473 C1469 1.429 . S
C1473 C1474 1.523 . S
C1474 C1458 1.368 . S
C1474 C1470 1.368 . S
C1474 C1473 1.523 . S
H1475 C1450 0.950 1_554 S
H1476 C1452 0.950 1_554 S
H1477 C1453 0.949 . S
H1478 C1455 0.950 . S
H1479 C1457 0.950 . S
C1480 C1481 1.349 1_556 S
C1480 C1482 1.327 . S
C1480 H1505 0.950 . S
C1481 C1480 1.349 1_554 S
C1481 C1497 1.349 . S
C1482 C1480 1.327 . S
C1482 C1501 1.429 1_556 S
C1482 H1506 0.950 . S
C1483 C1500 1.574 . S
C1483 C1502 1.368 1_554 S
C1483 H1507 0.949 . S
H1484 C1488 0.949 . S
C1485 C1486 1.349 . S
C1485 C1487 1.327 . S
C1485 H1508 0.950 1_556 S
C1486 C1485 1.349 . S
C1486 C1498 1.349 . S
C1487 C1485 1.327 . S
C1487 C1503 1.429 . S
C1487 H1509 0.950 1_556 S
C1488 H1484 0.949 . S
C1488 C1496 1.574 . S
C1488 C1504 1.368 . S
H1489 C1497 0.950 . S
H1490 C1495 0.950 . S
H1491 C1496 0.949 . S
H1492 C1498 0.950 . S
H1493 C1499 0.950 . S
H1494 C1500 0.949 . S
C1495 H1490 0.950 . S
C1495 C1497 1.327 . S
C1495 C1501 1.429 . S
C1496 C1488 1.574 . S
C1496 H1491 0.949 . S
C1496 C1502 1.368 . S
C1497 C1481 1.349 . S
C1497 H1489 0.950 . S
C1497 C1495 1.327 . S
C1498 C1486 1.349 . S
C1498 H1492 0.950 . S
C1498 C1499 1.327 . S
C1499 H1493 0.950 . S
C1499 C1498 1.327 . S
C1499 C1503 1.429 . S
C1500 C1483 1.574 . S
C1500 H1494 0.949 . S
C1500 C1504 1.368 1_554 S
C1501 C1482 1.429 1_554 S
C1501 C1495 1.429 . S
C1501 C1502 1.523 1_554 S
C1502 C1483 1.368 1_556 S
C1502 C1496 1.368 . S
C1502 C1501 1.523 1_556 S
C1503 C1487 1.429 . S
C1503 C1499 1.429 . S
C1503 C1504 1.523 . S
C1504 C1488 1.368 . S
C1504 C1500 1.368 1_556 S
C1504 C1503 1.523 . S
H1505 C1480 0.950 . S
H1506 C1482 0.950 . S
H1507 C1483 0.949 . S
H1508 C1485 0.950 1_554 S
H1509 C1487 0.950 1_554 S
C1510 C1511 1.349 . S
C1510 C1512 1.327 . S
C1510 H1535 0.950 1_554 S
C1511 C1510 1.349 . S
C1511 C1527 1.349 . S
C1512 C1510 1.327 . S
C1512 C1531 1.429 . S
C1512 H1536 0.950 1_554 S
C1513 C1530 1.574 . S
C1513 C1532 1.368 . S
C1513 H1537 0.949 . S
H1514 C1518 0.942 1_556 S
C1515 C1516 1.349 1_655 S
C1515 C1517 1.327 . S
C1515 H1538 0.950 . S
C1516 C1515 1.349 1_455 S
C1516 C1528 1.349 . S
C1517 C1515 1.327 . S
C1517 C1533 1.429 . S
C1517 H1539 0.950 . S
C1518 H1514 0.942 1_554 S
C1518 C1526 1.574 . S
C1518 C1534 1.368 . S
H1519 C1527 0.950 . S
H1520 C1525 0.950 . S
H1521 C1526 0.949 1_556 S
H1522 C1528 0.950 . S
H1523 C1529 0.950 . S
H1524 C1530 0.949 . S
C1525 H1520 0.950 . S
C1525 C1527 1.327 . S
C1525 C1531 1.429 . S
C1526 C1518 1.574 . S
C1526 H1521 0.949 1_554 S
C1526 C1532 1.368 . S
C1527 C1511 1.349 . S
C1527 H1519 0.950 . S
C1527 C1525 1.327 . S
C1528 C1516 1.349 . S
C1528 H1522 0.950 . S
C1528 C1529 1.327 1_455 S
C1529 H1523 0.950 . S
C1529 C1528 1.327 1_655 S
C1529 C1533 1.429 . S
C1530 C1513 1.574 . S
C1530 H1524 0.949 . S
C1530 C1534 1.368 . S
C1531 C1512 1.429 . S
C1531 C1525 1.429 . S
C1531 C1532 1.523 . S
C1532 C1513 1.368 . S
C1532 C1526 1.368 . S
C1532 C1531 1.523 . S
C1533 C1517 1.429 . S
C1533 C1529 1.429 . S
C1533 C1534 1.523 . S
C1534 C1518 1.368 . S
C1534 C1530 1.368 . S
C1534 C1533 1.523 . S
H1535 C1510 0.950 1_556 S
H1536 C1512 0.950 1_556 S
H1537 C1513 0.949 . S
H1538 C1515 0.950 . S
H1539 C1517 0.950 . S
C1540 C1541 1.349 . S
C1540 C1542 1.327 . S
C1540 H1565 0.950 . S
C1541 C1540 1.349 . S
C1541 C1557 1.349 . S
C1542 C1540 1.327 . S
C1542 C1561 1.429 . S
C1542 H1566 0.950 . S
C1543 C1560 1.574 . S
C1543 C1562 1.368 . S
C1543 H1567 0.949 . S
H1544 C1548 0.949 . S
C1545 C1546 1.349 . S
C1545 C1547 1.327 . S
C1545 H1568 0.950 . S
C1546 C1545 1.349 . S
C1546 C1558 1.349 . S
C1547 C1545 1.327 . S
C1547 C1563 1.429 . S
C1547 H1569 0.950 . S
C1548 H1544 0.949 . S
C1548 C1556 1.574 . S
C1548 C1564 1.368 . S
H1549 C1557 0.950 1_655 S
H1550 C1555 0.950 1_655 S
H1551 C1556 0.949 . S
H1552 C1558 0.950 . S
H1553 C1559 0.950 . S
H1554 C1560 0.949 . S
C1555 H1550 0.950 1_455 S
C1555 C1557 1.327 . S
C1555 C1561 1.429 . S
C1556 C1548 1.574 . S
C1556 H1551 0.949 . S
C1556 C1562 1.368 . S
C1557 C1541 1.349 . S
C1557 H1549 0.950 1_455 S
C1557 C1555 1.327 . S
C1558 C1546 1.349 . S
C1558 H1552 0.950 . S
C1558 C1559 1.327 . S
C1559 H1553 0.950 . S
C1559 C1558 1.327 . S
C1559 C1563 1.429 . S
C1560 C1543 1.574 . S
C1560 H1554 0.949 . S
C1560 C1564 1.368 . S
C1561 C1542 1.429 . S
C1561 C1555 1.429 . S
C1561 C1562 1.523 . S
C1562 C1543 1.368 . S
C1562 C1556 1.368 . S
C1562 C1561 1.523 . S
C1563 C1547 1.429 . S
C1563 C1559 1.429 . S
C1563 C1564 1.523 . S
C1564 C1548 1.368 . S
C1564 C1560 1.368 . S
C1564 C1563 1.523 . S
H1565 C1540 0.950 . S
H1566 C1542 0.950 . S
H1567 C1543 0.949 . S
H1568 C1545 0.950 . S
H1569 C1547 0.950 . S
C1570 C1571 1.349 . S
C1570 C1572 1.327 . S
C1570 H1595 0.950 . S
C1571 C1570 1.349 . S
C1571 C1587 1.349 . S
C1572 C1570 1.327 . S
C1572 C1591 1.429 . S
C1572 H1596 0.950 . S
C1573 C1590 1.574 . S
C1573 C1592 1.368 . S
C1573 H1597 0.949 . S
H1574 C1578 0.949 . S
C1575 C1576 1.349 . S
C1575 C1577 1.327 . S
C1575 H1598 0.950 . S
C1576 C1575 1.349 . S
C1576 C1588 1.349 . S
C1577 C1575 1.327 . S
C1577 C1593 1.429 . S
C1577 H1599 0.950 . S
C1578 H1574 0.949 . S
C1578 C1586 1.574 . S
C1578 C1594 1.368 . S
H1579 C1587 0.950 . S
H1580 C1585 0.950 . S
H1581 C1586 0.949 . S
H1582 C1588 0.950 . S
H1583 C1589 0.950 . S
H1584 C1590 0.949 . S
C1585 H1580 0.950 . S
C1585 C1587 1.327 . S
C1585 C1591 1.429 . S
C1586 C1578 1.574 . S
C1586 H1581 0.949 . S
C1586 C1592 1.368 . S
C1587 C1571 1.349 . S
C1587 H1579 0.950 . S
C1587 C1585 1.327 . S
C1588 C1576 1.349 . S
C1588 H1582 0.950 . S
C1588 C1589 1.327 . S
C1589 H1583 0.950 . S
C1589 C1588 1.327 . S
C1589 C1593 1.429 . S
C1590 C1573 1.574 . S
C1590 H1584 0.949 . S
C1590 C1594 1.368 . S
C1591 C1572 1.429 . S
C1591 C1585 1.429 . S
C1591 C1592 1.523 . S
C1592 C1573 1.368 . S
C1592 C1586 1.368 . S
C1592 C1591 1.523 . S
C1593 C1577 1.429 . S
C1593 C1589 1.429 . S
C1593 C1594 1.523 . S
C1594 C1578 1.368 . S
C1594 C1590 1.368 . S
C1594 C1593 1.523 . S
H1595 C1570 0.950 . S
H1596 C1572 0.950 . S
H1597 C1573 0.949 . S
H1598 C1575 0.950 . S
H1599 C1577 0.950 . S
C1600 C1601 1.349 . S
C1600 C1602 1.327 . S
C1600 H1625 0.950 . S
C1601 C1600 1.349 . S
C1601 C1617 1.349 . S
C1602 C1600 1.327 . S
C1602 C1621 1.429 . S
C1602 H1626 0.950 . S
C1603 C1620 1.574 . S
C1603 C1622 1.368 . S
C1603 H1627 0.949 . S
H1604 C1608 0.949 . S
C1605 C1606 1.349 . S
C1605 C1607 1.327 . S
C1605 H1628 0.950 . S
C1606 C1605 1.349 . S
C1606 C1618 1.349 . S
C1607 C1605 1.327 . S
C1607 C1623 1.429 . S
C1607 H1629 0.950 . S
C1608 H1604 0.949 . S
C1608 C1616 1.574 . S
C1608 C1624 1.368 . S
H1609 C1617 0.950 . S
H1610 C1615 0.950 . S
H1611 C1616 0.949 . S
H1612 C1618 0.950 . S
H1613 C1619 0.950 . S
H1614 C1620 0.949 . S
C1615 H1610 0.950 . S
C1615 C1617 1.327 . S
C1615 C1621 1.429 . S
C1616 C1608 1.574 . S
C1616 H1611 0.949 . S
C1616 C1622 1.368 . S
C1617 C1601 1.349 . S
C1617 H1609 0.950 . S
C1617 C1615 1.327 . S
C1618 C1606 1.349 . S
C1618 H1612 0.950 . S
C1618 C1619 1.327 . S
C1619 H1613 0.950 . S
C1619 C1618 1.327 . S
C1619 C1623 1.429 . S
C1620 C1603 1.574 . S
C1620 H1614 0.949 . S
C1620 C1624 1.368 . S
C1621 C1602 1.429 . S
C1621 C1615 1.429 . S
C1621 C1622 1.523 . S
C1622 C1603 1.368 . S
C1622 C1616 1.368 . S
C1622 C1621 1.523 . S
C1623 C1607 1.429 . S
C1623 C1619 1.429 . S
C1623 C1624 1.523 . S
C1624 C1608 1.368 . S
C1624 C1620 1.368 . S
C1624 C1623 1.523 . S
H1625 C1600 0.950 . S
H1626 C1602 0.950 . S
H1627 C1603 0.949 . S
H1628 C1605 0.950 . S
H1629 C1607 0.950 . S
C1630 C1631 1.349 1_655 S
C1630 C1632 1.327 . S
C1630 H1655 0.950 . S
C1631 C1630 1.349 1_455 S
C1631 C1647 1.349 . S
C1632 C1630 1.327 . S
C1632 C1651 1.429 . S
C1632 H1656 0.950 . S
C1633 C1650 1.580 . S
C1633 C1652 1.382 . S
C1633 H1657 0.932 1_655 S
H1634 C1638 0.949 . S
C1635 C1636 1.349 . S
C1635 C1637 1.327 . S
C1635 H1658 0.950 . S
C1636 C1635 1.349 . S
C1636 C1648 1.349 . S
C1637 C1635 1.327 . S
C1637 C1653 1.429 . S
C1637 H1659 0.950 . S
C1638 H1634 0.949 . S
C1638 C1646 1.574 . S
C1638 C1654 1.368 . S
H1639 C1647 0.950 . S
H1640 C1645 0.950 . S
H1641 C1646 0.949 . S
H1642 C1648 0.950 . S
H1643 C1649 0.950 . S
H1644 C1650 0.949 . S
C1645 H1640 0.950 . S
C1645 C1647 1.327 . S
C1645 C1651 1.429 1_455 S
C1646 C1638 1.574 . S
C1646 H1641 0.949 . S
C1646 C1652 1.368 . S
C1647 C1631 1.349 . S
C1647 H1639 0.950 . S
C1647 C1645 1.327 . S
C1648 C1636 1.349 . S
C1648 H1642 0.950 . S
C1648 C1649 1.327 . S
C1649 H1643 0.950 . S
C1649 C1648 1.327 . S
C1649 C1653 1.429 . S
C1650 C1633 1.580 . S
C1650 H1644 0.949 . S
C1650 C1654 1.368 . S
C1651 C1632 1.429 . S
C1651 C1645 1.429 1_655 S
C1651 C1652 1.523 . S
C1652 C1633 1.382 . S
C1652 C1646 1.368 . S
C1652 C1651 1.523 . S
C1653 C1637 1.429 . S
C1653 C1649 1.429 . S
C1653 C1654 1.523 . S
C1654 C1638 1.368 . S
C1654 C1650 1.368 . S
C1654 C1653 1.523 . S
H1655 C1630 0.950 . S
H1656 C1632 0.950 . S
H1657 C1633 0.932 1_455 S
H1658 C1635 0.950 . S
H1659 C1637 0.950 . S
C1660 C1661 1.349 . S
C1660 C1662 1.327 . S
C1660 H1685 0.950 1_545 S
C1661 C1660 1.349 . S
C1661 C1677 1.349 . S
C1662 C1660 1.327 . S
C1662 C1681 1.429 . S
C1662 H1686 0.950 1_545 S
C1663 C1680 1.574 . S
C1663 C1682 1.368 . S
C1663 H1687 0.949 . S
H1664 C1668 0.949 . S
C1665 C1666 1.349 . S
C1665 C1667 1.327 . S
C1665 H1688 0.950 . S
C1666 C1665 1.349 . S
C1666 C1678 1.349 . S
C1667 C1665 1.327 . S
C1667 C1683 1.429 . S
C1667 H1689 0.950 . S
C1668 H1664 0.949 . S
C1668 C1676 1.574 . S
C1668 C1684 1.368 . S
H1669 C1677 0.950 . S
H1670 C1675 0.950 . S
H1671 C1676 0.949 . S
H1672 C1678 0.950 . S
H1673 C1679 0.950 . S
H1674 C1680 0.949 . S
C1675 H1670 0.950 . S
C1675 C1677 1.327 . S
C1675 C1681 1.429 . S
C1676 C1668 1.574 . S
C1676 H1671 0.949 . S
C1676 C1682 1.368 . S
C1677 C1661 1.349 . S
C1677 H1669 0.950 . S
C1677 C1675 1.327 . S
C1678 C1666 1.349 . S
C1678 H1672 0.950 . S
C1678 C1679 1.327 . S
C1679 H1673 0.950 . S
C1679 C1678 1.327 . S
C1679 C1683 1.429 . S
C1680 C1663 1.574 . S
C1680 H1674 0.949 . S
C1680 C1684 1.368 . S
C1681 C1662 1.429 . S
C1681 C1675 1.429 . S
C1681 C1682 1.523 . S
C1682 C1663 1.368 . S
C1682 C1676 1.368 . S
C1682 C1681 1.523 . S
C1683 C1667 1.429 . S
C1683 C1679 1.429 . S
C1683 C1684 1.523 . S
C1684 C1668 1.368 . S
C1684 C1680 1.368 . S
C1684 C1683 1.523 . S
H1685 C1660 0.950 1_565 S
H1686 C1662 0.950 1_565 S
H1687 C1663 0.949 . S
H1688 C1665 0.950 . S
H1689 C1667 0.950 . S
C1690 C1691 1.349 . S
C1690 C1692 1.327 . S
C1690 H1715 0.950 . S
C1691 C1690 1.349 . S
C1691 C1707 1.349 . S
C1692 C1690 1.327 . S
C1692 C1711 1.429 . S
C1692 H1716 0.950 . S
C1693 C1710 1.574 . S
C1693 C1712 1.368 . S
C1693 H1717 0.949 . S
H1694 C1698 0.949 . S
C1695 C1696 1.349 . S
C1695 C1697 1.327 . S
C1695 H1718 0.950 . S
C1696 C1695 1.349 . S
C1696 C1708 1.349 . S
C1697 C1695 1.327 . S
C1697 C1713 1.429 . S
C1697 H1719 0.950 . S
C1698 H1694 0.949 . S
C1698 C1706 1.574 . S
C1698 C1714 1.368 . S
H1699 C1707 0.950 . S
H1700 C1705 0.950 . S
H1701 C1706 0.949 . S
H1702 C1708 0.950 . S
H1703 C1709 0.950 . S
H1704 C1710 0.949 . S
C1705 H1700 0.950 . S
C1705 C1707 1.327 . S
C1705 C1711 1.429 . S
C1706 C1698 1.574 . S
C1706 H1701 0.949 . S
C1706 C1712 1.368 . S
C1707 C1691 1.349 . S
C1707 H1699 0.950 . S
C1707 C1705 1.327 . S
C1708 C1696 1.349 . S
C1708 H1702 0.950 . S
C1708 C1709 1.327 . S
C1709 H1703 0.950 . S
C1709 C1708 1.327 . S
C1709 C1713 1.429 . S
C1710 C1693 1.574 . S
C1710 H1704 0.949 . S
C1710 C1714 1.368 . S
C1711 C1692 1.429 . S
C1711 C1705 1.429 . S
C1711 C1712 1.523 . S
C1712 C1693 1.368 . S
C1712 C1706 1.368 . S
C1712 C1711 1.523 . S
C1713 C1697 1.429 . S
C1713 C1709 1.429 . S
C1713 C1714 1.523 . S
C1714 C1698 1.368 . S
C1714 C1710 1.368 . S
C1714 C1713 1.523 . S
H1715 C1690 0.950 . S
H1716 C1692 0.950 . S
H1717 C1693 0.949 . S
H1718 C1695 0.950 . S
H1719 C1697 0.950 . S
C1720 C1721 1.377 . S
C1720 C1722 1.331 . S
C1720 H1745 0.919 1_565 S
C1721 C1720 1.377 . S
C1721 C1737 1.349 . S
C1722 C1720 1.331 . S
C1722 C1741 1.429 . S
C1722 H1746 0.950 1_565 S
C1723 C1740 1.574 . S
C1723 C1742 1.368 . S
C1723 H1747 0.949 . S
H1724 C1728 0.949 . S
C1725 C1726 1.349 . S
C1725 C1727 1.327 . S
C1725 H1748 0.950 . S
C1726 C1725 1.349 . S
C1726 C1738 1.349 . S
C1727 C1725 1.327 . S
C1727 C1743 1.429 . S
C1727 H1749 0.950 . S
C1728 H1724 0.949 . S
C1728 C1736 1.574 . S
C1728 C1744 1.368 . S
H1729 C1737 0.950 . S
H1730 C1735 0.950 . S
H1731 C1736 0.949 1_545 S
H1732 C1738 0.950 . S
H1733 C1739 0.950 . S
H1734 C1740 0.949 . S
C1735 H1730 0.950 . S
C1735 C1737 1.327 . S
C1735 C1741 1.429 . S
C1736 C1728 1.574 . S
C1736 H1731 0.949 1_565 S
C1736 C1742 1.368 . S
C1737 C1721 1.349 . S
C1737 H1729 0.950 . S
C1737 C1735 1.327 . S
C1738 C1726 1.349 . S
C1738 H1732 0.950 . S
C1738 C1739 1.327 . S
C1739 H1733 0.950 . S
C1739 C1738 1.327 . S
C1739 C1743 1.429 . S
C1740 C1723 1.574 . S
C1740 H1734 0.949 . S
C1740 C1744 1.368 . S
C1741 C1722 1.429 . S
C1741 C1735 1.429 . S
C1741 C1742 1.523 . S
C1742 C1723 1.368 . S
C1742 C1736 1.368 . S
C1742 C1741 1.523 . S
C1743 C1727 1.429 . S
C1743 C1739 1.429 . S
C1743 C1744 1.523 . S
C1744 C1728 1.368 . S
C1744 C1740 1.368 . S
C1744 C1743 1.523 . S
H1745 C1720 0.919 1_545 S
H1746 C1722 0.950 1_545 S
H1747 C1723 0.949 . S
H1748 C1725 0.950 . S
H1749 C1727 0.950 . S
C1750 C1751 1.349 . S
C1750 C1752 1.327 . S
C1750 H1775 0.950 . S
C1751 C1750 1.349 . S
C1751 C1767 1.349 . S
C1752 C1750 1.327 . S
C1752 C1771 1.429 . S
C1752 H1776 0.950 . S
C1753 C1770 1.574 . S
C1753 C1772 1.368 . S
C1753 H1777 0.949 . S
H1754 C1758 0.949 . S
C1755 C1756 1.349 . S
C1755 C1757 1.327 . S
C1755 H1778 0.950 . S
C1756 C1755 1.349 . S
C1756 C1768 1.349 . S
C1757 C1755 1.327 . S
C1757 C1773 1.429 . S
C1757 H1779 0.950 . S
C1758 H1754 0.949 . S
C1758 C1766 1.574 . S
C1758 C1774 1.368 . S
H1759 C1767 0.950 . S
H1760 C1765 0.950 . S
H1761 C1766 0.949 . S
H1762 C1768 0.950 . S
H1763 C1769 0.950 . S
H1764 C1770 0.949 . S
C1765 H1760 0.950 . S
C1765 C1767 1.327 . S
C1765 C1771 1.429 . S
C1766 C1758 1.574 . S
C1766 H1761 0.949 . S
C1766 C1772 1.368 . S
C1767 C1751 1.349 . S
C1767 H1759 0.950 . S
C1767 C1765 1.327 . S
C1768 C1756 1.349 . S
C1768 H1762 0.950 . S
C1768 C1769 1.327 . S
C1769 H1763 0.950 . S
C1769 C1768 1.327 . S
C1769 C1773 1.429 . S
C1770 C1753 1.574 . S
C1770 H1764 0.949 . S
C1770 C1774 1.368 . S
C1771 C1752 1.429 . S
C1771 C1765 1.429 . S
C1771 C1772 1.523 . S
C1772 C1753 1.368 . S
C1772 C1766 1.368 . S
C1772 C1771 1.523 . S
C1773 C1757 1.429 . S
C1773 C1769 1.429 . S
C1773 C1774 1.523 . S
C1774 C1758 1.368 . S
C1774 C1770 1.368 . S
C1774 C1773 1.523 . S
H1775 C1750 0.950 . S
H1776 C1752 0.950 . S
H1777 C1753 0.949 . S
H1778 C1755 0.950 . S
H1779 C1757 0.950 . S
C1780 C1781 1.349 . S
C1780 C1782 1.327 . S
C1780 H1805 0.950 . S
C1781 C1780 1.349 . S
C1781 C1797 1.349 . S
C1782 C1780 1.327 . S
C1782 C1801 1.429 . S
C1782 H1806 0.950 . S
C1783 C1800 1.574 . S
C1783 C1802 1.368 . S
C1783 H1807 0.949 . S
H1784 C1788 0.949 . S
C1785 C1786 1.349 . S
C1785 C1787 1.327 . S
C1785 H1808 0.950 . S
C1786 C1785 1.349 . S
C1786 C1798 1.349 . S
C1787 C1785 1.327 . S
C1787 C1803 1.429 . S
C1787 H1809 0.950 . S
C1788 H1784 0.949 . S
C1788 C1796 1.574 . S
C1788 C1804 1.368 . S
H1789 C1797 0.950 . S
H1790 C1795 0.950 . S
H1791 C1796 0.949 . S
H1792 C1798 0.950 . S
H1793 C1799 0.950 . S
H1794 C1800 0.949 . S
C1795 H1790 0.950 . S
C1795 C1797 1.327 . S
C1795 C1801 1.429 . S
C1796 C1788 1.574 . S
C1796 H1791 0.949 . S
C1796 C1802 1.368 . S
C1797 C1781 1.349 . S
C1797 H1789 0.950 . S
C1797 C1795 1.327 . S
C1798 C1786 1.349 . S
C1798 H1792 0.950 . S
C1798 C1799 1.327 . S
C1799 H1793 0.950 . S
C1799 C1798 1.327 . S
C1799 C1803 1.429 . S
C1800 C1783 1.574 . S
C1800 H1794 0.949 . S
C1800 C1804 1.368 . S
C1801 C1782 1.429 . S
C1801 C1795 1.429 . S
C1801 C1802 1.523 . S
C1802 C1783 1.368 . S
C1802 C1796 1.368 . S
C1802 C1801 1.523 . S
C1803 C1787 1.429 . S
C1803 C1799 1.429 . S
C1803 C1804 1.523 . S
C1804 C1788 1.368 . S
C1804 C1800 1.368 . S
C1804 C1803 1.523 . S
H1805 C1780 0.950 . S
H1806 C1782 0.950 . S
H1807 C1783 0.949 . S
H1808 C1785 0.950 . S
H1809 C1787 0.950 . S
C1810 C1811 1.349 . S
C1810 C1812 1.327 . S
C1810 H1835 0.950 . S
C1811 C1810 1.349 . S
C1811 C1827 1.349 . S
C1812 C1810 1.327 . S
C1812 C1831 1.429 . S
C1812 H1836 0.950 . S
C1813 C1830 1.574 . S
C1813 C1832 1.368 . S
C1813 H1837 0.949 . S
H1814 C1818 0.949 . S
C1815 C1816 1.349 . S
C1815 C1817 1.327 . S
C1815 H1838 0.950 . S
C1816 C1815 1.349 . S
C1816 C1828 1.349 . S
C1817 C1815 1.327 . S
C1817 C1833 1.429 . S
C1817 H1839 0.950 . S
C1818 H1814 0.949 . S
C1818 C1826 1.574 . S
C1818 C1834 1.368 . S
H1819 C1827 0.950 . S
H1820 C1825 0.950 . S
H1821 C1826 0.949 . S
H1822 C1828 0.950 . S
H1823 C1829 0.950 . S
H1824 C1830 0.949 . S
C1825 H1820 0.950 . S
C1825 C1827 1.327 . S
C1825 C1831 1.429 . S
C1826 C1818 1.574 . S
C1826 H1821 0.949 . S
C1826 C1832 1.368 . S
C1827 C1811 1.349 . S
C1827 H1819 0.950 . S
C1827 C1825 1.327 . S
C1828 C1816 1.349 . S
C1828 H1822 0.950 . S
C1828 C1829 1.327 . S
C1829 H1823 0.950 . S
C1829 C1828 1.327 . S
C1829 C1833 1.429 . S
C1830 C1813 1.574 . S
C1830 H1824 0.949 . S
C1830 C1834 1.368 . S
C1831 C1812 1.429 . S
C1831 C1825 1.429 . S
C1831 C1832 1.523 . S
C1832 C1813 1.368 . S
C1832 C1826 1.368 . S
C1832 C1831 1.523 . S
C1833 C1817 1.429 . S
C1833 C1829 1.429 . S
C1833 C1834 1.523 . S
C1834 C1818 1.368 . S
C1834 C1830 1.368 . S
C1834 C1833 1.523 . S
H1835 C1810 0.950 . S
H1836 C1812 0.950 . S
H1837 C1813 0.949 . S
H1838 C1815 0.950 . S
H1839 C1817 0.950 . S
C1840 C1841 1.349 . S
C1840 C1842 1.327 . S
C1840 H1865 0.950 . S
C1841 C1840 1.349 . S
C1841 C1857 1.349 . S
C1842 C1840 1.327 . S
C1842 C1861 1.429 . S
C1842 H1866 0.950 . S
C1843 C1860 1.574 . S
C1843 C1862 1.368 . S
C1843 H1867 0.949 . S
H1844 C1848 0.949 . S
C1845 C1846 1.349 . S
C1845 C1847 1.327 . S
C1845 H1868 0.950 . S
C1846 C1845 1.349 . S
C1846 C1858 1.349 . S
C1847 C1845 1.327 . S
C1847 C1863 1.429 . S
C1847 H1869 0.950 . S
C1848 H1844 0.949 . S
C1848 C1856 1.574 . S
C1848 C1864 1.368 . S
H1849 C1857 0.950 . S
H1850 C1855 0.950 . S
H1851 C1856 0.949 . S
H1852 C1858 0.950 . S
H1853 C1859 0.950 . S
H1854 C1860 0.949 . S
C1855 H1850 0.950 . S
C1855 C1857 1.327 . S
C1855 C1861 1.429 . S
C1856 C1848 1.574 . S
C1856 H1851 0.949 . S
C1856 C1862 1.368 . S
C1857 C1841 1.349 . S
C1857 H1849 0.950 . S
C1857 C1855 1.327 . S
C1858 C1846 1.349 . S
C1858 H1852 0.950 . S
C1858 C1859 1.327 . S
C1859 H1853 0.950 . S
C1859 C1858 1.327 . S
C1859 C1863 1.429 . S
C1860 C1843 1.574 . S
C1860 H1854 0.949 . S
C1860 C1864 1.368 . S
C1861 C1842 1.429 . S
C1861 C1855 1.429 . S
C1861 C1862 1.523 . S
C1862 C1843 1.368 . S
C1862 C1856 1.368 . S
C1862 C1861 1.523 . S
C1863 C1847 1.429 . S
C1863 C1859 1.429 . S
C1863 C1864 1.523 . S
C1864 C1848 1.368 . S
C1864 C1860 1.368 . S
C1864 C1863 1.523 . S
H1865 C1840 0.950 . S
H1866 C1842 0.950 . S
H1867 C1843 0.949 . S
H1868 C1845 0.950 . S
H1869 C1847 0.950 . S
C1870 C1871 1.349 . S
C1870 C1872 1.327 . S
C1870 H1895 0.950 . S
C1871 C1870 1.349 . S
C1871 C1887 1.349 . S
C1872 C1870 1.327 . S
C1872 C1891 1.429 . S
C1872 H1896 0.950 . S
C1873 C1890 1.574 . S
C1873 C1892 1.368 . S
C1873 H1897 0.949 . S
H1874 C1878 0.949 . S
C1875 C1876 1.349 . S
C1875 C1877 1.327 . S
C1875 H1898 0.950 . S
C1876 C1875 1.349 . S
C1876 C1888 1.349 . S
C1877 C1875 1.327 . S
C1877 C1893 1.429 . S
C1877 H1899 0.950 . S
C1878 H1874 0.949 . S
C1878 C1886 1.574 . S
C1878 C1894 1.368 . S
H1879 C1887 0.950 . S
H1880 C1885 0.950 . S
H1881 C1886 0.949 . S
H1882 C1888 0.950 . S
H1883 C1889 0.950 . S
H1884 C1890 0.949 . S
C1885 H1880 0.950 . S
C1885 C1887 1.327 . S
C1885 C1891 1.429 . S
C1886 C1878 1.574 . S
C1886 H1881 0.949 . S
C1886 C1892 1.368 . S
C1887 C1871 1.349 . S
C1887 H1879 0.950 . S
C1887 C1885 1.327 . S
C1888 C1876 1.349 . S
C1888 H1882 0.950 . S
C1888 C1889 1.327 . S
C1889 H1883 0.950 . S
C1889 C1888 1.327 . S
C1889 C1893 1.429 . S
C1890 C1873 1.574 . S
C1890 H1884 0.949 . S
C1890 C1894 1.368 . S
C1891 C1872 1.429 . S
C1891 C1885 1.429 . S
C1891 C1892 1.523 . S
C1892 C1873 1.368 . S
C1892 C1886 1.368 . S
C1892 C1891 1.523 . S
C1893 C1877 1.429 . S
C1893 C1889 1.429 . S
C1893 C1894 1.523 . S
C1894 C1878 1.368 . S
C1894 C1890 1.368 . S
C1894 C1893 1.523 . S
H1895 C1870 0.950 . S
H1896 C1872 0.950 . S
H1897 C1873 0.949 . S
H1898 C1875 0.950 . S
H1899 C1877 0.950 . S
C1900 C1901 1.349 . S
C1900 C1902 1.327 . S
C1900 H1925 0.950 . S
C1901 C1900 1.349 . S
C1901 C1917 1.349 . S
C1902 C1900 1.327 . S
C1902 C1921 1.429 . S
C1902 H1926 0.950 . S
C1903 C1920 1.574 . S
C1903 C1922 1.368 . S
C1903 H1927 0.949 . S
H1904 C1908 0.949 . S
C1905 C1906 1.349 . S
C1905 C1907 1.327 . S
C1905 H1928 0.950 . S
C1906 C1905 1.349 . S
C1906 C1918 1.349 . S
C1907 C1905 1.327 . S
C1907 C1923 1.429 . S
C1907 H1929 0.950 . S
C1908 H1904 0.949 . S
C1908 C1916 1.574 . S
C1908 C1924 1.368 . S
H1909 C1917 0.950 . S
H1910 C1915 0.950 . S
H1911 C1916 0.949 . S
H1912 C1918 0.950 . S
H1913 C1919 0.950 . S
H1914 C1920 0.949 . S
C1915 H1910 0.950 . S
C1915 C1917 1.327 . S
C1915 C1921 1.429 . S
C1916 C1908 1.574 . S
C1916 H1911 0.949 . S
C1916 C1922 1.368 . S
C1917 C1901 1.349 . S
C1917 H1909 0.950 . S
C1917 C1915 1.327 . S
C1918 C1906 1.349 . S
C1918 H1912 0.950 . S
C1918 C1919 1.327 . S
C1919 H1913 0.950 . S
C1919 C1918 1.327 . S
C1919 C1923 1.429 . S
C1920 C1903 1.574 . S
C1920 H1914 0.949 . S
C1920 C1924 1.368 . S
C1921 C1902 1.429 . S
C1921 C1915 1.429 . S
C1921 C1922 1.523 . S
C1922 C1903 1.368 . S
C1922 C1916 1.368 . S
C1922 C1921 1.523 . S
C1923 C1907 1.429 . S
C1923 C1919 1.429 . S
C1923 C1924 1.523 . S
C1924 C1908 1.368 . S
C1924 C1920 1.368 . S
C1924 C1923 1.523 . S
H1925 C1900 0.950 . S
H1926 C1902 0.950 . S
H1927 C1903 0.949 . S
H1928 C1905 0.950 . S
H1929 C1907 0.950 . S
C1930 C1931 1.349 . S
C1930 C1932 1.327 . S
C1930 H1955 0.950 . S
C1931 C1930 1.349 . S
C1931 C1947 1.349 . S
C1932 C1930 1.327 . S
C1932 C1951 1.429 . S
C1932 H1956 0.950 . S
C1933 C1950 1.574 . S
C1933 C1952 1.368 . S
C1933 H1957 0.949 . S
H1934 C1938 0.949 . S
C1935 C1936 1.349 . S
C1935 C1937 1.327 . S
C1935 H1958 0.950 . S
C1936 C1935 1.349 . S
C1936 C1948 1.349 . S
C1937 C1935 1.327 . S
C1937 C1953 1.429 . S
C1937 H1959 0.950 . S
C1938 H1934 0.949 . S
C1938 C1946 1.574 . S
C1938 C1954 1.368 . S
H1939 C1947 0.950 . S
H1940 C1945 0.950 . S
H1941 C1946 0.949 . S
H1942 C1948 0.950 . S
H1943 C1949 0.950 . S
H1944 C1950 0.949 . S
C1945 H1940 0.950 . S
C1945 C1947 1.327 . S
C1945 C1951 1.429 . S
C1946 C1938 1.574 . S
C1946 H1941 0.949 . S
C1946 C1952 1.368 . S
C1947 C1931 1.349 . S
C1947 H1939 0.950 . S
C1947 C1945 1.327 . S
C1948 C1936 1.349 . S
C1948 H1942 0.950 . S
C1948 C1949 1.327 . S
C1949 H1943 0.950 . S
C1949 C1948 1.327 . S
C1949 C1953 1.429 . S
C1950 C1933 1.574 . S
C1950 H1944 0.949 . S
C1950 C1954 1.368 . S
C1951 C1932 1.429 . S
C1951 C1945 1.429 . S
C1951 C1952 1.523 . S
C1952 C1933 1.368 . S
C1952 C1946 1.368 . S
C1952 C1951 1.523 . S
C1953 C1937 1.429 . S
C1953 C1949 1.429 . S
C1953 C1954 1.523 . S
C1954 C1938 1.368 . S
C1954 C1950 1.368 . S
C1954 C1953 1.523 . S
H1955 C1930 0.950 . S
H1956 C1932 0.950 . S
H1957 C1933 0.949 . S
H1958 C1935 0.950 . S
H1959 C1937 0.950 . S
C1960 C1961 1.349 . S
C1960 C1962 1.327 . S
C1960 H1985 0.950 . S
C1961 C1960 1.349 . S
C1961 C1977 1.349 . S
C1962 C1960 1.327 . S
C1962 C1981 1.429 . S
C1962 H1986 0.950 . S
C1963 C1980 1.574 . S
C1963 C1982 1.368 . S
C1963 H1987 0.949 . S
H1964 C1968 0.949 . S
C1965 C1966 1.349 . S
C1965 C1967 1.327 . S
C1965 H1988 0.950 . S
C1966 C1965 1.349 . S
C1966 C1978 1.349 . S
C1967 C1965 1.327 . S
C1967 C1983 1.429 . S
C1967 H1989 0.950 . S
C1968 H1964 0.949 . S
C1968 C1976 1.574 . S
C1968 C1984 1.368 . S
H1969 C1977 0.950 . S
H1970 C1975 0.950 . S
H1971 C1976 0.949 . S
H1972 C1978 0.950 . S
H1973 C1979 0.950 . S
H1974 C1980 0.949 . S
C1975 H1970 0.950 . S
C1975 C1977 1.327 . S
C1975 C1981 1.429 . S
C1976 C1968 1.574 . S
C1976 H1971 0.949 . S
C1976 C1982 1.368 . S
C1977 C1961 1.349 . S
C1977 H1969 0.950 . S
C1977 C1975 1.327 . S
C1978 C1966 1.349 . S
C1978 H1972 0.950 . S
C1978 C1979 1.327 . S
C1979 H1973 0.950 . S
C1979 C1978 1.327 . S
C1979 C1983 1.429 . S
C1980 C1963 1.574 . S
C1980 H1974 0.949 . S
C1980 C1984 1.368 . S
C1981 C1962 1.429 . S
C1981 C1975 1.429 . S
C1981 C1982 1.523 . S
C1982 C1963 1.368 . S
C1982 C1976 1.368 . S
C1982 C1981 1.523 . S
C1983 C1967 1.429 . S
C1983 C1979 1.429 . S
C1983 C1984 1.523 . S
C1984 C1968 1.368 . S
C1984 C1980 1.368 . S
C1984 C1983 1.523 . S
H1985 C1960 0.950 . S
H1986 C1962 0.950 . S
H1987 C1963 0.949 . S
H1988 C1965 0.950 . S
H1989 C1967 0.950 . S
C1990 C1991 1.349 . S
C1990 C1992 1.327 . S
C1990 H2015 0.950 . S
C1991 C1990 1.349 . S
C1991 C2007 1.349 . S
C1992 C1990 1.327 . S
C1992 C2011 1.429 . S
C1992 H2016 0.950 . S
C1993 C2010 1.574 . S
C1993 C2012 1.368 . S
C1993 H2017 0.949 . S
H1994 C1998 0.949 . S
C1995 C1996 1.349 . S
C1995 C1997 1.327 . S
C1995 H2018 0.950 . S
C1996 C1995 1.349 . S
C1996 C2008 1.349 . S
C1997 C1995 1.327 . S
C1997 C2013 1.429 . S
C1997 H2019 0.950 . S
C1998 H1994 0.949 . S
C1998 C2006 1.574 . S
C1998 C2014 1.368 . S
H1999 C2007 0.950 . S
H2000 C2005 0.950 . S
H2001 C2006 0.949 . S
H2002 C2008 0.950 . S
H2003 C2009 0.950 . S
H2004 C2010 0.949 . S
C2005 H2000 0.950 . S
C2005 C2007 1.327 . S
C2005 C2011 1.429 . S
C2006 C1998 1.574 . S
C2006 H2001 0.949 . S
C2006 C2012 1.368 . S
C2007 C1991 1.349 . S
C2007 H1999 0.950 . S
C2007 C2005 1.327 . S
C2008 C1996 1.349 . S
C2008 H2002 0.950 . S
C2008 C2009 1.327 . S
C2009 H2003 0.950 . S
C2009 C2008 1.327 . S
C2009 C2013 1.429 . S
C2010 C1993 1.574 . S
C2010 H2004 0.949 . S
C2010 C2014 1.368 . S
C2011 C1992 1.429 . S
C2011 C2005 1.429 . S
C2011 C2012 1.523 . S
C2012 C1993 1.368 . S
C2012 C2006 1.368 . S
C2012 C2011 1.523 . S
C2013 C1997 1.429 . S
C2013 C2009 1.429 . S
C2013 C2014 1.523 . S
C2014 C1998 1.368 . S
C2014 C2010 1.368 . S
C2014 C2013 1.523 . S
H2015 C1990 0.950 . S
H2016 C1992 0.950 . S
H2017 C1993 0.949 . S
H2018 C1995 0.950 . S
H2019 C1997 0.950 . S
C2020 C2021 1.349 . S
C2020 C2022 1.327 . S
C2020 H2045 0.950 . S
C2021 C2020 1.349 . S
C2021 C2037 1.349 . S
C2022 C2020 1.327 . S
C2022 C2041 1.429 . S
C2022 H2046 0.950 . S
C2023 C2040 1.574 . S
C2023 C2042 1.368 . S
C2023 H2047 0.949 . S
H2024 C2028 0.949 . S
C2025 C2026 1.349 . S
C2025 C2027 1.327 . S
C2025 H2048 0.950 . S
C2026 C2025 1.349 . S
C2026 C2038 1.349 . S
C2027 C2025 1.327 . S
C2027 C2043 1.429 . S
C2027 H2049 0.950 . S
C2028 H2024 0.949 . S
C2028 C2036 1.574 . S
C2028 C2044 1.368 . S
H2029 C2037 0.950 . S
H2030 C2035 0.950 . S
H2031 C2036 0.949 . S
H2032 C2038 0.950 . S
H2033 C2039 0.950 . S
H2034 C2040 0.949 . S
C2035 H2030 0.950 . S
C2035 C2037 1.327 . S
C2035 C2041 1.429 . S
C2036 C2028 1.574 . S
C2036 H2031 0.949 . S
C2036 C2042 1.368 . S
C2037 C2021 1.349 . S
C2037 H2029 0.950 . S
C2037 C2035 1.327 . S
C2038 C2026 1.349 . S
C2038 H2032 0.950 . S
C2038 C2039 1.327 . S
C2039 H2033 0.950 . S
C2039 C2038 1.327 . S
C2039 C2043 1.429 . S
C2040 C2023 1.574 . S
C2040 H2034 0.949 . S
C2040 C2044 1.368 . S
C2041 C2022 1.429 . S
C2041 C2035 1.429 . S
C2041 C2042 1.523 . S
C2042 C2023 1.368 . S
C2042 C2036 1.368 . S
C2042 C2041 1.523 . S
C2043 C2027 1.429 . S
C2043 C2039 1.429 . S
C2043 C2044 1.523 . S
C2044 C2028 1.368 . S
C2044 C2040 1.368 . S
C2044 C2043 1.523 . S
H2045 C2020 0.950 . S
H2046 C2022 0.950 . S
H2047 C2023 0.949 . S
H2048 C2025 0.950 . S
H2049 C2027 0.950 . S
C2050 C2051 1.349 . S
C2050 C2052 1.327 . S
C2050 H2075 0.950 . S
C2051 C2050 1.349 . S
C2051 C2067 1.349 1_565 S
C2052 C2050 1.327 . S
C2052 C2071 1.429 . S
C2052 H2076 0.950 . S
C2053 C2070 1.577 . S
C2053 C2072 1.379 . S
C2053 H2077 0.936 1_565 S
H2054 C2058 0.949 . S
C2055 C2056 1.349 . S
C2055 C2057 1.327 . S
C2055 H2078 0.950 . S
C2056 C2055 1.349 . S
C2056 C2068 1.349 . S
C2057 C2055 1.327 . S
C2057 C2073 1.429 . S
C2057 H2079 0.950 . S
C2058 H2054 0.949 . S
C2058 C2066 1.574 . S
C2058 C2074 1.368 . S
H2059 C2067 0.950 . S
H2060 C2065 0.950 . S
H2061 C2066 0.949 . S
H2062 C2068 0.950 . S
H2063 C2069 0.950 . S
H2064 C2070 0.949 1_545 S
C2065 H2060 0.950 . S
C2065 C2067 1.327 . S
C2065 C2071 1.429 1_545 S
C2066 C2058 1.574 . S
C2066 H2061 0.949 . S
C2066 C2072 1.368 . S
C2067 C2051 1.349 1_545 S
C2067 H2059 0.950 . S
C2067 C2065 1.327 . S
C2068 C2056 1.349 . S
C2068 H2062 0.950 . S
C2068 C2069 1.327 . S
C2069 H2063 0.950 . S
C2069 C2068 1.327 . S
C2069 C2073 1.429 . S
C2070 C2053 1.577 . S
C2070 H2064 0.949 1_565 S
C2070 C2074 1.368 . S
C2071 C2052 1.429 . S
C2071 C2065 1.429 1_565 S
C2071 C2072 1.523 . S
C2072 C2053 1.379 . S
C2072 C2066 1.368 . S
C2072 C2071 1.523 . S
C2073 C2057 1.429 . S
C2073 C2069 1.429 . S
C2073 C2074 1.523 . S
C2074 C2058 1.368 . S
C2074 C2070 1.368 . S
C2074 C2073 1.523 . S
H2075 C2050 0.950 . S
H2076 C2052 0.950 . S
H2077 C2053 0.936 1_545 S
H2078 C2055 0.950 . S
H2079 C2057 0.950 . S
C2080 C2081 1.349 . S
C2080 C2082 1.327 . S
C2080 H2105 0.950 . S
C2081 C2080 1.349 . S
C2081 C2097 1.349 . S
C2082 C2080 1.327 . S
C2082 C2101 1.429 . S
C2082 H2106 0.950 . S
C2083 C2100 1.574 . S
C2083 C2102 1.368 . S
C2083 H2107 0.949 . S
H2084 C2088 0.949 . S
C2085 C2086 1.349 . S
C2085 C2087 1.327 . S
C2085 H2108 0.950 . S
C2086 C2085 1.349 . S
C2086 C2098 1.349 . S
C2087 C2085 1.327 . S
C2087 C2103 1.429 . S
C2087 H2109 0.950 . S
C2088 H2084 0.949 . S
C2088 C2096 1.574 . S
C2088 C2104 1.368 . S
H2089 C2097 0.950 . S
H2090 C2095 0.950 . S
H2091 C2096 0.949 . S
H2092 C2098 0.950 . S
H2093 C2099 0.950 . S
H2094 C2100 0.949 . S
C2095 H2090 0.950 . S
C2095 C2097 1.327 . S
C2095 C2101 1.429 . S
C2096 C2088 1.574 . S
C2096 H2091 0.949 . S
C2096 C2102 1.368 . S
C2097 C2081 1.349 . S
C2097 H2089 0.950 . S
C2097 C2095 1.327 . S
C2098 C2086 1.349 . S
C2098 H2092 0.950 . S
C2098 C2099 1.327 . S
C2099 H2093 0.950 . S
C2099 C2098 1.327 . S
C2099 C2103 1.429 . S
C2100 C2083 1.574 . S
C2100 H2094 0.949 . S
C2100 C2104 1.368 . S
C2101 C2082 1.429 . S
C2101 C2095 1.429 . S
C2101 C2102 1.523 . S
C2102 C2083 1.368 . S
C2102 C2096 1.368 . S
C2102 C2101 1.523 . S
C2103 C2087 1.429 . S
C2103 C2099 1.429 . S
C2103 C2104 1.523 . S
C2104 C2088 1.368 . S
C2104 C2100 1.368 . S
C2104 C2103 1.523 . S
H2105 C2080 0.950 . S
H2106 C2082 0.950 . S
H2107 C2083 0.949 . S
H2108 C2085 0.950 . S
H2109 C2087 0.950 . S
C2110 C2111 1.349 . S
C2110 C2112 1.327 . S
C2110 H2135 0.950 . S
C2111 C2110 1.349 . S
C2111 C2127 1.349 . S
C2112 C2110 1.327 . S
C2112 C2131 1.429 . S
C2112 H2136 0.950 . S
C2113 C2130 1.574 . S
C2113 C2132 1.368 . S
C2113 H2137 0.949 . S
H2114 C2118 0.949 . S
C2115 C2116 1.349 . S
C2115 C2117 1.327 . S
C2115 H2138 0.950 . S
C2116 C2115 1.349 . S
C2116 C2128 1.349 . S
C2117 C2115 1.327 . S
C2117 C2133 1.429 . S
C2117 H2139 0.950 . S
C2118 H2114 0.949 . S
C2118 C2126 1.574 . S
C2118 C2134 1.368 . S
H2119 C2127 0.950 . S
H2120 C2125 0.950 . S
H2121 C2126 0.949 . S
H2122 C2128 0.950 . S
H2123 C2129 0.950 . S
H2124 C2130 0.949 . S
C2125 H2120 0.950 . S
C2125 C2127 1.327 . S
C2125 C2131 1.429 . S
C2126 C2118 1.574 . S
C2126 H2121 0.949 . S
C2126 C2132 1.368 . S
C2127 C2111 1.349 . S
C2127 H2119 0.950 . S
C2127 C2125 1.327 . S
C2128 C2116 1.349 . S
C2128 H2122 0.950 . S
C2128 C2129 1.327 . S
C2129 H2123 0.950 . S
C2129 C2128 1.327 . S
C2129 C2133 1.429 . S
C2130 C2113 1.574 . S
C2130 H2124 0.949 . S
C2130 C2134 1.368 . S
C2131 C2112 1.429 . S
C2131 C2125 1.429 . S
C2131 C2132 1.523 . S
C2132 C2113 1.368 . S
C2132 C2126 1.368 . S
C2132 C2131 1.523 . S
C2133 C2117 1.429 . S
C2133 C2129 1.429 . S
C2133 C2134 1.523 . S
C2134 C2118 1.368 . S
C2134 C2130 1.368 . S
C2134 C2133 1.523 . S
H2135 C2110 0.950 . S
H2136 C2112 0.950 . S
H2137 C2113 0.949 . S
H2138 C2115 0.950 . S
H2139 C2117 0.950 . S
C2140 C2141 1.349 . S
C2140 C2142 1.327 . S
C2140 H2165 0.950 . S
C2141 C2140 1.349 . S
C2141 C2157 1.349 . S
C2142 C2140 1.327 . S
C2142 C2161 1.429 . S
C2142 H2166 0.950 . S
C2143 C2160 1.574 . S
C2143 C2162 1.368 . S
C2143 H2167 0.949 . S
H2144 C2148 0.949 . S
C2145 C2146 1.349 . S
C2145 C2147 1.327 . S
C2145 H2168 0.950 . S
C2146 C2145 1.349 . S
C2146 C2158 1.349 . S
C2147 C2145 1.327 . S
C2147 C2163 1.429 . S
C2147 H2169 0.950 . S
C2148 H2144 0.949 . S
C2148 C2156 1.574 . S
C2148 C2164 1.368 . S
H2149 C2157 0.950 . S
H2150 C2155 0.950 . S
H2151 C2156 0.949 . S
H2152 C2158 0.950 . S
H2153 C2159 0.950 . S
H2154 C2160 0.949 . S
C2155 H2150 0.950 . S
C2155 C2157 1.327 . S
C2155 C2161 1.429 . S
C2156 C2148 1.574 . S
C2156 H2151 0.949 . S
C2156 C2162 1.368 . S
C2157 C2141 1.349 . S
C2157 H2149 0.950 . S
C2157 C2155 1.327 . S
C2158 C2146 1.349 . S
C2158 H2152 0.950 . S
C2158 C2159 1.327 . S
C2159 H2153 0.950 . S
C2159 C2158 1.327 . S
C2159 C2163 1.429 . S
C2160 C2143 1.574 . S
C2160 H2154 0.949 . S
C2160 C2164 1.368 . S
C2161 C2142 1.429 . S
C2161 C2155 1.429 . S
C2161 C2162 1.523 . S
C2162 C2143 1.368 . S
C2162 C2156 1.368 . S
C2162 C2161 1.523 . S
C2163 C2147 1.429 . S
C2163 C2159 1.429 . S
C2163 C2164 1.523 . S
C2164 C2148 1.368 . S
C2164 C2160 1.368 . S
C2164 C2163 1.523 . S
H2165 C2140 0.950 . S
H2166 C2142 0.950 . S
H2167 C2143 0.949 . S
H2168 C2145 0.950 . S
H2169 C2147 0.950 . S
C2170 C2171 1.349 1_554 S
C2170 C2172 1.329 . S
C2170 H2195 0.950 . S
C2171 C2170 1.349 1_556 S
C2171 C2187 1.349 . S
C2172 C2170 1.329 . S
C2172 C2191 1.410 1_554 S
C2172 H2196 0.967 . S
C2173 C2190 1.574 . S
C2173 C2192 1.368 . S
C2173 H2197 0.949 . S
H2174 C2178 0.949 1_554 S
C2175 C2176 1.349 . S
C2175 C2177 1.327 . S
C2175 H2198 0.950 . S
C2176 C2175 1.349 . S
C2176 C2188 1.349 . S
C2177 C2175 1.327 . S
C2177 C2193 1.429 . S
C2177 H2199 0.950 . S
C2178 H2174 0.949 1_556 S
C2178 C2186 1.579 . S
C2178 C2194 1.368 . S
H2179 C2187 0.950 . S
H2180 C2185 0.950 . S
H2181 C2186 0.912 1_554 S
H2182 C2188 0.950 1_554 S
H2183 C2189 0.950 1_554 S
H2184 C2190 0.949 . S
C2185 H2180 0.950 . S
C2185 C2187 1.327 . S
C2185 C2191 1.429 . S
C2186 C2178 1.579 . S
C2186 H2181 0.912 1_556 S
C2186 C2192 1.406 . S
C2187 C2171 1.349 . S
C2187 H2179 0.950 . S
C2187 C2185 1.327 . S
C2188 C2176 1.349 . S
C2188 H2182 0.950 1_556 S
C2188 C2189 1.327 . S
C2189 H2183 0.950 1_556 S
C2189 C2188 1.327 . S
C2189 C2193 1.429 . S
C2190 C2173 1.574 . S
C2190 H2184 0.949 . S
C2190 C2194 1.368 . S
C2191 C2172 1.410 1_556 S
C2191 C2185 1.429 . S
C2191 C2192 1.523 . S
C2192 C2173 1.368 . S
C2192 C2186 1.406 . S
C2192 C2191 1.523 . S
C2193 C2177 1.429 . S
C2193 C2189 1.429 . S
C2193 C2194 1.523 . S
C2194 C2178 1.368 . S
C2194 C2190 1.368 . S
C2194 C2193 1.523 . S
H2195 C2170 0.950 . S
H2196 C2172 0.967 . S
H2197 C2173 0.949 . S
H2198 C2175 0.950 . S
H2199 C2177 0.950 . S
C2200 C2201 1.349 1_556 S
C2200 C2202 1.327 . S
C2200 H2225 0.950 . S
C2201 C2200 1.349 1_554 S
C2201 C2217 1.349 . S
C2202 C2200 1.327 . S
C2202 C2221 1.429 . S
C2202 H2226 0.950 . S
C2203 C2220 1.574 1_554 S
C2203 C2222 1.368 1_554 S
C2203 H2227 0.949 . S
H2204 C2208 0.949 . S
C2205 C2206 1.349 . S
C2205 C2207 1.327 . S
C2205 H2228 0.950 . S
C2206 C2205 1.349 . S
C2206 C2218 1.349 . S
C2207 C2205 1.327 . S
C2207 C2223 1.429 . S
C2207 H2229 0.950 1_556 S
C2208 H2204 0.949 . S
C2208 C2216 1.574 . S
C2208 C2224 1.368 . S
H2209 C2217 0.950 . S
H2210 C2215 0.950 . S
H2211 C2216 0.949 . S
H2212 C2218 0.950 . S
H2213 C2219 0.950 . S
H2214 C2220 0.949 1_554 S
C2215 H2210 0.950 . S
C2215 C2217 1.327 . S
C2215 C2221 1.429 1_554 S
C2216 C2208 1.574 . S
C2216 H2211 0.949 . S
C2216 C2222 1.368 . S
C2217 C2201 1.349 . S
C2217 H2209 0.950 . S
C2217 C2215 1.327 . S
C2218 C2206 1.349 . S
C2218 H2212 0.950 . S
C2218 C2219 1.327 . S
C2219 H2213 0.950 . S
C2219 C2218 1.327 . S
C2219 C2223 1.429 . S
C2220 C2203 1.574 1_556 S
C2220 H2214 0.949 1_556 S
C2220 C2224 1.368 . S
C2221 C2202 1.429 . S
C2221 C2215 1.429 1_556 S
C2221 C2222 1.523 . S
C2222 C2203 1.368 1_556 S
C2222 C2216 1.368 . S
C2222 C2221 1.523 . S
C2223 C2207 1.429 . S
C2223 C2219 1.429 . S
C2223 C2224 1.523 . S
C2224 C2208 1.368 . S
C2224 C2220 1.368 . S
C2224 C2223 1.523 . S
H2225 C2200 0.950 . S
H2226 C2202 0.950 . S
H2227 C2203 0.949 . S
H2228 C2205 0.950 . S
H2229 C2207 0.950 1_554 S
C2230 C2231 1.349 . S
C2230 C2232 1.327 . S
C2230 H2255 0.950 . S
C2231 C2230 1.349 . S
C2231 C2247 1.362 . S
C2232 C2230 1.327 . S
C2232 C2251 1.429 . S
C2232 H2256 0.950 . S
C2233 C2250 1.574 . S
C2233 C2252 1.368 . S
C2233 H2257 0.949 1_554 S
H2234 C2238 0.949 . S
C2235 C2236 1.349 . S
C2235 C2237 1.327 . S
C2235 H2258 0.950 . S
C2236 C2235 1.349 . S
C2236 C2248 1.349 . S
C2237 C2235 1.327 . S
C2237 C2253 1.429 . S
C2237 H2259 0.950 . S
C2238 H2234 0.949 . S
C2238 C2246 1.574 . S
C2238 C2254 1.368 . S
H2239 C2247 0.935 1_556 S
H2240 C2245 0.950 1_556 S
H2241 C2246 0.949 . S
H2242 C2248 0.950 . S
H2243 C2249 0.950 . S
H2244 C2250 0.949 . S
C2245 H2240 0.950 1_554 S
C2245 C2247 1.329 . S
C2245 C2251 1.429 . S
C2246 C2238 1.574 . S
C2246 H2241 0.949 . S
C2246 C2252 1.368 . S
C2247 C2231 1.362 . S
C2247 H2239 0.935 1_554 S
C2247 C2245 1.329 . S
C2248 C2236 1.349 . S
C2248 H2242 0.950 . S
C2248 C2249 1.327 . S
C2249 H2243 0.950 . S
C2249 C2248 1.327 . S
C2249 C2253 1.429 . S
C2250 C2233 1.574 . S
C2250 H2244 0.949 . S
C2250 C2254 1.368 . S
C2251 C2232 1.429 . S
C2251 C2245 1.429 . S
C2251 C2252 1.523 . S
C2252 C2233 1.368 . S
C2252 C2246 1.368 . S
C2252 C2251 1.523 . S
C2253 C2237 1.429 . S
C2253 C2249 1.429 . S
C2253 C2254 1.523 . S
C2254 C2238 1.368 . S
C2254 C2250 1.368 . S
C2254 C2253 1.523 . S
H2255 C2230 0.950 . S
H2256 C2232 0.950 . S
H2257 C2233 0.949 1_556 S
H2258 C2235 0.950 . S
H2259 C2237 0.950 . S
C821 C22 1.664 . S
C826 C699 1.664 1_545 S
C856 C725 1.787 . S
C851 C38 1.808 . S
C886 C657 1.773 1_565 S
C881 C75 1.756 . S
C911 C91 1.499 . S
C916 C680 1.505 . S
C941 C128 1.578 . S
C946 C814 1.585 1_554 S
C971 C197 1.407 . S
C976 C795 1.417 . S
C1006 C748 1.853 . S
C1001 C144 1.873 . S
C1031 C181 1.756 . S
C1036 C771 1.754 . S
C1066 C676 1.789 . S
C1061 C234 1.794 . S
C1096 C726 1.552 . S
C1091 C303 1.545 . S
C1121 C356 1.716 . S
C1126 C702 1.691 1_655 S
C1151 C287 1.856 . S
C1156 C768 1.863 . S
C1186 C791 1.620 . S
C1181 C393 1.618 . S
C1216 C817 1.827 1_565 S
C1211 C409 1.836 . S
C1241 C462 1.949 . S
C1246 C772 1.963 . S
C1276 C749 1.399 1_545 S
C1271 C446 1.394 . S
C1301 C499 1.572 . S
C1306 C722 1.571 . S
C1331 C552 1.383 . S
C1336 C703 1.395 . S
C1366 C679 1.700 1_556 S
C1361 C515 1.750 . S
C1391 C568 2.012 . S
C1396 C656 2.005 1_556 S
C1426 C745 1.873 . S
C1421 C340 1.873 . S
C1456 C818 1.452 . S
C1451 C621 1.449 . S
C1481 C250 1.610 . S
C1486 C794 1.587 . S
C1511 C605 1.793 . S
C1516 C653 1.790 . S
C1546 C655 1.342 . S
C1541 C39 1.363 . S
C1571 C29 1.193 . S
C1576 C678 1.155 . S
C1606 C700 1.230 . S
C1601 C92 1.214 . S
C1636 C721 1.116 . S
C1631 C82 1.103 . S
C1661 C145 1.486 . S
C1666 C652 1.497 . S
C1691 C188 1.184 . S
C1696 C675 1.196 . S
C1726 C701 1.218 . S
C1721 C135 1.250 . S
C1751 C198 1.373 . S
C1756 C723 1.392 . S
C1781 C251 1.272 . S
C1786 C654 1.279 . S
C1816 C698 1.133 . S
C1811 C294 1.121 . S
C1841 C347 1.248 . S
C1846 C724 1.221 . S
C1871 C304 1.259 . S
C1876 C746 1.269 . S
C1906 C770 1.347 . S
C1901 C410 1.380 . S
C1931 C400 1.210 . S
C1936 C747 1.181 . S
C1961 C453 0.934 . S
C1966 C792 0.943 . S
C1991 C463 1.404 . S
C1996 C813 1.412 . S
C2021 C516 1.466 . S
C2026 C767 1.483 . S
C2056 C744 1.503 . S
C2051 C569 1.495 1_565 S
C2081 C506 1.188 . S
C2086 C793 1.146 . S
C2116 C815 1.152 . S
C2111 C559 1.139 . S
C2146 C769 1.262 . S
C2141 C357 1.263 . S
C2176 C790 1.135 . S
C2171 C612 1.125 . S
C2206 C816 1.181 . S
C2201 C241 1.206 . S
C2231 C622 1.153 . S
C2236 C677 1.166 . S
