# Generated by pormake.
# Topology ocu, (6,8)-cn, num edge types: 1
# Building blocks:
#     Node 0, Type 0, BuildingBlock: PAMTOO_clean_sbu_0, # of connection points: 6
#     Node 1, Type 0, BuildingBlock: PAMTOO_clean_sbu_0, # of connection points: 6
#     Node 2, Type 0, BuildingBlock: PAMTOO_clean_sbu_0, # of connection points: 6
#     Node 3, Type 0, BuildingBlock: PAMTOO_clean_sbu_0, # of connection points: 6
#     Node 4, Type 0, BuildingBlock: PAMTOO_clean_sbu_0, # of connection points: 6
#     Node 5, Type 0, BuildingBlock: PAMTOO_clean_sbu_0, # of connection points: 6
#     Node 6, Type 0, BuildingBlock: PAMTOO_clean_sbu_0, # of connection points: 6
#     Node 7, Type 0, BuildingBlock: PAMTOO_clean_sbu_0, # of connection points: 6
#     Node 8, Type 1, BuildingBlock: TAGTUT_clean_sbu_1, # of connection points: 8
#     Node 9, Type 1, BuildingBlock: TAGTUT_clean_sbu_1, # of connection points: 8
#     Node 10, Type 1, BuildingBlock: TAGTUT_clean_sbu_1, # of connection points: 8
#     Node 11, Type 1, BuildingBlock: TAGTUT_clean_sbu_1, # of connection points: 8
#     Node 12, Type 1, BuildingBlock: TAGTUT_clean_sbu_1, # of connection points: 8
#     Node 13, Type 1, BuildingBlock: TAGTUT_clean_sbu_1, # of connection points: 8
#     Edge 14, Type (0, 1), BuildingBlock: AJUNOK_clean_linker_0, # of connection points: 2
#     Edge 15, Type (0, 1), BuildingBlock: AJUNOK_clean_linker_0, # of connection points: 2
#     Edge 16, Type (0, 1), BuildingBlock: AJUNOK_clean_linker_0, # of connection points: 2
#     Edge 17, Type (0, 1), BuildingBlock: AJUNOK_clean_linker_0, # of connection points: 2
#     Edge 18, Type (0, 1), BuildingBlock: AJUNOK_clean_linker_0, # of connection points: 2
#     Edge 19, Type (0, 1), BuildingBlock: AJUNOK_clean_linker_0, # of connection points: 2
#     Edge 20, Type (0, 1), BuildingBlock: AJUNOK_clean_linker_0, # of connection points: 2
#     Edge 21, Type (0, 1), BuildingBlock: AJUNOK_clean_linker_0, # of connection points: 2
#     Edge 22, Type (0, 1), BuildingBlock: AJUNOK_clean_linker_0, # of connection points: 2
#     Edge 23, Type (0, 1), BuildingBlock: AJUNOK_clean_linker_0, # of connection points: 2
#     Edge 24, Type (0, 1), BuildingBlock: AJUNOK_clean_linker_0, # of connection points: 2
#     Edge 25, Type (0, 1), BuildingBlock: AJUNOK_clean_linker_0, # of connection points: 2
#     Edge 26, Type (0, 1), BuildingBlock: AJUNOK_clean_linker_0, # of connection points: 2
#     Edge 27, Type (0, 1), BuildingBlock: AJUNOK_clean_linker_0, # of connection points: 2
#     Edge 28, Type (0, 1), BuildingBlock: AJUNOK_clean_linker_0, # of connection points: 2
#     Edge 29, Type (0, 1), BuildingBlock: AJUNOK_clean_linker_0, # of connection points: 2
#     Edge 30, Type (0, 1), BuildingBlock: AJUNOK_clean_linker_0, # of connection points: 2
#     Edge 31, Type (0, 1), BuildingBlock: AJUNOK_clean_linker_0, # of connection points: 2
#     Edge 32, Type (0, 1), BuildingBlock: AJUNOK_clean_linker_0, # of connection points: 2
#     Edge 33, Type (0, 1), BuildingBlock: AJUNOK_clean_linker_0, # of connection points: 2
#     Edge 34, Type (0, 1), BuildingBlock: AJUNOK_clean_linker_0, # of connection points: 2
#     Edge 35, Type (0, 1), BuildingBlock: AJUNOK_clean_linker_0, # of connection points: 2
#     Edge 36, Type (0, 1), BuildingBlock: AJUNOK_clean_linker_0, # of connection points: 2
#     Edge 37, Type (0, 1), BuildingBlock: AJUNOK_clean_linker_0, # of connection points: 2
#     Edge 38, Type (0, 1), BuildingBlock: AJUNOK_clean_linker_0, # of connection points: 2
#     Edge 39, Type (0, 1), BuildingBlock: AJUNOK_clean_linker_0, # of connection points: 2
#     Edge 40, Type (0, 1), BuildingBlock: AJUNOK_clean_linker_0, # of connection points: 2
#     Edge 41, Type (0, 1), BuildingBlock: AJUNOK_clean_linker_0, # of connection points: 2
#     Edge 42, Type (0, 1), BuildingBlock: AJUNOK_clean_linker_0, # of connection points: 2
#     Edge 43, Type (0, 1), BuildingBlock: AJUNOK_clean_linker_0, # of connection points: 2
#     Edge 44, Type (0, 1), BuildingBlock: AJUNOK_clean_linker_0, # of connection points: 2
#     Edge 45, Type (0, 1), BuildingBlock: AJUNOK_clean_linker_0, # of connection points: 2
#     Edge 46, Type (0, 1), BuildingBlock: AJUNOK_clean_linker_0, # of connection points: 2
#     Edge 47, Type (0, 1), BuildingBlock: AJUNOK_clean_linker_0, # of connection points: 2
#     Edge 48, Type (0, 1), BuildingBlock: AJUNOK_clean_linker_0, # of connection points: 2
#     Edge 49, Type (0, 1), BuildingBlock: AJUNOK_clean_linker_0, # of connection points: 2
#     Edge 50, Type (0, 1), BuildingBlock: AJUNOK_clean_linker_0, # of connection points: 2
#     Edge 51, Type (0, 1), BuildingBlock: AJUNOK_clean_linker_0, # of connection points: 2
#     Edge 52, Type (0, 1), BuildingBlock: AJUNOK_clean_linker_0, # of connection points: 2
#     Edge 53, Type (0, 1), BuildingBlock: AJUNOK_clean_linker_0, # of connection points: 2
#     Edge 54, Type (0, 1), BuildingBlock: AJUNOK_clean_linker_0, # of connection points: 2
#     Edge 55, Type (0, 1), BuildingBlock: AJUNOK_clean_linker_0, # of connection points: 2
#     Edge 56, Type (0, 1), BuildingBlock: AJUNOK_clean_linker_0, # of connection points: 2
#     Edge 57, Type (0, 1), BuildingBlock: AJUNOK_clean_linker_0, # of connection points: 2
#     Edge 58, Type (0, 1), BuildingBlock: AJUNOK_clean_linker_0, # of connection points: 2
#     Edge 59, Type (0, 1), BuildingBlock: AJUNOK_clean_linker_0, # of connection points: 2
#     Edge 60, Type (0, 1), BuildingBlock: AJUNOK_clean_linker_0, # of connection points: 2
#     Edge 61, Type (0, 1), BuildingBlock: AJUNOK_clean_linker_0, # of connection points: 2
# Relax obj value: 0.301
# Max RMSD: 0.321
# Mean RMSD: 0.144
data_MOF--net-ocu--node1-PAMTOO_clean_sbu_0--node2-TAGTUT_clean_sbu_1--edge1-AJUNOK_clean_linker_0
_symmetry_space_group_name_H-M    P1
_symmetry_Int_Tables_number       1
_symmetry_cell_setting            triclinic
loop_
_symmetry_equiv_pos_as_xyz
'x, y, z'
_cell_length_a     30.673553
_cell_length_b     31.137505
_cell_length_c     31.061088
_cell_angle_alpha  93.284861
_cell_angle_beta   95.11655
_cell_angle_gamma 111.10811
loop_
_atom_site_label
_atom_site_type_symbol
_atom_site_fract_x
_atom_site_fract_y
_atom_site_fract_z
_atom_type_partial_charge
Dy0 Dy 0.34022 0.33499 0.34128 0.0
Dy1 Dy 0.2484 0.29931 0.27809 0.0
C2 C 0.33103 0.25973 0.25577 0.0
O3 O 0.36461 0.38831 0.29148 0.0
O4 O 0.30091 0.35475 0.24082 0.0
O5 O 0.41583 0.36324 0.35838 0.0
O6 O 0.37 0.34301 0.40835 0.0
O7 O 0.23172 0.34204 0.33328 0.0
O8 O 0.3047 0.38211 0.36807 0.0
O9 O 0.22276 0.2521 0.33275 0.0
O10 O 0.29357 0.27091 0.37315 0.0
O11 O 0.18119 0.24961 0.24786 0.0
O12 O 0.20704 0.31996 0.23017 0.0
C13 C 0.34408 0.38637 0.25164 0.0
O14 O 0.3564 0.28749 0.29028 0.0
O15 O 0.28637 0.25537 0.24718 0.0
C16 C 0.42719 0.3111 0.40586 0.0
C17 C 0.43115 0.22363 0.41673 0.0
C18 C 0.43118 0.23943 0.37543 0.0
C19 C 0.43064 0.28305 0.37034 0.0
C20 C 0.42633 0.29523 0.44728 0.0
C21 C 0.42901 0.25195 0.4528 0.0
C22 C 0.41148 0.34928 0.3971 0.0
C23 C 0.25911 0.37347 0.36443 0.0
C24 C 0.24757 0.24638 0.36761 0.0
C25 C 0.12712 0.28732 0.23441 0.0
C26 C 0.06459 0.33357 0.24305 0.0
C27 C 0.09043 0.32718 0.28007 0.0
C28 C 0.12127 0.30372 0.27578 0.0
C29 C 0.09741 0.28903 0.19822 0.0
C30 C 0.066 0.31171 0.20256 0.0
C31 C 0.17119 0.28104 0.22747 0.0
H32 H 0.43315 0.21852 0.34708 0.0
H33 H 0.43114 0.29402 0.33805 0.0
H34 H 0.42236 0.31571 0.47498 0.0
H35 H 0.43044 0.24116 0.48527 0.0
H36 H 0.08985 0.34373 0.31156 0.0
H37 H 0.14373 0.30235 0.30413 0.0
H38 H 0.10171 0.27694 0.16604 0.0
H39 H 0.04671 0.31655 0.17345 0.0
Dy40 Dy 0.84313 0.3405 0.307 0.0
Dy41 Dy 0.74941 0.28906 0.33996 0.0
C42 C 0.82609 0.36838 0.40019 0.0
O43 O 0.85799 0.28126 0.34 0.0
O44 O 0.79162 0.24977 0.3732 0.0
O45 O 0.91492 0.37528 0.33627 0.0
O46 O 0.8973 0.37579 0.26733 0.0
O47 O 0.74273 0.24129 0.28113 0.0
O48 O 0.80043 0.29149 0.24693 0.0
O49 O 0.73373 0.33638 0.28987 0.0
O50 O 0.80495 0.38242 0.2732 0.0
O51 O 0.69125 0.30627 0.35942 0.0
O52 O 0.6894 0.23558 0.35891 0.0
C53 C 0.83496 0.25253 0.3676 0.0
O54 O 0.83068 0.38342 0.36205 0.0
O55 O 0.797 0.32616 0.40075 0.0
C56 C 0.94181 0.44657 0.30786 0.0
C57 C 0.95092 0.53519 0.28848 0.0
C58 C 0.91444 0.51056 0.31161 0.0
C59 C 0.90881 0.46557 0.31927 0.0
C60 C 0.98448 0.47588 0.29606 0.0
C61 C 0.98898 0.52032 0.28563 0.0
C62 C 0.9274 0.39598 0.30166 0.0
C63 C 0.76193 0.25354 0.24553 0.0
C64 C 0.75899 0.37114 0.2688 0.0
C65 C 0.62401 0.24569 0.32458 0.0
C66 C 0.56886 0.16151 0.28326 0.0
C67 C 0.60098 0.1925 0.25938 0.0
C68 C 0.63101 0.23479 0.28162 0.0
C69 C 0.5798 0.22346 0.33763 0.0
C70 C 0.54914 0.18309 0.31295 0.0
C71 C 0.66495 0.26244 0.35775 0.0
H72 H 0.88526 0.52186 0.31505 0.0
H73 H 0.87585 0.44458 0.32885 0.0
H74 H 1.0119 0.4629 0.29089 0.0
H75 H 1.0185 0.53948 0.269 0.0
H76 H 0.61223 0.17955 0.23098 0.0
H77 H 0.66353 0.25353 0.26897 0.0
H78 H 0.57253 0.23318 0.36935 0.0
H79 H 0.51714 0.16318 0.32563 0.0
Dy80 Dy 0.85357 0.79567 0.27981 0.0
Dy81 Dy 0.87464 0.8866 0.22724 0.0
C82 C 0.92781 0.88779 0.32009 0.0
O83 O 0.81967 0.83816 0.31502 0.0
O84 O 0.80888 0.87742 0.25755 0.0
O85 O 0.84883 0.75936 0.33713 0.0
O86 O 0.83593 0.72186 0.27328 0.0
O87 O 0.82477 0.82342 0.18476 0.0
O88 O 0.78791 0.78444 0.23878 0.0
O89 O 0.93396 0.86388 0.2154 0.0
O90 O 0.88882 0.7885 0.22108 0.0
O91 O 0.88022 0.91987 0.16728 0.0
O92 O 0.88624 0.95963 0.22829 0.0
C93 C 0.80164 0.86628 0.29706 0.0
O94 O 0.92366 0.84566 0.30741 0.0
O95 O 0.90746 0.90979 0.2958 0.0
C96 C 0.88162 0.70354 0.32757 0.0
C97 C 0.95409 0.68258 0.37026 0.0
C98 C 0.96489 0.72155 0.34701 0.0
C99 C 0.92869 0.73177 0.32534 0.0
C100 C 0.87098 0.66204 0.34666 0.0
C101 C 0.90726 0.65131 0.36765 0.0
C102 C 0.84473 0.72091 0.31494 0.0
C103 C 0.78865 0.79123 0.19785 0.0
C104 C 0.92453 0.81958 0.20628 0.0
C105 C 0.82572 0.95539 0.17619 0.0
C106 C 0.73219 0.94949 0.17861 0.0
C107 C 0.74301 0.90967 0.17713 0.0
C108 C 0.78848 0.91268 0.17407 0.0
C109 C 0.81591 0.99595 0.17888 0.0
C110 C 0.76905 0.99296 0.17873 0.0
C111 C 0.87309 0.95475 0.18668 0.0
H112 H 1.00075 0.74606 0.34894 0.0
H113 H 0.93722 0.76368 0.30995 0.0
H114 H 0.83475 0.63986 0.34818 0.0
H115 H 0.89826 0.62126 0.38587 0.0
H116 H 0.7162 0.8757 0.17773 0.0
H117 H 0.7947 0.88106 0.17263 0.0
H118 H 0.84412 0.0295 0.18171 0.0
H119 H 0.76187 1.02451 0.17834 0.0
Dy120 Dy 0.26525 0.82694 0.31128 0.0
Dy121 Dy 0.34164 0.78524 0.32823 0.0
C122 C 0.35129 0.87488 0.3819 0.0
O123 O 0.31217 0.86072 0.25945 0.0
O124 O 0.3756 0.84237 0.28122 0.0
O125 O 0.22049 0.84944 0.26764 0.0
O126 O 0.21571 0.85232 0.33705 0.0
O127 O 0.30025 0.73916 0.26931 0.0
O128 O 0.23432 0.75671 0.27388 0.0
O129 O 0.27908 0.73418 0.35814 0.0
O130 O 0.2407 0.78327 0.36905 0.0
O131 O 0.37077 0.7475 0.37077 0.0
O132 O 0.41125 0.78501 0.32252 0.0
C133 C 0.35638 0.8657 0.25562 0.0
O134 O 0.32962 0.8835 0.34724 0.0
O135 O 0.34475 0.83201 0.38616 0.0
C136 C 0.20485 0.91128 0.30122 0.0
C137 C 0.21069 0.99535 0.34338 0.0
C138 C 0.16652 0.96003 0.32926 0.0
C139 C 0.16375 0.9186 0.30793 0.0
C140 C 0.24841 0.94825 0.30895 0.0
C141 C 0.25123 0.99051 0.32942 0.0
C142 C 0.20291 0.86384 0.29963 0.0
C143 C 0.25561 0.73079 0.2576 0.0
C144 C 0.24676 0.74435 0.37782 0.0
C145 C 0.41758 0.71434 0.33605 0.0
C146 C 0.4276 0.64328 0.28357 0.0
C147 C 0.46536 0.68599 0.2937 0.0
C148 C 0.46045 0.7211 0.32006 0.0
C149 C 0.38192 0.67008 0.33055 0.0
C150 C 0.38714 0.63456 0.3047 0.0
C151 C 0.40789 0.75508 0.35086 0.0
H152 H 0.13415 0.96089 0.33967 0.0
H153 H 0.12994 0.89024 0.30219 0.0
H154 H 0.28061 0.94288 0.30371 0.0
H155 H 0.28561 1.01715 0.33888 0.0
H156 H 0.49677 0.69451 0.27744 0.0
H157 H 0.48836 0.75496 0.32421 0.0
H158 H 0.34852 0.66389 0.34302 0.0
H159 H 0.35774 0.60189 0.29769 0.0
Dy160 Dy 0.35886 0.84846 0.80256 0.0
Dy161 Dy 0.25641 0.78333 0.81102 0.0
C162 C 0.30305 0.87356 0.87644 0.0
O163 O 0.36497 0.80122 0.85596 0.0
O164 O 0.29223 0.74494 0.85372 0.0
O165 O 0.42006 0.91181 0.80982 0.0
O166 O 0.42733 0.84494 0.80051 0.0
O167 O 0.29669 0.74573 0.7801 0.0
O168 O 0.33263 0.80199 0.74047 0.0
O169 O 0.24848 0.83941 0.7689 0.0
O170 O 0.32287 0.88328 0.7556 0.0
O171 O 0.19738 0.74232 0.76489 0.0
O172 O 0.18969 0.74794 0.8339 0.0
C173 C 0.33756 0.76136 0.86863 0.0
O174 O 0.33405 0.8885 0.84915 0.0
O175 O 0.27182 0.8312 0.87158 0.0
C176 C 0.49332 0.91037 0.79007 0.0
C177 C 0.57823 0.947 0.75437 0.0
C178 C 0.54491 0.96851 0.7508 0.0
C179 C 0.50276 0.95032 0.76848 0.0
C180 C 0.52776 0.89057 0.79622 0.0
C181 C 0.56997 0.90863 0.77823 0.0
C182 C 0.44891 0.8896 0.8082 0.0
C183 C 0.3127 0.75776 0.74363 0.0
C184 C 0.27678 0.87358 0.74924 0.0
C185 C 0.1494 0.67678 0.79408 0.0
C186 C 0.12461 0.5921 0.82838 0.0
C187 C 0.16479 0.60735 0.80663 0.0
C188 C 0.17767 0.65027 0.79014 0.0
C189 C 0.10476 0.65713 0.80737 0.0
C190 C 0.09207 0.61445 0.82414 0.0
C191 C 0.17063 0.72685 0.79532 0.0
H192 H 0.55005 0.99771 0.73181 0.0
H193 H 0.47712 0.96667 0.76404 0.0
H194 H 0.52143 0.86032 0.81394 0.0
H195 H 0.59506 0.89149 0.7812 0.0
H196 H 0.18973 0.59 0.80864 0.0
H197 H 0.21219 0.66507 0.77953 0.0
H198 H 0.08243 0.67712 0.81008 0.0
H199 H 0.06036 0.60309 0.84007 0.0
Dy200 Dy 0.34725 0.33106 0.78723 0.0
Dy201 Dy 0.25369 0.28098 0.83517 0.0
C202 C 0.26232 0.24077 0.74455 0.0
O203 O 0.30178 0.3715 0.76398 0.0
O204 O 0.23238 0.32747 0.78864 0.0
O205 O 0.37852 0.3461 0.72767 0.0
O206 O 0.423 0.36254 0.78846 0.0
O207 O 0.30324 0.33742 0.8834 0.0
O208 O 0.35074 0.38441 0.83866 0.0
O209 O 0.3005 0.24441 0.86268 0.0
O210 O 0.36834 0.28422 0.83397 0.0
O211 O 0.21941 0.25716 0.89156 0.0
O212 O 0.17797 0.246 0.82912 0.0
C213 C 0.25573 0.36025 0.76445 0.0
O214 O 0.29404 0.28023 0.73857 0.0
O215 O 0.25542 0.2295 0.78385 0.0
C216 C 0.44776 0.32912 0.72962 0.0
C217 C 0.49222 0.26915 0.70184 0.0
C218 C 0.45204 0.27014 0.67723 0.0
C219 C 0.43017 0.29989 0.69079 0.0
C220 C 0.48881 0.32904 0.75375 0.0
C221 C 0.5109 0.29927 0.73994 0.0
C222 C 0.42111 0.35643 0.74649 0.0
C223 C 0.33861 0.37482 0.87733 0.0
C224 C 0.34582 0.25393 0.86064 0.0
C225 C 0.14245 0.2543 0.89215 0.0
C226 C 0.08694 0.28496 0.94375 0.0
C227 C 0.10416 0.30825 0.90778 0.0
C228 C 0.13207 0.29319 0.88224 0.0
C229 C 0.12292 0.22943 0.92643 0.0
C230 C 0.0954 0.24472 0.95219 0.0
C231 C 0.17734 0.24185 0.87058 0.0
H232 H 0.43751 0.24784 0.64729 0.0
H233 H 0.39885 0.29917 0.67118 0.0
H234 H 0.50321 0.35119 0.78377 0.0
H235 H 0.54195 0.29915 0.75943 0.0
H236 H 0.09832 0.33964 0.901 0.0
H237 H 0.14715 0.31299 0.85606 0.0
H238 H 0.13076 0.19938 0.9345 0.0
H239 H 0.0823 0.22627 0.97972 0.0
Dy240 Dy 0.75273 0.32378 0.78024 0.0
Dy241 Dy 0.81467 0.26542 0.81197 0.0
C242 C 0.82447 0.3614 0.8664 0.0
O243 O 0.82281 0.36202 0.75654 0.0
O244 O 0.86532 0.31598 0.77196 0.0
O245 O 0.7393 0.3733 0.74009 0.0
O246 O 0.6885 0.33723 0.78196 0.0
O247 O 0.79338 0.23759 0.74172 0.0
O248 O 0.73406 0.26516 0.72694 0.0
O249 O 0.7409 0.22591 0.82761 0.0
O250 O 0.71775 0.28651 0.83716 0.0
O251 O 0.81375 0.19937 0.82993 0.0
O252 O 0.87781 0.25976 0.84367 0.0
C253 C 0.8614 0.35269 0.75496 0.0
O254 O 0.80397 0.37292 0.83265 0.0
O255 O 0.82395 0.31903 0.86761 0.0
C256 C 0.70605 0.41639 0.78188 0.0
C257 C 0.70899 0.47864 0.85168 0.0
C258 C 0.75099 0.47726 0.83861 0.0
C259 C 0.74957 0.44641 0.80367 0.0
C260 C 0.6646 0.42213 0.79146 0.0
C261 C 0.6661 0.45329 0.82625 0.0
C262 C 0.70301 0.37252 0.75924 0.0
C263 C 0.75782 0.2392 0.71567 0.0
C264 C 0.71302 0.24391 0.84482 0.0
C265 C 0.88378 0.18747 0.82428 0.0
C266 C 0.91629 0.13098 0.77278 0.0
C267 C 0.93504 0.17945 0.77244 0.0
C268 C 0.91894 0.20738 0.79785 0.0
C269 C 0.86784 0.13956 0.8277 0.0
C270 C 0.88397 0.11136 0.802 0.0
C271 C 0.85866 0.21481 0.84294 0.0
H272 H 0.78424 0.49597 0.85834 0.0
H273 H 0.7821 0.44257 0.79696 0.0
H274 H 0.63074 0.39904 0.77533 0.0
H275 H 0.63327 0.45345 0.83646 0.0
H276 H 0.95955 0.19582 0.74992 0.0
H277 H 0.9318 0.24415 0.79443 0.0
H278 H 0.84077 0.12366 0.84819 0.0
H279 H 0.86948 0.07427 0.80339 0.0
Dy280 Dy 0.84255 0.8353 0.84706 0.0
Dy281 Dy 0.75641 0.78923 0.78062 0.0
C282 C 0.84981 0.75821 0.76898 0.0
O283 O 0.86887 0.87741 0.78892 0.0
O284 O 0.80307 0.84673 0.74063 0.0
O285 O 0.90402 0.89437 0.8748 0.0
O286 O 0.88603 0.82904 0.90274 0.0
O287 O 0.72783 0.83412 0.8264 0.0
O288 O 0.79519 0.87518 0.87034 0.0
O289 O 0.73088 0.74368 0.83588 0.0
O290 O 0.79483 0.77745 0.8859 0.0
O291 O 0.69672 0.79172 0.74041 0.0
O292 O 0.71073 0.72829 0.73942 0.0
C293 C 0.84752 0.8762 0.74951 0.0
O294 O 0.87073 0.78924 0.80306 0.0
O295 O 0.80472 0.75082 0.75699 0.0
C296 C 0.96459 0.86678 0.89561 0.0
C297 C 1.02518 0.81872 0.88587 0.0
C298 C 1.00435 0.83118 0.84922 0.0
C299 C 0.97429 0.85539 0.85398 0.0
C300 C 0.991 0.86056 0.93218 0.0
C301 C 1.02143 0.83685 0.92733 0.0
C302 C 0.91851 0.86942 0.90065 0.0
C303 C 0.74943 0.86667 0.8595 0.0
C304 C 0.75161 0.74579 0.87555 0.0
C305 C 0.69274 0.75441 0.67321 0.0
C306 C 0.7191 0.81715 0.61179 0.0
C307 C 0.75175 0.7996 0.63003 0.0
C308 C 0.73833 0.76757 0.66048 0.0
C309 C 0.65801 0.76414 0.64794 0.0
C310 C 0.67124 0.7955 0.61694 0.0
C311 C 0.68856 0.75152 0.71948 0.0
H312 H 1.00729 0.81771 0.8173 0.0
H313 H 0.95442 0.86012 0.82523 0.0
H314 H 0.98382 0.8688 0.96453 0.0
H315 H 1.03709 0.82751 0.95623 0.0
H316 H 0.78865 0.8153 0.62574 0.0
H317 H 0.76559 0.75971 0.67912 0.0
H318 H 0.62262 0.75399 0.65698 0.0
H319 H 0.6454 0.80806 0.60202 0.0
C320 C 0.94438 0.09591 0.60338 0.0
C321 C 0.93439 0.14836 0.47578 0.0
C322 C 1.00066 0.95613 0.49924 0.0
Mg323 Mg 1.01623 0.1519 0.54746 0.0
O324 O 1.01215 0.09116 0.52809 0.0
Mg325 Mg 0.94846 0.04258 0.50572 0.0
Mg326 Mg 0.05169 0.05604 0.55564 0.0
O327 O 0.09401 1.02238 0.58307 0.0
Mg328 Mg 0.09965 0.96782 0.55854 0.0
Mg329 Mg 0.15667 0.07387 0.60721 0.0
C330 C 0.1132 0.15896 0.60405 0.0
C331 C 0.15018 0.12037 0.50566 0.0
O332 O 0.9327 0.06026 0.57568 0.0
O333 O 0.97167 0.13571 0.5959 0.0
O334 O 0.91639 0.10419 0.48151 0.0
O335 O 0.97605 0.17317 0.49427 0.0
O336 O 0.08721 0.18007 0.58746 0.0
O337 O 0.10457 0.116 0.59527 0.0
C338 C 0.95217 0.99658 0.60911 0.0
O339 O 0.99783 1.01649 0.61131 0.0
O340 O 0.92767 1.00446 0.57585 0.0
O341 O 0.18333 0.06427 0.53942 0.0
O342 O 0.14755 0.9904 0.5125 0.0
O343 O 0.19376 1.01706 0.6315 0.0
C344 C 0.17674 0.03088 0.5102 0.0
O345 O 0.13999 0.94609 0.61107 0.0
O346 O 1.032 0.94091 0.51563 0.0
C347 C 0.17915 0.97228 0.63336 0.0
O348 O 0.9982 0.99485 0.51389 0.0
O349 O 0.1049 0.09772 0.502 0.0
O350 O 0.17528 0.11384 0.53908 0.0
C351 C 0.424 0.16695 0.13207 0.0
C352 C 0.44201 0.1682 0.9912 0.0
C353 C 0.43857 0.98552 0.99442 0.0
Mg354 Mg 0.51247 0.17528 0.07741 0.0
O355 O 0.4931 0.10967 0.07568 0.0
Mg356 Mg 0.42268 0.07534 0.05619 0.0
Mg357 Mg 0.52731 0.0688 0.04723 0.0
O358 O 0.56072 0.02961 1.01431 0.0
Mg359 Mg 0.53968 0.96435 1.00242 0.0
Mg360 Mg 0.62929 0.06115 0.03794 0.0
C361 C 0.61548 0.15562 0.10122 0.0
C362 C 0.60331 0.1293 0.97286 0.0
O363 O 0.40157 0.127 0.10963 0.0
O364 O 0.46739 0.18955 0.12661 0.0
O365 O 0.41848 0.12755 1.00193 0.0
O366 O 0.48219 0.19217 1.01319 0.0
O367 O 0.58827 0.17972 0.09892 0.0
O368 O 0.60052 0.11207 0.08533 0.0
C369 C 0.45048 1.00303 0.12284 0.0
O370 O 0.4912 1.0129 0.10686 0.0
O371 O 0.42299 1.0234 0.10873 0.0
O372 O 0.65569 1.00576 0.98734 0.0
O373 O 0.59134 0.94583 0.96021 0.0
O374 O 0.61653 1.01085 0.08897 0.0
C375 C 0.63671 0.96649 0.96224 0.0
O376 O 0.55345 0.94675 0.06704 0.0
O377 O 0.46497 0.96137 0.98917 0.0
C378 C 0.58645 0.97186 0.09602 0.0
O379 O 0.45479 0.02853 1.01006 0.0
O380 O 0.56311 0.12082 0.98903 0.0
O381 O 0.63215 0.11038 0.9864 0.0
C382 C 0.99861 0.7271 0.08164 0.0
C383 C 1.03784 0.67402 0.96171 0.0
C384 C 0.9187 0.50213 1.01419 0.0
Mg385 Mg 0.07147 0.68402 0.05944 0.0
O386 O 1.02049 0.6296 0.06117 0.0
Mg387 Mg 0.95804 0.61835 0.0295 0.0
Mg388 Mg 1.02095 0.56708 0.05909 0.0
O389 O 1.02025 0.50348 0.05996 0.0
Mg390 Mg 0.96748 0.45853 0.07845 0.0
Mg391 Mg 0.08392 0.51549 0.09138 0.0
C392 C 0.12543 0.63148 0.11524 0.0
C393 C 0.09503 0.55525 0.99768 0.0
O394 O 0.96693 0.69234 0.05858 0.0
O395 O 0.04168 0.73072 0.08751 0.0
O396 O 0.99599 0.64957 0.96961 0.0
O397 O 0.07275 0.68784 0.99149 0.0
O398 O 0.1246 0.66842 0.09946 0.0
O399 O 0.09033 0.59256 0.10701 0.0
C400 C 0.94489 0.57535 0.12046 0.0
O401 O 0.97852 0.56152 0.11477 0.0
O402 O 0.92774 0.59418 0.09162 0.0
O403 O 0.06583 0.43817 0.06862 0.0
O404 O 0.987 0.404 0.05029 0.0
O405 O 0.05609 0.49198 0.15522 0.0
C406 C 1.02882 0.40333 0.05266 0.0
O407 O 0.97811 0.45762 0.14736 0.0
O408 O 0.91653 0.48776 0.05196 0.0
C409 C 1.01783 0.46988 0.17048 0.0
O410 O 0.95203 0.54051 1.00868 0.0
O411 O 0.06368 0.57237 1.00336 0.0
O412 O 0.10977 0.53453 0.02646 0.0
C413 C 0.44635 0.60898 0.1098 0.0
C414 C 0.43226 0.65743 0.98171 0.0
C415 C 0.48234 0.45961 1.02101 0.0
Mg416 Mg 0.51692 0.65965 0.05081 0.0
O417 O 0.51089 0.59879 0.03124 0.0
Mg418 Mg 0.44483 0.55175 1.01184 0.0
Mg419 Mg 0.54917 0.56329 0.06204 0.0
O420 O 0.58802 0.52823 0.0917 0.0
Mg421 Mg 0.5831 0.4673 0.07426 0.0
Mg422 Mg 0.65392 0.57557 0.11223 0.0
C423 C 0.62015 0.66839 0.09481 0.0
C424 C 0.64833 0.61691 1.00912 0.0
O425 O 0.43073 0.57393 0.08113 0.0
O426 O 0.47897 0.6465 0.10417 0.0
O427 O 0.41393 0.61295 0.98548 0.0
O428 O 0.47383 0.68103 1.00102 0.0
O429 O 0.59251 0.68724 0.07726 0.0
O430 O 0.60771 0.62455 0.09719 0.0
C431 C 0.44936 0.5092 0.11535 0.0
O432 O 0.49509 0.52838 0.11831 0.0
O433 O 0.42542 0.51689 0.08177 0.0
O434 O 0.67664 0.55392 0.04527 0.0
O435 O 0.63102 0.47937 0.02813 0.0
O436 O 0.68178 0.51408 0.14375 0.0
C437 C 0.66502 0.51541 1.02135 0.0
O438 O 0.62155 0.44605 0.12907 0.0
O439 O 0.51092 0.44074 0.03674 0.0
C440 C 0.66271 0.47002 0.14931 0.0
O441 O 0.49099 0.5031 0.02646 0.0
O442 O 0.60276 0.59633 1.00589 0.0
O443 O 0.67299 0.61126 0.04313 0.0
C444 C 0.96181 0.65845 0.66718 0.0
C445 C 1.01619 0.65099 0.53489 0.0
C446 C 0.98282 0.46808 0.53402 0.0
Mg447 Mg 0.05907 0.65855 0.62944 0.0
O448 O 1.03722 0.59311 0.61947 0.0
Mg449 Mg 0.96914 0.56319 0.59347 0.0
Mg450 Mg 0.07057 0.55304 0.58729 0.0
O451 O 0.10445 0.51165 0.55962 0.0
Mg452 Mg 0.08474 0.44606 0.55534 0.0
Mg453 Mg 0.17473 0.54507 0.57914 0.0
C454 C 0.15922 0.63565 0.64012 0.0
C455 C 0.14824 0.61631 0.51253 0.0
O456 O 0.9424 0.61858 0.64317 0.0
O457 O 1.00711 0.67884 0.66876 0.0
O458 O 0.98443 0.61293 0.54156 0.0
O459 O 0.04889 0.6756 0.5642 0.0
O460 O 0.13289 0.66009 0.64386 0.0
O461 O 0.14304 0.59215 0.62586 0.0
C462 C 0.98993 0.49095 0.65636 0.0
O463 O 1.03081 0.49866 0.64182 0.0
O464 O 0.96346 0.5127 0.64353 0.0
O465 O 0.19415 0.4951 0.52384 0.0
O466 O 0.12768 0.43408 0.50348 0.0
O467 O 0.1793 0.49187 0.63211 0.0
C468 C 0.17121 0.45695 0.49896 0.0
O469 O 0.11701 0.42635 0.61727 0.0
O470 O 1.00927 0.44323 0.53606 0.0
C471 C 0.15663 0.45 0.6404 0.0
O472 O 0.99869 0.51188 0.54853 0.0
O473 O 0.10793 0.60824 0.52862 0.0
O474 O 0.1751 0.59578 0.52713 0.0
C475 C 0.56588 0.14998 0.60923 0.0
C476 C 0.52359 0.10907 0.47533 0.0
C477 C 0.5353 0.95742 0.47549 0.0
Mg478 Mg 0.61969 0.14661 0.53009 0.0
O479 O 0.61043 0.08824 0.54994 0.0
Mg480 Mg 0.54367 0.04637 0.55209 0.0
Mg481 Mg 0.6322 0.04711 0.51238 0.0
O482 O 0.6523 1.00854 0.47152 0.0
Mg483 Mg 0.63359 0.9454 0.4722 0.0
Mg484 Mg 0.71837 0.04945 0.47213 0.0
C485 C 0.71227 0.14191 0.53795 0.0
C486 C 0.64506 0.08675 0.41848 0.0
O487 O 0.5421 0.10609 0.60136 0.0
O488 O 0.59861 0.17199 0.58681 0.0
O489 O 0.50965 0.07655 0.49978 0.0
O490 O 0.56629 0.13662 0.47851 0.0
O491 O 0.6889 0.15743 0.51135 0.0
O492 O 0.70922 0.09965 0.52993 0.0
C493 C 0.61769 1.0076 0.60394 0.0
O494 O 0.64237 1.01292 0.57238 0.0
O495 O 0.5806 1.01761 0.60334 0.0
O496 O 0.72594 0.99662 0.4187 0.0
O497 O 0.66797 0.92772 0.42037 0.0
O498 O 0.74128 1.0077 0.52299 0.0
C499 C 0.70496 0.9535 0.4052 0.0
O500 O 0.67558 0.94643 0.53011 0.0
O501 O 0.55835 0.9328 0.46267 0.0
C502 C 0.71891 0.97162 0.54134 0.0
O503 O 0.55582 0.99509 0.50051 0.0
O504 O 0.62105 0.07944 0.45073 0.0
O505 O 0.68497 0.08199 0.41997 0.0
C506 C 0.17324 0.19062 0.4006 0.0
C507 C 0.22315 0.21255 0.40199 0.0
C508 C 0.1504 0.16148 0.43297 0.0
C509 C 0.17527 0.15124 0.46953 0.0
H510 H 0.15112 0.19649 0.37432 0.0
H511 H 0.11225 0.14695 0.42921 0.0
S512 S 0.30657 0.1982 0.48988 0.0
N513 N 0.29618 0.22017 0.44471 0.0
N514 N 0.25458 0.16667 0.50348 0.0
C515 C 0.2252 0.1726 0.47101 0.0
C516 C 0.24841 0.20243 0.43824 0.0
C517 C 0.90741 0.23022 0.39298 0.0
C518 C 0.85916 0.22386 0.3939 0.0
C519 C 0.9307 0.20596 0.41869 0.0
C520 C 0.90747 0.17245 0.44666 0.0
H521 H 0.92803 0.25503 0.37263 0.0
H522 H 0.96772 0.21363 0.41641 0.0
S523 S 0.78304 0.14461 0.46485 0.0
N524 N 0.79048 0.18241 0.42854 0.0
N525 N 0.8332 0.13678 0.47461 0.0
C526 C 0.8595 0.16575 0.44788 0.0
C527 C 0.83595 0.19115 0.42242 0.0
C528 C 0.98024 0.89313 0.38739 0.0
C529 C 0.94478 0.90513 0.36595 0.0
C530 C 0.99549 0.9071 0.43142 0.0
C531 C 0.97555 0.93334 0.4561 0.0
H532 H 0.99705 0.87352 0.36979 0.0
H533 H 1.02467 0.89875 0.44553 0.0
S534 S 0.87422 0.96476 0.41685 0.0
N535 N 0.88553 0.93931 0.37343 0.0
N536 N 0.91322 0.96412 0.45681 0.0
C537 C 0.9377 0.94269 0.43561 0.0
C538 C 0.92263 0.92908 0.39039 0.0
C539 C 0.24759 0.03121 0.41803 0.0
C540 C 0.21451 0.02785 0.38194 0.0
C541 C 0.23774 0.03788 0.46061 0.0
C542 C 0.19442 0.04055 0.46808 0.0
H543 H 0.27837 1.02276 0.41402 0.0
H544 H 0.26171 0.0358 0.48752 0.0
S545 S 0.10184 0.04519 0.38492 0.0
N546 N 0.14412 0.04219 0.35699 0.0
N547 N 0.1206 0.04403 0.43613 0.0
C548 C 0.16383 0.04258 0.43243 0.0
C549 C 0.17583 0.04 0.38951 0.0
C550 C 0.20588 0.88085 0.70256 0.0
C551 C 0.2543 0.90042 0.71915 0.0
C552 C 0.18309 0.90391 0.67532 0.0
C553 C 0.2064 0.94905 0.66296 0.0
H554 H 0.1849 0.84665 0.71045 0.0
H555 H 0.14607 0.88592 0.66418 0.0
S556 S 0.33352 1.01761 0.69701 0.0
N557 N 0.32484 0.96904 0.71997 0.0
N558 N 0.28233 1.01228 0.67059 0.0
C559 C 0.25486 0.96942 0.6795 0.0
C560 C 0.27846 0.94539 0.70674 0.0
C561 C 0.22833 0.23593 0.66742 0.0
C562 C 0.22611 0.21653 0.70768 0.0
C563 C 0.19088 0.21873 0.63401 0.0
C564 C 0.15031 0.18148 0.6398 0.0
H565 H 0.2588 0.26535 0.66183 0.0
H566 H 0.19399 0.23404 0.60342 0.0
S567 S 0.1264 0.11726 0.73741 0.0
N568 N 0.17953 0.15705 0.75029 0.0
N569 N 0.10946 0.1249 0.68745 0.0
C570 C 0.1477 0.16127 0.67928 0.0
C571 C 0.18558 0.17862 0.71321 0.0
C572 C 0.9706 0.11819 0.72406 0.0
C573 C 0.92535 0.10273 0.73724 0.0
C574 C 0.97645 0.11271 0.68046 0.0
C575 C 0.93751 0.09007 0.64911 0.0
H576 H 1.00069 0.14004 0.74638 0.0
H577 H 1.01129 0.12927 0.67081 0.0
S578 S 0.81686 1.02218 0.67116 0.0
N579 N 0.84408 0.04962 0.7187 0.0
N580 N 0.8559 0.03795 0.63613 0.0
C581 C 0.89408 0.06592 0.66318 0.0
C582 C 0.88786 0.0722 0.70777 0.0
C583 C 0.85212 0.91336 0.67394 0.0
C584 C 0.87469 0.90823 0.7145 0.0
C585 C 0.87661 0.94139 0.64147 0.0
C586 C 0.92624 0.96722 0.64619 0.0
H587 H 0.81452 0.89547 0.66702 0.0
H588 H 0.85587 0.94253 0.61178 0.0
S589 S 1.00428 0.96785 0.74575 0.0
N590 N 0.95187 0.93362 0.75634 0.0
N591 N 0.99639 0.9847 0.69715 0.0
C592 C 0.94927 0.96266 0.6867 0.0
C593 C 0.9243 0.93416 0.71984 0.0
C594 C 0.32838 0.19774 0.19275 0.0
C595 C 0.35449 0.2345 0.22526 0.0
C596 C 0.35014 0.17556 0.16399 0.0
C597 C 0.39984 0.18884 0.1649 0.0
H598 H 0.29034 0.18576 0.18927 0.0
H599 H 0.32746 0.1481 0.14011 0.0
S600 S 0.4858 0.28295 0.24315 0.0
N601 N 0.43434 0.28245 0.25527 0.0
N602 N 0.47402 0.24195 0.20297 0.0
C603 C 0.42621 0.22539 0.19733 0.0
C604 C 0.40415 0.24762 0.22667 0.0
C605 C 0.90067 0.52922 0.22064 0.0
C606 C 0.93817 0.55748 0.25158 0.0
C607 C 0.89842 0.53884 0.17744 0.0
C608 C 0.93307 0.57733 0.16448 0.0
H609 H 0.87656 0.49622 0.22835 0.0
H610 H 0.87299 0.51334 0.1535 0.0
S611 S 1.03023 0.66845 0.23459 0.0
N612 N 1.00483 0.62985 0.2679 0.0
N613 N 0.99992 0.64883 0.18621 0.0
C614 C 0.96637 0.60941 0.19602 0.0
C615 C 0.96915 0.59924 0.23993 0.0
C616 C 0.65022 0.90843 0.14299 0.0
C617 C 0.68206 0.94428 0.17294 0.0
C618 C 0.60839 0.91137 0.12474 0.0
C619 C 0.59921 0.95155 0.13398 0.0
H620 H 0.65985 0.8809 0.12909 0.0
H621 H 0.5887 0.88684 0.09731 0.0
S622 S 0.65778 0.04197 0.22505 0.0
N623 N 0.69119 1.01059 0.22339 0.0
N624 N 0.61369 1.01781 0.18605 0.0
C625 C 0.62437 0.98149 0.17073 0.0
C626 C 0.66645 0.97802 0.19034 0.0
C627 C 0.24144 0.69531 0.18104 0.0
C628 C 0.22832 0.69326 0.22327 0.0
C629 C 0.20945 0.66901 0.14546 0.0
C630 C 0.1636 0.63916 0.15098 0.0
H631 H 0.27481 0.72058 0.17493 0.0
H632 H 0.21901 0.67553 0.11304 0.0
S633 S 0.11641 0.61425 0.25636 0.0
N634 N 0.16951 0.65415 0.26958 0.0
N635 N 0.10988 0.60383 0.20293 0.0
C636 C 0.15245 0.63267 0.19365 0.0
C637 C 0.18461 0.6602 0.22977 0.0
C638 C 0.33048 0.9509 0.91636 0.0
C639 C 0.3137 0.90255 0.91794 0.0
C640 C 0.36741 0.98029 0.94662 0.0
C641 C 0.38819 0.96179 0.97902 0.0
H642 H 0.32008 0.96529 0.88802 0.0
H643 H 0.38384 1.01627 0.94082 0.0
S644 S 0.34663 0.83998 1.00514 0.0
N645 N 0.31232 0.83943 0.96083 0.0
N646 N 0.38178 0.89453 1.01767 0.0
C647 C 0.36581 0.91496 0.98558 0.0
C648 C 0.32805 0.88523 0.95505 0.0
C649 C 1.02692 0.31807 0.96119 0.0
C650 C 0.06565 0.30631 0.97518 0.0
C651 C 1.01204 0.34619 0.98841 0.0
C652 C 1.03622 0.3642 0.03 0.0
H653 H 1.00949 0.30722 0.92833 0.0
H654 H 0.98381 0.35673 0.97556 0.0
S655 S 0.13645 0.33952 0.08335 0.0
N656 N 0.12505 0.31114 0.03456 0.0
N657 N 0.09753 0.36472 0.08545 0.0
C658 C 0.07296 0.3502 0.04533 0.0
C659 C 0.08761 0.32103 1.01793 0.0
C660 C 0.66348 0.23521 0.9098 0.0
C661 C 0.67718 0.21521 0.87361 0.0
C662 C 0.63554 0.20773 0.94007 0.0
C663 C 0.61874 0.1587 0.93521 0.0
H664 H 0.67669 0.2725 0.91628 0.0
H665 H 0.62949 0.22514 0.96882 0.0
S666 S 0.63967 0.08854 0.84401 0.0
N667 N 0.66784 0.14241 0.83381 0.0
N668 N 0.61597 0.09205 0.88912 0.0
C669 C 0.63008 0.13865 0.89788 0.0
C670 C 0.65881 0.16632 0.86767 0.0
C671 C 0.08059 0.77923 0.90494 0.0
C672 C 1.03788 0.77726 0.88296 0.0
C673 C 0.08393 0.74036 0.92332 0.0
C674 C 0.04373 0.69946 0.92223 0.0
H675 H 0.10943 0.81219 0.9127 0.0
H676 H 0.11587 0.74517 0.94424 0.0
S677 S 0.93085 0.67211 0.85254 0.0
N678 N 0.96041 0.72738 0.84821 0.0
N679 N 0.96598 0.6548 0.88457 0.0
C680 C 1.00458 0.69446 0.89243 0.0
C681 C 1.00168 0.73367 0.87261 0.0
C682 C 1.00001 0.36236 0.22422 0.0
C683 C 0.04595 0.37123 0.24345 0.0
C684 C 0.98789 0.3977 0.20695 0.0
C685 C 1.02195 0.44262 0.20709 0.0
H686 H 0.97484 0.32712 0.21846 0.0
H687 H 0.95356 0.38807 0.1885 0.0
S688 S 0.14288 0.48578 0.26509 0.0
N689 N 0.12209 0.42986 0.27087 0.0
N690 N 0.09979 0.49608 0.23738 0.0
C691 C 0.06566 0.45312 0.23217 0.0
C692 C 0.07759 0.41736 0.25056 0.0
C693 C 0.08215 0.5352 0.87698 0.0
C694 C 0.12494 0.56733 0.86735 0.0
C695 C 0.07392 0.5288 0.92004 0.0
C696 C 0.10871 0.5533 0.95427 0.0
H697 H 0.0531 0.51937 0.85154 0.0
H698 H 1.03905 0.50725 0.9267 0.0
S699 S 0.22966 0.63321 0.94651 0.0
N700 N 0.20505 0.61823 0.8957 0.0
N701 N 0.18923 0.60431 0.97664 0.0
C702 C 0.1535 0.58034 0.94521 0.0
C703 C 0.1619 0.5875 0.90147 0.0
C704 C 0.34699 0.19421 0.91525 0.0
C705 C 0.37209 0.23073 0.8911 0.0
C706 C 0.36965 0.1739 0.94571 0.0
C707 C 0.41932 0.18908 0.95533 0.0
H708 H 0.3089 0.18108 0.91091 0.0
H709 H 0.34756 0.14652 0.96293 0.0
S710 S 0.50312 0.28194 0.90049 0.0
N711 N 0.45106 0.27926 0.87836 0.0
N712 N 0.49282 0.24288 0.93593 0.0
C713 C 0.44506 0.22524 0.93118 0.0
C714 C 0.42191 0.24534 0.89931 0.0
C715 C 0.86382 0.44472 0.89917 0.0
C716 C 0.84824 0.39688 0.90425 0.0
C717 C 0.88729 0.47853 0.93435 0.0
C718 C 0.8954 0.46605 0.97638 0.0
H719 H 0.85833 0.45624 0.8676 0.0
H720 H 0.89856 0.51472 0.92867 0.0
S721 S 0.86059 0.34513 1.00718 0.0
N722 N 0.84259 0.33904 0.9548 0.0
N723 N 0.88505 0.40139 1.02052 0.0
C724 C 0.87946 0.41812 0.98177 0.0
C725 C 0.8564 0.38396 0.94591 0.0
C726 C 0.67146 0.88132 0.87909 0.0
C727 C 0.72158 0.89369 0.88536 0.0
C728 C 0.64567 0.90434 0.90294 0.0
C729 C 0.66691 0.94291 0.93549 0.0
H730 H 0.65114 0.85263 0.85535 0.0
H731 H 0.60777 0.89125 0.89537 0.0
S732 S 0.79725 0.9918 0.96636 0.0
N733 N 0.79067 0.94945 0.92881 0.0
N734 N 0.74398 0.99158 0.97136 0.0
C735 C 0.71707 0.95601 0.94182 0.0
C736 C 0.74335 0.93218 0.91786 0.0
C737 C 0.91625 0.77166 0.13746 0.0
C738 C 0.94607 0.80345 0.17122 0.0
C739 C 0.93417 0.75022 0.10652 0.0
C740 C 0.98268 0.75883 0.10843 0.0
H741 H 0.87853 0.76225 0.13568 0.0
H742 H 0.90912 0.72469 0.08222 0.0
S743 S 0.07593 0.84277 0.189 0.0
N744 N 1.02639 0.84572 0.20326 0.0
N745 N 0.0607 0.80479 0.14572 0.0
C746 C 1.01323 0.79279 0.14084 0.0
C747 C 0.99473 0.81517 0.1721 0.0
C748 C 0.36225 0.92702 0.19985 0.0
C749 C 0.38375 0.89984 0.22229 0.0
C750 C 0.38431 0.95876 0.16939 0.0
C751 C 0.4305 0.96709 0.15757 0.0
H752 H 0.32708 0.92401 0.2059 0.0
H753 H 0.3639 0.97721 0.15464 0.0
S754 S 0.50496 0.9058 0.20554 0.0
N755 N 0.45633 0.88452 0.22907 0.0
N756 N 0.49695 0.94313 0.17289 0.0
C757 C 0.45294 0.94019 0.17965 0.0
C758 C 0.43019 0.90744 0.2112 0.0
C759 C 0.70884 0.17888 0.20009 0.0
C760 C 0.73404 0.22727 0.20303 0.0
C761 C 0.67414 0.15491 0.16465 0.0
C762 C 0.6616 0.17822 0.1308 0.0
H763 H 0.71447 0.15952 0.22652 0.0
H764 H 0.6544 0.1184 0.16561 0.0
S765 S 0.71663 0.30472 0.12222 0.0
N766 N 0.7444 0.297 0.16742 0.0
N767 N 0.67885 0.25298 0.10248 0.0
C768 C 0.68765 0.22634 0.13269 0.0
C769 C 0.72374 0.25048 0.16815 0.0
C770 C 0.74621 0.71018 0.95132 0.0
C771 C 0.72495 0.71202 0.90908 0.0
C772 C 0.7219 0.67989 0.98222 0.0
C773 C 0.67393 0.64887 0.97399 0.0
H774 H 0.78246 0.73259 0.96096 0.0
H775 H 0.74126 0.68127 1.0135 0.0
S776 S 0.60008 0.63834 0.86904 0.0
N777 N 0.6511 0.67799 0.86174 0.0
N778 N 0.60675 0.62313 0.91855 0.0
C779 C 0.65219 0.65042 0.932 0.0
C780 C 0.67702 0.68097 0.90036 0.0
C781 C 0.33963 0.68616 0.90193 0.0
C782 C 0.35984 0.73476 0.89924 0.0
C783 C 0.362 0.6615 0.92831 0.0
C784 C 0.40633 0.68362 0.95403 0.0
H785 H 0.30644 0.66652 0.88258 0.0
H786 H 0.34443 0.62446 0.92802 0.0
S787 S 0.4741 0.81102 0.96087 0.0
N788 N 0.42707 0.80368 0.92673 0.0
N789 N 0.46813 0.75909 0.97497 0.0
C790 C 0.42632 0.73242 0.95194 0.0
C791 C 0.40366 0.75723 0.92516 0.0
C792 C 0.36293 0.4121 0.95399 0.0
C793 C 0.37451 0.39695 0.91462 0.0
C794 C 0.39763 0.43099 0.98982 0.0
C795 C 0.44391 0.43287 0.98763 0.0
H796 H 0.32736 0.41025 0.95673 0.0
H797 H 0.38839 0.44448 1.01911 0.0
S798 S 0.49129 0.39585 0.89294 0.0
N799 N 0.43526 0.38415 0.87639 0.0
N800 N 0.49938 0.41801 0.94382 0.0
C801 C 0.45526 0.41637 0.94911 0.0
C802 C 0.42074 0.39872 0.91255 0.0
C803 C 0.70991 0.53652 0.91187 0.0
C804 C 0.70784 0.49223 0.89748 0.0
C805 C 0.7012 0.54593 0.9544 0.0
C806 C 0.68871 0.51099 0.9828 0.0
H807 H 0.71633 0.56322 0.88976 0.0
H808 H 0.70148 0.57967 0.96396 0.0
S809 S 0.68736 0.39182 0.96194 0.0
N810 N 0.69964 0.41532 0.91608 0.0
N811 N 0.68225 0.43251 0.99533 0.0
C812 C 0.69084 0.46786 0.96956 0.0
C813 C 0.70036 0.45855 0.92689 0.0
C814 C 0.7581 0.44212 0.22672 0.0
C815 C 0.73452 0.39661 0.23854 0.0
C816 C 0.73553 0.46559 0.19894 0.0
C817 C 0.6877 0.44514 0.1801 0.0
H818 H 0.79454 0.46032 0.23959 0.0
H819 H 0.75621 0.50027 0.19199 0.0
S820 S 0.60956 0.32554 0.19824 0.0
N821 N 0.65972 0.33225 0.22723 0.0
N822 N 0.61844 0.37442 0.17595 0.0
C823 C 0.66407 0.39934 0.19135 0.0
C824 C 0.68686 0.37589 0.21998 0.0
C825 C 0.72447 0.71534 0.17976 0.0
C826 C 0.74974 0.75924 0.1671 0.0
C827 C 0.68388 0.68537 0.15475 0.0
C828 C 0.6666 0.69837 0.11634 0.0
H829 H 0.73544 0.70425 0.20992 0.0
H830 H 0.66468 0.65269 0.16683 0.0
S831 S 0.72308 0.80654 0.06544 0.0
N832 N 0.75777 0.81206 0.11093 0.0
N833 N 0.67993 0.75575 0.06411 0.0
C834 C 0.69272 0.741 0.10182 0.0
C835 C 0.73485 0.77141 0.1271 0.0
C836 C 0.38748 0.6059 0.21075 0.0
C837 C 0.42596 0.61508 0.24313 0.0
C838 C 0.39254 0.59944 0.16677 0.0
C839 C 0.43619 0.60255 0.15444 0.0
H840 H 0.35503 0.60897 0.21877 0.0
H841 H 0.36374 0.59647 0.14242 0.0
S842 S 0.54343 0.61358 0.22664 0.0
N843 N 0.50503 0.61554 0.26 0.0
N844 N 0.51591 0.60747 0.17723 0.0
C845 C 0.47291 0.60595 0.18648 0.0
C846 C 0.46722 0.61072 0.23104 0.0
C847 C 0.41973 0.44668 0.22407 0.0
C848 C 0.37048 0.41945 0.21761 0.0
C849 C 0.44462 0.4753 0.19224 0.0
C850 C 0.42236 0.47974 0.15131 0.0
H851 H 0.43988 0.4454 0.25406 0.0
H852 H 0.48211 0.49412 0.19998 0.0
S853 S 0.29371 0.41771 0.11687 0.0
N854 N 0.30105 0.4007 0.16545 0.0
N855 N 0.34607 0.45333 0.10771 0.0
C856 C 0.373 0.45329 0.14486 0.0
C857 C 0.34788 0.42386 0.17696 0.0
C858 C 0.85875 0.6846 0.72545 0.0
C859 C 0.87802 0.73222 0.74301 0.0
C860 C 0.88458 0.6613 0.70192 0.0
C861 C 0.93236 0.68328 0.69309 0.0
H862 H 0.82285 0.66441 0.73028 0.0
H863 H 0.86646 0.62512 0.69057 0.0
S864 S 0.99845 0.8097 0.72416 0.0
N865 N 0.94807 0.80083 0.74406 0.0
N866 N 0.99503 0.75898 0.7019 0.0
C867 C 0.95131 0.73123 0.70939 0.0
C868 C 0.9251 0.75476 0.73333 0.0
C869 C 0.63958 1.00647 0.7218 0.0
C870 C 0.61501 0.9592 0.72501 0.0
C871 C 0.64736 1.02259 0.6811 0.0
C872 C 0.63266 0.99149 0.64351 0.0
H873 H 0.64486 0.0315 0.74937 0.0
H874 H 0.65892 0.05951 0.67859 0.0
S875 S 0.58557 0.86398 0.63741 0.0
N876 N 0.58979 0.88103 0.68949 0.0
N877 N 0.60571 0.91173 0.61282 0.0
C878 C 0.61793 0.94408 0.64749 0.0
C879 C 0.60952 0.92765 0.68883 0.0
C880 C 0.25228 0.42679 0.71874 0.0
C881 C 0.22884 0.38387 0.73518 0.0
C882 C 0.22864 0.44804 0.69005 0.0
C883 C 0.17983 0.42761 0.67465 0.0
H884 H 0.28972 0.44444 0.72804 0.0
H885 H 0.24951 0.48066 0.67894 0.0
S886 S 0.10081 0.31487 0.70658 0.0
N887 N 0.15246 0.32205 0.7331 0.0
N888 N 0.10922 0.36065 0.6793 0.0
C889 C 0.15588 0.38467 0.69087 0.0
C890 C 0.17982 0.3634 0.72077 0.0
C891 C 0.72736 0.22994 0.63592 0.0
C892 C 0.74508 0.21241 0.67135 0.0
C893 C 0.71687 0.20681 0.59369 0.0
C894 C 0.72285 0.16432 0.58436 0.0
H895 H 0.72264 0.26266 0.64055 0.0
H896 H 0.7042 0.22293 0.56796 0.0
S897 S 0.76654 0.1025 0.66623 0.0
N898 N 0.76732 0.14932 0.6945 0.0
N899 N 0.74711 0.10551 0.61561 0.0
C900 C 0.74006 0.14608 0.61976 0.0
C901 C 0.75127 0.17009 0.66287 0.0
C902 C 0.8847 0.44345 0.44028 0.0
C903 C 0.85946 0.39535 0.43952 0.0
C904 C 0.92145 0.46805 0.47364 0.0
C905 C 0.93554 0.44554 0.50726 0.0
H906 H 0.87716 0.46208 0.41402 0.0
H907 H 0.94106 0.50433 0.47137 0.0
S908 S 0.87905 0.32093 0.52272 0.0
N909 N 0.84943 0.32718 0.47798 0.0
N910 N 0.91881 0.37274 0.53917 0.0
C911 C 0.90908 0.39801 0.50805 0.0
C912 C 0.87112 0.37318 0.47469 0.0
C913 C 0.7487 0.86473 0.35458 0.0
C914 C 0.77459 0.88786 0.32221 0.0
C915 C 0.72489 0.88573 0.38004 0.0
C916 C 0.72706 0.93115 0.37493 0.0
H917 H 0.7469 0.8302 0.3604 0.0
H918 H 0.70591 0.8667 0.40497 0.0
S919 S 0.79112 1.00718 0.29555 0.0
N920 N 0.80102 0.9589 0.28649 0.0
N921 N 0.75737 0.99856 0.3352 0.0
C922 C 0.75287 0.95469 0.34277 0.0
C923 C 0.77627 0.93298 0.31617 0.0
C924 C 0.22584 0.67092 0.42038 0.0
C925 C 0.21797 0.71173 0.41079 0.0
C926 C 0.20206 0.64108 0.45135 0.0
C927 C 0.1677 0.64866 0.47578 0.0
H928 H 0.2515 0.66184 0.40407 0.0
H929 H 0.21151 0.61127 0.45646 0.0
S930 S 0.13214 0.75027 0.46431 0.0
N931 N 0.17133 0.75738 0.42946 0.0
N932 N 0.12772 0.7022 0.48673 0.0
C933 C 0.15865 0.68899 0.46614 0.0
C934 C 0.18321 0.71984 0.43438 0.0
C935 C 0.48274 0.18089 0.40375 0.0
C936 C 0.44375 0.18283 0.42276 0.0
C937 C 0.50514 0.15151 0.41692 0.0
C938 C 0.4891 0.12275 0.44972 0.0
H939 H 0.49868 0.20562 0.38151 0.0
H940 H 0.53796 0.15475 0.40452 0.0
S941 S 0.38031 0.10568 0.5015 0.0
N942 N 0.38394 0.14711 0.46947 0.0
N943 N 0.42612 0.09093 0.49493 0.0
C944 C 0.44621 0.11957 0.46492 0.0
C945 C 0.42358 0.15016 0.45151 0.0
C946 C 0.72325 0.8974 0.62441 0.0
C947 C 0.73538 0.86482 0.59993 0.0
C948 C 0.72776 0.93977 0.60917 0.0
C949 C 0.74439 0.95049 0.56914 0.0
H950 H 0.70651 0.88849 0.65366 0.0
H951 H 0.71251 0.96146 0.62581 0.0
S952 S 0.79354 0.88282 0.49972 0.0
N953 N 0.77443 0.85009 0.53929 0.0
N954 N 0.78308 0.93059 0.51043 0.0
C955 C 0.76407 0.92175 0.54835 0.0
C956 C 0.75907 0.87819 0.56363 0.0
C957 C 0.63304 0.13323 0.30967 0.0
C958 C 0.58428 0.12533 0.30267 0.0
C959 C 0.65238 0.11948 0.34651 0.0
C960 C 0.62378 0.09636 0.37714 0.0
H961 H 0.65759 0.15469 0.28962 0.0
H962 H 0.69028 0.12972 0.35235 0.0
S963 S 0.49292 0.04855 0.36305 0.0
N964 N 0.50719 0.07864 0.32101 0.0
N965 N 0.54325 0.05389 0.39112 0.0
C966 C 0.57456 0.08097 0.3664 0.0
C967 C 0.55492 0.09427 0.32841 0.0
C968 C 0.99918 0.71598 0.44148 0.0
C969 C 0.98726 0.68126 0.40663 0.0
C970 C 1.01304 0.70773 0.4833 0.0
C971 C 1.01539 0.66471 0.49086 0.0
H972 H 0.99284 0.74766 0.4374 0.0
H973 H 1.01779 0.73338 0.51018 0.0
S974 S 1.00035 0.56794 0.40855 0.0
N975 N 0.98763 0.60644 0.38077 0.0
N976 N 1.01441 0.59089 0.45953 0.0
C977 C 1.00956 0.63222 0.45544 0.0
C978 C 0.99542 0.6406 0.41304 0.0
C979 C 0.40166 0.91537 0.45109 0.0
C980 C 0.39535 0.90923 0.40523 0.0
C981 C 0.44708 0.93455 0.47457 0.0
C982 C 0.48739 0.94603 0.45275 0.0
H983 H 0.37143 0.90277 0.4689 0.0
H984 H 0.45063 0.93715 0.50972 0.0
S985 S 0.48996 0.93649 0.3334 0.0
N986 N 0.43349 0.91881 0.3395 0.0
N987 N 0.51806 0.95063 0.383 0.0
C988 C 0.48133 0.94134 0.40706 0.0
C989 C 0.43551 0.92404 0.38343 0.0
C990 C 0.18848 0.38124 0.40048 0.0
C991 C 0.23763 0.39743 0.39754 0.0
C992 C 0.16801 0.4005 0.43248 0.0
C993 C 0.19491 0.4379 0.46396 0.0
H994 H 0.16518 0.3525 0.37817 0.0
H995 H 0.13022 0.38548 0.43247 0.0
S996 S 0.32528 0.49515 0.47096 0.0
N997 N 0.31252 0.45471 0.43001 0.0
N998 N 0.27468 0.49066 0.4885 0.0
C999 C 0.24406 0.45501 0.46096 0.0
C1000 C 0.26501 0.43504 0.42858 0.0
C1001 C 0.48706 0.19025 0.67453 0.0
C1002 C 0.51464 0.23719 0.68639 0.0
C1003 C 0.50514 0.16097 0.6526 0.0
C1004 C 0.55134 0.17778 0.64133 0.0
H1005 H 0.45055 0.17657 0.68059 0.0
H1006 H 0.48172 0.12579 0.64202 0.0
S1007 S 0.63941 0.29686 0.66963 0.0
N1008 N 0.59141 0.29822 0.68883 0.0
N1009 N 0.62581 0.24334 0.64805 0.0
C1010 C 0.58028 0.22389 0.65594 0.0
C1011 C 0.56183 0.25359 0.67836 0.0
C1012 C 0.90914 0.43448 0.74048 0.0
C1013 C 0.90172 0.38702 0.73473 0.0
C1014 C 0.94163 0.46775 0.71841 0.0
C1015 C 0.96866 0.45603 0.6884 0.0
H1016 H 0.88846 0.44616 0.76153 0.0
H1017 H 0.94363 0.50319 0.7232 0.0
S1018 S 0.96527 0.33679 0.66259 0.0
N1019 N 0.92709 0.33032 0.6984 0.0
N1020 N 0.98677 0.39257 0.65586 0.0
C1021 C 0.9635 0.40894 0.68374 0.0
C1022 C 0.93053 0.37472 0.707 0.0
C1023 C 0.26958 0.73861 0.66976 0.0
C1024 C 0.29047 0.72421 0.70529 0.0
C1025 C 0.22965 0.70732 0.64418 0.0
C1026 C 0.20991 0.6608 0.65314 0.0
H1027 H 0.27996 0.77503 0.66518 0.0
H1028 H 0.21119 0.72072 0.62031 0.0
S1029 S 0.2609 0.6036 0.73355 0.0
N1030 N 0.29585 0.6587 0.74141 0.0
N1031 N 0.22054 0.59985 0.69304 0.0
C1032 C 0.23519 0.64456 0.68361 0.0
C1033 C 0.27581 0.67645 0.7098 0.0
loop_
_geom_bond_atom_site_label_1
_geom_bond_atom_site_label_2
_geom_bond_distance
_geom_bond_site_symmetry_2
_ccdc_geom_bond_type
Dy0 O3 2.307 . S
Dy0 O5 2.395 . S
Dy0 O6 2.379 . S
Dy0 O8 2.339 . S
Dy0 O10 2.298 . S
Dy0 O14 2.275 . S
Dy0 C22 2.738 . S
Dy1 O4 2.298 . S
Dy1 O7 2.275 . S
Dy1 O9 2.307 . S
Dy1 O11 2.395 . S
Dy1 O12 2.379 . S
Dy1 O15 2.339 . S
Dy1 C31 2.738 . S
C2 O14 1.254 . S
C2 O15 1.257 . S
O3 Dy0 2.307 . S
O3 C13 1.266 . S
O4 Dy1 2.298 . S
O4 C13 1.236 . S
O5 Dy0 2.395 . S
O5 C22 1.255 . S
O6 Dy0 2.379 . S
O6 C22 1.249 . S
O7 Dy1 2.275 . S
O7 C23 1.254 . S
O8 Dy0 2.339 . S
O8 C23 1.257 . S
O9 Dy1 2.307 . S
O9 C24 1.266 . S
O10 Dy0 2.298 . S
O10 C24 1.236 . S
O11 Dy1 2.395 . S
O11 C31 1.255 . S
O12 Dy1 2.379 . S
O12 C31 1.249 . S
C13 O3 1.266 . S
C13 O4 1.236 . S
O14 Dy0 2.275 . S
O14 C2 1.254 . S
O15 Dy1 2.339 . S
O15 C2 1.257 . S
C16 C19 1.344 . S
C16 C20 1.328 . S
C16 C22 1.516 . S
C17 C18 1.304 . S
C17 C21 1.323 . S
C18 C17 1.304 . S
C18 C19 1.371 . S
C18 H32 0.930 . S
C19 C16 1.344 . S
C19 C18 1.371 . S
C19 H33 0.931 . S
C20 C16 1.328 . S
C20 C21 1.433 . S
C20 H34 0.931 . S
C21 C17 1.323 . S
C21 C20 1.433 . S
C21 H35 0.933 . S
C22 Dy0 2.738 . S
C22 O5 1.255 . S
C22 O6 1.249 . S
C22 C16 1.516 . S
C23 O7 1.254 . S
C23 O8 1.257 . S
C24 O9 1.266 . S
C24 O10 1.236 . S
C25 C28 1.344 . S
C25 C29 1.328 . S
C25 C31 1.516 . S
C26 C27 1.304 . S
C26 C30 1.323 . S
C27 C26 1.304 . S
C27 C28 1.371 . S
C27 H36 0.930 . S
C28 C25 1.344 . S
C28 C27 1.371 . S
C28 H37 0.931 . S
C29 C25 1.328 . S
C29 C30 1.433 . S
C29 H38 0.931 . S
C30 C26 1.323 . S
C30 C29 1.433 . S
C30 H39 0.933 . S
C31 Dy1 2.738 . S
C31 O11 1.255 . S
C31 O12 1.249 . S
C31 C25 1.516 . S
H32 C18 0.930 . S
H33 C19 0.931 . S
H34 C20 0.931 . S
H35 C21 0.933 . S
H36 C27 0.930 . S
H37 C28 0.931 . S
H38 C29 0.931 . S
H39 C30 0.933 . S
Dy40 O43 2.307 . S
Dy40 O45 2.395 . S
Dy40 O46 2.379 . S
Dy40 O48 2.339 . S
Dy40 O50 2.298 . S
Dy40 O54 2.275 . S
Dy40 C62 2.738 . S
Dy41 O44 2.298 . S
Dy41 O47 2.275 . S
Dy41 O49 2.307 . S
Dy41 O51 2.395 . S
Dy41 O52 2.379 . S
Dy41 O55 2.339 . S
Dy41 C71 2.738 . S
C42 O54 1.254 . S
C42 O55 1.257 . S
O43 Dy40 2.307 . S
O43 C53 1.266 . S
O44 Dy41 2.298 . S
O44 C53 1.236 . S
O45 Dy40 2.395 . S
O45 C62 1.255 . S
O46 Dy40 2.379 . S
O46 C62 1.249 . S
O47 Dy41 2.275 . S
O47 C63 1.254 . S
O48 Dy40 2.339 . S
O48 C63 1.257 . S
O49 Dy41 2.307 . S
O49 C64 1.266 . S
O50 Dy40 2.298 . S
O50 C64 1.236 . S
O51 Dy41 2.395 . S
O51 C71 1.255 . S
O52 Dy41 2.379 . S
O52 C71 1.249 . S
C53 O43 1.266 . S
C53 O44 1.236 . S
O54 Dy40 2.275 . S
O54 C42 1.254 . S
O55 Dy41 2.339 . S
O55 C42 1.257 . S
C56 C59 1.344 . S
C56 C60 1.328 . S
C56 C62 1.516 . S
C57 C58 1.304 . S
C57 C61 1.323 . S
C58 C57 1.304 . S
C58 C59 1.371 . S
C58 H72 0.930 . S
C59 C56 1.344 . S
C59 C58 1.371 . S
C59 H73 0.931 . S
C60 C56 1.328 . S
C60 C61 1.433 . S
C60 H74 0.931 . S
C61 C57 1.323 . S
C61 C60 1.433 . S
C61 H75 0.933 . S
C62 Dy40 2.738 . S
C62 O45 1.255 . S
C62 O46 1.249 . S
C62 C56 1.516 . S
C63 O47 1.254 . S
C63 O48 1.257 . S
C64 O49 1.266 . S
C64 O50 1.236 . S
C65 C68 1.344 . S
C65 C69 1.328 . S
C65 C71 1.516 . S
C66 C67 1.304 . S
C66 C70 1.323 . S
C67 C66 1.304 . S
C67 C68 1.371 . S
C67 H76 0.930 . S
C68 C65 1.344 . S
C68 C67 1.371 . S
C68 H77 0.931 . S
C69 C65 1.328 . S
C69 C70 1.433 . S
C69 H78 0.931 . S
C70 C66 1.323 . S
C70 C69 1.433 . S
C70 H79 0.933 . S
C71 Dy41 2.738 . S
C71 O51 1.255 . S
C71 O52 1.249 . S
C71 C65 1.516 . S
H72 C58 0.930 . S
H73 C59 0.931 . S
H74 C60 0.931 . S
H75 C61 0.933 . S
H76 C67 0.930 . S
H77 C68 0.931 . S
H78 C69 0.931 . S
H79 C70 0.933 . S
Dy80 O83 2.307 . S
Dy80 O85 2.395 . S
Dy80 O86 2.379 . S
Dy80 O88 2.339 . S
Dy80 O90 2.298 . S
Dy80 O94 2.275 . S
Dy80 C102 2.738 . S
Dy81 O84 2.298 . S
Dy81 O87 2.275 . S
Dy81 O89 2.307 . S
Dy81 O91 2.395 . S
Dy81 O92 2.379 . S
Dy81 O95 2.339 . S
Dy81 C111 2.738 . S
C82 O94 1.254 . S
C82 O95 1.257 . S
O83 Dy80 2.307 . S
O83 C93 1.266 . S
O84 Dy81 2.298 . S
O84 C93 1.236 . S
O85 Dy80 2.395 . S
O85 C102 1.255 . S
O86 Dy80 2.379 . S
O86 C102 1.249 . S
O87 Dy81 2.275 . S
O87 C103 1.254 . S
O88 Dy80 2.339 . S
O88 C103 1.257 . S
O89 Dy81 2.307 . S
O89 C104 1.266 . S
O90 Dy80 2.298 . S
O90 C104 1.236 . S
O91 Dy81 2.395 . S
O91 C111 1.255 . S
O92 Dy81 2.379 . S
O92 C111 1.249 . S
C93 O83 1.266 . S
C93 O84 1.236 . S
O94 Dy80 2.275 . S
O94 C82 1.254 . S
O95 Dy81 2.339 . S
O95 C82 1.257 . S
C96 C99 1.344 . S
C96 C100 1.328 . S
C96 C102 1.516 . S
C97 C98 1.304 . S
C97 C101 1.323 . S
C98 C97 1.304 . S
C98 C99 1.371 . S
C98 H112 0.930 . S
C99 C96 1.344 . S
C99 C98 1.371 . S
C99 H113 0.931 . S
C100 C96 1.328 . S
C100 C101 1.433 . S
C100 H114 0.931 . S
C101 C97 1.323 . S
C101 C100 1.433 . S
C101 H115 0.933 . S
C102 Dy80 2.738 . S
C102 O85 1.255 . S
C102 O86 1.249 . S
C102 C96 1.516 . S
C103 O87 1.254 . S
C103 O88 1.257 . S
C104 O89 1.266 . S
C104 O90 1.236 . S
C105 C108 1.344 . S
C105 C109 1.328 . S
C105 C111 1.516 . S
C106 C107 1.304 . S
C106 C110 1.323 . S
C107 C106 1.304 . S
C107 C108 1.371 . S
C107 H116 0.930 . S
C108 C105 1.344 . S
C108 C107 1.371 . S
C108 H117 0.931 . S
C109 C105 1.328 . S
C109 C110 1.433 . S
C109 H118 0.931 . S
C110 C106 1.323 . S
C110 C109 1.433 . S
C110 H119 0.933 . S
C111 Dy81 2.738 . S
C111 O91 1.255 . S
C111 O92 1.249 . S
C111 C105 1.516 . S
H112 C98 0.930 . S
H113 C99 0.931 . S
H114 C100 0.931 . S
H115 C101 0.933 . S
H116 C107 0.930 . S
H117 C108 0.931 . S
H118 C109 0.931 . S
H119 C110 0.933 . S
Dy120 O123 2.307 . S
Dy120 O125 2.395 . S
Dy120 O126 2.379 . S
Dy120 O128 2.339 . S
Dy120 O130 2.298 . S
Dy120 O134 2.275 . S
Dy120 C142 2.738 . S
Dy121 O124 2.298 . S
Dy121 O127 2.275 . S
Dy121 O129 2.307 . S
Dy121 O131 2.395 . S
Dy121 O132 2.379 . S
Dy121 O135 2.339 . S
Dy121 C151 2.738 . S
C122 O134 1.254 . S
C122 O135 1.257 . S
O123 Dy120 2.307 . S
O123 C133 1.266 . S
O124 Dy121 2.298 . S
O124 C133 1.236 . S
O125 Dy120 2.395 . S
O125 C142 1.255 . S
O126 Dy120 2.379 . S
O126 C142 1.249 . S
O127 Dy121 2.275 . S
O127 C143 1.254 . S
O128 Dy120 2.339 . S
O128 C143 1.257 . S
O129 Dy121 2.307 . S
O129 C144 1.266 . S
O130 Dy120 2.298 . S
O130 C144 1.236 . S
O131 Dy121 2.395 . S
O131 C151 1.255 . S
O132 Dy121 2.379 . S
O132 C151 1.249 . S
C133 O123 1.266 . S
C133 O124 1.236 . S
O134 Dy120 2.275 . S
O134 C122 1.254 . S
O135 Dy121 2.339 . S
O135 C122 1.257 . S
C136 C139 1.344 . S
C136 C140 1.328 . S
C136 C142 1.516 . S
C137 C138 1.304 . S
C137 C141 1.323 . S
C138 C137 1.304 . S
C138 C139 1.371 . S
C138 H152 0.930 . S
C139 C136 1.344 . S
C139 C138 1.371 . S
C139 H153 0.931 . S
C140 C136 1.328 . S
C140 C141 1.433 . S
C140 H154 0.931 . S
C141 C137 1.323 . S
C141 C140 1.433 . S
C141 H155 0.933 . S
C142 Dy120 2.738 . S
C142 O125 1.255 . S
C142 O126 1.249 . S
C142 C136 1.516 . S
C143 O127 1.254 . S
C143 O128 1.257 . S
C144 O129 1.266 . S
C144 O130 1.236 . S
C145 C148 1.344 . S
C145 C149 1.328 . S
C145 C151 1.516 . S
C146 C147 1.304 . S
C146 C150 1.323 . S
C147 C146 1.304 . S
C147 C148 1.371 . S
C147 H156 0.930 . S
C148 C145 1.344 . S
C148 C147 1.371 . S
C148 H157 0.931 . S
C149 C145 1.328 . S
C149 C150 1.433 . S
C149 H158 0.931 . S
C150 C146 1.323 . S
C150 C149 1.433 . S
C150 H159 0.933 . S
C151 Dy121 2.738 . S
C151 O131 1.255 . S
C151 O132 1.249 . S
C151 C145 1.516 . S
H152 C138 0.930 . S
H153 C139 0.931 . S
H154 C140 0.931 . S
H155 C141 0.933 . S
H156 C147 0.930 . S
H157 C148 0.931 . S
H158 C149 0.931 . S
H159 C150 0.933 . S
Dy160 O163 2.307 . S
Dy160 O165 2.395 . S
Dy160 O166 2.379 . S
Dy160 O168 2.339 . S
Dy160 O170 2.298 . S
Dy160 O174 2.275 . S
Dy160 C182 2.738 . S
Dy161 O164 2.298 . S
Dy161 O167 2.275 . S
Dy161 O169 2.307 . S
Dy161 O171 2.395 . S
Dy161 O172 2.379 . S
Dy161 O175 2.339 . S
Dy161 C191 2.738 . S
C162 O174 1.254 . S
C162 O175 1.257 . S
O163 Dy160 2.307 . S
O163 C173 1.266 . S
O164 Dy161 2.298 . S
O164 C173 1.236 . S
O165 Dy160 2.395 . S
O165 C182 1.255 . S
O166 Dy160 2.379 . S
O166 C182 1.249 . S
O167 Dy161 2.275 . S
O167 C183 1.254 . S
O168 Dy160 2.339 . S
O168 C183 1.257 . S
O169 Dy161 2.307 . S
O169 C184 1.266 . S
O170 Dy160 2.298 . S
O170 C184 1.236 . S
O171 Dy161 2.395 . S
O171 C191 1.255 . S
O172 Dy161 2.379 . S
O172 C191 1.249 . S
C173 O163 1.266 . S
C173 O164 1.236 . S
O174 Dy160 2.275 . S
O174 C162 1.254 . S
O175 Dy161 2.339 . S
O175 C162 1.257 . S
C176 C179 1.344 . S
C176 C180 1.328 . S
C176 C182 1.516 . S
C177 C178 1.304 . S
C177 C181 1.323 . S
C178 C177 1.304 . S
C178 C179 1.371 . S
C178 H192 0.930 . S
C179 C176 1.344 . S
C179 C178 1.371 . S
C179 H193 0.931 . S
C180 C176 1.328 . S
C180 C181 1.433 . S
C180 H194 0.931 . S
C181 C177 1.323 . S
C181 C180 1.433 . S
C181 H195 0.933 . S
C182 Dy160 2.738 . S
C182 O165 1.255 . S
C182 O166 1.249 . S
C182 C176 1.516 . S
C183 O167 1.254 . S
C183 O168 1.257 . S
C184 O169 1.266 . S
C184 O170 1.236 . S
C185 C188 1.344 . S
C185 C189 1.328 . S
C185 C191 1.516 . S
C186 C187 1.304 . S
C186 C190 1.323 . S
C187 C186 1.304 . S
C187 C188 1.371 . S
C187 H196 0.930 . S
C188 C185 1.344 . S
C188 C187 1.371 . S
C188 H197 0.931 . S
C189 C185 1.328 . S
C189 C190 1.433 . S
C189 H198 0.931 . S
C190 C186 1.323 . S
C190 C189 1.433 . S
C190 H199 0.933 . S
C191 Dy161 2.738 . S
C191 O171 1.255 . S
C191 O172 1.249 . S
C191 C185 1.516 . S
H192 C178 0.930 . S
H193 C179 0.931 . S
H194 C180 0.931 . S
H195 C181 0.933 . S
H196 C187 0.930 . S
H197 C188 0.931 . S
H198 C189 0.931 . S
H199 C190 0.933 . S
Dy200 O203 2.307 . S
Dy200 O205 2.395 . S
Dy200 O206 2.379 . S
Dy200 O208 2.339 . S
Dy200 O210 2.298 . S
Dy200 O214 2.275 . S
Dy200 C222 2.738 . S
Dy201 O204 2.298 . S
Dy201 O207 2.275 . S
Dy201 O209 2.307 . S
Dy201 O211 2.395 . S
Dy201 O212 2.379 . S
Dy201 O215 2.339 . S
Dy201 C231 2.738 . S
C202 O214 1.254 . S
C202 O215 1.257 . S
O203 Dy200 2.307 . S
O203 C213 1.266 . S
O204 Dy201 2.298 . S
O204 C213 1.236 . S
O205 Dy200 2.395 . S
O205 C222 1.255 . S
O206 Dy200 2.379 . S
O206 C222 1.249 . S
O207 Dy201 2.275 . S
O207 C223 1.254 . S
O208 Dy200 2.339 . S
O208 C223 1.257 . S
O209 Dy201 2.307 . S
O209 C224 1.266 . S
O210 Dy200 2.298 . S
O210 C224 1.236 . S
O211 Dy201 2.395 . S
O211 C231 1.255 . S
O212 Dy201 2.379 . S
O212 C231 1.249 . S
C213 O203 1.266 . S
C213 O204 1.236 . S
O214 Dy200 2.275 . S
O214 C202 1.254 . S
O215 Dy201 2.339 . S
O215 C202 1.257 . S
C216 C219 1.344 . S
C216 C220 1.328 . S
C216 C222 1.516 . S
C217 C218 1.304 . S
C217 C221 1.323 . S
C218 C217 1.304 . S
C218 C219 1.371 . S
C218 H232 0.930 . S
C219 C216 1.344 . S
C219 C218 1.371 . S
C219 H233 0.931 . S
C220 C216 1.328 . S
C220 C221 1.433 . S
C220 H234 0.931 . S
C221 C217 1.323 . S
C221 C220 1.433 . S
C221 H235 0.933 . S
C222 Dy200 2.738 . S
C222 O205 1.255 . S
C222 O206 1.249 . S
C222 C216 1.516 . S
C223 O207 1.254 . S
C223 O208 1.257 . S
C224 O209 1.266 . S
C224 O210 1.236 . S
C225 C228 1.344 . S
C225 C229 1.328 . S
C225 C231 1.516 . S
C226 C227 1.304 . S
C226 C230 1.323 . S
C227 C226 1.304 . S
C227 C228 1.371 . S
C227 H236 0.930 . S
C228 C225 1.344 . S
C228 C227 1.371 . S
C228 H237 0.931 . S
C229 C225 1.328 . S
C229 C230 1.433 . S
C229 H238 0.931 . S
C230 C226 1.323 . S
C230 C229 1.433 . S
C230 H239 0.933 . S
C231 Dy201 2.738 . S
C231 O211 1.255 . S
C231 O212 1.249 . S
C231 C225 1.516 . S
H232 C218 0.930 . S
H233 C219 0.931 . S
H234 C220 0.931 . S
H235 C221 0.933 . S
H236 C227 0.930 . S
H237 C228 0.931 . S
H238 C229 0.931 . S
H239 C230 0.933 . S
Dy240 O243 2.307 . S
Dy240 O245 2.395 . S
Dy240 O246 2.379 . S
Dy240 O248 2.339 . S
Dy240 O250 2.298 . S
Dy240 O254 2.275 . S
Dy240 C262 2.738 . S
Dy241 O244 2.298 . S
Dy241 O247 2.275 . S
Dy241 O249 2.307 . S
Dy241 O251 2.395 . S
Dy241 O252 2.379 . S
Dy241 O255 2.339 . S
Dy241 C271 2.738 . S
C242 O254 1.254 . S
C242 O255 1.257 . S
O243 Dy240 2.307 . S
O243 C253 1.266 . S
O244 Dy241 2.298 . S
O244 C253 1.236 . S
O245 Dy240 2.395 . S
O245 C262 1.255 . S
O246 Dy240 2.379 . S
O246 C262 1.249 . S
O247 Dy241 2.275 . S
O247 C263 1.254 . S
O248 Dy240 2.339 . S
O248 C263 1.257 . S
O249 Dy241 2.307 . S
O249 C264 1.266 . S
O250 Dy240 2.298 . S
O250 C264 1.236 . S
O251 Dy241 2.395 . S
O251 C271 1.255 . S
O252 Dy241 2.379 . S
O252 C271 1.249 . S
C253 O243 1.266 . S
C253 O244 1.236 . S
O254 Dy240 2.275 . S
O254 C242 1.254 . S
O255 Dy241 2.339 . S
O255 C242 1.257 . S
C256 C259 1.344 . S
C256 C260 1.328 . S
C256 C262 1.516 . S
C257 C258 1.304 . S
C257 C261 1.323 . S
C258 C257 1.304 . S
C258 C259 1.371 . S
C258 H272 0.930 . S
C259 C256 1.344 . S
C259 C258 1.371 . S
C259 H273 0.931 . S
C260 C256 1.328 . S
C260 C261 1.433 . S
C260 H274 0.931 . S
C261 C257 1.323 . S
C261 C260 1.433 . S
C261 H275 0.933 . S
C262 Dy240 2.738 . S
C262 O245 1.255 . S
C262 O246 1.249 . S
C262 C256 1.516 . S
C263 O247 1.254 . S
C263 O248 1.257 . S
C264 O249 1.266 . S
C264 O250 1.236 . S
C265 C268 1.344 . S
C265 C269 1.328 . S
C265 C271 1.516 . S
C266 C267 1.304 . S
C266 C270 1.323 . S
C267 C266 1.304 . S
C267 C268 1.371 . S
C267 H276 0.930 . S
C268 C265 1.344 . S
C268 C267 1.371 . S
C268 H277 0.931 . S
C269 C265 1.328 . S
C269 C270 1.433 . S
C269 H278 0.931 . S
C270 C266 1.323 . S
C270 C269 1.433 . S
C270 H279 0.933 . S
C271 Dy241 2.738 . S
C271 O251 1.255 . S
C271 O252 1.249 . S
C271 C265 1.516 . S
H272 C258 0.930 . S
H273 C259 0.931 . S
H274 C260 0.931 . S
H275 C261 0.933 . S
H276 C267 0.930 . S
H277 C268 0.931 . S
H278 C269 0.931 . S
H279 C270 0.933 . S
Dy280 O283 2.307 . S
Dy280 O285 2.395 . S
Dy280 O286 2.379 . S
Dy280 O288 2.339 . S
Dy280 O290 2.298 . S
Dy280 O294 2.275 . S
Dy280 C302 2.738 . S
Dy281 O284 2.298 . S
Dy281 O287 2.275 . S
Dy281 O289 2.307 . S
Dy281 O291 2.395 . S
Dy281 O292 2.379 . S
Dy281 O295 2.339 . S
Dy281 C311 2.738 . S
C282 O294 1.254 . S
C282 O295 1.257 . S
O283 Dy280 2.307 . S
O283 C293 1.266 . S
O284 Dy281 2.298 . S
O284 C293 1.236 . S
O285 Dy280 2.395 . S
O285 C302 1.255 . S
O286 Dy280 2.379 . S
O286 C302 1.249 . S
O287 Dy281 2.275 . S
O287 C303 1.254 . S
O288 Dy280 2.339 . S
O288 C303 1.257 . S
O289 Dy281 2.307 . S
O289 C304 1.266 . S
O290 Dy280 2.298 . S
O290 C304 1.236 . S
O291 Dy281 2.395 . S
O291 C311 1.255 . S
O292 Dy281 2.379 . S
O292 C311 1.249 . S
C293 O283 1.266 . S
C293 O284 1.236 . S
O294 Dy280 2.275 . S
O294 C282 1.254 . S
O295 Dy281 2.339 . S
O295 C282 1.257 . S
C296 C299 1.344 . S
C296 C300 1.328 . S
C296 C302 1.516 . S
C297 C298 1.304 . S
C297 C301 1.323 . S
C298 C297 1.304 . S
C298 C299 1.371 . S
C298 H312 0.930 . S
C299 C296 1.344 . S
C299 C298 1.371 . S
C299 H313 0.931 . S
C300 C296 1.328 . S
C300 C301 1.433 . S
C300 H314 0.931 . S
C301 C297 1.323 . S
C301 C300 1.433 . S
C301 H315 0.933 1_556 S
C302 Dy280 2.738 . S
C302 O285 1.255 . S
C302 O286 1.249 . S
C302 C296 1.516 . S
C303 O287 1.254 . S
C303 O288 1.257 . S
C304 O289 1.266 . S
C304 O290 1.236 . S
C305 C308 1.344 . S
C305 C309 1.328 . S
C305 C311 1.516 . S
C306 C307 1.304 . S
C306 C310 1.323 . S
C307 C306 1.304 . S
C307 C308 1.371 . S
C307 H316 0.930 . S
C308 C305 1.344 . S
C308 C307 1.371 . S
C308 H317 0.931 . S
C309 C305 1.328 . S
C309 C310 1.433 . S
C309 H318 0.931 . S
C310 C306 1.323 . S
C310 C309 1.433 . S
C310 H319 0.933 . S
C311 Dy281 2.738 . S
C311 O291 1.255 . S
C311 O292 1.249 . S
C311 C305 1.516 . S
H312 C298 0.930 . S
H313 C299 0.931 . S
H314 C300 0.931 . S
H315 C301 0.933 1_554 S
H316 C307 0.930 . S
H317 C308 0.931 . S
H318 C309 0.931 . S
H319 C310 0.933 . S
C320 O332 1.241 . S
C320 O333 1.280 . S
C321 O334 1.277 . S
C321 O335 1.245 . S
C322 O346 1.247 . S
C322 O348 1.289 . S
Mg323 O324 1.926 1_455 S
Mg323 O333 1.984 1_455 S
Mg323 O335 1.988 1_455 S
Mg323 O336 2.061 . S
O324 Mg323 1.926 1_655 S
O324 Mg325 1.986 . S
O324 Mg326 1.917 1_655 S
Mg325 O324 1.986 . S
Mg325 O332 2.042 . S
Mg325 O334 2.041 . S
Mg325 O340 2.038 1_545 S
Mg325 O348 2.238 1_545 S
Mg326 O324 1.917 1_455 S
Mg326 O327 1.917 1_545 S
Mg326 O337 2.106 . S
Mg326 O339 2.079 1_445 S
Mg326 O348 2.106 1_445 S
Mg326 O349 2.079 . S
O327 Mg326 1.917 1_565 S
O327 Mg328 1.926 . S
O327 Mg329 1.986 1_565 S
Mg328 O327 1.926 . S
Mg328 O342 1.984 . S
Mg328 O345 1.988 . S
Mg328 O346 2.061 1_455 S
Mg329 O327 1.986 1_545 S
Mg329 O337 2.238 . S
Mg329 O341 2.042 1_545 S
Mg329 O343 2.041 1_545 S
Mg329 O350 2.038 . S
C330 O336 1.247 . S
C330 O337 1.289 . S
C331 O349 1.245 . S
C331 O350 1.274 . S
O332 C320 1.241 . S
O332 Mg325 2.042 . S
O333 C320 1.280 . S
O333 Mg323 1.984 1_655 S
O334 C321 1.277 . S
O334 Mg325 2.041 . S
O335 C321 1.245 . S
O335 Mg323 1.988 1_655 S
O336 Mg323 2.061 . S
O336 C330 1.247 . S
O337 Mg326 2.106 . S
O337 Mg329 2.238 . S
O337 C330 1.289 . S
C338 O339 1.245 . S
C338 O340 1.274 . S
O339 Mg326 2.079 1_665 S
O339 C338 1.245 . S
O340 Mg325 2.038 1_565 S
O340 C338 1.274 . S
O341 Mg329 2.042 1_565 S
O341 C344 1.241 . S
O342 Mg328 1.984 . S
O342 C344 1.280 . S
O343 Mg329 2.041 1_565 S
O343 C347 1.277 . S
C344 O341 1.241 . S
C344 O342 1.280 . S
O345 Mg328 1.988 . S
O345 C347 1.245 . S
O346 C322 1.247 . S
O346 Mg328 2.061 1_655 S
C347 O343 1.277 . S
C347 O345 1.245 . S
O348 C322 1.289 . S
O348 Mg325 2.238 1_565 S
O348 Mg326 2.106 1_665 S
O349 Mg326 2.079 . S
O349 C331 1.245 . S
O350 Mg329 2.038 . S
O350 C331 1.274 . S
C351 O363 1.241 . S
C351 O364 1.280 . S
C352 O365 1.277 . S
C352 O366 1.245 . S
C353 O377 1.247 . S
C353 O379 1.289 1_565 S
Mg354 O355 1.926 . S
Mg354 O364 1.984 . S
Mg354 O366 1.988 1_554 S
Mg354 O367 2.061 . S
O355 Mg354 1.926 . S
O355 Mg356 1.986 1_554 S
O355 Mg357 1.922 . S
Mg356 O355 1.986 1_556 S
Mg356 O363 2.042 1_556 S
Mg356 O365 2.041 . S
Mg356 O371 2.038 1_556 S
Mg356 O379 2.238 . S
Mg357 O355 1.922 . S
Mg357 O358 1.912 1_554 S
Mg357 O368 2.115 . S
Mg357 O370 2.095 . S
Mg357 O379 2.098 1_554 S
Mg357 O380 2.062 1_554 S
O358 Mg357 1.912 1_556 S
O358 Mg359 1.926 1_545 S
O358 Mg360 1.986 1_556 S
Mg359 O358 1.926 1_565 S
Mg359 O373 1.984 . S
Mg359 O376 1.988 1_556 S
Mg359 O377 2.061 . S
Mg360 O358 1.986 1_554 S
Mg360 O368 2.238 . S
Mg360 O372 2.042 1_554 S
Mg360 O374 2.041 . S
Mg360 O381 2.038 1_554 S
C361 O367 1.247 . S
C361 O368 1.289 . S
C362 O380 1.245 . S
C362 O381 1.274 . S
O363 C351 1.241 . S
O363 Mg356 2.042 1_554 S
O364 C351 1.280 . S
O364 Mg354 1.984 . S
O365 C352 1.277 . S
O365 Mg356 2.041 . S
O366 C352 1.245 . S
O366 Mg354 1.988 1_556 S
O367 Mg354 2.061 . S
O367 C361 1.247 . S
O368 Mg357 2.115 . S
O368 Mg360 2.238 . S
O368 C361 1.289 . S
C369 O370 1.245 1_565 S
C369 O371 1.274 1_565 S
O370 Mg357 2.095 . S
O370 C369 1.245 1_545 S
O371 Mg356 2.038 1_554 S
O371 C369 1.274 1_545 S
O372 Mg360 2.042 1_556 S
O372 C375 1.241 1_545 S
O373 Mg359 1.984 . S
O373 C375 1.280 . S
O374 Mg360 2.041 . S
O374 C378 1.277 1_545 S
C375 O372 1.241 1_565 S
C375 O373 1.280 . S
O376 Mg359 1.988 1_554 S
O376 C378 1.245 . S
O377 C353 1.247 . S
O377 Mg359 2.061 . S
C378 O374 1.277 1_565 S
C378 O376 1.245 . S
O379 C353 1.289 1_545 S
O379 Mg356 2.238 . S
O379 Mg357 2.098 1_556 S
O380 Mg357 2.062 1_556 S
O380 C362 1.245 . S
O381 Mg360 2.038 1_556 S
O381 C362 1.274 . S
C382 O394 1.241 . S
C382 O395 1.280 . S
C383 O396 1.277 . S
C383 O397 1.245 . S
C384 O408 1.247 1_556 S
C384 O410 1.289 1_556 S
Mg385 O386 1.926 1_455 S
Mg385 O395 1.984 1_455 S
Mg385 O397 1.988 1_455 S
Mg385 O398 2.061 . S
O386 Mg385 1.926 1_655 S
O386 Mg387 1.986 . S
O386 Mg388 1.917 1_655 S
Mg387 O386 1.986 . S
Mg387 O394 2.042 . S
Mg387 O396 2.041 . S
Mg387 O402 2.038 . S
Mg387 O410 2.238 . S
Mg388 O386 1.917 1_455 S
Mg388 O389 1.917 . S
Mg388 O399 2.106 . S
Mg388 O401 2.079 1_455 S
Mg388 O410 2.106 1_455 S
Mg388 O411 2.079 . S
O389 Mg388 1.917 . S
O389 Mg390 1.926 . S
O389 Mg391 1.986 . S
Mg390 O389 1.926 . S
Mg390 O404 1.999 . S
Mg390 O407 1.988 . S
Mg390 O408 2.061 1_455 S
Mg391 O389 1.986 . S
Mg391 O399 2.238 . S
Mg391 O403 2.042 . S
Mg391 O405 2.041 . S
Mg391 O412 2.038 . S
C392 O398 1.247 . S
C392 O399 1.289 . S
C393 O411 1.245 . S
C393 O412 1.274 . S
O394 C382 1.241 . S
O394 Mg387 2.042 . S
O395 C382 1.280 . S
O395 Mg385 1.984 1_655 S
O396 C383 1.277 . S
O396 Mg387 2.041 . S
O397 C383 1.245 . S
O397 Mg385 1.988 1_655 S
O398 Mg385 2.061 . S
O398 C392 1.247 . S
O399 Mg388 2.106 . S
O399 Mg391 2.238 . S
O399 C392 1.289 . S
C400 O401 1.245 . S
C400 O402 1.274 . S
O401 Mg388 2.079 1_655 S
O401 C400 1.245 . S
O402 Mg387 2.038 . S
O402 C400 1.274 . S
O403 Mg391 2.042 . S
O403 C406 1.247 . S
O404 Mg390 1.999 . S
O404 C406 1.277 . S
O405 Mg391 2.041 . S
O405 C409 1.277 . S
C406 O403 1.247 . S
C406 O404 1.277 . S
O407 Mg390 1.988 . S
O407 C409 1.245 . S
O408 C384 1.247 1_554 S
O408 Mg390 2.061 1_655 S
C409 O405 1.277 . S
C409 O407 1.245 . S
O410 C384 1.289 1_554 S
O410 Mg387 2.238 . S
O410 Mg388 2.106 1_655 S
O411 Mg388 2.079 . S
O411 C393 1.245 . S
O412 Mg391 2.038 . S
O412 C393 1.274 . S
C413 O425 1.241 . S
C413 O426 1.280 . S
C414 O427 1.277 . S
C414 O428 1.245 . S
C415 O439 1.247 . S
C415 O441 1.289 . S
Mg416 O417 1.926 . S
Mg416 O426 1.984 . S
Mg416 O428 1.988 1_554 S
Mg416 O429 2.061 . S
O417 Mg416 1.926 . S
O417 Mg418 1.986 . S
O417 Mg419 1.917 . S
Mg418 O417 1.986 . S
Mg418 O425 2.042 . S
Mg418 O427 2.041 1_554 S
Mg418 O433 2.038 . S
Mg418 O441 2.238 1_554 S
Mg419 O417 1.917 . S
Mg419 O420 1.917 . S
Mg419 O430 2.106 . S
Mg419 O432 2.079 . S
Mg419 O441 2.106 1_554 S
Mg419 O442 2.079 1_554 S
O420 Mg419 1.917 . S
O420 Mg421 1.926 . S
O420 Mg422 1.986 . S
Mg421 O420 1.926 . S
Mg421 O435 1.984 1_554 S
Mg421 O438 1.988 . S
Mg421 O439 2.061 1_554 S
Mg422 O420 1.986 . S
Mg422 O430 2.238 . S
Mg422 O434 2.042 1_554 S
Mg422 O436 2.041 . S
Mg422 O443 2.038 1_554 S
C423 O429 1.247 . S
C423 O430 1.289 . S
C424 O442 1.245 . S
C424 O443 1.274 . S
O425 C413 1.241 . S
O425 Mg418 2.042 . S
O426 C413 1.280 . S
O426 Mg416 1.984 . S
O427 C414 1.277 . S
O427 Mg418 2.041 1_556 S
O428 C414 1.245 . S
O428 Mg416 1.988 1_556 S
O429 Mg416 2.061 . S
O429 C423 1.247 . S
O430 Mg419 2.106 . S
O430 Mg422 2.238 . S
O430 C423 1.289 . S
C431 O432 1.245 . S
C431 O433 1.274 . S
O432 Mg419 2.079 . S
O432 C431 1.245 . S
O433 Mg418 2.038 . S
O433 C431 1.274 . S
O434 Mg422 2.042 1_556 S
O434 C437 1.241 . S
O435 Mg421 1.984 1_556 S
O435 C437 1.280 . S
O436 Mg422 2.041 . S
O436 C440 1.277 . S
C437 O434 1.241 . S
C437 O435 1.280 . S
O438 Mg421 1.988 . S
O438 C440 1.245 . S
O439 C415 1.247 . S
O439 Mg421 2.061 1_556 S
C440 O436 1.277 . S
C440 O438 1.245 . S
O441 C415 1.289 . S
O441 Mg418 2.238 1_556 S
O441 Mg419 2.106 1_556 S
O442 Mg419 2.079 1_556 S
O442 C424 1.245 . S
O443 Mg422 2.038 1_556 S
O443 C424 1.274 . S
C444 O456 1.241 . S
C444 O457 1.280 . S
C445 O458 1.277 . S
C445 O459 1.245 1_655 S
C446 O470 1.247 . S
C446 O472 1.289 . S
Mg447 O448 1.926 . S
Mg447 O457 1.984 1_455 S
Mg447 O459 1.988 . S
Mg447 O460 2.061 . S
O448 Mg447 1.926 . S
O448 Mg449 1.986 1_455 S
O448 Mg450 1.917 . S
Mg449 O448 1.986 1_655 S
Mg449 O456 2.042 . S
Mg449 O458 2.041 . S
Mg449 O464 2.038 . S
Mg449 O472 2.238 . S
Mg450 O448 1.917 . S
Mg450 O451 1.917 . S
Mg450 O461 2.106 . S
Mg450 O463 2.079 . S
Mg450 O472 2.106 1_455 S
Mg450 O473 2.079 . S
O451 Mg450 1.917 . S
O451 Mg452 1.926 . S
O451 Mg453 1.986 . S
Mg452 O451 1.926 . S
Mg452 O466 1.984 . S
Mg452 O469 1.988 . S
Mg452 O470 2.061 1_455 S
Mg453 O451 1.986 . S
Mg453 O461 2.238 . S
Mg453 O465 2.042 . S
Mg453 O467 2.041 . S
Mg453 O474 2.038 . S
C454 O460 1.247 . S
C454 O461 1.289 . S
C455 O473 1.245 . S
C455 O474 1.274 . S
O456 C444 1.241 . S
O456 Mg449 2.042 . S
O457 C444 1.280 . S
O457 Mg447 1.984 1_655 S
O458 C445 1.277 . S
O458 Mg449 2.041 . S
O459 C445 1.245 1_455 S
O459 Mg447 1.988 . S
O460 Mg447 2.061 . S
O460 C454 1.247 . S
O461 Mg450 2.106 . S
O461 Mg453 2.238 . S
O461 C454 1.289 . S
C462 O463 1.245 1_655 S
C462 O464 1.274 . S
O463 Mg450 2.079 . S
O463 C462 1.245 1_455 S
O464 Mg449 2.038 . S
O464 C462 1.274 . S
O465 Mg453 2.042 . S
O465 C468 1.241 . S
O466 Mg452 1.984 . S
O466 C468 1.280 . S
O467 Mg453 2.041 . S
O467 C471 1.277 . S
C468 O465 1.241 . S
C468 O466 1.280 . S
O469 Mg452 1.988 . S
O469 C471 1.245 . S
O470 C446 1.247 . S
O470 Mg452 2.061 1_655 S
C471 O467 1.277 . S
C471 O469 1.245 . S
O472 C446 1.289 . S
O472 Mg449 2.238 . S
O472 Mg450 2.106 1_655 S
O473 Mg450 2.079 . S
O473 C455 1.245 . S
O474 Mg453 2.038 . S
O474 C455 1.274 . S
C475 O487 1.241 . S
C475 O488 1.280 . S
C476 O489 1.277 . S
C476 O490 1.245 . S
C477 O501 1.247 . S
C477 O503 1.289 . S
Mg478 O479 1.926 . S
Mg478 O488 1.984 . S
Mg478 O490 1.988 . S
Mg478 O491 2.061 . S
O479 Mg478 1.926 . S
O479 Mg480 1.986 1_545 S
O479 Mg481 1.917 . S
Mg480 O479 1.986 1_565 S
Mg480 O487 2.042 1_565 S
Mg480 O489 2.041 1_565 S
Mg480 O495 2.038 . S
Mg480 O503 2.238 . S
Mg481 O479 1.917 . S
Mg481 O482 1.917 1_545 S
Mg481 O492 2.106 . S
Mg481 O494 2.079 1_545 S
Mg481 O503 2.106 1_545 S
Mg481 O504 2.079 . S
O482 Mg481 1.917 1_565 S
O482 Mg483 1.926 . S
O482 Mg484 1.986 1_565 S
Mg483 O482 1.926 . S
Mg483 O497 1.984 . S
Mg483 O500 1.988 . S
Mg483 O501 2.061 . S
Mg484 O482 1.986 1_545 S
Mg484 O492 2.238 . S
Mg484 O496 2.042 1_545 S
Mg484 O498 2.041 1_545 S
Mg484 O505 2.038 . S
C485 O491 1.247 . S
C485 O492 1.289 . S
C486 O504 1.245 . S
C486 O505 1.274 . S
O487 C475 1.241 . S
O487 Mg480 2.042 1_545 S
O488 C475 1.280 . S
O488 Mg478 1.984 . S
O489 C476 1.277 . S
O489 Mg480 2.041 1_545 S
O490 C476 1.245 . S
O490 Mg478 1.988 . S
O491 Mg478 2.061 . S
O491 C485 1.247 . S
O492 Mg481 2.106 . S
O492 Mg484 2.238 . S
O492 C485 1.289 . S
C493 O494 1.245 . S
C493 O495 1.274 . S
O494 Mg481 2.079 1_565 S
O494 C493 1.245 . S
O495 Mg480 2.038 . S
O495 C493 1.274 . S
O496 Mg484 2.042 1_565 S
O496 C499 1.241 . S
O497 Mg483 1.984 . S
O497 C499 1.280 . S
O498 Mg484 2.041 1_565 S
O498 C502 1.277 . S
C499 O496 1.241 . S
C499 O497 1.280 . S
O500 Mg483 1.988 . S
O500 C502 1.245 . S
O501 C477 1.247 . S
O501 Mg483 2.061 . S
C502 O498 1.277 . S
C502 O500 1.245 . S
O503 C477 1.289 . S
O503 Mg480 2.238 . S
O503 Mg481 2.106 1_565 S
O504 Mg481 2.079 . S
O504 C486 1.245 . S
O505 Mg484 2.038 . S
O505 C486 1.274 . S
C506 C507 1.369 . S
C506 C508 1.419 . S
C506 H510 0.930 . S
C507 C506 1.369 . S
C507 C516 1.429 . S
C508 C506 1.419 . S
C508 C509 1.363 . S
C508 H511 0.929 . S
C509 C508 1.363 . S
C509 C515 1.428 . S
H510 C506 0.930 . S
H511 C508 0.929 . S
S512 N513 1.613 . S
S512 N514 1.610 . S
N513 S512 1.613 . S
N513 C516 1.350 . S
N514 S512 1.610 . S
N514 C515 1.351 . S
C515 C509 1.428 . S
C515 N514 1.351 . S
C515 C516 1.434 . S
C516 C507 1.429 . S
C516 N513 1.350 . S
C516 C515 1.434 . S
C517 C518 1.369 . S
C517 C519 1.419 . S
C517 H521 0.930 . S
C518 C517 1.369 . S
C518 C527 1.429 . S
C519 C517 1.419 . S
C519 C520 1.363 . S
C519 H522 0.929 . S
C520 C519 1.363 . S
C520 C526 1.428 . S
H521 C517 0.930 . S
H522 C519 0.929 . S
S523 N524 1.613 . S
S523 N525 1.610 . S
N524 S523 1.613 . S
N524 C527 1.350 . S
N525 S523 1.610 . S
N525 C526 1.351 . S
C526 C520 1.428 . S
C526 N525 1.351 . S
C526 C527 1.434 . S
C527 C518 1.429 . S
C527 N524 1.350 . S
C527 C526 1.434 . S
C528 C529 1.369 . S
C528 C530 1.419 . S
C528 H532 0.930 . S
C529 C528 1.369 . S
C529 C538 1.429 . S
C530 C528 1.419 . S
C530 C531 1.363 . S
C530 H533 0.929 . S
C531 C530 1.363 . S
C531 C537 1.428 . S
H532 C528 0.930 . S
H533 C530 0.929 . S
S534 N535 1.613 . S
S534 N536 1.610 . S
N535 S534 1.613 . S
N535 C538 1.350 . S
N536 S534 1.610 . S
N536 C537 1.351 . S
C537 C531 1.428 . S
C537 N536 1.351 . S
C537 C538 1.434 . S
C538 C529 1.429 . S
C538 N535 1.350 . S
C538 C537 1.434 . S
C539 C540 1.369 . S
C539 C541 1.419 . S
C539 H543 0.930 . S
C540 C539 1.369 . S
C540 C549 1.429 . S
C541 C539 1.419 . S
C541 C542 1.363 . S
C541 H544 0.929 . S
C542 C541 1.363 . S
C542 C548 1.428 . S
H543 C539 0.930 . S
H544 C541 0.929 . S
S545 N546 1.624 . S
S545 N547 1.616 . S
N546 S545 1.624 . S
N546 C549 1.350 . S
N547 S545 1.616 . S
N547 C548 1.351 . S
C548 C542 1.428 . S
C548 N547 1.351 . S
C548 C549 1.434 . S
C549 C540 1.429 . S
C549 N546 1.350 . S
C549 C548 1.434 . S
C550 C551 1.369 . S
C550 C552 1.419 . S
C550 H554 0.930 . S
C551 C550 1.369 . S
C551 C560 1.429 . S
C552 C550 1.419 . S
C552 C553 1.363 . S
C552 H555 0.929 . S
C553 C552 1.363 . S
C553 C559 1.428 . S
H554 C550 0.930 . S
H555 C552 0.929 . S
S556 N557 1.613 1_545 S
S556 N558 1.610 1_545 S
N557 S556 1.613 1_565 S
N557 C560 1.350 . S
N558 S556 1.610 1_565 S
N558 C559 1.351 . S
C559 C553 1.428 . S
C559 N558 1.351 . S
C559 C560 1.434 . S
C560 C551 1.429 . S
C560 N557 1.350 . S
C560 C559 1.434 . S
C561 C562 1.369 . S
C561 C563 1.419 . S
C561 H565 0.930 . S
C562 C561 1.369 . S
C562 C571 1.429 . S
C563 C561 1.419 . S
C563 C564 1.363 . S
C563 H566 0.929 . S
C564 C563 1.363 . S
C564 C570 1.428 . S
H565 C561 0.930 . S
H566 C563 0.929 . S
S567 N568 1.613 . S
S567 N569 1.610 . S
N568 S567 1.613 . S
N568 C571 1.350 . S
N569 S567 1.610 . S
N569 C570 1.351 . S
C570 C564 1.428 . S
C570 N569 1.351 . S
C570 C571 1.434 . S
C571 C562 1.429 . S
C571 N568 1.350 . S
C571 C570 1.434 . S
C572 C573 1.369 . S
C572 C574 1.419 . S
C572 H576 0.930 1_655 S
C573 C572 1.369 . S
C573 C582 1.429 . S
C574 C572 1.419 . S
C574 C575 1.363 . S
C574 H577 0.929 . S
C575 C574 1.363 . S
C575 C581 1.428 . S
H576 C572 0.930 1_455 S
H577 C574 0.929 . S
S578 N579 1.613 . S
S578 N580 1.610 . S
N579 S578 1.613 . S
N579 C582 1.350 . S
N580 S578 1.610 . S
N580 C581 1.351 . S
C581 C575 1.428 . S
C581 N580 1.351 . S
C581 C582 1.434 . S
C582 C573 1.429 . S
C582 N579 1.350 . S
C582 C581 1.434 . S
C583 C584 1.369 . S
C583 C585 1.419 . S
C583 H587 0.930 . S
C584 C583 1.369 . S
C584 C593 1.429 . S
C585 C583 1.419 . S
C585 C586 1.363 . S
C585 H588 0.929 . S
C586 C585 1.363 . S
C586 C592 1.428 . S
H587 C583 0.930 . S
H588 C585 0.929 . S
S589 N590 1.613 1_545 S
S589 N591 1.610 . S
N590 S589 1.613 1_565 S
N590 C593 1.350 . S
N591 S589 1.610 . S
N591 C592 1.351 1_545 S
C592 C586 1.428 . S
C592 N591 1.351 1_565 S
C592 C593 1.434 . S
C593 C584 1.429 . S
C593 N590 1.350 . S
C593 C592 1.434 . S
C594 C595 1.369 . S
C594 C596 1.419 . S
C594 H598 0.930 . S
C595 C594 1.369 . S
C595 C604 1.429 . S
C596 C594 1.419 . S
C596 C597 1.363 . S
C596 H599 0.929 . S
C597 C596 1.363 . S
C597 C603 1.428 . S
H598 C594 0.930 . S
H599 C596 0.929 . S
S600 N601 1.613 . S
S600 N602 1.610 . S
N601 S600 1.613 . S
N601 C604 1.350 . S
N602 S600 1.610 . S
N602 C603 1.351 . S
C603 C597 1.428 . S
C603 N602 1.351 . S
C603 C604 1.434 . S
C604 C595 1.429 . S
C604 N601 1.350 . S
C604 C603 1.434 . S
C605 C606 1.369 . S
C605 C607 1.419 . S
C605 H609 0.930 . S
C606 C605 1.369 . S
C606 C615 1.429 . S
C607 C605 1.419 . S
C607 C608 1.363 . S
C607 H610 0.929 . S
C608 C607 1.363 . S
C608 C614 1.428 . S
H609 C605 0.930 . S
H610 C607 0.929 . S
S611 N612 1.613 1_455 S
S611 N613 1.610 1_455 S
N612 S611 1.613 1_655 S
N612 C615 1.350 . S
N613 S611 1.610 1_655 S
N613 C614 1.351 . S
C614 C608 1.428 . S
C614 N613 1.351 . S
C614 C615 1.434 . S
C615 C606 1.429 . S
C615 N612 1.350 . S
C615 C614 1.434 . S
C616 C617 1.369 . S
C616 C618 1.419 . S
C616 H620 0.930 . S
C617 C616 1.369 . S
C617 C626 1.429 . S
C618 C616 1.419 . S
C618 C619 1.363 . S
C618 H621 0.929 . S
C619 C618 1.363 . S
C619 C625 1.428 . S
H620 C616 0.930 . S
H621 C618 0.929 . S
S622 N623 1.613 . S
S622 N624 1.610 . S
N623 S622 1.613 . S
N623 C626 1.350 . S
N624 S622 1.610 . S
N624 C625 1.351 . S
C625 C619 1.428 . S
C625 N624 1.351 . S
C625 C626 1.434 . S
C626 C617 1.429 . S
C626 N623 1.350 . S
C626 C625 1.434 . S
C627 C628 1.369 . S
C627 C629 1.419 . S
C627 H631 0.930 . S
C628 C627 1.369 . S
C628 C637 1.429 . S
C629 C627 1.419 . S
C629 C630 1.363 . S
C629 H632 0.929 . S
C630 C629 1.363 . S
C630 C636 1.428 . S
H631 C627 0.930 . S
H632 C629 0.929 . S
S633 N634 1.613 . S
S633 N635 1.610 . S
N634 S633 1.613 . S
N634 C637 1.350 . S
N635 S633 1.610 . S
N635 C636 1.351 . S
C636 C630 1.428 . S
C636 N635 1.351 . S
C636 C637 1.434 . S
C637 C628 1.429 . S
C637 N634 1.350 . S
C637 C636 1.434 . S
C638 C639 1.369 . S
C638 C640 1.419 . S
C638 H642 0.930 . S
C639 C638 1.369 . S
C639 C648 1.429 . S
C640 C638 1.419 . S
C640 C641 1.363 . S
C640 H643 0.929 . S
C641 C640 1.363 . S
C641 C647 1.428 . S
H642 C638 0.930 . S
H643 C640 0.929 . S
S644 N645 1.613 . S
S644 N646 1.610 . S
N645 S644 1.613 . S
N645 C648 1.350 . S
N646 S644 1.610 . S
N646 C647 1.351 . S
C647 C641 1.428 . S
C647 N646 1.351 . S
C647 C648 1.434 . S
C648 C639 1.429 . S
C648 N645 1.350 . S
C648 C647 1.434 . S
C649 C650 1.369 . S
C649 C651 1.419 . S
C649 H653 0.930 . S
C650 C649 1.369 . S
C650 C659 1.429 . S
C651 C649 1.419 . S
C651 C652 1.363 . S
C651 H654 0.929 . S
C652 C651 1.363 . S
C652 C658 1.428 . S
H653 C649 0.930 . S
H654 C651 0.929 . S
S655 N656 1.613 1_554 S
S655 N657 1.610 . S
N656 S655 1.613 1_556 S
N656 C659 1.350 . S
N657 S655 1.610 . S
N657 C658 1.351 1_554 S
C658 C652 1.428 . S
C658 N657 1.351 1_556 S
C658 C659 1.434 . S
C659 C650 1.429 . S
C659 N656 1.350 . S
C659 C658 1.434 . S
C660 C661 1.369 . S
C660 C662 1.419 . S
C660 H664 0.930 . S
C661 C660 1.369 . S
C661 C670 1.429 . S
C662 C660 1.419 . S
C662 C663 1.363 . S
C662 H665 0.929 . S
C663 C662 1.363 . S
C663 C669 1.428 . S
H664 C660 0.930 . S
H665 C662 0.929 . S
S666 N667 1.613 . S
S666 N668 1.610 . S
N667 S666 1.613 . S
N667 C670 1.350 . S
N668 S666 1.610 . S
N668 C669 1.351 . S
C669 C663 1.428 . S
C669 N668 1.351 . S
C669 C670 1.434 . S
C670 C661 1.429 . S
C670 N667 1.350 . S
C670 C669 1.434 . S
C671 C672 1.371 . S
C671 C673 1.419 . S
C671 H675 0.930 . S
C672 C671 1.371 . S
C672 C681 1.426 1_554 S
C673 C671 1.419 . S
C673 C674 1.363 1_554 S
C673 H676 0.929 . S
C674 C673 1.363 1_556 S
C674 C680 1.428 . S
H675 C671 0.930 . S
H676 C673 0.929 . S
S677 N678 1.613 . S
S677 N679 1.610 . S
N678 S677 1.613 . S
N678 C681 1.350 . S
N679 S677 1.610 . S
N679 C680 1.351 . S
C680 C674 1.428 . S
C680 N679 1.351 . S
C680 C681 1.434 . S
C681 C672 1.426 1_556 S
C681 N678 1.350 . S
C681 C680 1.434 . S
C682 C683 1.369 . S
C682 C684 1.419 . S
C682 H686 0.930 . S
C683 C682 1.369 . S
C683 C692 1.429 . S
C684 C682 1.419 . S
C684 C685 1.363 . S
C684 H687 0.929 . S
C685 C684 1.363 . S
C685 C691 1.428 . S
H686 C682 0.930 . S
H687 C684 0.929 . S
S688 N689 1.613 . S
S688 N690 1.610 . S
N689 S688 1.613 . S
N689 C692 1.350 . S
N690 S688 1.610 . S
N690 C691 1.351 . S
C691 C685 1.428 . S
C691 N690 1.351 . S
C691 C692 1.434 . S
C692 C683 1.429 . S
C692 N689 1.350 . S
C692 C691 1.434 . S
C693 C694 1.369 . S
C693 C695 1.419 . S
C693 H697 0.930 . S
C694 C693 1.369 . S
C694 C703 1.429 . S
C695 C693 1.419 . S
C695 C696 1.358 1_556 S
C695 H698 0.929 . S
C696 C695 1.358 1_554 S
C696 C702 1.429 . S
H697 C693 0.930 . S
H698 C695 0.929 . S
S699 N700 1.613 1_554 S
S699 N701 1.610 . S
N700 S699 1.613 1_556 S
N700 C703 1.350 . S
N701 S699 1.610 . S
N701 C702 1.351 . S
C702 C696 1.429 . S
C702 N701 1.351 . S
C702 C703 1.434 1_554 S
C703 C694 1.429 . S
C703 N700 1.350 . S
C703 C702 1.434 1_556 S
C704 C705 1.369 . S
C704 C706 1.419 . S
C704 H708 0.930 . S
C705 C704 1.369 . S
C705 C714 1.429 . S
C706 C704 1.419 . S
C706 C707 1.363 . S
C706 H709 0.929 . S
C707 C706 1.363 . S
C707 C713 1.428 . S
H708 C704 0.930 . S
H709 C706 0.929 . S
S710 N711 1.613 . S
S710 N712 1.610 . S
N711 S710 1.613 . S
N711 C714 1.350 . S
N712 S710 1.610 . S
N712 C713 1.351 . S
C713 C707 1.428 . S
C713 N712 1.351 . S
C713 C714 1.434 . S
C714 C705 1.429 . S
C714 N711 1.350 . S
C714 C713 1.434 . S
C715 C716 1.369 . S
C715 C717 1.419 . S
C715 H719 0.930 . S
C716 C715 1.369 . S
C716 C725 1.429 . S
C717 C715 1.419 . S
C717 C718 1.363 . S
C717 H720 0.929 . S
C718 C717 1.363 . S
C718 C724 1.428 . S
H719 C715 0.930 . S
H720 C717 0.929 . S
S721 N722 1.613 . S
S721 N723 1.610 . S
N722 S721 1.613 . S
N722 C725 1.350 . S
N723 S721 1.610 . S
N723 C724 1.351 . S
C724 C718 1.428 . S
C724 N723 1.351 . S
C724 C725 1.434 . S
C725 C716 1.429 . S
C725 N722 1.350 . S
C725 C724 1.434 . S
C726 C727 1.369 . S
C726 C728 1.419 . S
C726 H730 0.930 . S
C727 C726 1.369 . S
C727 C736 1.429 . S
C728 C726 1.419 . S
C728 C729 1.363 . S
C728 H731 0.929 . S
C729 C728 1.363 . S
C729 C735 1.428 . S
H730 C726 0.930 . S
H731 C728 0.929 . S
S732 N733 1.613 . S
S732 N734 1.610 . S
N733 S732 1.613 . S
N733 C736 1.350 . S
N734 S732 1.610 . S
N734 C735 1.351 . S
C735 C729 1.428 . S
C735 N734 1.351 . S
C735 C736 1.434 . S
C736 C727 1.429 . S
C736 N733 1.350 . S
C736 C735 1.434 . S
C737 C738 1.369 . S
C737 C739 1.419 . S
C737 H741 0.930 . S
C738 C737 1.369 . S
C738 C747 1.429 . S
C739 C737 1.419 . S
C739 C740 1.363 . S
C739 H742 0.929 . S
C740 C739 1.363 . S
C740 C746 1.428 . S
H741 C737 0.930 . S
H742 C739 0.929 . S
S743 N744 1.613 . S
S743 N745 1.610 . S
N744 S743 1.613 . S
N744 C747 1.350 . S
N745 S743 1.610 . S
N745 C746 1.351 . S
C746 C740 1.428 . S
C746 N745 1.351 . S
C746 C747 1.434 . S
C747 C738 1.429 . S
C747 N744 1.350 . S
C747 C746 1.434 . S
C748 C749 1.369 . S
C748 C750 1.419 . S
C748 H752 0.930 . S
C749 C748 1.369 . S
C749 C758 1.429 . S
C750 C748 1.419 . S
C750 C751 1.363 . S
C750 H753 0.929 . S
C751 C750 1.363 . S
C751 C757 1.428 . S
H752 C748 0.930 . S
H753 C750 0.929 . S
S754 N755 1.613 . S
S754 N756 1.610 . S
N755 S754 1.613 . S
N755 C758 1.350 . S
N756 S754 1.610 . S
N756 C757 1.351 . S
C757 C751 1.428 . S
C757 N756 1.351 . S
C757 C758 1.434 . S
C758 C749 1.429 . S
C758 N755 1.350 . S
C758 C757 1.434 . S
C759 C760 1.369 . S
C759 C761 1.419 . S
C759 H763 0.930 . S
C760 C759 1.369 . S
C760 C769 1.429 . S
C761 C759 1.419 . S
C761 C762 1.363 . S
C761 H764 0.929 . S
C762 C761 1.363 . S
C762 C768 1.428 . S
H763 C759 0.930 . S
H764 C761 0.929 . S
S765 N766 1.613 . S
S765 N767 1.610 . S
N766 S765 1.613 . S
N766 C769 1.350 . S
N767 S765 1.610 . S
N767 C768 1.351 . S
C768 C762 1.428 . S
C768 N767 1.351 . S
C768 C769 1.434 . S
C769 C760 1.429 . S
C769 N766 1.350 . S
C769 C768 1.434 . S
C770 C771 1.369 . S
C770 C772 1.419 . S
C770 H774 0.930 . S
C771 C770 1.369 . S
C771 C780 1.429 . S
C772 C770 1.419 . S
C772 C773 1.363 . S
C772 H775 0.929 . S
C773 C772 1.363 . S
C773 C779 1.428 . S
H774 C770 0.930 . S
H775 C772 0.929 . S
S776 N777 1.613 . S
S776 N778 1.610 . S
N777 S776 1.613 . S
N777 C780 1.350 . S
N778 S776 1.610 . S
N778 C779 1.351 . S
C779 C773 1.428 . S
C779 N778 1.351 . S
C779 C780 1.434 . S
C780 C771 1.429 . S
C780 N777 1.350 . S
C780 C779 1.434 . S
C781 C782 1.369 . S
C781 C783 1.419 . S
C781 H785 0.930 . S
C782 C781 1.369 . S
C782 C791 1.429 . S
C783 C781 1.419 . S
C783 C784 1.363 . S
C783 H786 0.929 . S
C784 C783 1.363 . S
C784 C790 1.428 . S
H785 C781 0.930 . S
H786 C783 0.929 . S
S787 N788 1.613 . S
S787 N789 1.610 . S
N788 S787 1.613 . S
N788 C791 1.350 . S
N789 S787 1.610 . S
N789 C790 1.351 . S
C790 C784 1.428 . S
C790 N789 1.351 . S
C790 C791 1.434 . S
C791 C782 1.429 . S
C791 N788 1.350 . S
C791 C790 1.434 . S
C792 C793 1.369 . S
C792 C794 1.419 . S
C792 H796 0.930 . S
C793 C792 1.369 . S
C793 C802 1.429 . S
C794 C792 1.419 . S
C794 C795 1.363 . S
C794 H797 0.929 . S
C795 C794 1.363 . S
C795 C801 1.428 . S
H796 C792 0.930 . S
H797 C794 0.929 . S
S798 N799 1.613 . S
S798 N800 1.610 . S
N799 S798 1.613 . S
N799 C802 1.350 . S
N800 S798 1.610 . S
N800 C801 1.351 . S
C801 C795 1.428 . S
C801 N800 1.351 . S
C801 C802 1.434 . S
C802 C793 1.429 . S
C802 N799 1.350 . S
C802 C801 1.434 . S
C803 C804 1.369 . S
C803 C805 1.419 . S
C803 H807 0.930 . S
C804 C803 1.369 . S
C804 C813 1.429 . S
C805 C803 1.419 . S
C805 C806 1.363 . S
C805 H808 0.929 . S
C806 C805 1.363 . S
C806 C812 1.428 . S
H807 C803 0.930 . S
H808 C805 0.929 . S
S809 N810 1.613 . S
S809 N811 1.610 . S
N810 S809 1.613 . S
N810 C813 1.350 . S
N811 S809 1.610 . S
N811 C812 1.351 . S
C812 C806 1.428 . S
C812 N811 1.351 . S
C812 C813 1.434 . S
C813 C804 1.429 . S
C813 N810 1.350 . S
C813 C812 1.434 . S
C814 C815 1.369 . S
C814 C816 1.419 . S
C814 H818 0.930 . S
C815 C814 1.369 . S
C815 C824 1.429 . S
C816 C814 1.419 . S
C816 C817 1.363 . S
C816 H819 0.929 . S
C817 C816 1.363 . S
C817 C823 1.428 . S
H818 C814 0.930 . S
H819 C816 0.929 . S
S820 N821 1.613 . S
S820 N822 1.610 . S
N821 S820 1.613 . S
N821 C824 1.350 . S
N822 S820 1.610 . S
N822 C823 1.351 . S
C823 C817 1.428 . S
C823 N822 1.351 . S
C823 C824 1.434 . S
C824 C815 1.429 . S
C824 N821 1.350 . S
C824 C823 1.434 . S
C825 C826 1.369 . S
C825 C827 1.419 . S
C825 H829 0.930 . S
C826 C825 1.369 . S
C826 C835 1.429 . S
C827 C825 1.419 . S
C827 C828 1.363 . S
C827 H830 0.929 . S
C828 C827 1.363 . S
C828 C834 1.428 . S
H829 C825 0.930 . S
H830 C827 0.929 . S
S831 N832 1.613 . S
S831 N833 1.610 . S
N832 S831 1.613 . S
N832 C835 1.350 . S
N833 S831 1.610 . S
N833 C834 1.351 . S
C834 C828 1.428 . S
C834 N833 1.351 . S
C834 C835 1.434 . S
C835 C826 1.429 . S
C835 N832 1.350 . S
C835 C834 1.434 . S
C836 C837 1.369 . S
C836 C838 1.419 . S
C836 H840 0.930 . S
C837 C836 1.369 . S
C837 C846 1.429 . S
C838 C836 1.419 . S
C838 C839 1.363 . S
C838 H841 0.929 . S
C839 C838 1.363 . S
C839 C845 1.428 . S
H840 C836 0.930 . S
H841 C838 0.929 . S
S842 N843 1.613 . S
S842 N844 1.610 . S
N843 S842 1.613 . S
N843 C846 1.350 . S
N844 S842 1.610 . S
N844 C845 1.351 . S
C845 C839 1.428 . S
C845 N844 1.351 . S
C845 C846 1.434 . S
C846 C837 1.429 . S
C846 N843 1.350 . S
C846 C845 1.434 . S
C847 C848 1.369 . S
C847 C849 1.419 . S
C847 H851 0.930 . S
C848 C847 1.369 . S
C848 C857 1.429 . S
C849 C847 1.419 . S
C849 C850 1.363 . S
C849 H852 0.929 . S
C850 C849 1.363 . S
C850 C856 1.428 . S
H851 C847 0.930 . S
H852 C849 0.929 . S
S853 N854 1.613 . S
S853 N855 1.610 . S
N854 S853 1.613 . S
N854 C857 1.350 . S
N855 S853 1.610 . S
N855 C856 1.351 . S
C856 C850 1.428 . S
C856 N855 1.351 . S
C856 C857 1.434 . S
C857 C848 1.429 . S
C857 N854 1.350 . S
C857 C856 1.434 . S
C858 C859 1.369 . S
C858 C860 1.419 . S
C858 H862 0.930 . S
C859 C858 1.369 . S
C859 C868 1.429 . S
C860 C858 1.419 . S
C860 C861 1.363 . S
C860 H863 0.929 . S
C861 C860 1.363 . S
C861 C867 1.428 . S
H862 C858 0.930 . S
H863 C860 0.929 . S
S864 N865 1.613 . S
S864 N866 1.610 . S
N865 S864 1.613 . S
N865 C868 1.350 . S
N866 S864 1.610 . S
N866 C867 1.351 . S
C867 C861 1.428 . S
C867 N866 1.351 . S
C867 C868 1.434 . S
C868 C859 1.429 . S
C868 N865 1.350 . S
C868 C867 1.434 . S
C869 C870 1.369 . S
C869 C871 1.419 . S
C869 H873 0.930 . S
C870 C869 1.369 . S
C870 C879 1.429 . S
C871 C869 1.419 . S
C871 C872 1.363 . S
C871 H874 0.929 . S
C872 C871 1.363 . S
C872 C878 1.428 . S
H873 C869 0.930 . S
H874 C871 0.929 . S
S875 N876 1.613 . S
S875 N877 1.610 . S
N876 S875 1.613 . S
N876 C879 1.350 . S
N877 S875 1.610 . S
N877 C878 1.351 . S
C878 C872 1.428 . S
C878 N877 1.351 . S
C878 C879 1.434 . S
C879 C870 1.429 . S
C879 N876 1.350 . S
C879 C878 1.434 . S
C880 C881 1.369 . S
C880 C882 1.419 . S
C880 H884 0.930 . S
C881 C880 1.369 . S
C881 C890 1.429 . S
C882 C880 1.419 . S
C882 C883 1.363 . S
C882 H885 0.929 . S
C883 C882 1.363 . S
C883 C889 1.428 . S
H884 C880 0.930 . S
H885 C882 0.929 . S
S886 N887 1.613 . S
S886 N888 1.610 . S
N887 S886 1.613 . S
N887 C890 1.350 . S
N888 S886 1.610 . S
N888 C889 1.351 . S
C889 C883 1.428 . S
C889 N888 1.351 . S
C889 C890 1.434 . S
C890 C881 1.429 . S
C890 N887 1.350 . S
C890 C889 1.434 . S
C891 C892 1.369 . S
C891 C893 1.419 . S
C891 H895 0.930 . S
C892 C891 1.369 . S
C892 C901 1.429 . S
C893 C891 1.419 . S
C893 C894 1.363 . S
C893 H896 0.929 . S
C894 C893 1.363 . S
C894 C900 1.428 . S
H895 C891 0.930 . S
H896 C893 0.929 . S
S897 N898 1.613 . S
S897 N899 1.610 . S
N898 S897 1.613 . S
N898 C901 1.350 . S
N899 S897 1.610 . S
N899 C900 1.351 . S
C900 C894 1.428 . S
C900 N899 1.351 . S
C900 C901 1.434 . S
C901 C892 1.429 . S
C901 N898 1.350 . S
C901 C900 1.434 . S
C902 C903 1.369 . S
C902 C904 1.419 . S
C902 H906 0.930 . S
C903 C902 1.369 . S
C903 C912 1.429 . S
C904 C902 1.419 . S
C904 C905 1.363 . S
C904 H907 0.929 . S
C905 C904 1.363 . S
C905 C911 1.428 . S
H906 C902 0.930 . S
H907 C904 0.929 . S
S908 N909 1.613 . S
S908 N910 1.610 . S
N909 S908 1.613 . S
N909 C912 1.350 . S
N910 S908 1.610 . S
N910 C911 1.351 . S
C911 C905 1.428 . S
C911 N910 1.351 . S
C911 C912 1.434 . S
C912 C903 1.429 . S
C912 N909 1.350 . S
C912 C911 1.434 . S
C913 C914 1.369 . S
C913 C915 1.419 . S
C913 H917 0.930 . S
C914 C913 1.369 . S
C914 C923 1.429 . S
C915 C913 1.419 . S
C915 C916 1.363 . S
C915 H918 0.929 . S
C916 C915 1.363 . S
C916 C922 1.428 . S
H917 C913 0.930 . S
H918 C915 0.929 . S
S919 N920 1.613 . S
S919 N921 1.610 . S
N920 S919 1.613 . S
N920 C923 1.350 . S
N921 S919 1.610 . S
N921 C922 1.351 . S
C922 C916 1.428 . S
C922 N921 1.351 . S
C922 C923 1.434 . S
C923 C914 1.429 . S
C923 N920 1.350 . S
C923 C922 1.434 . S
C924 C925 1.369 . S
C924 C926 1.419 . S
C924 H928 0.930 . S
C925 C924 1.369 . S
C925 C934 1.429 . S
C926 C924 1.419 . S
C926 C927 1.363 . S
C926 H929 0.929 . S
C927 C926 1.363 . S
C927 C933 1.428 . S
H928 C924 0.930 . S
H929 C926 0.929 . S
S930 N931 1.613 . S
S930 N932 1.610 . S
N931 S930 1.613 . S
N931 C934 1.350 . S
N932 S930 1.610 . S
N932 C933 1.351 . S
C933 C927 1.428 . S
C933 N932 1.351 . S
C933 C934 1.434 . S
C934 C925 1.429 . S
C934 N931 1.350 . S
C934 C933 1.434 . S
C935 C936 1.369 . S
C935 C937 1.419 . S
C935 H939 0.930 . S
C936 C935 1.369 . S
C936 C945 1.429 . S
C937 C935 1.419 . S
C937 C938 1.363 . S
C937 H940 0.929 . S
C938 C937 1.363 . S
C938 C944 1.428 . S
H939 C935 0.930 . S
H940 C937 0.929 . S
S941 N942 1.613 . S
S941 N943 1.610 . S
N942 S941 1.613 . S
N942 C945 1.350 . S
N943 S941 1.610 . S
N943 C944 1.351 . S
C944 C938 1.428 . S
C944 N943 1.351 . S
C944 C945 1.434 . S
C945 C936 1.429 . S
C945 N942 1.350 . S
C945 C944 1.434 . S
C946 C947 1.369 . S
C946 C948 1.419 . S
C946 H950 0.930 . S
C947 C946 1.369 . S
C947 C956 1.429 . S
C948 C946 1.419 . S
C948 C949 1.363 . S
C948 H951 0.929 . S
C949 C948 1.363 . S
C949 C955 1.428 . S
H950 C946 0.930 . S
H951 C948 0.929 . S
S952 N953 1.613 . S
S952 N954 1.610 . S
N953 S952 1.613 . S
N953 C956 1.350 . S
N954 S952 1.610 . S
N954 C955 1.351 . S
C955 C949 1.428 . S
C955 N954 1.351 . S
C955 C956 1.434 . S
C956 C947 1.429 . S
C956 N953 1.350 . S
C956 C955 1.434 . S
C957 C958 1.369 . S
C957 C959 1.419 . S
C957 H961 0.930 . S
C958 C957 1.369 . S
C958 C967 1.429 . S
C959 C957 1.419 . S
C959 C960 1.363 . S
C959 H962 0.929 . S
C960 C959 1.363 . S
C960 C966 1.428 . S
H961 C957 0.930 . S
H962 C959 0.929 . S
S963 N964 1.613 . S
S963 N965 1.610 . S
N964 S963 1.613 . S
N964 C967 1.350 . S
N965 S963 1.610 . S
N965 C966 1.351 . S
C966 C960 1.428 . S
C966 N965 1.351 . S
C966 C967 1.434 . S
C967 C958 1.429 . S
C967 N964 1.350 . S
C967 C966 1.434 . S
C968 C969 1.369 . S
C968 C970 1.419 . S
C968 H972 0.930 . S
C969 C968 1.369 . S
C969 C978 1.429 . S
C970 C968 1.419 . S
C970 C971 1.363 . S
C970 H973 0.929 . S
C971 C970 1.363 . S
C971 C977 1.428 . S
H972 C968 0.930 . S
H973 C970 0.929 . S
S974 N975 1.613 . S
S974 N976 1.610 1_655 S
N975 S974 1.613 . S
N975 C978 1.350 . S
N976 S974 1.610 1_455 S
N976 C977 1.351 1_455 S
C977 C971 1.428 . S
C977 N976 1.351 1_655 S
C977 C978 1.434 . S
C978 C969 1.429 . S
C978 N975 1.350 . S
C978 C977 1.434 . S
C979 C980 1.369 . S
C979 C981 1.419 . S
C979 H983 0.930 . S
C980 C979 1.369 . S
C980 C989 1.429 . S
C981 C979 1.419 . S
C981 C982 1.363 . S
C981 H984 0.929 . S
C982 C981 1.363 . S
C982 C988 1.428 . S
H983 C979 0.930 . S
H984 C981 0.929 . S
S985 N986 1.613 . S
S985 N987 1.610 . S
N986 S985 1.613 . S
N986 C989 1.350 . S
N987 S985 1.610 . S
N987 C988 1.351 . S
C988 C982 1.428 . S
C988 N987 1.351 . S
C988 C989 1.434 . S
C989 C980 1.429 . S
C989 N986 1.350 . S
C989 C988 1.434 . S
C990 C991 1.369 . S
C990 C992 1.419 . S
C990 H994 0.930 . S
C991 C990 1.369 . S
C991 C1000 1.429 . S
C992 C990 1.419 . S
C992 C993 1.363 . S
C992 H995 0.929 . S
C993 C992 1.363 . S
C993 C999 1.428 . S
H994 C990 0.930 . S
H995 C992 0.929 . S
S996 N997 1.613 . S
S996 N998 1.610 . S
N997 S996 1.613 . S
N997 C1000 1.350 . S
N998 S996 1.610 . S
N998 C999 1.351 . S
C999 C993 1.428 . S
C999 N998 1.351 . S
C999 C1000 1.434 . S
C1000 C991 1.429 . S
C1000 N997 1.350 . S
C1000 C999 1.434 . S
C1001 C1002 1.369 . S
C1001 C1003 1.419 . S
C1001 H1005 0.930 . S
C1002 C1001 1.369 . S
C1002 C1011 1.429 . S
C1003 C1001 1.419 . S
C1003 C1004 1.363 . S
C1003 H1006 0.929 . S
C1004 C1003 1.363 . S
C1004 C1010 1.428 . S
H1005 C1001 0.930 . S
H1006 C1003 0.929 . S
S1007 N1008 1.613 . S
S1007 N1009 1.610 . S
N1008 S1007 1.613 . S
N1008 C1011 1.350 . S
N1009 S1007 1.610 . S
N1009 C1010 1.351 . S
C1010 C1004 1.428 . S
C1010 N1009 1.351 . S
C1010 C1011 1.434 . S
C1011 C1002 1.429 . S
C1011 N1008 1.350 . S
C1011 C1010 1.434 . S
C1012 C1013 1.369 . S
C1012 C1014 1.419 . S
C1012 H1016 0.930 . S
C1013 C1012 1.369 . S
C1013 C1022 1.429 . S
C1014 C1012 1.419 . S
C1014 C1015 1.363 . S
C1014 H1017 0.929 . S
C1015 C1014 1.363 . S
C1015 C1021 1.428 . S
H1016 C1012 0.930 . S
H1017 C1014 0.929 . S
S1018 N1019 1.613 . S
S1018 N1020 1.610 . S
N1019 S1018 1.613 . S
N1019 C1022 1.350 . S
N1020 S1018 1.610 . S
N1020 C1021 1.351 . S
C1021 C1015 1.428 . S
C1021 N1020 1.351 . S
C1021 C1022 1.434 . S
C1022 C1013 1.429 . S
C1022 N1019 1.350 . S
C1022 C1021 1.434 . S
C1023 C1024 1.369 . S
C1023 C1025 1.419 . S
C1023 H1027 0.930 . S
C1024 C1023 1.369 . S
C1024 C1033 1.429 . S
C1025 C1023 1.419 . S
C1025 C1026 1.363 . S
C1025 H1028 0.929 . S
C1026 C1025 1.363 . S
C1026 C1032 1.428 . S
H1027 C1023 0.930 . S
H1028 C1025 0.929 . S
S1029 N1030 1.613 . S
S1029 N1031 1.610 . S
N1030 S1029 1.613 . S
N1030 C1033 1.350 . S
N1031 S1029 1.610 . S
N1031 C1032 1.351 . S
C1032 C1026 1.428 . S
C1032 N1031 1.351 . S
C1032 C1033 1.434 . S
C1033 C1024 1.429 . S
C1033 N1030 1.350 . S
C1033 C1032 1.434 . S
C509 C331 2.764 . S
C507 C24 2.730 . S
C520 C321 3.170 . S
C518 C53 3.159 . S
C531 C322 1.178 . S
C529 C82 1.177 . S
C540 C137 0.601 . S
C542 C344 0.732 . S
C551 C184 3.051 . S
C553 C347 3.017 . S
C564 C330 1.185 . S
C562 C202 1.198 . S
C573 C266 0.698 . S
C575 C320 0.658 . S
C584 C293 2.739 . S
C586 C338 2.751 . S
C597 C351 2.873 . S
C595 C2 2.862 . S
C606 C57 1.029 . S
C608 C400 1.099 . S
C619 C378 0.915 . S
C617 C106 0.895 . S
C630 C392 0.783 . S
C628 C143 0.789 . S
C639 C162 0.883 . S
C641 C353 0.875 . S
C652 C406 1.022 1_556 S
C650 C226 1.036 . S
C661 C264 2.515 . S
C663 C362 2.434 . S
C672 C297 0.684 1_554 S
C674 C383 0.708 1_556 S
C683 C26 1.001 . S
C685 C409 0.944 . S
C694 C186 0.368 . S
C696 C393 0.594 . S
C707 C352 2.466 . S
C705 C224 2.472 . S
C718 C384 1.627 . S
C716 C242 1.759 . S
C727 C303 3.292 . S
C729 C375 3.205 . S
C738 C104 2.140 . S
C740 C382 2.125 . S
C751 C369 2.945 . S
C749 C133 2.961 . S
C760 C63 1.515 . S
C762 C361 1.589 . S
C771 C304 2.735 . S
C773 C424 2.753 . S
C782 C173 3.049 . S
C784 C414 3.017 . S
C795 C415 1.177 . S
C793 C223 1.192 . S
C806 C437 0.635 . S
C804 C257 0.714 . S
C815 C64 3.159 . S
C817 C440 3.173 . S
C828 C423 1.172 . S
C826 C103 1.183 . S
C837 C146 0.602 . S
C839 C413 0.720 . S
C848 C13 2.729 . S
C850 C431 2.763 . S
C859 C282 3.293 . S
C861 C444 3.206 . S
C872 C493 0.594 . S
C870 C177 0.361 . S
C881 C213 2.472 . S
C883 C471 2.467 . S
C892 C263 1.758 . S
C894 C485 1.634 . S
C905 C446 1.589 . S
C903 C42 1.515 . S
C914 C93 2.141 . S
C916 C499 2.131 . S
C927 C455 2.943 . S
C925 C144 2.962 . S
C938 C476 0.935 . S
C936 C17 1.008 . S
C949 C502 0.695 . S
C947 C306 0.717 . S
C958 C66 1.051 . S
C960 C486 1.084 . S
C969 C97 0.901 . S
C971 C445 0.914 . S
C982 C477 0.784 . S
C980 C122 0.774 . S
C991 C23 2.865 . S
C993 C468 2.875 . S
C1002 C217 1.037 . S
C1004 C475 1.030 . S
C1015 C462 2.435 . S
C1013 C253 2.516 . S
C1026 C454 0.883 . S
C1024 C183 0.890 . S
