# Generated by pormake.
# Topology hwx, (6,3)-cn, num edge types: 1
# Building blocks:
#     Node 0, Type 0, BuildingBlock: OJICUG_clean_sbu_0, # of connection points: 6
#     Node 1, Type 0, BuildingBlock: OJICUG_clean_sbu_0, # of connection points: 6
#     Node 2, Type 0, BuildingBlock: OJICUG_clean_sbu_0, # of connection points: 6
#     Node 3, Type 0, BuildingBlock: OJICUG_clean_sbu_0, # of connection points: 6
#     Node 4, Type 1, BuildingBlock: WUSLED_clean_sbu_0, # of connection points: 3
#     Node 5, Type 1, BuildingBlock: WUSLED_clean_sbu_0, # of connection points: 3
#     Node 6, Type 1, BuildingBlock: WUSLED_clean_sbu_0, # of connection points: 3
#     Node 7, Type 1, BuildingBlock: WUSLED_clean_sbu_0, # of connection points: 3
#     Node 8, Type 1, BuildingBlock: WUSLED_clean_sbu_0, # of connection points: 3
#     Node 9, Type 1, BuildingBlock: WUSLED_clean_sbu_0, # of connection points: 3
#     Node 10, Type 1, BuildingBlock: WUSLED_clean_sbu_0, # of connection points: 3
#     Node 11, Type 1, BuildingBlock: WUSLED_clean_sbu_0, # of connection points: 3
#     Edge 12, Type (0, 1), BuildingBlock: KIFKEQ_clean_linker_1, # of connection points: 2
#     Edge 13, Type (0, 1), BuildingBlock: KIFKEQ_clean_linker_1, # of connection points: 2
#     Edge 14, Type (0, 1), BuildingBlock: KIFKEQ_clean_linker_1, # of connection points: 2
#     Edge 15, Type (0, 1), BuildingBlock: KIFKEQ_clean_linker_1, # of connection points: 2
#     Edge 16, Type (0, 1), BuildingBlock: KIFKEQ_clean_linker_1, # of connection points: 2
#     Edge 17, Type (0, 1), BuildingBlock: KIFKEQ_clean_linker_1, # of connection points: 2
#     Edge 18, Type (0, 1), BuildingBlock: KIFKEQ_clean_linker_1, # of connection points: 2
#     Edge 19, Type (0, 1), BuildingBlock: KIFKEQ_clean_linker_1, # of connection points: 2
#     Edge 20, Type (0, 1), BuildingBlock: KIFKEQ_clean_linker_1, # of connection points: 2
#     Edge 21, Type (0, 1), BuildingBlock: KIFKEQ_clean_linker_1, # of connection points: 2
#     Edge 22, Type (0, 1), BuildingBlock: KIFKEQ_clean_linker_1, # of connection points: 2
#     Edge 23, Type (0, 1), BuildingBlock: KIFKEQ_clean_linker_1, # of connection points: 2
#     Edge 24, Type (0, 1), BuildingBlock: KIFKEQ_clean_linker_1, # of connection points: 2
#     Edge 25, Type (0, 1), BuildingBlock: KIFKEQ_clean_linker_1, # of connection points: 2
#     Edge 26, Type (0, 1), BuildingBlock: KIFKEQ_clean_linker_1, # of connection points: 2
#     Edge 27, Type (0, 1), BuildingBlock: KIFKEQ_clean_linker_1, # of connection points: 2
#     Edge 28, Type (0, 1), BuildingBlock: KIFKEQ_clean_linker_1, # of connection points: 2
#     Edge 29, Type (0, 1), BuildingBlock: KIFKEQ_clean_linker_1, # of connection points: 2
#     Edge 30, Type (0, 1), BuildingBlock: KIFKEQ_clean_linker_1, # of connection points: 2
#     Edge 31, Type (0, 1), BuildingBlock: KIFKEQ_clean_linker_1, # of connection points: 2
#     Edge 32, Type (0, 1), BuildingBlock: KIFKEQ_clean_linker_1, # of connection points: 2
#     Edge 33, Type (0, 1), BuildingBlock: KIFKEQ_clean_linker_1, # of connection points: 2
#     Edge 34, Type (0, 1), BuildingBlock: KIFKEQ_clean_linker_1, # of connection points: 2
#     Edge 35, Type (0, 1), BuildingBlock: KIFKEQ_clean_linker_1, # of connection points: 2
# Relax obj value: 0.072
# Max RMSD: 0.099
# Mean RMSD: 0.090
data_MOF--net-hwx--node1-OJICUG_clean_sbu_0--node2-WUSLED_clean_sbu_0--edge1-KIFKEQ_clean_linker_1
_symmetry_space_group_name_H-M    P1
_symmetry_Int_Tables_number       1
_symmetry_cell_setting            triclinic
loop_
_symmetry_equiv_pos_as_xyz
'x, y, z'
_cell_length_a     65.828989
_cell_length_b     65.814304
_cell_length_c     29.601592
_cell_angle_alpha  90.403199
_cell_angle_beta   90.373379
_cell_angle_gamma 90.003986
loop_
_atom_site_label
_atom_site_type_symbol
_atom_site_fract_x
_atom_site_fract_y
_atom_site_fract_z
_atom_type_partial_charge
Sc0 Sc 0.23517 0.23795 0.06612 0.0
Sc1 Sc 0.20316 0.20611 1.00062 0.0
Sc2 Sc 0.23735 0.23947 0.94729 0.0
O3 O 0.22522 0.22783 0.00468 0.0
C4 C 0.23388 0.27923 0.00965 0.0
C5 C 0.18731 0.23344 0.08289 0.0
C6 C 0.19046 0.23549 0.91952 0.0
C7 C 0.22997 0.19036 0.08401 0.0
C8 C 0.27676 0.23607 0.01048 0.0
C9 C 0.23286 0.19238 0.92101 0.0
O10 O 0.23351 0.26947 0.0466 0.0
O11 O 0.18442 0.22095 0.05047 0.0
O12 O 0.20803 0.24334 0.9158 0.0
O13 O 0.23794 0.20759 0.09267 0.0
O14 O 0.26815 0.23694 0.97194 0.0
O15 O 0.21932 0.18868 0.95032 0.0
O16 O 0.26682 0.23627 0.04724 0.0
O17 O 0.21723 0.18761 0.05203 0.0
O18 O 0.24075 0.20989 0.91632 0.0
O19 O 0.20471 0.24084 0.09236 0.0
O20 O 0.23526 0.27045 0.97136 0.0
O21 O 0.1864 0.22194 0.94855 0.0
Sc22 Sc 0.27224 0.73875 0.44648 0.0
Sc23 Sc 0.30441 0.70498 0.50505 0.0
Sc24 Sc 0.27026 0.73619 0.56537 0.0
O25 O 0.28231 0.72663 0.50565 0.0
C26 C 0.27369 0.77795 0.51045 0.0
C27 C 0.31992 0.73446 0.42733 0.0
C28 C 0.31735 0.7319 0.59098 0.0
C29 C 0.2769 0.69187 0.42001 0.0
C30 C 0.23078 0.73506 0.50232 0.0
C31 C 0.27535 0.68845 0.58275 0.0
O32 O 0.27455 0.76947 0.47175 0.0
O33 O 0.32297 0.72136 0.45798 0.0
O34 O 0.29974 0.73942 0.59685 0.0
O35 O 0.26892 0.70932 0.41503 0.0
O36 O 0.23941 0.73399 0.54079 0.0
O37 O 0.28867 0.68597 0.5523 0.0
O38 O 0.24068 0.73705 0.46583 0.0
O39 O 0.29 0.68809 0.45067 0.0
O40 O 0.26726 0.70563 0.59116 0.0
O41 O 0.30246 0.74194 0.41921 0.0
O42 O 0.27186 0.76791 0.54683 0.0
O43 O 0.32128 0.71934 0.55935 0.0
Sc44 Sc 0.77019 0.77504 0.94317 0.0
Sc45 Sc 0.80364 0.8058 0.00763 0.0
Sc46 Sc 0.7697 0.77267 0.06215 0.0
O47 O 0.78118 0.78451 0.0043 0.0
C48 C 0.7295 0.77706 1.00166 0.0
C49 C 0.77616 0.82259 0.92625 0.0
C50 C 0.775 0.81958 0.08915 0.0
C51 C 0.8179 0.77871 0.92361 0.0
C52 C 0.77175 0.73332 0.99824 0.0
C53 C 0.81692 0.77595 0.08738 0.0
O54 O 0.73891 0.77714 0.96426 0.0
O55 O 0.78941 0.82478 0.95738 0.0
O56 O 0.76699 0.80213 0.0939 0.0
O57 O 0.80019 0.77195 0.91466 0.0
O58 O 0.77124 0.74187 0.0369 0.0
O59 O 0.82073 0.78951 0.05823 0.0
O60 O 0.77154 0.7433 0.96155 0.0
O61 O 0.82152 0.7907 0.9566 0.0
O62 O 0.79932 0.76831 0.09211 0.0
O63 O 0.76758 0.80565 0.91774 0.0
O64 O 0.73861 0.77563 0.03953 0.0
O65 O 0.78827 0.82327 0.05919 0.0
Sc66 Sc 0.73516 0.27251 0.56602 0.0
Sc67 Sc 0.70296 0.30597 0.50643 0.0
Sc68 Sc 0.73642 0.27361 0.44708 0.0
O69 O 0.72483 0.28404 0.5065 0.0
C70 C 0.77631 0.27525 0.50879 0.0
C71 C 0.73083 0.3196 0.59055 0.0
C72 C 0.73197 0.32129 0.42755 0.0
C73 C 0.68748 0.27731 0.58564 0.0
C74 C 0.73295 0.23256 0.5045 0.0
C75 C 0.6894 0.27827 0.42196 0.0
O76 O 0.76661 0.2738 0.54568 0.0
O77 O 0.71738 0.32312 0.5605 0.0
O78 O 0.73938 0.30379 0.41937 0.0
O79 O 0.70498 0.26998 0.59412 0.0
O80 O 0.7346 0.24218 0.46753 0.0
O81 O 0.68581 0.2915 0.45246 0.0
O82 O 0.73249 0.24147 0.54276 0.0
O83 O 0.68432 0.28997 0.55409 0.0
O84 O 0.7068 0.27021 0.41679 0.0
O85 O 0.73898 0.30224 0.5956 0.0
O86 O 0.76746 0.27583 0.4705 0.0
O87 O 0.71909 0.32448 0.45867 0.0
C88 C 0.24771 0.54423 0.86954 0.0
C89 C 0.26032 0.56112 0.87755 0.0
C90 C 0.25189 0.57466 0.80346 0.0
C91 C 0.26249 0.5761 0.84473 0.0
C92 C 0.23901 0.55791 0.79577 0.0
C93 C 0.23702 0.54277 0.8285 0.0
U94 U 0.24458 0.53032 0.99273 0.0
O95 O 0.22525 0.50867 0.02912 0.0
O96 O 0.25845 0.50564 0.03192 0.0
C97 C 0.24082 0.49777 0.04285 0.0
C98 C 0.24524 0.52846 0.90429 0.0
C99 C 0.23899 0.47566 0.03668 0.0
C100 C 0.23914 0.44534 0.98929 0.0
C101 C 0.24023 0.46654 0.99381 0.0
C102 C 0.23537 0.44235 0.07034 0.0
C103 C 0.23688 0.43299 0.02761 0.0
C104 C 0.23643 0.46346 0.07477 0.0
C105 C 0.24862 0.57508 0.07721 0.0
C106 C 0.26152 0.5761 0.15441 0.0
C107 C 0.23946 0.60291 0.1274 0.0
C108 C 0.23816 0.59327 0.08531 0.0
C109 C 0.25137 0.59459 0.16228 0.0
C110 C 0.26011 0.56637 0.11228 0.0
C111 C 0.24801 0.56618 0.03139 0.0
O112 O 0.26131 0.52505 0.92976 0.0
O113 O 0.22828 0.52948 0.92741 0.0
O114 O 0.2305 0.55846 0.01837 0.0
O115 O 0.26369 0.55506 0.01936 0.0
H116 H 0.26848 0.56278 0.90927 0.0
H117 H 0.27228 0.58897 0.85189 0.0
H118 H 0.23073 0.55636 0.76419 0.0
H119 H 0.2271 0.52994 0.82181 0.0
H120 H 0.24051 0.43862 0.95595 0.0
H121 H 0.24225 0.47577 0.96402 0.0
H122 H 0.23327 0.43335 0.10044 0.0
H123 H 0.23538 0.47028 0.10811 0.0
H124 H 0.27065 0.56922 0.18075 0.0
H125 H 0.23167 0.61726 0.13211 0.0
H126 H 0.22928 0.60027 0.05868 0.0
H127 H 0.26823 0.55225 0.10694 0.0
C128 C 0.96279 0.74923 0.63726 0.0
C129 C 0.94274 0.74381 0.62614 0.0
C130 C 0.93154 0.7535 0.70161 0.0
C131 C 0.9273 0.74583 0.65804 0.0
C132 C 0.9517 0.75887 0.71255 0.0
C133 C 0.96718 0.75673 0.68064 0.0
U134 U 0.9783 0.74614 0.51474 0.0
O135 O 1.00303 0.76089 0.47761 0.0
O136 O 1.00135 0.72761 0.48011 0.0
C137 C 0.01214 0.74355 0.46849 0.0
C138 C 0.97896 0.74773 0.6033 0.0
C139 C 0.03434 0.74249 0.47745 0.0
C140 C 0.067 0.75922 0.48925 0.0
C141 C 0.04588 0.76026 0.4842 0.0
C142 C 0.06556 0.72263 0.48132 0.0
C143 C 0.07712 0.74041 0.48751 0.0
C144 C 0.04444 0.72367 0.47612 0.0
C145 C 0.93431 0.74711 0.42741 0.0
C146 C 0.93327 0.75948 0.35016 0.0
C147 C 0.90662 0.73737 0.37711 0.0
C148 C 0.91625 0.73639 0.41922 0.0
C149 C 0.91482 0.74919 0.34228 0.0
C150 C 0.94297 0.75841 0.39234 0.0
C151 C 0.94288 0.74727 0.47355 0.0
O152 O 0.97949 0.7306 0.58022 0.0
O153 O 0.98112 0.76386 0.57786 0.0
O154 O 0.95303 0.76363 0.48584 0.0
O155 O 0.95137 0.73029 0.48722 0.0
H156 H 0.93902 0.73809 0.59268 0.0
H157 H 0.91204 0.74127 0.64856 0.0
H158 H 0.95549 0.76512 0.74548 0.0
H159 H 0.98254 0.76116 0.68967 0.0
H160 H 0.07544 0.77319 0.49441 0.0
H161 H 0.03867 0.77505 0.48496 0.0
H162 H 0.07289 0.70793 0.47915 0.0
H163 H 0.03607 0.70972 0.4702 0.0
H164 H 0.94009 0.76853 0.32387 0.0
H165 H 0.89231 0.72947 0.37244 0.0
H166 H 0.90927 0.72767 0.44589 0.0
H167 H 0.95698 0.76674 0.39778 0.0
C168 C 0.75927 0.46704 0.14337 0.0
C169 C 0.7652 0.4471 0.13265 0.0
C170 C 0.75594 0.43582 0.20804 0.0
C171 C 0.76367 0.4317 0.1647 0.0
C172 C 0.75012 0.45589 0.21867 0.0
C173 C 0.75179 0.47134 0.1866 0.0
U174 U 0.7582 0.48133 0.02042 0.0
O175 O 0.74257 0.50587 0.98398 0.0
O176 O 0.77578 0.50339 0.98111 0.0
C177 C 0.75968 0.5144 0.97135 0.0
C178 C 0.75992 0.48305 0.10888 0.0
C179 C 0.7614 0.53671 0.97844 0.0
C180 C 0.74547 0.57013 0.98123 0.0
C181 C 0.74391 0.54898 0.97772 0.0
C182 C 0.78206 0.56732 0.98631 0.0
C183 C 0.76457 0.57959 0.9852 0.0
C184 C 0.7805 0.54615 0.98279 0.0
C185 C 0.75257 0.4352 0.93875 0.0
C186 C 0.75888 0.43333 0.85794 0.0
C187 C 0.74254 0.40528 0.89585 0.0
C188 C 0.74365 0.41591 0.93669 0.0
C189 C 0.7504 0.41369 0.85608 0.0
C190 C 0.75999 0.44402 0.89907 0.0
C191 C 0.75446 0.44519 0.98315 0.0
O192 O 0.77617 0.48306 0.08323 0.0
O193 O 0.74297 0.48548 0.08588 0.0
O194 O 0.73887 0.45618 0.99612 0.0
O195 O 0.7721 0.45356 0.99287 0.0
H196 H 0.77087 0.44339 0.09931 0.0
H197 H 0.76859 0.41654 0.15544 0.0
H198 H 0.74383 0.45959 0.25141 0.0
H199 H 0.74694 0.4866 0.19534 0.0
H200 H 0.73167 0.57909 0.9808 0.0
H201 H 0.72897 0.54226 0.97387 0.0
H202 H 0.79702 0.5741 0.98868 0.0
H203 H 0.79433 0.53723 0.98271 0.0
H204 H 0.76511 0.4402 0.82792 0.0
H205 H 0.73553 0.39038 0.89548 0.0
H206 H 0.73774 0.40892 0.96694 0.0
H207 H 0.76689 0.45896 0.90004 0.0
C208 C 0.04179 0.26096 0.3689 0.0
C209 C 0.06043 0.25185 0.37989 0.0
C210 C 0.07281 0.2577 0.30362 0.0
C211 C 0.07572 0.25012 0.34756 0.0
C212 C 0.05409 0.26692 0.29287 0.0
C213 C 0.03872 0.26851 0.32523 0.0
U214 U 0.02758 0.26453 0.49178 0.0
O215 O 0.00551 0.28366 0.52795 0.0
O216 O 1.00311 0.25042 0.53088 0.0
C217 C 0.99489 0.26798 0.5417 0.0
C218 C 0.02583 0.26312 0.4033 0.0
C219 C 0.97276 0.26938 0.53551 0.0
C220 C 0.94257 0.27021 0.48775 0.0
C221 C 0.96376 0.26925 0.49239 0.0
C222 C 0.9393 0.27153 0.5692 0.0
C223 C 0.93008 0.27122 0.52618 0.0
C224 C 0.96041 0.27062 0.57375 0.0
C225 C 0.07298 0.26248 0.57579 0.0
C226 C 0.07828 0.24758 0.65003 0.0
C227 C 0.09986 0.27507 0.62521 0.0
C228 C 0.08907 0.27594 0.58452 0.0
C229 C 0.09491 0.26058 0.65807 0.0
C230 C 0.06741 0.24851 0.60924 0.0
C231 C 0.06353 0.26239 0.53039 0.0
O232 O 0.02302 0.24712 0.42889 0.0
O233 O 0.02625 0.28026 0.42634 0.0
O234 O 0.05535 0.27958 0.5171 0.0
O235 O 0.05277 0.24631 0.51889 0.0
H236 H 0.06318 0.24604 0.41354 0.0
H237 H 0.08975 0.24264 0.35697 0.0
H238 H 0.05139 0.27318 0.25965 0.0
H239 H 0.0245 0.27577 0.31627 0.0
H240 H 0.93596 0.26977 0.45416 0.0
H241 H 0.97311 0.26826 0.46246 0.0
H242 H 0.93019 0.27264 0.59945 0.0
H243 H 0.96711 0.27081 0.60729 0.0
H244 H 0.07414 0.23616 0.67446 0.0
H245 H 0.11233 0.28557 0.63063 0.0
H246 H 0.09364 0.28685 0.55928 0.0
H247 H 0.05504 0.23793 0.60347 0.0
C248 C 0.74841 0.96724 0.63937 0.0
C249 C 0.76071 0.9502 0.63095 0.0
C250 C 0.75307 0.93678 0.70538 0.0
C251 C 0.76312 0.9352 0.66374 0.0
C252 C 0.74052 0.95371 0.71348 0.0
C253 C 0.73828 0.96885 0.68078 0.0
U254 U 0.74452 0.98154 0.51623 0.0
O255 O 0.72473 1.00312 0.48035 0.0
O256 O 0.75786 0.00666 0.47782 0.0
C257 C 0.74006 0.01436 0.46712 0.0
C258 C 0.74568 0.98304 0.60473 0.0
C259 C 0.7379 0.03638 0.47427 0.0
C260 C 0.73641 0.0661 0.52342 0.0
C261 C 0.73818 0.04501 0.51776 0.0
C262 C 0.73399 0.07002 0.44224 0.0
C263 C 0.7343 0.07887 0.48566 0.0
C264 C 0.73577 0.049 0.43667 0.0
C265 C 0.7483 0.93698 0.43092 0.0
C266 C 0.76104 0.93565 0.35396 0.0
C267 C 0.73861 0.90922 0.38071 0.0
C268 C 0.73753 0.91894 0.42271 0.0
C269 C 0.75059 0.9173 0.34601 0.0
C270 C 0.75985 0.94546 0.39601 0.0
C271 C 0.74798 0.94587 0.47678 0.0
O272 O 0.7616 0.98658 0.57934 0.0
O273 O 0.72861 0.98198 0.58156 0.0
O274 O 0.7305 0.95338 0.4901 0.0
O275 O 0.76365 0.95712 0.48878 0.0
H276 H 0.76843 0.94844 0.59896 0.0
H277 H 0.77264 0.9222 0.65626 0.0
H278 H 0.73267 0.95538 0.74533 0.0
H279 H 0.72862 0.9818 0.6878 0.0
H280 H 0.73652 0.07237 0.55733 0.0
H281 H 0.73981 0.03544 0.54721 0.0
H282 H 0.73275 0.07937 0.41239 0.0
H283 H 0.73562 0.04259 0.40284 0.0
H284 H 0.77023 0.94235 0.32776 0.0
H285 H 0.7306 0.89498 0.37597 0.0
H286 H 0.7286 0.91211 0.44921 0.0
H287 H 0.76822 0.95944 0.40142 0.0
C288 C 0.54222 0.2487 0.87067 0.0
C289 C 0.56242 0.24349 0.8808 0.0
C290 C 0.57275 0.25256 0.80467 0.0
C291 C 0.57752 0.2453 0.84806 0.0
C292 C 0.55248 0.25778 0.79471 0.0
C293 C 0.53734 0.25582 0.82743 0.0
U294 U 0.52814 0.24705 0.99406 0.0
O295 O 0.50373 0.26204 0.03225 0.0
O296 O 0.50579 0.22875 0.0309 0.0
C297 C 0.49534 0.24474 0.04391 0.0
C298 C 0.5264 0.24744 0.90552 0.0
C299 C 0.47318 0.24338 0.03793 0.0
C300 C 0.44286 0.24274 0.99058 0.0
C301 C 0.46405 0.24389 0.99498 0.0
C302 C 0.43986 0.24046 0.07192 0.0
C303 C 0.43049 0.24112 0.02909 0.0
C304 C 0.46097 0.24159 0.07623 0.0
C305 C 0.57273 0.24967 0.07919 0.0
C306 C 0.57375 0.26284 0.1562 0.0
C307 C 0.60031 0.24031 0.12981 0.0
C308 C 0.59074 0.23897 0.08765 0.0
C309 C 0.5921 0.25248 0.16441 0.0
C310 C 0.5641 0.26139 0.11399 0.0
C311 C 0.56398 0.24916 0.0332 0.0
O312 O 0.52632 0.23061 0.92921 0.0
O313 O 0.52429 0.26388 0.93052 0.0
O314 O 0.55355 0.26522 0.0207 0.0
O315 O 0.55561 0.23191 0.02037 0.0
H316 H 0.56654 0.2382 0.91421 0.0
H317 H 0.59301 0.24144 0.85703 0.0
H318 H 0.54829 0.26327 0.76152 0.0
H319 H 0.52186 0.26 0.81907 0.0
H320 H 0.43614 0.24346 0.95714 0.0
H321 H 0.47329 0.24528 0.96501 0.0
H322 H 0.43087 0.23887 0.10221 0.0
H323 H 0.46778 0.24107 0.10963 0.0
H324 H 0.56694 0.27217 0.18231 0.0
H325 H 0.61455 0.23235 0.13479 0.0
H326 H 0.59768 0.22991 0.06122 0.0
H327 H 0.55011 0.2697 0.10837 0.0
C328 C 0.25747 0.04538 0.37128 0.0
C329 C 0.2486 0.0641 0.38263 0.0
C330 C 0.25387 0.07636 0.30605 0.0
C331 C 0.24671 0.07938 0.35032 0.0
C332 C 0.26288 0.05756 0.29498 0.0
C333 C 0.26463 0.04222 0.32732 0.0
U334 U 0.26139 0.0303 0.49393 0.0
O335 O 0.24729 0.00552 0.53201 0.0
O336 O 0.2805 0.00769 0.5285 0.0
C337 C 0.2648 0.99674 0.54089 0.0
C338 C 0.25966 0.02933 0.4054 0.0
C339 C 0.26611 0.97449 0.53263 0.0
C340 C 0.24971 0.94159 0.52184 0.0
C341 C 0.24847 0.96274 0.52601 0.0
C342 C 0.28624 0.94342 0.53033 0.0
C343 C 0.26859 0.93165 0.52433 0.0
C344 C 0.285 0.96457 0.53467 0.0
C345 C 0.25972 0.07456 0.58055 0.0
C346 C 0.24748 0.0758 0.65791 0.0
C347 C 0.2697 0.10228 0.63056 0.0
C348 C 0.27054 0.09258 0.58851 0.0
C349 C 0.25792 0.09419 0.66558 0.0
C350 C 0.24842 0.06602 0.61578 0.0
C351 C 0.25956 0.06584 0.53454 0.0
O352 O 0.27687 0.02958 0.42815 0.0
O353 O 0.24372 0.0265 0.43118 0.0
O354 O 0.2434 0.0553 0.52263 0.0
O355 O 0.27667 0.05768 0.52072 0.0
H356 H 0.24307 0.0669 0.41651 0.0
H357 H 0.23941 0.09348 0.35998 0.0
H358 H 0.26884 0.05478 0.2615 0.0
H359 H 0.27168 0.02792 0.31807 0.0
H360 H 0.23583 0.933 0.51676 0.0
H361 H 0.23362 0.9698 0.52471 0.0
H362 H 0.301 0.93623 0.53301 0.0
H363 H 0.29885 0.97311 0.54051 0.0
H364 H 0.23845 0.06907 0.68434 0.0
H365 H 0.27769 0.11655 0.63508 0.0
H366 H 0.27927 0.09946 0.56173 0.0
H367 H 0.24002 0.05204 0.61054 0.0
C368 C 0.46497 0.76439 0.14327 0.0
C369 C 0.44469 0.76936 0.13334 0.0
C370 C 0.4347 0.7605 0.20978 0.0
C371 C 0.42972 0.76755 0.16635 0.0
C372 C 0.45504 0.7555 0.21955 0.0
C373 C 0.47005 0.75748 0.18657 0.0
U374 U 0.47882 0.76366 0.01972 0.0
O375 O 0.50005 0.78225 0.98037 0.0
O376 O 0.50403 0.74917 0.98332 0.0
C377 C 0.5115 0.7666 0.96971 0.0
C378 C 0.48066 0.76562 0.10815 0.0
C379 C 0.53347 0.76936 0.97654 0.0
C380 C 0.56337 0.77085 0.02509 0.0
C381 C 0.54232 0.76859 0.01974 0.0
C382 C 0.56679 0.77487 0.94419 0.0
C383 C 0.57587 0.77399 0.98731 0.0
C384 C 0.54581 0.77258 0.93892 0.0
C385 C 0.43432 0.75584 0.93559 0.0
C386 C 0.42824 0.76787 0.8591 0.0
C387 C 0.41126 0.73757 0.88537 0.0
C388 C 0.42097 0.73962 0.92722 0.0
C389 C 0.41459 0.75179 0.85097 0.0
C390 C 0.43808 0.76985 0.901 0.0
C391 C 0.44317 0.75821 0.98128 0.0
O392 O 0.4837 0.74872 0.08526 0.0
O393 O 0.47979 0.78179 0.08235 0.0
O394 O 0.45041 0.77622 0.99224 0.0
O395 O 0.45463 0.74315 0.99537 0.0
H396 H 0.44039 0.77447 0.09989 0.0
H397 H 0.41416 0.77123 0.15756 0.0
H398 H 0.45936 0.75015 0.25277 0.0
H399 H 0.4856 0.75346 0.19477 0.0
H400 H 0.56983 0.77029 0.05879 0.0
H401 H 0.53296 0.76617 0.04921 0.0
H402 H 0.57595 0.77693 0.91432 0.0
H403 H 0.53922 0.77314 0.9053 0.0
H404 H 0.43126 0.77896 0.83312 0.0
H405 H 0.40063 0.72517 0.88045 0.0
H406 H 0.41775 0.72871 0.95347 0.0
H407 H 0.44838 0.78248 0.90645 0.0
H408 H 0.18528 0.26338 0.14768 0.0
H409 H 0.14971 0.21565 0.0848 0.0
H410 H 0.15726 0.2709 0.19844 0.0
H411 H 0.12201 0.22268 0.13649 0.0
H412 H 0.06908 0.24955 0.21272 0.0
H413 H 0.09605 0.24584 0.15734 0.0
H414 H 0.14087 0.25683 0.26201 0.0
H415 H 0.11393 0.26178 0.31666 0.0
C416 C 0.1715 0.25447 0.14464 0.0
C417 C 0.16983 0.23885 0.11216 0.0
C418 C 0.15544 0.25871 0.174 0.0
C419 C 0.13735 0.24733 0.17191 0.0
C420 C 0.13555 0.23198 0.13879 0.0
C421 C 0.15154 0.22786 0.10921 0.0
C422 C 0.08467 0.25153 0.22381 0.0
C423 C 0.08926 0.25589 0.26934 0.0
C424 C 0.10018 0.24913 0.19209 0.0
C425 C 0.12072 0.25092 0.20509 0.0
C426 C 0.12527 0.25557 0.2505 0.0
C427 C 0.10977 0.2581 0.2821 0.0
H428 H 0.24519 0.68567 0.6463 0.0
H429 H 0.29363 0.65113 0.58451 0.0
H430 H 0.23863 0.65747 0.6975 0.0
H431 H 0.28699 0.62311 0.63555 0.0
H432 H 0.28727 0.59145 0.77428 0.0
H433 H 0.29166 0.61831 0.71878 0.0
H434 H 0.22672 0.62075 0.69815 0.0
H435 H 0.22229 0.59388 0.75418 0.0
C436 C 0.25432 0.67205 0.6433 0.0
C437 C 0.27003 0.67078 0.61137 0.0
C438 C 0.25048 0.65586 0.67252 0.0
C439 C 0.2624 0.63815 0.67075 0.0
C440 C 0.27773 0.63667 0.6381 0.0
C441 C 0.28144 0.65273 0.60866 0.0
C442 C 0.27392 0.59774 0.75796 0.0
C443 C 0.25444 0.59059 0.76863 0.0
C444 C 0.27645 0.613 0.7259 0.0
C445 C 0.25953 0.6216 0.70403 0.0
C446 C 0.24002 0.61447 0.71464 0.0
C447 C 0.2375 0.599 0.7464 0.0
H448 H 0.85617 0.79 0.09202 0.0
H449 H 0.81487 0.74791 0.15519 0.0
H450 H 0.88197 0.78205 0.14866 0.0
H451 H 0.84048 0.74034 0.21212 0.0
H452 H 0.89488 0.71996 0.2927 0.0
H453 H 0.87316 0.72477 0.2265 0.0
H454 H 0.88697 0.78895 0.2286 0.0
H455 H 0.90872 0.7841 0.29452 0.0
C456 C 0.85261 0.77894 0.11771 0.0
C457 C 0.83333 0.76971 0.11911 0.0
C458 C 0.86738 0.77448 0.15036 0.0
C459 C 0.86328 0.76065 0.18514 0.0
C460 C 0.84427 0.75089 0.18556 0.0
C461 C 0.82951 0.75535 0.15298 0.0
C462 C 0.89335 0.73507 0.27885 0.0
C463 C 0.90343 0.75166 0.29909 0.0
C464 C 0.88089 0.73784 0.24095 0.0
C465 C 0.87818 0.75727 0.2224 0.0
C466 C 0.8889 0.77373 0.2416 0.0
C467 C 0.90138 0.77095 0.27946 0.0
H468 H 0.71026 0.35496 0.60875 0.0
H469 H 0.76399 0.3212 0.64644 0.0
H470 H 0.71708 0.37927 0.66956 0.0
H471 H 0.77111 0.34578 0.70618 0.0
H472 H 0.75924 0.37351 0.84553 0.0
H473 H 0.75625 0.35277 0.77778 0.0
H474 H 0.7387 0.40571 0.70131 0.0
H475 H 0.74091 0.42646 0.77017 0.0
C476 C 0.72375 0.35294 0.62939 0.0
C477 C 0.7364 0.33594 0.62313 0.0
C478 C 0.72771 0.36695 0.66418 0.0
C479 C 0.74449 0.36434 0.69325 0.0
C480 C 0.75777 0.34799 0.68518 0.0
C481 C 0.75373 0.33393 0.65074 0.0
C482 C 0.75467 0.38076 0.81434 0.0
C483 C 0.75007 0.4016 0.81342 0.0
C484 C 0.75322 0.36889 0.77524 0.0
C485 C 0.74726 0.37754 0.73393 0.0
C486 C 0.74315 0.39852 0.73264 0.0
C487 C 0.7446 0.41045 0.77197 0.0
H488 H 0.65073 0.29388 0.41601 0.0
H489 H 0.6909 0.25007 0.3537 0.0
H490 H 0.62494 0.28643 0.35862 0.0
H491 H 0.66539 0.24302 0.29615 0.0
H492 H 0.61112 0.22329 0.21478 0.0
H493 H 0.63251 0.22819 0.28157 0.0
H494 H 0.62016 0.29264 0.27846 0.0
H495 H 0.59864 0.28769 0.21197 0.0
C496 C 0.65404 0.28258 0.39034 0.0
C497 C 0.67299 0.27268 0.38944 0.0
C498 C 0.63929 0.2784 0.35727 0.0
C499 C 0.6431 0.26418 0.32263 0.0
C500 C 0.6618 0.25387 0.3226 0.0
C501 C 0.67653 0.25804 0.35554 0.0
C502 C 0.61289 0.23848 0.22854 0.0
C503 C 0.6033 0.25512 0.20785 0.0
C504 C 0.62517 0.2413 0.26678 0.0
C505 C 0.62823 0.26084 0.28518 0.0
C506 C 0.61797 0.27736 0.26555 0.0
C507 C 0.60563 0.27452 0.22736 0.0
H508 H 0.21836 0.15328 0.91643 0.0
H509 H 0.26067 0.19417 0.85267 0.0
H510 H 0.22587 0.12742 0.85961 0.0
H511 H 0.2678 0.1685 0.79556 0.0
H512 H 0.28745 0.11387 0.71472 0.0
H513 H 0.28301 0.13566 0.78098 0.0
H514 H 0.21871 0.12246 0.77977 0.0
H515 H 0.22319 0.10064 0.71379 0.0
C516 C 0.22937 0.15674 0.89056 0.0
C517 C 0.23879 0.17592 0.88907 0.0
C518 C 0.23358 0.14192 0.85781 0.0
C519 C 0.24734 0.1459 0.82283 0.0
C520 C 0.25729 0.16481 0.82228 0.0
C521 C 0.25308 0.17962 0.85496 0.0
C522 C 0.27239 0.11555 0.72878 0.0
C523 C 0.25565 0.10562 0.70878 0.0
C524 C 0.26984 0.12805 0.76672 0.0
C525 C 0.25048 0.13095 0.78552 0.0
C526 C 0.23388 0.12039 0.76656 0.0
C527 C 0.23644 0.10786 0.72867 0.0
H528 H 0.31881 0.75549 0.34774 0.0
H529 H 0.36037 0.72666 0.44097 0.0
H530 H 0.34687 0.76254 0.2971 0.0
H531 H 0.38853 0.7343 0.39102 0.0
H532 H 0.42903 0.72836 0.2663 0.0
H533 H 0.4018 0.72337 0.32043 0.0
H534 H 0.37684 0.78203 0.28584 0.0
H535 H 0.4039 0.78676 0.23097 0.0
C536 C 0.33397 0.75093 0.35781 0.0
C537 C 0.33726 0.74039 0.39838 0.0
C538 C 0.35012 0.75506 0.32879 0.0
C539 C 0.37002 0.7489 0.33974 0.0
C540 C 0.37338 0.73891 0.38098 0.0
C541 C 0.35722 0.73465 0.40983 0.0
C542 C 0.41784 0.74028 0.27063 0.0
C543 C 0.4186 0.75793 0.24429 0.0
C544 C 0.40223 0.73745 0.30177 0.0
C545 C 0.38705 0.75229 0.30764 0.0
C546 C 0.38804 0.77011 0.28174 0.0
C547 C 0.40357 0.77286 0.25035 0.0
H548 H 0.74554 0.82621 0.86332 0.0
H549 H 0.79594 0.85914 0.92302 0.0
H550 H 0.7393 0.85449 0.81203 0.0
H551 H 0.7896 0.8873 0.87184 0.0
H552 H 0.78851 0.91923 0.73318 0.0
H553 H 0.7931 0.89229 0.78858 0.0
H554 H 0.72842 0.89131 0.81183 0.0
H555 H 0.7238 0.91821 0.75591 0.0
C556 C 0.75519 0.8395 0.86579 0.0
C557 C 0.77131 0.84031 0.89723 0.0
C558 C 0.75154 0.85574 0.83653 0.0
C559 C 0.76404 0.87306 0.83773 0.0
C560 C 0.77986 0.87405 0.86975 0.0
C561 C 0.7834 0.85793 0.89927 0.0
C562 C 0.77527 0.91324 0.75005 0.0
C563 C 0.75579 0.9208 0.74013 0.0
C564 C 0.77791 0.89794 0.78206 0.0
C565 C 0.76112 0.88971 0.80463 0.0
C566 C 0.74162 0.89728 0.79479 0.0
C567 C 0.739 0.91277 0.76309 0.0
H568 H 0.8585 0.78696 0.93457 0.0
H569 H 0.81582 0.75798 0.84304 0.0
H570 H 0.88594 0.77995 0.88177 0.0
H571 H 0.84334 0.75086 0.79058 0.0
H572 H 0.89259 0.76663 0.68624 0.0
H573 H 0.86543 0.77116 0.7408 0.0
H574 H 0.9056 0.75155 0.84781 0.0
H575 H 0.93278 0.74664 0.79308 0.0
C576 C 0.85496 0.77896 0.90341 0.0
C577 C 0.83487 0.77314 0.89306 0.0
C578 C 0.87073 0.77485 0.87325 0.0
C579 C 0.8668 0.76495 0.83188 0.0
C580 C 0.84682 0.75876 0.82192 0.0
C581 C 0.83106 0.76273 0.85218 0.0
C582 C 0.89561 0.76298 0.72126 0.0
C583 C 0.91492 0.75621 0.73514 0.0
C584 C 0.88001 0.76562 0.75257 0.0
C585 C 0.88334 0.76167 0.79862 0.0
C586 C 0.90263 0.75493 0.81262 0.0
C587 C 0.91822 0.75217 0.78124 0.0
H588 H 0.72296 0.36172 0.43864 0.0
H589 H 0.75371 0.31991 0.34889 0.0
H590 H 0.72984 0.38944 0.3867 0.0
H591 H 0.76067 0.34771 0.29726 0.0
H592 H 0.74381 0.39655 0.19213 0.0
H593 H 0.73984 0.36926 0.24641 0.0
H594 H 0.75803 0.40991 0.35439 0.0
H595 H 0.76244 0.43724 0.29992 0.0
C596 C 0.73135 0.35844 0.40809 0.0
C597 C 0.73767 0.3385 0.39793 0.0
C598 C 0.73537 0.37438 0.37842 0.0
C599 C 0.74568 0.37075 0.33773 0.0
C600 C 0.75245 0.35094 0.32807 0.0
C601 C 0.74857 0.33503 0.35787 0.0
C602 C 0.7473 0.39966 0.22731 0.0
C603 C 0.75355 0.41915 0.24149 0.0
C604 C 0.74498 0.38398 0.25846 0.0
C605 C 0.74869 0.38739 0.30469 0.0
C606 C 0.75487 0.40686 0.31903 0.0
C607 C 0.75733 0.42253 0.28779 0.0
H608 H 0.15329 0.21764 0.90421 0.0
H609 H 0.19155 0.26685 0.8594 0.0
H610 H 0.12922 0.22498 0.84349 0.0
H611 H 0.16731 0.2744 0.79955 0.0
H612 H 0.13626 0.26218 0.66353 0.0
H613 H 0.15778 0.25784 0.72962 0.0
H614 H 0.10466 0.24909 0.81217 0.0
H615 H 0.08295 0.25347 0.74551 0.0
C616 C 0.15642 0.23024 0.88195 0.0
C617 C 0.17453 0.24148 0.88642 0.0
C618 C 0.14256 0.23449 0.8472 0.0
C619 C 0.14646 0.25011 0.81625 0.0
C620 C 0.16405 0.26197 0.82216 0.0
C621 C 0.17792 0.25769 0.8567 0.0
C622 C 0.12909 0.25967 0.69584 0.0
C623 C 0.10784 0.25834 0.69921 0.0
C624 C 0.14146 0.25718 0.73384 0.0
C625 C 0.13297 0.25328 0.77635 0.0
C626 C 0.1117 0.25192 0.77986 0.0
C627 C 0.09927 0.25442 0.74169 0.0
H628 H 0.24921 0.69374 0.35079 0.0
H629 H 0.29209 0.65303 0.41447 0.0
H630 H 0.24218 0.66826 0.29311 0.0
H631 H 0.28466 0.6273 0.35696 0.0
H632 H 0.28642 0.60083 0.21049 0.0
H633 H 0.2913 0.62243 0.27691 0.0
H634 H 0.22697 0.63546 0.27859 0.0
H635 H 0.22215 0.61397 0.21189 0.0
C636 C 0.25698 0.67927 0.35289 0.0
C637 C 0.27136 0.67556 0.38722 0.0
C638 C 0.25282 0.66456 0.31988 0.0
C639 C 0.26288 0.64572 0.3203 0.0
C640 C 0.27683 0.64175 0.35533 0.0
C641 C 0.281 0.65648 0.38845 0.0
C642 C 0.27326 0.60799 0.22557 0.0
C643 C 0.25392 0.60583 0.20569 0.0
C644 C 0.27605 0.62037 0.2637 0.0
C645 C 0.25955 0.63083 0.28289 0.0
C646 C 0.24007 0.62794 0.26413 0.0
C647 C 0.2373 0.61562 0.22595 0.0
H648 H 0.31555 0.75885 0.66186 0.0
H649 H 0.35612 0.71666 0.59545 0.0
H650 H 0.341 0.76482 0.72041 0.0
H651 H 0.38169 0.72293 0.65385 0.0
H652 H 0.40699 0.71763 0.80042 0.0
H653 H 0.38515 0.71444 0.73394 0.0
H654 H 0.37459 0.77922 0.73653 0.0
H655 H 0.39601 0.78232 0.80392 0.0
C656 C 0.32998 0.75103 0.65935 0.0
C657 C 0.33366 0.73711 0.62404 0.0
C658 C 0.34464 0.75457 0.69284 0.0
C659 C 0.36335 0.74427 0.69194 0.0
C660 C 0.36732 0.7309 0.65584 0.0
C661 C 0.35268 0.72739 0.62222 0.0
C662 C 0.40006 0.7312 0.7867 0.0
C663 C 0.40311 0.7502 0.80766 0.0
C664 C 0.38771 0.72941 0.7483 0.0
C665 C 0.37805 0.74657 0.73002 0.0
C666 C 0.38164 0.76568 0.75009 0.0
C667 C 0.39408 0.76748 0.78841 0.0
H668 H 0.74726 0.8179 0.15756 0.0
H669 H 0.79023 0.8584 0.09476 0.0
H670 H 0.74045 0.84345 0.2151 0.0
H671 H 0.78303 0.88417 0.15207 0.0
H672 H 0.78545 0.91063 0.29838 0.0
H673 H 0.78996 0.88892 0.23217 0.0
H674 H 0.72554 0.87638 0.22965 0.0
H675 H 0.72107 0.89801 0.29612 0.0
C676 C 0.75508 0.83234 0.1556 0.0
C677 C 0.76943 0.83597 0.12158 0.0
C678 C 0.75105 0.84709 0.18853 0.0
C679 C 0.76124 0.86586 0.18834 0.0
C680 C 0.77512 0.86976 0.15356 0.0
C681 C 0.77916 0.85501 0.12053 0.0
C682 C 0.77219 0.90357 0.28317 0.0
C683 C 0.75293 0.90593 0.30274 0.0
C684 C 0.77477 0.89111 0.24516 0.0
C685 C 0.75813 0.88076 0.22576 0.0
C686 C 0.73874 0.88381 0.24426 0.0
C687 C 0.73617 0.89622 0.28231 0.0
H688 H 0.68872 0.25681 0.66598 0.0
H689 H 0.64701 0.28532 0.57256 0.0
H690 H 0.66077 0.25019 0.71723 0.0
H691 H 0.61897 0.27813 0.62318 0.0
H692 H 0.57865 0.28464 0.74798 0.0
H693 H 0.6059 0.28942 0.69379 0.0
H694 H 0.63072 0.2308 0.72916 0.0
H695 H 0.60362 0.22626 0.784 0.0
C696 C 0.67355 0.26141 0.65601 0.0
C697 C 0.67019 0.27172 0.61516 0.0
C698 C 0.65746 0.25753 0.6854 0.0
C699 C 0.63756 0.26371 0.67458 0.0
C700 C 0.63413 0.2735 0.63312 0.0
C701 C 0.65023 0.2775 0.60388 0.0
C702 C 0.58981 0.27268 0.74384 0.0
C703 C 0.58897 0.25508 0.77036 0.0
C704 C 0.60544 0.27539 0.71266 0.0
C705 C 0.62057 0.2605 0.70694 0.0
C706 C 0.61956 0.24276 0.73311 0.0
C707 C 0.60399 0.24012 0.76451 0.0
H708 H 0.26022 0.18801 0.14792 0.0
H709 H 0.21125 0.15323 0.08761 0.0
H710 H 0.26742 0.1601 0.19915 0.0
H711 H 0.21801 0.12564 0.13979 0.0
H712 H 0.24478 0.07246 0.21567 0.0
H713 H 0.24095 0.09931 0.16007 0.0
H714 H 0.25335 0.14431 0.26364 0.0
H715 H 0.2584 0.11746 0.31849 0.0
C716 C 0.25097 0.17443 0.14557 0.0
C717 C 0.2351 0.17294 0.11365 0.0
C718 C 0.25502 0.15844 0.17519 0.0
C719 C 0.24323 0.1406 0.17394 0.0
C720 C 0.22761 0.13899 0.14143 0.0
C721 C 0.22366 0.15491 0.11158 0.0
C722 C 0.24704 0.08806 0.22645 0.0
C723 C 0.25185 0.09273 0.27173 0.0
C724 C 0.24457 0.1035 0.19463 0.0
C725 C 0.24674 0.12405 0.20727 0.0
C726 C 0.25179 0.12869 0.25242 0.0
C727 C 0.25438 0.11326 0.28414 0.0
H728 H 0.23607 0.30595 0.93898 0.0
H729 H 0.23026 0.30383 0.08429 0.0
H730 H 0.23665 0.34295 0.94243 0.0
H731 H 0.23043 0.34077 0.08749 0.0
H732 H 0.25558 0.40522 0.08207 0.0
H733 H 0.25419 0.36833 0.07703 0.0
H734 H 0.21571 0.3726 0.9587 0.0
H735 H 0.21715 0.40966 0.96373 0.0
C736 C 0.23476 0.31333 0.97165 0.0
C737 C 0.23324 0.30181 0.01139 0.0
C738 C 0.23499 0.33458 0.97357 0.0
C739 C 0.2337 0.34486 0.01525 0.0
C740 C 0.23181 0.33336 0.05487 0.0
C741 C 0.23159 0.31213 0.05298 0.0
C742 C 0.24667 0.39832 0.05517 0.0
C743 C 0.23636 0.41043 0.02348 0.0
C744 C 0.24586 0.37714 0.0523 0.0
C745 C 0.23471 0.36746 0.01766 0.0
C746 C 0.2246 0.37955 0.98556 0.0
C747 C 0.22543 0.40079 0.98842 0.0
H748 H 0.20395 0.72871 0.57144 0.0
H749 H 0.20632 0.74057 0.42808 0.0
H750 H 0.16695 0.72974 0.56821 0.0
H751 H 0.16935 0.74135 0.42495 0.0
H752 H 0.10484 0.76529 0.44731 0.0
H753 H 0.14179 0.76344 0.4514 0.0
H754 H 0.13751 0.71093 0.53751 0.0
H755 H 0.10047 0.71312 0.53444 0.0
C756 C 0.19663 0.73141 0.53917 0.0
C757 C 0.20821 0.73464 0.50005 0.0
C758 C 0.17538 0.7319 0.53732 0.0
C759 C 0.16519 0.73573 0.49637 0.0
C760 C 0.17673 0.73866 0.45716 0.0
C761 C 0.19796 0.73807 0.45894 0.0
C762 C 0.11176 0.75348 0.46753 0.0
C763 C 0.09968 0.73938 0.49063 0.0
C764 C 0.13296 0.75227 0.46942 0.0
C765 C 0.14261 0.73698 0.49461 0.0
C766 C 0.13055 0.72297 0.51805 0.0
C767 C 0.10933 0.72412 0.51596 0.0
H768 H 0.76959 0.70884 0.92287 0.0
H769 H 0.77445 0.70646 0.06848 0.0
H770 H 0.76871 0.67185 0.91956 0.0
H771 H 0.77325 0.6695 0.06504 0.0
H772 H 0.78986 0.60286 0.03848 0.0
H773 H 0.79277 0.63984 0.04067 0.0
H774 H 0.74556 0.64439 0.93923 0.0
H775 H 0.74313 0.60747 0.93592 0.0
C776 C 0.77052 0.70048 0.95419 0.0
C777 C 0.77203 0.71073 0.99596 0.0
C778 C 0.76987 0.67924 0.95228 0.0
C779 C 0.77081 0.66768 0.99204 0.0
C780 C 0.77269 0.6779 0.03373 0.0
C781 C 0.77326 0.69914 0.03568 0.0
C782 C 0.78023 0.61174 0.01636 0.0
C783 C 0.76623 0.60216 0.98708 0.0
C784 C 0.78176 0.63295 0.01793 0.0
C785 C 0.7694 0.6451 0.99012 0.0
C786 C 0.75547 0.63551 0.96075 0.0
C787 C 0.7539 0.61432 0.95927 0.0
H788 H 0.80298 0.27541 0.43777 0.0
H789 H 0.80098 0.27615 0.58374 0.0
H790 H 0.83998 0.2745 0.44091 0.0
H791 H 0.83791 0.27567 0.58672 0.0
H792 H 0.90222 0.25078 0.57668 0.0
H793 H 0.86535 0.25236 0.57174 0.0
H794 H 0.86982 0.29446 0.46092 0.0
H795 H 0.90685 0.29279 0.46579 0.0
C796 C 0.81039 0.27554 0.47055 0.0
C797 C 0.7989 0.27573 0.51051 0.0
C798 C 0.83164 0.27512 0.47231 0.0
C799 C 0.84196 0.27488 0.51406 0.0
C800 C 0.83048 0.27546 0.55397 0.0
C801 C 0.80926 0.27586 0.55223 0.0
C802 C 0.89536 0.2605 0.55145 0.0
C803 C 0.90752 0.27177 0.52184 0.0
C804 C 0.87419 0.26143 0.54865 0.0
C805 C 0.86456 0.27368 0.51618 0.0
C806 C 0.87671 0.28472 0.48606 0.0
C807 C 0.89795 0.28376 0.48883 0.0
H808 H 0.7328 0.20603 0.5757 0.0
H809 H 0.73089 0.20778 0.42974 0.0
H810 H 0.73201 0.169 0.57286 0.0
H811 H 0.73039 0.17081 0.42708 0.0
H812 H 0.70966 0.10509 0.43916 0.0
H813 H 0.70845 0.14202 0.44485 0.0
H814 H 0.75405 0.14061 0.55032 0.0
H815 H 0.75537 0.10362 0.54446 0.0
C816 C 0.73218 0.19857 0.54299 0.0
C817 C 0.73193 0.20998 0.50294 0.0
C818 C 0.73186 0.17731 0.54141 0.0
C819 C 0.73116 0.16692 0.49976 0.0
C820 C 0.73068 0.17832 0.45975 0.0
C821 C 0.7311 0.19956 0.4613 0.0
C822 C 0.71951 0.11264 0.46343 0.0
C823 C 0.73272 0.10135 0.49113 0.0
C824 C 0.71881 0.13383 0.4667 0.0
C825 C 0.73124 0.1443 0.49784 0.0
C826 C 0.74411 0.13301 0.52631 0.0
C827 C 0.74485 0.11179 0.52297 0.0
H828 H 0.30366 0.23715 0.94006 0.0
H829 H 0.30119 0.23377 0.08574 0.0
H830 H 0.34062 0.23813 0.94386 0.0
H831 H 0.33814 0.23433 0.08933 0.0
H832 H 0.40239 0.26023 0.08216 0.0
H833 H 0.36553 0.25815 0.07728 0.0
H834 H 0.37047 0.21794 0.9619 0.0
H835 H 0.40747 0.22006 0.96677 0.0
C836 C 0.31096 0.23644 0.97291 0.0
C837 C 0.29934 0.2355 0.01262 0.0
C838 C 0.3322 0.2369 0.97504 0.0
C839 C 0.34239 0.23643 0.01691 0.0
C840 C 0.3308 0.23508 0.05654 0.0
C841 C 0.30957 0.23463 0.05444 0.0
C842 C 0.39564 0.2508 0.05594 0.0
C843 C 0.40793 0.24023 0.02501 0.0
C844 C 0.37447 0.24959 0.05319 0.0
C845 C 0.36499 0.23776 0.0194 0.0
C846 C 0.37725 0.22736 0.98808 0.0
C847 C 0.39847 0.22859 0.99083 0.0
H848 H 0.2682 0.80232 0.58498 0.0
H849 H 0.28029 0.80486 0.44172 0.0
H850 H 0.26765 0.83933 0.58841 0.0
H851 H 0.27948 0.84184 0.44525 0.0
H852 H 0.29616 0.90817 0.47854 0.0
H853 H 0.29841 0.87112 0.47616 0.0
H854 H 0.24574 0.86707 0.56187 0.0
H855 H 0.24382 0.90405 0.56524 0.0
C856 C 0.2708 0.81072 0.55422 0.0
C857 C 0.27423 0.80052 0.51304 0.0
C858 C 0.27035 0.83196 0.55617 0.0
C859 C 0.27342 0.84355 0.51706 0.0
C860 C 0.27723 0.83338 0.47607 0.0
C861 C 0.27758 0.81214 0.47404 0.0
C862 C 0.28515 0.89936 0.49711 0.0
C863 C 0.26979 0.90908 0.52203 0.0
C864 C 0.28633 0.87813 0.49543 0.0
C865 C 0.27227 0.86613 0.51888 0.0
C866 C 0.25695 0.87586 0.54383 0.0
C867 C 0.2557 0.89706 0.54532 0.0
H868 H 0.70346 0.77515 0.07359 0.0
H869 H 0.70425 0.7813 0.92827 0.0
H870 H 0.66643 0.7757 0.07209 0.0
H871 H 0.66728 0.78151 0.92687 0.0
H872 H 0.60128 0.80025 0.94378 0.0
H873 H 0.63821 0.80214 0.94868 0.0
H874 H 0.63829 0.75404 0.04722 0.0
H875 H 0.60133 0.75213 0.04226 0.0
C876 C 0.69578 0.77665 0.04131 0.0
C877 C 0.70693 0.77814 1.00103 0.0
C878 C 0.67453 0.77685 0.04047 0.0
C879 C 0.66387 0.77861 0.99937 0.0
C880 C 0.67499 0.78038 0.95919 0.0
C881 C 0.69623 0.78013 0.95999 0.0
C882 C 0.60917 0.79003 0.96639 0.0
C883 C 0.59832 0.77595 0.99242 0.0
C884 C 0.63035 0.79111 0.96919 0.0
C885 C 0.64124 0.77816 0.99814 0.0
C886 C 0.63037 0.76441 0.02496 0.0
C887 C 0.60917 0.76331 0.02213 0.0
loop_
_geom_bond_atom_site_label_1
_geom_bond_atom_site_label_2
_geom_bond_distance
_geom_bond_site_symmetry_2
_ccdc_geom_bond_type
Sc0 O3 2.025 . S
Sc0 O10 2.105 . S
Sc0 O13 2.105 . S
Sc0 O16 2.105 . S
Sc0 O19 2.105 . S
Sc1 O3 2.025 . S
Sc1 O11 2.121 . S
Sc1 O15 2.089 1_554 S
Sc1 O17 2.121 . S
Sc1 O21 2.089 1_554 S
Sc2 O3 2.025 1_556 S
Sc2 O12 2.105 . S
Sc2 O14 2.105 . S
Sc2 O18 2.105 . S
Sc2 O20 2.105 . S
O3 Sc0 2.025 . S
O3 Sc1 2.025 . S
O3 Sc2 2.025 1_554 S
C4 O10 1.268 . S
C4 O20 1.268 1_554 S
C5 O11 1.268 . S
C5 O19 1.268 . S
C6 O12 1.268 . S
C6 O21 1.268 . S
C7 O13 1.268 . S
C7 O17 1.268 . S
C8 O14 1.268 1_554 S
C8 O16 1.268 . S
C9 O15 1.268 . S
C9 O18 1.268 . S
O10 Sc0 2.105 . S
O10 C4 1.268 . S
O11 Sc1 2.121 . S
O11 C5 1.268 . S
O12 Sc2 2.105 . S
O12 C6 1.268 . S
O13 Sc0 2.105 . S
O13 C7 1.268 . S
O14 Sc2 2.105 . S
O14 C8 1.268 1_556 S
O15 Sc1 2.089 1_556 S
O15 C9 1.268 . S
O16 Sc0 2.105 . S
O16 C8 1.268 . S
O17 Sc1 2.121 . S
O17 C7 1.268 . S
O18 Sc2 2.105 . S
O18 C9 1.268 . S
O19 Sc0 2.105 . S
O19 C5 1.268 . S
O20 Sc2 2.105 . S
O20 C4 1.268 1_556 S
O21 Sc1 2.089 1_556 S
O21 C6 1.268 . S
Sc22 O25 2.025 . S
Sc22 O32 2.105 . S
Sc22 O35 2.105 . S
Sc22 O38 2.105 . S
Sc22 O41 2.105 . S
Sc23 O25 2.025 . S
Sc23 O33 2.105 . S
Sc23 O37 2.105 . S
Sc23 O39 2.105 . S
Sc23 O43 2.105 . S
Sc24 O25 2.025 . S
Sc24 O34 2.105 . S
Sc24 O36 2.105 . S
Sc24 O40 2.105 . S
Sc24 O42 2.105 . S
O25 Sc22 2.025 . S
O25 Sc23 2.025 . S
O25 Sc24 2.025 . S
C26 O32 1.268 . S
C26 O42 1.268 . S
C27 O33 1.268 . S
C27 O41 1.268 . S
C28 O34 1.268 . S
C28 O43 1.268 . S
C29 O35 1.268 . S
C29 O39 1.268 . S
C30 O36 1.268 . S
C30 O38 1.268 . S
C31 O37 1.268 . S
C31 O40 1.268 . S
O32 Sc22 2.105 . S
O32 C26 1.268 . S
O33 Sc23 2.105 . S
O33 C27 1.268 . S
O34 Sc24 2.105 . S
O34 C28 1.268 . S
O35 Sc22 2.105 . S
O35 C29 1.268 . S
O36 Sc24 2.105 . S
O36 C30 1.268 . S
O37 Sc23 2.105 . S
O37 C31 1.268 . S
O38 Sc22 2.105 . S
O38 C30 1.268 . S
O39 Sc23 2.105 . S
O39 C29 1.268 . S
O40 Sc24 2.105 . S
O40 C31 1.268 . S
O41 Sc22 2.105 . S
O41 C27 1.268 . S
O42 Sc24 2.105 . S
O42 C26 1.268 . S
O43 Sc23 2.105 . S
O43 C28 1.268 . S
Sc44 O47 2.025 1_556 S
Sc44 O54 2.105 . S
Sc44 O57 2.105 . S
Sc44 O60 2.105 . S
Sc44 O63 2.105 . S
Sc45 O47 2.025 . S
Sc45 O55 2.105 1_554 S
Sc45 O59 2.105 . S
Sc45 O61 2.105 1_554 S
Sc45 O65 2.105 . S
Sc46 O47 2.025 . S
Sc46 O56 2.105 . S
Sc46 O58 2.105 . S
Sc46 O62 2.105 . S
Sc46 O64 2.105 . S
O47 Sc44 2.025 1_554 S
O47 Sc45 2.025 . S
O47 Sc46 2.025 . S
C48 O54 1.268 1_554 S
C48 O64 1.268 . S
C49 O55 1.268 . S
C49 O63 1.268 . S
C50 O56 1.268 . S
C50 O65 1.268 . S
C51 O57 1.268 . S
C51 O61 1.268 . S
C52 O58 1.268 . S
C52 O60 1.268 1_554 S
C53 O59 1.268 . S
C53 O62 1.268 . S
O54 Sc44 2.105 . S
O54 C48 1.268 1_556 S
O55 Sc45 2.105 1_556 S
O55 C49 1.268 . S
O56 Sc46 2.105 . S
O56 C50 1.268 . S
O57 Sc44 2.105 . S
O57 C51 1.268 . S
O58 Sc46 2.105 . S
O58 C52 1.268 . S
O59 Sc45 2.105 . S
O59 C53 1.268 . S
O60 Sc44 2.105 . S
O60 C52 1.268 1_556 S
O61 Sc45 2.105 1_556 S
O61 C51 1.268 . S
O62 Sc46 2.105 . S
O62 C53 1.268 . S
O63 Sc44 2.105 . S
O63 C49 1.268 . S
O64 Sc46 2.105 . S
O64 C48 1.268 . S
O65 Sc45 2.105 . S
O65 C50 1.268 . S
Sc66 O69 2.025 . S
Sc66 O76 2.105 . S
Sc66 O79 2.105 . S
Sc66 O82 2.105 . S
Sc66 O85 2.105 . S
Sc67 O69 2.025 . S
Sc67 O77 2.105 . S
Sc67 O81 2.105 . S
Sc67 O83 2.105 . S
Sc67 O87 2.105 . S
Sc68 O69 2.025 . S
Sc68 O78 2.105 . S
Sc68 O80 2.105 . S
Sc68 O84 2.105 . S
Sc68 O86 2.105 . S
O69 Sc66 2.025 . S
O69 Sc67 2.025 . S
O69 Sc68 2.025 . S
C70 O76 1.268 . S
C70 O86 1.268 . S
C71 O77 1.268 . S
C71 O85 1.268 . S
C72 O78 1.268 . S
C72 O87 1.268 . S
C73 O79 1.268 . S
C73 O83 1.268 . S
C74 O80 1.268 . S
C74 O82 1.268 . S
C75 O81 1.268 . S
C75 O84 1.268 . S
O76 Sc66 2.105 . S
O76 C70 1.268 . S
O77 Sc67 2.105 . S
O77 C71 1.268 . S
O78 Sc68 2.105 . S
O78 C72 1.268 . S
O79 Sc66 2.105 . S
O79 C73 1.268 . S
O80 Sc68 2.105 . S
O80 C74 1.268 . S
O81 Sc67 2.105 . S
O81 C75 1.268 . S
O82 Sc66 2.105 . S
O82 C74 1.268 . S
O83 Sc67 2.105 . S
O83 C73 1.268 . S
O84 Sc68 2.105 . S
O84 C75 1.268 . S
O85 Sc66 2.105 . S
O85 C71 1.268 . S
O86 Sc68 2.105 . S
O86 C70 1.268 . S
O87 Sc67 2.105 . S
O87 C72 1.268 . S
C88 C89 1.264 . S
C88 C93 1.479 . S
C88 C98 1.465 . S
C89 C88 1.264 . S
C89 C91 1.339 . S
C89 H116 0.931 . S
C90 C91 1.395 . S
C90 C92 1.320 . S
C91 C89 1.339 . S
C91 C90 1.395 . S
C91 H117 0.929 . S
C92 C90 1.320 . S
C92 C93 1.405 . S
C92 H118 0.930 . S
C93 C88 1.479 . S
C93 C92 1.405 . S
C93 H119 0.931 . S
U94 O95 2.454 . S
U94 O96 2.458 1_556 S
U94 C97 2.984 . S
U94 C98 2.847 . S
U94 C111 2.882 1_556 S
U94 O112 2.441 . S
U94 O113 2.420 . S
U94 O114 2.455 1_556 S
U94 O115 2.449 1_556 S
O95 U94 2.454 . S
O95 C97 1.353 . S
O96 U94 2.458 1_554 S
O96 C97 1.286 1_554 S
C97 U94 2.984 . S
C97 O95 1.353 . S
C97 O96 1.286 1_556 S
C97 C99 1.363 . S
C98 C88 1.465 . S
C98 U94 2.847 . S
C98 O112 1.249 . S
C98 O113 1.202 . S
C99 C97 1.363 . S
C99 C101 1.416 . S
C99 C104 1.334 1_556 S
C100 C101 1.310 . S
C100 C103 1.461 1_556 S
C100 H120 0.932 . S
C101 C99 1.416 . S
C101 C100 1.310 . S
C101 H121 0.930 . S
C102 C103 1.474 . S
C102 C104 1.285 . S
C102 H122 0.929 . S
C103 C100 1.461 1_554 S
C103 C102 1.474 . S
C104 C99 1.334 1_554 S
C104 C102 1.285 . S
C104 H123 0.930 . S
C105 C108 1.424 . S
C105 C110 1.245 . S
C105 C111 1.428 . S
C106 C109 1.260 . S
C106 C110 1.477 . S
C106 H124 0.932 . S
C107 C108 1.384 . S
C107 C109 1.479 . S
C107 H125 0.929 . S
C108 C105 1.424 . S
C108 C107 1.384 . S
C108 H126 0.928 . S
C109 C106 1.260 . S
C109 C107 1.479 . S
C110 C105 1.245 . S
C110 C106 1.477 . S
C110 H127 0.932 . S
C111 U94 2.882 1_554 S
C111 C105 1.428 . S
C111 O114 1.301 . S
C111 O115 1.282 . S
O112 U94 2.441 . S
O112 C98 1.249 . S
O113 U94 2.420 . S
O113 C98 1.202 . S
O114 U94 2.455 1_554 S
O114 C111 1.301 . S
O115 U94 2.449 1_554 S
O115 C111 1.282 . S
H116 C89 0.931 . S
H117 C91 0.929 . S
H118 C92 0.930 . S
H119 C93 0.931 . S
H120 C100 0.932 . S
H121 C101 0.930 . S
H122 C102 0.929 . S
H123 C104 0.930 . S
H124 C106 0.932 . S
H125 C107 0.929 . S
H126 C108 0.928 . S
H127 C110 0.932 . S
C128 C129 1.264 . S
C128 C133 1.479 . S
C128 C138 1.465 . S
C129 C128 1.264 . S
C129 C131 1.339 . S
C129 H156 0.931 . S
C130 C131 1.395 . S
C130 C132 1.320 . S
C131 C129 1.339 . S
C131 C130 1.395 . S
C131 H157 0.929 . S
C132 C130 1.320 . S
C132 C133 1.405 . S
C132 H158 0.930 . S
C133 C128 1.479 . S
C133 C132 1.405 . S
C133 H159 0.931 . S
U134 O135 2.454 1_655 S
U134 O136 2.458 1_655 S
U134 C137 2.984 1_655 S
U134 C138 2.847 . S
U134 C151 2.882 . S
U134 O152 2.441 . S
U134 O153 2.420 . S
U134 O154 2.455 . S
U134 O155 2.449 . S
O135 U134 2.454 1_455 S
O135 C137 1.353 . S
O136 U134 2.458 1_455 S
O136 C137 1.286 . S
C137 U134 2.984 1_455 S
C137 O135 1.353 . S
C137 O136 1.286 . S
C137 C139 1.363 . S
C138 C128 1.465 . S
C138 U134 2.847 . S
C138 O152 1.249 . S
C138 O153 1.202 . S
C139 C137 1.363 . S
C139 C141 1.408 . S
C139 C144 1.342 . S
C140 C141 1.310 . S
C140 C143 1.461 . S
C140 H160 0.932 . S
C141 C139 1.408 . S
C141 C140 1.310 . S
C141 H161 0.930 . S
C142 C143 1.474 . S
C142 C144 1.285 . S
C142 H162 0.929 . S
C143 C140 1.461 . S
C143 C142 1.474 . S
C144 C139 1.342 . S
C144 C142 1.285 . S
C144 H163 0.930 . S
C145 C148 1.424 . S
C145 C150 1.245 . S
C145 C151 1.428 . S
C146 C149 1.260 . S
C146 C150 1.477 . S
C146 H164 0.932 . S
C147 C148 1.384 . S
C147 C149 1.479 . S
C147 H165 0.929 . S
C148 C145 1.424 . S
C148 C147 1.384 . S
C148 H166 0.928 . S
C149 C146 1.260 . S
C149 C147 1.479 . S
C150 C145 1.245 . S
C150 C146 1.477 . S
C150 H167 0.932 . S
C151 U134 2.882 . S
C151 C145 1.428 . S
C151 O154 1.301 . S
C151 O155 1.282 . S
O152 U134 2.441 . S
O152 C138 1.249 . S
O153 U134 2.420 . S
O153 C138 1.202 . S
O154 U134 2.455 . S
O154 C151 1.301 . S
O155 U134 2.449 . S
O155 C151 1.282 . S
H156 C129 0.931 . S
H157 C131 0.929 . S
H158 C132 0.930 . S
H159 C133 0.931 . S
H160 C140 0.932 . S
H161 C141 0.930 . S
H162 C142 0.929 . S
H163 C144 0.930 . S
H164 C146 0.932 . S
H165 C147 0.929 . S
H166 C148 0.928 . S
H167 C150 0.932 . S
C168 C169 1.264 . S
C168 C173 1.479 . S
C168 C178 1.465 . S
C169 C168 1.264 . S
C169 C171 1.339 . S
C169 H196 0.931 . S
C170 C171 1.395 . S
C170 C172 1.320 . S
C171 C169 1.339 . S
C171 C170 1.395 . S
C171 H197 0.929 . S
C172 C170 1.320 . S
C172 C173 1.405 . S
C172 H198 0.930 . S
C173 C168 1.479 . S
C173 C172 1.405 . S
C173 H199 0.931 . S
U174 O175 2.454 . S
U174 O176 2.458 1_554 S
U174 C177 2.984 . S
U174 C178 2.847 . S
U174 C191 2.882 1_554 S
U174 O192 2.441 . S
U174 O193 2.420 . S
U174 O194 2.455 1_554 S
U174 O195 2.449 1_554 S
O175 U174 2.454 . S
O175 C177 1.353 . S
O176 U174 2.458 1_556 S
O176 C177 1.286 1_556 S
C177 U174 2.984 . S
C177 O175 1.353 . S
C177 O176 1.286 1_554 S
C177 C179 1.363 . S
C178 C168 1.465 . S
C178 U174 2.847 . S
C178 O192 1.249 . S
C178 O193 1.202 . S
C179 C177 1.363 . S
C179 C181 1.408 . S
C179 C184 1.342 1_554 S
C180 C181 1.310 . S
C180 C183 1.461 . S
C180 H200 0.932 . S
C181 C179 1.408 . S
C181 C180 1.310 . S
C181 H201 0.930 . S
C182 C183 1.474 1_556 S
C182 C184 1.285 . S
C182 H202 0.929 . S
C183 C180 1.461 . S
C183 C182 1.474 1_554 S
C184 C179 1.342 1_556 S
C184 C182 1.285 . S
C184 H203 0.930 . S
C185 C188 1.424 . S
C185 C190 1.245 . S
C185 C191 1.428 . S
C186 C189 1.260 . S
C186 C190 1.477 . S
C186 H204 0.932 . S
C187 C188 1.384 . S
C187 C189 1.479 . S
C187 H205 0.929 . S
C188 C185 1.424 . S
C188 C187 1.384 . S
C188 H206 0.928 . S
C189 C186 1.260 . S
C189 C187 1.479 . S
C190 C185 1.245 . S
C190 C186 1.477 . S
C190 H207 0.932 . S
C191 U174 2.882 1_556 S
C191 C185 1.428 . S
C191 O194 1.301 . S
C191 O195 1.282 . S
O192 U174 2.441 . S
O192 C178 1.249 . S
O193 U174 2.420 . S
O193 C178 1.202 . S
O194 U174 2.455 1_556 S
O194 C191 1.301 . S
O195 U174 2.449 1_556 S
O195 C191 1.282 . S
H196 C169 0.931 . S
H197 C171 0.929 . S
H198 C172 0.930 . S
H199 C173 0.931 . S
H200 C180 0.932 . S
H201 C181 0.930 . S
H202 C182 0.929 . S
H203 C184 0.930 . S
H204 C186 0.932 . S
H205 C187 0.929 . S
H206 C188 0.928 . S
H207 C190 0.932 . S
C208 C209 1.264 . S
C208 C213 1.479 . S
C208 C218 1.465 . S
C209 C208 1.264 . S
C209 C211 1.339 . S
C209 H236 0.931 . S
C210 C211 1.395 . S
C210 C212 1.320 . S
C211 C209 1.339 . S
C211 C210 1.395 . S
C211 H237 0.929 . S
C212 C210 1.320 . S
C212 C213 1.405 . S
C212 H238 0.930 . S
C213 C208 1.479 . S
C213 C212 1.405 . S
C213 H239 0.931 . S
U214 O215 2.454 1_455 S
U214 O216 2.458 1_455 S
U214 C217 2.984 1_455 S
U214 C218 2.847 . S
U214 C231 2.882 . S
U214 O232 2.441 . S
U214 O233 2.420 . S
U214 O234 2.455 . S
U214 O235 2.449 . S
O215 U214 2.454 1_655 S
O215 C217 1.353 . S
O216 U214 2.458 1_655 S
O216 C217 1.286 . S
C217 U214 2.984 1_655 S
C217 O215 1.353 . S
C217 O216 1.286 . S
C217 C219 1.363 . S
C218 C208 1.465 . S
C218 U214 2.847 . S
C218 O232 1.249 . S
C218 O233 1.202 . S
C219 C217 1.363 . S
C219 C221 1.408 . S
C219 C224 1.342 . S
C220 C221 1.310 . S
C220 C223 1.461 . S
C220 H240 0.932 . S
C221 C219 1.408 . S
C221 C220 1.310 . S
C221 H241 0.930 . S
C222 C223 1.474 . S
C222 C224 1.285 . S
C222 H242 0.929 . S
C223 C220 1.461 . S
C223 C222 1.474 . S
C224 C219 1.342 . S
C224 C222 1.285 . S
C224 H243 0.930 . S
C225 C228 1.424 . S
C225 C230 1.245 . S
C225 C231 1.428 . S
C226 C229 1.260 . S
C226 C230 1.477 . S
C226 H244 0.932 . S
C227 C228 1.384 . S
C227 C229 1.479 . S
C227 H245 0.929 . S
C228 C225 1.424 . S
C228 C227 1.384 . S
C228 H246 0.928 . S
C229 C226 1.260 . S
C229 C227 1.479 . S
C230 C225 1.245 . S
C230 C226 1.477 . S
C230 H247 0.932 . S
C231 U214 2.882 . S
C231 C225 1.428 . S
C231 O234 1.301 . S
C231 O235 1.282 . S
O232 U214 2.441 . S
O232 C218 1.249 . S
O233 U214 2.420 . S
O233 C218 1.202 . S
O234 U214 2.455 . S
O234 C231 1.301 . S
O235 U214 2.449 . S
O235 C231 1.282 . S
H236 C209 0.931 . S
H237 C211 0.929 . S
H238 C212 0.930 . S
H239 C213 0.931 . S
H240 C220 0.932 . S
H241 C221 0.930 . S
H242 C222 0.929 . S
H243 C224 0.930 . S
H244 C226 0.932 . S
H245 C227 0.929 . S
H246 C228 0.928 . S
H247 C230 0.932 . S
C248 C249 1.264 . S
C248 C253 1.479 . S
C248 C258 1.465 . S
C249 C248 1.264 . S
C249 C251 1.339 . S
C249 H276 0.931 . S
C250 C251 1.395 . S
C250 C252 1.320 . S
C251 C249 1.339 . S
C251 C250 1.395 . S
C251 H277 0.929 . S
C252 C250 1.320 . S
C252 C253 1.405 . S
C252 H278 0.930 . S
C253 C248 1.479 . S
C253 C252 1.405 . S
C253 H279 0.931 . S
U254 O255 2.454 1_565 S
U254 O256 2.458 1_565 S
U254 C257 2.984 1_565 S
U254 C258 2.847 . S
U254 C271 2.882 . S
U254 O272 2.441 . S
U254 O273 2.420 . S
U254 O274 2.455 . S
U254 O275 2.449 . S
O255 U254 2.454 1_545 S
O255 C257 1.353 . S
O256 U254 2.458 1_545 S
O256 C257 1.286 . S
C257 U254 2.984 1_545 S
C257 O255 1.353 . S
C257 O256 1.286 . S
C257 C259 1.363 . S
C258 C248 1.465 . S
C258 U254 2.847 . S
C258 O272 1.249 . S
C258 O273 1.202 . S
C259 C257 1.363 . S
C259 C261 1.408 . S
C259 C264 1.342 . S
C260 C261 1.310 . S
C260 C263 1.461 . S
C260 H280 0.932 . S
C261 C259 1.408 . S
C261 C260 1.310 . S
C261 H281 0.930 . S
C262 C263 1.474 . S
C262 C264 1.285 . S
C262 H282 0.929 . S
C263 C260 1.461 . S
C263 C262 1.474 . S
C264 C259 1.342 . S
C264 C262 1.285 . S
C264 H283 0.930 . S
C265 C268 1.424 . S
C265 C270 1.245 . S
C265 C271 1.428 . S
C266 C269 1.260 . S
C266 C270 1.477 . S
C266 H284 0.932 . S
C267 C268 1.384 . S
C267 C269 1.479 . S
C267 H285 0.929 . S
C268 C265 1.424 . S
C268 C267 1.384 . S
C268 H286 0.928 . S
C269 C266 1.260 . S
C269 C267 1.479 . S
C270 C265 1.245 . S
C270 C266 1.477 . S
C270 H287 0.932 . S
C271 U254 2.882 . S
C271 C265 1.428 . S
C271 O274 1.301 . S
C271 O275 1.282 . S
O272 U254 2.441 . S
O272 C258 1.249 . S
O273 U254 2.420 . S
O273 C258 1.202 . S
O274 U254 2.455 . S
O274 C271 1.301 . S
O275 U254 2.449 . S
O275 C271 1.282 . S
H276 C249 0.931 . S
H277 C251 0.929 . S
H278 C252 0.930 . S
H279 C253 0.931 . S
H280 C260 0.932 . S
H281 C261 0.930 . S
H282 C262 0.929 . S
H283 C264 0.930 . S
H284 C266 0.932 . S
H285 C267 0.929 . S
H286 C268 0.928 . S
H287 C270 0.932 . S
C288 C289 1.264 . S
C288 C293 1.479 . S
C288 C298 1.465 . S
C289 C288 1.264 . S
C289 C291 1.339 . S
C289 H316 0.931 . S
C290 C291 1.395 . S
C290 C292 1.320 . S
C291 C289 1.339 . S
C291 C290 1.395 . S
C291 H317 0.929 . S
C292 C290 1.320 . S
C292 C293 1.405 . S
C292 H318 0.930 . S
C293 C288 1.479 . S
C293 C292 1.405 . S
C293 H319 0.931 . S
U294 O295 2.454 . S
U294 O296 2.458 1_556 S
U294 C297 2.984 . S
U294 C298 2.847 . S
U294 C311 2.882 1_556 S
U294 O312 2.441 . S
U294 O313 2.420 . S
U294 O314 2.455 1_556 S
U294 O315 2.449 1_556 S
O295 U294 2.454 . S
O295 C297 1.353 . S
O296 U294 2.458 1_554 S
O296 C297 1.286 1_554 S
C297 U294 2.984 . S
C297 O295 1.353 . S
C297 O296 1.286 1_556 S
C297 C299 1.363 . S
C298 C288 1.465 . S
C298 U294 2.847 . S
C298 O312 1.249 . S
C298 O313 1.202 . S
C299 C297 1.363 . S
C299 C301 1.413 . S
C299 C304 1.337 1_556 S
C300 C301 1.310 . S
C300 C303 1.461 1_556 S
C300 H320 0.932 . S
C301 C299 1.413 . S
C301 C300 1.310 . S
C301 H321 0.930 . S
C302 C303 1.474 . S
C302 C304 1.285 . S
C302 H322 0.929 . S
C303 C300 1.461 1_554 S
C303 C302 1.474 . S
C304 C299 1.337 1_554 S
C304 C302 1.285 . S
C304 H323 0.930 . S
C305 C308 1.424 . S
C305 C310 1.245 . S
C305 C311 1.428 . S
C306 C309 1.260 . S
C306 C310 1.477 . S
C306 H324 0.932 . S
C307 C308 1.384 . S
C307 C309 1.479 . S
C307 H325 0.929 . S
C308 C305 1.424 . S
C308 C307 1.384 . S
C308 H326 0.928 . S
C309 C306 1.260 . S
C309 C307 1.479 . S
C310 C305 1.245 . S
C310 C306 1.477 . S
C310 H327 0.932 . S
C311 U294 2.882 1_554 S
C311 C305 1.428 . S
C311 O314 1.301 . S
C311 O315 1.282 . S
O312 U294 2.441 . S
O312 C298 1.249 . S
O313 U294 2.420 . S
O313 C298 1.202 . S
O314 U294 2.455 1_554 S
O314 C311 1.301 . S
O315 U294 2.449 1_554 S
O315 C311 1.282 . S
H316 C289 0.931 . S
H317 C291 0.929 . S
H318 C292 0.930 . S
H319 C293 0.931 . S
H320 C300 0.932 . S
H321 C301 0.930 . S
H322 C302 0.929 . S
H323 C304 0.930 . S
H324 C306 0.932 . S
H325 C307 0.929 . S
H326 C308 0.928 . S
H327 C310 0.932 . S
C328 C329 1.264 . S
C328 C333 1.479 . S
C328 C338 1.465 . S
C329 C328 1.264 . S
C329 C331 1.339 . S
C329 H356 0.931 . S
C330 C331 1.395 . S
C330 C332 1.320 . S
C331 C329 1.339 . S
C331 C330 1.395 . S
C331 H357 0.929 . S
C332 C330 1.320 . S
C332 C333 1.405 . S
C332 H358 0.930 . S
C333 C328 1.479 . S
C333 C332 1.405 . S
C333 H359 0.931 . S
U334 O335 2.454 1_545 S
U334 O336 2.458 1_545 S
U334 C337 2.984 1_545 S
U334 C338 2.847 . S
U334 C351 2.882 . S
U334 O352 2.441 . S
U334 O353 2.420 . S
U334 O354 2.455 . S
U334 O355 2.449 . S
O335 U334 2.454 1_565 S
O335 C337 1.353 . S
O336 U334 2.458 1_565 S
O336 C337 1.286 . S
C337 U334 2.984 1_565 S
C337 O335 1.353 . S
C337 O336 1.286 . S
C337 C339 1.363 . S
C338 C328 1.465 . S
C338 U334 2.847 . S
C338 O352 1.249 . S
C338 O353 1.202 . S
C339 C337 1.363 . S
C339 C341 1.408 . S
C339 C344 1.342 . S
C340 C341 1.310 . S
C340 C343 1.461 . S
C340 H360 0.932 . S
C341 C339 1.408 . S
C341 C340 1.310 . S
C341 H361 0.930 . S
C342 C343 1.474 . S
C342 C344 1.285 . S
C342 H362 0.929 . S
C343 C340 1.461 . S
C343 C342 1.474 . S
C344 C339 1.342 . S
C344 C342 1.285 . S
C344 H363 0.930 . S
C345 C348 1.424 . S
C345 C350 1.245 . S
C345 C351 1.428 . S
C346 C349 1.260 . S
C346 C350 1.477 . S
C346 H364 0.932 . S
C347 C348 1.384 . S
C347 C349 1.479 . S
C347 H365 0.929 . S
C348 C345 1.424 . S
C348 C347 1.384 . S
C348 H366 0.928 . S
C349 C346 1.260 . S
C349 C347 1.479 . S
C350 C345 1.245 . S
C350 C346 1.477 . S
C350 H367 0.932 . S
C351 U334 2.882 . S
C351 C345 1.428 . S
C351 O354 1.301 . S
C351 O355 1.282 . S
O352 U334 2.441 . S
O352 C338 1.249 . S
O353 U334 2.420 . S
O353 C338 1.202 . S
O354 U334 2.455 . S
O354 C351 1.301 . S
O355 U334 2.449 . S
O355 C351 1.282 . S
H356 C329 0.931 . S
H357 C331 0.929 . S
H358 C332 0.930 . S
H359 C333 0.931 . S
H360 C340 0.932 . S
H361 C341 0.930 . S
H362 C342 0.929 . S
H363 C344 0.930 . S
H364 C346 0.932 . S
H365 C347 0.929 . S
H366 C348 0.928 . S
H367 C350 0.932 . S
C368 C369 1.264 . S
C368 C373 1.479 . S
C368 C378 1.465 . S
C369 C368 1.264 . S
C369 C371 1.339 . S
C369 H396 0.931 . S
C370 C371 1.395 . S
C370 C372 1.320 . S
C371 C369 1.339 . S
C371 C370 1.395 . S
C371 H397 0.929 . S
C372 C370 1.320 . S
C372 C373 1.405 . S
C372 H398 0.930 . S
C373 C368 1.479 . S
C373 C372 1.405 . S
C373 H399 0.931 . S
U374 O375 2.454 . S
U374 O376 2.458 1_554 S
U374 C377 2.984 . S
U374 C378 2.847 . S
U374 C391 2.882 1_554 S
U374 O392 2.441 . S
U374 O393 2.420 . S
U374 O394 2.455 1_554 S
U374 O395 2.449 1_554 S
O375 U374 2.454 . S
O375 C377 1.353 . S
O376 U374 2.458 1_556 S
O376 C377 1.286 1_556 S
C377 U374 2.984 . S
C377 O375 1.353 . S
C377 O376 1.286 1_554 S
C377 C379 1.363 . S
C378 C368 1.465 . S
C378 U374 2.847 . S
C378 O392 1.249 . S
C378 O393 1.202 . S
C379 C377 1.363 . S
C379 C381 1.408 . S
C379 C384 1.342 1_554 S
C380 C381 1.310 . S
C380 C383 1.461 . S
C380 H400 0.932 . S
C381 C379 1.408 . S
C381 C380 1.310 . S
C381 H401 0.930 . S
C382 C383 1.474 1_556 S
C382 C384 1.285 . S
C382 H402 0.929 . S
C383 C380 1.461 . S
C383 C382 1.474 1_554 S
C384 C379 1.342 1_556 S
C384 C382 1.285 . S
C384 H403 0.930 . S
C385 C388 1.424 . S
C385 C390 1.245 . S
C385 C391 1.428 . S
C386 C389 1.260 . S
C386 C390 1.477 . S
C386 H404 0.932 . S
C387 C388 1.384 . S
C387 C389 1.479 . S
C387 H405 0.929 . S
C388 C385 1.424 . S
C388 C387 1.384 . S
C388 H406 0.928 . S
C389 C386 1.260 . S
C389 C387 1.479 . S
C390 C385 1.245 . S
C390 C386 1.477 . S
C390 H407 0.932 . S
C391 U374 2.882 1_556 S
C391 C385 1.428 . S
C391 O394 1.301 . S
C391 O395 1.282 . S
O392 U374 2.441 . S
O392 C378 1.249 . S
O393 U374 2.420 . S
O393 C378 1.202 . S
O394 U374 2.455 1_556 S
O394 C391 1.301 . S
O395 U374 2.449 1_556 S
O395 C391 1.282 . S
H396 C369 0.931 . S
H397 C371 0.929 . S
H398 C372 0.930 . S
H399 C373 0.931 . S
H400 C380 0.932 . S
H401 C381 0.930 . S
H402 C382 0.929 . S
H403 C384 0.930 . S
H404 C386 0.932 . S
H405 C387 0.929 . S
H406 C388 0.928 . S
H407 C390 0.932 . S
H408 C416 0.950 . S
H409 C421 0.950 . S
H410 C418 0.950 . S
H411 C420 0.950 . S
H412 C422 0.950 . S
H413 C424 0.950 . S
H414 C426 0.950 . S
H415 C427 0.950 . S
C416 H408 0.950 . S
C416 C417 1.386 . S
C416 C418 1.391 . S
C417 C416 1.386 . S
C417 C421 1.393 . S
C418 H410 0.950 . S
C418 C416 1.391 . S
C418 C419 1.400 . S
C419 C418 1.400 . S
C419 C420 1.398 . S
C419 C425 1.491 . S
C420 H411 0.950 . S
C420 C419 1.398 . S
C420 C421 1.391 . S
C421 H409 0.950 . S
C421 C417 1.393 . S
C421 C420 1.391 . S
C422 H412 0.950 . S
C422 C423 1.386 . S
C422 C424 1.391 . S
C423 C422 1.386 . S
C423 C427 1.393 . S
C424 H413 0.950 . S
C424 C422 1.391 . S
C424 C425 1.400 . S
C425 C419 1.491 . S
C425 C424 1.400 . S
C425 C426 1.398 . S
C426 H414 0.950 . S
C426 C425 1.398 . S
C426 C427 1.391 . S
C427 H415 0.950 . S
C427 C423 1.393 . S
C427 C426 1.391 . S
H428 C436 0.950 . S
H429 C441 0.950 . S
H430 C438 0.950 . S
H431 C440 0.950 . S
H432 C442 0.950 . S
H433 C444 0.950 . S
H434 C446 0.950 . S
H435 C447 0.950 . S
C436 H428 0.950 . S
C436 C437 1.386 . S
C436 C438 1.391 . S
C437 C436 1.386 . S
C437 C441 1.393 . S
C438 H430 0.950 . S
C438 C436 1.391 . S
C438 C439 1.400 . S
C439 C438 1.400 . S
C439 C440 1.398 . S
C439 C445 1.491 . S
C440 H431 0.950 . S
C440 C439 1.398 . S
C440 C441 1.391 . S
C441 H429 0.950 . S
C441 C437 1.393 . S
C441 C440 1.391 . S
C442 H432 0.950 . S
C442 C443 1.386 . S
C442 C444 1.391 . S
C443 C442 1.386 . S
C443 C447 1.393 . S
C444 H433 0.950 . S
C444 C442 1.391 . S
C444 C445 1.400 . S
C445 C439 1.491 . S
C445 C444 1.400 . S
C445 C446 1.398 . S
C446 H434 0.950 . S
C446 C445 1.398 . S
C446 C447 1.391 . S
C447 H435 0.950 . S
C447 C443 1.393 . S
C447 C446 1.391 . S
H448 C456 0.950 . S
H449 C461 0.950 . S
H450 C458 0.950 . S
H451 C460 0.950 . S
H452 C462 0.950 . S
H453 C464 0.950 . S
H454 C466 0.950 . S
H455 C467 0.950 . S
C456 H448 0.950 . S
C456 C457 1.386 . S
C456 C458 1.391 . S
C457 C456 1.386 . S
C457 C461 1.393 . S
C458 H450 0.950 . S
C458 C456 1.391 . S
C458 C459 1.400 . S
C459 C458 1.400 . S
C459 C460 1.398 . S
C459 C465 1.491 . S
C460 H451 0.950 . S
C460 C459 1.398 . S
C460 C461 1.391 . S
C461 H449 0.950 . S
C461 C457 1.393 . S
C461 C460 1.391 . S
C462 H452 0.950 . S
C462 C463 1.386 . S
C462 C464 1.391 . S
C463 C462 1.386 . S
C463 C467 1.393 . S
C464 H453 0.950 . S
C464 C462 1.391 . S
C464 C465 1.400 . S
C465 C459 1.491 . S
C465 C464 1.400 . S
C465 C466 1.398 . S
C466 H454 0.950 . S
C466 C465 1.398 . S
C466 C467 1.391 . S
C467 H455 0.950 . S
C467 C463 1.393 . S
C467 C466 1.391 . S
H468 C476 0.950 . S
H469 C481 0.950 . S
H470 C478 0.950 . S
H471 C480 0.950 . S
H472 C482 0.950 . S
H473 C484 0.950 . S
H474 C486 0.950 . S
H475 C487 0.950 . S
C476 H468 0.950 . S
C476 C477 1.386 . S
C476 C478 1.391 . S
C477 C476 1.386 . S
C477 C481 1.393 . S
C478 H470 0.950 . S
C478 C476 1.391 . S
C478 C479 1.400 . S
C479 C478 1.400 . S
C479 C480 1.398 . S
C479 C485 1.491 . S
C480 H471 0.950 . S
C480 C479 1.398 . S
C480 C481 1.391 . S
C481 H469 0.950 . S
C481 C477 1.393 . S
C481 C480 1.391 . S
C482 H472 0.950 . S
C482 C483 1.386 . S
C482 C484 1.391 . S
C483 C482 1.386 . S
C483 C487 1.393 . S
C484 H473 0.950 . S
C484 C482 1.391 . S
C484 C485 1.400 . S
C485 C479 1.491 . S
C485 C484 1.400 . S
C485 C486 1.398 . S
C486 H474 0.950 . S
C486 C485 1.398 . S
C486 C487 1.391 . S
C487 H475 0.950 . S
C487 C483 1.393 . S
C487 C486 1.391 . S
H488 C496 0.950 . S
H489 C501 0.950 . S
H490 C498 0.950 . S
H491 C500 0.950 . S
H492 C502 0.950 . S
H493 C504 0.950 . S
H494 C506 0.950 . S
H495 C507 0.950 . S
C496 H488 0.950 . S
C496 C497 1.386 . S
C496 C498 1.391 . S
C497 C496 1.386 . S
C497 C501 1.393 . S
C498 H490 0.950 . S
C498 C496 1.391 . S
C498 C499 1.400 . S
C499 C498 1.400 . S
C499 C500 1.398 . S
C499 C505 1.491 . S
C500 H491 0.950 . S
C500 C499 1.398 . S
C500 C501 1.391 . S
C501 H489 0.950 . S
C501 C497 1.393 . S
C501 C500 1.391 . S
C502 H492 0.950 . S
C502 C503 1.386 . S
C502 C504 1.391 . S
C503 C502 1.386 . S
C503 C507 1.393 . S
C504 H493 0.950 . S
C504 C502 1.391 . S
C504 C505 1.400 . S
C505 C499 1.491 . S
C505 C504 1.400 . S
C505 C506 1.398 . S
C506 H494 0.950 . S
C506 C505 1.398 . S
C506 C507 1.391 . S
C507 H495 0.950 . S
C507 C503 1.393 . S
C507 C506 1.391 . S
H508 C516 0.950 . S
H509 C521 0.950 . S
H510 C518 0.950 . S
H511 C520 0.950 . S
H512 C522 0.950 . S
H513 C524 0.950 . S
H514 C526 0.950 . S
H515 C527 0.950 . S
C516 H508 0.950 . S
C516 C517 1.386 . S
C516 C518 1.391 . S
C517 C516 1.386 . S
C517 C521 1.393 . S
C518 H510 0.950 . S
C518 C516 1.391 . S
C518 C519 1.400 . S
C519 C518 1.400 . S
C519 C520 1.398 . S
C519 C525 1.491 . S
C520 H511 0.950 . S
C520 C519 1.398 . S
C520 C521 1.391 . S
C521 H509 0.950 . S
C521 C517 1.393 . S
C521 C520 1.391 . S
C522 H512 0.950 . S
C522 C523 1.386 . S
C522 C524 1.391 . S
C523 C522 1.386 . S
C523 C527 1.393 . S
C524 H513 0.950 . S
C524 C522 1.391 . S
C524 C525 1.400 . S
C525 C519 1.491 . S
C525 C524 1.400 . S
C525 C526 1.398 . S
C526 H514 0.950 . S
C526 C525 1.398 . S
C526 C527 1.391 . S
C527 H515 0.950 . S
C527 C523 1.393 . S
C527 C526 1.391 . S
H528 C536 0.950 . S
H529 C541 0.950 . S
H530 C538 0.950 . S
H531 C540 0.950 . S
H532 C542 0.950 . S
H533 C544 0.950 . S
H534 C546 0.950 . S
H535 C547 0.950 . S
C536 H528 0.950 . S
C536 C537 1.386 . S
C536 C538 1.391 . S
C537 C536 1.386 . S
C537 C541 1.393 . S
C538 H530 0.950 . S
C538 C536 1.391 . S
C538 C539 1.400 . S
C539 C538 1.400 . S
C539 C540 1.398 . S
C539 C545 1.491 . S
C540 H531 0.950 . S
C540 C539 1.398 . S
C540 C541 1.391 . S
C541 H529 0.950 . S
C541 C537 1.393 . S
C541 C540 1.391 . S
C542 H532 0.950 . S
C542 C543 1.386 . S
C542 C544 1.391 . S
C543 C542 1.386 . S
C543 C547 1.393 . S
C544 H533 0.950 . S
C544 C542 1.391 . S
C544 C545 1.400 . S
C545 C539 1.491 . S
C545 C544 1.400 . S
C545 C546 1.398 . S
C546 H534 0.950 . S
C546 C545 1.398 . S
C546 C547 1.391 . S
C547 H535 0.950 . S
C547 C543 1.393 . S
C547 C546 1.391 . S
H548 C556 0.950 . S
H549 C561 0.950 . S
H550 C558 0.950 . S
H551 C560 0.950 . S
H552 C562 0.950 . S
H553 C564 0.950 . S
H554 C566 0.950 . S
H555 C567 0.950 . S
C556 H548 0.950 . S
C556 C557 1.386 . S
C556 C558 1.391 . S
C557 C556 1.386 . S
C557 C561 1.393 . S
C558 H550 0.950 . S
C558 C556 1.391 . S
C558 C559 1.400 . S
C559 C558 1.400 . S
C559 C560 1.398 . S
C559 C565 1.491 . S
C560 H551 0.950 . S
C560 C559 1.398 . S
C560 C561 1.391 . S
C561 H549 0.950 . S
C561 C557 1.393 . S
C561 C560 1.391 . S
C562 H552 0.950 . S
C562 C563 1.386 . S
C562 C564 1.391 . S
C563 C562 1.386 . S
C563 C567 1.393 . S
C564 H553 0.950 . S
C564 C562 1.391 . S
C564 C565 1.400 . S
C565 C559 1.491 . S
C565 C564 1.400 . S
C565 C566 1.398 . S
C566 H554 0.950 . S
C566 C565 1.398 . S
C566 C567 1.391 . S
C567 H555 0.950 . S
C567 C563 1.393 . S
C567 C566 1.391 . S
H568 C576 0.950 . S
H569 C581 0.950 . S
H570 C578 0.950 . S
H571 C580 0.950 . S
H572 C582 0.950 . S
H573 C584 0.950 . S
H574 C586 0.950 . S
H575 C587 0.950 . S
C576 H568 0.950 . S
C576 C577 1.386 . S
C576 C578 1.391 . S
C577 C576 1.386 . S
C577 C581 1.393 . S
C578 H570 0.950 . S
C578 C576 1.391 . S
C578 C579 1.400 . S
C579 C578 1.400 . S
C579 C580 1.398 . S
C579 C585 1.491 . S
C580 H571 0.950 . S
C580 C579 1.398 . S
C580 C581 1.391 . S
C581 H569 0.950 . S
C581 C577 1.393 . S
C581 C580 1.391 . S
C582 H572 0.950 . S
C582 C583 1.386 . S
C582 C584 1.391 . S
C583 C582 1.386 . S
C583 C587 1.393 . S
C584 H573 0.950 . S
C584 C582 1.391 . S
C584 C585 1.400 . S
C585 C579 1.491 . S
C585 C584 1.400 . S
C585 C586 1.398 . S
C586 H574 0.950 . S
C586 C585 1.398 . S
C586 C587 1.391 . S
C587 H575 0.950 . S
C587 C583 1.393 . S
C587 C586 1.391 . S
H588 C596 0.950 . S
H589 C601 0.950 . S
H590 C598 0.950 . S
H591 C600 0.950 . S
H592 C602 0.950 . S
H593 C604 0.950 . S
H594 C606 0.950 . S
H595 C607 0.950 . S
C596 H588 0.950 . S
C596 C597 1.386 . S
C596 C598 1.391 . S
C597 C596 1.386 . S
C597 C601 1.393 . S
C598 H590 0.950 . S
C598 C596 1.391 . S
C598 C599 1.400 . S
C599 C598 1.400 . S
C599 C600 1.398 . S
C599 C605 1.491 . S
C600 H591 0.950 . S
C600 C599 1.398 . S
C600 C601 1.391 . S
C601 H589 0.950 . S
C601 C597 1.393 . S
C601 C600 1.391 . S
C602 H592 0.950 . S
C602 C603 1.386 . S
C602 C604 1.391 . S
C603 C602 1.386 . S
C603 C607 1.393 . S
C604 H593 0.950 . S
C604 C602 1.391 . S
C604 C605 1.400 . S
C605 C599 1.491 . S
C605 C604 1.400 . S
C605 C606 1.398 . S
C606 H594 0.950 . S
C606 C605 1.398 . S
C606 C607 1.391 . S
C607 H595 0.950 . S
C607 C603 1.393 . S
C607 C606 1.391 . S
H608 C616 0.950 . S
H609 C621 0.950 . S
H610 C618 0.950 . S
H611 C620 0.950 . S
H612 C622 0.950 . S
H613 C624 0.950 . S
H614 C626 0.950 . S
H615 C627 0.950 . S
C616 H608 0.950 . S
C616 C617 1.386 . S
C616 C618 1.391 . S
C617 C616 1.386 . S
C617 C621 1.393 . S
C618 H610 0.950 . S
C618 C616 1.391 . S
C618 C619 1.400 . S
C619 C618 1.400 . S
C619 C620 1.398 . S
C619 C625 1.491 . S
C620 H611 0.950 . S
C620 C619 1.398 . S
C620 C621 1.391 . S
C621 H609 0.950 . S
C621 C617 1.393 . S
C621 C620 1.391 . S
C622 H612 0.950 . S
C622 C623 1.386 . S
C622 C624 1.391 . S
C623 C622 1.386 . S
C623 C627 1.393 . S
C624 H613 0.950 . S
C624 C622 1.391 . S
C624 C625 1.400 . S
C625 C619 1.491 . S
C625 C624 1.400 . S
C625 C626 1.398 . S
C626 H614 0.950 . S
C626 C625 1.398 . S
C626 C627 1.391 . S
C627 H615 0.950 . S
C627 C623 1.393 . S
C627 C626 1.391 . S
H628 C636 0.950 . S
H629 C641 0.950 . S
H630 C638 0.950 . S
H631 C640 0.950 . S
H632 C642 0.950 . S
H633 C644 0.950 . S
H634 C646 0.950 . S
H635 C647 0.950 . S
C636 H628 0.950 . S
C636 C637 1.386 . S
C636 C638 1.391 . S
C637 C636 1.386 . S
C637 C641 1.393 . S
C638 H630 0.950 . S
C638 C636 1.391 . S
C638 C639 1.400 . S
C639 C638 1.400 . S
C639 C640 1.398 . S
C639 C645 1.491 . S
C640 H631 0.950 . S
C640 C639 1.398 . S
C640 C641 1.391 . S
C641 H629 0.950 . S
C641 C637 1.393 . S
C641 C640 1.391 . S
C642 H632 0.950 . S
C642 C643 1.386 . S
C642 C644 1.391 . S
C643 C642 1.386 . S
C643 C647 1.393 . S
C644 H633 0.950 . S
C644 C642 1.391 . S
C644 C645 1.400 . S
C645 C639 1.491 . S
C645 C644 1.400 . S
C645 C646 1.398 . S
C646 H634 0.950 . S
C646 C645 1.398 . S
C646 C647 1.391 . S
C647 H635 0.950 . S
C647 C643 1.393 . S
C647 C646 1.391 . S
H648 C656 0.950 . S
H649 C661 0.950 . S
H650 C658 0.950 . S
H651 C660 0.950 . S
H652 C662 0.950 . S
H653 C664 0.950 . S
H654 C666 0.950 . S
H655 C667 0.950 . S
C656 H648 0.950 . S
C656 C657 1.386 . S
C656 C658 1.391 . S
C657 C656 1.386 . S
C657 C661 1.393 . S
C658 H650 0.950 . S
C658 C656 1.391 . S
C658 C659 1.400 . S
C659 C658 1.400 . S
C659 C660 1.398 . S
C659 C665 1.491 . S
C660 H651 0.950 . S
C660 C659 1.398 . S
C660 C661 1.391 . S
C661 H649 0.950 . S
C661 C657 1.393 . S
C661 C660 1.391 . S
C662 H652 0.950 . S
C662 C663 1.386 . S
C662 C664 1.391 . S
C663 C662 1.386 . S
C663 C667 1.393 . S
C664 H653 0.950 . S
C664 C662 1.391 . S
C664 C665 1.400 . S
C665 C659 1.491 . S
C665 C664 1.400 . S
C665 C666 1.398 . S
C666 H654 0.950 . S
C666 C665 1.398 . S
C666 C667 1.391 . S
C667 H655 0.950 . S
C667 C663 1.393 . S
C667 C666 1.391 . S
H668 C676 0.950 . S
H669 C681 0.950 . S
H670 C678 0.950 . S
H671 C680 0.950 . S
H672 C682 0.950 . S
H673 C684 0.950 . S
H674 C686 0.950 . S
H675 C687 0.950 . S
C676 H668 0.950 . S
C676 C677 1.386 . S
C676 C678 1.391 . S
C677 C676 1.386 . S
C677 C681 1.393 . S
C678 H670 0.950 . S
C678 C676 1.391 . S
C678 C679 1.400 . S
C679 C678 1.400 . S
C679 C680 1.398 . S
C679 C685 1.491 . S
C680 H671 0.950 . S
C680 C679 1.398 . S
C680 C681 1.391 . S
C681 H669 0.950 . S
C681 C677 1.393 . S
C681 C680 1.391 . S
C682 H672 0.950 . S
C682 C683 1.386 . S
C682 C684 1.391 . S
C683 C682 1.386 . S
C683 C687 1.393 . S
C684 H673 0.950 . S
C684 C682 1.391 . S
C684 C685 1.400 . S
C685 C679 1.491 . S
C685 C684 1.400 . S
C685 C686 1.398 . S
C686 H674 0.950 . S
C686 C685 1.398 . S
C686 C687 1.391 . S
C687 H675 0.950 . S
C687 C683 1.393 . S
C687 C686 1.391 . S
H688 C696 0.950 . S
H689 C701 0.950 . S
H690 C698 0.950 . S
H691 C700 0.950 . S
H692 C702 0.950 . S
H693 C704 0.950 . S
H694 C706 0.950 . S
H695 C707 0.950 . S
C696 H688 0.950 . S
C696 C697 1.386 . S
C696 C698 1.391 . S
C697 C696 1.386 . S
C697 C701 1.393 . S
C698 H690 0.950 . S
C698 C696 1.391 . S
C698 C699 1.400 . S
C699 C698 1.400 . S
C699 C700 1.398 . S
C699 C705 1.491 . S
C700 H691 0.950 . S
C700 C699 1.398 . S
C700 C701 1.391 . S
C701 H689 0.950 . S
C701 C697 1.393 . S
C701 C700 1.391 . S
C702 H692 0.950 . S
C702 C703 1.386 . S
C702 C704 1.391 . S
C703 C702 1.386 . S
C703 C707 1.393 . S
C704 H693 0.950 . S
C704 C702 1.391 . S
C704 C705 1.400 . S
C705 C699 1.491 . S
C705 C704 1.400 . S
C705 C706 1.398 . S
C706 H694 0.950 . S
C706 C705 1.398 . S
C706 C707 1.391 . S
C707 H695 0.950 . S
C707 C703 1.393 . S
C707 C706 1.391 . S
H708 C716 0.950 . S
H709 C721 0.950 . S
H710 C718 0.950 . S
H711 C720 0.950 . S
H712 C722 0.950 . S
H713 C724 0.950 . S
H714 C726 0.950 . S
H715 C727 0.950 . S
C716 H708 0.950 . S
C716 C717 1.386 . S
C716 C718 1.391 . S
C717 C716 1.386 . S
C717 C721 1.393 . S
C718 H710 0.950 . S
C718 C716 1.391 . S
C718 C719 1.400 . S
C719 C718 1.400 . S
C719 C720 1.398 . S
C719 C725 1.491 . S
C720 H711 0.950 . S
C720 C719 1.398 . S
C720 C721 1.391 . S
C721 H709 0.950 . S
C721 C717 1.393 . S
C721 C720 1.391 . S
C722 H712 0.950 . S
C722 C723 1.386 . S
C722 C724 1.391 . S
C723 C722 1.386 . S
C723 C727 1.393 . S
C724 H713 0.950 . S
C724 C722 1.391 . S
C724 C725 1.400 . S
C725 C719 1.491 . S
C725 C724 1.400 . S
C725 C726 1.398 . S
C726 H714 0.950 . S
C726 C725 1.398 . S
C726 C727 1.391 . S
C727 H715 0.950 . S
C727 C723 1.393 . S
C727 C726 1.391 . S
H728 C736 0.950 . S
H729 C741 0.950 . S
H730 C738 0.950 . S
H731 C740 0.950 . S
H732 C742 0.950 . S
H733 C744 0.950 . S
H734 C746 0.950 . S
H735 C747 0.950 . S
C736 H728 0.950 . S
C736 C737 1.386 1_556 S
C736 C738 1.391 . S
C737 C736 1.386 1_554 S
C737 C741 1.393 . S
C738 H730 0.950 . S
C738 C736 1.391 . S
C738 C739 1.400 1_556 S
C739 C738 1.400 1_554 S
C739 C740 1.398 . S
C739 C745 1.491 . S
C740 H731 0.950 . S
C740 C739 1.398 . S
C740 C741 1.391 . S
C741 H729 0.950 . S
C741 C737 1.393 . S
C741 C740 1.391 . S
C742 H732 0.950 . S
C742 C743 1.386 . S
C742 C744 1.391 . S
C743 C742 1.386 . S
C743 C747 1.393 1_554 S
C744 H733 0.950 . S
C744 C742 1.391 . S
C744 C745 1.400 . S
C745 C739 1.491 . S
C745 C744 1.400 . S
C745 C746 1.398 1_554 S
C746 H734 0.950 . S
C746 C745 1.398 1_556 S
C746 C747 1.391 . S
C747 H735 0.950 . S
C747 C743 1.393 1_556 S
C747 C746 1.391 . S
H748 C756 0.950 . S
H749 C761 0.950 . S
H750 C758 0.950 . S
H751 C760 0.950 . S
H752 C762 0.950 . S
H753 C764 0.950 . S
H754 C766 0.950 . S
H755 C767 0.950 . S
C756 H748 0.950 . S
C756 C757 1.386 . S
C756 C758 1.391 . S
C757 C756 1.386 . S
C757 C761 1.393 . S
C758 H750 0.950 . S
C758 C756 1.391 . S
C758 C759 1.400 . S
C759 C758 1.400 . S
C759 C760 1.398 . S
C759 C765 1.491 . S
C760 H751 0.950 . S
C760 C759 1.398 . S
C760 C761 1.391 . S
C761 H749 0.950 . S
C761 C757 1.393 . S
C761 C760 1.391 . S
C762 H752 0.950 . S
C762 C763 1.386 . S
C762 C764 1.391 . S
C763 C762 1.386 . S
C763 C767 1.393 . S
C764 H753 0.950 . S
C764 C762 1.391 . S
C764 C765 1.400 . S
C765 C759 1.491 . S
C765 C764 1.400 . S
C765 C766 1.398 . S
C766 H754 0.950 . S
C766 C765 1.398 . S
C766 C767 1.391 . S
C767 H755 0.950 . S
C767 C763 1.393 . S
C767 C766 1.391 . S
H768 C776 0.950 . S
H769 C781 0.950 . S
H770 C778 0.950 . S
H771 C780 0.953 . S
H772 C782 0.950 . S
H773 C784 0.950 . S
H774 C786 0.950 . S
H775 C787 0.950 . S
C776 H768 0.950 . S
C776 C777 1.386 . S
C776 C778 1.391 . S
C777 C776 1.386 . S
C777 C781 1.392 1_554 S
C778 H770 0.950 . S
C778 C776 1.391 . S
C778 C779 1.400 . S
C779 C778 1.400 . S
C779 C780 1.396 1_554 S
C779 C785 1.491 . S
C780 H771 0.953 . S
C780 C779 1.396 1_556 S
C780 C781 1.391 . S
C781 H769 0.950 . S
C781 C777 1.392 1_556 S
C781 C780 1.391 . S
C782 H772 0.950 . S
C782 C783 1.386 . S
C782 C784 1.391 . S
C783 C782 1.386 . S
C783 C787 1.393 . S
C784 H773 0.950 . S
C784 C782 1.391 . S
C784 C785 1.400 . S
C785 C779 1.491 . S
C785 C784 1.400 . S
C785 C786 1.398 . S
C786 H774 0.950 . S
C786 C785 1.398 . S
C786 C787 1.391 . S
C787 H775 0.950 . S
C787 C783 1.393 . S
C787 C786 1.391 . S
H788 C796 0.950 . S
H789 C801 0.950 . S
H790 C798 0.950 . S
H791 C800 0.950 . S
H792 C802 0.950 . S
H793 C804 0.950 . S
H794 C806 0.950 . S
H795 C807 0.950 . S
C796 H788 0.950 . S
C796 C797 1.386 . S
C796 C798 1.391 . S
C797 C796 1.386 . S
C797 C801 1.393 . S
C798 H790 0.950 . S
C798 C796 1.391 . S
C798 C799 1.400 . S
C799 C798 1.400 . S
C799 C800 1.398 . S
C799 C805 1.491 . S
C800 H791 0.950 . S
C800 C799 1.398 . S
C800 C801 1.391 . S
C801 H789 0.950 . S
C801 C797 1.393 . S
C801 C800 1.391 . S
C802 H792 0.950 . S
C802 C803 1.386 . S
C802 C804 1.391 . S
C803 C802 1.386 . S
C803 C807 1.393 . S
C804 H793 0.950 . S
C804 C802 1.391 . S
C804 C805 1.400 . S
C805 C799 1.491 . S
C805 C804 1.400 . S
C805 C806 1.398 . S
C806 H794 0.950 . S
C806 C805 1.398 . S
C806 C807 1.391 . S
C807 H795 0.950 . S
C807 C803 1.393 . S
C807 C806 1.391 . S
H808 C816 0.950 . S
H809 C821 0.950 . S
H810 C818 0.950 . S
H811 C820 0.950 . S
H812 C822 0.950 . S
H813 C824 0.950 . S
H814 C826 0.950 . S
H815 C827 0.950 . S
C816 H808 0.950 . S
C816 C817 1.386 . S
C816 C818 1.391 . S
C817 C816 1.386 . S
C817 C821 1.393 . S
C818 H810 0.950 . S
C818 C816 1.391 . S
C818 C819 1.400 . S
C819 C818 1.400 . S
C819 C820 1.398 . S
C819 C825 1.491 . S
C820 H811 0.950 . S
C820 C819 1.398 . S
C820 C821 1.391 . S
C821 H809 0.950 . S
C821 C817 1.393 . S
C821 C820 1.391 . S
C822 H812 0.950 . S
C822 C823 1.386 . S
C822 C824 1.391 . S
C823 C822 1.386 . S
C823 C827 1.393 . S
C824 H813 0.950 . S
C824 C822 1.391 . S
C824 C825 1.400 . S
C825 C819 1.491 . S
C825 C824 1.400 . S
C825 C826 1.398 . S
C826 H814 0.950 . S
C826 C825 1.398 . S
C826 C827 1.391 . S
C827 H815 0.950 . S
C827 C823 1.393 . S
C827 C826 1.391 . S
H828 C836 0.950 . S
H829 C841 0.950 . S
H830 C838 0.950 . S
H831 C840 0.950 . S
H832 C842 0.950 . S
H833 C844 0.950 . S
H834 C846 0.950 . S
H835 C847 0.950 . S
C836 H828 0.950 . S
C836 C837 1.386 1_556 S
C836 C838 1.391 . S
C837 C836 1.386 1_554 S
C837 C841 1.393 . S
C838 H830 0.950 . S
C838 C836 1.391 . S
C838 C839 1.400 1_556 S
C839 C838 1.400 1_554 S
C839 C840 1.398 . S
C839 C845 1.491 . S
C840 H831 0.950 . S
C840 C839 1.398 . S
C840 C841 1.391 . S
C841 H829 0.950 . S
C841 C837 1.393 . S
C841 C840 1.391 . S
C842 H832 0.950 . S
C842 C843 1.386 . S
C842 C844 1.391 . S
C843 C842 1.386 . S
C843 C847 1.393 1_554 S
C844 H833 0.950 . S
C844 C842 1.391 . S
C844 C845 1.400 . S
C845 C839 1.491 . S
C845 C844 1.400 . S
C845 C846 1.398 1_554 S
C846 H834 0.950 . S
C846 C845 1.398 1_556 S
C846 C847 1.391 . S
C847 H835 0.950 . S
C847 C843 1.393 1_556 S
C847 C846 1.391 . S
H848 C856 0.950 . S
H849 C861 0.950 . S
H850 C858 0.950 . S
H851 C860 0.950 . S
H852 C862 0.950 . S
H853 C864 0.950 . S
H854 C866 0.950 . S
H855 C867 0.950 . S
C856 H848 0.950 . S
C856 C857 1.386 . S
C856 C858 1.391 . S
C857 C856 1.386 . S
C857 C861 1.393 . S
C858 H850 0.950 . S
C858 C856 1.391 . S
C858 C859 1.400 . S
C859 C858 1.400 . S
C859 C860 1.398 . S
C859 C865 1.491 . S
C860 H851 0.950 . S
C860 C859 1.398 . S
C860 C861 1.391 . S
C861 H849 0.950 . S
C861 C857 1.393 . S
C861 C860 1.391 . S
C862 H852 0.950 . S
C862 C863 1.386 . S
C862 C864 1.391 . S
C863 C862 1.386 . S
C863 C867 1.393 . S
C864 H853 0.950 . S
C864 C862 1.391 . S
C864 C865 1.400 . S
C865 C859 1.491 . S
C865 C864 1.400 . S
C865 C866 1.398 . S
C866 H854 0.950 . S
C866 C865 1.398 . S
C866 C867 1.391 . S
C867 H855 0.950 . S
C867 C863 1.393 . S
C867 C866 1.391 . S
H868 C876 0.950 . S
H869 C881 0.950 . S
H870 C878 0.950 . S
H871 C880 0.950 . S
H872 C882 0.950 . S
H873 C884 0.950 . S
H874 C886 0.950 . S
H875 C887 0.950 . S
C876 H868 0.950 . S
C876 C877 1.386 . S
C876 C878 1.391 . S
C877 C876 1.386 . S
C877 C881 1.393 1_554 S
C878 H870 0.950 . S
C878 C876 1.391 . S
C878 C879 1.400 . S
C879 C878 1.400 . S
C879 C880 1.398 1_554 S
C879 C885 1.491 . S
C880 H871 0.950 . S
C880 C879 1.398 1_556 S
C880 C881 1.391 . S
C881 H869 0.950 . S
C881 C877 1.393 1_556 S
C881 C880 1.391 . S
C882 H872 0.950 . S
C882 C883 1.377 1_556 S
C882 C884 1.391 . S
C883 C882 1.377 1_554 S
C883 C887 1.402 . S
C884 H873 0.950 . S
C884 C882 1.391 . S
C884 C885 1.400 1_556 S
C885 C879 1.491 . S
C885 C884 1.400 1_554 S
C885 C886 1.398 . S
C886 H874 0.950 . S
C886 C885 1.398 . S
C886 C887 1.391 . S
C887 H875 0.950 . S
C887 C883 1.402 . S
C887 C886 1.391 . S
C417 C5 1.500 . S
C423 C210 1.501 . S
C437 C31 1.505 . S
C443 C90 1.507 . S
C463 C149 1.478 . S
C457 C53 1.509 . S
C477 C71 1.502 . S
C483 C189 1.471 . S
C503 C309 1.473 . S
C497 C75 1.504 . S
C523 C349 1.479 . S
C517 C9 1.511 . S
C543 C370 1.507 . S
C537 C27 1.506 . S
C563 C250 1.501 . S
C557 C49 1.496 . S
C577 C51 1.491 . S
C583 C130 1.459 . S
C597 C72 1.498 . S
C603 C170 1.464 . S
C617 C6 1.517 . S
C623 C229 1.511 . S
C643 C109 1.510 . S
C637 C29 1.502 . S
C657 C28 1.503 . S
C663 C389 1.511 . S
C683 C269 1.515 . S
C677 C50 1.509 . S
C703 C290 1.479 . S
C697 C73 1.500 . S
C717 C7 1.488 . S
C723 C330 1.475 . S
C743 C103 1.510 . S
C737 C4 1.518 . S
C763 C143 1.512 . S
C757 C30 1.514 . S
C777 C52 1.516 . S
C783 C183 1.509 . S
C797 C70 1.519 . S
C803 C223 1.508 . S
C823 C263 1.511 . S
C817 C74 1.518 . S
C837 C8 1.511 . S
C843 C303 1.515 . S
C857 C26 1.517 . S
C863 C343 1.506 . S
C877 C48 1.518 . S
C883 C383 1.512 . S
