# Generated by pormake.
# Topology soc, (4,6)-cn, num edge types: 1
# Building blocks:
#     Node 0, Type 0, BuildingBlock: ESEHIV_clean_sbu_0, # of connection points: 4
#     Node 1, Type 0, BuildingBlock: ESEHIV_clean_sbu_0, # of connection points: 4
#     Node 2, Type 0, BuildingBlock: ESEHIV_clean_sbu_0, # of connection points: 4
#     Node 3, Type 0, BuildingBlock: ESEHIV_clean_sbu_0, # of connection points: 4
#     Node 4, Type 0, BuildingBlock: ESEHIV_clean_sbu_0, # of connection points: 4
#     Node 5, Type 0, BuildingBlock: ESEHIV_clean_sbu_0, # of connection points: 4
#     Node 6, Type 0, BuildingBlock: ESEHIV_clean_sbu_0, # of connection points: 4
#     Node 7, Type 0, BuildingBlock: ESEHIV_clean_sbu_0, # of connection points: 4
#     Node 8, Type 0, BuildingBlock: ESEHIV_clean_sbu_0, # of connection points: 4
#     Node 9, Type 0, BuildingBlock: ESEHIV_clean_sbu_0, # of connection points: 4
#     Node 10, Type 0, BuildingBlock: ESEHIV_clean_sbu_0, # of connection points: 4
#     Node 11, Type 0, BuildingBlock: ESEHIV_clean_sbu_0, # of connection points: 4
#     Node 12, Type 1, BuildingBlock: BETGAK_clean_sbu_0, # of connection points: 6
#     Node 13, Type 1, BuildingBlock: BETGAK_clean_sbu_0, # of connection points: 6
#     Node 14, Type 1, BuildingBlock: BETGAK_clean_sbu_0, # of connection points: 6
#     Node 15, Type 1, BuildingBlock: BETGAK_clean_sbu_0, # of connection points: 6
#     Node 16, Type 1, BuildingBlock: BETGAK_clean_sbu_0, # of connection points: 6
#     Node 17, Type 1, BuildingBlock: BETGAK_clean_sbu_0, # of connection points: 6
#     Node 18, Type 1, BuildingBlock: BETGAK_clean_sbu_0, # of connection points: 6
#     Node 19, Type 1, BuildingBlock: BETGAK_clean_sbu_0, # of connection points: 6
#     Edge 20, Type (0, 1), BuildingBlock: ZUJKAS_clean_linker_0, # of connection points: 2
#     Edge 21, Type (0, 1), BuildingBlock: ZUJKAS_clean_linker_0, # of connection points: 2
#     Edge 22, Type (0, 1), BuildingBlock: ZUJKAS_clean_linker_0, # of connection points: 2
#     Edge 23, Type (0, 1), BuildingBlock: ZUJKAS_clean_linker_0, # of connection points: 2
#     Edge 24, Type (0, 1), BuildingBlock: ZUJKAS_clean_linker_0, # of connection points: 2
#     Edge 25, Type (0, 1), BuildingBlock: ZUJKAS_clean_linker_0, # of connection points: 2
#     Edge 26, Type (0, 1), BuildingBlock: ZUJKAS_clean_linker_0, # of connection points: 2
#     Edge 27, Type (0, 1), BuildingBlock: ZUJKAS_clean_linker_0, # of connection points: 2
#     Edge 28, Type (0, 1), BuildingBlock: ZUJKAS_clean_linker_0, # of connection points: 2
#     Edge 29, Type (0, 1), BuildingBlock: ZUJKAS_clean_linker_0, # of connection points: 2
#     Edge 30, Type (0, 1), BuildingBlock: ZUJKAS_clean_linker_0, # of connection points: 2
#     Edge 31, Type (0, 1), BuildingBlock: ZUJKAS_clean_linker_0, # of connection points: 2
#     Edge 32, Type (0, 1), BuildingBlock: ZUJKAS_clean_linker_0, # of connection points: 2
#     Edge 33, Type (0, 1), BuildingBlock: ZUJKAS_clean_linker_0, # of connection points: 2
#     Edge 34, Type (0, 1), BuildingBlock: ZUJKAS_clean_linker_0, # of connection points: 2
#     Edge 35, Type (0, 1), BuildingBlock: ZUJKAS_clean_linker_0, # of connection points: 2
#     Edge 36, Type (0, 1), BuildingBlock: ZUJKAS_clean_linker_0, # of connection points: 2
#     Edge 37, Type (0, 1), BuildingBlock: ZUJKAS_clean_linker_0, # of connection points: 2
#     Edge 38, Type (0, 1), BuildingBlock: ZUJKAS_clean_linker_0, # of connection points: 2
#     Edge 39, Type (0, 1), BuildingBlock: ZUJKAS_clean_linker_0, # of connection points: 2
#     Edge 40, Type (0, 1), BuildingBlock: ZUJKAS_clean_linker_0, # of connection points: 2
#     Edge 41, Type (0, 1), BuildingBlock: ZUJKAS_clean_linker_0, # of connection points: 2
#     Edge 42, Type (0, 1), BuildingBlock: ZUJKAS_clean_linker_0, # of connection points: 2
#     Edge 43, Type (0, 1), BuildingBlock: ZUJKAS_clean_linker_0, # of connection points: 2
#     Edge 44, Type (0, 1), BuildingBlock: ZUJKAS_clean_linker_0, # of connection points: 2
#     Edge 45, Type (0, 1), BuildingBlock: ZUJKAS_clean_linker_0, # of connection points: 2
#     Edge 46, Type (0, 1), BuildingBlock: ZUJKAS_clean_linker_0, # of connection points: 2
#     Edge 47, Type (0, 1), BuildingBlock: ZUJKAS_clean_linker_0, # of connection points: 2
#     Edge 48, Type (0, 1), BuildingBlock: ZUJKAS_clean_linker_0, # of connection points: 2
#     Edge 49, Type (0, 1), BuildingBlock: ZUJKAS_clean_linker_0, # of connection points: 2
#     Edge 50, Type (0, 1), BuildingBlock: ZUJKAS_clean_linker_0, # of connection points: 2
#     Edge 51, Type (0, 1), BuildingBlock: ZUJKAS_clean_linker_0, # of connection points: 2
#     Edge 52, Type (0, 1), BuildingBlock: ZUJKAS_clean_linker_0, # of connection points: 2
#     Edge 53, Type (0, 1), BuildingBlock: ZUJKAS_clean_linker_0, # of connection points: 2
#     Edge 54, Type (0, 1), BuildingBlock: ZUJKAS_clean_linker_0, # of connection points: 2
#     Edge 55, Type (0, 1), BuildingBlock: ZUJKAS_clean_linker_0, # of connection points: 2
#     Edge 56, Type (0, 1), BuildingBlock: ZUJKAS_clean_linker_0, # of connection points: 2
#     Edge 57, Type (0, 1), BuildingBlock: ZUJKAS_clean_linker_0, # of connection points: 2
#     Edge 58, Type (0, 1), BuildingBlock: ZUJKAS_clean_linker_0, # of connection points: 2
#     Edge 59, Type (0, 1), BuildingBlock: ZUJKAS_clean_linker_0, # of connection points: 2
#     Edge 60, Type (0, 1), BuildingBlock: ZUJKAS_clean_linker_0, # of connection points: 2
#     Edge 61, Type (0, 1), BuildingBlock: ZUJKAS_clean_linker_0, # of connection points: 2
#     Edge 62, Type (0, 1), BuildingBlock: ZUJKAS_clean_linker_0, # of connection points: 2
#     Edge 63, Type (0, 1), BuildingBlock: ZUJKAS_clean_linker_0, # of connection points: 2
#     Edge 64, Type (0, 1), BuildingBlock: ZUJKAS_clean_linker_0, # of connection points: 2
#     Edge 65, Type (0, 1), BuildingBlock: ZUJKAS_clean_linker_0, # of connection points: 2
#     Edge 66, Type (0, 1), BuildingBlock: ZUJKAS_clean_linker_0, # of connection points: 2
#     Edge 67, Type (0, 1), BuildingBlock: ZUJKAS_clean_linker_0, # of connection points: 2
# Relax obj value: 0.159
# Max RMSD: 0.243
# Mean RMSD: 0.165
data_MOF--net-soc--node1-ESEHIV_clean_sbu_0--node2-BETGAK_clean_sbu_0--edge1-ZUJKAS_clean_linker_0
_symmetry_space_group_name_H-M    P1
_symmetry_Int_Tables_number       1
_symmetry_cell_setting            triclinic
loop_
_symmetry_equiv_pos_as_xyz
'x, y, z'
_cell_length_a     64.327524
_cell_length_b     62.542954
_cell_length_c     55.433355
_cell_angle_alpha  84.022456
_cell_angle_beta   84.496988
_cell_angle_gamma 73.678929
loop_
_atom_site_label
_atom_site_type_symbol
_atom_site_fract_x
_atom_site_fract_y
_atom_site_fract_z
_atom_type_partial_charge
Cu0 Cu 0.0404 0.02241 0.34749 0.0
N1 N 0.05051 0.04052 0.36558 0.0
N2 N 0.06767 0.0653 0.3733 0.0
C3 C 0.06305 0.05375 0.35624 0.0
C4 C 0.05759 0.05903 0.39424 0.0
C5 C 0.04692 0.0438 0.38939 0.0
O6 O 0.06545 1.00275 0.33031 0.0
C7 C 1.00111 0.05267 0.34059 0.0
O8 O 1.00028 0.04804 0.36428 0.0
H9 H 0.06884 0.05462 0.33728 0.0
H10 H 0.03711 0.03586 0.40224 0.0
N11 N 0.02686 1.00337 0.36709 0.0
N12 N 1.00493 0.98125 0.37679 0.0
C13 C 1.01036 0.99659 0.36035 0.0
C14 C 0.0322 0.99184 0.38854 0.0
C15 C 1.01868 0.97811 0.39457 0.0
C16 C 0.08122 0.99319 0.34351 0.0
O17 O 0.07966 0.99817 0.36617 0.0
H18 H 1.00306 1.00218 0.34319 0.0
H19 H 0.04536 0.99287 0.39873 0.0
O20 O 1.01817 0.04292 0.32795 0.0
H21 H 0.05758 0.06528 0.41173 0.0
H22 H 1.01909 0.96657 0.4106 0.0
Cu23 Cu 0.04697 0.03241 0.75515 0.0
N24 N 0.03363 0.01682 0.73742 0.0
N25 N 1.01284 0.99509 0.73091 0.0
C26 C 1.01871 1.0065 0.74719 0.0
C27 C 0.02459 0.99834 0.71001 0.0
C28 C 0.03739 0.01183 0.71408 0.0
O29 O 0.02414 0.05153 0.77566 0.0
C30 C 0.08533 0.99969 0.75535 0.0
O31 O 0.08319 1.00607 0.73217 0.0
H32 H 1.01287 0.00674 0.76616 0.0
H33 H 0.04898 0.01712 0.70111 0.0
N34 N 0.05948 0.05216 0.73556 0.0
N35 N 0.0782 0.07751 0.72749 0.0
C36 C 0.07317 0.06191 0.74389 0.0
C37 C 0.05563 0.06179 0.71297 0.0
C38 C 0.06733 0.07739 0.70786 0.0
C39 C 1.00815 0.06327 0.76379 0.0
O40 O 1.00848 0.06071 0.74052 0.0
H41 H 0.07898 0.05781 0.76194 0.0
H42 H 0.0445 0.05838 0.70143 0.0
O43 O 0.07069 0.00975 0.77073 0.0
H44 H 0.02409 0.99134 0.69309 0.0
H45 H 0.0671 0.08839 0.69141 0.0
Cu46 Cu 0.33895 0.03989 0.07876 0.0
N47 N 0.35961 0.01992 0.06028 0.0
N48 N 0.37083 0.99128 0.03697 0.0
C49 C 0.35729 1.0001 0.05568 0.0
C50 C 0.3823 1.00613 0.02958 0.0
C51 C 0.37528 0.02386 0.04401 0.0
O52 O 0.32326 0.02121 0.09967 0.0
C53 C 0.3186 0.08309 0.05509 0.0
O54 O 0.32144 0.09107 0.07512 0.0
H55 H 0.34418 0.99356 0.06402 0.0
H56 H 0.37983 0.03936 0.04132 0.0
N57 N 0.35249 0.05372 0.09844 0.0
N58 N 0.35689 0.07397 0.12752 0.0
C59 C 0.34304 0.06517 0.11769 0.0
C60 C 0.37313 0.05496 0.09621 0.0
C61 C 0.3759 0.06745 0.11411 0.0
C62 C 0.33493 0.00745 0.11503 0.0
O63 O 0.35496 0.00834 0.11632 0.0
H64 H 0.3262 0.06726 0.12405 0.0
H65 H 0.38525 0.04764 0.08233 0.0
O66 O 0.32286 0.06195 0.05432 0.0
H67 H 0.3937 1.00509 1.01378 0.0
H68 H 0.39056 0.07202 0.11647 0.0
Cu69 Cu 0.06764 0.2973 0.09329 0.0
N70 N 0.07782 0.31517 0.06831 0.0
N71 N 0.09651 0.32349 0.03428 0.0
C72 C 0.09497 0.3078 0.05247 0.0
C73 C 0.07977 0.3415 0.03887 0.0
C74 C 0.06831 0.33636 0.05997 0.0
O75 O 0.09097 0.28532 0.11614 0.0
C76 C 0.04307 0.28632 0.06099 0.0
O77 O 0.03765 0.30822 0.05781 0.0
H78 H 0.10538 0.29083 0.05352 0.0
H79 H 0.05347 0.34692 0.06793 0.0
N80 N 0.0432 0.31397 0.11076 0.0
N81 N 1.01041 0.32217 0.13079 0.0
C82 C 0.02569 0.30678 0.11864 0.0
C83 C 0.03898 0.33464 0.11824 0.0
C84 C 1.01876 0.33975 0.13061 0.0
C85 C 0.0997 0.29976 0.12248 0.0
O86 O 0.09275 0.3205 0.11321 0.0
H87 H 0.02442 0.29036 0.11577 0.0
H88 H 0.04979 0.34527 0.1149 0.0
O89 O 0.05687 0.27649 0.07658 0.0
H90 H 0.07582 0.35704 0.02749 0.0
H91 H 1.01077 0.3553 0.13859 0.0
Cu92 Cu 0.79248 0.99432 0.01986 0.0
N93 N 0.81111 0.00843 1.00108 0.0
N94 N 0.82006 0.03708 0.97925 0.0
C95 C 0.80669 0.03077 0.99711 0.0
C96 C 0.83367 0.01781 0.97191 0.0
C97 C 0.82798 1.00013 0.98529 0.0
O98 O 0.77563 0.01657 0.04161 0.0
C99 C 0.76776 0.96868 1.00139 0.0
O100 O 0.76615 0.96 0.02387 0.0
H101 H 0.79317 0.04211 1.00642 0.0
H102 H 0.8347 0.98259 0.98255 0.0
N103 N 0.8074 0.96925 0.03888 0.0
N104 N 0.81335 0.94285 0.06987 0.0
C105 C 0.79906 0.96094 0.05975 0.0
C106 C 0.82776 0.95603 0.03556 0.0
C107 C 0.83147 0.93969 0.05465 0.0
C108 C 0.78637 0.02016 0.05823 0.0
O109 O 0.80659 0.00814 0.05997 0.0
H110 H 0.78262 0.96797 0.06708 0.0
H111 H 0.83912 0.95813 0.02044 0.0
O112 O 0.77652 0.9847 0.99685 0.0
H113 H 0.84587 0.0165 0.95686 0.0
H114 H 0.84643 0.92667 0.05717 0.0
Cu115 Cu 0.02477 0.74912 1.01424 0.0
N116 N 1.01114 0.73435 0.99558 0.0
N117 N 0.98791 0.72881 0.97076 0.0
C118 C 0.99549 0.74404 0.98018 0.0
C119 C 0.99934 0.70878 0.98062 0.0
C120 C 1.01363 0.71225 0.99586 0.0
O121 O 1.00273 0.76337 0.03949 0.0
C122 C 0.0559 0.77353 0.99775 0.0
O123 O 0.05792 0.77407 0.02101 0.0
H124 H 0.98931 0.76196 0.97662 0.0
H125 H 0.02473 0.69957 1.00677 0.0
N126 N 0.04713 0.7291 0.03088 0.0
N127 N 0.07405 0.72119 0.05598 0.0
C128 C 0.0536 0.73343 0.05177 0.0
C129 C 0.06379 0.71312 0.02169 0.0
C130 C 0.08036 0.70808 0.03722 0.0
C131 C 0.99654 0.74928 0.05494 0.0
O132 O 1.00489 0.72789 0.05207 0.0
H133 H 0.04414 0.7469 0.06232 0.0
H134 H 0.06472 0.70728 1.00383 0.0
O135 O 0.04038 0.76674 0.99143 0.0
H136 H 0.99749 0.69272 0.97714 0.0
H137 H 0.09651 0.69725 0.03361 0.0
Cu138 Cu 0.53974 0.52237 0.84752 0.0
N139 N 0.54944 0.5406 0.86582 0.0
N140 N 0.56808 0.56348 0.87523 0.0
C141 C 0.56474 0.55113 0.85814 0.0
C142 C 0.55422 0.56058 0.8944 0.0
C143 C 0.5427 0.54651 0.8885 0.0
O144 O 0.56469 0.50424 0.82869 0.0
C145 C 0.49761 0.54849 0.84221 0.0
O146 O 0.49664 0.54172 0.86543 0.0
H147 H 0.57338 0.54948 0.8404 0.0
H148 H 0.53017 0.54113 0.89984 0.0
N149 N 0.52898 0.50142 0.86734 0.0
N150 N 0.51197 0.47481 0.8767 0.0
C151 C 0.5157 0.4907 0.85985 0.0
C152 C 0.53402 0.49197 0.88973 0.0
C153 C 0.52352 0.47545 0.89557 0.0
C154 C 0.58092 0.49443 0.84116 0.0
O155 O 0.5799 0.4985 0.86408 0.0
H156 H 0.50959 0.49393 0.84191 0.0
H157 H 0.54503 0.49631 0.9007 0.0
O158 O 0.5156 0.54192 0.82958 0.0
H159 H 0.5522 0.5684 0.91131 0.0
H160 H 0.5245 0.46462 0.91222 0.0
Cu161 Cu 0.55057 0.53569 0.26205 0.0
N162 N 0.53712 0.51925 0.24547 0.0
N163 N 0.51675 0.49665 0.24015 0.0
C164 C 0.52348 0.50771 0.25617 0.0
C165 C 0.52665 0.50146 0.21847 0.0
C166 C 0.5392 0.51541 0.22181 0.0
O167 O 0.52782 0.55703 0.28032 0.0
C168 C 0.58755 0.50186 0.26568 0.0
O169 O 0.58551 0.50591 0.24216 0.0
H170 H 0.51905 0.50704 0.27551 0.0
H171 H 0.54935 0.52199 0.20804 0.0
N172 N 0.56503 0.5531 0.24125 0.0
N173 N 0.58809 0.57395 0.23077 0.0
C174 C 0.58171 0.55963 0.24785 0.0
C175 C 0.56058 0.56357 0.21912 0.0
C176 C 0.57488 0.57639 0.21254 0.0
C177 C 0.51229 0.56822 0.2675 0.0
O178 O 0.51283 0.56373 0.24479 0.0
H179 H 0.58876 0.55411 0.26514 0.0
H180 H 0.54744 0.5626 0.20887 0.0
O181 O 0.57305 0.51364 0.27996 0.0
H182 H 0.52494 0.4954 0.20138 0.0
H183 H 0.57493 0.58729 0.19606 0.0
Cu184 Cu 0.80055 0.5557 0.5734 0.0
N185 N 0.7857 0.57578 0.54924 0.0
N186 N 0.7796 0.60157 0.51761 0.0
C187 C 0.79256 0.59207 0.53585 0.0
C188 C 0.76374 0.59105 0.51998 0.0
C189 C 0.76759 0.57515 0.53942 0.0
O190 O 0.80933 0.57169 0.5971 0.0
C191 C 0.82933 0.53212 0.53618 0.0
O192 O 0.82489 0.5511 0.5226 0.0
H193 H 0.80761 0.59573 0.53842 0.0
H194 H 0.75834 0.56331 0.54531 0.0
N195 N 0.78249 0.54008 0.59079 0.0
N196 N 0.7738 0.51151 0.61307 0.0
C197 C 0.78975 0.51895 0.60045 0.0
C198 C 0.76115 0.54648 0.59754 0.0
C199 C 0.75572 0.52884 0.61131 0.0
C200 C 0.82339 0.5827 0.5942 0.0
O201 O 0.83507 0.58286 0.57343 0.0
H202 H 0.80665 0.50952 0.59882 0.0
H203 H 0.7504 0.56285 0.59307 0.0
O204 O 0.82331 0.53204 0.55874 0.0
H205 H 0.75059 0.59412 0.50817 0.0
H206 H 0.73972 0.52885 0.61938 0.0
Cu207 Cu 0.5663 0.77981 0.58679 0.0
N208 N 0.5896 0.76388 0.56621 0.0
N209 N 0.61646 0.75723 0.53634 0.0
C210 C 0.59946 0.77264 0.54646 0.0
C211 C 0.61735 0.7381 0.55052 0.0
C212 C 0.60098 0.74226 0.56885 0.0
O213 O 0.57963 0.79185 0.61056 0.0
C214 C 0.54137 0.79441 0.54802 0.0
O215 O 0.55103 0.77362 0.54345 0.0
H216 H 0.5942 0.79004 0.53972 0.0
H217 H 0.59804 0.73041 0.58349 0.0
N218 N 0.54858 0.76269 0.60353 0.0
N219 N 0.51927 0.75547 0.62482 0.0
C220 C 0.53014 0.77099 0.61749 0.0
C221 C 0.54938 0.74116 0.60193 0.0
C222 C 0.53152 0.73665 0.61507 0.0
C223 C 0.59112 0.77727 0.6253 0.0
O224 O 0.59169 0.75621 0.62433 0.0
H225 H 0.52437 0.7884 0.62124 0.0
H226 H 0.5616 0.72967 0.59126 0.0
O227 O 0.54632 0.80197 0.56652 0.0
H228 H 0.62942 0.72229 0.54836 0.0
H229 H 0.52778 0.72072 0.61695 0.0
Cu230 Cu 0.28644 0.507 0.53638 0.0
N231 N 0.30414 0.52273 0.51762 0.0
N232 N 0.3131 0.55083 0.49436 0.0
C233 C 0.29772 0.54455 0.50951 0.0
C234 C 0.3299 0.53221 0.49299 0.0
C235 C 0.32435 0.51496 0.50737 0.0
O236 O 0.26298 0.53013 0.55062 0.0
C237 C 0.28962 0.47354 0.50613 0.0
O238 O 0.30975 0.46832 0.51232 0.0
H239 H 0.28171 0.55537 0.51386 0.0
H240 H 0.33419 0.49784 0.50971 0.0
N241 N 0.30131 0.48666 0.56067 0.0
N242 N 0.30814 0.45959 0.59118 0.0
C243 C 0.29389 0.47103 0.57478 0.0
C244 C 0.32101 0.48494 0.56822 0.0
C245 C 0.32528 0.46828 0.58695 0.0
C246 C 0.25987 0.53246 0.57332 0.0
O247 O 0.27071 0.51677 0.5886 0.0
H248 H 0.27822 0.4683 0.57315 0.0
H249 H 0.33139 0.49532 0.56089 0.0
O250 O 0.27592 0.49037 0.51484 0.0
H251 H 0.34506 0.53109 0.48221 0.0
H252 H 0.33967 0.46341 0.5971 0.0
Cu253 Cu 0.51931 0.26106 0.52635 0.0
N254 N 0.54146 0.24604 0.50467 0.0
N255 N 0.57237 0.23846 0.48086 0.0
C256 C 0.55891 0.25296 0.4957 0.0
C257 C 0.5628 0.22188 0.48027 0.0
C258 C 0.54374 0.22662 0.49493 0.0
O259 O 0.5322 0.27956 0.54394 0.0
C260 C 0.48328 0.26286 0.50099 0.0
O261 O 0.48939 0.24159 0.50866 0.0
H262 H 0.56155 0.26844 0.49996 0.0
H263 H 0.53245 0.21652 0.49837 0.0
N264 N 0.51121 0.24105 0.55047 0.0
N265 N 0.49441 0.22888 0.58415 0.0
C266 C 0.49556 0.24665 0.56847 0.0
C267 C 0.52036 0.219 0.55486 0.0
C268 C 0.51001 0.21144 0.57557 0.0
C269 C 0.54962 0.26848 0.55388 0.0
O270 O 0.55674 0.24691 0.55149 0.0
H271 H 0.48571 0.26361 0.57039 0.0
H272 H 0.53391 0.20918 0.54411 0.0
O273 O 0.49395 0.27573 0.50703 0.0
H274 H 0.56924 0.20715 0.47035 0.0
H275 H 0.51378 0.19441 0.58367 0.0
La276 La 0.27391 0.27347 0.3329 0.0
La277 La 0.30467 0.29667 0.29534 0.0
C278 C 0.24261 0.25925 0.35137 0.0
C279 C 0.22995 0.24368 0.34708 0.0
C280 C 0.23623 0.22141 0.35706 0.0
C281 C 0.22306 0.20726 0.35608 0.0
C282 C 0.20314 0.21501 0.34528 0.0
C283 C 0.19719 0.23702 0.33439 0.0
C284 C 0.21043 0.25127 0.33538 0.0
C285 C 0.31089 0.27398 0.35145 0.0
C286 C 0.30558 0.24591 0.29209 0.0
C287 C 0.33635 0.30979 0.2761 0.0
C288 C 0.35166 0.3221 0.28112 0.0
C289 C 0.37206 0.31757 0.26831 0.0
C290 C 0.386 0.33078 0.27014 0.0
C291 C 0.37979 0.34887 0.28484 0.0
C292 C 0.35964 0.3528 0.2985 0.0
C293 C 0.3457 0.33948 0.29669 0.0
C294 C 0.26765 0.29611 0.27682 0.0
C295 C 0.27442 0.32346 0.33776 0.0
O296 O 0.26291 0.2501 0.35637 0.0
O297 O 0.24009 0.278 0.33737 0.0
O298 O 0.29612 0.2655 0.3629 0.0
O299 O 0.30417 0.28088 0.33076 0.0
O300 O 0.28838 0.24771 0.30788 0.0
O301 O 0.31556 0.26191 0.28658 0.0
O302 O 0.31598 0.32145 0.27456 0.0
O303 O 0.33843 0.2899 0.28757 0.0
O304 O 0.28216 0.30503 0.26549 0.0
O305 O 0.27463 0.28894 0.29732 0.0
O306 O 0.29159 0.32135 0.32186 0.0
O307 O 0.26355 0.30808 0.34255 0.0
H308 H 0.25106 0.215 0.36636 0.0
H309 H 0.22831 0.19028 0.36425 0.0
H310 H 0.1819 0.24352 0.32601 0.0
H311 H 0.20502 0.26839 0.32769 0.0
H312 H 0.3769 0.30428 0.25613 0.0
H313 H 0.40124 0.32743 0.25915 0.0
H314 H 0.3545 0.36641 0.31024 0.0
H315 H 0.33003 0.34317 0.30686 0.0
La316 La 0.80104 0.28679 0.32259 0.0
La317 La 0.78475 0.2647 0.28635 0.0
C318 C 0.81353 0.31432 0.34392 0.0
C319 C 0.81214 0.3263 0.36597 0.0
C320 C 0.82932 0.31967 0.38142 0.0
C321 C 0.83087 0.33327 0.39926 0.0
C322 C 0.81533 0.35391 0.40203 0.0
C323 C 0.79749 0.36 0.38747 0.0
C324 C 0.79596 0.3464 0.36954 0.0
C325 C 0.82091 0.24378 0.32034 0.0
C326 C 0.76492 0.26461 0.34221 0.0
C327 C 0.77276 0.23718 0.2644 0.0
C328 C 0.77676 0.22372 0.24306 0.0
C329 C 0.76531 0.23204 0.22216 0.0
C330 C 0.76569 0.21806 0.20389 0.0
C331 C 0.77743 0.19537 0.20612 0.0
C332 C 0.78966 0.1873 0.22651 0.0
C333 C 0.78926 0.20128 0.24482 0.0
C334 C 0.76501 0.30776 0.28882 0.0
C335 C 0.82057 0.28707 0.26686 0.0
O336 O 0.82287 0.29281 0.34515 0.0
O337 O 0.79719 0.32005 0.33 0.0
O338 O 0.81661 0.25401 0.34017 0.0
O339 O 0.81483 0.25785 0.30267 0.0
O340 O 0.77445 0.27992 0.34638 0.0
O341 O 0.76852 0.25539 0.32116 0.0
O342 O 0.76534 0.2589 0.26074 0.0
O343 O 0.78654 0.23131 0.28142 0.0
O344 O 0.76903 0.29768 0.26892 0.0
O345 O 0.77103 0.29351 0.30629 0.0
O346 O 0.812 0.27088 0.26329 0.0
O347 O 0.81609 0.29704 0.28745 0.0
H348 H 0.84219 0.30444 0.37895 0.0
H349 H 0.84464 0.32794 0.4104 0.0
H350 H 0.78533 0.37587 0.38899 0.0
H351 H 0.78268 0.35218 0.35774 0.0
H352 H 0.75529 0.24915 0.22033 0.0
H353 H 0.75634 0.22491 0.18827 0.0
H354 H 0.7987 0.16987 0.22897 0.0
H355 H 0.79796 0.1942 0.26085 0.0
La356 La 0.80176 0.74948 0.28898 0.0
La357 La 0.80518 0.79465 0.30165 0.0
C358 C 0.79944 0.70985 0.2886 0.0
C359 C 0.78288 0.69954 0.28263 0.0
C360 C 0.76592 0.71156 0.26828 0.0
C361 C 0.75035 0.7015 0.26258 0.0
C362 C 0.75138 0.67932 0.27131 0.0
C363 C 0.76832 0.66744 0.28589 0.0
C364 C 0.78395 0.67748 0.29146 0.0
C365 C 0.78002 0.78446 0.26149 0.0
C366 C 0.76961 0.77512 0.33066 0.0
C367 C 0.80728 0.83439 0.30157 0.0
C368 C 0.82307 0.84525 0.30869 0.0
C369 C 0.83483 0.83711 0.32935 0.0
C370 C 0.84966 0.84776 0.33586 0.0
C371 C 0.85315 0.86664 0.32172 0.0
C372 C 0.84148 0.87453 0.30087 0.0
C373 C 0.82656 0.86396 0.29447 0.0
C374 C 0.82644 0.75992 0.32981 0.0
C375 C 0.83745 0.7686 0.26027 0.0
O376 O 0.80784 0.72052 0.27046 0.0
O377 O 0.79472 0.7211 0.30788 0.0
O378 O 0.78675 0.76428 0.25503 0.0
O379 O 0.78289 0.78364 0.28366 0.0
O380 O 0.78015 0.75572 0.32211 0.0
O381 O 0.77402 0.79395 0.32135 0.0
O382 O 0.79755 0.82436 0.3191 0.0
O383 O 0.8134 0.8225 0.28282 0.0
O384 O 0.82049 0.78039 0.33545 0.0
O385 O 0.82374 0.76048 0.30757 0.0
O386 O 0.82658 0.78817 0.26826 0.0
O387 O 0.83314 0.74987 0.26995 0.0
H388 H 0.76472 0.72872 0.26149 0.0
H389 H 0.73734 0.71118 0.2516 0.0
H390 H 0.76966 0.65027 0.29271 0.0
H391 H 0.79692 0.66799 0.30261 0.0
H392 H 0.83251 0.82259 0.34055 0.0
H393 H 0.85814 0.84135 0.35217 0.0
H394 H 0.84403 0.88876 0.2893 0.0
H395 H 0.81778 0.87037 0.27834 0.0
La396 La 0.28457 0.7781 0.29129 0.0
La397 La 0.31766 0.79255 0.31538 0.0
C398 C 0.25297 0.77282 0.27119 0.0
C399 C 0.23956 0.77799 0.25006 0.0
C400 C 0.24884 0.77351 0.22647 0.0
C401 C 0.23574 0.77286 0.20795 0.0
C402 C 0.21316 0.77669 0.21266 0.0
C403 C 0.20381 0.78287 0.23578 0.0
C404 C 0.21691 0.78345 0.25429 0.0
C405 C 0.32424 0.75075 0.28919 0.0
C406 C 0.30711 0.81338 0.26327 0.0
C407 C 0.35048 0.79596 0.33476 0.0
C408 C 0.35762 0.80102 0.35757 0.0
C409 C 0.36551 0.81982 0.35717 0.0
C410 C 0.37447 0.82409 0.3775 0.0
C411 C 0.37588 0.80956 0.39877 0.0
C412 C 0.36746 0.79098 0.39941 0.0
C413 C 0.35842 0.78673 0.37899 0.0
C414 C 0.2777 0.81922 0.31994 0.0
C415 C 0.2955 0.75621 0.34349 0.0
O416 O 0.27303 0.76067 0.26793 0.0
O417 O 0.25088 0.78809 0.28639 0.0
O418 O 0.30659 0.74456 0.29111 0.0
O419 O 0.31951 0.77182 0.28685 0.0
O420 O 0.28928 0.80651 0.26653 0.0
O421 O 0.32309 0.8052 0.27785 0.0
O422 O 0.33715 0.81251 0.32292 0.0
O423 O 0.34568 0.77703 0.33415 0.0
O424 O 0.29511 0.82561 0.31987 0.0
O425 O 0.283 0.79823 0.32042 0.0
O426 O 0.31162 0.76579 0.34193 0.0
O427 O 0.28072 0.76137 0.32721 0.0
H428 H 0.26628 0.76926 0.22264 0.0
H429 H 0.24339 0.76845 0.19021 0.0
H430 H 0.18651 0.78578 0.2401 0.0
H431 H 0.20941 0.78673 0.27238 0.0
H432 H 0.36534 0.83095 0.34079 0.0
H433 H 0.38112 0.8383 0.37614 0.0
H434 H 0.36813 0.77956 0.41559 0.0
H435 H 0.35251 0.77205 0.37984 0.0
La436 La 0.29403 0.78065 0.82187 0.0
La437 La 0.27613 0.7565 0.78955 0.0
C438 C 0.30331 0.80568 0.84914 0.0
C439 C 0.29578 0.82119 0.86844 0.0
C440 C 0.303 0.81419 0.89182 0.0
C441 C 0.30145 0.82977 0.90862 0.0
C442 C 0.29273 0.8527 0.90233 0.0
C443 C 0.28368 0.85949 0.87973 0.0
C444 C 0.28526 0.84387 0.86287 0.0
C445 C 0.3184 0.73969 0.8154 0.0
C446 C 0.25322 0.76361 0.84266 0.0
C447 C 0.26243 0.72948 0.76911 0.0
C448 C 0.25823 0.72432 0.74505 0.0
C449 C 0.23838 0.72003 0.74236 0.0
C450 C 0.23447 0.71288 0.72065 0.0
C451 C 0.25041 0.70981 0.70117 0.0
C452 C 0.27002 0.71499 0.70355 0.0
C453 C 0.2739 0.72223 0.72533 0.0
C454 C 0.2616 0.80088 0.78369 0.0
C455 C 0.31533 0.77481 0.76874 0.0
O456 O 0.30507 0.7844 0.85505 0.0
O457 O 0.29678 0.81238 0.82716 0.0
O458 O 0.32562 0.75653 0.81768 0.0
O459 O 0.29789 0.74559 0.81807 0.0
O460 O 0.26593 0.77635 0.8458 0.0
O461 O 0.25593 0.75259 0.82298 0.0
O462 O 0.24989 0.748 0.77721 0.0
O463 O 0.2827 0.72583 0.77415 0.0
O464 O 0.26546 0.78778 0.76616 0.0
O465 O 0.26525 0.78884 0.8032 0.0
O466 O 0.30586 0.75866 0.76793 0.0
O467 O 0.3094 0.78875 0.78621 0.0
H468 H 0.31138 0.79685 0.89653 0.0
H469 H 0.30878 0.82393 0.92574 0.0
H470 H 0.27653 0.87702 0.87453 0.0
H471 H 0.27952 0.8498 0.84498 0.0
H472 H 0.22611 0.72149 0.7574 0.0
H473 H 0.21935 0.70872 0.71959 0.0
H474 H 0.28253 0.71297 0.68877 0.0
H475 H 0.2893 0.72562 0.72692 0.0
La476 La 0.29438 0.24693 0.80532 0.0
La477 La 0.3067 0.2851 0.82222 0.0
C478 C 0.282 0.21252 0.80216 0.0
C479 C 0.26198 0.20687 0.79822 0.0
C480 C 0.24639 0.22095 0.78336 0.0
C481 C 0.22859 0.21411 0.77788 0.0
C482 C 0.22603 0.19318 0.78737 0.0
C483 C 0.24128 0.17955 0.803 0.0
C484 C 0.25911 0.18634 0.80832 0.0
C485 C 0.2893 0.2824 0.7736 0.0
C486 C 0.25984 0.28244 0.83697 0.0
C487 C 0.31952 0.31922 0.82551 0.0
C488 C 0.34007 0.32528 0.82603 0.0
C489 C 0.35156 0.32061 0.84715 0.0
C490 C 0.36961 0.32857 0.84839 0.0
C491 C 0.37657 0.34141 0.82856 0.0
C492 C 0.36552 0.3454 0.80714 0.0
C493 C 0.3474 0.33749 0.80593 0.0
C494 C 0.31126 0.24973 0.85406 0.0
C495 C 0.34108 0.25005 0.79033 0.0
O496 O 0.29022 0.22309 0.78378 0.0
O497 O 0.28265 0.22063 0.8228 0.0
O498 O 0.29402 0.26202 0.76784 0.0
O499 O 0.28545 0.28252 0.7963 0.0
O500 O 0.26582 0.26212 0.82922 0.0
O501 O 0.27218 0.29625 0.83211 0.0
O502 O 0.31407 0.30687 0.84419 0.0
O503 O 0.31541 0.31323 0.80495 0.0
O504 O 0.30623 0.27019 0.85964 0.0
O505 O 0.31557 0.24942 0.8314 0.0
O506 O 0.33472 0.2705 0.79762 0.0
O507 O 0.32914 0.23592 0.79597 0.0
H508 H 0.24824 0.23698 0.77552 0.0
H509 H 0.21696 0.22505 0.76602 0.0
H510 H 0.23988 0.16324 0.81039 0.0
H511 H 0.27101 0.17526 0.81981 0.0
H512 H 0.34627 0.3114 0.86306 0.0
H513 H 0.37752 0.32547 0.86529 0.0
H514 H 0.37062 0.355 0.79144 0.0
H515 H 0.33878 0.34144 0.78946 0.0
La516 La 0.77972 0.27186 0.79447 0.0
La517 La 0.81274 0.28717 0.81962 0.0
C518 C 0.74848 0.26722 0.77277 0.0
C519 C 0.73348 0.27511 0.7528 0.0
C520 C 0.73494 0.26104 0.73416 0.0
C521 C 0.71926 0.26598 0.71705 0.0
C522 C 0.7015 0.28523 0.71796 0.0
C523 C 0.70034 0.29969 0.73628 0.0
C524 C 0.71609 0.29466 0.75354 0.0
C525 C 0.81907 0.24391 0.79498 0.0
C526 C 0.80198 0.30843 0.76747 0.0
C527 C 0.8438 0.29138 0.84201 0.0
C528 C 0.85933 0.2819 0.86132 0.0
C529 C 0.85315 0.28579 0.8859 0.0
C530 C 0.86867 0.28058 0.90333 0.0
C531 C 0.89089 0.27147 0.8967 0.0
C532 C 0.89691 0.26677 0.87228 0.0
C533 C 0.88138 0.27197 0.85486 0.0
C534 C 0.77332 0.31502 0.81906 0.0
C535 C 0.79071 0.25032 0.84624 0.0
O536 O 0.76897 0.25784 0.76681 0.0
O537 O 0.74593 0.27898 0.79163 0.0
O538 O 0.80129 0.23799 0.79566 0.0
O539 O 0.81466 0.26498 0.79224 0.0
O540 O 0.78548 0.29942 0.76956 0.0
O541 O 0.81692 0.30346 0.78358 0.0
O542 O 0.82322 0.29952 0.84871 0.0
O543 O 0.84651 0.2815 0.82175 0.0
O544 O 0.79105 0.32104 0.81839 0.0
O545 O 0.77788 0.29395 0.82188 0.0
O546 O 0.80743 0.25901 0.84394 0.0
O547 O 0.77543 0.25591 0.83056 0.0
H548 H 0.74785 0.24561 0.73335 0.0
H549 H 0.72066 0.25412 0.70368 0.0
H550 H 0.68714 0.31482 0.73749 0.0
H551 H 0.7143 0.30578 0.76779 0.0
H552 H 0.83641 0.29374 0.89158 0.0
H553 H 0.86332 0.2847 0.92181 0.0
H554 H 0.91375 0.25944 0.86646 0.0
H555 H 0.88679 0.26897 0.83608 0.0
La556 La 0.76794 0.77461 0.80636 0.0
La557 La 0.80294 0.7935 0.77413 0.0
C558 C 0.73268 0.76554 0.81971 0.0
C559 C 0.72441 0.74599 0.8271 0.0
C560 C 0.70745 0.74777 0.84529 0.0
C561 C 0.69807 0.73014 0.85142 0.0
C562 C 0.70543 0.7104 0.83937 0.0
C563 C 0.7228 0.70845 0.82151 0.0
C564 C 0.73227 0.72607 0.81547 0.0
C565 C 0.80675 0.7611 0.82496 0.0
C566 C 0.79934 0.74561 0.76627 0.0
C567 C 0.8333 0.80879 0.75488 0.0
C568 C 0.84792 0.8221 0.75888 0.0
C569 C 0.86153 0.82702 0.73917 0.0
C570 C 0.87536 0.8401 0.74171 0.0
C571 C 0.87593 0.8485 0.76413 0.0
C572 C 0.8622 0.84351 0.784 0.0
C573 C 0.84826 0.83033 0.78139 0.0
C574 C 0.76558 0.798 0.75531 0.0
C575 C 0.77629 0.81939 0.81882 0.0
O576 O 0.74491 0.77043 0.83475 0.0
O577 O 0.73994 0.76772 0.7969 0.0
O578 O 0.7898 0.75506 0.83447 0.0
O579 O 0.80099 0.77287 0.80584 0.0
O580 O 0.78084 0.74934 0.78014 0.0
O581 O 0.81205 0.75924 0.76407 0.0
O582 O 0.81268 0.81953 0.75369 0.0
O583 O 0.83642 0.78902 0.76685 0.0
O584 O 0.78411 0.79494 0.7429 0.0
O585 O 0.76825 0.79972 0.77718 0.0
O586 O 0.79414 0.81543 0.80393 0.0
O587 O 0.76213 0.80738 0.82002 0.0
H588 H 0.70111 0.76303 0.85439 0.0
H589 H 0.68456 0.73228 0.86504 0.0
H590 H 0.72898 0.69336 0.81209 0.0
H591 H 0.74544 0.72427 0.80145 0.0
H592 H 0.86131 0.82091 0.72162 0.0
H593 H 0.88531 0.844 0.7259 0.0
H594 H 0.86233 0.84966 0.80152 0.0
H595 H 0.83776 0.82667 0.79679 0.0
H596 H 0.07419 0.09046 0.33184 0.0
H597 H 0.09713 0.11607 0.32548 0.0
H598 H 0.11308 0.10199 0.40031 0.0
H599 H 0.0906 0.07591 0.40669 0.0
H600 H 0.09427 0.1546 0.3499 0.0
H601 H 0.17275 0.09015 0.36177 0.0
H602 H 0.1482 0.08326 0.35653 0.0
H603 H 0.15245 0.08957 0.38626 0.0
C604 C 0.08274 0.0926 0.3469 0.0
C605 C 0.08068 0.08094 0.36974 0.0
C606 C 0.09573 0.10738 0.34326 0.0
C607 C 0.10704 0.11068 0.36231 0.0
C608 C 0.10476 0.0994 0.38524 0.0
H609 H 0.19345 0.18841 0.3844 0.0
H610 H 0.16974 0.16379 0.38699 0.0
C611 C 0.09172 0.08467 0.38893 0.0
C612 C 0.12112 0.12606 0.35826 0.0
H613 H 0.17345 0.12802 0.35995 0.0
C614 C 0.11161 0.14882 0.35193 0.0
C615 C 0.14373 0.1184 0.36082 0.0
C616 C 0.15498 0.09399 0.3665 0.0
C617 C 0.12403 0.16429 0.3489 0.0
C618 C 0.1466 0.15667 0.35184 0.0
C619 C 0.15614 0.13384 0.35776 0.0
C620 C 0.16056 0.17216 0.34993 0.0
C621 C 0.11277 0.18872 0.34337 0.0
C622 C 0.16335 0.18504 0.32816 0.0
C623 C 0.17699 0.19918 0.32659 0.0
C624 C 0.18826 0.20045 0.34669 0.0
C625 C 0.18532 0.18754 0.36844 0.0
C626 C 0.17168 0.17353 0.37001 0.0
H627 H 0.0949 0.19242 0.34729 0.0
H628 H 0.11903 0.19931 0.35411 0.0
H629 H 0.11596 0.19345 0.3238 0.0
H630 H 0.15525 0.18392 0.31228 0.0
H631 H 0.17907 0.20874 0.30953 0.0
H632 H 0.95906 0.0608 0.35733 0.0
H633 H 0.92861 0.09198 0.34506 0.0
H634 H 0.97012 0.1146 0.28838 0.0
H635 H 1.00096 0.08297 0.30064 0.0
H636 H 0.94711 0.14745 0.3209 0.0
H637 H 0.89114 0.10685 0.28606 0.0
H638 H 0.90135 0.09372 0.31454 0.0
H639 H 0.9198 0.09335 0.28796 0.0
C640 C 0.96165 0.07211 0.34189 0.0
C641 C 0.9824 0.06944 0.32993 0.0
C642 C 0.94416 0.08988 0.3348 0.0
C643 C 0.94697 0.10554 0.31564 0.0
C644 C 0.96754 0.10258 0.30308 0.0
H645 H 0.83708 0.22257 0.27894 0.0
H646 H 0.86796 0.18914 0.2748 0.0
C647 C 0.9851 0.08448 0.30999 0.0
C648 C 0.92891 0.12604 0.31088 0.0
H649 H 0.87502 0.14353 0.30001 0.0
C650 C 0.93148 0.14666 0.31586 0.0
C651 C 0.90849 0.12507 0.30424 0.0
C652 C 0.90503 0.10359 0.29766 0.0
C653 C 0.9139 0.16604 0.31571 0.0
C654 C 0.89317 0.16475 0.3106 0.0
C655 C 0.89086 0.14444 0.30424 0.0
C656 C 0.87359 0.18407 0.31308 0.0
C657 C 0.91751 0.18769 0.32157 0.0
C658 C 0.86611 0.19187 0.33605 0.0
C659 C 0.84843 0.21077 0.33849 0.0
C660 C 0.83791 0.22233 0.31798 0.0
C661 C 0.84491 0.21404 0.29506 0.0
C662 C 0.86255 0.19499 0.29266 0.0
H663 H 0.93497 0.18726 0.31922 0.0
H664 H 0.90819 0.20199 0.30986 0.0
H665 H 0.91178 0.19063 0.34079 0.0
H666 H 0.87418 0.18349 0.3521 0.0
H667 H 0.84338 0.21668 0.35639 0.0
H668 H 0.9672 0.99786 0.35519 0.0
H669 H 0.94111 0.97763 0.34838 0.0
H670 H 0.9803 0.91811 0.38569 0.0
H671 H 1.00631 0.93845 0.39285 0.0
H672 H 0.94865 0.94179 0.32238 0.0
H673 H 0.92057 0.92 0.41716 0.0
H674 H 0.93576 0.94034 0.40971 0.0
H675 H 0.94949 0.91095 0.41123 0.0
C676 C 0.97017 0.9805 0.36208 0.0
C677 C 0.98881 0.96972 0.37453 0.0
C678 C 0.95523 0.96898 0.35824 0.0
C679 C 0.95861 0.94641 0.36673 0.0
C680 C 0.97707 0.93565 0.37947 0.0
H681 H 0.89277 0.84761 0.34058 0.0
H682 H 0.91843 0.86662 0.35195 0.0
C683 C 0.99195 0.94726 0.38352 0.0
C684 C 0.94345 0.93394 0.36088 0.0
H685 H 0.90941 0.9031 0.38601 0.0
C686 C 0.94001 0.93342 0.33632 0.0
C687 C 0.93224 0.92295 0.37907 0.0
C688 C 0.93451 0.92372 0.40578 0.0
C689 C 0.92575 0.92216 0.32946 0.0
C690 C 0.91454 0.91124 0.34763 0.0
C691 C 0.9181 0.9115 0.37216 0.0
C692 C 0.89873 0.89983 0.34141 0.0
C693 C 0.92289 0.92182 0.30281 0.0
C694 C 0.87906 0.91229 0.33204 0.0
C695 C 0.86425 0.90154 0.32577 0.0
C696 C 0.86885 0.87808 0.32871 0.0
C697 C 0.88855 0.86569 0.33835 0.0
C698 C 0.9033 0.87649 0.34475 0.0
H699 H 0.9358 0.92717 0.29102 0.0
H700 H 0.92301 0.90482 0.29858 0.0
H701 H 0.90697 0.9334 0.29828 0.0
H702 H 0.87515 0.93036 0.32965 0.0
H703 H 0.84908 0.91166 0.31887 0.0
H704 H 0.08614 0.96738 0.30453 0.0
H705 H 0.11677 0.93469 0.29526 0.0
H706 H 0.15006 0.94639 0.35437 0.0
H707 H 0.11987 0.97852 0.36376 0.0
H708 H 0.16238 0.929 0.2844 0.0
H709 H 0.14673 0.88186 0.37101 0.0
H710 H 0.12701 0.90641 0.35904 0.0
H711 H 0.14873 0.90916 0.37564 0.0
C712 C 0.10013 0.9631 0.3153 0.0
C713 C 0.10043 0.9754 0.33507 0.0
C714 C 0.11756 0.94438 0.31007 0.0
C715 C 0.13545 0.93773 0.32456 0.0
C716 C 0.13619 0.95078 0.34337 0.0
H717 H 0.2674 0.86407 0.31027 0.0
H718 H 0.2315 0.89046 0.30843 0.0
C719 C 0.11891 0.96927 0.34862 0.0
C720 C 0.15344 0.91713 0.32067 0.0
H721 H 0.18267 0.86971 0.35151 0.0
C722 C 0.16663 0.91583 0.29889 0.0
C723 C 0.15876 0.89962 0.33933 0.0
C724 C 0.14442 0.89917 0.36247 0.0
C725 C 0.18577 0.8983 0.29597 0.0
C726 C 0.19211 0.88189 0.31553 0.0
C727 C 0.17809 0.88239 0.33662 0.0
C728 C 0.21393 0.86532 0.31539 0.0
C729 C 0.19913 0.89773 0.27203 0.0
C730 C 0.21619 0.8423 0.32075 0.0
C731 C 0.23688 0.8271 0.3222 0.0
C732 C 0.25561 0.83468 0.31839 0.0
C733 C 0.25327 0.85767 0.31316 0.0
C734 C 0.23271 0.8728 0.31179 0.0
H735 H 0.18878 0.9057 0.25684 0.0
H736 H 0.2112 0.90726 0.27277 0.0
H737 H 0.20795 0.88034 0.268 0.0
H738 H 0.20195 0.83613 0.32398 0.0
H739 H 0.23819 0.80952 0.32668 0.0
H740 H 0.11573 0.97461 0.72477 0.0
H741 H 0.14641 0.94307 0.73447 0.0
H742 H 0.1295 0.94969 0.81103 0.0
H743 H 0.09794 0.98146 0.80135 0.0
H744 H 0.18167 0.94048 0.75816 0.0
H745 H 0.13571 0.88379 0.80676 0.0
H746 H 0.12255 0.90927 0.78946 0.0
H747 H 0.13116 0.9103 0.8191 0.0
C748 C 0.11835 0.96948 0.74377 0.0
C749 C 0.1042 0.98065 0.7623 0.0
C750 C 0.13605 0.95135 0.74926 0.0
C751 C 0.14027 0.94374 0.77346 0.0
C752 C 0.12639 0.95494 0.79218 0.0
H753 H 0.24402 0.82617 0.82161 0.0
H754 H 0.2158 0.8619 0.82074 0.0
C755 C 0.10842 0.97319 0.78665 0.0
C756 C 0.15935 0.92415 0.77843 0.0
H757 H 0.17374 0.86969 0.8021 0.0
C758 C 0.17992 0.92506 0.76794 0.0
C759 C 0.15717 0.90397 0.79118 0.0
C760 C 0.13547 0.90158 0.80213 0.0
C761 C 0.19814 0.90634 0.76936 0.0
C762 C 0.1958 0.88602 0.78144 0.0
C763 C 0.17548 0.88527 0.79275 0.0
C764 C 0.21401 0.86511 0.78173 0.0
C765 C 0.21976 0.90839 0.75777 0.0
C766 C 0.22257 0.85507 0.76004 0.0
C767 C 0.23866 0.83457 0.76047 0.0
C768 C 0.24649 0.82372 0.78262 0.0
C769 C 0.23834 0.83412 0.80423 0.0
C770 C 0.22216 0.85451 0.8038 0.0
H771 H 0.22014 0.92613 0.75465 0.0
H772 H 0.23316 0.89909 0.76926 0.0
H773 H 0.22276 0.90114 0.7399 0.0
H774 H 0.21636 0.86279 0.74282 0.0
H775 H 0.24454 0.82694 0.74357 0.0
H776 H 0.08543 0.09028 0.77045 0.0
H777 H 0.10955 0.1126 0.77708 0.0
H778 H 0.12469 0.12077 0.69983 0.0
H779 H 0.10079 0.09783 0.69292 0.0
H780 H 0.15649 0.10043 0.75844 0.0
H781 H 0.10793 0.18576 0.72665 0.0
H782 H 0.09539 0.16364 0.73701 0.0
H783 H 0.11049 0.16302 0.70808 0.0
C784 C 0.09394 0.09663 0.7548 0.0
C785 C 0.09139 0.09196 0.73113 0.0
C786 C 0.10758 0.10957 0.75865 0.0
C787 C 0.11878 0.11834 0.73895 0.0
C788 C 0.11595 0.11429 0.71523 0.0
H789 H 0.21243 0.19548 0.7417 0.0
H790 H 0.18598 0.17816 0.72889 0.0
C791 C 0.10231 0.10121 0.71133 0.0
C792 C 0.1344 0.13052 0.74368 0.0
H793 H 0.14166 0.18267 0.74206 0.0
C794 C 0.15334 0.11839 0.75476 0.0
C795 C 0.13021 0.15388 0.73868 0.0
C796 C 0.10988 0.16751 0.72704 0.0
C797 C 0.16819 0.12907 0.76126 0.0
C798 C 0.16365 0.15259 0.7571 0.0
C799 C 0.14497 0.16467 0.7454 0.0
C800 C 0.17808 0.16481 0.7651 0.0
C801 C 0.18867 0.11503 0.77236 0.0
C802 C 0.18181 0.16366 0.78979 0.0
C803 C 0.19689 0.17349 0.79715 0.0
C804 C 0.20834 0.18487 0.77997 0.0
C805 C 0.20376 0.18695 0.75538 0.0
C806 C 0.18873 0.177 0.74801 0.0
H807 H 0.19257 0.09732 0.76805 0.0
H808 H 0.20273 0.12163 0.76587 0.0
H809 H 0.18642 0.11536 0.79243 0.0
H810 H 0.17335 0.15477 0.80333 0.0
H811 H 0.19981 0.17195 0.81626 0.0
H812 H 1.00754 0.08877 0.80197 0.0
H813 H 0.97834 0.12188 0.81356 0.0
H814 H 0.93861 0.1101 0.76072 0.0
H815 H 0.96746 0.07762 0.74901 0.0
H816 H 0.9434 0.15318 0.75552 0.0
H817 H 0.91817 0.1296 0.85116 0.0
H818 H 0.94664 0.12663 0.84374 0.0
H819 H 0.93356 0.10908 0.83089 0.0
C820 C 0.99235 0.093 0.79332 0.0
C821 C 0.98983 0.08064 0.77452 0.0
C822 C 0.97569 0.11194 0.79989 0.0
C823 C 0.95626 0.11855 0.78794 0.0
C824 C 0.95346 0.10548 0.77008 0.0
H825 H 0.82767 0.19948 0.8072 0.0
H826 H 0.86285 0.17167 0.8079 0.0
C827 C 0.97 0.08684 0.76345 0.0
C828 C 0.93915 0.13974 0.79241 0.0
H829 H 0.89868 0.16444 0.83349 0.0
C830 C 0.93379 0.15582 0.77268 0.0
C831 C 0.9266 0.14312 0.81477 0.0
C832 C 0.93133 0.1262 0.83639 0.0
C833 C 0.91568 0.17459 0.77428 0.0
C834 C 0.90274 0.17774 0.79646 0.0
C835 C 0.90865 0.16213 0.81654 0.0
C836 C 0.88165 0.19545 0.79823 0.0
C837 C 0.90985 0.19012 0.75172 0.0
C838 C 0.88036 0.21831 0.79308 0.0
C839 C 0.86007 0.23435 0.79239 0.0
C840 C 0.8408 0.22779 0.79708 0.0
C841 C 0.84222 0.20507 0.80324 0.0
C842 C 0.86237 0.18912 0.80381 0.0
H843 H 0.91887 0.18283 0.73505 0.0
H844 H 0.89219 0.19417 0.74933 0.0
H845 H 0.91394 0.20595 0.75349 0.0
H846 H 0.895 0.2237 0.78915 0.0
H847 H 0.85947 0.25173 0.7876 0.0
H848 H 0.97762 1.00129 0.76295 0.0
H849 H 0.95384 0.97662 0.77257 0.0
H850 H 0.99096 0.93289 0.71923 0.0
H851 H 1.01492 0.95739 0.70964 0.0
H852 H 0.92933 0.96168 0.73738 0.0
H853 H 0.98953 0.89282 0.78566 0.0
H854 H 0.99171 0.92117 0.7814 0.0
H855 H 0.99891 0.90363 0.75656 0.0
C856 C 0.98076 0.98638 0.75334 0.0
C857 C 0.9982 0.98121 0.73562 0.0
C858 C 0.96713 0.97238 0.75879 0.0
C859 C 0.97086 0.95285 0.74682 0.0
C860 C 0.98801 0.9478 0.72884 0.0
H861 H 0.91767 0.84269 0.74491 0.0
H862 H 0.93982 0.86875 0.74324 0.0
C863 C 1.00154 0.96189 0.72323 0.0
C864 C 0.95672 0.93779 0.75294 0.0
H865 H 0.95687 0.8854 0.77743 0.0
C866 C 0.93521 0.94506 0.74633 0.0
C867 C 0.96455 0.91621 0.76462 0.0
C868 C 0.98739 0.90794 0.77269 0.0
C869 C 0.9215 0.9309 0.75021 0.0
C870 C 0.92942 0.90912 0.76162 0.0
C871 C 0.95081 0.90211 0.76877 0.0
C872 C 0.91636 0.89276 0.76456 0.0
C873 C 0.89903 0.93905 0.74107 0.0
C874 C 0.89607 0.89724 0.77778 0.0
C875 C 0.88317 0.88247 0.77849 0.0
C876 C 0.89047 0.86288 0.76614 0.0
C877 C 0.91134 0.85788 0.75414 0.0
C878 C 0.92411 0.87268 0.75331 0.0
H879 H 0.89739 0.95392 0.72778 0.0
H880 H 0.89496 0.92572 0.73228 0.0
H881 H 0.88697 0.94387 0.75663 0.0
H882 H 0.89 0.91238 0.78712 0.0
H883 H 0.86719 0.88681 0.78789 0.0
H884 H 0.38499 0.08068 0.15759 0.0
H885 H 0.37694 0.10786 0.18826 0.0
H886 H 0.30961 0.12802 0.17213 0.0
H887 H 0.31759 0.10144 0.141 0.0
H888 H 0.32754 0.16353 0.17203 0.0
H889 H 0.34481 0.10666 0.25592 0.0
H890 H 0.36633 0.10186 0.23225 0.0
H891 H 0.34079 0.09713 0.2275 0.0
C892 C 0.36846 0.09085 0.16059 0.0
C893 C 0.35195 0.08883 0.14679 0.0
C894 C 0.36385 0.1062 0.17833 0.0
C895 C 0.34263 0.11974 0.18268 0.0
C896 C 0.32607 0.11759 0.16918 0.0
H897 H 0.28837 0.21015 0.29536 0.0
H898 H 0.29824 0.17888 0.2696 0.0
C899 C 0.33065 0.10226 0.15148 0.0
C900 C 0.33788 0.13718 0.20015 0.0
H901 H 0.33887 0.14547 0.25994 0.0
C902 C 0.32997 0.15958 0.19126 0.0
C903 C 0.3409 0.13194 0.22524 0.0
C904 C 0.34849 0.10809 0.23591 0.0
C905 C 0.32523 0.17694 0.20674 0.0
C906 C 0.3288 0.17177 0.23171 0.0
C907 C 0.3364 0.14935 0.24072 0.0
C908 C 0.32426 0.18952 0.24874 0.0
C909 C 0.31611 0.20068 0.19631 0.0
C910 C 0.33606 0.20547 0.24597 0.0
C911 C 0.33049 0.22338 0.26063 0.0
C912 C 0.31302 0.22564 0.27842 0.0
C913 C 0.30186 0.20903 0.28182 0.0
C914 C 0.30747 0.19111 0.26713 0.0
H915 H 0.30974 0.20134 0.17823 0.0
H916 H 0.30284 0.21001 0.20872 0.0
H917 H 0.32914 0.20932 0.19408 0.0
H918 H 0.3493 0.20432 0.2321 0.0
H919 H 0.33956 0.23573 0.25757 0.0
H920 H 0.98725 0.29514 0.1185 0.0
H921 H 0.95306 0.29038 0.1383 0.0
H922 H 0.95216 0.3394 0.18789 0.0
H923 H 0.9865 0.3441 0.16841 0.0
H924 H 0.94513 0.27661 0.18729 0.0
H925 H 0.8911 0.36078 0.16272 0.0
H926 H 0.9176 0.35021 0.14749 0.0
H927 H 0.91505 0.36111 0.17671 0.0
C928 C 0.97988 0.30488 0.13366 0.0
C929 C 0.98974 0.31999 0.14186 0.0
C930 C 0.96023 0.30223 0.14486 0.0
C931 C 0.94991 0.31474 0.16435 0.0
C932 C 0.9596 0.32992 0.17252 0.0
H933 H 0.84177 0.31899 0.26892 0.0
H934 H 0.8722 0.32541 0.24222 0.0
C935 C 0.97927 0.33258 0.16135 0.0
C936 C 0.92958 0.31113 0.1769 0.0
H937 H 0.87668 0.3377 0.19278 0.0
C938 C 0.93009 0.28989 0.1883 0.0
C939 C 0.91 0.3285 0.17819 0.0
C940 C 0.90825 0.35139 0.16545 0.0
C941 C 0.91175 0.28573 0.20168 0.0
C942 C 0.89223 0.30319 0.20326 0.0
C943 C 0.89163 0.32434 0.19151 0.0
C944 C 0.87267 0.30015 0.21818 0.0
C945 C 0.9137 0.26293 0.21478 0.0
C946 C 0.86236 0.28422 0.21315 0.0
C947 C 0.84492 0.28042 0.22847 0.0
C948 C 0.83739 0.2926 0.24902 0.0
C949 C 0.84717 0.30921 0.25335 0.0
C950 C 0.86459 0.31295 0.23808 0.0
H951 H 0.93092 0.25316 0.21635 0.0
H952 H 0.90546 0.26435 0.23332 0.0
H953 H 0.90581 0.25341 0.20452 0.0
H954 H 0.86804 0.27448 0.19759 0.0
H955 H 0.8377 0.26759 0.22453 0.0
H956 H 0.78337 0.95566 0.10741 0.0
H957 H 0.77548 0.93238 0.14332 0.0
H958 H 0.82693 0.87665 0.11892 0.0
H959 H 0.83466 0.8996 0.0826 0.0
H960 H 0.76372 0.8913 0.14239 0.0
H961 H 0.83805 0.87985 0.1912 0.0
H962 H 0.82952 0.90211 0.16769 0.0
H963 H 0.84293 0.8742 0.15971 0.0
C964 C 0.793 0.93844 0.10953 0.0
C965 C 0.8096 0.92952 0.0919 0.0
C966 C 0.78854 0.92521 0.1302 0.0
C967 C 0.80075 0.90289 0.13387 0.0
C968 C 0.81756 0.89398 0.11662 0.0
H969 H 0.78342 0.78523 0.21234 0.0
H970 H 0.78558 0.81667 0.18307 0.0
C971 C 0.82197 0.90716 0.09585 0.0
C972 C 0.7951 0.88851 0.15498 0.0
H973 H 0.81556 0.85592 0.20524 0.0
C974 C 0.77493 0.88378 0.15631 0.0
C975 C 0.80968 0.87891 0.1732 0.0
C976 C 0.8312 0.88413 0.1731 0.0
C977 C 0.76936 0.86886 0.17482 0.0
C978 C 0.78434 0.8585 0.19239 0.0
C979 C 0.80412 0.86394 0.19169 0.0
C980 C 0.78067 0.84041 0.21019 0.0
C981 C 0.74773 0.86384 0.17525 0.0
C982 C 0.77679 0.84353 0.23511 0.0
C983 C 0.77521 0.8256 0.25191 0.0
C984 C 0.77811 0.80427 0.24401 0.0
C985 C 0.7812 0.80147 0.21898 0.0
C986 C 0.78246 0.81939 0.20223 0.0
H987 H 0.73629 0.87645 0.16366 0.0
H988 H 0.7502 0.8472 0.16837 0.0
H989 H 0.74023 0.86327 0.19412 0.0
H990 H 0.77534 0.85969 0.24154 0.0
H991 H 0.77245 0.82822 0.27109 0.0
H992 H 0.06771 0.75849 0.08044 0.0
H993 H 0.09205 0.76606 0.10718 0.0
H994 H 0.1367 0.70131 0.0975 0.0
H995 H 0.11207 0.69313 0.07093 0.0
H996 H 0.1096 0.74035 0.15139 0.0
H997 H 0.17271 0.74783 0.07742 0.0
H998 H 0.14515 0.74957 0.07142 0.0
H999 H 0.16357 0.72296 0.07967 0.0
C1000 C 0.08242 0.74554 0.08418 0.0
C1001 C 0.0878 0.72509 0.0733 0.0
C1002 C 0.09644 0.75005 0.09943 0.0
C1003 C 0.11627 0.73439 0.10405 0.0
C1004 C 0.12158 0.71377 0.09383 0.0
H1005 H 0.22341 0.74143 0.18438 0.0
H1006 H 0.20004 0.73132 0.15789 0.0
C1007 C 0.10748 0.70914 0.07862 0.0
C1008 C 0.13136 0.73997 0.11936 0.0
H1009 H 0.17991 0.7525 0.11715 0.0
C1010 C 0.125 0.74297 0.14397 0.0
C1011 C 0.15141 0.74336 0.10955 0.0
C1012 C 0.15868 0.74094 0.08303 0.0
C1013 C 0.13826 0.74911 0.15915 0.0
C1014 C 0.15816 0.75293 0.14925 0.0
C1015 C 0.16461 0.74969 0.12466 0.0
C1016 C 0.17264 0.75998 0.16422 0.0
C1017 C 0.13101 0.75103 0.18573 0.0
C1018 C 0.16524 0.77983 0.17601 0.0
C1019 C 0.1786 0.78571 0.19116 0.0
C1020 C 0.19971 0.77197 0.19457 0.0
C1021 C 0.20735 0.75256 0.18193 0.0
C1022 C 0.19396 0.74666 0.16689 0.0
H1023 H 0.11878 0.74171 0.19165 0.0
H1024 H 0.14498 0.74462 0.19729 0.0
H1025 H 0.12342 0.76887 0.18886 0.0
H1026 H 0.14905 0.79069 0.17369 0.0
H1027 H 0.17234 0.8009 0.20038 0.0
H1028 H 0.36018 0.95412 0.05638 0.0
H1029 H 0.34825 0.92822 0.03436 0.0
H1030 H 0.36307 0.96282 0.96628 0.0
H1031 H 0.37498 0.9887 0.98817 0.0
H1032 H 0.31342 0.94323 1.00512 0.0
H1033 H 0.38729 0.89714 0.95259 0.0
H1034 H 0.38848 0.91212 0.97835 0.0
H1035 H 0.38266 0.92694 0.94912 0.0
C1036 C 0.36135 0.95584 0.03669 0.0
C1037 C 0.36842 0.97346 0.024 0.0
C1038 C 0.35453 0.94108 0.02417 0.0
C1039 C 0.35483 0.94359 0.99872 0.0
C1040 C 0.36307 0.96035 0.98591 0.0
H1041 H 0.30573 0.89002 0.88687 0.0
H1042 H 0.3185 0.91324 0.91144 0.0
C1043 C 0.36993 0.97511 0.99844 0.0
C1044 C 0.34441 0.93031 0.98576 0.0
H1045 H 0.35334 0.8949 0.94076 0.0
C1046 C 0.32217 0.93248 0.9912 0.0
C1047 C 0.35588 0.91643 0.96758 0.0
C1048 C 0.37994 0.91281 0.96168 0.0
C1049 C 0.31092 0.92155 0.97844 0.0
C1050 C 0.32233 0.90792 0.96003 0.0
C1051 C 0.34463 0.90552 0.95481 0.0
C1052 C 0.31156 0.89594 0.94579 0.0
C1053 C 0.28684 0.92518 0.98427 0.0
C1054 C 0.3028 0.87896 0.95709 0.0
C1055 C 0.29518 0.86579 0.94309 0.0
C1056 C 0.29639 0.86929 0.91757 0.0
C1057 C 0.30419 0.88707 0.90647 0.0
C1058 C 0.31175 0.90023 0.92047 0.0
H1059 H 0.27963 0.94015 0.99458 0.0
H1060 H 0.27824 0.92715 0.9674 0.0
H1061 H 0.28401 0.91042 0.99559 0.0
H1062 H 0.30275 0.87523 0.97661 0.0
H1063 H 0.28915 0.8523 0.95217 0.0
H1064 H 0.13912 0.30161 0.03311 0.0
H1065 H 0.16489 0.29639 0.99726 0.0
H1066 H 0.1134 0.33252 0.9518 0.0
H1067 H 0.08795 0.33864 0.98784 0.0
H1068 H 0.16721 0.27514 0.95927 0.0
H1069 H 0.1576 0.36401 0.92733 0.0
H1070 H 0.14598 0.35565 0.95643 0.0
H1071 H 0.1324 0.35681 0.92917 0.0
C1072 C 0.13343 0.30857 1.01545 0.0
C1073 C 0.11166 0.32073 1.01322 0.0
C1074 C 0.14811 0.30559 0.99496 0.0
C1075 C 0.14126 0.31442 0.97176 0.0
C1076 C 0.11934 0.32619 0.9695 0.0
H1077 H 0.22534 0.26423 0.84334 0.0
H1078 H 0.1947 0.27269 0.87394 0.0
C1079 C 0.10476 0.3296 0.99007 0.0
C1080 C 0.15696 0.31066 0.95001 0.0
H1081 H 0.1776 0.3372 0.90036 0.0
C1082 C 0.16952 0.28874 0.94645 0.0
C1083 C 0.16019 0.3284 0.93333 0.0
C1084 C 0.14849 0.35254 0.93687 0.0
C1085 C 0.18533 0.28408 0.92697 0.0
C1086 C 0.18806 0.30172 0.90984 0.0
C1087 C 0.17534 0.32361 0.91325 0.0
C1088 C 0.2051 0.29811 0.88933 0.0
C1089 C 0.19951 0.2604 0.92564 0.0
C1090 C 0.22037 0.31057 0.88665 0.0
C1091 C 0.23747 0.30625 0.86872 0.0
C1092 C 0.23985 0.28919 0.8532 0.0
C1093 C 0.22406 0.27735 0.85516 0.0
C1094 C 0.20666 0.28201 0.87284 0.0
H1095 H 0.19954 0.25056 0.94353 0.0
H1096 H 0.19317 0.25196 0.91253 0.0
H1097 H 0.21653 0.26008 0.9195 0.0
H1098 H 0.21952 0.32316 0.89902 0.0
H1099 H 0.2494 0.31562 0.8678 0.0
H1100 H 0.85146 0.05293 0.95339 0.0
H1101 H 0.84734 0.09065 0.93349 0.0
H1102 H 0.77996 0.10956 0.95979 0.0
H1103 H 0.78375 0.07218 0.97932 0.0
H1104 H 0.81892 0.11235 0.89775 0.0
H1105 H 0.80235 0.15988 0.97975 0.0
H1106 H 0.81395 0.12996 0.98103 0.0
H1107 H 0.78519 0.14177 0.97907 0.0
C1108 C 0.83579 0.06512 0.95497 0.0
C1109 C 0.81803 0.05947 0.9682 0.0
C1110 C 0.83349 0.08669 0.94369 0.0
C1111 C 0.81344 0.103 0.94557 0.0
C1112 C 0.79572 0.09741 0.95867 0.0
H1113 H 0.76464 0.22198 0.85098 0.0
H1114 H 0.76997 0.18673 0.87638 0.0
C1115 C 0.79797 0.07594 0.96989 0.0
C1116 C 0.81059 0.12557 0.93282 0.0
H1117 H 0.79437 0.18124 0.94177 0.0
C1118 C 0.81372 0.12741 0.90737 0.0
C1119 C 0.80396 0.14517 0.94545 0.0
C1120 C 0.80136 0.14417 0.97285 0.0
C1121 C 0.80981 0.14837 0.89416 0.0
C1122 C 0.80229 0.16796 0.90673 0.0
C1123 C 0.79979 0.16615 0.9322 0.0
C1124 C 0.7974 0.19045 0.89359 0.0
C1125 C 0.81386 0.14943 0.86684 0.0
C1126 C 0.81044 0.20463 0.89574 0.0
C1127 C 0.80741 0.22483 0.88134 0.0
C1128 C 0.79118 0.23124 0.86461 0.0
C1129 C 0.77729 0.21759 0.86363 0.0
C1130 C 0.7804 0.19735 0.87799 0.0
H1131 H 0.82401 0.13322 0.86052 0.0
H1132 H 0.79809 0.15363 0.85841 0.0
H1133 H 0.82202 0.16263 0.86027 0.0
H1134 H 0.82355 0.19964 0.90783 0.0
H1135 H 0.81836 0.23496 0.88264 0.0
H1136 H 0.9604 0.70341 0.96795 0.0
H1137 H 0.93094 0.71054 0.94082 0.0
H1138 H 0.94611 0.77092 0.90981 0.0
H1139 H 0.97581 0.76382 0.93687 0.0
H1140 H 0.89429 0.75233 0.93749 0.0
H1141 H 0.94396 0.73416 0.85028 0.0
H1142 H 0.95459 0.72326 0.87945 0.0
H1143 H 0.95102 0.75219 0.8695 0.0
C1144 C 0.95768 0.71808 0.9552 0.0
C1145 C 0.97058 0.73299 0.95456 0.0
C1146 C 0.94074 0.72219 0.93977 0.0
C1147 C 0.93645 0.74114 0.92313 0.0
C1148 C 0.94928 0.75607 0.92234 0.0
H1149 H 0.83794 0.78372 0.81504 0.0
H1150 H 0.86973 0.77991 0.83816 0.0
C1151 C 0.96613 0.75208 0.93796 0.0
C1152 C 0.91808 0.74551 0.90724 0.0
H1153 H 0.90592 0.74523 0.84856 0.0
C1154 C 0.89682 0.75083 0.91804 0.0
C1155 C 0.92139 0.74382 0.88183 0.0
C1156 C 0.94394 0.73794 0.86943 0.0
C1157 C 0.87879 0.75436 0.90417 0.0
C1158 C 0.88208 0.75181 0.87885 0.0
C1159 C 0.90336 0.74703 0.86795 0.0
C1160 C 0.86367 0.75332 0.8637 0.0
C1161 C 0.85634 0.7611 0.9168 0.0
C1162 C 0.85006 0.73922 0.86979 0.0
C1163 C 0.83196 0.74143 0.85667 0.0
C1164 C 0.82725 0.75749 0.83685 0.0
C1165 C 0.84134 0.77101 0.83003 0.0
C1166 C 0.85943 0.76891 0.84333 0.0
H1167 H 0.85634 0.76916 0.93374 0.0
H1168 H 0.84462 0.77282 0.90479 0.0
H1169 H 0.85062 0.74597 0.92191 0.0
H1170 H 0.85328 0.72665 0.88497 0.0
H1171 H 0.82143 0.73073 0.86228 0.0
H1172 H 0.12522 0.32582 0.13066 0.0
H1173 H 0.15163 0.31995 0.16085 0.0
H1174 H 0.14007 0.25639 0.18573 0.0
H1175 H 0.11344 0.26208 0.15481 0.0
H1176 H 0.14475 0.3161 0.20975 0.0
H1177 H 0.20624 0.2398 0.17989 0.0
H1178 H 0.18521 0.25607 0.16083 0.0
H1179 H 0.17888 0.23774 0.18583 0.0
C1180 C 0.12829 0.31043 0.14234 0.0
C1181 C 0.11702 0.29444 0.14018 0.0
C1182 C 0.14349 0.30712 0.15974 0.0
C1183 C 0.14808 0.28771 0.1757 0.0
C1184 C 0.13717 0.2714 0.17346 0.0
H1185 H 0.24256 0.26666 0.29066 0.0
H1186 H 0.21205 0.26241 0.2694 0.0
C1187 C 0.12187 0.27468 0.15579 0.0
C1188 C 0.16369 0.28553 0.19495 0.0
H1189 H 0.2139 0.25597 0.21334 0.0
C1190 C 0.15972 0.30275 0.21067 0.0
C1191 C 0.1833 0.26812 0.19642 0.0
C1192 C 0.18887 0.24942 0.17978 0.0
C1193 C 0.17498 0.3035 0.22695 0.0
C1194 C 0.19494 0.28667 0.22768 0.0
C1195 C 0.19857 0.26884 0.21288 0.0
C1196 C 0.21308 0.28899 0.24135 0.0
C1197 C 0.16993 0.32274 0.24284 0.0
C1198 C 0.22378 0.30529 0.23282 0.0
C1199 C 0.24106 0.30769 0.24485 0.0
C1200 C 0.24807 0.29401 0.26593 0.0
C1201 C 0.23727 0.27775 0.27476 0.0
C1202 C 0.21998 0.27518 0.26247 0.0
H1203 H 0.15229 0.33141 0.24434 0.0
H1204 H 0.17546 0.31684 0.26136 0.0
H1205 H 0.17871 0.33504 0.23486 0.0
H1206 H 0.2189 0.31606 0.21655 0.0
H1207 H 0.2491 0.32025 0.23744 0.0
H1208 H 0.08908 0.79127 1.00454 0.0
H1209 H 0.12163 0.79101 0.97782 0.0
H1210 H 0.09781 0.76013 0.92436 0.0
H1211 H 0.06487 0.76093 0.95078 0.0
H1212 H 0.15267 0.75667 0.96286 0.0
H1213 H 0.11745 0.80667 0.88085 0.0
H1214 H 0.10164 0.80549 0.9094 0.0
H1215 H 0.10649 0.78338 0.88943 0.0
C1216 C 0.09049 0.78486 0.98686 0.0
C1217 C 0.07411 0.77632 0.97982 0.0
C1218 C 0.10927 0.7846 0.97159 0.0
C1219 C 0.11233 0.77577 0.94879 0.0
C1220 C 0.0958 0.76759 0.9415 0.0
H1221 H 0.22089 0.74352 0.83907 0.0
H1222 H 0.18756 0.74631 0.86523 0.0
C1223 C 0.07688 0.76802 0.95671 0.0
C1224 C 0.1333 0.77397 0.93347 0.0
H1225 H 0.15479 0.78621 0.8764 0.0
C1226 C 0.15306 0.76332 0.94401 0.0
C1227 C 0.13408 0.78256 0.90878 0.0
C1228 C 0.1138 0.79536 0.89651 0.0
C1229 C 0.17329 0.76068 0.93059 0.0
C1230 C 0.17402 0.76904 0.90587 0.0
C1231 C 0.15432 0.77971 0.8953 0.0
C1232 C 0.19498 0.7667 0.89059 0.0
C1233 C 0.19375 0.74847 0.94284 0.0
C1234 C 0.21052 0.77714 0.89603 0.0
C1235 C 0.22972 0.77561 0.88099 0.0
C1236 C 0.23392 0.76355 0.86013 0.0
C1237 C 0.21845 0.75283 0.855 0.0
C1238 C 0.19923 0.7545 0.86993 0.0
H1239 H 0.19029 0.73876 0.95996 0.0
H1240 H 0.20514 0.73691 0.93055 0.0
H1241 H 0.20196 0.7608 0.94737 0.0
H1242 H 0.20758 0.78693 0.91163 0.0
H1243 H 0.24107 0.78427 0.88548 0.0
H1244 H 0.32172 0.07245 1.00753 0.0
H1245 H 0.32021 0.0981 0.97061 0.0
H1246 H 0.30446 0.1541 1.01467 0.0
H1247 H 0.30615 0.12875 0.05146 0.0
H1248 H 0.28816 0.13609 0.95138 0.0
H1249 H 0.36009 0.15966 0.97492 0.0
H1250 H 0.35225 0.1358 0.98993 0.0
H1251 H 0.33874 0.16347 0.99874 0.0
C1252 C 0.31759 0.09026 1.00936 0.0
C1253 C 0.31426 0.09847 0.03256 0.0
C1254 C 0.3168 0.10491 0.9882 0.0
C1255 C 0.31272 0.12803 0.98983 0.0
C1256 C 0.30815 0.13631 1.01291 0.0
H1257 H 0.30193 0.25084 0.90263 0.0
H1258 H 0.3028 0.21969 0.93327 0.0
C1259 C 0.30899 0.12175 0.03398 0.0
C1260 C 0.31409 0.14354 0.96769 0.0
H1261 H 0.33982 0.18266 0.94338 0.0
C1262 C 0.29962 0.14608 0.94945 0.0
C1263 C 0.3292 0.15646 0.96499 0.0
C1264 C 0.34611 0.15359 0.98305 0.0
C1265 C 0.29916 0.16197 0.9293 0.0
C1266 C 0.31369 0.1755 0.9272 0.0
C1267 C 0.32861 0.17239 0.94501 0.0
C1268 C 0.31268 0.19415 0.90781 0.0
C1269 C 0.28256 0.16487 0.91092 0.0
C1270 C 0.31808 0.19024 0.88313 0.0
C1271 C 0.31774 0.20818 0.86542 0.0
C1272 C 0.31194 0.23028 0.87213 0.0
C1273 C 0.30651 0.23403 0.89681 0.0
C1274 C 0.30697 0.21622 0.9144 0.0
H1275 H 0.27042 0.15547 0.91699 0.0
H1276 H 0.27391 0.18284 0.9074 0.0
H1277 H 0.2909 0.15875 0.89348 0.0
H1278 H 0.32284 0.17334 0.87762 0.0
H1279 H 0.32209 0.20476 0.84657 0.0
H1280 H 1.0135 0.2627 0.0759 0.0
H1281 H 0.98882 0.25341 0.04985 0.0
H1282 H 1.02285 0.27679 0.9863 0.0
H1283 H 0.04726 0.28605 1.0122 0.0
H1284 H 0.96164 0.28548 0.01953 0.0
H1285 H 1.01454 0.21965 0.96448 0.0
H1286 H 1.02249 0.22637 0.99252 0.0
H1287 H 0.02513 0.24328 0.96469 0.0
C1288 C 1.01628 0.26484 0.05633 0.0
C1289 C 0.03271 0.27445 0.04602 0.0
C1290 C 1.002 0.25983 0.04144 0.0
C1291 C 1.00405 0.26412 1.01598 0.0
C1292 C 1.02114 0.27278 1.00574 0.0
H1293 H 0.93135 0.27881 0.88939 0.0
H1294 H 0.958 0.27522 0.9192 0.0
C1295 C 0.03518 0.27799 0.02058 0.0
C1296 C 0.98716 0.26203 1.00022 0.0
H1297 H 0.98041 0.23968 0.94865 0.0
C1298 C 0.96567 0.27516 1.00427 0.0
C1299 C 0.99235 0.24876 0.98012 0.0
C1300 C 1.01484 0.23355 0.97528 0.0
C1301 C 0.94956 0.27613 0.98831 0.0
C1302 C 0.95486 0.26322 0.96788 0.0
C1303 C 0.97624 0.24965 0.96418 0.0
C1304 C 0.93875 0.2643 0.94962 0.0
C1305 C 0.92724 0.29181 0.99287 0.0
C1306 C 0.91909 0.25891 0.95648 0.0
C1307 C 0.90375 0.26088 0.93937 0.0
C1308 C 0.90772 0.26811 0.91484 0.0
C1309 C 0.92771 0.27292 0.90795 0.0
C1310 C 0.943 0.27098 0.92507 0.0
H1311 H 0.92733 0.30451 1.00544 0.0
H1312 H 0.92072 0.30061 0.9756 0.0
H1313 H 0.91605 0.28206 1.00129 0.0
H1314 H 0.91556 0.25318 0.97513 0.0
H1315 H 0.88878 0.25664 0.94538 0.0
H1316 H 0.77795 0.97611 0.95266 0.0
H1317 H 0.77591 0.95328 0.92016 0.0
H1318 H 0.74596 0.91222 0.97129 0.0
H1319 H 0.74811 0.93479 1.00408 0.0
H1320 H 0.79637 0.90124 0.92748 0.0
H1321 H 0.70955 0.93005 0.90604 0.0
H1322 H 0.72294 0.94834 0.91756 0.0
H1323 H 0.71601 0.9265 0.93741 0.0
C1324 C 0.77052 0.96252 0.95698 0.0
C1325 C 0.76326 0.95726 0.98106 0.0
C1326 C 0.76943 0.94946 0.93835 0.0
C1327 C 0.76076 0.93112 0.94334 0.0
C1328 C 0.75257 0.92642 0.96707 0.0
H1329 H 0.74711 0.82723 0.85851 0.0
H1330 H 0.74325 0.85479 0.88803 0.0
C1331 C 0.75383 0.93934 0.98578 0.0
C1332 C 0.76214 0.91571 0.92428 0.0
H1333 H 0.73207 0.8997 0.88563 0.0
C1334 C 0.78236 0.90093 0.91821 0.0
C1335 C 0.74377 0.91521 0.91253 0.0
C1336 C 0.72177 0.93088 0.91852 0.0
C1337 C 0.7847 0.8854 0.90087 0.0
C1338 C 0.76641 0.88514 0.88865 0.0
C1339 C 0.74613 0.89996 0.89482 0.0
C1340 C 0.76796 0.86929 0.86981 0.0
C1341 C 0.80664 0.86895 0.89646 0.0
C1342 C 0.78274 0.8686 0.84933 0.0
C1343 C 0.78517 0.85268 0.83253 0.0
C1344 C 0.77256 0.83737 0.83559 0.0
C1345 C 0.7571 0.83874 0.85555 0.0
C1346 C 0.75486 0.85451 0.87248 0.0
H1347 H 0.81687 0.86696 0.91204 0.0
H1348 H 0.80501 0.85227 0.8933 0.0
H1349 H 0.8153 0.87517 0.88015 0.0
H1350 H 0.79259 0.88023 0.84643 0.0
H1351 H 0.79707 0.85229 0.81726 0.0
H1352 H 0.99402 0.72433 0.09747 0.0
H1353 H 0.96675 0.73165 0.13147 0.0
H1354 H 0.9354 0.79545 0.09546 0.0
H1355 H 0.96315 0.78825 0.06099 0.0
H1356 H 0.95359 0.77051 0.16205 0.0
H1357 H 0.88758 0.75906 0.11089 0.0
H1358 H 0.91591 0.74812 0.10125 0.0
H1359 H 0.90321 0.77756 0.0972 0.0
C1360 C 0.98146 0.74006 0.09672 0.0
C1361 C 0.98079 0.75567 0.07635 0.0
C1362 C 0.96585 0.74422 0.1163 0.0
C1363 C 0.94885 0.76398 0.11604 0.0
C1364 C 0.94829 0.77997 0.09602 0.0
H1365 H 0.85374 0.803 0.23989 0.0
H1366 H 0.88029 0.80288 0.20519 0.0
C1367 C 0.96422 0.77593 0.0764 0.0
C1368 C 0.93168 0.76713 0.13663 0.0
H1369 H 0.8796 0.76446 0.15252 0.0
C1370 C 0.93732 0.76949 0.1599 0.0
C1371 C 0.91054 0.76541 0.13397 0.0
C1372 C 0.90379 0.76229 0.10957 0.0
C1373 C 0.92249 0.7701 0.18047 0.0
C1374 C 0.90142 0.76818 0.17786 0.0
C1375 C 0.89572 0.76594 0.15457 0.0
C1376 C 0.88524 0.76815 0.19917 0.0
C1377 C 0.92965 0.77214 0.20505 0.0
C1378 C 0.87897 0.74868 0.20744 0.0
C1379 C 0.86385 0.7486 0.22753 0.0
C1380 C 0.85441 0.7681 0.23967 0.0
C1381 C 0.86068 0.7876 0.2312 0.0
C1382 C 0.87592 0.78759 0.21129 0.0
H1383 H 0.94745 0.76976 0.2047 0.0
H1384 H 0.92129 0.78902 0.21099 0.0
H1385 H 0.9251 0.75968 0.21876 0.0
H1386 H 0.88588 0.73347 0.19838 0.0
H1387 H 0.85934 0.73334 0.23332 0.0
H1388 H 0.29802 0.99339 0.11194 0.0
H1389 H 0.28926 0.96032 0.134 0.0
H1390 H 0.34714 0.94677 0.17272 0.0
H1391 H 0.35589 0.97935 0.15116 0.0
H1392 H 0.34207 0.90946 0.14917 0.0
H1393 H 0.26891 0.94929 0.20764 0.0
H1394 H 0.26961 0.95816 0.17567 0.0
H1395 H 0.28795 0.96442 0.19447 0.0
C1396 C 0.30866 0.98354 0.12543 0.0
C1397 C 0.32769 0.98909 0.12968 0.0
C1398 C 0.30365 0.96464 0.13803 0.0
C1399 C 0.31756 0.95103 0.15508 0.0
C1400 C 0.33619 0.95691 0.15966 0.0
H1401 H 0.34106 0.83185 0.25177 0.0
H1402 H 0.34226 0.86425 0.22364 0.0
C1403 C 0.34114 0.97567 0.14724 0.0
C1404 C 0.31365 0.93003 0.16757 0.0
H1405 H 0.28228 0.91015 0.21285 0.0
C1406 C 0.32886 0.90959 0.16293 0.0
C1407 C 0.29636 0.93013 0.1854 0.0
C1408 C 0.27975 0.95162 0.19132 0.0
C1409 C 0.32756 0.88941 0.17596 0.0
C1410 C 0.31089 0.88961 0.19467 0.0
C1411 C 0.29515 0.90993 0.19865 0.0
C1412 C 0.31026 0.86922 0.21113 0.0
C1413 C 0.34414 0.86803 0.16952 0.0
C1414 C 0.29173 0.86123 0.21392 0.0
C1415 C 0.29096 0.84262 0.23018 0.0
C1416 C 0.30864 0.83166 0.24418 0.0
C1417 C 0.32721 0.83962 0.24116 0.0
C1418 C 0.32797 0.85818 0.22495 0.0
H1419 H 0.35089 0.86942 0.15038 0.0
H1420 H 0.35781 0.86456 0.18144 0.0
H1421 H 0.33702 0.85364 0.17207 0.0
H1422 H 0.27779 0.86949 0.20363 0.0
H1423 H 0.27629 0.83715 0.23215 0.0
H1424 H 0.79677 0.02191 0.10389 0.0
H1425 H 0.78894 0.05476 0.12704 0.0
H1426 H 0.75049 0.09441 0.07029 0.0
H1427 H 0.75807 0.06124 0.04699 0.0
H1428 H 0.78873 0.10901 0.08652 0.0
H1429 H 0.72964 0.09311 0.16138 0.0
H1430 H 0.75187 0.06945 0.15366 0.0
H1431 H 0.73203 0.08208 0.13204 0.0
C1432 C 0.78618 0.03749 0.09659 0.0
C1433 C 0.77793 0.03902 0.07371 0.0
C1434 C 0.78173 0.05623 0.10985 0.0
C1435 C 0.76911 0.07696 0.10041 0.0
C1436 C 0.76017 0.07848 0.07792 0.0
H1437 H 0.74109 0.19385 0.18511 0.0
H1438 H 0.73786 0.16725 0.15726 0.0
C1439 C 0.76436 0.05954 0.06474 0.0
C1440 C 0.76715 0.09713 0.11327 0.0
H1441 H 0.74774 0.12044 0.1668 0.0
C1442 C 0.77949 0.11177 0.10389 0.0
C1443 C 0.75512 0.10063 0.13589 0.0
C1444 C 0.74125 0.08562 0.14637 0.0
C1445 C 0.78081 0.12933 0.11705 0.0
C1446 C 0.76961 0.13218 0.14025 0.0
C1447 C 0.75648 0.11813 0.14911 0.0
C1448 C 0.77189 0.1491 0.15601 0.0
C1449 C 0.79439 0.14452 0.10616 0.0
C1450 C 0.79211 0.14772 0.16461 0.0
C1451 C 0.79404 0.16296 0.18049 0.0
C1452 C 0.77577 0.17988 0.18813 0.0
C1453 C 0.75557 0.18129 0.17929 0.0
C1454 C 0.75365 0.166 0.1635 0.0
H1455 H 0.79702 0.14403 0.08609 0.0
H1456 H 0.78664 0.16205 0.11048 0.0
H1457 H 0.81051 0.13896 0.11388 0.0
H1458 H 0.80634 0.13458 0.1594 0.0
H1459 H 0.80983 0.16143 0.18685 0.0
H1460 H 0.58554 0.57656 0.91203 0.0
H1461 H 0.61076 0.5998 0.90833 0.0
H1462 H 0.61032 0.60423 0.83027 0.0
H1463 H 0.5849 0.58138 0.83371 0.0
H1464 H 0.65281 0.5934 0.84891 0.0
H1465 H 0.59496 0.66792 0.88759 0.0
H1466 H 0.59778 0.64175 0.90557 0.0
H1467 H 0.58609 0.64592 0.87673 0.0
C1468 C 0.5906 0.58265 0.89408 0.0
C1469 C 0.58308 0.57708 0.87318 0.0
C1470 C 0.60506 0.59589 0.89201 0.0
C1471 C 0.61223 0.60387 0.86904 0.0
C1472 C 0.60498 0.59819 0.84816 0.0
H1473 H 0.69346 0.6869 0.8068 0.0
H1474 H 0.67253 0.65953 0.81519 0.0
C1475 C 0.5905 0.58502 0.8502 0.0
C1476 C 0.6273 0.61816 0.86661 0.0
H1477 H 0.63077 0.66985 0.87699 0.0
C1478 C 0.64806 0.6101 0.8551 0.0
C1479 C 0.62104 0.63987 0.87481 0.0
C1480 C 0.59871 0.64955 0.88672 0.0
C1481 C 0.66276 0.62321 0.85154 0.0
C1482 C 0.65632 0.64514 0.85922 0.0
C1483 C 0.63568 0.65303 0.87113 0.0
C1484 C 0.67033 0.66055 0.85429 0.0
C1485 C 0.68512 0.61334 0.83983 0.0
C1486 C 0.67582 0.67049 0.87344 0.0
C1487 C 0.68769 0.68626 0.86868 0.0
C1488 C 0.69425 0.69244 0.84464 0.0
C1489 C 0.68901 0.6822 0.82553 0.0
C1490 C 0.67706 0.66652 0.83031 0.0
H1491 H 0.68975 0.59477 0.84201 0.0
H1492 H 0.68526 0.61852 0.82007 0.0
H1493 H 0.69756 0.61926 0.84769 0.0
H1494 H 0.67073 0.6662 0.89208 0.0
H1495 H 0.69162 0.69372 0.8838 0.0
H1496 H 0.49479 0.58427 0.8079 0.0
H1497 H 0.46166 0.6141 0.79845 0.0
H1498 H 0.42307 0.5777 0.84443 0.0
H1499 H 0.45594 0.54856 0.85456 0.0
H1500 H 0.42247 0.61791 0.77947 0.0
H1501 H 0.40829 0.63534 0.8766 0.0
H1502 H 0.43319 0.61697 0.86461 0.0
H1503 H 0.40945 0.60707 0.87201 0.0
C1504 C 0.47917 0.58251 0.81558 0.0
C1505 C 0.47795 0.56424 0.83218 0.0
C1506 C 0.46025 0.59958 0.81027 0.0
C1507 C 0.43987 0.59851 0.82132 0.0
C1508 C 0.4386 0.57934 0.8363 0.0
H1509 H 0.31203 0.69823 0.82997 0.0
H1510 H 0.33992 0.66191 0.82885 0.0
C1511 C 0.45741 0.56258 0.84193 0.0
C1512 C 0.42014 0.61783 0.81849 0.0
H1513 H 0.38051 0.65461 0.85097 0.0
C1514 C 0.41331 0.6259 0.79511 0.0
C1515 C 0.4081 0.62841 0.83888 0.0
C1516 C 0.41523 0.62168 0.8644 0.0
C1517 C 0.39479 0.64411 0.79163 0.0
C1518 C 0.38281 0.65458 0.81203 0.0
C1519 C 0.38946 0.64634 0.83537 0.0
C1520 C 0.36483 0.67559 0.8096 0.0
C1521 C 0.38817 0.65202 0.76615 0.0
C1522 C 0.36946 0.69521 0.79894 0.0
C1523 C 0.35377 0.71577 0.79985 0.0
C1524 C 0.333 0.71723 0.8113 0.0
C1525 C 0.32786 0.69751 0.82088 0.0
C1526 C 0.34379 0.67683 0.8203 0.0
H1527 H 0.39495 0.63879 0.75341 0.0
H1528 H 0.37021 0.65741 0.76568 0.0
H1529 H 0.39442 0.66657 0.75958 0.0
H1530 H 0.3856 0.69481 0.79097 0.0
H1531 H 0.35816 0.73072 0.79227 0.0
H1532 H 0.47655 0.4833 0.85111 0.0
H1533 H 0.45684 0.45682 0.84345 0.0
H1534 H 0.49933 0.40522 0.88779 0.0
H1535 H 0.51914 0.43179 0.89561 0.0
H1536 H 0.47404 0.41712 0.82106 0.0
H1537 H 0.43873 0.40164 0.9147 0.0
H1538 H 0.45006 0.42488 0.90603 0.0
H1539 H 0.46767 0.39723 0.91164 0.0
C1540 C 0.48167 0.46633 0.85928 0.0
C1541 C 0.49942 0.45959 0.8739 0.0
C1542 C 0.47037 0.45125 0.85493 0.0
C1543 C 0.47656 0.42912 0.86515 0.0
C1544 C 0.49408 0.42234 0.88007 0.0
H1545 H 0.41455 0.3233 0.85107 0.0
H1546 H 0.44139 0.34241 0.8588 0.0
C1547 C 0.50535 0.43752 0.88454 0.0
C1548 C 0.46496 0.41315 0.85935 0.0
H1549 H 0.43157 0.38162 0.8842 0.0
C1550 C 0.46485 0.40925 0.83488 0.0
C1551 C 0.45311 0.40281 0.87744 0.0
C1552 C 0.45218 0.40692 0.90392 0.0
C1553 C 0.45284 0.39563 0.82793 0.0
C1554 C 0.44045 0.3859 0.84592 0.0
C1555 C 0.44115 0.38913 0.87048 0.0
C1556 C 0.42536 0.37371 0.83954 0.0
C1557 C 0.45339 0.39191 0.8014 0.0
C1558 C 0.40755 0.385 0.8261 0.0
C1559 C 0.39213 0.37424 0.82183 0.0
C1560 C 0.39418 0.35197 0.831 0.0
C1561 C 0.41237 0.34053 0.84398 0.0
C1562 C 0.42776 0.35136 0.84832 0.0
H1563 H 0.4681 0.39499 0.7911 0.0
H1564 H 0.45297 0.37461 0.79908 0.0
H1565 H 0.43895 0.40368 0.79333 0.0
H1566 H 0.40516 0.40241 0.81963 0.0
H1567 H 0.37813 0.3837 0.8122 0.0
H1568 H 0.6211 0.4819 0.85767 0.0
H1569 H 0.65102 0.44957 0.84797 0.0
H1570 H 0.61395 0.43416 0.79463 0.0
H1571 H 0.58371 0.46707 0.80414 0.0
H1572 H 0.64789 0.40612 0.85463 0.0
H1573 H 0.67445 0.42697 0.7587 0.0
H1574 H 0.65777 0.44791 0.77774 0.0
H1575 H 0.64605 0.42899 0.76523 0.0
C1576 C 0.61938 0.47191 0.84353 0.0
C1577 C 0.59998 0.47706 0.8317 0.0
C1578 C 0.63652 0.45335 0.83806 0.0
C1579 C 0.63479 0.43933 0.82063 0.0
C1580 C 0.61579 0.44486 0.80796 0.0
H1581 H 0.73302 0.30704 0.8268 0.0
H1582 H 0.69741 0.3348 0.82418 0.0
C1583 C 0.59853 0.46369 0.81336 0.0
C1584 C 0.6525 0.41833 0.81732 0.0
H1585 H 0.69387 0.3927 0.7777 0.0
C1586 C 0.6578 0.40302 0.83771 0.0
C1587 C 0.66545 0.41434 0.79528 0.0
C1588 C 0.66084 0.43042 0.77296 0.0
C1589 C 0.67614 0.38442 0.83703 0.0
C1590 C 0.68941 0.38064 0.81513 0.0
C1591 C 0.68364 0.39548 0.79444 0.0
C1592 C 0.71061 0.36304 0.81419 0.0
C1593 C 0.68181 0.36974 0.86019 0.0
C1594 C 0.72986 0.36943 0.80852 0.0
C1595 C 0.75006 0.35362 0.80969 0.0
C1596 C 0.75157 0.33098 0.81652 0.0
C1597 C 0.73235 0.32435 0.82141 0.0
C1598 C 0.71202 0.34024 0.82013 0.0
H1599 H 0.6725 0.37758 0.87644 0.0
H1600 H 0.67796 0.35368 0.85907 0.0
H1601 H 0.69941 0.36603 0.86281 0.0
H1602 H 0.72928 0.38684 0.80386 0.0
H1603 H 0.76457 0.35925 0.8056 0.0
H1604 H 0.62141 0.47839 0.23772 0.0
H1605 H 0.65213 0.44795 0.25 0.0
H1606 H 0.62849 0.45358 0.32517 0.0
H1607 H 0.59698 0.48442 0.31284 0.0
H1608 H 0.68445 0.44727 0.28027 0.0
H1609 H 0.63753 0.38679 0.3161 0.0
H1610 H 0.62562 0.41198 0.29758 0.0
H1611 H 0.63016 0.4135 0.32872 0.0
C1612 C 0.62256 0.47329 0.25694 0.0
C1613 C 0.60654 0.48385 0.27429 0.0
C1614 C 0.64029 0.45583 0.26392 0.0
C1615 C 0.6426 0.44828 0.28846 0.0
C1616 C 0.62689 0.45892 0.30606 0.0
H1617 H 0.74532 0.32616 0.33074 0.0
H1618 H 0.71671 0.36145 0.33442 0.0
C1619 C 0.60896 0.4766 0.29902 0.0
C1620 C 0.66153 0.4291 0.29483 0.0
H1621 H 0.67551 0.37318 0.31265 0.0
C1622 C 0.6825 0.43116 0.28774 0.0
C1623 C 0.65904 0.40806 0.30462 0.0
C1624 C 0.63692 0.40473 0.31211 0.0
C1625 C 0.70086 0.41262 0.28912 0.0
C1626 C 0.69823 0.39136 0.29758 0.0
C1627 C 0.67747 0.38949 0.30605 0.0
C1628 C 0.71646 0.37064 0.29571 0.0
C1629 C 0.72291 0.41584 0.28096 0.0
C1630 C 0.72583 0.36409 0.27275 0.0
C1631 C 0.74203 0.34394 0.2706 0.0
C1632 C 0.74921 0.32991 0.29136 0.0
C1633 C 0.74015 0.33668 0.31441 0.0
C1634 C 0.72378 0.35679 0.31654 0.0
H1635 H 0.7231 0.43347 0.28171 0.0
H1636 H 0.73561 0.40483 0.29236 0.0
H1637 H 0.72711 0.4115 0.26186 0.0
H1638 H 0.72022 0.37433 0.25641 0.0
H1639 H 0.74866 0.33914 0.25262 0.0
H1640 H 0.60378 0.58132 0.27205 0.0
H1641 H 0.63228 0.59932 0.27514 0.0
H1642 H 0.63839 0.61097 0.19713 0.0
H1643 H 0.61008 0.59236 0.19368 0.0
H1644 H 0.67673 0.58593 0.25097 0.0
H1645 H 0.62973 0.67352 0.22546 0.0
H1646 H 0.61662 0.652 0.2365 0.0
H1647 H 0.62916 0.65223 0.2062 0.0
C1648 C 0.61125 0.58741 0.25544 0.0
C1649 C 0.60464 0.58516 0.23255 0.0
C1650 C 0.62747 0.59787 0.2573 0.0
C1651 C 0.63732 0.60654 0.2364 0.0
C1652 C 0.63077 0.60456 0.2135 0.0
H1653 H 0.73475 0.68106 0.22726 0.0
H1654 H 0.70784 0.66293 0.21734 0.0
C1655 C 0.61456 0.59396 0.21158 0.0
C1656 C 0.65476 0.6172 0.23883 0.0
H1657 H 0.66577 0.66777 0.23535 0.0
C1658 C 0.67442 0.6038 0.24743 0.0
C1659 C 0.65167 0.64047 0.23405 0.0
C1660 C 0.63065 0.65554 0.22516 0.0
C1661 C 0.69109 0.61311 0.25161 0.0
C1662 C 0.68775 0.63652 0.24768 0.0
C1663 C 0.66826 0.64985 0.23846 0.0
C1664 C 0.70401 0.64755 0.2537 0.0
C1665 C 0.71218 0.59772 0.26002 0.0
C1666 C 0.7105 0.64525 0.27752 0.0
C1667 C 0.72588 0.65553 0.28322 0.0
C1668 C 0.73488 0.66858 0.26527 0.0
C1669 C 0.72802 0.67123 0.24152 0.0
C1670 C 0.71271 0.66082 0.2358 0.0
H1671 H 0.71462 0.58041 0.25495 0.0
H1672 H 0.72626 0.60374 0.25218 0.0
H1673 H 0.71185 0.59707 0.28013 0.0
H1674 H 0.70355 0.63561 0.29178 0.0
H1675 H 0.73052 0.65352 0.30177 0.0
H1676 H 0.51099 0.594 0.3057 0.0
H1677 H 0.48261 0.62833 0.31548 0.0
H1678 H 0.4452 0.61913 0.25882 0.0
H1679 H 0.47318 0.58541 0.24893 0.0
H1680 H 0.45194 0.6619 0.25582 0.0
H1681 H 0.42026 0.63723 0.34848 0.0
H1682 H 0.44911 0.63319 0.34312 0.0
H1683 H 0.43606 0.61679 0.32835 0.0
C1684 C 0.49651 0.59913 0.2957 0.0
C1685 C 0.4944 0.58703 0.27647 0.0
C1686 C 0.48032 0.61876 0.30126 0.0
C1687 C 0.46178 0.62637 0.2878 0.0
C1688 C 0.4594 0.61374 0.26932 0.0
H1689 H 0.33355 0.70587 0.29717 0.0
H1690 H 0.36896 0.67871 0.2994 0.0
C1691 C 0.47545 0.59438 0.26373 0.0
C1692 C 0.44499 0.64784 0.29177 0.0
H1693 H 0.40186 0.67207 0.33004 0.0
C1694 C 0.4412 0.66436 0.27222 0.0
C1695 C 0.43099 0.65097 0.31314 0.0
C1696 C 0.4341 0.63363 0.33451 0.0
C1697 C 0.42313 0.68324 0.2729 0.0
C1698 C 0.40859 0.68596 0.29392 0.0
C1699 C 0.41305 0.67004 0.31398 0.0
C1700 C 0.38723 0.70327 0.29411 0.0
C1701 C 0.41899 0.69933 0.25049 0.0
C1702 C 0.38554 0.72632 0.29064 0.0
C1703 C 0.36511 0.74204 0.28913 0.0
C1704 C 0.3461 0.7349 0.2912 0.0
C1705 C 0.34789 0.71192 0.29531 0.0
C1706 C 0.36816 0.69633 0.29675 0.0
H1707 H 0.42971 0.69275 0.23445 0.0
H1708 H 0.40184 0.70299 0.24594 0.0
H1709 H 0.42204 0.71529 0.254 0.0
H1710 H 0.4 0.73213 0.28893 0.0
H1711 H 0.36418 0.75967 0.28618 0.0
H1712 H 0.48598 0.49815 0.27755 0.0
H1713 H 0.46272 0.4731 0.28708 0.0
H1714 H 0.49164 0.43749 0.22429 0.0
H1715 H 0.51513 0.46235 0.2147 0.0
H1716 H 0.44631 0.4479 0.22865 0.0
H1717 H 0.48138 0.40774 0.31526 0.0
H1718 H 0.47258 0.43774 0.31369 0.0
H1719 H 0.49475 0.42397 0.29352 0.0
C1720 C 0.48761 0.48486 0.26589 0.0
C1721 C 0.50259 0.48221 0.24543 0.0
C1722 C 0.47427 0.47054 0.27138 0.0
C1723 C 0.4757 0.4532 0.25663 0.0
C1724 C 0.49034 0.45072 0.23598 0.0
H1725 H 0.42415 0.33839 0.28508 0.0
H1726 H 0.44699 0.36415 0.27906 0.0
C1727 C 0.50369 0.46503 0.23045 0.0
C1728 C 0.46163 0.43792 0.26243 0.0
H1729 H 0.44954 0.39927 0.30566 0.0
C1730 C 0.44702 0.43726 0.24547 0.0
C1731 C 0.46275 0.42388 0.28429 0.0
C1732 C 0.47883 0.42314 0.30268 0.0
C1733 C 0.43333 0.42309 0.24987 0.0
C1734 C 0.43405 0.40947 0.272 0.0
C1735 C 0.44884 0.40993 0.28885 0.0
C1736 C 0.42008 0.39407 0.27753 0.0
C1737 C 0.41853 0.42248 0.23056 0.0
C1738 C 0.39738 0.40237 0.27941 0.0
C1739 C 0.38427 0.38769 0.28274 0.0
C1740 C 0.39364 0.36441 0.28434 0.0
C1741 C 0.41642 0.3562 0.28355 0.0
C1742 C 0.4295 0.3709 0.28023 0.0
H1743 H 0.4236 0.42979 0.21258 0.0
H1744 H 0.41821 0.40508 0.22866 0.0
H1745 H 0.40177 0.43234 0.23582 0.0
H1746 H 0.38978 0.42021 0.2778 0.0
H1747 H 0.36682 0.3946 0.28309 0.0
H1748 H 0.84952 0.61082 0.59384 0.0
H1749 H 0.84974 0.63602 0.62482 0.0
H1750 H 0.80046 0.61233 0.66879 0.0
H1751 H 0.80042 0.58692 0.63836 0.0
H1752 H 0.81611 0.67015 0.64021 0.0
H1753 H 0.8429 0.60964 0.71882 0.0
H1754 H 0.84556 0.60136 0.68818 0.0
H1755 H 0.82002 0.60531 0.70594 0.0
C1756 C 0.83898 0.61072 0.61029 0.0
C1757 C 0.825 0.59677 0.61359 0.0
C1758 C 0.8391 0.62517 0.62796 0.0
C1759 C 0.82536 0.62585 0.64935 0.0
C1760 C 0.81161 0.61174 0.65278 0.0
H1761 H 0.77817 0.71325 0.76509 0.0
H1762 H 0.78613 0.6837 0.73712 0.0
C1763 C 0.81151 0.5973 0.63521 0.0
C1764 C 0.82417 0.64238 0.66727 0.0
H1765 H 0.82613 0.64764 0.72777 0.0
C1766 C 0.8186 0.6652 0.65929 0.0
C1767 C 0.82734 0.63595 0.69222 0.0
C1768 C 0.8345 0.61172 0.70177 0.0
C1769 C 0.81539 0.68174 0.67565 0.0
C1770 C 0.81807 0.67531 0.70064 0.0
C1771 C 0.82399 0.65252 0.70861 0.0
C1772 C 0.81434 0.69212 0.71877 0.0
C1773 C 0.80848 0.70603 0.66621 0.0
C1774 C 0.8279 0.70627 0.71814 0.0
C1775 C 0.82347 0.72313 0.73415 0.0
C1776 C 0.80534 0.72621 0.75113 0.0
C1777 C 0.79223 0.71145 0.75226 0.0
C1778 C 0.79675 0.69452 0.73628 0.0
H1779 H 0.80299 0.7082 0.64749 0.0
H1780 H 0.79514 0.71566 0.67831 0.0
H1781 H 0.82243 0.71325 0.66585 0.0
H1782 H 0.84174 0.7045 0.70499 0.0
H1783 H 0.83398 0.73409 0.73274 0.0
H1784 H 0.4999 0.78775 0.65581 0.0
H1785 H 0.46505 0.79233 0.67969 0.0
H1786 H 0.45609 0.73501 0.64959 0.0
H1787 H 0.4907 0.73033 0.62574 0.0
H1788 H 0.42319 0.79974 0.66625 0.0
H1789 H 0.44673 0.71886 0.72165 0.0
H1790 H 0.46634 0.73034 0.70328 0.0
H1791 H 0.45053 0.71588 0.68957 0.0
C1792 C 0.49054 0.77613 0.65416 0.0
C1793 C 0.49847 0.75849 0.63889 0.0
C1794 C 0.47055 0.77874 0.66794 0.0
C1795 C 0.45799 0.76376 0.66694 0.0
C1796 C 0.46564 0.74645 0.65133 0.0
H1797 H 0.33469 0.7464 0.73347 0.0
H1798 H 0.36845 0.74501 0.70852 0.0
C1799 C 0.48558 0.7438 0.63761 0.0
C1800 C 0.4368 0.7663 0.68187 0.0
H1801 H 0.4092 0.73842 0.72399 0.0
C1802 C 0.4202 0.78638 0.67899 0.0
C1803 C 0.43274 0.74892 0.6986 0.0
C1804 C 0.45008 0.72737 0.70368 0.0
C1805 C 0.39964 0.7893 0.69176 0.0
C1806 C 0.39551 0.77181 0.70827 0.0
C1807 C 0.41218 0.75182 0.71129 0.0
C1808 C 0.3741 0.77375 0.72255 0.0
C1809 C 0.38229 0.81088 0.6869 0.0
C1810 C 0.36574 0.79042 0.73885 0.0
C1811 C 0.34629 0.79131 0.75317 0.0
C1812 C 0.33469 0.77549 0.75167 0.0
C1813 C 0.34296 0.75901 0.73507 0.0
C1814 C 0.3624 0.75812 0.72081 0.0
H1815 H 0.38591 0.81989 0.66936 0.0
H1816 H 0.36614 0.8078 0.68659 0.0
H1817 H 0.38139 0.82193 0.7016 0.0
H1818 H 0.37457 0.80242 0.74103 0.0
H1819 H 0.34065 0.80409 0.76589 0.0
H1820 H 0.3398 0.4264 0.6122 0.0
H1821 H 0.33518 0.3977 0.64414 0.0
H1822 H 0.2657 0.42518 0.64529 0.0
H1823 H 0.27021 0.45382 0.61322 0.0
H1824 H 0.31703 0.40053 0.69049 0.0
H1825 H 0.27181 0.36016 0.63758 0.0
H1826 H 0.2855 0.38033 0.62367 0.0
H1827 H 0.25932 0.38947 0.63978 0.0
C1828 C 0.32352 0.4264 0.61925 0.0
C1829 C 0.30538 0.44242 0.60991 0.0
C1830 C 0.3209 0.40992 0.63754 0.0
C1831 C 0.30007 0.40897 0.64697 0.0
C1832 C 0.28193 0.42513 0.63795 0.0
H1833 H 0.27622 0.3272 0.78128 0.0
H1834 H 0.27818 0.3588 0.75158 0.0
C1835 C 0.28454 0.44155 0.61955 0.0
C1836 C 0.29745 0.39116 0.66627 0.0
H1837 H 0.27456 0.34772 0.67927 0.0
C1838 C 0.30772 0.389 0.68804 0.0
C1839 C 0.28551 0.37588 0.66306 0.0
C1840 C 0.27507 0.37637 0.63968 0.0
C1841 C 0.30636 0.37211 0.70658 0.0
C1842 C 0.29406 0.35714 0.70353 0.0
C1843 C 0.2838 0.3593 0.68178 0.0
C1844 C 0.29266 0.33825 0.72194 0.0
C1845 C 0.31869 0.37003 0.72893 0.0
C1846 C 0.29962 0.3162 0.71515 0.0
C1847 C 0.29835 0.29825 0.73199 0.0
C1848 C 0.29006 0.30185 0.75607 0.0
C1849 C 0.28287 0.32391 0.76291 0.0
C1850 C 0.2841 0.34195 0.74597 0.0
H1851 H 0.33146 0.37905 0.72587 0.0
H1852 H 0.30725 0.37737 0.7441 0.0
H1853 H 0.32646 0.35223 0.73463 0.0
H1854 H 0.30624 0.31283 0.69678 0.0
H1855 H 0.30404 0.28146 0.72614 0.0
H1856 H 0.53548 0.29917 0.58849 0.0
H1857 H 0.55829 0.30928 0.6164 0.0
H1858 H 0.61574 0.26976 0.57877 0.0
H1859 H 0.59323 0.25949 0.55139 0.0
H1860 H 0.58921 0.27494 0.64644 0.0
H1861 H 0.63011 0.32971 0.58647 0.0
H1862 H 0.60464 0.32541 0.57994 0.0
H1863 H 0.62974 0.30459 0.57365 0.0
C1864 C 0.55299 0.29322 0.58581 0.0
C1865 C 0.56258 0.27868 0.56765 0.0
C1866 C 0.56601 0.29884 0.60186 0.0
C1867 C 0.5888 0.29041 0.5996 0.0
C1868 C 0.59829 0.27674 0.58074 0.0
H1869 H 0.70568 0.27648 0.6697 0.0
H1870 H 0.67702 0.27969 0.64264 0.0
C1871 C 0.58537 0.27085 0.56509 0.0
C1872 C 0.60283 0.29402 0.61792 0.0
H1873 H 0.64656 0.31371 0.62336 0.0
C1874 C 0.6015 0.28377 0.64158 0.0
C1875 C 0.61906 0.30528 0.6115 0.0
C1876 C 0.62094 0.31706 0.58657 0.0
C1877 C 0.61657 0.28354 0.65857 0.0
C1878 C 0.63315 0.29443 0.65201 0.0
C1879 C 0.63397 0.30532 0.62854 0.0
C1880 C 0.65055 0.29357 0.66859 0.0
C1881 C 0.61526 0.27051 0.68291 0.0
C1882 C 0.64548 0.30078 0.6922 0.0
C1883 C 0.66193 0.2986 0.70799 0.0
C1884 C 0.68396 0.28939 0.70052 0.0
C1885 C 0.68898 0.28314 0.67647 0.0
C1886 C 0.67253 0.28517 0.6608 0.0
H1887 H 0.60555 0.25841 0.68262 0.0
H1888 H 0.63169 0.2612 0.68853 0.0
H1889 H 0.60728 0.28227 0.69684 0.0
H1890 H 0.62875 0.30791 0.69856 0.0
H1891 H 0.65727 0.30355 0.72631 0.0
H1892 H 0.84336 0.52537 0.48866 0.0
H1893 H 0.84477 0.4926 0.46736 0.0
H1894 H 0.82878 0.45825 0.53509 0.0
H1895 H 0.82787 0.49066 0.55664 0.0
H1896 H 0.85771 0.42977 0.50494 0.0
H1897 H 0.78748 0.48142 0.45519 0.0
H1898 H 0.81076 0.4922 0.45085 0.0
H1899 H 0.79695 0.491 0.48055 0.0
C1900 C 0.84064 0.51066 0.49913 0.0
C1901 C 0.8352 0.5108 0.52432 0.0
C1902 C 0.84127 0.492 0.48688 0.0
C1903 C 0.83621 0.47325 0.49952 0.0
C1904 C 0.83251 0.47263 0.52492 0.0
H1905 H 0.78511 0.38016 0.43287 0.0
H1906 H 0.79055 0.40782 0.45808 0.0
C1907 C 0.83206 0.4912 0.53723 0.0
C1908 C 0.83322 0.45502 0.48617 0.0
H1909 H 0.8032 0.44474 0.44334 0.0
C1910 C 0.8458 0.43301 0.49147 0.0
C1911 C 0.81729 0.45918 0.46902 0.0
C1912 C 0.80218 0.48218 0.4637 0.0
C1913 C 0.8432 0.41514 0.47971 0.0
C1914 C 0.82787 0.41947 0.46185 0.0
C1915 C 0.81505 0.44142 0.45689 0.0
C1916 C 0.82493 0.40161 0.44783 0.0
C1917 C 0.85659 0.39176 0.48691 0.0
C1918 C 0.8424 0.38895 0.43363 0.0
C1919 C 0.83933 0.37312 0.41929 0.0
C1920 C 0.81867 0.36975 0.41861 0.0
C1921 C 0.80119 0.38241 0.4329 0.0
C1922 C 0.80431 0.39817 0.44737 0.0
H1923 H 0.86235 0.39045 0.50542 0.0
H1924 H 0.84719 0.3794 0.48647 0.0
H1925 H 0.8711 0.38728 0.47396 0.0
H1926 H 0.85831 0.39174 0.43308 0.0
H1927 H 0.85305 0.36403 0.4081 0.0
H1928 H 0.64125 0.7255 0.50755 0.0
H1929 H 0.66675 0.73032 0.47331 0.0
H1930 H 0.65071 0.80081 0.4824 0.0
H1931 H 0.62509 0.79614 0.51689 0.0
H1932 H 0.65287 0.79235 0.4341 0.0
H1933 H 0.72652 0.73892 0.47628 0.0
H1934 H 0.70587 0.72485 0.47549 0.0
H1935 H 0.70085 0.74833 0.49355 0.0
C1936 C 0.64323 0.74204 0.50256 0.0
C1937 C 0.63112 0.76036 0.5154 0.0
C1938 C 0.65793 0.74476 0.48287 0.0
C1939 C 0.66114 0.76585 0.47545 0.0
C1940 C 0.64872 0.78431 0.48779 0.0
H1941 H 0.74373 0.8109 0.35474 0.0
H1942 H 0.71748 0.80996 0.38976 0.0
C1943 C 0.63395 0.78161 0.50754 0.0
C1944 C 0.67717 0.76859 0.45463 0.0
H1945 H 0.7305 0.74952 0.43401 0.0
C1946 C 0.66989 0.78313 0.43418 0.0
C1947 C 0.69944 0.75658 0.45456 0.0
C1948 C 0.70871 0.74146 0.47623 0.0
C1949 C 0.68398 0.78539 0.4135 0.0
C1950 C 0.70621 0.77317 0.41333 0.0
C1951 C 0.71353 0.7589 0.43395 0.0
C1952 C 0.72201 0.77418 0.39174 0.0
C1953 C 0.67469 0.80023 0.39166 0.0
C1954 C 0.73387 0.75441 0.38138 0.0
C1955 C 0.74898 0.7549 0.36151 0.0
C1956 C 0.75281 0.77519 0.35134 0.0
C1957 C 0.74106 0.79501 0.36181 0.0
C1958 C 0.7259 0.79449 0.38181 0.0
H1959 H 0.65677 0.80348 0.39213 0.0
H1960 H 0.67835 0.81655 0.39152 0.0
H1961 H 0.68194 0.79265 0.37449 0.0
H1962 H 0.73142 0.73848 0.38868 0.0
H1963 H 0.7578 0.7392 0.35424 0.0
H1964 H 0.33115 0.55931 0.44943 0.0
H1965 H 0.32757 0.59571 0.42684 0.0
H1966 H 0.28787 0.62805 0.48702 0.0
H1967 H 0.29082 0.59147 0.50933 0.0
H1968 H 0.27076 0.64661 0.44702 0.0
H1969 H 0.35808 0.64152 0.43311 0.0
H1970 H 0.35242 0.61854 0.42084 0.0
H1971 H 0.34809 0.62142 0.4531 0.0
C1972 C 0.32186 0.57419 0.45796 0.0
C1973 C 0.31141 0.57246 0.48127 0.0
C1974 C 0.31991 0.59508 0.44506 0.0
C1975 C 0.30789 0.61487 0.45535 0.0
C1976 C 0.29734 0.61315 0.47862 0.0
H1977 H 0.31854 0.74436 0.38444 0.0
H1978 H 0.32022 0.71177 0.41361 0.0
C1979 C 0.29901 0.59221 0.49139 0.0
C1980 C 0.30566 0.6372 0.44148 0.0
H1981 H 0.33452 0.6696 0.40776 0.0
C1982 C 0.28476 0.65169 0.43866 0.0
C1983 C 0.32383 0.64428 0.43091 0.0
C1984 C 0.34685 0.63072 0.43488 0.0
C1985 C 0.28152 0.67253 0.42504 0.0
C1986 C 0.29962 0.6789 0.41306 0.0
C1987 C 0.32055 0.66475 0.41655 0.0
C1988 C 0.29727 0.69979 0.39641 0.0
C1989 C 0.25868 0.6876 0.42404 0.0
C1990 C 0.28376 0.70418 0.37696 0.0
C1991 C 0.28246 0.72305 0.36054 0.0
C1992 C 0.29502 0.73781 0.36275 0.0
C1993 C 0.30852 0.73347 0.38224 0.0
C1994 C 0.30956 0.71474 0.3989 0.0
H1995 H 0.24835 0.68432 0.44047 0.0
H1996 H 0.25841 0.70552 0.42251 0.0
H1997 H 0.25131 0.68427 0.40803 0.0
H1998 H 0.27465 0.69266 0.37398 0.0
H1999 H 0.27219 0.72555 0.34553 0.0
H2000 H 0.47396 0.29889 0.46605 0.0
H2001 H 0.44501 0.3078 0.43732 0.0
H2002 H 0.42209 0.25265 0.47108 0.0
H2003 H 0.45067 0.24364 0.4993 0.0
H2004 H 0.43697 0.27512 0.40413 0.0
H2005 H 0.36707 0.30839 0.46906 0.0
H2006 H 0.39456 0.30788 0.4741 0.0
H2007 H 0.38576 0.28289 0.48021 0.0
C2008 C 0.46252 0.28892 0.46753 0.0
C2009 C 0.46465 0.27058 0.48508 0.0
C2010 C 0.44609 0.29391 0.45099 0.0
C2011 C 0.43126 0.28093 0.45205 0.0
C2012 C 0.43315 0.26302 0.46993 0.0
H2013 H 0.32646 0.25322 0.39361 0.0
H2014 H 0.35598 0.25803 0.41498 0.0
C2015 C 0.4496 0.25788 0.48609 0.0
C2016 C 0.41401 0.28527 0.43443 0.0
H2017 H 0.35902 0.29587 0.43269 0.0
C2018 C 0.41989 0.28014 0.41016 0.0
C2019 C 0.3917 0.29176 0.44225 0.0
C2020 C 0.3843 0.29825 0.46777 0.0
C2021 C 0.40415 0.27993 0.39408 0.0
C2022 C 0.38187 0.28529 0.40235 0.0
C2023 C 0.37602 0.29162 0.42624 0.0
C2024 C 0.36458 0.2821 0.38781 0.0
C2025 C 0.4116 0.27268 0.36884 0.0
C2026 C 0.35946 0.29386 0.36503 0.0
C2027 C 0.34244 0.29096 0.35252 0.0
C2028 C 0.3302 0.27636 0.36266 0.0
C2029 C 0.33556 0.26456 0.38523 0.0
C2030 C 0.35246 0.26736 0.39756 0.0
H2031 H 0.42946 0.26527 0.36671 0.0
H2032 H 0.40345 0.26024 0.36444 0.0
H2033 H 0.40719 0.28739 0.35543 0.0
H2034 H 0.36822 0.30567 0.3572 0.0
H2035 H 0.33847 0.30056 0.33537 0.0
H2036 H 0.59417 0.81897 0.63419 0.0
H2037 H 0.61955 0.82722 0.65994 0.0
H2038 H 0.64604 0.75667 0.67858 0.0
H2039 H 0.62048 0.74842 0.65388 0.0
H2040 H 0.64222 0.77895 0.71755 0.0
H2041 H 0.68271 0.82025 0.64091 0.0
H2042 H 0.65423 0.8333 0.64644 0.0
H2043 H 0.66317 0.80559 0.63624 0.0
C2044 C 0.60531 0.80526 0.64394 0.0
C2045 C 0.60534 0.78303 0.64179 0.0
C2046 C 0.61993 0.80998 0.65852 0.0
C2047 C 0.63507 0.79254 0.6709 0.0
C2048 C 0.63462 0.77045 0.66926 0.0
H2049 H 0.76169 0.78265 0.71263 0.0
H2050 H 0.72857 0.78308 0.69431 0.0
C2051 C 0.61995 0.76576 0.65498 0.0
C2052 C 0.65194 0.79679 0.68506 0.0
H2053 H 0.69627 0.81734 0.67932 0.0
C2054 C 0.65395 0.78751 0.70924 0.0
C2055 C 0.6674 0.80777 0.6742 0.0
C2056 C 0.66697 0.81714 0.64797 0.0
C2057 C 0.67129 0.78823 0.72254 0.0
C2058 C 0.6868 0.79911 0.71162 0.0
C2059 C 0.68436 0.80907 0.68775 0.0
C2060 C 0.70674 0.79869 0.72362 0.0
C2061 C 0.67342 0.77632 0.74768 0.0
C2062 C 0.70566 0.80725 0.74636 0.0
C2063 C 0.72474 0.80676 0.75707 0.0
C2064 C 0.74517 0.79797 0.74505 0.0
C2065 C 0.74617 0.78956 0.72232 0.0
C2066 C 0.72722 0.78984 0.71179 0.0
H2067 H 0.66334 0.76437 0.75102 0.0
H2068 H 0.69057 0.76704 0.7505 0.0
H2069 H 0.6679 0.78881 0.76141 0.0
H2070 H 0.6901 0.81461 0.75567 0.0
H2071 H 0.72353 0.81357 0.7745 0.0
H2072 H 0.59245 0.2191 0.44004 0.0
H2073 H 0.62682 0.22231 0.41926 0.0
H2074 H 0.63269 0.26575 0.47221 0.0
H2075 H 0.5988 0.26196 0.49364 0.0
H2076 H 0.6367 0.26026 0.39832 0.0
H2077 H 0.69221 0.22081 0.471 0.0
H2078 H 0.66484 0.21837 0.4719 0.0
H2079 H 0.66971 0.24344 0.48034 0.0
C2080 C 0.60118 0.22906 0.44753 0.0
C2081 C 0.59276 0.24023 0.46859 0.0
C2082 C 0.62079 0.23098 0.43553 0.0
C2083 C 0.63252 0.24401 0.44436 0.0
C2084 C 0.62418 0.25524 0.46531 0.0
H2085 H 0.74781 0.28439 0.38445 0.0
H2086 H 0.7162 0.2791 0.41033 0.0
C2087 C 0.60458 0.2533 0.47737 0.0
C2088 C 0.65294 0.2466 0.43097 0.0
H2089 H 0.70719 0.23857 0.43635 0.0
C2090 C 0.65211 0.25542 0.40662 0.0
C2091 C 0.67305 0.24041 0.44186 0.0
C2092 C 0.67514 0.23004 0.46764 0.0
C2093 C 0.67077 0.25835 0.39292 0.0
C2094 C 0.69088 0.252 0.40373 0.0
C2095 C 0.69173 0.24341 0.42814 0.0
C2096 C 0.71122 0.25372 0.38961 0.0
C2097 C 0.66878 0.26846 0.36703 0.0
C2098 C 0.71929 0.24067 0.36993 0.0
C2099 C 0.73731 0.24357 0.35519 0.0
C2100 C 0.74771 0.2596 0.35985 0.0
C2101 C 0.7402 0.27192 0.38032 0.0
C2102 C 0.72212 0.26896 0.39511 0.0
H2103 H 0.65166 0.2772 0.36332 0.0
H2104 H 0.6787 0.28051 0.3629 0.0
H2105 H 0.67484 0.25499 0.35447 0.0
H2106 H 0.71131 0.22855 0.36563 0.0
H2107 H 0.7427 0.23364 0.33974 0.0
H2108 H 0.80392 0.63071 0.51814 0.0
H2109 H 0.81233 0.65598 0.48436 0.0
H2110 H 0.77264 0.63437 0.43893 0.0
H2111 H 0.76447 0.60869 0.47237 0.0
H2112 H 0.83227 0.64344 0.43672 0.0
H2113 H 0.75041 0.70411 0.43292 0.0
H2114 H 0.75855 0.68517 0.45936 0.0
H2115 H 0.7514 0.67507 0.43306 0.0
C2116 C 0.79701 0.63121 0.50099 0.0
C2117 C 0.78351 0.61754 0.49811 0.0
C2118 C 0.80179 0.64575 0.48171 0.0
C2119 C 0.793 0.64713 0.45922 0.0
C2120 C 0.77934 0.63377 0.45627 0.0
H2121 H 0.83493 0.71517 0.32331 0.0
H2122 H 0.8274 0.68593 0.35344 0.0
C2123 C 0.77462 0.61914 0.4755 0.0
C2124 C 0.79859 0.6622 0.43872 0.0
H2125 H 0.77733 0.70975 0.40294 0.0
C2126 C 0.82027 0.65789 0.42922 0.0
C2127 C 0.78288 0.68105 0.42909 0.0
C2128 C 0.75951 0.68684 0.43917 0.0
C2129 C 0.82672 0.67211 0.41046 0.0
C2130 C 0.81103 0.69098 0.40089 0.0
C2131 C 0.78929 0.69513 0.4102 0.0
C2132 C 0.81701 0.70778 0.38273 0.0
C2133 C 0.85037 0.6673 0.40159 0.0
C2134 C 0.81386 0.72955 0.38928 0.0
C2135 C 0.81804 0.74609 0.37224 0.0
C2136 C 0.82524 0.7413 0.34813 0.0
C2137 C 0.82922 0.7193 0.34172 0.0
C2138 C 0.825 0.70263 0.35891 0.0
H2139 H 0.86092 0.65426 0.41364 0.0
H2140 H 0.85253 0.66136 0.3831 0.0
H2141 H 0.85584 0.68273 0.40041 0.0
H2142 H 0.8078 0.73385 0.40757 0.0
H2143 H 0.81485 0.76287 0.3778 0.0
H2144 H 0.53751 0.79194 0.50044 0.0
H2145 H 0.50443 0.80476 0.47881 0.0
H2146 H 0.46981 0.83646 0.54193 0.0
H2147 H 0.50323 0.82363 0.5638 0.0
H2148 H 0.45126 0.80555 0.52505 0.0
H2149 H 0.46766 0.86442 0.44904 0.0
H2150 H 0.48974 0.83948 0.45175 0.0
H2151 H 0.48279 0.85788 0.47595 0.0
C2152 C 0.52303 0.80227 0.50946 0.0
C2153 C 0.52292 0.80688 0.53373 0.0
C2154 C 0.50414 0.80967 0.49704 0.0
C2155 C 0.48469 0.82173 0.50866 0.0
C2156 C 0.48472 0.82735 0.53257 0.0
H2157 H 0.37431 0.84913 0.41724 0.0
H2158 H 0.39718 0.85511 0.44733 0.0
C2159 C 0.50381 0.82017 0.54496 0.0
C2160 C 0.46413 0.82558 0.49673 0.0
H2161 H 0.44174 0.84433 0.44247 0.0
C2162 C 0.44887 0.8145 0.50724 0.0
C2163 C 0.46088 0.83741 0.47363 0.0
C2164 C 0.47605 0.85067 0.46204 0.0
C2165 C 0.43135 0.81356 0.49448 0.0
C2166 C 0.42922 0.82374 0.4705 0.0
C2167 C 0.44353 0.83625 0.46074 0.0
C2168 C 0.41357 0.82004 0.45444 0.0
C2169 C 0.41564 0.80115 0.50654 0.0
C2170 C 0.41506 0.79832 0.44858 0.0
C2171 C 0.40213 0.79485 0.4313 0.0
C2172 C 0.38752 0.81306 0.41936 0.0
C2173 C 0.38557 0.83475 0.42587 0.0
C2174 C 0.39855 0.83821 0.44314 0.0
H2175 H 0.41504 0.80089 0.52666 0.0
H2176 H 0.399 0.80878 0.50049 0.0
H2177 H 0.42107 0.78357 0.50165 0.0
H2178 H 0.42691 0.78408 0.45661 0.0
H2179 H 0.40436 0.77798 0.42645 0.0
H2180 H 0.31596 0.43786 0.48402 0.0
H2181 H 0.30645 0.41544 0.45572 0.0
H2182 H 0.23986 0.4555 0.46135 0.0
H2183 H 0.24935 0.47843 0.48965 0.0
H2184 H 0.27686 0.39021 0.46342 0.0
H2185 H 0.25508 0.4562 0.38748 0.0
H2186 H 0.26969 0.45937 0.41249 0.0
H2187 H 0.24101 0.46244 0.41662 0.0
C2188 C 0.29927 0.44202 0.47927 0.0
C2189 C 0.28342 0.46001 0.48907 0.0
C2190 C 0.29386 0.42913 0.46308 0.0
C2191 C 0.2725 0.43391 0.45624 0.0
C2192 C 0.25652 0.45174 0.46608 0.0
H2193 H 0.24333 0.33266 0.37579 0.0
H2194 H 0.2385 0.36123 0.40444 0.0
C2195 C 0.26195 0.46475 0.48234 0.0
C2196 C 0.26731 0.4198 0.43903 0.0
H2197 H 0.25348 0.42011 0.38097 0.0
C2198 C 0.27146 0.39676 0.44549 0.0
C2199 C 0.26046 0.42841 0.4156 0.0
C2200 C 0.25642 0.45292 0.40743 0.0
C2201 C 0.26968 0.38198 0.42892 0.0
C2202 C 0.2631 0.39053 0.40537 0.0
C2203 C 0.2583 0.41365 0.39912 0.0
C2204 C 0.26343 0.37545 0.38628 0.0
C2205 C 0.27599 0.3572 0.43636 0.0
C2206 C 0.27824 0.37472 0.36591 0.0
C2207 C 0.28094 0.35857 0.34941 0.0
C2208 C 0.26886 0.34277 0.35294 0.0
C2209 C 0.25304 0.34443 0.37257 0.0
C2210 C 0.25032 0.36067 0.38906 0.0
H2211 H 0.28467 0.35315 0.45334 0.0
H2212 H 0.26114 0.35132 0.43954 0.0
H2213 H 0.28656 0.34777 0.42176 0.0
H2214 H 0.28846 0.38602 0.36335 0.0
H2215 H 0.29318 0.35797 0.33445 0.0
H2216 H 0.50121 0.19949 0.62427 0.0
H2217 H 0.47697 0.19946 0.66103 0.0
H2218 H 0.43132 0.25844 0.63093 0.0
H2219 H 0.4551 0.2582 0.59381 0.0
H2220 H 0.46184 0.23202 0.69375 0.0
H2221 H 0.39336 0.21633 0.65156 0.0
H2222 H 0.42009 0.21227 0.63626 0.0
H2223 H 0.4017 0.23986 0.63695 0.0
C2224 C 0.48589 0.21228 0.62526 0.0
C2225 C 0.48011 0.22878 0.60592 0.0
C2226 C 0.47211 0.21232 0.64641 0.0
C2227 C 0.45219 0.22875 0.64861 0.0
C2228 C 0.44644 0.24535 0.62947 0.0
H2229 H 0.36886 0.27527 0.77397 0.0
H2230 H 0.39755 0.26775 0.74138 0.0
C2231 C 0.46019 0.24533 0.60833 0.0
C2232 C 0.43762 0.22886 0.67112 0.0
H2233 H 0.38605 0.22818 0.69178 0.0
C2234 C 0.44532 0.231 0.69337 0.0
C2235 C 0.41619 0.22715 0.67069 0.0
C2236 C 0.40738 0.22355 0.64763 0.0
C2237 C 0.43191 0.23225 0.71505 0.0
C2238 C 0.41014 0.23167 0.7144 0.0
C2239 C 0.40269 0.22878 0.69228 0.0
C2240 C 0.39446 0.235 0.73611 0.0
C2241 C 0.44122 0.23413 0.73846 0.0
C2242 C 0.38312 0.21909 0.74411 0.0
C2243 C 0.36655 0.22339 0.76274 0.0
C2244 C 0.36088 0.24379 0.77361 0.0
C2245 C 0.37284 0.25932 0.76616 0.0
C2246 C 0.38937 0.25501 0.74754 0.0
H2247 H 0.45919 0.22745 0.73734 0.0
H2248 H 0.4372 0.252 0.74208 0.0
H2249 H 0.43433 0.22503 0.75405 0.0
H2250 H 0.38671 0.20358 0.73548 0.0
H2251 H 0.35763 0.2111 0.76791 0.0
H2252 H 0.80559 0.47317 0.60571 0.0
H2253 H 0.81131 0.43768 0.63024 0.0
H2254 H 0.75296 0.4646 0.67493 0.0
H2255 H 0.74766 0.50067 0.65117 0.0
H2256 H 0.78631 0.44287 0.70209 0.0
H2257 H 0.78082 0.38962 0.63042 0.0
H2258 H 0.80087 0.40459 0.62251 0.0
H2259 H 0.77265 0.41974 0.62626 0.0
C2260 C 0.79398 0.47169 0.6208 0.0
C2261 C 0.77621 0.48997 0.62649 0.0
C2262 C 0.79713 0.4512 0.63463 0.0
C2263 C 0.78241 0.44833 0.65422 0.0
C2264 C 0.76448 0.46639 0.6598 0.0
H2265 H 0.77227 0.32513 0.73345 0.0
H2266 H 0.76895 0.35848 0.70558 0.0
C2267 C 0.76138 0.48699 0.64606 0.0
C2268 C 0.78626 0.42684 0.66956 0.0
H2269 H 0.79438 0.37065 0.66765 0.0
C2270 C 0.78799 0.42709 0.69457 0.0
C2271 C 0.78828 0.40627 0.65977 0.0
C2272 C 0.78535 0.405 0.63332 0.0
C2273 C 0.79182 0.40734 0.71006 0.0
C2274 C 0.79454 0.38668 0.70014 0.0
C2275 C 0.79264 0.38645 0.67515 0.0
C2276 C 0.79796 0.36533 0.71567 0.0
C2277 C 0.79229 0.40889 0.73699 0.0
C2278 C 0.81583 0.35761 0.73006 0.0
C2279 C 0.81776 0.3385 0.74623 0.0
C2280 C 0.80195 0.32666 0.74807 0.0
C2281 C 0.78474 0.33381 0.73263 0.0
C2282 C 0.78278 0.35293 0.71663 0.0
H2283 H 0.7846 0.42616 0.74227 0.0
H2284 H 0.7838 0.39745 0.74774 0.0
H2285 H 0.8094 0.40401 0.7419 0.0
H2286 H 0.82803 0.36662 0.72918 0.0
H2287 H 0.83127 0.33341 0.75774 0.0
H2288 H 0.25131 0.54349 0.62021 0.0
H2289 H 0.23999 0.5809 0.63409 0.0
H2290 H 0.23095 0.60918 0.56021 0.0
H2291 H 0.24282 0.57161 0.546 0.0
H2292 H 0.2573 0.62647 0.58092 0.0
H2293 H 0.18529 0.62992 0.64417 0.0
H2294 H 0.20619 0.60501 0.65179 0.0
H2295 H 0.19467 0.60881 0.62271 0.0
C2296 C 0.24635 0.55759 0.60692 0.0
C2297 C 0.24817 0.55455 0.58198 0.0
C2298 C 0.23967 0.57904 0.61494 0.0
C2299 C 0.23439 0.59789 0.59823 0.0
C2300 C 0.23484 0.59487 0.57343 0.0
H2301 H 0.21363 0.7179 0.67643 0.0
H2302 H 0.20707 0.69558 0.64563 0.0
C2303 C 0.24157 0.57336 0.56536 0.0
C2304 C 0.23172 0.62036 0.6065 0.0
H2305 H 0.20894 0.65227 0.65347 0.0
C2306 C 0.24629 0.63245 0.59638 0.0
C2307 C 0.21709 0.62852 0.62629 0.0
C2308 C 0.19978 0.61747 0.63664 0.0
C2309 C 0.24798 0.65126 0.60696 0.0
C2310 C 0.23511 0.6578 0.62849 0.0
C2311 C 0.21913 0.64702 0.63722 0.0
C2312 C 0.23977 0.67365 0.64393 0.0
C2313 C 0.26409 0.66342 0.59545 0.0
C2314 C 0.2604 0.66895 0.65289 0.0
C2315 C 0.26417 0.68161 0.67045 0.0
C2316 C 0.24731 0.69909 0.67962 0.0
C2317 C 0.22689 0.7044 0.66986 0.0
C2318 C 0.22314 0.69174 0.65222 0.0
H2319 H 0.26612 0.66234 0.57544 0.0
H2320 H 0.259 0.68131 0.59925 0.0
H2321 H 0.28016 0.65546 0.6028 0.0
H2322 H 0.27332 0.65469 0.64732 0.0
H2323 H 0.27995 0.67679 0.67788 0.0
loop_
_geom_bond_atom_site_label_1
_geom_bond_atom_site_label_2
_geom_bond_distance
_geom_bond_site_symmetry_2
_ccdc_geom_bond_type
Cu0 N1 2.032 . S
Cu0 O6 1.955 1_545 S
Cu0 N11 1.953 1_545 S
Cu0 O20 1.979 . S
N1 Cu0 2.032 . S
N1 C3 1.263 . S
N1 C5 1.389 . S
N2 C3 1.358 . S
N2 C4 1.400 . S
C3 N1 1.263 . S
C3 N2 1.358 . S
C3 H9 0.930 . S
C4 N2 1.400 . S
C4 C5 1.351 . S
C4 H21 0.930 . S
C5 N1 1.389 . S
C5 C4 1.351 . S
C5 H10 0.930 . S
O6 Cu0 1.955 1_565 S
O6 C16 1.282 . S
C7 O8 1.261 1_655 S
C7 O20 1.251 1_655 S
O8 C7 1.261 1_455 S
H9 C3 0.930 . S
H10 C5 0.930 . S
N11 Cu0 1.953 1_565 S
N11 C13 1.335 1_455 S
N11 C14 1.390 . S
N12 C13 1.345 . S
N12 C15 1.336 1_655 S
C13 N11 1.335 1_655 S
C13 N12 1.345 . S
C13 H18 0.930 . S
C14 N11 1.390 . S
C14 C15 1.346 . S
C14 H19 0.930 . S
C15 N12 1.336 1_455 S
C15 C14 1.346 . S
C15 H22 0.929 . S
C16 O6 1.282 . S
C16 O17 1.216 . S
O17 C16 1.216 . S
H18 C13 0.930 . S
H19 C14 0.930 . S
O20 Cu0 1.979 . S
O20 C7 1.251 1_455 S
H21 C4 0.930 . S
H22 C15 0.929 . S
Cu23 N24 1.999 1_455 S
Cu23 O29 1.974 1_455 S
Cu23 N34 1.985 . S
Cu23 O43 1.959 . S
N24 Cu23 1.999 1_655 S
N24 C26 1.263 . S
N24 C28 1.389 1_645 S
N25 C26 1.358 1_565 S
N25 C27 1.400 . S
C26 N24 1.263 . S
C26 N25 1.358 1_545 S
C26 H32 0.930 . S
C27 N25 1.400 . S
C27 C28 1.351 1_655 S
C27 H44 0.930 . S
C28 N24 1.389 1_465 S
C28 C27 1.351 1_455 S
C28 H33 0.930 . S
O29 Cu23 1.974 1_655 S
O29 C39 1.282 . S
C30 O31 1.261 . S
C30 O43 1.251 . S
O31 C30 1.261 . S
H32 C26 0.930 . S
H33 C28 0.930 . S
N34 Cu23 1.985 . S
N34 C36 1.335 . S
N34 C37 1.390 . S
N35 C36 1.345 . S
N35 C38 1.336 . S
C36 N34 1.335 . S
C36 N35 1.345 . S
C36 H41 0.930 . S
C37 N34 1.390 . S
C37 C38 1.346 . S
C37 H42 0.930 . S
C38 N35 1.336 . S
C38 C37 1.346 . S
C38 H45 0.929 . S
C39 O29 1.282 . S
C39 O40 1.216 . S
O40 C39 1.216 . S
H41 C36 0.930 . S
H42 C37 0.930 . S
O43 Cu23 1.959 . S
O43 C30 1.251 . S
H44 C27 0.930 . S
H45 C38 0.929 . S
Cu46 N47 1.999 . S
Cu46 O52 1.974 . S
Cu46 N57 1.985 . S
Cu46 O66 1.959 . S
N47 Cu46 1.999 . S
N47 C49 1.263 1_545 S
N47 C51 1.389 . S
N48 C49 1.358 . S
N48 C50 1.400 . S
C49 N47 1.263 1_565 S
C49 N48 1.358 . S
C49 H55 0.930 . S
C50 N48 1.400 . S
C50 C51 1.351 1_565 S
C50 H67 0.919 1_554 S
C51 N47 1.389 . S
C51 C50 1.351 1_545 S
C51 H56 0.930 . S
O52 Cu46 1.974 . S
O52 C62 1.282 . S
C53 O54 1.261 . S
C53 O66 1.251 . S
O54 C53 1.261 . S
H55 C49 0.930 . S
H56 C51 0.930 . S
N57 Cu46 1.985 . S
N57 C59 1.335 . S
N57 C60 1.390 . S
N58 C59 1.345 . S
N58 C61 1.336 . S
C59 N57 1.335 . S
C59 N58 1.345 . S
C59 H64 0.930 . S
C60 N57 1.390 . S
C60 C61 1.346 . S
C60 H65 0.930 . S
C61 N58 1.336 . S
C61 C60 1.346 . S
C61 H68 0.929 . S
C62 O52 1.282 . S
C62 O63 1.216 . S
O63 C62 1.216 . S
H64 C59 0.930 . S
H65 C60 0.930 . S
O66 Cu46 1.959 . S
O66 C53 1.251 . S
H67 C50 0.919 1_556 S
H68 C61 0.929 . S
Cu69 N70 1.999 . S
Cu69 O75 1.974 . S
Cu69 N80 1.985 . S
Cu69 O89 1.959 . S
N70 Cu69 1.999 . S
N70 C72 1.263 . S
N70 C74 1.389 . S
N71 C72 1.358 . S
N71 C73 1.400 1_554 S
C72 N70 1.263 . S
C72 N71 1.358 . S
C72 H78 0.930 . S
C73 N71 1.400 1_556 S
C73 C74 1.351 1_556 S
C73 H90 0.930 . S
C74 N70 1.389 . S
C74 C73 1.351 1_554 S
C74 H79 0.930 . S
O75 Cu69 1.974 . S
O75 C85 1.282 . S
C76 O77 1.261 . S
C76 O89 1.251 . S
O77 C76 1.261 . S
H78 C72 0.930 . S
H79 C74 0.930 . S
N80 Cu69 1.985 . S
N80 C82 1.335 1_455 S
N80 C83 1.390 . S
N81 C82 1.345 . S
N81 C84 1.336 . S
C82 N80 1.335 1_655 S
C82 N81 1.345 . S
C82 H87 0.930 . S
C83 N80 1.390 . S
C83 C84 1.346 1_455 S
C83 H88 0.930 . S
C84 N81 1.336 . S
C84 C83 1.346 1_655 S
C84 H91 0.929 . S
C85 O75 1.282 . S
C85 O86 1.216 . S
O86 C85 1.216 . S
H87 C82 0.930 . S
H88 C83 0.930 . S
O89 Cu69 1.959 . S
O89 C76 1.251 . S
H90 C73 0.930 . S
H91 C84 0.929 . S
Cu92 N93 1.999 1_554 S
Cu92 O98 1.974 . S
Cu92 N103 1.985 1_545 S
Cu92 O112 1.959 1_544 S
N93 Cu92 1.999 1_556 S
N93 C95 1.263 . S
N93 C97 1.389 . S
N94 C95 1.358 . S
N94 C96 1.400 . S
C95 N93 1.263 . S
C95 N94 1.358 . S
C95 H101 0.930 . S
C96 N94 1.400 . S
C96 C97 1.351 . S
C96 H113 0.930 . S
C97 N93 1.389 . S
C97 C96 1.351 . S
C97 H102 0.930 . S
O98 Cu92 1.974 . S
O98 C108 1.282 . S
C99 O100 1.261 . S
C99 O112 1.251 . S
O100 C99 1.261 . S
H101 C95 0.930 . S
H102 C97 0.930 . S
N103 Cu92 1.985 1_565 S
N103 C105 1.335 . S
N103 C106 1.390 . S
N104 C105 1.345 . S
N104 C107 1.336 . S
C105 N103 1.335 . S
C105 N104 1.345 . S
C105 H110 0.930 . S
C106 N103 1.390 . S
C106 C107 1.346 . S
C106 H111 0.930 . S
C107 N104 1.336 . S
C107 C106 1.346 . S
C107 H114 0.929 . S
C108 O98 1.282 . S
C108 O109 1.216 . S
O109 C108 1.216 . S
H110 C105 0.930 . S
H111 C106 0.930 . S
O112 Cu92 1.959 1_566 S
O112 C99 1.251 . S
H113 C96 0.930 . S
H114 C107 0.929 . S
Cu115 N116 1.999 1_454 S
Cu115 O121 1.974 1_455 S
Cu115 N126 1.985 . S
Cu115 O135 1.959 1_554 S
N116 Cu115 1.999 1_656 S
N116 C118 1.263 . S
N116 C120 1.389 1_655 S
N117 C118 1.358 . S
N117 C119 1.400 . S
C118 N116 1.263 . S
C118 N117 1.358 . S
C118 H124 0.902 1_556 S
C119 N117 1.400 . S
C119 C120 1.351 1_655 S
C119 H136 0.930 . S
C120 N116 1.389 1_455 S
C120 C119 1.351 1_455 S
C120 H125 0.930 . S
O121 Cu115 1.974 1_655 S
O121 C131 1.282 . S
C122 O123 1.261 . S
C122 O135 1.251 . S
O123 C122 1.261 . S
H124 C118 0.902 1_554 S
H125 C120 0.930 . S
N126 Cu115 1.985 . S
N126 C128 1.335 . S
N126 C129 1.390 . S
N127 C128 1.345 . S
N127 C130 1.336 . S
C128 N126 1.335 . S
C128 N127 1.345 . S
C128 H133 0.930 . S
C129 N126 1.390 . S
C129 C130 1.346 . S
C129 H134 0.930 . S
C130 N127 1.336 . S
C130 C129 1.346 . S
C130 H137 0.929 . S
C131 O121 1.282 . S
C131 O132 1.216 . S
O132 C131 1.216 . S
H133 C128 0.930 . S
H134 C129 0.930 . S
O135 Cu115 1.959 1_556 S
O135 C122 1.251 . S
H136 C119 0.930 . S
H137 C130 0.929 . S
Cu138 N139 1.999 . S
Cu138 O144 1.974 . S
Cu138 N149 1.985 . S
Cu138 O158 1.959 . S
N139 Cu138 1.999 . S
N139 C141 1.263 . S
N139 C143 1.389 . S
N140 C141 1.358 . S
N140 C142 1.400 . S
C141 N139 1.263 . S
C141 N140 1.358 . S
C141 H147 0.930 . S
C142 N140 1.400 . S
C142 C143 1.351 . S
C142 H159 0.930 . S
C143 N139 1.389 . S
C143 C142 1.351 . S
C143 H148 0.930 . S
O144 Cu138 1.974 . S
O144 C154 1.282 . S
C145 O146 1.261 . S
C145 O158 1.251 . S
O146 C145 1.261 . S
H147 C141 0.930 . S
H148 C143 0.930 . S
N149 Cu138 1.985 . S
N149 C151 1.335 . S
N149 C152 1.390 . S
N150 C151 1.345 . S
N150 C153 1.336 . S
C151 N149 1.335 . S
C151 N150 1.345 . S
C151 H156 0.930 . S
C152 N149 1.390 . S
C152 C153 1.346 . S
C152 H157 0.930 . S
C153 N150 1.336 . S
C153 C152 1.346 . S
C153 H160 0.929 . S
C154 O144 1.282 . S
C154 O155 1.216 . S
O155 C154 1.216 . S
H156 C151 0.930 . S
H157 C152 0.930 . S
O158 Cu138 1.959 . S
O158 C145 1.251 . S
H159 C142 0.930 . S
H160 C153 0.929 . S
Cu161 N162 1.999 . S
Cu161 O167 1.974 . S
Cu161 N172 1.985 . S
Cu161 O181 1.959 . S
N162 Cu161 1.999 . S
N162 C164 1.263 . S
N162 C166 1.389 . S
N163 C164 1.358 . S
N163 C165 1.400 . S
C164 N162 1.263 . S
C164 N163 1.358 . S
C164 H170 0.930 . S
C165 N163 1.400 . S
C165 C166 1.351 . S
C165 H182 0.930 . S
C166 N162 1.389 . S
C166 C165 1.351 . S
C166 H171 0.930 . S
O167 Cu161 1.974 . S
O167 C177 1.282 . S
C168 O169 1.261 . S
C168 O181 1.251 . S
O169 C168 1.261 . S
H170 C164 0.930 . S
H171 C166 0.930 . S
N172 Cu161 1.985 . S
N172 C174 1.335 . S
N172 C175 1.390 . S
N173 C174 1.345 . S
N173 C176 1.336 . S
C174 N172 1.335 . S
C174 N173 1.345 . S
C174 H179 0.930 . S
C175 N172 1.390 . S
C175 C176 1.346 . S
C175 H180 0.930 . S
C176 N173 1.336 . S
C176 C175 1.346 . S
C176 H183 0.929 . S
C177 O167 1.282 . S
C177 O178 1.216 . S
O178 C177 1.216 . S
H179 C174 0.930 . S
H180 C175 0.930 . S
O181 Cu161 1.959 . S
O181 C168 1.251 . S
H182 C165 0.930 . S
H183 C176 0.929 . S
Cu184 N185 1.999 . S
Cu184 O190 1.974 . S
Cu184 N195 1.985 . S
Cu184 O204 1.959 . S
N185 Cu184 1.999 . S
N185 C187 1.263 . S
N185 C189 1.389 . S
N186 C187 1.358 . S
N186 C188 1.400 . S
C187 N185 1.263 . S
C187 N186 1.358 . S
C187 H193 0.930 . S
C188 N186 1.400 . S
C188 C189 1.351 . S
C188 H205 0.930 . S
C189 N185 1.389 . S
C189 C188 1.351 . S
C189 H194 0.930 . S
O190 Cu184 1.974 . S
O190 C200 1.282 . S
C191 O192 1.261 . S
C191 O204 1.251 . S
O192 C191 1.261 . S
H193 C187 0.930 . S
H194 C189 0.930 . S
N195 Cu184 1.985 . S
N195 C197 1.335 . S
N195 C198 1.390 . S
N196 C197 1.345 . S
N196 C199 1.336 . S
C197 N195 1.335 . S
C197 N196 1.345 . S
C197 H202 0.930 . S
C198 N195 1.390 . S
C198 C199 1.346 . S
C198 H203 0.930 . S
C199 N196 1.336 . S
C199 C198 1.346 . S
C199 H206 0.929 . S
C200 O190 1.282 . S
C200 O201 1.216 . S
O201 C200 1.216 . S
H202 C197 0.930 . S
H203 C198 0.930 . S
O204 Cu184 1.959 . S
O204 C191 1.251 . S
H205 C188 0.930 . S
H206 C199 0.929 . S
Cu207 N208 1.999 . S
Cu207 O213 1.974 . S
Cu207 N218 1.985 . S
Cu207 O227 1.959 . S
N208 Cu207 1.999 . S
N208 C210 1.263 . S
N208 C212 1.389 . S
N209 C210 1.358 . S
N209 C211 1.400 . S
C210 N208 1.263 . S
C210 N209 1.358 . S
C210 H216 0.930 . S
C211 N209 1.400 . S
C211 C212 1.351 . S
C211 H228 0.930 . S
C212 N208 1.389 . S
C212 C211 1.351 . S
C212 H217 0.930 . S
O213 Cu207 1.974 . S
O213 C223 1.282 . S
C214 O215 1.261 . S
C214 O227 1.251 . S
O215 C214 1.261 . S
H216 C210 0.930 . S
H217 C212 0.930 . S
N218 Cu207 1.985 . S
N218 C220 1.335 . S
N218 C221 1.390 . S
N219 C220 1.345 . S
N219 C222 1.336 . S
C220 N218 1.335 . S
C220 N219 1.345 . S
C220 H225 0.930 . S
C221 N218 1.390 . S
C221 C222 1.346 . S
C221 H226 0.930 . S
C222 N219 1.336 . S
C222 C221 1.346 . S
C222 H229 0.929 . S
C223 O213 1.282 . S
C223 O224 1.216 . S
O224 C223 1.216 . S
H225 C220 0.930 . S
H226 C221 0.930 . S
O227 Cu207 1.959 . S
O227 C214 1.251 . S
H228 C211 0.930 . S
H229 C222 0.929 . S
Cu230 N231 1.999 . S
Cu230 O236 1.974 . S
Cu230 N241 1.985 . S
Cu230 O250 1.959 . S
N231 Cu230 1.999 . S
N231 C233 1.263 . S
N231 C235 1.389 . S
N232 C233 1.358 . S
N232 C234 1.400 . S
C233 N231 1.263 . S
C233 N232 1.358 . S
C233 H239 0.930 . S
C234 N232 1.400 . S
C234 C235 1.351 . S
C234 H251 0.930 . S
C235 N231 1.389 . S
C235 C234 1.351 . S
C235 H240 0.930 . S
O236 Cu230 1.974 . S
O236 C246 1.282 . S
C237 O238 1.261 . S
C237 O250 1.251 . S
O238 C237 1.261 . S
H239 C233 0.930 . S
H240 C235 0.930 . S
N241 Cu230 1.985 . S
N241 C243 1.335 . S
N241 C244 1.390 . S
N242 C243 1.345 . S
N242 C245 1.336 . S
C243 N241 1.335 . S
C243 N242 1.345 . S
C243 H248 0.930 . S
C244 N241 1.390 . S
C244 C245 1.346 . S
C244 H249 0.930 . S
C245 N242 1.336 . S
C245 C244 1.346 . S
C245 H252 0.929 . S
C246 O236 1.282 . S
C246 O247 1.216 . S
O247 C246 1.216 . S
H248 C243 0.930 . S
H249 C244 0.930 . S
O250 Cu230 1.959 . S
O250 C237 1.251 . S
H251 C234 0.930 . S
H252 C245 0.929 . S
Cu253 N254 1.999 . S
Cu253 O259 1.974 . S
Cu253 N264 1.985 . S
Cu253 O273 1.959 . S
N254 Cu253 1.999 . S
N254 C256 1.263 . S
N254 C258 1.389 . S
N255 C256 1.358 . S
N255 C257 1.400 . S
C256 N254 1.263 . S
C256 N255 1.358 . S
C256 H262 0.930 . S
C257 N255 1.400 . S
C257 C258 1.351 . S
C257 H274 0.930 . S
C258 N254 1.389 . S
C258 C257 1.351 . S
C258 H263 0.930 . S
O259 Cu253 1.974 . S
O259 C269 1.282 . S
C260 O261 1.261 . S
C260 O273 1.251 . S
O261 C260 1.261 . S
H262 C256 0.930 . S
H263 C258 0.930 . S
N264 Cu253 1.985 . S
N264 C266 1.335 . S
N264 C267 1.390 . S
N265 C266 1.345 . S
N265 C268 1.336 . S
C266 N264 1.335 . S
C266 N265 1.345 . S
C266 H271 0.930 . S
C267 N264 1.390 . S
C267 C268 1.346 . S
C267 H272 0.930 . S
C268 N265 1.336 . S
C268 C267 1.346 . S
C268 H275 0.929 . S
C269 O259 1.282 . S
C269 O270 1.216 . S
O270 C269 1.216 . S
H271 C266 0.930 . S
H272 C267 0.930 . S
O273 Cu253 1.959 . S
O273 C260 1.251 . S
H274 C257 0.930 . S
H275 C268 0.929 . S
La276 C278 2.928 . S
La276 O296 2.521 . S
La276 O297 2.628 . S
La276 O298 2.554 . S
La276 O299 2.757 . S
La276 O300 2.470 . S
La276 O305 2.482 . S
La276 O307 2.503 . S
La277 C287 2.928 . S
La277 O299 2.482 . S
La277 O301 2.503 . S
La277 O302 2.521 . S
La277 O303 2.628 . S
La277 O304 2.554 . S
La277 O305 2.757 . S
La277 O306 2.470 . S
C278 La276 2.928 . S
C278 C279 1.503 . S
C278 O296 1.261 . S
C278 O297 1.243 . S
C279 C278 1.503 . S
C279 C280 1.394 . S
C279 C284 1.373 . S
C280 C279 1.394 . S
C280 C281 1.380 . S
C280 H308 0.930 . S
C281 C280 1.380 . S
C281 C282 1.376 . S
C281 H309 0.930 . S
C282 C281 1.376 . S
C282 C283 1.370 . S
C283 C282 1.370 . S
C283 C284 1.396 . S
C283 H310 0.929 . S
C284 C279 1.373 . S
C284 C283 1.396 . S
C284 H311 0.929 . S
C285 O298 1.240 . S
C285 O299 1.289 . S
C286 O300 1.258 . S
C286 O301 1.256 . S
C287 La277 2.928 . S
C287 C288 1.503 . S
C287 O302 1.261 . S
C287 O303 1.243 . S
C288 C287 1.503 . S
C288 C289 1.394 . S
C288 C293 1.373 . S
C289 C288 1.394 . S
C289 C290 1.380 . S
C289 H312 0.930 . S
C290 C289 1.380 . S
C290 C291 1.376 . S
C290 H313 0.930 . S
C291 C290 1.376 . S
C291 C292 1.370 . S
C292 C291 1.370 . S
C292 C293 1.396 . S
C292 H314 0.929 . S
C293 C288 1.373 . S
C293 C292 1.396 . S
C293 H315 0.929 . S
C294 O304 1.240 . S
C294 O305 1.289 . S
C295 O306 1.258 . S
C295 O307 1.256 . S
O296 La276 2.521 . S
O296 C278 1.261 . S
O297 La276 2.628 . S
O297 C278 1.243 . S
O298 La276 2.554 . S
O298 C285 1.240 . S
O299 La276 2.757 . S
O299 La277 2.482 . S
O299 C285 1.289 . S
O300 La276 2.470 . S
O300 C286 1.258 . S
O301 La277 2.503 . S
O301 C286 1.256 . S
O302 La277 2.521 . S
O302 C287 1.261 . S
O303 La277 2.628 . S
O303 C287 1.243 . S
O304 La277 2.554 . S
O304 C294 1.240 . S
O305 La276 2.482 . S
O305 La277 2.757 . S
O305 C294 1.289 . S
O306 La277 2.470 . S
O306 C295 1.258 . S
O307 La276 2.503 . S
O307 C295 1.256 . S
H308 C280 0.930 . S
H309 C281 0.930 . S
H310 C283 0.929 . S
H311 C284 0.929 . S
H312 C289 0.930 . S
H313 C290 0.930 . S
H314 C292 0.929 . S
H315 C293 0.929 . S
La316 C318 2.928 . S
La316 O336 2.521 . S
La316 O337 2.628 . S
La316 O338 2.554 . S
La316 O339 2.757 . S
La316 O340 2.470 . S
La316 O345 2.482 . S
La316 O347 2.503 . S
La317 C327 2.928 . S
La317 O339 2.482 . S
La317 O341 2.503 . S
La317 O342 2.521 . S
La317 O343 2.628 . S
La317 O344 2.554 . S
La317 O345 2.757 . S
La317 O346 2.470 . S
C318 La316 2.928 . S
C318 C319 1.503 . S
C318 O336 1.261 . S
C318 O337 1.243 . S
C319 C318 1.503 . S
C319 C320 1.394 . S
C319 C324 1.373 . S
C320 C319 1.394 . S
C320 C321 1.380 . S
C320 H348 0.930 . S
C321 C320 1.380 . S
C321 C322 1.376 . S
C321 H349 0.930 . S
C322 C321 1.376 . S
C322 C323 1.370 . S
C323 C322 1.370 . S
C323 C324 1.396 . S
C323 H350 0.929 . S
C324 C319 1.373 . S
C324 C323 1.396 . S
C324 H351 0.929 . S
C325 O338 1.240 . S
C325 O339 1.289 . S
C326 O340 1.258 . S
C326 O341 1.256 . S
C327 La317 2.928 . S
C327 C328 1.503 . S
C327 O342 1.261 . S
C327 O343 1.243 . S
C328 C327 1.503 . S
C328 C329 1.394 . S
C328 C333 1.373 . S
C329 C328 1.394 . S
C329 C330 1.380 . S
C329 H352 0.930 . S
C330 C329 1.380 . S
C330 C331 1.376 . S
C330 H353 0.930 . S
C331 C330 1.376 . S
C331 C332 1.370 . S
C332 C331 1.370 . S
C332 C333 1.396 . S
C332 H354 0.929 . S
C333 C328 1.373 . S
C333 C332 1.396 . S
C333 H355 0.929 . S
C334 O344 1.240 . S
C334 O345 1.289 . S
C335 O346 1.258 . S
C335 O347 1.256 . S
O336 La316 2.521 . S
O336 C318 1.261 . S
O337 La316 2.628 . S
O337 C318 1.243 . S
O338 La316 2.554 . S
O338 C325 1.240 . S
O339 La316 2.757 . S
O339 La317 2.482 . S
O339 C325 1.289 . S
O340 La316 2.470 . S
O340 C326 1.258 . S
O341 La317 2.503 . S
O341 C326 1.256 . S
O342 La317 2.521 . S
O342 C327 1.261 . S
O343 La317 2.628 . S
O343 C327 1.243 . S
O344 La317 2.554 . S
O344 C334 1.240 . S
O345 La316 2.482 . S
O345 La317 2.757 . S
O345 C334 1.289 . S
O346 La317 2.470 . S
O346 C335 1.258 . S
O347 La316 2.503 . S
O347 C335 1.256 . S
H348 C320 0.930 . S
H349 C321 0.930 . S
H350 C323 0.929 . S
H351 C324 0.929 . S
H352 C329 0.930 . S
H353 C330 0.930 . S
H354 C332 0.929 . S
H355 C333 0.929 . S
La356 C358 2.928 . S
La356 O376 2.521 . S
La356 O377 2.628 . S
La356 O378 2.554 . S
La356 O379 2.757 . S
La356 O380 2.470 . S
La356 O385 2.482 . S
La356 O387 2.503 . S
La357 C367 2.928 . S
La357 O379 2.482 . S
La357 O381 2.503 . S
La357 O382 2.521 . S
La357 O383 2.628 . S
La357 O384 2.554 . S
La357 O385 2.757 . S
La357 O386 2.470 . S
C358 La356 2.928 . S
C358 C359 1.503 . S
C358 O376 1.261 . S
C358 O377 1.243 . S
C359 C358 1.503 . S
C359 C360 1.394 . S
C359 C364 1.373 . S
C360 C359 1.394 . S
C360 C361 1.380 . S
C360 H388 0.930 . S
C361 C360 1.380 . S
C361 C362 1.376 . S
C361 H389 0.930 . S
C362 C361 1.376 . S
C362 C363 1.370 . S
C363 C362 1.370 . S
C363 C364 1.396 . S
C363 H390 0.929 . S
C364 C359 1.373 . S
C364 C363 1.396 . S
C364 H391 0.929 . S
C365 O378 1.240 . S
C365 O379 1.289 . S
C366 O380 1.258 . S
C366 O381 1.256 . S
C367 La357 2.928 . S
C367 C368 1.503 . S
C367 O382 1.261 . S
C367 O383 1.243 . S
C368 C367 1.503 . S
C368 C369 1.394 . S
C368 C373 1.373 . S
C369 C368 1.394 . S
C369 C370 1.380 . S
C369 H392 0.930 . S
C370 C369 1.380 . S
C370 C371 1.376 . S
C370 H393 0.930 . S
C371 C370 1.376 . S
C371 C372 1.370 . S
C372 C371 1.370 . S
C372 C373 1.396 . S
C372 H394 0.929 . S
C373 C368 1.373 . S
C373 C372 1.396 . S
C373 H395 0.929 . S
C374 O384 1.240 . S
C374 O385 1.289 . S
C375 O386 1.258 . S
C375 O387 1.256 . S
O376 La356 2.521 . S
O376 C358 1.261 . S
O377 La356 2.628 . S
O377 C358 1.243 . S
O378 La356 2.554 . S
O378 C365 1.240 . S
O379 La356 2.757 . S
O379 La357 2.482 . S
O379 C365 1.289 . S
O380 La356 2.470 . S
O380 C366 1.258 . S
O381 La357 2.503 . S
O381 C366 1.256 . S
O382 La357 2.521 . S
O382 C367 1.261 . S
O383 La357 2.628 . S
O383 C367 1.243 . S
O384 La357 2.554 . S
O384 C374 1.240 . S
O385 La356 2.482 . S
O385 La357 2.757 . S
O385 C374 1.289 . S
O386 La357 2.470 . S
O386 C375 1.258 . S
O387 La356 2.503 . S
O387 C375 1.256 . S
H388 C360 0.930 . S
H389 C361 0.930 . S
H390 C363 0.929 . S
H391 C364 0.929 . S
H392 C369 0.930 . S
H393 C370 0.930 . S
H394 C372 0.929 . S
H395 C373 0.929 . S
La396 C398 2.928 . S
La396 O416 2.521 . S
La396 O417 2.628 . S
La396 O418 2.554 . S
La396 O419 2.757 . S
La396 O420 2.470 . S
La396 O425 2.482 . S
La396 O427 2.503 . S
La397 C407 2.928 . S
La397 O419 2.482 . S
La397 O421 2.503 . S
La397 O422 2.521 . S
La397 O423 2.628 . S
La397 O424 2.554 . S
La397 O425 2.757 . S
La397 O426 2.470 . S
C398 La396 2.928 . S
C398 C399 1.503 . S
C398 O416 1.261 . S
C398 O417 1.243 . S
C399 C398 1.503 . S
C399 C400 1.394 . S
C399 C404 1.373 . S
C400 C399 1.394 . S
C400 C401 1.380 . S
C400 H428 0.930 . S
C401 C400 1.380 . S
C401 C402 1.376 . S
C401 H429 0.930 . S
C402 C401 1.376 . S
C402 C403 1.370 . S
C403 C402 1.370 . S
C403 C404 1.396 . S
C403 H430 0.929 . S
C404 C399 1.373 . S
C404 C403 1.396 . S
C404 H431 0.929 . S
C405 O418 1.240 . S
C405 O419 1.289 . S
C406 O420 1.258 . S
C406 O421 1.256 . S
C407 La397 2.928 . S
C407 C408 1.503 . S
C407 O422 1.261 . S
C407 O423 1.243 . S
C408 C407 1.503 . S
C408 C409 1.394 . S
C408 C413 1.373 . S
C409 C408 1.394 . S
C409 C410 1.380 . S
C409 H432 0.930 . S
C410 C409 1.380 . S
C410 C411 1.376 . S
C410 H433 0.930 . S
C411 C410 1.376 . S
C411 C412 1.370 . S
C412 C411 1.370 . S
C412 C413 1.396 . S
C412 H434 0.929 . S
C413 C408 1.373 . S
C413 C412 1.396 . S
C413 H435 0.929 . S
C414 O424 1.240 . S
C414 O425 1.289 . S
C415 O426 1.258 . S
C415 O427 1.256 . S
O416 La396 2.521 . S
O416 C398 1.261 . S
O417 La396 2.628 . S
O417 C398 1.243 . S
O418 La396 2.554 . S
O418 C405 1.240 . S
O419 La396 2.757 . S
O419 La397 2.482 . S
O419 C405 1.289 . S
O420 La396 2.470 . S
O420 C406 1.258 . S
O421 La397 2.503 . S
O421 C406 1.256 . S
O422 La397 2.521 . S
O422 C407 1.261 . S
O423 La397 2.628 . S
O423 C407 1.243 . S
O424 La397 2.554 . S
O424 C414 1.240 . S
O425 La396 2.482 . S
O425 La397 2.757 . S
O425 C414 1.289 . S
O426 La397 2.470 . S
O426 C415 1.258 . S
O427 La396 2.503 . S
O427 C415 1.256 . S
H428 C400 0.930 . S
H429 C401 0.930 . S
H430 C403 0.929 . S
H431 C404 0.929 . S
H432 C409 0.930 . S
H433 C410 0.930 . S
H434 C412 0.929 . S
H435 C413 0.929 . S
La436 C438 2.928 . S
La436 O456 2.521 . S
La436 O457 2.628 . S
La436 O458 2.554 . S
La436 O459 2.757 . S
La436 O460 2.470 . S
La436 O465 2.482 . S
La436 O467 2.503 . S
La437 C447 2.928 . S
La437 O459 2.482 . S
La437 O461 2.503 . S
La437 O462 2.521 . S
La437 O463 2.628 . S
La437 O464 2.554 . S
La437 O465 2.757 . S
La437 O466 2.470 . S
C438 La436 2.928 . S
C438 C439 1.503 . S
C438 O456 1.261 . S
C438 O457 1.243 . S
C439 C438 1.503 . S
C439 C440 1.394 . S
C439 C444 1.373 . S
C440 C439 1.394 . S
C440 C441 1.380 . S
C440 H468 0.930 . S
C441 C440 1.380 . S
C441 C442 1.376 . S
C441 H469 0.930 . S
C442 C441 1.376 . S
C442 C443 1.370 . S
C443 C442 1.370 . S
C443 C444 1.396 . S
C443 H470 0.929 . S
C444 C439 1.373 . S
C444 C443 1.396 . S
C444 H471 0.929 . S
C445 O458 1.240 . S
C445 O459 1.289 . S
C446 O460 1.258 . S
C446 O461 1.256 . S
C447 La437 2.928 . S
C447 C448 1.503 . S
C447 O462 1.261 . S
C447 O463 1.243 . S
C448 C447 1.503 . S
C448 C449 1.394 . S
C448 C453 1.373 . S
C449 C448 1.394 . S
C449 C450 1.380 . S
C449 H472 0.930 . S
C450 C449 1.380 . S
C450 C451 1.376 . S
C450 H473 0.930 . S
C451 C450 1.376 . S
C451 C452 1.370 . S
C452 C451 1.370 . S
C452 C453 1.396 . S
C452 H474 0.929 . S
C453 C448 1.373 . S
C453 C452 1.396 . S
C453 H475 0.929 . S
C454 O464 1.240 . S
C454 O465 1.289 . S
C455 O466 1.258 . S
C455 O467 1.256 . S
O456 La436 2.521 . S
O456 C438 1.261 . S
O457 La436 2.628 . S
O457 C438 1.243 . S
O458 La436 2.554 . S
O458 C445 1.240 . S
O459 La436 2.757 . S
O459 La437 2.482 . S
O459 C445 1.289 . S
O460 La436 2.470 . S
O460 C446 1.258 . S
O461 La437 2.503 . S
O461 C446 1.256 . S
O462 La437 2.521 . S
O462 C447 1.261 . S
O463 La437 2.628 . S
O463 C447 1.243 . S
O464 La437 2.554 . S
O464 C454 1.240 . S
O465 La436 2.482 . S
O465 La437 2.757 . S
O465 C454 1.289 . S
O466 La437 2.470 . S
O466 C455 1.258 . S
O467 La436 2.503 . S
O467 C455 1.256 . S
H468 C440 0.930 . S
H469 C441 0.930 . S
H470 C443 0.929 . S
H471 C444 0.929 . S
H472 C449 0.930 . S
H473 C450 0.930 . S
H474 C452 0.929 . S
H475 C453 0.929 . S
La476 C478 2.928 . S
La476 O496 2.521 . S
La476 O497 2.628 . S
La476 O498 2.554 . S
La476 O499 2.757 . S
La476 O500 2.470 . S
La476 O505 2.482 . S
La476 O507 2.503 . S
La477 C487 2.928 . S
La477 O499 2.482 . S
La477 O501 2.503 . S
La477 O502 2.521 . S
La477 O503 2.628 . S
La477 O504 2.554 . S
La477 O505 2.757 . S
La477 O506 2.470 . S
C478 La476 2.928 . S
C478 C479 1.503 . S
C478 O496 1.261 . S
C478 O497 1.243 . S
C479 C478 1.503 . S
C479 C480 1.394 . S
C479 C484 1.373 . S
C480 C479 1.394 . S
C480 C481 1.380 . S
C480 H508 0.930 . S
C481 C480 1.380 . S
C481 C482 1.376 . S
C481 H509 0.930 . S
C482 C481 1.376 . S
C482 C483 1.370 . S
C483 C482 1.370 . S
C483 C484 1.396 . S
C483 H510 0.929 . S
C484 C479 1.373 . S
C484 C483 1.396 . S
C484 H511 0.929 . S
C485 O498 1.240 . S
C485 O499 1.289 . S
C486 O500 1.258 . S
C486 O501 1.256 . S
C487 La477 2.928 . S
C487 C488 1.503 . S
C487 O502 1.261 . S
C487 O503 1.243 . S
C488 C487 1.503 . S
C488 C489 1.394 . S
C488 C493 1.373 . S
C489 C488 1.394 . S
C489 C490 1.380 . S
C489 H512 0.930 . S
C490 C489 1.380 . S
C490 C491 1.376 . S
C490 H513 0.930 . S
C491 C490 1.376 . S
C491 C492 1.370 . S
C492 C491 1.370 . S
C492 C493 1.396 . S
C492 H514 0.929 . S
C493 C488 1.373 . S
C493 C492 1.396 . S
C493 H515 0.929 . S
C494 O504 1.240 . S
C494 O505 1.289 . S
C495 O506 1.258 . S
C495 O507 1.256 . S
O496 La476 2.521 . S
O496 C478 1.261 . S
O497 La476 2.628 . S
O497 C478 1.243 . S
O498 La476 2.554 . S
O498 C485 1.240 . S
O499 La476 2.757 . S
O499 La477 2.482 . S
O499 C485 1.289 . S
O500 La476 2.470 . S
O500 C486 1.258 . S
O501 La477 2.503 . S
O501 C486 1.256 . S
O502 La477 2.521 . S
O502 C487 1.261 . S
O503 La477 2.628 . S
O503 C487 1.243 . S
O504 La477 2.554 . S
O504 C494 1.240 . S
O505 La476 2.482 . S
O505 La477 2.757 . S
O505 C494 1.289 . S
O506 La477 2.470 . S
O506 C495 1.258 . S
O507 La476 2.503 . S
O507 C495 1.256 . S
H508 C480 0.930 . S
H509 C481 0.930 . S
H510 C483 0.929 . S
H511 C484 0.929 . S
H512 C489 0.930 . S
H513 C490 0.930 . S
H514 C492 0.929 . S
H515 C493 0.929 . S
La516 C518 2.928 . S
La516 O536 2.521 . S
La516 O537 2.628 . S
La516 O538 2.554 . S
La516 O539 2.757 . S
La516 O540 2.470 . S
La516 O545 2.482 . S
La516 O547 2.503 . S
La517 C527 2.928 . S
La517 O539 2.482 . S
La517 O541 2.503 . S
La517 O542 2.521 . S
La517 O543 2.628 . S
La517 O544 2.554 . S
La517 O545 2.757 . S
La517 O546 2.470 . S
C518 La516 2.928 . S
C518 C519 1.503 . S
C518 O536 1.261 . S
C518 O537 1.243 . S
C519 C518 1.503 . S
C519 C520 1.394 . S
C519 C524 1.373 . S
C520 C519 1.394 . S
C520 C521 1.380 . S
C520 H548 0.930 . S
C521 C520 1.380 . S
C521 C522 1.376 . S
C521 H549 0.930 . S
C522 C521 1.376 . S
C522 C523 1.370 . S
C523 C522 1.370 . S
C523 C524 1.396 . S
C523 H550 0.929 . S
C524 C519 1.373 . S
C524 C523 1.396 . S
C524 H551 0.929 . S
C525 O538 1.240 . S
C525 O539 1.289 . S
C526 O540 1.258 . S
C526 O541 1.256 . S
C527 La517 2.928 . S
C527 C528 1.503 . S
C527 O542 1.261 . S
C527 O543 1.243 . S
C528 C527 1.503 . S
C528 C529 1.394 . S
C528 C533 1.373 . S
C529 C528 1.394 . S
C529 C530 1.380 . S
C529 H552 0.930 . S
C530 C529 1.380 . S
C530 C531 1.376 . S
C530 H553 0.930 . S
C531 C530 1.376 . S
C531 C532 1.370 . S
C532 C531 1.370 . S
C532 C533 1.396 . S
C532 H554 0.929 . S
C533 C528 1.373 . S
C533 C532 1.396 . S
C533 H555 0.929 . S
C534 O544 1.240 . S
C534 O545 1.289 . S
C535 O546 1.258 . S
C535 O547 1.256 . S
O536 La516 2.521 . S
O536 C518 1.261 . S
O537 La516 2.628 . S
O537 C518 1.243 . S
O538 La516 2.554 . S
O538 C525 1.240 . S
O539 La516 2.757 . S
O539 La517 2.482 . S
O539 C525 1.289 . S
O540 La516 2.470 . S
O540 C526 1.258 . S
O541 La517 2.503 . S
O541 C526 1.256 . S
O542 La517 2.521 . S
O542 C527 1.261 . S
O543 La517 2.628 . S
O543 C527 1.243 . S
O544 La517 2.554 . S
O544 C534 1.240 . S
O545 La516 2.482 . S
O545 La517 2.757 . S
O545 C534 1.289 . S
O546 La517 2.470 . S
O546 C535 1.258 . S
O547 La516 2.503 . S
O547 C535 1.256 . S
H548 C520 0.930 . S
H549 C521 0.930 . S
H550 C523 0.929 . S
H551 C524 0.929 . S
H552 C529 0.930 . S
H553 C530 0.930 . S
H554 C532 0.929 . S
H555 C533 0.929 . S
La556 C558 2.928 . S
La556 O576 2.521 . S
La556 O577 2.628 . S
La556 O578 2.554 . S
La556 O579 2.757 . S
La556 O580 2.470 . S
La556 O585 2.482 . S
La556 O587 2.503 . S
La557 C567 2.928 . S
La557 O579 2.482 . S
La557 O581 2.503 . S
La557 O582 2.521 . S
La557 O583 2.628 . S
La557 O584 2.554 . S
La557 O585 2.757 . S
La557 O586 2.470 . S
C558 La556 2.928 . S
C558 C559 1.503 . S
C558 O576 1.261 . S
C558 O577 1.243 . S
C559 C558 1.503 . S
C559 C560 1.394 . S
C559 C564 1.373 . S
C560 C559 1.394 . S
C560 C561 1.380 . S
C560 H588 0.930 . S
C561 C560 1.380 . S
C561 C562 1.376 . S
C561 H589 0.930 . S
C562 C561 1.376 . S
C562 C563 1.370 . S
C563 C562 1.370 . S
C563 C564 1.396 . S
C563 H590 0.929 . S
C564 C559 1.373 . S
C564 C563 1.396 . S
C564 H591 0.929 . S
C565 O578 1.240 . S
C565 O579 1.289 . S
C566 O580 1.258 . S
C566 O581 1.256 . S
C567 La557 2.928 . S
C567 C568 1.503 . S
C567 O582 1.261 . S
C567 O583 1.243 . S
C568 C567 1.503 . S
C568 C569 1.394 . S
C568 C573 1.373 . S
C569 C568 1.394 . S
C569 C570 1.380 . S
C569 H592 0.930 . S
C570 C569 1.380 . S
C570 C571 1.376 . S
C570 H593 0.930 . S
C571 C570 1.376 . S
C571 C572 1.370 . S
C572 C571 1.370 . S
C572 C573 1.396 . S
C572 H594 0.929 . S
C573 C568 1.373 . S
C573 C572 1.396 . S
C573 H595 0.929 . S
C574 O584 1.240 . S
C574 O585 1.289 . S
C575 O586 1.258 . S
C575 O587 1.256 . S
O576 La556 2.521 . S
O576 C558 1.261 . S
O577 La556 2.628 . S
O577 C558 1.243 . S
O578 La556 2.554 . S
O578 C565 1.240 . S
O579 La556 2.757 . S
O579 La557 2.482 . S
O579 C565 1.289 . S
O580 La556 2.470 . S
O580 C566 1.258 . S
O581 La557 2.503 . S
O581 C566 1.256 . S
O582 La557 2.521 . S
O582 C567 1.261 . S
O583 La557 2.628 . S
O583 C567 1.243 . S
O584 La557 2.554 . S
O584 C574 1.240 . S
O585 La556 2.482 . S
O585 La557 2.757 . S
O585 C574 1.289 . S
O586 La557 2.470 . S
O586 C575 1.258 . S
O587 La556 2.503 . S
O587 C575 1.256 . S
H588 C560 0.930 . S
H589 C561 0.930 . S
H590 C563 0.929 . S
H591 C564 0.929 . S
H592 C569 0.930 . S
H593 C570 0.930 . S
H594 C572 0.929 . S
H595 C573 0.929 . S
H596 C604 0.929 . S
H597 C606 0.930 . S
H598 C608 0.930 . S
H599 C611 0.929 . S
H600 C614 0.930 . S
H601 C616 0.960 . S
H602 C616 0.960 . S
H603 C616 0.960 . S
C604 H596 0.929 . S
C604 C605 1.377 . S
C604 C606 1.384 . S
C605 C604 1.377 . S
C605 C611 1.390 . S
C606 H597 0.930 . S
C606 C604 1.384 . S
C606 C607 1.372 . S
C607 C606 1.372 . S
C607 C608 1.400 . S
C607 C612 1.490 . S
C608 H598 0.930 . S
C608 C607 1.400 . S
C608 C611 1.386 . S
H609 C625 0.930 . S
H610 C626 0.931 . S
C611 H599 0.929 . S
C611 C605 1.390 . S
C611 C608 1.386 . S
C612 C607 1.490 . S
C612 C614 1.395 . S
C612 C615 1.403 . S
H613 C619 0.930 . S
C614 H600 0.930 . S
C614 C612 1.395 . S
C614 C617 1.403 . S
C615 C612 1.403 . S
C615 C616 1.524 . S
C615 C619 1.400 . S
C616 H601 0.960 . S
C616 H602 0.960 . S
C616 H603 0.960 . S
C616 C615 1.524 . S
C617 C614 1.403 . S
C617 C618 1.392 . S
C617 C621 1.495 . S
C618 C617 1.392 . S
C618 C619 1.385 . S
C618 C620 1.478 . S
C619 H613 0.930 . S
C619 C615 1.400 . S
C619 C618 1.385 . S
C620 C618 1.478 . S
C620 C622 1.381 . S
C620 C626 1.383 . S
C621 C617 1.495 . S
C621 H627 0.959 . S
C621 H628 0.961 . S
C621 H629 0.960 . S
C622 C620 1.381 . S
C622 C623 1.394 . S
C622 H630 0.930 . S
C623 C622 1.394 . S
C623 C624 1.383 . S
C623 H631 0.929 . S
C624 C623 1.383 . S
C624 C625 1.377 . S
C625 H609 0.930 . S
C625 C624 1.377 . S
C625 C626 1.379 . S
C626 H610 0.931 . S
C626 C620 1.383 . S
C626 C625 1.379 . S
H627 C621 0.959 . S
H628 C621 0.961 . S
H629 C621 0.960 . S
H630 C622 0.930 . S
H631 C623 0.929 . S
H632 C640 0.929 . S
H633 C642 0.930 . S
H634 C644 0.930 . S
H635 C647 0.929 . S
H636 C650 0.930 . S
H637 C652 0.960 . S
H638 C652 0.960 . S
H639 C652 0.960 . S
C640 H632 0.929 . S
C640 C641 1.377 . S
C640 C642 1.384 . S
C641 C640 1.377 . S
C641 C647 1.390 . S
C642 H633 0.930 . S
C642 C640 1.384 . S
C642 C643 1.372 . S
C643 C642 1.372 . S
C643 C644 1.400 . S
C643 C648 1.490 . S
C644 H634 0.930 . S
C644 C643 1.400 . S
C644 C647 1.386 . S
H645 C661 0.930 . S
H646 C662 0.931 . S
C647 H635 0.929 . S
C647 C641 1.390 . S
C647 C644 1.386 . S
C648 C643 1.490 . S
C648 C650 1.395 . S
C648 C651 1.403 . S
H649 C655 0.930 . S
C650 H636 0.930 . S
C650 C648 1.395 . S
C650 C653 1.403 . S
C651 C648 1.403 . S
C651 C652 1.524 . S
C651 C655 1.400 . S
C652 H637 0.960 . S
C652 H638 0.960 . S
C652 H639 0.960 . S
C652 C651 1.524 . S
C653 C650 1.403 . S
C653 C654 1.392 . S
C653 C657 1.495 . S
C654 C653 1.392 . S
C654 C655 1.385 . S
C654 C656 1.478 . S
C655 H649 0.930 . S
C655 C651 1.400 . S
C655 C654 1.385 . S
C656 C654 1.478 . S
C656 C658 1.381 . S
C656 C662 1.383 . S
C657 C653 1.495 . S
C657 H663 0.959 . S
C657 H664 0.961 . S
C657 H665 0.960 . S
C658 C656 1.381 . S
C658 C659 1.394 . S
C658 H666 0.930 . S
C659 C658 1.394 . S
C659 C660 1.383 . S
C659 H667 0.929 . S
C660 C659 1.383 . S
C660 C661 1.377 . S
C661 H645 0.930 . S
C661 C660 1.377 . S
C661 C662 1.379 . S
C662 H646 0.931 . S
C662 C656 1.383 . S
C662 C661 1.379 . S
H663 C657 0.959 . S
H664 C657 0.961 . S
H665 C657 0.960 . S
H666 C658 0.930 . S
H667 C659 0.929 . S
H668 C676 0.929 . S
H669 C678 0.930 . S
H670 C680 0.930 . S
H671 C683 0.929 . S
H672 C686 0.930 . S
H673 C688 0.960 . S
H674 C688 0.960 . S
H675 C688 0.960 . S
C676 H668 0.929 . S
C676 C677 1.377 . S
C676 C678 1.384 . S
C677 C676 1.377 . S
C677 C683 1.390 . S
C678 H669 0.930 . S
C678 C676 1.384 . S
C678 C679 1.372 . S
C679 C678 1.372 . S
C679 C680 1.400 . S
C679 C684 1.490 . S
C680 H670 0.930 . S
C680 C679 1.400 . S
C680 C683 1.386 . S
H681 C697 0.930 . S
H682 C698 0.931 . S
C683 H671 0.929 . S
C683 C677 1.390 . S
C683 C680 1.386 . S
C684 C679 1.490 . S
C684 C686 1.395 . S
C684 C687 1.403 . S
H685 C691 0.930 . S
C686 H672 0.930 . S
C686 C684 1.395 . S
C686 C689 1.403 . S
C687 C684 1.403 . S
C687 C688 1.524 . S
C687 C691 1.400 . S
C688 H673 0.960 . S
C688 H674 0.960 . S
C688 H675 0.960 . S
C688 C687 1.524 . S
C689 C686 1.403 . S
C689 C690 1.392 . S
C689 C693 1.495 . S
C690 C689 1.392 . S
C690 C691 1.385 . S
C690 C692 1.478 . S
C691 H685 0.930 . S
C691 C687 1.400 . S
C691 C690 1.385 . S
C692 C690 1.478 . S
C692 C694 1.381 . S
C692 C698 1.383 . S
C693 C689 1.495 . S
C693 H699 0.959 . S
C693 H700 0.961 . S
C693 H701 0.960 . S
C694 C692 1.381 . S
C694 C695 1.394 . S
C694 H702 0.930 . S
C695 C694 1.394 . S
C695 C696 1.383 . S
C695 H703 0.929 . S
C696 C695 1.383 . S
C696 C697 1.377 . S
C697 H681 0.930 . S
C697 C696 1.377 . S
C697 C698 1.379 . S
C698 H682 0.931 . S
C698 C692 1.383 . S
C698 C697 1.379 . S
H699 C693 0.959 . S
H700 C693 0.961 . S
H701 C693 0.960 . S
H702 C694 0.930 . S
H703 C695 0.929 . S
H704 C712 0.929 . S
H705 C714 0.930 . S
H706 C716 0.930 . S
H707 C719 0.929 . S
H708 C722 0.930 . S
H709 C724 0.960 . S
H710 C724 0.960 . S
H711 C724 0.960 . S
C712 H704 0.929 . S
C712 C713 1.377 . S
C712 C714 1.384 . S
C713 C712 1.377 . S
C713 C719 1.390 . S
C714 H705 0.930 . S
C714 C712 1.384 . S
C714 C715 1.372 . S
C715 C714 1.372 . S
C715 C716 1.400 . S
C715 C720 1.490 . S
C716 H706 0.930 . S
C716 C715 1.400 . S
C716 C719 1.386 . S
H717 C733 0.930 . S
H718 C734 0.931 . S
C719 H707 0.929 . S
C719 C713 1.390 . S
C719 C716 1.386 . S
C720 C715 1.490 . S
C720 C722 1.395 . S
C720 C723 1.403 . S
H721 C727 0.930 . S
C722 H708 0.930 . S
C722 C720 1.395 . S
C722 C725 1.403 . S
C723 C720 1.403 . S
C723 C724 1.524 . S
C723 C727 1.400 . S
C724 H709 0.960 . S
C724 H710 0.960 . S
C724 H711 0.960 . S
C724 C723 1.524 . S
C725 C722 1.403 . S
C725 C726 1.392 . S
C725 C729 1.495 . S
C726 C725 1.392 . S
C726 C727 1.385 . S
C726 C728 1.478 . S
C727 H721 0.930 . S
C727 C723 1.400 . S
C727 C726 1.385 . S
C728 C726 1.478 . S
C728 C730 1.381 . S
C728 C734 1.383 . S
C729 C725 1.495 . S
C729 H735 0.959 . S
C729 H736 0.961 . S
C729 H737 0.960 . S
C730 C728 1.381 . S
C730 C731 1.394 . S
C730 H738 0.930 . S
C731 C730 1.394 . S
C731 C732 1.383 . S
C731 H739 0.929 . S
C732 C731 1.383 . S
C732 C733 1.377 . S
C733 H717 0.930 . S
C733 C732 1.377 . S
C733 C734 1.379 . S
C734 H718 0.931 . S
C734 C728 1.383 . S
C734 C733 1.379 . S
H735 C729 0.959 . S
H736 C729 0.961 . S
H737 C729 0.960 . S
H738 C730 0.930 . S
H739 C731 0.929 . S
H740 C748 0.929 . S
H741 C750 0.930 . S
H742 C752 0.930 . S
H743 C755 0.929 . S
H744 C758 0.930 . S
H745 C760 0.960 . S
H746 C760 0.960 . S
H747 C760 0.960 . S
C748 H740 0.929 . S
C748 C749 1.377 . S
C748 C750 1.384 . S
C749 C748 1.377 . S
C749 C755 1.390 . S
C750 H741 0.930 . S
C750 C748 1.384 . S
C750 C751 1.372 . S
C751 C750 1.372 . S
C751 C752 1.400 . S
C751 C756 1.490 . S
C752 H742 0.930 . S
C752 C751 1.400 . S
C752 C755 1.386 . S
H753 C769 0.930 . S
H754 C770 0.931 . S
C755 H743 0.929 . S
C755 C749 1.390 . S
C755 C752 1.386 . S
C756 C751 1.490 . S
C756 C758 1.395 . S
C756 C759 1.403 . S
H757 C763 0.930 . S
C758 H744 0.930 . S
C758 C756 1.395 . S
C758 C761 1.403 . S
C759 C756 1.403 . S
C759 C760 1.524 . S
C759 C763 1.400 . S
C760 H745 0.960 . S
C760 H746 0.960 . S
C760 H747 0.960 . S
C760 C759 1.524 . S
C761 C758 1.403 . S
C761 C762 1.392 . S
C761 C765 1.495 . S
C762 C761 1.392 . S
C762 C763 1.385 . S
C762 C764 1.478 . S
C763 H757 0.930 . S
C763 C759 1.400 . S
C763 C762 1.385 . S
C764 C762 1.478 . S
C764 C766 1.381 . S
C764 C770 1.383 . S
C765 C761 1.495 . S
C765 H771 0.959 . S
C765 H772 0.961 . S
C765 H773 0.960 . S
C766 C764 1.381 . S
C766 C767 1.394 . S
C766 H774 0.930 . S
C767 C766 1.394 . S
C767 C768 1.383 . S
C767 H775 0.929 . S
C768 C767 1.383 . S
C768 C769 1.377 . S
C769 H753 0.930 . S
C769 C768 1.377 . S
C769 C770 1.379 . S
C770 H754 0.931 . S
C770 C764 1.383 . S
C770 C769 1.379 . S
H771 C765 0.959 . S
H772 C765 0.961 . S
H773 C765 0.960 . S
H774 C766 0.930 . S
H775 C767 0.929 . S
H776 C784 0.929 . S
H777 C786 0.930 . S
H778 C788 0.930 . S
H779 C791 0.929 . S
H780 C794 0.930 . S
H781 C796 0.960 . S
H782 C796 0.960 . S
H783 C796 0.960 . S
C784 H776 0.929 . S
C784 C785 1.377 . S
C784 C786 1.384 . S
C785 C784 1.377 . S
C785 C791 1.390 . S
C786 H777 0.930 . S
C786 C784 1.384 . S
C786 C787 1.372 . S
C787 C786 1.372 . S
C787 C788 1.400 . S
C787 C792 1.490 . S
C788 H778 0.930 . S
C788 C787 1.400 . S
C788 C791 1.386 . S
H789 C805 0.930 . S
H790 C806 0.931 . S
C791 H779 0.929 . S
C791 C785 1.390 . S
C791 C788 1.386 . S
C792 C787 1.490 . S
C792 C794 1.395 . S
C792 C795 1.403 . S
H793 C799 0.930 . S
C794 H780 0.930 . S
C794 C792 1.395 . S
C794 C797 1.403 . S
C795 C792 1.403 . S
C795 C796 1.524 . S
C795 C799 1.400 . S
C796 H781 0.960 . S
C796 H782 0.960 . S
C796 H783 0.960 . S
C796 C795 1.524 . S
C797 C794 1.403 . S
C797 C798 1.392 . S
C797 C801 1.495 . S
C798 C797 1.392 . S
C798 C799 1.385 . S
C798 C800 1.478 . S
C799 H793 0.930 . S
C799 C795 1.400 . S
C799 C798 1.385 . S
C800 C798 1.478 . S
C800 C802 1.381 . S
C800 C806 1.383 . S
C801 C797 1.495 . S
C801 H807 0.959 . S
C801 H808 0.961 . S
C801 H809 0.960 . S
C802 C800 1.381 . S
C802 C803 1.394 . S
C802 H810 0.930 . S
C803 C802 1.394 . S
C803 C804 1.383 . S
C803 H811 0.929 . S
C804 C803 1.383 . S
C804 C805 1.377 . S
C805 H789 0.930 . S
C805 C804 1.377 . S
C805 C806 1.379 . S
C806 H790 0.931 . S
C806 C800 1.383 . S
C806 C805 1.379 . S
H807 C801 0.959 . S
H808 C801 0.961 . S
H809 C801 0.960 . S
H810 C802 0.930 . S
H811 C803 0.929 . S
H812 C820 0.929 . S
H813 C822 0.930 . S
H814 C824 0.930 . S
H815 C827 0.929 . S
H816 C830 0.930 . S
H817 C832 0.960 . S
H818 C832 0.960 . S
H819 C832 0.960 . S
C820 H812 0.929 . S
C820 C821 1.377 . S
C820 C822 1.384 . S
C821 C820 1.377 . S
C821 C827 1.390 . S
C822 H813 0.930 . S
C822 C820 1.384 . S
C822 C823 1.372 . S
C823 C822 1.372 . S
C823 C824 1.400 . S
C823 C828 1.490 . S
C824 H814 0.930 . S
C824 C823 1.400 . S
C824 C827 1.386 . S
H825 C841 0.930 . S
H826 C842 0.931 . S
C827 H815 0.929 . S
C827 C821 1.390 . S
C827 C824 1.386 . S
C828 C823 1.490 . S
C828 C830 1.395 . S
C828 C831 1.403 . S
H829 C835 0.930 . S
C830 H816 0.930 . S
C830 C828 1.395 . S
C830 C833 1.403 . S
C831 C828 1.403 . S
C831 C832 1.524 . S
C831 C835 1.400 . S
C832 H817 0.960 . S
C832 H818 0.960 . S
C832 H819 0.960 . S
C832 C831 1.524 . S
C833 C830 1.403 . S
C833 C834 1.392 . S
C833 C837 1.495 . S
C834 C833 1.392 . S
C834 C835 1.385 . S
C834 C836 1.478 . S
C835 H829 0.930 . S
C835 C831 1.400 . S
C835 C834 1.385 . S
C836 C834 1.478 . S
C836 C838 1.381 . S
C836 C842 1.383 . S
C837 C833 1.495 . S
C837 H843 0.959 . S
C837 H844 0.961 . S
C837 H845 0.960 . S
C838 C836 1.381 . S
C838 C839 1.394 . S
C838 H846 0.930 . S
C839 C838 1.394 . S
C839 C840 1.383 . S
C839 H847 0.929 . S
C840 C839 1.383 . S
C840 C841 1.377 . S
C841 H825 0.930 . S
C841 C840 1.377 . S
C841 C842 1.379 . S
C842 H826 0.931 . S
C842 C836 1.383 . S
C842 C841 1.379 . S
H843 C837 0.959 . S
H844 C837 0.961 . S
H845 C837 0.960 . S
H846 C838 0.930 . S
H847 C839 0.929 . S
H848 C856 0.929 1_545 S
H849 C858 0.930 . S
H850 C860 0.930 . S
H851 C863 0.929 . S
H852 C866 0.930 . S
H853 C868 0.960 . S
H854 C868 0.960 . S
H855 C868 0.960 . S
C856 H848 0.929 1_565 S
C856 C857 1.377 . S
C856 C858 1.384 . S
C857 C856 1.377 . S
C857 C863 1.390 . S
C858 H849 0.930 . S
C858 C856 1.384 . S
C858 C859 1.372 . S
C859 C858 1.372 . S
C859 C860 1.400 . S
C859 C864 1.490 . S
C860 H850 0.930 . S
C860 C859 1.400 . S
C860 C863 1.386 . S
H861 C877 0.930 . S
H862 C878 0.931 . S
C863 H851 0.929 . S
C863 C857 1.390 . S
C863 C860 1.386 . S
C864 C859 1.490 . S
C864 C866 1.395 . S
C864 C867 1.403 . S
H865 C871 0.930 . S
C866 H852 0.930 . S
C866 C864 1.395 . S
C866 C869 1.403 . S
C867 C864 1.403 . S
C867 C868 1.524 . S
C867 C871 1.400 . S
C868 H853 0.960 . S
C868 H854 0.960 . S
C868 H855 0.960 . S
C868 C867 1.524 . S
C869 C866 1.403 . S
C869 C870 1.392 . S
C869 C873 1.495 . S
C870 C869 1.392 . S
C870 C871 1.385 . S
C870 C872 1.478 . S
C871 H865 0.930 . S
C871 C867 1.400 . S
C871 C870 1.385 . S
C872 C870 1.478 . S
C872 C874 1.381 . S
C872 C878 1.383 . S
C873 C869 1.495 . S
C873 H879 0.959 . S
C873 H880 0.961 . S
C873 H881 0.960 . S
C874 C872 1.381 . S
C874 C875 1.394 . S
C874 H882 0.930 . S
C875 C874 1.394 . S
C875 C876 1.383 . S
C875 H883 0.929 . S
C876 C875 1.383 . S
C876 C877 1.377 . S
C877 H861 0.930 . S
C877 C876 1.377 . S
C877 C878 1.379 . S
C878 H862 0.931 . S
C878 C872 1.383 . S
C878 C877 1.379 . S
H879 C873 0.959 . S
H880 C873 0.961 . S
H881 C873 0.960 . S
H882 C874 0.930 . S
H883 C875 0.929 . S
H884 C892 0.929 . S
H885 C894 0.930 . S
H886 C896 0.930 . S
H887 C899 0.929 . S
H888 C902 0.930 . S
H889 C904 0.960 . S
H890 C904 0.960 . S
H891 C904 0.960 . S
C892 H884 0.929 . S
C892 C893 1.377 . S
C892 C894 1.384 . S
C893 C892 1.377 . S
C893 C899 1.390 . S
C894 H885 0.930 . S
C894 C892 1.384 . S
C894 C895 1.372 . S
C895 C894 1.372 . S
C895 C896 1.400 . S
C895 C900 1.490 . S
C896 H886 0.930 . S
C896 C895 1.400 . S
C896 C899 1.386 . S
H897 C913 0.930 . S
H898 C914 0.931 . S
C899 H887 0.929 . S
C899 C893 1.390 . S
C899 C896 1.386 . S
C900 C895 1.490 . S
C900 C902 1.395 . S
C900 C903 1.403 . S
H901 C907 0.930 . S
C902 H888 0.930 . S
C902 C900 1.395 . S
C902 C905 1.403 . S
C903 C900 1.403 . S
C903 C904 1.524 . S
C903 C907 1.400 . S
C904 H889 0.960 . S
C904 H890 0.960 . S
C904 H891 0.960 . S
C904 C903 1.524 . S
C905 C902 1.403 . S
C905 C906 1.392 . S
C905 C909 1.495 . S
C906 C905 1.392 . S
C906 C907 1.385 . S
C906 C908 1.478 . S
C907 H901 0.930 . S
C907 C903 1.400 . S
C907 C906 1.385 . S
C908 C906 1.478 . S
C908 C910 1.381 . S
C908 C914 1.383 . S
C909 C905 1.495 . S
C909 H915 0.959 . S
C909 H916 0.961 . S
C909 H917 0.960 . S
C910 C908 1.381 . S
C910 C911 1.394 . S
C910 H918 0.930 . S
C911 C910 1.394 . S
C911 C912 1.383 . S
C911 H919 0.929 . S
C912 C911 1.383 . S
C912 C913 1.377 . S
C913 H897 0.930 . S
C913 C912 1.377 . S
C913 C914 1.379 . S
C914 H898 0.931 . S
C914 C908 1.383 . S
C914 C913 1.379 . S
H915 C909 0.959 . S
H916 C909 0.961 . S
H917 C909 0.960 . S
H918 C910 0.930 . S
H919 C911 0.929 . S
H920 C928 0.929 . S
H921 C930 0.930 . S
H922 C932 0.930 . S
H923 C935 0.929 . S
H924 C938 0.930 . S
H925 C940 0.960 . S
H926 C940 0.960 . S
H927 C940 0.960 . S
C928 H920 0.929 . S
C928 C929 1.377 . S
C928 C930 1.384 . S
C929 C928 1.377 . S
C929 C935 1.390 . S
C930 H921 0.930 . S
C930 C928 1.384 . S
C930 C931 1.372 . S
C931 C930 1.372 . S
C931 C932 1.400 . S
C931 C936 1.490 . S
C932 H922 0.930 . S
C932 C931 1.400 . S
C932 C935 1.386 . S
H933 C949 0.930 . S
H934 C950 0.931 . S
C935 H923 0.929 . S
C935 C929 1.390 . S
C935 C932 1.386 . S
C936 C931 1.490 . S
C936 C938 1.395 . S
C936 C939 1.403 . S
H937 C943 0.930 . S
C938 H924 0.930 . S
C938 C936 1.395 . S
C938 C941 1.403 . S
C939 C936 1.403 . S
C939 C940 1.524 . S
C939 C943 1.400 . S
C940 H925 0.960 . S
C940 H926 0.960 . S
C940 H927 0.960 . S
C940 C939 1.524 . S
C941 C938 1.403 . S
C941 C942 1.392 . S
C941 C945 1.495 . S
C942 C941 1.392 . S
C942 C943 1.385 . S
C942 C944 1.478 . S
C943 H937 0.930 . S
C943 C939 1.400 . S
C943 C942 1.385 . S
C944 C942 1.478 . S
C944 C946 1.381 . S
C944 C950 1.383 . S
C945 C941 1.495 . S
C945 H951 0.959 . S
C945 H952 0.961 . S
C945 H953 0.960 . S
C946 C944 1.381 . S
C946 C947 1.394 . S
C946 H954 0.930 . S
C947 C946 1.394 . S
C947 C948 1.383 . S
C947 H955 0.929 . S
C948 C947 1.383 . S
C948 C949 1.377 . S
C949 H933 0.930 . S
C949 C948 1.377 . S
C949 C950 1.379 . S
C950 H934 0.931 . S
C950 C944 1.383 . S
C950 C949 1.379 . S
H951 C945 0.959 . S
H952 C945 0.961 . S
H953 C945 0.960 . S
H954 C946 0.930 . S
H955 C947 0.929 . S
H956 C964 0.929 . S
H957 C966 0.930 . S
H958 C968 0.930 . S
H959 C971 0.929 . S
H960 C974 0.930 . S
H961 C976 0.960 . S
H962 C976 0.960 . S
H963 C976 0.960 . S
C964 H956 0.929 . S
C964 C965 1.377 . S
C964 C966 1.384 . S
C965 C964 1.377 . S
C965 C971 1.390 . S
C966 H957 0.930 . S
C966 C964 1.384 . S
C966 C967 1.372 . S
C967 C966 1.372 . S
C967 C968 1.400 . S
C967 C972 1.490 . S
C968 H958 0.930 . S
C968 C967 1.400 . S
C968 C971 1.386 . S
H969 C985 0.930 . S
H970 C986 0.931 . S
C971 H959 0.929 . S
C971 C965 1.390 . S
C971 C968 1.386 . S
C972 C967 1.490 . S
C972 C974 1.395 . S
C972 C975 1.403 . S
H973 C979 0.930 . S
C974 H960 0.930 . S
C974 C972 1.395 . S
C974 C977 1.403 . S
C975 C972 1.403 . S
C975 C976 1.524 . S
C975 C979 1.400 . S
C976 H961 0.960 . S
C976 H962 0.960 . S
C976 H963 0.960 . S
C976 C975 1.524 . S
C977 C974 1.403 . S
C977 C978 1.392 . S
C977 C981 1.495 . S
C978 C977 1.392 . S
C978 C979 1.385 . S
C978 C980 1.478 . S
C979 H973 0.930 . S
C979 C975 1.400 . S
C979 C978 1.385 . S
C980 C978 1.478 . S
C980 C982 1.381 . S
C980 C986 1.383 . S
C981 C977 1.495 . S
C981 H987 0.959 . S
C981 H988 0.961 . S
C981 H989 0.960 . S
C982 C980 1.381 . S
C982 C983 1.394 . S
C982 H990 0.930 . S
C983 C982 1.394 . S
C983 C984 1.383 . S
C983 H991 0.929 . S
C984 C983 1.383 . S
C984 C985 1.377 . S
C985 H969 0.930 . S
C985 C984 1.377 . S
C985 C986 1.379 . S
C986 H970 0.931 . S
C986 C980 1.383 . S
C986 C985 1.379 . S
H987 C981 0.959 . S
H988 C981 0.961 . S
H989 C981 0.960 . S
H990 C982 0.930 . S
H991 C983 0.929 . S
H992 C1000 0.929 . S
H993 C1002 0.930 . S
H994 C1004 0.930 . S
H995 C1007 0.929 . S
H996 C1010 0.930 . S
H997 C1012 0.960 . S
H998 C1012 0.960 . S
H999 C1012 0.960 . S
C1000 H992 0.929 . S
C1000 C1001 1.377 . S
C1000 C1002 1.384 . S
C1001 C1000 1.377 . S
C1001 C1007 1.390 . S
C1002 H993 0.930 . S
C1002 C1000 1.384 . S
C1002 C1003 1.372 . S
C1003 C1002 1.372 . S
C1003 C1004 1.400 . S
C1003 C1008 1.490 . S
C1004 H994 0.930 . S
C1004 C1003 1.400 . S
C1004 C1007 1.386 . S
H1005 C1021 0.930 . S
H1006 C1022 0.931 . S
C1007 H995 0.929 . S
C1007 C1001 1.390 . S
C1007 C1004 1.386 . S
C1008 C1003 1.490 . S
C1008 C1010 1.395 . S
C1008 C1011 1.403 . S
H1009 C1015 0.930 . S
C1010 H996 0.930 . S
C1010 C1008 1.395 . S
C1010 C1013 1.403 . S
C1011 C1008 1.403 . S
C1011 C1012 1.524 . S
C1011 C1015 1.400 . S
C1012 H997 0.960 . S
C1012 H998 0.960 . S
C1012 H999 0.960 . S
C1012 C1011 1.524 . S
C1013 C1010 1.403 . S
C1013 C1014 1.392 . S
C1013 C1017 1.495 . S
C1014 C1013 1.392 . S
C1014 C1015 1.385 . S
C1014 C1016 1.478 . S
C1015 H1009 0.930 . S
C1015 C1011 1.400 . S
C1015 C1014 1.385 . S
C1016 C1014 1.478 . S
C1016 C1018 1.381 . S
C1016 C1022 1.383 . S
C1017 C1013 1.495 . S
C1017 H1023 0.959 . S
C1017 H1024 0.961 . S
C1017 H1025 0.960 . S
C1018 C1016 1.381 . S
C1018 C1019 1.394 . S
C1018 H1026 0.930 . S
C1019 C1018 1.394 . S
C1019 C1020 1.383 . S
C1019 H1027 0.929 . S
C1020 C1019 1.383 . S
C1020 C1021 1.377 . S
C1021 H1005 0.930 . S
C1021 C1020 1.377 . S
C1021 C1022 1.379 . S
C1022 H1006 0.931 . S
C1022 C1016 1.383 . S
C1022 C1021 1.379 . S
H1023 C1017 0.959 . S
H1024 C1017 0.961 . S
H1025 C1017 0.960 . S
H1026 C1018 0.930 . S
H1027 C1019 0.929 . S
H1028 C1036 0.929 . S
H1029 C1038 0.930 . S
H1030 C1040 0.930 . S
H1031 C1043 0.929 . S
H1032 C1046 0.930 1_554 S
H1033 C1048 0.960 . S
H1034 C1048 0.960 . S
H1035 C1048 0.960 . S
C1036 H1028 0.929 . S
C1036 C1037 1.377 . S
C1036 C1038 1.384 . S
C1037 C1036 1.377 . S
C1037 C1043 1.390 . S
C1038 H1029 0.930 . S
C1038 C1036 1.384 . S
C1038 C1039 1.352 1_554 S
C1039 C1038 1.352 1_556 S
C1039 C1040 1.400 . S
C1039 C1044 1.509 . S
C1040 H1030 0.930 . S
C1040 C1039 1.400 . S
C1040 C1043 1.386 1_556 S
H1041 C1057 0.930 . S
H1042 C1058 0.931 . S
C1043 H1031 0.929 . S
C1043 C1037 1.390 . S
C1043 C1040 1.386 1_554 S
C1044 C1039 1.509 . S
C1044 C1046 1.395 . S
C1044 C1047 1.403 . S
H1045 C1051 0.930 . S
C1046 H1032 0.930 1_556 S
C1046 C1044 1.395 . S
C1046 C1049 1.403 . S
C1047 C1044 1.403 . S
C1047 C1048 1.524 . S
C1047 C1051 1.400 . S
C1048 H1033 0.960 . S
C1048 H1034 0.960 . S
C1048 H1035 0.960 . S
C1048 C1047 1.524 . S
C1049 C1046 1.403 . S
C1049 C1050 1.392 . S
C1049 C1053 1.502 . S
C1050 C1049 1.392 . S
C1050 C1051 1.385 . S
C1050 C1052 1.478 . S
C1051 H1045 0.930 . S
C1051 C1047 1.400 . S
C1051 C1050 1.385 . S
C1052 C1050 1.478 . S
C1052 C1054 1.381 . S
C1052 C1058 1.383 . S
C1053 C1049 1.502 . S
C1053 H1059 0.944 1_556 S
C1053 H1060 0.965 . S
C1053 H1061 0.964 . S
C1054 C1052 1.381 . S
C1054 C1055 1.394 . S
C1054 H1062 0.930 . S
C1055 C1054 1.394 . S
C1055 C1056 1.383 . S
C1055 H1063 0.929 . S
C1056 C1055 1.383 . S
C1056 C1057 1.377 . S
C1057 H1041 0.930 . S
C1057 C1056 1.377 . S
C1057 C1058 1.379 . S
C1058 H1042 0.931 . S
C1058 C1052 1.383 . S
C1058 C1057 1.379 . S
H1059 C1053 0.944 1_554 S
H1060 C1053 0.965 . S
H1061 C1053 0.964 . S
H1062 C1054 0.930 . S
H1063 C1055 0.929 . S
H1064 C1072 0.929 1_554 S
H1065 C1074 0.930 . S
H1066 C1076 0.930 . S
H1067 C1079 0.929 . S
H1068 C1082 0.930 . S
H1069 C1084 0.960 . S
H1070 C1084 0.960 . S
H1071 C1084 0.960 . S
C1072 H1064 0.929 1_556 S
C1072 C1073 1.377 . S
C1072 C1074 1.384 . S
C1073 C1072 1.377 . S
C1073 C1079 1.390 . S
C1074 H1065 0.930 . S
C1074 C1072 1.384 . S
C1074 C1075 1.372 . S
C1075 C1074 1.372 . S
C1075 C1076 1.400 . S
C1075 C1080 1.490 . S
C1076 H1066 0.930 . S
C1076 C1075 1.400 . S
C1076 C1079 1.386 . S
H1077 C1093 0.930 . S
H1078 C1094 0.931 . S
C1079 H1067 0.929 . S
C1079 C1073 1.390 . S
C1079 C1076 1.386 . S
C1080 C1075 1.490 . S
C1080 C1082 1.395 . S
C1080 C1083 1.403 . S
H1081 C1087 0.930 . S
C1082 H1068 0.930 . S
C1082 C1080 1.395 . S
C1082 C1085 1.403 . S
C1083 C1080 1.403 . S
C1083 C1084 1.524 . S
C1083 C1087 1.400 . S
C1084 H1069 0.960 . S
C1084 H1070 0.960 . S
C1084 H1071 0.960 . S
C1084 C1083 1.524 . S
C1085 C1082 1.403 . S
C1085 C1086 1.392 . S
C1085 C1089 1.495 . S
C1086 C1085 1.392 . S
C1086 C1087 1.385 . S
C1086 C1088 1.478 . S
C1087 H1081 0.930 . S
C1087 C1083 1.400 . S
C1087 C1086 1.385 . S
C1088 C1086 1.478 . S
C1088 C1090 1.381 . S
C1088 C1094 1.383 . S
C1089 C1085 1.495 . S
C1089 H1095 0.959 . S
C1089 H1096 0.961 . S
C1089 H1097 0.960 . S
C1090 C1088 1.381 . S
C1090 C1091 1.394 . S
C1090 H1098 0.930 . S
C1091 C1090 1.394 . S
C1091 C1092 1.383 . S
C1091 H1099 0.929 . S
C1092 C1091 1.383 . S
C1092 C1093 1.377 . S
C1093 H1077 0.930 . S
C1093 C1092 1.377 . S
C1093 C1094 1.379 . S
C1094 H1078 0.931 . S
C1094 C1088 1.383 . S
C1094 C1093 1.379 . S
H1095 C1089 0.959 . S
H1096 C1089 0.961 . S
H1097 C1089 0.960 . S
H1098 C1090 0.930 . S
H1099 C1091 0.929 . S
H1100 C1108 0.929 . S
H1101 C1110 0.930 . S
H1102 C1112 0.930 . S
H1103 C1115 0.929 . S
H1104 C1118 0.930 . S
H1105 C1120 0.960 . S
H1106 C1120 0.960 . S
H1107 C1120 0.960 . S
C1108 H1100 0.929 . S
C1108 C1109 1.377 . S
C1108 C1110 1.384 . S
C1109 C1108 1.377 . S
C1109 C1115 1.390 . S
C1110 H1101 0.930 . S
C1110 C1108 1.384 . S
C1110 C1111 1.372 . S
C1111 C1110 1.372 . S
C1111 C1112 1.400 . S
C1111 C1116 1.490 . S
C1112 H1102 0.930 . S
C1112 C1111 1.400 . S
C1112 C1115 1.386 . S
H1113 C1129 0.930 . S
H1114 C1130 0.931 . S
C1115 H1103 0.929 . S
C1115 C1109 1.390 . S
C1115 C1112 1.386 . S
C1116 C1111 1.490 . S
C1116 C1118 1.395 . S
C1116 C1119 1.403 . S
H1117 C1123 0.930 . S
C1118 H1104 0.930 . S
C1118 C1116 1.395 . S
C1118 C1121 1.403 . S
C1119 C1116 1.403 . S
C1119 C1120 1.524 . S
C1119 C1123 1.400 . S
C1120 H1105 0.960 . S
C1120 H1106 0.960 . S
C1120 H1107 0.960 . S
C1120 C1119 1.524 . S
C1121 C1118 1.403 . S
C1121 C1122 1.392 . S
C1121 C1125 1.495 . S
C1122 C1121 1.392 . S
C1122 C1123 1.385 . S
C1122 C1124 1.478 . S
C1123 H1117 0.930 . S
C1123 C1119 1.400 . S
C1123 C1122 1.385 . S
C1124 C1122 1.478 . S
C1124 C1126 1.381 . S
C1124 C1130 1.383 . S
C1125 C1121 1.495 . S
C1125 H1131 0.959 . S
C1125 H1132 0.961 . S
C1125 H1133 0.960 . S
C1126 C1124 1.381 . S
C1126 C1127 1.394 . S
C1126 H1134 0.930 . S
C1127 C1126 1.394 . S
C1127 C1128 1.383 . S
C1127 H1135 0.929 . S
C1128 C1127 1.383 . S
C1128 C1129 1.377 . S
C1129 H1113 0.930 . S
C1129 C1128 1.377 . S
C1129 C1130 1.379 . S
C1130 H1114 0.931 . S
C1130 C1124 1.383 . S
C1130 C1129 1.379 . S
H1131 C1125 0.959 . S
H1132 C1125 0.961 . S
H1133 C1125 0.960 . S
H1134 C1126 0.930 . S
H1135 C1127 0.929 . S
H1136 C1144 0.929 . S
H1137 C1146 0.930 . S
H1138 C1148 0.930 . S
H1139 C1151 0.929 . S
H1140 C1154 0.930 . S
H1141 C1156 0.960 . S
H1142 C1156 0.960 . S
H1143 C1156 0.960 . S
C1144 H1136 0.929 . S
C1144 C1145 1.377 . S
C1144 C1146 1.384 . S
C1145 C1144 1.377 . S
C1145 C1151 1.390 . S
C1146 H1137 0.930 . S
C1146 C1144 1.384 . S
C1146 C1147 1.372 . S
C1147 C1146 1.372 . S
C1147 C1148 1.400 . S
C1147 C1152 1.490 . S
C1148 H1138 0.930 . S
C1148 C1147 1.400 . S
C1148 C1151 1.386 . S
H1149 C1165 0.930 . S
H1150 C1166 0.931 . S
C1151 H1139 0.929 . S
C1151 C1145 1.390 . S
C1151 C1148 1.386 . S
C1152 C1147 1.490 . S
C1152 C1154 1.395 . S
C1152 C1155 1.403 . S
H1153 C1159 0.930 . S
C1154 H1140 0.930 . S
C1154 C1152 1.395 . S
C1154 C1157 1.403 . S
C1155 C1152 1.403 . S
C1155 C1156 1.524 . S
C1155 C1159 1.400 . S
C1156 H1141 0.960 . S
C1156 H1142 0.960 . S
C1156 H1143 0.960 . S
C1156 C1155 1.524 . S
C1157 C1154 1.403 . S
C1157 C1158 1.392 . S
C1157 C1161 1.495 . S
C1158 C1157 1.392 . S
C1158 C1159 1.385 . S
C1158 C1160 1.478 . S
C1159 H1153 0.930 . S
C1159 C1155 1.400 . S
C1159 C1158 1.385 . S
C1160 C1158 1.478 . S
C1160 C1162 1.381 . S
C1160 C1166 1.383 . S
C1161 C1157 1.495 . S
C1161 H1167 0.959 . S
C1161 H1168 0.961 . S
C1161 H1169 0.960 . S
C1162 C1160 1.381 . S
C1162 C1163 1.394 . S
C1162 H1170 0.930 . S
C1163 C1162 1.394 . S
C1163 C1164 1.383 . S
C1163 H1171 0.929 . S
C1164 C1163 1.383 . S
C1164 C1165 1.377 . S
C1165 H1149 0.930 . S
C1165 C1164 1.377 . S
C1165 C1166 1.379 . S
C1166 H1150 0.931 . S
C1166 C1160 1.383 . S
C1166 C1165 1.379 . S
H1167 C1161 0.959 . S
H1168 C1161 0.961 . S
H1169 C1161 0.960 . S
H1170 C1162 0.930 . S
H1171 C1163 0.929 . S
H1172 C1180 0.929 . S
H1173 C1182 0.930 . S
H1174 C1184 0.930 . S
H1175 C1187 0.929 . S
H1176 C1190 0.930 . S
H1177 C1192 0.960 . S
H1178 C1192 0.960 . S
H1179 C1192 0.960 . S
C1180 H1172 0.929 . S
C1180 C1181 1.377 . S
C1180 C1182 1.384 . S
C1181 C1180 1.377 . S
C1181 C1187 1.390 . S
C1182 H1173 0.930 . S
C1182 C1180 1.384 . S
C1182 C1183 1.372 . S
C1183 C1182 1.372 . S
C1183 C1184 1.400 . S
C1183 C1188 1.490 . S
C1184 H1174 0.930 . S
C1184 C1183 1.400 . S
C1184 C1187 1.386 . S
H1185 C1201 0.930 . S
H1186 C1202 0.931 . S
C1187 H1175 0.929 . S
C1187 C1181 1.390 . S
C1187 C1184 1.386 . S
C1188 C1183 1.490 . S
C1188 C1190 1.395 . S
C1188 C1191 1.403 . S
H1189 C1195 0.930 . S
C1190 H1176 0.930 . S
C1190 C1188 1.395 . S
C1190 C1193 1.403 . S
C1191 C1188 1.403 . S
C1191 C1192 1.524 . S
C1191 C1195 1.400 . S
C1192 H1177 0.960 . S
C1192 H1178 0.960 . S
C1192 H1179 0.960 . S
C1192 C1191 1.524 . S
C1193 C1190 1.403 . S
C1193 C1194 1.392 . S
C1193 C1197 1.495 . S
C1194 C1193 1.392 . S
C1194 C1195 1.385 . S
C1194 C1196 1.478 . S
C1195 H1189 0.930 . S
C1195 C1191 1.400 . S
C1195 C1194 1.385 . S
C1196 C1194 1.478 . S
C1196 C1198 1.381 . S
C1196 C1202 1.383 . S
C1197 C1193 1.495 . S
C1197 H1203 0.959 . S
C1197 H1204 0.961 . S
C1197 H1205 0.960 . S
C1198 C1196 1.381 . S
C1198 C1199 1.394 . S
C1198 H1206 0.930 . S
C1199 C1198 1.394 . S
C1199 C1200 1.383 . S
C1199 H1207 0.929 . S
C1200 C1199 1.383 . S
C1200 C1201 1.377 . S
C1201 H1185 0.930 . S
C1201 C1200 1.377 . S
C1201 C1202 1.379 . S
C1202 H1186 0.931 . S
C1202 C1196 1.383 . S
C1202 C1201 1.379 . S
H1203 C1197 0.959 . S
H1204 C1197 0.961 . S
H1205 C1197 0.960 . S
H1206 C1198 0.930 . S
H1207 C1199 0.929 . S
H1208 C1216 0.929 . S
H1209 C1218 0.930 . S
H1210 C1220 0.930 . S
H1211 C1223 0.929 . S
H1212 C1226 0.930 . S
H1213 C1228 0.960 . S
H1214 C1228 0.960 . S
H1215 C1228 0.960 . S
C1216 H1208 0.929 . S
C1216 C1217 1.377 . S
C1216 C1218 1.384 . S
C1217 C1216 1.377 . S
C1217 C1223 1.390 . S
C1218 H1209 0.930 . S
C1218 C1216 1.384 . S
C1218 C1219 1.372 . S
C1219 C1218 1.372 . S
C1219 C1220 1.400 . S
C1219 C1224 1.490 . S
C1220 H1210 0.930 . S
C1220 C1219 1.400 . S
C1220 C1223 1.386 . S
H1221 C1237 0.930 . S
H1222 C1238 0.931 . S
C1223 H1211 0.929 . S
C1223 C1217 1.390 . S
C1223 C1220 1.386 . S
C1224 C1219 1.490 . S
C1224 C1226 1.395 . S
C1224 C1227 1.403 . S
H1225 C1231 0.930 . S
C1226 H1212 0.930 . S
C1226 C1224 1.395 . S
C1226 C1229 1.403 . S
C1227 C1224 1.403 . S
C1227 C1228 1.524 . S
C1227 C1231 1.400 . S
C1228 H1213 0.960 . S
C1228 H1214 0.960 . S
C1228 H1215 0.960 . S
C1228 C1227 1.524 . S
C1229 C1226 1.403 . S
C1229 C1230 1.392 . S
C1229 C1233 1.495 . S
C1230 C1229 1.392 . S
C1230 C1231 1.385 . S
C1230 C1232 1.478 . S
C1231 H1225 0.930 . S
C1231 C1227 1.400 . S
C1231 C1230 1.385 . S
C1232 C1230 1.478 . S
C1232 C1234 1.381 . S
C1232 C1238 1.383 . S
C1233 C1229 1.495 . S
C1233 H1239 0.959 . S
C1233 H1240 0.961 . S
C1233 H1241 0.960 . S
C1234 C1232 1.381 . S
C1234 C1235 1.394 . S
C1234 H1242 0.930 . S
C1235 C1234 1.394 . S
C1235 C1236 1.383 . S
C1235 H1243 0.929 . S
C1236 C1235 1.383 . S
C1236 C1237 1.377 . S
C1237 H1221 0.930 . S
C1237 C1236 1.377 . S
C1237 C1238 1.379 . S
C1238 H1222 0.931 . S
C1238 C1232 1.383 . S
C1238 C1237 1.379 . S
H1239 C1233 0.959 . S
H1240 C1233 0.961 . S
H1241 C1233 0.960 . S
H1242 C1234 0.930 . S
H1243 C1235 0.929 . S
H1244 C1252 0.932 . S
H1245 C1254 0.930 . S
H1246 C1256 0.930 . S
H1247 C1259 0.929 . S
H1248 C1262 0.930 . S
H1249 C1264 0.960 . S
H1250 C1264 0.960 . S
H1251 C1264 0.960 . S
C1252 H1244 0.932 . S
C1252 C1253 1.397 . S
C1252 C1254 1.363 1_554 S
C1253 C1252 1.397 . S
C1253 C1259 1.390 . S
C1254 H1245 0.930 . S
C1254 C1252 1.363 1_556 S
C1254 C1255 1.372 . S
C1255 C1254 1.372 . S
C1255 C1256 1.400 . S
C1255 C1260 1.490 . S
C1256 H1246 0.930 . S
C1256 C1255 1.400 . S
C1256 C1259 1.386 1_556 S
H1257 C1273 0.930 . S
H1258 C1274 0.931 . S
C1259 H1247 0.929 . S
C1259 C1253 1.390 . S
C1259 C1256 1.386 1_554 S
C1260 C1255 1.490 . S
C1260 C1262 1.395 . S
C1260 C1263 1.403 . S
H1261 C1267 0.930 . S
C1262 H1248 0.930 . S
C1262 C1260 1.395 . S
C1262 C1265 1.403 . S
C1263 C1260 1.403 . S
C1263 C1264 1.524 . S
C1263 C1267 1.400 . S
C1264 H1249 0.960 . S
C1264 H1250 0.960 . S
C1264 H1251 0.960 . S
C1264 C1263 1.524 . S
C1265 C1262 1.403 . S
C1265 C1266 1.392 . S
C1265 C1269 1.495 . S
C1266 C1265 1.392 . S
C1266 C1267 1.385 . S
C1266 C1268 1.478 . S
C1267 H1261 0.930 . S
C1267 C1263 1.400 . S
C1267 C1266 1.385 . S
C1268 C1266 1.478 . S
C1268 C1270 1.381 . S
C1268 C1274 1.383 . S
C1269 C1265 1.495 . S
C1269 H1275 0.959 . S
C1269 H1276 0.961 . S
C1269 H1277 0.960 . S
C1270 C1268 1.381 . S
C1270 C1271 1.394 . S
C1270 H1278 0.930 . S
C1271 C1270 1.394 . S
C1271 C1272 1.383 . S
C1271 H1279 0.929 . S
C1272 C1271 1.383 . S
C1272 C1273 1.377 . S
C1273 H1257 0.930 . S
C1273 C1272 1.377 . S
C1273 C1274 1.379 . S
C1274 H1258 0.931 . S
C1274 C1268 1.383 . S
C1274 C1273 1.379 . S
H1275 C1269 0.959 . S
H1276 C1269 0.961 . S
H1277 C1269 0.960 . S
H1278 C1270 0.930 . S
H1279 C1271 0.929 . S
H1280 C1288 0.929 . S
H1281 C1290 0.930 . S
H1282 C1292 0.930 . S
H1283 C1295 0.929 1_455 S
H1284 C1298 0.930 . S
H1285 C1300 0.960 . S
H1286 C1300 0.960 . S
H1287 C1300 0.960 . S
C1288 H1280 0.929 . S
C1288 C1289 1.377 . S
C1288 C1290 1.384 . S
C1289 C1288 1.377 . S
C1289 C1295 1.390 1_554 S
C1290 H1281 0.930 . S
C1290 C1288 1.384 . S
C1290 C1291 1.372 1_554 S
C1291 C1290 1.372 1_556 S
C1291 C1292 1.400 . S
C1291 C1296 1.490 . S
C1292 H1282 0.930 . S
C1292 C1291 1.400 . S
C1292 C1295 1.386 . S
H1293 C1309 0.930 . S
H1294 C1310 0.931 . S
C1295 H1283 0.929 1_655 S
C1295 C1289 1.390 1_556 S
C1295 C1292 1.386 . S
C1296 C1291 1.490 . S
C1296 C1298 1.395 . S
C1296 C1299 1.403 . S
H1297 C1303 0.930 . S
C1298 H1284 0.930 . S
C1298 C1296 1.395 . S
C1298 C1301 1.403 . S
C1299 C1296 1.403 . S
C1299 C1300 1.524 . S
C1299 C1303 1.400 . S
C1300 H1285 0.960 . S
C1300 H1286 0.960 . S
C1300 H1287 0.960 . S
C1300 C1299 1.524 . S
C1301 C1298 1.403 . S
C1301 C1302 1.392 . S
C1301 C1305 1.495 . S
C1302 C1301 1.392 . S
C1302 C1303 1.385 . S
C1302 C1304 1.478 . S
C1303 H1297 0.930 . S
C1303 C1299 1.400 . S
C1303 C1302 1.385 . S
C1304 C1302 1.478 . S
C1304 C1306 1.381 . S
C1304 C1310 1.383 . S
C1305 C1301 1.495 . S
C1305 H1311 0.959 . S
C1305 H1312 0.961 . S
C1305 H1313 0.960 . S
C1306 C1304 1.381 . S
C1306 C1307 1.394 . S
C1306 H1314 0.930 . S
C1307 C1306 1.394 . S
C1307 C1308 1.383 . S
C1307 H1315 0.929 . S
C1308 C1307 1.383 . S
C1308 C1309 1.377 . S
C1309 H1293 0.930 . S
C1309 C1308 1.377 . S
C1309 C1310 1.379 . S
C1310 H1294 0.931 . S
C1310 C1304 1.383 . S
C1310 C1309 1.379 . S
H1311 C1305 0.959 . S
H1312 C1305 0.961 . S
H1313 C1305 0.960 . S
H1314 C1306 0.930 . S
H1315 C1307 0.929 . S
H1316 C1324 0.929 . S
H1317 C1326 0.930 . S
H1318 C1328 0.930 . S
H1319 C1331 0.929 . S
H1320 C1334 0.930 . S
H1321 C1336 0.960 . S
H1322 C1336 0.960 . S
H1323 C1336 0.960 . S
C1324 H1316 0.929 . S
C1324 C1325 1.377 . S
C1324 C1326 1.384 . S
C1325 C1324 1.377 . S
C1325 C1331 1.390 . S
C1326 H1317 0.930 . S
C1326 C1324 1.384 . S
C1326 C1327 1.372 . S
C1327 C1326 1.372 . S
C1327 C1328 1.400 . S
C1327 C1332 1.490 . S
C1328 H1318 0.930 . S
C1328 C1327 1.400 . S
C1328 C1331 1.386 . S
H1329 C1345 0.930 . S
H1330 C1346 0.931 . S
C1331 H1319 0.929 . S
C1331 C1325 1.390 . S
C1331 C1328 1.386 . S
C1332 C1327 1.490 . S
C1332 C1334 1.395 . S
C1332 C1335 1.403 . S
H1333 C1339 0.930 . S
C1334 H1320 0.930 . S
C1334 C1332 1.395 . S
C1334 C1337 1.403 . S
C1335 C1332 1.403 . S
C1335 C1336 1.524 . S
C1335 C1339 1.400 . S
C1336 H1321 0.960 . S
C1336 H1322 0.960 . S
C1336 H1323 0.960 . S
C1336 C1335 1.524 . S
C1337 C1334 1.403 . S
C1337 C1338 1.392 . S
C1337 C1341 1.495 . S
C1338 C1337 1.392 . S
C1338 C1339 1.385 . S
C1338 C1340 1.478 . S
C1339 H1333 0.930 . S
C1339 C1335 1.400 . S
C1339 C1338 1.385 . S
C1340 C1338 1.478 . S
C1340 C1342 1.381 . S
C1340 C1346 1.383 . S
C1341 C1337 1.495 . S
C1341 H1347 0.959 . S
C1341 H1348 0.961 . S
C1341 H1349 0.960 . S
C1342 C1340 1.381 . S
C1342 C1343 1.394 . S
C1342 H1350 0.930 . S
C1343 C1342 1.394 . S
C1343 C1344 1.383 . S
C1343 H1351 0.929 . S
C1344 C1343 1.383 . S
C1344 C1345 1.377 . S
C1345 H1329 0.930 . S
C1345 C1344 1.377 . S
C1345 C1346 1.379 . S
C1346 H1330 0.931 . S
C1346 C1340 1.383 . S
C1346 C1345 1.379 . S
H1347 C1341 0.959 . S
H1348 C1341 0.961 . S
H1349 C1341 0.960 . S
H1350 C1342 0.930 . S
H1351 C1343 0.929 . S
H1352 C1360 0.929 . S
H1353 C1362 0.930 . S
H1354 C1364 0.930 . S
H1355 C1367 0.929 . S
H1356 C1370 0.930 . S
H1357 C1372 0.960 . S
H1358 C1372 0.960 . S
H1359 C1372 0.960 . S
C1360 H1352 0.929 . S
C1360 C1361 1.377 . S
C1360 C1362 1.384 . S
C1361 C1360 1.377 . S
C1361 C1367 1.390 . S
C1362 H1353 0.930 . S
C1362 C1360 1.384 . S
C1362 C1363 1.372 . S
C1363 C1362 1.372 . S
C1363 C1364 1.400 . S
C1363 C1368 1.490 . S
C1364 H1354 0.930 . S
C1364 C1363 1.400 . S
C1364 C1367 1.386 . S
H1365 C1381 0.930 . S
H1366 C1382 0.931 . S
C1367 H1355 0.929 . S
C1367 C1361 1.390 . S
C1367 C1364 1.386 . S
C1368 C1363 1.490 . S
C1368 C1370 1.395 . S
C1368 C1371 1.403 . S
H1369 C1375 0.930 . S
C1370 H1356 0.930 . S
C1370 C1368 1.395 . S
C1370 C1373 1.403 . S
C1371 C1368 1.403 . S
C1371 C1372 1.524 . S
C1371 C1375 1.400 . S
C1372 H1357 0.960 . S
C1372 H1358 0.960 . S
C1372 H1359 0.960 . S
C1372 C1371 1.524 . S
C1373 C1370 1.403 . S
C1373 C1374 1.392 . S
C1373 C1377 1.495 . S
C1374 C1373 1.392 . S
C1374 C1375 1.385 . S
C1374 C1376 1.478 . S
C1375 H1369 0.930 . S
C1375 C1371 1.400 . S
C1375 C1374 1.385 . S
C1376 C1374 1.478 . S
C1376 C1378 1.381 . S
C1376 C1382 1.383 . S
C1377 C1373 1.495 . S
C1377 H1383 0.959 . S
C1377 H1384 0.961 . S
C1377 H1385 0.960 . S
C1378 C1376 1.381 . S
C1378 C1379 1.394 . S
C1378 H1386 0.930 . S
C1379 C1378 1.394 . S
C1379 C1380 1.383 . S
C1379 H1387 0.929 . S
C1380 C1379 1.383 . S
C1380 C1381 1.377 . S
C1381 H1365 0.930 . S
C1381 C1380 1.377 . S
C1381 C1382 1.379 . S
C1382 H1366 0.931 . S
C1382 C1376 1.383 . S
C1382 C1381 1.379 . S
H1383 C1377 0.959 . S
H1384 C1377 0.961 . S
H1385 C1377 0.960 . S
H1386 C1378 0.930 . S
H1387 C1379 0.929 . S
H1388 C1396 0.929 . S
H1389 C1398 0.930 . S
H1390 C1400 0.930 . S
H1391 C1403 0.929 . S
H1392 C1406 0.930 . S
H1393 C1408 0.960 . S
H1394 C1408 0.960 . S
H1395 C1408 0.960 . S
C1396 H1388 0.929 . S
C1396 C1397 1.377 . S
C1396 C1398 1.384 . S
C1397 C1396 1.377 . S
C1397 C1403 1.390 . S
C1398 H1389 0.930 . S
C1398 C1396 1.384 . S
C1398 C1399 1.372 . S
C1399 C1398 1.372 . S
C1399 C1400 1.400 . S
C1399 C1404 1.490 . S
C1400 H1390 0.930 . S
C1400 C1399 1.400 . S
C1400 C1403 1.386 . S
H1401 C1417 0.930 . S
H1402 C1418 0.931 . S
C1403 H1391 0.929 . S
C1403 C1397 1.390 . S
C1403 C1400 1.386 . S
C1404 C1399 1.490 . S
C1404 C1406 1.395 . S
C1404 C1407 1.403 . S
H1405 C1411 0.930 . S
C1406 H1392 0.930 . S
C1406 C1404 1.395 . S
C1406 C1409 1.403 . S
C1407 C1404 1.403 . S
C1407 C1408 1.524 . S
C1407 C1411 1.400 . S
C1408 H1393 0.960 . S
C1408 H1394 0.960 . S
C1408 H1395 0.960 . S
C1408 C1407 1.524 . S
C1409 C1406 1.403 . S
C1409 C1410 1.392 . S
C1409 C1413 1.495 . S
C1410 C1409 1.392 . S
C1410 C1411 1.385 . S
C1410 C1412 1.478 . S
C1411 H1405 0.930 . S
C1411 C1407 1.400 . S
C1411 C1410 1.385 . S
C1412 C1410 1.478 . S
C1412 C1414 1.381 . S
C1412 C1418 1.383 . S
C1413 C1409 1.495 . S
C1413 H1419 0.959 . S
C1413 H1420 0.961 . S
C1413 H1421 0.960 . S
C1414 C1412 1.381 . S
C1414 C1415 1.394 . S
C1414 H1422 0.930 . S
C1415 C1414 1.394 . S
C1415 C1416 1.383 . S
C1415 H1423 0.929 . S
C1416 C1415 1.383 . S
C1416 C1417 1.377 . S
C1417 H1401 0.930 . S
C1417 C1416 1.377 . S
C1417 C1418 1.379 . S
C1418 H1402 0.931 . S
C1418 C1412 1.383 . S
C1418 C1417 1.379 . S
H1419 C1413 0.959 . S
H1420 C1413 0.961 . S
H1421 C1413 0.960 . S
H1422 C1414 0.930 . S
H1423 C1415 0.929 . S
H1424 C1432 0.929 . S
H1425 C1434 0.930 . S
H1426 C1436 0.930 . S
H1427 C1439 0.929 . S
H1428 C1442 0.930 . S
H1429 C1444 0.960 . S
H1430 C1444 0.960 . S
H1431 C1444 0.960 . S
C1432 H1424 0.929 . S
C1432 C1433 1.377 . S
C1432 C1434 1.384 . S
C1433 C1432 1.377 . S
C1433 C1439 1.390 . S
C1434 H1425 0.930 . S
C1434 C1432 1.384 . S
C1434 C1435 1.372 . S
C1435 C1434 1.372 . S
C1435 C1436 1.400 . S
C1435 C1440 1.490 . S
C1436 H1426 0.930 . S
C1436 C1435 1.400 . S
C1436 C1439 1.386 . S
H1437 C1453 0.930 . S
H1438 C1454 0.931 . S
C1439 H1427 0.929 . S
C1439 C1433 1.390 . S
C1439 C1436 1.386 . S
C1440 C1435 1.490 . S
C1440 C1442 1.395 . S
C1440 C1443 1.403 . S
H1441 C1447 0.930 . S
C1442 H1428 0.930 . S
C1442 C1440 1.395 . S
C1442 C1445 1.403 . S
C1443 C1440 1.403 . S
C1443 C1444 1.524 . S
C1443 C1447 1.400 . S
C1444 H1429 0.960 . S
C1444 H1430 0.960 . S
C1444 H1431 0.960 . S
C1444 C1443 1.524 . S
C1445 C1442 1.403 . S
C1445 C1446 1.392 . S
C1445 C1449 1.495 . S
C1446 C1445 1.392 . S
C1446 C1447 1.385 . S
C1446 C1448 1.478 . S
C1447 H1441 0.930 . S
C1447 C1443 1.400 . S
C1447 C1446 1.385 . S
C1448 C1446 1.478 . S
C1448 C1450 1.381 . S
C1448 C1454 1.383 . S
C1449 C1445 1.495 . S
C1449 H1455 0.959 . S
C1449 H1456 0.961 . S
C1449 H1457 0.960 . S
C1450 C1448 1.381 . S
C1450 C1451 1.394 . S
C1450 H1458 0.930 . S
C1451 C1450 1.394 . S
C1451 C1452 1.383 . S
C1451 H1459 0.929 . S
C1452 C1451 1.383 . S
C1452 C1453 1.377 . S
C1453 H1437 0.930 . S
C1453 C1452 1.377 . S
C1453 C1454 1.379 . S
C1454 H1438 0.931 . S
C1454 C1448 1.383 . S
C1454 C1453 1.379 . S
H1455 C1449 0.959 . S
H1456 C1449 0.961 . S
H1457 C1449 0.960 . S
H1458 C1450 0.930 . S
H1459 C1451 0.929 . S
H1460 C1468 0.929 . S
H1461 C1470 0.930 . S
H1462 C1472 0.930 . S
H1463 C1475 0.929 . S
H1464 C1478 0.930 . S
H1465 C1480 0.960 . S
H1466 C1480 0.960 . S
H1467 C1480 0.960 . S
C1468 H1460 0.929 . S
C1468 C1469 1.377 . S
C1468 C1470 1.384 . S
C1469 C1468 1.377 . S
C1469 C1475 1.390 . S
C1470 H1461 0.930 . S
C1470 C1468 1.384 . S
C1470 C1471 1.372 . S
C1471 C1470 1.372 . S
C1471 C1472 1.400 . S
C1471 C1476 1.490 . S
C1472 H1462 0.930 . S
C1472 C1471 1.400 . S
C1472 C1475 1.386 . S
H1473 C1489 0.930 . S
H1474 C1490 0.931 . S
C1475 H1463 0.929 . S
C1475 C1469 1.390 . S
C1475 C1472 1.386 . S
C1476 C1471 1.490 . S
C1476 C1478 1.395 . S
C1476 C1479 1.403 . S
H1477 C1483 0.930 . S
C1478 H1464 0.930 . S
C1478 C1476 1.395 . S
C1478 C1481 1.403 . S
C1479 C1476 1.403 . S
C1479 C1480 1.524 . S
C1479 C1483 1.400 . S
C1480 H1465 0.960 . S
C1480 H1466 0.960 . S
C1480 H1467 0.960 . S
C1480 C1479 1.524 . S
C1481 C1478 1.403 . S
C1481 C1482 1.392 . S
C1481 C1485 1.495 . S
C1482 C1481 1.392 . S
C1482 C1483 1.385 . S
C1482 C1484 1.478 . S
C1483 H1477 0.930 . S
C1483 C1479 1.400 . S
C1483 C1482 1.385 . S
C1484 C1482 1.478 . S
C1484 C1486 1.381 . S
C1484 C1490 1.383 . S
C1485 C1481 1.495 . S
C1485 H1491 0.959 . S
C1485 H1492 0.961 . S
C1485 H1493 0.960 . S
C1486 C1484 1.381 . S
C1486 C1487 1.394 . S
C1486 H1494 0.930 . S
C1487 C1486 1.394 . S
C1487 C1488 1.383 . S
C1487 H1495 0.929 . S
C1488 C1487 1.383 . S
C1488 C1489 1.377 . S
C1489 H1473 0.930 . S
C1489 C1488 1.377 . S
C1489 C1490 1.379 . S
C1490 H1474 0.931 . S
C1490 C1484 1.383 . S
C1490 C1489 1.379 . S
H1491 C1485 0.959 . S
H1492 C1485 0.961 . S
H1493 C1485 0.960 . S
H1494 C1486 0.930 . S
H1495 C1487 0.929 . S
H1496 C1504 0.929 . S
H1497 C1506 0.930 . S
H1498 C1508 0.930 . S
H1499 C1511 0.929 . S
H1500 C1514 0.930 . S
H1501 C1516 0.960 . S
H1502 C1516 0.960 . S
H1503 C1516 0.960 . S
C1504 H1496 0.929 . S
C1504 C1505 1.377 . S
C1504 C1506 1.384 . S
C1505 C1504 1.377 . S
C1505 C1511 1.390 . S
C1506 H1497 0.930 . S
C1506 C1504 1.384 . S
C1506 C1507 1.372 . S
C1507 C1506 1.372 . S
C1507 C1508 1.400 . S
C1507 C1512 1.490 . S
C1508 H1498 0.930 . S
C1508 C1507 1.400 . S
C1508 C1511 1.386 . S
H1509 C1525 0.930 . S
H1510 C1526 0.931 . S
C1511 H1499 0.929 . S
C1511 C1505 1.390 . S
C1511 C1508 1.386 . S
C1512 C1507 1.490 . S
C1512 C1514 1.395 . S
C1512 C1515 1.403 . S
H1513 C1519 0.930 . S
C1514 H1500 0.930 . S
C1514 C1512 1.395 . S
C1514 C1517 1.403 . S
C1515 C1512 1.403 . S
C1515 C1516 1.524 . S
C1515 C1519 1.400 . S
C1516 H1501 0.960 . S
C1516 H1502 0.960 . S
C1516 H1503 0.960 . S
C1516 C1515 1.524 . S
C1517 C1514 1.403 . S
C1517 C1518 1.392 . S
C1517 C1521 1.495 . S
C1518 C1517 1.392 . S
C1518 C1519 1.385 . S
C1518 C1520 1.478 . S
C1519 H1513 0.930 . S
C1519 C1515 1.400 . S
C1519 C1518 1.385 . S
C1520 C1518 1.478 . S
C1520 C1522 1.381 . S
C1520 C1526 1.383 . S
C1521 C1517 1.495 . S
C1521 H1527 0.959 . S
C1521 H1528 0.961 . S
C1521 H1529 0.960 . S
C1522 C1520 1.381 . S
C1522 C1523 1.394 . S
C1522 H1530 0.930 . S
C1523 C1522 1.394 . S
C1523 C1524 1.383 . S
C1523 H1531 0.929 . S
C1524 C1523 1.383 . S
C1524 C1525 1.377 . S
C1525 H1509 0.930 . S
C1525 C1524 1.377 . S
C1525 C1526 1.379 . S
C1526 H1510 0.931 . S
C1526 C1520 1.383 . S
C1526 C1525 1.379 . S
H1527 C1521 0.959 . S
H1528 C1521 0.961 . S
H1529 C1521 0.960 . S
H1530 C1522 0.930 . S
H1531 C1523 0.929 . S
H1532 C1540 0.929 . S
H1533 C1542 0.930 . S
H1534 C1544 0.930 . S
H1535 C1547 0.929 . S
H1536 C1550 0.930 . S
H1537 C1552 0.960 . S
H1538 C1552 0.960 . S
H1539 C1552 0.960 . S
C1540 H1532 0.929 . S
C1540 C1541 1.377 . S
C1540 C1542 1.384 . S
C1541 C1540 1.377 . S
C1541 C1547 1.390 . S
C1542 H1533 0.930 . S
C1542 C1540 1.384 . S
C1542 C1543 1.372 . S
C1543 C1542 1.372 . S
C1543 C1544 1.400 . S
C1543 C1548 1.490 . S
C1544 H1534 0.930 . S
C1544 C1543 1.400 . S
C1544 C1547 1.386 . S
H1545 C1561 0.930 . S
H1546 C1562 0.931 . S
C1547 H1535 0.929 . S
C1547 C1541 1.390 . S
C1547 C1544 1.386 . S
C1548 C1543 1.490 . S
C1548 C1550 1.395 . S
C1548 C1551 1.403 . S
H1549 C1555 0.930 . S
C1550 H1536 0.930 . S
C1550 C1548 1.395 . S
C1550 C1553 1.403 . S
C1551 C1548 1.403 . S
C1551 C1552 1.524 . S
C1551 C1555 1.400 . S
C1552 H1537 0.960 . S
C1552 H1538 0.960 . S
C1552 H1539 0.960 . S
C1552 C1551 1.524 . S
C1553 C1550 1.403 . S
C1553 C1554 1.392 . S
C1553 C1557 1.495 . S
C1554 C1553 1.392 . S
C1554 C1555 1.385 . S
C1554 C1556 1.478 . S
C1555 H1549 0.930 . S
C1555 C1551 1.400 . S
C1555 C1554 1.385 . S
C1556 C1554 1.478 . S
C1556 C1558 1.381 . S
C1556 C1562 1.383 . S
C1557 C1553 1.495 . S
C1557 H1563 0.959 . S
C1557 H1564 0.961 . S
C1557 H1565 0.960 . S
C1558 C1556 1.381 . S
C1558 C1559 1.394 . S
C1558 H1566 0.930 . S
C1559 C1558 1.394 . S
C1559 C1560 1.383 . S
C1559 H1567 0.929 . S
C1560 C1559 1.383 . S
C1560 C1561 1.377 . S
C1561 H1545 0.930 . S
C1561 C1560 1.377 . S
C1561 C1562 1.379 . S
C1562 H1546 0.931 . S
C1562 C1556 1.383 . S
C1562 C1561 1.379 . S
H1563 C1557 0.959 . S
H1564 C1557 0.961 . S
H1565 C1557 0.960 . S
H1566 C1558 0.930 . S
H1567 C1559 0.929 . S
H1568 C1576 0.929 . S
H1569 C1578 0.930 . S
H1570 C1580 0.930 . S
H1571 C1583 0.929 . S
H1572 C1586 0.930 . S
H1573 C1588 0.960 . S
H1574 C1588 0.960 . S
H1575 C1588 0.960 . S
C1576 H1568 0.929 . S
C1576 C1577 1.377 . S
C1576 C1578 1.384 . S
C1577 C1576 1.377 . S
C1577 C1583 1.390 . S
C1578 H1569 0.930 . S
C1578 C1576 1.384 . S
C1578 C1579 1.372 . S
C1579 C1578 1.372 . S
C1579 C1580 1.400 . S
C1579 C1584 1.490 . S
C1580 H1570 0.930 . S
C1580 C1579 1.400 . S
C1580 C1583 1.386 . S
H1581 C1597 0.930 . S
H1582 C1598 0.931 . S
C1583 H1571 0.929 . S
C1583 C1577 1.390 . S
C1583 C1580 1.386 . S
C1584 C1579 1.490 . S
C1584 C1586 1.395 . S
C1584 C1587 1.403 . S
H1585 C1591 0.930 . S
C1586 H1572 0.930 . S
C1586 C1584 1.395 . S
C1586 C1589 1.403 . S
C1587 C1584 1.403 . S
C1587 C1588 1.524 . S
C1587 C1591 1.400 . S
C1588 H1573 0.960 . S
C1588 H1574 0.960 . S
C1588 H1575 0.960 . S
C1588 C1587 1.524 . S
C1589 C1586 1.403 . S
C1589 C1590 1.392 . S
C1589 C1593 1.495 . S
C1590 C1589 1.392 . S
C1590 C1591 1.385 . S
C1590 C1592 1.478 . S
C1591 H1585 0.930 . S
C1591 C1587 1.400 . S
C1591 C1590 1.385 . S
C1592 C1590 1.478 . S
C1592 C1594 1.381 . S
C1592 C1598 1.383 . S
C1593 C1589 1.495 . S
C1593 H1599 0.959 . S
C1593 H1600 0.961 . S
C1593 H1601 0.960 . S
C1594 C1592 1.381 . S
C1594 C1595 1.394 . S
C1594 H1602 0.930 . S
C1595 C1594 1.394 . S
C1595 C1596 1.383 . S
C1595 H1603 0.929 . S
C1596 C1595 1.383 . S
C1596 C1597 1.377 . S
C1597 H1581 0.930 . S
C1597 C1596 1.377 . S
C1597 C1598 1.379 . S
C1598 H1582 0.931 . S
C1598 C1592 1.383 . S
C1598 C1597 1.379 . S
H1599 C1593 0.959 . S
H1600 C1593 0.961 . S
H1601 C1593 0.960 . S
H1602 C1594 0.930 . S
H1603 C1595 0.929 . S
H1604 C1612 0.929 . S
H1605 C1614 0.930 . S
H1606 C1616 0.930 . S
H1607 C1619 0.929 . S
H1608 C1622 0.930 . S
H1609 C1624 0.960 . S
H1610 C1624 0.960 . S
H1611 C1624 0.960 . S
C1612 H1604 0.929 . S
C1612 C1613 1.377 . S
C1612 C1614 1.384 . S
C1613 C1612 1.377 . S
C1613 C1619 1.390 . S
C1614 H1605 0.930 . S
C1614 C1612 1.384 . S
C1614 C1615 1.372 . S
C1615 C1614 1.372 . S
C1615 C1616 1.400 . S
C1615 C1620 1.490 . S
C1616 H1606 0.930 . S
C1616 C1615 1.400 . S
C1616 C1619 1.386 . S
H1617 C1633 0.930 . S
H1618 C1634 0.931 . S
C1619 H1607 0.929 . S
C1619 C1613 1.390 . S
C1619 C1616 1.386 . S
C1620 C1615 1.490 . S
C1620 C1622 1.395 . S
C1620 C1623 1.403 . S
H1621 C1627 0.930 . S
C1622 H1608 0.930 . S
C1622 C1620 1.395 . S
C1622 C1625 1.403 . S
C1623 C1620 1.403 . S
C1623 C1624 1.524 . S
C1623 C1627 1.400 . S
C1624 H1609 0.960 . S
C1624 H1610 0.960 . S
C1624 H1611 0.960 . S
C1624 C1623 1.524 . S
C1625 C1622 1.403 . S
C1625 C1626 1.392 . S
C1625 C1629 1.495 . S
C1626 C1625 1.392 . S
C1626 C1627 1.385 . S
C1626 C1628 1.478 . S
C1627 H1621 0.930 . S
C1627 C1623 1.400 . S
C1627 C1626 1.385 . S
C1628 C1626 1.478 . S
C1628 C1630 1.381 . S
C1628 C1634 1.383 . S
C1629 C1625 1.495 . S
C1629 H1635 0.959 . S
C1629 H1636 0.961 . S
C1629 H1637 0.960 . S
C1630 C1628 1.381 . S
C1630 C1631 1.394 . S
C1630 H1638 0.930 . S
C1631 C1630 1.394 . S
C1631 C1632 1.383 . S
C1631 H1639 0.929 . S
C1632 C1631 1.383 . S
C1632 C1633 1.377 . S
C1633 H1617 0.930 . S
C1633 C1632 1.377 . S
C1633 C1634 1.379 . S
C1634 H1618 0.931 . S
C1634 C1628 1.383 . S
C1634 C1633 1.379 . S
H1635 C1629 0.959 . S
H1636 C1629 0.961 . S
H1637 C1629 0.960 . S
H1638 C1630 0.930 . S
H1639 C1631 0.929 . S
H1640 C1648 0.929 . S
H1641 C1650 0.930 . S
H1642 C1652 0.930 . S
H1643 C1655 0.929 . S
H1644 C1658 0.930 . S
H1645 C1660 0.960 . S
H1646 C1660 0.960 . S
H1647 C1660 0.960 . S
C1648 H1640 0.929 . S
C1648 C1649 1.377 . S
C1648 C1650 1.384 . S
C1649 C1648 1.377 . S
C1649 C1655 1.390 . S
C1650 H1641 0.930 . S
C1650 C1648 1.384 . S
C1650 C1651 1.372 . S
C1651 C1650 1.372 . S
C1651 C1652 1.400 . S
C1651 C1656 1.490 . S
C1652 H1642 0.930 . S
C1652 C1651 1.400 . S
C1652 C1655 1.386 . S
H1653 C1669 0.930 . S
H1654 C1670 0.931 . S
C1655 H1643 0.929 . S
C1655 C1649 1.390 . S
C1655 C1652 1.386 . S
C1656 C1651 1.490 . S
C1656 C1658 1.395 . S
C1656 C1659 1.403 . S
H1657 C1663 0.930 . S
C1658 H1644 0.930 . S
C1658 C1656 1.395 . S
C1658 C1661 1.403 . S
C1659 C1656 1.403 . S
C1659 C1660 1.524 . S
C1659 C1663 1.400 . S
C1660 H1645 0.960 . S
C1660 H1646 0.960 . S
C1660 H1647 0.960 . S
C1660 C1659 1.524 . S
C1661 C1658 1.403 . S
C1661 C1662 1.392 . S
C1661 C1665 1.495 . S
C1662 C1661 1.392 . S
C1662 C1663 1.385 . S
C1662 C1664 1.478 . S
C1663 H1657 0.930 . S
C1663 C1659 1.400 . S
C1663 C1662 1.385 . S
C1664 C1662 1.478 . S
C1664 C1666 1.381 . S
C1664 C1670 1.383 . S
C1665 C1661 1.495 . S
C1665 H1671 0.959 . S
C1665 H1672 0.961 . S
C1665 H1673 0.960 . S
C1666 C1664 1.381 . S
C1666 C1667 1.394 . S
C1666 H1674 0.930 . S
C1667 C1666 1.394 . S
C1667 C1668 1.383 . S
C1667 H1675 0.929 . S
C1668 C1667 1.383 . S
C1668 C1669 1.377 . S
C1669 H1653 0.930 . S
C1669 C1668 1.377 . S
C1669 C1670 1.379 . S
C1670 H1654 0.931 . S
C1670 C1664 1.383 . S
C1670 C1669 1.379 . S
H1671 C1665 0.959 . S
H1672 C1665 0.961 . S
H1673 C1665 0.960 . S
H1674 C1666 0.930 . S
H1675 C1667 0.929 . S
H1676 C1684 0.929 . S
H1677 C1686 0.930 . S
H1678 C1688 0.930 . S
H1679 C1691 0.929 . S
H1680 C1694 0.930 . S
H1681 C1696 0.960 . S
H1682 C1696 0.960 . S
H1683 C1696 0.960 . S
C1684 H1676 0.929 . S
C1684 C1685 1.377 . S
C1684 C1686 1.384 . S
C1685 C1684 1.377 . S
C1685 C1691 1.390 . S
C1686 H1677 0.930 . S
C1686 C1684 1.384 . S
C1686 C1687 1.372 . S
C1687 C1686 1.372 . S
C1687 C1688 1.400 . S
C1687 C1692 1.490 . S
C1688 H1678 0.930 . S
C1688 C1687 1.400 . S
C1688 C1691 1.386 . S
H1689 C1705 0.930 . S
H1690 C1706 0.931 . S
C1691 H1679 0.929 . S
C1691 C1685 1.390 . S
C1691 C1688 1.386 . S
C1692 C1687 1.490 . S
C1692 C1694 1.395 . S
C1692 C1695 1.403 . S
H1693 C1699 0.930 . S
C1694 H1680 0.930 . S
C1694 C1692 1.395 . S
C1694 C1697 1.403 . S
C1695 C1692 1.403 . S
C1695 C1696 1.524 . S
C1695 C1699 1.400 . S
C1696 H1681 0.960 . S
C1696 H1682 0.960 . S
C1696 H1683 0.960 . S
C1696 C1695 1.524 . S
C1697 C1694 1.403 . S
C1697 C1698 1.392 . S
C1697 C1701 1.495 . S
C1698 C1697 1.392 . S
C1698 C1699 1.385 . S
C1698 C1700 1.478 . S
C1699 H1693 0.930 . S
C1699 C1695 1.400 . S
C1699 C1698 1.385 . S
C1700 C1698 1.478 . S
C1700 C1702 1.381 . S
C1700 C1706 1.383 . S
C1701 C1697 1.495 . S
C1701 H1707 0.959 . S
C1701 H1708 0.961 . S
C1701 H1709 0.960 . S
C1702 C1700 1.381 . S
C1702 C1703 1.394 . S
C1702 H1710 0.930 . S
C1703 C1702 1.394 . S
C1703 C1704 1.383 . S
C1703 H1711 0.929 . S
C1704 C1703 1.383 . S
C1704 C1705 1.377 . S
C1705 H1689 0.930 . S
C1705 C1704 1.377 . S
C1705 C1706 1.379 . S
C1706 H1690 0.931 . S
C1706 C1700 1.383 . S
C1706 C1705 1.379 . S
H1707 C1701 0.959 . S
H1708 C1701 0.961 . S
H1709 C1701 0.960 . S
H1710 C1702 0.930 . S
H1711 C1703 0.929 . S
H1712 C1720 0.929 . S
H1713 C1722 0.930 . S
H1714 C1724 0.930 . S
H1715 C1727 0.929 . S
H1716 C1730 0.930 . S
H1717 C1732 0.960 . S
H1718 C1732 0.960 . S
H1719 C1732 0.960 . S
C1720 H1712 0.929 . S
C1720 C1721 1.377 . S
C1720 C1722 1.384 . S
C1721 C1720 1.377 . S
C1721 C1727 1.390 . S
C1722 H1713 0.930 . S
C1722 C1720 1.384 . S
C1722 C1723 1.372 . S
C1723 C1722 1.372 . S
C1723 C1724 1.400 . S
C1723 C1728 1.490 . S
C1724 H1714 0.930 . S
C1724 C1723 1.400 . S
C1724 C1727 1.386 . S
H1725 C1741 0.930 . S
H1726 C1742 0.931 . S
C1727 H1715 0.929 . S
C1727 C1721 1.390 . S
C1727 C1724 1.386 . S
C1728 C1723 1.490 . S
C1728 C1730 1.395 . S
C1728 C1731 1.403 . S
H1729 C1735 0.930 . S
C1730 H1716 0.930 . S
C1730 C1728 1.395 . S
C1730 C1733 1.403 . S
C1731 C1728 1.403 . S
C1731 C1732 1.524 . S
C1731 C1735 1.400 . S
C1732 H1717 0.960 . S
C1732 H1718 0.960 . S
C1732 H1719 0.960 . S
C1732 C1731 1.524 . S
C1733 C1730 1.403 . S
C1733 C1734 1.392 . S
C1733 C1737 1.495 . S
C1734 C1733 1.392 . S
C1734 C1735 1.385 . S
C1734 C1736 1.478 . S
C1735 H1729 0.930 . S
C1735 C1731 1.400 . S
C1735 C1734 1.385 . S
C1736 C1734 1.478 . S
C1736 C1738 1.381 . S
C1736 C1742 1.383 . S
C1737 C1733 1.495 . S
C1737 H1743 0.959 . S
C1737 H1744 0.961 . S
C1737 H1745 0.960 . S
C1738 C1736 1.381 . S
C1738 C1739 1.394 . S
C1738 H1746 0.930 . S
C1739 C1738 1.394 . S
C1739 C1740 1.383 . S
C1739 H1747 0.929 . S
C1740 C1739 1.383 . S
C1740 C1741 1.377 . S
C1741 H1725 0.930 . S
C1741 C1740 1.377 . S
C1741 C1742 1.379 . S
C1742 H1726 0.931 . S
C1742 C1736 1.383 . S
C1742 C1741 1.379 . S
H1743 C1737 0.959 . S
H1744 C1737 0.961 . S
H1745 C1737 0.960 . S
H1746 C1738 0.930 . S
H1747 C1739 0.929 . S
H1748 C1756 0.929 . S
H1749 C1758 0.930 . S
H1750 C1760 0.930 . S
H1751 C1763 0.929 . S
H1752 C1766 0.930 . S
H1753 C1768 0.960 . S
H1754 C1768 0.960 . S
H1755 C1768 0.960 . S
C1756 H1748 0.929 . S
C1756 C1757 1.377 . S
C1756 C1758 1.384 . S
C1757 C1756 1.377 . S
C1757 C1763 1.390 . S
C1758 H1749 0.930 . S
C1758 C1756 1.384 . S
C1758 C1759 1.372 . S
C1759 C1758 1.372 . S
C1759 C1760 1.400 . S
C1759 C1764 1.490 . S
C1760 H1750 0.930 . S
C1760 C1759 1.400 . S
C1760 C1763 1.386 . S
H1761 C1777 0.930 . S
H1762 C1778 0.931 . S
C1763 H1751 0.929 . S
C1763 C1757 1.390 . S
C1763 C1760 1.386 . S
C1764 C1759 1.490 . S
C1764 C1766 1.395 . S
C1764 C1767 1.403 . S
H1765 C1771 0.930 . S
C1766 H1752 0.930 . S
C1766 C1764 1.395 . S
C1766 C1769 1.403 . S
C1767 C1764 1.403 . S
C1767 C1768 1.524 . S
C1767 C1771 1.400 . S
C1768 H1753 0.960 . S
C1768 H1754 0.960 . S
C1768 H1755 0.960 . S
C1768 C1767 1.524 . S
C1769 C1766 1.403 . S
C1769 C1770 1.392 . S
C1769 C1773 1.495 . S
C1770 C1769 1.392 . S
C1770 C1771 1.385 . S
C1770 C1772 1.478 . S
C1771 H1765 0.930 . S
C1771 C1767 1.400 . S
C1771 C1770 1.385 . S
C1772 C1770 1.478 . S
C1772 C1774 1.381 . S
C1772 C1778 1.383 . S
C1773 C1769 1.495 . S
C1773 H1779 0.959 . S
C1773 H1780 0.961 . S
C1773 H1781 0.960 . S
C1774 C1772 1.381 . S
C1774 C1775 1.394 . S
C1774 H1782 0.930 . S
C1775 C1774 1.394 . S
C1775 C1776 1.383 . S
C1775 H1783 0.929 . S
C1776 C1775 1.383 . S
C1776 C1777 1.377 . S
C1777 H1761 0.930 . S
C1777 C1776 1.377 . S
C1777 C1778 1.379 . S
C1778 H1762 0.931 . S
C1778 C1772 1.383 . S
C1778 C1777 1.379 . S
H1779 C1773 0.959 . S
H1780 C1773 0.961 . S
H1781 C1773 0.960 . S
H1782 C1774 0.930 . S
H1783 C1775 0.929 . S
H1784 C1792 0.929 . S
H1785 C1794 0.930 . S
H1786 C1796 0.930 . S
H1787 C1799 0.929 . S
H1788 C1802 0.930 . S
H1789 C1804 0.960 . S
H1790 C1804 0.960 . S
H1791 C1804 0.960 . S
C1792 H1784 0.929 . S
C1792 C1793 1.377 . S
C1792 C1794 1.384 . S
C1793 C1792 1.377 . S
C1793 C1799 1.390 . S
C1794 H1785 0.930 . S
C1794 C1792 1.384 . S
C1794 C1795 1.372 . S
C1795 C1794 1.372 . S
C1795 C1796 1.400 . S
C1795 C1800 1.490 . S
C1796 H1786 0.930 . S
C1796 C1795 1.400 . S
C1796 C1799 1.386 . S
H1797 C1813 0.930 . S
H1798 C1814 0.931 . S
C1799 H1787 0.929 . S
C1799 C1793 1.390 . S
C1799 C1796 1.386 . S
C1800 C1795 1.490 . S
C1800 C1802 1.395 . S
C1800 C1803 1.403 . S
H1801 C1807 0.930 . S
C1802 H1788 0.930 . S
C1802 C1800 1.395 . S
C1802 C1805 1.403 . S
C1803 C1800 1.403 . S
C1803 C1804 1.524 . S
C1803 C1807 1.400 . S
C1804 H1789 0.960 . S
C1804 H1790 0.960 . S
C1804 H1791 0.960 . S
C1804 C1803 1.524 . S
C1805 C1802 1.403 . S
C1805 C1806 1.392 . S
C1805 C1809 1.495 . S
C1806 C1805 1.392 . S
C1806 C1807 1.385 . S
C1806 C1808 1.478 . S
C1807 H1801 0.930 . S
C1807 C1803 1.400 . S
C1807 C1806 1.385 . S
C1808 C1806 1.478 . S
C1808 C1810 1.381 . S
C1808 C1814 1.383 . S
C1809 C1805 1.495 . S
C1809 H1815 0.959 . S
C1809 H1816 0.961 . S
C1809 H1817 0.960 . S
C1810 C1808 1.381 . S
C1810 C1811 1.394 . S
C1810 H1818 0.930 . S
C1811 C1810 1.394 . S
C1811 C1812 1.383 . S
C1811 H1819 0.929 . S
C1812 C1811 1.383 . S
C1812 C1813 1.377 . S
C1813 H1797 0.930 . S
C1813 C1812 1.377 . S
C1813 C1814 1.379 . S
C1814 H1798 0.931 . S
C1814 C1808 1.383 . S
C1814 C1813 1.379 . S
H1815 C1809 0.959 . S
H1816 C1809 0.961 . S
H1817 C1809 0.960 . S
H1818 C1810 0.930 . S
H1819 C1811 0.929 . S
H1820 C1828 0.929 . S
H1821 C1830 0.930 . S
H1822 C1832 0.930 . S
H1823 C1835 0.929 . S
H1824 C1838 0.930 . S
H1825 C1840 0.960 . S
H1826 C1840 0.960 . S
H1827 C1840 0.960 . S
C1828 H1820 0.929 . S
C1828 C1829 1.377 . S
C1828 C1830 1.384 . S
C1829 C1828 1.377 . S
C1829 C1835 1.390 . S
C1830 H1821 0.930 . S
C1830 C1828 1.384 . S
C1830 C1831 1.372 . S
C1831 C1830 1.372 . S
C1831 C1832 1.400 . S
C1831 C1836 1.490 . S
C1832 H1822 0.930 . S
C1832 C1831 1.400 . S
C1832 C1835 1.386 . S
H1833 C1849 0.930 . S
H1834 C1850 0.931 . S
C1835 H1823 0.929 . S
C1835 C1829 1.390 . S
C1835 C1832 1.386 . S
C1836 C1831 1.490 . S
C1836 C1838 1.395 . S
C1836 C1839 1.403 . S
H1837 C1843 0.930 . S
C1838 H1824 0.930 . S
C1838 C1836 1.395 . S
C1838 C1841 1.403 . S
C1839 C1836 1.403 . S
C1839 C1840 1.524 . S
C1839 C1843 1.400 . S
C1840 H1825 0.960 . S
C1840 H1826 0.960 . S
C1840 H1827 0.960 . S
C1840 C1839 1.524 . S
C1841 C1838 1.403 . S
C1841 C1842 1.392 . S
C1841 C1845 1.495 . S
C1842 C1841 1.392 . S
C1842 C1843 1.385 . S
C1842 C1844 1.478 . S
C1843 H1837 0.930 . S
C1843 C1839 1.400 . S
C1843 C1842 1.385 . S
C1844 C1842 1.478 . S
C1844 C1846 1.381 . S
C1844 C1850 1.383 . S
C1845 C1841 1.495 . S
C1845 H1851 0.959 . S
C1845 H1852 0.961 . S
C1845 H1853 0.960 . S
C1846 C1844 1.381 . S
C1846 C1847 1.394 . S
C1846 H1854 0.930 . S
C1847 C1846 1.394 . S
C1847 C1848 1.383 . S
C1847 H1855 0.929 . S
C1848 C1847 1.383 . S
C1848 C1849 1.377 . S
C1849 H1833 0.930 . S
C1849 C1848 1.377 . S
C1849 C1850 1.379 . S
C1850 H1834 0.931 . S
C1850 C1844 1.383 . S
C1850 C1849 1.379 . S
H1851 C1845 0.959 . S
H1852 C1845 0.961 . S
H1853 C1845 0.960 . S
H1854 C1846 0.930 . S
H1855 C1847 0.929 . S
H1856 C1864 0.929 . S
H1857 C1866 0.930 . S
H1858 C1868 0.930 . S
H1859 C1871 0.929 . S
H1860 C1874 0.930 . S
H1861 C1876 0.960 . S
H1862 C1876 0.960 . S
H1863 C1876 0.960 . S
C1864 H1856 0.929 . S
C1864 C1865 1.377 . S
C1864 C1866 1.384 . S
C1865 C1864 1.377 . S
C1865 C1871 1.390 . S
C1866 H1857 0.930 . S
C1866 C1864 1.384 . S
C1866 C1867 1.372 . S
C1867 C1866 1.372 . S
C1867 C1868 1.400 . S
C1867 C1872 1.490 . S
C1868 H1858 0.930 . S
C1868 C1867 1.400 . S
C1868 C1871 1.386 . S
H1869 C1885 0.930 . S
H1870 C1886 0.931 . S
C1871 H1859 0.929 . S
C1871 C1865 1.390 . S
C1871 C1868 1.386 . S
C1872 C1867 1.490 . S
C1872 C1874 1.395 . S
C1872 C1875 1.403 . S
H1873 C1879 0.930 . S
C1874 H1860 0.930 . S
C1874 C1872 1.395 . S
C1874 C1877 1.403 . S
C1875 C1872 1.403 . S
C1875 C1876 1.524 . S
C1875 C1879 1.400 . S
C1876 H1861 0.960 . S
C1876 H1862 0.960 . S
C1876 H1863 0.960 . S
C1876 C1875 1.524 . S
C1877 C1874 1.403 . S
C1877 C1878 1.392 . S
C1877 C1881 1.495 . S
C1878 C1877 1.392 . S
C1878 C1879 1.385 . S
C1878 C1880 1.478 . S
C1879 H1873 0.930 . S
C1879 C1875 1.400 . S
C1879 C1878 1.385 . S
C1880 C1878 1.478 . S
C1880 C1882 1.381 . S
C1880 C1886 1.383 . S
C1881 C1877 1.495 . S
C1881 H1887 0.959 . S
C1881 H1888 0.961 . S
C1881 H1889 0.960 . S
C1882 C1880 1.381 . S
C1882 C1883 1.394 . S
C1882 H1890 0.930 . S
C1883 C1882 1.394 . S
C1883 C1884 1.383 . S
C1883 H1891 0.929 . S
C1884 C1883 1.383 . S
C1884 C1885 1.377 . S
C1885 H1869 0.930 . S
C1885 C1884 1.377 . S
C1885 C1886 1.379 . S
C1886 H1870 0.931 . S
C1886 C1880 1.383 . S
C1886 C1885 1.379 . S
H1887 C1881 0.959 . S
H1888 C1881 0.961 . S
H1889 C1881 0.960 . S
H1890 C1882 0.930 . S
H1891 C1883 0.929 . S
H1892 C1900 0.929 . S
H1893 C1902 0.930 . S
H1894 C1904 0.930 . S
H1895 C1907 0.929 . S
H1896 C1910 0.930 . S
H1897 C1912 0.960 . S
H1898 C1912 0.960 . S
H1899 C1912 0.960 . S
C1900 H1892 0.929 . S
C1900 C1901 1.377 . S
C1900 C1902 1.384 . S
C1901 C1900 1.377 . S
C1901 C1907 1.390 . S
C1902 H1893 0.930 . S
C1902 C1900 1.384 . S
C1902 C1903 1.372 . S
C1903 C1902 1.372 . S
C1903 C1904 1.400 . S
C1903 C1908 1.490 . S
C1904 H1894 0.930 . S
C1904 C1903 1.400 . S
C1904 C1907 1.386 . S
H1905 C1921 0.930 . S
H1906 C1922 0.931 . S
C1907 H1895 0.929 . S
C1907 C1901 1.390 . S
C1907 C1904 1.386 . S
C1908 C1903 1.490 . S
C1908 C1910 1.395 . S
C1908 C1911 1.403 . S
H1909 C1915 0.930 . S
C1910 H1896 0.930 . S
C1910 C1908 1.395 . S
C1910 C1913 1.403 . S
C1911 C1908 1.403 . S
C1911 C1912 1.524 . S
C1911 C1915 1.400 . S
C1912 H1897 0.960 . S
C1912 H1898 0.960 . S
C1912 H1899 0.960 . S
C1912 C1911 1.524 . S
C1913 C1910 1.403 . S
C1913 C1914 1.392 . S
C1913 C1917 1.495 . S
C1914 C1913 1.392 . S
C1914 C1915 1.385 . S
C1914 C1916 1.478 . S
C1915 H1909 0.930 . S
C1915 C1911 1.400 . S
C1915 C1914 1.385 . S
C1916 C1914 1.478 . S
C1916 C1918 1.381 . S
C1916 C1922 1.383 . S
C1917 C1913 1.495 . S
C1917 H1923 0.959 . S
C1917 H1924 0.961 . S
C1917 H1925 0.960 . S
C1918 C1916 1.381 . S
C1918 C1919 1.394 . S
C1918 H1926 0.930 . S
C1919 C1918 1.394 . S
C1919 C1920 1.383 . S
C1919 H1927 0.929 . S
C1920 C1919 1.383 . S
C1920 C1921 1.377 . S
C1921 H1905 0.930 . S
C1921 C1920 1.377 . S
C1921 C1922 1.379 . S
C1922 H1906 0.931 . S
C1922 C1916 1.383 . S
C1922 C1921 1.379 . S
H1923 C1917 0.959 . S
H1924 C1917 0.961 . S
H1925 C1917 0.960 . S
H1926 C1918 0.930 . S
H1927 C1919 0.929 . S
H1928 C1936 0.929 . S
H1929 C1938 0.930 . S
H1930 C1940 0.930 . S
H1931 C1943 0.929 . S
H1932 C1946 0.930 . S
H1933 C1948 0.960 . S
H1934 C1948 0.960 . S
H1935 C1948 0.960 . S
C1936 H1928 0.929 . S
C1936 C1937 1.377 . S
C1936 C1938 1.384 . S
C1937 C1936 1.377 . S
C1937 C1943 1.390 . S
C1938 H1929 0.930 . S
C1938 C1936 1.384 . S
C1938 C1939 1.372 . S
C1939 C1938 1.372 . S
C1939 C1940 1.400 . S
C1939 C1944 1.490 . S
C1940 H1930 0.930 . S
C1940 C1939 1.400 . S
C1940 C1943 1.386 . S
H1941 C1957 0.930 . S
H1942 C1958 0.931 . S
C1943 H1931 0.929 . S
C1943 C1937 1.390 . S
C1943 C1940 1.386 . S
C1944 C1939 1.490 . S
C1944 C1946 1.395 . S
C1944 C1947 1.403 . S
H1945 C1951 0.930 . S
C1946 H1932 0.930 . S
C1946 C1944 1.395 . S
C1946 C1949 1.403 . S
C1947 C1944 1.403 . S
C1947 C1948 1.524 . S
C1947 C1951 1.400 . S
C1948 H1933 0.960 . S
C1948 H1934 0.960 . S
C1948 H1935 0.960 . S
C1948 C1947 1.524 . S
C1949 C1946 1.403 . S
C1949 C1950 1.392 . S
C1949 C1953 1.495 . S
C1950 C1949 1.392 . S
C1950 C1951 1.385 . S
C1950 C1952 1.478 . S
C1951 H1945 0.930 . S
C1951 C1947 1.400 . S
C1951 C1950 1.385 . S
C1952 C1950 1.478 . S
C1952 C1954 1.381 . S
C1952 C1958 1.383 . S
C1953 C1949 1.495 . S
C1953 H1959 0.959 . S
C1953 H1960 0.961 . S
C1953 H1961 0.960 . S
C1954 C1952 1.381 . S
C1954 C1955 1.394 . S
C1954 H1962 0.930 . S
C1955 C1954 1.394 . S
C1955 C1956 1.383 . S
C1955 H1963 0.929 . S
C1956 C1955 1.383 . S
C1956 C1957 1.377 . S
C1957 H1941 0.930 . S
C1957 C1956 1.377 . S
C1957 C1958 1.379 . S
C1958 H1942 0.931 . S
C1958 C1952 1.383 . S
C1958 C1957 1.379 . S
H1959 C1953 0.959 . S
H1960 C1953 0.961 . S
H1961 C1953 0.960 . S
H1962 C1954 0.930 . S
H1963 C1955 0.929 . S
H1964 C1972 0.929 . S
H1965 C1974 0.930 . S
H1966 C1976 0.930 . S
H1967 C1979 0.929 . S
H1968 C1982 0.930 . S
H1969 C1984 0.960 . S
H1970 C1984 0.960 . S
H1971 C1984 0.960 . S
C1972 H1964 0.929 . S
C1972 C1973 1.377 . S
C1972 C1974 1.384 . S
C1973 C1972 1.377 . S
C1973 C1979 1.390 . S
C1974 H1965 0.930 . S
C1974 C1972 1.384 . S
C1974 C1975 1.372 . S
C1975 C1974 1.372 . S
C1975 C1976 1.400 . S
C1975 C1980 1.490 . S
C1976 H1966 0.930 . S
C1976 C1975 1.400 . S
C1976 C1979 1.386 . S
H1977 C1993 0.930 . S
H1978 C1994 0.931 . S
C1979 H1967 0.929 . S
C1979 C1973 1.390 . S
C1979 C1976 1.386 . S
C1980 C1975 1.490 . S
C1980 C1982 1.395 . S
C1980 C1983 1.403 . S
H1981 C1987 0.930 . S
C1982 H1968 0.930 . S
C1982 C1980 1.395 . S
C1982 C1985 1.403 . S
C1983 C1980 1.403 . S
C1983 C1984 1.524 . S
C1983 C1987 1.400 . S
C1984 H1969 0.960 . S
C1984 H1970 0.960 . S
C1984 H1971 0.960 . S
C1984 C1983 1.524 . S
C1985 C1982 1.403 . S
C1985 C1986 1.392 . S
C1985 C1989 1.495 . S
C1986 C1985 1.392 . S
C1986 C1987 1.385 . S
C1986 C1988 1.478 . S
C1987 H1981 0.930 . S
C1987 C1983 1.400 . S
C1987 C1986 1.385 . S
C1988 C1986 1.478 . S
C1988 C1990 1.381 . S
C1988 C1994 1.383 . S
C1989 C1985 1.495 . S
C1989 H1995 0.959 . S
C1989 H1996 0.961 . S
C1989 H1997 0.960 . S
C1990 C1988 1.381 . S
C1990 C1991 1.394 . S
C1990 H1998 0.930 . S
C1991 C1990 1.394 . S
C1991 C1992 1.383 . S
C1991 H1999 0.929 . S
C1992 C1991 1.383 . S
C1992 C1993 1.377 . S
C1993 H1977 0.930 . S
C1993 C1992 1.377 . S
C1993 C1994 1.379 . S
C1994 H1978 0.931 . S
C1994 C1988 1.383 . S
C1994 C1993 1.379 . S
H1995 C1989 0.959 . S
H1996 C1989 0.961 . S
H1997 C1989 0.960 . S
H1998 C1990 0.930 . S
H1999 C1991 0.929 . S
H2000 C2008 0.929 . S
H2001 C2010 0.930 . S
H2002 C2012 0.930 . S
H2003 C2015 0.929 . S
H2004 C2018 0.930 . S
H2005 C2020 0.960 . S
H2006 C2020 0.960 . S
H2007 C2020 0.960 . S
C2008 H2000 0.929 . S
C2008 C2009 1.377 . S
C2008 C2010 1.384 . S
C2009 C2008 1.377 . S
C2009 C2015 1.390 . S
C2010 H2001 0.930 . S
C2010 C2008 1.384 . S
C2010 C2011 1.372 . S
C2011 C2010 1.372 . S
C2011 C2012 1.400 . S
C2011 C2016 1.490 . S
C2012 H2002 0.930 . S
C2012 C2011 1.400 . S
C2012 C2015 1.386 . S
H2013 C2029 0.930 . S
H2014 C2030 0.931 . S
C2015 H2003 0.929 . S
C2015 C2009 1.390 . S
C2015 C2012 1.386 . S
C2016 C2011 1.490 . S
C2016 C2018 1.395 . S
C2016 C2019 1.403 . S
H2017 C2023 0.930 . S
C2018 H2004 0.930 . S
C2018 C2016 1.395 . S
C2018 C2021 1.403 . S
C2019 C2016 1.403 . S
C2019 C2020 1.524 . S
C2019 C2023 1.400 . S
C2020 H2005 0.960 . S
C2020 H2006 0.960 . S
C2020 H2007 0.960 . S
C2020 C2019 1.524 . S
C2021 C2018 1.403 . S
C2021 C2022 1.392 . S
C2021 C2025 1.495 . S
C2022 C2021 1.392 . S
C2022 C2023 1.385 . S
C2022 C2024 1.478 . S
C2023 H2017 0.930 . S
C2023 C2019 1.400 . S
C2023 C2022 1.385 . S
C2024 C2022 1.478 . S
C2024 C2026 1.381 . S
C2024 C2030 1.383 . S
C2025 C2021 1.495 . S
C2025 H2031 0.959 . S
C2025 H2032 0.961 . S
C2025 H2033 0.960 . S
C2026 C2024 1.381 . S
C2026 C2027 1.394 . S
C2026 H2034 0.930 . S
C2027 C2026 1.394 . S
C2027 C2028 1.383 . S
C2027 H2035 0.929 . S
C2028 C2027 1.383 . S
C2028 C2029 1.377 . S
C2029 H2013 0.930 . S
C2029 C2028 1.377 . S
C2029 C2030 1.379 . S
C2030 H2014 0.931 . S
C2030 C2024 1.383 . S
C2030 C2029 1.379 . S
H2031 C2025 0.959 . S
H2032 C2025 0.961 . S
H2033 C2025 0.960 . S
H2034 C2026 0.930 . S
H2035 C2027 0.929 . S
H2036 C2044 0.929 . S
H2037 C2046 0.930 . S
H2038 C2048 0.930 . S
H2039 C2051 0.929 . S
H2040 C2054 0.930 . S
H2041 C2056 0.960 . S
H2042 C2056 0.960 . S
H2043 C2056 0.960 . S
C2044 H2036 0.929 . S
C2044 C2045 1.377 . S
C2044 C2046 1.384 . S
C2045 C2044 1.377 . S
C2045 C2051 1.390 . S
C2046 H2037 0.930 . S
C2046 C2044 1.384 . S
C2046 C2047 1.372 . S
C2047 C2046 1.372 . S
C2047 C2048 1.400 . S
C2047 C2052 1.490 . S
C2048 H2038 0.930 . S
C2048 C2047 1.400 . S
C2048 C2051 1.386 . S
H2049 C2065 0.930 . S
H2050 C2066 0.931 . S
C2051 H2039 0.929 . S
C2051 C2045 1.390 . S
C2051 C2048 1.386 . S
C2052 C2047 1.490 . S
C2052 C2054 1.395 . S
C2052 C2055 1.403 . S
H2053 C2059 0.930 . S
C2054 H2040 0.930 . S
C2054 C2052 1.395 . S
C2054 C2057 1.403 . S
C2055 C2052 1.403 . S
C2055 C2056 1.524 . S
C2055 C2059 1.400 . S
C2056 H2041 0.960 . S
C2056 H2042 0.960 . S
C2056 H2043 0.960 . S
C2056 C2055 1.524 . S
C2057 C2054 1.403 . S
C2057 C2058 1.392 . S
C2057 C2061 1.495 . S
C2058 C2057 1.392 . S
C2058 C2059 1.385 . S
C2058 C2060 1.478 . S
C2059 H2053 0.930 . S
C2059 C2055 1.400 . S
C2059 C2058 1.385 . S
C2060 C2058 1.478 . S
C2060 C2062 1.381 . S
C2060 C2066 1.383 . S
C2061 C2057 1.495 . S
C2061 H2067 0.959 . S
C2061 H2068 0.961 . S
C2061 H2069 0.960 . S
C2062 C2060 1.381 . S
C2062 C2063 1.394 . S
C2062 H2070 0.930 . S
C2063 C2062 1.394 . S
C2063 C2064 1.383 . S
C2063 H2071 0.929 . S
C2064 C2063 1.383 . S
C2064 C2065 1.377 . S
C2065 H2049 0.930 . S
C2065 C2064 1.377 . S
C2065 C2066 1.379 . S
C2066 H2050 0.931 . S
C2066 C2060 1.383 . S
C2066 C2065 1.379 . S
H2067 C2061 0.959 . S
H2068 C2061 0.961 . S
H2069 C2061 0.960 . S
H2070 C2062 0.930 . S
H2071 C2063 0.929 . S
H2072 C2080 0.929 . S
H2073 C2082 0.930 . S
H2074 C2084 0.930 . S
H2075 C2087 0.929 . S
H2076 C2090 0.930 . S
H2077 C2092 0.960 . S
H2078 C2092 0.960 . S
H2079 C2092 0.960 . S
C2080 H2072 0.929 . S
C2080 C2081 1.377 . S
C2080 C2082 1.384 . S
C2081 C2080 1.377 . S
C2081 C2087 1.390 . S
C2082 H2073 0.930 . S
C2082 C2080 1.384 . S
C2082 C2083 1.372 . S
C2083 C2082 1.372 . S
C2083 C2084 1.400 . S
C2083 C2088 1.490 . S
C2084 H2074 0.930 . S
C2084 C2083 1.400 . S
C2084 C2087 1.386 . S
H2085 C2101 0.930 . S
H2086 C2102 0.931 . S
C2087 H2075 0.929 . S
C2087 C2081 1.390 . S
C2087 C2084 1.386 . S
C2088 C2083 1.490 . S
C2088 C2090 1.395 . S
C2088 C2091 1.403 . S
H2089 C2095 0.930 . S
C2090 H2076 0.930 . S
C2090 C2088 1.395 . S
C2090 C2093 1.403 . S
C2091 C2088 1.403 . S
C2091 C2092 1.524 . S
C2091 C2095 1.400 . S
C2092 H2077 0.960 . S
C2092 H2078 0.960 . S
C2092 H2079 0.960 . S
C2092 C2091 1.524 . S
C2093 C2090 1.403 . S
C2093 C2094 1.392 . S
C2093 C2097 1.495 . S
C2094 C2093 1.392 . S
C2094 C2095 1.385 . S
C2094 C2096 1.478 . S
C2095 H2089 0.930 . S
C2095 C2091 1.400 . S
C2095 C2094 1.385 . S
C2096 C2094 1.478 . S
C2096 C2098 1.381 . S
C2096 C2102 1.383 . S
C2097 C2093 1.495 . S
C2097 H2103 0.959 . S
C2097 H2104 0.961 . S
C2097 H2105 0.960 . S
C2098 C2096 1.381 . S
C2098 C2099 1.394 . S
C2098 H2106 0.930 . S
C2099 C2098 1.394 . S
C2099 C2100 1.383 . S
C2099 H2107 0.929 . S
C2100 C2099 1.383 . S
C2100 C2101 1.377 . S
C2101 H2085 0.930 . S
C2101 C2100 1.377 . S
C2101 C2102 1.379 . S
C2102 H2086 0.931 . S
C2102 C2096 1.383 . S
C2102 C2101 1.379 . S
H2103 C2097 0.959 . S
H2104 C2097 0.961 . S
H2105 C2097 0.960 . S
H2106 C2098 0.930 . S
H2107 C2099 0.929 . S
H2108 C2116 0.929 . S
H2109 C2118 0.930 . S
H2110 C2120 0.930 . S
H2111 C2123 0.929 . S
H2112 C2126 0.930 . S
H2113 C2128 0.960 . S
H2114 C2128 0.960 . S
H2115 C2128 0.960 . S
C2116 H2108 0.929 . S
C2116 C2117 1.377 . S
C2116 C2118 1.384 . S
C2117 C2116 1.377 . S
C2117 C2123 1.390 . S
C2118 H2109 0.930 . S
C2118 C2116 1.384 . S
C2118 C2119 1.372 . S
C2119 C2118 1.372 . S
C2119 C2120 1.400 . S
C2119 C2124 1.490 . S
C2120 H2110 0.930 . S
C2120 C2119 1.400 . S
C2120 C2123 1.386 . S
H2121 C2137 0.930 . S
H2122 C2138 0.931 . S
C2123 H2111 0.929 . S
C2123 C2117 1.390 . S
C2123 C2120 1.386 . S
C2124 C2119 1.490 . S
C2124 C2126 1.395 . S
C2124 C2127 1.403 . S
H2125 C2131 0.930 . S
C2126 H2112 0.930 . S
C2126 C2124 1.395 . S
C2126 C2129 1.403 . S
C2127 C2124 1.403 . S
C2127 C2128 1.524 . S
C2127 C2131 1.400 . S
C2128 H2113 0.960 . S
C2128 H2114 0.960 . S
C2128 H2115 0.960 . S
C2128 C2127 1.524 . S
C2129 C2126 1.403 . S
C2129 C2130 1.392 . S
C2129 C2133 1.495 . S
C2130 C2129 1.392 . S
C2130 C2131 1.385 . S
C2130 C2132 1.478 . S
C2131 H2125 0.930 . S
C2131 C2127 1.400 . S
C2131 C2130 1.385 . S
C2132 C2130 1.478 . S
C2132 C2134 1.381 . S
C2132 C2138 1.383 . S
C2133 C2129 1.495 . S
C2133 H2139 0.959 . S
C2133 H2140 0.961 . S
C2133 H2141 0.960 . S
C2134 C2132 1.381 . S
C2134 C2135 1.394 . S
C2134 H2142 0.930 . S
C2135 C2134 1.394 . S
C2135 C2136 1.383 . S
C2135 H2143 0.929 . S
C2136 C2135 1.383 . S
C2136 C2137 1.377 . S
C2137 H2121 0.930 . S
C2137 C2136 1.377 . S
C2137 C2138 1.379 . S
C2138 H2122 0.931 . S
C2138 C2132 1.383 . S
C2138 C2137 1.379 . S
H2139 C2133 0.959 . S
H2140 C2133 0.961 . S
H2141 C2133 0.960 . S
H2142 C2134 0.930 . S
H2143 C2135 0.929 . S
H2144 C2152 0.929 . S
H2145 C2154 0.930 . S
H2146 C2156 0.930 . S
H2147 C2159 0.929 . S
H2148 C2162 0.930 . S
H2149 C2164 0.960 . S
H2150 C2164 0.960 . S
H2151 C2164 0.960 . S
C2152 H2144 0.929 . S
C2152 C2153 1.377 . S
C2152 C2154 1.384 . S
C2153 C2152 1.377 . S
C2153 C2159 1.390 . S
C2154 H2145 0.930 . S
C2154 C2152 1.384 . S
C2154 C2155 1.372 . S
C2155 C2154 1.372 . S
C2155 C2156 1.400 . S
C2155 C2160 1.490 . S
C2156 H2146 0.930 . S
C2156 C2155 1.400 . S
C2156 C2159 1.386 . S
H2157 C2173 0.930 . S
H2158 C2174 0.931 . S
C2159 H2147 0.929 . S
C2159 C2153 1.390 . S
C2159 C2156 1.386 . S
C2160 C2155 1.490 . S
C2160 C2162 1.395 . S
C2160 C2163 1.403 . S
H2161 C2167 0.930 . S
C2162 H2148 0.930 . S
C2162 C2160 1.395 . S
C2162 C2165 1.403 . S
C2163 C2160 1.403 . S
C2163 C2164 1.524 . S
C2163 C2167 1.400 . S
C2164 H2149 0.960 . S
C2164 H2150 0.960 . S
C2164 H2151 0.960 . S
C2164 C2163 1.524 . S
C2165 C2162 1.403 . S
C2165 C2166 1.392 . S
C2165 C2169 1.495 . S
C2166 C2165 1.392 . S
C2166 C2167 1.385 . S
C2166 C2168 1.478 . S
C2167 H2161 0.930 . S
C2167 C2163 1.400 . S
C2167 C2166 1.385 . S
C2168 C2166 1.478 . S
C2168 C2170 1.381 . S
C2168 C2174 1.383 . S
C2169 C2165 1.495 . S
C2169 H2175 0.959 . S
C2169 H2176 0.961 . S
C2169 H2177 0.960 . S
C2170 C2168 1.381 . S
C2170 C2171 1.394 . S
C2170 H2178 0.930 . S
C2171 C2170 1.394 . S
C2171 C2172 1.383 . S
C2171 H2179 0.929 . S
C2172 C2171 1.383 . S
C2172 C2173 1.377 . S
C2173 H2157 0.930 . S
C2173 C2172 1.377 . S
C2173 C2174 1.379 . S
C2174 H2158 0.931 . S
C2174 C2168 1.383 . S
C2174 C2173 1.379 . S
H2175 C2169 0.959 . S
H2176 C2169 0.961 . S
H2177 C2169 0.960 . S
H2178 C2170 0.930 . S
H2179 C2171 0.929 . S
H2180 C2188 0.929 . S
H2181 C2190 0.930 . S
H2182 C2192 0.930 . S
H2183 C2195 0.929 . S
H2184 C2198 0.930 . S
H2185 C2200 0.960 . S
H2186 C2200 0.960 . S
H2187 C2200 0.960 . S
C2188 H2180 0.929 . S
C2188 C2189 1.377 . S
C2188 C2190 1.384 . S
C2189 C2188 1.377 . S
C2189 C2195 1.390 . S
C2190 H2181 0.930 . S
C2190 C2188 1.384 . S
C2190 C2191 1.372 . S
C2191 C2190 1.372 . S
C2191 C2192 1.400 . S
C2191 C2196 1.490 . S
C2192 H2182 0.930 . S
C2192 C2191 1.400 . S
C2192 C2195 1.386 . S
H2193 C2209 0.930 . S
H2194 C2210 0.931 . S
C2195 H2183 0.929 . S
C2195 C2189 1.390 . S
C2195 C2192 1.386 . S
C2196 C2191 1.490 . S
C2196 C2198 1.395 . S
C2196 C2199 1.403 . S
H2197 C2203 0.930 . S
C2198 H2184 0.930 . S
C2198 C2196 1.395 . S
C2198 C2201 1.403 . S
C2199 C2196 1.403 . S
C2199 C2200 1.524 . S
C2199 C2203 1.400 . S
C2200 H2185 0.960 . S
C2200 H2186 0.960 . S
C2200 H2187 0.960 . S
C2200 C2199 1.524 . S
C2201 C2198 1.403 . S
C2201 C2202 1.392 . S
C2201 C2205 1.495 . S
C2202 C2201 1.392 . S
C2202 C2203 1.385 . S
C2202 C2204 1.478 . S
C2203 H2197 0.930 . S
C2203 C2199 1.400 . S
C2203 C2202 1.385 . S
C2204 C2202 1.478 . S
C2204 C2206 1.381 . S
C2204 C2210 1.383 . S
C2205 C2201 1.495 . S
C2205 H2211 0.959 . S
C2205 H2212 0.961 . S
C2205 H2213 0.960 . S
C2206 C2204 1.381 . S
C2206 C2207 1.394 . S
C2206 H2214 0.930 . S
C2207 C2206 1.394 . S
C2207 C2208 1.383 . S
C2207 H2215 0.929 . S
C2208 C2207 1.383 . S
C2208 C2209 1.377 . S
C2209 H2193 0.930 . S
C2209 C2208 1.377 . S
C2209 C2210 1.379 . S
C2210 H2194 0.931 . S
C2210 C2204 1.383 . S
C2210 C2209 1.379 . S
H2211 C2205 0.959 . S
H2212 C2205 0.961 . S
H2213 C2205 0.960 . S
H2214 C2206 0.930 . S
H2215 C2207 0.929 . S
H2216 C2224 0.929 . S
H2217 C2226 0.930 . S
H2218 C2228 0.930 . S
H2219 C2231 0.929 . S
H2220 C2234 0.930 . S
H2221 C2236 0.960 . S
H2222 C2236 0.960 . S
H2223 C2236 0.960 . S
C2224 H2216 0.929 . S
C2224 C2225 1.377 . S
C2224 C2226 1.384 . S
C2225 C2224 1.377 . S
C2225 C2231 1.390 . S
C2226 H2217 0.930 . S
C2226 C2224 1.384 . S
C2226 C2227 1.372 . S
C2227 C2226 1.372 . S
C2227 C2228 1.400 . S
C2227 C2232 1.490 . S
C2228 H2218 0.930 . S
C2228 C2227 1.400 . S
C2228 C2231 1.386 . S
H2229 C2245 0.930 . S
H2230 C2246 0.931 . S
C2231 H2219 0.929 . S
C2231 C2225 1.390 . S
C2231 C2228 1.386 . S
C2232 C2227 1.490 . S
C2232 C2234 1.395 . S
C2232 C2235 1.403 . S
H2233 C2239 0.930 . S
C2234 H2220 0.930 . S
C2234 C2232 1.395 . S
C2234 C2237 1.403 . S
C2235 C2232 1.403 . S
C2235 C2236 1.524 . S
C2235 C2239 1.400 . S
C2236 H2221 0.960 . S
C2236 H2222 0.960 . S
C2236 H2223 0.960 . S
C2236 C2235 1.524 . S
C2237 C2234 1.403 . S
C2237 C2238 1.392 . S
C2237 C2241 1.495 . S
C2238 C2237 1.392 . S
C2238 C2239 1.385 . S
C2238 C2240 1.478 . S
C2239 H2233 0.930 . S
C2239 C2235 1.400 . S
C2239 C2238 1.385 . S
C2240 C2238 1.478 . S
C2240 C2242 1.381 . S
C2240 C2246 1.383 . S
C2241 C2237 1.495 . S
C2241 H2247 0.959 . S
C2241 H2248 0.961 . S
C2241 H2249 0.960 . S
C2242 C2240 1.381 . S
C2242 C2243 1.394 . S
C2242 H2250 0.930 . S
C2243 C2242 1.394 . S
C2243 C2244 1.383 . S
C2243 H2251 0.929 . S
C2244 C2243 1.383 . S
C2244 C2245 1.377 . S
C2245 H2229 0.930 . S
C2245 C2244 1.377 . S
C2245 C2246 1.379 . S
C2246 H2230 0.931 . S
C2246 C2240 1.383 . S
C2246 C2245 1.379 . S
H2247 C2241 0.959 . S
H2248 C2241 0.961 . S
H2249 C2241 0.960 . S
H2250 C2242 0.930 . S
H2251 C2243 0.929 . S
H2252 C2260 0.929 . S
H2253 C2262 0.930 . S
H2254 C2264 0.930 . S
H2255 C2267 0.929 . S
H2256 C2270 0.930 . S
H2257 C2272 0.960 . S
H2258 C2272 0.960 . S
H2259 C2272 0.960 . S
C2260 H2252 0.929 . S
C2260 C2261 1.377 . S
C2260 C2262 1.384 . S
C2261 C2260 1.377 . S
C2261 C2267 1.390 . S
C2262 H2253 0.930 . S
C2262 C2260 1.384 . S
C2262 C2263 1.372 . S
C2263 C2262 1.372 . S
C2263 C2264 1.400 . S
C2263 C2268 1.490 . S
C2264 H2254 0.930 . S
C2264 C2263 1.400 . S
C2264 C2267 1.386 . S
H2265 C2281 0.930 . S
H2266 C2282 0.931 . S
C2267 H2255 0.929 . S
C2267 C2261 1.390 . S
C2267 C2264 1.386 . S
C2268 C2263 1.490 . S
C2268 C2270 1.395 . S
C2268 C2271 1.403 . S
H2269 C2275 0.930 . S
C2270 H2256 0.930 . S
C2270 C2268 1.395 . S
C2270 C2273 1.403 . S
C2271 C2268 1.403 . S
C2271 C2272 1.524 . S
C2271 C2275 1.400 . S
C2272 H2257 0.960 . S
C2272 H2258 0.960 . S
C2272 H2259 0.960 . S
C2272 C2271 1.524 . S
C2273 C2270 1.403 . S
C2273 C2274 1.392 . S
C2273 C2277 1.495 . S
C2274 C2273 1.392 . S
C2274 C2275 1.385 . S
C2274 C2276 1.478 . S
C2275 H2269 0.930 . S
C2275 C2271 1.400 . S
C2275 C2274 1.385 . S
C2276 C2274 1.478 . S
C2276 C2278 1.381 . S
C2276 C2282 1.383 . S
C2277 C2273 1.495 . S
C2277 H2283 0.959 . S
C2277 H2284 0.961 . S
C2277 H2285 0.960 . S
C2278 C2276 1.381 . S
C2278 C2279 1.394 . S
C2278 H2286 0.930 . S
C2279 C2278 1.394 . S
C2279 C2280 1.383 . S
C2279 H2287 0.929 . S
C2280 C2279 1.383 . S
C2280 C2281 1.377 . S
C2281 H2265 0.930 . S
C2281 C2280 1.377 . S
C2281 C2282 1.379 . S
C2282 H2266 0.931 . S
C2282 C2276 1.383 . S
C2282 C2281 1.379 . S
H2283 C2277 0.959 . S
H2284 C2277 0.961 . S
H2285 C2277 0.960 . S
H2286 C2278 0.930 . S
H2287 C2279 0.929 . S
H2288 C2296 0.929 . S
H2289 C2298 0.930 . S
H2290 C2300 0.930 . S
H2291 C2303 0.929 . S
H2292 C2306 0.930 . S
H2293 C2308 0.960 . S
H2294 C2308 0.960 . S
H2295 C2308 0.960 . S
C2296 H2288 0.929 . S
C2296 C2297 1.377 . S
C2296 C2298 1.384 . S
C2297 C2296 1.377 . S
C2297 C2303 1.390 . S
C2298 H2289 0.930 . S
C2298 C2296 1.384 . S
C2298 C2299 1.372 . S
C2299 C2298 1.372 . S
C2299 C2300 1.400 . S
C2299 C2304 1.490 . S
C2300 H2290 0.930 . S
C2300 C2299 1.400 . S
C2300 C2303 1.386 . S
H2301 C2317 0.930 . S
H2302 C2318 0.931 . S
C2303 H2291 0.929 . S
C2303 C2297 1.390 . S
C2303 C2300 1.386 . S
C2304 C2299 1.490 . S
C2304 C2306 1.395 . S
C2304 C2307 1.403 . S
H2305 C2311 0.930 . S
C2306 H2292 0.930 . S
C2306 C2304 1.395 . S
C2306 C2309 1.403 . S
C2307 C2304 1.403 . S
C2307 C2308 1.524 . S
C2307 C2311 1.400 . S
C2308 H2293 0.960 . S
C2308 H2294 0.960 . S
C2308 H2295 0.960 . S
C2308 C2307 1.524 . S
C2309 C2306 1.403 . S
C2309 C2310 1.392 . S
C2309 C2313 1.495 . S
C2310 C2309 1.392 . S
C2310 C2311 1.385 . S
C2310 C2312 1.478 . S
C2311 H2305 0.930 . S
C2311 C2307 1.400 . S
C2311 C2310 1.385 . S
C2312 C2310 1.478 . S
C2312 C2314 1.381 . S
C2312 C2318 1.383 . S
C2313 C2309 1.495 . S
C2313 H2319 0.959 . S
C2313 H2320 0.961 . S
C2313 H2321 0.960 . S
C2314 C2312 1.381 . S
C2314 C2315 1.394 . S
C2314 H2322 0.930 . S
C2315 C2314 1.394 . S
C2315 C2316 1.383 . S
C2315 H2323 0.929 . S
C2316 C2315 1.383 . S
C2316 C2317 1.377 . S
C2317 H2301 0.930 . S
C2317 C2316 1.377 . S
C2317 C2318 1.379 . S
C2318 H2302 0.931 . S
C2318 C2312 1.383 . S
C2318 C2317 1.379 . S
H2319 C2313 0.959 . S
H2320 C2313 0.961 . S
H2321 C2313 0.960 . S
H2322 C2314 0.930 . S
H2323 C2315 0.929 . S
C624 C282 1.386 . S
C605 N2 1.382 . S
C660 C325 2.787 . S
C641 C7 2.846 . S
C696 C371 1.703 . S
C677 N12 1.600 . S
C713 C16 1.859 . S
C732 C414 1.867 . S
C768 C454 2.889 . S
C749 C30 2.913 1_565 S
C804 C482 1.492 . S
C785 N35 1.441 . S
C821 C39 2.029 . S
C840 C525 1.989 . S
C876 C571 1.266 . S
C857 N25 1.178 . S
C912 C286 1.167 . S
C893 N58 1.146 . S
C929 N81 1.875 . S
C948 C335 1.863 . S
C984 C365 1.407 . S
C965 N104 1.386 . S
C1001 N127 1.060 . S
C1020 C402 1.049 . S
C1056 C442 0.731 . S
C1037 N48 0.680 . S
C1092 C486 1.639 . S
C1073 N71 1.602 1_556 S
C1109 N94 1.092 . S
C1128 C535 1.042 . S
C1164 C565 1.996 . S
C1145 N117 2.035 . S
C1181 C85 2.564 . S
C1200 C294 2.498 . S
C1217 C122 2.358 . S
C1236 C446 2.303 . S
C1253 C53 2.032 . S
C1272 C494 1.977 . S
C1308 C531 1.288 . S
C1289 C76 1.327 1_655 S
C1344 C575 1.767 . S
C1325 C99 1.763 . S
C1380 C375 2.038 . S
C1361 C131 2.018 . S
C1416 C406 1.406 . S
C1397 C62 1.455 1_565 S
C1433 C108 0.947 . S
C1452 C331 0.968 . S
C1488 C562 1.467 . S
C1469 N140 1.444 . S
C1505 C145 2.841 . S
C1524 C445 2.789 . S
C1560 C491 1.602 . S
C1541 N150 1.494 . S
C1577 C154 1.872 . S
C1596 C534 1.890 . S
C1632 C334 2.901 . S
C1613 C168 2.920 . S
C1649 N173 1.330 . S
C1668 C362 1.374 . S
C1704 C405 1.997 . S
C1685 C177 2.035 . S
C1740 C291 1.327 . S
C1721 N163 1.240 . S
C1776 C566 1.641 . S
C1757 C200 1.648 . S
C1812 C455 2.147 . S
C1793 N219 2.167 . S
C1829 N242 1.644 . S
C1848 C485 1.652 . S
C1884 C522 1.279 . S
C1865 C269 1.352 . S
C1920 C322 0.960 . S
C1901 C191 0.989 . S
C1937 N209 1.842 . S
C1956 C366 1.869 . S
C1973 N232 1.399 . S
C1992 C415 1.338 . S
C2009 C260 2.578 . S
C2028 C285 2.531 . S
C2045 C223 2.277 . S
C2064 C574 2.228 . S
C2081 N255 1.895 . S
C2100 C326 1.896 . S
C2117 N186 1.505 . S
C2136 C374 1.475 . S
C2172 C411 1.035 . S
C2153 C214 1.021 . S
C2208 C295 1.456 . S
C2189 C237 1.451 . S
C2244 C495 1.612 . S
C2225 N265 1.539 . S
C2280 C526 1.046 . S
C2261 N196 1.088 . S
C2316 C451 0.698 . S
C2297 C246 0.648 . S
