# Generated by pormake.
# Topology pth, (4,4)-cn, num edge types: 1
# Building blocks:
#     Node 0, Type 0, BuildingBlock: QUQFOY_clean_sbu_1, # of connection points: 4
#     Node 1, Type 0, BuildingBlock: QUQFOY_clean_sbu_1, # of connection points: 4
#     Node 2, Type 0, BuildingBlock: QUQFOY_clean_sbu_1, # of connection points: 4
#     Node 3, Type 1, BuildingBlock: KOZSID_clean_sbu_0, # of connection points: 4
#     Node 4, Type 1, BuildingBlock: KOZSID_clean_sbu_0, # of connection points: 4
#     Node 5, Type 1, BuildingBlock: KOZSID_clean_sbu_0, # of connection points: 4
#     Edge 6, Type (0, 1), BuildingBlock: AJUNOK_clean_linker_0, # of connection points: 2
#     Edge 7, Type (0, 1), BuildingBlock: AJUNOK_clean_linker_0, # of connection points: 2
#     Edge 8, Type (0, 1), BuildingBlock: AJUNOK_clean_linker_0, # of connection points: 2
#     Edge 9, Type (0, 1), BuildingBlock: AJUNOK_clean_linker_0, # of connection points: 2
#     Edge 10, Type (0, 1), BuildingBlock: AJUNOK_clean_linker_0, # of connection points: 2
#     Edge 11, Type (0, 1), BuildingBlock: AJUNOK_clean_linker_0, # of connection points: 2
#     Edge 12, Type (0, 1), BuildingBlock: AJUNOK_clean_linker_0, # of connection points: 2
#     Edge 13, Type (0, 1), BuildingBlock: AJUNOK_clean_linker_0, # of connection points: 2
#     Edge 14, Type (0, 1), BuildingBlock: AJUNOK_clean_linker_0, # of connection points: 2
#     Edge 15, Type (0, 1), BuildingBlock: AJUNOK_clean_linker_0, # of connection points: 2
#     Edge 16, Type (0, 1), BuildingBlock: AJUNOK_clean_linker_0, # of connection points: 2
#     Edge 17, Type (0, 1), BuildingBlock: AJUNOK_clean_linker_0, # of connection points: 2
# Relax obj value: 0.024
# Max RMSD: 0.127
# Mean RMSD: 0.072
data_MOF--net-pth--node1-QUQFOY_clean_sbu_1--node2-KOZSID_clean_sbu_0--edge1-AJUNOK_clean_linker_0
_symmetry_space_group_name_H-M    P1
_symmetry_Int_Tables_number       1
_symmetry_cell_setting            triclinic
loop_
_symmetry_equiv_pos_as_xyz
'x, y, z'
_cell_length_a     19.48505
_cell_length_b     21.49737
_cell_length_c     47.475899
_cell_angle_alpha  86.690536
_cell_angle_beta   86.610435
_cell_angle_gamma 120.11686
loop_
_atom_site_label
_atom_site_type_symbol
_atom_site_fract_x
_atom_site_fract_y
_atom_site_fract_z
_atom_type_partial_charge
O0 O 0.13925 0.16742 0.0165 0.0
Cd1 Cd 0.04123 0.0981 0.04454 0.0
Cd2 Cd 0.12117 0.02407 0.04296 0.0
O3 O 0.21725 0.1228 0.02513 0.0
O4 O 0.99889 0.16254 0.05462 0.0
O5 O 0.05276 0.12278 0.08514 0.0
C6 C 0.0248 0.16473 0.07914 0.0
C7 C 0.12353 0.94537 0.07899 0.0
C8 C 0.20687 0.17202 0.01355 0.0
C9 C 0.96738 0.96229 0.01629 0.0
O10 O 0.03572 0.96864 0.01644 0.0
O11 O 0.9512 1.00375 0.0298 0.0
O12 O 0.15732 0.95442 0.05369 0.0
O13 O 0.09381 0.98575 0.08458 0.0
O14 O 0.01911 0.13417 0.40123 0.0
Cd15 Cd 0.10895 0.16106 0.36961 0.0
Cd16 Cd 0.03046 0.01689 0.372 0.0
O17 O 0.93488 0.02652 0.38882 0.0
O18 O 0.14621 0.26507 0.35784 0.0
O19 O 0.0871 0.17898 0.32966 0.0
C20 C 0.11565 0.24587 0.33424 0.0
C21 C 0.02588 0.93856 0.3384 0.0
C22 C 0.94934 0.07935 0.40318 0.0
C23 C 0.18657 0.0915 0.39737 0.0
O24 O 0.11722 0.03605 0.39878 0.0
O25 O 0.20269 0.14892 0.38215 0.0
O26 O 0.99182 0.91455 0.36393 0.0
O27 O 0.05699 0.00699 0.33115 0.0
O28 O 0.97939 0.02483 0.68754 0.0
Cd29 Cd 0.04537 0.99336 0.70999 0.0
Cd30 Cd 0.14425 0.14192 0.70778 0.0
O31 O 0.05001 0.14299 0.68916 0.0
O32 O 0.9666 0.88952 0.72274 0.0
O33 O 0.01765 0.97282 0.75252 0.0
C34 C 0.96763 0.90679 0.74834 0.0
C35 C 0.21152 0.21354 0.74367 0.0
C36 C 0.98948 0.08741 0.68173 0.0
C37 C 0.20656 0.05808 0.67704 0.0
O38 O 0.21637 0.11906 0.68237 0.0
O39 O 0.14354 0.99958 0.68695 0.0
O40 O 0.21906 0.24127 0.71805 0.0
O41 O 0.16109 0.14523 0.74945 0.0
C42 C 0.16257 0.71036 0.16246 0.0
C43 C 0.23669 0.76301 0.14924 0.0
C44 C 0.29171 0.74989 0.16028 0.0
C45 C 0.24847 0.69049 0.17959 0.0
N46 N 0.16909 0.66439 0.18144 0.0
Co47 Co 0.0856 0.57901 0.20717 0.0
N48 N 0.16813 0.57081 0.22785 0.0
C49 C 0.24798 0.6149 0.22297 0.0
C50 C 0.29037 0.5963 0.24006 0.0
C51 C 0.2343 0.53615 0.25675 0.0
C52 C 0.16045 0.52142 0.24884 0.0
N53 N 1.00248 0.49027 0.23151 0.0
C54 C 0.0103 0.44526 0.2507 0.0
C55 C 0.93685 0.38561 0.26067 0.0
C56 C 0.88095 0.39227 0.24686 0.0
C57 C 0.92319 0.45537 0.2293 0.0
N58 N 1.00354 0.59189 0.18819 0.0
C59 C 0.92357 0.54927 0.19347 0.0
C60 C 0.882 0.5742 0.17889 0.0
C61 C 0.93896 0.63733 0.16378 0.0
C62 C 0.01226 0.64714 0.16995 0.0
N63 N 0.08563 0.5128 0.17904 0.0
C64 C 0.06868 0.39962 0.14674 0.0
C65 C 0.01296 0.42233 0.14725 0.0
C66 C 0.02278 0.47863 0.16303 0.0
C67 C 0.13587 0.43775 0.16132 0.0
C68 C 0.14342 0.49393 0.17704 0.0
N69 N 0.08303 0.64343 0.23513 0.0
C70 C 1.00464 0.67319 0.26707 0.0
C71 C 0.06975 0.7421 0.26871 0.0
C72 C 0.14298 0.75959 0.25421 0.0
C73 C 0.14847 0.70951 0.23782 0.0
C74 C 0.01247 0.62522 0.25043 0.0
H75 H 0.20571 0.72551 0.22707 0.0
H76 H 0.95974 0.57425 0.24964 0.0
H77 H 0.97728 0.49209 0.16208 0.0
H78 H 0.19638 0.52063 0.18755 0.0
C79 C 0.28132 0.6667 0.19971 0.0
C80 C 0.0885 0.70888 0.15751 0.0
C81 C 0.08578 0.45609 0.25977 0.0
C82 C 0.89008 0.48556 0.21173 0.0
H83 H 0.25024 0.80806 0.13402 0.0
H84 H 0.35594 0.7825 0.15602 0.0
H85 H 0.35451 0.62118 0.23941 0.0
H86 H 0.24696 0.50488 0.27202 0.0
H87 H 0.92507 0.34155 0.27615 0.0
H88 H 0.8171 0.35552 0.24936 0.0
H89 H 0.81794 0.5496 0.17929 0.0
H90 H 0.92793 0.6722 0.14977 0.0
H91 H 0.96047 0.39563 0.13596 0.0
H92 H 0.18278 0.42461 0.16057 0.0
H93 H 0.94684 0.6568 0.27802 0.0
H94 H 0.19581 0.81154 0.25554 0.0
C95 C 0.44105 1.00492 0.58583 0.0
C96 C 0.38638 0.9374 0.59973 0.0
C97 C 0.39785 0.88813 0.58668 0.0
C98 C 0.4592 0.92812 0.5659 0.0
N99 N 0.48798 1.0001 0.56481 0.0
Co100 Co 0.58222 0.07766 0.53951 0.0
N101 N 0.59652 1.00417 0.51965 0.0
C102 C 0.55111 0.93141 0.52481 0.0
C103 C 0.57532 0.89453 0.50828 0.0
C104 C 0.63983 0.94669 0.49126 0.0
C105 C 0.65092 0.01283 0.49827 0.0
N106 N 0.67814 0.15498 0.51484 0.0
C107 C 0.72546 0.14969 0.49404 0.0
C108 C 0.78601 0.21742 0.48228 0.0
C109 C 0.77737 0.26706 0.49635 0.0
C110 C 0.7121 0.2272 0.51576 0.0
N111 N 0.56545 0.15073 0.55865 0.0
C112 C 0.60884 0.22344 0.55272 0.0
C113 C 0.58037 0.2596 0.56781 0.0
C114 C 0.51472 0.20693 0.58438 0.0
C115 C 0.5075 0.14131 0.57875 0.0
N116 N 0.65409 0.08031 0.56831 0.0
C117 C 0.76216 0.08768 0.60718 0.0
C118 C 0.75588 0.14793 0.59913 0.0
C119 C 0.70281 0.14332 0.57971 0.0
C120 C 0.71144 0.0229 0.59604 0.0
C121 C 0.65796 0.02028 0.577 0.0
N122 N 0.51149 0.07633 0.51071 0.0
C123 C 0.47474 0.14181 0.47756 0.0
C124 C 0.4109 0.07773 0.47039 0.0
C125 C 0.39818 0.0125 0.48391 0.0
C126 C 0.44869 0.01302 0.50393 0.0
C127 C 0.5242 0.13984 0.49719 0.0
H128 H 0.43586 0.96182 0.51378 0.0
H129 H 0.57197 0.19082 0.50123 0.0
H130 H 0.70286 0.19195 0.57429 0.0
H131 H 0.62083 0.96918 0.56949 0.0
C132 C 0.48957 0.89938 0.5467 0.0
C133 C 0.44521 0.07166 0.59325 0.0
C134 C 0.71498 0.08214 0.48444 0.0
C135 C 0.67723 0.256 0.53334 0.0
H136 H 0.34256 0.92475 0.6175 0.0
H137 H 0.36527 0.83004 0.59171 0.0
H138 H 0.55009 0.83662 0.50895 0.0
H139 H 0.67521 0.93675 0.47575 0.0
H140 H 0.83126 0.2298 0.46506 0.0
H141 H 0.81326 0.32533 0.49242 0.0
H142 H 0.60446 0.31739 0.56688 0.0
H143 H 0.47669 0.21602 0.59902 0.0
H144 H 0.7915 0.19876 0.60786 0.0
H145 H 0.71361 0.97441 0.60167 0.0
H146 H 0.48589 0.1939 0.46859 0.0
H147 H 0.3494 0.96123 0.47913 0.0
C148 C 0.73774 0.63338 0.84582 0.0
C149 C 0.80211 0.62674 0.83597 0.0
C150 C 0.79439 0.56714 0.85088 0.0
C151 C 0.72618 0.5409 0.86891 0.0
N152 N 0.68951 0.57993 0.86645 0.0
Co153 Co 0.58843 0.55999 0.88868 0.0
N154 N 0.5817 0.47616 0.91225 0.0
C155 C 0.63581 0.45431 0.91126 0.0
C156 C 0.61755 0.39756 0.93085 0.0
C157 C 0.54698 0.38151 0.9451 0.0
C158 C 0.52569 0.42907 0.93303 0.0
N159 N 0.48544 0.53774 0.91016 0.0
C160 C 0.435 0.48111 0.92946 0.0
C161 C 0.36541 0.48199 0.93668 0.0
C162 C 0.37237 0.54137 0.9217 0.0
C163 C 0.44503 0.57291 0.90593 0.0
N164 N 0.59776 0.64621 0.86592 0.0
C165 C 0.54744 0.67216 0.8686 0.0
C166 C 0.57119 0.73412 0.8512 0.0
C167 C 0.64147 0.74928 0.83679 0.0
C168 C 0.65654 0.6954 0.84622 0.0
N169 N 0.52508 0.49483 0.86028 0.0
C170 C 0.42527 0.39858 0.82289 0.0
C171 C 0.42279 0.46058 0.82809 0.0
C172 C 0.47241 0.50726 0.8466 0.0
C173 C 0.47997 0.38608 0.8363 0.0
C174 C 0.52944 0.43488 0.85466 0.0
N175 N 0.65076 0.62566 0.91705 0.0
C176 C 0.67516 0.72381 0.94533 0.0
C177 C 0.7464 0.73011 0.95284 0.0
C178 C 0.76762 0.68141 0.94274 0.0
C179 C 0.71944 0.63011 0.92501 0.0
C180 C 0.62827 0.67116 0.928 0.0
H181 H 0.73951 0.5954 0.91763 0.0
H182 H 0.57488 0.66965 0.92327 0.0
H183 H 0.46601 0.55266 0.84963 0.0
H184 H 0.57047 0.42298 0.86418 0.0
C185 C 0.69989 0.48454 0.8903 0.0
C186 C 0.72714 0.69306 0.83566 0.0
C187 C 0.44979 0.42465 0.94104 0.0
C188 C 0.47689 0.63534 0.8869 0.0
H189 H 0.85078 0.66228 0.82013 0.0
H190 H 0.83514 0.5468 0.84944 0.0
H191 H 0.65063 0.37001 0.93393 0.0
H192 H 0.51404 0.33851 0.96204 0.0
H193 H 0.3143 0.44329 0.95101 0.0
H194 H 0.32903 0.55882 0.92194 0.0
H195 H 0.54092 0.76454 0.84919 0.0
H196 H 0.67762 0.79482 0.82109 0.0
H197 H 0.38151 0.47266 0.81821 0.0
H198 H 0.48523 0.33941 0.83243 0.0
H199 H 0.65644 0.76083 0.95196 0.0
H200 H 0.82178 0.68331 0.94821 0.0
C201 C 0.01678 0.27505 0.08757 0.0
C202 C 0.03066 0.22006 0.09804 0.0
C203 C 0.02965 0.33254 0.10334 0.0
C204 C 0.0567 0.33784 0.13045 0.0
H205 H 0.99762 0.27496 0.06661 0.0
H206 H 0.01961 0.37401 0.0939 0.0
S207 S 0.09679 0.20551 0.16865 0.0
N208 N 0.0702 0.17327 0.13789 0.0
N209 N 0.0927 0.28049 0.16777 0.0
C210 C 0.06923 0.28246 0.14151 0.0
C211 C 0.05645 0.22384 0.12533 0.0
C212 C 0.90881 0.10709 0.44936 0.0
C213 C 0.88734 0.0776 0.42336 0.0
C214 C 0.85302 0.10897 0.46879 0.0
C215 C 0.77416 0.0832 0.46265 0.0
H216 H 0.96916 0.12807 0.45492 0.0
H217 H 0.87153 0.13037 0.48886 0.0
S218 S 0.68855 1.0045 0.39702 0.0
N219 N 0.78196 0.02316 0.39234 0.0
N220 N 0.67777 0.02974 0.42841 0.0
C221 C 0.75218 0.05497 0.43652 0.0
C222 C 0.80853 0.05127 0.41701 0.0
C223 C 0.84956 0.78464 0.76484 0.0
C224 C 0.9087 0.85324 0.77146 0.0
C225 C 0.79016 0.734 0.78555 0.0
C226 C 0.7875 0.74975 0.81372 0.0
H227 H 0.84853 0.76981 0.74339 0.0
H228 H 0.74629 0.68179 0.77956 0.0
S229 S 0.92739 0.91965 0.84276 0.0
N230 N 0.96007 0.93336 0.80877 0.0
N231 N 0.84849 0.83732 0.84759 0.0
C232 C 0.84575 0.81752 0.82083 0.0
C233 C 0.90636 0.86941 0.79975 0.0
C234 C 0.12424 0.83032 0.09014 0.0
C235 C 0.11376 0.88609 0.09986 0.0
C236 C 0.11285 0.77197 0.10871 0.0
C237 C 0.09157 0.76733 0.13786 0.0
H238 H 0.14087 0.83124 0.06788 0.0
H239 H 0.12237 0.73079 0.10032 0.0
S240 S 0.05643 0.89777 0.17455 0.0
N241 N 0.0792 0.93151 0.14091 0.0
N242 N 0.05999 0.82248 0.17581 0.0
C243 C 0.08015 0.8219 0.14798 0.0
C244 C 0.09084 0.88114 0.12901 0.0
C245 C 0.21919 0.03902 0.43931 0.0
C246 C 0.246 0.08858 0.41481 0.0
C247 C 0.27276 0.03494 0.45671 0.0
C248 C 0.3557 0.07969 0.45026 0.0
H249 H 0.15594 1.00389 0.44553 0.0
H250 H 0.24874 0.99759 0.4758 0.0
S251 S 0.45708 0.21333 0.38684 0.0
N252 N 0.36111 0.18059 0.38411 0.0
N253 N 0.46216 0.17131 0.41618 0.0
C254 C 0.38348 0.12797 0.42528 0.0
C255 C 0.32867 0.13284 0.40776 0.0
C256 C 0.31335 0.33375 0.75782 0.0
C257 C 0.2632 0.25875 0.76492 0.0
C258 C 0.36603 0.37788 0.77649 0.0
C259 C 0.37156 0.34909 0.80307 0.0
H260 H 0.31232 0.35897 0.73755 0.0
H261 H 0.40319 0.43523 0.76995 0.0
S262 S 0.25308 0.15665 0.83244 0.0
N263 N 0.22232 0.15776 0.80083 0.0
N264 N 0.32141 0.24108 0.83588 0.0
C265 C 0.32205 0.2743 0.81056 0.0
C266 C 0.26778 0.22916 0.79157 0.0
C267 C 0.85192 0.03629 0.66702 0.0
C268 C 0.93142 0.09383 0.66471 0.0
C269 C 0.79752 0.0356 0.64881 0.0
C270 C 0.82047 0.09199 0.62719 0.0
H271 H 0.83169 0.99067 0.68286 0.0
H272 H 0.73705 0.99006 0.65157 0.0
S273 S 0.02278 0.2544 0.6116 0.0
N274 N 0.03057 0.20883 0.63922 0.0
N275 N 0.92938 0.20673 0.60429 0.0
C276 C 0.89974 0.15046 0.62487 0.0
C277 C 0.95488 0.15159 0.64377 0.0
C278 C 0.93573 0.88434 0.97647 0.0
C279 C 0.90821 0.90573 1.00002 0.0
C280 C 0.88311 0.82794 0.96152 0.0
C281 C 0.80043 0.78951 0.96961 0.0
H282 H 0.99885 0.91162 0.9694 0.0
H283 H 0.90763 0.81481 0.94327 0.0
S284 S 0.69793 0.82173 0.03073 0.0
N285 N 0.79292 0.88349 0.03104 0.0
N286 N 0.69378 0.77568 1.00357 0.0
C287 C 0.77192 0.81021 0.99322 0.0
C288 C 0.82575 0.86865 1.00824 0.0
C289 C 0.00692 0.81716 0.32956 0.0
C290 C 0.0346 0.88952 0.31927 0.0
C291 C 0.01926 0.7706 0.31322 0.0
C292 C 0.06006 0.79407 0.28579 0.0
H293 H 0.97626 0.79618 0.35069 0.0
H294 H 0.99734 0.71576 0.32234 0.0
S295 S 0.14095 0.97675 0.24795 0.0
N296 N 0.10276 0.98155 0.2792 0.0
N297 N 0.12507 0.89365 0.24846 0.0
C298 C 0.08724 0.86587 0.27498 0.0
C299 C 0.07458 0.91351 0.29165 0.0
C300 C 0.24538 0.02465 0.63188 0.0
C301 C 0.2671 0.05681 0.65728 0.0
C302 C 0.30344 0.03086 0.6111 0.0
C303 C 0.38492 0.06779 0.61535 0.0
H304 H 0.18342 0.99672 0.62763 0.0
H305 H 0.28461 0.00661 0.59153 0.0
S306 S 0.47164 0.1574 0.67909 0.0
N307 N 0.375 0.126 0.68578 0.0
N308 N 0.48362 0.13354 0.64753 0.0
C309 C 0.40697 0.09833 0.64103 0.0
C310 C 0.34816 0.09385 0.6618 0.0
C311 C 0.29933 0.22927 0.96913 0.0
C312 C 0.27275 0.23578 0.99634 0.0
C313 C 0.35527 0.29077 0.95118 0.0
C314 C 0.38725 0.36065 0.96004 0.0
H315 H 0.2752 0.17654 0.96141 0.0
H316 H 0.37391 0.28376 0.93023 0.0
S317 S 0.33918 0.40569 0.0299 0.0
N318 N 0.28235 0.31685 0.03142 0.0
N319 N 0.39067 0.43207 0.99831 0.0
C320 C 0.36219 0.36747 0.98745 0.0
C321 C 0.30407 0.30509 1.00544 0.0
C322 C 0.12026 0.36379 0.32382 0.0
C323 C 0.108 0.29818 0.31445 0.0
C324 C 0.11015 0.41313 0.30644 0.0
C325 C 0.0883 0.39946 0.27882 0.0
H326 H 0.13722 0.37716 0.34493 0.0
H327 H 0.12089 0.4631 0.31447 0.0
S328 S 0.0488 0.23683 0.2437 0.0
N329 N 0.07137 0.22232 0.27548 0.0
N330 N 0.05466 0.31631 0.24268 0.0
C331 C 0.07543 0.33432 0.2691 0.0
C332 C 0.08483 0.28349 0.2869 0.0
loop_
_geom_bond_atom_site_label_1
_geom_bond_atom_site_label_2
_geom_bond_distance
_geom_bond_site_symmetry_2
_ccdc_geom_bond_type
O0 Cd1 2.223 1_556 S
O0 C8 1.315 . S
Cd1 O0 2.223 1_554 S
Cd1 O4 2.297 . S
Cd1 O5 2.439 . S
Cd1 O11 2.240 1_545 S
Cd2 O3 2.240 . S
Cd2 O10 2.223 1_544 S
Cd2 O12 2.297 1_545 S
Cd2 O13 2.439 1_545 S
O3 Cd2 2.240 . S
O3 C8 1.279 1_554 S
O4 Cd1 2.297 . S
O4 C6 1.247 . S
O5 Cd1 2.439 . S
O5 C6 1.208 . S
C6 O4 1.247 . S
C6 O5 1.208 . S
C7 O12 1.247 . S
C7 O13 1.208 . S
C8 O0 1.315 . S
C8 O3 1.279 1_556 S
C9 O10 1.315 1_554 S
C9 O11 1.281 . S
O10 Cd2 2.223 1_566 S
O10 C9 1.315 1_556 S
O11 Cd1 2.240 1_565 S
O11 C9 1.281 . S
O12 Cd2 2.297 1_565 S
O12 C7 1.247 . S
O13 Cd2 2.439 1_565 S
O13 C7 1.208 . S
O14 Cd15 2.223 . S
O14 C22 1.315 1_455 S
Cd15 O14 2.223 . S
Cd15 O18 2.297 . S
Cd15 O19 2.439 . S
Cd15 O25 2.240 . S
Cd16 O17 2.240 1_565 S
Cd16 O24 2.223 1_665 S
Cd16 O26 2.297 1_655 S
Cd16 O27 2.439 1_665 S
O17 Cd16 2.240 1_545 S
O17 C22 1.279 . S
O18 Cd15 2.297 . S
O18 C20 1.247 . S
O19 Cd15 2.439 . S
O19 C20 1.208 . S
C20 O18 1.247 . S
C20 O19 1.208 . S
C21 O26 1.247 . S
C21 O27 1.208 1_565 S
C22 O14 1.315 1_655 S
C22 O17 1.279 . S
C23 O24 1.315 . S
C23 O25 1.279 . S
O24 Cd16 2.223 1_445 S
O24 C23 1.315 . S
O25 Cd15 2.240 . S
O25 C23 1.279 . S
O26 Cd16 2.297 1_455 S
O26 C21 1.247 . S
O27 Cd16 2.439 1_445 S
O27 C21 1.208 1_545 S
O28 Cd29 2.223 1_655 S
O28 C36 1.315 1_565 S
Cd29 O28 2.223 1_455 S
Cd29 O32 2.297 1_455 S
Cd29 O33 2.439 1_455 S
Cd29 O39 2.240 1_565 S
Cd30 O31 2.240 . S
Cd30 O38 2.223 . S
Cd30 O40 2.297 . S
Cd30 O41 2.439 . S
O31 Cd30 2.240 . S
O31 C36 1.279 1_455 S
O32 Cd29 2.297 1_655 S
O32 C34 1.247 . S
O33 Cd29 2.439 1_655 S
O33 C34 1.208 . S
C34 O32 1.247 . S
C34 O33 1.208 . S
C35 O40 1.247 . S
C35 O41 1.208 . S
C36 O28 1.315 1_545 S
C36 O31 1.279 1_655 S
C37 O38 1.315 . S
C37 O39 1.279 . S
O38 Cd30 2.223 . S
O38 C37 1.315 . S
O39 Cd29 2.240 1_545 S
O39 C37 1.279 . S
O40 Cd30 2.297 . S
O40 C35 1.247 . S
O41 Cd30 2.439 . S
O41 C35 1.208 . S
C42 C43 1.443 . S
C42 N46 1.376 . S
C42 C80 1.389 . S
C43 C42 1.443 . S
C43 C44 1.340 . S
C43 H83 0.951 . S
C44 C43 1.340 . S
C44 C45 1.439 . S
C44 H84 0.950 . S
C45 C44 1.439 . S
C45 N46 1.374 . S
C45 C79 1.395 . S
N46 C42 1.376 . S
N46 C45 1.374 . S
N46 Co47 2.008 . S
Co47 N46 2.008 . S
Co47 N48 1.995 . S
Co47 N53 2.008 1_455 S
Co47 N58 1.995 1_455 S
Co47 N63 2.282 . S
Co47 N69 2.282 . S
N48 Co47 1.995 . S
N48 C49 1.376 . S
N48 C52 1.383 . S
C49 N48 1.376 . S
C49 C50 1.446 . S
C49 C79 1.391 . S
C50 C49 1.446 . S
C50 C51 1.339 . S
C50 H85 0.949 . S
C51 C50 1.339 . S
C51 C52 1.439 . S
C51 H86 0.950 . S
C52 N48 1.383 . S
C52 C51 1.439 . S
C52 C81 1.392 . S
N53 Co47 2.008 1_655 S
N53 C54 1.376 . S
N53 C57 1.374 . S
C54 N53 1.376 . S
C54 C55 1.443 . S
C54 C81 1.389 1_655 S
C55 C54 1.443 . S
C55 C56 1.340 . S
C55 H87 0.951 . S
C56 C55 1.340 . S
C56 C57 1.439 . S
C56 H88 0.950 . S
C57 N53 1.374 . S
C57 C56 1.439 . S
C57 C82 1.395 . S
N58 Co47 1.995 1_655 S
N58 C59 1.376 . S
N58 C62 1.383 . S
C59 N58 1.376 . S
C59 C60 1.446 . S
C59 C82 1.391 . S
C60 C59 1.446 . S
C60 C61 1.339 . S
C60 H89 0.949 . S
C61 C60 1.339 . S
C61 C62 1.439 . S
C61 H90 0.950 . S
C62 N58 1.383 . S
C62 C61 1.439 . S
C62 C80 1.392 1_655 S
N63 Co47 2.282 . S
N63 C66 1.332 . S
N63 C68 1.332 . S
C64 C65 1.386 1_455 S
C64 C67 1.388 . S
C65 C64 1.386 1_655 S
C65 C66 1.382 1_655 S
C65 H91 0.950 . S
C66 N63 1.332 . S
C66 C65 1.382 1_455 S
C66 H77 0.952 1_455 S
C67 C64 1.388 . S
C67 C68 1.382 . S
C67 H92 0.950 . S
C68 N63 1.332 . S
C68 C67 1.382 . S
C68 H78 0.948 . S
N69 Co47 2.282 . S
N69 C73 1.332 . S
N69 C74 1.332 1_455 S
C70 C71 1.388 1_655 S
C70 C74 1.382 . S
C70 H93 0.950 . S
C71 C70 1.388 1_455 S
C71 C72 1.386 . S
C72 C71 1.386 . S
C72 C73 1.382 . S
C72 H94 0.950 . S
C73 N69 1.332 . S
C73 C72 1.382 . S
C73 H75 0.952 . S
C74 N69 1.332 1_655 S
C74 C70 1.382 . S
C74 H76 0.948 . S
H75 C73 0.952 . S
H76 C74 0.948 . S
H77 C66 0.952 1_655 S
H78 C68 0.948 . S
C79 C45 1.395 . S
C79 C49 1.391 . S
C80 C42 1.389 . S
C80 C62 1.392 1_455 S
C81 C52 1.392 . S
C81 C54 1.389 1_455 S
C82 C57 1.395 . S
C82 C59 1.391 . S
H83 C43 0.951 . S
H84 C44 0.950 . S
H85 C50 0.949 . S
H86 C51 0.950 . S
H87 C55 0.951 . S
H88 C56 0.950 . S
H89 C60 0.949 . S
H90 C61 0.950 . S
H91 C65 0.950 . S
H92 C67 0.950 . S
H93 C70 0.950 . S
H94 C72 0.950 . S
C95 C96 1.443 1_545 S
C95 N99 1.376 . S
C95 C133 1.389 . S
C96 C95 1.443 1_565 S
C96 C97 1.340 . S
C96 H136 0.951 . S
C97 C96 1.340 . S
C97 C98 1.439 . S
C97 H137 0.950 . S
C98 C97 1.439 . S
C98 N99 1.374 1_565 S
C98 C132 1.395 . S
N99 C95 1.376 . S
N99 C98 1.374 1_545 S
N99 Co100 2.008 . S
Co100 N99 2.008 . S
Co100 N101 1.995 . S
Co100 N106 2.008 . S
Co100 N111 1.995 . S
Co100 N116 2.282 . S
Co100 N122 2.282 . S
N101 Co100 1.995 . S
N101 C102 1.376 1_545 S
N101 C105 1.383 . S
C102 N101 1.376 1_565 S
C102 C103 1.446 . S
C102 C132 1.391 . S
C103 C102 1.446 . S
C103 C104 1.339 . S
C103 H138 0.949 . S
C104 C103 1.339 . S
C104 C105 1.439 1_565 S
C104 H139 0.950 . S
C105 N101 1.383 . S
C105 C104 1.439 1_545 S
C105 C134 1.392 . S
N106 Co100 2.008 . S
N106 C107 1.376 . S
N106 C110 1.374 . S
C107 N106 1.376 . S
C107 C108 1.443 . S
C107 C134 1.389 . S
C108 C107 1.443 . S
C108 C109 1.340 . S
C108 H140 0.951 . S
C109 C108 1.340 . S
C109 C110 1.439 . S
C109 H141 0.950 . S
C110 N106 1.374 . S
C110 C109 1.439 . S
C110 C135 1.395 . S
N111 Co100 1.995 . S
N111 C112 1.376 . S
N111 C115 1.383 . S
C112 N111 1.376 . S
C112 C113 1.446 . S
C112 C135 1.391 . S
C113 C112 1.446 . S
C113 C114 1.339 . S
C113 H142 0.949 . S
C114 C113 1.339 . S
C114 C115 1.439 . S
C114 H143 0.950 . S
C115 N111 1.383 . S
C115 C114 1.439 . S
C115 C133 1.392 . S
N116 Co100 2.282 . S
N116 C119 1.332 . S
N116 C121 1.332 . S
C117 C118 1.386 . S
C117 C120 1.388 . S
C118 C117 1.386 . S
C118 C119 1.382 . S
C118 H144 0.950 . S
C119 N116 1.332 . S
C119 C118 1.382 . S
C119 H130 0.952 . S
C120 C117 1.388 . S
C120 C121 1.382 . S
C120 H145 0.950 1_545 S
C121 N116 1.332 . S
C121 C120 1.382 . S
C121 H131 0.948 1_545 S
N122 Co100 2.282 . S
N122 C126 1.332 . S
N122 C127 1.332 . S
C123 C124 1.388 . S
C123 C127 1.382 . S
C123 H146 0.950 . S
C124 C123 1.388 . S
C124 C125 1.386 . S
C125 C124 1.386 . S
C125 C126 1.382 . S
C125 H147 0.950 1_545 S
C126 N122 1.332 . S
C126 C125 1.382 . S
C126 H128 0.952 1_545 S
C127 N122 1.332 . S
C127 C123 1.382 . S
C127 H129 0.948 . S
H128 C126 0.952 1_565 S
H129 C127 0.948 . S
H130 C119 0.952 . S
H131 C121 0.948 1_565 S
C132 C98 1.395 . S
C132 C102 1.391 . S
C133 C95 1.389 . S
C133 C115 1.392 . S
C134 C105 1.392 . S
C134 C107 1.389 . S
C135 C110 1.395 . S
C135 C112 1.391 . S
H136 C96 0.951 . S
H137 C97 0.950 . S
H138 C103 0.949 . S
H139 C104 0.950 . S
H140 C108 0.951 . S
H141 C109 0.950 . S
H142 C113 0.949 . S
H143 C114 0.950 . S
H144 C118 0.950 . S
H145 C120 0.950 1_565 S
H146 C123 0.950 . S
H147 C125 0.950 1_565 S
C148 C149 1.443 . S
C148 N152 1.376 . S
C148 C186 1.389 . S
C149 C148 1.443 . S
C149 C150 1.340 . S
C149 H189 0.951 . S
C150 C149 1.340 . S
C150 C151 1.439 . S
C150 H190 0.950 . S
C151 C150 1.439 . S
C151 N152 1.374 . S
C151 C185 1.395 . S
N152 C148 1.376 . S
N152 C151 1.374 . S
N152 Co153 2.008 . S
Co153 N152 2.008 . S
Co153 N154 1.995 . S
Co153 N159 2.008 . S
Co153 N164 1.995 . S
Co153 N169 2.282 . S
Co153 N175 2.282 . S
N154 Co153 1.995 . S
N154 C155 1.376 . S
N154 C158 1.383 . S
C155 N154 1.376 . S
C155 C156 1.446 . S
C155 C185 1.391 . S
C156 C155 1.446 . S
C156 C157 1.339 . S
C156 H191 0.949 . S
C157 C156 1.339 . S
C157 C158 1.439 . S
C157 H192 0.950 . S
C158 N154 1.383 . S
C158 C157 1.439 . S
C158 C187 1.392 . S
N159 Co153 2.008 . S
N159 C160 1.376 . S
N159 C163 1.374 . S
C160 N159 1.376 . S
C160 C161 1.443 . S
C160 C187 1.389 . S
C161 C160 1.443 . S
C161 C162 1.340 . S
C161 H193 0.951 . S
C162 C161 1.340 . S
C162 C163 1.439 . S
C162 H194 0.950 . S
C163 N159 1.374 . S
C163 C162 1.439 . S
C163 C188 1.395 . S
N164 Co153 1.995 . S
N164 C165 1.376 . S
N164 C168 1.383 . S
C165 N164 1.376 . S
C165 C166 1.446 . S
C165 C188 1.391 . S
C166 C165 1.446 . S
C166 C167 1.339 . S
C166 H195 0.949 . S
C167 C166 1.339 . S
C167 C168 1.439 . S
C167 H196 0.950 . S
C168 N164 1.383 . S
C168 C167 1.439 . S
C168 C186 1.392 . S
N169 Co153 2.282 . S
N169 C172 1.332 . S
N169 C174 1.332 . S
C170 C171 1.386 . S
C170 C173 1.388 . S
C171 C170 1.386 . S
C171 C172 1.382 . S
C171 H197 0.950 . S
C172 N169 1.332 . S
C172 C171 1.382 . S
C172 H183 0.952 . S
C173 C170 1.388 . S
C173 C174 1.382 . S
C173 H198 0.950 . S
C174 N169 1.332 . S
C174 C173 1.382 . S
C174 H184 0.948 . S
N175 Co153 2.282 . S
N175 C179 1.332 . S
N175 C180 1.332 . S
C176 C177 1.388 . S
C176 C180 1.382 . S
C176 H199 0.950 . S
C177 C176 1.388 . S
C177 C178 1.386 . S
C178 C177 1.386 . S
C178 C179 1.382 . S
C178 H200 0.950 . S
C179 N175 1.332 . S
C179 C178 1.382 . S
C179 H181 0.952 . S
C180 N175 1.332 . S
C180 C176 1.382 . S
C180 H182 0.948 . S
H181 C179 0.952 . S
H182 C180 0.948 . S
H183 C172 0.952 . S
H184 C174 0.948 . S
C185 C151 1.395 . S
C185 C155 1.391 . S
C186 C148 1.389 . S
C186 C168 1.392 . S
C187 C158 1.392 . S
C187 C160 1.389 . S
C188 C163 1.395 . S
C188 C165 1.391 . S
H189 C149 0.951 . S
H190 C150 0.950 . S
H191 C156 0.949 . S
H192 C157 0.950 . S
H193 C161 0.951 . S
H194 C162 0.950 . S
H195 C166 0.949 . S
H196 C167 0.950 . S
H197 C171 0.950 . S
H198 C173 0.950 . S
H199 C176 0.950 . S
H200 C178 0.950 . S
C201 C202 1.369 . S
C201 C203 1.419 . S
C201 H205 0.930 . S
C202 C201 1.369 . S
C202 C211 1.429 . S
C203 C201 1.419 . S
C203 C204 1.363 . S
C203 H206 0.929 . S
C204 C203 1.363 . S
C204 C210 1.428 . S
H205 C201 0.930 . S
H206 C203 0.929 . S
S207 N208 1.613 . S
S207 N209 1.610 . S
N208 S207 1.613 . S
N208 C211 1.350 1_655 S
N209 S207 1.610 . S
N209 C210 1.351 1_655 S
C210 C204 1.428 . S
C210 N209 1.351 1_455 S
C210 C211 1.434 . S
C211 C202 1.429 . S
C211 N208 1.350 1_455 S
C211 C210 1.434 . S
C212 C213 1.369 . S
C212 C214 1.419 . S
C212 H216 0.930 . S
C213 C212 1.369 . S
C213 C222 1.429 . S
C214 C212 1.419 . S
C214 C215 1.363 . S
C214 H217 0.929 . S
C215 C214 1.363 . S
C215 C221 1.428 . S
H216 C212 0.930 . S
H217 C214 0.929 . S
S218 N219 1.613 . S
S218 N220 1.610 . S
N219 S218 1.613 . S
N219 C222 1.350 1_565 S
N220 S218 1.610 . S
N220 C221 1.351 1_565 S
C221 C215 1.428 . S
C221 N220 1.351 1_545 S
C221 C222 1.434 . S
C222 C213 1.429 . S
C222 N219 1.350 1_545 S
C222 C221 1.434 . S
C223 C224 1.369 . S
C223 C225 1.419 . S
C223 H227 0.930 . S
C224 C223 1.369 . S
C224 C233 1.429 . S
C225 C223 1.419 . S
C225 C226 1.363 . S
C225 H228 0.929 . S
C226 C225 1.363 . S
C226 C232 1.428 . S
H227 C223 0.930 . S
H228 C225 0.929 . S
S229 N230 1.613 1_455 S
S229 N231 1.610 1_455 S
N230 S229 1.613 1_655 S
N230 C233 1.350 . S
N231 S229 1.610 1_655 S
N231 C232 1.351 . S
C232 C226 1.428 . S
C232 N231 1.351 . S
C232 C233 1.434 . S
C233 C224 1.429 . S
C233 N230 1.350 . S
C233 C232 1.434 . S
C234 C235 1.369 . S
C234 C236 1.419 . S
C234 H238 0.930 . S
C235 C234 1.369 . S
C235 C244 1.429 . S
C236 C234 1.419 . S
C236 C237 1.363 . S
C236 H239 0.929 . S
C237 C236 1.363 . S
C237 C243 1.428 . S
H238 C234 0.930 . S
H239 C236 0.929 . S
S240 N241 1.613 . S
S240 N242 1.610 . S
N241 S240 1.613 . S
N241 C244 1.350 . S
N242 S240 1.610 . S
N242 C243 1.351 . S
C243 C237 1.428 . S
C243 N242 1.351 . S
C243 C244 1.434 . S
C244 C235 1.429 . S
C244 N241 1.350 . S
C244 C243 1.434 . S
C245 C246 1.369 . S
C245 C247 1.419 . S
C245 H249 0.930 . S
C246 C245 1.369 . S
C246 C255 1.429 . S
C247 C245 1.419 . S
C247 C248 1.363 . S
C247 H250 0.929 . S
C248 C247 1.363 . S
C248 C254 1.428 . S
H249 C245 0.930 . S
H250 C247 0.929 . S
S251 N252 1.613 . S
S251 N253 1.610 . S
N252 S251 1.613 . S
N252 C255 1.350 . S
N253 S251 1.610 . S
N253 C254 1.351 . S
C254 C248 1.428 . S
C254 N253 1.351 . S
C254 C255 1.434 . S
C255 C246 1.429 . S
C255 N252 1.350 . S
C255 C254 1.434 . S
C256 C257 1.369 . S
C256 C258 1.419 . S
C256 H260 0.930 . S
C257 C256 1.369 . S
C257 C266 1.429 . S
C258 C256 1.419 . S
C258 C259 1.363 . S
C258 H261 0.929 . S
C259 C258 1.363 . S
C259 C265 1.428 . S
H260 C256 0.930 . S
H261 C258 0.929 . S
S262 N263 1.613 . S
S262 N264 1.610 . S
N263 S262 1.613 . S
N263 C266 1.350 . S
N264 S262 1.610 . S
N264 C265 1.351 . S
C265 C259 1.428 . S
C265 N264 1.351 . S
C265 C266 1.434 . S
C266 C257 1.429 . S
C266 N263 1.350 . S
C266 C265 1.434 . S
C267 C268 1.369 . S
C267 C269 1.419 . S
C267 H271 0.930 1_545 S
C268 C267 1.369 . S
C268 C277 1.429 . S
C269 C267 1.419 . S
C269 C270 1.363 . S
C269 H272 0.929 1_545 S
C270 C269 1.363 . S
C270 C276 1.428 . S
H271 C267 0.930 1_565 S
H272 C269 0.929 1_565 S
S273 N274 1.613 . S
S273 N275 1.610 1_455 S
N274 S273 1.613 . S
N274 C277 1.350 1_455 S
N275 S273 1.610 1_655 S
N275 C276 1.351 . S
C276 C270 1.428 . S
C276 N275 1.351 . S
C276 C277 1.434 . S
C277 C268 1.429 . S
C277 N274 1.350 1_655 S
C277 C276 1.434 . S
C278 C279 1.369 . S
C278 C280 1.419 . S
C278 H282 0.930 1_655 S
C279 C278 1.369 . S
C279 C288 1.429 . S
C280 C278 1.419 . S
C280 C281 1.363 . S
C280 H283 0.929 . S
C281 C280 1.363 . S
C281 C287 1.428 . S
H282 C278 0.930 1_455 S
H283 C280 0.929 . S
S284 N285 1.613 . S
S284 N286 1.610 . S
N285 S284 1.613 . S
N285 C288 1.350 . S
N286 S284 1.610 . S
N286 C287 1.351 . S
C287 C281 1.428 . S
C287 N286 1.351 . S
C287 C288 1.434 . S
C288 C279 1.429 . S
C288 N285 1.350 . S
C288 C287 1.434 . S
C289 C290 1.369 1_655 S
C289 C291 1.419 . S
C289 H293 0.930 . S
C290 C289 1.369 1_455 S
C290 C299 1.429 . S
C291 C289 1.419 . S
C291 C292 1.363 1_655 S
C291 H294 0.929 . S
C292 C291 1.363 1_455 S
C292 C298 1.428 . S
H293 C289 0.930 . S
H294 C291 0.929 . S
S295 N296 1.613 . S
S295 N297 1.610 . S
N296 S295 1.613 . S
N296 C299 1.350 . S
N297 S295 1.610 . S
N297 C298 1.351 . S
C298 C292 1.428 . S
C298 N297 1.351 . S
C298 C299 1.434 . S
C299 C290 1.429 . S
C299 N296 1.350 . S
C299 C298 1.434 . S
C300 C301 1.369 . S
C300 C302 1.419 . S
C300 H304 0.930 . S
C301 C300 1.369 . S
C301 C310 1.429 . S
C302 C300 1.419 . S
C302 C303 1.363 . S
C302 H305 0.929 . S
C303 C302 1.363 . S
C303 C309 1.428 . S
H304 C300 0.930 . S
H305 C302 0.929 . S
S306 N307 1.613 . S
S306 N308 1.610 . S
N307 S306 1.613 . S
N307 C310 1.350 . S
N308 S306 1.610 . S
N308 C309 1.351 . S
C309 C303 1.428 . S
C309 N308 1.351 . S
C309 C310 1.434 . S
C310 C301 1.429 . S
C310 N307 1.350 . S
C310 C309 1.434 . S
C311 C312 1.369 . S
C311 C313 1.419 . S
C311 H315 0.930 . S
C312 C311 1.369 . S
C312 C321 1.429 . S
C313 C311 1.419 . S
C313 C314 1.363 . S
C313 H316 0.929 . S
C314 C313 1.363 . S
C314 C320 1.428 . S
H315 C311 0.930 . S
H316 C313 0.929 . S
S317 N318 1.613 . S
S317 N319 1.610 1_554 S
N318 S317 1.613 . S
N318 C321 1.350 1_554 S
N319 S317 1.610 1_556 S
N319 C320 1.351 . S
C320 C314 1.428 . S
C320 N319 1.351 . S
C320 C321 1.434 . S
C321 C312 1.429 . S
C321 N318 1.350 1_556 S
C321 C320 1.434 . S
C322 C323 1.369 . S
C322 C324 1.419 . S
C322 H326 0.930 . S
C323 C322 1.369 . S
C323 C332 1.429 1_455 S
C324 C322 1.419 . S
C324 C325 1.363 . S
C324 H327 0.929 . S
C325 C324 1.363 . S
C325 C331 1.428 1_455 S
H326 C322 0.930 . S
H327 C324 0.929 . S
S328 N329 1.613 . S
S328 N330 1.610 . S
N329 S328 1.613 . S
N329 C332 1.350 . S
N330 S328 1.610 . S
N330 C331 1.351 . S
C331 C325 1.428 1_655 S
C331 N330 1.351 . S
C331 C332 1.434 . S
C332 C323 1.429 1_655 S
C332 N329 1.350 . S
C332 C331 1.434 . S
C204 C64 1.484 . S
C202 C6 1.464 . S
C213 C22 1.563 . S
C215 C134 1.588 . S
C224 C34 1.295 . S
C226 C186 1.322 . S
C235 C7 1.468 . S
C237 C80 1.484 . S
C248 C124 1.580 . S
C246 C23 1.559 . S
C257 C35 1.316 . S
C259 C170 1.326 . S
C270 C117 1.581 . S
C268 C36 1.571 . S
C279 C9 1.721 1_656 S
C281 C177 1.766 . S
C292 C71 1.484 . S
C290 C21 1.462 . S
C303 C133 1.589 . S
C301 C37 1.570 . S
C314 C187 1.798 . S
C312 C8 1.757 . S
C323 C20 1.461 . S
C325 C81 1.480 . S
