# Generated by pormake.
# Topology pth, (4,4)-cn, num edge types: 1
# Building blocks:
#     Node 0, Type 0, BuildingBlock: GALJAG_clean_sbu_0, # of connection points: 4
#     Node 1, Type 0, BuildingBlock: GALJAG_clean_sbu_0, # of connection points: 4
#     Node 2, Type 0, BuildingBlock: GALJAG_clean_sbu_0, # of connection points: 4
#     Node 3, Type 1, BuildingBlock: MUDLON_clean_sbu_0, # of connection points: 4
#     Node 4, Type 1, BuildingBlock: MUDLON_clean_sbu_0, # of connection points: 4
#     Node 5, Type 1, BuildingBlock: MUDLON_clean_sbu_0, # of connection points: 4
#     Edge 6, Type (0, 1), BuildingBlock: MIFKUJ_clean_linker_0, # of connection points: 2
#     Edge 7, Type (0, 1), BuildingBlock: MIFKUJ_clean_linker_0, # of connection points: 2
#     Edge 8, Type (0, 1), BuildingBlock: MIFKUJ_clean_linker_0, # of connection points: 2
#     Edge 9, Type (0, 1), BuildingBlock: MIFKUJ_clean_linker_0, # of connection points: 2
#     Edge 10, Type (0, 1), BuildingBlock: MIFKUJ_clean_linker_0, # of connection points: 2
#     Edge 11, Type (0, 1), BuildingBlock: MIFKUJ_clean_linker_0, # of connection points: 2
#     Edge 12, Type (0, 1), BuildingBlock: MIFKUJ_clean_linker_0, # of connection points: 2
#     Edge 13, Type (0, 1), BuildingBlock: MIFKUJ_clean_linker_0, # of connection points: 2
#     Edge 14, Type (0, 1), BuildingBlock: MIFKUJ_clean_linker_0, # of connection points: 2
#     Edge 15, Type (0, 1), BuildingBlock: MIFKUJ_clean_linker_0, # of connection points: 2
#     Edge 16, Type (0, 1), BuildingBlock: MIFKUJ_clean_linker_0, # of connection points: 2
#     Edge 17, Type (0, 1), BuildingBlock: MIFKUJ_clean_linker_0, # of connection points: 2
# Relax obj value: 0.043
# Max RMSD: 0.088
# Mean RMSD: 0.080
data_MOF--net-pth--node1-GALJAG_clean_sbu_0--node2-MUDLON_clean_sbu_0--edge1-MIFKUJ_clean_linker_0
_symmetry_space_group_name_H-M    P1
_symmetry_Int_Tables_number       1
_symmetry_cell_setting            triclinic
loop_
_symmetry_equiv_pos_as_xyz
'x, y, z'
_cell_length_a     29.990753
_cell_length_b     29.882428
_cell_length_c     76.115774
_cell_angle_alpha  90.192822
_cell_angle_beta   90.263846
_cell_angle_gamma 119.92687
loop_
_atom_site_label
_atom_site_type_symbol
_atom_site_fract_x
_atom_site_fract_y
_atom_site_fract_z
_atom_type_partial_charge
In0 In 1.00571 0.01539 0.09644 0.0
O1 O 0.95251 0.04474 0.10616 0.0
O2 O 0.02049 0.06536 0.12089 0.0
C3 C 0.94364 0.93991 0.07349 0.0
C4 C 0.07206 0.09315 0.07541 0.0
C5 C 0.0261 0.95805 0.11901 0.0
O6 O 0.92667 0.96012 0.0842 0.0
O7 O 0.99167 0.95832 0.0742 0.0
O8 O 0.06105 0.99428 0.1102 0.0
O9 O 0.98151 0.95122 0.11643 0.0
C10 C 0.98029 0.06856 0.1193 0.0
O11 O 0.08502 0.06518 0.08394 0.0
O12 O 0.02595 0.08184 0.07749 0.0
In13 In 0.01553 0.0108 0.42621 0.0
O14 O 0.07295 0.08563 0.41222 0.0
O15 O 0.99475 0.04725 0.40383 0.0
C16 C 0.08033 1.00291 0.44937 0.0
C17 C 0.94969 0.02085 0.44807 0.0
C18 C 0.99188 0.93212 0.40349 0.0
O19 O 0.09111 0.04512 0.44216 0.0
O20 O 0.03717 0.96543 0.44503 0.0
O21 O 0.9578 0.93622 0.41189 0.0
O22 O 0.0374 0.96765 0.40654 0.0
C23 C 0.03957 0.08502 0.40185 0.0
O24 O 0.94112 0.97766 0.44225 0.0
O25 O 0.9913 0.05868 0.44296 0.0
In26 In 0.01228 0.01951 0.7605 0.0
O27 O 0.97272 0.94082 0.77423 0.0
O28 O 0.94775 0.99476 0.78001 0.0
C29 C 0.08163 0.02482 0.73712 0.0
C30 C 0.94306 0.01449 0.7369 0.0
C31 C 0.08201 0.08571 0.78382 0.0
O32 O 0.05675 0.98565 0.74681 0.0
O33 O 0.07079 0.06031 0.73916 0.0
O34 O 0.05301 0.09752 0.77523 0.0
O35 O 0.07465 0.04097 0.7808 0.0
C36 C 0.94201 0.9505 0.78261 0.0
O37 O 0.96702 0.05324 0.74706 0.0
O38 O 0.95491 0.97966 0.73861 0.0
Mg39 Mg 0.01719 0.51253 0.26181 0.0
C40 C 0.03101 0.44725 0.28514 0.0
O41 O 0.98215 0.43407 0.28451 0.0
C42 C 0.0202 0.59079 0.23915 0.0
O43 O 0.97377 0.56508 0.24578 0.0
C44 C 0.95691 0.43996 0.23101 0.0
O45 O 0.97308 0.48308 0.22227 0.0
O46 O 0.96478 0.44188 0.2475 0.0
O47 O 0.06275 0.48613 0.27622 0.0
O48 O 0.98804 0.54146 0.28248 0.0
C49 C 0.94384 0.5356 0.2856 0.0
O50 O 0.90435 0.50432 0.27571 0.0
O51 O 0.05264 0.57689 0.24337 0.0
Mg52 Mg 0.51292 0.01641 0.5941 0.0
C53 C 0.44514 0.96517 0.56215 0.0
O54 O 0.49007 0.98588 0.5544 0.0
C55 C 0.53988 0.94443 0.61798 0.0
O56 O 0.51556 0.90529 0.60707 0.0
C57 C 0.45469 0.02822 0.62079 0.0
O58 O 0.44582 0.98047 0.62055 0.0
O59 O 0.48614 0.05984 0.60963 0.0
O60 O 0.44361 0.96622 0.57885 0.0
O61 O 0.57835 0.05319 0.5761 0.0
C62 C 0.5932 0.0211 0.57233 0.0
O63 O 0.5681 0.97483 0.5792 0.0
O64 O 0.541 0.98681 0.61501 0.0
Mg65 Mg 0.50991 0.51497 0.9293 0.0
C66 C 0.48841 0.44805 0.89669 0.0
O67 O 0.51084 0.4934 0.88911 0.0
C68 C 0.60828 0.53945 0.95333 0.0
O69 O 0.6221 0.51423 0.94254 0.0
C70 C 0.43685 0.44973 0.95362 0.0
O71 O 0.47262 0.43714 0.95127 0.0
O72 O 0.44032 0.48782 0.94496 0.0
O73 O 0.48842 0.44579 0.9134 0.0
O74 O 0.54106 0.58104 0.91142 0.0
C75 C 0.5857 0.59046 0.90675 0.0
O76 O 0.60301 0.56121 0.91315 0.0
O77 O 0.56754 0.54134 0.95029 0.0
H78 H 0.91107 0.10181 0.11457 0.0
H79 H 0.89494 0.15729 0.13429 0.0
H80 H 1.00468 0.15922 0.17152 0.0
H81 H 0.02165 0.10461 0.15177 0.0
H82 H 0.90961 0.14471 0.18675 0.0
H83 H 0.04482 0.25688 0.14695 0.0
H84 H 0.08231 0.28746 0.11766 0.0
H85 H 0.96002 0.31712 0.10461 0.0
H86 H 0.92136 0.28594 0.13376 0.0
H87 H 0.97426 0.36226 0.24057 0.0
H88 H 0.96636 0.29192 0.22218 0.0
H89 H 0.89744 0.3369 0.18097 0.0
H90 H 0.9091 0.41006 0.19899 0.0
H91 H 0.96339 0.32235 0.16688 0.0
H92 H 0.83061 0.21753 0.20731 0.0
H93 H 0.79113 0.1857 0.23628 0.0
H94 H 0.90255 0.13952 0.24788 0.0
H95 H 0.94325 0.17182 0.21911 0.0
C96 C 0.93142 0.11374 0.12702 0.0
C97 C 0.96782 0.09913 0.1316 0.0
C98 C 0.9222 0.14541 0.13825 0.0
C99 C 0.94871 0.1624 0.15433 0.0
C100 C 0.98373 0.14639 0.15919 0.0
C101 C 0.99356 0.11543 0.14786 0.0
C102 C 0.94218 0.19918 0.16568 0.0
C103 C 0.9215 0.18369 0.18252 0.0
C104 C 0.95649 0.24946 0.15991 0.0
C105 C 0.97988 0.2685 0.14244 0.0
C106 C 0.02567 0.26947 0.13778 0.0
C107 C 0.04718 0.287 0.12122 0.0
C108 C 0.02347 0.30406 0.10926 0.0
C109 C 0.97828 0.30378 0.11387 0.0
C110 C 0.95657 0.28621 0.13041 0.0
C111 C 0.9563 0.35647 0.22774 0.0
C112 C 0.94208 0.39157 0.22123 0.0
C113 C 0.95151 0.31587 0.21721 0.0
C114 C 0.93054 0.30816 0.20016 0.0
C115 C 0.91389 0.34183 0.19401 0.0
C116 C 0.92017 0.38346 0.20436 0.0
C117 C 0.93044 0.26827 0.18822 0.0
C118 C 0.95035 0.2832 0.17119 0.0
C119 C 0.91477 0.21725 0.19379 0.0
C120 C 0.89016 0.19741 0.21108 0.0
C121 C 0.84689 0.20088 0.21608 0.0
C122 C 0.8243 0.18275 0.23247 0.0
C123 C 0.84442 0.16074 0.24393 0.0
C124 C 0.88708 0.15667 0.23901 0.0
C125 C 0.90987 0.17481 0.22265 0.0
H126 H 0.82689 0.14675 0.25662 0.0
H127 H 0.04019 0.31763 0.09645 0.0
H128 H 0.94683 0.10889 0.45533 0.0
H129 H 0.88766 0.11885 0.47481 0.0
H130 H 0.81447 0.9569 0.48762 0.0
H131 H 0.87191 0.94642 0.46746 0.0
H132 H 0.74443 0.9805 0.48364 0.0
H133 H 0.90567 0.06071 0.51561 0.0
H134 H 0.99809 0.12236 0.52009 0.0
H135 H 0.97076 0.2493 0.5133 0.0
H136 H 0.87822 0.18834 0.50857 0.0
H137 H 0.63542 0.96135 0.56539 0.0
H138 H 0.69763 0.9731 0.543 0.0
H139 H 0.70926 0.11754 0.52806 0.0
H140 H 0.64567 0.10584 0.55067 0.0
H141 H 0.80818 0.11375 0.53079 0.0
H142 H 0.64223 0.02801 0.50254 0.0
H143 H 0.55017 0.96255 0.50046 0.0
H144 H 0.58782 0.84158 0.50236 0.0
H145 H 0.68008 0.90632 0.50476 0.0
C146 C 0.91805 0.07544 0.46231 0.0
C147 C 0.91405 0.02688 0.45993 0.0
C148 C 0.8844 0.08123 0.47353 0.0
C149 C 0.84697 0.03885 0.48299 0.0
C150 C 0.84289 0.99026 0.4805 0.0
C151 C 0.87584 0.98427 0.46902 0.0
C152 C 0.81167 0.04459 0.49536 0.0
C153 C 0.75863 0.00955 0.49397 0.0
C154 C 0.82963 0.08336 0.50863 0.0
C155 C 0.88517 0.11999 0.51153 0.0
C156 C 0.91945 0.10177 0.51495 0.0
C157 C 0.97183 0.13658 0.51756 0.0
C158 C 0.99031 0.18971 0.51693 0.0
C159 C 0.95641 0.20814 0.51375 0.0
C160 C 0.904 0.17348 0.51111 0.0
C161 C 0.65115 0.9959 0.55746 0.0
C162 C 0.63498 0.0324 0.55969 0.0
C163 C 0.68687 1.00251 0.54466 0.0
C164 C 0.70751 0.04579 0.53374 0.0
C165 C 0.69352 0.08375 0.53636 0.0
C166 C 0.65725 0.07701 0.54924 0.0
C167 C 0.74168 0.04897 0.5192 0.0
C168 C 0.79425 0.08548 0.5202 0.0
C169 C 0.72352 0.01112 0.50572 0.0
C170 C 0.66809 0.97206 0.50392 0.0
C171 C 0.63087 0.98745 0.50262 0.0
C172 C 0.57864 0.95047 0.50138 0.0
C173 C 0.56315 0.89794 0.5013 0.0
C174 C 0.59987 0.88229 0.50242 0.0
C175 C 0.65215 0.91912 0.50369 0.0
H176 H 0.52269 0.86936 0.50035 0.0
H177 H 0.03088 0.2166 0.51894 0.0
H178 H 0.9351 0.86425 0.79778 0.0
H179 H 0.86826 0.80402 0.81767 0.0
H180 H 0.78917 0.89093 0.81301 0.0
H181 H 0.85716 0.95245 0.79389 0.0
H182 H 0.78607 0.86651 0.84502 0.0
H183 H 0.74691 0.7693 0.79173 0.0
H184 H 0.76358 0.7306 0.76571 0.0
H185 H 0.80439 0.64083 0.79907 0.0
H186 H 0.78861 0.67949 0.8253 0.0
H187 H 0.56458 0.65909 0.88925 0.0
H188 H 0.6178 0.72157 0.8666 0.0
H189 H 0.72995 0.67212 0.87172 0.0
H190 H 0.67804 0.6107 0.89403 0.0
H191 H 0.70533 0.67692 0.83727 0.0
H192 H 0.75083 0.78292 0.8904 0.0
H193 H 0.73125 0.82141 0.91583 0.0
H194 H 0.67254 0.89339 0.88122 0.0
H195 H 0.69122 0.85476 0.85558 0.0
C196 C 0.90338 0.87034 0.801 0.0
C197 C 0.90133 0.91298 0.79429 0.0
C198 C 0.86493 0.83572 0.81227 0.0
C199 C 0.82293 0.84224 0.81665 0.0
C200 C 0.821 0.8849 0.80989 0.0
C201 C 0.85989 0.92001 0.79892 0.0
C202 C 0.78171 0.8054 0.8286 0.0
C203 C 0.76781 0.82507 0.84309 0.0
C204 C 0.75767 0.75119 0.82624 0.0
C205 C 0.76693 0.7276 0.81049 0.0
C206 C 0.75974 0.74154 0.79352 0.0
C207 C 0.76899 0.71958 0.77873 0.0
C208 C 0.78513 0.68336 0.78074 0.0
C209 C 0.79191 0.66892 0.79754 0.0
C210 C 0.78276 0.69079 0.81237 0.0
C211 C 0.60067 0.66181 0.88555 0.0
C212 C 0.61693 0.62983 0.89346 0.0
C213 C 0.631 0.69744 0.87263 0.0
C214 C 0.6778 0.70134 0.86745 0.0
C215 C 0.69388 0.66956 0.8754 0.0
C216 C 0.66405 0.6345 0.88826 0.0
C217 C 0.71089 0.73816 0.85377 0.0
C218 C 0.72315 0.71842 0.83895 0.0
C219 C 0.73284 0.79217 0.8557 0.0
C220 C 0.72184 0.81547 0.87111 0.0
C221 C 0.73335 0.8066 0.88823 0.0
C222 C 0.72251 0.82852 0.90267 0.0
C223 C 0.70051 0.85969 0.90014 0.0
C224 C 0.68948 0.86915 0.88316 0.0
C225 C 0.70021 0.84729 0.86867 0.0
H226 H 0.69214 0.87662 0.91134 0.0
H227 H 0.79229 0.66641 0.76927 0.0
H228 H 0.95656 0.88157 0.13985 0.0
H229 H 0.97177 0.82892 0.16076 0.0
H230 H 0.13284 0.90873 0.14754 0.0
H231 H 0.11774 0.96182 0.12635 0.0
H232 H 0.09113 0.80178 0.14995 0.0
H233 H 0.09923 0.93757 0.18532 0.0
H234 H 0.07076 0.99684 0.19637 0.0
H235 H 0.93092 0.86804 0.21516 0.0
H236 H 0.95817 0.80791 0.20399 0.0
H237 H 0.11273 0.65727 0.22316 0.0
H238 H 0.13021 0.72932 0.20343 0.0
H239 H 0.97227 0.69287 0.20799 0.0
H240 H 0.95497 0.62252 0.22764 0.0
H241 H 0.03433 0.79316 0.21156 0.0
H242 H 0.01898 0.6582 0.17157 0.0
H243 H 0.04468 0.59743 0.1598 0.0
H244 H 0.19632 0.72359 0.14961 0.0
H245 H 0.17163 0.78505 0.16153 0.0
C246 C 0.99528 0.88806 0.14136 0.0
C247 C 0.03601 0.92608 0.13152 0.0
C248 C 1.00395 0.858 0.15337 0.0
C249 C 0.05357 0.86535 0.15589 0.0
C250 C 0.09429 0.90259 0.14585 0.0
C251 C 0.08564 0.93295 0.13381 0.0
C252 C 0.06205 0.8338 0.16911 0.0
C253 C 0.0798 0.80063 0.16353 0.0
C254 C 0.04702 0.83212 0.1868 0.0
C255 C 0.03069 0.8682 0.19373 0.0
C256 C 0.06227 0.92185 0.19172 0.0
C257 C 0.04636 0.95561 0.19801 0.0
C258 C 0.99904 0.93622 0.20645 0.0
C259 C 0.96758 0.88301 0.20863 0.0
C260 C 0.98328 0.84908 0.20235 0.0
C261 C 0.08188 0.66478 0.21991 0.0
C262 C 0.03249 0.6341 0.22699 0.0
C263 C 0.09185 0.70583 0.20862 0.0
C264 C 0.05249 0.71651 0.20419 0.0
C265 C 1.00338 0.68576 0.21127 0.0
C266 C 0.99352 0.64522 0.2225 0.0
C267 C 0.06106 0.75934 0.19222 0.0
C268 C 0.04674 0.79497 0.19809 0.0
C269 C 0.07897 0.76301 0.17481 0.0
C270 C 0.09369 0.72609 0.16764 0.0
C271 C 0.05792 0.67291 0.16695 0.0
C272 C 0.07227 0.63836 0.16023 0.0
C273 C 0.12215 0.65662 0.15402 0.0
C274 C 0.15773 0.70949 0.15447 0.0
C275 C 0.14359 0.74419 0.16119 0.0
H276 H 0.13319 0.62981 0.14882 0.0
H277 H 0.98678 0.96242 0.2113 0.0
H278 H 0.07497 0.91343 0.4599 0.0
H279 H 0.13327 0.90285 0.47968 0.0
H280 H 0.2224 0.06814 0.4869 0.0
H281 H 0.16526 0.07892 0.46639 0.0
H282 H 0.28486 0.03493 0.48394 0.0
H283 H 0.13636 0.98238 0.51906 0.0
H284 H 0.04436 0.93415 0.5267 0.0
H285 H 0.04529 0.79121 0.52292 0.0
H286 H 0.13716 0.83855 0.51502 0.0
H287 H 0.35705 0.96241 0.5732 0.0
H288 H 0.29112 0.96402 0.55468 0.0
H289 H 0.36255 0.94372 0.50859 0.0
H290 H 0.4298 0.94424 0.527 0.0
H291 H 0.21956 0.90803 0.53248 0.0
H292 H 0.35958 0.01475 0.47517 0.0
H293 H 0.45251 0.07307 0.47062 0.0
H294 H 0.46965 0.12564 0.5241 0.0
H295 H 0.37676 0.06819 0.5289 0.0
C296 C 0.10694 0.94753 0.46574 0.0
C297 C 0.11546 0.99702 0.46165 0.0
C298 C 0.14013 0.94142 0.47715 0.0
C299 C 0.18188 0.98458 0.48511 0.0
C300 C 0.1905 0.03414 0.48098 0.0
C301 C 0.15777 0.04032 0.4693 0.0
C302 C 0.21718 0.97803 0.49737 0.0
C303 C 0.27043 0.00716 0.49454 0.0
C304 C 0.19878 0.94265 0.51151 0.0
C305 C 0.14354 0.914 0.51629 0.0
C306 C 0.11685 0.94063 0.51973 0.0
C307 C 0.06474 0.91346 0.52413 0.0
C308 C 0.03897 0.85964 0.52525 0.0
C309 C 0.06529 0.83289 0.52202 0.0
C310 C 0.1174 0.85988 0.5176 0.0
C311 C 0.35813 0.95717 0.55915 0.0
C312 C 0.39903 0.95381 0.55154 0.0
C313 C 0.32039 0.95822 0.54855 0.0
C314 C 0.32254 0.95544 0.53017 0.0
C315 C 0.36084 0.94749 0.52269 0.0
C316 C 0.39905 0.94732 0.53324 0.0
C317 C 0.287 0.96425 0.51882 0.0
C318 C 0.23382 0.93564 0.52183 0.0
C319 C 0.30553 1.00154 0.50526 0.0
C320 C 0.36133 0.03675 0.50243 0.0
C321 C 0.38317 0.03891 0.48593 0.0
C322 C 0.43583 0.07179 0.48331 0.0
C323 C 0.46699 0.1029 0.49708 0.0
C324 C 0.44551 0.10138 0.51347 0.0
C325 C 0.39287 0.06865 0.51615 0.0
H326 H 0.50775 0.12827 0.49503 0.0
H327 H 0.99862 0.83867 0.52866 0.0
H328 H 0.09591 0.17586 0.79874 0.0
H329 H 0.16528 0.23382 0.81885 0.0
H330 H 0.23162 0.13484 0.81558 0.0
H331 H 0.16153 0.07609 0.79633 0.0
H332 H 0.23928 0.16346 0.84712 0.0
H333 H 0.2795 0.25358 0.79233 0.0
H334 H 0.26385 0.29299 0.76633 0.0
H335 H 0.24246 0.39693 0.79964 0.0
H336 H 0.25738 0.35768 0.82587 0.0
H337 H 0.49493 0.43156 0.86184 0.0
H338 H 0.42822 0.36492 0.84314 0.0
H339 H 0.3324 0.29777 0.8886 0.0
H340 H 0.40011 0.36275 0.90739 0.0
H341 H 0.34054 0.35146 0.8357 0.0
H342 H 0.24218 0.174 0.88182 0.0
H343 H 0.26599 0.13274 0.90523 0.0
H344 H 0.41902 0.20016 0.88465 0.0
H345 H 0.39596 0.24128 0.861 0.0
C346 C 0.12528 0.16656 0.8024 0.0
C347 C 0.1233 0.12149 0.79596 0.0
C348 C 0.16508 0.19979 0.81382 0.0
C349 C 0.2043 0.18919 0.81862 0.0
C350 C 0.20192 0.14396 0.81221 0.0
C351 C 0.16182 0.11042 0.80112 0.0
C352 C 0.24817 0.22501 0.83017 0.0
C353 C 0.26137 0.2046 0.84461 0.0
C354 C 0.27791 0.2786 0.82679 0.0
C355 C 0.26903 0.30235 0.81106 0.0
C356 C 0.27112 0.28461 0.79411 0.0
C357 C 0.26243 0.30695 0.77933 0.0
C358 C 0.25203 0.34734 0.78133 0.0
C359 C 0.25044 0.36558 0.79811 0.0
C360 C 0.25904 0.34333 0.81294 0.0
C361 C 0.46021 0.40163 0.86789 0.0
C362 C 0.4529 0.40221 0.88609 0.0
C363 C 0.42185 0.36379 0.85717 0.0
C364 C 0.37497 0.32612 0.86437 0.0
C365 C 0.36841 0.3256 0.88267 0.0
C366 C 0.40726 0.36284 0.89345 0.0
C367 C 0.33194 0.28989 0.8526 0.0
C368 C 0.3186 0.31031 0.8382 0.0
C369 C 0.3033 0.23604 0.85565 0.0
C370 C 0.31744 0.21113 0.86975 0.0
C371 C 0.28085 0.17986 0.88226 0.0
C372 C 0.29423 0.15654 0.89558 0.0
C373 C 0.34403 0.16397 0.89646 0.0
C374 C 0.38052 0.19461 0.88399 0.0
C375 C 0.36733 0.21799 0.87064 0.0
H376 H 0.35431 0.14589 0.90679 0.0
H377 H 0.24531 0.36459 0.76988 0.0
H378 H 0.89801 0.07468 0.7337 0.0
H379 H 0.82662 0.05981 0.71407 0.0
H380 H 0.82483 0.92528 0.69248 0.0
H381 H 0.89592 0.93995 0.7119 0.0
H382 H 0.81533 0.98324 0.66689 0.0
H383 H 0.73761 0.91156 0.72248 0.0
H384 H 0.72562 0.91291 0.75447 0.0
H385 H 0.68803 0.03311 0.74829 0.0
H386 H 0.70057 0.03302 0.71627 0.0
H387 H 0.57517 0.87619 0.62258 0.0
H388 H 0.64016 0.88358 0.64389 0.0
H389 H 0.64472 0.01807 0.66677 0.0
H390 H 0.57977 0.0107 0.64575 0.0
H391 H 0.65178 0.95782 0.69188 0.0
H392 H 0.73173 0.03168 0.63669 0.0
H393 H 0.7436 0.03118 0.60466 0.0
H394 H 0.77769 0.90835 0.61009 0.0
H395 H 0.76513 0.90752 0.64214 0.0
C396 C 0.88262 0.04222 0.72466 0.0
C397 C 0.90243 0.0084 0.72439 0.0
C398 C 0.8417 0.03359 0.71353 0.0
C399 C 0.82003 0.99107 0.70194 0.0
C400 C 0.84085 0.95824 0.70131 0.0
C401 C 0.88142 0.96665 0.71247 0.0
C402 C 0.77508 0.97999 0.69065 0.0
C403 C 0.77936 0.97704 0.67237 0.0
C404 C 0.72841 0.97272 0.69777 0.0
C405 C 0.72055 0.97265 0.717 0.0
C406 C 0.72719 0.93857 0.72796 0.0
C407 C 0.72023 0.93906 0.74609 0.0
C408 C 0.7062 0.97317 0.75341 0.0
C409 C 0.69897 0.00677 0.7426 0.0
C410 C 0.70597 0.00649 0.72446 0.0
C411 C 0.58927 0.90668 0.63237 0.0
C412 C 0.57271 0.94316 0.63235 0.0
C413 C 0.62663 0.91107 0.64447 0.0
C414 C 0.64791 0.95192 0.65674 0.0
C415 C 0.62906 0.9864 0.6574 0.0
C416 C 0.59202 0.9822 0.6453 0.0
C417 C 0.69205 0.96106 0.66814 0.0
C418 C 0.68768 0.96377 0.68641 0.0
C419 C 0.73872 0.96829 0.66102 0.0
C420 C 0.74693 0.96915 0.64178 0.0
C421 C 0.74138 1.0043 0.63104 0.0
C422 C 0.74827 1.00429 0.61288 0.0
C423 C 0.76125 0.96966 0.60534 0.0
C424 C 0.76753 0.93508 0.61595 0.0
C425 C 0.76054 0.93484 0.63411 0.0
H426 H 0.76656 0.9697 0.59128 0.0
H427 H 0.70083 0.97349 0.76745 0.0
H428 H 0.97172 0.88635 0.05138 0.0
H429 H 0.91631 0.81395 0.03208 0.0
H430 H 0.7844 0.8241 0.04888 0.0
H431 H 0.83964 0.89595 0.06855 0.0
H432 H 0.76168 0.72627 0.0479 0.0
H433 H 0.84137 0.86967 0.00848 0.0
H434 H 0.9136 0.94511 0.99444 0.0
H435 H 0.97253 0.84941 0.97541 0.0
H436 H 0.90099 0.77347 0.98955 0.0
H437 H 0.58645 0.58877 0.97918 0.0
H438 H 0.64527 0.65102 1.00062 0.0
H439 H 0.76744 0.62719 0.9819 0.0
H440 H 0.70859 0.56503 0.96 0.0
H441 H 0.79816 0.7284 0.98431 0.0
H442 H 0.71232 0.58292 0.02245 0.0
H443 H 0.63789 0.50878 0.03616 0.0
H444 H 0.58783 0.6098 0.05716 0.0
H445 H 0.66155 0.68448 0.04338 0.0
C446 C 0.93093 0.8733 0.05093 0.0
C447 C 0.91006 0.89702 0.06144 0.0
C448 C 0.89929 0.83197 0.03983 0.0
C449 C 0.84619 0.81385 0.03884 0.0
C450 C 0.82524 0.83736 0.0494 0.0
C451 C 0.85686 0.87857 0.06058 0.0
C452 C 0.81247 0.77019 0.02691 0.0
C453 C 0.76936 0.72699 0.03396 0.0
C454 C 0.82314 0.77043 0.00878 0.0
C455 C 0.86613 0.816 1.00024 0.0
C456 C 0.86996 0.86479 1.00142 0.0
C457 C 0.91073 0.90762 0.99343 0.0
C458 C 0.94771 0.90209 0.98409 0.0
C459 C 0.9439 0.85366 0.98268 0.0
C460 C 0.90323 0.8107 0.99067 0.0
C461 C 0.62565 0.59613 0.97971 0.0
C462 C 0.6428 0.57192 0.96779 0.0
C463 C 0.65924 0.63166 0.99209 0.0
C464 C 0.71075 0.64358 0.993 0.0
C465 C 0.72781 0.61851 0.98145 0.0
C466 C 0.69407 0.58278 0.96901 0.0
C467 C 0.74716 0.6846 1.00528 0.0
C468 C 0.79075 0.72741 0.99828 0.0
C469 C 0.73667 0.68417 0.02342 0.0
C470 C 0.69234 0.63928 0.03178 0.0
C471 C 0.68525 0.58929 0.02989 0.0
C472 C 0.6432 0.54717 0.03769 0.0
C473 C 0.60814 0.55458 0.04751 0.0
C474 C 0.61503 0.60412 0.04955 0.0
C475 C 0.65698 0.64637 0.04177 0.0
H476 H 0.57572 0.52197 0.05358 0.0
H477 H 0.97925 0.93529 0.9779 0.0
H478 H 0.89706 0.85375 0.39301 0.0
H479 H 0.87847 0.78274 0.3726 0.0
H480 H 0.04126 0.84183 0.36614 0.0
H481 H 0.05993 0.91317 0.38613 0.0
H482 H 0.99504 0.81533 0.33543 0.0
H483 H 0.96419 0.73586 0.39257 0.0
H484 H 0.92319 0.71029 0.42162 0.0
H485 H 0.77473 0.62432 0.3969 0.0
H486 H 0.81484 0.64995 0.36769 0.0
H487 H 0.0206 0.6086 0.30608 0.0
H488 H 0.01691 0.67115 0.32564 0.0
H489 H 0.85443 0.60341 0.31528 0.0
H490 H 0.85768 0.5402 0.29532 0.0
H491 H 0.88775 0.63157 0.35242 0.0
H492 H 0.92278 0.70495 0.29482 0.0
H493 H 0.96718 0.72831 0.2663 0.0
H494 H 0.11119 0.82516 0.29256 0.0
H495 H 0.0678 0.80167 0.32127 0.0
C496 C 0.92882 0.85154 0.38721 0.0
C497 C 0.97996 0.88901 0.39119 0.0
C498 C 0.91815 0.81083 0.3756 0.0
C499 C 0.95845 0.80659 0.36792 0.0
C500 C 0.00948 0.84425 0.37184 0.0
C501 C 0.02012 0.88498 0.38332 0.0
C502 C 0.94811 0.76328 0.35576 0.0
C503 C 0.97175 0.77521 0.33922 0.0
C504 C 0.91656 0.71075 0.36043 0.0
C505 C 0.89244 0.69533 0.37797 0.0
C506 C 0.92276 0.71186 0.39334 0.0
C507 C 0.8997 0.69729 0.40983 0.0
C508 C 0.84637 0.66585 0.4111 0.0
C509 C 0.81602 0.64878 0.39589 0.0
C510 C 0.83889 0.66328 0.37937 0.0
C511 C 0.9838 0.6064 0.30801 0.0
C512 C 0.93946 0.56951 0.29896 0.0
C513 C 0.98186 0.64235 0.31922 0.0
C514 C 0.93557 0.64226 0.32174 0.0
C515 C 0.89056 0.60412 0.31344 0.0
C516 C 0.89253 0.56814 0.30204 0.0
C517 C 0.93569 0.68395 0.3324 0.0
C518 C 0.91025 0.67174 0.34858 0.0
C519 C 0.96588 0.7363 0.32749 0.0
C520 C 0.99205 0.75124 0.31022 0.0
C521 C 0.96397 0.73094 0.29453 0.0
C522 C 0.98895 0.74424 0.27832 0.0
C523 C 0.04198 0.77813 0.27762 0.0
C524 C 0.07011 0.7989 0.29312 0.0
C525 C 0.04533 0.78564 0.30937 0.0
H526 H 0.06125 0.78835 0.26507 0.0
H527 H 0.82859 0.6546 0.42388 0.0
H528 H 0.12956 0.09897 0.71228 0.0
H529 H 0.19839 0.11039 0.69246 0.0
H530 H 0.19405 0.9751 0.7141 0.0
H531 H 0.12483 0.96324 0.73397 0.0
H532 H 0.29366 0.05994 0.71162 0.0
H533 H 0.14238 0.96769 0.67498 0.0
H534 H 0.06253 0.95337 0.66052 0.0
H535 H 0.14696 0.0974 0.63337 0.0
H536 H 0.22727 0.11292 0.64788 0.0
H537 H 0.41151 0.97859 0.65093 0.0
H538 H 0.35607 0.99226 0.67066 0.0
H539 H 0.37719 0.12208 0.63974 0.0
H540 H 0.4332 0.10805 0.61953 0.0
H541 H 0.27558 0.05518 0.6467 0.0
H542 H 0.42877 0.14282 0.68054 0.0
H543 H 0.50886 0.15719 0.6948 0.0
H544 H 0.42245 0.02424 0.72721 0.0
H545 H 0.34185 0.00858 0.71297 0.0
C546 C 0.14306 0.07146 0.71277 0.0
C547 C 0.12172 0.03011 0.72466 0.0
C548 C 0.18234 0.07803 0.70141 0.0
C549 C 0.20124 0.04353 0.70177 0.0
C550 C 0.18003 1.0022 0.71363 0.0
C551 C 0.14035 0.99531 0.7249 0.0
C552 C 0.24351 0.05082 0.68992 0.0
C553 C 0.28963 0.05851 0.69743 0.0
C554 C 0.23894 0.05107 0.67141 0.0
C555 C 0.19071 0.04177 0.66268 0.0
C556 C 0.14384 0.99655 0.66606 0.0
C557 C 0.09852 0.98816 0.65783 0.0
C558 C 0.09964 0.02453 0.64608 0.0
C559 C 0.14613 0.06931 0.6425 0.0
C560 C 0.19156 0.07791 0.65072 0.0
C561 C 0.40501 0.01053 0.64836 0.0
C562 C 0.42665 0.04219 0.63362 0.0
C563 C 0.37346 0.01849 0.65977 0.0
C564 C 0.36278 0.05848 0.65681 0.0
C565 C 0.38516 0.09111 0.64231 0.0
C566 C 0.41732 0.0833 0.63085 0.0
C567 C 0.32544 0.06305 0.66839 0.0
C568 C 0.28012 0.05757 0.66088 0.0
C569 C 0.33083 0.06508 0.68692 0.0
C570 C 0.37923 0.07438 0.6956 0.0
C571 C 0.42684 0.11642 0.69062 0.0
C572 C 0.47235 0.12483 0.69872 0.0
C573 C 0.47076 0.09161 0.71188 0.0
C574 C 0.42363 0.04995 0.717 0.0
C575 C 0.378 0.04134 0.70894 0.0
H576 H 0.50603 0.09819 0.71813 0.0
H577 H 0.06451 0.01796 0.63971 0.0
H578 H 0.05633 0.16599 0.05952 0.0
H579 H 0.11463 0.23529 0.04 0.0
H580 H 0.22575 0.18435 0.04507 0.0
H581 H 0.16822 0.11605 0.06504 0.0
H582 H 0.27302 0.28488 0.04672 0.0
H583 H 0.14405 0.15639 0.00809 0.0
H584 H 0.05576 0.09894 0.99717 0.0
H585 H 0.03631 0.23006 0.9883 0.0
H586 H 0.12433 0.28824 0.99939 0.0
H587 H 0.42409 0.36756 0.97245 0.0
H588 H 0.35857 0.31749 0.99381 0.0
H589 H 0.28841 0.41134 0.98541 0.0
H590 H 0.35489 0.46256 0.96352 0.0
H591 H 0.21719 0.3023 0.98689 0.0
H592 H 0.35468 0.43114 0.02179 0.0
H593 H 0.44516 0.48493 0.0312 0.0
H594 H 0.45022 0.34902 0.04602 0.0
H595 H 0.36003 0.29433 0.03646 0.0
C596 C 0.09325 0.16964 0.05649 0.0
C597 C 0.10764 0.13544 0.06376 0.0
C598 C 0.12647 0.20917 0.04526 0.0
C599 C 0.1744 0.21475 0.04082 0.0
C600 C 0.18902 0.18094 0.04827 0.0
C601 C 0.15606 0.14178 0.05965 0.0
C602 C 0.2095 0.25552 0.02842 0.0
C603 C 0.26075 0.28845 0.03362 0.0
C604 C 0.19332 0.2615 0.01147 0.0
C605 C 0.14051 0.22658 1.00476 0.0
C606 C 0.1208 0.17292 1.00394 0.0
C607 C 0.07084 0.14024 0.99769 0.0
C608 C 0.04039 0.16083 0.9921 0.0
C609 C 0.0599 0.21416 0.99268 0.0
C610 C 0.10982 0.247 0.99893 0.0
C611 C 0.39495 0.37799 0.97503 0.0
C612 C 0.3951 0.41952 0.96631 0.0
C613 C 0.35746 0.3492 0.98736 0.0
C614 C 0.31911 0.36115 0.99144 0.0
C615 C 0.318 0.40175 0.98252 0.0
C616 C 0.35596 0.43099 0.97007 0.0
C617 C 0.28078 0.33039 1.00508 0.0
C618 C 0.22903 0.29938 1.00012 0.0
C619 C 0.29656 0.32572 0.02221 0.0
C620 C 0.35057 0.35861 0.02833 0.0
C621 C 0.37514 0.41269 0.02698 0.0
C622 C 0.42639 0.44335 0.03235 0.0
C623 C 0.45342 0.42039 0.03918 0.0
C624 C 0.42921 0.36675 0.04073 0.0
C625 C 0.37799 0.33591 0.03537 0.0
H626 H 0.4931 0.44415 0.04329 0.0
H627 H 1.00172 0.13547 0.98727 0.0
H628 H 0.1318 0.17298 0.39553 0.0
H629 H 0.14901 0.24019 0.37378 0.0
H630 H 0.99054 0.15529 0.35664 0.0
H631 H 0.97341 0.08821 0.37805 0.0
H632 H 0.05285 0.19112 0.32904 0.0
H633 H 0.0351 0.25922 0.3849 0.0
H634 H 0.05793 0.28736 0.41574 0.0
H635 H 0.21114 0.39942 0.40024 0.0
H636 H 0.18934 0.37142 0.36931 0.0
H637 H 0.96759 0.35209 0.29799 0.0
H638 H 0.98918 0.29788 0.31552 0.0
H639 H 0.14992 0.4136 0.31369 0.0
H640 H 0.12838 0.46906 0.29576 0.0
H641 H 0.1106 0.37077 0.34835 0.0
H642 H 0.11769 0.31164 0.2908 0.0
H643 H 0.08781 0.28429 0.26036 0.0
H644 H 0.94872 0.15493 0.27933 0.0
H645 H 0.97739 0.18188 0.3099 0.0
C646 C 0.10078 0.16865 0.38705 0.0
C647 C 0.05121 0.12539 0.38854 0.0
C648 C 0.11062 0.20711 0.37467 0.0
C649 C 0.071 0.20297 0.36362 0.0
C650 C 0.0218 0.15931 0.36495 0.0
C651 C 0.01199 0.12105 0.37727 0.0
C652 C 0.07954 0.24425 0.35093 0.0
C653 C 0.06566 0.23043 0.33326 0.0
C654 C 0.09771 0.29602 0.35629 0.0
C655 C 0.11083 0.31275 0.37485 0.0
C656 C 0.07379 0.28954 0.38809 0.0
C657 C 0.08651 0.30552 0.40558 0.0
C658 C 0.13601 0.34502 0.40995 0.0
C659 C 0.17286 0.36873 0.39684 0.0
C660 C 0.16035 0.35283 0.37933 0.0
C661 C 0.00769 0.36635 0.30122 0.0
C662 C 0.04631 0.41505 0.29547 0.0
C663 C 0.01995 0.33504 0.31121 0.0
C664 C 0.07114 0.35144 0.31576 0.0
C665 C 0.11015 0.40019 0.31021 0.0
C666 C 0.09785 0.43168 0.29996 0.0
C667 C 0.08223 0.31702 0.32667 0.0
C668 C 0.09954 0.33196 0.34401 0.0
C669 C 0.06671 0.26608 0.32107 0.0
C670 C 0.04971 0.24891 0.30268 0.0
C671 C 0.08064 0.27747 0.2885 0.0
C672 C 0.0639 0.26203 0.27121 0.0
C673 C 0.01638 0.21793 0.26791 0.0
C674 C 0.98555 0.18907 0.2819 0.0
C675 C 1.00209 0.20435 0.29922 0.0
H676 H 1.00348 0.2061 0.25452 0.0
H677 H 0.14578 0.35737 0.4235 0.0
loop_
_geom_bond_atom_site_label_1
_geom_bond_atom_site_label_2
_geom_bond_distance
_geom_bond_site_symmetry_2
_ccdc_geom_bond_type
In0 O1 2.294 1_455 S
In0 O2 2.326 . S
In0 O6 2.266 1_445 S
In0 O7 2.326 1_445 S
In0 O8 2.266 1_545 S
In0 O9 2.326 1_445 S
In0 O11 2.294 . S
In0 O12 2.326 . S
O1 In0 2.294 1_655 S
O1 C10 1.240 1_655 S
O2 In0 2.326 . S
O2 C10 1.252 . S
C3 O6 1.252 . S
C3 O7 1.260 . S
C4 O11 1.240 . S
C4 O12 1.252 . S
C5 O8 1.252 . S
C5 O9 1.260 1_455 S
O6 In0 2.266 1_665 S
O6 C3 1.252 . S
O7 In0 2.326 1_665 S
O7 C3 1.260 . S
O8 In0 2.266 1_565 S
O8 C5 1.252 . S
O9 In0 2.326 1_665 S
O9 C5 1.260 1_655 S
C10 O1 1.240 1_455 S
C10 O2 1.252 . S
O11 In0 2.294 . S
O11 C4 1.240 . S
O12 In0 2.326 . S
O12 C4 1.252 . S
In13 O14 2.294 . S
In13 O15 2.326 1_455 S
In13 O19 2.266 . S
In13 O20 2.326 1_545 S
In13 O21 2.266 1_445 S
In13 O22 2.326 1_545 S
In13 O24 2.294 1_445 S
In13 O25 2.326 1_455 S
O14 In13 2.294 . S
O14 C23 1.240 1_455 S
O15 In13 2.326 1_655 S
O15 C23 1.252 . S
C16 O19 1.253 . S
C16 O20 1.260 1_545 S
C17 O24 1.240 1_545 S
C17 O25 1.252 . S
C18 O21 1.252 1_455 S
C18 O22 1.260 . S
O19 In13 2.266 . S
O19 C16 1.253 . S
O20 In13 2.326 1_565 S
O20 C16 1.260 1_565 S
O21 In13 2.266 1_665 S
O21 C18 1.252 1_655 S
O22 In13 2.326 1_565 S
O22 C18 1.260 . S
C23 O14 1.240 1_655 S
C23 O15 1.252 . S
O24 In13 2.294 1_665 S
O24 C17 1.240 1_565 S
O25 In13 2.326 1_655 S
O25 C17 1.252 . S
In26 O27 2.294 1_445 S
In26 O28 2.326 1_445 S
In26 O32 2.266 1_545 S
In26 O33 2.326 . S
In26 O34 2.266 . S
In26 O35 2.326 . S
In26 O37 2.294 1_455 S
In26 O38 2.326 1_445 S
O27 In26 2.294 1_665 S
O27 C36 1.240 . S
O28 In26 2.326 1_665 S
O28 C36 1.252 . S
C29 O32 1.252 1_545 S
C29 O33 1.260 . S
C30 O37 1.240 1_565 S
C30 O38 1.252 . S
C31 O34 1.252 . S
C31 O35 1.260 . S
O32 In26 2.266 1_565 S
O32 C29 1.252 1_565 S
O33 In26 2.326 . S
O33 C29 1.260 . S
O34 In26 2.266 . S
O34 C31 1.252 . S
O35 In26 2.326 . S
O35 C31 1.260 . S
C36 O27 1.240 . S
C36 O28 1.252 . S
O37 In26 2.294 1_655 S
O37 C30 1.240 1_545 S
O38 In26 2.326 1_665 S
O38 C30 1.252 . S
Mg39 O46 2.141 . S
Mg39 O47 2.048 . S
Mg39 O48 2.048 . S
Mg39 O51 2.141 . S
C40 O41 1.313 . S
C40 O47 1.195 1_655 S
O41 C40 1.313 . S
C42 O43 1.245 . S
C42 O51 1.289 1_655 S
O43 C42 1.245 . S
C44 O45 1.245 . S
C44 O46 1.289 1_655 S
O45 C44 1.245 . S
O46 Mg39 2.141 . S
O46 C44 1.289 1_455 S
O47 Mg39 2.048 . S
O47 C40 1.195 1_455 S
O48 Mg39 2.048 . S
O48 C49 1.195 1_455 S
C49 O48 1.195 1_655 S
C49 O50 1.313 . S
O50 C49 1.313 . S
O51 Mg39 2.141 . S
O51 C42 1.289 1_455 S
Mg52 O59 2.141 . S
Mg52 O60 2.048 . S
Mg52 O61 2.048 . S
Mg52 O64 2.141 . S
C53 O54 1.313 . S
C53 O60 1.195 1_565 S
O54 C53 1.313 . S
C55 O56 1.245 . S
C55 O64 1.289 1_565 S
O56 C55 1.245 . S
C57 O58 1.245 . S
C57 O59 1.289 1_565 S
O58 C57 1.245 . S
O59 Mg52 2.141 . S
O59 C57 1.289 1_545 S
O60 Mg52 2.048 . S
O60 C53 1.195 1_545 S
O61 Mg52 2.048 . S
O61 C62 1.195 1_545 S
C62 O61 1.195 1_565 S
C62 O63 1.313 . S
O63 C62 1.313 . S
O64 Mg52 2.141 . S
O64 C55 1.289 1_545 S
Mg65 O72 2.141 . S
Mg65 O73 2.048 . S
Mg65 O74 2.048 . S
Mg65 O77 2.141 . S
C66 O67 1.313 . S
C66 O73 1.195 . S
O67 C66 1.313 . S
C68 O69 1.245 . S
C68 O77 1.289 . S
O69 C68 1.245 . S
C70 O71 1.245 . S
C70 O72 1.289 . S
O71 C70 1.245 . S
O72 Mg65 2.141 . S
O72 C70 1.289 . S
O73 Mg65 2.048 . S
O73 C66 1.195 . S
O74 Mg65 2.048 . S
O74 C75 1.195 . S
C75 O74 1.195 . S
C75 O76 1.313 . S
O76 C75 1.313 . S
O77 Mg65 2.141 . S
O77 C68 1.289 . S
H78 C96 0.951 . S
H79 C98 0.951 . S
H80 C100 0.950 . S
H81 C101 0.950 . S
H82 C103 0.950 . S
H83 C106 0.950 . S
H84 C107 0.950 . S
H85 C109 0.950 . S
H86 C110 0.950 1_655 S
H87 C111 0.951 . S
H88 C113 0.951 . S
H89 C115 0.950 . S
H90 C116 0.950 . S
H91 C118 0.950 . S
H92 C121 0.950 . S
H93 C122 0.950 . S
H94 C124 0.950 . S
H95 C125 0.950 1_455 S
C96 H78 0.951 . S
C96 C97 1.366 1_655 S
C96 C98 1.388 . S
C97 C96 1.366 1_455 S
C97 C101 1.385 . S
C98 H79 0.951 . S
C98 C96 1.388 . S
C98 C99 1.366 1_655 S
C99 C98 1.366 1_455 S
C99 C100 1.414 . S
C99 C102 1.499 . S
C100 H80 0.950 . S
C100 C99 1.414 . S
C100 C101 1.374 . S
C101 H81 0.950 . S
C101 C97 1.385 . S
C101 C100 1.374 . S
C102 C99 1.499 . S
C102 C103 1.373 1_455 S
C102 C104 1.389 . S
C103 H82 0.950 . S
C103 C102 1.373 1_655 S
C103 C119 1.377 . S
C104 C102 1.389 . S
C104 C105 1.524 . S
C104 C118 1.377 . S
C105 C104 1.524 . S
C105 C106 1.397 . S
C105 C110 1.363 . S
C106 H83 0.950 . S
C106 C105 1.397 . S
C106 C107 1.334 . S
C107 H84 0.950 . S
C107 C106 1.334 . S
C107 C108 1.287 . S
C108 C107 1.287 . S
C108 C109 1.524 . S
C108 H127 0.913 . S
C109 H85 0.950 . S
C109 C108 1.524 . S
C109 C110 1.415 . S
C110 H86 0.950 1_455 S
C110 C105 1.363 . S
C110 C109 1.415 . S
C111 H87 0.951 . S
C111 C112 1.366 . S
C111 C113 1.388 . S
C112 C111 1.366 . S
C112 C116 1.385 1_455 S
C113 H88 0.951 . S
C113 C111 1.388 . S
C113 C114 1.366 . S
C114 C113 1.366 . S
C114 C115 1.414 1_455 S
C114 C117 1.499 . S
C115 H89 0.950 . S
C115 C114 1.414 1_655 S
C115 C116 1.374 . S
C116 H90 0.950 . S
C116 C112 1.385 1_655 S
C116 C115 1.374 . S
C117 C114 1.499 . S
C117 C118 1.373 . S
C117 C119 1.389 1_455 S
C118 H91 0.950 . S
C118 C104 1.377 . S
C118 C117 1.373 . S
C119 C103 1.377 . S
C119 C117 1.389 1_655 S
C119 C120 1.524 . S
C120 C119 1.524 . S
C120 C121 1.397 . S
C120 C125 1.363 . S
C121 H92 0.950 . S
C121 C120 1.397 . S
C121 C122 1.334 . S
C122 H93 0.950 . S
C122 C121 1.334 . S
C122 C123 1.287 . S
C123 C122 1.287 . S
C123 C124 1.524 . S
C123 H126 0.999 . S
C124 H94 0.950 . S
C124 C123 1.524 . S
C124 C125 1.415 . S
C125 H95 0.950 1_655 S
C125 C120 1.363 . S
C125 C124 1.415 . S
H126 C123 0.999 . S
H127 C108 0.913 . S
H128 C146 0.951 . S
H129 C148 0.951 . S
H130 C150 0.950 . S
H131 C151 0.950 . S
H132 C153 0.950 . S
H133 C156 0.950 . S
H134 C157 0.950 . S
H135 C159 0.950 . S
H136 C160 0.950 . S
H137 C161 0.951 . S
H138 C163 0.951 . S
H139 C165 0.950 . S
H140 C166 0.950 . S
H141 C168 0.950 . S
H142 C171 0.950 . S
H143 C172 0.950 . S
H144 C174 0.950 . S
H145 C175 0.950 . S
C146 H128 0.951 . S
C146 C147 1.366 . S
C146 C148 1.388 . S
C147 C146 1.366 . S
C147 C151 1.385 1_545 S
C148 H129 0.951 . S
C148 C146 1.388 . S
C148 C149 1.366 . S
C149 C148 1.366 . S
C149 C150 1.414 1_545 S
C149 C152 1.499 . S
C150 H130 0.950 . S
C150 C149 1.414 1_565 S
C150 C151 1.374 . S
C151 H131 0.950 . S
C151 C147 1.385 1_565 S
C151 C150 1.374 . S
C152 C149 1.499 . S
C152 C153 1.373 1_545 S
C152 C154 1.389 . S
C153 H132 0.950 . S
C153 C152 1.373 1_565 S
C153 C169 1.377 . S
C154 C152 1.389 . S
C154 C155 1.524 . S
C154 C168 1.377 . S
C155 C154 1.524 . S
C155 C156 1.397 . S
C155 C160 1.363 . S
C156 H133 0.950 . S
C156 C155 1.397 . S
C156 C157 1.334 . S
C157 H134 0.950 . S
C157 C156 1.334 . S
C157 C158 1.287 . S
C158 C157 1.287 . S
C158 C159 1.524 . S
C158 H177 0.913 . S
C159 H135 0.950 . S
C159 C158 1.524 . S
C159 C160 1.415 . S
C160 H136 0.950 . S
C160 C155 1.363 . S
C160 C159 1.415 . S
C161 H137 0.951 . S
C161 C162 1.366 1_565 S
C161 C163 1.388 . S
C162 C161 1.366 1_545 S
C162 C166 1.385 . S
C163 H138 0.951 . S
C163 C161 1.388 . S
C163 C164 1.366 1_565 S
C164 C163 1.366 1_545 S
C164 C165 1.414 . S
C164 C167 1.499 . S
C165 H139 0.950 . S
C165 C164 1.414 . S
C165 C166 1.374 . S
C166 H140 0.950 . S
C166 C162 1.385 . S
C166 C165 1.374 . S
C167 C164 1.499 . S
C167 C168 1.373 . S
C167 C169 1.389 1_545 S
C168 H141 0.950 . S
C168 C154 1.377 . S
C168 C167 1.373 . S
C169 C153 1.377 . S
C169 C167 1.389 1_565 S
C169 C170 1.524 . S
C170 C169 1.524 . S
C170 C171 1.397 . S
C170 C175 1.363 . S
C171 H142 0.950 . S
C171 C170 1.397 . S
C171 C172 1.334 . S
C172 H143 0.950 . S
C172 C171 1.334 . S
C172 C173 1.287 . S
C173 C172 1.287 . S
C173 C174 1.524 . S
C173 H176 0.999 . S
C174 H144 0.950 . S
C174 C173 1.524 . S
C174 C175 1.415 . S
C175 H145 0.950 . S
C175 C170 1.363 . S
C175 C174 1.415 . S
H176 C173 0.999 . S
H177 C158 0.913 . S
H178 C196 0.951 . S
H179 C198 0.951 . S
H180 C200 0.950 . S
H181 C201 0.950 . S
H182 C203 0.950 . S
H183 C206 0.950 . S
H184 C207 0.950 . S
H185 C209 0.950 . S
H186 C210 0.950 . S
H187 C211 0.951 . S
H188 C213 0.951 . S
H189 C215 0.950 . S
H190 C216 0.950 . S
H191 C218 0.950 . S
H192 C221 0.950 . S
H193 C222 0.950 . S
H194 C224 0.950 . S
H195 C225 0.950 . S
C196 H178 0.951 . S
C196 C197 1.366 . S
C196 C198 1.388 . S
C197 C196 1.366 . S
C197 C201 1.385 . S
C198 H179 0.951 . S
C198 C196 1.388 . S
C198 C199 1.366 . S
C199 C198 1.366 . S
C199 C200 1.414 . S
C199 C202 1.499 . S
C200 H180 0.950 . S
C200 C199 1.414 . S
C200 C201 1.374 . S
C201 H181 0.950 . S
C201 C197 1.385 . S
C201 C200 1.374 . S
C202 C199 1.499 . S
C202 C203 1.373 . S
C202 C204 1.389 . S
C203 H182 0.950 . S
C203 C202 1.373 . S
C203 C219 1.377 . S
C204 C202 1.389 . S
C204 C205 1.524 . S
C204 C218 1.377 . S
C205 C204 1.524 . S
C205 C206 1.397 . S
C205 C210 1.363 . S
C206 H183 0.950 . S
C206 C205 1.397 . S
C206 C207 1.334 . S
C207 H184 0.950 . S
C207 C206 1.334 . S
C207 C208 1.287 . S
C208 C207 1.287 . S
C208 C209 1.524 . S
C208 H227 0.913 . S
C209 H185 0.950 . S
C209 C208 1.524 . S
C209 C210 1.415 . S
C210 H186 0.950 . S
C210 C205 1.363 . S
C210 C209 1.415 . S
C211 H187 0.951 . S
C211 C212 1.366 . S
C211 C213 1.388 . S
C212 C211 1.366 . S
C212 C216 1.385 . S
C213 H188 0.951 . S
C213 C211 1.388 . S
C213 C214 1.366 . S
C214 C213 1.366 . S
C214 C215 1.414 . S
C214 C217 1.499 . S
C215 H189 0.950 . S
C215 C214 1.414 . S
C215 C216 1.374 . S
C216 H190 0.950 . S
C216 C212 1.385 . S
C216 C215 1.374 . S
C217 C214 1.499 . S
C217 C218 1.373 . S
C217 C219 1.389 . S
C218 H191 0.950 . S
C218 C204 1.377 . S
C218 C217 1.373 . S
C219 C203 1.377 . S
C219 C217 1.389 . S
C219 C220 1.524 . S
C220 C219 1.524 . S
C220 C221 1.397 . S
C220 C225 1.363 . S
C221 H192 0.950 . S
C221 C220 1.397 . S
C221 C222 1.334 . S
C222 H193 0.950 . S
C222 C221 1.334 . S
C222 C223 1.287 . S
C223 C222 1.287 . S
C223 C224 1.524 . S
C223 H226 0.999 . S
C224 H194 0.950 . S
C224 C223 1.524 . S
C224 C225 1.415 . S
C225 H195 0.950 . S
C225 C220 1.363 . S
C225 C224 1.415 . S
H226 C223 0.999 . S
H227 C208 0.913 . S
H228 C246 0.951 . S
H229 C248 0.951 . S
H230 C250 0.950 . S
H231 C251 0.950 . S
H232 C253 0.950 . S
H233 C256 0.950 . S
H234 C257 0.950 . S
H235 C259 0.950 . S
H236 C260 0.950 . S
H237 C261 0.951 . S
H238 C263 0.951 . S
H239 C265 0.950 . S
H240 C266 0.950 . S
H241 C268 0.950 . S
H242 C271 0.950 . S
H243 C272 0.950 . S
H244 C274 0.950 . S
H245 C275 0.950 . S
C246 H228 0.951 . S
C246 C247 1.360 1_655 S
C246 C248 1.388 . S
C247 C246 1.360 1_455 S
C247 C251 1.395 . S
C248 H229 0.951 . S
C248 C246 1.388 . S
C248 C249 1.346 1_655 S
C249 C248 1.346 1_455 S
C249 C250 1.425 . S
C249 C252 1.508 . S
C250 H230 0.950 . S
C250 C249 1.425 . S
C250 C251 1.374 . S
C251 H231 0.950 . S
C251 C247 1.395 . S
C251 C250 1.374 . S
C252 C249 1.508 . S
C252 C253 1.373 . S
C252 C254 1.389 1_455 S
C253 H232 0.950 . S
C253 C252 1.373 . S
C253 C269 1.377 . S
C254 C252 1.389 1_655 S
C254 C255 1.524 . S
C254 C268 1.377 . S
C255 C254 1.524 . S
C255 C256 1.397 . S
C255 C260 1.363 . S
C256 H233 0.950 . S
C256 C255 1.397 . S
C256 C257 1.334 . S
C257 H234 0.950 . S
C257 C256 1.334 . S
C257 C258 1.287 . S
C258 C257 1.287 . S
C258 C259 1.524 . S
C258 H277 0.913 . S
C259 H235 0.950 . S
C259 C258 1.524 . S
C259 C260 1.415 . S
C260 H236 0.950 . S
C260 C255 1.363 . S
C260 C259 1.415 . S
C261 H237 0.951 . S
C261 C262 1.366 . S
C261 C263 1.388 . S
C262 C261 1.366 . S
C262 C266 1.385 1_455 S
C263 H238 0.951 . S
C263 C261 1.388 . S
C263 C264 1.366 . S
C264 C263 1.366 . S
C264 C265 1.414 1_455 S
C264 C267 1.499 . S
C265 H239 0.950 . S
C265 C264 1.414 1_655 S
C265 C266 1.374 . S
C266 H240 0.950 . S
C266 C262 1.385 1_655 S
C266 C265 1.374 . S
C267 C264 1.499 . S
C267 C268 1.373 1_455 S
C267 C269 1.389 . S
C268 H241 0.950 . S
C268 C254 1.377 . S
C268 C267 1.373 1_655 S
C269 C253 1.377 . S
C269 C267 1.389 . S
C269 C270 1.524 . S
C270 C269 1.524 . S
C270 C271 1.397 . S
C270 C275 1.363 . S
C271 H242 0.950 . S
C271 C270 1.397 . S
C271 C272 1.334 . S
C272 H243 0.950 . S
C272 C271 1.334 . S
C272 C273 1.287 . S
C273 C272 1.287 . S
C273 C274 1.524 . S
C273 H276 0.999 . S
C274 H244 0.950 . S
C274 C273 1.524 . S
C274 C275 1.415 . S
C275 H245 0.950 . S
C275 C270 1.363 . S
C275 C274 1.415 . S
H276 C273 0.999 . S
H277 C258 0.913 . S
H278 C296 0.951 . S
H279 C298 0.951 . S
H280 C300 0.950 . S
H281 C301 0.950 . S
H282 C303 0.950 . S
H283 C306 0.950 . S
H284 C307 0.950 . S
H285 C309 0.950 . S
H286 C310 0.950 . S
H287 C311 0.951 . S
H288 C313 0.951 . S
H289 C315 0.950 . S
H290 C316 0.950 . S
H291 C318 0.950 . S
H292 C321 0.950 . S
H293 C322 0.950 . S
H294 C324 0.950 . S
H295 C325 0.950 . S
C296 H278 0.951 . S
C296 C297 1.353 1_565 S
C296 C298 1.388 . S
C297 C296 1.353 1_545 S
C297 C301 1.392 . S
C298 H279 0.951 . S
C298 C296 1.388 . S
C298 C299 1.362 1_565 S
C299 C298 1.362 1_545 S
C299 C300 1.420 . S
C299 C302 1.497 . S
C300 H280 0.950 . S
C300 C299 1.420 . S
C300 C301 1.374 . S
C301 H281 0.950 . S
C301 C297 1.392 . S
C301 C300 1.374 . S
C302 C299 1.497 . S
C302 C303 1.373 . S
C302 C304 1.389 1_545 S
C303 H282 0.950 . S
C303 C302 1.373 . S
C303 C319 1.377 . S
C304 C302 1.389 1_565 S
C304 C305 1.524 . S
C304 C318 1.377 . S
C305 C304 1.524 . S
C305 C306 1.397 . S
C305 C310 1.363 . S
C306 H283 0.950 . S
C306 C305 1.397 . S
C306 C307 1.334 . S
C307 H284 0.950 . S
C307 C306 1.334 . S
C307 C308 1.287 . S
C308 C307 1.287 . S
C308 C309 1.524 . S
C308 H327 0.913 . S
C309 H285 0.950 . S
C309 C308 1.524 . S
C309 C310 1.415 . S
C310 H286 0.950 . S
C310 C305 1.363 . S
C310 C309 1.415 . S
C311 H287 0.951 . S
C311 C312 1.366 . S
C311 C313 1.388 . S
C312 C311 1.366 . S
C312 C316 1.385 1_545 S
C313 H288 0.951 . S
C313 C311 1.388 . S
C313 C314 1.366 . S
C314 C313 1.366 . S
C314 C315 1.414 1_545 S
C314 C317 1.499 . S
C315 H289 0.950 . S
C315 C314 1.414 1_565 S
C315 C316 1.374 . S
C316 H290 0.950 . S
C316 C312 1.385 1_565 S
C316 C315 1.374 . S
C317 C314 1.499 . S
C317 C318 1.373 1_545 S
C317 C319 1.389 . S
C318 H291 0.950 . S
C318 C304 1.377 . S
C318 C317 1.373 1_565 S
C319 C303 1.377 . S
C319 C317 1.389 . S
C319 C320 1.524 . S
C320 C319 1.524 . S
C320 C321 1.397 . S
C320 C325 1.363 . S
C321 H292 0.950 . S
C321 C320 1.397 . S
C321 C322 1.334 . S
C322 H293 0.950 . S
C322 C321 1.334 . S
C322 C323 1.287 . S
C323 C322 1.287 . S
C323 C324 1.524 . S
C323 H326 0.999 . S
C324 H294 0.950 . S
C324 C323 1.524 . S
C324 C325 1.415 . S
C325 H295 0.950 . S
C325 C320 1.363 . S
C325 C324 1.415 . S
H326 C323 0.999 . S
H327 C308 0.913 . S
H328 C346 0.951 . S
H329 C348 0.951 . S
H330 C350 0.950 . S
H331 C351 0.950 . S
H332 C353 0.950 . S
H333 C356 0.950 . S
H334 C357 0.950 . S
H335 C359 0.950 . S
H336 C360 0.950 . S
H337 C361 0.951 . S
H338 C363 0.951 . S
H339 C365 0.950 . S
H340 C366 0.950 . S
H341 C368 0.950 . S
H342 C371 0.950 . S
H343 C372 0.950 . S
H344 C374 0.950 . S
H345 C375 0.950 . S
C346 H328 0.951 . S
C346 C347 1.366 . S
C346 C348 1.388 . S
C347 C346 1.366 . S
C347 C351 1.385 . S
C348 H329 0.951 . S
C348 C346 1.388 . S
C348 C349 1.366 . S
C349 C348 1.366 . S
C349 C350 1.414 . S
C349 C352 1.499 . S
C350 H330 0.950 . S
C350 C349 1.414 . S
C350 C351 1.374 . S
C351 H331 0.950 . S
C351 C347 1.385 . S
C351 C350 1.374 . S
C352 C349 1.499 . S
C352 C353 1.373 . S
C352 C354 1.389 . S
C353 H332 0.950 . S
C353 C352 1.373 . S
C353 C369 1.377 . S
C354 C352 1.389 . S
C354 C355 1.524 . S
C354 C368 1.377 . S
C355 C354 1.524 . S
C355 C356 1.397 . S
C355 C360 1.363 . S
C356 H333 0.950 . S
C356 C355 1.397 . S
C356 C357 1.334 . S
C357 H334 0.950 . S
C357 C356 1.334 . S
C357 C358 1.287 . S
C358 C357 1.287 . S
C358 C359 1.524 . S
C358 H377 0.913 . S
C359 H335 0.950 . S
C359 C358 1.524 . S
C359 C360 1.415 . S
C360 H336 0.950 . S
C360 C355 1.363 . S
C360 C359 1.415 . S
C361 H337 0.951 . S
C361 C362 1.366 . S
C361 C363 1.388 . S
C362 C361 1.366 . S
C362 C366 1.385 . S
C363 H338 0.951 . S
C363 C361 1.388 . S
C363 C364 1.366 . S
C364 C363 1.366 . S
C364 C365 1.414 . S
C364 C367 1.499 . S
C365 H339 0.950 . S
C365 C364 1.414 . S
C365 C366 1.374 . S
C366 H340 0.950 . S
C366 C362 1.385 . S
C366 C365 1.374 . S
C367 C364 1.499 . S
C367 C368 1.373 . S
C367 C369 1.389 . S
C368 H341 0.950 . S
C368 C354 1.377 . S
C368 C367 1.373 . S
C369 C353 1.377 . S
C369 C367 1.389 . S
C369 C370 1.524 . S
C370 C369 1.524 . S
C370 C371 1.397 . S
C370 C375 1.363 . S
C371 H342 0.950 . S
C371 C370 1.397 . S
C371 C372 1.334 . S
C372 H343 0.950 . S
C372 C371 1.334 . S
C372 C373 1.287 . S
C373 C372 1.287 . S
C373 C374 1.524 . S
C373 H376 0.999 . S
C374 H344 0.950 . S
C374 C373 1.524 . S
C374 C375 1.415 . S
C375 H345 0.950 . S
C375 C370 1.363 . S
C375 C374 1.415 . S
H376 C373 0.999 . S
H377 C358 0.913 . S
H378 C396 0.951 . S
H379 C398 0.951 . S
H380 C400 0.950 . S
H381 C401 0.950 . S
H382 C403 0.950 . S
H383 C406 0.950 . S
H384 C407 0.950 . S
H385 C409 0.950 . S
H386 C410 0.950 . S
H387 C411 0.951 . S
H388 C413 0.951 . S
H389 C415 0.950 . S
H390 C416 0.950 . S
H391 C418 0.950 . S
H392 C421 0.950 . S
H393 C422 0.950 . S
H394 C424 0.950 . S
H395 C425 0.950 . S
C396 H378 0.951 . S
C396 C397 1.366 1_545 S
C396 C398 1.388 . S
C397 C396 1.366 1_565 S
C397 C401 1.385 . S
C398 H379 0.951 . S
C398 C396 1.388 . S
C398 C399 1.366 1_545 S
C399 C398 1.366 1_565 S
C399 C400 1.414 . S
C399 C402 1.499 . S
C400 H380 0.950 . S
C400 C399 1.414 . S
C400 C401 1.374 . S
C401 H381 0.950 . S
C401 C397 1.385 . S
C401 C400 1.374 . S
C402 C399 1.499 . S
C402 C403 1.373 1_565 S
C402 C404 1.389 . S
C403 H382 0.950 . S
C403 C402 1.373 1_545 S
C403 C419 1.377 . S
C404 C402 1.389 . S
C404 C405 1.524 . S
C404 C418 1.377 . S
C405 C404 1.524 . S
C405 C406 1.397 . S
C405 C410 1.363 . S
C406 H383 0.950 . S
C406 C405 1.397 . S
C406 C407 1.334 . S
C407 H384 0.950 . S
C407 C406 1.334 . S
C407 C408 1.287 . S
C408 C407 1.287 . S
C408 C409 1.524 . S
C408 H427 0.913 . S
C409 H385 0.950 . S
C409 C408 1.524 . S
C409 C410 1.415 . S
C410 H386 0.950 . S
C410 C405 1.363 . S
C410 C409 1.415 . S
C411 H387 0.951 . S
C411 C412 1.366 1_565 S
C411 C413 1.388 . S
C412 C411 1.366 1_545 S
C412 C416 1.385 . S
C413 H388 0.951 . S
C413 C411 1.388 . S
C413 C414 1.366 1_565 S
C414 C413 1.366 1_545 S
C414 C415 1.414 . S
C414 C417 1.499 . S
C415 H389 0.950 . S
C415 C414 1.414 . S
C415 C416 1.374 . S
C416 H390 0.950 . S
C416 C412 1.385 . S
C416 C415 1.374 . S
C417 C414 1.499 . S
C417 C418 1.373 1_545 S
C417 C419 1.389 . S
C418 H391 0.950 . S
C418 C404 1.377 . S
C418 C417 1.373 1_565 S
C419 C403 1.377 . S
C419 C417 1.389 . S
C419 C420 1.524 . S
C420 C419 1.524 . S
C420 C421 1.397 . S
C420 C425 1.363 . S
C421 H392 0.950 . S
C421 C420 1.397 . S
C421 C422 1.334 . S
C422 H393 0.950 . S
C422 C421 1.334 . S
C422 C423 1.287 . S
C423 C422 1.287 . S
C423 C424 1.524 . S
C423 H426 0.999 . S
C424 H394 0.950 . S
C424 C423 1.524 . S
C424 C425 1.415 . S
C425 H395 0.950 . S
C425 C420 1.363 . S
C425 C424 1.415 . S
H426 C423 0.999 . S
H427 C408 0.913 . S
H428 C446 0.951 . S
H429 C448 0.951 . S
H430 C450 0.950 . S
H431 C451 0.950 . S
H432 C453 0.950 . S
H433 C456 0.950 1_554 S
H434 C457 0.950 . S
H435 C459 0.950 . S
H436 C460 0.950 . S
H437 C461 0.951 . S
H438 C463 0.951 . S
H439 C465 0.950 . S
H440 C466 0.950 . S
H441 C468 0.950 . S
H442 C471 0.950 . S
H443 C472 0.950 . S
H444 C474 0.950 . S
H445 C475 0.950 . S
C446 H428 0.951 . S
C446 C447 1.366 . S
C446 C448 1.388 . S
C447 C446 1.366 . S
C447 C451 1.385 . S
C448 H429 0.951 . S
C448 C446 1.388 . S
C448 C449 1.366 . S
C449 C448 1.366 . S
C449 C450 1.414 . S
C449 C452 1.499 . S
C450 H430 0.950 . S
C450 C449 1.414 . S
C450 C451 1.374 . S
C451 H431 0.950 . S
C451 C447 1.385 . S
C451 C450 1.374 . S
C452 C449 1.499 . S
C452 C453 1.373 . S
C452 C454 1.389 . S
C453 H432 0.950 . S
C453 C452 1.373 . S
C453 C469 1.377 . S
C454 C452 1.389 . S
C454 C455 1.524 1_554 S
C454 C468 1.377 1_554 S
C455 C454 1.524 1_556 S
C455 C456 1.397 . S
C455 C460 1.363 . S
C456 H433 0.950 1_556 S
C456 C455 1.397 . S
C456 C457 1.334 . S
C457 H434 0.950 . S
C457 C456 1.334 . S
C457 C458 1.287 . S
C458 C457 1.287 . S
C458 C459 1.524 . S
C458 H477 0.913 . S
C459 H435 0.950 . S
C459 C458 1.524 . S
C459 C460 1.415 . S
C460 H436 0.950 . S
C460 C455 1.363 . S
C460 C459 1.415 . S
C461 H437 0.951 . S
C461 C462 1.366 . S
C461 C463 1.388 . S
C462 C461 1.366 . S
C462 C466 1.385 . S
C463 H438 0.951 . S
C463 C461 1.388 . S
C463 C464 1.366 . S
C464 C463 1.366 . S
C464 C465 1.414 . S
C464 C467 1.499 . S
C465 H439 0.950 . S
C465 C464 1.414 . S
C465 C466 1.374 . S
C466 H440 0.950 . S
C466 C462 1.385 . S
C466 C465 1.374 . S
C467 C464 1.499 . S
C467 C468 1.373 . S
C467 C469 1.389 1_556 S
C468 H441 0.950 . S
C468 C454 1.377 1_556 S
C468 C467 1.373 . S
C469 C453 1.377 . S
C469 C467 1.389 1_554 S
C469 C470 1.524 . S
C470 C469 1.524 . S
C470 C471 1.397 . S
C470 C475 1.363 . S
C471 H442 0.950 . S
C471 C470 1.397 . S
C471 C472 1.334 . S
C472 H443 0.950 . S
C472 C471 1.334 . S
C472 C473 1.287 . S
C473 C472 1.287 . S
C473 C474 1.524 . S
C473 H476 0.999 . S
C474 H444 0.950 . S
C474 C473 1.524 . S
C474 C475 1.415 . S
C475 H445 0.950 . S
C475 C470 1.363 . S
C475 C474 1.415 . S
H476 C473 0.999 . S
H477 C458 0.913 . S
H478 C496 0.951 . S
H479 C498 0.951 . S
H480 C500 0.950 . S
H481 C501 0.950 . S
H482 C503 0.950 . S
H483 C506 0.930 1_455 S
H484 C507 0.950 . S
H485 C509 0.950 . S
H486 C510 0.950 . S
H487 C511 0.951 . S
H488 C513 0.951 . S
H489 C515 0.950 . S
H490 C516 0.950 . S
H491 C518 0.950 . S
H492 C521 0.950 . S
H493 C522 0.950 . S
H494 C524 0.950 . S
H495 C525 0.950 . S
C496 H478 0.951 . S
C496 C497 1.366 1_655 S
C496 C498 1.388 . S
C497 C496 1.366 1_455 S
C497 C501 1.385 . S
C498 H479 0.951 . S
C498 C496 1.388 . S
C498 C499 1.366 1_655 S
C499 C498 1.366 1_455 S
C499 C500 1.414 . S
C499 C502 1.499 . S
C500 H480 0.950 . S
C500 C499 1.414 . S
C500 C501 1.374 . S
C501 H481 0.950 . S
C501 C497 1.385 . S
C501 C500 1.374 . S
C502 C499 1.499 . S
C502 C503 1.373 . S
C502 C504 1.389 1_455 S
C503 H482 0.950 . S
C503 C502 1.373 . S
C503 C519 1.377 . S
C504 C502 1.389 1_655 S
C504 C505 1.524 . S
C504 C518 1.377 . S
C505 C504 1.524 . S
C505 C506 1.397 . S
C505 C510 1.363 . S
C506 H483 0.930 1_655 S
C506 C505 1.397 . S
C506 C507 1.334 . S
C507 H484 0.950 . S
C507 C506 1.334 . S
C507 C508 1.287 . S
C508 C507 1.287 . S
C508 C509 1.524 . S
C508 H527 0.913 . S
C509 H485 0.950 . S
C509 C508 1.524 . S
C509 C510 1.415 . S
C510 H486 0.950 . S
C510 C505 1.363 . S
C510 C509 1.415 . S
C511 H487 0.951 . S
C511 C512 1.366 . S
C511 C513 1.388 . S
C512 C511 1.366 . S
C512 C516 1.385 1_455 S
C513 H488 0.951 . S
C513 C511 1.388 . S
C513 C514 1.366 . S
C514 C513 1.366 . S
C514 C515 1.414 1_455 S
C514 C517 1.499 . S
C515 H489 0.950 . S
C515 C514 1.414 1_655 S
C515 C516 1.374 . S
C516 H490 0.950 . S
C516 C512 1.385 1_655 S
C516 C515 1.374 . S
C517 C514 1.499 . S
C517 C518 1.373 1_455 S
C517 C519 1.389 . S
C518 H491 0.950 . S
C518 C504 1.377 . S
C518 C517 1.373 1_655 S
C519 C503 1.377 . S
C519 C517 1.389 . S
C519 C520 1.524 . S
C520 C519 1.524 . S
C520 C521 1.397 . S
C520 C525 1.363 . S
C521 H492 0.950 . S
C521 C520 1.397 . S
C521 C522 1.334 . S
C522 H493 0.950 . S
C522 C521 1.334 . S
C522 C523 1.287 . S
C523 C522 1.287 . S
C523 C524 1.524 . S
C523 H526 0.999 . S
C524 H494 0.950 . S
C524 C523 1.524 . S
C524 C525 1.415 . S
C525 H495 0.950 . S
C525 C520 1.363 . S
C525 C524 1.415 . S
H526 C523 0.999 . S
H527 C508 0.913 . S
H528 C546 0.951 . S
H529 C548 0.951 . S
H530 C550 0.950 . S
H531 C551 0.950 . S
H532 C553 0.950 . S
H533 C556 0.950 . S
H534 C557 0.950 . S
H535 C559 0.950 . S
H536 C560 0.950 . S
H537 C561 0.951 . S
H538 C563 0.951 . S
H539 C565 0.950 . S
H540 C566 0.950 . S
H541 C568 0.950 . S
H542 C571 0.950 . S
H543 C572 0.950 . S
H544 C574 0.950 . S
H545 C575 0.950 . S
C546 H528 0.951 . S
C546 C547 1.366 . S
C546 C548 1.388 . S
C547 C546 1.366 . S
C547 C551 1.385 1_545 S
C548 H529 0.951 . S
C548 C546 1.388 . S
C548 C549 1.366 . S
C549 C548 1.366 . S
C549 C550 1.414 1_545 S
C549 C552 1.499 . S
C550 H530 0.950 . S
C550 C549 1.414 1_565 S
C550 C551 1.374 . S
C551 H531 0.950 . S
C551 C547 1.385 1_565 S
C551 C550 1.374 . S
C552 C549 1.499 . S
C552 C553 1.373 . S
C552 C554 1.389 1_545 S
C553 H532 0.950 . S
C553 C552 1.373 . S
C553 C569 1.377 . S
C554 C552 1.389 1_565 S
C554 C555 1.524 . S
C554 C568 1.377 . S
C555 C554 1.524 . S
C555 C556 1.397 . S
C555 C560 1.363 . S
C556 H533 0.950 . S
C556 C555 1.397 . S
C556 C557 1.334 . S
C557 H534 0.950 . S
C557 C556 1.334 . S
C557 C558 1.287 . S
C558 C557 1.287 . S
C558 C559 1.524 . S
C558 H577 0.913 . S
C559 H535 0.950 . S
C559 C558 1.524 . S
C559 C560 1.415 . S
C560 H536 0.950 . S
C560 C555 1.363 . S
C560 C559 1.415 . S
C561 H537 0.951 . S
C561 C562 1.366 1_565 S
C561 C563 1.388 . S
C562 C561 1.366 1_545 S
C562 C566 1.385 . S
C563 H538 0.951 . S
C563 C561 1.388 . S
C563 C564 1.366 1_565 S
C564 C563 1.366 1_545 S
C564 C565 1.414 . S
C564 C567 1.499 . S
C565 H539 0.950 . S
C565 C564 1.414 . S
C565 C566 1.374 . S
C566 H540 0.950 . S
C566 C562 1.385 . S
C566 C565 1.374 . S
C567 C564 1.499 . S
C567 C568 1.373 1_545 S
C567 C569 1.389 . S
C568 H541 0.950 . S
C568 C554 1.377 . S
C568 C567 1.373 1_565 S
C569 C553 1.377 . S
C569 C567 1.389 . S
C569 C570 1.524 . S
C570 C569 1.524 . S
C570 C571 1.397 . S
C570 C575 1.363 . S
C571 H542 0.950 . S
C571 C570 1.397 . S
C571 C572 1.334 . S
C572 H543 0.950 . S
C572 C571 1.334 . S
C572 C573 1.287 . S
C573 C572 1.287 . S
C573 C574 1.524 . S
C573 H576 0.999 . S
C574 H544 0.950 . S
C574 C573 1.524 . S
C574 C575 1.415 . S
C575 H545 0.950 . S
C575 C570 1.363 . S
C575 C574 1.415 . S
H576 C573 0.999 . S
H577 C558 0.913 . S
H578 C596 0.951 . S
H579 C598 0.951 . S
H580 C600 0.950 . S
H581 C601 0.950 . S
H582 C603 0.950 . S
H583 C606 0.950 . S
H584 C607 0.954 . S
H585 C609 0.950 . S
H586 C610 0.950 . S
H587 C611 0.951 . S
H588 C613 0.951 . S
H589 C615 0.950 . S
H590 C616 0.950 . S
H591 C618 0.950 . S
H592 C621 0.950 . S
H593 C622 0.950 . S
H594 C624 0.950 . S
H595 C625 0.950 . S
C596 H578 0.951 . S
C596 C597 1.366 . S
C596 C598 1.388 . S
C597 C596 1.366 . S
C597 C601 1.385 . S
C598 H579 0.951 . S
C598 C596 1.388 . S
C598 C599 1.366 . S
C599 C598 1.366 . S
C599 C600 1.414 . S
C599 C602 1.499 . S
C600 H580 0.950 . S
C600 C599 1.414 . S
C600 C601 1.374 . S
C601 H581 0.950 . S
C601 C597 1.385 . S
C601 C600 1.374 . S
C602 C599 1.499 . S
C602 C603 1.373 . S
C602 C604 1.389 . S
C603 H582 0.950 . S
C603 C602 1.373 . S
C603 C619 1.377 . S
C604 C602 1.389 . S
C604 C605 1.524 . S
C604 C618 1.377 1_554 S
C605 C604 1.524 . S
C605 C606 1.397 . S
C605 C610 1.363 . S
C606 H583 0.950 . S
C606 C605 1.397 . S
C606 C607 1.334 . S
C607 H584 0.954 . S
C607 C606 1.334 . S
C607 C608 1.287 . S
C608 C607 1.287 . S
C608 C609 1.524 . S
C608 H627 0.913 . S
C609 H585 0.950 . S
C609 C608 1.524 . S
C609 C610 1.415 . S
C610 H586 0.950 . S
C610 C605 1.363 . S
C610 C609 1.415 . S
C611 H587 0.951 . S
C611 C612 1.366 . S
C611 C613 1.388 . S
C612 C611 1.366 . S
C612 C616 1.385 . S
C613 H588 0.951 . S
C613 C611 1.388 . S
C613 C614 1.366 . S
C614 C613 1.366 . S
C614 C615 1.414 . S
C614 C617 1.499 . S
C615 H589 0.950 . S
C615 C614 1.414 . S
C615 C616 1.374 . S
C616 H590 0.950 . S
C616 C612 1.385 . S
C616 C615 1.374 . S
C617 C614 1.499 . S
C617 C618 1.373 . S
C617 C619 1.389 1_556 S
C618 H591 0.950 . S
C618 C604 1.377 1_556 S
C618 C617 1.373 . S
C619 C603 1.377 . S
C619 C617 1.389 1_554 S
C619 C620 1.524 . S
C620 C619 1.524 . S
C620 C621 1.397 . S
C620 C625 1.363 . S
C621 H592 0.950 . S
C621 C620 1.397 . S
C621 C622 1.334 . S
C622 H593 0.950 . S
C622 C621 1.334 . S
C622 C623 1.287 . S
C623 C622 1.287 . S
C623 C624 1.524 . S
C623 H626 0.999 . S
C624 H594 0.950 . S
C624 C623 1.524 . S
C624 C625 1.415 . S
C625 H595 0.950 . S
C625 C620 1.363 . S
C625 C624 1.415 . S
H626 C623 0.999 . S
H627 C608 0.913 . S
H628 C646 0.951 . S
H629 C648 0.951 . S
H630 C650 0.950 . S
H631 C651 0.950 . S
H632 C653 0.950 . S
H633 C656 0.950 . S
H634 C657 0.950 . S
H635 C659 0.950 . S
H636 C660 0.950 . S
H637 C661 0.951 . S
H638 C663 0.951 . S
H639 C665 0.950 . S
H640 C666 0.950 . S
H641 C668 0.950 . S
H642 C671 0.950 . S
H643 C672 0.950 . S
H644 C674 0.950 . S
H645 C675 0.950 . S
C646 H628 0.951 . S
C646 C647 1.366 1_455 S
C646 C648 1.388 . S
C647 C646 1.366 1_655 S
C647 C651 1.385 . S
C648 H629 0.951 . S
C648 C646 1.388 . S
C648 C649 1.366 1_455 S
C649 C648 1.366 1_655 S
C649 C650 1.414 . S
C649 C652 1.499 . S
C650 H630 0.950 . S
C650 C649 1.414 . S
C650 C651 1.374 . S
C651 H631 0.950 . S
C651 C647 1.385 . S
C651 C650 1.374 . S
C652 C649 1.499 . S
C652 C653 1.373 . S
C652 C654 1.389 1_655 S
C653 H632 0.950 . S
C653 C652 1.373 . S
C653 C669 1.377 . S
C654 C652 1.389 1_455 S
C654 C655 1.524 . S
C654 C668 1.377 . S
C655 C654 1.524 . S
C655 C656 1.397 1_455 S
C655 C660 1.363 . S
C656 H633 0.950 . S
C656 C655 1.397 1_655 S
C656 C657 1.334 . S
C657 H634 0.950 . S
C657 C656 1.334 . S
C657 C658 1.287 1_655 S
C658 C657 1.287 1_455 S
C658 C659 1.524 . S
C658 H677 0.913 . S
C659 H635 0.950 . S
C659 C658 1.524 . S
C659 C660 1.415 . S
C660 H636 0.950 . S
C660 C655 1.363 . S
C660 C659 1.415 . S
C661 H637 0.951 . S
C661 C662 1.366 1_655 S
C661 C663 1.388 . S
C662 C661 1.366 1_455 S
C662 C666 1.385 . S
C663 H638 0.951 . S
C663 C661 1.388 . S
C663 C664 1.366 1_655 S
C664 C663 1.366 1_455 S
C664 C665 1.414 . S
C664 C667 1.499 . S
C665 H639 0.950 . S
C665 C664 1.414 . S
C665 C666 1.374 . S
C666 H640 0.950 . S
C666 C662 1.385 . S
C666 C665 1.374 . S
C667 C664 1.499 . S
C667 C668 1.373 . S
C667 C669 1.389 1_455 S
C668 H641 0.950 . S
C668 C654 1.377 . S
C668 C667 1.373 . S
C669 C653 1.377 . S
C669 C667 1.389 1_655 S
C669 C670 1.524 . S
C670 C669 1.524 . S
C670 C671 1.397 1_655 S
C670 C675 1.363 . S
C671 H642 0.950 . S
C671 C670 1.397 1_455 S
C671 C672 1.334 . S
C672 H643 0.950 . S
C672 C671 1.334 . S
C672 C673 1.287 1_455 S
C673 C672 1.287 1_655 S
C673 C674 1.524 . S
C673 H676 0.999 . S
C674 H644 0.950 . S
C674 C673 1.524 . S
C674 C675 1.415 . S
C675 H645 0.950 . S
C675 C670 1.363 . S
C675 C674 1.415 . S
H676 C673 0.999 . S
H677 C658 0.913 . S
C112 C44 1.432 1_455 S
C97 C10 1.441 . S
C147 C17 1.516 . S
C162 C62 1.511 1_545 S
C197 C36 1.524 . S
C212 C75 1.519 . S
C247 C5 1.438 . S
C262 C42 1.433 1_455 S
C312 C53 1.513 1_545 S
C297 C16 1.523 . S
C347 C31 1.526 . S
C362 C66 1.520 . S
C412 C55 1.424 1_545 S
C397 C30 1.435 . S
C447 C3 1.444 . S
C462 C68 1.434 . S
C512 C49 1.515 1_455 S
C497 C18 1.519 . S
C562 C57 1.428 1_545 S
C547 C29 1.436 . S
C612 C70 1.433 . S
C597 C4 1.442 . S
C647 C23 1.517 . S
C662 C40 1.511 1_455 S
