# Generated by pormake.
# Topology gar, (4,6)-cn, num edge types: 1
# Building blocks:
#     Node 0, Type 0, BuildingBlock: UXUYUI_clean_sbu_0, # of connection points: 4
#     Node 1, Type 0, BuildingBlock: UXUYUI_clean_sbu_0, # of connection points: 4
#     Node 2, Type 0, BuildingBlock: UXUYUI_clean_sbu_0, # of connection points: 4
#     Node 3, Type 0, BuildingBlock: UXUYUI_clean_sbu_0, # of connection points: 4
#     Node 4, Type 0, BuildingBlock: UXUYUI_clean_sbu_0, # of connection points: 4
#     Node 5, Type 0, BuildingBlock: UXUYUI_clean_sbu_0, # of connection points: 4
#     Node 6, Type 0, BuildingBlock: UXUYUI_clean_sbu_0, # of connection points: 4
#     Node 7, Type 0, BuildingBlock: UXUYUI_clean_sbu_0, # of connection points: 4
#     Node 8, Type 0, BuildingBlock: UXUYUI_clean_sbu_0, # of connection points: 4
#     Node 9, Type 0, BuildingBlock: UXUYUI_clean_sbu_0, # of connection points: 4
#     Node 10, Type 0, BuildingBlock: UXUYUI_clean_sbu_0, # of connection points: 4
#     Node 11, Type 0, BuildingBlock: UXUYUI_clean_sbu_0, # of connection points: 4
#     Node 12, Type 0, BuildingBlock: UXUYUI_clean_sbu_0, # of connection points: 4
#     Node 13, Type 0, BuildingBlock: UXUYUI_clean_sbu_0, # of connection points: 4
#     Node 14, Type 0, BuildingBlock: UXUYUI_clean_sbu_0, # of connection points: 4
#     Node 15, Type 0, BuildingBlock: UXUYUI_clean_sbu_0, # of connection points: 4
#     Node 16, Type 0, BuildingBlock: UXUYUI_clean_sbu_0, # of connection points: 4
#     Node 17, Type 0, BuildingBlock: UXUYUI_clean_sbu_0, # of connection points: 4
#     Node 18, Type 0, BuildingBlock: UXUYUI_clean_sbu_0, # of connection points: 4
#     Node 19, Type 0, BuildingBlock: UXUYUI_clean_sbu_0, # of connection points: 4
#     Node 20, Type 0, BuildingBlock: UXUYUI_clean_sbu_0, # of connection points: 4
#     Node 21, Type 0, BuildingBlock: UXUYUI_clean_sbu_0, # of connection points: 4
#     Node 22, Type 0, BuildingBlock: UXUYUI_clean_sbu_0, # of connection points: 4
#     Node 23, Type 0, BuildingBlock: UXUYUI_clean_sbu_0, # of connection points: 4
#     Node 24, Type 1, BuildingBlock: KUMBUR_clean_sbu_1, # of connection points: 6
#     Node 25, Type 1, BuildingBlock: KUMBUR_clean_sbu_1, # of connection points: 6
#     Node 26, Type 1, BuildingBlock: KUMBUR_clean_sbu_1, # of connection points: 6
#     Node 27, Type 1, BuildingBlock: KUMBUR_clean_sbu_1, # of connection points: 6
#     Node 28, Type 1, BuildingBlock: KUMBUR_clean_sbu_1, # of connection points: 6
#     Node 29, Type 1, BuildingBlock: KUMBUR_clean_sbu_1, # of connection points: 6
#     Node 30, Type 1, BuildingBlock: KUMBUR_clean_sbu_1, # of connection points: 6
#     Node 31, Type 1, BuildingBlock: KUMBUR_clean_sbu_1, # of connection points: 6
#     Node 32, Type 1, BuildingBlock: KUMBUR_clean_sbu_1, # of connection points: 6
#     Node 33, Type 1, BuildingBlock: KUMBUR_clean_sbu_1, # of connection points: 6
#     Node 34, Type 1, BuildingBlock: KUMBUR_clean_sbu_1, # of connection points: 6
#     Node 35, Type 1, BuildingBlock: KUMBUR_clean_sbu_1, # of connection points: 6
#     Node 36, Type 1, BuildingBlock: KUMBUR_clean_sbu_1, # of connection points: 6
#     Node 37, Type 1, BuildingBlock: KUMBUR_clean_sbu_1, # of connection points: 6
#     Node 38, Type 1, BuildingBlock: KUMBUR_clean_sbu_1, # of connection points: 6
#     Node 39, Type 1, BuildingBlock: KUMBUR_clean_sbu_1, # of connection points: 6
#     Edge 40, Type (0, 1), BuildingBlock: AJUNOK_clean_linker_0, # of connection points: 2
#     Edge 41, Type (0, 1), BuildingBlock: AJUNOK_clean_linker_0, # of connection points: 2
#     Edge 42, Type (0, 1), BuildingBlock: AJUNOK_clean_linker_0, # of connection points: 2
#     Edge 43, Type (0, 1), BuildingBlock: AJUNOK_clean_linker_0, # of connection points: 2
#     Edge 44, Type (0, 1), BuildingBlock: AJUNOK_clean_linker_0, # of connection points: 2
#     Edge 45, Type (0, 1), BuildingBlock: AJUNOK_clean_linker_0, # of connection points: 2
#     Edge 46, Type (0, 1), BuildingBlock: AJUNOK_clean_linker_0, # of connection points: 2
#     Edge 47, Type (0, 1), BuildingBlock: AJUNOK_clean_linker_0, # of connection points: 2
#     Edge 48, Type (0, 1), BuildingBlock: AJUNOK_clean_linker_0, # of connection points: 2
#     Edge 49, Type (0, 1), BuildingBlock: AJUNOK_clean_linker_0, # of connection points: 2
#     Edge 50, Type (0, 1), BuildingBlock: AJUNOK_clean_linker_0, # of connection points: 2
#     Edge 51, Type (0, 1), BuildingBlock: AJUNOK_clean_linker_0, # of connection points: 2
#     Edge 52, Type (0, 1), BuildingBlock: AJUNOK_clean_linker_0, # of connection points: 2
#     Edge 53, Type (0, 1), BuildingBlock: AJUNOK_clean_linker_0, # of connection points: 2
#     Edge 54, Type (0, 1), BuildingBlock: AJUNOK_clean_linker_0, # of connection points: 2
#     Edge 55, Type (0, 1), BuildingBlock: AJUNOK_clean_linker_0, # of connection points: 2
#     Edge 56, Type (0, 1), BuildingBlock: AJUNOK_clean_linker_0, # of connection points: 2
#     Edge 57, Type (0, 1), BuildingBlock: AJUNOK_clean_linker_0, # of connection points: 2
#     Edge 58, Type (0, 1), BuildingBlock: AJUNOK_clean_linker_0, # of connection points: 2
#     Edge 59, Type (0, 1), BuildingBlock: AJUNOK_clean_linker_0, # of connection points: 2
#     Edge 60, Type (0, 1), BuildingBlock: AJUNOK_clean_linker_0, # of connection points: 2
#     Edge 61, Type (0, 1), BuildingBlock: AJUNOK_clean_linker_0, # of connection points: 2
#     Edge 62, Type (0, 1), BuildingBlock: AJUNOK_clean_linker_0, # of connection points: 2
#     Edge 63, Type (0, 1), BuildingBlock: AJUNOK_clean_linker_0, # of connection points: 2
#     Edge 64, Type (0, 1), BuildingBlock: AJUNOK_clean_linker_0, # of connection points: 2
#     Edge 65, Type (0, 1), BuildingBlock: AJUNOK_clean_linker_0, # of connection points: 2
#     Edge 66, Type (0, 1), BuildingBlock: AJUNOK_clean_linker_0, # of connection points: 2
#     Edge 67, Type (0, 1), BuildingBlock: AJUNOK_clean_linker_0, # of connection points: 2
#     Edge 68, Type (0, 1), BuildingBlock: AJUNOK_clean_linker_0, # of connection points: 2
#     Edge 69, Type (0, 1), BuildingBlock: AJUNOK_clean_linker_0, # of connection points: 2
#     Edge 70, Type (0, 1), BuildingBlock: AJUNOK_clean_linker_0, # of connection points: 2
#     Edge 71, Type (0, 1), BuildingBlock: AJUNOK_clean_linker_0, # of connection points: 2
#     Edge 72, Type (0, 1), BuildingBlock: AJUNOK_clean_linker_0, # of connection points: 2
#     Edge 73, Type (0, 1), BuildingBlock: AJUNOK_clean_linker_0, # of connection points: 2
#     Edge 74, Type (0, 1), BuildingBlock: AJUNOK_clean_linker_0, # of connection points: 2
#     Edge 75, Type (0, 1), BuildingBlock: AJUNOK_clean_linker_0, # of connection points: 2
#     Edge 76, Type (0, 1), BuildingBlock: AJUNOK_clean_linker_0, # of connection points: 2
#     Edge 77, Type (0, 1), BuildingBlock: AJUNOK_clean_linker_0, # of connection points: 2
#     Edge 78, Type (0, 1), BuildingBlock: AJUNOK_clean_linker_0, # of connection points: 2
#     Edge 79, Type (0, 1), BuildingBlock: AJUNOK_clean_linker_0, # of connection points: 2
#     Edge 80, Type (0, 1), BuildingBlock: AJUNOK_clean_linker_0, # of connection points: 2
#     Edge 81, Type (0, 1), BuildingBlock: AJUNOK_clean_linker_0, # of connection points: 2
#     Edge 82, Type (0, 1), BuildingBlock: AJUNOK_clean_linker_0, # of connection points: 2
#     Edge 83, Type (0, 1), BuildingBlock: AJUNOK_clean_linker_0, # of connection points: 2
#     Edge 84, Type (0, 1), BuildingBlock: AJUNOK_clean_linker_0, # of connection points: 2
#     Edge 85, Type (0, 1), BuildingBlock: AJUNOK_clean_linker_0, # of connection points: 2
#     Edge 86, Type (0, 1), BuildingBlock: AJUNOK_clean_linker_0, # of connection points: 2
#     Edge 87, Type (0, 1), BuildingBlock: AJUNOK_clean_linker_0, # of connection points: 2
#     Edge 88, Type (0, 1), BuildingBlock: AJUNOK_clean_linker_0, # of connection points: 2
#     Edge 89, Type (0, 1), BuildingBlock: AJUNOK_clean_linker_0, # of connection points: 2
#     Edge 90, Type (0, 1), BuildingBlock: AJUNOK_clean_linker_0, # of connection points: 2
#     Edge 91, Type (0, 1), BuildingBlock: AJUNOK_clean_linker_0, # of connection points: 2
#     Edge 92, Type (0, 1), BuildingBlock: AJUNOK_clean_linker_0, # of connection points: 2
#     Edge 93, Type (0, 1), BuildingBlock: AJUNOK_clean_linker_0, # of connection points: 2
#     Edge 94, Type (0, 1), BuildingBlock: AJUNOK_clean_linker_0, # of connection points: 2
#     Edge 95, Type (0, 1), BuildingBlock: AJUNOK_clean_linker_0, # of connection points: 2
#     Edge 96, Type (0, 1), BuildingBlock: AJUNOK_clean_linker_0, # of connection points: 2
#     Edge 97, Type (0, 1), BuildingBlock: AJUNOK_clean_linker_0, # of connection points: 2
#     Edge 98, Type (0, 1), BuildingBlock: AJUNOK_clean_linker_0, # of connection points: 2
#     Edge 99, Type (0, 1), BuildingBlock: AJUNOK_clean_linker_0, # of connection points: 2
#     Edge 100, Type (0, 1), BuildingBlock: AJUNOK_clean_linker_0, # of connection points: 2
#     Edge 101, Type (0, 1), BuildingBlock: AJUNOK_clean_linker_0, # of connection points: 2
#     Edge 102, Type (0, 1), BuildingBlock: AJUNOK_clean_linker_0, # of connection points: 2
#     Edge 103, Type (0, 1), BuildingBlock: AJUNOK_clean_linker_0, # of connection points: 2
#     Edge 104, Type (0, 1), BuildingBlock: AJUNOK_clean_linker_0, # of connection points: 2
#     Edge 105, Type (0, 1), BuildingBlock: AJUNOK_clean_linker_0, # of connection points: 2
#     Edge 106, Type (0, 1), BuildingBlock: AJUNOK_clean_linker_0, # of connection points: 2
#     Edge 107, Type (0, 1), BuildingBlock: AJUNOK_clean_linker_0, # of connection points: 2
#     Edge 108, Type (0, 1), BuildingBlock: AJUNOK_clean_linker_0, # of connection points: 2
#     Edge 109, Type (0, 1), BuildingBlock: AJUNOK_clean_linker_0, # of connection points: 2
#     Edge 110, Type (0, 1), BuildingBlock: AJUNOK_clean_linker_0, # of connection points: 2
#     Edge 111, Type (0, 1), BuildingBlock: AJUNOK_clean_linker_0, # of connection points: 2
#     Edge 112, Type (0, 1), BuildingBlock: AJUNOK_clean_linker_0, # of connection points: 2
#     Edge 113, Type (0, 1), BuildingBlock: AJUNOK_clean_linker_0, # of connection points: 2
#     Edge 114, Type (0, 1), BuildingBlock: AJUNOK_clean_linker_0, # of connection points: 2
#     Edge 115, Type (0, 1), BuildingBlock: AJUNOK_clean_linker_0, # of connection points: 2
#     Edge 116, Type (0, 1), BuildingBlock: AJUNOK_clean_linker_0, # of connection points: 2
#     Edge 117, Type (0, 1), BuildingBlock: AJUNOK_clean_linker_0, # of connection points: 2
#     Edge 118, Type (0, 1), BuildingBlock: AJUNOK_clean_linker_0, # of connection points: 2
#     Edge 119, Type (0, 1), BuildingBlock: AJUNOK_clean_linker_0, # of connection points: 2
#     Edge 120, Type (0, 1), BuildingBlock: AJUNOK_clean_linker_0, # of connection points: 2
#     Edge 121, Type (0, 1), BuildingBlock: AJUNOK_clean_linker_0, # of connection points: 2
#     Edge 122, Type (0, 1), BuildingBlock: AJUNOK_clean_linker_0, # of connection points: 2
#     Edge 123, Type (0, 1), BuildingBlock: AJUNOK_clean_linker_0, # of connection points: 2
#     Edge 124, Type (0, 1), BuildingBlock: AJUNOK_clean_linker_0, # of connection points: 2
#     Edge 125, Type (0, 1), BuildingBlock: AJUNOK_clean_linker_0, # of connection points: 2
#     Edge 126, Type (0, 1), BuildingBlock: AJUNOK_clean_linker_0, # of connection points: 2
#     Edge 127, Type (0, 1), BuildingBlock: AJUNOK_clean_linker_0, # of connection points: 2
#     Edge 128, Type (0, 1), BuildingBlock: AJUNOK_clean_linker_0, # of connection points: 2
#     Edge 129, Type (0, 1), BuildingBlock: AJUNOK_clean_linker_0, # of connection points: 2
#     Edge 130, Type (0, 1), BuildingBlock: AJUNOK_clean_linker_0, # of connection points: 2
#     Edge 131, Type (0, 1), BuildingBlock: AJUNOK_clean_linker_0, # of connection points: 2
#     Edge 132, Type (0, 1), BuildingBlock: AJUNOK_clean_linker_0, # of connection points: 2
#     Edge 133, Type (0, 1), BuildingBlock: AJUNOK_clean_linker_0, # of connection points: 2
#     Edge 134, Type (0, 1), BuildingBlock: AJUNOK_clean_linker_0, # of connection points: 2
#     Edge 135, Type (0, 1), BuildingBlock: AJUNOK_clean_linker_0, # of connection points: 2
# Relax obj value: 0.097
# Max RMSD: 0.209
# Mean RMSD: 0.157
data_MOF--net-gar--node1-UXUYUI_clean_sbu_0--node2-KUMBUR_clean_sbu_1--edge1-AJUNOK_clean_linker_0
_symmetry_space_group_name_H-M    P1
_symmetry_Int_Tables_number       1
_symmetry_cell_setting            triclinic
loop_
_symmetry_equiv_pos_as_xyz
'x, y, z'
_cell_length_a     58.827821
_cell_length_b     58.750583
_cell_length_c     54.79166
_cell_angle_alpha  96.251333
_cell_angle_beta   96.342591
_cell_angle_gamma 101.49858
loop_
_atom_site_label
_atom_site_type_symbol
_atom_site_fract_x
_atom_site_fract_y
_atom_site_fract_z
_atom_type_partial_charge
Li0 Li 0.02742 0.31809 0.34706 0.0
Li1 Li 0.05636 0.34693 0.38337 0.0
Li2 Li 0.07684 0.32105 0.3493 0.0
Li3 Li 0.05284 0.30207 0.38145 0.0
C4 C 0.0526 0.36207 0.32982 0.0
N5 N 0.04812 0.39496 0.29832 0.0
C6 C 0.04567 0.3826 0.33823 0.0
C7 C 0.0572 0.35816 0.30543 0.0
C8 C 0.04356 0.39906 0.32202 0.0
C9 C 0.05479 0.37501 0.28975 0.0
C10 C 0.01289 0.31941 0.4005 0.0
C11 C 1.00279 0.31106 0.44054 0.0
N12 N 0.98096 0.31473 0.43397 0.0
C13 C 0.99043 0.32334 0.39426 0.0
C14 C 0.01924 0.31346 0.42392 0.0
C15 C 0.97452 0.32082 0.41139 0.0
C16 C 0.97664 0.29352 0.33465 0.0
N17 N 0.99198 0.31325 0.33087 0.0
C18 C 0.95825 0.32794 0.3139 0.0
C19 C 0.9829 0.33022 0.32032 0.0
C20 C 0.94194 0.30822 0.31866 0.0
C21 C 0.95195 0.29073 0.3288 0.0
H22 H 0.98343 0.28011 0.34332 0.0
H23 H 0.99468 0.34614 0.31762 0.0
C24 C 0.07663 0.39387 0.41537 0.0
N25 N 0.05685 0.37731 0.40607 0.0
C26 C 0.07564 0.4141 0.43164 0.0
C27 C 0.03406 0.40036 0.4286 0.0
C28 C 0.03579 0.38063 0.41232 0.0
C29 C 0.05414 0.41755 0.43899 0.0
H30 H 0.09334 0.39142 0.41036 0.0
H31 H 0.02003 0.36798 0.40457 0.0
C32 C 0.04606 0.27337 0.32855 0.0
N33 N 0.04146 0.23273 0.29624 0.0
C34 C 0.05393 0.25422 0.33671 0.0
C35 C 0.03591 0.27192 0.30399 0.0
C36 C 0.05138 0.23378 0.32009 0.0
C37 C 0.03379 0.25123 0.28791 0.0
C38 C 0.09886 0.32766 0.40586 0.0
C39 C 0.11771 0.31736 0.40128 0.0
C40 C 0.09764 0.33783 0.4298 0.0
C41 C 0.13521 0.31761 0.42079 0.0
C42 C 0.11545 0.33763 0.44884 0.0
N43 N 0.13373 0.32765 0.44397 0.0
C44 C 0.1296 0.33316 0.34263 0.0
C45 C 0.11 0.29794 0.3185 0.0
C46 C 0.1516 0.32962 0.33582 0.0
N47 N 0.1089 0.31734 0.33435 0.0
C48 C 0.13159 0.29394 0.31094 0.0
C49 C 0.1535 0.30951 0.31987 0.0
H50 H 0.12939 0.34848 0.35543 0.0
H51 H 0.09406 0.28505 0.31171 0.0
C52 C 0.02994 0.25958 0.39652 0.0
N53 N 0.05067 0.27551 0.40066 0.0
C54 C 0.02682 0.23963 0.40872 0.0
C55 C 0.06634 0.25263 0.42957 0.0
C56 C 0.06874 0.27231 0.41688 0.0
C57 C 0.04515 0.23588 0.42554 0.0
H58 H 0.01579 0.26231 0.38355 0.0
H59 H 0.08519 0.28483 0.41995 0.0
O60 O 0.05548 0.34612 0.3456 0.0
O61 O 0.02852 0.32124 0.38371 0.0
O62 O 0.04801 0.29341 0.34453 0.0
O63 O 0.08192 0.32818 0.3869 0.0
H64 H 0.04212 0.38585 0.35712 0.0
H65 H 0.06263 0.34233 0.29873 0.0
H66 H 0.03834 0.41511 0.3283 0.0
H67 H 0.0583 0.37227 0.27081 0.0
H68 H 1.00739 0.30629 0.45867 0.0
H69 H 0.98541 0.32867 0.37655 0.0
H70 H 0.03664 0.31067 0.42919 0.0
H71 H 0.95708 0.32378 0.40676 0.0
H72 H 0.95199 0.3421 0.30616 0.0
H73 H 0.94075 0.27484 0.33249 0.0
H74 H 0.0917 0.42671 0.4388 0.0
H75 H 0.01689 0.40223 0.4327 0.0
H76 H 0.06189 0.2551 0.35565 0.0
H77 H 0.02975 0.28665 0.29744 0.0
H78 H 0.05728 0.21876 0.32615 0.0
H79 H 0.026 0.24985 0.26883 0.0
H80 H 0.1187 0.30905 0.38296 0.0
H81 H 0.08309 0.34579 0.43362 0.0
H82 H 0.14992 0.30975 0.41751 0.0
H83 H 0.11477 0.34544 0.46748 0.0
H84 H 0.1672 0.34255 0.34374 0.0
H85 H 0.13071 0.27857 0.29783 0.0
H86 H 1.01012 0.22727 0.4051 0.0
H87 H 0.08107 0.25032 0.44204 0.0
Li88 Li 0.03039 0.77795 0.68641 0.0
Li89 Li 0.05435 0.76174 0.72111 0.0
Li90 Li 0.02528 0.7327 0.68459 0.0
Li91 Li 1.00513 0.7584 0.71868 0.0
C92 C 0.06907 0.76037 0.66734 0.0
N93 N 0.10005 0.76487 0.63289 0.0
C94 C 0.09251 0.77155 0.6747 0.0
C95 C 0.06133 0.75163 0.64242 0.0
C96 C 0.1079 0.77367 0.65702 0.0
C97 C 0.0773 0.75399 0.6253 0.0
C98 C 0.0393 0.80618 0.74025 0.0
C99 C 0.03967 0.82575 0.78136 0.0
N100 N 0.05013 0.84633 0.77427 0.0
C101 C 0.05013 0.82749 0.73337 0.0
C102 C 0.03401 0.80524 0.76441 0.0
C103 C 0.05543 0.84761 0.75084 0.0
C104 C 0.01334 0.81266 0.65913 0.0
N105 N 0.03265 0.80446 0.66697 0.0
C106 C 0.05703 0.83494 0.64986 0.0
C107 C 0.05423 0.81529 0.66253 0.0
C108 C 0.03746 0.84368 0.64144 0.0
C109 C 0.01533 0.8322 0.6461 0.0
H110 H 0.99636 0.80419 0.66321 0.0
H111 H 0.06947 0.80901 0.66928 0.0
C112 C 0.09871 0.7462 0.73847 0.0
N113 N 0.08919 0.76562 0.73797 0.0
C114 C 0.12315 0.74797 0.74516 0.0
C115 C 0.12848 0.78972 0.75128 0.0
C116 C 0.10386 0.78719 0.74475 0.0
C117 C 0.13902 0.77 0.7511 0.0
H118 H 0.08743 0.72905 0.7329 0.0
H119 H 0.09673 0.80275 0.74393 0.0
C120 C 0.98226 0.74931 0.66265 0.0
N121 N 0.94456 0.74329 0.62605 0.0
C122 C 0.95951 0.74186 0.66804 0.0
C123 C 0.98591 0.75352 0.63864 0.0
C124 C 0.94067 0.73894 0.64928 0.0
C125 C 0.96659 0.75044 0.62039 0.0
C126 C 0.02632 0.71661 0.73745 0.0
C127 C 0.01749 0.69312 0.72773 0.0
C128 C 0.03507 0.72262 0.76258 0.0
C129 C 0.01754 0.67591 0.74342 0.0
C130 C 0.03482 0.70489 0.77767 0.0
N131 N 0.02613 0.68211 0.76785 0.0
C132 C 0.04624 0.69709 0.65906 0.0
C133 C 1.00517 0.68745 0.64935 0.0
C134 C 0.04832 0.67733 0.64293 0.0
N135 N 0.02494 0.7022 0.66196 0.0
C136 C 1.00646 0.66721 0.63325 0.0
C137 C 0.02832 0.66192 0.62939 0.0
H138 H 0.06192 0.70856 0.66918 0.0
H139 H 0.98825 0.69139 0.65154 0.0
C140 C 0.96354 0.78097 0.72705 0.0
N141 N 0.97321 0.76266 0.7335 0.0
C142 C 0.94166 0.78451 0.73411 0.0
C143 C 0.93929 0.75091 0.75534 0.0
C144 C 0.9611 0.74774 0.74757 0.0
C145 C 0.92879 0.76945 0.74857 0.0
H146 H 0.9726 0.79292 0.71585 0.0
H147 H 0.96809 0.73296 0.75268 0.0
O148 O 0.0539 0.75759 0.68452 0.0
O149 O 0.0335 0.78638 0.72334 0.0
O150 O 1.0008 0.75282 0.68099 0.0
O151 O 0.02669 0.73362 0.72233 0.0
H152 H 0.09877 0.77867 0.69378 0.0
H153 H 0.04323 0.74295 0.63642 0.0
H154 H 0.12608 0.7823 0.66249 0.0
H155 H 0.07161 0.74714 0.60598 0.0
H156 H 0.03568 0.82531 0.80013 0.0
H157 H 0.05432 0.8285 0.71475 0.0
H158 H 0.02558 0.78885 0.76996 0.0
H159 H 0.06373 0.86425 0.74575 0.0
H160 H 0.07439 0.84326 0.64664 0.0
H161 H 0.99982 0.83852 0.64012 0.0
H162 H 0.12943 0.73191 0.74551 0.0
H163 H 0.13926 0.80724 0.75553 0.0
H164 H 0.95643 0.73834 0.68651 0.0
H165 H 1.00346 0.75931 0.63423 0.0
H166 H 0.92295 0.73324 0.65319 0.0
H167 H 0.9691 0.75378 0.60174 0.0
H168 H 1.01069 0.68824 0.70828 0.0
H169 H 0.04204 0.74076 0.77029 0.0
H170 H 1.01077 0.65764 0.73618 0.0
H171 H 0.04155 0.70924 0.79716 0.0
H172 H 0.06559 0.67405 0.6413 0.0
H173 H 0.99043 0.65605 0.62345 0.0
H174 H 0.93485 0.79914 0.72822 0.0
H175 H 0.93042 0.73851 0.76624 0.0
Li176 Li 0.52787 0.81638 0.84808 0.0
Li177 Li 0.55611 0.8452 0.8847 0.0
Li178 Li 0.57703 0.82 0.85036 0.0
Li179 Li 0.55328 0.80017 0.88216 0.0
C180 C 0.55249 0.86076 0.8312 0.0
N181 N 0.54785 0.89359 0.79966 0.0
C182 C 0.54554 0.88128 0.83961 0.0
C183 C 0.55703 0.85684 0.80679 0.0
C184 C 0.54334 0.89771 0.82338 0.0
C185 C 0.55454 0.87366 0.79109 0.0
C186 C 0.5125 0.8163 0.90083 0.0
C187 C 0.50183 0.80792 0.94066 0.0
N188 N 0.4802 0.81201 0.93393 0.0
C189 C 0.49024 0.82066 0.89442 0.0
C190 C 0.51846 0.81014 0.92425 0.0
C191 C 0.47413 0.81832 0.91136 0.0
C192 C 0.47734 0.79136 0.83436 0.0
N193 N 0.49274 0.81148 0.83171 0.0
C194 C 0.45928 0.82687 0.81563 0.0
C195 C 0.48383 0.82904 0.82229 0.0
C196 C 0.44289 0.80651 0.81873 0.0
C197 C 0.4527 0.78861 0.82819 0.0
H198 H 0.48404 0.77757 0.84237 0.0
H199 H 0.49565 0.84532 0.82076 0.0
C200 C 0.57399 0.8948 0.91183 0.0
N201 N 0.55606 0.87543 0.9076 0.0
C202 C 0.57251 0.91524 0.92749 0.0
C203 C 0.53457 0.89572 0.9349 0.0
C204 C 0.5366 0.87595 0.91897 0.0
C205 C 0.5524 0.91619 0.93926 0.0
H206 H 0.58948 0.89458 0.90292 0.0
H207 H 0.5223 0.86099 0.91581 0.0
C208 C 0.54642 0.77222 0.82886 0.0
N209 N 0.54125 0.73204 0.79571 0.0
C210 C 0.55357 0.75257 0.83662 0.0
C211 C 0.53668 0.7715 0.80428 0.0
C212 C 0.55076 0.73239 0.81957 0.0
C213 C 0.53425 0.75102 0.78777 0.0
C214 C 0.5993 0.82653 0.9067 0.0
C215 C 0.61867 0.81729 0.90165 0.0
C216 C 0.59793 0.83604 0.93086 0.0
C217 C 0.63646 0.81775 0.92093 0.0
C218 C 0.61608 0.83614 0.94965 0.0
N219 N 0.63481 0.8271 0.94433 0.0
C220 C 0.62877 0.83426 0.8406 0.0
C221 C 0.6111 0.79582 0.82283 0.0
C222 C 0.65086 0.83126 0.83364 0.0
N223 N 0.60898 0.81669 0.83534 0.0
C224 C 0.63285 0.79215 0.81548 0.0
C225 C 0.65366 0.80991 0.82074 0.0
H226 H 0.62777 0.85073 0.85093 0.0
H227 H 0.596 0.78144 0.81895 0.0
C228 C 0.53054 0.75816 0.89881 0.0
N229 N 0.55162 0.77339 0.90102 0.0
C230 C 0.52794 0.73838 0.9113 0.0
C231 C 0.56879 0.74988 0.92806 0.0
C232 C 0.57062 0.76947 0.91524 0.0
C233 C 0.54719 0.73398 0.92631 0.0
H234 H 0.51566 0.76141 0.88731 0.0
H235 H 0.58734 0.78134 0.91658 0.0
O236 O 0.55549 0.84487 0.84702 0.0
O237 O 0.52863 0.81887 0.88461 0.0
O238 O 0.54866 0.79203 0.84526 0.0
O239 O 0.58201 0.82677 0.88799 0.0
H240 H 0.54204 0.88455 0.85851 0.0
H241 H 0.56251 0.84103 0.80009 0.0
H242 H 0.5381 0.91375 0.82965 0.0
H243 H 0.55801 0.87091 0.77213 0.0
H244 H 0.50616 0.80306 0.95881 0.0
H245 H 0.48559 0.8264 0.87684 0.0
H246 H 0.53579 0.80725 0.92974 0.0
H247 H 0.45688 0.8217 0.90663 0.0
H248 H 0.4532 0.84159 0.80899 0.0
H249 H 0.44135 0.77247 0.83102 0.0
H250 H 0.58695 0.93031 0.93004 0.0
H251 H 0.51906 0.89464 0.944 0.0
H252 H 0.5612 0.75288 0.85558 0.0
H253 H 0.53106 0.78662 0.79804 0.0
H254 H 0.55614 0.717 0.82531 0.0
H255 H 0.52676 0.75019 0.76867 0.0
H256 H 0.61988 0.80963 0.88312 0.0
H257 H 0.58304 0.8433 0.93501 0.0
H258 H 0.65155 0.81066 0.9173 0.0
H259 H 0.6153 0.84346 0.96845 0.0
H260 H 0.66577 0.84582 0.83844 0.0
H261 H 0.63332 0.775 0.80638 0.0
H262 H 0.51088 0.72675 0.90945 0.0
H263 H 0.58425 0.74707 0.93895 0.0
Li264 Li 0.53263 0.27679 0.18734 0.0
Li265 Li 0.55617 0.25987 0.22179 0.0
Li266 Li 0.52704 0.23146 0.18481 0.0
Li267 Li 0.50704 0.25662 0.21876 0.0
C268 C 0.57145 0.2591 0.16844 0.0
N269 N 0.60293 0.26477 0.13459 0.0
C270 C 0.59478 0.27044 0.17628 0.0
C271 C 0.56408 0.2508 0.14337 0.0
C272 C 0.61042 0.27315 0.15889 0.0
C273 C 0.58029 0.25375 0.12655 0.0
C274 C 0.54031 0.30464 0.24072 0.0
C275 C 0.53865 0.32486 0.28098 0.0
N276 N 0.54905 0.34538 0.27372 0.0
C277 C 0.55107 0.32589 0.23366 0.0
C278 C 0.53405 0.30406 0.26454 0.0
C279 C 0.55528 0.34632 0.2506 0.0
C280 C 0.51666 0.31434 0.16457 0.0
N281 N 0.53514 0.30381 0.16866 0.0
C282 C 0.55883 0.33255 0.1488 0.0
C283 C 0.55598 0.31266 0.16104 0.0
C284 C 0.54024 0.34405 0.14462 0.0
C285 C 0.5188 0.33446 0.15246 0.0
H286 H 0.50028 0.3073 0.17099 0.0
H287 H 0.57066 0.30457 0.16473 0.0
C288 C 0.60133 0.24471 0.23445 0.0
N289 N 0.59085 0.26335 0.23866 0.0
C290 C 0.62579 0.24673 0.24122 0.0
C291 C 0.62908 0.287 0.25728 0.0
C292 C 0.60453 0.2843 0.25009 0.0
C293 C 0.64035 0.26815 0.25266 0.0
H294 H 0.59087 0.22826 0.22485 0.0
H295 H 0.59667 0.29937 0.25289 0.0
C296 C 0.48434 0.24888 0.16307 0.0
N297 N 0.44647 0.24391 0.12688 0.0
C298 C 0.46166 0.24063 0.16828 0.0
C299 C 0.48782 0.25446 0.13944 0.0
C300 C 0.44273 0.23827 0.14974 0.0
C301 C 0.46842 0.25186 0.12139 0.0
C302 C 0.52696 0.21484 0.23763 0.0
C303 C 0.51742 0.19145 0.22802 0.0
C304 C 0.53539 0.22084 0.26284 0.0
C305 C 0.51645 0.17433 0.24391 0.0
C306 C 0.5341 0.20321 0.27812 0.0
N307 N 0.52475 0.18052 0.26841 0.0
C308 C 0.54717 0.19561 0.15876 0.0
C309 C 0.506 0.18673 0.14987 0.0
C310 C 0.54858 0.17555 0.14271 0.0
N311 N 0.52613 0.20114 0.16209 0.0
C312 C 0.50664 0.16625 0.13388 0.0
C313 C 0.52818 0.16024 0.12993 0.0
H314 H 0.56312 0.20692 0.16849 0.0
H315 H 0.48933 0.19113 0.15236 0.0
C316 C 0.46725 0.28041 0.22935 0.0
N317 N 0.47507 0.26042 0.23309 0.0
C318 C 0.44546 0.28426 0.23618 0.0
C319 C 0.43891 0.247 0.2508 0.0
C320 C 0.46096 0.2438 0.24371 0.0
C321 C 0.43049 0.26761 0.24735 0.0
H322 H 0.47778 0.29354 0.2205 0.0
H323 H 0.46649 0.22768 0.2465 0.0
O324 O 0.55592 0.25615 0.18522 0.0
O325 O 0.53548 0.28453 0.22428 0.0
O326 O 0.50295 0.25189 0.18123 0.0
O327 O 0.52835 0.23175 0.22234 0.0
H328 H 0.60072 0.2774 0.1955 0.0
H329 H 0.54604 0.24211 0.137 0.0
H330 H 0.62851 0.28195 0.1647 0.0
H331 H 0.57488 0.24729 0.1071 0.0
H332 H 0.53391 0.32469 0.29949 0.0
H333 H 0.55605 0.32663 0.2153 0.0
H334 H 0.52566 0.28771 0.27022 0.0
H335 H 0.5635 0.36292 0.24537 0.0
H336 H 0.57551 0.33879 0.14255 0.0
H337 H 0.50395 0.34265 0.14962 0.0
H338 H 0.63335 0.23163 0.23704 0.0
H339 H 0.63931 0.30397 0.26582 0.0
H340 H 0.4587 0.23608 0.18645 0.0
H341 H 0.5053 0.26088 0.13517 0.0
H342 H 0.42507 0.23198 0.15354 0.0
H343 H 0.4708 0.25621 0.10303 0.0
H344 H 0.51087 0.18658 0.20851 0.0
H345 H 0.54289 0.23892 0.27046 0.0
H346 H 0.50913 0.15613 0.23675 0.0
H347 H 0.54057 0.20755 0.29768 0.0
H348 H 0.56564 0.1719 0.1406 0.0
H349 H 0.49033 0.15546 0.1243 0.0
H350 H 0.4402 0.30021 0.23208 0.0
H351 H 0.42859 0.23333 0.25918 0.0
Li352 Li 0.07222 0.82417 0.1001 0.0
Li353 Li 0.09776 0.80409 0.13428 0.0
Li354 Li 0.06849 0.77486 0.09796 0.0
Li355 Li 0.05277 0.79946 0.13248 0.0
C356 C 0.11379 0.80325 0.08143 0.0
N357 N 0.14843 0.80462 0.05119 0.0
C358 C 0.13714 0.81268 0.09125 0.0
C359 C 0.108 0.79452 0.05629 0.0
C360 C 0.15442 0.81321 0.07564 0.0
C361 C 0.12579 0.79538 0.04128 0.0
C362 C 0.08134 0.84731 0.15613 0.0
C363 C 0.08042 0.86258 0.19856 0.0
N364 N 0.087 0.88475 0.19298 0.0
C365 C 0.08817 0.87021 0.15083 0.0
C366 C 0.07756 0.84338 0.18018 0.0
C367 C 0.09094 0.88892 0.16971 0.0
C368 C 0.04683 0.86237 0.08481 0.0
N369 N 0.06803 0.8559 0.08499 0.0
C370 C 0.08301 0.89322 0.07007 0.0
C371 C 0.08592 0.87121 0.07749 0.0
C372 C 0.06144 0.90065 0.07019 0.0
C373 C 0.04321 0.88418 0.07749 0.0
H374 H 0.03248 0.85078 0.09091 0.0
H375 H 0.10287 0.86667 0.07758 0.0
C376 C 0.13378 0.78344 0.15981 0.0
N377 N 0.12828 0.80459 0.15683 0.0
C378 C 0.15385 0.78175 0.17575 0.0
C379 C 0.16311 0.82366 0.18539 0.0
C380 C 0.14267 0.82456 0.16944 0.0
C381 C 0.16919 0.802 0.18889 0.0
H382 H 0.12243 0.76759 0.1499 0.0
H383 H 0.13828 0.84134 0.16734 0.0
C384 C 0.02437 0.79069 0.07869 0.0
N385 N 0.98424 0.7809 0.0447 0.0
C386 C 1.00296 0.78016 0.08549 0.0
C387 C 0.02543 0.79621 0.05462 0.0
C388 C 0.98285 0.77539 0.06805 0.0
C389 C 1.00494 0.79109 0.03768 0.0
C390 C 0.06988 0.76091 0.15232 0.0
C391 C 0.0584 0.73746 0.14561 0.0
C392 C 0.07884 0.76913 0.17709 0.0
C393 C 0.05617 0.72254 0.16376 0.0
C394 C 0.07635 0.75362 0.19472 0.0
N395 N 0.06517 0.73085 0.18774 0.0
C396 C 0.08326 0.73039 0.07833 0.0
C397 C 0.04244 0.72511 0.07701 0.0
C398 C 0.08115 0.70587 0.07153 0.0
N399 N 0.0641 0.73988 0.08125 0.0
C400 C 0.03965 0.70043 0.07079 0.0
C401 C 0.05913 0.69011 0.06807 0.0
H402 H 0.10052 0.74172 0.08215 0.0
H403 H 0.02717 0.73225 0.07974 0.0
C404 C 0.01875 0.81762 0.15948 0.0
N405 N 0.02631 0.79791 0.1517 0.0
C406 C 0.99894 0.81621 0.17195 0.0
C407 C 0.99473 0.77426 0.16787 0.0
C408 C 0.01468 0.77648 0.15575 0.0
C409 C 0.9865 0.79425 0.17614 0.0
H410 H 0.02786 0.83448 0.15566 0.0
H411 H 0.0205 0.76095 0.14901 0.0
O412 O 0.09672 0.80229 0.09647 0.0
O413 O 0.07806 0.82888 0.13769 0.0
O414 O 0.04418 0.79599 0.09559 0.0
O415 O 0.07277 0.7756 0.13466 0.0
H416 H 0.14185 0.81949 0.11071 0.0
H417 H 0.08996 0.7871 0.0485 0.0
H418 H 0.17258 0.82043 0.08296 0.0
H419 H 0.1216 0.78867 0.02177 0.0
H420 H 0.07738 0.85985 0.21724 0.0
H421 H 0.09133 0.87352 0.13233 0.0
H422 H 0.0722 0.82573 0.18453 0.0
H423 H 0.09619 0.90675 0.16586 0.0
H424 H 0.09779 0.90425 0.06407 0.0
H425 H 0.02615 0.88832 0.07822 0.0
H426 H 0.15747 0.7646 0.17749 0.0
H427 H 0.17382 0.83988 0.19529 0.0
H428 H 1.00184 0.77578 0.10403 0.0
H429 H 0.04191 0.80442 0.04912 0.0
H430 H 0.96613 0.76733 0.07308 0.0
H431 H 1.00547 0.79526 0.01898 0.0
H432 H 0.05117 0.73083 0.12665 0.0
H433 H 0.0878 0.78723 0.18261 0.0
H434 H 0.04732 0.70436 0.15877 0.0
H435 H 0.08335 0.75969 0.21394 0.0
H436 H 0.09687 0.6992 0.06992 0.0
H437 H 0.02223 0.68942 0.06832 0.0
H438 H 0.99307 0.83205 0.1777 0.0
H439 H 0.98577 0.75698 0.17073 0.0
Li440 Li 0.51237 0.80168 0.47106 0.0
Li441 Li 0.48379 0.77307 0.4347 0.0
Li442 Li 0.50947 0.75262 0.46898 0.0
Li443 Li 0.52887 0.77647 0.43674 0.0
C444 C 0.46878 0.77712 0.48852 0.0
N445 N 0.43675 0.78256 0.5207 0.0
C446 C 0.44829 0.78424 0.48038 0.0
C447 C 0.47308 0.77281 0.51299 0.0
C448 C 0.43227 0.78685 0.49694 0.0
C449 C 0.45666 0.7757 0.52901 0.0
C450 C 0.51018 0.81633 0.41754 0.0
C451 C 0.5178 0.82704 0.37753 0.0
N452 N 0.5128 0.84833 0.38405 0.0
C453 C 0.50492 0.83822 0.42377 0.0
C454 C 0.51651 0.81058 0.39419 0.0
C455 C 0.5064 0.85419 0.40661 0.0
C456 C 0.53635 0.8524 0.4829 0.0
N457 N 0.51719 0.83689 0.48764 0.0
C458 C 0.50352 0.87033 0.50694 0.0
C459 C 0.50089 0.84574 0.49957 0.0
C460 C 0.52304 0.88687 0.50206 0.0
C461 C 0.53944 0.87701 0.48961 0.0
H462 H 0.54899 0.8458 0.47277 0.0
H463 H 0.48533 0.83384 0.50292 0.0
C464 C 0.43908 0.75289 0.39888 0.0
N465 N 0.45344 0.77272 0.41185 0.0
C466 C 0.41892 0.75403 0.38258 0.0
C467 C 0.42807 0.79584 0.39317 0.0
C468 C 0.44792 0.79393 0.40924 0.0
C469 C 0.41316 0.7758 0.37906 0.0
H470 H 0.4433 0.73603 0.4009 0.0
H471 H 0.45895 0.80962 0.41978 0.0
C472 C 0.55705 0.78358 0.49005 0.0
N473 N 0.59748 0.78909 0.52292 0.0
C474 C 0.57659 0.7763 0.48222 0.0
C475 C 0.55801 0.79361 0.51456 0.0
C476 C 0.5969 0.7793 0.49912 0.0
C477 C 0.57861 0.7962 0.53092 0.0
C478 C 0.50282 0.73025 0.41257 0.0
C479 C 0.51195 0.71077 0.41757 0.0
C480 C 0.49367 0.73191 0.38835 0.0
C481 C 0.51163 0.69313 0.39819 0.0
C482 C 0.49371 0.71391 0.36947 0.0
N483 N 0.50258 0.69505 0.37475 0.0
C484 C 0.49507 0.70125 0.47928 0.0
C485 C 0.53386 0.71819 0.49623 0.0
C486 C 0.49773 0.67903 0.48619 0.0
N487 N 0.51296 0.72074 0.48415 0.0
C488 C 0.53718 0.69629 0.50362 0.0
C489 C 0.51906 0.67574 0.49879 0.0
H490 H 0.47862 0.70254 0.46913 0.0
H491 H 0.54846 0.73309 0.49988 0.0
C492 C 0.57243 0.79851 0.42195 0.0
N493 N 0.55572 0.77827 0.41766 0.0
C494 C 0.59241 0.80082 0.40977 0.0
C495 C 0.57773 0.76166 0.38849 0.0
C496 C 0.55817 0.75997 0.40128 0.0
C497 C 0.59533 0.78221 0.39279 0.0
H498 H 0.57029 0.81289 0.43499 0.0
H499 H 0.54508 0.74392 0.39806 0.0
O500 O 0.48429 0.77377 0.47241 0.0
O501 O 0.50968 0.8008 0.43442 0.0
O502 O 0.53715 0.78126 0.47374 0.0
O503 O 0.50259 0.74747 0.43134 0.0
H504 H 0.44471 0.78754 0.46145 0.0
H505 H 0.48888 0.76722 0.51949 0.0
H506 H 0.41625 0.79222 0.49087 0.0
H507 H 0.4597 0.77242 0.54801 0.0
H508 H 0.52281 0.82291 0.35943 0.0
H509 H 0.49954 0.8428 0.44156 0.0
H510 H 0.52049 0.79364 0.38902 0.0
H511 H 0.50244 0.87122 0.41122 0.0
H512 H 0.4901 0.87627 0.51633 0.0
H513 H 0.55435 0.88819 0.48402 0.0
H514 H 0.4082 0.73794 0.37241 0.0
H515 H 0.42435 0.81304 0.39212 0.0
H516 H 0.57608 0.76842 0.46333 0.0
H517 H 0.543 0.79934 0.52084 0.0
H518 H 0.6122 0.77384 0.49332 0.0
H519 H 0.57962 0.80392 0.54996 0.0
H520 H 0.51936 0.70935 0.43615 0.0
H521 H 0.48668 0.74697 0.3842 0.0
H522 H 0.5186 0.67793 0.40179 0.0
H523 H 0.48669 0.71493 0.35063 0.0
H524 H 0.4831 0.66432 0.4807 0.0
H525 H 0.5541 0.69561 0.51314 0.0
H526 H 0.60533 0.81717 0.41336 0.0
H527 H 0.57922 0.74689 0.37554 0.0
Li528 Li 0.57298 0.32521 0.60009 0.0
Li529 Li 0.59847 0.30557 0.63416 0.0
Li530 Li 0.57013 0.27613 0.59763 0.0
Li531 Li 0.55331 0.29984 0.63212 0.0
C532 C 0.61485 0.30441 0.58139 0.0
N533 N 0.64916 0.30428 0.55089 0.0
C534 C 0.63834 0.31332 0.59099 0.0
C535 C 0.60874 0.29546 0.55632 0.0
C536 C 0.65545 0.31308 0.57526 0.0
C537 C 0.62637 0.29556 0.54118 0.0
C538 C 0.58103 0.3476 0.65662 0.0
C539 C 0.57838 0.36168 0.69897 0.0
N540 N 0.58621 0.38405 0.69453 0.0
C541 C 0.58916 0.37069 0.65251 0.0
C542 C 0.57567 0.34298 0.68004 0.0
C543 C 0.59163 0.38889 0.67189 0.0
C544 C 0.54726 0.3609 0.57903 0.0
N545 N 0.56926 0.35699 0.5853 0.0
C546 C 0.58499 0.39713 0.57765 0.0
C547 C 0.58797 0.37491 0.58432 0.0
C548 C 0.56249 0.40164 0.57111 0.0
C549 C 0.54357 0.38265 0.57174 0.0
H550 H 0.5322 0.34726 0.58012 0.0
H551 H 0.6055 0.37241 0.58948 0.0
C552 C 0.64068 0.28941 0.65154 0.0
N553 N 0.62887 0.30679 0.65661 0.0
C554 C 0.66114 0.28801 0.66694 0.0
C555 C 0.6572 0.32209 0.69323 0.0
C556 C 0.63689 0.32302 0.67716 0.0
C557 C 0.66987 0.30447 0.68828 0.0
H558 H 0.63405 0.2763 0.63555 0.0
H559 H 0.62739 0.3366 0.6814 0.0
C560 C 0.52511 0.29087 0.57859 0.0
N561 N 0.48439 0.28031 0.54545 0.0
C562 C 0.50409 0.2799 0.58588 0.0
C563 C 0.52549 0.2964 0.55446 0.0
C564 C 0.48366 0.27475 0.56885 0.0
C565 C 0.5047 0.2909 0.53796 0.0
C566 C 0.57146 0.26063 0.65043 0.0
C567 C 0.55789 0.2381 0.64258 0.0
C568 C 0.58201 0.26676 0.67503 0.0
C569 C 0.55528 0.22193 0.65949 0.0
C570 C 0.57892 0.2501 0.69139 0.0
N571 N 0.56576 0.22821 0.68334 0.0
C572 C 0.5837 0.22959 0.58907 0.0
C573 C 0.54793 0.22884 0.56498 0.0
C574 C 0.58138 0.20508 0.58203 0.0
N575 N 0.56699 0.24129 0.58093 0.0
C576 C 0.54514 0.20436 0.55714 0.0
C577 C 0.56164 0.19146 0.56607 0.0
H578 H 0.59869 0.23908 0.60201 0.0
H579 H 0.53442 0.23771 0.55854 0.0
C580 C 0.5134 0.31454 0.65041 0.0
N581 N 0.52676 0.29809 0.65157 0.0
C582 C 0.49374 0.31329 0.66313 0.0
C583 C 0.502 0.27848 0.67842 0.0
C584 C 0.52132 0.2803 0.66534 0.0
C585 C 0.48771 0.29496 0.67733 0.0
H586 H 0.51786 0.32857 0.63938 0.0
H587 H 0.5317 0.26719 0.66607 0.0
O588 O 0.59794 0.30408 0.59658 0.0
O589 O 0.57806 0.32968 0.63766 0.0
O590 O 0.54518 0.29663 0.59511 0.0
O591 O 0.57415 0.27673 0.6342 0.0
H592 H 0.64329 0.32034 0.61037 0.0
H593 H 0.5906 0.28844 0.5487 0.0
H594 H 0.67372 0.31987 0.58243 0.0
H595 H 0.62195 0.28867 0.52173 0.0
H596 H 0.57423 0.35842 0.71719 0.0
H597 H 0.5936 0.37454 0.63459 0.0
H598 H 0.56941 0.32517 0.68351 0.0
H599 H 0.59786 0.40686 0.66892 0.0
H600 H 0.60037 0.41074 0.57751 0.0
H601 H 0.52578 0.38476 0.56723 0.0
H602 H 0.66979 0.27378 0.66241 0.0
H603 H 0.66303 0.33522 0.70936 0.0
H604 H 0.50353 0.27549 0.6045 0.0
H605 H 0.54166 0.30495 0.5486 0.0
H606 H 0.46723 0.26635 0.57425 0.0
H607 H 0.5047 0.2951 0.51922 0.0
H608 H 0.54918 0.23323 0.62375 0.0
H609 H 0.5923 0.28424 0.68144 0.0
H610 H 0.54484 0.20442 0.65368 0.0
H611 H 0.58694 0.25458 0.7105 0.0
H612 H 0.59482 0.19681 0.58986 0.0
H613 H 0.52998 0.19581 0.544 0.0
H614 H 0.48342 0.32656 0.66191 0.0
H615 H 0.49796 0.26389 0.68885 0.0
Li616 Li 0.01366 0.30237 0.97164 0.0
Li617 Li 0.98513 0.27367 0.93507 0.0
Li618 Li 1.01106 0.25329 0.96952 0.0
Li619 Li 0.03024 0.27746 0.93728 0.0
C620 C 0.96973 0.27733 0.98846 0.0
N621 N 0.93676 0.28226 0.01965 0.0
C622 C 0.94941 0.28456 0.97987 0.0
C623 C 0.97336 0.27265 0.01287 0.0
C624 C 0.93292 0.2869 0.99593 0.0
C625 C 0.95648 0.27529 0.02838 0.0
C626 C 0.01217 0.3172 0.91804 0.0
C627 C 0.01783 0.3264 0.87702 0.0
N628 N 0.01523 0.3486 0.88389 0.0
C629 C 1.00944 0.34007 0.92464 0.0
C630 C 0.01618 0.3102 0.89397 0.0
C631 C 1.01103 0.35567 0.90712 0.0
C632 C 0.03904 0.35266 0.99025 0.0
N633 N 0.01788 0.33733 0.98861 0.0
C634 C 1.0009 0.37066 1.00157 0.0
C635 C 0.99904 0.34621 0.99449 0.0
C636 C 0.02236 0.38706 1.00273 0.0
C637 C 0.04165 0.37723 0.99734 0.0
H638 H 0.05398 0.34604 0.98511 0.0
H639 H 0.98211 0.33444 0.99288 0.0
C640 C 0.93709 0.25331 0.90533 0.0
N641 N 0.95451 0.27293 0.9122 0.0
C642 C 0.91642 0.25378 0.88948 0.0
C643 C 0.93151 0.29449 0.88758 0.0
C644 C 0.9517 0.29331 0.90356 0.0
C645 C 0.91316 0.27464 0.8802 0.0
H646 H 0.93916 0.2371 0.91207 0.0
H647 H 0.96506 0.30902 0.90917 0.0
C648 C 0.0584 0.28437 0.99066 0.0
N649 N 0.09854 0.28942 0.02381 0.0
C650 C 0.07817 0.27765 0.98277 0.0
C651 C 0.059 0.29366 0.01535 0.0
C652 C 0.09832 0.28036 0.99983 0.0
C653 C 0.07947 0.29605 0.03186 0.0
C654 C 1.00459 0.23121 0.91289 0.0
C655 C 0.01236 0.21101 0.91791 0.0
C656 C 0.99644 0.23357 0.88857 0.0
C657 C 0.01186 0.19342 0.89842 0.0
C658 C 0.99624 0.21559 0.86958 0.0
N659 N 1.00387 0.19605 0.87486 0.0
C660 C 0.99614 0.2036 0.98564 0.0
C661 C 0.03677 0.2176 0.99234 0.0
C662 C 0.99884 0.1816 0.99324 0.0
N663 N 0.01493 0.22155 0.98512 0.0
C664 C 0.0402 0.19587 1.00014 0.0
C665 C 0.02117 0.17691 1.00088 0.0
H666 H 0.97874 0.20592 0.97945 0.0
H667 H 0.05198 0.2312 0.99165 0.0
C668 C 0.06898 0.30117 0.91522 0.0
N669 N 0.0568 0.27945 0.91778 0.0
C670 C 0.08789 0.30382 0.90146 0.0
C671 C 0.08235 0.26178 0.89384 0.0
C672 C 0.06333 0.25989 0.90756 0.0
C673 C 0.09478 0.28398 0.89051 0.0
H674 H 0.06392 0.31654 0.92378 0.0
H675 H 0.05388 0.24276 0.91007 0.0
O676 O 0.98571 0.27424 0.97284 0.0
O677 O 1.0108 0.30172 0.93502 0.0
O678 O 0.0386 0.28214 0.97425 0.0
O679 O 1.00422 0.24823 0.93183 0.0
H680 H 0.94636 0.28818 0.96098 0.0
H681 H 0.98901 0.26697 0.0197 0.0
H682 H 0.91704 0.29237 0.98953 0.0
H683 H 0.95902 0.27173 0.04734 0.0
H684 H 0.02115 0.32131 0.8584 0.0
H685 H 1.00581 0.34567 0.94295 0.0
H686 H 0.01814 0.29251 0.88851 0.0
H687 H 1.00889 0.3734 0.91199 0.0
H688 H 0.9854 0.37662 0.00599 0.0
H689 H 0.05865 0.38857 0.99769 0.0
H690 H 0.90331 0.23771 0.88421 0.0
H691 H 0.93017 0.31112 0.8814 0.0
H692 H 0.07796 0.27041 0.96371 0.0
H693 H 0.0438 0.29898 0.02167 0.0
H694 H 0.11378 0.27527 0.99401 0.0
H695 H 0.0802 0.30319 0.05105 0.0
H696 H 0.0187 0.20891 0.93663 0.0
H697 H 0.99021 0.24906 0.88446 0.0
H698 H 0.01779 0.17767 0.90204 0.0
H699 H 0.98994 0.21712 0.85065 0.0
H700 H 0.98321 0.16806 0.99222 0.0
H701 H 0.05794 0.19409 0.0056 0.0
H702 H 0.09708 0.32126 0.89937 0.0
H703 H 0.08711 0.24606 0.88567 0.0
Li704 Li 0.40641 0.02107 0.33787 0.0
Li705 Li 0.37213 0.99911 0.31051 0.0
Li706 Li 0.40434 0.0239 0.29443 0.0
Li707 Li 0.37708 0.0404 0.31853 0.0
C708 C 0.41838 0.98023 0.31462 0.0
N709 N 0.44611 0.94802 0.32118 0.0
C710 C 0.40844 0.95765 0.31909 0.0
C711 C 0.44238 0.98644 0.31343 0.0
C712 C 0.42277 0.94162 0.32238 0.0
C713 C 0.45611 0.9699 0.31683 0.0
C714 C 0.35854 0.01688 0.35976 0.0
C715 C 0.32011 0.01662 0.37118 0.0
N716 N 0.32772 0.01252 0.39433 0.0
C717 C 0.36602 0.01273 0.38366 0.0
C718 C 0.33542 0.01883 0.3534 0.0
C719 C 0.35016 0.01054 0.40087 0.0
C720 C 0.43835 0.0436 0.3767 0.0
N721 N 0.42652 0.02198 0.36601 0.0
C722 C 0.44498 1.00379 0.39688 0.0
C723 C 0.42923 1.0022 0.3756 0.0
C724 C 0.45778 0.02593 0.408 0.0
C725 C 0.45461 0.04597 0.39753 0.0
H726 H 0.43515 0.05899 0.36901 0.0
H727 H 0.419 0.98534 0.36694 0.0
C728 C 0.34847 0.95815 0.28189 0.0
N729 N 0.35086 0.97106 0.30449 0.0
C730 C 0.3356 0.93526 0.278 0.0
C731 C 0.32761 0.93988 0.32055 0.0
C732 C 0.34054 0.96263 0.32358 0.0
C733 C 0.32578 0.92596 0.2978 0.0
H734 H 0.35771 0.96517 0.26744 0.0
H735 H 0.34362 0.97284 0.3416 0.0
C736 C 0.42939 0.0679 0.32033 0.0
N737 N 0.46588 0.10515 0.31875 0.0
C738 C 0.42482 0.08973 0.31632 0.0
C739 C 0.45247 0.06492 0.32342 0.0
C740 C 0.44353 0.10835 0.31555 0.0
C741 C 0.47069 0.08401 0.32263 0.0
C742 C 0.35386 0.01226 0.26598 0.0
C743 C 0.36019 0.00997 0.24212 0.0
C744 C 0.33029 1.00627 0.26922 0.0
C745 C 0.34283 1.00143 0.22188 0.0
C746 C 0.31345 0.9976 0.2485 0.0
N747 N 0.32001 0.99542 0.22546 0.0
C748 C 0.42182 1.00451 0.25619 0.0
C749 C 0.43104 0.04613 0.25997 0.0
C750 C 0.43279 1.00292 0.23522 0.0
N751 N 0.42119 0.02582 0.26802 0.0
C752 C 0.44254 0.04536 0.23908 0.0
C753 C 0.44319 0.0235 0.2265 0.0
H754 H 0.41334 0.98874 0.26283 0.0
H755 H 0.42968 0.0628 0.26945 0.0
C756 C 0.35647 0.07518 0.3419 0.0
N757 N 0.361 0.0637 0.32068 0.0
C758 C 0.34314 0.09227 0.34048 0.0
C759 C 0.33971 0.08466 0.29563 0.0
C760 C 0.35325 0.06826 0.29793 0.0
C761 C 0.33449 0.09672 0.31703 0.0
H762 H 0.36325 0.07111 0.3597 0.0
H763 H 0.35784 0.05935 0.28152 0.0
O764 O 0.40446 0.99582 0.31035 0.0
O765 O 0.37369 0.01815 0.34253 0.0
O766 O 0.41135 0.04986 0.32228 0.0
O767 O 0.37063 0.02129 0.28589 0.0
H768 H 0.38986 0.95252 0.31993 0.0
H769 H 0.45025 1.0038 0.30975 0.0
H770 H 0.41532 0.92407 0.32582 0.0
H771 H 0.47472 0.97442 0.3159 0.0
H772 H 0.30214 0.01805 0.36655 0.0
H773 H 0.38382 0.01098 0.38879 0.0
H774 H 0.32934 0.02184 0.33489 0.0
H775 H 0.35567 1.0072 0.4194 0.0
H776 H 0.44693 0.98801 0.4047 0.0
H777 H 0.46457 0.06329 0.40532 0.0
H778 H 0.33482 0.92443 0.26047 0.0
H779 H 0.32059 0.93268 0.33622 0.0
H780 H 0.40703 0.09229 0.31404 0.0
H781 H 0.45624 0.04813 0.32667 0.0
H782 H 0.44028 0.12538 0.31254 0.0
H783 H 0.48866 0.08205 0.32519 0.0
H784 H 0.37825 0.01507 0.23916 0.0
H785 H 0.3251 1.00815 0.28755 0.0
H786 H 0.34748 0.99967 0.20331 0.0
H787 H 0.29515 0.9927 0.25073 0.0
H788 H 0.43322 0.9858 0.22589 0.0
H789 H 0.45045 0.06148 0.23259 0.0
H790 H 0.33976 0.10192 0.35721 0.0
H791 H 0.33394 0.08841 0.2773 0.0
Li792 Li 0.27592 0.20542 0.54843 0.0
Li793 Li 0.29183 0.17413 0.52304 0.0
Li794 Li 0.27325 0.20309 0.49949 0.0
Li795 Li 0.24768 0.16989 0.5196 0.0
C796 C 0.32182 0.22527 0.52996 0.0
N797 N 0.36367 0.25778 0.53618 0.0
C798 C 0.34268 0.21908 0.5387 0.0
C799 C 0.3222 0.24798 0.52444 0.0
C800 C 0.36367 0.23575 0.54168 0.0
C801 C 0.34355 0.26418 0.52774 0.0
C802 C 0.27276 0.15502 0.56543 0.0
C803 C 0.26853 0.11496 0.57353 0.0
N804 N 0.27537 0.12266 0.59808 0.0
C805 C 0.27972 0.16252 0.59074 0.0
C806 C 0.26723 0.13105 0.5567 0.0
C807 C 0.28102 0.1459 0.60693 0.0
C808 C 0.25962 0.22716 0.59162 0.0
N809 N 0.27928 0.22337 0.58225 0.0
C810 C 0.30203 0.23778 0.62239 0.0
C811 C 0.30034 0.2288 0.59713 0.0
C812 C 0.28196 0.24164 0.6326 0.0
C813 C 0.26061 0.23647 0.61664 0.0
H814 H 0.24291 0.22223 0.57987 0.0
H815 H 0.31576 0.22526 0.58969 0.0
C816 C 0.3269 0.15098 0.50436 0.0
N817 N 0.31714 0.15758 0.52471 0.0
C818 C 0.34605 0.14003 0.50677 0.0
C819 C 0.34455 0.14282 0.55082 0.0
C820 C 0.32573 0.15378 0.54763 0.0
C821 C 0.35525 0.13612 0.53035 0.0
H822 H 0.32004 0.1545 0.48634 0.0
H823 H 0.3184 0.15981 0.56367 0.0
C824 C 0.23284 0.21886 0.5196 0.0
N825 N 0.20134 0.24767 0.5149 0.0
C826 C 0.20972 0.20948 0.50895 0.0
C827 C 0.24003 0.24283 0.52784 0.0
C828 C 0.19404 0.22435 0.50675 0.0
C829 C 0.22381 0.25713 0.52528 0.0
C830 C 0.26456 0.15106 0.47262 0.0
C831 C 0.25853 0.15652 0.44889 0.0
C832 C 0.2675 0.12848 0.47566 0.0
C833 C 0.25561 0.13923 0.42849 0.0
C834 C 0.26442 0.11167 0.45477 0.0
N835 N 0.25861 0.11736 0.43183 0.0
C836 C 0.29545 0.21965 0.45757 0.0
C837 C 0.25882 0.22985 0.45903 0.0
C838 C 0.29783 0.22916 0.43514 0.0
N839 N 0.27604 0.21982 0.46909 0.0
C840 C 0.26063 0.2398 0.43673 0.0
C841 C 0.28014 0.23923 0.42387 0.0
H842 H 0.30904 0.21161 0.46552 0.0
H843 H 0.24343 0.22998 0.46813 0.0
C844 C 0.21342 0.14037 0.54134 0.0
N845 N 0.21743 0.14769 0.51918 0.0
C846 C 0.19304 0.12424 0.54358 0.0
C847 C 0.17965 0.12459 0.50059 0.0
C848 C 0.20107 0.13983 0.49881 0.0
C849 C 0.17509 0.11661 0.52338 0.0
H850 H 0.22607 0.14706 0.55757 0.0
H851 H 0.20438 0.14573 0.48125 0.0
O852 O 0.30121 0.20898 0.52608 0.0
O853 O 0.27098 0.17108 0.5494 0.0
O854 O 0.2482 0.20449 0.52252 0.0
O855 O 0.26816 0.168 0.49266 0.0
H856 H 0.34273 0.2016 0.54306 0.0
H857 H 0.30618 0.25297 0.51755 0.0
H858 H 0.37997 0.23117 0.54832 0.0
H859 H 0.34414 0.28183 0.52351 0.0
H860 H 0.26406 0.09635 0.56709 0.0
H861 H 0.28405 0.18095 0.59785 0.0
H862 H 0.26167 0.12495 0.53719 0.0
H863 H 0.28643 0.15149 0.62655 0.0
H864 H 0.31887 0.24149 0.63389 0.0
H865 H 0.24462 0.23885 0.62365 0.0
H866 H 0.35383 0.13508 0.49052 0.0
H867 H 0.35079 0.13971 0.56926 0.0
H868 H 0.20395 0.19091 0.50258 0.0
H869 H 0.2579 0.25025 0.53621 0.0
H870 H 0.17605 0.21734 0.49861 0.0
H871 H 0.22907 0.27574 0.53162 0.0
H872 H 0.25619 0.17393 0.44624 0.0
H873 H 0.27232 0.12405 0.4939 0.0
H874 H 0.251 0.14323 0.41001 0.0
H875 H 0.26673 0.09413 0.4568 0.0
H876 H 0.31327 0.22804 0.42641 0.0
H877 H 0.24676 0.24802 0.42986 0.0
H878 H 0.19175 0.11784 0.56123 0.0
H879 H 0.16671 0.11948 0.48426 0.0
Li880 Li 0.1601 0.0822 0.79992 0.0
Li881 Li 0.12713 0.05653 0.82032 0.0
Li882 Li 0.15633 0.03828 0.79632 0.0
Li883 Li 0.12468 0.05441 0.77122 0.0
C884 C 0.17959 0.06577 0.84649 0.0
N885 N 0.21403 0.07226 0.88668 0.0
C886 C 0.17496 0.07315 0.8702 0.0
C887 C 0.20177 0.06189 0.84314 0.0
C888 C 0.19258 0.07625 0.89031 0.0
C889 C 0.21896 0.06527 0.86372 0.0
C890 C 0.11152 0.09753 0.79993 0.0
C891 C 0.07354 0.1071 0.7939 0.0
N892 N 0.08332 0.12968 0.80373 0.0
C893 C 0.12123 0.12077 0.80999 0.0
C894 C 0.08753 0.09056 0.79181 0.0
C895 C 0.10666 0.13679 0.81175 0.0
C896 C 0.18603 0.11966 0.77835 0.0
N897 N 0.18252 0.11212 0.80059 0.0
C898 C 0.21063 0.14596 0.82161 0.0
C899 C 0.1946 0.12479 0.82205 0.0
C900 C 0.21459 0.15411 0.79888 0.0
C901 C 0.20216 0.14049 0.77705 0.0
H902 H 0.17622 0.10949 0.76147 0.0
H903 H 0.19171 0.11858 0.83956 0.0
C904 C 0.11737 0.0387 0.8668 0.0
N905 N 0.11062 0.05328 0.85097 0.0
C906 C 0.10788 0.03629 0.88922 0.0
C907 C 0.08354 0.06301 0.87866 0.0
C908 C 0.09383 0.06526 0.85661 0.0
C909 C 0.09074 0.04868 0.89591 0.0
H910 H 0.13064 0.02915 0.8623 0.0
H911 H 0.0883 0.07667 0.84401 0.0
C912 C 0.17531 0.05899 0.75424 0.0
N913 N 0.20831 0.05775 0.72224 0.0
C914 C 0.16829 0.05058 0.72913 0.0
C915 C 0.19912 0.06677 0.76311 0.0
C916 C 0.18523 0.05002 0.71326 0.0
C917 C 0.21553 0.06608 0.7466 0.0
C918 C 0.10525 1.0081 0.78935 0.0
C919 C 0.11149 0.98741 0.78015 0.0
C920 C 0.08262 1.00749 0.79514 0.0
C921 C 0.09491 0.96631 0.77696 0.0
C922 C 0.06652 0.98605 0.79162 0.0
N923 N 0.07296 0.96607 0.78271 0.0
C924 C 0.17651 1.00213 0.81577 0.0
C925 C 0.18212 1.00681 0.77432 0.0
C926 C 0.18812 0.98341 0.81503 0.0
N927 N 0.17365 0.01337 0.79553 0.0
C928 C 0.19417 0.9886 0.77295 0.0
C929 C 0.19713 0.97658 0.79338 0.0
H930 H 0.16939 1.0074 0.83235 0.0
H931 H 0.17907 0.01524 0.75815 0.0
C932 C 0.10146 0.07084 0.72845 0.0
N933 N 0.10662 0.05143 0.7374 0.0
C934 C 0.09192 0.06991 0.70347 0.0
C935 C 0.09341 0.02913 0.69687 0.0
C936 C 0.10248 0.03072 0.72207 0.0
C937 C 0.08782 0.04888 0.68696 0.0
H938 H 0.10532 0.08735 0.74054 0.0
H939 H 0.10732 0.01558 0.72909 0.0
O940 O 0.1622 0.06167 0.82682 0.0
O941 O 0.12559 0.08181 0.79751 0.0
O942 O 0.15893 0.05935 0.77006 0.0
O943 O 0.12143 0.02877 0.79342 0.0
H944 H 0.15793 0.07641 0.87307 0.0
H945 H 0.20559 0.05614 0.82488 0.0
H946 H 0.1892 0.08181 0.9088 0.0
H947 H 0.23619 0.06223 0.86145 0.0
H948 H 0.05493 0.10201 0.78766 0.0
H949 H 0.13984 0.12638 0.81625 0.0
H950 H 0.07986 0.0726 0.7839 0.0
H951 H 0.11391 0.15487 0.81944 0.0
H952 H 0.2198 0.15594 0.83891 0.0
H953 H 0.20441 0.14624 0.75918 0.0
H954 H 0.11439 0.02505 0.90142 0.0
H955 H 0.0698 0.07231 0.8818 0.0
H956 H 0.14999 0.04438 0.72196 0.0
H957 H 0.20484 0.07326 0.78252 0.0
H958 H 0.18003 0.04344 0.6938 0.0
H959 H 0.23402 0.07211 0.75316 0.0
H960 H 0.12896 0.9876 0.77563 0.0
H961 H 0.07762 0.0234 0.8024 0.0
H962 H 0.09951 0.95013 0.76996 0.0
H963 H 0.04894 0.98527 0.79605 0.0
H964 H 0.18975 0.97418 0.83098 0.0
H965 H 0.20041 0.98338 0.75577 0.0
H966 H 0.088 0.0857 0.69714 0.0
H967 H 0.09169 0.01267 0.68515 0.0
Li968 Li 0.29122 0.95482 0.99939 0.0
Li969 Li 0.30496 0.92771 0.02625 0.0
Li970 Li 0.33137 0.95906 0.01114 0.0
Li971 Li 0.31048 0.9243 0.98243 0.0
C972 C 0.31813 0.97728 0.05431 0.0
N973 N 0.33826 1.00872 0.09601 0.0
C974 C 0.31891 0.96995 0.07777 0.0
C975 C 0.3274 1.0007 0.05211 0.0
C976 C 0.32918 0.98608 0.09861 0.0
C977 C 0.33761 0.01628 0.0734 0.0
C978 C 0.26281 0.90215 0.99702 0.0
C979 C 0.24637 0.86065 0.99141 0.0
N980 N 0.22566 0.86515 0.99724 0.0
C981 C 0.24141 0.90638 1.00303 0.0
C982 C 0.26538 0.87913 0.9912 0.0
C983 C 0.22283 0.88743 1.00302 0.0
C984 C 0.2479 0.9603 0.9775 0.0
N985 N 0.26763 0.97047 0.99332 0.0
C986 C 0.24981 1.00003 0.01065 0.0
C987 C 0.26926 0.99037 0.00903 0.0
C988 C 0.22861 0.98865 0.99632 0.0
C989 C 0.22773 0.96912 0.9789 0.0
H990 H 0.24729 0.94421 0.96555 0.0
H991 H 0.28508 0.99764 0.02163 0.0
C992 C 0.32256 0.90843 0.06449 0.0
N993 N 0.30162 0.9098 0.05227 0.0
C994 C 0.32346 0.89407 0.08284 0.0
C995 C 0.28106 0.88396 0.07706 0.0
C996 C 0.28099 0.89835 0.05838 0.0
C997 C 0.30256 0.88149 0.08898 0.0
H998 H 0.33862 0.91837 0.05976 0.0
H999 H 0.26459 0.90023 0.04875 0.0
C1000 C 0.31496 0.97198 0.95988 0.0
N1001 N 0.31558 1.00202 0.92444 0.0
C1002 C 0.31825 0.96441 0.9357 0.0
C1003 C 0.3122 0.99487 0.96612 0.0
C1004 C 0.31856 0.97988 0.91806 0.0
C1005 C 0.31238 0.00974 0.94788 0.0
C1006 C 0.35054 0.91342 0.01076 0.0
C1007 C 0.37249 0.92336 1.0047 0.0
C1008 C 0.34578 0.89004 0.01518 0.0
C1009 C 0.38937 0.90975 1.00325 0.0
C1010 C 0.36311 0.877 0.01345 0.0
N1011 N 0.38436 0.88705 0.0076 0.0
C1012 C 0.37252 0.97943 0.0409 0.0
C1013 C 0.36899 0.99166 1.00091 0.0
C1014 C 0.39556 0.99177 0.04603 0.0
N1015 N 0.35998 0.97949 0.01859 0.0
C1016 C 0.39198 1.00418 0.00523 0.0
C1017 C 0.4054 1.0038 0.02781 0.0
H1018 H 0.36494 0.96889 0.05415 0.0
H1019 H 0.35886 0.9906 0.98304 0.0
C1020 C 0.29118 0.90146 0.93661 0.0
N1021 N 0.30957 0.9032 0.95449 0.0
C1022 C 0.28822 0.88523 0.91545 0.0
C1023 C 0.32273 0.87252 0.93215 0.0
C1024 C 0.32553 0.88959 0.95238 0.0
C1025 C 0.30388 0.87015 0.91336 0.0
H1026 H 0.27892 0.91279 0.93884 0.0
H1027 H 0.34037 0.89167 0.96627 0.0
O1028 O 0.30716 0.96189 0.03386 0.0
O1029 O 0.28094 0.9205 0.99627 0.0
O1030 O 0.31565 0.95728 0.97751 0.0
O1031 O 0.33369 0.92638 0.01207 0.0
H1032 H 0.31125 0.95213 0.08 0.0
H1033 H 0.32689 1.00674 0.03413 0.0
H1034 H 0.32979 0.98064 0.11686 0.0
H1035 H 0.34496 0.03441 0.07194 0.0
H1036 H 0.24805 0.84273 0.9869 0.0
H1037 H 0.23922 0.9241 0.00781 0.0
H1038 H 0.28187 0.8756 0.98653 0.0
H1039 H 0.20616 0.89044 0.00762 0.0
H1040 H 0.25068 0.01475 0.02476 0.0
H1041 H 0.21134 0.95982 0.96807 0.0
H1042 H 0.3403 0.89282 0.09221 0.0
H1043 H 0.2647 0.87468 0.0819 0.0
H1044 H 0.32094 0.9469 0.93072 0.0
H1045 H 0.31025 1.00117 0.9849 0.0
H1046 H 0.32127 0.97432 0.89931 0.0
H1047 H 0.31017 0.02749 0.9524 0.0
H1048 H 0.37643 0.94131 1.00092 0.0
H1049 H 0.32873 0.88193 0.0194 0.0
H1050 H 0.40643 0.91722 0.99858 0.0
H1051 H 0.35961 0.85886 0.01664 0.0
H1052 H 0.40597 0.99088 0.06336 0.0
H1053 H 0.39964 0.01278 0.99063 0.0
H1054 H 0.27401 0.88471 0.90091 0.0
H1055 H 0.33522 0.86127 0.93134 0.0
Li1056 Li 0.292 0.40376 0.04753 0.0
Li1057 Li 0.30947 0.37477 0.07031 0.0
Li1058 Li 0.33583 0.40749 0.04953 0.0
Li1059 Li 0.30822 0.3722 0.02157 0.0
C1060 C 0.31628 0.42694 0.09632 0.0
N1061 N 0.31627 0.46121 0.13504 0.0
C1062 C 0.30724 0.42083 0.11782 0.0
C1063 C 0.32535 0.45046 0.09449 0.0
C1064 C 0.30738 0.43841 0.13719 0.0
C1065 C 0.32516 0.46754 0.11429 0.0
C1066 C 0.26172 0.35309 0.04298 0.0
C1067 C 0.23836 0.3138 0.03329 0.0
N1068 N 0.22002 0.32138 0.04205 0.0
C1069 C 0.24267 0.36052 0.05191 0.0
C1070 C 0.25959 0.32959 0.03357 0.0
C1071 C 0.22173 0.3442 0.05127 0.0
C1072 C 0.25275 0.41771 0.02436 0.0
N1073 N 0.26688 0.42079 0.04637 0.0
C1074 C 0.24417 0.4462 0.06456 0.0
C1075 C 0.26283 0.43462 0.06637 0.0
C1076 C 0.22934 0.44333 0.04204 0.0
C1077 C 0.23382 0.42878 0.0218 0.0
H1078 H 0.25618 0.40653 0.00876 0.0
H1079 H 0.27384 0.43659 0.08386 0.0
C1080 C 0.32572 0.3556 0.11514 0.0
N1081 N 0.30636 0.35853 0.10071 0.0
C1082 C 0.32389 0.34643 0.13779 0.0
C1083 C 0.28225 0.34331 0.13077 0.0
C1084 C 0.28485 0.35249 0.10824 0.0
C1085 C 0.30189 0.34008 0.14609 0.0
H1086 H 0.34279 0.36091 0.10939 0.0
H1087 H 0.26961 0.35533 0.09709 0.0
C1088 C 0.31247 0.42246 1.00432 0.0
N1089 N 0.31259 0.4547 0.97124 0.0
C1090 C 0.31455 0.41602 0.97949 0.0
C1091 C 0.3105 0.44528 0.01239 0.0
C1092 C 0.31462 0.43259 0.96305 0.0
C1093 C 0.31054 0.46132 0.99534 0.0
C1094 C 0.35019 0.35817 0.04596 0.0
C1095 C 0.37239 0.3664 0.03954 0.0
C1096 C 0.34364 0.33501 0.05053 0.0
C1097 C 0.38778 0.35121 0.03776 0.0
C1098 C 0.35954 0.32036 0.04856 0.0
N1099 N 0.3811 0.32869 0.04228 0.0
C1100 C 0.3796 0.44043 0.07118 0.0
C1101 C 0.37311 0.43271 0.02744 0.0
C1102 C 0.40103 0.45595 0.07044 0.0
N1103 N 0.36603 0.4292 0.04983 0.0
C1104 C 0.39434 0.44801 0.02585 0.0
C1105 C 0.40867 0.46013 0.04751 0.0
H1106 H 0.37382 0.43739 0.08884 0.0
H1107 H 0.36236 0.42339 0.01067 0.0
C1108 C 0.28408 0.34919 0.97292 0.0
N1109 N 0.30515 0.35416 0.98772 0.0
C1110 C 0.282 0.33951 0.94785 0.0
C1111 C 0.32321 0.33994 0.95328 0.0
C1112 C 0.32454 0.34964 0.97825 0.0
C1113 C 0.30173 0.3347 0.93745 0.0
H1114 H 0.26893 0.35347 0.98034 0.0
H1115 H 0.34131 0.35419 0.98987 0.0
O1116 O 0.31662 0.40991 0.07736 0.0
O1117 O 0.28215 0.36888 0.04281 0.0
O1118 O 0.312 0.40633 0.02053 0.0
O1119 O 0.33522 0.37297 0.04855 0.0
H1120 H 0.30016 0.40272 0.11953 0.0
H1121 H 0.33242 0.45545 0.07796 0.0
H1122 H 0.30044 0.43393 0.15394 0.0
H1123 H 0.33211 0.48582 0.11316 0.0
H1124 H 0.23643 0.29554 0.02605 0.0
H1125 H 0.24405 0.37866 0.05928 0.0
H1126 H 0.27418 0.32365 0.02648 0.0
H1127 H 0.20683 0.34968 0.05808 0.0
H1128 H 0.24116 0.45699 0.08071 0.0
H1129 H 0.22291 0.4262 1.00403 0.0
H1130 H 0.33972 0.34494 0.14902 0.0
H1131 H 0.26491 0.33877 0.13614 0.0
H1132 H 0.31617 0.39844 0.97297 0.0
H1133 H 0.30882 0.45048 0.03157 0.0
H1134 H 0.31624 0.42786 0.94378 0.0
H1135 H 0.30892 0.47904 1.00127 0.0
H1136 H 0.37771 0.38435 0.03608 0.0
H1137 H 0.32652 0.32851 0.05569 0.0
H1138 H 0.40506 0.35733 0.03286 0.0
H1139 H 0.35477 0.30238 0.05209 0.0
H1140 H 0.41142 0.46477 0.08766 0.0
H1141 H 0.39966 0.44994 0.00777 0.0
H1142 H 0.26514 0.3366 0.93652 0.0
H1143 H 0.33899 0.33668 0.94639 0.0
Li1144 Li 0.77489 0.15288 0.08607 0.0
Li1145 Li 0.79175 0.12254 0.06565 0.0
Li1146 Li 0.77563 0.151 0.04205 0.0
Li1147 Li 0.75105 0.11935 0.05835 0.0
C1148 C 0.82081 0.17517 0.0698 0.0
N1149 N 0.85827 0.2128 0.07461 0.0
C1150 C 0.84366 0.17185 0.0746 0.0
C1151 C 0.81696 0.19756 0.06735 0.0
C1152 C 0.86237 0.19111 0.07701 0.0
C1153 C 0.83615 0.21638 0.06983 0.0
C1154 C 0.77249 0.10529 0.10766 0.0
C1155 C 0.768 0.06653 0.11961 0.0
N1156 N 0.77442 0.07613 0.14374 0.0
C1157 C 0.77916 0.11479 0.13254 0.0
C1158 C 0.76697 0.08099 0.10106 0.0
C1159 C 0.78004 0.09975 0.15051 0.0
C1160 C 0.75765 0.17549 0.12471 0.0
N1161 N 0.77714 0.17302 0.11445 0.0
C1162 C 0.80164 0.20107 0.14562 0.0
C1163 C 0.79886 0.185 0.12459 0.0
C1164 C 0.78194 0.20399 0.15673 0.0
C1165 C 0.75967 0.19113 0.14615 0.0
H1166 H 0.74069 0.16527 0.11626 0.0
H1167 H 0.81404 0.18199 0.11649 0.0
C1168 C 0.82032 0.09966 0.04435 0.0
N1169 N 0.81514 0.10628 0.06717 0.0
C1170 C 0.83952 0.08991 0.04196 0.0
C1171 C 0.84785 0.09386 0.08678 0.0
C1172 C 0.82795 0.10323 0.08831 0.0
C1173 C 0.85381 0.08768 0.06331 0.0
H1174 H 0.81032 0.10318 0.02801 0.0
H1175 H 0.82348 0.10923 0.10617 0.0
C1176 C 0.73329 0.16643 0.06262 0.0
N1177 N 0.70164 0.19527 0.06587 0.0
C1178 C 0.70922 0.15689 0.05809 0.0
C1179 C 0.74125 0.19064 0.06883 0.0
C1180 C 0.69351 0.17176 0.05974 0.0
C1181 C 0.72497 0.20491 0.07047 0.0
C1182 C 0.76286 0.10039 0.01347 0.0
C1183 C 0.75597 0.10694 0.99048 0.0
C1184 C 0.76077 0.07669 0.01599 0.0
C1185 C 0.74684 0.08957 0.97037 0.0
C1186 C 0.75161 0.05984 0.99541 0.0
N1187 N 0.74489 0.06658 0.97322 0.0
C1188 C 0.79784 0.17271 0.00532 0.0
C1189 C 0.75863 0.17622 0.00835 0.0
C1190 C 0.79851 0.18535 0.98519 0.0
N1191 N 0.77806 0.16855 0.01629 0.0
C1192 C 0.75863 0.18907 0.98868 0.0
C1193 C 0.77867 0.19359 0.97698 0.0
H1194 H 0.81283 0.16594 0.012 0.0
H1195 H 0.74296 0.17192 0.01689 0.0
C1196 C 0.7143 0.09112 0.07324 0.0
N1197 N 0.72293 0.09909 0.0531 0.0
C1198 C 0.69156 0.07838 0.07089 0.0
C1199 C 0.68736 0.08228 0.02705 0.0
C1200 C 0.7102 0.09494 0.03028 0.0
C1201 C 0.67787 0.07442 0.04769 0.0
H1202 H 0.72457 0.09581 0.09132 0.0
H1203 H 0.71717 0.10279 0.01504 0.0
O1204 O 0.80238 0.1566 0.06842 0.0
O1205 O 0.76973 0.11974 0.09015 0.0
O1206 O 0.74886 0.15214 0.05999 0.0
O1207 O 0.77243 0.11719 0.03316 0.0
H1208 H 0.84686 0.1546 0.0767 0.0
H1209 H 0.79936 0.20039 0.0637 0.0
H1210 H 0.88016 0.18883 0.08087 0.0
H1211 H 0.83347 0.23384 0.06804 0.0
H1212 H 0.76352 0.04768 0.11483 0.0
H1213 H 0.78325 0.13358 0.13796 0.0
H1214 H 0.76152 0.0734 0.08189 0.0
H1215 H 0.785 0.10685 0.16987 0.0
H1216 H 0.81902 0.21106 0.15314 0.0
H1217 H 0.74416 0.19297 0.15451 0.0
H1218 H 0.8442 0.08577 0.02365 0.0
H1219 H 0.85903 0.09266 0.10346 0.0
H1220 H 0.7027 0.13823 0.05307 0.0
H1221 H 0.7598 0.19831 0.07234 0.0
H1222 H 0.67485 0.16461 0.05608 0.0
H1223 H 0.73088 0.22368 0.07532 0.0
H1224 H 0.75761 0.12522 0.98818 0.0
H1225 H 0.76623 0.0714 0.03365 0.0
H1226 H 0.74137 0.09436 0.95248 0.0
H1227 H 0.74991 0.04142 0.99705 0.0
H1228 H 0.81405 0.18845 0.97607 0.0
H1229 H 0.74298 0.19499 0.98226 0.0
H1230 H 0.68433 0.0728 0.08716 0.0
H1231 H 0.67678 0.08012 0.00913 0.0
Li1232 Li 0.20893 0.57823 0.2619 0.0
Li1233 Li 0.17624 0.55202 0.27491 0.0
Li1234 Li 0.20466 0.53715 0.25149 0.0
Li1235 Li 0.17575 0.55625 0.23181 0.0
C1236 C 0.22604 0.5623 0.30549 0.0
N1237 N 0.25885 0.57739 0.34714 0.0
C1238 C 0.21963 0.57249 0.32723 0.0
C1239 C 0.24907 0.55963 0.30494 0.0
C1240 C 0.2365 0.58006 0.34809 0.0
C1241 C 0.26542 0.56742 0.3262 0.0
C1242 C 0.162 0.59614 0.2567 0.0
C1243 C 0.12428 0.60467 0.24451 0.0
N1244 N 0.1333 0.62782 0.25237 0.0
C1245 C 0.17085 0.61999 0.26487 0.0
C1246 C 0.13846 0.58834 0.24674 0.0
C1247 C 0.15608 0.63573 0.26248 0.0
C1248 C 0.22599 0.6183 0.24794 0.0
N1249 N 0.2293 0.6065 0.26746 0.0
C1250 C 0.25835 0.63835 0.28912 0.0
C1251 C 0.24506 0.61583 0.28785 0.0
C1252 C 0.25491 0.65104 0.26934 0.0
C1253 C 0.23847 0.64093 0.24861 0.0
H1254 H 0.21296 0.61029 0.23225 0.0
H1255 H 0.24709 0.60625 0.30328 0.0
C1256 C 0.15066 0.52827 0.30927 0.0
N1257 N 0.15766 0.54863 0.29987 0.0
C1258 C 0.13663 0.52781 0.32824 0.0
C1259 C 0.13788 0.56918 0.32719 0.0
C1260 C 0.15186 0.56886 0.30862 0.0
C1261 C 0.13009 0.54852 0.33714 0.0
H1262 H 0.1561 0.51259 0.30219 0.0
H1263 H 0.15862 0.58495 0.30167 0.0
C1264 C 0.22392 0.56052 0.21198 0.0
N1265 N 0.25342 0.561 0.17614 0.0
C1266 C 0.21492 0.5514 0.18741 0.0
C1267 C 0.24787 0.56988 0.21838 0.0
C1268 C 0.23015 0.55177 0.16955 0.0
C1269 C 0.26251 0.56997 0.19996 0.0
C1270 C 0.15285 0.50824 0.24765 0.0
C1271 C 0.1571 0.4856 0.24522 0.0
C1272 C 0.13028 0.51155 0.25002 0.0
C1273 C 0.13862 0.46654 0.24521 0.0
C1274 C 0.1123 0.49205 0.25008 0.0
N1275 N 0.11679 0.47013 0.24764 0.0
C1276 C 0.22191 0.50498 0.27088 0.0
C1277 C 0.2303 0.50568 0.22941 0.0
C1278 C 0.23371 0.48729 0.27385 0.0
N1279 N 0.22068 0.51386 0.24913 0.0
C1280 C 0.24213 0.48748 0.23145 0.0
C1281 C 0.24389 0.47847 0.25401 0.0
H1282 H 0.21349 0.5116 0.28586 0.0
H1283 H 0.22858 0.51303 0.21224 0.0
C1284 C 0.15809 0.57603 0.19179 0.0
N1285 N 0.15676 0.55651 0.20318 0.0
C1286 C 0.14255 0.57572 0.17061 0.0
C1287 C 0.12493 0.53536 0.17391 0.0
C1288 C 0.14101 0.53632 0.19451 0.0
C1289 C 0.12562 0.55519 0.16175 0.0
H1290 H 0.17111 0.59172 0.19924 0.0
H1291 H 0.14086 0.52097 0.20358 0.0
O1292 O 0.20977 0.55461 0.28496 0.0
O1293 O 0.17618 0.5805 0.25954 0.0
O1294 O 0.20912 0.56134 0.22941 0.0
O1295 O 0.1705 0.52691 0.24627 0.0
H1296 H 0.20187 0.57464 0.32795 0.0
H1297 H 0.25429 0.55181 0.28821 0.0
H1298 H 0.23184 0.58807 0.36502 0.0
H1299 H 0.28333 0.56557 0.32604 0.0
H1300 H 0.10607 0.59892 0.23663 0.0
H1301 H 0.18882 0.62625 0.27338 0.0
H1302 H 0.13122 0.56991 0.24076 0.0
H1303 H 0.1627 0.65422 0.26877 0.0
H1304 H 0.27077 0.64595 0.30547 0.0
H1305 H 0.23475 0.65064 0.23348 0.0
H1306 H 0.13119 0.51173 0.336 0.0
H1307 H 0.13385 0.58566 0.33433 0.0
H1308 H 0.19637 0.54424 0.18218 0.0
H1309 H 0.25501 0.57718 0.23732 0.0
H1310 H 0.22344 0.54482 0.15044 0.0
H1311 H 0.28108 0.57726 0.20459 0.0
H1312 H 0.17439 0.48274 0.24292 0.0
H1313 H 0.1267 0.52898 0.25168 0.0
H1314 H 0.1416 0.44889 0.24314 0.0
H1315 H 0.09474 0.49432 0.25193 0.0
H1316 H 0.23446 0.48012 0.29127 0.0
H1317 H 0.24956 0.48045 0.21582 0.0
H1318 H 0.14385 0.59113 0.16122 0.0
H1319 H 0.11206 0.51925 0.16755 0.0
Li1320 Li 0.79167 0.90319 0.54767 0.0
Li1321 Li 0.80914 0.87453 0.57103 0.0
Li1322 Li 0.83543 0.90737 0.55003 0.0
Li1323 Li 0.80802 0.87178 0.52236 0.0
C1324 C 0.81456 0.92669 0.59636 0.0
N1325 N 0.81321 0.96073 0.6348 0.0
C1326 C 0.80523 0.92036 0.61764 0.0
C1327 C 0.82323 0.9503 0.5946 0.0
C1328 C 0.80469 0.93784 0.63687 0.0
C1329 C 0.82236 0.96726 0.61424 0.0
C1330 C 0.7614 0.85263 0.54261 0.0
C1331 C 0.73827 0.81329 0.53221 0.0
N1332 N 0.71957 0.82074 0.54022 0.0
C1333 C 0.74198 0.85992 0.55075 0.0
C1334 C 0.75958 0.82917 0.53323 0.0
C1335 C 0.72097 0.84352 0.54939 0.0
C1336 C 0.75568 0.91973 0.52234 0.0
N1337 N 0.76639 0.91965 0.5456 0.0
C1338 C 0.73949 0.94053 0.56292 0.0
C1339 C 0.75872 0.9298 0.5658 0.0
C1340 C 0.72797 0.94061 0.53907 0.0
C1341 C 0.73659 0.93034 0.51863 0.0
H1342 H 0.76194 0.91141 0.50659 0.0
H1343 H 0.76719 0.92924 0.58417 0.0
C1344 C 0.82482 0.85787 0.61781 0.0
N1345 N 0.80573 0.85816 0.60134 0.0
C1346 C 0.82226 0.84851 0.64029 0.0
C1347 C 0.78051 0.83962 0.62876 0.0
C1348 C 0.78384 0.8491 0.60654 0.0
C1349 C 0.79982 0.83946 0.64637 0.0
H1350 H 0.84212 0.86539 0.61381 0.0
H1351 H 0.76872 0.8496 0.59368 0.0
C1352 C 0.81281 0.92223 0.50488 0.0
N1353 N 0.81428 0.95509 0.47237 0.0
C1354 C 0.81569 0.91618 0.4802 0.0
C1355 C 0.81093 0.94504 0.51312 0.0
C1356 C 0.81635 0.93303 0.46404 0.0
C1357 C 0.81162 0.96139 0.49636 0.0
C1358 C 0.85013 0.85819 0.54648 0.0
C1359 C 0.87198 0.86649 0.53928 0.0
C1360 C 0.84398 0.83508 0.55132 0.0
C1361 C 0.88744 0.85141 0.53703 0.0
C1362 C 0.85991 0.82053 0.54881 0.0
N1363 N 0.88114 0.82894 0.54181 0.0
C1364 C 0.87956 0.93976 0.57183 0.0
C1365 C 0.87157 0.93502 0.52813 0.0
C1366 C 0.90057 0.956 0.57125 0.0
N1367 N 0.8654 0.92968 0.55042 0.0
C1368 C 0.8922 0.95129 0.52674 0.0
C1369 C 0.90707 0.96225 0.54847 0.0
H1370 H 0.87456 0.93525 0.5894 0.0
H1371 H 0.86058 0.92647 0.51124 0.0
C1372 C 0.78613 0.85592 0.47203 0.0
N1373 N 0.80419 0.85348 0.48871 0.0
C1374 C 0.78405 0.84663 0.44688 0.0
C1375 C 0.81859 0.83141 0.45625 0.0
C1376 C 0.82023 0.84133 0.4812 0.0
C1377 C 0.80041 0.83408 0.4384 0.0
H1378 H 0.77384 0.86611 0.47802 0.0
H1379 H 0.83474 0.83978 0.49438 0.0
O1380 O 0.816 0.90976 0.57777 0.0
O1381 O 0.78202 0.86844 0.54346 0.0
O1382 O 0.81174 0.9058 0.52081 0.0
O1383 O 0.8351 0.87286 0.54947 0.0
H1384 H 0.79852 0.90215 0.61932 0.0
H1385 H 0.83066 0.95544 0.5783 0.0
H1386 H 0.79756 0.93319 0.65348 0.0
H1387 H 0.82904 0.98562 0.61319 0.0
H1388 H 0.73658 0.79506 0.52501 0.0
H1389 H 0.74312 0.87799 0.55816 0.0
H1390 H 0.77448 0.82332 0.5268 0.0
H1391 H 0.70579 0.84889 0.55562 0.0
H1392 H 0.73346 0.94832 0.57916 0.0
H1393 H 0.72871 0.93059 0.49986 0.0
H1394 H 0.83776 0.84893 0.65313 0.0
H1395 H 0.76286 0.83245 0.63207 0.0
H1396 H 0.81763 0.89874 0.47362 0.0
H1397 H 0.80878 0.95001 0.53221 0.0
H1398 H 0.81855 0.92858 0.44488 0.0
H1399 H 0.81003 0.97909 0.50241 0.0
H1400 H 0.87698 0.88442 0.5356 0.0
H1401 H 0.82711 0.82852 0.55703 0.0
H1402 H 0.90447 0.85759 0.53156 0.0
H1403 H 0.85543 0.80258 0.55251 0.0
H1404 H 0.91153 0.96376 0.58852 0.0
H1405 H 0.89671 0.95482 0.50868 0.0
H1406 H 0.77019 0.85015 0.43411 0.0
H1407 H 0.83167 0.82192 0.45098 0.0
Li1408 Li 0.95799 0.0221 0.29865 0.0
Li1409 Li 0.92226 0.99444 0.27047 0.0
Li1410 Li 0.95555 0.02065 0.24958 0.0
Li1411 Li 0.92686 0.03872 0.27248 0.0
C1412 C 0.97193 0.98009 0.27398 0.0
N1413 N 1.00183 0.94953 0.27695 0.0
C1414 C 0.96455 0.95831 0.28184 0.0
C1415 C 0.9945 0.98645 0.26777 0.0
C1416 C 0.97992 0.94305 0.28313 0.0
C1417 C 1.00939 0.97074 0.26942 0.0
C1418 C 0.90892 0.0199 0.31687 0.0
C1419 C 0.87253 0.02717 0.32888 0.0
N1420 N 0.87916 0.02275 0.35217 0.0
C1421 C 0.91534 0.01534 0.34089 0.0
C1422 C 0.88733 0.02582 0.31076 0.0
C1423 C 0.90008 0.01693 0.35849 0.0
C1424 C 0.97657 0.04474 0.3491 0.0
N1425 N 0.9762 0.02535 0.33274 0.0
C1426 C 0.99527 1.00857 0.36564 0.0
C1427 C 0.98553 1.00748 0.34067 0.0
C1428 C 0.99522 0.02805 0.38301 0.0
C1429 C 0.98584 0.04637 0.37428 0.0
H1430 H 0.96879 0.05865 0.34284 0.0
H1431 H 0.98474 0.99193 0.32785 0.0
C1432 C 0.90271 0.94416 0.25605 0.0
N1433 N 0.8999 0.96413 0.26943 0.0
C1434 C 0.88785 0.92241 0.25716 0.0
C1435 C 0.86666 0.94207 0.28479 0.0
C1436 C 0.882 0.96333 0.28333 0.0
C1437 C 0.86968 0.92097 0.27208 0.0
H1438 H 0.91687 0.94499 0.24492 0.0
H1439 H 0.87955 0.97919 0.29352 0.0
C1440 C 0.97731 0.06866 0.27712 0.0
N1441 N 1.00874 0.1105 0.27769 0.0
C1442 C 0.9699 0.08732 0.26723 0.0
C1443 C 1.00067 0.07122 0.28726 0.0
C1444 C 0.98606 0.10837 0.26776 0.0
C1445 C 0.01632 0.09251 0.28732 0.0
C1446 C 0.90375 0.01434 0.22344 0.0
C1447 C 0.91017 0.02435 0.20254 0.0
C1448 C 0.88025 1.00451 0.22444 0.0
C1449 C 0.89289 0.02434 0.18288 0.0
C1450 C 0.86349 1.00494 0.20442 0.0
N1451 N 0.8701 0.01473 0.18423 0.0
C1452 C 0.9678 1.00465 0.20064 0.0
C1453 C 0.98474 0.04438 0.21494 0.0
C1454 C 0.97677 1.00665 0.17788 0.0
N1455 N 0.97179 0.02337 0.21883 0.0
C1456 C 0.99397 0.04714 0.19244 0.0
C1457 C 0.99011 0.02816 0.17329 0.0
H1458 H 0.95707 0.98817 0.20349 0.0
H1459 H 0.98763 0.05934 0.22908 0.0
C1460 C 0.91471 0.07962 0.29463 0.0
N1461 N 0.91022 0.06423 0.27337 0.0
C1462 C 0.90372 0.09866 0.29688 0.0
C1463 C 0.88337 0.08571 0.25546 0.0
C1464 C 0.89495 0.06705 0.25389 0.0
C1465 C 0.88786 0.1019 0.27709 0.0
H1466 H 0.92684 0.07706 0.3099 0.0
H1467 H 0.89165 0.05494 0.23705 0.0
O1468 O 0.95686 0.99482 0.27164 0.0
O1469 O 0.92374 0.01857 0.29947 0.0
O1470 O 0.96174 0.04804 0.27716 0.0
O1471 O 0.92044 0.01392 0.24271 0.0
H1472 H 0.94715 0.95325 0.28685 0.0
H1473 H 1.00037 1.00327 0.26161 0.0
H1474 H 0.97442 0.92606 0.28904 0.0
H1475 H 0.02692 0.97536 0.26463 0.0
H1476 H 0.85574 0.03166 0.3244 0.0
H1477 H 0.93185 0.01047 0.34586 0.0
H1478 H 0.88194 0.02906 0.29215 0.0
H1479 H 0.90484 0.01347 0.37716 0.0
H1480 H 1.00198 0.99388 0.37153 0.0
H1481 H 0.98527 0.06167 0.38696 0.0
H1482 H 0.89097 0.90679 0.24686 0.0
H1483 H 0.85247 0.9423 0.29575 0.0
H1484 H 0.9519 0.08557 0.25918 0.0
H1485 H 1.00662 0.05688 0.29498 0.0
H1486 H 0.98057 0.123 0.26025 0.0
H1487 H 0.03448 0.09475 0.29506 0.0
H1488 H 0.92827 0.0321 0.20153 0.0
H1489 H 0.87504 0.99674 0.24054 0.0
H1490 H 0.8976 0.03199 0.16656 0.0
H1491 H 0.84521 0.99747 0.20493 0.0
H1492 H 0.97266 0.99154 0.16371 0.0
H1493 H 1.00409 0.0641 0.19008 0.0
H1494 H 0.90734 0.11057 0.31405 0.0
H1495 H 0.87121 0.08761 0.23985 0.0
Li1496 Li 0.27396 0.65407 0.58755 0.0
Li1497 Li 0.29243 0.62472 0.56794 0.0
Li1498 Li 0.27512 0.65157 0.54362 0.0
Li1499 Li 0.25132 0.61923 0.56039 0.0
C1500 C 0.32032 0.67694 0.57063 0.0
N1501 N 0.35816 0.7139 0.57359 0.0
C1502 C 0.34307 0.67341 0.57566 0.0
C1503 C 0.31675 0.69922 0.56705 0.0
C1504 C 0.36198 0.69234 0.57711 0.0
C1505 C 0.33615 0.71769 0.56859 0.0
C1506 C 0.27147 0.60611 0.6094 0.0
C1507 C 0.26469 0.56687 0.62018 0.0
N1508 N 0.27087 0.57579 0.64453 0.0
C1509 C 0.2778 0.61491 0.63449 0.0
C1510 C 0.26493 0.58192 0.6021 0.0
C1511 C 0.27742 0.59928 0.65198 0.0
C1512 C 0.25526 0.67414 0.62654 0.0
N1513 N 0.27484 0.67431 0.61553 0.0
C1514 C 0.29706 0.70522 0.64529 0.0
C1515 C 0.29554 0.68913 0.62452 0.0
C1516 C 0.27731 0.70526 0.65737 0.0
C1517 C 0.2561 0.6897 0.64781 0.0
H1518 H 0.23914 0.66185 0.61884 0.0
H1519 H 0.3109 0.68839 0.61574 0.0
C1520 C 0.32352 0.60728 0.54694 0.0
N1521 N 0.31606 0.60936 0.56939 0.0
C1522 C 0.3411 0.59551 0.54334 0.0
C1523 C 0.34364 0.58889 0.58648 0.0
C1524 C 0.3255 0.60063 0.58917 0.0
C1525 C 0.35124 0.58631 0.56324 0.0
H1526 H 0.31585 0.61496 0.53189 0.0
H1527 H 0.31915 0.60296 0.60684 0.0
C1528 C 0.23179 0.66532 0.56355 0.0
N1529 N 0.19915 0.69303 0.56647 0.0
C1530 C 0.20789 0.65517 0.55837 0.0
C1531 C 0.23913 0.68955 0.5701 0.0
C1532 C 0.19165 0.66949 0.55991 0.0
C1533 C 0.22233 0.70325 0.57161 0.0
C1534 C 0.26551 0.60124 0.51524 0.0
C1535 C 0.25705 0.60758 0.49265 0.0
C1536 C 0.26649 0.57789 0.51692 0.0
C1537 C 0.24942 0.59034 0.47214 0.0
C1538 C 0.25873 0.56117 0.49595 0.0
N1539 N 0.25041 0.56769 0.4742 0.0
C1540 C 0.2962 0.67378 0.50619 0.0
C1541 C 0.25611 0.67378 0.50865 0.0
C1542 C 0.29552 0.68529 0.48523 0.0
N1543 N 0.2766 0.66839 0.51724 0.0
C1544 C 0.25466 0.68523 0.48804 0.0
C1545 C 0.2744 0.69082 0.47598 0.0
H1546 H 0.31212 0.66881 0.51341 0.0
H1547 H 0.2407 0.66862 0.51738 0.0
C1548 C 0.2139 0.59537 0.57732 0.0
N1549 N 0.22376 0.59786 0.55627 0.0
C1550 C 0.19115 0.58282 0.57592 0.0
C1551 C 0.18976 0.57486 0.53131 0.0
C1552 C 0.21246 0.58777 0.53355 0.0
C1553 C 0.17889 0.57318 0.5526 0.0
H1554 H 0.22313 0.60448 0.59492 0.0
H1555 H 0.22021 0.59106 0.51707 0.0
O1556 O 0.30169 0.6588 0.57031 0.0
O1557 O 0.27046 0.62125 0.59229 0.0
O1558 O 0.24785 0.65159 0.56109 0.0
O1559 O 0.27305 0.61788 0.53551 0.0
H1560 H 0.34606 0.65629 0.57874 0.0
H1561 H 0.29921 0.70222 0.56332 0.0
H1562 H 0.37969 0.6899 0.58115 0.0
H1563 H 0.3337 0.73506 0.56593 0.0
H1564 H 0.25948 0.54811 0.61486 0.0
H1565 H 0.28274 0.63362 0.64039 0.0
H1566 H 0.25981 0.5749 0.58272 0.0
H1567 H 0.28218 0.60584 0.67149 0.0
H1568 H 0.31357 0.71736 0.65194 0.0
H1569 H 0.24059 0.68936 0.65686 0.0
H1570 H 0.34714 0.59403 0.52534 0.0
H1571 H 0.35168 0.58214 0.60209 0.0
H1572 H 0.20192 0.63648 0.55287 0.0
H1573 H 0.25758 0.69766 0.57395 0.0
H1574 H 0.1731 0.6619 0.55579 0.0
H1575 H 0.22773 0.72203 0.57676 0.0
H1576 H 0.25615 0.62555 0.491 0.0
H1577 H 0.27307 0.57275 0.53426 0.0
H1578 H 0.24269 0.59497 0.4546 0.0
H1579 H 0.25931 0.54301 0.49696 0.0
H1580 H 0.31099 0.68941 0.47614 0.0
H1581 H 0.23818 0.68952 0.48141 0.0
H1582 H 0.18265 0.58214 0.59248 0.0
H1583 H 0.18016 0.56808 0.51307 0.0
Li1584 Li 0.42132 0.49459 0.77051 0.0
Li1585 Li 0.45666 0.52232 0.79844 0.0
Li1586 Li 0.42516 0.53831 0.77201 0.0
Li1587 Li 0.45436 0.52069 0.74981 0.0
C1588 C 0.40655 0.51845 0.8157 0.0
N1589 N 0.37458 0.51854 0.84899 0.0
C1590 C 0.41323 0.51683 0.84063 0.0
C1591 C 0.38362 0.52005 0.80765 0.0
C1592 C 0.3968 0.51686 0.85717 0.0
C1593 C 0.36773 0.52015 0.82481 0.0
C1594 C 0.47082 0.4803 0.77379 0.0
C1595 C 0.50886 0.4718 0.77079 0.0
N1596 N 0.50077 0.44976 0.77604 0.0
C1597 C 0.46284 0.45762 0.77917 0.0
C1598 C 0.49396 0.48753 0.76957 0.0
C1599 C 0.47828 0.44242 0.78025 0.0
C1600 C 0.38965 0.45006 0.74913 0.0
N1601 N 0.39948 0.46452 0.77041 0.0
C1602 C 0.37883 0.43738 0.79443 0.0
C1603 C 0.39441 0.45843 0.7928 0.0
C1604 C 0.36819 0.42213 0.77282 0.0
C1605 C 0.37401 0.42872 0.74993 0.0
H1606 H 0.39394 0.45506 0.73149 0.0
H1607 H 0.40269 0.4698 0.80958 0.0
C1608 C 0.48078 0.54617 0.84711 0.0
N1609 N 0.4749 0.52517 0.83213 0.0
C1610 C 0.49067 0.54772 0.87208 0.0
C1611 C 0.4887 0.50617 0.86603 0.0
C1612 C 0.47881 0.50538 0.84122 0.0
C1613 C 0.49471 0.52752 0.8821 0.0
H1614 H 0.47718 0.56171 0.83992 0.0
H1615 H 0.47348 0.4887 0.82948 0.0
C1616 C 0.40248 0.51439 0.72323 0.0
N1617 N 0.36889 0.51508 0.68405 0.0
C1618 C 0.40904 0.52361 0.70196 0.0
C1619 C 0.37887 0.50548 0.72459 0.0
C1620 C 0.39179 0.52382 0.68236 0.0
C1621 C 0.36213 0.50601 0.70458 0.0
C1622 C 0.47611 0.56846 0.7769 0.0
C1623 C 0.46899 0.58802 0.76883 0.0
C1624 C 0.49964 0.56984 0.78553 0.0
C1625 C 0.48565 0.60874 0.76951 0.0
C1626 C 0.51578 0.59088 0.78588 0.0
N1627 N 0.50851 0.60973 0.77795 0.0
C1628 C 0.40952 0.57604 0.79538 0.0
C1629 C 0.39617 0.56897 0.7523 0.0
C1630 C 0.39892 0.59526 0.79802 0.0
N1631 N 0.4081 0.56335 0.77279 0.0
C1632 C 0.38515 0.58808 0.75414 0.0
C1633 C 0.38668 0.60164 0.77723 0.0
H1634 H 0.41922 0.57139 0.81135 0.0
H1635 H 0.39553 0.55903 0.73441 0.0
C1636 C 0.47655 0.50498 0.70651 0.0
N1637 N 0.47149 0.52382 0.71998 0.0
C1638 C 0.48687 0.50735 0.68453 0.0
C1639 C 0.48624 0.54833 0.69003 0.0
C1640 C 0.47635 0.54527 0.71206 0.0
C1641 C 0.49197 0.52931 0.67568 0.0
H1642 H 0.4723 0.4879 0.71258 0.0
H1643 H 0.47171 0.56004 0.72235 0.0
O1644 O 0.4225 0.51861 0.79935 0.0
O1645 O 0.45579 0.49511 0.77187 0.0
O1646 O 0.4192 0.51353 0.7423 0.0
O1647 O 0.46 0.54823 0.777 0.0
H1648 H 0.43088 0.51546 0.84714 0.0
H1649 H 0.37821 0.52133 0.7884 0.0
H1650 H 0.40172 0.51556 0.8765 0.0
H1651 H 0.34994 0.5215 0.81891 0.0
H1652 H 0.52682 0.47707 0.76748 0.0
H1653 H 0.44489 0.45181 0.78236 0.0
H1654 H 0.50027 0.50504 0.76523 0.0
H1655 H 0.47236 0.42478 0.78434 0.0
H1656 H 0.37561 0.43288 0.81257 0.0
H1657 H 0.36641 0.41754 0.73274 0.0
H1658 H 0.4949 0.56463 0.88352 0.0
H1659 H 0.49078 0.48996 0.87279 0.0
H1660 H 0.42722 0.53051 0.70057 0.0
H1661 H 0.37354 0.49819 0.74091 0.0
H1662 H 0.39662 0.5309 0.66578 0.0
H1663 H 0.34378 0.49916 0.70533 0.0
H1664 H 0.45082 0.58722 0.76211 0.0
H1665 H 0.50534 0.55484 0.79196 0.0
H1666 H 0.48041 0.62404 0.76336 0.0
H1667 H 0.53408 0.59224 0.79252 0.0
H1668 H 0.40042 0.60519 0.8162 0.0
H1669 H 0.37616 0.59261 0.73762 0.0
H1670 H 0.49074 0.49195 0.67458 0.0
H1671 H 0.48847 0.56545 0.68399 0.0
Li1672 Li 0.67853 0.05493 0.77537 0.0
Li1673 Li 0.71096 0.07994 0.75971 0.0
Li1674 Li 0.67696 0.05658 0.73123 0.0
Li1675 Li 0.70633 0.03848 0.7512 0.0
C1676 C 0.66408 0.09828 0.75847 0.0
N1677 N 0.63594 0.13073 0.75955 0.0
C1678 C 0.67411 0.12223 0.76378 0.0
C1679 C 0.63972 0.09081 0.75408 0.0
C1680 C 0.65959 0.13836 0.76422 0.0
C1681 C 0.62581 0.10751 0.75452 0.0
C1682 C 0.72858 0.06381 0.80451 0.0
C1683 C 0.76834 0.06936 0.82427 0.0
N1684 N 0.76172 0.07727 0.84609 0.0
C1685 C 0.72212 0.07178 0.8272 0.0
C1686 C 0.75184 0.06247 0.80302 0.0
C1687 C 0.73915 0.07861 0.84797 0.0
C1688 C 0.6565 0.03284 0.81248 0.0
N1689 N 0.66175 0.05277 0.80186 0.0
C1690 C 0.64602 0.0743 0.83243 0.0
C1691 C 0.6569 0.07324 0.81143 0.0
C1692 C 0.64077 0.05429 0.84419 0.0
C1693 C 0.64581 0.0332 0.83401 0.0
H1694 H 0.66115 0.01698 0.80459 0.0
H1695 H 0.66229 0.08902 0.80341 0.0
C1696 C 0.73287 0.12034 0.74566 0.0
N1697 N 0.73142 0.10837 0.76547 0.0
C1698 C 0.74416 0.14376 0.7491 0.0
C1699 C 0.75336 0.14139 0.7929 0.0
C1700 C 0.7415 0.11822 0.78871 0.0
C1701 C 0.75402 0.15431 0.77305 0.0
H1702 H 0.72401 0.11204 0.72759 0.0
H1703 H 0.73924 0.10877 0.80425 0.0
C1704 C 0.65331 0.01039 0.74474 0.0
N1705 N 0.61534 0.97313 0.73851 0.0
C1706 C 0.65625 0.98758 0.73843 0.0
C1707 C 0.63111 0.01431 0.74791 0.0
C1708 C 0.63683 0.96896 0.73533 0.0
C1709 C 0.61212 0.99522 0.74467 0.0
C1710 C 0.72568 0.06084 0.71086 0.0
C1711 C 0.71743 0.05362 0.68574 0.0
C1712 C 0.74968 0.06863 0.71857 0.0
C1713 C 0.73341 0.05433 0.66865 0.0
C1714 C 0.7651 0.06912 0.70089 0.0
N1715 N 0.75672 0.06203 0.67651 0.0
C1716 C 0.64891 0.07429 0.69768 0.0
C1717 C 0.65056 0.0344 0.68761 0.0
C1718 C 0.63169 0.07256 0.67781 0.0
N1719 N 0.65705 0.05508 0.70274 0.0
C1720 C 0.63447 0.03228 0.66653 0.0
C1721 C 0.62411 0.05128 0.66197 0.0
H1722 H 0.65549 0.09086 0.70923 0.0
H1723 H 0.65807 0.01968 0.69189 0.0
C1724 C 0.723 1.0064 0.77192 0.0
N1725 N 0.72192 0.01476 0.74986 0.0
C1726 C 0.73479 0.98877 0.77555 0.0
C1727 C 0.74339 0.98791 0.73316 0.0
C1728 C 0.73155 1.00603 0.73043 0.0
C1729 C 0.74513 0.97953 0.75608 0.0
H1730 H 0.71463 0.01353 0.78669 0.0
H1731 H 0.72999 0.013 0.71302 0.0
O1732 O 0.67813 0.08229 0.75791 0.0
O1733 O 0.71222 0.0575 0.78388 0.0
O1734 O 0.67229 0.02864 0.74839 0.0
O1735 O 0.71015 0.06141 0.72756 0.0
H1736 H 0.69288 0.12836 0.76768 0.0
H1737 H 0.63168 0.07236 0.75001 0.0
H1738 H 0.66714 0.15694 0.76829 0.0
H1739 H 0.60694 0.102 0.75086 0.0
H1740 H 0.78643 0.0685 0.8234 0.0
H1741 H 0.70425 0.07306 0.8287 0.0
H1742 H 0.7571 0.05632 0.78559 0.0
H1743 H 0.73444 0.08505 0.86557 0.0
H1744 H 0.6421 0.0908 0.83967 0.0
H1745 H 0.64203 0.01751 0.84284 0.0
H1746 H 0.74439 0.15374 0.73359 0.0
H1747 H 0.76068 0.14952 0.81158 0.0
H1748 H 0.6734 0.9843 0.73603 0.0
H1749 H 0.62863 0.03185 0.75305 0.0
H1750 H 0.63884 0.95119 0.73048 0.0
H1751 H 0.59482 0.99795 0.74714 0.0
H1752 H 0.69888 0.04776 0.67947 0.0
H1753 H 0.75627 0.07445 0.73795 0.0
H1754 H 0.72728 0.04888 0.64914 0.0
H1755 H 0.78374 0.07523 0.70653 0.0
H1756 H 0.6244 0.08776 0.67508 0.0
H1757 H 0.6304 0.01601 0.65403 0.0
H1758 H 0.73563 0.98218 0.79329 0.0
H1759 H 0.75104 0.98061 0.71784 0.0
Li1760 Li 0.77527 0.70584 0.04764 0.0
Li1761 Li 0.79107 0.6738 0.02314 0.0
Li1762 Li 0.77321 0.703 0.99896 0.0
Li1763 Li 0.74705 0.67044 0.01917 0.0
C1764 C 0.82155 0.72495 0.02963 0.0
N1765 N 0.86331 0.75759 0.03612 0.0
C1766 C 0.84241 0.71878 0.0384 0.0
C1767 C 0.82187 0.74767 0.02418 0.0
C1768 C 0.86336 0.73554 0.04154 0.0
C1769 C 0.84318 0.76395 0.02762 0.0
C1770 C 0.77068 0.65609 0.06588 0.0
C1771 C 0.76414 0.6165 0.07567 0.0
N1772 N 0.7733 0.62478 0.09964 0.0
C1773 C 0.78001 0.66423 0.0906 0.0
C1774 C 0.76271 0.63206 0.05829 0.0
C1775 C 0.78121 0.6481 0.10738 0.0
C1776 C 0.75871 0.72184 0.09276 0.0
N1777 N 0.77815 0.72425 0.08102 0.0
C1778 C 0.80123 0.74662 0.11824 0.0
C1779 C 0.79918 0.73661 0.09328 0.0
C1780 C 0.78156 0.74382 0.13111 0.0
C1781 C 0.76 0.73155 0.11768 0.0
H1782 H 0.74221 0.71162 0.08301 0.0
H1783 H 0.81458 0.73817 0.08395 0.0
C1784 C 0.82654 0.652 1.00422 0.0
N1785 N 0.81568 0.65611 0.02448 0.0
C1786 C 0.84466 0.63962 0.00538 0.0
C1787 C 0.83987 0.63568 0.04799 0.0
C1788 C 0.8223 0.64847 0.04619 0.0
C1789 C 0.8513 0.63107 0.02745 0.0
H1790 H 0.8213 0.65854 0.98724 0.0
H1791 H 0.81434 0.65265 0.06239 0.0
C1792 C 0.73242 0.71922 0.01912 0.0
N1793 N 0.70052 0.74769 0.01549 0.0
C1794 C 0.70925 0.7097 0.00873 0.0
C1795 C 0.73944 0.74314 0.02768 0.0
C1796 C 0.69336 0.72441 0.00706 0.0
C1797 C 0.72303 0.75727 0.02565 0.0
C1798 C 0.76406 0.65075 0.97272 0.0
C1799 C 0.75759 0.65579 0.94891 0.0
C1800 C 0.76749 0.62837 0.97602 0.0
C1801 C 0.75485 0.63836 0.92869 0.0
C1802 C 0.76455 0.6114 0.95531 0.0
N1803 N 0.75838 0.61671 0.93228 0.0
C1804 C 0.79278 0.71483 0.95417 0.0
C1805 C 0.76207 0.73391 0.96148 0.0
C1806 C 0.79498 0.72425 0.9317 0.0
N1807 N 0.77629 0.71941 0.96855 0.0
C1808 C 0.764 0.74409 0.93936 0.0
C1809 C 0.78031 0.73902 0.9235 0.0
H1810 H 0.80403 0.70331 0.95984 0.0
H1811 H 0.74907 0.73761 0.97294 0.0
C1812 C 0.7092 0.64524 0.04054 0.0
N1813 N 0.71669 0.64878 0.0183 0.0
C1814 C 0.68783 0.62998 0.04176 0.0
C1815 C 0.6817 0.62244 0.99713 0.0
C1816 C 0.70344 0.63758 0.99676 0.0
C1817 C 0.67358 0.61849 0.01987 0.0
H1818 H 0.71983 0.65439 0.05747 0.0
H1819 H 0.70962 0.64049 0.97925 0.0
O1820 O 0.801 0.70861 0.02574 0.0
O1821 O 0.76971 0.67161 0.04915 0.0
O1822 O 0.74802 0.70502 0.02142 0.0
O1823 O 0.7677 0.6679 0.99255 0.0
H1824 H 0.84244 0.70123 0.04264 0.0
H1825 H 0.80583 0.75263 0.01726 0.0
H1826 H 0.87966 0.73102 0.04823 0.0
H1827 H 0.84373 0.78161 0.02345 0.0
H1828 H 0.75801 0.59784 0.0701 0.0
H1829 H 0.7865 0.68276 0.09671 0.0
H1830 H 0.75556 0.62551 0.03917 0.0
H1831 H 0.78849 0.65414 0.12654 0.0
H1832 H 0.81818 0.7563 0.12742 0.0
H1833 H 0.74434 0.72871 0.12663 0.0
H1834 H 0.85336 0.63674 0.98926 0.0
H1835 H 0.84499 0.63004 0.06558 0.0
H1836 H 0.7036 0.69116 1.00213 0.0
H1837 H 0.75735 0.75065 0.03586 0.0
H1838 H 0.67533 0.71731 0.99912 0.0
H1839 H 0.72816 0.77584 0.03219 0.0
H1840 H 0.75475 0.673 0.94607 0.0
H1841 H 0.77255 0.62423 0.99435 0.0
H1842 H 0.74996 0.64206 0.91015 0.0
H1843 H 0.76725 0.59402 0.95753 0.0
H1844 H 0.80785 0.71946 0.92061 0.0
H1845 H 0.75285 0.75608 0.9351 0.0
H1846 H 0.68222 0.62762 0.05966 0.0
H1847 H 0.67136 0.61382 0.9798 0.0
Li1848 Li 0.87149 0.49803 0.80927 0.0
Li1849 Li 0.90537 0.51989 0.83723 0.0
Li1850 Li 0.8763 0.53937 0.8176 0.0
Li1851 Li 0.90395 0.52309 0.79395 0.0
C1852 C 0.85758 0.51509 0.85893 0.0
N1853 N 0.82786 0.51123 0.8946 0.0
C1854 C 0.86523 0.50966 0.88222 0.0
C1855 C 0.83482 0.51854 0.85372 0.0
C1856 C 0.84994 0.50775 0.90001 0.0
C1857 C 0.82007 0.51655 0.87205 0.0
C1858 C 0.91807 0.4796 0.81421 0.0
C1859 C 0.95604 0.4698 0.81689 0.0
N1860 N 0.94627 0.44794 0.82148 0.0
C1861 C 0.90836 0.45706 0.81894 0.0
C1862 C 0.94206 0.48607 0.81312 0.0
C1863 C 0.92293 0.4413 0.82259 0.0
C1864 C 0.85166 0.4568 0.78012 0.0
N1865 N 0.85042 0.46993 0.80171 0.0
C1866 C 0.82443 0.43859 0.81449 0.0
C1867 C 0.83671 0.46167 0.81851 0.0
C1868 C 0.82671 0.42426 0.79318 0.0
C1869 C 0.83962 0.4336 0.77531 0.0
H1870 H 0.86319 0.46395 0.76748 0.0
H1871 H 0.83647 0.47237 0.83568 0.0
C1872 C 0.93724 0.54246 0.87592 0.0
N1873 N 0.92548 0.52076 0.86547 0.0
C1874 C 0.95371 0.5451 0.8966 0.0
C1875 C 0.94442 0.50297 0.89641 0.0
C1876 C 0.92853 0.50111 0.87516 0.0
C1877 C 0.95705 0.52524 0.90733 0.0
H1878 H 0.93383 0.55776 0.86818 0.0
H1879 H 0.91842 0.48414 0.86666 0.0
C1880 C 0.85354 0.5114 0.76517 0.0
N1881 N 0.81944 0.49478 0.72487 0.0
C1882 C 0.85974 0.50888 0.74128 0.0
C1883 C 0.83 0.50571 0.76858 0.0
C1884 C 0.84224 0.50046 0.72114 0.0
C1885 C 0.81302 0.49716 0.74796 0.0
C1886 C 0.92887 0.56678 0.82004 0.0
C1887 C 0.92465 0.58878 0.81621 0.0
C1888 C 0.95184 0.56345 0.82301 0.0
C1889 C 0.94356 0.60719 0.81545 0.0
C1890 C 0.97028 0.58235 0.82225 0.0
N1891 N 0.9658 0.60363 0.81852 0.0
C1892 C 0.85355 0.57401 0.83862 0.0
C1893 C 0.85568 0.56806 0.79534 0.0
C1894 C 0.84076 0.59133 0.83535 0.0
N1895 N 0.86042 0.56285 0.81856 0.0
C1896 C 0.84273 0.58461 0.7912 0.0
C1897 C 0.83503 0.59626 0.81127 0.0
H1898 H 0.8581 0.56956 0.85691 0.0
H1899 H 0.86229 0.55958 0.78002 0.0
C1900 C 0.92199 0.50419 0.7559 0.0
N1901 N 0.9209 0.52534 0.76775 0.0
C1902 C 0.93344 0.50296 0.73524 0.0
C1903 C 0.94246 0.54543 0.73934 0.0
C1904 C 0.93048 0.54583 0.75988 0.0
C1905 C 0.94382 0.52375 0.7269 0.0
H1906 H 0.91364 0.48827 0.76236 0.0
H1907 H 0.92866 0.56235 0.7693 0.0
O1908 O 0.87235 0.51683 0.84133 0.0
O1909 O 0.90393 0.49491 0.80962 0.0
O1910 O 0.87043 0.52035 0.78498 0.0
O1911 O 0.91061 0.5489 0.82192 0.0
H1912 H 0.88277 0.50685 0.8865 0.0
H1913 H 0.82861 0.52262 0.83571 0.0
H1914 H 0.85562 0.50351 0.9181 0.0
H1915 H 0.8024 0.51919 0.86833 0.0
H1916 H 0.97465 0.47452 0.81606 0.0
H1917 H 0.88979 0.45176 0.81975 0.0
H1918 H 0.94975 0.5034 0.80924 0.0
H1919 H 0.91567 0.42378 0.82623 0.0
H1920 H 0.81464 0.43155 0.82862 0.0
H1921 H 0.84184 0.42264 0.75889 0.0
H1922 H 0.96358 0.56251 0.90419 0.0
H1923 H 0.94654 0.48733 0.90441 0.0
H1924 H 0.87781 0.5137 0.73823 0.0
H1925 H 0.82493 0.50778 0.78696 0.0
H1926 H 0.84679 0.49854 0.70253 0.0
H1927 H 0.79473 0.49252 0.7503 0.0
H1928 H 0.90696 0.59163 0.81403 0.0
H1929 H 0.95536 0.54655 0.82616 0.0
H1930 H 0.94058 0.62434 0.81255 0.0
H1931 H 0.98817 0.58011 0.82471 0.0
H1932 H 0.83558 0.60077 0.85117 0.0
H1933 H 0.83942 0.58886 0.77254 0.0
H1934 H 0.93441 0.48597 0.726 0.0
H1935 H 0.95033 0.5617 0.73311 0.0
Li1936 Li 0.80523 0.42955 0.52563 0.0
Li1937 Li 0.79051 0.45775 0.50126 0.0
Li1938 Li 0.80853 0.42789 0.48214 0.0
Li1939 Li 0.83072 0.46107 0.51082 0.0
C1940 C 0.76236 0.40464 0.49879 0.0
N1941 N 0.72636 0.36668 0.49942 0.0
C1942 C 0.74065 0.40814 0.5045 0.0
C1943 C 0.76586 0.38189 0.49348 0.0
C1944 C 0.72265 0.3887 0.50475 0.0
C1945 C 0.74739 0.36291 0.49385 0.0
C1946 C 0.81872 0.47902 0.55516 0.0
C1947 C 0.83709 0.51835 0.57411 0.0
N1948 N 0.83865 0.51075 0.59669 0.0
C1949 C 0.82049 0.47162 0.57858 0.0
C1950 C 0.82698 0.50262 0.55291 0.0
C1951 C 0.83062 0.48791 0.59933 0.0
C1952 C 0.82463 0.40957 0.56149 0.0
N1953 N 0.80329 0.4123 0.5518 0.0
C1954 C 0.7853 0.39415 0.58369 0.0
C1955 C 0.78368 0.40492 0.56224 0.0
C1956 C 0.80728 0.39113 0.59397 0.0
C1957 C 0.82699 0.39867 0.58239 0.0
H1958 H 0.84003 0.4165 0.55341 0.0
H1959 H 0.76706 0.40799 0.55439 0.0
C1960 C 0.75016 0.46653 0.47705 0.0
N1961 N 0.76772 0.4739 0.49621 0.0
C1962 C 0.73037 0.47615 0.4766 0.0
C1963 C 0.74872 0.50197 0.51425 0.0
C1964 C 0.76783 0.4917 0.51412 0.0
C1965 C 0.72937 0.49336 0.496 0.0
H1966 H 0.75084 0.4521 0.46328 0.0
H1967 H 0.78196 0.49673 0.52922 0.0
C1968 C 0.84869 0.41441 0.50504 0.0
N1969 N 0.88057 0.38651 0.4973 0.0
C1970 C 0.87129 0.4244 0.50072 0.0
C1971 C 0.84231 0.39024 0.50543 0.0
C1972 C 0.88715 0.40999 0.49685 0.0
C1973 C 0.85868 0.37643 0.50145 0.0
C1974 C 0.81408 0.47502 0.46034 0.0
C1975 C 0.81848 0.46685 0.43678 0.0
C1976 C 0.81137 0.49805 0.46556 0.0
C1977 C 0.82005 0.48191 0.41872 0.0
C1978 C 0.81298 0.51255 0.44695 0.0
N1979 N 0.81728 0.50426 0.42413 0.0
C1980 C 0.78408 0.40193 0.4406 0.0
C1981 C 0.82461 0.40125 0.44514 0.0
C1982 C 0.77975 0.38561 0.41949 0.0
N1983 N 0.80601 0.4086 0.45327 0.0
C1984 C 0.82111 0.38496 0.42413 0.0
C1985 C 0.79834 0.37649 0.41172 0.0
H1986 H 0.7699 0.40889 0.4473 0.0
H1987 H 0.84199 0.40781 0.45499 0.0
C1988 C 0.87167 0.48091 0.54008 0.0
N1989 N 0.85891 0.48114 0.51795 0.0
C1990 C 0.89479 0.49286 0.54477 0.0
C1991 C 0.89077 0.50506 0.50383 0.0
C1992 C 0.86768 0.49313 0.50007 0.0
C1993 C 0.90443 0.50429 0.5261 0.0
H1994 H 0.86423 0.47036 0.5534 0.0
H1995 H 0.85735 0.49217 0.48237 0.0
O1996 O 0.77974 0.4235 0.4974 0.0
O1997 O 0.80778 0.46347 0.53483 0.0
O1998 O 0.83319 0.42836 0.50982 0.0
O1999 O 0.81358 0.46075 0.47846 0.0
H2000 H 0.7377 0.42569 0.50853 0.0
H2001 H 0.78255 0.37895 0.48885 0.0
H2002 H 0.70572 0.39113 0.50907 0.0
H2003 H 0.74975 0.34518 0.48961 0.0
H2004 H 0.84361 0.53664 0.57262 0.0
H2005 H 0.81374 0.4536 0.58086 0.0
H2006 H 0.82563 0.50869 0.53495 0.0
H2007 H 0.83195 0.48242 0.61756 0.0
H2008 H 0.7698 0.38875 0.59237 0.0
H2009 H 0.84419 0.39636 0.58957 0.0
H2010 H 0.71538 0.46897 0.46264 0.0
H2011 H 0.74805 0.51474 0.52987 0.0
H2012 H 0.87657 0.44306 0.50038 0.0
H2013 H 0.82494 0.38228 0.50892 0.0
H2014 H 0.9047 0.41749 0.49354 0.0
H2015 H 0.854 0.35771 0.50175 0.0
H2016 H 0.82101 0.44918 0.43256 0.0
H2017 H 0.80835 0.50473 0.48385 0.0
H2018 H 0.82359 0.47586 0.40044 0.0
H2019 H 0.81095 0.53044 0.4507 0.0
H2020 H 0.76209 0.37963 0.40987 0.0
H2021 H 0.83591 0.37875 0.41785 0.0
H2022 H 0.90546 0.4917 0.56184 0.0
H2023 H 0.89832 0.51338 0.48901 0.0
Li2024 Li 0.62702 0.55677 0.32095 0.0
Li2025 Li 0.65994 0.58294 0.30077 0.0
Li2026 Li 0.62447 0.55488 0.27201 0.0
Li2027 Li 0.65617 0.5387 0.29691 0.0
C2028 C 0.61128 0.59787 0.30042 0.0
N2029 N 0.58305 0.63004 0.30343 0.0
C2030 C 0.62089 0.62111 0.31054 0.0
C2031 C 0.58738 0.5909 0.29182 0.0
C2032 C 0.6063 0.63713 0.3119 0.0
C2033 C 0.57337 0.60746 0.29352 0.0
C2034 C 0.67938 0.56569 0.34716 0.0
C2035 C 0.71915 0.56635 0.364 0.0
N2036 N 0.71386 0.57167 0.38721 0.0
C2037 C 0.67433 0.57121 0.37114 0.0
C2038 C 0.70195 0.5633 0.34347 0.0
C2039 C 0.69202 0.57418 0.39117 0.0
C2040 C 0.60731 0.53265 0.36059 0.0
N2041 N 0.61049 0.55361 0.35143 0.0
C2042 C 0.59422 0.57009 0.38625 0.0
C2043 C 0.60407 0.57218 0.36396 0.0
C2044 C 0.59056 0.54861 0.39616 0.0
C2045 C 0.59743 0.52979 0.38274 0.0
H2046 H 0.61272 0.51804 0.35083 0.0
H2047 H 0.60703 0.58891 0.35698 0.0
C2048 C 0.68236 0.62278 0.2799 0.0
N2049 N 0.68187 0.61336 0.30155 0.0
C2050 C 0.69767 0.64416 0.27857 0.0
C2051 C 0.71203 0.646 0.32179 0.0
C2052 C 0.69645 0.62452 0.3223 0.0
C2053 C 0.71273 0.65632 0.29974 0.0
H2054 H 0.67078 0.61365 0.26353 0.0
H2055 H 0.6961 0.61676 0.33931 0.0
C2056 C 0.60498 0.50846 0.28972 0.0
N2057 N 0.57239 0.46662 0.2827 0.0
C2058 C 0.61112 0.4877 0.28057 0.0
C2059 C 0.58229 0.50801 0.29526 0.0
C2060 C 0.59439 0.4667 0.27717 0.0
C2061 C 0.56605 0.48665 0.29156 0.0
C2062 C 0.67418 0.55905 0.25418 0.0
C2063 C 0.66604 0.54928 0.22958 0.0
C2064 C 0.69815 0.56753 0.2616 0.0
C2065 C 0.68208 0.54813 0.21276 0.0
C2066 C 0.71364 0.5661 0.24419 0.0
N2067 N 0.70536 0.55651 0.22035 0.0
C2068 C 0.61122 0.57199 0.22649 0.0
C2069 C 0.59233 0.53244 0.22596 0.0
C2070 C 0.60206 0.57145 0.20151 0.0
N2071 N 0.6065 0.55264 0.23829 0.0
C2072 C 0.58253 0.53125 0.20098 0.0
C2073 C 0.58757 0.55088 0.18829 0.0
H2074 H 0.62281 0.58777 0.23627 0.0
H2075 H 0.58911 0.51699 0.23522 0.0
C2076 C 0.6799 0.50433 0.31644 0.0
N2077 N 0.67379 0.51388 0.29574 0.0
C2078 C 0.6928 0.48658 0.31525 0.0
C2079 C 0.69274 0.48874 0.27153 0.0
C2080 C 0.67968 0.50611 0.27349 0.0
C2081 C 0.69959 0.47876 0.29256 0.0
H2082 H 0.67482 0.51052 0.33393 0.0
H2083 H 0.67408 0.51321 0.25709 0.0
O2084 O 0.62537 0.58213 0.2984 0.0
O2085 O 0.66209 0.56217 0.32747 0.0
O2086 O 0.6213 0.52904 0.29396 0.0
O2087 O 0.65873 0.56015 0.27091 0.0
H2088 H 0.63942 0.6267 0.31717 0.0
H2089 H 0.57979 0.57294 0.28383 0.0
H2090 H 0.61348 0.65522 0.31964 0.0
H2091 H 0.55483 0.60239 0.28691 0.0
H2092 H 0.73668 0.56443 0.36148 0.0
H2093 H 0.65694 0.57314 0.37427 0.0
H2094 H 0.70607 0.55896 0.32499 0.0
H2095 H 0.68836 0.57842 0.40985 0.0
H2096 H 0.59011 0.5855 0.39594 0.0
H2097 H 0.59512 0.51283 0.38923 0.0
H2098 H 0.69743 0.65129 0.26115 0.0
H2099 H 0.72361 0.65431 0.33849 0.0
H2100 H 0.62864 0.48777 0.27626 0.0
H2101 H 0.57736 0.52396 0.30248 0.0
H2102 H 0.59891 0.45047 0.27018 0.0
H2103 H 0.54843 0.48599 0.29582 0.0
H2104 H 0.64756 0.54241 0.2236 0.0
H2105 H 0.7047 0.57509 0.2806 0.0
H2106 H 0.67604 0.54054 0.19369 0.0
H2107 H 0.73225 0.57259 0.24964 0.0
H2108 H 0.60651 0.58694 0.19249 0.0
H2109 H 0.57168 0.51493 0.19144 0.0
H2110 H 0.69771 0.47934 0.33191 0.0
H2111 H 0.69723 0.48294 0.25357 0.0
Tb2112 Tb 0.07147 0.04996 0.04925 0.0
C2113 C 0.99068 0.97414 0.99174 0.0
N2114 N 1.00351 0.99487 0.98707 0.0
C2115 C 1.00272 0.97839 0.94477 0.0
C2116 C 0.98386 0.95462 0.97308 0.0
C2117 C 1.00891 0.99734 0.96368 0.0
C2118 C 0.99024 0.95691 0.94949 0.0
C2119 C 0.97079 0.95123 0.02058 0.0
C2120 C 0.98405 0.97249 0.01529 0.0
C2121 C 0.96406 0.93185 1.002 0.0
C2122 C 0.97053 0.93355 0.97833 0.0
Tb2123 Tb 1.00798 0.02496 0.01866 0.0
N2124 N 0.99089 0.99157 0.03305 0.0
C2125 C 0.96483 0.95 0.04449 0.0
C2126 C 0.98404 0.99067 0.05601 0.0
C2127 C 0.97147 0.96981 0.06225 0.0
H2128 H 0.01668 0.0141 0.95879 0.0
H2129 H 0.9663 0.96926 0.08057 0.0
H2130 H 0.06518 0.06142 0.10987 0.0
H2131 H 0.12105 0.10158 0.99017 0.0
H2132 H 0.9869 1.00614 0.06915 0.0
H2133 H 0.9548 0.93395 0.04931 0.0
H2134 H 0.09818 0.06559 1.00215 0.0
H2135 H 1.00701 0.98056 0.92633 0.0
H2136 H 0.95382 0.91543 0.00574 0.0
H2137 H 0.96506 0.91845 0.96416 0.0
H2138 H 0.07465 0.09535 0.14186 0.0
H2139 H 0.98518 0.94237 0.93464 0.0
H2140 H 0.13037 0.13838 0.01944 0.0
N2141 N 0.07757 0.08043 0.08105 0.0
C2142 C 0.09023 0.10115 0.07617 0.0
C2143 C 0.07869 0.09736 0.12331 0.0
C2144 C 0.097 0.12091 0.09453 0.0
C2145 C 0.07265 0.07815 0.10465 0.0
C2146 C 0.09069 0.11889 0.11819 0.0
N2147 N 0.092 0.08245 0.03633 0.0
C2148 C 0.10097 0.0818 0.0144 0.0
C2149 C 0.11178 0.12287 0.04763 0.0
C2150 C 0.09785 0.10213 0.05315 0.0
C2151 C 0.11967 0.12278 0.02442 0.0
C2152 C 0.1144 0.10207 0.00782 0.0
H2153 H 0.09573 0.1336 0.13285 0.0
H2154 H 0.11596 0.15709 0.10292 0.0
H2155 H 0.12866 0.15887 0.06175 0.0
O2156 O 0.09891 0.03474 0.03823 0.0
O2157 O 0.05533 0.07691 0.03147 0.0
O2158 O 0.01515 0.06425 0.02699 0.0
O2159 O 0.10083 0.05306 0.07567 0.0
O2160 O 0.0655 0.03245 0.01044 0.0
O2161 O 0.03179 0.04194 0.99439 0.0
O2162 O 0.97269 0.02294 0.02299 0.0
O2163 O 0.02987 0.99769 0.02564 0.0
O2164 O 0.05747 0.01461 0.05884 0.0
O2165 O 0.98467 0.02804 0.98798 0.0
O2166 O 1.01073 0.04159 0.05748 0.0
O2167 O 0.04656 0.03656 0.07424 0.0
C2168 C 0.03402 0.08121 0.02759 0.0
C2169 C 0.13383 0.0366 0.06726 0.0
C2170 C 0.16645 0.02069 0.05574 0.0
C2171 C 0.17633 0.02397 0.08071 0.0
C2172 C 0.14382 0.04019 0.09225 0.0
C2173 C 0.16505 0.03386 0.09891 0.0
C2174 C 0.14528 0.02702 0.04907 0.0
C2175 C 0.05286 0.03854 0.9919 0.0
C2176 C 0.11086 0.04142 0.06023 0.0
C2177 C 0.11059 0.14177 0.08902 0.0
C2178 C 0.11789 0.14277 0.0656 0.0
C2179 C 0.04565 0.99561 0.04423 0.0
C2180 C 0.9522 0.04364 0.99676 0.0
C2181 C 0.92468 0.06583 0.01156 0.0
C2182 C 0.92146 0.07354 0.98829 0.0
C2183 C 0.94879 0.0514 0.97354 0.0
C2184 C 0.93997 0.05085 0.01571 0.0
C2185 C 0.93354 0.06637 0.9694 0.0
C2186 C 0.0254 0.03971 0.07674 0.0
C2187 C 0.96701 0.02663 1.00039 0.0
H2188 H 0.19281 0.0191 0.08604 0.0
H2189 H 0.13506 0.04747 0.10663 0.0
H2190 H 0.17267 0.03647 0.11817 0.0
H2191 H 0.13762 0.02408 0.02974 0.0
H2192 H 0.90917 0.08463 0.98455 0.0
H2193 H 0.95764 0.04562 0.95846 0.0
H2194 H 0.94202 0.04464 0.03359 0.0
H2195 H 0.9308 0.07211 0.95141 0.0
Tb2196 Tb 0.27226 0.78415 0.31113 0.0
C2197 C 0.3307 0.75805 0.22094 0.0
N2198 N 0.33727 0.77214 0.24295 0.0
C2199 C 0.37242 0.7574 0.24926 0.0
C2200 C 0.34468 0.74279 0.21234 0.0
C2201 C 0.35799 0.77223 0.25699 0.0
C2202 C 0.3657 0.74253 0.22688 0.0
C2203 C 0.30197 0.7438 0.18455 0.0
C2204 C 0.3095 0.75843 0.20744 0.0
C2205 C 0.31591 0.72872 0.17578 0.0
C2206 C 0.33718 0.72815 0.18969 0.0
Tb2207 Tb 0.3122 0.79508 0.25459 0.0
N2208 N 0.29621 0.77289 0.21682 0.0
C2209 C 0.28063 0.74466 0.17115 0.0
C2210 C 0.27625 0.77498 0.20258 0.0
C2211 C 0.26788 0.76056 0.18007 0.0
H2212 H 0.36369 0.78391 0.27404 0.0
H2213 H 0.25179 0.7621 0.16935 0.0
H2214 H 0.2189 0.79199 0.29567 0.0
H2215 H 0.34124 0.8297 0.38537 0.0
H2216 H 0.26676 0.78813 0.2075 0.0
H2217 H 0.27414 0.73358 0.15364 0.0
H2218 H 0.32098 0.79672 0.35489 0.0
H2219 H 0.38875 0.75751 0.26056 0.0
H2220 H 0.3103 0.71728 0.15836 0.0
H2221 H 0.34764 0.71625 0.18282 0.0
H2222 H 0.19504 0.82052 0.30733 0.0
H2223 H 0.37688 0.73099 0.22096 0.0
H2224 H 0.32209 0.8626 0.39593 0.0
N2225 N 0.24829 0.80861 0.32225 0.0
C2226 C 0.2574 0.82655 0.34076 0.0
C2227 C 0.21258 0.82244 0.31686 0.0
C2228 C 0.24464 0.84358 0.34758 0.0
C2229 C 0.22614 0.8063 0.31031 0.0
C2230 C 0.22189 0.84123 0.3355 0.0
N2231 N 0.29206 0.81198 0.34385 0.0
C2232 C 0.31304 0.81153 0.35716 0.0
C2233 C 0.29072 0.84745 0.37018 0.0
C2234 C 0.28022 0.82855 0.35159 0.0
C2235 C 0.31336 0.84836 0.38164 0.0
C2236 C 0.32431 0.82998 0.37554 0.0
H2237 H 0.21148 0.85392 0.34024 0.0
H2238 H 0.24572 0.87603 0.37111 0.0
H2239 H 0.28606 0.87934 0.39104 0.0
O2240 O 0.27416 0.76087 0.337 0.0
O2241 O 0.27693 0.8189 0.30042 0.0
O2242 O 0.31047 0.81363 0.2898 0.0
O2243 O 0.24075 0.76425 0.3194 0.0
O2244 O 0.30793 0.77493 0.31619 0.0
O2245 O 0.33197 0.79695 0.29222 0.0
O2246 O 0.31179 0.82413 0.23557 0.0
O2247 O 0.30483 0.75881 0.2609 0.0
O2248 O 0.27181 0.7616 0.27687 0.0
O2249 O 0.34428 0.81581 0.24955 0.0
O2250 O 0.27541 0.80107 0.2487 0.0
O2251 O 0.25134 0.78003 0.27365 0.0
C2252 C 0.29589 0.82715 0.29189 0.0
C2253 C 0.24363 0.75568 0.36075 0.0
C2254 C 0.24728 0.74351 0.40142 0.0
C2255 C 0.22964 0.75497 0.40785 0.0
C2256 C 0.22607 0.76741 0.36715 0.0
C2257 C 0.2191 0.76697 0.39071 0.0
C2258 C 0.25413 0.74379 0.37798 0.0
C2259 C 0.32912 0.78349 0.31023 0.0
C2260 C 0.25161 0.75518 0.33645 0.0
C2261 C 0.25517 0.86265 0.36573 0.0
C2262 C 0.27818 0.8646 0.37697 0.0
C2263 C 0.28749 0.74957 0.27195 0.0
C2264 C 0.34304 0.83136 0.21183 0.0
C2265 C 0.33696 0.83959 0.16935 0.0
C2266 C 0.36054 0.8393 0.16735 0.0
C2267 C 0.36658 0.83127 0.20957 0.0
C2268 C 0.32821 0.83513 0.19149 0.0
C2269 C 0.37518 0.835 0.18732 0.0
C2270 C 0.25428 0.79253 0.2548 0.0
C2271 C 0.33438 0.82857 0.23569 0.0
H2272 H 0.22387 0.75435 0.42593 0.0
H2273 H 0.21771 0.77674 0.35406 0.0
H2274 H 0.20541 0.77576 0.39562 0.0
H2275 H 0.2675 0.73444 0.37307 0.0
H2276 H 0.36786 0.84307 0.15057 0.0
H2277 H 0.3784 0.82853 0.22506 0.0
H2278 H 0.30996 0.83502 0.19296 0.0
H2279 H 0.39336 0.83506 0.18572 0.0
Tb2280 Tb 0.50949 0.03738 0.54753 0.0
C2281 C 0.5942 0.08417 0.49514 0.0
N2282 N 0.57751 0.06393 0.48903 0.0
C2283 C 0.57074 0.073 0.44741 0.0
C2284 C 0.59889 0.10005 0.47785 0.0
C2285 C 0.56688 0.05764 0.46499 0.0
C2286 C 0.5865 0.09446 0.45395 0.0
C2287 C 0.62528 0.10905 0.5252 0.0
C2288 C 0.60749 0.08865 0.51853 0.0
C2289 C 0.6294 0.12515 0.50823 0.0
C2290 C 0.61625 0.12067 0.48464 0.0
Tb2291 Tb 0.57427 0.04092 0.52035 0.0
N2292 N 0.60269 0.07311 0.53493 0.0
C2293 C 0.63843 0.11261 0.54875 0.0
C2294 C 0.61623 0.07579 0.55731 0.0
C2295 C 0.63403 0.09578 0.56478 0.0
H2296 H 0.55602 0.04054 0.45858 0.0
H2297 H 0.64451 0.09805 0.58274 0.0
H2298 H 0.52312 0.04262 0.61016 0.0
H2299 H 0.4444 0.97507 0.48321 0.0
H2300 H 0.61358 0.06224 0.56911 0.0
H2301 H 0.65224 0.12809 0.55457 0.0
H2302 H 0.47462 0.01125 0.49602 0.0
H2303 H 0.56194 0.068 0.4286 0.0
H2304 H 0.64289 0.14101 0.51307 0.0
H2305 H 0.61994 0.13309 0.47161 0.0
H2306 H 0.51435 0.01783 0.64243 0.0
H2307 H 0.58964 0.10618 0.44014 0.0
H2308 H 0.4336 0.94819 0.51382 0.0
N2309 N 0.50313 0.0173 0.5805 0.0
C2310 C 0.48679 0.99681 0.57467 0.0
C2311 C 0.50675 0.01156 0.62339 0.0
C2312 C 0.48063 0.98247 0.59298 0.0
C2313 C 0.51211 0.02538 0.60474 0.0
C2314 C 0.49124 0.98986 0.61745 0.0
N2315 N 0.48173 1.00449 0.53299 0.0
C2316 C 0.47051 0.99944 0.50926 0.0
C2317 C 0.45817 0.96962 0.54395 0.0
C2318 C 0.47549 0.99043 0.55039 0.0
C2319 C 0.44702 0.96401 0.51946 0.0
C2320 C 0.45313 0.97907 0.50209 0.0
H2321 H 0.487 0.97931 0.63202 0.0
H2322 H 0.45889 0.95022 0.60031 0.0
H2323 H 0.43934 0.93897 0.55744 0.0
O2324 O 0.47837 0.04716 0.53281 0.0
O2325 O 0.51731 1.00202 0.53398 0.0
O2326 O 0.55407 1.00471 0.52005 0.0
O2327 O 0.49397 0.05805 0.57102 0.0
O2328 O 0.52321 0.04838 0.515 0.0
O2329 O 0.54342 0.02735 0.49354 0.0
O2330 O 0.60428 0.02765 0.53388 0.0
O2331 O 0.56784 0.07602 0.53728 0.0
O2332 O 0.52911 0.07325 0.54519 0.0
O2333 O 0.59256 0.02699 0.49456 0.0
O2334 O 0.56361 0.03006 0.55465 0.0
O2335 O 0.54013 0.04949 0.57462 0.0
C2336 C 0.53406 0.9923 0.52515 0.0
C2337 C 0.45475 0.06167 0.56168 0.0
C2338 C 0.42286 0.08263 0.56008 0.0
C2339 C 0.41706 0.07489 0.5824 0.0
C2340 C 0.44838 0.05372 0.58375 0.0
C2341 C 0.42962 0.06035 0.59401 0.0
C2342 C 0.44165 0.07585 0.54964 0.0
C2343 C 0.52393 0.03409 0.49562 0.0
C2344 C 0.47739 0.05946 0.55379 0.0
C2345 C 0.46371 0.96149 0.58649 0.0
C2346 C 0.45251 0.9551 0.56207 0.0
C2347 C 0.55013 0.0858 0.5433 0.0
C2348 C 0.62823 0.01395 0.50299 0.0
C2349 C 0.65892 0.99158 0.50759 0.0
C2350 C 0.66477 0.99644 0.48427 0.0
C2351 C 0.63468 0.01873 0.4798 0.0
C2352 C 0.64063 1.00046 0.5171 0.0
C2353 C 0.65278 0.00998 0.47054 0.0
C2354 C 0.56054 0.04447 0.57316 0.0
C2355 C 0.60767 0.02192 0.51113 0.0
H2356 H 0.40282 0.08021 0.59088 0.0
H2357 H 0.45847 0.04318 0.59357 0.0
H2358 H 0.42513 0.05464 0.61132 0.0
H2359 H 0.44681 0.0826 0.53296 0.0
H2360 H 0.67871 0.98966 0.47666 0.0
H2361 H 0.62551 0.02903 0.46857 0.0
H2362 H 0.63574 0.99642 0.5349 0.0
H2363 H 0.65742 0.01357 0.45256 0.0
Tb2364 Tb 0.32263 0.28088 0.78752 0.0
C2365 C 0.23452 0.31078 0.7351 0.0
N2366 N 0.25004 0.3215 0.75525 0.0
C2367 C 0.24982 0.35898 0.74176 0.0
C2368 C 0.22652 0.32381 0.71706 0.0
C2369 C 0.2571 0.34536 0.75923 0.0
C2370 C 0.2346 0.34815 0.72048 0.0
C2371 C 0.21093 0.27486 0.71151 0.0
C2372 C 0.22664 0.2866 0.73248 0.0
C2373 C 0.20309 0.28776 0.6934 0.0
C2374 C 0.21076 0.31217 0.69624 0.0
Tb2375 Tb 0.25937 0.29743 0.78286 0.0
N2376 N 0.23457 0.2746 0.75037 0.0
C2377 C 0.20344 0.25051 0.70941 0.0
C2378 C 0.22657 0.25096 0.74881 0.0
C2379 C 0.21119 0.23855 0.72823 0.0
H2380 H 0.26782 0.35412 0.77611 0.0
H2381 H 0.20507 0.21977 0.72705 0.0
H2382 H 0.31586 0.22343 0.7929 0.0
H2383 H 0.38368 0.35486 0.84054 0.0
H2384 H 0.23143 0.2415 0.76347 0.0
H2385 H 0.19141 0.24085 0.69356 0.0
H2386 H 0.3565 0.33332 0.80383 0.0
H2387 H 0.25568 0.37786 0.74492 0.0
H2388 H 0.19103 0.27903 0.67717 0.0
H2389 H 0.20451 0.32189 0.68215 0.0
H2390 H 0.32328 0.1997 0.82595 0.0
H2391 H 0.22892 0.35877 0.70701 0.0
H2392 H 0.39065 0.33505 0.87746 0.0
N2393 N 0.32923 0.2562 0.81588 0.0
C2394 C 0.34235 0.26692 0.83766 0.0
C2395 C 0.32832 0.21863 0.82967 0.0
C2396 C 0.34811 0.25389 0.8567 0.0
C2397 C 0.32356 0.23225 0.81113 0.0
C2398 C 0.34025 0.22952 0.85273 0.0
N2399 N 0.34694 0.30256 0.82074 0.0
C2400 C 0.35907 0.32487 0.82014 0.0
C2401 C 0.3675 0.30216 0.86113 0.0
C2402 C 0.35196 0.29077 0.83995 0.0
C2403 C 0.37851 0.32569 0.86156 0.0
C2404 C 0.3746 0.33696 0.84076 0.0
H2405 H 0.34433 0.21888 0.86688 0.0
H2406 H 0.36696 0.25571 0.8934 0.0
H2407 H 0.38395 0.29797 0.89726 0.0
O2408 O 0.34476 0.29175 0.76071 0.0
O2409 O 0.31381 0.30387 0.81868 0.0
O2410 O 0.27507 0.28899 0.81804 0.0
O2411 O 0.35251 0.26698 0.78436 0.0
O2412 O 0.31717 0.3118 0.77047 0.0
O2413 O 0.29018 0.32708 0.79068 0.0
O2414 O 0.22423 0.28955 0.79141 0.0
O2415 O 0.27469 0.29021 0.74782 0.0
O2416 O 0.29711 0.26303 0.75551 0.0
O2417 O 0.24802 0.32312 0.80514 0.0
O2418 O 0.26137 0.26432 0.79677 0.0
O2419 O 0.2923 0.25004 0.78243 0.0
C2420 C 0.29535 0.29979 0.83039 0.0
C2421 C 0.37096 0.26728 0.74805 0.0
C2422 C 0.40397 0.26811 0.72398 0.0
C2423 C 0.39735 0.24364 0.71833 0.0
C2424 C 0.36461 0.24284 0.74167 0.0
C2425 C 0.3778 0.23116 0.72701 0.0
C2426 C 0.39069 0.27997 0.73894 0.0
C2427 C 0.30945 0.32987 0.77996 0.0
C2428 C 0.35953 0.27902 0.76713 0.0
C2429 C 0.36251 0.26542 0.87851 0.0
C2430 C 0.37222 0.28949 0.8807 0.0
C2431 C 0.28536 0.27345 0.73985 0.0
C2432 C 0.20898 0.3187 0.81747 0.0
C2433 C 0.17372 0.31356 0.83855 0.0
C2434 C 0.17608 0.33799 0.84178 0.0
C2435 C 0.21061 0.34303 0.82119 0.0
C2436 C 0.19035 0.30378 0.8263 0.0
C2437 C 0.19431 0.35253 0.8332 0.0
C2438 C 0.27197 0.247 0.79148 0.0
C2439 C 0.22729 0.30993 0.80474 0.0
H2440 H 0.40745 0.23415 0.70719 0.0
H2441 H 0.34988 0.23266 0.7487 0.0
H2442 H 0.37304 0.21227 0.72264 0.0
H2443 H 0.39606 0.2988 0.74406 0.0
H2444 H 0.16367 0.3459 0.85109 0.0
H2445 H 0.22454 0.35486 0.81466 0.0
H2446 H 0.18882 0.28496 0.82373 0.0
H2447 H 0.19583 0.37132 0.83586 0.0
Tb2448 Tb 0.04923 1.00903 0.53436 0.0
C2449 C 0.01551 0.08798 0.58794 0.0
N2450 N 1.00625 0.07637 0.56506 0.0
C2451 C 0.96764 0.07249 0.57682 0.0
C2452 C 1.00131 0.09102 0.60664 0.0
C2453 C 0.98246 0.07082 0.55874 0.0
C2454 C 0.97718 0.08202 0.60112 0.0
C2455 C 0.0483 0.11499 0.61332 0.0
C2456 C 0.0387 0.09967 0.59143 0.0
C2457 C 0.0348 0.11657 0.63279 0.0
C2458 C 1.01135 0.10445 0.62951 0.0
Tb2459 Tb 0.03293 0.07267 0.53794 0.0
N2460 N 0.05124 0.09759 0.57227 0.0
C2461 C 0.07057 0.1293 0.61429 0.0
C2462 C 0.072 0.11286 0.57218 0.0
C2463 C 0.08213 0.12876 0.59332 0.0
H2464 H 0.97481 0.06548 0.53968 0.0
H2465 H 0.09872 0.1407 0.59339 0.0
H2466 H 0.10655 0.01536 0.5315 0.0
H2467 H 0.97322 0.95642 0.47456 0.0
H2468 H 0.08066 0.11256 0.55577 0.0
H2469 H 0.07846 0.14162 0.63062 0.0
H2470 H 0.99401 0.98056 0.51289 0.0
H2471 H 0.94885 0.06711 0.57183 0.0
H2472 H 0.04196 0.12795 0.64996 0.0
H2473 H 1.00078 0.10672 0.64421 0.0
H2474 H 0.13139 1.00512 0.50052 0.0
H2475 H 0.96564 0.08391 0.61496 0.0
H2476 H 0.99529 0.94546 0.44084 0.0
N2477 N 0.07451 0.99947 0.50835 0.0
C2478 C 0.06431 0.98576 0.48678 0.0
C2479 C 0.11253 0.99974 0.49633 0.0
C2480 C 0.07791 0.97917 0.46869 0.0
C2481 C 0.09832 1.00579 0.51375 0.0
C2482 C 0.10229 0.98659 0.4736 0.0
N2483 N 0.02754 0.98489 0.50075 0.0
C2484 C 1.00388 0.97673 0.49822 0.0
C2485 C 0.02892 0.96397 0.46071 0.0
C2486 C 0.0401 0.97817 0.48287 0.0
C2487 C 1.00454 0.9564 0.4576 0.0
C2488 C 0.99202 0.96263 0.47655 0.0
H2489 H 0.11336 0.98192 0.46017 0.0
H2490 H 0.07696 0.96011 0.43229 0.0
H2491 H 0.03408 0.94686 0.42528 0.0
O2492 O 0.03962 0.97428 0.54281 0.0
O2493 O 0.04403 0.02531 0.4995 0.0
O2494 O 0.01615 0.04735 0.50523 0.0
O2495 O 0.07214 0.99733 0.56001 0.0
O2496 O 0.01554 0.01114 0.5467 0.0
O2497 O 1.00223 0.04198 0.53095 0.0
O2498 O 0.04329 0.09441 0.51067 0.0
O2499 O 0.05664 0.06505 0.56921 0.0
O2500 O 0.03971 0.02707 0.56754 0.0
O2501 O 0.01975 0.10303 0.53531 0.0
O2502 O 0.06591 0.06872 0.52374 0.0
O2503 O 0.07937 0.03918 0.54228 0.0
C2504 C 0.02659 0.03461 0.49058 0.0
C2505 C 0.06765 0.95656 0.5653 0.0
C2506 C 0.06547 0.92169 0.58685 0.0
C2507 C 0.08835 0.92099 0.5823 0.0
C2508 C 0.09039 0.95518 0.56087 0.0
C2509 C 0.10061 0.93749 0.56932 0.0
C2510 C 0.05507 0.93956 0.57819 0.0
C2511 C 0.99851 0.02164 0.54003 0.0
C2512 C 0.05794 0.97704 0.55935 0.0
C2513 C 0.0668 0.96526 0.44645 0.0
C2514 C 0.04238 0.9577 0.44247 0.0
C2515 C 0.05269 0.04617 0.58025 0.0
C2516 C 0.01868 0.12048 0.4985 0.0
C2517 C 0.01825 0.15242 0.47306 0.0
C2518 C 0.99381 0.14494 0.46763 0.0
C2519 C 0.9943 0.11331 0.49238 0.0
C2520 C 0.03069 0.14018 0.4888 0.0
C2521 C 0.98199 0.12559 0.4772 0.0
C2522 C 0.08291 0.05848 0.53158 0.0
C2523 C 0.03113 0.10958 0.51747 0.0
H2524 H 0.0968 0.90761 0.58892 0.0
H2525 H 0.10046 0.9681 0.55135 0.0
H2526 H 0.11828 0.93674 0.5661 0.0
H2527 H 0.03765 0.94068 0.58215 0.0
H2528 H 0.98377 0.15424 0.45601 0.0
H2529 H 0.98467 0.09858 0.49991 0.0
H2530 H 0.04949 0.14605 0.49362 0.0
H2531 H 0.96313 0.12022 0.47299 0.0
Tb2532 Tb 0.29401 0.82105 0.77088 0.0
C2533 C 0.24453 0.73823 0.82262 0.0
N2534 N 0.26568 0.75351 0.82924 0.0
C2535 C 0.25799 0.75839 0.87147 0.0
C2536 C 0.22911 0.73308 0.84021 0.0
C2537 C 0.27303 0.76245 0.85365 0.0
C2538 C 0.23583 0.74391 0.86469 0.0
C2539 C 0.21803 0.70921 0.79162 0.0
C2540 C 0.23885 0.72641 0.79844 0.0
C2541 C 0.20242 0.70466 0.80897 0.0
C2542 C 0.20789 0.71663 0.83313 0.0
Tb2543 Tb 0.28789 0.75691 0.79747 0.0
N2544 N 0.25401 0.73151 0.78172 0.0
C2545 C 0.21391 0.69655 0.76779 0.0
C2546 C 0.25082 0.71835 0.75906 0.0
C2547 C 0.23061 0.70082 0.75163 0.0
H2548 H 0.29063 0.77222 0.85997 0.0
H2549 H 0.22796 0.69057 0.7335 0.0
H2550 H 0.29177 0.80469 0.7084 0.0
H2551 H 0.35394 0.88601 0.83613 0.0
H2552 H 0.2641 0.72096 0.74702 0.0
H2553 H 0.19822 0.68302 0.76193 0.0
H2554 H 0.31772 0.85583 0.82178 0.0
H2555 H 0.26375 0.76596 0.8906 0.0
H2556 H 0.18628 0.69156 0.80403 0.0
H2557 H 0.19586 0.71252 0.84643 0.0
H2558 H 0.31742 0.81382 0.67731 0.0
H2559 H 0.22444 0.74043 0.8787 0.0
H2560 H 0.38221 0.89651 0.8068 0.0
N2561 N 0.31575 0.82553 0.73883 0.0
C2562 C 0.33602 0.84218 0.74518 0.0
C2563 C 0.32299 0.82167 0.69639 0.0
C2564 C 0.3505 0.84903 0.72721 0.0
C2565 C 0.30871 0.81599 0.71452 0.0
C2566 C 0.34401 0.83815 0.70274 0.0
N2567 N 0.32754 0.84675 0.78669 0.0
C2568 C 0.331 0.85894 0.80984 0.0
C2569 C 0.36213 0.87125 0.77644 0.0
C2570 C 0.34191 0.85327 0.76966 0.0
C2571 C 0.36687 0.88256 0.80089 0.0
C2572 C 0.35106 0.87657 0.81758 0.0
H2573 H 0.35477 0.84283 0.68848 0.0
H2574 H 0.382 0.87231 0.72042 0.0
H2575 H 0.39215 0.8917 0.76341 0.0
O2576 O 0.28004 0.84937 0.7864 0.0
O2577 O 0.32823 0.81048 0.7842 0.0
O2578 O 0.32493 0.77726 0.80539 0.0
O2579 O 0.28758 0.84636 0.74889 0.0
O2580 O 0.2827 0.81058 0.80518 0.0
O2581 O 0.30212 0.78693 0.82494 0.0
O2582 O 0.30344 0.72987 0.78177 0.0
O2583 O 0.25406 0.7665 0.78194 0.0
O2584 O 0.25662 0.80252 0.76619 0.0
O2585 O 0.29278 0.73007 0.81791 0.0
O2586 O 0.29993 0.76928 0.76461 0.0
O2587 O 0.27976 0.79083 0.74335 0.0
C2588 C 0.3377 0.79539 0.79675 0.0
C2589 C 0.25859 0.86759 0.75672 0.0
C2590 C 0.23428 0.89677 0.76105 0.0
C2591 C 0.2243 0.88977 0.7362 0.0
C2592 C 0.24767 0.86056 0.73208 0.0
C2593 C 0.23088 0.87176 0.72191 0.0
C2594 C 0.25179 0.88588 0.77123 0.0
C2595 C 0.29673 0.80731 0.82394 0.0
C2596 C 0.27928 0.85841 0.76569 0.0
C2597 C 0.37075 0.86684 0.73403 0.0
C2598 C 0.37657 0.87787 0.75855 0.0
C2599 C 0.24432 0.78276 0.77208 0.0
C2600 C 0.32311 0.71028 0.81152 0.0
C2601 C 0.34781 0.68124 0.80844 0.0
C2602 C 0.35566 0.68731 0.83399 0.0
C2603 C 0.33223 0.71649 0.83678 0.0
C2604 C 0.33116 0.69267 0.79726 0.0
C2605 C 0.34813 0.70489 0.84789 0.0
C2606 C 0.28607 0.77098 0.74514 0.0
C2607 C 0.30272 0.7194 0.80152 0.0
H2608 H 0.21135 0.89837 0.72778 0.0
H2609 H 0.25263 0.84688 0.72025 0.0
H2610 H 0.2231 0.86661 0.70276 0.0
H2611 H 0.26021 0.89176 0.7901 0.0
H2612 H 0.36769 0.6783 0.84339 0.0
H2613 H 0.3264 0.72975 0.84835 0.0
H2614 H 0.32432 0.68778 0.7778 0.0
H2615 H 0.3544 0.7093 0.86751 0.0
Tb2616 Tb 0.54488 0.05894 0.00624 0.0
C2617 C 0.58199 1.00415 0.09179 0.0
N2618 N 0.56324 0.99467 0.07438 0.0
C2619 C 0.5775 0.95924 0.06792 0.0
C2620 C 0.5996 0.9917 0.09757 0.0
C2621 C 0.56082 0.97252 0.06234 0.0
C2622 C 0.59702 0.96889 0.08555 0.0
C2623 C 0.6039 0.0379 0.12 0.0
C2624 C 0.58413 0.02697 0.10263 0.0
C2625 C 0.62162 0.0257 0.1257 0.0
C2626 C 0.61943 1.00261 0.11457 0.0
Tb2627 Tb 0.53858 0.01857 0.06355 0.0
N2628 N 0.56689 0.03842 0.09601 0.0
C2629 C 0.60519 0.06069 0.13129 0.0
C2630 C 0.56707 0.05969 0.1092 0.0
C2631 C 0.58641 0.07138 0.1263 0.0
H2632 H 0.54612 0.96509 0.0482 0.0
H2633 H 0.5866 0.08852 0.13597 0.0
H2634 H 0.53513 0.11116 0.02454 0.0
H2635 H 0.50561 0.99581 0.92455 0.0
H2636 H 0.55229 0.06774 0.10773 0.0
H2637 H 0.62013 0.06977 0.14458 0.0
H2638 H 0.53702 0.01487 0.95754 0.0
H2639 H 0.57547 0.9417 0.05833 0.0
H2640 H 0.63701 0.03391 0.13881 0.0
H2641 H 0.63324 0.9934 0.11911 0.0
H2642 H 0.50468 0.13358 0.01552 0.0
H2643 H 0.61013 0.95872 0.0895 0.0
H2644 H 0.47057 0.01254 0.91659 0.0
N2645 N 0.51949 0.08248 0.99669 0.0
C2646 C 0.50175 0.07358 0.97798 0.0
C2647 C 0.50359 0.11667 1.00488 0.0
C2648 C 0.48371 0.08554 0.97251 0.0
C2649 C 0.52082 0.10389 0.00996 0.0
C2650 C 0.48482 0.10737 0.98622 0.0
N2651 N 0.51906 0.04092 0.97132 0.0
C2652 C 0.52146 0.02189 0.95577 0.0
C2653 C 0.4831 0.04184 0.94568 0.0
C2654 C 0.50132 0.05187 0.96513 0.0
C2655 C 0.4842 0.02085 0.93168 0.0
C2656 C 0.50385 0.01126 0.93626 0.0
H2657 H 0.47132 0.11716 0.98257 0.0
H2658 H 0.45086 0.08399 0.94952 0.0
H2659 H 0.45043 0.04578 0.92582 0.0
O2660 O 0.57286 0.05906 0.98569 0.0
O2661 O 0.51031 0.05228 0.0172 0.0
O2662 O 0.51746 0.01975 0.02946 0.0
O2663 O 0.56291 0.09115 0.99793 0.0
O2664 O 0.55139 0.0221 0.99871 0.0
O2665 O 0.5345 0.99761 0.02613 0.0
O2666 O 0.51276 0.01974 0.08674 0.0
O2667 O 0.57259 0.02425 0.05123 0.0
O2668 O 0.56582 0.05733 0.04017 0.0
O2669 O 0.5189 0.98679 0.07108 0.0
O2670 O 0.53014 0.05448 0.06995 0.0
O2671 O 0.54903 0.07912 0.04409 0.0
C2672 C 0.50338 0.03386 0.0274 0.0
C2673 C 0.57579 0.08742 0.95879 0.0
C2674 C 0.58894 0.08143 0.91884 0.0
C2675 C 0.5768 0.09788 0.91027 0.0
C2676 C 0.56344 0.10382 0.95017 0.0
C2677 C 0.56404 0.10903 0.92595 0.0
C2678 C 0.58856 0.07634 0.943 0.0
C2679 C 0.54514 1.00097 0.00608 0.0
C2680 C 0.57551 0.08128 0.98393 0.0
C2681 C 0.46504 0.0752 0.95384 0.0
C2682 C 0.46474 0.05339 0.94045 0.0
C2683 C 0.57948 0.04276 0.04115 0.0
C2684 C 0.50453 0.98814 0.10968 0.0
C2685 C 0.48982 0.99176 0.14909 0.0
C2686 C 0.49283 0.96919 0.15248 0.0
C2687 C 0.50768 0.96554 0.11317 0.0
C2688 C 0.49572 1.00123 0.12787 0.0
C2689 C 0.50191 0.95619 0.13459 0.0
C2690 C 0.53695 0.07573 0.06315 0.0
C2691 C 0.50744 0.99711 0.08606 0.0
H2692 H 0.57745 0.10223 0.89161 0.0
H2693 H 0.55339 0.11261 0.96204 0.0
H2694 H 0.55472 0.12179 0.91939 0.0
H2695 H 0.59835 0.06384 0.94952 0.0
H2696 H 0.48774 0.96155 0.16871 0.0
H2697 H 0.514 0.95488 0.09913 0.0
H2698 H 0.49249 0.0184 0.12515 0.0
H2699 H 0.50396 0.93865 0.13706 0.0
Tb2700 Tb 0.28071 0.25804 0.26811 0.0
C2701 C 0.35477 0.34465 0.32885 0.0
N2702 N 0.33518 0.3295 0.33293 0.0
C2703 C 0.35098 0.33261 0.37586 0.0
C2704 C 0.37321 0.35424 0.34823 0.0
C2705 C 0.33285 0.32405 0.35633 0.0
C2706 C 0.37129 0.34767 0.37179 0.0
C2707 C 0.37535 0.36826 0.301 0.0
C2708 C 0.35595 0.35146 0.30537 0.0
C2709 C 0.39361 0.37783 0.32031 0.0
C2710 C 0.39264 0.37069 0.34378 0.0
Tb2711 Tb 0.3056 0.32164 0.30029 0.0
N2712 N 0.33819 0.34162 0.28684 0.0
C2713 C 0.37614 0.37456 0.27716 0.0
C2714 C 0.33878 0.34819 0.26371 0.0
C2715 C 0.35783 0.36434 0.25841 0.0
H2716 H 0.31664 0.31447 0.36073 0.0
H2717 H 0.358 0.36946 0.24003 0.0
H2718 H 0.27284 0.26743 0.20786 0.0
H2719 H 0.22898 0.19519 0.31492 0.0
H2720 H 0.32406 0.34249 0.24968 0.0
H2721 H 0.39079 0.38727 0.27305 0.0
H2722 H 0.26373 0.22467 0.30979 0.0
H2723 H 0.34891 0.32824 0.3943 0.0
H2724 H 0.40868 0.39061 0.31721 0.0
H2725 H 0.40688 0.37827 0.35849 0.0
H2726 H 0.24051 0.26123 0.17447 0.0
H2727 H 0.38505 0.35472 0.38714 0.0
H2728 H 0.1941 0.18621 0.28302 0.0
N2729 N 0.25211 0.25299 0.23438 0.0
C2730 C 0.23133 0.23881 0.23672 0.0
C2731 C 0.23745 0.25537 0.19212 0.0
C2732 C 0.21258 0.2331 0.2171 0.0
C2733 C 0.25573 0.25983 0.21175 0.0
C2734 C 0.21562 0.24233 0.19495 0.0
N2735 N 0.2482 0.23346 0.27617 0.0
C2736 C 0.24834 0.22153 0.29618 0.0
C2737 C 0.20944 0.21121 0.25998 0.0
C2738 C 0.22959 0.22815 0.25798 0.0
C2739 C 0.20919 0.19943 0.28086 0.0
C2740 C 0.2288 0.20453 0.29895 0.0
H2741 H 0.20168 0.23835 0.17945 0.0
H2742 H 0.17734 0.21286 0.2048 0.0
H2743 H 0.17466 0.19354 0.24231 0.0
O2744 O 0.29584 0.23081 0.27934 0.0
O2745 O 0.25177 0.27434 0.2819 0.0
O2746 O 0.2671 0.3123 0.30166 0.0
O2747 O 0.27965 0.22965 0.2409 0.0
O2748 O 0.29362 0.2616 0.30822 0.0
O2749 O 0.29007 0.29798 0.32558 0.0
O2750 O 0.30104 0.35379 0.29013 0.0
O2751 O 0.33436 0.30209 0.29191 0.0
O2752 O 0.31774 0.27047 0.26198 0.0
O2753 O 0.30507 0.34858 0.32858 0.0
O2754 O 0.28794 0.31716 0.26165 0.0
O2755 O 0.29661 0.28334 0.24519 0.0
C2756 C 0.24901 0.2945 0.29388 0.0
C2757 C 0.29632 0.19691 0.25037 0.0
C2758 C 0.30554 0.16161 0.26324 0.0
C2759 C 0.30745 0.15343 0.23866 0.0
C2760 C 0.29817 0.18889 0.22573 0.0
C2761 C 0.30384 0.16716 0.21994 0.0
C2762 C 0.30011 0.1833 0.26905 0.0
C2763 C 0.2902 0.27581 0.32714 0.0
C2764 C 0.29057 0.21945 0.25692 0.0
C2765 C 0.19191 0.21733 0.21964 0.0
C2766 C 0.19042 0.20626 0.24095 0.0
C2767 C 0.33654 0.28452 0.2752 0.0
C2768 C 0.28427 0.37712 0.31724 0.0
C2769 C 0.26572 0.40765 0.30431 0.0
C2770 C 0.25537 0.40869 0.32613 0.0
C2771 C 0.27391 0.37797 0.33916 0.0
C2772 C 0.28 0.39197 0.29989 0.0
C2773 C 0.25942 0.39373 0.3435 0.0
C2774 C 0.29248 0.30403 0.2426 0.0
C2775 C 0.30154 0.36299 0.31294 0.0
H2776 H 0.31194 0.13661 0.23407 0.0
H2777 H 0.29542 0.19945 0.21109 0.0
H2778 H 0.30545 0.16098 0.201 0.0
H2779 H 0.29858 0.18938 0.28811 0.0
H2780 H 0.24452 0.42122 0.3298 0.0
H2781 H 0.27733 0.36687 0.35307 0.0
H2782 H 0.28836 0.39189 0.28318 0.0
H2783 H 0.25166 0.39463 0.3605 0.0
Tb2784 Tb 0.55241 0.50949 0.03584 0.0
C2785 C 0.51715 0.59315 0.0864 0.0
N2786 N 0.50653 0.5779 0.06598 0.0
C2787 C 0.46949 0.57492 0.08124 0.0
C2788 C 0.50434 0.59956 0.10532 0.0
C2789 C 0.48294 0.56902 0.063 0.0
C2790 C 0.48024 0.59018 0.10255 0.0
C2791 C 0.5529 0.61726 0.10974 0.0
C2792 C 0.54115 0.60184 0.0886 0.0
C2793 C 0.54019 0.62376 0.12862 0.0
C2794 C 0.51598 0.61493 0.12642 0.0
Tb2795 Tb 0.53039 0.56988 0.03753 0.0
N2796 N 0.55302 0.59449 0.07032 0.0
C2797 C 0.57706 0.62565 0.11125 0.0
C2798 C 0.57636 0.60354 0.0712 0.0
C2799 C 0.58879 0.61894 0.09178 0.0
H2800 H 0.47426 0.55789 0.04628 0.0
H2801 H 0.60738 0.62583 0.09247 0.0
H2802 H 0.60912 0.51788 0.03107 0.0
H2803 H 0.4772 0.44867 0.98329 0.0
H2804 H 0.58544 0.59951 0.05597 0.0
H2805 H 0.58675 0.63757 0.12717 0.0
H2806 H 0.49793 0.47855 0.01734 0.0
H2807 H 0.45082 0.56782 0.07876 0.0
H2808 H 0.54892 0.63559 0.14502 0.0
H2809 H 0.50644 0.62005 0.14117 0.0
H2810 H 0.63428 0.50343 1.0026 0.0
H2811 H 0.46977 0.59469 0.11667 0.0
H2812 H 0.49925 0.43241 0.95225 0.0
N2813 N 0.57745 0.49719 0.01091 0.0
C2814 C 0.5676 0.48023 0.99172 0.0
C2815 C 0.61552 0.49687 0.99921 0.0
C2816 C 0.58135 0.47094 0.97535 0.0
C2817 C 0.60115 0.50533 0.0151 0.0
C2818 C 0.60557 0.47965 0.97918 0.0
N2819 N 0.53108 0.4817 1.00472 0.0
C2820 C 0.50762 0.47287 1.0034 0.0
C2821 C 0.53263 0.45417 0.96918 0.0
C2822 C 0.54362 0.47204 0.98863 0.0
C2823 C 0.50838 0.4461 0.96694 0.0
C2824 C 0.49586 0.45534 0.9843 0.0
H2825 H 0.61676 0.47303 0.96699 0.0
H2826 H 0.58079 0.44588 0.94306 0.0
H2827 H 0.53809 0.43114 0.93769 0.0
O2828 O 0.53899 0.48299 0.05717 0.0
O2829 O 0.54302 0.52004 0.99844 0.0
O2830 O 0.51692 0.54424 1.00432 0.0
O2831 O 0.57571 0.49268 0.05492 0.0
O2832 O 0.51918 0.51235 0.0503 0.0
O2833 O 0.50271 0.53798 0.02886 0.0
O2834 O 0.54206 0.60005 0.01942 0.0
O2835 O 0.53775 0.55572 0.07317 0.0
O2836 O 0.56772 0.53798 0.06576 0.0
O2837 O 0.50592 0.58881 0.02543 0.0
O2838 O 0.56253 0.56808 0.02079 0.0
O2839 O 0.5803 0.54158 0.03965 0.0
C2840 C 0.52774 0.53204 0.98959 0.0
C2841 C 0.56175 0.45381 0.06282 0.0
C2842 C 0.55874 0.41768 0.08222 0.0
C2843 C 0.57131 0.40889 0.06441 0.0
C2844 C 0.57401 0.44427 0.04509 0.0
C2845 C 0.57879 0.42205 0.04598 0.0
C2846 C 0.55397 0.44029 0.08143 0.0
C2847 C 0.50067 0.51951 0.04074 0.0
C2848 C 0.55951 0.47863 0.0636 0.0
C2849 C 0.57053 0.45322 0.95585 0.0
C2850 C 0.54621 0.44484 0.95278 0.0
C2851 C 0.55556 0.54686 0.08143 0.0
C2852 C 0.51351 0.62367 0.00521 0.0
C2853 C 0.51922 0.65698 0.98127 0.0
C2854 C 0.49629 0.65934 0.98373 0.0
C2855 C 0.49064 0.62678 0.00721 0.0
C2856 C 0.52804 0.63908 0.99221 0.0
C2857 C 0.48219 0.64442 0.9966 0.0
C2858 C 0.58131 0.56004 0.02763 0.0
C2859 C 0.52098 0.60401 0.01672 0.0
H2860 H 0.57546 0.39177 0.06488 0.0
H2861 H 0.58052 0.45423 0.03089 0.0
H2862 H 0.58861 0.41509 0.03248 0.0
H2863 H 0.54481 0.44751 0.09549 0.0
H2864 H 0.48924 0.67292 0.9756 0.0
H2865 H 0.47906 0.61549 0.01705 0.0
H2866 H 0.54569 0.63704 0.99036 0.0
H2867 H 0.46454 0.64649 0.99833 0.0
Tb2868 Tb 0.79224 0.31794 0.27033 0.0
C2869 C 0.74605 0.23284 0.3235 0.0
N2870 N 0.76707 0.24774 0.33114 0.0
C2871 C 0.76049 0.24686 0.37354 0.0
C2872 C 0.73093 0.22516 0.3406 0.0
C2873 C 0.77475 0.25408 0.35584 0.0
C2874 C 0.7383 0.23262 0.36588 0.0
C2875 C 0.71824 0.20935 0.28971 0.0
C2876 C 0.73989 0.22481 0.29843 0.0
C2877 C 0.7028 0.20222 0.30658 0.0
C2878 C 0.70919 0.21001 0.33198 0.0
Tb2879 Tb 0.78903 0.25794 0.30052 0.0
N2880 N 0.7551 0.23249 0.28257 0.0
C2881 C 0.71288 0.20133 0.26433 0.0
C2882 C 0.75061 0.22339 0.25814 0.0
C2883 C 0.72932 0.2081 0.24854 0.0
H2884 H 0.7924 0.26345 0.36189 0.0
H2885 H 0.72575 0.20129 0.22902 0.0
H2886 H 0.78829 0.30338 0.20887 0.0
H2887 H 0.85753 0.37793 0.33674 0.0
H2888 H 0.76352 0.22727 0.24613 0.0
H2889 H 0.69642 0.18944 0.25686 0.0
H2890 H 0.82039 0.34929 0.32303 0.0
H2891 H 0.76681 0.25191 0.39309 0.0
H2892 H 0.68603 0.19043 0.30022 0.0
H2893 H 0.69726 0.20408 0.34483 0.0
H2894 H 0.81278 0.31263 0.17624 0.0
H2895 H 0.7273 0.22696 0.37963 0.0
H2896 H 0.88418 0.38972 0.30626 0.0
N2897 N 0.8131 0.32439 0.23804 0.0
C2898 C 0.83364 0.3405 0.24392 0.0
C2899 C 0.81899 0.32037 0.19525 0.0
C2900 C 0.84793 0.34678 0.22567 0.0
C2901 C 0.80536 0.31474 0.21396 0.0
C2902 C 0.84044 0.33634 0.20113 0.0
N2903 N 0.82637 0.3439 0.28564 0.0
C2904 C 0.83199 0.35388 0.30977 0.0
C2905 C 0.86165 0.36734 0.27528 0.0
C2906 C 0.84035 0.35083 0.26841 0.0
C2907 C 0.86793 0.377 0.30021 0.0
C2908 C 0.85298 0.37031 0.31749 0.0
H2909 H 0.8509 0.34075 0.18655 0.0
H2910 H 0.88033 0.36839 0.21863 0.0
H2911 H 0.8924 0.38626 0.26207 0.0
O2912 O 0.77788 0.34725 0.28412 0.0
O2913 O 0.82704 0.30787 0.28076 0.0
O2914 O 0.8234 0.283 0.311 0.0
O2915 O 0.7791 0.33721 0.24501 0.0
O2916 O 0.77955 0.31295 0.30556 0.0
O2917 O 0.79885 0.28961 0.32707 0.0
O2918 O 0.80171 0.22781 0.28603 0.0
O2919 O 0.7548 0.26966 0.29228 0.0
O2920 O 0.75791 0.29266 0.26041 0.0
O2921 O 0.80456 0.23978 0.32543 0.0
O2922 O 0.80277 0.2642 0.26606 0.0
O2923 O 0.78063 0.28559 0.24561 0.0
C2924 C 0.83654 0.29712 0.29824 0.0
C2925 C 0.76019 0.36929 0.25304 0.0
C2926 C 0.74249 0.40348 0.2599 0.0
C2927 C 0.73579 0.40154 0.23422 0.0
C2928 C 0.75312 0.36801 0.22741 0.0
C2929 C 0.74105 0.38396 0.21817 0.0
C2930 C 0.75462 0.38712 0.26947 0.0
C2931 C 0.79084 0.30881 0.32593 0.0
C2932 C 0.77274 0.35133 0.26147 0.0
C2933 C 0.86912 0.36334 0.23241 0.0
C2934 C 0.87598 0.37356 0.25715 0.0
C2935 C 0.74502 0.2798 0.27443 0.0
C2936 C 0.82005 0.20552 0.31621 0.0
C2937 C 0.84095 0.1739 0.30859 0.0
C2938 C 0.84312 0.17186 0.33397 0.0
C2939 C 0.82249 0.20285 0.34155 0.0
C2940 C 0.82931 0.1908 0.29953 0.0
C2941 C 0.83393 0.18621 0.35028 0.0
C2942 C 0.79125 0.26814 0.24581 0.0
C2943 C 0.80876 0.22455 0.30857 0.0
H2944 H 0.7263 0.41373 0.22651 0.0
H2945 H 0.75682 0.35453 0.21426 0.0
H2946 H 0.73572 0.38267 0.19843 0.0
H2947 H 0.75979 0.38839 0.28926 0.0
H2948 H 0.85211 0.1591 0.3412 0.0
H2949 H 0.81568 0.2138 0.35489 0.0
H2950 H 0.82785 0.19267 0.28 0.0
H2951 H 0.83579 0.18451 0.36984 0.0
Tb2952 Tb 0.04121 0.55789 0.50492 0.0
C2953 C 0.08268 0.50787 0.59243 0.0
N2954 N 0.06397 0.49762 0.5753 0.0
C2955 C 0.07868 0.4623 0.57077 0.0
C2956 C 0.10051 0.49592 0.59899 0.0
C2957 C 0.06175 0.47509 0.56446 0.0
C2958 C 0.09825 0.47281 0.588 0.0
C2959 C 0.1033 0.54205 0.62073 0.0
C2960 C 0.08404 0.5306 0.60296 0.0
C2961 C 0.12148 0.53053 0.62688 0.0
C2962 C 0.12004 0.50746 0.6161 0.0
Tb2963 Tb 0.03841 0.52047 0.56376 0.0
N2964 N 0.06613 0.54115 0.59631 0.0
C2965 C 0.10342 0.56445 0.6323 0.0
C2966 C 0.06503 0.56181 0.60996 0.0
C2967 C 0.08389 0.5741 0.62735 0.0
H2968 H 0.04688 0.46687 0.55095 0.0
H2969 H 0.08307 0.59078 0.63738 0.0
H2970 H 0.03254 0.61092 0.5209 0.0
H2971 H 0.99249 0.48655 0.43466 0.0
H2972 H 0.04955 0.56882 0.60865 0.0
H2973 H 0.1179 0.5739 0.64595 0.0
H2974 H 0.02619 0.50723 0.46364 0.0
H2975 H 0.07671 0.44442 0.56215 0.0
H2976 H 0.13649 0.53914 0.64031 0.0
H2977 H 0.13403 0.49866 0.62123 0.0
H2978 H 1.00309 0.63406 0.51037 0.0
H2979 H 0.11149 0.46296 0.59265 0.0
H2980 H 0.95939 0.50554 0.42473 0.0
N2981 N 0.01527 0.58089 0.49547 0.0
C2982 C 0.99667 0.57123 0.47792 0.0
C2983 C 1.00104 0.61638 0.50113 0.0
C2984 C 0.97923 0.58369 0.47157 0.0
C2985 C 0.01768 0.60319 0.5071 0.0
C2986 C 0.9817 0.60659 0.48331 0.0
N2987 N 1.01166 0.53676 0.47451 0.0
C2988 C 1.01153 0.51535 0.4617 0.0
C2989 C 0.97517 0.53736 0.44957 0.0
C2990 C 0.9946 0.54828 0.46736 0.0
C2991 C 0.97402 0.51455 0.43844 0.0
C2992 C 0.99254 0.50371 0.44417 0.0
H2993 H 0.96871 0.61678 0.4789 0.0
H2994 H 0.94612 0.58205 0.44902 0.0
H2995 H 0.94263 0.5415 0.42962 0.0
O2996 O 0.06141 0.55578 0.47612 0.0
O2997 O 1.00792 0.55227 0.51841 0.0
O2998 O 0.01667 0.52026 0.52996 0.0
O2999 O 0.0589 0.58979 0.49466 0.0
O3000 O 0.05147 0.52265 0.4994 0.0
O3001 O 0.03462 0.4986 0.52693 0.0
O3002 O 0.01244 0.5214 0.58688 0.0
O3003 O 0.07188 0.52702 0.55059 0.0
O3004 O 0.06635 0.56045 0.53749 0.0
O3005 O 0.01945 0.48863 0.57191 0.0
O3006 O 0.03003 0.55643 0.56965 0.0
O3007 O 0.04764 0.57978 0.54203 0.0
C3008 C 1.00213 0.53389 0.52888 0.0
C3009 C 0.08216 0.58964 0.46072 0.0
C3010 C 0.09964 0.58618 0.42306 0.0
C3011 C 0.10726 0.61062 0.42567 0.0
C3012 C 0.08994 0.6141 0.46356 0.0
C3013 C 0.10258 0.62452 0.44606 0.0
C3014 C 0.08737 0.57575 0.44062 0.0
C3015 C 0.04529 0.50156 0.50684 0.0
C3016 C 0.06712 0.57844 0.47732 0.0
C3017 C 0.95975 0.57279 0.45411 0.0
C3018 C 0.95771 0.54967 0.44315 0.0
C3019 C 0.07966 0.54563 0.54077 0.0
C3020 C 1.00783 0.49119 0.6117 0.0
C3021 C 0.99568 0.49575 0.6523 0.0
C3022 C 1.00547 0.47695 0.65862 0.0
C3023 C 0.01763 0.47227 0.61797 0.0
C3024 C 0.99672 0.50271 0.62892 0.0
C3025 C 0.01638 0.4652 0.6414 0.0
C3026 C 0.037 0.57734 0.5622 0.0
C3027 C 1.00824 0.49888 0.58723 0.0
H3028 H 0.1168 0.61884 0.41199 0.0
H3029 H 0.08596 0.6251 0.47899 0.0
H3030 H 0.10846 0.64337 0.44812 0.0
H3031 H 0.08124 0.55685 0.43806 0.0
H3032 H 1.00423 0.47115 0.67662 0.0
H3033 H 0.02609 0.46287 0.60483 0.0
H3034 H 0.98867 0.51702 0.62412 0.0
H3035 H 0.02371 0.45051 0.64614 0.0
Tb3036 Tb 0.82165 0.77808 0.28662 0.0
C3037 C 0.73607 0.81246 0.23488 0.0
N3038 N 0.7524 0.82293 0.25449 0.0
C3039 C 0.7554 0.85989 0.23896 0.0
C3040 C 0.72898 0.82534 0.21628 0.0
C3041 C 0.76186 0.84641 0.25699 0.0
C3042 C 0.73895 0.84931 0.21848 0.0
C3043 C 0.7101 0.77701 0.21294 0.0
C3044 C 0.72683 0.78855 0.23318 0.0
C3045 C 0.70287 0.78983 0.19444 0.0
C3046 C 0.71232 0.8139 0.19608 0.0
Tb3047 Tb 0.76049 0.79902 0.28285 0.0
N3048 N 0.73497 0.77649 0.25089 0.0
C3049 C 0.70138 0.7529 0.21175 0.0
C3050 C 0.72567 0.75322 0.25042 0.0
C3051 C 0.70907 0.741 0.23069 0.0
H3052 H 0.77389 0.85505 0.27316 0.0
H3053 H 0.70195 0.72248 0.23029 0.0
H3054 H 0.80853 0.72193 0.2962 0.0
H3055 H 0.88346 0.85339 0.33692 0.0
H3056 H 0.73032 0.7441 0.26546 0.0
H3057 H 0.68853 0.74337 0.19648 0.0
H3058 H 0.85452 0.83171 0.30211 0.0
H3059 H 0.76294 0.87848 0.24101 0.0
H3060 H 0.6901 0.78125 0.1787 0.0
H3061 H 0.70666 0.82351 0.18159 0.0
H3062 H 0.81881 0.69859 0.32866 0.0
H3063 H 0.73396 0.85983 0.20457 0.0
H3064 H 0.89559 0.83295 0.37173 0.0
N3065 N 0.8295 0.75417 0.31521 0.0
C3066 C 0.84568 0.7646 0.33499 0.0
C3067 C 0.82631 0.71719 0.3308 0.0
C3068 C 0.85252 0.75173 0.35371 0.0
C3069 C 0.82016 0.73064 0.31261 0.0
C3070 C 0.84245 0.72779 0.35151 0.0
N3071 N 0.84784 0.80028 0.31829 0.0
C3072 C 0.8584 0.82306 0.31782 0.0
C3073 C 0.87255 0.79973 0.35635 0.0
C3074 C 0.8554 0.78834 0.33641 0.0
C3075 C 0.88238 0.82354 0.35674 0.0
C3076 C 0.87542 0.83519 0.33724 0.0
H3077 H 0.84726 0.71728 0.3655 0.0
H3078 H 0.87472 0.75351 0.38848 0.0
H3079 H 0.89232 0.7955 0.39074 0.0
O3080 O 0.85037 0.7897 0.26633 0.0
O3081 O 0.80934 0.78773 0.32284 0.0
O3082 O 0.78484 0.8135 0.31662 0.0
O3083 O 0.84171 0.75438 0.27579 0.0
O3084 O 0.81919 0.81073 0.27091 0.0
O3085 O 0.79261 0.82668 0.29146 0.0
O3086 O 0.73088 0.78715 0.30171 0.0
O3087 O 0.77392 0.79083 0.24676 0.0
O3088 O 0.79574 0.76334 0.25409 0.0
O3089 O 0.74093 0.82307 0.29428 0.0
O3090 O 0.76306 0.76674 0.29913 0.0
O3091 O 0.78944 0.75027 0.27888 0.0
C3092 C 0.79713 0.8028 0.33131 0.0
C3093 C 0.8758 0.76192 0.25454 0.0
C3094 C 0.90899 0.76726 0.2304 0.0
C3095 C 0.91247 0.74505 0.2349 0.0
C3096 C 0.88007 0.73978 0.25849 0.0
C3097 C 0.89818 0.73151 0.2488 0.0
C3098 C 0.89058 0.77593 0.24045 0.0
C3099 C 0.81117 0.8289 0.27974 0.0
C3100 C 0.85588 0.76925 0.26569 0.0
C3101 C 0.86927 0.7631 0.37388 0.0
C3102 C 0.8793 0.78702 0.37516 0.0
C3103 C 0.78551 0.775 0.23864 0.0
C3104 C 0.70687 0.81551 0.31572 0.0
C3105 C 0.6729 0.80932 0.33868 0.0
C3106 C 0.67157 0.83279 0.33782 0.0
C3107 C 0.70475 0.83893 0.31536 0.0
C3108 C 0.69071 0.80052 0.32757 0.0
C3109 C 0.68733 0.84741 0.32629 0.0
C3110 C 0.77134 0.74839 0.29136 0.0
C3111 C 0.72638 0.80807 0.30384 0.0
H3112 H 0.92644 0.7381 0.22756 0.0
H3113 H 0.86937 0.72863 0.26923 0.0
H3114 H 0.90115 0.71443 0.25206 0.0
H3115 H 0.88767 0.79302 0.23711 0.0
H3116 H 0.65819 0.83989 0.34626 0.0
H3117 H 0.71668 0.85097 0.3066 0.0
H3118 H 0.69202 0.78246 0.32827 0.0
H3119 H 0.68606 0.86549 0.32584 0.0
Tb3120 Tb 0.77103 0.28632 0.8143 0.0
C3121 C 0.82906 0.2522 0.72369 0.0
N3122 N 0.8371 0.27011 0.74242 0.0
C3123 C 0.87511 0.26074 0.74566 0.0
C3124 C 0.84387 0.2378 0.71517 0.0
C3125 C 0.8597 0.27433 0.7537 0.0
C3126 C 0.8672 0.24246 0.72623 0.0
C3127 C 0.796 0.22698 0.69696 0.0
C3128 C 0.80539 0.24687 0.7148 0.0
C3129 C 0.81087 0.21326 0.68759 0.0
C3130 C 0.83474 0.2186 0.69674 0.0
Tb3131 Tb 0.81068 0.29077 0.75542 0.0
N3132 N 0.7913 0.25953 0.72575 0.0
C3133 C 0.77179 0.22062 0.69007 0.0
C3134 C 0.76747 0.25209 0.72009 0.0
C3135 C 0.75748 0.23309 0.70191 0.0
H3136 H 0.86599 0.28835 0.76882 0.0
H3137 H 0.73862 0.22766 0.6976 0.0
H3138 H 0.71557 0.29003 0.80364 0.0
H3139 H 0.83906 0.33156 0.89012 0.0
H3140 H 0.75559 0.25962 0.72996 0.0
H3141 H 0.76393 0.20548 0.67649 0.0
H3142 H 0.81986 0.299 0.85911 0.0
H3143 H 0.89303 0.26427 0.7546 0.0
H3144 H 0.80392 0.19794 0.67396 0.0
H3145 H 0.84586 0.20735 0.68999 0.0
H3146 H 0.69139 0.31822 0.81502 0.0
H3147 H 0.87908 0.23171 0.7203 0.0
H3148 H 0.81951 0.36415 0.90047 0.0
N3149 N 0.74598 0.30872 0.82767 0.0
C3150 C 0.75525 0.32737 0.8452 0.0
C3151 C 0.70937 0.32107 0.82363 0.0
C3152 C 0.74217 0.34411 0.85211 0.0
C3153 C 0.72318 0.30515 0.81717 0.0
C3154 C 0.71898 0.34081 0.84097 0.0
N3155 N 0.78994 0.31314 0.84848 0.0
C3156 C 0.81113 0.31315 0.86175 0.0
C3157 C 0.78842 0.34881 0.8744 0.0
C3158 C 0.77808 0.32976 0.85591 0.0
C3159 C 0.81094 0.34985 0.88618 0.0
C3160 C 0.82207 0.33158 0.88027 0.0
H3161 H 0.70834 0.35327 0.84573 0.0
H3162 H 0.74301 0.37681 0.87508 0.0
H3163 H 0.78355 0.38086 0.89478 0.0
O3164 O 0.77286 0.25935 0.83585 0.0
O3165 O 0.77842 0.32142 0.80465 0.0
O3166 O 0.80789 0.31065 0.78955 0.0
O3167 O 0.73968 0.26357 0.81867 0.0
O3168 O 0.80732 0.27865 0.82089 0.0
O3169 O 0.83206 0.29348 0.7926 0.0
O3170 O 0.80668 0.31457 0.73037 0.0
O3171 O 0.80463 0.25623 0.76549 0.0
O3172 O 0.77512 0.26774 0.77992 0.0
O3173 O 0.84082 0.31374 0.7486 0.0
O3174 O 0.77464 0.2983 0.74756 0.0
O3175 O 0.74992 0.28811 0.77786 0.0
C3176 C 0.79508 0.32604 0.79139 0.0
C3177 C 0.7413 0.25069 0.85808 0.0
C3178 C 0.74627 0.23899 0.89897 0.0
C3179 C 0.72627 0.24702 0.90447 0.0
C3180 C 0.72113 0.25857 0.86351 0.0
C3181 C 0.71366 0.25666 0.88668 0.0
C3182 C 0.75361 0.24069 0.87583 0.0
C3183 C 0.82845 0.28365 0.81322 0.0
C3184 C 0.75025 0.2529 0.83438 0.0
C3185 C 0.75267 0.3636 0.86975 0.0
C3186 C 0.77576 0.36594 0.88089 0.0
C3187 C 0.78746 0.25178 0.77805 0.0
C3188 C 0.83814 0.32405 0.70811 0.0
C3189 C 0.83622 0.33965 0.66918 0.0
C3190 C 0.85551 0.3305 0.66332 0.0
C3191 C 0.85729 0.31455 0.70218 0.0
C3192 C 0.82757 0.33639 0.69142 0.0
C3193 C 0.8659 0.3178 0.67976 0.0
C3194 C 0.75389 0.29584 0.75615 0.0
C3195 C 0.82915 0.32236 0.73176 0.0
H3196 H 0.72026 0.24548 0.92233 0.0
H3197 H 0.71121 0.26623 0.85002 0.0
H3198 H 0.6981 0.26264 0.89084 0.0
H3199 H 0.76911 0.23438 0.87176 0.0
H3200 H 0.8625 0.33329 0.64615 0.0
H3201 H 0.86576 0.30493 0.71484 0.0
H3202 H 0.81291 0.34395 0.69597 0.0
H3203 H 0.88078 0.31071 0.67526 0.0
Tb3204 Tb 0.77821 0.75823 0.76859 0.0
C3205 C 0.85645 0.83613 0.82795 0.0
N3206 N 0.83503 0.82546 0.83302 0.0
C3207 C 0.85059 0.8281 0.87591 0.0
C3208 C 0.87577 0.84316 0.8468 0.0
C3209 C 0.83184 0.8217 0.85676 0.0
C3210 C 0.87263 0.83886 0.87094 0.0
C3211 C 0.8807 0.85213 0.79809 0.0
C3212 C 0.85891 0.84058 0.80382 0.0
C3213 C 0.89993 0.85907 0.81683 0.0
C3214 C 0.89747 0.85463 0.8411 0.0
Tb3215 Tb 0.80557 0.81996 0.8006 0.0
N3216 N 0.83985 0.83392 0.78609 0.0
C3217 C 0.88237 0.85695 0.77383 0.0
C3218 C 0.84116 0.83996 0.76285 0.0
C3219 C 0.86245 0.85099 0.75619 0.0
H3220 H 0.81472 0.81495 0.8615 0.0
H3221 H 0.8633 0.85558 0.73765 0.0
H3222 H 0.77052 0.76379 0.70753 0.0
H3223 H 0.72217 0.7105 0.82515 0.0
H3224 H 0.82577 0.83766 0.74975 0.0
H3225 H 0.89876 0.86591 0.76874 0.0
H3226 H 0.75895 0.73356 0.81548 0.0
H3227 H 0.84788 0.82524 0.89466 0.0
H3228 H 0.91674 0.86813 0.8128 0.0
H3229 H 0.91244 0.8603 0.85539 0.0
H3230 H 0.73814 0.75458 0.67367 0.0
H3231 H 0.88702 0.84413 0.88593 0.0
H3232 H 0.687 0.70069 0.79362 0.0
N3233 N 0.74957 0.75186 0.73502 0.0
C3234 C 0.72825 0.73974 0.73885 0.0
C3235 C 0.73502 0.75064 0.69201 0.0
C3236 C 0.70949 0.73273 0.71937 0.0
C3237 C 0.75332 0.75655 0.71167 0.0
C3238 C 0.71297 0.73882 0.69589 0.0
N3239 N 0.74418 0.73984 0.78038 0.0
C3240 C 0.74339 0.73102 0.80236 0.0
C3241 C 0.70436 0.7192 0.76643 0.0
C3242 C 0.72559 0.73321 0.76216 0.0
C3243 C 0.70294 0.71163 0.78967 0.0
C3244 C 0.72268 0.71727 0.80758 0.0
H3245 H 0.69898 0.73382 0.68047 0.0
H3246 H 0.67355 0.71371 0.70894 0.0
H3247 H 0.66913 0.70171 0.75008 0.0
O3248 O 0.78846 0.72923 0.78179 0.0
O3249 O 0.75064 0.77853 0.77785 0.0
O3250 O 0.76796 0.81088 0.80671 0.0
O3251 O 0.77459 0.72799 0.74325 0.0
O3252 O 0.79421 0.76291 0.80814 0.0
O3253 O 0.7881 0.79782 0.82562 0.0
O3254 O 0.80203 0.8519 0.78867 0.0
O3255 O 0.8311 0.79615 0.79446 0.0
O3256 O 0.81455 0.77026 0.75976 0.0
O3257 O 0.80944 0.84914 0.8275 0.0
O3258 O 0.78728 0.81627 0.7621 0.0
O3259 O 0.79435 0.78202 0.74437 0.0
C3260 C 0.74891 0.79639 0.79426 0.0
C3261 C 0.79896 0.70205 0.75291 0.0
C3262 C 0.81478 0.66865 0.76145 0.0
C3263 C 0.82346 0.66785 0.73862 0.0
C3264 C 0.80783 0.70172 0.73011 0.0
C3265 C 0.82018 0.68461 0.72307 0.0
C3266 C 0.80285 0.68577 0.7686 0.0
C3267 C 0.78936 0.77602 0.82716 0.0
C3268 C 0.78306 0.71679 0.75996 0.0
C3269 C 0.68811 0.71928 0.72371 0.0
C3270 C 0.68558 0.71247 0.74715 0.0
C3271 C 0.83348 0.78177 0.77485 0.0
C3272 C 0.78821 0.87729 0.81661 0.0
C3273 C 0.77002 0.90857 0.80523 0.0
C3274 C 0.75929 0.90855 0.82683 0.0
C3275 C 0.77737 0.87702 0.83826 0.0
C3276 C 0.78438 0.89306 0.80017 0.0
C3277 C 0.76294 0.89269 0.8433 0.0
C3278 C 0.79042 0.80291 0.74238 0.0
C3279 C 0.80476 0.86257 0.81124 0.0
H3280 H 0.83254 0.65427 0.73287 0.0
H3281 H 0.80474 0.71417 0.71759 0.0
H3282 H 0.82676 0.68403 0.70539 0.0
H3283 H 0.79564 0.68572 0.78603 0.0
H3284 H 0.74832 0.92086 0.83096 0.0
H3285 H 0.78023 0.86501 0.85137 0.0
H3286 H 0.7929 0.8936 0.78357 0.0
H3287 H 0.75479 0.89269 0.86007 0.0
Tb3288 Tb 0.57166 0.55134 0.5494 0.0
C3289 C 0.49211 0.47394 0.48514 0.0
N3290 N 0.50335 0.49614 0.48292 0.0
C3291 C 0.50369 0.48438 0.43951 0.0
C3292 C 0.4868 0.45604 0.46468 0.0
C3293 C 0.50784 0.5017 0.46004 0.0
C3294 C 0.49347 0.46136 0.44192 0.0
C3295 C 0.47011 0.44755 0.5096 0.0
C3296 C 0.48395 0.46963 0.50741 0.0
C3297 C 0.46557 0.42954 0.48956 0.0
C3298 C 0.47397 0.43374 0.46719 0.0
Tb3299 Tb 0.50871 0.52258 0.51841 0.0
N3300 N 0.48795 0.4876 0.52622 0.0
C3301 C 0.46026 0.44455 0.53144 0.0
C3302 C 0.47638 0.48533 0.54642 0.0
C3303 C 0.46304 0.46369 0.54974 0.0
H3304 H 0.51352 0.51953 0.45688 0.0
H3305 H 0.45431 0.462 0.56604 0.0
H3306 H 0.57706 0.56145 0.61138 0.0
H3307 H 0.61477 0.60212 0.4845 0.0
H3308 H 0.47645 0.50036 0.5596 0.0
H3309 H 0.44949 0.4279 0.5338 0.0
H3310 H 0.59457 0.5665 0.49907 0.0
H3311 H 0.50767 0.48896 0.42162 0.0
H3312 H 0.45507 0.41246 0.49096 0.0
H3313 H 0.46981 0.41982 0.45168 0.0
H3314 H 0.59429 0.59431 0.64432 0.0
H3315 H 0.48973 0.4481 0.4258 0.0
H3316 H 0.62761 0.6389 0.51362 0.0
N3317 N 0.58572 0.581 0.58187 0.0
C3318 C 0.59738 0.60157 0.57583 0.0
C3319 C 0.59489 0.59674 0.62509 0.0
C3320 C 0.60734 0.62088 0.59411 0.0
C3321 C 0.58495 0.57822 0.60629 0.0
C3322 C 0.60573 0.61831 0.61896 0.0
N3323 N 0.5924 0.58321 0.53474 0.0
C3324 C 0.59838 0.58259 0.51133 0.0
C3325 C 0.6136 0.62342 0.5444 0.0
C3326 C 0.60078 0.60275 0.55143 0.0
C3327 C 0.61789 0.62339 0.51979 0.0
C3328 C 0.61058 0.60272 0.50328 0.0
H3329 H 0.61343 0.63262 0.63358 0.0
H3330 H 0.62698 0.65687 0.60089 0.0
H3331 H 0.63217 0.65918 0.55722 0.0
O3332 O 0.60163 0.5416 0.53763 0.0
O3333 O 0.55554 0.5789 0.53362 0.0
O3334 O 0.51619 0.56212 0.52082 0.0
O3335 O 0.59596 0.54372 0.57655 0.0
O3336 O 0.565 0.53263 0.51091 0.0
O3337 O 0.53129 0.54125 0.49455 0.0
O3338 O 0.48083 0.53409 0.53268 0.0
O3339 O 0.53176 0.49683 0.52418 0.0
O3340 O 0.55772 0.51521 0.55826 0.0
O3341 O 0.47758 0.5181 0.49437 0.0
O3342 O 0.51486 0.52293 0.559 0.0
O3343 O 0.54497 0.55413 0.57469 0.0
C3344 C 0.53401 0.58079 0.52546 0.0
C3345 C 0.63161 0.5329 0.56705 0.0
C3346 C 0.66409 0.51777 0.55417 0.0
C3347 C 0.67236 0.5166 0.57891 0.0
C3348 C 0.63986 0.53198 0.59192 0.0
C3349 C 0.66028 0.52389 0.5978 0.0
C3350 C 0.64398 0.52608 0.54829 0.0
C3351 C 0.55248 0.53848 0.49209 0.0
C3352 C 0.60955 0.53967 0.56032 0.0
C3353 C 0.6194 0.6418 0.58713 0.0
C3354 C 0.62239 0.64311 0.56228 0.0
C3355 C 0.54706 0.49569 0.54351 0.0
C3356 C 0.45311 0.54393 0.50382 0.0
C3357 C 0.42131 0.56213 0.5126 0.0
C3358 C 0.42091 0.5707 0.4897 0.0
C3359 C 0.45315 0.55258 0.48088 0.0
C3360 C 0.43734 0.54894 0.5196 0.0
C3361 C 0.43699 0.566 0.47389 0.0
C3362 C 0.52612 0.53873 0.57752 0.0
C3363 C 0.46746 0.52785 0.51133 0.0
H3364 H 0.68814 0.51021 0.58353 0.0
H3365 H 0.63044 0.53725 0.60673 0.0
H3366 H 0.66663 0.5231 0.61692 0.0
H3367 H 0.63772 0.52664 0.52901 0.0
H3368 H 0.40821 0.58084 0.48413 0.0
H3369 H 0.46526 0.54869 0.46832 0.0
H3370 H 0.43711 0.54203 0.53721 0.0
H3371 H 0.43675 0.57251 0.45615 0.0
Tb3372 Tb 1.00811 0.53556 0.04836 0.0
C3373 C 0.09566 0.58053 0.9963 0.0
N3374 N 0.07826 0.56084 0.99031 0.0
C3375 C 0.07502 0.5673 0.94758 0.0
C3376 C 0.1029 0.5946 0.97807 0.0
C3377 C 0.06878 0.55357 0.96604 0.0
C3378 C 0.09199 0.588 0.95363 0.0
C3379 C 0.12483 0.60676 0.02733 0.0
C3380 C 0.10676 0.58652 0.02073 0.0
C3381 C 0.13187 0.62072 0.00917 0.0
C3382 C 0.12102 0.61462 0.98463 0.0
Tb3383 Tb 0.07213 0.53982 0.02273 0.0
N3384 N 0.09973 0.57265 0.03805 0.0
C3385 C 0.13548 0.61226 0.05198 0.0
C3386 C 0.11096 0.57726 0.06174 0.0
C3387 C 0.12862 0.59734 0.06922 0.0
H3388 H 0.05702 0.53681 0.96026 0.0
H3389 H 0.13731 0.60098 0.08813 0.0
H3390 H 0.02605 0.53561 0.11036 0.0
H3391 H 0.93832 0.47878 0.98578 0.0
H3392 H 0.10711 0.56502 0.07456 0.0
H3393 H 0.14937 0.62768 0.05776 0.0
H3394 H 0.97057 0.51352 0.99859 0.0
H3395 H 0.06716 0.56157 0.92852 0.0
H3396 H 0.14576 0.63628 0.01391 0.0
H3397 H 0.12674 0.62557 0.97083 0.0
H3398 H 0.02046 0.50772 0.13981 0.0
H3399 H 0.097 0.59841 0.93917 0.0
H3400 H 0.93079 0.44847 0.01364 0.0
N3401 N 1.00608 0.51188 0.07915 0.0
C3402 C 0.99009 0.49117 0.07248 0.0
C3403 C 0.01222 0.50263 0.1208 0.0
C3404 C 0.98521 0.47521 0.08969 0.0
C3405 C 0.01596 0.51826 0.10346 0.0
C3406 C 0.99704 0.4809 0.11383 0.0
N3407 N 0.98169 0.50233 0.03263 0.0
C3408 C 0.96769 0.50011 0.01052 0.0
C3409 C 0.95896 0.46647 0.04229 0.0
C3410 C 0.97709 0.4866 0.04888 0.0
C3411 C 0.94505 0.46359 0.01924 0.0
C3412 C 0.94926 0.48063 1.00342 0.0
H3413 H 0.99374 0.46911 0.12754 0.0
H3414 H 0.96397 0.44221 0.09574 0.0
H3415 H 0.94094 0.43467 0.05438 0.0
O3416 O 0.98013 0.5499 0.03351 0.0
O3417 O 0.01497 0.5025 0.02707 0.0
O3418 O 0.05513 0.50487 0.03207 0.0
O3419 O 0.98331 0.54268 0.07107 0.0
O3420 O 0.0197 0.54913 0.01571 0.0
O3421 O 0.04126 0.52762 0.99555 0.0
O3422 O 0.10489 0.53095 0.03511 0.0
O3423 O 0.06317 0.57516 0.03476 0.0
O3424 O 0.02899 0.57249 0.05429 0.0
O3425 O 0.08696 0.52076 0.99716 0.0
O3426 O 0.06056 0.52919 0.05651 0.0
O3427 O 0.03819 0.54986 0.07597 0.0
C3428 C 0.03334 0.4923 0.02663 0.0
C3429 C 0.96267 0.57215 0.06221 0.0
C3430 C 0.93279 0.59552 0.05773 0.0
C3431 C 0.94292 0.60923 0.08036 0.0
C3432 C 0.97268 0.58635 0.08467 0.0
C3433 C 0.96273 0.60467 0.0937 0.0
C3434 C 0.94264 0.57685 0.04871 0.0
C3435 C 0.02238 0.53604 0.99606 0.0
C3436 C 0.97127 0.55096 0.05416 0.0
C3437 C 0.96788 0.4546 0.08272 0.0
C3438 C 0.95472 0.45031 0.05917 0.0
C3439 C 0.04788 0.58497 0.04661 0.0
C3440 C 0.12442 0.51043 1.0042 0.0
C3441 C 0.15668 0.4901 0.01028 0.0
C3442 C 0.159 0.48984 0.98504 0.0
C3443 C 0.12735 0.51003 0.97905 0.0
C3444 C 0.1394 0.50061 0.02002 0.0
C3445 C 0.14451 0.49981 0.9696 0.0
C3446 C 0.05826 0.5439 0.07501 0.0
C3447 C 0.10507 0.52034 0.01298 0.0
H3448 H 0.93531 0.6234 0.0878 0.0
H3449 H 0.98788 0.58298 0.09557 0.0
H3450 H 0.97026 0.61523 0.11124 0.0
H3451 H 0.93456 0.56584 0.03153 0.0
H3452 H 0.17212 0.48179 0.97725 0.0
H3453 H 0.11622 0.51753 0.96653 0.0
H3454 H 0.13731 0.50064 0.03943 0.0
H3455 H 0.14647 0.49946 0.95016 0.0
C3456 C 0.04492 0.14367 0.00495 0.0
C3457 C 0.02464 0.15272 0.00878 0.0
C3458 C 0.04812 0.12137 0.01152 0.0
C3459 C 0.03106 0.10598 0.02188 0.0
H3460 H 0.05857 0.15376 0.99638 0.0
H3461 H 0.06414 0.11602 0.00799 0.0
S3462 S 0.97714 0.12214 0.04092 0.0
N3463 N 0.98896 0.14483 0.02784 0.0
N3464 N 0.99439 0.10331 0.03848 0.0
C3465 C 1.01122 0.11507 0.02668 0.0
C3466 C 1.00816 0.13801 0.02058 0.0
C3467 C 0.19029 0.78311 0.2223 0.0
C3468 C 0.19105 0.80033 0.20603 0.0
C3469 C 0.21041 0.78096 0.2381 0.0
C3470 C 0.23265 0.79572 0.23841 0.0
H3471 H 0.17385 0.77115 0.223 0.0
H3472 H 0.20849 0.7673 0.24996 0.0
S3473 S 0.24475 0.8437 0.19943 0.0
N3474 N 0.21655 0.83232 0.19134 0.0
N3475 N 0.25375 0.82865 0.22092 0.0
C3476 C 0.23362 0.81316 0.2224 0.0
C3477 C 0.21313 0.81535 0.20636 0.0
C3478 C 0.50648 0.92482 0.50919 0.0
C3479 C 0.52598 0.91382 0.50916 0.0
C3480 C 0.50893 0.94967 0.51475 0.0
C3481 C 0.53103 0.96535 0.52056 0.0
H3482 H 0.48895 0.9142 0.50429 0.0
H3483 H 0.49328 0.95666 0.51378 0.0
S3484 S 0.58801 0.94646 0.52622 0.0
N3485 N 0.56848 0.92163 0.51813 0.0
N3486 N 0.5729 0.96728 0.52759 0.0
C3487 C 0.55062 0.9546 0.52125 0.0
C3488 C 0.54817 0.92937 0.51586 0.0
C3489 C 0.46779 0.28726 0.71512 0.0
C3490 C 0.46638 0.29225 0.69044 0.0
C3491 C 0.44758 0.28139 0.72673 0.0
C3492 C 0.42512 0.28034 0.71418 0.0
H3493 H 0.48462 0.2871 0.72529 0.0
H3494 H 0.44945 0.27647 0.74522 0.0
S3495 S 0.41153 0.29236 0.64982 0.0
N3496 N 0.44037 0.29632 0.65423 0.0
N3497 N 0.40264 0.28538 0.67613 0.0
C3498 C 0.42349 0.28624 0.68998 0.0
C3499 C 0.44403 0.29223 0.67812 0.0
C3500 C 0.05484 0.8862 0.64 0.0
C3501 C 0.04063 0.8648 0.62813 0.0
C3502 C 0.06115 0.90533 0.6269 0.0
C3503 C 0.05356 0.90386 0.60137 0.0
H3504 H 0.06188 0.88784 0.65939 0.0
H3505 H 0.07307 0.92102 0.63653 0.0
S3506 S 0.01549 0.85213 0.56177 0.0
N3507 N 0.01843 0.84366 0.58953 0.0
N3508 N 0.03046 0.87951 0.56493 0.0
C3509 C 0.0385 0.88297 0.58954 0.0
C3510 C 0.03198 0.86349 0.60291 0.0
C3511 C 0.40031 0.79373 0.82835 0.0
C3512 C 0.41606 0.8041 0.81282 0.0
C3513 C 0.37553 0.79129 0.82323 0.0
C3514 C 0.36463 0.79905 0.80219 0.0
H3515 H 0.40721 0.78754 0.84494 0.0
H3516 H 0.36476 0.78324 0.83608 0.0
S3517 S 0.39703 0.82391 0.75319 0.0
N3518 N 0.418 0.82019 0.77399 0.0
N3519 N 0.37222 0.8152 0.76427 0.0
C3520 C 0.3801 0.80882 0.78615 0.0
C3521 C 0.40537 0.81144 0.79145 0.0
C3522 C 0.54606 0.1396 0.09556 0.0
C3523 C 0.5296 0.13848 0.11261 0.0
C3524 C 0.54803 0.11959 0.07956 0.0
C3525 C 0.53387 0.09715 0.07984 0.0
H3526 H 0.55754 0.15622 0.09442 0.0
H3527 H 0.56113 0.12176 0.06709 0.0
S3528 S 0.48829 0.08407 0.12125 0.0
N3529 N 0.49903 0.11248 0.12878 0.0
N3530 N 0.50269 0.07531 0.09907 0.0
C3531 C 0.51735 0.09576 0.0968 0.0
C3532 C 0.51521 0.11618 0.11296 0.0
C3533 C 0.19742 0.32373 0.31302 0.0
C3534 C 0.17773 0.30508 0.31292 0.0
C3535 C 0.21972 0.32014 0.30698 0.0
C3536 C 0.22433 0.29761 0.30007 0.0
H3537 H 0.1957 0.34163 0.31759 0.0
H3538 H 0.23356 0.3355 0.3076 0.0
S3539 S 0.18038 0.24213 0.29895 0.0
N3540 N 0.166 0.26255 0.30685 0.0
N3541 N 0.20672 0.25616 0.29514 0.0
C3542 C 0.205 0.2788 0.30017 0.0
C3543 C 0.18231 0.28239 0.30658 0.0
C3544 C 0.99747 0.05063 0.13639 0.0
C3545 C 0.99949 0.03099 0.14871 0.0
C3546 C 1.00557 0.05334 0.11318 0.0
C3547 C 0.01675 0.03691 0.10147 0.0
H3548 H 0.98912 0.06389 0.14453 0.0
H3549 H 1.00331 0.06858 0.10449 0.0
S3550 S 0.02695 0.98253 0.12544 0.0
N3551 N 0.01373 0.9948 0.14676 0.0
N3552 N 0.02942 1.00029 0.10406 0.0
C3553 C 0.01928 0.01746 0.11372 0.0
C3554 C 1.01053 0.01438 0.13696 0.0
C3555 C 0.25342 0.69254 0.43502 0.0
C3556 C 0.27208 0.70248 0.45387 0.0
C3557 C 0.24603 0.70587 0.41745 0.0
C3558 C 0.25719 0.72937 0.41826 0.0
H3559 H 0.24355 0.67484 0.43488 0.0
H3560 H 0.23088 0.69812 0.40383 0.0
S3561 S 0.30932 0.76217 0.46102 0.0
N3562 N 0.30333 0.73615 0.47053 0.0
N3563 N 0.28958 0.76121 0.43677 0.0
C3564 C 0.27715 0.73889 0.43549 0.0
C3565 C 0.28466 0.72534 0.45351 0.0
C3566 C 0.60586 0.06901 0.62757 0.0
C3567 C 0.60626 0.04943 0.64028 0.0
C3568 C 0.58986 0.0676 0.60652 0.0
C3569 C 0.57519 0.04617 0.59645 0.0
H3570 H 0.61831 0.08545 0.63343 0.0
H3571 H 0.58984 0.08301 0.59729 0.0
S3572 S 0.56594 0.99099 0.62407 0.0
N3573 N 0.58701 1.00913 0.64336 0.0
N3574 N 0.55938 1.00582 0.60134 0.0
C3575 C 0.57454 0.02671 0.60908 0.0
C3576 C 0.58969 0.02846 0.63151 0.0
C3577 C 0.31744 0.33396 0.89576 0.0
C3578 C 0.3001 0.32505 0.91027 0.0
C3579 C 0.31591 0.32572 0.87023 0.0
C3580 C 0.29708 0.30801 0.85781 0.0
H3581 H 0.33214 0.34786 0.90406 0.0
H3582 H 0.3294 0.33373 0.86004 0.0
S3583 S 0.24789 0.27729 0.8873 0.0
N3584 N 0.26405 0.29634 0.9101 0.0
N3585 N 0.26117 0.28115 0.86261 0.0
C3586 C 0.27984 0.29868 0.87216 0.0
C3587 C 0.28136 0.30706 0.89812 0.0
C3588 C 0.02703 0.03082 0.41973 0.0
C3589 C 1.00322 0.02857 0.41031 0.0
C3590 C 0.03451 0.03208 0.44551 0.0
C3591 C 0.01851 0.03125 0.46301 0.0
H3592 H 0.04004 0.03206 0.40713 0.0
H3593 H 0.05303 0.03436 0.45183 0.0
S3594 S 0.95397 0.02188 0.44752 0.0
N3595 N 0.96363 0.02322 0.42044 0.0
N3596 N 0.97744 0.02554 0.4683 0.0
C3597 C 0.99463 0.02807 0.45358 0.0
C3598 C 0.98708 0.02676 0.42748 0.0
C3599 C 0.26299 0.73568 0.68281 0.0
C3600 C 0.27922 0.72129 0.68021 0.0
C3601 C 0.26549 0.75206 0.70389 0.0
C3602 C 0.2843 0.75446 0.72278 0.0
H3603 H 0.24853 0.7345 0.66832 0.0
H3604 H 0.25257 0.76276 0.70551 0.0
S3605 S 0.33138 0.72061 0.72457 0.0
N3606 N 0.31404 0.70964 0.69844 0.0
N3607 N 0.31986 0.74165 0.7372 0.0
C3608 C 0.30076 0.74027 0.72022 0.0
C3609 C 0.29789 0.7233 0.69912 0.0
C3610 C 0.63973 0.07555 0.88527 0.0
C3611 C 0.62996 0.05634 0.86695 0.0
C3612 C 0.62659 0.08285 0.90303 0.0
C3613 C 0.60353 0.0709 0.90311 0.0
H3614 H 0.65699 0.08606 0.88464 0.0
H3615 H 0.634 0.09864 0.91587 0.0
S3616 S 0.57168 0.01691 0.86263 0.0
N3617 N 0.59714 0.0236 0.85215 0.0
N3618 N 0.57255 0.03712 0.88639 0.0
C3619 C 0.5944 0.05028 0.88673 0.0
C3620 C 0.60771 0.04292 0.86843 0.0
C3621 C 0.28515 0.33871 0.1872 0.0
C3622 C 0.29946 0.33052 0.17057 0.0
C3623 C 0.28302 0.33032 0.21033 0.0
C3624 C 0.29478 0.31302 0.21787 0.0
H3625 H 0.27575 0.35205 0.18248 0.0
H3626 H 0.27193 0.33736 0.22234 0.0
S3627 S 0.33397 0.28511 0.18119 0.0
N3628 N 0.32513 0.30351 0.16346 0.0
N3629 N 0.32141 0.28807 0.20649 0.0
C3630 C 0.30902 0.3046 0.20135 0.0
C3631 C 0.31128 0.31322 0.17794 0.0
C3632 C 0.19713 0.97981 0.02158 0.0
C3633 C 0.20734 0.99373 1.00473 0.0
C3634 C 0.18286 0.98829 0.03743 0.0
C3635 C 0.17829 0.01071 0.03651 0.0
H3636 H 0.20191 0.96323 0.02403 0.0
H3637 H 0.17632 0.9778 0.05128 0.0
S3638 S 0.19845 0.05238 0.99335 0.0
N3639 N 0.21048 0.02979 0.98643 0.0
N3640 N 0.18273 0.04558 0.01575 0.0
C3641 C 0.18668 0.02388 0.01825 0.0
C3642 C 0.20152 0.01539 1.00241 0.0
C3643 C 0.64785 0.58445 0.03511 0.0
C3644 C 0.65009 0.60314 0.02084 0.0
C3645 C 0.62577 0.57034 0.03675 0.0
C3646 C 0.60487 0.57424 0.02421 0.0
H3647 H 0.6633 0.58077 0.04521 0.0
H3648 H 0.62515 0.55667 0.04855 0.0
S3649 S 0.60121 0.62236 0.98596 0.0
N3650 N 0.6295 0.62565 0.9951 0.0
N3651 N 0.58829 0.59926 0.99771 0.0
C3652 C 0.60701 0.59311 0.01003 0.0
C3653 C 0.62947 0.60744 0.00843 0.0
C3654 C 0.73358 0.46432 0.27771 0.0
C3655 C 0.71375 0.46036 0.29014 0.0
C3656 C 0.74466 0.44611 0.27059 0.0
C3657 C 0.73633 0.42312 0.27547 0.0
H3658 H 0.73983 0.4814 0.27225 0.0
H3659 H 0.75875 0.44964 0.25944 0.0
S3660 S 0.68674 0.4039 0.30994 0.0
N3661 N 0.68765 0.43212 0.30918 0.0
N3662 N 0.70845 0.39779 0.29548 0.0
C3663 C 0.71774 0.41926 0.28962 0.0
C3664 C 0.70645 0.4379 0.29702 0.0
C3665 C 0.94145 0.53194 0.54269 0.0
C3666 C 0.92948 0.51125 0.52779 0.0
C3667 C 0.96557 0.53901 0.54355 0.0
C3668 C 0.97785 0.52511 0.53004 0.0
H3669 H 0.93206 0.54283 0.55314 0.0
H3670 H 0.97462 0.55544 0.55453 0.0
S3671 S 0.95407 0.46941 0.48857 0.0
N3672 N 0.9311 0.47696 0.49935 0.0
N3673 N 0.97685 0.49006 0.50153 0.0
C3674 C 0.96612 0.50412 0.51557 0.0
C3675 C 0.94165 0.49719 0.5143 0.0
C3676 C 0.30089 0.11 0.29794 0.0
C3677 C 0.3224 0.11568 0.31355 0.0
C3678 C 0.29469 0.12574 0.28253 0.0
C3679 C 0.30956 0.14763 0.28302 0.0
H3680 H 0.29045 0.09227 0.29523 0.0
H3681 H 0.27914 0.12018 0.26896 0.0
S3682 S 0.36493 0.17254 0.32467 0.0
N3683 N 0.35659 0.1457 0.33153 0.0
N3684 N 0.34434 0.17592 0.30313 0.0
C3685 C 0.32937 0.15473 0.30099 0.0
C3686 C 0.33585 0.13856 0.31641 0.0
C3687 C 0.3752 0.10266 0.52122 0.0
C3688 C 0.37564 0.12485 0.53416 0.0
C3689 C 0.39187 0.08963 0.52841 0.0
C3690 C 0.40944 0.09847 0.54867 0.0
H3691 H 0.36103 0.09467 0.50658 0.0
H3692 H 0.3901 0.07199 0.51914 0.0
S3693 S 0.42081 0.15726 0.5855 0.0
N3694 N 0.39719 0.15635 0.56576 0.0
N3695 N 0.42818 0.13175 0.57938 0.0
C3696 C 0.41123 0.12134 0.56032 0.0
C3697 C 0.39441 0.13458 0.55302 0.0
C3698 C 0.7419 0.683 0.2788 0.0
C3699 C 0.72876 0.67963 0.2987 0.0
C3700 C 0.75635 0.70491 0.27702 0.0
C3701 C 0.75803 0.7246 0.29484 0.0
H3702 H 0.74099 0.66856 0.26439 0.0
H3703 H 0.76569 0.70661 0.26112 0.0
S3704 S 0.72762 0.72545 0.35071 0.0
N3705 N 0.71881 0.69823 0.33675 0.0
N3706 N 0.74571 0.73905 0.33336 0.0
C3707 C 0.74525 0.72143 0.31494 0.0
C3708 C 0.73076 0.69911 0.3169 0.0
C3709 C 0.80214 0.38615 0.77292 0.0
C3710 C 0.81935 0.39898 0.79189 0.0
C3711 C 0.79472 0.36194 0.77222 0.0
C3712 C 0.8049 0.3503 0.79006 0.0
H3713 H 0.79404 0.39495 0.75907 0.0
H3714 H 0.78077 0.35237 0.75801 0.0
S3715 S 0.85143 0.37599 0.84242 0.0
N3716 N 0.8469 0.39844 0.82827 0.0
N3717 N 0.83323 0.35272 0.8265 0.0
C3718 C 0.82262 0.36281 0.80854 0.0
C3719 C 0.82983 0.38734 0.80956 0.0
C3720 C 0.03654 0.9279 0.05017 0.0
C3721 C 0.05792 0.92499 0.06309 0.0
C3722 C 0.03291 0.95004 0.04359 0.0
C3723 C 0.05002 0.97125 0.05002 0.0
H3724 H 0.02233 0.91275 0.04465 0.0
H3725 H 0.01628 0.95041 0.03354 0.0
S3726 S 0.1095 0.97444 0.08351 0.0
N3727 N 0.09682 0.94645 0.08156 0.0
N3728 N 0.08984 0.98711 0.06988 0.0
C3729 C 0.07148 0.96862 0.06288 0.0
C3730 C 0.07541 0.94603 0.06915 0.0
C3731 C 0.89278 0.28927 0.8429 0.0
C3732 C 0.89119 0.27599 0.86297 0.0
C3733 C 0.87275 0.2914 0.82702 0.0
C3734 C 0.84976 0.28036 0.83009 0.0
H3735 H 0.9098 0.29816 0.83928 0.0
H3736 H 0.87543 0.30222 0.81239 0.0
S3737 S 0.83522 0.24379 0.87993 0.0
N3738 N 0.86403 0.25213 0.88519 0.0
N3739 N 0.82694 0.25521 0.85508 0.0
C3740 C 0.84789 0.26679 0.84992 0.0
C3741 C 0.8683 0.26483 0.86627 0.0
C3742 C 0.57777 0.15332 0.55839 0.0
C3743 C 0.55838 0.1644 0.55941 0.0
C3744 C 0.57523 0.12846 0.55305 0.0
C3745 C 0.55311 0.11277 0.54821 0.0
H3746 H 0.59537 0.16394 0.56167 0.0
H3747 H 0.59088 0.12149 0.5532 0.0
S3748 S 0.49612 0.13155 0.54851 0.0
N3749 N 0.51582 0.15636 0.5555 0.0
N3750 N 0.51115 0.11088 0.54452 0.0
C3751 C 0.53355 0.12356 0.54891 0.0
C3752 C 0.53611 0.14878 0.55462 0.0
C3753 C 0.61316 0.78114 0.35291 0.0
C3754 C 0.61618 0.78462 0.37903 0.0
C3755 C 0.63228 0.78665 0.33958 0.0
C3756 C 0.65524 0.79537 0.35182 0.0
H3757 H 0.59571 0.77555 0.34269 0.0
H3758 H 0.62885 0.78566 0.31961 0.0
S3759 S 0.67304 0.8046 0.41979 0.0
N3760 N 0.64433 0.79513 0.41649 0.0
N3761 N 0.68007 0.80527 0.39146 0.0
C3762 C 0.65866 0.79727 0.37782 0.0
C3763 C 0.63922 0.79197 0.3914 0.0
C3764 C 0.03197 0.19232 0.42428 0.0
C3765 C 0.04196 0.21432 0.43822 0.0
C3766 C 0.02605 0.17211 0.43574 0.0
C3767 C 0.02984 0.17291 0.46167 0.0
H3768 H 0.02806 0.19081 0.40431 0.0
H3769 H 0.01746 0.15582 0.42424 0.0
S3770 S 0.0569 0.22575 0.50671 0.0
N3771 N 0.0566 0.2354 0.47947 0.0
N3772 N 0.04544 0.19732 0.50096 0.0
C3773 C 0.04101 0.19448 0.47583 0.0
C3774 C 0.04708 0.21518 0.46412 0.0
C3775 C 0.68202 0.27578 0.24058 0.0
C3776 C 0.667 0.27094 0.2587 0.0
C3777 C 0.70681 0.27852 0.24575 0.0
C3778 C 0.71819 0.27624 0.2693 0.0
H3779 H 0.67453 0.27761 0.22212 0.0
H3780 H 0.71716 0.28234 0.23095 0.0
S3781 S 0.68722 0.26419 0.32369 0.0
N3782 N 0.66583 0.26442 0.30152 0.0
N3783 N 0.71169 0.26927 0.31112 0.0
C3784 C 0.7033 0.27132 0.28756 0.0
C3785 C 0.67808 0.26879 0.28234 0.0
C3786 C 0.56959 0.95168 0.97234 0.0
C3787 C 0.55013 0.938 0.95608 0.0
C3788 C 0.56783 0.97165 0.9885 0.0
C3789 C 0.54668 0.97943 0.98901 0.0
H3790 H 0.58635 0.94661 0.97311 0.0
H3791 H 0.5831 0.98062 1.0012 0.0
S3792 S 0.48997 0.9499 0.95163 0.0
N3793 N 0.50849 0.93412 0.94237 0.0
N3794 N 0.50543 0.97087 0.97306 0.0
C3795 C 0.52696 0.96571 0.97349 0.0
C3796 C 0.52864 0.94539 0.95695 0.0
C3797 C 0.88444 0.76905 0.73795 0.0
C3798 C 0.90466 0.77279 0.75583 0.0
C3799 C 0.86198 0.77173 0.74422 0.0
C3800 C 0.85812 0.77897 0.76877 0.0
H3801 H 0.88588 0.76366 0.71874 0.0
H3802 H 0.84744 0.76829 0.72941 0.0
S3803 S 0.90504 0.79192 0.82295 0.0
N3804 N 0.91878 0.78442 0.79959 0.0
N3805 N 0.87756 0.79006 0.81107 0.0
C3806 C 0.87832 0.78316 0.78677 0.0
C3807 C 0.90108 0.77993 0.78045 0.0
C3808 C 0.07823 0.02523 0.93107 0.0
C3809 C 0.08065 0.04644 0.92046 0.0
C3810 C 0.06958 0.02283 0.95406 0.0
C3811 C 0.06218 0.04125 0.96745 0.0
H3812 H 0.08289 0.01008 0.92148 0.0
H3813 H 0.06826 1.00619 0.96118 0.0
S3814 S 0.06567 0.10088 0.94976 0.0
N3815 N 0.07613 0.08692 0.92722 0.0
N3816 N 0.05816 0.08153 0.96871 0.0
C3817 C 0.0641 0.06237 0.95713 0.0
C3818 C 0.0737 0.06517 0.93421 0.0
C3819 C 0.83001 0.38987 0.63439 0.0
C3820 C 0.81049 0.37995 0.61646 0.0
C3821 C 0.83779 0.37687 0.65211 0.0
C3822 C 0.82591 0.35387 0.65273 0.0
H3823 H 0.84024 0.40725 0.63369 0.0
H3824 H 0.85366 0.38448 0.66475 0.0
S3825 S 0.77132 0.3216 0.61356 0.0
N3826 N 0.77775 0.34686 0.60256 0.0
N3827 N 0.79193 0.3228 0.63703 0.0
C3828 C 0.80502 0.3446 0.63682 0.0
C3829 C 0.7973 0.35766 0.61839 0.0
C3830 C 0.49042 0.0135 0.43195 0.0
C3831 C 0.47435 0.02821 0.43057 0.0
C3832 C 0.50658 0.01564 0.45311 0.0
C3833 C 0.50737 0.03281 0.47329 0.0
H3834 H 0.4906 1.00035 0.41653 0.0
H3835 H 0.51845 1.00372 0.4537 0.0
S3836 S 0.46894 0.07577 0.47855 0.0
N3837 N 0.45942 0.05982 0.45131 0.0
N3838 N 0.49132 0.06549 0.49016 0.0
C3839 C 0.49171 0.04803 0.47185 0.0
C3840 C 0.47476 0.04529 0.4507 0.0
C3841 C 0.76688 0.76461 0.16765 0.0
C3842 C 0.78349 0.75277 0.15845 0.0
C3843 C 0.76802 0.77244 0.19323 0.0
C3844 C 0.78529 0.76813 0.2111 0.0
H3845 H 0.75292 0.76807 0.15493 0.0
H3846 H 0.75504 0.78172 0.19891 0.0
S3847 S 0.83378 0.73886 0.19688 0.0
N3848 N 0.8185 0.73809 0.16955 0.0
N3849 N 0.82026 0.75213 0.21711 0.0
C3850 C 0.80223 0.75664 0.20203 0.0
C3851 C 0.8014 0.74914 0.17599 0.0
C3852 C 0.08544 0.06694 0.6465 0.0
C3853 C 0.07848 0.04783 0.65967 0.0
C3854 C 0.07719 0.06633 0.6211 0.0
C3855 C 0.06149 0.0466 0.60738 0.0
H3856 H 0.09775 0.0825 0.65576 0.0
H3857 H 0.0834 0.08145 0.61213 0.0
S3858 S 0.03689 0.99205 0.63266 0.0
N3859 N 0.05393 1.00876 0.65657 0.0
N3860 N 0.03913 1.00742 0.60926 0.0
C3861 C 0.05435 0.02738 0.62024 0.0
C3862 C 0.06262 0.02804 0.64612 0.0
C3863 C 0.78282 0.36087 0.36809 0.0
C3864 C 0.79413 0.35783 0.39094 0.0
C3865 C 0.781 0.34428 0.34744 0.0
C3866 C 0.79118 0.32457 0.34882 0.0
H3867 H 0.77598 0.37647 0.36601 0.0
H3868 H 0.77226 0.34751 0.33015 0.0
S3869 S 0.82069 0.30816 0.40578 0.0
N3870 N 0.81271 0.33267 0.4151 0.0
N3871 N 0.81248 0.30305 0.37557 0.0
C3872 C 0.80209 0.32126 0.37193 0.0
C3873 C 0.80278 0.33754 0.39319 0.0
C3874 C 0.44219 1.00778 0.18276 0.0
C3875 C 0.45492 0.02136 0.20448 0.0
C3876 C 0.45375 0.99939 0.16399 0.0
C3877 C 0.47825 1.00443 0.16656 0.0
H3878 H 0.4233 1.00231 0.18108 0.0
H3879 H 0.44358 0.98783 0.14806 0.0
S3880 S 0.51925 0.04197 0.21807 0.0
N3881 N 0.49302 0.04158 0.22637 0.0
N3882 N 0.51485 0.02588 0.19061 0.0
C3883 C 0.4911 0.01963 0.18709 0.0
C3884 C 0.47934 0.02819 0.20624 0.0
C3885 C 0.804 0.75384 0.8895 0.0
C3886 C 0.78222 0.74885 0.89882 0.0
C3887 C 0.8062 0.76224 0.86637 0.0
C3888 C 0.78691 0.76687 0.85163 0.0
H3889 H 0.81972 0.75141 0.9002 0.0
H3890 H 0.82328 0.76557 0.8602 0.0
S3891 S 0.72594 0.75713 0.86621 0.0
N3892 N 0.74057 0.74836 0.88961 0.0
N3893 N 0.74549 0.76667 0.84822 0.0
C3894 C 0.76527 0.76281 0.86086 0.0
C3895 C 0.76272 0.75321 0.88379 0.0
C3896 C 0.8789 0.05979 0.05462 0.0
C3897 C 0.87672 0.08306 0.05989 0.0
C3898 C 0.89602 0.0544 0.04052 0.0
C3899 C 0.91077 0.07216 0.03088 0.0
H3900 H 0.866 0.04562 0.05935 0.0
H3901 H 0.89631 0.03614 0.03531 0.0
S3902 S 0.91306 0.13594 0.04192 0.0
N3903 N 0.89202 0.12407 0.05714 0.0
N3904 N 0.92332 0.11388 0.0294 0.0
C3905 C 0.90979 0.09558 0.03773 0.0
C3906 C 0.89299 0.10107 0.05271 0.0
C3907 C 0.45196 0.47551 0.06208 0.0
C3908 C 0.43168 0.47641 0.04621 0.0
C3909 C 0.47392 0.48976 0.06049 0.0
C3910 C 0.47671 0.50573 0.04303 0.0
H3911 H 0.45101 0.46325 0.07552 0.0
H3912 H 0.48892 0.48801 0.07295 0.0
S3913 S 0.42906 0.51566 0.99762 0.0
N3914 N 0.41579 0.49549 0.01306 0.0
N3915 N 0.45694 0.52157 0.00953 0.0
C3916 C 0.45652 0.50705 0.02724 0.0
C3917 C 0.43412 0.49259 0.02893 0.0
C3918 C 0.39098 0.64397 0.79279 0.0
C3919 C 0.37672 0.62307 0.78005 0.0
C3920 C 0.38164 0.66342 0.79971 0.0
C3921 C 0.35749 0.66277 0.79465 0.0
H3922 H 0.40945 0.645 0.79836 0.0
H3923 H 0.39329 0.67873 0.81043 0.0
S3924 S 0.3132 0.61352 0.75789 0.0
N3925 N 0.33779 0.60387 0.75945 0.0
N3926 N 0.31996 0.64037 0.77312 0.0
C3927 C 0.3433 0.64271 0.77996 0.0
C3928 C 0.35298 0.62285 0.77257 0.0
C3929 C 0.14262 0.54278 0.54227 0.0
C3930 C 0.15371 0.56622 0.54984 0.0
C3931 C 0.1183 0.5363 0.5389 0.0
C3932 C 0.10479 0.55325 0.5426 0.0
H3933 H 0.15278 0.52951 0.53915 0.0
H3934 H 0.11001 0.51797 0.53344 0.0
S3935 S 0.12633 0.61715 0.56177 0.0
N3936 N 0.15016 0.60651 0.56043 0.0
N3937 N 0.10418 0.59441 0.55396 0.0
C3938 C 0.11583 0.57687 0.54973 0.0
C3939 C 0.14049 0.58335 0.55343 0.0
C3940 C 0.74247 0.93754 0.75578 0.0
C3941 C 0.75644 0.96028 0.76051 0.0
C3942 C 0.74771 0.9202 0.76959 0.0
C3943 C 0.76701 0.9254 0.78822 0.0
H3944 H 0.72616 0.93387 0.74329 0.0
H3945 H 0.73585 0.90319 0.76684 0.0
S3946 S 0.81074 0.9812 0.80481 0.0
N3947 N 0.79161 0.98639 0.7828 0.0
N3948 N 0.80174 0.95347 0.8086 0.0
C3949 C 0.78236 0.9473 0.79135 0.0
C3950 C 0.77703 0.9649 0.77736 0.0
C3951 C 0.70854 0.97484 0.54628 0.0
C3952 C 0.70745 0.95179 0.53514 0.0
C3953 C 0.69122 0.98716 0.53917 0.0
C3954 C 0.6722 0.97672 0.52089 0.0
H3955 H 0.72365 0.98397 0.5593 0.0
H3956 H 0.69361 1.00546 0.54665 0.0
S3957 S 0.65906 0.91569 0.48923 0.0
N3958 N 0.684 0.91811 0.50741 0.0
N3959 N 0.6518 0.9414 0.49395 0.0
C3960 C 0.6699 0.95315 0.51122 0.0
C3961 C 0.68744 0.94065 0.51836 0.0
C3962 C 0.35451 0.37846 0.76011 0.0
C3963 C 0.35203 0.39909 0.77425 0.0
C3964 C 0.34046 0.35648 0.76188 0.0
C3965 C 0.32315 0.35392 0.77791 0.0
H3966 H 0.36784 0.37917 0.7479 0.0
H3967 H 0.34345 0.3413 0.75065 0.0
S3968 S 0.30886 0.40255 0.81848 0.0
N3969 N 0.33002 0.41562 0.80409 0.0
N3970 N 0.30442 0.37432 0.80826 0.0
C3971 C 0.3203 0.37444 0.79204 0.0
C3972 C 0.33452 0.39693 0.79004 0.0
C3973 C 0.26539 0.69111 0.29188 0.0
C3974 C 0.26669 0.67555 0.27108 0.0
C3975 C 0.27286 0.71512 0.29213 0.0
C3976 C 0.2818 0.72425 0.27176 0.0
H3977 H 0.25757 0.68481 0.30756 0.0
H3978 H 0.27126 0.72649 0.3082 0.0
S3979 S 0.28993 0.69034 0.21347 0.0
N3980 N 0.27887 0.67035 0.2303 0.0
N3981 N 0.29228 0.71583 0.23057 0.0
C3982 C 0.28407 0.70876 0.25127 0.0
C3983 C 0.27661 0.68427 0.251 0.0
C3984 C 0.54466 0.64486 0.50721 0.0
C3985 C 0.52257 0.65144 0.50617 0.0
C3986 C 0.54819 0.62262 0.51354 0.0
C3987 C 0.52991 0.60502 0.51917 0.0
H3988 H 0.55958 0.65689 0.50267 0.0
H3989 H 0.56553 0.61908 0.51356 0.0
S3990 S 0.46922 0.61326 0.52243 0.0
N3991 N 0.4825 0.63807 0.51401 0.0
N3992 N 0.48897 0.59695 0.52482 0.0
C3993 C 0.50789 0.61141 0.51867 0.0
C3994 C 0.50431 0.63416 0.51252 0.0
C3995 C 0.69186 0.30398 0.7312 0.0
C3996 C 0.69172 0.303 0.70532 0.0
C3997 C 0.71177 0.30182 0.74724 0.0
C3998 C 0.73293 0.29894 0.73854 0.0
H3999 H 0.67622 0.30601 0.73918 0.0
H4000 H 0.71046 0.30266 0.76672 0.0
S4001 S 0.74262 0.29733 0.67232 0.0
N4002 N 0.71518 0.30002 0.67185 0.0
N4003 N 0.75241 0.29674 0.7016 0.0
C4004 C 0.73321 0.29875 0.71265 0.0
C4005 C 0.71277 0.30049 0.69627 0.0
C4006 C 0.04458 0.42856 0.02374 0.0
C4007 C 0.02459 0.41391 0.00894 0.0
C4008 C 0.04707 0.45335 0.02936 0.0
C4009 C 0.02979 0.46538 0.02057 0.0
H4010 H 0.05853 0.42079 0.03136 0.0
H4011 H 0.06284 0.46322 0.0409 0.0
S4012 S 0.9756 0.43638 0.97795 0.0
N4013 N 0.98803 0.4144 0.98387 0.0
N4014 N 0.99292 0.46019 0.99388 0.0
C4015 C 1.01003 0.45105 0.00523 0.0
C4016 C 1.0074 0.42578 0.99962 0.0
C4017 C 0.94451 0.7751 0.17758 0.0
C4018 C 0.96479 0.79167 0.18854 0.0
C4019 C 0.9251 0.76943 0.19032 0.0
C4020 C 0.9251 0.77996 0.21469 0.0
H4021 H 0.94403 0.76562 0.15936 0.0
H4022 H 0.91064 0.75537 0.18173 0.0
S4023 S 0.97293 0.82588 0.25111 0.0
N4024 N 0.98285 0.81995 0.22459 0.0
N4025 N 0.9465 0.80894 0.24864 0.0
C4026 C 0.94457 0.79769 0.22527 0.0
C4027 C 0.96436 0.80362 0.21218 0.0
C4028 C 0.52666 0.3672 0.11158 0.0
C4029 C 0.54328 0.36545 0.13155 0.0
C4030 C 0.53087 0.38542 0.0968 0.0
C4031 C 0.55168 0.40279 0.10161 0.0
H4032 H 0.51088 0.35366 0.10644 0.0
H4033 H 0.51835 0.38519 0.08067 0.0
S4034 S 0.59939 0.4082 0.15342 0.0
N4035 N 0.5803 0.38437 0.15676 0.0
N4036 N 0.58817 0.4182 0.12882 0.0
C4037 C 0.56772 0.4021 0.12234 0.0
C4038 C 0.56353 0.38358 0.13735 0.0
C4039 C 0.90368 0.31224 0.29202 0.0
C4040 C 0.91503 0.30611 0.31386 0.0
C4041 C 0.87878 0.30971 0.28725 0.0
C4042 C 0.8635 0.301 0.30404 0.0
H4043 H 0.91409 0.31867 0.27812 0.0
H4044 H 0.87145 0.31429 0.26991 0.0
S4045 S 0.88391 0.2853 0.36554 0.0
N4046 N 0.90835 0.29285 0.35341 0.0
N4047 N 0.86257 0.28812 0.34462 0.0
C4048 C 0.87472 0.29554 0.32625 0.0
C4049 C 0.89998 0.29807 0.33106 0.0
C4050 C 0.01624 0.61818 0.61186 0.0
C4051 C 0.03035 0.64065 0.6116 0.0
C4052 C 0.01845 0.59811 0.59601 0.0
C4053 C 0.0347 0.5993 0.5787 0.0
H4054 H 1.00359 0.61593 0.62481 0.0
H4055 H 1.00724 0.58141 0.59741 0.0
S4056 S 0.07515 0.65408 0.56937 0.0
N4057 N 0.06067 0.66275 0.59153 0.0
N4058 N 0.06489 0.62557 0.56225 0.0
C4059 C 0.04864 0.62177 0.57797 0.0
C4060 C 0.04649 0.64215 0.59422 0.0
C4061 C 0.69939 0.81663 0.8287 0.0
C4062 C 0.67783 0.80622 0.81345 0.0
C4063 C 0.72171 0.81346 0.82245 0.0
C4064 C 0.72438 0.79965 0.80039 0.0
H4065 H 0.69911 0.82724 0.84606 0.0
H4066 H 0.73715 0.8219 0.83534 0.0
S4067 S 0.67437 0.77045 0.7521 0.0
N4068 N 0.66159 0.78255 0.77389 0.0
N4069 N 0.70266 0.77694 0.76236 0.0
C4070 C 0.70306 0.78952 0.78473 0.0
C4071 C 0.68029 0.79267 0.79113 0.0
C4072 C 0.49625 0.51364 0.63128 0.0
C4073 C 0.50204 0.53204 0.65128 0.0
C4074 C 0.50462 0.51589 0.60823 0.0
C4075 C 0.51848 0.53698 0.60312 0.0
H4076 H 0.48488 0.4972 0.63319 0.0
H4077 H 0.50032 0.5006 0.5944 0.0
S4078 S 0.54061 0.59019 0.64942 0.0
N4079 N 0.52536 0.57143 0.66492 0.0
N4080 N 0.5381 0.57662 0.62093 0.0
C4081 C 0.52467 0.55548 0.623 0.0
C4082 C 0.51711 0.55283 0.64698 0.0
C4083 C 0.77866 0.23004 0.95894 0.0
C4084 C 0.77751 0.20582 0.95533 0.0
C4085 C 0.76953 0.24107 0.94 0.0
C4086 C 0.7591 0.22806 0.91712 0.0
H4087 H 0.78499 0.2401 0.97705 0.0
H4088 H 0.76955 0.25958 0.94362 0.0
S4089 S 0.75359 0.16454 0.89818 0.0
N4090 N 0.76664 0.16941 0.92712 0.0
N4091 N 0.74974 0.19027 0.89113 0.0
C4092 C 0.75945 0.20417 0.91272 0.0
C4093 C 0.76863 0.19297 0.93203 0.0
C4094 C 0.10538 0.5338 0.12158 0.0
C4095 C 0.10895 0.55364 0.13944 0.0
C4096 C 0.08837 0.5305 0.10114 0.0
C4097 C 0.07464 0.54716 0.09766 0.0
H4098 H 0.11575 0.52062 0.12347 0.0
H4099 H 0.08617 0.51487 0.08787 0.0
S4100 S 0.07795 0.60267 0.13834 0.0
N4101 N 0.09775 0.59036 0.15235 0.0
N4102 N 0.06611 0.58457 0.11289 0.0
C4103 C 0.07821 0.56729 0.11508 0.0
C4104 C 0.09547 0.57055 0.13616 0.0
C4105 C 0.81985 0.82594 0.39988 0.0
C4106 C 0.7992 0.82481 0.41115 0.0
C4107 C 0.8192 0.81835 0.37435 0.0
C4108 C 0.79794 0.80928 0.35874 0.0
H4109 H 0.83676 0.8334 0.41069 0.0
H4110 H 0.83544 0.8205 0.36663 0.0
S4111 S 0.73884 0.80063 0.37843 0.0
N4112 N 0.75668 0.81215 0.40415 0.0
N4113 N 0.75573 0.79876 0.35649 0.0
C4114 C 0.77722 0.80773 0.36964 0.0
C4115 C 0.77778 0.81521 0.39565 0.0
C4116 C 0.49509 0.54158 0.92776 0.0
C4117 C 0.50396 0.52856 0.90929 0.0
C4118 C 0.50284 0.54237 0.95324 0.0
C4119 C 0.5201 0.53034 0.9619 0.0
H4120 H 0.48166 0.55102 0.92253 0.0
H4121 H 0.49505 0.55264 0.96626 0.0
S4122 S 0.55092 0.49563 0.92108 0.0
N4123 N 0.5321 0.50441 0.90154 0.0
N4124 N 0.54699 0.50634 0.94907 0.0
C4125 C 0.5296 0.51777 0.94355 0.0
C4126 C 0.52146 0.51674 0.9175 0.0
C4127 C 0.77077 0.23699 0.18118 0.0
C4128 C 0.78481 0.22037 0.17945 0.0
C4129 C 0.77353 0.25299 0.20253 0.0
C4130 C 0.79063 0.253 0.22261 0.0
H4131 H 0.75756 0.2376 0.16596 0.0
H4132 H 0.76175 0.26498 0.20348 0.0
S4133 S 0.83142 0.21241 0.22708 0.0
N4134 N 0.81563 0.20399 0.1996 0.0
N4135 N 0.82195 0.2351 0.23929 0.0
C4136 C 0.80501 0.23661 0.22089 0.0
C4137 C 0.80181 0.22 0.19939 0.0
C4138 C 0.09847 0.56161 0.35691 0.0
C4139 C 0.11736 0.55023 0.35852 0.0
C4140 C 0.09196 0.57234 0.3782 0.0
C4141 C 0.10386 0.57148 0.40154 0.0
H4142 H 0.09024 0.56414 0.339 0.0
H4143 H 0.07847 0.58244 0.37635 0.0
S4144 S 0.15116 0.53998 0.41591 0.0
N4145 N 0.1457 0.53603 0.38534 0.0
N4146 N 0.1326 0.55551 0.42566 0.0
C4147 C 0.1208 0.55785 0.40363 0.0
C4148 C 0.12771 0.54721 0.38193 0.0
C4149 C 0.81073 0.81506 0.67977 0.0
C4150 C 0.79667 0.83005 0.67081 0.0
C4151 C 0.80822 0.80611 0.70249 0.0
C4152 C 0.79192 0.81212 0.71781 0.0
H4153 H 0.8237 0.80996 0.66898 0.0
H4154 H 0.81955 0.79472 0.70838 0.0
S4155 S 0.75061 0.85042 0.70334 0.0
N4156 N 0.76543 0.85011 0.67943 0.0
N4157 N 0.76121 0.83371 0.72206 0.0
C4158 C 0.77778 0.82704 0.70919 0.0
C4159 C 0.77998 0.83582 0.6858 0.0
C4160 C 0.70461 0.52115 0.5061 0.0
C4161 C 0.70703 0.49782 0.5019 0.0
C4162 C 0.68931 0.52737 0.52206 0.0
C4163 C 0.67649 0.5104 0.53425 0.0
H4164 H 0.71622 0.53486 0.49901 0.0
H4165 H 0.68882 0.5457 0.52634 0.0
S4166 S 0.67409 0.44667 0.52645 0.0
N4167 N 0.6934 0.45738 0.50866 0.0
N4168 N 0.66451 0.46929 0.5388 0.0
C4169 C 0.67703 0.4868 0.52835 0.0
C4170 C 0.69233 0.48041 0.51193 0.0
C4171 C 0.13887 0.08458 0.50609 0.0
C4172 C 0.1519 0.10087 0.52619 0.0
C4173 C 0.11691 0.07037 0.50807 0.0
C4174 C 0.10733 0.0711 0.53048 0.0
H4175 H 0.14555 0.08277 0.48851 0.0
H4176 H 0.10728 0.0588 0.49188 0.0
S4177 S 0.13368 0.1093 0.58907 0.0
N4178 N 0.15211 0.11691 0.56931 0.0
N4179 N 0.11283 0.08803 0.57348 0.0
C4180 C 0.12036 0.08631 0.55094 0.0
C4181 C 0.14209 0.10167 0.54872 0.0
C4182 C 0.23158 0.9576 0.7902 0.0
C4183 C 0.20737 0.95549 0.7907 0.0
C4184 C 0.24081 0.93795 0.78281 0.0
C4185 C 0.22599 0.91573 0.77538 0.0
H4186 H 0.24325 0.97471 0.79437 0.0
H4187 H 0.25931 0.94047 0.78125 0.0
S4188 S 0.16166 0.90092 0.77473 0.0
N4189 N 0.1691 0.92936 0.78441 0.0
N4190 N 0.1863 0.8926 0.77052 0.0
C4191 C 0.202 0.91331 0.77717 0.0
C4192 C 0.1927 0.93316 0.78477 0.0
C4193 C 0.44442 0.9955 0.02655 0.0
C4194 C 0.43056 0.01205 0.03039 0.0
C4195 C 0.46842 1.00272 0.02673 0.0
C4196 C 0.47897 0.02667 0.03054 0.0
H4197 H 0.4365 0.97695 0.02265 0.0
H4198 H 0.47855 0.98955 0.02283 0.0
S4199 S 0.45023 0.07648 0.04343 0.0
N4200 N 0.42873 0.05296 0.03944 0.0
N4201 N 0.47431 0.06678 0.03986 0.0
C4202 C 0.46537 0.04332 0.0352 0.0
C4203 C 0.44092 0.03592 0.03505 0.0
C4204 C 0.83777 0.63835 0.81247 0.0
C4205 C 0.82399 0.6156 0.80619 0.0
C4206 C 0.83413 0.65594 0.79826 0.0
C4207 C 0.81677 0.65093 0.7776 0.0
H4208 H 0.85292 0.64188 0.82658 0.0
H4209 H 0.8458 0.67305 0.80247 0.0
S4210 S 0.77319 0.59557 0.75707 0.0
N4211 N 0.79011 0.59 0.78084 0.0
N4212 N 0.78329 0.6233 0.754 0.0
C4213 C 0.80126 0.62911 0.77293 0.0
C4214 C 0.80477 0.61134 0.7875 0.0
C4215 C 0.89363 0.63048 0.02628 0.0
C4216 C 0.87119 0.61897 0.03009 0.0
C4217 C 0.91351 0.62171 0.03356 0.0
C4218 C 0.91158 0.60094 0.04447 0.0
H4219 H 0.89602 0.64718 0.01918 0.0
H4220 H 0.93065 0.6319 0.0319 0.0
S4221 S 0.85658 0.56261 0.05541 0.0
N4222 N 0.848 0.58457 0.04329 0.0
N4223 N 0.88538 0.56798 0.05664 0.0
C4224 C 0.88914 0.58837 0.04667 0.0
C4225 C 0.86893 0.59742 0.03957 0.0
C4226 C 0.24908 0.18 0.78409 0.0
C4227 C 0.23014 0.17753 0.79805 0.0
C4228 C 0.2632 0.20226 0.78271 0.0
C4229 C 0.25883 0.223 0.79505 0.0
H4230 H 0.25292 0.16461 0.77405 0.0
H4231 H 0.27713 0.20322 0.77125 0.0
S4232 S 0.21027 0.22588 0.83298 0.0
N4233 N 0.20728 0.19768 0.8236 0.0
N4234 N 0.2334 0.23905 0.82152 0.0
C4235 C 0.23982 0.22052 0.80911 0.0
C4236 C 0.22563 0.19798 0.81046 0.0
C4237 C 0.29693 0.88919 0.2819 0.0
C4238 C 0.31799 0.90083 0.29642 0.0
C4239 C 0.28965 0.86495 0.28058 0.0
C4240 C 0.30368 0.85212 0.29319 0.0
H4241 H 0.28608 0.89889 0.2718 0.0
H4242 H 0.27319 0.85617 0.26951 0.0
S4243 S 0.36008 0.87486 0.3338 0.0
N4244 N 0.35255 0.89823 0.32389 0.0
N4245 N 0.33903 0.8524 0.3209 0.0
C4246 C 0.32479 0.86358 0.30765 0.0
C4247 C 0.33195 0.88815 0.30937 0.0
C4248 C 0.56956 0.44734 0.5783 0.0
C4249 C 0.55873 0.42559 0.56372 0.0
C4250 C 0.56574 0.46944 0.57182 0.0
C4251 C 0.55116 0.47151 0.55001 0.0
H4252 H 0.58091 0.44733 0.59526 0.0
H4253 H 0.57442 0.48515 0.5842 0.0
S4254 S 0.52119 0.42031 0.50337 0.0
N4255 N 0.53391 0.40818 0.52536 0.0
N4256 N 0.52778 0.44881 0.5127 0.0
C4257 C 0.54097 0.44986 0.53486 0.0
C4258 C 0.54445 0.42738 0.54177 0.0
C4259 C 0.37008 0.76184 0.35919 0.0
C4260 C 0.39197 0.77768 0.36097 0.0
C4261 C 0.35012 0.76373 0.34293 0.0
C4262 C 0.35086 0.78141 0.32724 0.0
H4263 H 0.36818 0.74801 0.37083 0.0
H4264 H 0.33388 0.75115 0.34271 0.0
S4265 S 0.40384 0.8272 0.32394 0.0
N4266 N 0.41294 0.81139 0.34459 0.0
N4267 N 0.37589 0.8153 0.31504 0.0
C4268 C 0.37268 0.79729 0.32877 0.0
C4269 C 0.39295 0.79535 0.34528 0.0
C4270 C 0.04448 0.64757 0.07669 0.0
C4271 C 0.05661 0.66334 0.06231 0.0
C4272 C 0.04215 0.62277 0.07173 0.0
C4273 C 0.05164 0.61194 0.05193 0.0
H4274 H 0.03683 0.65449 0.09221 0.0
H4275 H 0.03273 0.61195 0.08371 0.0
S4276 S 0.08163 0.64481 0.00602 0.0
N4277 N 0.07646 0.6657 0.02596 0.0
N4278 N 0.0714 0.61981 0.01617 0.0
C4279 C 0.06315 0.62754 0.03696 0.0
C4280 C 0.06578 0.65282 0.04223 0.0
C4281 C 0.13715 0.28544 0.88478 0.0
C4282 C 0.11432 0.28679 0.87503 0.0
C4283 C 0.15638 0.29179 0.87168 0.0
C4284 C 0.15338 0.29951 0.84828 0.0
H4285 H 0.14036 0.28069 0.90321 0.0
H4286 H 0.17384 0.29219 0.88063 0.0
S4287 S 0.09688 0.30392 0.81376 0.0
N4288 N 0.0897 0.29476 0.8399 0.0
N4289 N 0.1255 0.30642 0.81533 0.0
C4290 C 0.13042 0.29946 0.83781 0.0
C4291 C 0.111 0.29321 0.85116 0.0
C4292 C 0.53146 0.69106 0.92804 0.0
C4293 C 0.54441 0.71301 0.94002 0.0
C4294 C 0.52568 0.67189 0.94117 0.0
C4295 C 0.5327 0.67375 0.96685 0.0
H4296 H 0.52487 0.68892 0.90849 0.0
H4297 H 0.51424 0.65594 0.93148 0.0
S4298 S 0.56814 0.72657 0.00691 0.0
N4299 N 0.56522 0.73487 0.97908 0.0
N4300 N 0.55435 0.69879 1.00354 0.0
C4301 C 0.54686 0.69504 0.97879 0.0
C4302 C 0.55275 0.71465 0.96546 0.0
C4303 C 0.18034 0.79134 0.77349 0.0
C4304 C 0.16599 0.77251 0.75663 0.0
C4305 C 0.20521 0.79436 0.77836 0.0
C4306 C 0.21751 0.77867 0.76695 0.0
H4307 H 0.17232 0.80397 0.7833 0.0
H4308 H 0.21494 0.8092 0.79141 0.0
S4309 S 0.1898 0.72795 0.71931 0.0
N4310 N 0.16743 0.73886 0.72711 0.0
N4311 N 0.2133 0.74453 0.73655 0.0
C4312 C 0.20364 0.76 0.74993 0.0
C4313 C 0.17833 0.75694 0.74477 0.0
C4314 C 0.06475 0.46164 0.45526 0.0
C4315 C 0.05245 0.43872 0.45709 0.0
C4316 C 0.06252 0.48158 0.4713 0.0
C4317 C 0.04791 0.47982 0.4902 0.0
H4318 H 0.07592 0.46433 0.44094 0.0
H4319 H 0.07229 0.49862 0.4687 0.0
S4320 S 0.01239 0.42382 0.50373 0.0
N4321 N 0.02592 0.41564 0.48053 0.0
N4322 N 0.02078 0.45261 0.50935 0.0
C4323 C 0.03564 0.45695 0.49229 0.0
C4324 C 0.03811 0.43667 0.47617 0.0
C4325 C 0.38593 0.25411 0.25174 0.0
C4326 C 0.40676 0.27188 0.25524 0.0
C4327 C 0.36393 0.25836 0.25816 0.0
C4328 C 0.36107 0.28054 0.26925 0.0
H4329 H 0.38641 0.23667 0.24339 0.0
H4330 H 0.3489 0.24383 0.25444 0.0
S4331 S 0.41029 0.33289 0.28419 0.0
N4332 N 0.42268 0.31256 0.27165 0.0
N4333 N 0.38257 0.32018 0.28395 0.0
C4334 C 0.38199 0.29817 0.2734 0.0
C4335 C 0.40422 0.29398 0.26641 0.0
C4336 C 0.58901 0.53261 0.43787 0.0
C4337 C 0.58023 0.54588 0.42037 0.0
C4338 C 0.57998 0.53013 0.46065 0.0
C4339 C 0.56158 0.54071 0.46728 0.0
H4340 H 0.60336 0.5243 0.43418 0.0
H4341 H 0.58764 0.51989 0.47328 0.0
S4342 S 0.53148 0.57669 0.42817 0.0
N4343 N 0.55103 0.56895 0.4114 0.0
N4344 N 0.53489 0.56506 0.45406 0.0
C4345 C 0.55253 0.55391 0.44995 0.0
C4346 C 0.56161 0.55632 0.42671 0.0
C4347 C 0.31446 0.8472 0.10443 0.0
C4348 C 0.30405 0.86653 0.1085 0.0
C4349 C 0.3233 0.83713 0.12433 0.0
C4350 C 0.3223 0.84636 0.14887 0.0
H4351 H 0.31732 0.84098 0.0859 0.0
H4352 H 0.33234 0.82304 0.12057 0.0
S4353 S 0.294 0.89519 0.16865 0.0
N4354 N 0.29076 0.89298 0.1381 0.0
N4355 N 0.30781 0.87447 0.17589 0.0
C4356 C 0.31002 0.86442 0.15297 0.0
C4357 C 0.30082 0.87448 0.13261 0.0
C4358 C 0.9897 0.51359 0.93226 0.0
C4359 C 0.97335 0.52797 0.93019 0.0
C4360 C 1.00575 0.51644 0.95366 0.0
C4361 C 1.00611 0.53398 0.97336 0.0
H4362 H 0.99019 0.5002 0.9172 0.0
H4363 H 0.01782 0.50474 0.95482 0.0
S4364 S 0.96673 0.57611 0.97679 0.0
N4365 N 0.95761 0.5595 0.94988 0.0
N4366 N 0.98934 0.56655 0.98902 0.0
C4367 C 0.99011 0.54877 0.97123 0.0
C4368 C 0.97329 0.54531 0.9499 0.0
C4369 C 0.29232 0.23847 0.67825 0.0
C4370 C 0.28309 0.25036 0.6598 0.0
C4371 C 0.29285 0.24598 0.70379 0.0
C4372 C 0.28445 0.26598 0.71229 0.0
H4373 H 0.29888 0.22295 0.6729 0.0
H4374 H 0.2999 0.23586 0.71697 0.0
S4375 S 0.26151 0.30516 0.67137 0.0
N4376 N 0.26685 0.28404 0.65185 0.0
N4377 N 0.26878 0.29875 0.69939 0.0
C4378 C 0.27595 0.27847 0.6939 0.0
C4379 C 0.27503 0.27053 0.6679 0.0
C4380 C 0.59444 0.54981 0.14341 0.0
C4381 C 0.57883 0.54975 0.16116 0.0
C4382 C 0.58677 0.54885 0.11786 0.0
C4383 C 0.56321 0.54834 0.10884 0.0
H4384 H 0.61276 0.5504 0.14932 0.0
H4385 H 0.59955 0.54874 0.10507 0.0
S4386 S 0.51527 0.54815 0.14764 0.0
N4387 N 0.5386 0.54898 0.1678 0.0
N4388 N 0.52434 0.54786 0.12015 0.0
C4389 C 0.54748 0.54856 0.12648 0.0
C4390 C 0.55522 0.54905 0.15245 0.0
C4391 C 0.32167 0.84891 0.8813 0.0
C4392 C 0.30144 0.85268 0.8913 0.0
C4393 C 0.32001 0.83299 0.86012 0.0
C4394 C 0.29808 0.82166 0.84743 0.0
H4395 H 0.33892 0.85868 0.8895 0.0
H4396 H 0.33588 0.8306 0.85277 0.0
S4397 S 0.24017 0.82205 0.86746 0.0
N4398 N 0.25899 0.8405 0.88882 0.0
N4399 N 0.25597 0.81255 0.84706 0.0
C4400 C 0.27777 0.82443 0.85738 0.0
C4401 C 0.27943 0.83966 0.87972 0.0
C4402 C 0.9453 0.50822 0.6836 0.0
C4403 C 0.95673 0.52208 0.70573 0.0
C4404 C 0.95815 0.50081 0.66555 0.0
C4405 C 0.98266 0.50694 0.6694 0.0
H4406 H 0.92647 0.50192 0.68096 0.0
H4407 H 0.94899 0.48915 0.6492 0.0
S4408 S 0.02043 0.54573 0.72236 0.0
N4409 N 0.99354 0.54385 0.72928 0.0
N4410 N 0.01781 0.52976 0.69503 0.0
C4411 C 0.99417 0.52228 0.69043 0.0
C4412 C 0.9811 0.52999 0.70874 0.0
C4413 C 0.30422 0.25969 0.39294 0.0
C4414 C 0.2822 0.24881 0.39907 0.0
C4415 C 0.30673 0.26806 0.36983 0.0
C4416 C 0.28732 0.26672 0.35173 0.0
H4417 H 0.31984 0.26189 0.40617 0.0
H4418 H 0.32413 0.27571 0.36616 0.0
S4419 S 0.22579 0.2398 0.35731 0.0
N4420 N 0.24063 0.23622 0.38349 0.0
N4421 N 0.24523 0.25407 0.34176 0.0
C4422 C 0.26523 0.25635 0.35761 0.0
C4423 C 0.26269 0.24701 0.38074 0.0
C4424 C 0.3929 0.59133 0.56128 0.0
C4425 C 0.37101 0.57593 0.55896 0.0
C4426 C 0.40958 0.58643 0.5465 0.0
C4427 C 0.40459 0.56606 0.5293 0.0
H4428 H 0.39614 0.60828 0.57257 0.0
H4429 H 0.42588 0.59912 0.54759 0.0
S4430 S 0.3515 0.51854 0.51959 0.0
N4431 N 0.34625 0.53845 0.54071 0.0
N4432 N 0.37813 0.52885 0.51321 0.0
C4433 C 0.38382 0.54944 0.52869 0.0
C4434 C 0.36685 0.55445 0.54365 0.0
C4435 C 0.95054 0.97694 0.56116 0.0
C4436 C 0.92972 0.97911 0.54723 0.0
C4437 C 0.97222 0.99137 0.55921 0.0
C4438 C 0.97437 1.00879 0.54316 0.0
H4439 H 0.95025 0.96347 0.57321 0.0
H4440 H 0.98759 0.98842 0.57018 0.0
S4441 S 0.92482 0.02279 0.50381 0.0
N4442 N 0.91234 1.0012 0.51803 0.0
N4443 N 0.95315 0.02759 0.51358 0.0
C4444 C 0.95357 0.01154 0.52955 0.0
C4445 C 0.93134 0.99689 0.53171 0.0
C4446 C 0.85095 0.11721 0.2775 0.0
C4447 C 0.87556 0.12167 0.27956 0.0
C4448 C 0.83926 0.13515 0.28422 0.0
C4449 C 0.85176 0.15817 0.29278 0.0
H4450 H 0.84081 0.09946 0.27235 0.0
H4451 H 0.82053 0.13062 0.28456 0.0
S4452 S 0.91596 0.17956 0.29806 0.0
N4453 N 0.91174 0.15125 0.28818 0.0
N4454 N 0.88972 0.18488 0.3006 0.0
C4455 C 0.87613 0.16317 0.29295 0.0
C4456 C 0.88804 0.14493 0.28641 0.0
C4457 C 0.64004 0.07701 0.06145 0.0
C4458 C 0.65284 0.06552 0.04585 0.0
C4459 C 0.61589 0.06983 0.0593 0.0
C4460 C 0.60416 0.05107 0.04153 0.0
H4461 H 0.64874 0.09177 0.07517 0.0
H4462 H 0.60638 0.0787 0.0718 0.0
S4463 S 0.62946 0.01633 0.99556 0.0
N4464 N 0.65218 0.03509 0.01177 0.0
N4465 N 0.60624 0.02197 0.00742 0.0
C4466 C 0.61656 0.03976 0.02558 0.0
C4467 C 0.64117 0.04696 0.02778 0.0
C4468 C 0.27483 0.46245 0.2745 0.0
C4469 C 0.2543 0.45848 0.25753 0.0
C4470 C 0.27908 0.44525 0.28895 0.0
C4471 C 0.26289 0.42386 0.28655 0.0
H4472 H 0.28615 0.47976 0.2786 0.0
H4473 H 0.29417 0.44923 0.30317 0.0
S4474 S 0.20899 0.40372 0.2417 0.0
N4475 N 0.21947 0.43083 0.23672 0.0
N4476 N 0.22777 0.39812 0.2638 0.0
C4477 C 0.24378 0.41875 0.26781 0.0
C4478 C 0.23949 0.43621 0.25308 0.0
C4479 C 0.18717 0.44263 0.02778 0.0
C4480 C 0.20935 0.4554 0.03919 0.0
C4481 C 0.16907 0.45399 0.02094 0.0
C4482 C 0.1724 0.47853 0.02527 0.0
H4483 H 0.18413 0.42379 0.02304 0.0
H4484 H 0.15286 0.44363 0.0106 0.0
S4485 S 0.22628 0.51995 0.05646 0.0
N4486 N 0.23297 0.49391 0.05618 0.0
N4487 N 0.19882 0.51515 0.04321 0.0
C4488 C 0.19385 0.49139 0.0382 0.0
C4489 C 0.21236 0.47984 0.04521 0.0
C4490 C 0.84645 0.88035 0.25353 0.0
C4491 C 0.85407 0.89773 0.27436 0.0
C4492 C 0.83233 0.85833 0.2553 0.0
C4493 C 0.82469 0.85285 0.27782 0.0
H4494 H 0.8514 0.88375 0.2356 0.0
H4495 H 0.82726 0.84548 0.23885 0.0
S4496 S 0.84097 0.89074 0.3384 0.0
N4497 N 0.85406 0.90666 0.31886 0.0
N4498 N 0.82649 0.86602 0.3216 0.0
C4499 C 0.8319 0.86995 0.29873 0.0
C4500 C 0.84681 0.89213 0.29715 0.0
C4501 C 0.74708 0.1943 0.77729 0.0
C4502 C 0.76293 0.17937 0.77781 0.0
C4503 C 0.75523 0.21848 0.7799 0.0
C4504 C 0.77934 0.228 0.7829 0.0
H4505 H 0.72838 0.18716 0.77399 0.0
H4506 H 0.74264 0.22955 0.77777 0.0
S4507 S 0.82753 0.19591 0.78749 0.0
N4508 N 0.80332 0.17527 0.78315 0.0
N4509 N 0.81892 0.22103 0.78822 0.0
C4510 C 0.79528 0.2132 0.78496 0.0
C4511 C 0.78697 0.18866 0.78228 0.0
loop_
_geom_bond_atom_site_label_1
_geom_bond_atom_site_label_2
_geom_bond_distance
_geom_bond_site_symmetry_2
_ccdc_geom_bond_type
Li0 N17 1.990 1_455 S
Li0 O60 1.956 . S
Li0 O61 1.970 . S
Li0 O62 1.961 . S
Li1 N25 1.990 . S
Li1 O60 1.970 . S
Li1 O61 1.956 . S
Li1 O63 1.961 . S
Li2 N47 1.990 . S
Li2 O60 1.961 . S
Li2 O62 1.956 . S
Li2 O63 1.970 . S
Li3 N53 1.990 . S
Li3 O61 1.961 . S
Li3 O62 1.970 . S
Li3 O63 1.956 . S
C4 C6 1.348 . S
C4 C7 1.356 . S
C4 O60 1.325 . S
N5 C8 1.314 . S
N5 C9 1.279 . S
C6 C4 1.348 . S
C6 C8 1.353 . S
C6 H64 0.929 . S
C7 C4 1.356 . S
C7 C9 1.358 . S
C7 H65 0.930 . S
C8 N5 1.314 . S
C8 C6 1.353 . S
C8 H66 0.930 . S
C9 N5 1.279 . S
C9 C7 1.358 . S
C9 H67 0.930 . S
C10 C13 1.367 . S
C10 C14 1.356 1_655 S
C10 O61 1.307 1_655 S
C11 N12 1.279 . S
C11 C14 1.358 1_655 S
C11 H68 0.930 . S
N12 C11 1.279 . S
N12 C15 1.314 . S
C13 C10 1.367 . S
C13 C15 1.353 . S
C13 H69 0.929 . S
C14 C10 1.356 1_455 S
C14 C11 1.358 1_455 S
C14 H70 0.930 . S
C15 N12 1.314 . S
C15 C13 1.353 . S
C15 H71 0.930 . S
C16 N17 1.314 . S
C16 C21 1.353 . S
C16 H22 0.930 . S
N17 Li0 1.990 1_655 S
N17 C16 1.314 . S
N17 C19 1.279 . S
C18 C19 1.358 . S
C18 C20 1.356 . S
C18 H72 0.930 . S
C19 N17 1.279 . S
C19 C18 1.358 . S
C19 H23 0.930 . S
C20 C18 1.356 . S
C20 C21 1.348 . S
C21 C16 1.353 . S
C21 C20 1.348 . S
C21 H73 0.929 . S
H22 C16 0.930 . S
H23 C19 0.930 . S
C24 N25 1.314 . S
C24 C26 1.353 . S
C24 H30 0.930 . S
N25 Li1 1.990 . S
N25 C24 1.314 . S
N25 C28 1.279 . S
C26 C24 1.353 . S
C26 C29 1.348 . S
C26 H74 0.929 . S
C27 C28 1.358 . S
C27 C29 1.356 . S
C27 H75 0.930 . S
C28 N25 1.279 . S
C28 C27 1.358 . S
C28 H31 0.930 . S
C29 C26 1.348 . S
C29 C27 1.356 . S
H30 C24 0.930 . S
H31 C28 0.930 . S
C32 C34 1.348 . S
C32 C35 1.356 . S
C32 O62 1.325 . S
N33 C36 1.314 . S
N33 C37 1.279 . S
C34 C32 1.348 . S
C34 C36 1.353 . S
C34 H76 0.929 . S
C35 C32 1.356 . S
C35 C37 1.358 . S
C35 H77 0.930 . S
C36 N33 1.314 . S
C36 C34 1.353 . S
C36 H78 0.930 . S
C37 N33 1.279 . S
C37 C35 1.358 . S
C37 H79 0.930 . S
C38 C39 1.348 . S
C38 C40 1.356 . S
C38 O63 1.325 . S
C39 C38 1.348 . S
C39 C41 1.353 . S
C39 H80 0.929 . S
C40 C38 1.356 . S
C40 C42 1.358 . S
C40 H81 0.930 . S
C41 C39 1.353 . S
C41 N43 1.314 . S
C41 H82 0.930 . S
C42 C40 1.358 . S
C42 N43 1.279 . S
C42 H83 0.930 . S
N43 C41 1.314 . S
N43 C42 1.279 . S
C44 C46 1.353 . S
C44 N47 1.314 . S
C44 H50 0.930 . S
C45 N47 1.279 . S
C45 C48 1.358 . S
C45 H51 0.930 . S
C46 C44 1.353 . S
C46 C49 1.348 . S
C46 H84 0.929 . S
N47 Li2 1.990 . S
N47 C44 1.314 . S
N47 C45 1.279 . S
C48 C45 1.358 . S
C48 C49 1.356 . S
C48 H85 0.930 . S
C49 C46 1.348 . S
C49 C48 1.356 . S
H50 C44 0.930 . S
H51 C45 0.930 . S
C52 N53 1.314 . S
C52 C54 1.353 . S
C52 H58 0.930 . S
N53 Li3 1.990 . S
N53 C52 1.314 . S
N53 C56 1.279 . S
C54 C52 1.353 . S
C54 C57 1.348 . S
C54 H86 0.929 . S
C55 C56 1.358 . S
C55 C57 1.356 . S
C55 H87 0.930 . S
C56 N53 1.279 . S
C56 C55 1.358 . S
C56 H59 0.930 . S
C57 C54 1.348 . S
C57 C55 1.356 . S
H58 C52 0.930 . S
H59 C56 0.930 . S
O60 Li0 1.956 . S
O60 Li1 1.970 . S
O60 Li2 1.961 . S
O60 C4 1.325 . S
O61 Li0 1.970 . S
O61 Li1 1.956 . S
O61 Li3 1.961 . S
O61 C10 1.307 1_455 S
O62 Li0 1.961 . S
O62 Li2 1.956 . S
O62 Li3 1.970 . S
O62 C32 1.325 . S
O63 Li1 1.961 . S
O63 Li2 1.970 . S
O63 Li3 1.956 . S
O63 C38 1.325 . S
H64 C6 0.929 . S
H65 C7 0.930 . S
H66 C8 0.930 . S
H67 C9 0.930 . S
H68 C11 0.930 . S
H69 C13 0.929 . S
H70 C14 0.930 . S
H71 C15 0.930 . S
H72 C18 0.930 . S
H73 C21 0.929 . S
H74 C26 0.929 . S
H75 C27 0.930 . S
H76 C34 0.929 . S
H77 C35 0.930 . S
H78 C36 0.930 . S
H79 C37 0.930 . S
H80 C39 0.929 . S
H81 C40 0.930 . S
H82 C41 0.930 . S
H83 C42 0.930 . S
H84 C46 0.929 . S
H85 C48 0.930 . S
H86 C54 0.929 . S
H87 C55 0.930 . S
Li88 N105 1.990 . S
Li88 O148 1.956 . S
Li88 O149 1.970 . S
Li88 O150 1.961 1_455 S
Li89 N113 1.990 . S
Li89 O148 1.970 . S
Li89 O149 1.956 . S
Li89 O151 1.961 . S
Li90 N135 1.990 . S
Li90 O148 1.961 . S
Li90 O150 1.956 1_455 S
Li90 O151 1.970 . S
Li91 N141 1.990 . S
Li91 O149 1.961 1_655 S
Li91 O150 1.970 . S
Li91 O151 1.956 1_655 S
C92 C94 1.348 . S
C92 C95 1.356 . S
C92 O148 1.325 . S
N93 C96 1.314 . S
N93 C97 1.279 . S
C94 C92 1.348 . S
C94 C96 1.353 . S
C94 H152 0.929 . S
C95 C92 1.356 . S
C95 C97 1.358 . S
C95 H153 0.930 . S
C96 N93 1.314 . S
C96 C94 1.353 . S
C96 H154 0.930 . S
C97 N93 1.279 . S
C97 C95 1.358 . S
C97 H155 0.930 . S
C98 C101 1.348 . S
C98 C102 1.356 . S
C98 O149 1.325 . S
C99 N100 1.279 . S
C99 C102 1.358 . S
C99 H156 0.930 . S
N100 C99 1.279 . S
N100 C103 1.314 . S
C101 C98 1.348 . S
C101 C103 1.353 . S
C101 H157 0.929 . S
C102 C98 1.356 . S
C102 C99 1.358 . S
C102 H158 0.930 . S
C103 N100 1.314 . S
C103 C101 1.353 . S
C103 H159 0.930 . S
C104 N105 1.314 . S
C104 C109 1.353 . S
C104 H110 0.930 1_455 S
N105 Li88 1.990 . S
N105 C104 1.314 . S
N105 C107 1.279 . S
C106 C107 1.358 . S
C106 C108 1.356 . S
C106 H160 0.930 . S
C107 N105 1.279 . S
C107 C106 1.358 . S
C107 H111 0.930 . S
C108 C106 1.356 . S
C108 C109 1.348 . S
C109 C104 1.353 . S
C109 C108 1.348 . S
C109 H161 0.929 1_455 S
H110 C104 0.930 1_655 S
H111 C107 0.930 . S
C112 N113 1.314 . S
C112 C114 1.353 . S
C112 H118 0.930 . S
N113 Li89 1.990 . S
N113 C112 1.314 . S
N113 C116 1.279 . S
C114 C112 1.353 . S
C114 C117 1.348 . S
C114 H162 0.929 . S
C115 C116 1.358 . S
C115 C117 1.356 . S
C115 H163 0.930 . S
C116 N113 1.279 . S
C116 C115 1.358 . S
C116 H119 0.930 . S
C117 C114 1.348 . S
C117 C115 1.356 . S
H118 C112 0.930 . S
H119 C116 0.930 . S
C120 C122 1.348 . S
C120 C123 1.356 . S
C120 O150 1.325 . S
N121 C124 1.314 . S
N121 C125 1.279 . S
C122 C120 1.348 . S
C122 C124 1.353 . S
C122 H164 0.929 . S
C123 C120 1.356 . S
C123 C125 1.358 . S
C123 H165 0.930 . S
C124 N121 1.314 . S
C124 C122 1.353 . S
C124 H166 0.930 . S
C125 N121 1.279 . S
C125 C123 1.358 . S
C125 H167 0.930 . S
C126 C127 1.348 . S
C126 C128 1.356 . S
C126 O151 1.325 . S
C127 C126 1.348 . S
C127 C129 1.353 . S
C127 H168 0.929 . S
C128 C126 1.356 . S
C128 C130 1.358 . S
C128 H169 0.930 . S
C129 C127 1.353 . S
C129 N131 1.314 . S
C129 H170 0.930 . S
C130 C128 1.358 . S
C130 N131 1.279 . S
C130 H171 0.930 . S
N131 C129 1.314 . S
N131 C130 1.279 . S
C132 C134 1.353 . S
C132 N135 1.314 . S
C132 H138 0.930 . S
C133 N135 1.279 1_655 S
C133 C136 1.358 . S
C133 H139 0.930 . S
C134 C132 1.353 . S
C134 C137 1.348 . S
C134 H172 0.929 . S
N135 Li90 1.990 . S
N135 C132 1.314 . S
N135 C133 1.279 1_455 S
C136 C133 1.358 . S
C136 C137 1.356 1_655 S
C136 H173 0.930 . S
C137 C134 1.348 . S
C137 C136 1.356 1_455 S
H138 C132 0.930 . S
H139 C133 0.930 . S
C140 N141 1.314 . S
C140 C142 1.353 . S
C140 H146 0.930 . S
N141 Li91 1.990 . S
N141 C140 1.314 . S
N141 C144 1.279 . S
C142 C140 1.353 . S
C142 C145 1.348 . S
C142 H174 0.929 . S
C143 C144 1.358 . S
C143 C145 1.356 . S
C143 H175 0.930 . S
C144 N141 1.279 . S
C144 C143 1.358 . S
C144 H147 0.930 . S
C145 C142 1.348 . S
C145 C143 1.356 . S
H146 C140 0.930 . S
H147 C144 0.930 . S
O148 Li88 1.956 . S
O148 Li89 1.970 . S
O148 Li90 1.961 . S
O148 C92 1.325 . S
O149 Li88 1.970 . S
O149 Li89 1.956 . S
O149 Li91 1.961 1_455 S
O149 C98 1.325 . S
O150 Li88 1.961 1_655 S
O150 Li90 1.956 1_655 S
O150 Li91 1.970 . S
O150 C120 1.325 . S
O151 Li89 1.961 . S
O151 Li90 1.970 . S
O151 Li91 1.956 1_455 S
O151 C126 1.325 . S
H152 C94 0.929 . S
H153 C95 0.930 . S
H154 C96 0.930 . S
H155 C97 0.930 . S
H156 C99 0.930 . S
H157 C101 0.929 . S
H158 C102 0.930 . S
H159 C103 0.930 . S
H160 C106 0.930 . S
H161 C109 0.929 1_655 S
H162 C114 0.929 . S
H163 C115 0.930 . S
H164 C122 0.929 . S
H165 C123 0.930 . S
H166 C124 0.930 . S
H167 C125 0.930 . S
H168 C127 0.929 . S
H169 C128 0.930 . S
H170 C129 0.930 . S
H171 C130 0.930 . S
H172 C134 0.929 . S
H173 C136 0.930 . S
H174 C142 0.929 . S
H175 C143 0.930 . S
Li176 N193 1.990 . S
Li176 O236 1.956 . S
Li176 O237 1.970 . S
Li176 O238 1.961 . S
Li177 N201 1.990 . S
Li177 O236 1.970 . S
Li177 O237 1.956 . S
Li177 O239 1.961 . S
Li178 N223 1.990 . S
Li178 O236 1.961 . S
Li178 O238 1.956 . S
Li178 O239 1.970 . S
Li179 N229 1.990 . S
Li179 O237 1.961 . S
Li179 O238 1.970 . S
Li179 O239 1.956 . S
C180 C182 1.348 . S
C180 C183 1.356 . S
C180 O236 1.325 . S
N181 C184 1.314 . S
N181 C185 1.279 . S
C182 C180 1.348 . S
C182 C184 1.353 . S
C182 H240 0.929 . S
C183 C180 1.356 . S
C183 C185 1.358 . S
C183 H241 0.930 . S
C184 N181 1.314 . S
C184 C182 1.353 . S
C184 H242 0.930 . S
C185 N181 1.279 . S
C185 C183 1.358 . S
C185 H243 0.930 . S
C186 C189 1.348 . S
C186 C190 1.356 . S
C186 O237 1.325 . S
C187 N188 1.279 . S
C187 C190 1.358 . S
C187 H244 0.930 . S
N188 C187 1.279 . S
N188 C191 1.314 . S
C189 C186 1.348 . S
C189 C191 1.353 . S
C189 H245 0.929 . S
C190 C186 1.356 . S
C190 C187 1.358 . S
C190 H246 0.930 . S
C191 N188 1.314 . S
C191 C189 1.353 . S
C191 H247 0.930 . S
C192 N193 1.314 . S
C192 C197 1.353 . S
C192 H198 0.930 . S
N193 Li176 1.990 . S
N193 C192 1.314 . S
N193 C195 1.279 . S
C194 C195 1.358 . S
C194 C196 1.356 . S
C194 H248 0.930 . S
C195 N193 1.279 . S
C195 C194 1.358 . S
C195 H199 0.930 . S
C196 C194 1.356 . S
C196 C197 1.348 . S
C197 C192 1.353 . S
C197 C196 1.348 . S
C197 H249 0.929 . S
H198 C192 0.930 . S
H199 C195 0.930 . S
C200 N201 1.314 . S
C200 C202 1.353 . S
C200 H206 0.930 . S
N201 Li177 1.990 . S
N201 C200 1.314 . S
N201 C204 1.279 . S
C202 C200 1.353 . S
C202 C205 1.348 . S
C202 H250 0.929 . S
C203 C204 1.358 . S
C203 C205 1.356 . S
C203 H251 0.930 . S
C204 N201 1.279 . S
C204 C203 1.358 . S
C204 H207 0.930 . S
C205 C202 1.348 . S
C205 C203 1.356 . S
H206 C200 0.930 . S
H207 C204 0.930 . S
C208 C210 1.348 . S
C208 C211 1.356 . S
C208 O238 1.325 . S
N209 C212 1.314 . S
N209 C213 1.279 . S
C210 C208 1.348 . S
C210 C212 1.353 . S
C210 H252 0.929 . S
C211 C208 1.356 . S
C211 C213 1.358 . S
C211 H253 0.930 . S
C212 N209 1.314 . S
C212 C210 1.353 . S
C212 H254 0.930 . S
C213 N209 1.279 . S
C213 C211 1.358 . S
C213 H255 0.930 . S
C214 C215 1.348 . S
C214 C216 1.356 . S
C214 O239 1.325 . S
C215 C214 1.348 . S
C215 C217 1.353 . S
C215 H256 0.929 . S
C216 C214 1.356 . S
C216 C218 1.358 . S
C216 H257 0.930 . S
C217 C215 1.353 . S
C217 N219 1.314 . S
C217 H258 0.930 . S
C218 C216 1.358 . S
C218 N219 1.279 . S
C218 H259 0.930 . S
N219 C217 1.314 . S
N219 C218 1.279 . S
C220 C222 1.353 . S
C220 N223 1.314 . S
C220 H226 0.930 . S
C221 N223 1.279 . S
C221 C224 1.358 . S
C221 H227 0.930 . S
C222 C220 1.353 . S
C222 C225 1.348 . S
C222 H260 0.929 . S
N223 Li178 1.990 . S
N223 C220 1.314 . S
N223 C221 1.279 . S
C224 C221 1.358 . S
C224 C225 1.356 . S
C224 H261 0.930 . S
C225 C222 1.348 . S
C225 C224 1.356 . S
H226 C220 0.930 . S
H227 C221 0.930 . S
C228 N229 1.314 . S
C228 C230 1.353 . S
C228 H234 0.930 . S
N229 Li179 1.990 . S
N229 C228 1.314 . S
N229 C232 1.279 . S
C230 C228 1.353 . S
C230 C233 1.348 . S
C230 H262 0.929 . S
C231 C232 1.358 . S
C231 C233 1.356 . S
C231 H263 0.930 . S
C232 N229 1.279 . S
C232 C231 1.358 . S
C232 H235 0.930 . S
C233 C230 1.348 . S
C233 C231 1.356 . S
H234 C228 0.930 . S
H235 C232 0.930 . S
O236 Li176 1.956 . S
O236 Li177 1.970 . S
O236 Li178 1.961 . S
O236 C180 1.325 . S
O237 Li176 1.970 . S
O237 Li177 1.956 . S
O237 Li179 1.961 . S
O237 C186 1.325 . S
O238 Li176 1.961 . S
O238 Li178 1.956 . S
O238 Li179 1.970 . S
O238 C208 1.325 . S
O239 Li177 1.961 . S
O239 Li178 1.970 . S
O239 Li179 1.956 . S
O239 C214 1.325 . S
H240 C182 0.929 . S
H241 C183 0.930 . S
H242 C184 0.930 . S
H243 C185 0.930 . S
H244 C187 0.930 . S
H245 C189 0.929 . S
H246 C190 0.930 . S
H247 C191 0.930 . S
H248 C194 0.930 . S
H249 C197 0.929 . S
H250 C202 0.929 . S
H251 C203 0.930 . S
H252 C210 0.929 . S
H253 C211 0.930 . S
H254 C212 0.930 . S
H255 C213 0.930 . S
H256 C215 0.929 . S
H257 C216 0.930 . S
H258 C217 0.930 . S
H259 C218 0.930 . S
H260 C222 0.929 . S
H261 C224 0.930 . S
H262 C230 0.929 . S
H263 C231 0.930 . S
Li264 N281 1.990 . S
Li264 O324 1.956 . S
Li264 O325 1.970 . S
Li264 O326 1.961 . S
Li265 N289 1.990 . S
Li265 O324 1.970 . S
Li265 O325 1.956 . S
Li265 O327 1.961 . S
Li266 N311 1.990 . S
Li266 O324 1.961 . S
Li266 O326 1.956 . S
Li266 O327 1.970 . S
Li267 N317 1.990 . S
Li267 O325 1.961 . S
Li267 O326 1.970 . S
Li267 O327 1.956 . S
C268 C270 1.348 . S
C268 C271 1.356 . S
C268 O324 1.325 . S
N269 C272 1.314 . S
N269 C273 1.279 . S
C270 C268 1.348 . S
C270 C272 1.353 . S
C270 H328 0.929 . S
C271 C268 1.356 . S
C271 C273 1.358 . S
C271 H329 0.930 . S
C272 N269 1.314 . S
C272 C270 1.353 . S
C272 H330 0.930 . S
C273 N269 1.279 . S
C273 C271 1.358 . S
C273 H331 0.930 . S
C274 C277 1.348 . S
C274 C278 1.356 . S
C274 O325 1.325 . S
C275 N276 1.279 . S
C275 C278 1.358 . S
C275 H332 0.930 . S
N276 C275 1.279 . S
N276 C279 1.314 . S
C277 C274 1.348 . S
C277 C279 1.353 . S
C277 H333 0.929 . S
C278 C274 1.356 . S
C278 C275 1.358 . S
C278 H334 0.930 . S
C279 N276 1.314 . S
C279 C277 1.353 . S
C279 H335 0.930 . S
C280 N281 1.314 . S
C280 C285 1.353 . S
C280 H286 0.930 . S
N281 Li264 1.990 . S
N281 C280 1.314 . S
N281 C283 1.279 . S
C282 C283 1.358 . S
C282 C284 1.356 . S
C282 H336 0.930 . S
C283 N281 1.279 . S
C283 C282 1.358 . S
C283 H287 0.930 . S
C284 C282 1.356 . S
C284 C285 1.348 . S
C285 C280 1.353 . S
C285 C284 1.348 . S
C285 H337 0.929 . S
H286 C280 0.930 . S
H287 C283 0.930 . S
C288 N289 1.314 . S
C288 C290 1.353 . S
C288 H294 0.930 . S
N289 Li265 1.990 . S
N289 C288 1.314 . S
N289 C292 1.279 . S
C290 C288 1.353 . S
C290 C293 1.348 . S
C290 H338 0.929 . S
C291 C292 1.358 . S
C291 C293 1.356 . S
C291 H339 0.930 . S
C292 N289 1.279 . S
C292 C291 1.358 . S
C292 H295 0.930 . S
C293 C290 1.348 . S
C293 C291 1.356 . S
H294 C288 0.930 . S
H295 C292 0.930 . S
C296 C298 1.348 . S
C296 C299 1.356 . S
C296 O326 1.325 . S
N297 C300 1.314 . S
N297 C301 1.279 . S
C298 C296 1.348 . S
C298 C300 1.353 . S
C298 H340 0.929 . S
C299 C296 1.356 . S
C299 C301 1.358 . S
C299 H341 0.930 . S
C300 N297 1.314 . S
C300 C298 1.353 . S
C300 H342 0.930 . S
C301 N297 1.279 . S
C301 C299 1.358 . S
C301 H343 0.930 . S
C302 C303 1.348 . S
C302 C304 1.356 . S
C302 O327 1.325 . S
C303 C302 1.348 . S
C303 C305 1.353 . S
C303 H344 0.929 . S
C304 C302 1.356 . S
C304 C306 1.358 . S
C304 H345 0.930 . S
C305 C303 1.353 . S
C305 N307 1.314 . S
C305 H346 0.930 . S
C306 C304 1.358 . S
C306 N307 1.279 . S
C306 H347 0.930 . S
N307 C305 1.314 . S
N307 C306 1.279 . S
C308 C310 1.353 . S
C308 N311 1.314 . S
C308 H314 0.930 . S
C309 N311 1.279 . S
C309 C312 1.358 . S
C309 H315 0.930 . S
C310 C308 1.353 . S
C310 C313 1.348 . S
C310 H348 0.929 . S
N311 Li266 1.990 . S
N311 C308 1.314 . S
N311 C309 1.279 . S
C312 C309 1.358 . S
C312 C313 1.356 . S
C312 H349 0.930 . S
C313 C310 1.348 . S
C313 C312 1.356 . S
H314 C308 0.930 . S
H315 C309 0.930 . S
C316 N317 1.314 . S
C316 C318 1.353 . S
C316 H322 0.930 . S
N317 Li267 1.990 . S
N317 C316 1.314 . S
N317 C320 1.279 . S
C318 C316 1.353 . S
C318 C321 1.348 . S
C318 H350 0.929 . S
C319 C320 1.358 . S
C319 C321 1.356 . S
C319 H351 0.930 . S
C320 N317 1.279 . S
C320 C319 1.358 . S
C320 H323 0.930 . S
C321 C318 1.348 . S
C321 C319 1.356 . S
H322 C316 0.930 . S
H323 C320 0.930 . S
O324 Li264 1.956 . S
O324 Li265 1.970 . S
O324 Li266 1.961 . S
O324 C268 1.325 . S
O325 Li264 1.970 . S
O325 Li265 1.956 . S
O325 Li267 1.961 . S
O325 C274 1.325 . S
O326 Li264 1.961 . S
O326 Li266 1.956 . S
O326 Li267 1.970 . S
O326 C296 1.325 . S
O327 Li265 1.961 . S
O327 Li266 1.970 . S
O327 Li267 1.956 . S
O327 C302 1.325 . S
H328 C270 0.929 . S
H329 C271 0.930 . S
H330 C272 0.930 . S
H331 C273 0.930 . S
H332 C275 0.930 . S
H333 C277 0.929 . S
H334 C278 0.930 . S
H335 C279 0.930 . S
H336 C282 0.930 . S
H337 C285 0.929 . S
H338 C290 0.929 . S
H339 C291 0.930 . S
H340 C298 0.929 . S
H341 C299 0.930 . S
H342 C300 0.930 . S
H343 C301 0.930 . S
H344 C303 0.929 . S
H345 C304 0.930 . S
H346 C305 0.930 . S
H347 C306 0.930 . S
H348 C310 0.929 . S
H349 C312 0.930 . S
H350 C318 0.929 . S
H351 C319 0.930 . S
Li352 N369 1.990 . S
Li352 O412 1.956 . S
Li352 O413 1.970 . S
Li352 O414 1.961 . S
Li353 N377 1.990 . S
Li353 O412 1.970 . S
Li353 O413 1.956 . S
Li353 O415 1.961 . S
Li354 N399 1.990 . S
Li354 O412 1.961 . S
Li354 O414 1.956 . S
Li354 O415 1.970 . S
Li355 N405 1.990 . S
Li355 O413 1.961 . S
Li355 O414 1.970 . S
Li355 O415 1.956 . S
C356 C358 1.348 . S
C356 C359 1.356 . S
C356 O412 1.325 . S
N357 C360 1.314 . S
N357 C361 1.279 . S
C358 C356 1.348 . S
C358 C360 1.353 . S
C358 H416 0.929 . S
C359 C356 1.356 . S
C359 C361 1.358 . S
C359 H417 0.930 . S
C360 N357 1.314 . S
C360 C358 1.353 . S
C360 H418 0.930 . S
C361 N357 1.279 . S
C361 C359 1.358 . S
C361 H419 0.930 . S
C362 C365 1.348 . S
C362 C366 1.356 . S
C362 O413 1.325 . S
C363 N364 1.279 . S
C363 C366 1.358 . S
C363 H420 0.930 . S
N364 C363 1.279 . S
N364 C367 1.314 . S
C365 C362 1.348 . S
C365 C367 1.353 . S
C365 H421 0.929 . S
C366 C362 1.356 . S
C366 C363 1.358 . S
C366 H422 0.930 . S
C367 N364 1.314 . S
C367 C365 1.353 . S
C367 H423 0.930 . S
C368 N369 1.314 . S
C368 C373 1.353 . S
C368 H374 0.930 . S
N369 Li352 1.990 . S
N369 C368 1.314 . S
N369 C371 1.279 . S
C370 C371 1.358 . S
C370 C372 1.356 . S
C370 H424 0.930 . S
C371 N369 1.279 . S
C371 C370 1.358 . S
C371 H375 0.930 . S
C372 C370 1.356 . S
C372 C373 1.348 . S
C373 C368 1.353 . S
C373 C372 1.348 . S
C373 H425 0.929 . S
H374 C368 0.930 . S
H375 C371 0.930 . S
C376 N377 1.314 . S
C376 C378 1.353 . S
C376 H382 0.930 . S
N377 Li353 1.990 . S
N377 C376 1.314 . S
N377 C380 1.279 . S
C378 C376 1.353 . S
C378 C381 1.348 . S
C378 H426 0.929 . S
C379 C380 1.358 . S
C379 C381 1.356 . S
C379 H427 0.930 . S
C380 N377 1.279 . S
C380 C379 1.358 . S
C380 H383 0.930 . S
C381 C378 1.348 . S
C381 C379 1.356 . S
H382 C376 0.930 . S
H383 C380 0.930 . S
C384 C386 1.348 1_455 S
C384 C387 1.356 . S
C384 O414 1.325 . S
N385 C388 1.314 . S
N385 C389 1.279 . S
C386 C384 1.348 1_655 S
C386 C388 1.353 . S
C386 H428 0.929 . S
C387 C384 1.356 . S
C387 C389 1.358 1_455 S
C387 H429 0.930 . S
C388 N385 1.314 . S
C388 C386 1.353 . S
C388 H430 0.930 . S
C389 N385 1.279 . S
C389 C387 1.358 1_655 S
C389 H431 0.930 . S
C390 C391 1.348 . S
C390 C392 1.356 . S
C390 O415 1.325 . S
C391 C390 1.348 . S
C391 C393 1.353 . S
C391 H432 0.929 . S
C392 C390 1.356 . S
C392 C394 1.358 . S
C392 H433 0.930 . S
C393 C391 1.353 . S
C393 N395 1.314 . S
C393 H434 0.930 . S
C394 C392 1.358 . S
C394 N395 1.279 . S
C394 H435 0.930 . S
N395 C393 1.314 . S
N395 C394 1.279 . S
C396 C398 1.353 . S
C396 N399 1.314 . S
C396 H402 0.930 . S
C397 N399 1.279 . S
C397 C400 1.358 . S
C397 H403 0.930 . S
C398 C396 1.353 . S
C398 C401 1.348 . S
C398 H436 0.929 . S
N399 Li354 1.990 . S
N399 C396 1.314 . S
N399 C397 1.279 . S
C400 C397 1.358 . S
C400 C401 1.356 . S
C400 H437 0.930 . S
C401 C398 1.348 . S
C401 C400 1.356 . S
H402 C396 0.930 . S
H403 C397 0.930 . S
C404 N405 1.314 . S
C404 C406 1.353 1_455 S
C404 H410 0.930 . S
N405 Li355 1.990 . S
N405 C404 1.314 . S
N405 C408 1.279 . S
C406 C404 1.353 1_655 S
C406 C409 1.348 . S
C406 H438 0.929 . S
C407 C408 1.358 1_655 S
C407 C409 1.356 . S
C407 H439 0.930 . S
C408 N405 1.279 . S
C408 C407 1.358 1_455 S
C408 H411 0.930 . S
C409 C406 1.348 . S
C409 C407 1.356 . S
H410 C404 0.930 . S
H411 C408 0.930 . S
O412 Li352 1.956 . S
O412 Li353 1.970 . S
O412 Li354 1.961 . S
O412 C356 1.325 . S
O413 Li352 1.970 . S
O413 Li353 1.956 . S
O413 Li355 1.961 . S
O413 C362 1.325 . S
O414 Li352 1.961 . S
O414 Li354 1.956 . S
O414 Li355 1.970 . S
O414 C384 1.325 . S
O415 Li353 1.961 . S
O415 Li354 1.970 . S
O415 Li355 1.956 . S
O415 C390 1.325 . S
H416 C358 0.929 . S
H417 C359 0.930 . S
H418 C360 0.930 . S
H419 C361 0.930 . S
H420 C363 0.930 . S
H421 C365 0.929 . S
H422 C366 0.930 . S
H423 C367 0.930 . S
H424 C370 0.930 . S
H425 C373 0.929 . S
H426 C378 0.929 . S
H427 C379 0.930 . S
H428 C386 0.929 . S
H429 C387 0.930 . S
H430 C388 0.930 . S
H431 C389 0.930 . S
H432 C391 0.929 . S
H433 C392 0.930 . S
H434 C393 0.930 . S
H435 C394 0.930 . S
H436 C398 0.929 . S
H437 C400 0.930 . S
H438 C406 0.929 . S
H439 C407 0.930 . S
Li440 N457 1.990 . S
Li440 O500 1.956 . S
Li440 O501 1.970 . S
Li440 O502 1.961 . S
Li441 N465 1.990 . S
Li441 O500 1.970 . S
Li441 O501 1.956 . S
Li441 O503 1.961 . S
Li442 N487 1.990 . S
Li442 O500 1.961 . S
Li442 O502 1.956 . S
Li442 O503 1.970 . S
Li443 N493 1.990 . S
Li443 O501 1.961 . S
Li443 O502 1.970 . S
Li443 O503 1.956 . S
C444 C446 1.348 . S
C444 C447 1.356 . S
C444 O500 1.325 . S
N445 C448 1.314 . S
N445 C449 1.279 . S
C446 C444 1.348 . S
C446 C448 1.353 . S
C446 H504 0.929 . S
C447 C444 1.356 . S
C447 C449 1.358 . S
C447 H505 0.930 . S
C448 N445 1.314 . S
C448 C446 1.353 . S
C448 H506 0.930 . S
C449 N445 1.279 . S
C449 C447 1.358 . S
C449 H507 0.930 . S
C450 C453 1.348 . S
C450 C454 1.356 . S
C450 O501 1.325 . S
C451 N452 1.279 . S
C451 C454 1.358 . S
C451 H508 0.930 . S
N452 C451 1.279 . S
N452 C455 1.314 . S
C453 C450 1.348 . S
C453 C455 1.353 . S
C453 H509 0.929 . S
C454 C450 1.356 . S
C454 C451 1.358 . S
C454 H510 0.930 . S
C455 N452 1.314 . S
C455 C453 1.353 . S
C455 H511 0.930 . S
C456 N457 1.314 . S
C456 C461 1.353 . S
C456 H462 0.930 . S
N457 Li440 1.990 . S
N457 C456 1.314 . S
N457 C459 1.279 . S
C458 C459 1.358 . S
C458 C460 1.356 . S
C458 H512 0.930 . S
C459 N457 1.279 . S
C459 C458 1.358 . S
C459 H463 0.930 . S
C460 C458 1.356 . S
C460 C461 1.348 . S
C461 C456 1.353 . S
C461 C460 1.348 . S
C461 H513 0.929 . S
H462 C456 0.930 . S
H463 C459 0.930 . S
C464 N465 1.314 . S
C464 C466 1.353 . S
C464 H470 0.930 . S
N465 Li441 1.990 . S
N465 C464 1.314 . S
N465 C468 1.279 . S
C466 C464 1.353 . S
C466 C469 1.348 . S
C466 H514 0.929 . S
C467 C468 1.358 . S
C467 C469 1.356 . S
C467 H515 0.930 . S
C468 N465 1.279 . S
C468 C467 1.358 . S
C468 H471 0.930 . S
C469 C466 1.348 . S
C469 C467 1.356 . S
H470 C464 0.930 . S
H471 C468 0.930 . S
C472 C474 1.348 . S
C472 C475 1.356 . S
C472 O502 1.325 . S
N473 C476 1.314 . S
N473 C477 1.279 . S
C474 C472 1.348 . S
C474 C476 1.353 . S
C474 H516 0.929 . S
C475 C472 1.356 . S
C475 C477 1.358 . S
C475 H517 0.930 . S
C476 N473 1.314 . S
C476 C474 1.353 . S
C476 H518 0.930 . S
C477 N473 1.279 . S
C477 C475 1.358 . S
C477 H519 0.930 . S
C478 C479 1.348 . S
C478 C480 1.356 . S
C478 O503 1.325 . S
C479 C478 1.348 . S
C479 C481 1.353 . S
C479 H520 0.929 . S
C480 C478 1.356 . S
C480 C482 1.358 . S
C480 H521 0.930 . S
C481 C479 1.353 . S
C481 N483 1.314 . S
C481 H522 0.930 . S
C482 C480 1.358 . S
C482 N483 1.279 . S
C482 H523 0.930 . S
N483 C481 1.314 . S
N483 C482 1.279 . S
C484 C486 1.353 . S
C484 N487 1.314 . S
C484 H490 0.930 . S
C485 N487 1.279 . S
C485 C488 1.358 . S
C485 H491 0.930 . S
C486 C484 1.353 . S
C486 C489 1.348 . S
C486 H524 0.929 . S
N487 Li442 1.990 . S
N487 C484 1.314 . S
N487 C485 1.279 . S
C488 C485 1.358 . S
C488 C489 1.356 . S
C488 H525 0.930 . S
C489 C486 1.348 . S
C489 C488 1.356 . S
H490 C484 0.930 . S
H491 C485 0.930 . S
C492 N493 1.314 . S
C492 C494 1.353 . S
C492 H498 0.930 . S
N493 Li443 1.990 . S
N493 C492 1.314 . S
N493 C496 1.279 . S
C494 C492 1.353 . S
C494 C497 1.348 . S
C494 H526 0.929 . S
C495 C496 1.358 . S
C495 C497 1.356 . S
C495 H527 0.930 . S
C496 N493 1.279 . S
C496 C495 1.358 . S
C496 H499 0.930 . S
C497 C494 1.348 . S
C497 C495 1.356 . S
H498 C492 0.930 . S
H499 C496 0.930 . S
O500 Li440 1.956 . S
O500 Li441 1.970 . S
O500 Li442 1.961 . S
O500 C444 1.325 . S
O501 Li440 1.970 . S
O501 Li441 1.956 . S
O501 Li443 1.961 . S
O501 C450 1.325 . S
O502 Li440 1.961 . S
O502 Li442 1.956 . S
O502 Li443 1.970 . S
O502 C472 1.325 . S
O503 Li441 1.961 . S
O503 Li442 1.970 . S
O503 Li443 1.956 . S
O503 C478 1.325 . S
H504 C446 0.929 . S
H505 C447 0.930 . S
H506 C448 0.930 . S
H507 C449 0.930 . S
H508 C451 0.930 . S
H509 C453 0.929 . S
H510 C454 0.930 . S
H511 C455 0.930 . S
H512 C458 0.930 . S
H513 C461 0.929 . S
H514 C466 0.929 . S
H515 C467 0.930 . S
H516 C474 0.929 . S
H517 C475 0.930 . S
H518 C476 0.930 . S
H519 C477 0.930 . S
H520 C479 0.929 . S
H521 C480 0.930 . S
H522 C481 0.930 . S
H523 C482 0.930 . S
H524 C486 0.929 . S
H525 C488 0.930 . S
H526 C494 0.929 . S
H527 C495 0.930 . S
Li528 N545 1.990 . S
Li528 O588 1.956 . S
Li528 O589 1.970 . S
Li528 O590 1.961 . S
Li529 N553 1.990 . S
Li529 O588 1.970 . S
Li529 O589 1.956 . S
Li529 O591 1.961 . S
Li530 N575 1.990 . S
Li530 O588 1.961 . S
Li530 O590 1.956 . S
Li530 O591 1.970 . S
Li531 N581 1.990 . S
Li531 O589 1.961 . S
Li531 O590 1.970 . S
Li531 O591 1.956 . S
C532 C534 1.348 . S
C532 C535 1.356 . S
C532 O588 1.325 . S
N533 C536 1.314 . S
N533 C537 1.279 . S
C534 C532 1.348 . S
C534 C536 1.353 . S
C534 H592 0.929 . S
C535 C532 1.356 . S
C535 C537 1.358 . S
C535 H593 0.930 . S
C536 N533 1.314 . S
C536 C534 1.353 . S
C536 H594 0.930 . S
C537 N533 1.279 . S
C537 C535 1.358 . S
C537 H595 0.930 . S
C538 C541 1.348 . S
C538 C542 1.356 . S
C538 O589 1.325 . S
C539 N540 1.279 . S
C539 C542 1.358 . S
C539 H596 0.930 . S
N540 C539 1.279 . S
N540 C543 1.314 . S
C541 C538 1.348 . S
C541 C543 1.353 . S
C541 H597 0.929 . S
C542 C538 1.356 . S
C542 C539 1.358 . S
C542 H598 0.930 . S
C543 N540 1.314 . S
C543 C541 1.353 . S
C543 H599 0.930 . S
C544 N545 1.314 . S
C544 C549 1.353 . S
C544 H550 0.930 . S
N545 Li528 1.990 . S
N545 C544 1.314 . S
N545 C547 1.279 . S
C546 C547 1.358 . S
C546 C548 1.356 . S
C546 H600 0.930 . S
C547 N545 1.279 . S
C547 C546 1.358 . S
C547 H551 0.930 . S
C548 C546 1.356 . S
C548 C549 1.348 . S
C549 C544 1.353 . S
C549 C548 1.348 . S
C549 H601 0.929 . S
H550 C544 0.930 . S
H551 C547 0.930 . S
C552 N553 1.314 . S
C552 C554 1.353 . S
C552 H558 0.930 . S
N553 Li529 1.990 . S
N553 C552 1.314 . S
N553 C556 1.279 . S
C554 C552 1.353 . S
C554 C557 1.348 . S
C554 H602 0.929 . S
C555 C556 1.358 . S
C555 C557 1.356 . S
C555 H603 0.930 . S
C556 N553 1.279 . S
C556 C555 1.358 . S
C556 H559 0.930 . S
C557 C554 1.348 . S
C557 C555 1.356 . S
H558 C552 0.930 . S
H559 C556 0.930 . S
C560 C562 1.348 . S
C560 C563 1.356 . S
C560 O590 1.325 . S
N561 C564 1.314 . S
N561 C565 1.279 . S
C562 C560 1.348 . S
C562 C564 1.353 . S
C562 H604 0.929 . S
C563 C560 1.356 . S
C563 C565 1.358 . S
C563 H605 0.930 . S
C564 N561 1.314 . S
C564 C562 1.353 . S
C564 H606 0.930 . S
C565 N561 1.279 . S
C565 C563 1.358 . S
C565 H607 0.930 . S
C566 C567 1.348 . S
C566 C568 1.356 . S
C566 O591 1.325 . S
C567 C566 1.348 . S
C567 C569 1.353 . S
C567 H608 0.929 . S
C568 C566 1.356 . S
C568 C570 1.358 . S
C568 H609 0.930 . S
C569 C567 1.353 . S
C569 N571 1.314 . S
C569 H610 0.930 . S
C570 C568 1.358 . S
C570 N571 1.279 . S
C570 H611 0.930 . S
N571 C569 1.314 . S
N571 C570 1.279 . S
C572 C574 1.353 . S
C572 N575 1.314 . S
C572 H578 0.930 . S
C573 N575 1.279 . S
C573 C576 1.358 . S
C573 H579 0.930 . S
C574 C572 1.353 . S
C574 C577 1.348 . S
C574 H612 0.929 . S
N575 Li530 1.990 . S
N575 C572 1.314 . S
N575 C573 1.279 . S
C576 C573 1.358 . S
C576 C577 1.356 . S
C576 H613 0.930 . S
C577 C574 1.348 . S
C577 C576 1.356 . S
H578 C572 0.930 . S
H579 C573 0.930 . S
C580 N581 1.314 . S
C580 C582 1.353 . S
C580 H586 0.930 . S
N581 Li531 1.990 . S
N581 C580 1.314 . S
N581 C584 1.279 . S
C582 C580 1.353 . S
C582 C585 1.348 . S
C582 H614 0.929 . S
C583 C584 1.358 . S
C583 C585 1.356 . S
C583 H615 0.930 . S
C584 N581 1.279 . S
C584 C583 1.358 . S
C584 H587 0.930 . S
C585 C582 1.348 . S
C585 C583 1.356 . S
H586 C580 0.930 . S
H587 C584 0.930 . S
O588 Li528 1.956 . S
O588 Li529 1.970 . S
O588 Li530 1.961 . S
O588 C532 1.325 . S
O589 Li528 1.970 . S
O589 Li529 1.956 . S
O589 Li531 1.961 . S
O589 C538 1.325 . S
O590 Li528 1.961 . S
O590 Li530 1.956 . S
O590 Li531 1.970 . S
O590 C560 1.325 . S
O591 Li529 1.961 . S
O591 Li530 1.970 . S
O591 Li531 1.956 . S
O591 C566 1.325 . S
H592 C534 0.929 . S
H593 C535 0.930 . S
H594 C536 0.930 . S
H595 C537 0.930 . S
H596 C539 0.930 . S
H597 C541 0.929 . S
H598 C542 0.930 . S
H599 C543 0.930 . S
H600 C546 0.930 . S
H601 C549 0.929 . S
H602 C554 0.929 . S
H603 C555 0.930 . S
H604 C562 0.929 . S
H605 C563 0.930 . S
H606 C564 0.930 . S
H607 C565 0.930 . S
H608 C567 0.929 . S
H609 C568 0.930 . S
H610 C569 0.930 . S
H611 C570 0.930 . S
H612 C574 0.929 . S
H613 C576 0.930 . S
H614 C582 0.929 . S
H615 C583 0.930 . S
Li616 N633 1.990 . S
Li616 O676 1.956 1_455 S
Li616 O677 1.970 . S
Li616 O678 1.961 . S
Li617 N641 1.990 . S
Li617 O676 1.970 . S
Li617 O677 1.956 1_655 S
Li617 O679 1.961 . S
Li618 N663 1.992 1_455 S
Li618 O676 1.958 1_455 S
Li618 O678 1.958 . S
Li618 O679 1.970 1_455 S
Li619 N669 1.990 . S
Li619 O677 1.961 . S
Li619 O678 1.970 . S
Li619 O679 1.956 1_455 S
C620 C622 1.348 . S
C620 C623 1.356 1_556 S
C620 O676 1.325 . S
N621 C624 1.314 1_554 S
N621 C625 1.279 . S
C622 C620 1.348 . S
C622 C624 1.353 . S
C622 H680 0.929 . S
C623 C620 1.356 1_554 S
C623 C625 1.358 . S
C623 H681 0.930 . S
C624 N621 1.314 1_556 S
C624 C622 1.353 . S
C624 H682 0.930 . S
C625 N621 1.279 . S
C625 C623 1.358 . S
C625 H683 0.930 . S
C626 C629 1.348 1_455 S
C626 C630 1.356 . S
C626 O677 1.325 . S
C627 N628 1.279 . S
C627 C630 1.358 . S
C627 H684 0.930 . S
N628 C627 1.279 . S
N628 C631 1.309 1_455 S
C629 C626 1.348 1_655 S
C629 C631 1.352 . S
C629 H685 0.929 . S
C630 C626 1.356 . S
C630 C627 1.358 . S
C630 H686 0.930 . S
C631 N628 1.309 1_655 S
C631 C629 1.352 . S
C631 H687 0.937 . S
C632 N633 1.314 . S
C632 C637 1.353 1_556 S
C632 H638 0.930 . S
N633 Li616 1.990 . S
N633 C632 1.314 . S
N633 C635 1.279 1_456 S
C634 C635 1.358 . S
C634 C636 1.356 1_655 S
C634 H688 0.930 . S
C635 N633 1.279 1_654 S
C635 C634 1.358 . S
C635 H639 0.930 . S
C636 C634 1.356 1_455 S
C636 C637 1.348 . S
C637 C632 1.353 1_554 S
C637 C636 1.348 . S
C637 H689 0.929 . S
H638 C632 0.930 . S
H639 C635 0.930 . S
C640 N641 1.314 . S
C640 C642 1.353 . S
C640 H646 0.930 . S
N641 Li617 1.990 . S
N641 C640 1.314 . S
N641 C644 1.279 . S
C642 C640 1.353 . S
C642 C645 1.348 . S
C642 H690 0.929 . S
C643 C644 1.358 . S
C643 C645 1.356 . S
C643 H691 0.930 . S
C644 N641 1.279 . S
C644 C643 1.358 . S
C644 H647 0.930 . S
C645 C642 1.348 . S
C645 C643 1.356 . S
H646 C640 0.930 . S
H647 C644 0.930 . S
C648 C650 1.348 . S
C648 C651 1.356 1_556 S
C648 O678 1.325 . S
N649 C652 1.314 1_554 S
N649 C653 1.279 . S
C650 C648 1.348 . S
C650 C652 1.353 . S
C650 H692 0.929 . S
C651 C648 1.356 1_554 S
C651 C653 1.358 . S
C651 H693 0.930 . S
C652 N649 1.314 1_556 S
C652 C650 1.353 . S
C652 H694 0.930 . S
C653 N649 1.279 . S
C653 C651 1.358 . S
C653 H695 0.930 . S
C654 C655 1.348 . S
C654 C656 1.356 . S
C654 O679 1.325 . S
C655 C654 1.348 . S
C655 C657 1.353 . S
C655 H696 0.929 1_655 S
C656 C654 1.356 . S
C656 C658 1.358 . S
C656 H697 0.930 . S
C657 C655 1.353 . S
C657 N659 1.314 . S
C657 H698 0.930 . S
C658 C656 1.358 . S
C658 N659 1.279 . S
C658 H699 0.930 . S
N659 C657 1.314 . S
N659 C658 1.279 . S
C660 C662 1.330 1_556 S
C660 N663 1.335 . S
C660 H666 0.930 . S
C661 N663 1.258 1_455 S
C661 C664 1.358 1_556 S
C661 H667 0.930 . S
C662 C660 1.330 1_554 S
C662 C665 1.363 . S
C662 H700 0.938 . S
N663 Li618 1.992 1_655 S
N663 C660 1.335 . S
N663 C661 1.258 1_655 S
C664 C661 1.358 1_554 S
C664 C665 1.356 1_455 S
C664 H701 0.930 . S
C665 C662 1.363 . S
C665 C664 1.356 1_655 S
H666 C660 0.930 . S
H667 C661 0.930 . S
C668 N669 1.314 . S
C668 C670 1.353 . S
C668 H674 0.930 . S
N669 Li619 1.990 . S
N669 C668 1.314 . S
N669 C672 1.279 . S
C670 C668 1.353 . S
C670 C673 1.348 . S
C670 H702 0.929 . S
C671 C672 1.358 . S
C671 C673 1.356 . S
C671 H703 0.930 . S
C672 N669 1.279 . S
C672 C671 1.358 . S
C672 H675 0.930 . S
C673 C670 1.348 . S
C673 C671 1.356 . S
H674 C668 0.930 . S
H675 C672 0.930 . S
O676 Li616 1.956 1_655 S
O676 Li617 1.970 . S
O676 Li618 1.958 1_655 S
O676 C620 1.325 . S
O677 Li616 1.970 . S
O677 Li617 1.956 1_455 S
O677 Li619 1.961 . S
O677 C626 1.325 . S
O678 Li616 1.961 . S
O678 Li618 1.958 . S
O678 Li619 1.970 . S
O678 C648 1.325 . S
O679 Li617 1.961 . S
O679 Li618 1.970 1_655 S
O679 Li619 1.956 1_655 S
O679 C654 1.325 . S
H680 C622 0.929 . S
H681 C623 0.930 . S
H682 C624 0.930 . S
H683 C625 0.930 . S
H684 C627 0.930 . S
H685 C629 0.929 . S
H686 C630 0.930 . S
H687 C631 0.937 . S
H688 C634 0.930 . S
H689 C637 0.929 . S
H690 C642 0.929 . S
H691 C643 0.930 . S
H692 C650 0.929 . S
H693 C651 0.930 . S
H694 C652 0.930 . S
H695 C653 0.930 . S
H696 C655 0.929 1_455 S
H697 C656 0.930 . S
H698 C657 0.930 . S
H699 C658 0.930 . S
H700 C662 0.938 . S
H701 C664 0.930 . S
H702 C670 0.929 . S
H703 C671 0.930 . S
Li704 N721 1.990 . S
Li704 O764 1.956 1_545 S
Li704 O765 1.970 . S
Li704 O766 1.961 . S
Li705 N729 1.990 . S
Li705 O764 1.970 . S
Li705 O765 1.956 1_565 S
Li705 O767 1.961 . S
Li706 N751 1.990 . S
Li706 O764 1.961 1_545 S
Li706 O766 1.956 . S
Li706 O767 1.970 1_545 S
Li707 N757 1.990 . S
Li707 O765 1.961 . S
Li707 O766 1.970 . S
Li707 O767 1.955 1_545 S
C708 C710 1.348 . S
C708 C711 1.356 . S
C708 O764 1.325 . S
N709 C712 1.314 . S
N709 C713 1.279 . S
C710 C708 1.348 . S
C710 C712 1.353 . S
C710 H768 0.929 . S
C711 C708 1.356 . S
C711 C713 1.358 . S
C711 H769 0.930 . S
C712 N709 1.314 . S
C712 C710 1.353 . S
C712 H770 0.930 . S
C713 N709 1.279 . S
C713 C711 1.358 . S
C713 H771 0.930 . S
C714 C717 1.330 1_545 S
C714 C718 1.356 . S
C714 O765 1.325 . S
C715 N716 1.280 1_545 S
C715 C718 1.358 . S
C715 H772 0.930 . S
N716 C715 1.280 1_565 S
N716 C719 1.314 . S
C717 C714 1.330 1_565 S
C717 C719 1.354 . S
C717 H773 0.949 . S
C718 C714 1.356 . S
C718 C715 1.358 . S
C718 H774 0.930 . S
C719 N716 1.314 . S
C719 C717 1.354 . S
C719 H775 0.930 . S
C720 N721 1.314 . S
C720 C725 1.353 . S
C720 H726 0.930 . S
N721 Li704 1.990 . S
N721 C720 1.314 . S
N721 C723 1.279 1_545 S
C722 C723 1.356 . S
C722 C724 1.339 1_565 S
C722 H776 0.949 . S
C723 N721 1.279 1_565 S
C723 C722 1.356 . S
C723 H727 0.930 . S
C724 C722 1.339 1_545 S
C724 C725 1.348 . S
C725 C720 1.353 . S
C725 C724 1.348 . S
C725 H777 0.929 . S
H726 C720 0.930 . S
H727 C723 0.930 . S
C728 N729 1.314 . S
C728 C730 1.353 . S
C728 H734 0.930 . S
N729 Li705 1.990 . S
N729 C728 1.314 . S
N729 C732 1.279 . S
C730 C728 1.353 . S
C730 C733 1.348 . S
C730 H778 0.929 . S
C731 C732 1.358 . S
C731 C733 1.356 . S
C731 H779 0.930 . S
C732 N729 1.279 . S
C732 C731 1.358 . S
C732 H735 0.930 . S
C733 C730 1.348 . S
C733 C731 1.356 . S
H734 C728 0.930 . S
H735 C732 0.930 . S
C736 C738 1.348 . S
C736 C739 1.356 . S
C736 O766 1.325 . S
N737 C740 1.314 . S
N737 C741 1.279 . S
C738 C736 1.348 . S
C738 C740 1.353 . S
C738 H780 0.929 . S
C739 C736 1.356 . S
C739 C741 1.358 . S
C739 H781 0.930 . S
C740 N737 1.314 . S
C740 C738 1.353 . S
C740 H782 0.930 . S
C741 N737 1.279 . S
C741 C739 1.358 . S
C741 H783 0.930 . S
C742 C743 1.348 1_565 S
C742 C744 1.356 . S
C742 O767 1.325 . S
C743 C742 1.348 1_545 S
C743 C745 1.352 . S
C743 H784 0.929 . S
C744 C742 1.356 . S
C744 C746 1.358 . S
C744 H785 0.930 . S
C745 C743 1.352 . S
C745 N747 1.313 1_545 S
C745 H786 0.933 . S
C746 C744 1.358 . S
C746 N747 1.279 . S
C746 H787 0.930 . S
N747 C745 1.313 1_565 S
N747 C746 1.279 . S
C748 C750 1.353 . S
C748 N751 1.314 1_565 S
C748 H754 0.930 . S
C749 N751 1.279 . S
C749 C752 1.358 . S
C749 H755 0.930 . S
C750 C748 1.353 . S
C750 C753 1.348 1_565 S
C750 H788 0.929 . S
N751 Li706 1.990 . S
N751 C748 1.314 1_545 S
N751 C749 1.279 . S
C752 C749 1.358 . S
C752 C753 1.356 . S
C752 H789 0.930 . S
C753 C750 1.348 1_545 S
C753 C752 1.356 . S
H754 C748 0.930 . S
H755 C749 0.930 . S
C756 N757 1.314 . S
C756 C758 1.353 . S
C756 H762 0.930 . S
N757 Li707 1.990 . S
N757 C756 1.314 . S
N757 C760 1.279 . S
C758 C756 1.353 . S
C758 C761 1.348 . S
C758 H790 0.929 . S
C759 C760 1.358 . S
C759 C761 1.356 . S
C759 H791 0.930 . S
C760 N757 1.279 . S
C760 C759 1.358 . S
C760 H763 0.930 . S
C761 C758 1.348 . S
C761 C759 1.356 . S
H762 C756 0.930 . S
H763 C760 0.930 . S
O764 Li704 1.956 1_565 S
O764 Li705 1.970 . S
O764 Li706 1.961 1_565 S
O764 C708 1.325 . S
O765 Li704 1.970 . S
O765 Li705 1.956 1_545 S
O765 Li707 1.961 . S
O765 C714 1.325 . S
O766 Li704 1.961 . S
O766 Li706 1.956 . S
O766 Li707 1.970 . S
O766 C736 1.325 . S
O767 Li705 1.961 . S
O767 Li706 1.970 1_565 S
O767 Li707 1.955 1_565 S
O767 C742 1.325 . S
H768 C710 0.929 . S
H769 C711 0.930 . S
H770 C712 0.930 . S
H771 C713 0.930 . S
H772 C715 0.930 . S
H773 C717 0.949 . S
H774 C718 0.930 . S
H775 C719 0.930 . S
H776 C722 0.949 . S
H777 C725 0.929 . S
H778 C730 0.929 . S
H779 C731 0.930 . S
H780 C738 0.929 . S
H781 C739 0.930 . S
H782 C740 0.930 . S
H783 C741 0.930 . S
H784 C743 0.929 . S
H785 C744 0.930 . S
H786 C745 0.933 . S
H787 C746 0.930 . S
H788 C750 0.929 . S
H789 C752 0.930 . S
H790 C758 0.929 . S
H791 C759 0.930 . S
Li792 N809 1.990 . S
Li792 O852 1.956 . S
Li792 O853 1.970 . S
Li792 O854 1.961 . S
Li793 N817 1.990 . S
Li793 O852 1.970 . S
Li793 O853 1.956 . S
Li793 O855 1.961 . S
Li794 N839 1.990 . S
Li794 O852 1.961 . S
Li794 O854 1.956 . S
Li794 O855 1.970 . S
Li795 N845 1.990 . S
Li795 O853 1.961 . S
Li795 O854 1.970 . S
Li795 O855 1.956 . S
C796 C798 1.348 . S
C796 C799 1.356 . S
C796 O852 1.325 . S
N797 C800 1.314 . S
N797 C801 1.279 . S
C798 C796 1.348 . S
C798 C800 1.353 . S
C798 H856 0.929 . S
C799 C796 1.356 . S
C799 C801 1.358 . S
C799 H857 0.930 . S
C800 N797 1.314 . S
C800 C798 1.353 . S
C800 H858 0.930 . S
C801 N797 1.279 . S
C801 C799 1.358 . S
C801 H859 0.930 . S
C802 C805 1.348 . S
C802 C806 1.356 . S
C802 O853 1.325 . S
C803 N804 1.279 . S
C803 C806 1.358 . S
C803 H860 0.930 . S
N804 C803 1.279 . S
N804 C807 1.314 . S
C805 C802 1.348 . S
C805 C807 1.353 . S
C805 H861 0.929 . S
C806 C802 1.356 . S
C806 C803 1.358 . S
C806 H862 0.930 . S
C807 N804 1.314 . S
C807 C805 1.353 . S
C807 H863 0.930 . S
C808 N809 1.314 . S
C808 C813 1.353 . S
C808 H814 0.930 . S
N809 Li792 1.990 . S
N809 C808 1.314 . S
N809 C811 1.279 . S
C810 C811 1.358 . S
C810 C812 1.356 . S
C810 H864 0.930 . S
C811 N809 1.279 . S
C811 C810 1.358 . S
C811 H815 0.930 . S
C812 C810 1.356 . S
C812 C813 1.348 . S
C813 C808 1.353 . S
C813 C812 1.348 . S
C813 H865 0.929 . S
H814 C808 0.930 . S
H815 C811 0.930 . S
C816 N817 1.314 . S
C816 C818 1.353 . S
C816 H822 0.930 . S
N817 Li793 1.990 . S
N817 C816 1.314 . S
N817 C820 1.279 . S
C818 C816 1.353 . S
C818 C821 1.348 . S
C818 H866 0.929 . S
C819 C820 1.358 . S
C819 C821 1.356 . S
C819 H867 0.930 . S
C820 N817 1.279 . S
C820 C819 1.358 . S
C820 H823 0.930 . S
C821 C818 1.348 . S
C821 C819 1.356 . S
H822 C816 0.930 . S
H823 C820 0.930 . S
C824 C826 1.348 . S
C824 C827 1.356 . S
C824 O854 1.325 . S
N825 C828 1.314 . S
N825 C829 1.279 . S
C826 C824 1.348 . S
C826 C828 1.353 . S
C826 H868 0.929 . S
C827 C824 1.356 . S
C827 C829 1.358 . S
C827 H869 0.930 . S
C828 N825 1.314 . S
C828 C826 1.353 . S
C828 H870 0.930 . S
C829 N825 1.279 . S
C829 C827 1.358 . S
C829 H871 0.930 . S
C830 C831 1.348 . S
C830 C832 1.356 . S
C830 O855 1.325 . S
C831 C830 1.348 . S
C831 C833 1.353 . S
C831 H872 0.929 . S
C832 C830 1.356 . S
C832 C834 1.358 . S
C832 H873 0.930 . S
C833 C831 1.353 . S
C833 N835 1.314 . S
C833 H874 0.930 . S
C834 C832 1.358 . S
C834 N835 1.279 . S
C834 H875 0.930 . S
N835 C833 1.314 . S
N835 C834 1.279 . S
C836 C838 1.353 . S
C836 N839 1.314 . S
C836 H842 0.930 . S
C837 N839 1.279 . S
C837 C840 1.358 . S
C837 H843 0.930 . S
C838 C836 1.353 . S
C838 C841 1.348 . S
C838 H876 0.929 . S
N839 Li794 1.990 . S
N839 C836 1.314 . S
N839 C837 1.279 . S
C840 C837 1.358 . S
C840 C841 1.356 . S
C840 H877 0.930 . S
C841 C838 1.348 . S
C841 C840 1.356 . S
H842 C836 0.930 . S
H843 C837 0.930 . S
C844 N845 1.314 . S
C844 C846 1.353 . S
C844 H850 0.930 . S
N845 Li795 1.990 . S
N845 C844 1.314 . S
N845 C848 1.279 . S
C846 C844 1.353 . S
C846 C849 1.348 . S
C846 H878 0.929 . S
C847 C848 1.358 . S
C847 C849 1.356 . S
C847 H879 0.930 . S
C848 N845 1.279 . S
C848 C847 1.358 . S
C848 H851 0.930 . S
C849 C846 1.348 . S
C849 C847 1.356 . S
H850 C844 0.930 . S
H851 C848 0.930 . S
O852 Li792 1.956 . S
O852 Li793 1.970 . S
O852 Li794 1.961 . S
O852 C796 1.325 . S
O853 Li792 1.970 . S
O853 Li793 1.956 . S
O853 Li795 1.961 . S
O853 C802 1.325 . S
O854 Li792 1.961 . S
O854 Li794 1.956 . S
O854 Li795 1.970 . S
O854 C824 1.325 . S
O855 Li793 1.961 . S
O855 Li794 1.970 . S
O855 Li795 1.956 . S
O855 C830 1.325 . S
H856 C798 0.929 . S
H857 C799 0.930 . S
H858 C800 0.930 . S
H859 C801 0.930 . S
H860 C803 0.930 . S
H861 C805 0.929 . S
H862 C806 0.930 . S
H863 C807 0.930 . S
H864 C810 0.930 . S
H865 C813 0.929 . S
H866 C818 0.929 . S
H867 C819 0.930 . S
H868 C826 0.929 . S
H869 C827 0.930 . S
H870 C828 0.930 . S
H871 C829 0.930 . S
H872 C831 0.929 . S
H873 C832 0.930 . S
H874 C833 0.930 . S
H875 C834 0.930 . S
H876 C838 0.929 . S
H877 C840 0.930 . S
H878 C846 0.929 . S
H879 C847 0.930 . S
Li880 N897 1.990 . S
Li880 O940 1.956 . S
Li880 O941 1.970 . S
Li880 O942 1.961 . S
Li881 N905 1.990 . S
Li881 O940 1.970 . S
Li881 O941 1.956 . S
Li881 O943 1.961 . S
Li882 N927 1.990 . S
Li882 O940 1.961 . S
Li882 O942 1.956 . S
Li882 O943 1.970 . S
Li883 N933 1.990 . S
Li883 O941 1.961 . S
Li883 O942 1.970 . S
Li883 O943 1.956 . S
C884 C886 1.348 . S
C884 C887 1.356 . S
C884 O940 1.325 . S
N885 C888 1.314 . S
N885 C889 1.279 . S
C886 C884 1.348 . S
C886 C888 1.353 . S
C886 H944 0.929 . S
C887 C884 1.356 . S
C887 C889 1.358 . S
C887 H945 0.930 . S
C888 N885 1.314 . S
C888 C886 1.353 . S
C888 H946 0.930 . S
C889 N885 1.279 . S
C889 C887 1.358 . S
C889 H947 0.930 . S
C890 C893 1.348 . S
C890 C894 1.356 . S
C890 O941 1.325 . S
C891 N892 1.279 . S
C891 C894 1.358 . S
C891 H948 0.930 . S
N892 C891 1.279 . S
N892 C895 1.314 . S
C893 C890 1.348 . S
C893 C895 1.353 . S
C893 H949 0.929 . S
C894 C890 1.356 . S
C894 C891 1.358 . S
C894 H950 0.930 . S
C895 N892 1.314 . S
C895 C893 1.353 . S
C895 H951 0.930 . S
C896 N897 1.314 . S
C896 C901 1.353 . S
C896 H902 0.930 . S
N897 Li880 1.990 . S
N897 C896 1.314 . S
N897 C899 1.279 . S
C898 C899 1.358 . S
C898 C900 1.356 . S
C898 H952 0.930 . S
C899 N897 1.279 . S
C899 C898 1.358 . S
C899 H903 0.930 . S
C900 C898 1.356 . S
C900 C901 1.348 . S
C901 C896 1.353 . S
C901 C900 1.348 . S
C901 H953 0.929 . S
H902 C896 0.930 . S
H903 C899 0.930 . S
C904 N905 1.314 . S
C904 C906 1.353 . S
C904 H910 0.930 . S
N905 Li881 1.990 . S
N905 C904 1.314 . S
N905 C908 1.279 . S
C906 C904 1.353 . S
C906 C909 1.348 . S
C906 H954 0.929 . S
C907 C908 1.358 . S
C907 C909 1.356 . S
C907 H955 0.930 . S
C908 N905 1.279 . S
C908 C907 1.358 . S
C908 H911 0.930 . S
C909 C906 1.348 . S
C909 C907 1.356 . S
H910 C904 0.930 . S
H911 C908 0.930 . S
C912 C914 1.348 . S
C912 C915 1.356 . S
C912 O942 1.325 . S
N913 C916 1.314 . S
N913 C917 1.279 . S
C914 C912 1.348 . S
C914 C916 1.353 . S
C914 H956 0.929 . S
C915 C912 1.356 . S
C915 C917 1.358 . S
C915 H957 0.930 . S
C916 N913 1.314 . S
C916 C914 1.353 . S
C916 H958 0.930 . S
C917 N913 1.279 . S
C917 C915 1.358 . S
C917 H959 0.930 . S
C918 C919 1.348 . S
C918 C920 1.356 . S
C918 O943 1.325 1_565 S
C919 C918 1.348 . S
C919 C921 1.353 . S
C919 H960 0.929 . S
C920 C918 1.356 . S
C920 C922 1.358 . S
C920 H961 0.930 1_565 S
C921 C919 1.353 . S
C921 N923 1.314 . S
C921 H962 0.930 . S
C922 C920 1.358 . S
C922 N923 1.279 . S
C922 H963 0.930 . S
N923 C921 1.314 . S
N923 C922 1.279 . S
C924 C926 1.353 . S
C924 N927 1.314 1_565 S
C924 H930 0.930 . S
C925 N927 1.279 1_565 S
C925 C928 1.358 . S
C925 H931 0.918 1_565 S
C926 C924 1.353 . S
C926 C929 1.348 . S
C926 H964 0.929 . S
N927 Li882 1.990 . S
N927 C924 1.314 1_545 S
N927 C925 1.279 1_545 S
C928 C925 1.358 . S
C928 C929 1.356 . S
C928 H965 0.930 . S
C929 C926 1.348 . S
C929 C928 1.356 . S
H930 C924 0.930 . S
H931 C925 0.918 1_545 S
C932 N933 1.314 . S
C932 C934 1.353 . S
C932 H938 0.930 . S
N933 Li883 1.990 . S
N933 C932 1.314 . S
N933 C936 1.279 . S
C934 C932 1.353 . S
C934 C937 1.348 . S
C934 H966 0.929 . S
C935 C936 1.358 . S
C935 C937 1.356 . S
C935 H967 0.930 1_545 S
C936 N933 1.279 . S
C936 C935 1.358 . S
C936 H939 0.930 . S
C937 C934 1.348 . S
C937 C935 1.356 . S
H938 C932 0.930 . S
H939 C936 0.930 . S
O940 Li880 1.956 . S
O940 Li881 1.970 . S
O940 Li882 1.961 . S
O940 C884 1.325 . S
O941 Li880 1.970 . S
O941 Li881 1.956 . S
O941 Li883 1.961 . S
O941 C890 1.325 . S
O942 Li880 1.961 . S
O942 Li882 1.956 . S
O942 Li883 1.970 . S
O942 C912 1.325 . S
O943 Li881 1.961 . S
O943 Li882 1.970 . S
O943 Li883 1.956 . S
O943 C918 1.325 1_545 S
H944 C886 0.929 . S
H945 C887 0.930 . S
H946 C888 0.930 . S
H947 C889 0.930 . S
H948 C891 0.930 . S
H949 C893 0.929 . S
H950 C894 0.930 . S
H951 C895 0.930 . S
H952 C898 0.930 . S
H953 C901 0.929 . S
H954 C906 0.929 . S
H955 C907 0.930 . S
H956 C914 0.929 . S
H957 C915 0.930 . S
H958 C916 0.930 . S
H959 C917 0.930 . S
H960 C919 0.929 . S
H961 C920 0.930 1_545 S
H962 C921 0.930 . S
H963 C922 0.930 . S
H964 C926 0.929 . S
H965 C928 0.930 . S
H966 C934 0.929 . S
H967 C935 0.930 1_565 S
Li968 N985 1.991 . S
Li968 O1028 1.979 . S
Li968 O1029 1.971 1_554 S
Li968 O1030 1.934 1_554 S
Li969 N993 1.990 . S
Li969 O1028 1.970 . S
Li969 O1029 1.956 1_554 S
Li969 O1031 1.961 . S
Li970 N1015 1.990 . S
Li970 O1028 1.961 . S
Li970 O1030 1.956 1_554 S
Li970 O1031 1.970 . S
Li971 N1021 1.990 . S
Li971 O1029 1.961 . S
Li971 O1030 1.970 . S
Li971 O1031 1.956 1_556 S
C972 C974 1.348 . S
C972 C975 1.356 . S
C972 O1028 1.325 . S
N973 C976 1.314 . S
N973 C977 1.280 . S
C974 C972 1.348 . S
C974 C976 1.353 . S
C974 H1032 0.929 . S
C975 C972 1.356 . S
C975 C977 1.360 . S
C975 H1033 0.930 . S
C976 N973 1.314 . S
C976 C974 1.353 . S
C976 H1034 0.930 . S
C977 N973 1.280 . S
C977 C975 1.360 . S
C977 H1035 0.928 1_565 S
C978 C981 1.340 1_556 S
C978 C982 1.356 . S
C978 O1029 1.325 . S
C979 N980 1.279 . S
C979 C982 1.358 . S
C979 H1036 0.930 . S
N980 C979 1.279 . S
N980 C983 1.314 . S
C981 C978 1.340 1_554 S
C981 C983 1.355 1_554 S
C981 H1037 0.936 . S
C982 C978 1.356 . S
C982 C979 1.358 . S
C982 H1038 0.930 . S
C983 N980 1.314 . S
C983 C981 1.355 1_556 S
C983 H1039 0.930 1_556 S
C984 N985 1.314 1_556 S
C984 C989 1.353 . S
C984 H990 0.930 . S
N985 Li968 1.991 . S
N985 C984 1.314 1_554 S
N985 C987 1.279 . S
C986 C987 1.358 . S
C986 C988 1.337 1_554 S
C986 H1040 0.930 . S
C987 N985 1.279 . S
C987 C986 1.358 . S
C987 H991 0.930 . S
C988 C986 1.337 1_556 S
C988 C989 1.367 . S
C989 C984 1.353 . S
C989 C988 1.367 . S
C989 H1041 0.929 . S
H990 C984 0.930 . S
H991 C987 0.930 . S
C992 N993 1.314 . S
C992 C994 1.353 . S
C992 H998 0.930 . S
N993 Li969 1.990 . S
N993 C992 1.314 . S
N993 C996 1.279 . S
C994 C992 1.353 . S
C994 C997 1.348 . S
C994 H1042 0.929 . S
C995 C996 1.358 . S
C995 C997 1.356 . S
C995 H1043 0.930 . S
C996 N993 1.279 . S
C996 C995 1.358 . S
C996 H999 0.930 . S
C997 C994 1.348 . S
C997 C995 1.356 . S
H998 C992 0.930 . S
H999 C996 0.930 . S
C1000 C1002 1.348 . S
C1000 C1003 1.356 . S
C1000 O1030 1.325 . S
N1001 C1004 1.314 . S
N1001 C1005 1.279 . S
C1002 C1000 1.348 . S
C1002 C1004 1.353 . S
C1002 H1044 0.929 . S
C1003 C1000 1.356 . S
C1003 C1005 1.358 . S
C1003 H1045 0.930 . S
C1004 N1001 1.314 . S
C1004 C1002 1.353 . S
C1004 H1046 0.930 . S
C1005 N1001 1.279 . S
C1005 C1003 1.358 . S
C1005 H1047 0.930 1_565 S
C1006 C1007 1.340 1_554 S
C1006 C1008 1.361 . S
C1006 O1031 1.326 . S
C1007 C1006 1.340 1_556 S
C1007 C1009 1.353 . S
C1007 H1048 0.929 . S
C1008 C1006 1.361 . S
C1008 C1010 1.358 . S
C1008 H1049 0.930 . S
C1009 C1007 1.353 . S
C1009 N1011 1.314 . S
C1009 H1050 0.930 . S
C1010 C1008 1.358 . S
C1010 N1011 1.279 1_554 S
C1010 H1051 0.930 . S
N1011 C1009 1.314 . S
N1011 C1010 1.279 1_556 S
C1012 C1014 1.353 . S
C1012 N1015 1.314 . S
C1012 H1018 0.930 . S
C1013 N1015 1.279 1_556 S
C1013 C1016 1.358 . S
C1013 H1019 0.930 . S
C1014 C1012 1.353 . S
C1014 C1017 1.329 1_565 S
C1014 H1052 0.929 . S
N1015 Li970 1.990 . S
N1015 C1012 1.314 . S
N1015 C1013 1.279 1_554 S
C1016 C1013 1.358 . S
C1016 C1017 1.359 1_566 S
C1016 H1053 0.930 1_565 S
C1017 C1014 1.329 1_545 S
C1017 C1016 1.359 1_544 S
H1018 C1012 0.930 . S
H1019 C1013 0.930 . S
C1020 N1021 1.314 . S
C1020 C1022 1.353 . S
C1020 H1026 0.930 . S
N1021 Li971 1.990 . S
N1021 C1020 1.314 . S
N1021 C1024 1.279 . S
C1022 C1020 1.353 . S
C1022 C1025 1.348 . S
C1022 H1054 0.929 . S
C1023 C1024 1.358 . S
C1023 C1025 1.356 . S
C1023 H1055 0.930 . S
C1024 N1021 1.279 . S
C1024 C1023 1.358 . S
C1024 H1027 0.930 . S
C1025 C1022 1.348 . S
C1025 C1023 1.356 . S
H1026 C1020 0.930 . S
H1027 C1024 0.930 . S
O1028 Li968 1.979 . S
O1028 Li969 1.970 . S
O1028 Li970 1.961 . S
O1028 C972 1.325 . S
O1029 Li968 1.971 1_556 S
O1029 Li969 1.956 1_556 S
O1029 Li971 1.961 . S
O1029 C978 1.325 . S
O1030 Li968 1.934 1_556 S
O1030 Li970 1.956 1_556 S
O1030 Li971 1.970 . S
O1030 C1000 1.325 . S
O1031 Li969 1.961 . S
O1031 Li970 1.970 . S
O1031 Li971 1.956 1_554 S
O1031 C1006 1.326 . S
H1032 C974 0.929 . S
H1033 C975 0.930 . S
H1034 C976 0.930 . S
H1035 C977 0.928 1_545 S
H1036 C979 0.930 . S
H1037 C981 0.936 . S
H1038 C982 0.930 . S
H1039 C983 0.930 1_554 S
H1040 C986 0.930 . S
H1041 C989 0.929 . S
H1042 C994 0.929 . S
H1043 C995 0.930 . S
H1044 C1002 0.929 . S
H1045 C1003 0.930 . S
H1046 C1004 0.930 . S
H1047 C1005 0.930 1_545 S
H1048 C1007 0.929 . S
H1049 C1008 0.930 . S
H1050 C1009 0.930 . S
H1051 C1010 0.930 . S
H1052 C1014 0.929 . S
H1053 C1016 0.930 1_545 S
H1054 C1022 0.929 . S
H1055 C1023 0.930 . S
Li1056 N1073 1.990 . S
Li1056 O1116 1.956 . S
Li1056 O1117 1.970 . S
Li1056 O1118 1.961 . S
Li1057 N1081 1.990 . S
Li1057 O1116 1.970 . S
Li1057 O1117 1.956 . S
Li1057 O1119 1.961 . S
Li1058 N1103 1.990 . S
Li1058 O1116 1.961 . S
Li1058 O1118 1.956 . S
Li1058 O1119 1.970 . S
Li1059 N1109 1.990 1_554 S
Li1059 O1117 1.961 . S
Li1059 O1118 1.970 . S
Li1059 O1119 1.956 . S
C1060 C1062 1.348 . S
C1060 C1063 1.356 . S
C1060 O1116 1.325 . S
N1061 C1064 1.314 . S
N1061 C1065 1.279 . S
C1062 C1060 1.348 . S
C1062 C1064 1.353 . S
C1062 H1120 0.929 . S
C1063 C1060 1.356 . S
C1063 C1065 1.358 . S
C1063 H1121 0.930 . S
C1064 N1061 1.314 . S
C1064 C1062 1.353 . S
C1064 H1122 0.930 . S
C1065 N1061 1.279 . S
C1065 C1063 1.358 . S
C1065 H1123 0.930 . S
C1066 C1069 1.348 . S
C1066 C1070 1.356 . S
C1066 O1117 1.325 . S
C1067 N1068 1.279 . S
C1067 C1070 1.358 . S
C1067 H1124 0.930 . S
N1068 C1067 1.279 . S
N1068 C1071 1.314 . S
C1069 C1066 1.348 . S
C1069 C1071 1.353 . S
C1069 H1125 0.929 . S
C1070 C1066 1.356 . S
C1070 C1067 1.358 . S
C1070 H1126 0.930 . S
C1071 N1068 1.314 . S
C1071 C1069 1.353 . S
C1071 H1127 0.930 . S
C1072 N1073 1.314 . S
C1072 C1077 1.353 . S
C1072 H1078 0.930 . S
N1073 Li1056 1.990 . S
N1073 C1072 1.314 . S
N1073 C1075 1.279 . S
C1074 C1075 1.358 . S
C1074 C1076 1.356 . S
C1074 H1128 0.930 . S
C1075 N1073 1.279 . S
C1075 C1074 1.358 . S
C1075 H1079 0.930 . S
C1076 C1074 1.356 . S
C1076 C1077 1.348 . S
C1077 C1072 1.353 . S
C1077 C1076 1.348 . S
C1077 H1129 0.929 . S
H1078 C1072 0.930 . S
H1079 C1075 0.930 . S
C1080 N1081 1.314 . S
C1080 C1082 1.353 . S
C1080 H1086 0.930 . S
N1081 Li1057 1.990 . S
N1081 C1080 1.314 . S
N1081 C1084 1.279 . S
C1082 C1080 1.353 . S
C1082 C1085 1.348 . S
C1082 H1130 0.929 . S
C1083 C1084 1.358 . S
C1083 C1085 1.356 . S
C1083 H1131 0.930 . S
C1084 N1081 1.279 . S
C1084 C1083 1.358 . S
C1084 H1087 0.930 . S
C1085 C1082 1.348 . S
C1085 C1083 1.356 . S
H1086 C1080 0.930 . S
H1087 C1084 0.930 . S
C1088 C1090 1.338 1_554 S
C1088 C1091 1.356 . S
C1088 O1118 1.334 . S
N1089 C1092 1.314 . S
N1089 C1093 1.279 . S
C1090 C1088 1.338 1_556 S
C1090 C1092 1.353 . S
C1090 H1132 0.929 . S
C1091 C1088 1.356 . S
C1091 C1093 1.358 1_554 S
C1091 H1133 0.930 . S
C1092 N1089 1.314 . S
C1092 C1090 1.353 . S
C1092 H1134 0.930 . S
C1093 N1089 1.279 . S
C1093 C1091 1.358 1_556 S
C1093 H1135 0.930 . S
C1094 C1095 1.348 . S
C1094 C1096 1.356 . S
C1094 O1119 1.325 . S
C1095 C1094 1.348 . S
C1095 C1097 1.353 . S
C1095 H1136 0.929 . S
C1096 C1094 1.356 . S
C1096 C1098 1.358 . S
C1096 H1137 0.930 . S
C1097 C1095 1.353 . S
C1097 N1099 1.314 . S
C1097 H1138 0.930 . S
C1098 C1096 1.358 . S
C1098 N1099 1.279 . S
C1098 H1139 0.930 . S
N1099 C1097 1.314 . S
N1099 C1098 1.279 . S
C1100 C1102 1.353 . S
C1100 N1103 1.314 . S
C1100 H1106 0.930 . S
C1101 N1103 1.279 . S
C1101 C1104 1.358 . S
C1101 H1107 0.930 . S
C1102 C1100 1.353 . S
C1102 C1105 1.348 . S
C1102 H1140 0.929 . S
N1103 Li1058 1.990 . S
N1103 C1100 1.314 . S
N1103 C1101 1.279 . S
C1104 C1101 1.358 . S
C1104 C1105 1.356 . S
C1104 H1141 0.930 . S
C1105 C1102 1.348 . S
C1105 C1104 1.356 . S
H1106 C1100 0.930 . S
H1107 C1101 0.930 . S
C1108 N1109 1.314 . S
C1108 C1110 1.353 . S
C1108 H1114 0.930 . S
N1109 Li1059 1.990 1_556 S
N1109 C1108 1.314 . S
N1109 C1112 1.279 . S
C1110 C1108 1.353 . S
C1110 C1113 1.348 . S
C1110 H1142 0.929 . S
C1111 C1112 1.358 . S
C1111 C1113 1.356 . S
C1111 H1143 0.930 . S
C1112 N1109 1.279 . S
C1112 C1111 1.358 . S
C1112 H1115 0.930 . S
C1113 C1110 1.348 . S
C1113 C1111 1.356 . S
H1114 C1108 0.930 . S
H1115 C1112 0.930 . S
O1116 Li1056 1.956 . S
O1116 Li1057 1.970 . S
O1116 Li1058 1.961 . S
O1116 C1060 1.325 . S
O1117 Li1056 1.970 . S
O1117 Li1057 1.956 . S
O1117 Li1059 1.961 . S
O1117 C1066 1.325 . S
O1118 Li1056 1.961 . S
O1118 Li1058 1.956 . S
O1118 Li1059 1.970 . S
O1118 C1088 1.334 . S
O1119 Li1057 1.961 . S
O1119 Li1058 1.970 . S
O1119 Li1059 1.956 . S
O1119 C1094 1.325 . S
H1120 C1062 0.929 . S
H1121 C1063 0.930 . S
H1122 C1064 0.930 . S
H1123 C1065 0.930 . S
H1124 C1067 0.930 . S
H1125 C1069 0.929 . S
H1126 C1070 0.930 . S
H1127 C1071 0.930 . S
H1128 C1074 0.930 . S
H1129 C1077 0.929 . S
H1130 C1082 0.929 . S
H1131 C1083 0.930 . S
H1132 C1090 0.929 . S
H1133 C1091 0.930 . S
H1134 C1092 0.930 . S
H1135 C1093 0.930 . S
H1136 C1095 0.929 . S
H1137 C1096 0.930 . S
H1138 C1097 0.930 . S
H1139 C1098 0.930 . S
H1140 C1102 0.929 . S
H1141 C1104 0.930 . S
H1142 C1110 0.929 . S
H1143 C1111 0.930 . S
Li1144 N1161 1.990 . S
Li1144 O1204 1.956 . S
Li1144 O1205 1.970 . S
Li1144 O1206 1.961 . S
Li1145 N1169 1.990 . S
Li1145 O1204 1.970 . S
Li1145 O1205 1.956 . S
Li1145 O1207 1.961 . S
Li1146 N1191 1.990 . S
Li1146 O1204 1.961 . S
Li1146 O1206 1.956 . S
Li1146 O1207 1.970 . S
Li1147 N1197 1.990 . S
Li1147 O1205 1.961 . S
Li1147 O1206 1.970 . S
Li1147 O1207 1.956 . S
C1148 C1150 1.348 . S
C1148 C1151 1.356 . S
C1148 O1204 1.325 . S
N1149 C1152 1.314 . S
N1149 C1153 1.279 . S
C1150 C1148 1.348 . S
C1150 C1152 1.353 . S
C1150 H1208 0.929 . S
C1151 C1148 1.356 . S
C1151 C1153 1.358 . S
C1151 H1209 0.930 . S
C1152 N1149 1.314 . S
C1152 C1150 1.353 . S
C1152 H1210 0.930 . S
C1153 N1149 1.279 . S
C1153 C1151 1.358 . S
C1153 H1211 0.930 . S
C1154 C1157 1.348 . S
C1154 C1158 1.356 . S
C1154 O1205 1.325 . S
C1155 N1156 1.279 . S
C1155 C1158 1.358 . S
C1155 H1212 0.930 . S
N1156 C1155 1.279 . S
N1156 C1159 1.314 . S
C1157 C1154 1.348 . S
C1157 C1159 1.353 . S
C1157 H1213 0.929 . S
C1158 C1154 1.356 . S
C1158 C1155 1.358 . S
C1158 H1214 0.930 . S
C1159 N1156 1.314 . S
C1159 C1157 1.353 . S
C1159 H1215 0.930 . S
C1160 N1161 1.314 . S
C1160 C1165 1.353 . S
C1160 H1166 0.930 . S
N1161 Li1144 1.990 . S
N1161 C1160 1.314 . S
N1161 C1163 1.279 . S
C1162 C1163 1.358 . S
C1162 C1164 1.356 . S
C1162 H1216 0.930 . S
C1163 N1161 1.279 . S
C1163 C1162 1.358 . S
C1163 H1167 0.930 . S
C1164 C1162 1.356 . S
C1164 C1165 1.348 . S
C1165 C1160 1.353 . S
C1165 C1164 1.348 . S
C1165 H1217 0.929 . S
H1166 C1160 0.930 . S
H1167 C1163 0.930 . S
C1168 N1169 1.314 . S
C1168 C1170 1.353 . S
C1168 H1174 0.930 . S
N1169 Li1145 1.990 . S
N1169 C1168 1.314 . S
N1169 C1172 1.279 . S
C1170 C1168 1.353 . S
C1170 C1173 1.348 . S
C1170 H1218 0.929 . S
C1171 C1172 1.358 . S
C1171 C1173 1.356 . S
C1171 H1219 0.930 . S
C1172 N1169 1.279 . S
C1172 C1171 1.358 . S
C1172 H1175 0.930 . S
C1173 C1170 1.348 . S
C1173 C1171 1.356 . S
H1174 C1168 0.930 . S
H1175 C1172 0.930 . S
C1176 C1178 1.348 . S
C1176 C1179 1.356 . S
C1176 O1206 1.325 . S
N1177 C1180 1.314 . S
N1177 C1181 1.279 . S
C1178 C1176 1.348 . S
C1178 C1180 1.353 . S
C1178 H1220 0.929 . S
C1179 C1176 1.356 . S
C1179 C1181 1.358 . S
C1179 H1221 0.930 . S
C1180 N1177 1.314 . S
C1180 C1178 1.353 . S
C1180 H1222 0.930 . S
C1181 N1177 1.279 . S
C1181 C1179 1.358 . S
C1181 H1223 0.930 . S
C1182 C1183 1.348 1_554 S
C1182 C1184 1.356 . S
C1182 O1207 1.325 . S
C1183 C1182 1.348 1_556 S
C1183 C1185 1.353 . S
C1183 H1224 0.929 . S
C1184 C1182 1.356 . S
C1184 C1186 1.358 1_554 S
C1184 H1225 0.930 . S
C1185 C1183 1.353 . S
C1185 N1187 1.314 . S
C1185 H1226 0.930 . S
C1186 C1184 1.358 1_556 S
C1186 N1187 1.279 . S
C1186 H1227 0.930 . S
N1187 C1185 1.314 . S
N1187 C1186 1.279 . S
C1188 C1190 1.353 . S
C1188 N1191 1.314 1_556 S
C1188 H1194 0.930 1_556 S
C1189 N1191 1.279 . S
C1189 C1192 1.358 1_554 S
C1189 H1195 0.930 . S
C1190 C1188 1.353 . S
C1190 C1193 1.348 . S
C1190 H1228 0.929 . S
N1191 Li1146 1.990 . S
N1191 C1188 1.314 1_554 S
N1191 C1189 1.279 . S
C1192 C1189 1.358 1_556 S
C1192 C1193 1.356 . S
C1192 H1229 0.930 . S
C1193 C1190 1.348 . S
C1193 C1192 1.356 . S
H1194 C1188 0.930 1_554 S
H1195 C1189 0.930 . S
C1196 N1197 1.314 . S
C1196 C1198 1.353 . S
C1196 H1202 0.930 . S
N1197 Li1147 1.990 . S
N1197 C1196 1.314 . S
N1197 C1200 1.279 . S
C1198 C1196 1.353 . S
C1198 C1201 1.348 . S
C1198 H1230 0.929 . S
C1199 C1200 1.358 . S
C1199 C1201 1.356 . S
C1199 H1231 0.930 . S
C1200 N1197 1.279 . S
C1200 C1199 1.358 . S
C1200 H1203 0.930 . S
C1201 C1198 1.348 . S
C1201 C1199 1.356 . S
H1202 C1196 0.930 . S
H1203 C1200 0.930 . S
O1204 Li1144 1.956 . S
O1204 Li1145 1.970 . S
O1204 Li1146 1.961 . S
O1204 C1148 1.325 . S
O1205 Li1144 1.970 . S
O1205 Li1145 1.956 . S
O1205 Li1147 1.961 . S
O1205 C1154 1.325 . S
O1206 Li1144 1.961 . S
O1206 Li1146 1.956 . S
O1206 Li1147 1.970 . S
O1206 C1176 1.325 . S
O1207 Li1145 1.961 . S
O1207 Li1146 1.970 . S
O1207 Li1147 1.956 . S
O1207 C1182 1.325 . S
H1208 C1150 0.929 . S
H1209 C1151 0.930 . S
H1210 C1152 0.930 . S
H1211 C1153 0.930 . S
H1212 C1155 0.930 . S
H1213 C1157 0.929 . S
H1214 C1158 0.930 . S
H1215 C1159 0.930 . S
H1216 C1162 0.930 . S
H1217 C1165 0.929 . S
H1218 C1170 0.929 . S
H1219 C1171 0.930 . S
H1220 C1178 0.929 . S
H1221 C1179 0.930 . S
H1222 C1180 0.930 . S
H1223 C1181 0.930 . S
H1224 C1183 0.929 . S
H1225 C1184 0.930 . S
H1226 C1185 0.930 . S
H1227 C1186 0.930 . S
H1228 C1190 0.929 . S
H1229 C1192 0.930 . S
H1230 C1198 0.929 . S
H1231 C1199 0.930 . S
Li1232 N1249 1.990 . S
Li1232 O1292 1.956 . S
Li1232 O1293 1.970 . S
Li1232 O1294 1.961 . S
Li1233 N1257 1.990 . S
Li1233 O1292 1.970 . S
Li1233 O1293 1.956 . S
Li1233 O1295 1.961 . S
Li1234 N1279 1.990 . S
Li1234 O1292 1.961 . S
Li1234 O1294 1.956 . S
Li1234 O1295 1.970 . S
Li1235 N1285 1.990 . S
Li1235 O1293 1.961 . S
Li1235 O1294 1.970 . S
Li1235 O1295 1.956 . S
C1236 C1238 1.348 . S
C1236 C1239 1.356 . S
C1236 O1292 1.325 . S
N1237 C1240 1.314 . S
N1237 C1241 1.279 . S
C1238 C1236 1.348 . S
C1238 C1240 1.353 . S
C1238 H1296 0.929 . S
C1239 C1236 1.356 . S
C1239 C1241 1.358 . S
C1239 H1297 0.930 . S
C1240 N1237 1.314 . S
C1240 C1238 1.353 . S
C1240 H1298 0.930 . S
C1241 N1237 1.279 . S
C1241 C1239 1.358 . S
C1241 H1299 0.930 . S
C1242 C1245 1.348 . S
C1242 C1246 1.356 . S
C1242 O1293 1.325 . S
C1243 N1244 1.279 . S
C1243 C1246 1.358 . S
C1243 H1300 0.930 . S
N1244 C1243 1.279 . S
N1244 C1247 1.314 . S
C1245 C1242 1.348 . S
C1245 C1247 1.353 . S
C1245 H1301 0.929 . S
C1246 C1242 1.356 . S
C1246 C1243 1.358 . S
C1246 H1302 0.930 . S
C1247 N1244 1.314 . S
C1247 C1245 1.353 . S
C1247 H1303 0.930 . S
C1248 N1249 1.314 . S
C1248 C1253 1.353 . S
C1248 H1254 0.930 . S
N1249 Li1232 1.990 . S
N1249 C1248 1.314 . S
N1249 C1251 1.279 . S
C1250 C1251 1.358 . S
C1250 C1252 1.356 . S
C1250 H1304 0.930 . S
C1251 N1249 1.279 . S
C1251 C1250 1.358 . S
C1251 H1255 0.930 . S
C1252 C1250 1.356 . S
C1252 C1253 1.348 . S
C1253 C1248 1.353 . S
C1253 C1252 1.348 . S
C1253 H1305 0.929 . S
H1254 C1248 0.930 . S
H1255 C1251 0.930 . S
C1256 N1257 1.314 . S
C1256 C1258 1.353 . S
C1256 H1262 0.930 . S
N1257 Li1233 1.990 . S
N1257 C1256 1.314 . S
N1257 C1260 1.279 . S
C1258 C1256 1.353 . S
C1258 C1261 1.348 . S
C1258 H1306 0.929 . S
C1259 C1260 1.358 . S
C1259 C1261 1.356 . S
C1259 H1307 0.930 . S
C1260 N1257 1.279 . S
C1260 C1259 1.358 . S
C1260 H1263 0.930 . S
C1261 C1258 1.348 . S
C1261 C1259 1.356 . S
H1262 C1256 0.930 . S
H1263 C1260 0.930 . S
C1264 C1266 1.348 . S
C1264 C1267 1.356 . S
C1264 O1294 1.325 . S
N1265 C1268 1.314 . S
N1265 C1269 1.279 . S
C1266 C1264 1.348 . S
C1266 C1268 1.353 . S
C1266 H1308 0.929 . S
C1267 C1264 1.356 . S
C1267 C1269 1.358 . S
C1267 H1309 0.930 . S
C1268 N1265 1.314 . S
C1268 C1266 1.353 . S
C1268 H1310 0.930 . S
C1269 N1265 1.279 . S
C1269 C1267 1.358 . S
C1269 H1311 0.930 . S
C1270 C1271 1.348 . S
C1270 C1272 1.356 . S
C1270 O1295 1.325 . S
C1271 C1270 1.348 . S
C1271 C1273 1.353 . S
C1271 H1312 0.929 . S
C1272 C1270 1.356 . S
C1272 C1274 1.358 . S
C1272 H1313 0.930 . S
C1273 C1271 1.353 . S
C1273 N1275 1.314 . S
C1273 H1314 0.930 . S
C1274 C1272 1.358 . S
C1274 N1275 1.279 . S
C1274 H1315 0.930 . S
N1275 C1273 1.314 . S
N1275 C1274 1.279 . S
C1276 C1278 1.353 . S
C1276 N1279 1.314 . S
C1276 H1282 0.930 . S
C1277 N1279 1.279 . S
C1277 C1280 1.358 . S
C1277 H1283 0.930 . S
C1278 C1276 1.353 . S
C1278 C1281 1.348 . S
C1278 H1316 0.929 . S
N1279 Li1234 1.990 . S
N1279 C1276 1.314 . S
N1279 C1277 1.279 . S
C1280 C1277 1.358 . S
C1280 C1281 1.356 . S
C1280 H1317 0.930 . S
C1281 C1278 1.348 . S
C1281 C1280 1.356 . S
H1282 C1276 0.930 . S
H1283 C1277 0.930 . S
C1284 N1285 1.314 . S
C1284 C1286 1.353 . S
C1284 H1290 0.930 . S
N1285 Li1235 1.990 . S
N1285 C1284 1.314 . S
N1285 C1288 1.279 . S
C1286 C1284 1.353 . S
C1286 C1289 1.348 . S
C1286 H1318 0.929 . S
C1287 C1288 1.358 . S
C1287 C1289 1.356 . S
C1287 H1319 0.930 . S
C1288 N1285 1.279 . S
C1288 C1287 1.358 . S
C1288 H1291 0.930 . S
C1289 C1286 1.348 . S
C1289 C1287 1.356 . S
H1290 C1284 0.930 . S
H1291 C1288 0.930 . S
O1292 Li1232 1.956 . S
O1292 Li1233 1.970 . S
O1292 Li1234 1.961 . S
O1292 C1236 1.325 . S
O1293 Li1232 1.970 . S
O1293 Li1233 1.956 . S
O1293 Li1235 1.961 . S
O1293 C1242 1.325 . S
O1294 Li1232 1.961 . S
O1294 Li1234 1.956 . S
O1294 Li1235 1.970 . S
O1294 C1264 1.325 . S
O1295 Li1233 1.961 . S
O1295 Li1234 1.970 . S
O1295 Li1235 1.956 . S
O1295 C1270 1.325 . S
H1296 C1238 0.929 . S
H1297 C1239 0.930 . S
H1298 C1240 0.930 . S
H1299 C1241 0.930 . S
H1300 C1243 0.930 . S
H1301 C1245 0.929 . S
H1302 C1246 0.930 . S
H1303 C1247 0.930 . S
H1304 C1250 0.930 . S
H1305 C1253 0.929 . S
H1306 C1258 0.929 . S
H1307 C1259 0.930 . S
H1308 C1266 0.929 . S
H1309 C1267 0.930 . S
H1310 C1268 0.930 . S
H1311 C1269 0.930 . S
H1312 C1271 0.929 . S
H1313 C1272 0.930 . S
H1314 C1273 0.930 . S
H1315 C1274 0.930 . S
H1316 C1278 0.929 . S
H1317 C1280 0.930 . S
H1318 C1286 0.929 . S
H1319 C1287 0.930 . S
Li1320 N1337 1.990 . S
Li1320 O1380 1.956 . S
Li1320 O1381 1.970 . S
Li1320 O1382 1.961 . S
Li1321 N1345 1.990 . S
Li1321 O1380 1.970 . S
Li1321 O1381 1.956 . S
Li1321 O1383 1.961 . S
Li1322 N1367 1.990 . S
Li1322 O1380 1.961 . S
Li1322 O1382 1.956 . S
Li1322 O1383 1.970 . S
Li1323 N1373 1.990 . S
Li1323 O1381 1.961 . S
Li1323 O1382 1.970 . S
Li1323 O1383 1.956 . S
C1324 C1326 1.348 . S
C1324 C1327 1.356 . S
C1324 O1380 1.325 . S
N1325 C1328 1.314 . S
N1325 C1329 1.279 . S
C1326 C1324 1.348 . S
C1326 C1328 1.353 . S
C1326 H1384 0.929 . S
C1327 C1324 1.356 . S
C1327 C1329 1.358 . S
C1327 H1385 0.930 . S
C1328 N1325 1.314 . S
C1328 C1326 1.353 . S
C1328 H1386 0.930 . S
C1329 N1325 1.279 . S
C1329 C1327 1.358 . S
C1329 H1387 0.930 . S
C1330 C1333 1.348 . S
C1330 C1334 1.356 . S
C1330 O1381 1.325 . S
C1331 N1332 1.279 . S
C1331 C1334 1.358 . S
C1331 H1388 0.930 . S
N1332 C1331 1.279 . S
N1332 C1335 1.314 . S
C1333 C1330 1.348 . S
C1333 C1335 1.353 . S
C1333 H1389 0.929 . S
C1334 C1330 1.356 . S
C1334 C1331 1.358 . S
C1334 H1390 0.930 . S
C1335 N1332 1.314 . S
C1335 C1333 1.353 . S
C1335 H1391 0.930 . S
C1336 N1337 1.314 . S
C1336 C1341 1.353 . S
C1336 H1342 0.930 . S
N1337 Li1320 1.990 . S
N1337 C1336 1.314 . S
N1337 C1339 1.279 . S
C1338 C1339 1.358 . S
C1338 C1340 1.356 . S
C1338 H1392 0.930 . S
C1339 N1337 1.279 . S
C1339 C1338 1.358 . S
C1339 H1343 0.930 . S
C1340 C1338 1.356 . S
C1340 C1341 1.348 . S
C1341 C1336 1.353 . S
C1341 C1340 1.348 . S
C1341 H1393 0.929 . S
H1342 C1336 0.930 . S
H1343 C1339 0.930 . S
C1344 N1345 1.314 . S
C1344 C1346 1.353 . S
C1344 H1350 0.930 . S
N1345 Li1321 1.990 . S
N1345 C1344 1.314 . S
N1345 C1348 1.279 . S
C1346 C1344 1.353 . S
C1346 C1349 1.348 . S
C1346 H1394 0.929 . S
C1347 C1348 1.358 . S
C1347 C1349 1.356 . S
C1347 H1395 0.930 . S
C1348 N1345 1.279 . S
C1348 C1347 1.358 . S
C1348 H1351 0.930 . S
C1349 C1346 1.348 . S
C1349 C1347 1.356 . S
H1350 C1344 0.930 . S
H1351 C1348 0.930 . S
C1352 C1354 1.348 . S
C1352 C1355 1.356 . S
C1352 O1382 1.325 . S
N1353 C1356 1.314 . S
N1353 C1357 1.279 . S
C1354 C1352 1.348 . S
C1354 C1356 1.353 . S
C1354 H1396 0.929 . S
C1355 C1352 1.356 . S
C1355 C1357 1.358 . S
C1355 H1397 0.930 . S
C1356 N1353 1.314 . S
C1356 C1354 1.353 . S
C1356 H1398 0.930 . S
C1357 N1353 1.279 . S
C1357 C1355 1.358 . S
C1357 H1399 0.930 . S
C1358 C1359 1.348 . S
C1358 C1360 1.356 . S
C1358 O1383 1.325 . S
C1359 C1358 1.348 . S
C1359 C1361 1.353 . S
C1359 H1400 0.929 . S
C1360 C1358 1.356 . S
C1360 C1362 1.358 . S
C1360 H1401 0.930 . S
C1361 C1359 1.353 . S
C1361 N1363 1.314 . S
C1361 H1402 0.930 . S
C1362 C1360 1.358 . S
C1362 N1363 1.279 . S
C1362 H1403 0.930 . S
N1363 C1361 1.314 . S
N1363 C1362 1.279 . S
C1364 C1366 1.353 . S
C1364 N1367 1.314 . S
C1364 H1370 0.930 . S
C1365 N1367 1.279 . S
C1365 C1368 1.358 . S
C1365 H1371 0.930 . S
C1366 C1364 1.353 . S
C1366 C1369 1.348 . S
C1366 H1404 0.929 . S
N1367 Li1322 1.990 . S
N1367 C1364 1.314 . S
N1367 C1365 1.279 . S
C1368 C1365 1.358 . S
C1368 C1369 1.356 . S
C1368 H1405 0.930 . S
C1369 C1366 1.348 . S
C1369 C1368 1.356 . S
H1370 C1364 0.930 . S
H1371 C1365 0.930 . S
C1372 N1373 1.314 . S
C1372 C1374 1.353 . S
C1372 H1378 0.930 . S
N1373 Li1323 1.990 . S
N1373 C1372 1.314 . S
N1373 C1376 1.279 . S
C1374 C1372 1.353 . S
C1374 C1377 1.348 . S
C1374 H1406 0.929 . S
C1375 C1376 1.358 . S
C1375 C1377 1.356 . S
C1375 H1407 0.930 . S
C1376 N1373 1.279 . S
C1376 C1375 1.358 . S
C1376 H1379 0.930 . S
C1377 C1374 1.348 . S
C1377 C1375 1.356 . S
H1378 C1372 0.930 . S
H1379 C1376 0.930 . S
O1380 Li1320 1.956 . S
O1380 Li1321 1.970 . S
O1380 Li1322 1.961 . S
O1380 C1324 1.325 . S
O1381 Li1320 1.970 . S
O1381 Li1321 1.956 . S
O1381 Li1323 1.961 . S
O1381 C1330 1.325 . S
O1382 Li1320 1.961 . S
O1382 Li1322 1.956 . S
O1382 Li1323 1.970 . S
O1382 C1352 1.325 . S
O1383 Li1321 1.961 . S
O1383 Li1322 1.970 . S
O1383 Li1323 1.956 . S
O1383 C1358 1.325 . S
H1384 C1326 0.929 . S
H1385 C1327 0.930 . S
H1386 C1328 0.930 . S
H1387 C1329 0.930 . S
H1388 C1331 0.930 . S
H1389 C1333 0.929 . S
H1390 C1334 0.930 . S
H1391 C1335 0.930 . S
H1392 C1338 0.930 . S
H1393 C1341 0.929 . S
H1394 C1346 0.929 . S
H1395 C1347 0.930 . S
H1396 C1354 0.929 . S
H1397 C1355 0.930 . S
H1398 C1356 0.930 . S
H1399 C1357 0.930 . S
H1400 C1359 0.929 . S
H1401 C1360 0.930 . S
H1402 C1361 0.930 . S
H1403 C1362 0.930 . S
H1404 C1366 0.929 . S
H1405 C1368 0.930 . S
H1406 C1374 0.929 . S
H1407 C1375 0.930 . S
Li1408 N1425 1.990 . S
Li1408 O1468 1.956 1_545 S
Li1408 O1469 1.970 . S
Li1408 O1470 1.961 . S
Li1409 N1433 1.990 . S
Li1409 O1468 1.970 . S
Li1409 O1469 1.956 1_565 S
Li1409 O1471 1.961 1_565 S
Li1410 N1455 1.990 . S
Li1410 O1468 1.961 1_545 S
Li1410 O1470 1.956 . S
Li1410 O1471 1.970 . S
Li1411 N1461 1.990 . S
Li1411 O1469 1.961 . S
Li1411 O1470 1.970 . S
Li1411 O1471 1.956 . S
C1412 C1414 1.348 . S
C1412 C1415 1.356 . S
C1412 O1468 1.325 . S
N1413 C1416 1.314 . S
N1413 C1417 1.279 . S
C1414 C1412 1.348 . S
C1414 C1416 1.353 . S
C1414 H1472 0.929 . S
C1415 C1412 1.356 . S
C1415 C1417 1.358 . S
C1415 H1473 0.930 . S
C1416 N1413 1.314 . S
C1416 C1414 1.353 . S
C1416 H1474 0.930 . S
C1417 N1413 1.279 . S
C1417 C1415 1.358 . S
C1417 H1475 0.930 1_655 S
C1418 C1421 1.348 . S
C1418 C1422 1.356 . S
C1418 O1469 1.325 . S
C1419 N1420 1.279 . S
C1419 C1422 1.358 . S
C1419 H1476 0.930 . S
N1420 C1419 1.279 . S
N1420 C1423 1.314 . S
C1421 C1418 1.348 . S
C1421 C1423 1.353 . S
C1421 H1477 0.929 . S
C1422 C1418 1.356 . S
C1422 C1419 1.358 . S
C1422 H1478 0.930 . S
C1423 N1420 1.314 . S
C1423 C1421 1.353 . S
C1423 H1479 0.930 . S
C1424 N1425 1.314 . S
C1424 C1429 1.353 . S
C1424 H1430 0.930 . S
N1425 Li1408 1.990 . S
N1425 C1424 1.314 . S
N1425 C1427 1.279 . S
C1426 C1427 1.358 . S
C1426 C1428 1.356 . S
C1426 H1480 0.930 1_545 S
C1427 N1425 1.279 . S
C1427 C1426 1.358 . S
C1427 H1431 0.930 1_545 S
C1428 C1426 1.356 . S
C1428 C1429 1.348 . S
C1429 C1424 1.353 . S
C1429 C1428 1.348 . S
C1429 H1481 0.929 . S
H1430 C1424 0.930 . S
H1431 C1427 0.930 1_565 S
C1432 N1433 1.314 . S
C1432 C1434 1.353 . S
C1432 H1438 0.930 . S
N1433 Li1409 1.990 . S
N1433 C1432 1.314 . S
N1433 C1436 1.279 . S
C1434 C1432 1.353 . S
C1434 C1437 1.348 . S
C1434 H1482 0.929 . S
C1435 C1436 1.358 . S
C1435 C1437 1.356 . S
C1435 H1483 0.930 . S
C1436 N1433 1.279 . S
C1436 C1435 1.358 . S
C1436 H1439 0.930 . S
C1437 C1434 1.348 . S
C1437 C1435 1.356 . S
H1438 C1432 0.930 . S
H1439 C1436 0.930 . S
C1440 C1442 1.348 . S
C1440 C1443 1.356 . S
C1440 O1470 1.325 . S
N1441 C1444 1.314 . S
N1441 C1445 1.279 . S
C1442 C1440 1.348 . S
C1442 C1444 1.353 . S
C1442 H1484 0.929 . S
C1443 C1440 1.356 . S
C1443 C1445 1.358 . S
C1443 H1485 0.930 . S
C1444 N1441 1.314 . S
C1444 C1442 1.353 . S
C1444 H1486 0.930 . S
C1445 N1441 1.279 . S
C1445 C1443 1.358 . S
C1445 H1487 0.930 1_655 S
C1446 C1447 1.348 . S
C1446 C1448 1.353 1_545 S
C1446 O1471 1.325 . S
C1447 C1446 1.348 . S
C1447 C1449 1.353 . S
C1447 H1488 0.929 . S
C1448 C1446 1.353 1_565 S
C1448 C1450 1.354 . S
C1448 H1489 0.940 . S
C1449 C1447 1.353 . S
C1449 N1451 1.314 . S
C1449 H1490 0.930 . S
C1450 C1448 1.354 . S
C1450 N1451 1.279 1_565 S
C1450 H1491 0.930 . S
N1451 C1449 1.314 . S
N1451 C1450 1.279 1_545 S
C1452 C1454 1.353 . S
C1452 N1455 1.314 1_565 S
C1452 H1458 0.930 . S
C1453 N1455 1.279 . S
C1453 C1456 1.358 . S
C1453 H1459 0.930 . S
C1454 C1452 1.353 . S
C1454 C1457 1.348 1_565 S
C1454 H1492 0.929 . S
N1455 Li1410 1.990 . S
N1455 C1452 1.314 1_545 S
N1455 C1453 1.279 . S
C1456 C1453 1.358 . S
C1456 C1457 1.356 . S
C1456 H1493 0.930 . S
C1457 C1454 1.348 1_545 S
C1457 C1456 1.356 . S
H1458 C1452 0.930 . S
H1459 C1453 0.930 . S
C1460 N1461 1.314 . S
C1460 C1462 1.353 . S
C1460 H1466 0.930 . S
N1461 Li1411 1.990 . S
N1461 C1460 1.314 . S
N1461 C1464 1.279 . S
C1462 C1460 1.353 . S
C1462 C1465 1.348 . S
C1462 H1494 0.929 . S
C1463 C1464 1.358 . S
C1463 C1465 1.356 . S
C1463 H1495 0.930 . S
C1464 N1461 1.279 . S
C1464 C1463 1.358 . S
C1464 H1467 0.930 . S
C1465 C1462 1.348 . S
C1465 C1463 1.356 . S
H1466 C1460 0.930 . S
H1467 C1464 0.930 . S
O1468 Li1408 1.956 1_565 S
O1468 Li1409 1.970 . S
O1468 Li1410 1.961 1_565 S
O1468 C1412 1.325 . S
O1469 Li1408 1.970 . S
O1469 Li1409 1.956 1_545 S
O1469 Li1411 1.961 . S
O1469 C1418 1.325 . S
O1470 Li1408 1.961 . S
O1470 Li1410 1.956 . S
O1470 Li1411 1.970 . S
O1470 C1440 1.325 . S
O1471 Li1409 1.961 1_545 S
O1471 Li1410 1.970 . S
O1471 Li1411 1.956 . S
O1471 C1446 1.325 . S
H1472 C1414 0.929 . S
H1473 C1415 0.930 . S
H1474 C1416 0.930 . S
H1475 C1417 0.930 1_455 S
H1476 C1419 0.930 . S
H1477 C1421 0.929 . S
H1478 C1422 0.930 . S
H1479 C1423 0.930 . S
H1480 C1426 0.930 1_565 S
H1481 C1429 0.929 . S
H1482 C1434 0.929 . S
H1483 C1435 0.930 . S
H1484 C1442 0.929 . S
H1485 C1443 0.930 . S
H1486 C1444 0.930 . S
H1487 C1445 0.930 1_455 S
H1488 C1447 0.929 . S
H1489 C1448 0.940 . S
H1490 C1449 0.930 . S
H1491 C1450 0.930 . S
H1492 C1454 0.929 . S
H1493 C1456 0.930 . S
H1494 C1462 0.929 . S
H1495 C1463 0.930 . S
Li1496 N1513 1.990 . S
Li1496 O1556 1.956 . S
Li1496 O1557 1.970 . S
Li1496 O1558 1.961 . S
Li1497 N1521 1.990 . S
Li1497 O1556 1.970 . S
Li1497 O1557 1.956 . S
Li1497 O1559 1.961 . S
Li1498 N1543 1.990 . S
Li1498 O1556 1.961 . S
Li1498 O1558 1.956 . S
Li1498 O1559 1.970 . S
Li1499 N1549 1.990 . S
Li1499 O1557 1.961 . S
Li1499 O1558 1.970 . S
Li1499 O1559 1.956 . S
C1500 C1502 1.348 . S
C1500 C1503 1.356 . S
C1500 O1556 1.325 . S
N1501 C1504 1.314 . S
N1501 C1505 1.279 . S
C1502 C1500 1.348 . S
C1502 C1504 1.353 . S
C1502 H1560 0.929 . S
C1503 C1500 1.356 . S
C1503 C1505 1.358 . S
C1503 H1561 0.930 . S
C1504 N1501 1.314 . S
C1504 C1502 1.353 . S
C1504 H1562 0.930 . S
C1505 N1501 1.279 . S
C1505 C1503 1.358 . S
C1505 H1563 0.930 . S
C1506 C1509 1.348 . S
C1506 C1510 1.356 . S
C1506 O1557 1.325 . S
C1507 N1508 1.279 . S
C1507 C1510 1.358 . S
C1507 H1564 0.930 . S
N1508 C1507 1.279 . S
N1508 C1511 1.314 . S
C1509 C1506 1.348 . S
C1509 C1511 1.353 . S
C1509 H1565 0.929 . S
C1510 C1506 1.356 . S
C1510 C1507 1.358 . S
C1510 H1566 0.930 . S
C1511 N1508 1.314 . S
C1511 C1509 1.353 . S
C1511 H1567 0.930 . S
C1512 N1513 1.314 . S
C1512 C1517 1.353 . S
C1512 H1518 0.930 . S
N1513 Li1496 1.990 . S
N1513 C1512 1.314 . S
N1513 C1515 1.279 . S
C1514 C1515 1.358 . S
C1514 C1516 1.356 . S
C1514 H1568 0.930 . S
C1515 N1513 1.279 . S
C1515 C1514 1.358 . S
C1515 H1519 0.930 . S
C1516 C1514 1.356 . S
C1516 C1517 1.348 . S
C1517 C1512 1.353 . S
C1517 C1516 1.348 . S
C1517 H1569 0.929 . S
H1518 C1512 0.930 . S
H1519 C1515 0.930 . S
C1520 N1521 1.314 . S
C1520 C1522 1.353 . S
C1520 H1526 0.930 . S
N1521 Li1497 1.990 . S
N1521 C1520 1.314 . S
N1521 C1524 1.279 . S
C1522 C1520 1.353 . S
C1522 C1525 1.348 . S
C1522 H1570 0.929 . S
C1523 C1524 1.358 . S
C1523 C1525 1.356 . S
C1523 H1571 0.930 . S
C1524 N1521 1.279 . S
C1524 C1523 1.358 . S
C1524 H1527 0.930 . S
C1525 C1522 1.348 . S
C1525 C1523 1.356 . S
H1526 C1520 0.930 . S
H1527 C1524 0.930 . S
C1528 C1530 1.348 . S
C1528 C1531 1.356 . S
C1528 O1558 1.325 . S
N1529 C1532 1.314 . S
N1529 C1533 1.279 . S
C1530 C1528 1.348 . S
C1530 C1532 1.353 . S
C1530 H1572 0.929 . S
C1531 C1528 1.356 . S
C1531 C1533 1.358 . S
C1531 H1573 0.930 . S
C1532 N1529 1.314 . S
C1532 C1530 1.353 . S
C1532 H1574 0.930 . S
C1533 N1529 1.279 . S
C1533 C1531 1.358 . S
C1533 H1575 0.930 . S
C1534 C1535 1.348 . S
C1534 C1536 1.356 . S
C1534 O1559 1.325 . S
C1535 C1534 1.348 . S
C1535 C1537 1.353 . S
C1535 H1576 0.929 . S
C1536 C1534 1.356 . S
C1536 C1538 1.358 . S
C1536 H1577 0.930 . S
C1537 C1535 1.353 . S
C1537 N1539 1.314 . S
C1537 H1578 0.930 . S
C1538 C1536 1.358 . S
C1538 N1539 1.279 . S
C1538 H1579 0.930 . S
N1539 C1537 1.314 . S
N1539 C1538 1.279 . S
C1540 C1542 1.353 . S
C1540 N1543 1.314 . S
C1540 H1546 0.930 . S
C1541 N1543 1.279 . S
C1541 C1544 1.358 . S
C1541 H1547 0.930 . S
C1542 C1540 1.353 . S
C1542 C1545 1.348 . S
C1542 H1580 0.929 . S
N1543 Li1498 1.990 . S
N1543 C1540 1.314 . S
N1543 C1541 1.279 . S
C1544 C1541 1.358 . S
C1544 C1545 1.356 . S
C1544 H1581 0.930 . S
C1545 C1542 1.348 . S
C1545 C1544 1.356 . S
H1546 C1540 0.930 . S
H1547 C1541 0.930 . S
C1548 N1549 1.314 . S
C1548 C1550 1.353 . S
C1548 H1554 0.930 . S
N1549 Li1499 1.990 . S
N1549 C1548 1.314 . S
N1549 C1552 1.279 . S
C1550 C1548 1.353 . S
C1550 C1553 1.348 . S
C1550 H1582 0.929 . S
C1551 C1552 1.358 . S
C1551 C1553 1.356 . S
C1551 H1583 0.930 . S
C1552 N1549 1.279 . S
C1552 C1551 1.358 . S
C1552 H1555 0.930 . S
C1553 C1550 1.348 . S
C1553 C1551 1.356 . S
H1554 C1548 0.930 . S
H1555 C1552 0.930 . S
O1556 Li1496 1.956 . S
O1556 Li1497 1.970 . S
O1556 Li1498 1.961 . S
O1556 C1500 1.325 . S
O1557 Li1496 1.970 . S
O1557 Li1497 1.956 . S
O1557 Li1499 1.961 . S
O1557 C1506 1.325 . S
O1558 Li1496 1.961 . S
O1558 Li1498 1.956 . S
O1558 Li1499 1.970 . S
O1558 C1528 1.325 . S
O1559 Li1497 1.961 . S
O1559 Li1498 1.970 . S
O1559 Li1499 1.956 . S
O1559 C1534 1.325 . S
H1560 C1502 0.929 . S
H1561 C1503 0.930 . S
H1562 C1504 0.930 . S
H1563 C1505 0.930 . S
H1564 C1507 0.930 . S
H1565 C1509 0.929 . S
H1566 C1510 0.930 . S
H1567 C1511 0.930 . S
H1568 C1514 0.930 . S
H1569 C1517 0.929 . S
H1570 C1522 0.929 . S
H1571 C1523 0.930 . S
H1572 C1530 0.929 . S
H1573 C1531 0.930 . S
H1574 C1532 0.930 . S
H1575 C1533 0.930 . S
H1576 C1535 0.929 . S
H1577 C1536 0.930 . S
H1578 C1537 0.930 . S
H1579 C1538 0.930 . S
H1580 C1542 0.929 . S
H1581 C1544 0.930 . S
H1582 C1550 0.929 . S
H1583 C1551 0.930 . S
Li1584 N1601 1.990 . S
Li1584 O1644 1.956 . S
Li1584 O1645 1.970 . S
Li1584 O1646 1.961 . S
Li1585 N1609 1.990 . S
Li1585 O1644 1.970 . S
Li1585 O1645 1.956 . S
Li1585 O1647 1.961 . S
Li1586 N1631 1.990 . S
Li1586 O1644 1.961 . S
Li1586 O1646 1.956 . S
Li1586 O1647 1.970 . S
Li1587 N1637 1.990 . S
Li1587 O1645 1.961 . S
Li1587 O1646 1.970 . S
Li1587 O1647 1.956 . S
C1588 C1590 1.348 . S
C1588 C1591 1.356 . S
C1588 O1644 1.325 . S
N1589 C1592 1.314 . S
N1589 C1593 1.279 . S
C1590 C1588 1.348 . S
C1590 C1592 1.353 . S
C1590 H1648 0.929 . S
C1591 C1588 1.356 . S
C1591 C1593 1.358 . S
C1591 H1649 0.930 . S
C1592 N1589 1.314 . S
C1592 C1590 1.353 . S
C1592 H1650 0.930 . S
C1593 N1589 1.279 . S
C1593 C1591 1.358 . S
C1593 H1651 0.930 . S
C1594 C1597 1.348 . S
C1594 C1598 1.356 . S
C1594 O1645 1.325 . S
C1595 N1596 1.279 . S
C1595 C1598 1.358 . S
C1595 H1652 0.930 . S
N1596 C1595 1.279 . S
N1596 C1599 1.314 . S
C1597 C1594 1.348 . S
C1597 C1599 1.353 . S
C1597 H1653 0.929 . S
C1598 C1594 1.356 . S
C1598 C1595 1.358 . S
C1598 H1654 0.930 . S
C1599 N1596 1.314 . S
C1599 C1597 1.353 . S
C1599 H1655 0.930 . S
C1600 N1601 1.314 . S
C1600 C1605 1.353 . S
C1600 H1606 0.930 . S
N1601 Li1584 1.990 . S
N1601 C1600 1.314 . S
N1601 C1603 1.279 . S
C1602 C1603 1.358 . S
C1602 C1604 1.356 . S
C1602 H1656 0.930 . S
C1603 N1601 1.279 . S
C1603 C1602 1.358 . S
C1603 H1607 0.930 . S
C1604 C1602 1.356 . S
C1604 C1605 1.348 . S
C1605 C1600 1.353 . S
C1605 C1604 1.348 . S
C1605 H1657 0.929 . S
H1606 C1600 0.930 . S
H1607 C1603 0.930 . S
C1608 N1609 1.314 . S
C1608 C1610 1.353 . S
C1608 H1614 0.930 . S
N1609 Li1585 1.990 . S
N1609 C1608 1.314 . S
N1609 C1612 1.279 . S
C1610 C1608 1.353 . S
C1610 C1613 1.348 . S
C1610 H1658 0.929 . S
C1611 C1612 1.358 . S
C1611 C1613 1.356 . S
C1611 H1659 0.930 . S
C1612 N1609 1.279 . S
C1612 C1611 1.358 . S
C1612 H1615 0.930 . S
C1613 C1610 1.348 . S
C1613 C1611 1.356 . S
H1614 C1608 0.930 . S
H1615 C1612 0.930 . S
C1616 C1618 1.348 . S
C1616 C1619 1.356 . S
C1616 O1646 1.325 . S
N1617 C1620 1.314 . S
N1617 C1621 1.279 . S
C1618 C1616 1.348 . S
C1618 C1620 1.353 . S
C1618 H1660 0.929 . S
C1619 C1616 1.356 . S
C1619 C1621 1.358 . S
C1619 H1661 0.930 . S
C1620 N1617 1.314 . S
C1620 C1618 1.353 . S
C1620 H1662 0.930 . S
C1621 N1617 1.279 . S
C1621 C1619 1.358 . S
C1621 H1663 0.930 . S
C1622 C1623 1.348 . S
C1622 C1624 1.356 . S
C1622 O1647 1.325 . S
C1623 C1622 1.348 . S
C1623 C1625 1.353 . S
C1623 H1664 0.929 . S
C1624 C1622 1.356 . S
C1624 C1626 1.358 . S
C1624 H1665 0.930 . S
C1625 C1623 1.353 . S
C1625 N1627 1.314 . S
C1625 H1666 0.930 . S
C1626 C1624 1.358 . S
C1626 N1627 1.279 . S
C1626 H1667 0.930 . S
N1627 C1625 1.314 . S
N1627 C1626 1.279 . S
C1628 C1630 1.353 . S
C1628 N1631 1.314 . S
C1628 H1634 0.930 . S
C1629 N1631 1.279 . S
C1629 C1632 1.358 . S
C1629 H1635 0.930 . S
C1630 C1628 1.353 . S
C1630 C1633 1.348 . S
C1630 H1668 0.929 . S
N1631 Li1586 1.990 . S
N1631 C1628 1.314 . S
N1631 C1629 1.279 . S
C1632 C1629 1.358 . S
C1632 C1633 1.356 . S
C1632 H1669 0.930 . S
C1633 C1630 1.348 . S
C1633 C1632 1.356 . S
H1634 C1628 0.930 . S
H1635 C1629 0.930 . S
C1636 N1637 1.314 . S
C1636 C1638 1.353 . S
C1636 H1642 0.930 . S
N1637 Li1587 1.990 . S
N1637 C1636 1.314 . S
N1637 C1640 1.279 . S
C1638 C1636 1.353 . S
C1638 C1641 1.348 . S
C1638 H1670 0.929 . S
C1639 C1640 1.358 . S
C1639 C1641 1.356 . S
C1639 H1671 0.930 . S
C1640 N1637 1.279 . S
C1640 C1639 1.358 . S
C1640 H1643 0.930 . S
C1641 C1638 1.348 . S
C1641 C1639 1.356 . S
H1642 C1636 0.930 . S
H1643 C1640 0.930 . S
O1644 Li1584 1.956 . S
O1644 Li1585 1.970 . S
O1644 Li1586 1.961 . S
O1644 C1588 1.325 . S
O1645 Li1584 1.970 . S
O1645 Li1585 1.956 . S
O1645 Li1587 1.961 . S
O1645 C1594 1.325 . S
O1646 Li1584 1.961 . S
O1646 Li1586 1.956 . S
O1646 Li1587 1.970 . S
O1646 C1616 1.325 . S
O1647 Li1585 1.961 . S
O1647 Li1586 1.970 . S
O1647 Li1587 1.956 . S
O1647 C1622 1.325 . S
H1648 C1590 0.929 . S
H1649 C1591 0.930 . S
H1650 C1592 0.930 . S
H1651 C1593 0.930 . S
H1652 C1595 0.930 . S
H1653 C1597 0.929 . S
H1654 C1598 0.930 . S
H1655 C1599 0.930 . S
H1656 C1602 0.930 . S
H1657 C1605 0.929 . S
H1658 C1610 0.929 . S
H1659 C1611 0.930 . S
H1660 C1618 0.929 . S
H1661 C1619 0.930 . S
H1662 C1620 0.930 . S
H1663 C1621 0.930 . S
H1664 C1623 0.929 . S
H1665 C1624 0.930 . S
H1666 C1625 0.930 . S
H1667 C1626 0.930 . S
H1668 C1630 0.929 . S
H1669 C1632 0.930 . S
H1670 C1638 0.929 . S
H1671 C1639 0.930 . S
Li1672 N1689 1.990 . S
Li1672 O1732 1.956 . S
Li1672 O1733 1.970 . S
Li1672 O1734 1.961 . S
Li1673 N1697 1.990 . S
Li1673 O1732 1.970 . S
Li1673 O1733 1.956 . S
Li1673 O1735 1.961 . S
Li1674 N1719 1.990 . S
Li1674 O1732 1.961 . S
Li1674 O1734 1.956 . S
Li1674 O1735 1.970 . S
Li1675 N1725 1.990 . S
Li1675 O1733 1.961 . S
Li1675 O1734 1.970 . S
Li1675 O1735 1.956 . S
C1676 C1678 1.348 . S
C1676 C1679 1.356 . S
C1676 O1732 1.325 . S
N1677 C1680 1.314 . S
N1677 C1681 1.279 . S
C1678 C1676 1.348 . S
C1678 C1680 1.353 . S
C1678 H1736 0.929 . S
C1679 C1676 1.356 . S
C1679 C1681 1.358 . S
C1679 H1737 0.930 . S
C1680 N1677 1.314 . S
C1680 C1678 1.353 . S
C1680 H1738 0.930 . S
C1681 N1677 1.279 . S
C1681 C1679 1.358 . S
C1681 H1739 0.930 . S
C1682 C1685 1.348 . S
C1682 C1686 1.356 . S
C1682 O1733 1.325 . S
C1683 N1684 1.279 . S
C1683 C1686 1.358 . S
C1683 H1740 0.930 . S
N1684 C1683 1.279 . S
N1684 C1687 1.314 . S
C1685 C1682 1.348 . S
C1685 C1687 1.353 . S
C1685 H1741 0.929 . S
C1686 C1682 1.356 . S
C1686 C1683 1.358 . S
C1686 H1742 0.930 . S
C1687 N1684 1.314 . S
C1687 C1685 1.353 . S
C1687 H1743 0.930 . S
C1688 N1689 1.314 . S
C1688 C1693 1.353 . S
C1688 H1694 0.930 . S
N1689 Li1672 1.990 . S
N1689 C1688 1.314 . S
N1689 C1691 1.279 . S
C1690 C1691 1.358 . S
C1690 C1692 1.356 . S
C1690 H1744 0.930 . S
C1691 N1689 1.279 . S
C1691 C1690 1.358 . S
C1691 H1695 0.930 . S
C1692 C1690 1.356 . S
C1692 C1693 1.348 . S
C1693 C1688 1.353 . S
C1693 C1692 1.348 . S
C1693 H1745 0.929 . S
H1694 C1688 0.930 . S
H1695 C1691 0.930 . S
C1696 N1697 1.314 . S
C1696 C1698 1.353 . S
C1696 H1702 0.930 . S
N1697 Li1673 1.990 . S
N1697 C1696 1.314 . S
N1697 C1700 1.279 . S
C1698 C1696 1.353 . S
C1698 C1701 1.348 . S
C1698 H1746 0.929 . S
C1699 C1700 1.358 . S
C1699 C1701 1.356 . S
C1699 H1747 0.930 . S
C1700 N1697 1.279 . S
C1700 C1699 1.358 . S
C1700 H1703 0.930 . S
C1701 C1698 1.348 . S
C1701 C1699 1.356 . S
H1702 C1696 0.930 . S
H1703 C1700 0.930 . S
C1704 C1706 1.348 1_545 S
C1704 C1707 1.356 . S
C1704 O1734 1.325 . S
N1705 C1708 1.314 . S
N1705 C1709 1.279 . S
C1706 C1704 1.348 1_565 S
C1706 C1708 1.353 . S
C1706 H1748 0.929 . S
C1707 C1704 1.356 . S
C1707 C1709 1.358 1_545 S
C1707 H1749 0.930 . S
C1708 N1705 1.314 . S
C1708 C1706 1.353 . S
C1708 H1750 0.930 . S
C1709 N1705 1.279 . S
C1709 C1707 1.358 1_565 S
C1709 H1751 0.930 . S
C1710 C1711 1.348 . S
C1710 C1712 1.356 . S
C1710 O1735 1.325 . S
C1711 C1710 1.348 . S
C1711 C1713 1.353 . S
C1711 H1752 0.929 . S
C1712 C1710 1.356 . S
C1712 C1714 1.358 . S
C1712 H1753 0.930 . S
C1713 C1711 1.353 . S
C1713 N1715 1.314 . S
C1713 H1754 0.930 . S
C1714 C1712 1.358 . S
C1714 N1715 1.279 . S
C1714 H1755 0.930 . S
N1715 C1713 1.314 . S
N1715 C1714 1.279 . S
C1716 C1718 1.353 . S
C1716 N1719 1.314 . S
C1716 H1722 0.930 . S
C1717 N1719 1.279 . S
C1717 C1720 1.358 . S
C1717 H1723 0.930 . S
C1718 C1716 1.353 . S
C1718 C1721 1.348 . S
C1718 H1756 0.929 . S
N1719 Li1674 1.990 . S
N1719 C1716 1.314 . S
N1719 C1717 1.279 . S
C1720 C1717 1.358 . S
C1720 C1721 1.356 . S
C1720 H1757 0.930 . S
C1721 C1718 1.348 . S
C1721 C1720 1.356 . S
H1722 C1716 0.930 . S
H1723 C1717 0.930 . S
C1724 N1725 1.287 1_565 S
C1724 C1726 1.392 . S
C1724 H1730 0.918 1_565 S
N1725 Li1675 1.990 . S
N1725 C1724 1.287 1_545 S
N1725 C1728 1.279 . S
C1726 C1724 1.392 . S
C1726 C1729 1.348 . S
C1726 H1758 0.929 . S
C1727 C1728 1.358 1_565 S
C1727 C1729 1.356 . S
C1727 H1759 0.930 . S
C1728 N1725 1.279 . S
C1728 C1727 1.358 1_545 S
C1728 H1731 0.930 . S
C1729 C1726 1.348 . S
C1729 C1727 1.356 . S
H1730 C1724 0.918 1_545 S
H1731 C1728 0.930 . S
O1732 Li1672 1.956 . S
O1732 Li1673 1.970 . S
O1732 Li1674 1.961 . S
O1732 C1676 1.325 . S
O1733 Li1672 1.970 . S
O1733 Li1673 1.956 . S
O1733 Li1675 1.961 . S
O1733 C1682 1.325 . S
O1734 Li1672 1.961 . S
O1734 Li1674 1.956 . S
O1734 Li1675 1.970 . S
O1734 C1704 1.325 . S
O1735 Li1673 1.961 . S
O1735 Li1674 1.970 . S
O1735 Li1675 1.956 . S
O1735 C1710 1.325 . S
H1736 C1678 0.929 . S
H1737 C1679 0.930 . S
H1738 C1680 0.930 . S
H1739 C1681 0.930 . S
H1740 C1683 0.930 . S
H1741 C1685 0.929 . S
H1742 C1686 0.930 . S
H1743 C1687 0.930 . S
H1744 C1690 0.930 . S
H1745 C1693 0.929 . S
H1746 C1698 0.929 . S
H1747 C1699 0.930 . S
H1748 C1706 0.929 . S
H1749 C1707 0.930 . S
H1750 C1708 0.930 . S
H1751 C1709 0.930 . S
H1752 C1711 0.929 . S
H1753 C1712 0.930 . S
H1754 C1713 0.930 . S
H1755 C1714 0.930 . S
H1756 C1718 0.929 . S
H1757 C1720 0.930 . S
H1758 C1726 0.929 . S
H1759 C1727 0.930 . S
Li1760 N1777 1.990 . S
Li1760 O1820 1.956 . S
Li1760 O1821 1.970 . S
Li1760 O1822 1.961 . S
Li1761 N1785 1.990 . S
Li1761 O1820 1.970 . S
Li1761 O1821 1.956 . S
Li1761 O1823 1.961 1_554 S
Li1762 N1807 1.990 . S
Li1762 O1820 1.961 1_556 S
Li1762 O1822 1.956 1_556 S
Li1762 O1823 1.970 . S
Li1763 N1813 1.990 . S
Li1763 O1821 1.961 . S
Li1763 O1822 1.970 . S
Li1763 O1823 1.956 1_554 S
C1764 C1766 1.348 . S
C1764 C1767 1.356 . S
C1764 O1820 1.325 . S
N1765 C1768 1.314 . S
N1765 C1769 1.279 . S
C1766 C1764 1.348 . S
C1766 C1768 1.353 . S
C1766 H1824 0.929 . S
C1767 C1764 1.356 . S
C1767 C1769 1.358 . S
C1767 H1825 0.930 . S
C1768 N1765 1.314 . S
C1768 C1766 1.353 . S
C1768 H1826 0.930 . S
C1769 N1765 1.279 . S
C1769 C1767 1.358 . S
C1769 H1827 0.930 . S
C1770 C1773 1.348 . S
C1770 C1774 1.356 . S
C1770 O1821 1.325 . S
C1771 N1772 1.279 . S
C1771 C1774 1.358 . S
C1771 H1828 0.930 . S
N1772 C1771 1.279 . S
N1772 C1775 1.314 . S
C1773 C1770 1.348 . S
C1773 C1775 1.353 . S
C1773 H1829 0.929 . S
C1774 C1770 1.356 . S
C1774 C1771 1.358 . S
C1774 H1830 0.930 . S
C1775 N1772 1.314 . S
C1775 C1773 1.353 . S
C1775 H1831 0.930 . S
C1776 N1777 1.314 . S
C1776 C1781 1.353 . S
C1776 H1782 0.930 . S
N1777 Li1760 1.990 . S
N1777 C1776 1.314 . S
N1777 C1779 1.279 . S
C1778 C1779 1.358 . S
C1778 C1780 1.356 . S
C1778 H1832 0.930 . S
C1779 N1777 1.279 . S
C1779 C1778 1.358 . S
C1779 H1783 0.930 . S
C1780 C1778 1.356 . S
C1780 C1781 1.348 . S
C1781 C1776 1.353 . S
C1781 C1780 1.348 . S
C1781 H1833 0.929 . S
H1782 C1776 0.930 . S
H1783 C1779 0.930 . S
C1784 N1785 1.314 1_556 S
C1784 C1786 1.353 . S
C1784 H1790 0.930 . S
N1785 Li1761 1.990 . S
N1785 C1784 1.314 1_554 S
N1785 C1788 1.279 . S
C1786 C1784 1.353 . S
C1786 C1789 1.348 1_556 S
C1786 H1834 0.929 . S
C1787 C1788 1.358 . S
C1787 C1789 1.356 . S
C1787 H1835 0.930 . S
C1788 N1785 1.279 . S
C1788 C1787 1.358 . S
C1788 H1791 0.930 . S
C1789 C1786 1.348 1_554 S
C1789 C1787 1.356 . S
H1790 C1784 0.930 . S
H1791 C1788 0.930 . S
C1792 C1794 1.348 . S
C1792 C1795 1.356 . S
C1792 O1822 1.325 . S
N1793 C1796 1.314 . S
N1793 C1797 1.279 . S
C1794 C1792 1.348 . S
C1794 C1796 1.353 . S
C1794 H1836 0.928 . S
C1795 C1792 1.356 . S
C1795 C1797 1.358 . S
C1795 H1837 0.930 . S
C1796 N1793 1.314 . S
C1796 C1794 1.353 . S
C1796 H1838 0.936 . S
C1797 N1793 1.279 . S
C1797 C1795 1.358 . S
C1797 H1839 0.930 . S
C1798 C1799 1.348 . S
C1798 C1800 1.356 . S
C1798 O1823 1.325 . S
C1799 C1798 1.348 . S
C1799 C1801 1.353 . S
C1799 H1840 0.929 . S
C1800 C1798 1.356 . S
C1800 C1802 1.358 . S
C1800 H1841 0.930 . S
C1801 C1799 1.353 . S
C1801 N1803 1.314 . S
C1801 H1842 0.930 . S
C1802 C1800 1.358 . S
C1802 N1803 1.279 . S
C1802 H1843 0.930 . S
N1803 C1801 1.314 . S
N1803 C1802 1.279 . S
C1804 C1806 1.353 . S
C1804 N1807 1.314 . S
C1804 H1810 0.930 . S
C1805 N1807 1.279 . S
C1805 C1808 1.358 . S
C1805 H1811 0.930 . S
C1806 C1804 1.353 . S
C1806 C1809 1.348 . S
C1806 H1844 0.929 . S
N1807 Li1762 1.990 . S
N1807 C1804 1.314 . S
N1807 C1805 1.279 . S
C1808 C1805 1.358 . S
C1808 C1809 1.356 . S
C1808 H1845 0.930 . S
C1809 C1806 1.348 . S
C1809 C1808 1.356 . S
H1810 C1804 0.930 . S
H1811 C1805 0.930 . S
C1812 N1813 1.314 . S
C1812 C1814 1.353 . S
C1812 H1818 0.930 . S
N1813 Li1763 1.990 . S
N1813 C1812 1.314 . S
N1813 C1816 1.279 1_554 S
C1814 C1812 1.353 . S
C1814 C1817 1.348 . S
C1814 H1846 0.929 . S
C1815 C1816 1.358 . S
C1815 C1817 1.356 1_556 S
C1815 H1847 0.930 . S
C1816 N1813 1.279 1_556 S
C1816 C1815 1.358 . S
C1816 H1819 0.930 . S
C1817 C1814 1.348 . S
C1817 C1815 1.356 1_554 S
H1818 C1812 0.930 . S
H1819 C1816 0.930 . S
O1820 Li1760 1.956 . S
O1820 Li1761 1.970 . S
O1820 Li1762 1.961 1_554 S
O1820 C1764 1.325 . S
O1821 Li1760 1.970 . S
O1821 Li1761 1.956 . S
O1821 Li1763 1.961 . S
O1821 C1770 1.325 . S
O1822 Li1760 1.961 . S
O1822 Li1762 1.956 1_554 S
O1822 Li1763 1.970 . S
O1822 C1792 1.325 . S
O1823 Li1761 1.961 1_556 S
O1823 Li1762 1.970 . S
O1823 Li1763 1.956 1_556 S
O1823 C1798 1.325 . S
H1824 C1766 0.929 . S
H1825 C1767 0.930 . S
H1826 C1768 0.930 . S
H1827 C1769 0.930 . S
H1828 C1771 0.930 . S
H1829 C1773 0.929 . S
H1830 C1774 0.930 . S
H1831 C1775 0.930 . S
H1832 C1778 0.930 . S
H1833 C1781 0.929 . S
H1834 C1786 0.929 . S
H1835 C1787 0.930 . S
H1836 C1794 0.928 . S
H1837 C1795 0.930 . S
H1838 C1796 0.936 . S
H1839 C1797 0.930 . S
H1840 C1799 0.929 . S
H1841 C1800 0.930 . S
H1842 C1801 0.930 . S
H1843 C1802 0.930 . S
H1844 C1806 0.929 . S
H1845 C1808 0.930 . S
H1846 C1814 0.929 . S
H1847 C1815 0.930 . S
Li1848 N1865 1.990 . S
Li1848 O1908 1.956 . S
Li1848 O1909 1.970 . S
Li1848 O1910 1.961 . S
Li1849 N1873 1.990 . S
Li1849 O1908 1.970 . S
Li1849 O1909 1.956 . S
Li1849 O1911 1.961 . S
Li1850 N1895 1.990 . S
Li1850 O1908 1.961 . S
Li1850 O1910 1.956 . S
Li1850 O1911 1.970 . S
Li1851 N1901 1.990 . S
Li1851 O1909 1.961 . S
Li1851 O1910 1.970 . S
Li1851 O1911 1.956 . S
C1852 C1854 1.348 . S
C1852 C1855 1.356 . S
C1852 O1908 1.325 . S
N1853 C1856 1.314 . S
N1853 C1857 1.279 . S
C1854 C1852 1.348 . S
C1854 C1856 1.353 . S
C1854 H1912 0.929 . S
C1855 C1852 1.356 . S
C1855 C1857 1.358 . S
C1855 H1913 0.930 . S
C1856 N1853 1.314 . S
C1856 C1854 1.353 . S
C1856 H1914 0.930 . S
C1857 N1853 1.279 . S
C1857 C1855 1.358 . S
C1857 H1915 0.930 . S
C1858 C1861 1.348 . S
C1858 C1862 1.356 . S
C1858 O1909 1.325 . S
C1859 N1860 1.279 . S
C1859 C1862 1.358 . S
C1859 H1916 0.930 . S
N1860 C1859 1.279 . S
N1860 C1863 1.314 . S
C1861 C1858 1.348 . S
C1861 C1863 1.353 . S
C1861 H1917 0.929 . S
C1862 C1858 1.356 . S
C1862 C1859 1.358 . S
C1862 H1918 0.930 . S
C1863 N1860 1.314 . S
C1863 C1861 1.353 . S
C1863 H1919 0.930 . S
C1864 N1865 1.314 . S
C1864 C1869 1.353 . S
C1864 H1870 0.930 . S
N1865 Li1848 1.990 . S
N1865 C1864 1.314 . S
N1865 C1867 1.279 . S
C1866 C1867 1.358 . S
C1866 C1868 1.356 . S
C1866 H1920 0.930 . S
C1867 N1865 1.279 . S
C1867 C1866 1.358 . S
C1867 H1871 0.930 . S
C1868 C1866 1.356 . S
C1868 C1869 1.348 . S
C1869 C1864 1.353 . S
C1869 C1868 1.348 . S
C1869 H1921 0.929 . S
H1870 C1864 0.930 . S
H1871 C1867 0.930 . S
C1872 N1873 1.314 . S
C1872 C1874 1.353 . S
C1872 H1878 0.930 . S
N1873 Li1849 1.990 . S
N1873 C1872 1.314 . S
N1873 C1876 1.279 . S
C1874 C1872 1.353 . S
C1874 C1877 1.348 . S
C1874 H1922 0.929 . S
C1875 C1876 1.358 . S
C1875 C1877 1.356 . S
C1875 H1923 0.930 . S
C1876 N1873 1.279 . S
C1876 C1875 1.358 . S
C1876 H1879 0.930 . S
C1877 C1874 1.348 . S
C1877 C1875 1.356 . S
H1878 C1872 0.930 . S
H1879 C1876 0.930 . S
C1880 C1882 1.348 . S
C1880 C1883 1.356 . S
C1880 O1910 1.325 . S
N1881 C1884 1.314 . S
N1881 C1885 1.279 . S
C1882 C1880 1.348 . S
C1882 C1884 1.353 . S
C1882 H1924 0.929 . S
C1883 C1880 1.356 . S
C1883 C1885 1.358 . S
C1883 H1925 0.930 . S
C1884 N1881 1.314 . S
C1884 C1882 1.353 . S
C1884 H1926 0.930 . S
C1885 N1881 1.279 . S
C1885 C1883 1.358 . S
C1885 H1927 0.930 . S
C1886 C1887 1.348 . S
C1886 C1888 1.356 . S
C1886 O1911 1.325 . S
C1887 C1886 1.348 . S
C1887 C1889 1.353 . S
C1887 H1928 0.929 . S
C1888 C1886 1.356 . S
C1888 C1890 1.358 . S
C1888 H1929 0.930 . S
C1889 C1887 1.353 . S
C1889 N1891 1.314 . S
C1889 H1930 0.930 . S
C1890 C1888 1.358 . S
C1890 N1891 1.279 . S
C1890 H1931 0.930 . S
N1891 C1889 1.314 . S
N1891 C1890 1.279 . S
C1892 C1894 1.353 . S
C1892 N1895 1.314 . S
C1892 H1898 0.930 . S
C1893 N1895 1.279 . S
C1893 C1896 1.358 . S
C1893 H1899 0.930 . S
C1894 C1892 1.353 . S
C1894 C1897 1.348 . S
C1894 H1932 0.929 . S
N1895 Li1850 1.990 . S
N1895 C1892 1.314 . S
N1895 C1893 1.279 . S
C1896 C1893 1.358 . S
C1896 C1897 1.356 . S
C1896 H1933 0.930 . S
C1897 C1894 1.348 . S
C1897 C1896 1.356 . S
H1898 C1892 0.930 . S
H1899 C1893 0.930 . S
C1900 N1901 1.314 . S
C1900 C1902 1.353 . S
C1900 H1906 0.930 . S
N1901 Li1851 1.990 . S
N1901 C1900 1.314 . S
N1901 C1904 1.279 . S
C1902 C1900 1.353 . S
C1902 C1905 1.348 . S
C1902 H1934 0.929 . S
C1903 C1904 1.358 . S
C1903 C1905 1.356 . S
C1903 H1935 0.930 . S
C1904 N1901 1.279 . S
C1904 C1903 1.358 . S
C1904 H1907 0.930 . S
C1905 C1902 1.348 . S
C1905 C1903 1.356 . S
H1906 C1900 0.930 . S
H1907 C1904 0.930 . S
O1908 Li1848 1.956 . S
O1908 Li1849 1.970 . S
O1908 Li1850 1.961 . S
O1908 C1852 1.325 . S
O1909 Li1848 1.970 . S
O1909 Li1849 1.956 . S
O1909 Li1851 1.961 . S
O1909 C1858 1.325 . S
O1910 Li1848 1.961 . S
O1910 Li1850 1.956 . S
O1910 Li1851 1.970 . S
O1910 C1880 1.325 . S
O1911 Li1849 1.961 . S
O1911 Li1850 1.970 . S
O1911 Li1851 1.956 . S
O1911 C1886 1.325 . S
H1912 C1854 0.929 . S
H1913 C1855 0.930 . S
H1914 C1856 0.930 . S
H1915 C1857 0.930 . S
H1916 C1859 0.930 . S
H1917 C1861 0.929 . S
H1918 C1862 0.930 . S
H1919 C1863 0.930 . S
H1920 C1866 0.930 . S
H1921 C1869 0.929 . S
H1922 C1874 0.929 . S
H1923 C1875 0.930 . S
H1924 C1882 0.929 . S
H1925 C1883 0.930 . S
H1926 C1884 0.930 . S
H1927 C1885 0.930 . S
H1928 C1887 0.929 . S
H1929 C1888 0.930 . S
H1930 C1889 0.930 . S
H1931 C1890 0.930 . S
H1932 C1894 0.929 . S
H1933 C1896 0.930 . S
H1934 C1902 0.929 . S
H1935 C1903 0.930 . S
Li1936 N1953 1.990 . S
Li1936 O1996 1.956 . S
Li1936 O1997 1.970 . S
Li1936 O1998 1.961 . S
Li1937 N1961 1.990 . S
Li1937 O1996 1.970 . S
Li1937 O1997 1.956 . S
Li1937 O1999 1.961 . S
Li1938 N1983 1.990 . S
Li1938 O1996 1.961 . S
Li1938 O1998 1.956 . S
Li1938 O1999 1.970 . S
Li1939 N1989 1.990 . S
Li1939 O1997 1.961 . S
Li1939 O1998 1.970 . S
Li1939 O1999 1.956 . S
C1940 C1942 1.348 . S
C1940 C1943 1.356 . S
C1940 O1996 1.325 . S
N1941 C1944 1.314 . S
N1941 C1945 1.279 . S
C1942 C1940 1.348 . S
C1942 C1944 1.353 . S
C1942 H2000 0.929 . S
C1943 C1940 1.356 . S
C1943 C1945 1.358 . S
C1943 H2001 0.930 . S
C1944 N1941 1.314 . S
C1944 C1942 1.353 . S
C1944 H2002 0.930 . S
C1945 N1941 1.279 . S
C1945 C1943 1.358 . S
C1945 H2003 0.930 . S
C1946 C1949 1.348 . S
C1946 C1950 1.356 . S
C1946 O1997 1.325 . S
C1947 N1948 1.279 . S
C1947 C1950 1.358 . S
C1947 H2004 0.930 . S
N1948 C1947 1.279 . S
N1948 C1951 1.314 . S
C1949 C1946 1.348 . S
C1949 C1951 1.353 . S
C1949 H2005 0.929 . S
C1950 C1946 1.356 . S
C1950 C1947 1.358 . S
C1950 H2006 0.930 . S
C1951 N1948 1.314 . S
C1951 C1949 1.353 . S
C1951 H2007 0.930 . S
C1952 N1953 1.314 . S
C1952 C1957 1.353 . S
C1952 H1958 0.930 . S
N1953 Li1936 1.990 . S
N1953 C1952 1.314 . S
N1953 C1955 1.279 . S
C1954 C1955 1.358 . S
C1954 C1956 1.356 . S
C1954 H2008 0.930 . S
C1955 N1953 1.279 . S
C1955 C1954 1.358 . S
C1955 H1959 0.930 . S
C1956 C1954 1.356 . S
C1956 C1957 1.348 . S
C1957 C1952 1.353 . S
C1957 C1956 1.348 . S
C1957 H2009 0.929 . S
H1958 C1952 0.930 . S
H1959 C1955 0.930 . S
C1960 N1961 1.314 . S
C1960 C1962 1.353 . S
C1960 H1966 0.930 . S
N1961 Li1937 1.990 . S
N1961 C1960 1.314 . S
N1961 C1964 1.279 . S
C1962 C1960 1.353 . S
C1962 C1965 1.348 . S
C1962 H2010 0.929 . S
C1963 C1964 1.358 . S
C1963 C1965 1.356 . S
C1963 H2011 0.930 . S
C1964 N1961 1.279 . S
C1964 C1963 1.358 . S
C1964 H1967 0.930 . S
C1965 C1962 1.348 . S
C1965 C1963 1.356 . S
H1966 C1960 0.930 . S
H1967 C1964 0.930 . S
C1968 C1970 1.348 . S
C1968 C1971 1.356 . S
C1968 O1998 1.325 . S
N1969 C1972 1.314 . S
N1969 C1973 1.279 . S
C1970 C1968 1.348 . S
C1970 C1972 1.353 . S
C1970 H2012 0.929 . S
C1971 C1968 1.356 . S
C1971 C1973 1.358 . S
C1971 H2013 0.930 . S
C1972 N1969 1.314 . S
C1972 C1970 1.353 . S
C1972 H2014 0.930 . S
C1973 N1969 1.279 . S
C1973 C1971 1.358 . S
C1973 H2015 0.930 . S
C1974 C1975 1.348 . S
C1974 C1976 1.356 . S
C1974 O1999 1.325 . S
C1975 C1974 1.348 . S
C1975 C1977 1.353 . S
C1975 H2016 0.929 . S
C1976 C1974 1.356 . S
C1976 C1978 1.358 . S
C1976 H2017 0.930 . S
C1977 C1975 1.353 . S
C1977 N1979 1.314 . S
C1977 H2018 0.930 . S
C1978 C1976 1.358 . S
C1978 N1979 1.279 . S
C1978 H2019 0.930 . S
N1979 C1977 1.314 . S
N1979 C1978 1.279 . S
C1980 C1982 1.353 . S
C1980 N1983 1.314 . S
C1980 H1986 0.930 . S
C1981 N1983 1.279 . S
C1981 C1984 1.358 . S
C1981 H1987 0.930 . S
C1982 C1980 1.353 . S
C1982 C1985 1.348 . S
C1982 H2020 0.929 . S
N1983 Li1938 1.990 . S
N1983 C1980 1.314 . S
N1983 C1981 1.279 . S
C1984 C1981 1.358 . S
C1984 C1985 1.356 . S
C1984 H2021 0.930 . S
C1985 C1982 1.348 . S
C1985 C1984 1.356 . S
H1986 C1980 0.930 . S
H1987 C1981 0.930 . S
C1988 N1989 1.314 . S
C1988 C1990 1.353 . S
C1988 H1994 0.930 . S
N1989 Li1939 1.990 . S
N1989 C1988 1.314 . S
N1989 C1992 1.279 . S
C1990 C1988 1.353 . S
C1990 C1993 1.348 . S
C1990 H2022 0.929 . S
C1991 C1992 1.358 . S
C1991 C1993 1.356 . S
C1991 H2023 0.930 . S
C1992 N1989 1.279 . S
C1992 C1991 1.358 . S
C1992 H1995 0.930 . S
C1993 C1990 1.348 . S
C1993 C1991 1.356 . S
H1994 C1988 0.930 . S
H1995 C1992 0.930 . S
O1996 Li1936 1.956 . S
O1996 Li1937 1.970 . S
O1996 Li1938 1.961 . S
O1996 C1940 1.325 . S
O1997 Li1936 1.970 . S
O1997 Li1937 1.956 . S
O1997 Li1939 1.961 . S
O1997 C1946 1.325 . S
O1998 Li1936 1.961 . S
O1998 Li1938 1.956 . S
O1998 Li1939 1.970 . S
O1998 C1968 1.325 . S
O1999 Li1937 1.961 . S
O1999 Li1938 1.970 . S
O1999 Li1939 1.956 . S
O1999 C1974 1.325 . S
H2000 C1942 0.929 . S
H2001 C1943 0.930 . S
H2002 C1944 0.930 . S
H2003 C1945 0.930 . S
H2004 C1947 0.930 . S
H2005 C1949 0.929 . S
H2006 C1950 0.930 . S
H2007 C1951 0.930 . S
H2008 C1954 0.930 . S
H2009 C1957 0.929 . S
H2010 C1962 0.929 . S
H2011 C1963 0.930 . S
H2012 C1970 0.929 . S
H2013 C1971 0.930 . S
H2014 C1972 0.930 . S
H2015 C1973 0.930 . S
H2016 C1975 0.929 . S
H2017 C1976 0.930 . S
H2018 C1977 0.930 . S
H2019 C1978 0.930 . S
H2020 C1982 0.929 . S
H2021 C1984 0.930 . S
H2022 C1990 0.929 . S
H2023 C1991 0.930 . S
Li2024 N2041 1.990 . S
Li2024 O2084 1.956 . S
Li2024 O2085 1.970 . S
Li2024 O2086 1.961 . S
Li2025 N2049 1.990 . S
Li2025 O2084 1.970 . S
Li2025 O2085 1.956 . S
Li2025 O2087 1.961 . S
Li2026 N2071 1.990 . S
Li2026 O2084 1.961 . S
Li2026 O2086 1.956 . S
Li2026 O2087 1.970 . S
Li2027 N2077 1.990 . S
Li2027 O2085 1.961 . S
Li2027 O2086 1.970 . S
Li2027 O2087 1.956 . S
C2028 C2030 1.348 . S
C2028 C2031 1.356 . S
C2028 O2084 1.325 . S
N2029 C2032 1.314 . S
N2029 C2033 1.279 . S
C2030 C2028 1.348 . S
C2030 C2032 1.353 . S
C2030 H2088 0.929 . S
C2031 C2028 1.356 . S
C2031 C2033 1.358 . S
C2031 H2089 0.930 . S
C2032 N2029 1.314 . S
C2032 C2030 1.353 . S
C2032 H2090 0.930 . S
C2033 N2029 1.279 . S
C2033 C2031 1.358 . S
C2033 H2091 0.930 . S
C2034 C2037 1.348 . S
C2034 C2038 1.356 . S
C2034 O2085 1.325 . S
C2035 N2036 1.279 . S
C2035 C2038 1.358 . S
C2035 H2092 0.930 . S
N2036 C2035 1.279 . S
N2036 C2039 1.314 . S
C2037 C2034 1.348 . S
C2037 C2039 1.353 . S
C2037 H2093 0.929 . S
C2038 C2034 1.356 . S
C2038 C2035 1.358 . S
C2038 H2094 0.930 . S
C2039 N2036 1.314 . S
C2039 C2037 1.353 . S
C2039 H2095 0.930 . S
C2040 N2041 1.314 . S
C2040 C2045 1.353 . S
C2040 H2046 0.930 . S
N2041 Li2024 1.990 . S
N2041 C2040 1.314 . S
N2041 C2043 1.279 . S
C2042 C2043 1.358 . S
C2042 C2044 1.356 . S
C2042 H2096 0.930 . S
C2043 N2041 1.279 . S
C2043 C2042 1.358 . S
C2043 H2047 0.930 . S
C2044 C2042 1.356 . S
C2044 C2045 1.348 . S
C2045 C2040 1.353 . S
C2045 C2044 1.348 . S
C2045 H2097 0.929 . S
H2046 C2040 0.930 . S
H2047 C2043 0.930 . S
C2048 N2049 1.314 . S
C2048 C2050 1.353 . S
C2048 H2054 0.930 . S
N2049 Li2025 1.990 . S
N2049 C2048 1.314 . S
N2049 C2052 1.279 . S
C2050 C2048 1.353 . S
C2050 C2053 1.348 . S
C2050 H2098 0.929 . S
C2051 C2052 1.358 . S
C2051 C2053 1.356 . S
C2051 H2099 0.930 . S
C2052 N2049 1.279 . S
C2052 C2051 1.358 . S
C2052 H2055 0.930 . S
C2053 C2050 1.348 . S
C2053 C2051 1.356 . S
H2054 C2048 0.930 . S
H2055 C2052 0.930 . S
C2056 C2058 1.348 . S
C2056 C2059 1.356 . S
C2056 O2086 1.325 . S
N2057 C2060 1.314 . S
N2057 C2061 1.279 . S
C2058 C2056 1.348 . S
C2058 C2060 1.353 . S
C2058 H2100 0.929 . S
C2059 C2056 1.356 . S
C2059 C2061 1.358 . S
C2059 H2101 0.930 . S
C2060 N2057 1.314 . S
C2060 C2058 1.353 . S
C2060 H2102 0.930 . S
C2061 N2057 1.279 . S
C2061 C2059 1.358 . S
C2061 H2103 0.930 . S
C2062 C2063 1.348 . S
C2062 C2064 1.356 . S
C2062 O2087 1.325 . S
C2063 C2062 1.348 . S
C2063 C2065 1.353 . S
C2063 H2104 0.929 . S
C2064 C2062 1.356 . S
C2064 C2066 1.358 . S
C2064 H2105 0.930 . S
C2065 C2063 1.353 . S
C2065 N2067 1.314 . S
C2065 H2106 0.930 . S
C2066 C2064 1.358 . S
C2066 N2067 1.279 . S
C2066 H2107 0.930 . S
N2067 C2065 1.314 . S
N2067 C2066 1.279 . S
C2068 C2070 1.353 . S
C2068 N2071 1.314 . S
C2068 H2074 0.930 . S
C2069 N2071 1.279 . S
C2069 C2072 1.358 . S
C2069 H2075 0.930 . S
C2070 C2068 1.353 . S
C2070 C2073 1.348 . S
C2070 H2108 0.929 . S
N2071 Li2026 1.990 . S
N2071 C2068 1.314 . S
N2071 C2069 1.279 . S
C2072 C2069 1.358 . S
C2072 C2073 1.356 . S
C2072 H2109 0.930 . S
C2073 C2070 1.348 . S
C2073 C2072 1.356 . S
H2074 C2068 0.930 . S
H2075 C2069 0.930 . S
C2076 N2077 1.314 . S
C2076 C2078 1.353 . S
C2076 H2082 0.930 . S
N2077 Li2027 1.990 . S
N2077 C2076 1.314 . S
N2077 C2080 1.279 . S
C2078 C2076 1.353 . S
C2078 C2081 1.348 . S
C2078 H2110 0.929 . S
C2079 C2080 1.358 . S
C2079 C2081 1.356 . S
C2079 H2111 0.930 . S
C2080 N2077 1.279 . S
C2080 C2079 1.358 . S
C2080 H2083 0.930 . S
C2081 C2078 1.348 . S
C2081 C2079 1.356 . S
H2082 C2076 0.930 . S
H2083 C2080 0.930 . S
O2084 Li2024 1.956 . S
O2084 Li2025 1.970 . S
O2084 Li2026 1.961 . S
O2084 C2028 1.325 . S
O2085 Li2024 1.970 . S
O2085 Li2025 1.956 . S
O2085 Li2027 1.961 . S
O2085 C2034 1.325 . S
O2086 Li2024 1.961 . S
O2086 Li2026 1.956 . S
O2086 Li2027 1.970 . S
O2086 C2056 1.325 . S
O2087 Li2025 1.961 . S
O2087 Li2026 1.970 . S
O2087 Li2027 1.956 . S
O2087 C2062 1.325 . S
H2088 C2030 0.929 . S
H2089 C2031 0.930 . S
H2090 C2032 0.930 . S
H2091 C2033 0.930 . S
H2092 C2035 0.930 . S
H2093 C2037 0.929 . S
H2094 C2038 0.930 . S
H2095 C2039 0.930 . S
H2096 C2042 0.930 . S
H2097 C2045 0.929 . S
H2098 C2050 0.929 . S
H2099 C2051 0.930 . S
H2100 C2058 0.929 . S
H2101 C2059 0.930 . S
H2102 C2060 0.930 . S
H2103 C2061 0.930 . S
H2104 C2063 0.929 . S
H2105 C2064 0.930 . S
H2106 C2065 0.930 . S
H2107 C2066 0.930 . S
H2108 C2070 0.929 . S
H2109 C2072 0.930 . S
H2110 C2078 0.929 . S
H2111 C2079 0.930 . S
Tb2112 N2141 2.617 . S
Tb2112 N2147 2.572 . S
Tb2112 O2156 2.465 . S
Tb2112 O2157 2.387 . S
Tb2112 O2159 2.428 . S
Tb2112 O2160 2.308 . S
Tb2112 O2164 2.349 . S
Tb2112 O2167 2.393 . S
Tb2112 C2176 2.802 . S
C2113 N2114 1.379 . S
C2113 C2116 1.416 . S
C2113 C2120 1.424 1_556 S
N2114 C2113 1.379 . S
N2114 C2117 1.334 . S
N2114 Tb2123 2.617 1_566 S
C2115 C2117 1.390 . S
C2115 C2118 1.339 . S
C2115 H2135 0.930 . S
C2116 C2113 1.416 . S
C2116 C2118 1.416 . S
C2116 C2122 1.448 . S
C2117 N2114 1.334 . S
C2117 C2115 1.390 . S
C2117 H2128 0.930 . S
C2118 C2115 1.339 . S
C2118 C2116 1.416 . S
C2118 H2139 0.930 . S
C2119 C2120 1.413 . S
C2119 C2121 1.427 1_554 S
C2119 C2125 1.416 . S
C2120 C2113 1.424 1_554 S
C2120 C2119 1.413 . S
C2120 N2124 1.361 . S
C2121 C2119 1.427 1_556 S
C2121 C2122 1.328 . S
C2121 H2136 0.929 . S
C2122 C2116 1.448 . S
C2122 C2121 1.328 . S
C2122 H2137 0.930 . S
Tb2123 N2114 2.617 1_544 S
Tb2123 N2124 2.572 1_545 S
Tb2123 O2158 2.349 1_655 S
Tb2123 O2161 2.393 1_654 S
Tb2123 O2162 2.465 . S
Tb2123 O2163 2.387 1_645 S
Tb2123 O2165 2.428 1_554 S
Tb2123 O2166 2.308 1_655 S
Tb2123 C2187 2.802 . S
N2124 C2120 1.361 . S
N2124 Tb2123 2.572 1_565 S
N2124 C2126 1.340 . S
C2125 C2119 1.416 . S
C2125 C2127 1.332 . S
C2125 H2133 0.931 . S
C2126 N2124 1.340 . S
C2126 C2127 1.407 . S
C2126 H2132 0.930 . S
C2127 C2125 1.332 . S
C2127 C2126 1.407 . S
C2127 H2129 0.929 . S
H2128 C2117 0.930 . S
H2129 C2127 0.929 . S
H2130 C2145 0.930 . S
H2131 C2152 0.929 1_556 S
H2132 C2126 0.930 . S
H2133 C2125 0.931 . S
H2134 C2148 0.930 . S
H2135 C2115 0.930 . S
H2136 C2121 0.929 . S
H2137 C2122 0.930 . S
H2138 C2143 0.930 . S
H2139 C2118 0.930 . S
H2140 C2151 0.931 . S
N2141 Tb2112 2.617 . S
N2141 C2142 1.379 . S
N2141 C2145 1.334 . S
C2142 N2141 1.379 . S
C2142 C2144 1.416 . S
C2142 C2150 1.424 . S
C2143 H2138 0.930 . S
C2143 C2145 1.390 . S
C2143 C2146 1.339 . S
C2144 C2142 1.416 . S
C2144 C2146 1.416 . S
C2144 C2177 1.448 . S
C2145 H2130 0.930 . S
C2145 N2141 1.334 . S
C2145 C2143 1.390 . S
C2146 C2143 1.339 . S
C2146 C2144 1.416 . S
C2146 H2153 0.930 . S
N2147 Tb2112 2.572 . S
N2147 C2148 1.340 . S
N2147 C2150 1.361 . S
C2148 H2134 0.930 . S
C2148 N2147 1.340 . S
C2148 C2152 1.407 . S
C2149 C2150 1.413 . S
C2149 C2151 1.416 . S
C2149 C2178 1.427 . S
C2150 C2142 1.424 . S
C2150 N2147 1.361 . S
C2150 C2149 1.413 . S
C2151 H2140 0.931 . S
C2151 C2149 1.416 . S
C2151 C2152 1.332 . S
C2152 H2131 0.929 1_554 S
C2152 C2148 1.407 . S
C2152 C2151 1.332 . S
H2153 C2146 0.930 . S
H2154 C2177 0.930 . S
H2155 C2178 0.929 . S
O2156 Tb2112 2.465 . S
O2156 C2176 1.264 . S
O2157 Tb2112 2.387 . S
O2157 C2168 1.264 . S
O2158 Tb2123 2.349 1_455 S
O2158 C2168 1.243 . S
O2159 Tb2112 2.428 . S
O2159 C2176 1.256 . S
O2160 Tb2112 2.308 . S
O2160 C2175 1.266 1_554 S
O2161 Tb2123 2.393 1_456 S
O2161 C2175 1.248 . S
O2162 Tb2123 2.465 . S
O2162 C2187 1.264 . S
O2163 Tb2123 2.387 1_465 S
O2163 C2179 1.264 . S
O2164 Tb2112 2.349 . S
O2164 C2179 1.243 1_545 S
O2165 Tb2123 2.428 1_556 S
O2165 C2187 1.256 1_556 S
O2166 Tb2123 2.308 1_455 S
O2166 C2186 1.266 . S
O2167 Tb2112 2.393 . S
O2167 C2186 1.248 . S
C2168 O2157 1.264 . S
C2168 O2158 1.243 . S
C2169 C2172 1.399 . S
C2169 C2174 1.383 . S
C2169 C2176 1.496 . S
C2170 C2171 1.399 . S
C2170 C2174 1.389 . S
C2171 C2170 1.399 . S
C2171 C2173 1.380 . S
C2171 H2188 0.926 1_545 S
C2172 C2169 1.399 . S
C2172 C2173 1.392 . S
C2172 H2189 0.929 . S
C2173 C2171 1.380 . S
C2173 C2172 1.392 . S
C2173 H2190 0.929 . S
C2174 C2169 1.383 . S
C2174 C2170 1.389 . S
C2174 H2191 0.931 . S
C2175 O2160 1.266 1_556 S
C2175 O2161 1.248 . S
C2176 Tb2112 2.802 . S
C2176 O2156 1.264 . S
C2176 O2159 1.256 . S
C2176 C2169 1.496 . S
C2177 C2144 1.448 . S
C2177 H2154 0.930 . S
C2177 C2178 1.328 . S
C2178 C2149 1.427 . S
C2178 H2155 0.929 . S
C2178 C2177 1.328 . S
C2179 O2163 1.264 . S
C2179 O2164 1.243 1_565 S
C2180 C2183 1.385 1_554 S
C2180 C2184 1.396 . S
C2180 C2187 1.497 . S
C2181 C2182 1.399 1_554 S
C2181 C2184 1.389 . S
C2182 C2181 1.399 1_556 S
C2182 C2185 1.380 . S
C2182 H2192 0.929 . S
C2183 C2180 1.385 1_556 S
C2183 C2185 1.392 . S
C2183 H2193 0.929 . S
C2184 C2180 1.396 . S
C2184 C2181 1.389 . S
C2184 H2194 0.931 . S
C2185 C2182 1.380 . S
C2185 C2183 1.392 . S
C2185 H2195 0.929 . S
C2186 O2166 1.266 . S
C2186 O2167 1.248 . S
C2187 Tb2123 2.802 . S
C2187 O2162 1.264 . S
C2187 O2165 1.256 1_554 S
C2187 C2180 1.497 . S
H2188 C2171 0.926 1_565 S
H2189 C2172 0.929 . S
H2190 C2173 0.929 . S
H2191 C2174 0.931 . S
H2192 C2182 0.929 . S
H2193 C2183 0.929 . S
H2194 C2184 0.931 . S
H2195 C2185 0.929 . S
Tb2196 N2225 2.617 . S
Tb2196 N2231 2.572 . S
Tb2196 O2240 2.465 . S
Tb2196 O2241 2.387 . S
Tb2196 O2243 2.428 . S
Tb2196 O2244 2.308 . S
Tb2196 O2248 2.349 . S
Tb2196 O2251 2.393 . S
Tb2196 C2260 2.802 . S
C2197 N2198 1.379 . S
C2197 C2200 1.416 . S
C2197 C2204 1.424 . S
N2198 C2197 1.379 . S
N2198 C2201 1.334 . S
N2198 Tb2207 2.617 . S
C2199 C2201 1.390 . S
C2199 C2202 1.339 . S
C2199 H2219 0.930 . S
C2200 C2197 1.416 . S
C2200 C2202 1.416 . S
C2200 C2206 1.448 . S
C2201 N2198 1.334 . S
C2201 C2199 1.390 . S
C2201 H2212 0.930 . S
C2202 C2199 1.339 . S
C2202 C2200 1.416 . S
C2202 H2223 0.930 . S
C2203 C2204 1.413 . S
C2203 C2205 1.427 . S
C2203 C2209 1.416 . S
C2204 C2197 1.424 . S
C2204 C2203 1.413 . S
C2204 N2208 1.361 . S
C2205 C2203 1.427 . S
C2205 C2206 1.328 . S
C2205 H2220 0.929 . S
C2206 C2200 1.448 . S
C2206 C2205 1.328 . S
C2206 H2221 0.930 . S
Tb2207 N2198 2.617 . S
Tb2207 N2208 2.572 . S
Tb2207 O2242 2.349 . S
Tb2207 O2245 2.393 . S
Tb2207 O2246 2.465 . S
Tb2207 O2247 2.387 . S
Tb2207 O2249 2.428 . S
Tb2207 O2250 2.308 . S
Tb2207 C2271 2.802 . S
N2208 C2204 1.361 . S
N2208 Tb2207 2.572 . S
N2208 C2210 1.340 . S
C2209 C2203 1.416 . S
C2209 C2211 1.332 . S
C2209 H2217 0.931 . S
C2210 N2208 1.340 . S
C2210 C2211 1.407 . S
C2210 H2216 0.930 . S
C2211 C2209 1.332 . S
C2211 C2210 1.407 . S
C2211 H2213 0.929 . S
H2212 C2201 0.930 . S
H2213 C2211 0.929 . S
H2214 C2229 0.930 . S
H2215 C2236 0.929 . S
H2216 C2210 0.930 . S
H2217 C2209 0.931 . S
H2218 C2232 0.930 . S
H2219 C2199 0.930 . S
H2220 C2205 0.929 . S
H2221 C2206 0.930 . S
H2222 C2227 0.930 . S
H2223 C2202 0.930 . S
H2224 C2235 0.931 . S
N2225 Tb2196 2.617 . S
N2225 C2226 1.379 . S
N2225 C2229 1.334 . S
C2226 N2225 1.379 . S
C2226 C2228 1.416 . S
C2226 C2234 1.424 . S
C2227 H2222 0.930 . S
C2227 C2229 1.390 . S
C2227 C2230 1.339 . S
C2228 C2226 1.416 . S
C2228 C2230 1.416 . S
C2228 C2261 1.448 . S
C2229 H2214 0.930 . S
C2229 N2225 1.334 . S
C2229 C2227 1.390 . S
C2230 C2227 1.339 . S
C2230 C2228 1.416 . S
C2230 H2237 0.930 . S
N2231 Tb2196 2.572 . S
N2231 C2232 1.340 . S
N2231 C2234 1.361 . S
C2232 H2218 0.930 . S
C2232 N2231 1.340 . S
C2232 C2236 1.407 . S
C2233 C2234 1.413 . S
C2233 C2235 1.416 . S
C2233 C2262 1.427 . S
C2234 C2226 1.424 . S
C2234 N2231 1.361 . S
C2234 C2233 1.413 . S
C2235 H2224 0.931 . S
C2235 C2233 1.416 . S
C2235 C2236 1.332 . S
C2236 H2215 0.929 . S
C2236 C2232 1.407 . S
C2236 C2235 1.332 . S
H2237 C2230 0.930 . S
H2238 C2261 0.930 . S
H2239 C2262 0.929 . S
O2240 Tb2196 2.465 . S
O2240 C2260 1.264 . S
O2241 Tb2196 2.387 . S
O2241 C2252 1.264 . S
O2242 Tb2207 2.349 . S
O2242 C2252 1.243 . S
O2243 Tb2196 2.428 . S
O2243 C2260 1.256 . S
O2244 Tb2196 2.308 . S
O2244 C2259 1.266 . S
O2245 Tb2207 2.393 . S
O2245 C2259 1.248 . S
O2246 Tb2207 2.465 . S
O2246 C2271 1.264 . S
O2247 Tb2207 2.387 . S
O2247 C2263 1.264 . S
O2248 Tb2196 2.349 . S
O2248 C2263 1.243 . S
O2249 Tb2207 2.428 . S
O2249 C2271 1.256 . S
O2250 Tb2207 2.308 . S
O2250 C2270 1.266 . S
O2251 Tb2196 2.393 . S
O2251 C2270 1.248 . S
C2252 O2241 1.264 . S
C2252 O2242 1.243 . S
C2253 C2256 1.399 . S
C2253 C2258 1.383 . S
C2253 C2260 1.496 . S
C2254 C2255 1.399 . S
C2254 C2258 1.389 . S
C2255 C2254 1.399 . S
C2255 C2257 1.380 . S
C2255 H2272 0.929 . S
C2256 C2253 1.399 . S
C2256 C2257 1.392 . S
C2256 H2273 0.929 . S
C2257 C2255 1.380 . S
C2257 C2256 1.392 . S
C2257 H2274 0.929 . S
C2258 C2253 1.383 . S
C2258 C2254 1.389 . S
C2258 H2275 0.931 . S
C2259 O2244 1.266 . S
C2259 O2245 1.248 . S
C2260 Tb2196 2.802 . S
C2260 O2240 1.264 . S
C2260 O2243 1.256 . S
C2260 C2253 1.496 . S
C2261 C2228 1.448 . S
C2261 H2238 0.930 . S
C2261 C2262 1.328 . S
C2262 C2233 1.427 . S
C2262 H2239 0.929 . S
C2262 C2261 1.328 . S
C2263 O2247 1.264 . S
C2263 O2248 1.243 . S
C2264 C2267 1.399 . S
C2264 C2268 1.383 . S
C2264 C2271 1.496 . S
C2265 C2266 1.399 . S
C2265 C2268 1.389 . S
C2266 C2265 1.399 . S
C2266 C2269 1.380 . S
C2266 H2276 0.929 . S
C2267 C2264 1.399 . S
C2267 C2269 1.392 . S
C2267 H2277 0.929 . S
C2268 C2264 1.383 . S
C2268 C2265 1.389 . S
C2268 H2278 0.931 . S
C2269 C2266 1.380 . S
C2269 C2267 1.392 . S
C2269 H2279 0.929 . S
C2270 O2250 1.266 . S
C2270 O2251 1.248 . S
C2271 Tb2207 2.802 . S
C2271 O2246 1.264 . S
C2271 O2249 1.256 . S
C2271 C2264 1.496 . S
H2272 C2255 0.929 . S
H2273 C2256 0.929 . S
H2274 C2257 0.929 . S
H2275 C2258 0.931 . S
H2276 C2266 0.929 . S
H2277 C2267 0.929 . S
H2278 C2268 0.931 . S
H2279 C2269 0.929 . S
Tb2280 N2309 2.634 . S
Tb2280 N2315 2.572 1_545 S
Tb2280 O2324 2.465 . S
Tb2280 O2325 2.387 1_545 S
Tb2280 O2327 2.428 . S
Tb2280 O2328 2.308 . S
Tb2280 O2332 2.349 . S
Tb2280 O2335 2.393 . S
Tb2280 C2344 2.802 . S
C2281 N2282 1.379 . S
C2281 C2284 1.416 . S
C2281 C2288 1.424 . S
N2282 C2281 1.379 . S
N2282 C2285 1.334 . S
N2282 Tb2291 2.617 . S
C2283 C2285 1.390 . S
C2283 C2286 1.339 . S
C2283 H2303 0.930 . S
C2284 C2281 1.416 . S
C2284 C2286 1.416 . S
C2284 C2290 1.448 . S
C2285 N2282 1.334 . S
C2285 C2283 1.390 . S
C2285 H2296 0.930 . S
C2286 C2283 1.339 . S
C2286 C2284 1.416 . S
C2286 H2307 0.930 . S
C2287 C2288 1.413 . S
C2287 C2289 1.427 . S
C2287 C2293 1.416 . S
C2288 C2281 1.424 . S
C2288 C2287 1.413 . S
C2288 N2292 1.361 . S
C2289 C2287 1.427 . S
C2289 C2290 1.328 . S
C2289 H2304 0.929 . S
C2290 C2284 1.448 . S
C2290 C2289 1.328 . S
C2290 H2305 0.930 . S
Tb2291 N2282 2.617 . S
Tb2291 N2292 2.572 . S
Tb2291 O2326 2.349 1_545 S
Tb2291 O2329 2.393 . S
Tb2291 O2330 2.465 . S
Tb2291 O2331 2.387 . S
Tb2291 O2333 2.428 . S
Tb2291 O2334 2.308 . S
Tb2291 C2355 2.802 . S
N2292 C2288 1.361 . S
N2292 Tb2291 2.572 . S
N2292 C2294 1.340 . S
C2293 C2287 1.416 . S
C2293 C2295 1.332 . S
C2293 H2301 0.931 . S
C2294 N2292 1.340 . S
C2294 C2295 1.407 . S
C2294 H2300 0.930 . S
C2295 C2293 1.332 . S
C2295 C2294 1.407 . S
C2295 H2297 0.929 . S
H2296 C2285 0.930 . S
H2297 C2295 0.929 . S
H2298 C2313 0.930 . S
H2299 C2320 0.929 . S
H2300 C2294 0.930 . S
H2301 C2293 0.931 . S
H2302 C2316 0.930 . S
H2303 C2283 0.930 . S
H2304 C2289 0.929 . S
H2305 C2290 0.930 . S
H2306 C2311 0.930 . S
H2307 C2286 0.930 . S
H2308 C2319 0.931 . S
N2309 Tb2280 2.634 . S
N2309 C2310 1.361 1_545 S
N2309 C2313 1.334 . S
C2310 N2309 1.361 1_565 S
C2310 C2312 1.416 . S
C2310 C2318 1.424 . S
C2311 H2306 0.930 . S
C2311 C2313 1.390 1_565 S
C2311 C2314 1.339 . S
C2312 C2310 1.416 . S
C2312 C2314 1.416 . S
C2312 C2345 1.448 . S
C2313 H2298 0.930 . S
C2313 N2309 1.334 . S
C2313 C2311 1.390 1_545 S
C2314 C2311 1.339 . S
C2314 C2312 1.416 . S
C2314 H2321 0.930 . S
N2315 Tb2280 2.572 1_565 S
N2315 C2316 1.340 . S
N2315 C2318 1.361 . S
C2316 H2302 0.930 . S
C2316 N2315 1.340 . S
C2316 C2320 1.407 . S
C2317 C2318 1.413 . S
C2317 C2319 1.416 . S
C2317 C2346 1.427 . S
C2318 C2310 1.424 . S
C2318 N2315 1.361 . S
C2318 C2317 1.413 . S
C2319 H2308 0.931 . S
C2319 C2317 1.416 . S
C2319 C2320 1.332 . S
C2320 H2299 0.929 . S
C2320 C2316 1.407 . S
C2320 C2319 1.332 . S
H2321 C2314 0.930 . S
H2322 C2345 0.930 . S
H2323 C2346 0.929 . S
O2324 Tb2280 2.465 . S
O2324 C2344 1.264 . S
O2325 Tb2280 2.387 1_565 S
O2325 C2336 1.264 . S
O2326 Tb2291 2.349 1_565 S
O2326 C2336 1.243 . S
O2327 Tb2280 2.428 . S
O2327 C2344 1.256 . S
O2328 Tb2280 2.308 . S
O2328 C2343 1.266 . S
O2329 Tb2291 2.393 . S
O2329 C2343 1.248 . S
O2330 Tb2291 2.465 . S
O2330 C2355 1.264 . S
O2331 Tb2291 2.387 . S
O2331 C2347 1.264 . S
O2332 Tb2280 2.349 . S
O2332 C2347 1.243 . S
O2333 Tb2291 2.428 . S
O2333 C2355 1.256 . S
O2334 Tb2291 2.308 . S
O2334 C2354 1.266 . S
O2335 Tb2280 2.393 . S
O2335 C2354 1.248 . S
C2336 O2325 1.264 . S
C2336 O2326 1.243 . S
C2337 C2340 1.399 . S
C2337 C2342 1.383 . S
C2337 C2344 1.496 . S
C2338 C2339 1.399 . S
C2338 C2342 1.389 . S
C2339 C2338 1.399 . S
C2339 C2341 1.380 . S
C2339 H2356 0.929 . S
C2340 C2337 1.399 . S
C2340 C2341 1.392 . S
C2340 H2357 0.929 . S
C2341 C2339 1.380 . S
C2341 C2340 1.392 . S
C2341 H2358 0.929 . S
C2342 C2337 1.383 . S
C2342 C2338 1.389 . S
C2342 H2359 0.931 . S
C2343 O2328 1.266 . S
C2343 O2329 1.248 . S
C2344 Tb2280 2.802 . S
C2344 O2324 1.264 . S
C2344 O2327 1.256 . S
C2344 C2337 1.496 . S
C2345 C2312 1.448 . S
C2345 H2322 0.930 . S
C2345 C2346 1.328 . S
C2346 C2317 1.427 . S
C2346 H2323 0.929 . S
C2346 C2345 1.328 . S
C2347 O2331 1.264 . S
C2347 O2332 1.243 . S
C2348 C2351 1.399 . S
C2348 C2352 1.383 . S
C2348 C2355 1.496 1_565 S
C2349 C2350 1.399 . S
C2349 C2352 1.389 . S
C2350 C2349 1.399 . S
C2350 C2353 1.380 . S
C2350 H2360 0.929 . S
C2351 C2348 1.399 . S
C2351 C2353 1.392 . S
C2351 H2361 0.929 . S
C2352 C2348 1.383 . S
C2352 C2349 1.389 . S
C2352 H2362 0.931 . S
C2353 C2350 1.380 . S
C2353 C2351 1.392 . S
C2353 H2363 0.929 . S
C2354 O2334 1.266 . S
C2354 O2335 1.248 . S
C2355 Tb2291 2.802 . S
C2355 O2330 1.264 . S
C2355 O2333 1.256 . S
C2355 C2348 1.496 1_545 S
H2356 C2339 0.929 . S
H2357 C2340 0.929 . S
H2358 C2341 0.929 . S
H2359 C2342 0.931 . S
H2360 C2350 0.929 . S
H2361 C2351 0.929 . S
H2362 C2352 0.931 . S
H2363 C2353 0.929 . S
Tb2364 N2393 2.617 . S
Tb2364 N2399 2.572 . S
Tb2364 O2408 2.465 . S
Tb2364 O2409 2.387 . S
Tb2364 O2411 2.428 . S
Tb2364 O2412 2.308 . S
Tb2364 O2416 2.349 . S
Tb2364 O2419 2.393 . S
Tb2364 C2428 2.802 . S
C2365 N2366 1.379 . S
C2365 C2368 1.416 . S
C2365 C2372 1.424 . S
N2366 C2365 1.379 . S
N2366 C2369 1.334 . S
N2366 Tb2375 2.617 . S
C2367 C2369 1.390 . S
C2367 C2370 1.339 . S
C2367 H2387 0.930 . S
C2368 C2365 1.416 . S
C2368 C2370 1.416 . S
C2368 C2374 1.448 . S
C2369 N2366 1.334 . S
C2369 C2367 1.390 . S
C2369 H2380 0.930 . S
C2370 C2367 1.339 . S
C2370 C2368 1.416 . S
C2370 H2391 0.930 . S
C2371 C2372 1.413 . S
C2371 C2373 1.427 . S
C2371 C2377 1.416 . S
C2372 C2365 1.424 . S
C2372 C2371 1.413 . S
C2372 N2376 1.361 . S
C2373 C2371 1.427 . S
C2373 C2374 1.328 . S
C2373 H2388 0.929 . S
C2374 C2368 1.448 . S
C2374 C2373 1.328 . S
C2374 H2389 0.930 . S
Tb2375 N2366 2.617 . S
Tb2375 N2376 2.572 . S
Tb2375 O2410 2.349 . S
Tb2375 O2413 2.393 . S
Tb2375 O2414 2.465 . S
Tb2375 O2415 2.387 . S
Tb2375 O2417 2.428 . S
Tb2375 O2418 2.308 . S
Tb2375 C2439 2.802 . S
N2376 C2372 1.361 . S
N2376 Tb2375 2.572 . S
N2376 C2378 1.340 . S
C2377 C2371 1.416 . S
C2377 C2379 1.332 . S
C2377 H2385 0.931 . S
C2378 N2376 1.340 . S
C2378 C2379 1.407 . S
C2378 H2384 0.930 . S
C2379 C2377 1.332 . S
C2379 C2378 1.407 . S
C2379 H2381 0.929 . S
H2380 C2369 0.930 . S
H2381 C2379 0.929 . S
H2382 C2397 0.930 . S
H2383 C2404 0.929 . S
H2384 C2378 0.930 . S
H2385 C2377 0.931 . S
H2386 C2400 0.930 . S
H2387 C2367 0.930 . S
H2388 C2373 0.929 . S
H2389 C2374 0.930 . S
H2390 C2395 0.930 . S
H2391 C2370 0.930 . S
H2392 C2403 0.931 . S
N2393 Tb2364 2.617 . S
N2393 C2394 1.379 . S
N2393 C2397 1.334 . S
C2394 N2393 1.379 . S
C2394 C2396 1.416 . S
C2394 C2402 1.424 . S
C2395 H2390 0.930 . S
C2395 C2397 1.390 . S
C2395 C2398 1.339 . S
C2396 C2394 1.416 . S
C2396 C2398 1.416 . S
C2396 C2429 1.448 . S
C2397 H2382 0.930 . S
C2397 N2393 1.334 . S
C2397 C2395 1.390 . S
C2398 C2395 1.339 . S
C2398 C2396 1.416 . S
C2398 H2405 0.930 . S
N2399 Tb2364 2.572 . S
N2399 C2400 1.340 . S
N2399 C2402 1.361 . S
C2400 H2386 0.930 . S
C2400 N2399 1.340 . S
C2400 C2404 1.407 . S
C2401 C2402 1.413 . S
C2401 C2403 1.416 . S
C2401 C2430 1.427 . S
C2402 C2394 1.424 . S
C2402 N2399 1.361 . S
C2402 C2401 1.413 . S
C2403 H2392 0.931 . S
C2403 C2401 1.416 . S
C2403 C2404 1.332 . S
C2404 H2383 0.929 . S
C2404 C2400 1.407 . S
C2404 C2403 1.332 . S
H2405 C2398 0.930 . S
H2406 C2429 0.930 . S
H2407 C2430 0.929 . S
O2408 Tb2364 2.465 . S
O2408 C2428 1.264 . S
O2409 Tb2364 2.387 . S
O2409 C2420 1.264 . S
O2410 Tb2375 2.349 . S
O2410 C2420 1.243 . S
O2411 Tb2364 2.428 . S
O2411 C2428 1.256 . S
O2412 Tb2364 2.308 . S
O2412 C2427 1.266 . S
O2413 Tb2375 2.393 . S
O2413 C2427 1.248 . S
O2414 Tb2375 2.465 . S
O2414 C2439 1.264 . S
O2415 Tb2375 2.387 . S
O2415 C2431 1.264 . S
O2416 Tb2364 2.349 . S
O2416 C2431 1.243 . S
O2417 Tb2375 2.428 . S
O2417 C2439 1.256 . S
O2418 Tb2375 2.308 . S
O2418 C2438 1.266 . S
O2419 Tb2364 2.393 . S
O2419 C2438 1.248 . S
C2420 O2409 1.264 . S
C2420 O2410 1.243 . S
C2421 C2424 1.399 . S
C2421 C2426 1.383 . S
C2421 C2428 1.496 . S
C2422 C2423 1.399 . S
C2422 C2426 1.389 . S
C2423 C2422 1.399 . S
C2423 C2425 1.380 . S
C2423 H2440 0.929 . S
C2424 C2421 1.399 . S
C2424 C2425 1.392 . S
C2424 H2441 0.929 . S
C2425 C2423 1.380 . S
C2425 C2424 1.392 . S
C2425 H2442 0.929 . S
C2426 C2421 1.383 . S
C2426 C2422 1.389 . S
C2426 H2443 0.931 . S
C2427 O2412 1.266 . S
C2427 O2413 1.248 . S
C2428 Tb2364 2.802 . S
C2428 O2408 1.264 . S
C2428 O2411 1.256 . S
C2428 C2421 1.496 . S
C2429 C2396 1.448 . S
C2429 H2406 0.930 . S
C2429 C2430 1.328 . S
C2430 C2401 1.427 . S
C2430 H2407 0.929 . S
C2430 C2429 1.328 . S
C2431 O2415 1.264 . S
C2431 O2416 1.243 . S
C2432 C2435 1.399 . S
C2432 C2436 1.383 . S
C2432 C2439 1.496 . S
C2433 C2434 1.399 . S
C2433 C2436 1.389 . S
C2434 C2433 1.399 . S
C2434 C2437 1.380 . S
C2434 H2444 0.929 . S
C2435 C2432 1.399 . S
C2435 C2437 1.392 . S
C2435 H2445 0.929 . S
C2436 C2432 1.383 . S
C2436 C2433 1.389 . S
C2436 H2446 0.931 . S
C2437 C2434 1.380 . S
C2437 C2435 1.392 . S
C2437 H2447 0.929 . S
C2438 O2418 1.266 . S
C2438 O2419 1.248 . S
C2439 Tb2375 2.802 . S
C2439 O2414 1.264 . S
C2439 O2417 1.256 . S
C2439 C2432 1.496 . S
H2440 C2423 0.929 . S
H2441 C2424 0.929 . S
H2442 C2425 0.929 . S
H2443 C2426 0.931 . S
H2444 C2434 0.929 . S
H2445 C2435 0.929 . S
H2446 C2436 0.931 . S
H2447 C2437 0.929 . S
Tb2448 N2477 2.617 . S
Tb2448 N2483 2.572 . S
Tb2448 O2492 2.465 . S
Tb2448 O2493 2.387 1_565 S
Tb2448 O2495 2.428 . S
Tb2448 O2496 2.308 1_565 S
Tb2448 O2500 2.349 1_565 S
Tb2448 O2503 2.393 1_565 S
Tb2448 C2512 2.802 . S
C2449 N2450 1.379 1_455 S
C2449 C2452 1.416 1_455 S
C2449 C2456 1.424 . S
N2450 C2449 1.379 1_655 S
N2450 C2453 1.334 . S
N2450 Tb2459 2.617 1_655 S
C2451 C2453 1.390 . S
C2451 C2454 1.339 . S
C2451 H2471 0.930 . S
C2452 C2449 1.416 1_655 S
C2452 C2454 1.416 . S
C2452 C2458 1.448 1_655 S
C2453 N2450 1.334 . S
C2453 C2451 1.390 . S
C2453 H2464 0.930 . S
C2454 C2451 1.339 . S
C2454 C2452 1.416 . S
C2454 H2475 0.930 . S
C2455 C2456 1.413 . S
C2455 C2457 1.427 . S
C2455 C2461 1.416 . S
C2456 C2449 1.424 . S
C2456 C2455 1.413 . S
C2456 N2460 1.361 . S
C2457 C2455 1.427 . S
C2457 C2458 1.328 . S
C2457 H2472 0.929 . S
C2458 C2452 1.448 1_455 S
C2458 C2457 1.328 . S
C2458 H2473 0.930 1_455 S
Tb2459 N2450 2.617 1_455 S
Tb2459 N2460 2.572 . S
Tb2459 O2494 2.349 . S
Tb2459 O2497 2.393 1_455 S
Tb2459 O2498 2.465 . S
Tb2459 O2499 2.387 . S
Tb2459 O2501 2.428 1_455 S
Tb2459 O2502 2.308 . S
Tb2459 C2523 2.802 . S
N2460 C2456 1.361 . S
N2460 Tb2459 2.572 . S
N2460 C2462 1.340 . S
C2461 C2455 1.416 . S
C2461 C2463 1.332 . S
C2461 H2469 0.931 . S
C2462 N2460 1.340 . S
C2462 C2463 1.407 . S
C2462 H2468 0.930 . S
C2463 C2461 1.332 . S
C2463 C2462 1.407 . S
C2463 H2465 0.929 . S
H2464 C2453 0.930 . S
H2465 C2463 0.929 . S
H2466 C2481 0.930 1_545 S
H2467 C2488 0.929 . S
H2468 C2462 0.930 . S
H2469 C2461 0.931 . S
H2470 C2484 0.942 . S
H2471 C2451 0.930 . S
H2472 C2457 0.929 . S
H2473 C2458 0.930 1_655 S
H2474 C2479 0.930 . S
H2475 C2454 0.930 . S
H2476 C2487 0.931 . S
N2477 Tb2448 2.617 . S
N2477 C2478 1.379 . S
N2477 C2481 1.334 . S
C2478 N2477 1.379 . S
C2478 C2480 1.416 . S
C2478 C2486 1.424 . S
C2479 H2474 0.930 . S
C2479 C2481 1.390 . S
C2479 C2482 1.339 . S
C2480 C2478 1.416 . S
C2480 C2482 1.416 . S
C2480 C2513 1.448 . S
C2481 H2466 0.930 1_565 S
C2481 N2477 1.334 . S
C2481 C2479 1.390 . S
C2482 C2479 1.339 . S
C2482 C2480 1.416 . S
C2482 H2489 0.930 . S
N2483 Tb2448 2.572 . S
N2483 C2484 1.323 1_455 S
N2483 C2486 1.361 . S
C2484 H2470 0.942 . S
C2484 N2483 1.323 1_655 S
C2484 C2488 1.413 . S
C2485 C2486 1.413 . S
C2485 C2487 1.416 1_455 S
C2485 C2514 1.427 . S
C2486 C2478 1.424 . S
C2486 N2483 1.361 . S
C2486 C2485 1.413 . S
C2487 H2476 0.931 . S
C2487 C2485 1.416 1_655 S
C2487 C2488 1.332 . S
C2488 H2467 0.929 . S
C2488 C2484 1.413 . S
C2488 C2487 1.332 . S
H2489 C2482 0.930 . S
H2490 C2513 0.930 . S
H2491 C2514 0.929 . S
O2492 Tb2448 2.465 . S
O2492 C2512 1.264 . S
O2493 Tb2448 2.387 1_545 S
O2493 C2504 1.264 . S
O2494 Tb2459 2.349 . S
O2494 C2504 1.243 . S
O2495 Tb2448 2.428 . S
O2495 C2512 1.256 . S
O2496 Tb2448 2.308 1_545 S
O2496 C2511 1.266 1_455 S
O2497 Tb2459 2.393 1_655 S
O2497 C2511 1.248 . S
O2498 Tb2459 2.465 . S
O2498 C2523 1.264 . S
O2499 Tb2459 2.387 . S
O2499 C2515 1.264 . S
O2500 Tb2448 2.349 1_545 S
O2500 C2515 1.243 . S
O2501 Tb2459 2.428 1_655 S
O2501 C2523 1.256 1_655 S
O2502 Tb2459 2.308 . S
O2502 C2522 1.266 . S
O2503 Tb2448 2.393 1_545 S
O2503 C2522 1.248 . S
C2504 O2493 1.264 . S
C2504 O2494 1.243 . S
C2505 C2508 1.399 . S
C2505 C2510 1.383 . S
C2505 C2512 1.496 . S
C2506 C2507 1.399 . S
C2506 C2510 1.389 . S
C2507 C2506 1.399 . S
C2507 C2509 1.380 . S
C2507 H2524 0.929 . S
C2508 C2505 1.399 . S
C2508 C2509 1.392 . S
C2508 H2525 0.929 . S
C2509 C2507 1.380 . S
C2509 C2508 1.392 . S
C2509 H2526 0.929 . S
C2510 C2505 1.383 . S
C2510 C2506 1.389 . S
C2510 H2527 0.931 . S
C2511 O2496 1.266 1_655 S
C2511 O2497 1.248 . S
C2512 Tb2448 2.802 . S
C2512 O2492 1.264 . S
C2512 O2495 1.256 . S
C2512 C2505 1.496 . S
C2513 C2480 1.448 . S
C2513 H2490 0.930 . S
C2513 C2514 1.328 . S
C2514 C2485 1.427 . S
C2514 H2491 0.929 . S
C2514 C2513 1.328 . S
C2515 O2499 1.264 . S
C2515 O2500 1.243 . S
C2516 C2519 1.399 1_455 S
C2516 C2520 1.383 . S
C2516 C2523 1.496 . S
C2517 C2518 1.399 1_455 S
C2517 C2520 1.389 . S
C2518 C2517 1.399 1_655 S
C2518 C2521 1.380 . S
C2518 H2528 0.929 . S
C2519 C2516 1.399 1_655 S
C2519 C2521 1.392 . S
C2519 H2529 0.929 . S
C2520 C2516 1.383 . S
C2520 C2517 1.389 . S
C2520 H2530 0.931 . S
C2521 C2518 1.380 . S
C2521 C2519 1.392 . S
C2521 H2531 0.929 . S
C2522 O2502 1.266 . S
C2522 O2503 1.248 . S
C2523 Tb2459 2.802 . S
C2523 O2498 1.264 . S
C2523 O2501 1.256 1_455 S
C2523 C2516 1.496 . S
H2524 C2507 0.929 . S
H2525 C2508 0.929 . S
H2526 C2509 0.929 . S
H2527 C2510 0.931 . S
H2528 C2518 0.929 . S
H2529 C2519 0.929 . S
H2530 C2520 0.931 . S
H2531 C2521 0.929 . S
Tb2532 N2561 2.617 . S
Tb2532 N2567 2.572 . S
Tb2532 O2576 2.465 . S
Tb2532 O2577 2.387 . S
Tb2532 O2579 2.428 . S
Tb2532 O2580 2.308 . S
Tb2532 O2584 2.349 . S
Tb2532 O2587 2.393 . S
Tb2532 C2596 2.802 . S
C2533 N2534 1.379 . S
C2533 C2536 1.416 . S
C2533 C2540 1.424 . S
N2534 C2533 1.379 . S
N2534 C2537 1.334 . S
N2534 Tb2543 2.617 . S
C2535 C2537 1.390 . S
C2535 C2538 1.339 . S
C2535 H2555 0.930 . S
C2536 C2533 1.416 . S
C2536 C2538 1.416 . S
C2536 C2542 1.448 . S
C2537 N2534 1.334 . S
C2537 C2535 1.390 . S
C2537 H2548 0.930 . S
C2538 C2535 1.339 . S
C2538 C2536 1.416 . S
C2538 H2559 0.930 . S
C2539 C2540 1.413 . S
C2539 C2541 1.427 . S
C2539 C2545 1.416 . S
C2540 C2533 1.424 . S
C2540 C2539 1.413 . S
C2540 N2544 1.361 . S
C2541 C2539 1.427 . S
C2541 C2542 1.328 . S
C2541 H2556 0.929 . S
C2542 C2536 1.448 . S
C2542 C2541 1.328 . S
C2542 H2557 0.930 . S
Tb2543 N2534 2.617 . S
Tb2543 N2544 2.572 . S
Tb2543 O2578 2.349 . S
Tb2543 O2581 2.393 . S
Tb2543 O2582 2.465 . S
Tb2543 O2583 2.387 . S
Tb2543 O2585 2.428 . S
Tb2543 O2586 2.308 . S
Tb2543 C2607 2.802 . S
N2544 C2540 1.361 . S
N2544 Tb2543 2.572 . S
N2544 C2546 1.340 . S
C2545 C2539 1.416 . S
C2545 C2547 1.332 . S
C2545 H2553 0.931 . S
C2546 N2544 1.340 . S
C2546 C2547 1.407 . S
C2546 H2552 0.930 . S
C2547 C2545 1.332 . S
C2547 C2546 1.407 . S
C2547 H2549 0.929 . S
H2548 C2537 0.930 . S
H2549 C2547 0.929 . S
H2550 C2565 0.930 . S
H2551 C2572 0.929 . S
H2552 C2546 0.930 . S
H2553 C2545 0.931 . S
H2554 C2568 0.930 . S
H2555 C2535 0.930 . S
H2556 C2541 0.929 . S
H2557 C2542 0.930 . S
H2558 C2563 0.930 . S
H2559 C2538 0.930 . S
H2560 C2571 0.931 . S
N2561 Tb2532 2.617 . S
N2561 C2562 1.379 . S
N2561 C2565 1.334 . S
C2562 N2561 1.379 . S
C2562 C2564 1.416 . S
C2562 C2570 1.424 . S
C2563 H2558 0.930 . S
C2563 C2565 1.390 . S
C2563 C2566 1.339 . S
C2564 C2562 1.416 . S
C2564 C2566 1.416 . S
C2564 C2597 1.448 . S
C2565 H2550 0.930 . S
C2565 N2561 1.334 . S
C2565 C2563 1.390 . S
C2566 C2563 1.339 . S
C2566 C2564 1.416 . S
C2566 H2573 0.930 . S
N2567 Tb2532 2.572 . S
N2567 C2568 1.340 . S
N2567 C2570 1.361 . S
C2568 H2554 0.930 . S
C2568 N2567 1.340 . S
C2568 C2572 1.407 . S
C2569 C2570 1.413 . S
C2569 C2571 1.416 . S
C2569 C2598 1.427 . S
C2570 C2562 1.424 . S
C2570 N2567 1.361 . S
C2570 C2569 1.413 . S
C2571 H2560 0.931 . S
C2571 C2569 1.416 . S
C2571 C2572 1.332 . S
C2572 H2551 0.929 . S
C2572 C2568 1.407 . S
C2572 C2571 1.332 . S
H2573 C2566 0.930 . S
H2574 C2597 0.930 . S
H2575 C2598 0.929 . S
O2576 Tb2532 2.465 . S
O2576 C2596 1.264 . S
O2577 Tb2532 2.387 . S
O2577 C2588 1.264 . S
O2578 Tb2543 2.349 . S
O2578 C2588 1.243 . S
O2579 Tb2532 2.428 . S
O2579 C2596 1.256 . S
O2580 Tb2532 2.308 . S
O2580 C2595 1.266 . S
O2581 Tb2543 2.393 . S
O2581 C2595 1.248 . S
O2582 Tb2543 2.465 . S
O2582 C2607 1.264 . S
O2583 Tb2543 2.387 . S
O2583 C2599 1.264 . S
O2584 Tb2532 2.349 . S
O2584 C2599 1.243 . S
O2585 Tb2543 2.428 . S
O2585 C2607 1.256 . S
O2586 Tb2543 2.308 . S
O2586 C2606 1.266 . S
O2587 Tb2532 2.393 . S
O2587 C2606 1.248 . S
C2588 O2577 1.264 . S
C2588 O2578 1.243 . S
C2589 C2592 1.399 . S
C2589 C2594 1.383 . S
C2589 C2596 1.496 . S
C2590 C2591 1.399 . S
C2590 C2594 1.389 . S
C2591 C2590 1.399 . S
C2591 C2593 1.380 . S
C2591 H2608 0.929 . S
C2592 C2589 1.399 . S
C2592 C2593 1.392 . S
C2592 H2609 0.929 . S
C2593 C2591 1.380 . S
C2593 C2592 1.392 . S
C2593 H2610 0.929 . S
C2594 C2589 1.383 . S
C2594 C2590 1.389 . S
C2594 H2611 0.931 . S
C2595 O2580 1.266 . S
C2595 O2581 1.248 . S
C2596 Tb2532 2.802 . S
C2596 O2576 1.264 . S
C2596 O2579 1.256 . S
C2596 C2589 1.496 . S
C2597 C2564 1.448 . S
C2597 H2574 0.930 . S
C2597 C2598 1.328 . S
C2598 C2569 1.427 . S
C2598 H2575 0.929 . S
C2598 C2597 1.328 . S
C2599 O2583 1.264 . S
C2599 O2584 1.243 . S
C2600 C2603 1.399 . S
C2600 C2604 1.383 . S
C2600 C2607 1.496 . S
C2601 C2602 1.399 . S
C2601 C2604 1.389 . S
C2602 C2601 1.399 . S
C2602 C2605 1.380 . S
C2602 H2612 0.929 . S
C2603 C2600 1.399 . S
C2603 C2605 1.392 . S
C2603 H2613 0.929 . S
C2604 C2600 1.383 . S
C2604 C2601 1.389 . S
C2604 H2614 0.931 . S
C2605 C2602 1.380 . S
C2605 C2603 1.392 . S
C2605 H2615 0.929 . S
C2606 O2586 1.266 . S
C2606 O2587 1.248 . S
C2607 Tb2543 2.802 . S
C2607 O2582 1.264 . S
C2607 O2585 1.256 . S
C2607 C2600 1.496 . S
H2608 C2591 0.929 . S
H2609 C2592 0.929 . S
H2610 C2593 0.929 . S
H2611 C2594 0.931 . S
H2612 C2602 0.929 . S
H2613 C2603 0.929 . S
H2614 C2604 0.931 . S
H2615 C2605 0.929 . S
Tb2616 N2645 2.617 . S
Tb2616 N2651 2.572 . S
Tb2616 O2660 2.465 . S
Tb2616 O2661 2.387 1_556 S
Tb2616 O2663 2.428 . S
Tb2616 O2664 2.307 1_556 S
Tb2616 O2668 2.349 1_556 S
Tb2616 O2671 2.393 1_556 S
Tb2616 C2680 2.802 . S
C2617 N2618 1.379 . S
C2617 C2620 1.416 . S
C2617 C2624 1.424 1_565 S
N2618 C2617 1.379 . S
N2618 C2621 1.334 . S
N2618 Tb2627 2.617 1_565 S
C2619 C2621 1.390 . S
C2619 C2622 1.339 . S
C2619 H2639 0.930 . S
C2620 C2617 1.416 . S
C2620 C2622 1.416 . S
C2620 C2626 1.448 . S
C2621 N2618 1.334 . S
C2621 C2619 1.390 . S
C2621 H2632 0.930 . S
C2622 C2619 1.339 . S
C2622 C2620 1.416 . S
C2622 H2643 0.930 . S
C2623 C2624 1.413 . S
C2623 C2625 1.427 . S
C2623 C2629 1.416 . S
C2624 C2617 1.424 1_545 S
C2624 C2623 1.413 . S
C2624 N2628 1.361 . S
C2625 C2623 1.427 . S
C2625 C2626 1.328 1_545 S
C2625 H2640 0.929 . S
C2626 C2620 1.448 . S
C2626 C2625 1.328 1_565 S
C2626 H2641 0.930 . S
Tb2627 N2618 2.617 1_545 S
Tb2627 N2628 2.572 . S
Tb2627 O2662 2.349 . S
Tb2627 O2665 2.393 1_545 S
Tb2627 O2666 2.465 . S
Tb2627 O2667 2.387 . S
Tb2627 O2669 2.428 1_545 S
Tb2627 O2670 2.308 . S
Tb2627 C2691 2.793 1_545 S
N2628 C2624 1.361 . S
N2628 Tb2627 2.572 . S
N2628 C2630 1.340 . S
C2629 C2623 1.416 . S
C2629 C2631 1.332 . S
C2629 H2637 0.931 . S
C2630 N2628 1.340 . S
C2630 C2631 1.407 . S
C2630 H2636 0.930 . S
C2631 C2629 1.332 . S
C2631 C2630 1.407 . S
C2631 H2633 0.929 . S
H2632 C2621 0.930 . S
H2633 C2631 0.929 . S
H2634 C2649 0.930 1_554 S
H2635 C2656 0.929 . S
H2636 C2630 0.930 . S
H2637 C2629 0.931 . S
H2638 C2652 0.895 1_565 S
H2639 C2619 0.930 . S
H2640 C2625 0.929 . S
H2641 C2626 0.930 . S
H2642 C2647 0.930 . S
H2643 C2622 0.930 . S
H2644 C2655 0.931 1_565 S
N2645 Tb2616 2.617 . S
N2645 C2646 1.379 . S
N2645 C2649 1.334 . S
C2646 N2645 1.379 . S
C2646 C2648 1.416 . S
C2646 C2654 1.424 . S
C2647 H2642 0.930 . S
C2647 C2649 1.390 . S
C2647 C2650 1.339 . S
C2648 C2646 1.416 . S
C2648 C2650 1.416 . S
C2648 C2681 1.448 . S
C2649 H2634 0.930 1_556 S
C2649 N2645 1.334 . S
C2649 C2647 1.390 . S
C2650 C2647 1.339 . S
C2650 C2648 1.416 . S
C2650 H2657 0.930 . S
N2651 Tb2616 2.572 . S
N2651 C2652 1.340 . S
N2651 C2654 1.361 . S
C2652 H2638 0.895 1_545 S
C2652 N2651 1.340 . S
C2652 C2656 1.407 1_545 S
C2653 C2654 1.413 . S
C2653 C2655 1.416 . S
C2653 C2682 1.427 . S
C2654 C2646 1.424 . S
C2654 N2651 1.361 . S
C2654 C2653 1.413 . S
C2655 H2644 0.931 1_545 S
C2655 C2653 1.416 . S
C2655 C2656 1.332 1_545 S
C2656 H2635 0.929 . S
C2656 C2652 1.407 1_565 S
C2656 C2655 1.332 1_565 S
H2657 C2650 0.930 . S
H2658 C2681 0.930 . S
H2659 C2682 0.929 . S
O2660 Tb2616 2.465 . S
O2660 C2680 1.264 . S
O2661 Tb2616 2.387 1_554 S
O2661 C2672 1.264 . S
O2662 Tb2627 2.349 . S
O2662 C2672 1.243 . S
O2663 Tb2616 2.428 . S
O2663 C2680 1.256 . S
O2664 Tb2616 2.307 1_554 S
O2664 C2679 1.267 1_545 S
O2665 Tb2627 2.393 1_565 S
O2665 C2679 1.248 . S
O2666 Tb2627 2.465 . S
O2666 C2691 1.229 1_545 S
O2667 Tb2627 2.387 . S
O2667 C2683 1.264 . S
O2668 Tb2616 2.349 1_554 S
O2668 C2683 1.243 . S
O2669 Tb2627 2.428 1_565 S
O2669 C2691 1.281 . S
O2670 Tb2627 2.308 . S
O2670 C2690 1.266 . S
O2671 Tb2616 2.393 1_554 S
O2671 C2690 1.248 . S
C2672 O2661 1.264 . S
C2672 O2662 1.243 . S
C2673 C2676 1.399 . S
C2673 C2678 1.383 . S
C2673 C2680 1.496 . S
C2674 C2675 1.399 . S
C2674 C2678 1.389 . S
C2675 C2674 1.399 . S
C2675 C2677 1.380 . S
C2675 H2692 0.929 . S
C2676 C2673 1.399 . S
C2676 C2677 1.392 . S
C2676 H2693 0.929 . S
C2677 C2675 1.380 . S
C2677 C2676 1.392 . S
C2677 H2694 0.929 . S
C2678 C2673 1.383 . S
C2678 C2674 1.389 . S
C2678 H2695 0.931 . S
C2679 O2664 1.267 1_565 S
C2679 O2665 1.248 . S
C2680 Tb2616 2.802 . S
C2680 O2660 1.264 . S
C2680 O2663 1.256 . S
C2680 C2673 1.496 . S
C2681 C2648 1.448 . S
C2681 H2658 0.930 . S
C2681 C2682 1.328 . S
C2682 C2653 1.427 . S
C2682 H2659 0.929 . S
C2682 C2681 1.328 . S
C2683 O2667 1.264 . S
C2683 O2668 1.243 . S
C2684 C2687 1.399 . S
C2684 C2688 1.383 1_565 S
C2684 C2691 1.506 . S
C2685 C2686 1.378 1_545 S
C2685 C2688 1.396 . S
C2686 C2685 1.378 1_565 S
C2686 C2689 1.380 . S
C2686 H2696 0.929 . S
C2687 C2684 1.399 . S
C2687 C2689 1.392 . S
C2687 H2697 0.929 . S
C2688 C2684 1.383 1_545 S
C2688 C2685 1.396 . S
C2688 H2698 0.931 . S
C2689 C2686 1.380 . S
C2689 C2687 1.392 . S
C2689 H2699 0.929 . S
C2690 O2670 1.266 . S
C2690 O2671 1.248 . S
C2691 Tb2627 2.793 1_565 S
C2691 O2666 1.229 1_565 S
C2691 O2669 1.281 . S
C2691 C2684 1.506 . S
H2692 C2675 0.929 . S
H2693 C2676 0.929 . S
H2694 C2677 0.929 . S
H2695 C2678 0.931 . S
H2696 C2686 0.929 . S
H2697 C2687 0.929 . S
H2698 C2688 0.931 . S
H2699 C2689 0.929 . S
Tb2700 N2729 2.617 . S
Tb2700 N2735 2.572 . S
Tb2700 O2744 2.465 . S
Tb2700 O2745 2.387 . S
Tb2700 O2747 2.428 . S
Tb2700 O2748 2.308 . S
Tb2700 O2752 2.349 . S
Tb2700 O2755 2.393 . S
Tb2700 C2764 2.802 . S
C2701 N2702 1.379 . S
C2701 C2704 1.416 . S
C2701 C2708 1.424 . S
N2702 C2701 1.379 . S
N2702 C2705 1.334 . S
N2702 Tb2711 2.617 . S
C2703 C2705 1.390 . S
C2703 C2706 1.339 . S
C2703 H2723 0.930 . S
C2704 C2701 1.416 . S
C2704 C2706 1.416 . S
C2704 C2710 1.448 . S
C2705 N2702 1.334 . S
C2705 C2703 1.390 . S
C2705 H2716 0.930 . S
C2706 C2703 1.339 . S
C2706 C2704 1.416 . S
C2706 H2727 0.930 . S
C2707 C2708 1.413 . S
C2707 C2709 1.427 . S
C2707 C2713 1.416 . S
C2708 C2701 1.424 . S
C2708 C2707 1.413 . S
C2708 N2712 1.361 . S
C2709 C2707 1.427 . S
C2709 C2710 1.328 . S
C2709 H2724 0.929 . S
C2710 C2704 1.448 . S
C2710 C2709 1.328 . S
C2710 H2725 0.930 . S
Tb2711 N2702 2.617 . S
Tb2711 N2712 2.572 . S
Tb2711 O2746 2.349 . S
Tb2711 O2749 2.393 . S
Tb2711 O2750 2.465 . S
Tb2711 O2751 2.387 . S
Tb2711 O2753 2.428 . S
Tb2711 O2754 2.308 . S
Tb2711 C2775 2.802 . S
N2712 C2708 1.361 . S
N2712 Tb2711 2.572 . S
N2712 C2714 1.340 . S
C2713 C2707 1.416 . S
C2713 C2715 1.332 . S
C2713 H2721 0.931 . S
C2714 N2712 1.340 . S
C2714 C2715 1.407 . S
C2714 H2720 0.930 . S
C2715 C2713 1.332 . S
C2715 C2714 1.407 . S
C2715 H2717 0.929 . S
H2716 C2705 0.930 . S
H2717 C2715 0.929 . S
H2718 C2733 0.930 . S
H2719 C2740 0.929 . S
H2720 C2714 0.930 . S
H2721 C2713 0.931 . S
H2722 C2736 0.930 . S
H2723 C2703 0.930 . S
H2724 C2709 0.929 . S
H2725 C2710 0.930 . S
H2726 C2731 0.930 . S
H2727 C2706 0.930 . S
H2728 C2739 0.931 . S
N2729 Tb2700 2.617 . S
N2729 C2730 1.379 . S
N2729 C2733 1.334 . S
C2730 N2729 1.379 . S
C2730 C2732 1.416 . S
C2730 C2738 1.424 . S
C2731 H2726 0.930 . S
C2731 C2733 1.390 . S
C2731 C2734 1.339 . S
C2732 C2730 1.416 . S
C2732 C2734 1.416 . S
C2732 C2765 1.448 . S
C2733 H2718 0.930 . S
C2733 N2729 1.334 . S
C2733 C2731 1.390 . S
C2734 C2731 1.339 . S
C2734 C2732 1.416 . S
C2734 H2741 0.930 . S
N2735 Tb2700 2.572 . S
N2735 C2736 1.340 . S
N2735 C2738 1.361 . S
C2736 H2722 0.930 . S
C2736 N2735 1.340 . S
C2736 C2740 1.407 . S
C2737 C2738 1.413 . S
C2737 C2739 1.416 . S
C2737 C2766 1.427 . S
C2738 C2730 1.424 . S
C2738 N2735 1.361 . S
C2738 C2737 1.413 . S
C2739 H2728 0.931 . S
C2739 C2737 1.416 . S
C2739 C2740 1.332 . S
C2740 H2719 0.929 . S
C2740 C2736 1.407 . S
C2740 C2739 1.332 . S
H2741 C2734 0.930 . S
H2742 C2765 0.930 . S
H2743 C2766 0.929 . S
O2744 Tb2700 2.465 . S
O2744 C2764 1.264 . S
O2745 Tb2700 2.387 . S
O2745 C2756 1.264 . S
O2746 Tb2711 2.349 . S
O2746 C2756 1.243 . S
O2747 Tb2700 2.428 . S
O2747 C2764 1.256 . S
O2748 Tb2700 2.308 . S
O2748 C2763 1.266 . S
O2749 Tb2711 2.393 . S
O2749 C2763 1.248 . S
O2750 Tb2711 2.465 . S
O2750 C2775 1.264 . S
O2751 Tb2711 2.387 . S
O2751 C2767 1.264 . S
O2752 Tb2700 2.349 . S
O2752 C2767 1.243 . S
O2753 Tb2711 2.428 . S
O2753 C2775 1.256 . S
O2754 Tb2711 2.308 . S
O2754 C2774 1.266 . S
O2755 Tb2700 2.393 . S
O2755 C2774 1.248 . S
C2756 O2745 1.264 . S
C2756 O2746 1.243 . S
C2757 C2760 1.399 . S
C2757 C2762 1.383 . S
C2757 C2764 1.496 . S
C2758 C2759 1.399 . S
C2758 C2762 1.389 . S
C2759 C2758 1.399 . S
C2759 C2761 1.380 . S
C2759 H2776 0.929 . S
C2760 C2757 1.399 . S
C2760 C2761 1.392 . S
C2760 H2777 0.929 . S
C2761 C2759 1.380 . S
C2761 C2760 1.392 . S
C2761 H2778 0.929 . S
C2762 C2757 1.383 . S
C2762 C2758 1.389 . S
C2762 H2779 0.931 . S
C2763 O2748 1.266 . S
C2763 O2749 1.248 . S
C2764 Tb2700 2.802 . S
C2764 O2744 1.264 . S
C2764 O2747 1.256 . S
C2764 C2757 1.496 . S
C2765 C2732 1.448 . S
C2765 H2742 0.930 . S
C2765 C2766 1.328 . S
C2766 C2737 1.427 . S
C2766 H2743 0.929 . S
C2766 C2765 1.328 . S
C2767 O2751 1.264 . S
C2767 O2752 1.243 . S
C2768 C2771 1.399 . S
C2768 C2772 1.383 . S
C2768 C2775 1.496 . S
C2769 C2770 1.399 . S
C2769 C2772 1.389 . S
C2770 C2769 1.399 . S
C2770 C2773 1.380 . S
C2770 H2780 0.929 . S
C2771 C2768 1.399 . S
C2771 C2773 1.392 . S
C2771 H2781 0.929 . S
C2772 C2768 1.383 . S
C2772 C2769 1.389 . S
C2772 H2782 0.931 . S
C2773 C2770 1.380 . S
C2773 C2771 1.392 . S
C2773 H2783 0.929 . S
C2774 O2754 1.266 . S
C2774 O2755 1.248 . S
C2775 Tb2711 2.802 . S
C2775 O2750 1.264 . S
C2775 O2753 1.256 . S
C2775 C2768 1.496 . S
H2776 C2759 0.929 . S
H2777 C2760 0.929 . S
H2778 C2761 0.929 . S
H2779 C2762 0.931 . S
H2780 C2770 0.929 . S
H2781 C2771 0.929 . S
H2782 C2772 0.931 . S
H2783 C2773 0.929 . S
Tb2784 N2813 2.617 1_554 S
Tb2784 N2819 2.572 1_554 S
Tb2784 O2828 2.465 . S
Tb2784 O2829 2.387 1_554 S
Tb2784 O2831 2.428 . S
Tb2784 O2832 2.308 . S
Tb2784 O2836 2.349 . S
Tb2784 O2839 2.393 . S
Tb2784 C2848 2.802 . S
C2785 N2786 1.379 . S
C2785 C2788 1.416 . S
C2785 C2792 1.424 . S
N2786 C2785 1.379 . S
N2786 C2789 1.334 . S
N2786 Tb2795 2.617 . S
C2787 C2789 1.390 . S
C2787 C2790 1.339 . S
C2787 H2807 0.930 . S
C2788 C2785 1.416 . S
C2788 C2790 1.416 . S
C2788 C2794 1.448 . S
C2789 N2786 1.334 . S
C2789 C2787 1.390 . S
C2789 H2800 0.930 . S
C2790 C2787 1.339 . S
C2790 C2788 1.416 . S
C2790 H2811 0.930 . S
C2791 C2792 1.413 . S
C2791 C2793 1.427 . S
C2791 C2797 1.416 . S
C2792 C2785 1.424 . S
C2792 C2791 1.413 . S
C2792 N2796 1.361 . S
C2793 C2791 1.427 . S
C2793 C2794 1.328 . S
C2793 H2808 0.929 . S
C2794 C2788 1.448 . S
C2794 C2793 1.328 . S
C2794 H2809 0.930 . S
Tb2795 N2786 2.617 . S
Tb2795 N2796 2.572 . S
Tb2795 O2830 2.349 1_554 S
Tb2795 O2833 2.393 . S
Tb2795 O2834 2.465 . S
Tb2795 O2835 2.387 . S
Tb2795 O2837 2.428 . S
Tb2795 O2838 2.308 . S
Tb2795 C2859 2.802 . S
N2796 C2792 1.361 . S
N2796 Tb2795 2.572 . S
N2796 C2798 1.340 . S
C2797 C2791 1.416 . S
C2797 C2799 1.332 . S
C2797 H2805 0.931 . S
C2798 N2796 1.340 . S
C2798 C2799 1.407 . S
C2798 H2804 0.930 . S
C2799 C2797 1.332 . S
C2799 C2798 1.407 . S
C2799 H2801 0.929 . S
H2800 C2789 0.930 . S
H2801 C2799 0.929 . S
H2802 C2817 0.930 1_554 S
H2803 C2824 0.929 . S
H2804 C2798 0.930 . S
H2805 C2797 0.931 . S
H2806 C2820 0.930 1_554 S
H2807 C2787 0.930 . S
H2808 C2793 0.929 . S
H2809 C2794 0.930 . S
H2810 C2815 0.930 . S
H2811 C2790 0.930 . S
H2812 C2823 0.931 . S
N2813 Tb2784 2.617 1_556 S
N2813 C2814 1.379 . S
N2813 C2817 1.334 . S
C2814 N2813 1.379 . S
C2814 C2816 1.416 . S
C2814 C2822 1.424 . S
C2815 H2810 0.930 . S
C2815 C2817 1.390 . S
C2815 C2818 1.339 . S
C2816 C2814 1.416 . S
C2816 C2818 1.416 . S
C2816 C2849 1.448 . S
C2817 H2802 0.930 1_556 S
C2817 N2813 1.334 . S
C2817 C2815 1.390 . S
C2818 C2815 1.339 . S
C2818 C2816 1.416 . S
C2818 H2825 0.930 . S
N2819 Tb2784 2.572 1_556 S
N2819 C2820 1.340 . S
N2819 C2822 1.361 . S
C2820 H2806 0.930 1_556 S
C2820 N2819 1.340 . S
C2820 C2824 1.407 . S
C2821 C2822 1.413 . S
C2821 C2823 1.416 . S
C2821 C2850 1.427 . S
C2822 C2814 1.424 . S
C2822 N2819 1.361 . S
C2822 C2821 1.413 . S
C2823 H2812 0.931 . S
C2823 C2821 1.416 . S
C2823 C2824 1.332 . S
C2824 H2803 0.929 . S
C2824 C2820 1.407 . S
C2824 C2823 1.332 . S
H2825 C2818 0.930 . S
H2826 C2849 0.930 . S
H2827 C2850 0.929 . S
O2828 Tb2784 2.465 . S
O2828 C2848 1.264 . S
O2829 Tb2784 2.387 1_556 S
O2829 C2840 1.264 . S
O2830 Tb2795 2.349 1_556 S
O2830 C2840 1.243 . S
O2831 Tb2784 2.428 . S
O2831 C2848 1.256 . S
O2832 Tb2784 2.308 . S
O2832 C2847 1.266 . S
O2833 Tb2795 2.393 . S
O2833 C2847 1.248 . S
O2834 Tb2795 2.465 . S
O2834 C2859 1.264 . S
O2835 Tb2795 2.387 . S
O2835 C2851 1.264 . S
O2836 Tb2784 2.349 . S
O2836 C2851 1.243 . S
O2837 Tb2795 2.428 . S
O2837 C2859 1.256 . S
O2838 Tb2795 2.308 . S
O2838 C2858 1.266 . S
O2839 Tb2784 2.393 . S
O2839 C2858 1.248 . S
C2840 O2829 1.264 . S
C2840 O2830 1.243 . S
C2841 C2844 1.399 . S
C2841 C2846 1.383 . S
C2841 C2848 1.496 . S
C2842 C2843 1.399 . S
C2842 C2846 1.389 . S
C2843 C2842 1.399 . S
C2843 C2845 1.380 . S
C2843 H2860 0.929 . S
C2844 C2841 1.399 . S
C2844 C2845 1.392 . S
C2844 H2861 0.929 . S
C2845 C2843 1.380 . S
C2845 C2844 1.392 . S
C2845 H2862 0.929 . S
C2846 C2841 1.383 . S
C2846 C2842 1.389 . S
C2846 H2863 0.931 . S
C2847 O2832 1.266 . S
C2847 O2833 1.248 . S
C2848 Tb2784 2.802 . S
C2848 O2828 1.264 . S
C2848 O2831 1.256 . S
C2848 C2841 1.496 . S
C2849 C2816 1.448 . S
C2849 H2826 0.930 . S
C2849 C2850 1.328 . S
C2850 C2821 1.427 . S
C2850 H2827 0.929 . S
C2850 C2849 1.328 . S
C2851 O2835 1.264 . S
C2851 O2836 1.243 . S
C2852 C2855 1.399 . S
C2852 C2856 1.383 . S
C2852 C2859 1.496 1_556 S
C2853 C2854 1.399 . S
C2853 C2856 1.389 . S
C2854 C2853 1.399 . S
C2854 C2857 1.380 . S
C2854 H2864 0.929 . S
C2855 C2852 1.399 . S
C2855 C2857 1.392 . S
C2855 H2865 0.929 . S
C2856 C2852 1.383 . S
C2856 C2853 1.389 . S
C2856 H2866 0.931 . S
C2857 C2854 1.380 . S
C2857 C2855 1.392 . S
C2857 H2867 0.929 . S
C2858 O2838 1.266 . S
C2858 O2839 1.248 . S
C2859 Tb2795 2.802 . S
C2859 O2834 1.264 . S
C2859 O2837 1.256 . S
C2859 C2852 1.496 1_554 S
H2860 C2843 0.929 . S
H2861 C2844 0.929 . S
H2862 C2845 0.929 . S
H2863 C2846 0.931 . S
H2864 C2854 0.929 . S
H2865 C2855 0.929 . S
H2866 C2856 0.931 . S
H2867 C2857 0.929 . S
Tb2868 N2897 2.617 . S
Tb2868 N2903 2.572 . S
Tb2868 O2912 2.465 . S
Tb2868 O2913 2.387 . S
Tb2868 O2915 2.428 . S
Tb2868 O2916 2.308 . S
Tb2868 O2920 2.349 . S
Tb2868 O2923 2.393 . S
Tb2868 C2932 2.802 . S
C2869 N2870 1.379 . S
C2869 C2872 1.416 . S
C2869 C2876 1.424 . S
N2870 C2869 1.379 . S
N2870 C2873 1.334 . S
N2870 Tb2879 2.617 . S
C2871 C2873 1.390 . S
C2871 C2874 1.339 . S
C2871 H2891 0.930 . S
C2872 C2869 1.416 . S
C2872 C2874 1.416 . S
C2872 C2878 1.448 . S
C2873 N2870 1.334 . S
C2873 C2871 1.390 . S
C2873 H2884 0.930 . S
C2874 C2871 1.339 . S
C2874 C2872 1.416 . S
C2874 H2895 0.930 . S
C2875 C2876 1.413 . S
C2875 C2877 1.427 . S
C2875 C2881 1.416 . S
C2876 C2869 1.424 . S
C2876 C2875 1.413 . S
C2876 N2880 1.361 . S
C2877 C2875 1.427 . S
C2877 C2878 1.328 . S
C2877 H2892 0.929 . S
C2878 C2872 1.448 . S
C2878 C2877 1.328 . S
C2878 H2893 0.930 . S
Tb2879 N2870 2.617 . S
Tb2879 N2880 2.572 . S
Tb2879 O2914 2.349 . S
Tb2879 O2917 2.393 . S
Tb2879 O2918 2.465 . S
Tb2879 O2919 2.387 . S
Tb2879 O2921 2.428 . S
Tb2879 O2922 2.308 . S
Tb2879 C2943 2.802 . S
N2880 C2876 1.361 . S
N2880 Tb2879 2.572 . S
N2880 C2882 1.340 . S
C2881 C2875 1.416 . S
C2881 C2883 1.332 . S
C2881 H2889 0.931 . S
C2882 N2880 1.340 . S
C2882 C2883 1.407 . S
C2882 H2888 0.930 . S
C2883 C2881 1.332 . S
C2883 C2882 1.407 . S
C2883 H2885 0.929 . S
H2884 C2873 0.930 . S
H2885 C2883 0.929 . S
H2886 C2901 0.930 . S
H2887 C2908 0.929 . S
H2888 C2882 0.930 . S
H2889 C2881 0.931 . S
H2890 C2904 0.930 . S
H2891 C2871 0.930 . S
H2892 C2877 0.929 . S
H2893 C2878 0.930 . S
H2894 C2899 0.930 . S
H2895 C2874 0.930 . S
H2896 C2907 0.931 . S
N2897 Tb2868 2.617 . S
N2897 C2898 1.379 . S
N2897 C2901 1.334 . S
C2898 N2897 1.379 . S
C2898 C2900 1.416 . S
C2898 C2906 1.424 . S
C2899 H2894 0.930 . S
C2899 C2901 1.390 . S
C2899 C2902 1.339 . S
C2900 C2898 1.416 . S
C2900 C2902 1.416 . S
C2900 C2933 1.448 . S
C2901 H2886 0.930 . S
C2901 N2897 1.334 . S
C2901 C2899 1.390 . S
C2902 C2899 1.339 . S
C2902 C2900 1.416 . S
C2902 H2909 0.930 . S
N2903 Tb2868 2.572 . S
N2903 C2904 1.340 . S
N2903 C2906 1.361 . S
C2904 H2890 0.930 . S
C2904 N2903 1.340 . S
C2904 C2908 1.407 . S
C2905 C2906 1.413 . S
C2905 C2907 1.416 . S
C2905 C2934 1.427 . S
C2906 C2898 1.424 . S
C2906 N2903 1.361 . S
C2906 C2905 1.413 . S
C2907 H2896 0.931 . S
C2907 C2905 1.416 . S
C2907 C2908 1.332 . S
C2908 H2887 0.929 . S
C2908 C2904 1.407 . S
C2908 C2907 1.332 . S
H2909 C2902 0.930 . S
H2910 C2933 0.930 . S
H2911 C2934 0.929 . S
O2912 Tb2868 2.465 . S
O2912 C2932 1.264 . S
O2913 Tb2868 2.387 . S
O2913 C2924 1.264 . S
O2914 Tb2879 2.349 . S
O2914 C2924 1.243 . S
O2915 Tb2868 2.428 . S
O2915 C2932 1.256 . S
O2916 Tb2868 2.308 . S
O2916 C2931 1.266 . S
O2917 Tb2879 2.393 . S
O2917 C2931 1.248 . S
O2918 Tb2879 2.465 . S
O2918 C2943 1.264 . S
O2919 Tb2879 2.387 . S
O2919 C2935 1.264 . S
O2920 Tb2868 2.349 . S
O2920 C2935 1.243 . S
O2921 Tb2879 2.428 . S
O2921 C2943 1.256 . S
O2922 Tb2879 2.308 . S
O2922 C2942 1.266 . S
O2923 Tb2868 2.393 . S
O2923 C2942 1.248 . S
C2924 O2913 1.264 . S
C2924 O2914 1.243 . S
C2925 C2928 1.399 . S
C2925 C2930 1.383 . S
C2925 C2932 1.496 . S
C2926 C2927 1.399 . S
C2926 C2930 1.389 . S
C2927 C2926 1.399 . S
C2927 C2929 1.380 . S
C2927 H2944 0.929 . S
C2928 C2925 1.399 . S
C2928 C2929 1.392 . S
C2928 H2945 0.929 . S
C2929 C2927 1.380 . S
C2929 C2928 1.392 . S
C2929 H2946 0.929 . S
C2930 C2925 1.383 . S
C2930 C2926 1.389 . S
C2930 H2947 0.931 . S
C2931 O2916 1.266 . S
C2931 O2917 1.248 . S
C2932 Tb2868 2.802 . S
C2932 O2912 1.264 . S
C2932 O2915 1.256 . S
C2932 C2925 1.496 . S
C2933 C2900 1.448 . S
C2933 H2910 0.930 . S
C2933 C2934 1.328 . S
C2934 C2905 1.427 . S
C2934 H2911 0.929 . S
C2934 C2933 1.328 . S
C2935 O2919 1.264 . S
C2935 O2920 1.243 . S
C2936 C2939 1.399 . S
C2936 C2940 1.383 . S
C2936 C2943 1.496 . S
C2937 C2938 1.399 . S
C2937 C2940 1.389 . S
C2938 C2937 1.399 . S
C2938 C2941 1.380 . S
C2938 H2948 0.929 . S
C2939 C2936 1.399 . S
C2939 C2941 1.392 . S
C2939 H2949 0.929 . S
C2940 C2936 1.383 . S
C2940 C2937 1.389 . S
C2940 H2950 0.931 . S
C2941 C2938 1.380 . S
C2941 C2939 1.392 . S
C2941 H2951 0.929 . S
C2942 O2922 1.266 . S
C2942 O2923 1.248 . S
C2943 Tb2879 2.802 . S
C2943 O2918 1.264 . S
C2943 O2921 1.256 . S
C2943 C2936 1.496 . S
H2944 C2927 0.929 . S
H2945 C2928 0.929 . S
H2946 C2929 0.929 . S
H2947 C2930 0.931 . S
H2948 C2938 0.929 . S
H2949 C2939 0.929 . S
H2950 C2940 0.931 . S
H2951 C2941 0.929 . S
Tb2952 N2981 2.617 1_455 S
Tb2952 N2987 2.572 1_455 S
Tb2952 O2996 2.465 . S
Tb2952 O2997 2.387 1_455 S
Tb2952 O2999 2.428 . S
Tb2952 O3000 2.308 . S
Tb2952 O3004 2.349 . S
Tb2952 O3007 2.393 . S
Tb2952 C3016 2.802 . S
C2953 N2954 1.379 . S
C2953 C2956 1.416 . S
C2953 C2960 1.424 . S
N2954 C2953 1.379 . S
N2954 C2957 1.334 . S
N2954 Tb2963 2.617 . S
C2955 C2957 1.390 . S
C2955 C2958 1.339 . S
C2955 H2975 0.930 . S
C2956 C2953 1.416 . S
C2956 C2958 1.416 . S
C2956 C2962 1.448 . S
C2957 N2954 1.334 . S
C2957 C2955 1.390 . S
C2957 H2968 0.930 . S
C2958 C2955 1.339 . S
C2958 C2956 1.416 . S
C2958 H2979 0.930 . S
C2959 C2960 1.413 . S
C2959 C2961 1.427 . S
C2959 C2965 1.416 . S
C2960 C2953 1.424 . S
C2960 C2959 1.413 . S
C2960 N2964 1.361 . S
C2961 C2959 1.427 . S
C2961 C2962 1.328 . S
C2961 H2976 0.929 . S
C2962 C2956 1.448 . S
C2962 C2961 1.328 . S
C2962 H2977 0.930 . S
Tb2963 N2954 2.617 . S
Tb2963 N2964 2.572 . S
Tb2963 O2998 2.349 1_455 S
Tb2963 O3001 2.393 . S
Tb2963 O3002 2.465 . S
Tb2963 O3003 2.387 . S
Tb2963 O3005 2.428 . S
Tb2963 O3006 2.308 . S
Tb2963 C3027 2.802 . S
N2964 C2960 1.361 . S
N2964 Tb2963 2.572 . S
N2964 C2966 1.340 . S
C2965 C2959 1.416 . S
C2965 C2967 1.332 . S
C2965 H2973 0.931 . S
C2966 N2964 1.340 . S
C2966 C2967 1.407 . S
C2966 H2972 0.930 . S
C2967 C2965 1.332 . S
C2967 C2966 1.407 . S
C2967 H2969 0.929 . S
H2968 C2957 0.930 . S
H2969 C2967 0.929 . S
H2970 C2985 0.928 1_455 S
H2971 C2992 0.929 . S
H2972 C2966 0.930 . S
H2973 C2965 0.931 . S
H2974 C2988 0.930 1_455 S
H2975 C2955 0.930 . S
H2976 C2961 0.929 . S
H2977 C2962 0.930 . S
H2978 C2983 0.930 . S
H2979 C2958 0.930 . S
H2980 C2991 0.931 . S
N2981 Tb2952 2.617 1_655 S
N2981 C2982 1.379 . S
N2981 C2985 1.334 . S
C2982 N2981 1.379 . S
C2982 C2984 1.416 . S
C2982 C2990 1.424 . S
C2983 H2978 0.930 . S
C2983 C2985 1.393 . S
C2983 C2986 1.339 . S
C2984 C2982 1.416 . S
C2984 C2986 1.416 . S
C2984 C3017 1.448 . S
C2985 H2970 0.928 1_655 S
C2985 N2981 1.334 . S
C2985 C2983 1.393 . S
C2986 C2983 1.339 . S
C2986 C2984 1.416 . S
C2986 H2993 0.930 . S
N2987 Tb2952 2.572 1_655 S
N2987 C2988 1.340 . S
N2987 C2990 1.361 . S
C2988 H2974 0.930 1_655 S
C2988 N2987 1.340 . S
C2988 C2992 1.407 . S
C2989 C2990 1.413 . S
C2989 C2991 1.416 . S
C2989 C3018 1.427 . S
C2990 C2982 1.424 . S
C2990 N2987 1.361 . S
C2990 C2989 1.413 . S
C2991 H2980 0.931 . S
C2991 C2989 1.416 . S
C2991 C2992 1.332 . S
C2992 H2971 0.929 . S
C2992 C2988 1.407 . S
C2992 C2991 1.332 . S
H2993 C2986 0.930 . S
H2994 C3017 0.930 . S
H2995 C3018 0.929 . S
O2996 Tb2952 2.465 . S
O2996 C3016 1.264 . S
O2997 Tb2952 2.387 1_655 S
O2997 C3008 1.264 . S
O2998 Tb2963 2.349 1_655 S
O2998 C3008 1.243 . S
O2999 Tb2952 2.428 . S
O2999 C3016 1.256 . S
O3000 Tb2952 2.308 . S
O3000 C3015 1.266 . S
O3001 Tb2963 2.393 . S
O3001 C3015 1.248 . S
O3002 Tb2963 2.465 . S
O3002 C3027 1.264 . S
O3003 Tb2963 2.387 . S
O3003 C3019 1.264 . S
O3004 Tb2952 2.349 . S
O3004 C3019 1.243 . S
O3005 Tb2963 2.428 . S
O3005 C3027 1.256 . S
O3006 Tb2963 2.308 . S
O3006 C3026 1.266 . S
O3007 Tb2952 2.393 . S
O3007 C3026 1.248 . S
C3008 O2997 1.264 . S
C3008 O2998 1.243 . S
C3009 C3012 1.399 . S
C3009 C3014 1.383 . S
C3009 C3016 1.496 . S
C3010 C3011 1.399 . S
C3010 C3014 1.389 . S
C3011 C3010 1.399 . S
C3011 C3013 1.380 . S
C3011 H3028 0.929 . S
C3012 C3009 1.399 . S
C3012 C3013 1.392 . S
C3012 H3029 0.929 . S
C3013 C3011 1.380 . S
C3013 C3012 1.392 . S
C3013 H3030 0.929 . S
C3014 C3009 1.383 . S
C3014 C3010 1.389 . S
C3014 H3031 0.931 . S
C3015 O3000 1.266 . S
C3015 O3001 1.248 . S
C3016 Tb2952 2.802 . S
C3016 O2996 1.264 . S
C3016 O2999 1.256 . S
C3016 C3009 1.496 . S
C3017 C2984 1.448 . S
C3017 H2994 0.930 . S
C3017 C3018 1.328 . S
C3018 C2989 1.427 . S
C3018 H2995 0.929 . S
C3018 C3017 1.328 . S
C3019 O3003 1.264 . S
C3019 O3004 1.243 . S
C3020 C3023 1.399 . S
C3020 C3024 1.383 . S
C3020 C3027 1.496 1_655 S
C3021 C3022 1.399 . S
C3021 C3024 1.389 . S
C3022 C3021 1.399 . S
C3022 C3025 1.380 . S
C3022 H3032 0.929 . S
C3023 C3020 1.399 . S
C3023 C3025 1.392 . S
C3023 H3033 0.929 . S
C3024 C3020 1.383 . S
C3024 C3021 1.389 . S
C3024 H3034 0.931 . S
C3025 C3022 1.380 . S
C3025 C3023 1.392 . S
C3025 H3035 0.929 . S
C3026 O3006 1.266 . S
C3026 O3007 1.248 . S
C3027 Tb2963 2.802 . S
C3027 O3002 1.264 . S
C3027 O3005 1.256 . S
C3027 C3020 1.496 1_455 S
H3028 C3011 0.929 . S
H3029 C3012 0.929 . S
H3030 C3013 0.929 . S
H3031 C3014 0.931 . S
H3032 C3022 0.929 . S
H3033 C3023 0.929 . S
H3034 C3024 0.931 . S
H3035 C3025 0.929 . S
Tb3036 N3065 2.617 . S
Tb3036 N3071 2.572 . S
Tb3036 O3080 2.465 . S
Tb3036 O3081 2.387 . S
Tb3036 O3083 2.428 . S
Tb3036 O3084 2.308 . S
Tb3036 O3088 2.349 . S
Tb3036 O3091 2.393 . S
Tb3036 C3100 2.802 . S
C3037 N3038 1.379 . S
C3037 C3040 1.416 . S
C3037 C3044 1.424 . S
N3038 C3037 1.379 . S
N3038 C3041 1.334 . S
N3038 Tb3047 2.617 . S
C3039 C3041 1.390 . S
C3039 C3042 1.339 . S
C3039 H3059 0.930 . S
C3040 C3037 1.416 . S
C3040 C3042 1.416 . S
C3040 C3046 1.448 . S
C3041 N3038 1.334 . S
C3041 C3039 1.390 . S
C3041 H3052 0.930 . S
C3042 C3039 1.339 . S
C3042 C3040 1.416 . S
C3042 H3063 0.930 . S
C3043 C3044 1.413 . S
C3043 C3045 1.427 . S
C3043 C3049 1.416 . S
C3044 C3037 1.424 . S
C3044 C3043 1.413 . S
C3044 N3048 1.361 . S
C3045 C3043 1.427 . S
C3045 C3046 1.328 . S
C3045 H3060 0.929 . S
C3046 C3040 1.448 . S
C3046 C3045 1.328 . S
C3046 H3061 0.930 . S
Tb3047 N3038 2.617 . S
Tb3047 N3048 2.572 . S
Tb3047 O3082 2.349 . S
Tb3047 O3085 2.393 . S
Tb3047 O3086 2.465 . S
Tb3047 O3087 2.387 . S
Tb3047 O3089 2.428 . S
Tb3047 O3090 2.308 . S
Tb3047 C3111 2.802 . S
N3048 C3044 1.361 . S
N3048 Tb3047 2.572 . S
N3048 C3050 1.340 . S
C3049 C3043 1.416 . S
C3049 C3051 1.332 . S
C3049 H3057 0.931 . S
C3050 N3048 1.340 . S
C3050 C3051 1.407 . S
C3050 H3056 0.930 . S
C3051 C3049 1.332 . S
C3051 C3050 1.407 . S
C3051 H3053 0.929 . S
H3052 C3041 0.930 . S
H3053 C3051 0.929 . S
H3054 C3069 0.930 . S
H3055 C3076 0.929 . S
H3056 C3050 0.930 . S
H3057 C3049 0.931 . S
H3058 C3072 0.930 . S
H3059 C3039 0.930 . S
H3060 C3045 0.929 . S
H3061 C3046 0.930 . S
H3062 C3067 0.930 . S
H3063 C3042 0.930 . S
H3064 C3075 0.931 . S
N3065 Tb3036 2.617 . S
N3065 C3066 1.379 . S
N3065 C3069 1.334 . S
C3066 N3065 1.379 . S
C3066 C3068 1.416 . S
C3066 C3074 1.424 . S
C3067 H3062 0.930 . S
C3067 C3069 1.390 . S
C3067 C3070 1.339 . S
C3068 C3066 1.416 . S
C3068 C3070 1.416 . S
C3068 C3101 1.448 . S
C3069 H3054 0.930 . S
C3069 N3065 1.334 . S
C3069 C3067 1.390 . S
C3070 C3067 1.339 . S
C3070 C3068 1.416 . S
C3070 H3077 0.930 . S
N3071 Tb3036 2.572 . S
N3071 C3072 1.340 . S
N3071 C3074 1.361 . S
C3072 H3058 0.930 . S
C3072 N3071 1.340 . S
C3072 C3076 1.407 . S
C3073 C3074 1.413 . S
C3073 C3075 1.416 . S
C3073 C3102 1.427 . S
C3074 C3066 1.424 . S
C3074 N3071 1.361 . S
C3074 C3073 1.413 . S
C3075 H3064 0.931 . S
C3075 C3073 1.416 . S
C3075 C3076 1.332 . S
C3076 H3055 0.929 . S
C3076 C3072 1.407 . S
C3076 C3075 1.332 . S
H3077 C3070 0.930 . S
H3078 C3101 0.930 . S
H3079 C3102 0.929 . S
O3080 Tb3036 2.465 . S
O3080 C3100 1.264 . S
O3081 Tb3036 2.387 . S
O3081 C3092 1.264 . S
O3082 Tb3047 2.349 . S
O3082 C3092 1.243 . S
O3083 Tb3036 2.428 . S
O3083 C3100 1.256 . S
O3084 Tb3036 2.308 . S
O3084 C3099 1.266 . S
O3085 Tb3047 2.393 . S
O3085 C3099 1.248 . S
O3086 Tb3047 2.465 . S
O3086 C3111 1.264 . S
O3087 Tb3047 2.387 . S
O3087 C3103 1.264 . S
O3088 Tb3036 2.349 . S
O3088 C3103 1.243 . S
O3089 Tb3047 2.428 . S
O3089 C3111 1.256 . S
O3090 Tb3047 2.308 . S
O3090 C3110 1.266 . S
O3091 Tb3036 2.393 . S
O3091 C3110 1.248 . S
C3092 O3081 1.264 . S
C3092 O3082 1.243 . S
C3093 C3096 1.399 . S
C3093 C3098 1.383 . S
C3093 C3100 1.496 . S
C3094 C3095 1.399 . S
C3094 C3098 1.389 . S
C3095 C3094 1.399 . S
C3095 C3097 1.380 . S
C3095 H3112 0.929 . S
C3096 C3093 1.399 . S
C3096 C3097 1.392 . S
C3096 H3113 0.929 . S
C3097 C3095 1.380 . S
C3097 C3096 1.392 . S
C3097 H3114 0.929 . S
C3098 C3093 1.383 . S
C3098 C3094 1.389 . S
C3098 H3115 0.931 . S
C3099 O3084 1.266 . S
C3099 O3085 1.248 . S
C3100 Tb3036 2.802 . S
C3100 O3080 1.264 . S
C3100 O3083 1.256 . S
C3100 C3093 1.496 . S
C3101 C3068 1.448 . S
C3101 H3078 0.930 . S
C3101 C3102 1.328 . S
C3102 C3073 1.427 . S
C3102 H3079 0.929 . S
C3102 C3101 1.328 . S
C3103 O3087 1.264 . S
C3103 O3088 1.243 . S
C3104 C3107 1.399 . S
C3104 C3108 1.383 . S
C3104 C3111 1.496 . S
C3105 C3106 1.399 . S
C3105 C3108 1.389 . S
C3106 C3105 1.399 . S
C3106 C3109 1.380 . S
C3106 H3116 0.929 . S
C3107 C3104 1.399 . S
C3107 C3109 1.392 . S
C3107 H3117 0.929 . S
C3108 C3104 1.383 . S
C3108 C3105 1.389 . S
C3108 H3118 0.931 . S
C3109 C3106 1.380 . S
C3109 C3107 1.392 . S
C3109 H3119 0.929 . S
C3110 O3090 1.266 . S
C3110 O3091 1.248 . S
C3111 Tb3047 2.802 . S
C3111 O3086 1.264 . S
C3111 O3089 1.256 . S
C3111 C3104 1.496 . S
H3112 C3095 0.929 . S
H3113 C3096 0.929 . S
H3114 C3097 0.929 . S
H3115 C3098 0.931 . S
H3116 C3106 0.929 . S
H3117 C3107 0.929 . S
H3118 C3108 0.931 . S
H3119 C3109 0.929 . S
Tb3120 N3149 2.617 . S
Tb3120 N3155 2.572 . S
Tb3120 O3164 2.465 . S
Tb3120 O3165 2.387 . S
Tb3120 O3167 2.428 . S
Tb3120 O3168 2.308 . S
Tb3120 O3172 2.349 . S
Tb3120 O3175 2.393 . S
Tb3120 C3184 2.802 . S
C3121 N3122 1.379 . S
C3121 C3124 1.416 . S
C3121 C3128 1.424 . S
N3122 C3121 1.379 . S
N3122 C3125 1.334 . S
N3122 Tb3131 2.617 . S
C3123 C3125 1.390 . S
C3123 C3126 1.339 . S
C3123 H3143 0.930 . S
C3124 C3121 1.416 . S
C3124 C3126 1.416 . S
C3124 C3130 1.448 . S
C3125 N3122 1.334 . S
C3125 C3123 1.390 . S
C3125 H3136 0.930 . S
C3126 C3123 1.339 . S
C3126 C3124 1.416 . S
C3126 H3147 0.930 . S
C3127 C3128 1.413 . S
C3127 C3129 1.427 . S
C3127 C3133 1.416 . S
C3128 C3121 1.424 . S
C3128 C3127 1.413 . S
C3128 N3132 1.361 . S
C3129 C3127 1.427 . S
C3129 C3130 1.328 . S
C3129 H3144 0.929 . S
C3130 C3124 1.448 . S
C3130 C3129 1.328 . S
C3130 H3145 0.930 . S
Tb3131 N3122 2.617 . S
Tb3131 N3132 2.572 . S
Tb3131 O3166 2.349 . S
Tb3131 O3169 2.393 . S
Tb3131 O3170 2.465 . S
Tb3131 O3171 2.387 . S
Tb3131 O3173 2.428 . S
Tb3131 O3174 2.308 . S
Tb3131 C3195 2.802 . S
N3132 C3128 1.361 . S
N3132 Tb3131 2.572 . S
N3132 C3134 1.340 . S
C3133 C3127 1.416 . S
C3133 C3135 1.332 . S
C3133 H3141 0.931 . S
C3134 N3132 1.340 . S
C3134 C3135 1.407 . S
C3134 H3140 0.930 . S
C3135 C3133 1.332 . S
C3135 C3134 1.407 . S
C3135 H3137 0.929 . S
H3136 C3125 0.930 . S
H3137 C3135 0.929 . S
H3138 C3153 0.930 . S
H3139 C3160 0.929 . S
H3140 C3134 0.930 . S
H3141 C3133 0.931 . S
H3142 C3156 0.930 . S
H3143 C3123 0.930 . S
H3144 C3129 0.929 . S
H3145 C3130 0.930 . S
H3146 C3151 0.930 . S
H3147 C3126 0.930 . S
H3148 C3159 0.931 . S
N3149 Tb3120 2.617 . S
N3149 C3150 1.379 . S
N3149 C3153 1.334 . S
C3150 N3149 1.379 . S
C3150 C3152 1.416 . S
C3150 C3158 1.424 . S
C3151 H3146 0.930 . S
C3151 C3153 1.390 . S
C3151 C3154 1.339 . S
C3152 C3150 1.416 . S
C3152 C3154 1.416 . S
C3152 C3185 1.448 . S
C3153 H3138 0.930 . S
C3153 N3149 1.334 . S
C3153 C3151 1.390 . S
C3154 C3151 1.339 . S
C3154 C3152 1.416 . S
C3154 H3161 0.930 . S
N3155 Tb3120 2.572 . S
N3155 C3156 1.340 . S
N3155 C3158 1.361 . S
C3156 H3142 0.930 . S
C3156 N3155 1.340 . S
C3156 C3160 1.407 . S
C3157 C3158 1.413 . S
C3157 C3159 1.416 . S
C3157 C3186 1.427 . S
C3158 C3150 1.424 . S
C3158 N3155 1.361 . S
C3158 C3157 1.413 . S
C3159 H3148 0.931 . S
C3159 C3157 1.416 . S
C3159 C3160 1.332 . S
C3160 H3139 0.929 . S
C3160 C3156 1.407 . S
C3160 C3159 1.332 . S
H3161 C3154 0.930 . S
H3162 C3185 0.930 . S
H3163 C3186 0.929 . S
O3164 Tb3120 2.465 . S
O3164 C3184 1.264 . S
O3165 Tb3120 2.387 . S
O3165 C3176 1.264 . S
O3166 Tb3131 2.349 . S
O3166 C3176 1.243 . S
O3167 Tb3120 2.428 . S
O3167 C3184 1.256 . S
O3168 Tb3120 2.308 . S
O3168 C3183 1.266 . S
O3169 Tb3131 2.393 . S
O3169 C3183 1.248 . S
O3170 Tb3131 2.465 . S
O3170 C3195 1.264 . S
O3171 Tb3131 2.387 . S
O3171 C3187 1.264 . S
O3172 Tb3120 2.349 . S
O3172 C3187 1.243 . S
O3173 Tb3131 2.428 . S
O3173 C3195 1.256 . S
O3174 Tb3131 2.308 . S
O3174 C3194 1.266 . S
O3175 Tb3120 2.393 . S
O3175 C3194 1.248 . S
C3176 O3165 1.264 . S
C3176 O3166 1.243 . S
C3177 C3180 1.399 . S
C3177 C3182 1.383 . S
C3177 C3184 1.496 . S
C3178 C3179 1.399 . S
C3178 C3182 1.389 . S
C3179 C3178 1.399 . S
C3179 C3181 1.380 . S
C3179 H3196 0.929 . S
C3180 C3177 1.399 . S
C3180 C3181 1.392 . S
C3180 H3197 0.929 . S
C3181 C3179 1.380 . S
C3181 C3180 1.392 . S
C3181 H3198 0.929 . S
C3182 C3177 1.383 . S
C3182 C3178 1.389 . S
C3182 H3199 0.931 . S
C3183 O3168 1.266 . S
C3183 O3169 1.248 . S
C3184 Tb3120 2.802 . S
C3184 O3164 1.264 . S
C3184 O3167 1.256 . S
C3184 C3177 1.496 . S
C3185 C3152 1.448 . S
C3185 H3162 0.930 . S
C3185 C3186 1.328 . S
C3186 C3157 1.427 . S
C3186 H3163 0.929 . S
C3186 C3185 1.328 . S
C3187 O3171 1.264 . S
C3187 O3172 1.243 . S
C3188 C3191 1.399 . S
C3188 C3192 1.383 . S
C3188 C3195 1.496 . S
C3189 C3190 1.399 . S
C3189 C3192 1.389 . S
C3190 C3189 1.399 . S
C3190 C3193 1.380 . S
C3190 H3200 0.929 . S
C3191 C3188 1.399 . S
C3191 C3193 1.392 . S
C3191 H3201 0.929 . S
C3192 C3188 1.383 . S
C3192 C3189 1.389 . S
C3192 H3202 0.931 . S
C3193 C3190 1.380 . S
C3193 C3191 1.392 . S
C3193 H3203 0.929 . S
C3194 O3174 1.266 . S
C3194 O3175 1.248 . S
C3195 Tb3131 2.802 . S
C3195 O3170 1.264 . S
C3195 O3173 1.256 . S
C3195 C3188 1.496 . S
H3196 C3179 0.929 . S
H3197 C3180 0.929 . S
H3198 C3181 0.929 . S
H3199 C3182 0.931 . S
H3200 C3190 0.929 . S
H3201 C3191 0.929 . S
H3202 C3192 0.931 . S
H3203 C3193 0.929 . S
Tb3204 N3233 2.617 . S
Tb3204 N3239 2.572 . S
Tb3204 O3248 2.465 . S
Tb3204 O3249 2.387 . S
Tb3204 O3251 2.428 . S
Tb3204 O3252 2.308 . S
Tb3204 O3256 2.349 . S
Tb3204 O3259 2.393 . S
Tb3204 C3268 2.802 . S
C3205 N3206 1.379 . S
C3205 C3208 1.416 . S
C3205 C3212 1.424 . S
N3206 C3205 1.379 . S
N3206 C3209 1.334 . S
N3206 Tb3215 2.617 . S
C3207 C3209 1.390 . S
C3207 C3210 1.339 . S
C3207 H3227 0.930 . S
C3208 C3205 1.416 . S
C3208 C3210 1.416 . S
C3208 C3214 1.448 . S
C3209 N3206 1.334 . S
C3209 C3207 1.390 . S
C3209 H3220 0.930 . S
C3210 C3207 1.339 . S
C3210 C3208 1.416 . S
C3210 H3231 0.930 . S
C3211 C3212 1.413 . S
C3211 C3213 1.427 . S
C3211 C3217 1.416 . S
C3212 C3205 1.424 . S
C3212 C3211 1.413 . S
C3212 N3216 1.361 . S
C3213 C3211 1.427 . S
C3213 C3214 1.328 . S
C3213 H3228 0.929 . S
C3214 C3208 1.448 . S
C3214 C3213 1.328 . S
C3214 H3229 0.930 . S
Tb3215 N3206 2.617 . S
Tb3215 N3216 2.572 . S
Tb3215 O3250 2.349 . S
Tb3215 O3253 2.393 . S
Tb3215 O3254 2.465 . S
Tb3215 O3255 2.387 . S
Tb3215 O3257 2.428 . S
Tb3215 O3258 2.308 . S
Tb3215 C3279 2.802 . S
N3216 C3212 1.361 . S
N3216 Tb3215 2.572 . S
N3216 C3218 1.340 . S
C3217 C3211 1.416 . S
C3217 C3219 1.332 . S
C3217 H3225 0.931 . S
C3218 N3216 1.340 . S
C3218 C3219 1.407 . S
C3218 H3224 0.930 . S
C3219 C3217 1.332 . S
C3219 C3218 1.407 . S
C3219 H3221 0.929 . S
H3220 C3209 0.930 . S
H3221 C3219 0.929 . S
H3222 C3237 0.930 . S
H3223 C3244 0.929 . S
H3224 C3218 0.930 . S
H3225 C3217 0.931 . S
H3226 C3240 0.930 . S
H3227 C3207 0.930 . S
H3228 C3213 0.929 . S
H3229 C3214 0.930 . S
H3230 C3235 0.930 . S
H3231 C3210 0.930 . S
H3232 C3243 0.931 . S
N3233 Tb3204 2.617 . S
N3233 C3234 1.379 . S
N3233 C3237 1.334 . S
C3234 N3233 1.379 . S
C3234 C3236 1.416 . S
C3234 C3242 1.424 . S
C3235 H3230 0.930 . S
C3235 C3237 1.390 . S
C3235 C3238 1.339 . S
C3236 C3234 1.416 . S
C3236 C3238 1.416 . S
C3236 C3269 1.448 . S
C3237 H3222 0.930 . S
C3237 N3233 1.334 . S
C3237 C3235 1.390 . S
C3238 C3235 1.339 . S
C3238 C3236 1.416 . S
C3238 H3245 0.930 . S
N3239 Tb3204 2.572 . S
N3239 C3240 1.340 . S
N3239 C3242 1.361 . S
C3240 H3226 0.930 . S
C3240 N3239 1.340 . S
C3240 C3244 1.407 . S
C3241 C3242 1.413 . S
C3241 C3243 1.416 . S
C3241 C3270 1.427 . S
C3242 C3234 1.424 . S
C3242 N3239 1.361 . S
C3242 C3241 1.413 . S
C3243 H3232 0.931 . S
C3243 C3241 1.416 . S
C3243 C3244 1.332 . S
C3244 H3223 0.929 . S
C3244 C3240 1.407 . S
C3244 C3243 1.332 . S
H3245 C3238 0.930 . S
H3246 C3269 0.930 . S
H3247 C3270 0.929 . S
O3248 Tb3204 2.465 . S
O3248 C3268 1.264 . S
O3249 Tb3204 2.387 . S
O3249 C3260 1.264 . S
O3250 Tb3215 2.349 . S
O3250 C3260 1.243 . S
O3251 Tb3204 2.428 . S
O3251 C3268 1.256 . S
O3252 Tb3204 2.308 . S
O3252 C3267 1.266 . S
O3253 Tb3215 2.393 . S
O3253 C3267 1.248 . S
O3254 Tb3215 2.465 . S
O3254 C3279 1.264 . S
O3255 Tb3215 2.387 . S
O3255 C3271 1.264 . S
O3256 Tb3204 2.349 . S
O3256 C3271 1.243 . S
O3257 Tb3215 2.428 . S
O3257 C3279 1.256 . S
O3258 Tb3215 2.308 . S
O3258 C3278 1.266 . S
O3259 Tb3204 2.393 . S
O3259 C3278 1.248 . S
C3260 O3249 1.264 . S
C3260 O3250 1.243 . S
C3261 C3264 1.399 . S
C3261 C3266 1.383 . S
C3261 C3268 1.496 . S
C3262 C3263 1.399 . S
C3262 C3266 1.389 . S
C3263 C3262 1.399 . S
C3263 C3265 1.380 . S
C3263 H3280 0.929 . S
C3264 C3261 1.399 . S
C3264 C3265 1.392 . S
C3264 H3281 0.929 . S
C3265 C3263 1.380 . S
C3265 C3264 1.392 . S
C3265 H3282 0.929 . S
C3266 C3261 1.383 . S
C3266 C3262 1.389 . S
C3266 H3283 0.931 . S
C3267 O3252 1.266 . S
C3267 O3253 1.248 . S
C3268 Tb3204 2.802 . S
C3268 O3248 1.264 . S
C3268 O3251 1.256 . S
C3268 C3261 1.496 . S
C3269 C3236 1.448 . S
C3269 H3246 0.930 . S
C3269 C3270 1.328 . S
C3270 C3241 1.427 . S
C3270 H3247 0.929 . S
C3270 C3269 1.328 . S
C3271 O3255 1.264 . S
C3271 O3256 1.243 . S
C3272 C3275 1.399 . S
C3272 C3276 1.383 . S
C3272 C3279 1.496 . S
C3273 C3274 1.399 . S
C3273 C3276 1.389 . S
C3274 C3273 1.399 . S
C3274 C3277 1.380 . S
C3274 H3284 0.929 . S
C3275 C3272 1.399 . S
C3275 C3277 1.392 . S
C3275 H3285 0.929 . S
C3276 C3272 1.383 . S
C3276 C3273 1.389 . S
C3276 H3286 0.931 . S
C3277 C3274 1.380 . S
C3277 C3275 1.392 . S
C3277 H3287 0.929 . S
C3278 O3258 1.266 . S
C3278 O3259 1.248 . S
C3279 Tb3215 2.802 . S
C3279 O3254 1.264 . S
C3279 O3257 1.256 . S
C3279 C3272 1.496 . S
H3280 C3263 0.929 . S
H3281 C3264 0.929 . S
H3282 C3265 0.929 . S
H3283 C3266 0.931 . S
H3284 C3274 0.929 . S
H3285 C3275 0.929 . S
H3286 C3276 0.931 . S
H3287 C3277 0.929 . S
Tb3288 N3317 2.617 . S
Tb3288 N3323 2.572 . S
Tb3288 O3332 2.465 . S
Tb3288 O3333 2.387 . S
Tb3288 O3335 2.428 . S
Tb3288 O3336 2.308 . S
Tb3288 O3340 2.349 . S
Tb3288 O3343 2.393 . S
Tb3288 C3352 2.802 . S
C3289 N3290 1.379 . S
C3289 C3292 1.416 . S
C3289 C3296 1.424 . S
N3290 C3289 1.379 . S
N3290 C3293 1.334 . S
N3290 Tb3299 2.617 . S
C3291 C3293 1.390 . S
C3291 C3294 1.339 . S
C3291 H3311 0.930 . S
C3292 C3289 1.416 . S
C3292 C3294 1.416 . S
C3292 C3298 1.448 . S
C3293 N3290 1.334 . S
C3293 C3291 1.390 . S
C3293 H3304 0.930 . S
C3294 C3291 1.339 . S
C3294 C3292 1.416 . S
C3294 H3315 0.930 . S
C3295 C3296 1.413 . S
C3295 C3297 1.427 . S
C3295 C3301 1.416 . S
C3296 C3289 1.424 . S
C3296 C3295 1.413 . S
C3296 N3300 1.361 . S
C3297 C3295 1.427 . S
C3297 C3298 1.328 . S
C3297 H3312 0.929 . S
C3298 C3292 1.448 . S
C3298 C3297 1.328 . S
C3298 H3313 0.930 . S
Tb3299 N3290 2.617 . S
Tb3299 N3300 2.572 . S
Tb3299 O3334 2.349 . S
Tb3299 O3337 2.393 . S
Tb3299 O3338 2.465 . S
Tb3299 O3339 2.387 . S
Tb3299 O3341 2.428 . S
Tb3299 O3342 2.308 . S
Tb3299 C3363 2.802 . S
N3300 C3296 1.361 . S
N3300 Tb3299 2.572 . S
N3300 C3302 1.340 . S
C3301 C3295 1.416 . S
C3301 C3303 1.332 . S
C3301 H3309 0.931 . S
C3302 N3300 1.340 . S
C3302 C3303 1.407 . S
C3302 H3308 0.930 . S
C3303 C3301 1.332 . S
C3303 C3302 1.407 . S
C3303 H3305 0.929 . S
H3304 C3293 0.930 . S
H3305 C3303 0.929 . S
H3306 C3321 0.930 . S
H3307 C3328 0.929 . S
H3308 C3302 0.930 . S
H3309 C3301 0.931 . S
H3310 C3324 0.930 . S
H3311 C3291 0.930 . S
H3312 C3297 0.929 . S
H3313 C3298 0.930 . S
H3314 C3319 0.930 . S
H3315 C3294 0.930 . S
H3316 C3327 0.931 . S
N3317 Tb3288 2.617 . S
N3317 C3318 1.379 . S
N3317 C3321 1.334 . S
C3318 N3317 1.379 . S
C3318 C3320 1.416 . S
C3318 C3326 1.424 . S
C3319 H3314 0.930 . S
C3319 C3321 1.390 . S
C3319 C3322 1.339 . S
C3320 C3318 1.416 . S
C3320 C3322 1.416 . S
C3320 C3353 1.448 . S
C3321 H3306 0.930 . S
C3321 N3317 1.334 . S
C3321 C3319 1.390 . S
C3322 C3319 1.339 . S
C3322 C3320 1.416 . S
C3322 H3329 0.930 . S
N3323 Tb3288 2.572 . S
N3323 C3324 1.340 . S
N3323 C3326 1.361 . S
C3324 H3310 0.930 . S
C3324 N3323 1.340 . S
C3324 C3328 1.407 . S
C3325 C3326 1.413 . S
C3325 C3327 1.416 . S
C3325 C3354 1.427 . S
C3326 C3318 1.424 . S
C3326 N3323 1.361 . S
C3326 C3325 1.413 . S
C3327 H3316 0.931 . S
C3327 C3325 1.416 . S
C3327 C3328 1.332 . S
C3328 H3307 0.929 . S
C3328 C3324 1.407 . S
C3328 C3327 1.332 . S
H3329 C3322 0.930 . S
H3330 C3353 0.930 . S
H3331 C3354 0.929 . S
O3332 Tb3288 2.465 . S
O3332 C3352 1.264 . S
O3333 Tb3288 2.387 . S
O3333 C3344 1.264 . S
O3334 Tb3299 2.349 . S
O3334 C3344 1.243 . S
O3335 Tb3288 2.428 . S
O3335 C3352 1.256 . S
O3336 Tb3288 2.308 . S
O3336 C3351 1.266 . S
O3337 Tb3299 2.393 . S
O3337 C3351 1.248 . S
O3338 Tb3299 2.465 . S
O3338 C3363 1.264 . S
O3339 Tb3299 2.387 . S
O3339 C3355 1.264 . S
O3340 Tb3288 2.349 . S
O3340 C3355 1.243 . S
O3341 Tb3299 2.428 . S
O3341 C3363 1.256 . S
O3342 Tb3299 2.308 . S
O3342 C3362 1.266 . S
O3343 Tb3288 2.393 . S
O3343 C3362 1.248 . S
C3344 O3333 1.264 . S
C3344 O3334 1.243 . S
C3345 C3348 1.399 . S
C3345 C3350 1.383 . S
C3345 C3352 1.496 . S
C3346 C3347 1.399 . S
C3346 C3350 1.389 . S
C3347 C3346 1.399 . S
C3347 C3349 1.380 . S
C3347 H3364 0.929 . S
C3348 C3345 1.399 . S
C3348 C3349 1.392 . S
C3348 H3365 0.929 . S
C3349 C3347 1.380 . S
C3349 C3348 1.392 . S
C3349 H3366 0.929 . S
C3350 C3345 1.383 . S
C3350 C3346 1.389 . S
C3350 H3367 0.931 . S
C3351 O3336 1.266 . S
C3351 O3337 1.248 . S
C3352 Tb3288 2.802 . S
C3352 O3332 1.264 . S
C3352 O3335 1.256 . S
C3352 C3345 1.496 . S
C3353 C3320 1.448 . S
C3353 H3330 0.930 . S
C3353 C3354 1.328 . S
C3354 C3325 1.427 . S
C3354 H3331 0.929 . S
C3354 C3353 1.328 . S
C3355 O3339 1.264 . S
C3355 O3340 1.243 . S
C3356 C3359 1.399 . S
C3356 C3360 1.383 . S
C3356 C3363 1.496 . S
C3357 C3358 1.399 . S
C3357 C3360 1.389 . S
C3358 C3357 1.399 . S
C3358 C3361 1.380 . S
C3358 H3368 0.929 . S
C3359 C3356 1.399 . S
C3359 C3361 1.392 . S
C3359 H3369 0.929 . S
C3360 C3356 1.383 . S
C3360 C3357 1.389 . S
C3360 H3370 0.931 . S
C3361 C3358 1.380 . S
C3361 C3359 1.392 . S
C3361 H3371 0.929 . S
C3362 O3342 1.266 . S
C3362 O3343 1.248 . S
C3363 Tb3299 2.802 . S
C3363 O3338 1.264 . S
C3363 O3341 1.256 . S
C3363 C3356 1.496 . S
H3364 C3347 0.929 . S
H3365 C3348 0.929 . S
H3366 C3349 0.929 . S
H3367 C3350 0.931 . S
H3368 C3358 0.929 . S
H3369 C3359 0.929 . S
H3370 C3360 0.931 . S
H3371 C3361 0.929 . S
Tb3372 N3401 2.621 . S
Tb3372 N3407 2.581 . S
Tb3372 O3416 2.477 . S
Tb3372 O3417 2.379 1_655 S
Tb3372 O3419 2.437 . S
Tb3372 O3420 2.305 1_655 S
Tb3372 O3424 2.345 1_655 S
Tb3372 O3427 2.383 1_655 S
Tb3372 C3436 2.815 . S
C3373 N3374 1.379 . S
C3373 C3376 1.416 . S
C3373 C3380 1.424 1_556 S
N3374 C3373 1.379 . S
N3374 C3377 1.334 . S
N3374 Tb3383 2.617 1_556 S
C3375 C3377 1.390 . S
C3375 C3378 1.339 . S
C3375 H3395 0.930 . S
C3376 C3373 1.416 . S
C3376 C3378 1.416 . S
C3376 C3382 1.448 . S
C3377 N3374 1.334 . S
C3377 C3375 1.390 . S
C3377 H3388 0.930 . S
C3378 C3375 1.339 . S
C3378 C3376 1.416 . S
C3378 H3399 0.930 . S
C3379 C3380 1.413 . S
C3379 C3381 1.424 . S
C3379 C3385 1.416 . S
C3380 C3373 1.424 1_554 S
C3380 C3379 1.413 . S
C3380 N3384 1.361 . S
C3381 C3379 1.424 . S
C3381 C3382 1.331 1_554 S
C3381 H3396 0.929 . S
C3382 C3376 1.448 . S
C3382 C3381 1.331 1_556 S
C3382 H3397 0.930 . S
Tb3383 N3374 2.617 1_554 S
Tb3383 N3384 2.572 . S
Tb3383 O3418 2.349 . S
Tb3383 O3421 2.393 1_554 S
Tb3383 O3422 2.465 . S
Tb3383 O3423 2.387 . S
Tb3383 O3425 2.428 1_554 S
Tb3383 O3426 2.308 . S
Tb3383 C3447 2.802 . S
N3384 C3380 1.361 . S
N3384 Tb3383 2.572 . S
N3384 C3386 1.340 . S
C3385 C3379 1.416 . S
C3385 C3387 1.332 . S
C3385 H3393 0.931 . S
C3386 N3384 1.340 . S
C3386 C3387 1.407 . S
C3386 H3392 0.930 . S
C3387 C3385 1.332 . S
C3387 C3386 1.407 . S
C3387 H3389 0.929 . S
H3388 C3377 0.930 . S
H3389 C3387 0.929 . S
H3390 C3405 0.930 1_455 S
H3391 C3412 0.929 1_556 S
H3392 C3386 0.930 . S
H3393 C3385 0.931 . S
H3394 C3408 0.949 . S
H3395 C3375 0.930 . S
H3396 C3381 0.929 . S
H3397 C3382 0.930 . S
H3398 C3403 0.923 1_455 S
H3399 C3378 0.930 . S
H3400 C3411 0.931 . S
N3401 Tb3372 2.621 . S
N3401 C3402 1.379 . S
N3401 C3405 1.334 . S
C3402 N3401 1.379 . S
C3402 C3404 1.416 . S
C3402 C3410 1.424 . S
C3403 H3398 0.923 1_655 S
C3403 C3405 1.390 . S
C3403 C3406 1.339 . S
C3404 C3402 1.416 . S
C3404 C3406 1.416 . S
C3404 C3437 1.448 . S
C3405 H3390 0.930 1_655 S
C3405 N3401 1.334 . S
C3405 C3403 1.390 . S
C3406 C3403 1.339 . S
C3406 C3404 1.416 . S
C3406 H3413 0.930 . S
N3407 Tb3372 2.581 . S
N3407 C3408 1.340 . S
N3407 C3410 1.361 . S
C3408 H3394 0.949 . S
C3408 N3407 1.340 . S
C3408 C3412 1.407 . S
C3409 C3410 1.413 . S
C3409 C3411 1.416 . S
C3409 C3438 1.427 . S
C3410 C3402 1.424 . S
C3410 N3407 1.361 . S
C3410 C3409 1.413 . S
C3411 H3400 0.931 . S
C3411 C3409 1.416 . S
C3411 C3412 1.332 . S
C3412 H3391 0.929 1_554 S
C3412 C3408 1.407 . S
C3412 C3411 1.332 . S
H3413 C3406 0.930 . S
H3414 C3437 0.930 . S
H3415 C3438 0.929 . S
O3416 Tb3372 2.477 . S
O3416 C3436 1.264 . S
O3417 Tb3372 2.379 1_455 S
O3417 C3428 1.264 . S
O3418 Tb3383 2.349 . S
O3418 C3428 1.243 . S
O3419 Tb3372 2.437 . S
O3419 C3436 1.256 . S
O3420 Tb3372 2.305 1_455 S
O3420 C3435 1.266 1_554 S
O3421 Tb3383 2.393 1_556 S
O3421 C3435 1.248 . S
O3422 Tb3383 2.465 . S
O3422 C3447 1.264 . S
O3423 Tb3383 2.387 . S
O3423 C3439 1.264 . S
O3424 Tb3372 2.345 1_455 S
O3424 C3439 1.243 . S
O3425 Tb3383 2.428 1_556 S
O3425 C3447 1.256 1_556 S
O3426 Tb3383 2.308 . S
O3426 C3446 1.266 . S
O3427 Tb3372 2.383 1_455 S
O3427 C3446 1.248 . S
C3428 O3417 1.264 . S
C3428 O3418 1.243 . S
C3429 C3432 1.399 . S
C3429 C3434 1.383 . S
C3429 C3436 1.496 . S
C3430 C3431 1.399 . S
C3430 C3434 1.389 . S
C3431 C3430 1.399 . S
C3431 C3433 1.380 . S
C3431 H3448 0.929 . S
C3432 C3429 1.399 . S
C3432 C3433 1.392 . S
C3432 H3449 0.929 . S
C3433 C3431 1.380 . S
C3433 C3432 1.392 . S
C3433 H3450 0.929 . S
C3434 C3429 1.383 . S
C3434 C3430 1.389 . S
C3434 H3451 0.931 . S
C3435 O3420 1.266 1_556 S
C3435 O3421 1.248 . S
C3436 Tb3372 2.815 . S
C3436 O3416 1.264 . S
C3436 O3419 1.256 . S
C3436 C3429 1.496 . S
C3437 C3404 1.448 . S
C3437 H3414 0.930 . S
C3437 C3438 1.328 . S
C3438 C3409 1.427 . S
C3438 H3415 0.929 . S
C3438 C3437 1.328 . S
C3439 O3423 1.264 . S
C3439 O3424 1.243 . S
C3440 C3443 1.399 . S
C3440 C3444 1.383 1_556 S
C3440 C3447 1.496 1_556 S
C3441 C3442 1.399 1_554 S
C3441 C3444 1.389 . S
C3442 C3441 1.399 1_556 S
C3442 C3445 1.380 . S
C3442 H3452 0.929 . S
C3443 C3440 1.399 . S
C3443 C3445 1.392 . S
C3443 H3453 0.929 . S
C3444 C3440 1.383 1_554 S
C3444 C3441 1.389 . S
C3444 H3454 0.931 . S
C3445 C3442 1.380 . S
C3445 C3443 1.392 . S
C3445 H3455 0.929 . S
C3446 O3426 1.266 . S
C3446 O3427 1.248 . S
C3447 Tb3383 2.802 . S
C3447 O3422 1.264 . S
C3447 O3425 1.256 1_554 S
C3447 C3440 1.496 1_554 S
H3448 C3431 0.929 . S
H3449 C3432 0.929 . S
H3450 C3433 0.929 . S
H3451 C3434 0.931 . S
H3452 C3442 0.929 . S
H3453 C3443 0.929 . S
H3454 C3444 0.931 . S
H3455 C3445 0.929 . S
C3456 C3457 1.369 . S
C3456 C3458 1.419 . S
C3456 H3460 0.930 1_554 S
C3457 C3456 1.369 . S
C3457 C3466 1.429 1_455 S
C3458 C3456 1.419 . S
C3458 C3459 1.363 . S
C3458 H3461 0.929 1_554 S
C3459 C3458 1.363 . S
C3459 C3465 1.428 . S
H3460 C3456 0.930 1_556 S
H3461 C3458 0.929 1_556 S
S3462 N3463 1.613 . S
S3462 N3464 1.610 . S
N3463 S3462 1.613 . S
N3463 C3466 1.350 . S
N3464 S3462 1.610 . S
N3464 C3465 1.351 1_655 S
C3465 C3459 1.428 . S
C3465 N3464 1.351 1_455 S
C3465 C3466 1.434 1_455 S
C3466 C3457 1.429 1_655 S
C3466 N3463 1.350 . S
C3466 C3465 1.434 1_655 S
C3467 C3468 1.369 . S
C3467 C3469 1.419 . S
C3467 H3471 0.930 . S
C3468 C3467 1.369 . S
C3468 C3477 1.429 . S
C3469 C3467 1.419 . S
C3469 C3470 1.363 . S
C3469 H3472 0.929 . S
C3470 C3469 1.363 . S
C3470 C3476 1.428 . S
H3471 C3467 0.930 . S
H3472 C3469 0.929 . S
S3473 N3474 1.613 . S
S3473 N3475 1.610 . S
N3474 S3473 1.613 . S
N3474 C3477 1.350 . S
N3475 S3473 1.610 . S
N3475 C3476 1.351 . S
C3476 C3470 1.428 . S
C3476 N3475 1.351 . S
C3476 C3477 1.434 . S
C3477 C3468 1.429 . S
C3477 N3474 1.350 . S
C3477 C3476 1.434 . S
C3478 C3479 1.369 . S
C3478 C3480 1.419 . S
C3478 H3482 0.930 . S
C3479 C3478 1.369 . S
C3479 C3488 1.429 . S
C3480 C3478 1.419 . S
C3480 C3481 1.363 . S
C3480 H3483 0.929 . S
C3481 C3480 1.363 . S
C3481 C3487 1.428 . S
H3482 C3478 0.930 . S
H3483 C3480 0.929 . S
S3484 N3485 1.613 . S
S3484 N3486 1.610 . S
N3485 S3484 1.613 . S
N3485 C3488 1.350 . S
N3486 S3484 1.610 . S
N3486 C3487 1.351 . S
C3487 C3481 1.428 . S
C3487 N3486 1.351 . S
C3487 C3488 1.434 . S
C3488 C3479 1.429 . S
C3488 N3485 1.350 . S
C3488 C3487 1.434 . S
C3489 C3490 1.369 . S
C3489 C3491 1.419 . S
C3489 H3493 0.930 . S
C3490 C3489 1.369 . S
C3490 C3499 1.429 . S
C3491 C3489 1.419 . S
C3491 C3492 1.363 . S
C3491 H3494 0.929 . S
C3492 C3491 1.363 . S
C3492 C3498 1.428 . S
H3493 C3489 0.930 . S
H3494 C3491 0.929 . S
S3495 N3496 1.613 . S
S3495 N3497 1.610 . S
N3496 S3495 1.613 . S
N3496 C3499 1.350 . S
N3497 S3495 1.610 . S
N3497 C3498 1.351 . S
C3498 C3492 1.428 . S
C3498 N3497 1.351 . S
C3498 C3499 1.434 . S
C3499 C3490 1.429 . S
C3499 N3496 1.350 . S
C3499 C3498 1.434 . S
C3500 C3501 1.369 . S
C3500 C3502 1.419 . S
C3500 H3504 0.930 . S
C3501 C3500 1.369 . S
C3501 C3510 1.429 . S
C3502 C3500 1.419 . S
C3502 C3503 1.363 . S
C3502 H3505 0.929 . S
C3503 C3502 1.363 . S
C3503 C3509 1.428 . S
H3504 C3500 0.930 . S
H3505 C3502 0.929 . S
S3506 N3507 1.608 1_655 S
S3506 N3508 1.606 1_655 S
N3507 S3506 1.608 1_455 S
N3507 C3510 1.350 . S
N3508 S3506 1.606 1_455 S
N3508 C3509 1.351 . S
C3509 C3503 1.428 . S
C3509 N3508 1.351 . S
C3509 C3510 1.434 . S
C3510 C3501 1.429 . S
C3510 N3507 1.350 . S
C3510 C3509 1.434 . S
C3511 C3512 1.369 . S
C3511 C3513 1.419 . S
C3511 H3515 0.930 . S
C3512 C3511 1.369 . S
C3512 C3521 1.429 . S
C3513 C3511 1.419 . S
C3513 C3514 1.363 . S
C3513 H3516 0.929 . S
C3514 C3513 1.363 . S
C3514 C3520 1.428 . S
H3515 C3511 0.930 . S
H3516 C3513 0.929 . S
S3517 N3518 1.613 . S
S3517 N3519 1.610 . S
N3518 S3517 1.613 . S
N3518 C3521 1.350 . S
N3519 S3517 1.610 . S
N3519 C3520 1.351 . S
C3520 C3514 1.428 . S
C3520 N3519 1.351 . S
C3520 C3521 1.434 . S
C3521 C3512 1.429 . S
C3521 N3518 1.350 . S
C3521 C3520 1.434 . S
C3522 C3523 1.369 . S
C3522 C3524 1.419 . S
C3522 H3526 0.930 . S
C3523 C3522 1.369 . S
C3523 C3532 1.429 . S
C3524 C3522 1.419 . S
C3524 C3525 1.363 . S
C3524 H3527 0.929 . S
C3525 C3524 1.363 . S
C3525 C3531 1.428 . S
H3526 C3522 0.930 . S
H3527 C3524 0.929 . S
S3528 N3529 1.613 . S
S3528 N3530 1.610 . S
N3529 S3528 1.613 . S
N3529 C3532 1.350 . S
N3530 S3528 1.610 . S
N3530 C3531 1.351 . S
C3531 C3525 1.428 . S
C3531 N3530 1.351 . S
C3531 C3532 1.434 . S
C3532 C3523 1.429 . S
C3532 N3529 1.350 . S
C3532 C3531 1.434 . S
C3533 C3534 1.369 . S
C3533 C3535 1.419 . S
C3533 H3537 0.930 . S
C3534 C3533 1.369 . S
C3534 C3543 1.429 . S
C3535 C3533 1.419 . S
C3535 C3536 1.363 . S
C3535 H3538 0.929 . S
C3536 C3535 1.363 . S
C3536 C3542 1.428 . S
H3537 C3533 0.930 . S
H3538 C3535 0.929 . S
S3539 N3540 1.613 . S
S3539 N3541 1.610 . S
N3540 S3539 1.613 . S
N3540 C3543 1.350 . S
N3541 S3539 1.610 . S
N3541 C3542 1.351 . S
C3542 C3536 1.428 . S
C3542 N3541 1.351 . S
C3542 C3543 1.434 . S
C3543 C3534 1.429 . S
C3543 N3540 1.350 . S
C3543 C3542 1.434 . S
C3544 C3545 1.369 1_455 S
C3544 C3546 1.419 . S
C3544 H3548 0.930 . S
C3545 C3544 1.369 1_655 S
C3545 C3554 1.429 . S
C3546 C3544 1.419 . S
C3546 C3547 1.363 . S
C3546 H3549 0.929 . S
C3547 C3546 1.363 . S
C3547 C3553 1.428 . S
H3548 C3544 0.930 . S
H3549 C3546 0.929 . S
S3550 N3551 1.613 . S
S3550 N3552 1.604 1_655 S
N3551 S3550 1.613 . S
N3551 C3554 1.350 1_565 S
N3552 S3550 1.604 1_455 S
N3552 C3553 1.341 1_565 S
C3553 C3547 1.428 . S
C3553 N3552 1.341 1_545 S
C3553 C3554 1.434 1_455 S
C3554 C3545 1.429 . S
C3554 N3551 1.350 1_545 S
C3554 C3553 1.434 1_655 S
C3555 C3556 1.369 . S
C3555 C3557 1.419 . S
C3555 H3559 0.930 . S
C3556 C3555 1.369 . S
C3556 C3565 1.429 . S
C3557 C3555 1.419 . S
C3557 C3558 1.363 . S
C3557 H3560 0.929 . S
C3558 C3557 1.363 . S
C3558 C3564 1.428 . S
H3559 C3555 0.930 . S
H3560 C3557 0.929 . S
S3561 N3562 1.613 . S
S3561 N3563 1.610 . S
N3562 S3561 1.613 . S
N3562 C3565 1.350 . S
N3563 S3561 1.610 . S
N3563 C3564 1.351 . S
C3564 C3558 1.428 . S
C3564 N3563 1.351 . S
C3564 C3565 1.434 . S
C3565 C3556 1.429 . S
C3565 N3562 1.350 . S
C3565 C3564 1.434 . S
C3566 C3567 1.369 . S
C3566 C3568 1.419 . S
C3566 H3570 0.930 . S
C3567 C3566 1.369 . S
C3567 C3576 1.429 . S
C3568 C3566 1.419 . S
C3568 C3569 1.363 . S
C3568 H3571 0.929 . S
C3569 C3568 1.363 . S
C3569 C3575 1.428 . S
H3570 C3566 0.930 . S
H3571 C3568 0.929 . S
S3572 N3573 1.613 1_565 S
S3572 N3574 1.610 . S
N3573 S3572 1.613 1_545 S
N3573 C3576 1.350 . S
N3574 S3572 1.610 . S
N3574 C3575 1.351 1_565 S
C3575 C3569 1.428 . S
C3575 N3574 1.351 1_545 S
C3575 C3576 1.434 . S
C3576 C3567 1.429 . S
C3576 N3573 1.350 . S
C3576 C3575 1.434 . S
C3577 C3578 1.369 . S
C3577 C3579 1.419 . S
C3577 H3581 0.930 . S
C3578 C3577 1.369 . S
C3578 C3587 1.429 . S
C3579 C3577 1.419 . S
C3579 C3580 1.363 . S
C3579 H3582 0.929 . S
C3580 C3579 1.363 . S
C3580 C3586 1.428 . S
H3581 C3577 0.930 . S
H3582 C3579 0.929 . S
S3583 N3584 1.613 . S
S3583 N3585 1.610 . S
N3584 S3583 1.613 . S
N3584 C3587 1.350 . S
N3585 S3583 1.610 . S
N3585 C3586 1.351 . S
C3586 C3580 1.428 . S
C3586 N3585 1.351 . S
C3586 C3587 1.434 . S
C3587 C3578 1.429 . S
C3587 N3584 1.350 . S
C3587 C3586 1.434 . S
C3588 C3589 1.369 . S
C3588 C3590 1.419 . S
C3588 H3592 0.930 . S
C3589 C3588 1.369 . S
C3589 C3598 1.429 1_455 S
C3590 C3588 1.419 . S
C3590 C3591 1.363 . S
C3590 H3593 0.929 . S
C3591 C3590 1.363 . S
C3591 C3597 1.428 1_455 S
H3592 C3588 0.930 . S
H3593 C3590 0.929 . S
S3594 N3595 1.613 . S
S3594 N3596 1.610 . S
N3595 S3594 1.613 . S
N3595 C3598 1.350 . S
N3596 S3594 1.610 . S
N3596 C3597 1.351 . S
C3597 C3591 1.428 1_655 S
C3597 N3596 1.351 . S
C3597 C3598 1.434 . S
C3598 C3589 1.429 1_655 S
C3598 N3595 1.350 . S
C3598 C3597 1.434 . S
C3599 C3600 1.369 . S
C3599 C3601 1.419 . S
C3599 H3603 0.930 . S
C3600 C3599 1.369 . S
C3600 C3609 1.429 . S
C3601 C3599 1.419 . S
C3601 C3602 1.363 . S
C3601 H3604 0.929 . S
C3602 C3601 1.363 . S
C3602 C3608 1.428 . S
H3603 C3599 0.930 . S
H3604 C3601 0.929 . S
S3605 N3606 1.613 . S
S3605 N3607 1.610 . S
N3606 S3605 1.613 . S
N3606 C3609 1.350 . S
N3607 S3605 1.610 . S
N3607 C3608 1.351 . S
C3608 C3602 1.428 . S
C3608 N3607 1.351 . S
C3608 C3609 1.434 . S
C3609 C3600 1.429 . S
C3609 N3606 1.350 . S
C3609 C3608 1.434 . S
C3610 C3611 1.369 . S
C3610 C3612 1.419 . S
C3610 H3614 0.930 . S
C3611 C3610 1.369 . S
C3611 C3620 1.429 . S
C3612 C3610 1.419 . S
C3612 C3613 1.363 . S
C3612 H3615 0.929 . S
C3613 C3612 1.363 . S
C3613 C3619 1.428 . S
H3614 C3610 0.930 . S
H3615 C3612 0.929 . S
S3616 N3617 1.613 1_565 S
S3616 N3618 1.610 1_565 S
N3617 S3616 1.613 1_545 S
N3617 C3620 1.350 . S
N3618 S3616 1.610 1_545 S
N3618 C3619 1.351 . S
C3619 C3613 1.428 . S
C3619 N3618 1.351 . S
C3619 C3620 1.434 . S
C3620 C3611 1.429 . S
C3620 N3617 1.350 . S
C3620 C3619 1.434 . S
C3621 C3622 1.369 . S
C3621 C3623 1.419 . S
C3621 H3625 0.930 . S
C3622 C3621 1.369 . S
C3622 C3631 1.429 . S
C3623 C3621 1.419 . S
C3623 C3624 1.363 . S
C3623 H3626 0.929 . S
C3624 C3623 1.363 . S
C3624 C3630 1.428 . S
H3625 C3621 0.930 . S
H3626 C3623 0.929 . S
S3627 N3628 1.613 . S
S3627 N3629 1.610 . S
N3628 S3627 1.613 . S
N3628 C3631 1.350 . S
N3629 S3627 1.610 . S
N3629 C3630 1.351 . S
C3630 C3624 1.428 . S
C3630 N3629 1.351 . S
C3630 C3631 1.434 . S
C3631 C3622 1.429 . S
C3631 N3628 1.350 . S
C3631 C3630 1.434 . S
C3632 C3633 1.369 . S
C3632 C3634 1.419 . S
C3632 H3636 0.930 . S
C3633 C3632 1.369 . S
C3633 C3642 1.429 1_564 S
C3634 C3632 1.419 . S
C3634 C3635 1.398 . S
C3634 H3637 0.929 . S
C3635 C3634 1.398 . S
C3635 C3641 1.405 1_565 S
H3636 C3632 0.930 . S
H3637 C3634 0.929 . S
S3638 N3639 1.613 . S
S3638 N3640 1.610 . S
N3639 S3638 1.613 . S
N3639 C3642 1.350 . S
N3640 S3638 1.610 . S
N3640 C3641 1.351 1_556 S
C3641 C3635 1.405 1_545 S
C3641 N3640 1.351 1_554 S
C3641 C3642 1.434 1_554 S
C3642 C3633 1.429 1_546 S
C3642 N3639 1.350 . S
C3642 C3641 1.434 1_556 S
C3643 C3644 1.369 . S
C3643 C3645 1.419 . S
C3643 H3647 0.930 . S
C3644 C3643 1.369 . S
C3644 C3653 1.429 . S
C3645 C3643 1.419 . S
C3645 C3646 1.363 . S
C3645 H3648 0.929 . S
C3646 C3645 1.363 . S
C3646 C3652 1.428 . S
H3647 C3643 0.930 . S
H3648 C3645 0.929 . S
S3649 N3650 1.613 . S
S3649 N3651 1.610 . S
N3650 S3649 1.613 . S
N3650 C3653 1.350 . S
N3651 S3649 1.610 . S
N3651 C3652 1.351 . S
C3652 C3646 1.428 . S
C3652 N3651 1.351 . S
C3652 C3653 1.434 . S
C3653 C3644 1.429 . S
C3653 N3650 1.350 . S
C3653 C3652 1.434 . S
C3654 C3655 1.369 . S
C3654 C3656 1.419 . S
C3654 H3658 0.930 . S
C3655 C3654 1.369 . S
C3655 C3664 1.429 . S
C3656 C3654 1.419 . S
C3656 C3657 1.363 . S
C3656 H3659 0.929 . S
C3657 C3656 1.363 . S
C3657 C3663 1.428 . S
H3658 C3654 0.930 . S
H3659 C3656 0.929 . S
S3660 N3661 1.613 . S
S3660 N3662 1.610 . S
N3661 S3660 1.613 . S
N3661 C3664 1.350 . S
N3662 S3660 1.610 . S
N3662 C3663 1.351 . S
C3663 C3657 1.428 . S
C3663 N3662 1.351 . S
C3663 C3664 1.434 . S
C3664 C3655 1.429 . S
C3664 N3661 1.350 . S
C3664 C3663 1.434 . S
C3665 C3666 1.369 . S
C3665 C3667 1.419 . S
C3665 H3669 0.930 . S
C3666 C3665 1.369 . S
C3666 C3675 1.429 . S
C3667 C3665 1.419 . S
C3667 C3668 1.363 . S
C3667 H3670 0.929 . S
C3668 C3667 1.363 . S
C3668 C3674 1.428 . S
H3669 C3665 0.930 . S
H3670 C3667 0.929 . S
S3671 N3672 1.613 . S
S3671 N3673 1.610 . S
N3672 S3671 1.613 . S
N3672 C3675 1.350 . S
N3673 S3671 1.610 . S
N3673 C3674 1.351 . S
C3674 C3668 1.428 . S
C3674 N3673 1.351 . S
C3674 C3675 1.434 . S
C3675 C3666 1.429 . S
C3675 N3672 1.350 . S
C3675 C3674 1.434 . S
C3676 C3677 1.369 . S
C3676 C3678 1.419 . S
C3676 H3680 0.930 . S
C3677 C3676 1.369 . S
C3677 C3686 1.429 . S
C3678 C3676 1.419 . S
C3678 C3679 1.363 . S
C3678 H3681 0.929 . S
C3679 C3678 1.363 . S
C3679 C3685 1.428 . S
H3680 C3676 0.930 . S
H3681 C3678 0.929 . S
S3682 N3683 1.613 . S
S3682 N3684 1.610 . S
N3683 S3682 1.613 . S
N3683 C3686 1.350 . S
N3684 S3682 1.610 . S
N3684 C3685 1.351 . S
C3685 C3679 1.428 . S
C3685 N3684 1.351 . S
C3685 C3686 1.434 . S
C3686 C3677 1.429 . S
C3686 N3683 1.350 . S
C3686 C3685 1.434 . S
C3687 C3688 1.369 . S
C3687 C3689 1.419 . S
C3687 H3691 0.930 . S
C3688 C3687 1.369 . S
C3688 C3697 1.429 . S
C3689 C3687 1.419 . S
C3689 C3690 1.363 . S
C3689 H3692 0.929 . S
C3690 C3689 1.363 . S
C3690 C3696 1.428 . S
H3691 C3687 0.930 . S
H3692 C3689 0.929 . S
S3693 N3694 1.613 . S
S3693 N3695 1.610 . S
N3694 S3693 1.613 . S
N3694 C3697 1.350 . S
N3695 S3693 1.610 . S
N3695 C3696 1.351 . S
C3696 C3690 1.428 . S
C3696 N3695 1.351 . S
C3696 C3697 1.434 . S
C3697 C3688 1.429 . S
C3697 N3694 1.350 . S
C3697 C3696 1.434 . S
C3698 C3699 1.369 . S
C3698 C3700 1.419 . S
C3698 H3702 0.930 . S
C3699 C3698 1.369 . S
C3699 C3708 1.429 . S
C3700 C3698 1.419 . S
C3700 C3701 1.363 . S
C3700 H3703 0.929 . S
C3701 C3700 1.363 . S
C3701 C3707 1.428 . S
H3702 C3698 0.930 . S
H3703 C3700 0.929 . S
S3704 N3705 1.613 . S
S3704 N3706 1.610 . S
N3705 S3704 1.613 . S
N3705 C3708 1.350 . S
N3706 S3704 1.610 . S
N3706 C3707 1.351 . S
C3707 C3701 1.428 . S
C3707 N3706 1.351 . S
C3707 C3708 1.434 . S
C3708 C3699 1.429 . S
C3708 N3705 1.350 . S
C3708 C3707 1.434 . S
C3709 C3710 1.369 . S
C3709 C3711 1.419 . S
C3709 H3713 0.930 . S
C3710 C3709 1.369 . S
C3710 C3719 1.429 . S
C3711 C3709 1.419 . S
C3711 C3712 1.363 . S
C3711 H3714 0.929 . S
C3712 C3711 1.363 . S
C3712 C3718 1.428 . S
H3713 C3709 0.930 . S
H3714 C3711 0.929 . S
S3715 N3716 1.613 . S
S3715 N3717 1.610 . S
N3716 S3715 1.613 . S
N3716 C3719 1.350 . S
N3717 S3715 1.610 . S
N3717 C3718 1.351 . S
C3718 C3712 1.428 . S
C3718 N3717 1.351 . S
C3718 C3719 1.434 . S
C3719 C3710 1.429 . S
C3719 N3716 1.350 . S
C3719 C3718 1.434 . S
C3720 C3721 1.369 . S
C3720 C3722 1.419 . S
C3720 H3724 0.930 . S
C3721 C3720 1.369 . S
C3721 C3730 1.429 . S
C3722 C3720 1.419 . S
C3722 C3723 1.363 . S
C3722 H3725 0.929 . S
C3723 C3722 1.363 . S
C3723 C3729 1.428 . S
H3724 C3720 0.930 . S
H3725 C3722 0.929 . S
S3726 N3727 1.613 . S
S3726 N3728 1.610 . S
N3727 S3726 1.613 . S
N3727 C3730 1.350 . S
N3728 S3726 1.610 . S
N3728 C3729 1.351 . S
C3729 C3723 1.428 . S
C3729 N3728 1.351 . S
C3729 C3730 1.434 . S
C3730 C3721 1.429 . S
C3730 N3727 1.350 . S
C3730 C3729 1.434 . S
C3731 C3732 1.369 . S
C3731 C3733 1.419 . S
C3731 H3735 0.930 . S
C3732 C3731 1.369 . S
C3732 C3741 1.429 . S
C3733 C3731 1.419 . S
C3733 C3734 1.363 . S
C3733 H3736 0.929 . S
C3734 C3733 1.363 . S
C3734 C3740 1.428 . S
H3735 C3731 0.930 . S
H3736 C3733 0.929 . S
S3737 N3738 1.613 . S
S3737 N3739 1.610 . S
N3738 S3737 1.613 . S
N3738 C3741 1.350 . S
N3739 S3737 1.610 . S
N3739 C3740 1.351 . S
C3740 C3734 1.428 . S
C3740 N3739 1.351 . S
C3740 C3741 1.434 . S
C3741 C3732 1.429 . S
C3741 N3738 1.350 . S
C3741 C3740 1.434 . S
C3742 C3743 1.369 . S
C3742 C3744 1.419 . S
C3742 H3746 0.930 . S
C3743 C3742 1.369 . S
C3743 C3752 1.429 . S
C3744 C3742 1.419 . S
C3744 C3745 1.363 . S
C3744 H3747 0.929 . S
C3745 C3744 1.363 . S
C3745 C3751 1.428 . S
H3746 C3742 0.930 . S
H3747 C3744 0.929 . S
S3748 N3749 1.613 . S
S3748 N3750 1.610 . S
N3749 S3748 1.613 . S
N3749 C3752 1.350 . S
N3750 S3748 1.610 . S
N3750 C3751 1.351 . S
C3751 C3745 1.428 . S
C3751 N3750 1.351 . S
C3751 C3752 1.434 . S
C3752 C3743 1.429 . S
C3752 N3749 1.350 . S
C3752 C3751 1.434 . S
C3753 C3754 1.369 . S
C3753 C3755 1.419 . S
C3753 H3757 0.930 . S
C3754 C3753 1.369 . S
C3754 C3763 1.429 . S
C3755 C3753 1.419 . S
C3755 C3756 1.363 . S
C3755 H3758 0.929 . S
C3756 C3755 1.363 . S
C3756 C3762 1.428 . S
H3757 C3753 0.930 . S
H3758 C3755 0.929 . S
S3759 N3760 1.613 . S
S3759 N3761 1.610 . S
N3760 S3759 1.613 . S
N3760 C3763 1.350 . S
N3761 S3759 1.610 . S
N3761 C3762 1.351 . S
C3762 C3756 1.428 . S
C3762 N3761 1.351 . S
C3762 C3763 1.434 . S
C3763 C3754 1.429 . S
C3763 N3760 1.350 . S
C3763 C3762 1.434 . S
C3764 C3765 1.369 . S
C3764 C3766 1.419 . S
C3764 H3768 0.930 . S
C3765 C3764 1.369 . S
C3765 C3774 1.429 . S
C3766 C3764 1.419 . S
C3766 C3767 1.363 . S
C3766 H3769 0.929 . S
C3767 C3766 1.363 . S
C3767 C3773 1.428 . S
H3768 C3764 0.930 . S
H3769 C3766 0.929 . S
S3770 N3771 1.613 . S
S3770 N3772 1.610 . S
N3771 S3770 1.613 . S
N3771 C3774 1.350 . S
N3772 S3770 1.610 . S
N3772 C3773 1.351 . S
C3773 C3767 1.428 . S
C3773 N3772 1.351 . S
C3773 C3774 1.434 . S
C3774 C3765 1.429 . S
C3774 N3771 1.350 . S
C3774 C3773 1.434 . S
C3775 C3776 1.369 . S
C3775 C3777 1.419 . S
C3775 H3779 0.930 . S
C3776 C3775 1.369 . S
C3776 C3785 1.429 . S
C3777 C3775 1.419 . S
C3777 C3778 1.363 . S
C3777 H3780 0.929 . S
C3778 C3777 1.363 . S
C3778 C3784 1.428 . S
H3779 C3775 0.930 . S
H3780 C3777 0.929 . S
S3781 N3782 1.613 . S
S3781 N3783 1.610 . S
N3782 S3781 1.613 . S
N3782 C3785 1.350 . S
N3783 S3781 1.610 . S
N3783 C3784 1.351 . S
C3784 C3778 1.428 . S
C3784 N3783 1.351 . S
C3784 C3785 1.434 . S
C3785 C3776 1.429 . S
C3785 N3782 1.350 . S
C3785 C3784 1.434 . S
C3786 C3787 1.369 . S
C3786 C3788 1.419 . S
C3786 H3790 0.930 . S
C3787 C3786 1.369 . S
C3787 C3796 1.429 . S
C3788 C3786 1.419 . S
C3788 C3789 1.363 . S
C3788 H3791 0.929 . S
C3789 C3788 1.363 . S
C3789 C3795 1.428 . S
H3790 C3786 0.930 . S
H3791 C3788 0.929 . S
S3792 N3793 1.613 . S
S3792 N3794 1.610 . S
N3793 S3792 1.613 . S
N3793 C3796 1.350 . S
N3794 S3792 1.610 . S
N3794 C3795 1.351 . S
C3795 C3789 1.428 . S
C3795 N3794 1.351 . S
C3795 C3796 1.434 . S
C3796 C3787 1.429 . S
C3796 N3793 1.350 . S
C3796 C3795 1.434 . S
C3797 C3798 1.369 . S
C3797 C3799 1.419 . S
C3797 H3801 0.930 . S
C3798 C3797 1.369 . S
C3798 C3807 1.429 . S
C3799 C3797 1.419 . S
C3799 C3800 1.363 . S
C3799 H3802 0.929 . S
C3800 C3799 1.363 . S
C3800 C3806 1.428 . S
H3801 C3797 0.930 . S
H3802 C3799 0.929 . S
S3803 N3804 1.613 . S
S3803 N3805 1.610 . S
N3804 S3803 1.613 . S
N3804 C3807 1.350 . S
N3805 S3803 1.610 . S
N3805 C3806 1.351 . S
C3806 C3800 1.428 . S
C3806 N3805 1.351 . S
C3806 C3807 1.434 . S
C3807 C3798 1.429 . S
C3807 N3804 1.350 . S
C3807 C3806 1.434 . S
C3808 C3809 1.369 . S
C3808 C3810 1.419 . S
C3808 H3812 0.930 . S
C3809 C3808 1.369 . S
C3809 C3818 1.429 . S
C3810 C3808 1.419 . S
C3810 C3811 1.363 . S
C3810 H3813 0.929 1_545 S
C3811 C3810 1.363 . S
C3811 C3817 1.428 . S
H3812 C3808 0.930 . S
H3813 C3810 0.929 1_565 S
S3814 N3815 1.613 . S
S3814 N3816 1.610 . S
N3815 S3814 1.613 . S
N3815 C3818 1.350 . S
N3816 S3814 1.610 . S
N3816 C3817 1.351 . S
C3817 C3811 1.428 . S
C3817 N3816 1.351 . S
C3817 C3818 1.434 . S
C3818 C3809 1.429 . S
C3818 N3815 1.350 . S
C3818 C3817 1.434 . S
C3819 C3820 1.369 . S
C3819 C3821 1.419 . S
C3819 H3823 0.930 . S
C3820 C3819 1.369 . S
C3820 C3829 1.429 . S
C3821 C3819 1.419 . S
C3821 C3822 1.363 . S
C3821 H3824 0.929 . S
C3822 C3821 1.363 . S
C3822 C3828 1.428 . S
H3823 C3819 0.930 . S
H3824 C3821 0.929 . S
S3825 N3826 1.613 . S
S3825 N3827 1.610 . S
N3826 S3825 1.613 . S
N3826 C3829 1.350 . S
N3827 S3825 1.610 . S
N3827 C3828 1.351 . S
C3828 C3822 1.428 . S
C3828 N3827 1.351 . S
C3828 C3829 1.434 . S
C3829 C3820 1.429 . S
C3829 N3826 1.350 . S
C3829 C3828 1.434 . S
C3830 C3831 1.369 . S
C3830 C3832 1.419 . S
C3830 H3834 0.930 . S
C3831 C3830 1.369 . S
C3831 C3840 1.429 . S
C3832 C3830 1.419 . S
C3832 C3833 1.363 . S
C3832 H3835 0.929 . S
C3833 C3832 1.363 . S
C3833 C3839 1.428 . S
H3834 C3830 0.930 . S
H3835 C3832 0.929 . S
S3836 N3837 1.613 . S
S3836 N3838 1.610 . S
N3837 S3836 1.613 . S
N3837 C3840 1.350 . S
N3838 S3836 1.610 . S
N3838 C3839 1.351 . S
C3839 C3833 1.428 . S
C3839 N3838 1.351 . S
C3839 C3840 1.434 . S
C3840 C3831 1.429 . S
C3840 N3837 1.350 . S
C3840 C3839 1.434 . S
C3841 C3842 1.369 . S
C3841 C3843 1.419 . S
C3841 H3845 0.930 . S
C3842 C3841 1.369 . S
C3842 C3851 1.429 . S
C3843 C3841 1.419 . S
C3843 C3844 1.363 . S
C3843 H3846 0.929 . S
C3844 C3843 1.363 . S
C3844 C3850 1.428 . S
H3845 C3841 0.930 . S
H3846 C3843 0.929 . S
S3847 N3848 1.613 . S
S3847 N3849 1.610 . S
N3848 S3847 1.613 . S
N3848 C3851 1.350 . S
N3849 S3847 1.610 . S
N3849 C3850 1.351 . S
C3850 C3844 1.428 . S
C3850 N3849 1.351 . S
C3850 C3851 1.434 . S
C3851 C3842 1.429 . S
C3851 N3848 1.350 . S
C3851 C3850 1.434 . S
C3852 C3853 1.369 . S
C3852 C3854 1.419 . S
C3852 H3856 0.930 . S
C3853 C3852 1.369 . S
C3853 C3862 1.429 . S
C3854 C3852 1.419 . S
C3854 C3855 1.363 . S
C3854 H3857 0.929 . S
C3855 C3854 1.363 . S
C3855 C3861 1.428 . S
H3856 C3852 0.930 . S
H3857 C3854 0.929 . S
S3858 N3859 1.613 . S
S3858 N3860 1.610 . S
N3859 S3858 1.613 . S
N3859 C3862 1.350 1_565 S
N3860 S3858 1.610 . S
N3860 C3861 1.351 1_565 S
C3861 C3855 1.428 . S
C3861 N3860 1.351 1_545 S
C3861 C3862 1.434 . S
C3862 C3853 1.429 . S
C3862 N3859 1.350 1_545 S
C3862 C3861 1.434 . S
C3863 C3864 1.369 . S
C3863 C3865 1.419 . S
C3863 H3867 0.930 . S
C3864 C3863 1.369 . S
C3864 C3873 1.429 . S
C3865 C3863 1.419 . S
C3865 C3866 1.363 . S
C3865 H3868 0.929 . S
C3866 C3865 1.363 . S
C3866 C3872 1.428 . S
H3867 C3863 0.930 . S
H3868 C3865 0.929 . S
S3869 N3870 1.613 . S
S3869 N3871 1.610 . S
N3870 S3869 1.613 . S
N3870 C3873 1.350 . S
N3871 S3869 1.610 . S
N3871 C3872 1.351 . S
C3872 C3866 1.428 . S
C3872 N3871 1.351 . S
C3872 C3873 1.434 . S
C3873 C3864 1.429 . S
C3873 N3870 1.350 . S
C3873 C3872 1.434 . S
C3874 C3875 1.369 1_565 S
C3874 C3876 1.419 . S
C3874 H3878 0.930 . S
C3875 C3874 1.369 1_545 S
C3875 C3884 1.429 . S
C3876 C3874 1.419 . S
C3876 C3877 1.363 1_565 S
C3876 H3879 0.929 . S
C3877 C3876 1.363 1_545 S
C3877 C3883 1.428 . S
H3878 C3874 0.930 . S
H3879 C3876 0.929 . S
S3880 N3881 1.613 . S
S3880 N3882 1.610 . S
N3881 S3880 1.613 . S
N3881 C3884 1.350 . S
N3882 S3880 1.610 . S
N3882 C3883 1.351 . S
C3883 C3877 1.428 . S
C3883 N3882 1.351 . S
C3883 C3884 1.434 . S
C3884 C3875 1.429 . S
C3884 N3881 1.350 . S
C3884 C3883 1.434 . S
C3885 C3886 1.369 . S
C3885 C3887 1.419 . S
C3885 H3889 0.930 . S
C3886 C3885 1.369 . S
C3886 C3895 1.429 . S
C3887 C3885 1.419 . S
C3887 C3888 1.363 . S
C3887 H3890 0.929 . S
C3888 C3887 1.363 . S
C3888 C3894 1.428 . S
H3889 C3885 0.930 . S
H3890 C3887 0.929 . S
S3891 N3892 1.613 . S
S3891 N3893 1.610 . S
N3892 S3891 1.613 . S
N3892 C3895 1.350 . S
N3893 S3891 1.610 . S
N3893 C3894 1.351 . S
C3894 C3888 1.428 . S
C3894 N3893 1.351 . S
C3894 C3895 1.434 . S
C3895 C3886 1.429 . S
C3895 N3892 1.350 . S
C3895 C3894 1.434 . S
C3896 C3897 1.369 . S
C3896 C3898 1.419 . S
C3896 H3900 0.930 . S
C3897 C3896 1.369 . S
C3897 C3906 1.429 . S
C3898 C3896 1.419 . S
C3898 C3899 1.363 . S
C3898 H3901 0.929 . S
C3899 C3898 1.363 . S
C3899 C3905 1.428 . S
H3900 C3896 0.930 . S
H3901 C3898 0.929 . S
S3902 N3903 1.613 . S
S3902 N3904 1.610 . S
N3903 S3902 1.613 . S
N3903 C3906 1.350 . S
N3904 S3902 1.610 . S
N3904 C3905 1.351 . S
C3905 C3899 1.428 . S
C3905 N3904 1.351 . S
C3905 C3906 1.434 . S
C3906 C3897 1.429 . S
C3906 N3903 1.350 . S
C3906 C3905 1.434 . S
C3907 C3908 1.369 . S
C3907 C3909 1.419 . S
C3907 H3911 0.930 . S
C3908 C3907 1.369 . S
C3908 C3917 1.429 . S
C3909 C3907 1.419 . S
C3909 C3910 1.363 . S
C3909 H3912 0.929 . S
C3910 C3909 1.363 . S
C3910 C3916 1.428 . S
H3911 C3907 0.930 . S
H3912 C3909 0.929 . S
S3913 N3914 1.613 1_556 S
S3913 N3915 1.610 1_556 S
N3914 S3913 1.613 1_554 S
N3914 C3917 1.350 . S
N3915 S3913 1.610 1_554 S
N3915 C3916 1.351 . S
C3916 C3910 1.428 . S
C3916 N3915 1.351 . S
C3916 C3917 1.434 . S
C3917 C3908 1.429 . S
C3917 N3914 1.350 . S
C3917 C3916 1.434 . S
C3918 C3919 1.369 . S
C3918 C3920 1.419 . S
C3918 H3922 0.930 . S
C3919 C3918 1.369 . S
C3919 C3928 1.429 . S
C3920 C3918 1.419 . S
C3920 C3921 1.363 . S
C3920 H3923 0.929 . S
C3921 C3920 1.363 . S
C3921 C3927 1.428 . S
H3922 C3918 0.930 . S
H3923 C3920 0.929 . S
S3924 N3925 1.613 . S
S3924 N3926 1.610 . S
N3925 S3924 1.613 . S
N3925 C3928 1.350 . S
N3926 S3924 1.610 . S
N3926 C3927 1.351 . S
C3927 C3921 1.428 . S
C3927 N3926 1.351 . S
C3927 C3928 1.434 . S
C3928 C3919 1.429 . S
C3928 N3925 1.350 . S
C3928 C3927 1.434 . S
C3929 C3930 1.369 . S
C3929 C3931 1.419 . S
C3929 H3933 0.930 . S
C3930 C3929 1.369 . S
C3930 C3939 1.429 . S
C3931 C3929 1.419 . S
C3931 C3932 1.363 . S
C3931 H3934 0.929 . S
C3932 C3931 1.363 . S
C3932 C3938 1.428 . S
H3933 C3929 0.930 . S
H3934 C3931 0.929 . S
S3935 N3936 1.613 . S
S3935 N3937 1.610 . S
N3936 S3935 1.613 . S
N3936 C3939 1.350 . S
N3937 S3935 1.610 . S
N3937 C3938 1.351 . S
C3938 C3932 1.428 . S
C3938 N3937 1.351 . S
C3938 C3939 1.434 . S
C3939 C3930 1.429 . S
C3939 N3936 1.350 . S
C3939 C3938 1.434 . S
C3940 C3941 1.369 . S
C3940 C3942 1.419 . S
C3940 H3944 0.930 . S
C3941 C3940 1.369 . S
C3941 C3950 1.429 . S
C3942 C3940 1.419 . S
C3942 C3943 1.363 . S
C3942 H3945 0.929 . S
C3943 C3942 1.363 . S
C3943 C3949 1.428 . S
H3944 C3940 0.930 . S
H3945 C3942 0.929 . S
S3946 N3947 1.613 . S
S3946 N3948 1.610 . S
N3947 S3946 1.613 . S
N3947 C3950 1.350 . S
N3948 S3946 1.610 . S
N3948 C3949 1.351 . S
C3949 C3943 1.428 . S
C3949 N3948 1.351 . S
C3949 C3950 1.434 . S
C3950 C3941 1.429 . S
C3950 N3947 1.350 . S
C3950 C3949 1.434 . S
C3951 C3952 1.369 . S
C3951 C3953 1.419 . S
C3951 H3955 0.930 . S
C3952 C3951 1.369 . S
C3952 C3961 1.429 . S
C3953 C3951 1.419 . S
C3953 C3954 1.363 . S
C3953 H3956 0.929 . S
C3954 C3953 1.363 . S
C3954 C3960 1.428 . S
H3955 C3951 0.930 . S
H3956 C3953 0.929 . S
S3957 N3958 1.613 . S
S3957 N3959 1.610 . S
N3958 S3957 1.613 . S
N3958 C3961 1.350 . S
N3959 S3957 1.610 . S
N3959 C3960 1.351 . S
C3960 C3954 1.428 . S
C3960 N3959 1.351 . S
C3960 C3961 1.434 . S
C3961 C3952 1.429 . S
C3961 N3958 1.350 . S
C3961 C3960 1.434 . S
C3962 C3963 1.369 . S
C3962 C3964 1.419 . S
C3962 H3966 0.930 . S
C3963 C3962 1.369 . S
C3963 C3972 1.429 . S
C3964 C3962 1.419 . S
C3964 C3965 1.363 . S
C3964 H3967 0.929 . S
C3965 C3964 1.363 . S
C3965 C3971 1.428 . S
H3966 C3962 0.930 . S
H3967 C3964 0.929 . S
S3968 N3969 1.613 . S
S3968 N3970 1.610 . S
N3969 S3968 1.613 . S
N3969 C3972 1.350 . S
N3970 S3968 1.610 . S
N3970 C3971 1.351 . S
C3971 C3965 1.428 . S
C3971 N3970 1.351 . S
C3971 C3972 1.434 . S
C3972 C3963 1.429 . S
C3972 N3969 1.350 . S
C3972 C3971 1.434 . S
C3973 C3974 1.369 . S
C3973 C3975 1.419 . S
C3973 H3977 0.930 . S
C3974 C3973 1.369 . S
C3974 C3983 1.429 . S
C3975 C3973 1.419 . S
C3975 C3976 1.363 . S
C3975 H3978 0.929 . S
C3976 C3975 1.363 . S
C3976 C3982 1.428 . S
H3977 C3973 0.930 . S
H3978 C3975 0.929 . S
S3979 N3980 1.613 . S
S3979 N3981 1.610 . S
N3980 S3979 1.613 . S
N3980 C3983 1.350 . S
N3981 S3979 1.610 . S
N3981 C3982 1.351 . S
C3982 C3976 1.428 . S
C3982 N3981 1.351 . S
C3982 C3983 1.434 . S
C3983 C3974 1.429 . S
C3983 N3980 1.350 . S
C3983 C3982 1.434 . S
C3984 C3985 1.369 . S
C3984 C3986 1.419 . S
C3984 H3988 0.930 . S
C3985 C3984 1.369 . S
C3985 C3994 1.429 . S
C3986 C3984 1.419 . S
C3986 C3987 1.363 . S
C3986 H3989 0.929 . S
C3987 C3986 1.363 . S
C3987 C3993 1.428 . S
H3988 C3984 0.930 . S
H3989 C3986 0.929 . S
S3990 N3991 1.613 . S
S3990 N3992 1.610 . S
N3991 S3990 1.613 . S
N3991 C3994 1.350 . S
N3992 S3990 1.610 . S
N3992 C3993 1.351 . S
C3993 C3987 1.428 . S
C3993 N3992 1.351 . S
C3993 C3994 1.434 . S
C3994 C3985 1.429 . S
C3994 N3991 1.350 . S
C3994 C3993 1.434 . S
C3995 C3996 1.369 . S
C3995 C3997 1.419 . S
C3995 H3999 0.930 . S
C3996 C3995 1.369 . S
C3996 C4005 1.429 . S
C3997 C3995 1.419 . S
C3997 C3998 1.363 . S
C3997 H4000 0.929 . S
C3998 C3997 1.363 . S
C3998 C4004 1.428 . S
H3999 C3995 0.930 . S
H4000 C3997 0.929 . S
S4001 N4002 1.613 . S
S4001 N4003 1.610 . S
N4002 S4001 1.613 . S
N4002 C4005 1.350 . S
N4003 S4001 1.610 . S
N4003 C4004 1.351 . S
C4004 C3998 1.428 . S
C4004 N4003 1.351 . S
C4004 C4005 1.434 . S
C4005 C3996 1.429 . S
C4005 N4002 1.350 . S
C4005 C4004 1.434 . S
C4006 C4007 1.369 . S
C4006 C4008 1.419 . S
C4006 H4010 0.930 . S
C4007 C4006 1.369 . S
C4007 C4016 1.429 . S
C4008 C4006 1.419 . S
C4008 C4009 1.363 . S
C4008 H4011 0.929 . S
C4009 C4008 1.363 . S
C4009 C4015 1.428 . S
H4010 C4006 0.930 . S
H4011 C4008 0.929 . S
S4012 N4013 1.613 . S
S4012 N4014 1.610 . S
N4013 S4012 1.613 . S
N4013 C4016 1.350 1_656 S
N4014 S4012 1.610 . S
N4014 C4015 1.351 1_656 S
C4015 C4009 1.428 . S
C4015 N4014 1.351 1_454 S
C4015 C4016 1.434 . S
C4016 C4007 1.429 . S
C4016 N4013 1.350 1_454 S
C4016 C4015 1.434 . S
C4017 C4018 1.369 . S
C4017 C4019 1.419 . S
C4017 H4021 0.930 . S
C4018 C4017 1.369 . S
C4018 C4027 1.429 . S
C4019 C4017 1.419 . S
C4019 C4020 1.363 . S
C4019 H4022 0.929 . S
C4020 C4019 1.363 . S
C4020 C4026 1.428 . S
H4021 C4017 0.930 . S
H4022 C4019 0.929 . S
S4023 N4024 1.613 . S
S4023 N4025 1.610 . S
N4024 S4023 1.613 . S
N4024 C4027 1.350 . S
N4025 S4023 1.610 . S
N4025 C4026 1.351 . S
C4026 C4020 1.428 . S
C4026 N4025 1.351 . S
C4026 C4027 1.434 . S
C4027 C4018 1.429 . S
C4027 N4024 1.350 . S
C4027 C4026 1.434 . S
C4028 C4029 1.369 . S
C4028 C4030 1.419 . S
C4028 H4032 0.930 . S
C4029 C4028 1.369 . S
C4029 C4038 1.429 . S
C4030 C4028 1.419 . S
C4030 C4031 1.363 . S
C4030 H4033 0.929 . S
C4031 C4030 1.363 . S
C4031 C4037 1.428 . S
H4032 C4028 0.930 . S
H4033 C4030 0.929 . S
S4034 N4035 1.613 . S
S4034 N4036 1.610 . S
N4035 S4034 1.613 . S
N4035 C4038 1.350 . S
N4036 S4034 1.610 . S
N4036 C4037 1.351 . S
C4037 C4031 1.428 . S
C4037 N4036 1.351 . S
C4037 C4038 1.434 . S
C4038 C4029 1.429 . S
C4038 N4035 1.350 . S
C4038 C4037 1.434 . S
C4039 C4040 1.369 . S
C4039 C4041 1.419 . S
C4039 H4043 0.930 . S
C4040 C4039 1.369 . S
C4040 C4049 1.429 . S
C4041 C4039 1.419 . S
C4041 C4042 1.363 . S
C4041 H4044 0.929 . S
C4042 C4041 1.363 . S
C4042 C4048 1.428 . S
H4043 C4039 0.930 . S
H4044 C4041 0.929 . S
S4045 N4046 1.613 . S
S4045 N4047 1.610 . S
N4046 S4045 1.613 . S
N4046 C4049 1.350 . S
N4047 S4045 1.610 . S
N4047 C4048 1.351 . S
C4048 C4042 1.428 . S
C4048 N4047 1.351 . S
C4048 C4049 1.434 . S
C4049 C4040 1.429 . S
C4049 N4046 1.350 . S
C4049 C4048 1.434 . S
C4050 C4051 1.368 1_655 S
C4050 C4052 1.415 1_655 S
C4050 H4054 0.935 . S
C4051 C4050 1.368 1_455 S
C4051 C4060 1.429 . S
C4052 C4050 1.415 1_455 S
C4052 C4053 1.363 . S
C4052 H4055 0.928 1_455 S
C4053 C4052 1.363 . S
C4053 C4059 1.428 . S
H4054 C4050 0.935 . S
H4055 C4052 0.928 1_655 S
S4056 N4057 1.613 . S
S4056 N4058 1.610 . S
N4057 S4056 1.613 . S
N4057 C4060 1.350 . S
N4058 S4056 1.610 . S
N4058 C4059 1.351 . S
C4059 C4053 1.428 . S
C4059 N4058 1.351 . S
C4059 C4060 1.434 . S
C4060 C4051 1.429 . S
C4060 N4057 1.350 . S
C4060 C4059 1.434 . S
C4061 C4062 1.369 . S
C4061 C4063 1.419 . S
C4061 H4065 0.930 . S
C4062 C4061 1.369 . S
C4062 C4071 1.429 . S
C4063 C4061 1.419 . S
C4063 C4064 1.363 . S
C4063 H4066 0.929 . S
C4064 C4063 1.363 . S
C4064 C4070 1.428 . S
H4065 C4061 0.930 . S
H4066 C4063 0.929 . S
S4067 N4068 1.613 . S
S4067 N4069 1.610 . S
N4068 S4067 1.613 . S
N4068 C4071 1.350 . S
N4069 S4067 1.610 . S
N4069 C4070 1.351 . S
C4070 C4064 1.428 . S
C4070 N4069 1.351 . S
C4070 C4071 1.434 . S
C4071 C4062 1.429 . S
C4071 N4068 1.350 . S
C4071 C4070 1.434 . S
C4072 C4073 1.369 . S
C4072 C4074 1.419 . S
C4072 H4076 0.930 . S
C4073 C4072 1.369 . S
C4073 C4082 1.429 . S
C4074 C4072 1.419 . S
C4074 C4075 1.363 . S
C4074 H4077 0.929 . S
C4075 C4074 1.363 . S
C4075 C4081 1.428 . S
H4076 C4072 0.930 . S
H4077 C4074 0.929 . S
S4078 N4079 1.613 . S
S4078 N4080 1.610 . S
N4079 S4078 1.613 . S
N4079 C4082 1.350 . S
N4080 S4078 1.610 . S
N4080 C4081 1.351 . S
C4081 C4075 1.428 . S
C4081 N4080 1.351 . S
C4081 C4082 1.434 . S
C4082 C4073 1.429 . S
C4082 N4079 1.350 . S
C4082 C4081 1.434 . S
C4083 C4084 1.369 . S
C4083 C4085 1.419 . S
C4083 H4087 0.930 . S
C4084 C4083 1.369 . S
C4084 C4093 1.429 . S
C4085 C4083 1.419 . S
C4085 C4086 1.363 . S
C4085 H4088 0.929 . S
C4086 C4085 1.363 . S
C4086 C4092 1.428 . S
H4087 C4083 0.930 . S
H4088 C4085 0.929 . S
S4089 N4090 1.613 . S
S4089 N4091 1.610 . S
N4090 S4089 1.613 . S
N4090 C4093 1.350 . S
N4091 S4089 1.610 . S
N4091 C4092 1.351 . S
C4092 C4086 1.428 . S
C4092 N4091 1.351 . S
C4092 C4093 1.434 . S
C4093 C4084 1.429 . S
C4093 N4090 1.350 . S
C4093 C4092 1.434 . S
C4094 C4095 1.369 . S
C4094 C4096 1.419 . S
C4094 H4098 0.930 . S
C4095 C4094 1.369 . S
C4095 C4104 1.429 . S
C4096 C4094 1.419 . S
C4096 C4097 1.363 . S
C4096 H4099 0.929 . S
C4097 C4096 1.363 . S
C4097 C4103 1.428 . S
H4098 C4094 0.930 . S
H4099 C4096 0.929 . S
S4100 N4101 1.613 . S
S4100 N4102 1.610 . S
N4101 S4100 1.613 . S
N4101 C4104 1.350 . S
N4102 S4100 1.610 . S
N4102 C4103 1.351 . S
C4103 C4097 1.428 . S
C4103 N4102 1.351 . S
C4103 C4104 1.434 . S
C4104 C4095 1.429 . S
C4104 N4101 1.350 . S
C4104 C4103 1.434 . S
C4105 C4106 1.369 . S
C4105 C4107 1.419 . S
C4105 H4109 0.930 . S
C4106 C4105 1.369 . S
C4106 C4115 1.429 . S
C4107 C4105 1.419 . S
C4107 C4108 1.363 . S
C4107 H4110 0.929 . S
C4108 C4107 1.363 . S
C4108 C4114 1.428 . S
H4109 C4105 0.930 . S
H4110 C4107 0.929 . S
S4111 N4112 1.613 . S
S4111 N4113 1.610 . S
N4112 S4111 1.613 . S
N4112 C4115 1.350 . S
N4113 S4111 1.610 . S
N4113 C4114 1.351 . S
C4114 C4108 1.428 . S
C4114 N4113 1.351 . S
C4114 C4115 1.434 . S
C4115 C4106 1.429 . S
C4115 N4112 1.350 . S
C4115 C4114 1.434 . S
C4116 C4117 1.369 . S
C4116 C4118 1.419 . S
C4116 H4120 0.930 . S
C4117 C4116 1.369 . S
C4117 C4126 1.429 . S
C4118 C4116 1.419 . S
C4118 C4119 1.363 . S
C4118 H4121 0.929 . S
C4119 C4118 1.363 . S
C4119 C4125 1.428 . S
H4120 C4116 0.930 . S
H4121 C4118 0.929 . S
S4122 N4123 1.613 . S
S4122 N4124 1.610 . S
N4123 S4122 1.613 . S
N4123 C4126 1.350 . S
N4124 S4122 1.610 . S
N4124 C4125 1.351 . S
C4125 C4119 1.428 . S
C4125 N4124 1.351 . S
C4125 C4126 1.434 . S
C4126 C4117 1.429 . S
C4126 N4123 1.350 . S
C4126 C4125 1.434 . S
C4127 C4128 1.369 . S
C4127 C4129 1.419 . S
C4127 H4131 0.930 . S
C4128 C4127 1.369 . S
C4128 C4137 1.429 . S
C4129 C4127 1.419 . S
C4129 C4130 1.363 . S
C4129 H4132 0.929 . S
C4130 C4129 1.363 . S
C4130 C4136 1.428 . S
H4131 C4127 0.930 . S
H4132 C4129 0.929 . S
S4133 N4134 1.613 . S
S4133 N4135 1.610 . S
N4134 S4133 1.613 . S
N4134 C4137 1.350 . S
N4135 S4133 1.610 . S
N4135 C4136 1.351 . S
C4136 C4130 1.428 . S
C4136 N4135 1.351 . S
C4136 C4137 1.434 . S
C4137 C4128 1.429 . S
C4137 N4134 1.350 . S
C4137 C4136 1.434 . S
C4138 C4139 1.369 . S
C4138 C4140 1.419 . S
C4138 H4142 0.930 . S
C4139 C4138 1.369 . S
C4139 C4148 1.429 . S
C4140 C4138 1.419 . S
C4140 C4141 1.363 . S
C4140 H4143 0.929 . S
C4141 C4140 1.363 . S
C4141 C4147 1.428 . S
H4142 C4138 0.930 . S
H4143 C4140 0.929 . S
S4144 N4145 1.613 . S
S4144 N4146 1.610 . S
N4145 S4144 1.613 . S
N4145 C4148 1.350 . S
N4146 S4144 1.610 . S
N4146 C4147 1.351 . S
C4147 C4141 1.428 . S
C4147 N4146 1.351 . S
C4147 C4148 1.434 . S
C4148 C4139 1.429 . S
C4148 N4145 1.350 . S
C4148 C4147 1.434 . S
C4149 C4150 1.369 . S
C4149 C4151 1.419 . S
C4149 H4153 0.930 . S
C4150 C4149 1.369 . S
C4150 C4159 1.429 . S
C4151 C4149 1.419 . S
C4151 C4152 1.363 . S
C4151 H4154 0.929 . S
C4152 C4151 1.363 . S
C4152 C4158 1.428 . S
H4153 C4149 0.930 . S
H4154 C4151 0.929 . S
S4155 N4156 1.613 . S
S4155 N4157 1.610 . S
N4156 S4155 1.613 . S
N4156 C4159 1.350 . S
N4157 S4155 1.610 . S
N4157 C4158 1.351 . S
C4158 C4152 1.428 . S
C4158 N4157 1.351 . S
C4158 C4159 1.434 . S
C4159 C4150 1.429 . S
C4159 N4156 1.350 . S
C4159 C4158 1.434 . S
C4160 C4161 1.369 . S
C4160 C4162 1.419 . S
C4160 H4164 0.930 . S
C4161 C4160 1.369 . S
C4161 C4170 1.429 . S
C4162 C4160 1.419 . S
C4162 C4163 1.363 . S
C4162 H4165 0.929 . S
C4163 C4162 1.363 . S
C4163 C4169 1.428 . S
H4164 C4160 0.930 . S
H4165 C4162 0.929 . S
S4166 N4167 1.613 . S
S4166 N4168 1.610 . S
N4167 S4166 1.613 . S
N4167 C4170 1.350 . S
N4168 S4166 1.610 . S
N4168 C4169 1.351 . S
C4169 C4163 1.428 . S
C4169 N4168 1.351 . S
C4169 C4170 1.434 . S
C4170 C4161 1.429 . S
C4170 N4167 1.350 . S
C4170 C4169 1.434 . S
C4171 C4172 1.369 . S
C4171 C4173 1.419 . S
C4171 H4175 0.930 . S
C4172 C4171 1.369 . S
C4172 C4181 1.429 . S
C4173 C4171 1.419 . S
C4173 C4174 1.363 . S
C4173 H4176 0.929 . S
C4174 C4173 1.363 . S
C4174 C4180 1.428 . S
H4175 C4171 0.930 . S
H4176 C4173 0.929 . S
S4177 N4178 1.613 . S
S4177 N4179 1.610 . S
N4178 S4177 1.613 . S
N4178 C4181 1.350 . S
N4179 S4177 1.610 . S
N4179 C4180 1.351 . S
C4180 C4174 1.428 . S
C4180 N4179 1.351 . S
C4180 C4181 1.434 . S
C4181 C4172 1.429 . S
C4181 N4178 1.350 . S
C4181 C4180 1.434 . S
C4182 C4183 1.369 . S
C4182 C4184 1.419 . S
C4182 H4186 0.930 . S
C4183 C4182 1.369 . S
C4183 C4192 1.429 . S
C4184 C4182 1.419 . S
C4184 C4185 1.363 . S
C4184 H4187 0.929 . S
C4185 C4184 1.363 . S
C4185 C4191 1.428 . S
H4186 C4182 0.930 . S
H4187 C4184 0.929 . S
S4188 N4189 1.613 . S
S4188 N4190 1.610 . S
N4189 S4188 1.613 . S
N4189 C4192 1.350 . S
N4190 S4188 1.610 . S
N4190 C4191 1.351 . S
C4191 C4185 1.428 . S
C4191 N4190 1.351 . S
C4191 C4192 1.434 . S
C4192 C4183 1.429 . S
C4192 N4189 1.350 . S
C4192 C4191 1.434 . S
C4193 C4194 1.369 1_565 S
C4193 C4195 1.419 . S
C4193 H4197 0.930 1_554 S
C4194 C4193 1.369 1_545 S
C4194 C4203 1.429 . S
C4195 C4193 1.419 . S
C4195 C4196 1.363 1_565 S
C4195 H4198 0.929 . S
C4196 C4195 1.363 1_545 S
C4196 C4202 1.428 . S
H4197 C4193 0.930 1_556 S
H4198 C4195 0.929 . S
S4199 N4200 1.613 . S
S4199 N4201 1.610 . S
N4200 S4199 1.613 . S
N4200 C4203 1.350 . S
N4201 S4199 1.610 . S
N4201 C4202 1.351 . S
C4202 C4196 1.428 . S
C4202 N4201 1.351 . S
C4202 C4203 1.434 . S
C4203 C4194 1.429 . S
C4203 N4200 1.350 . S
C4203 C4202 1.434 . S
C4204 C4205 1.369 . S
C4204 C4206 1.419 . S
C4204 H4208 0.930 . S
C4205 C4204 1.369 . S
C4205 C4214 1.429 . S
C4206 C4204 1.419 . S
C4206 C4207 1.363 . S
C4206 H4209 0.929 . S
C4207 C4206 1.363 . S
C4207 C4213 1.428 . S
H4208 C4204 0.930 . S
H4209 C4206 0.929 . S
S4210 N4211 1.613 . S
S4210 N4212 1.610 . S
N4211 S4210 1.613 . S
N4211 C4214 1.350 . S
N4212 S4210 1.610 . S
N4212 C4213 1.351 . S
C4213 C4207 1.428 . S
C4213 N4212 1.351 . S
C4213 C4214 1.434 . S
C4214 C4205 1.429 . S
C4214 N4211 1.350 . S
C4214 C4213 1.434 . S
C4215 C4216 1.369 . S
C4215 C4217 1.419 . S
C4215 H4219 0.930 . S
C4216 C4215 1.369 . S
C4216 C4225 1.429 . S
C4217 C4215 1.419 . S
C4217 C4218 1.363 . S
C4217 H4220 0.929 . S
C4218 C4217 1.363 . S
C4218 C4224 1.428 . S
H4219 C4215 0.930 . S
H4220 C4217 0.929 . S
S4221 N4222 1.613 . S
S4221 N4223 1.610 . S
N4222 S4221 1.613 . S
N4222 C4225 1.350 . S
N4223 S4221 1.610 . S
N4223 C4224 1.351 . S
C4224 C4218 1.428 . S
C4224 N4223 1.351 . S
C4224 C4225 1.434 . S
C4225 C4216 1.429 . S
C4225 N4222 1.350 . S
C4225 C4224 1.434 . S
C4226 C4227 1.369 . S
C4226 C4228 1.419 . S
C4226 H4230 0.930 . S
C4227 C4226 1.369 . S
C4227 C4236 1.429 . S
C4228 C4226 1.419 . S
C4228 C4229 1.363 . S
C4228 H4231 0.929 . S
C4229 C4228 1.363 . S
C4229 C4235 1.428 . S
H4230 C4226 0.930 . S
H4231 C4228 0.929 . S
S4232 N4233 1.613 . S
S4232 N4234 1.610 . S
N4233 S4232 1.613 . S
N4233 C4236 1.350 . S
N4234 S4232 1.610 . S
N4234 C4235 1.351 . S
C4235 C4229 1.428 . S
C4235 N4234 1.351 . S
C4235 C4236 1.434 . S
C4236 C4227 1.429 . S
C4236 N4233 1.350 . S
C4236 C4235 1.434 . S
C4237 C4238 1.369 . S
C4237 C4239 1.419 . S
C4237 H4241 0.930 . S
C4238 C4237 1.369 . S
C4238 C4247 1.429 . S
C4239 C4237 1.419 . S
C4239 C4240 1.363 . S
C4239 H4242 0.929 . S
C4240 C4239 1.363 . S
C4240 C4246 1.428 . S
H4241 C4237 0.930 . S
H4242 C4239 0.929 . S
S4243 N4244 1.613 . S
S4243 N4245 1.610 . S
N4244 S4243 1.613 . S
N4244 C4247 1.350 . S
N4245 S4243 1.610 . S
N4245 C4246 1.351 . S
C4246 C4240 1.428 . S
C4246 N4245 1.351 . S
C4246 C4247 1.434 . S
C4247 C4238 1.429 . S
C4247 N4244 1.350 . S
C4247 C4246 1.434 . S
C4248 C4249 1.369 . S
C4248 C4250 1.419 . S
C4248 H4252 0.930 . S
C4249 C4248 1.369 . S
C4249 C4258 1.429 . S
C4250 C4248 1.419 . S
C4250 C4251 1.363 . S
C4250 H4253 0.929 . S
C4251 C4250 1.363 . S
C4251 C4257 1.428 . S
H4252 C4248 0.930 . S
H4253 C4250 0.929 . S
S4254 N4255 1.613 . S
S4254 N4256 1.610 . S
N4255 S4254 1.613 . S
N4255 C4258 1.350 . S
N4256 S4254 1.610 . S
N4256 C4257 1.351 . S
C4257 C4251 1.428 . S
C4257 N4256 1.351 . S
C4257 C4258 1.434 . S
C4258 C4249 1.429 . S
C4258 N4255 1.350 . S
C4258 C4257 1.434 . S
C4259 C4260 1.369 . S
C4259 C4261 1.419 . S
C4259 H4263 0.930 . S
C4260 C4259 1.369 . S
C4260 C4269 1.429 . S
C4261 C4259 1.419 . S
C4261 C4262 1.363 . S
C4261 H4264 0.929 . S
C4262 C4261 1.363 . S
C4262 C4268 1.428 . S
H4263 C4259 0.930 . S
H4264 C4261 0.929 . S
S4265 N4266 1.613 . S
S4265 N4267 1.610 . S
N4266 S4265 1.613 . S
N4266 C4269 1.350 . S
N4267 S4265 1.610 . S
N4267 C4268 1.351 . S
C4268 C4262 1.428 . S
C4268 N4267 1.351 . S
C4268 C4269 1.434 . S
C4269 C4260 1.429 . S
C4269 N4266 1.350 . S
C4269 C4268 1.434 . S
C4270 C4271 1.369 . S
C4270 C4272 1.419 . S
C4270 H4274 0.930 . S
C4271 C4270 1.369 . S
C4271 C4280 1.429 . S
C4272 C4270 1.419 . S
C4272 C4273 1.363 . S
C4272 H4275 0.929 . S
C4273 C4272 1.363 . S
C4273 C4279 1.428 . S
H4274 C4270 0.930 . S
H4275 C4272 0.929 . S
S4276 N4277 1.613 . S
S4276 N4278 1.627 . S
N4277 S4276 1.613 . S
N4277 C4280 1.350 1_556 S
N4278 S4276 1.627 . S
N4278 C4279 1.335 1_556 S
C4279 C4273 1.428 . S
C4279 N4278 1.335 1_554 S
C4279 C4280 1.434 . S
C4280 C4271 1.429 . S
C4280 N4277 1.350 1_554 S
C4280 C4279 1.434 . S
C4281 C4282 1.369 . S
C4281 C4283 1.419 . S
C4281 H4285 0.930 . S
C4282 C4281 1.369 . S
C4282 C4291 1.429 . S
C4283 C4281 1.419 . S
C4283 C4284 1.363 . S
C4283 H4286 0.929 . S
C4284 C4283 1.363 . S
C4284 C4290 1.428 . S
H4285 C4281 0.930 . S
H4286 C4283 0.929 . S
S4287 N4288 1.613 . S
S4287 N4289 1.610 . S
N4288 S4287 1.613 . S
N4288 C4291 1.350 . S
N4289 S4287 1.610 . S
N4289 C4290 1.351 . S
C4290 C4284 1.428 . S
C4290 N4289 1.351 . S
C4290 C4291 1.434 . S
C4291 C4282 1.429 . S
C4291 N4288 1.350 . S
C4291 C4290 1.434 . S
C4292 C4293 1.369 . S
C4292 C4294 1.419 . S
C4292 H4296 0.930 . S
C4293 C4292 1.369 . S
C4293 C4302 1.429 . S
C4294 C4292 1.419 . S
C4294 C4295 1.363 . S
C4294 H4297 0.929 . S
C4295 C4294 1.363 . S
C4295 C4301 1.428 . S
H4296 C4292 0.930 . S
H4297 C4294 0.929 . S
S4298 N4299 1.613 1_554 S
S4298 N4300 1.610 1_554 S
N4299 S4298 1.613 1_556 S
N4299 C4302 1.350 . S
N4300 S4298 1.610 1_556 S
N4300 C4301 1.351 . S
C4301 C4295 1.428 . S
C4301 N4300 1.351 . S
C4301 C4302 1.434 . S
C4302 C4293 1.429 . S
C4302 N4299 1.350 . S
C4302 C4301 1.434 . S
C4303 C4304 1.369 . S
C4303 C4305 1.419 . S
C4303 H4307 0.930 . S
C4304 C4303 1.369 . S
C4304 C4313 1.429 . S
C4305 C4303 1.419 . S
C4305 C4306 1.363 . S
C4305 H4308 0.929 . S
C4306 C4305 1.363 . S
C4306 C4312 1.428 . S
H4307 C4303 0.930 . S
H4308 C4305 0.929 . S
S4309 N4310 1.613 . S
S4309 N4311 1.610 . S
N4310 S4309 1.613 . S
N4310 C4313 1.350 . S
N4311 S4309 1.610 . S
N4311 C4312 1.351 . S
C4312 C4306 1.428 . S
C4312 N4311 1.351 . S
C4312 C4313 1.434 . S
C4313 C4304 1.429 . S
C4313 N4310 1.350 . S
C4313 C4312 1.434 . S
C4314 C4315 1.369 . S
C4314 C4316 1.419 . S
C4314 H4318 0.930 . S
C4315 C4314 1.369 . S
C4315 C4324 1.429 . S
C4316 C4314 1.419 . S
C4316 C4317 1.363 . S
C4316 H4319 0.929 . S
C4317 C4316 1.363 . S
C4317 C4323 1.428 . S
H4318 C4314 0.930 . S
H4319 C4316 0.929 . S
S4320 N4321 1.613 . S
S4320 N4322 1.610 . S
N4321 S4320 1.613 . S
N4321 C4324 1.350 . S
N4322 S4320 1.610 . S
N4322 C4323 1.351 . S
C4323 C4317 1.428 . S
C4323 N4322 1.351 . S
C4323 C4324 1.434 . S
C4324 C4315 1.429 . S
C4324 N4321 1.350 . S
C4324 C4323 1.434 . S
C4325 C4326 1.369 . S
C4325 C4327 1.419 . S
C4325 H4329 0.930 . S
C4326 C4325 1.369 . S
C4326 C4335 1.429 . S
C4327 C4325 1.419 . S
C4327 C4328 1.363 . S
C4327 H4330 0.929 . S
C4328 C4327 1.363 . S
C4328 C4334 1.428 . S
H4329 C4325 0.930 . S
H4330 C4327 0.929 . S
S4331 N4332 1.613 . S
S4331 N4333 1.610 . S
N4332 S4331 1.613 . S
N4332 C4335 1.350 . S
N4333 S4331 1.610 . S
N4333 C4334 1.351 . S
C4334 C4328 1.428 . S
C4334 N4333 1.351 . S
C4334 C4335 1.434 . S
C4335 C4326 1.429 . S
C4335 N4332 1.350 . S
C4335 C4334 1.434 . S
C4336 C4337 1.369 . S
C4336 C4338 1.419 . S
C4336 H4340 0.930 . S
C4337 C4336 1.369 . S
C4337 C4346 1.429 . S
C4338 C4336 1.419 . S
C4338 C4339 1.363 . S
C4338 H4341 0.929 . S
C4339 C4338 1.363 . S
C4339 C4345 1.428 . S
H4340 C4336 0.930 . S
H4341 C4338 0.929 . S
S4342 N4343 1.613 . S
S4342 N4344 1.610 . S
N4343 S4342 1.613 . S
N4343 C4346 1.350 . S
N4344 S4342 1.610 . S
N4344 C4345 1.351 . S
C4345 C4339 1.428 . S
C4345 N4344 1.351 . S
C4345 C4346 1.434 . S
C4346 C4337 1.429 . S
C4346 N4343 1.350 . S
C4346 C4345 1.434 . S
C4347 C4348 1.369 . S
C4347 C4349 1.419 . S
C4347 H4351 0.930 . S
C4348 C4347 1.369 . S
C4348 C4357 1.429 . S
C4349 C4347 1.419 . S
C4349 C4350 1.363 . S
C4349 H4352 0.929 . S
C4350 C4349 1.363 . S
C4350 C4356 1.428 . S
H4351 C4347 0.930 . S
H4352 C4349 0.929 . S
S4353 N4354 1.613 . S
S4353 N4355 1.610 . S
N4354 S4353 1.613 . S
N4354 C4357 1.350 . S
N4355 S4353 1.610 . S
N4355 C4356 1.351 . S
C4356 C4350 1.428 . S
C4356 N4355 1.351 . S
C4356 C4357 1.434 . S
C4357 C4348 1.429 . S
C4357 N4354 1.350 . S
C4357 C4356 1.434 . S
C4358 C4359 1.369 . S
C4358 C4360 1.419 . S
C4358 H4362 0.930 . S
C4359 C4358 1.369 . S
C4359 C4368 1.429 . S
C4360 C4358 1.419 . S
C4360 C4361 1.363 . S
C4360 H4363 0.929 1_655 S
C4361 C4360 1.363 . S
C4361 C4367 1.428 . S
H4362 C4358 0.930 . S
H4363 C4360 0.929 1_455 S
S4364 N4365 1.613 . S
S4364 N4366 1.610 . S
N4365 S4364 1.613 . S
N4365 C4368 1.350 . S
N4366 S4364 1.610 . S
N4366 C4367 1.351 . S
C4367 C4361 1.428 . S
C4367 N4366 1.351 . S
C4367 C4368 1.434 . S
C4368 C4359 1.429 . S
C4368 N4365 1.350 . S
C4368 C4367 1.434 . S
C4369 C4370 1.369 . S
C4369 C4371 1.419 . S
C4369 H4373 0.930 . S
C4370 C4369 1.369 . S
C4370 C4379 1.429 . S
C4371 C4369 1.419 . S
C4371 C4372 1.363 . S
C4371 H4374 0.929 . S
C4372 C4371 1.363 . S
C4372 C4378 1.428 . S
H4373 C4369 0.930 . S
H4374 C4371 0.929 . S
S4375 N4376 1.613 . S
S4375 N4377 1.610 . S
N4376 S4375 1.613 . S
N4376 C4379 1.350 . S
N4377 S4375 1.610 . S
N4377 C4378 1.351 . S
C4378 C4372 1.428 . S
C4378 N4377 1.351 . S
C4378 C4379 1.434 . S
C4379 C4370 1.429 . S
C4379 N4376 1.350 . S
C4379 C4378 1.434 . S
C4380 C4381 1.369 . S
C4380 C4382 1.419 . S
C4380 H4384 0.930 . S
C4381 C4380 1.369 . S
C4381 C4390 1.429 . S
C4382 C4380 1.419 . S
C4382 C4383 1.363 . S
C4382 H4385 0.929 . S
C4383 C4382 1.363 . S
C4383 C4389 1.428 . S
H4384 C4380 0.930 . S
H4385 C4382 0.929 . S
S4386 N4387 1.613 . S
S4386 N4388 1.610 . S
N4387 S4386 1.613 . S
N4387 C4390 1.350 . S
N4388 S4386 1.610 . S
N4388 C4389 1.351 . S
C4389 C4383 1.428 . S
C4389 N4388 1.351 . S
C4389 C4390 1.434 . S
C4390 C4381 1.429 . S
C4390 N4387 1.350 . S
C4390 C4389 1.434 . S
C4391 C4392 1.369 . S
C4391 C4393 1.419 . S
C4391 H4395 0.930 . S
C4392 C4391 1.369 . S
C4392 C4401 1.429 . S
C4393 C4391 1.419 . S
C4393 C4394 1.363 . S
C4393 H4396 0.929 . S
C4394 C4393 1.363 . S
C4394 C4400 1.428 . S
H4395 C4391 0.930 . S
H4396 C4393 0.929 . S
S4397 N4398 1.613 . S
S4397 N4399 1.610 . S
N4398 S4397 1.613 . S
N4398 C4401 1.350 . S
N4399 S4397 1.610 . S
N4399 C4400 1.351 . S
C4400 C4394 1.428 . S
C4400 N4399 1.351 . S
C4400 C4401 1.434 . S
C4401 C4392 1.429 . S
C4401 N4398 1.350 . S
C4401 C4400 1.434 . S
C4402 C4403 1.369 . S
C4402 C4404 1.419 . S
C4402 H4406 0.930 . S
C4403 C4402 1.369 . S
C4403 C4412 1.429 . S
C4404 C4402 1.419 . S
C4404 C4405 1.363 . S
C4404 H4407 0.929 . S
C4405 C4404 1.363 . S
C4405 C4411 1.428 . S
H4406 C4402 0.930 . S
H4407 C4404 0.929 . S
S4408 N4409 1.613 1_455 S
S4408 N4410 1.610 . S
N4409 S4408 1.613 1_655 S
N4409 C4412 1.350 . S
N4410 S4408 1.610 . S
N4410 C4411 1.346 1_455 S
C4411 C4405 1.428 . S
C4411 N4410 1.346 1_655 S
C4411 C4412 1.434 . S
C4412 C4403 1.429 . S
C4412 N4409 1.350 . S
C4412 C4411 1.434 . S
C4413 C4414 1.369 . S
C4413 C4415 1.419 . S
C4413 H4417 0.930 . S
C4414 C4413 1.369 . S
C4414 C4423 1.429 . S
C4415 C4413 1.419 . S
C4415 C4416 1.363 . S
C4415 H4418 0.929 . S
C4416 C4415 1.363 . S
C4416 C4422 1.428 . S
H4417 C4413 0.930 . S
H4418 C4415 0.929 . S
S4419 N4420 1.613 . S
S4419 N4421 1.610 . S
N4420 S4419 1.613 . S
N4420 C4423 1.350 . S
N4421 S4419 1.610 . S
N4421 C4422 1.351 . S
C4422 C4416 1.428 . S
C4422 N4421 1.351 . S
C4422 C4423 1.434 . S
C4423 C4414 1.429 . S
C4423 N4420 1.350 . S
C4423 C4422 1.434 . S
C4424 C4425 1.369 . S
C4424 C4426 1.419 . S
C4424 H4428 0.930 . S
C4425 C4424 1.369 . S
C4425 C4434 1.429 . S
C4426 C4424 1.419 . S
C4426 C4427 1.363 . S
C4426 H4429 0.929 . S
C4427 C4426 1.363 . S
C4427 C4433 1.428 . S
H4428 C4424 0.930 . S
H4429 C4426 0.929 . S
S4430 N4431 1.613 . S
S4430 N4432 1.610 . S
N4431 S4430 1.613 . S
N4431 C4434 1.350 . S
N4432 S4430 1.610 . S
N4432 C4433 1.351 . S
C4433 C4427 1.428 . S
C4433 N4432 1.351 . S
C4433 C4434 1.434 . S
C4434 C4425 1.429 . S
C4434 N4431 1.350 . S
C4434 C4433 1.434 . S
C4435 C4436 1.369 . S
C4435 C4437 1.419 . S
C4435 H4439 0.930 . S
C4436 C4435 1.369 . S
C4436 C4445 1.429 . S
C4437 C4435 1.419 . S
C4437 C4438 1.363 . S
C4437 H4440 0.929 . S
C4438 C4437 1.363 . S
C4438 C4444 1.428 1_565 S
H4439 C4435 0.930 . S
H4440 C4437 0.929 . S
S4441 N4442 1.613 . S
S4441 N4443 1.610 . S
N4442 S4441 1.613 . S
N4442 C4445 1.350 1_545 S
N4443 S4441 1.610 . S
N4443 C4444 1.351 . S
C4444 C4438 1.428 1_545 S
C4444 N4443 1.351 . S
C4444 C4445 1.434 1_545 S
C4445 C4436 1.429 . S
C4445 N4442 1.350 1_565 S
C4445 C4444 1.434 1_565 S
C4446 C4447 1.369 . S
C4446 C4448 1.419 . S
C4446 H4450 0.930 . S
C4447 C4446 1.369 . S
C4447 C4456 1.429 . S
C4448 C4446 1.419 . S
C4448 C4449 1.363 . S
C4448 H4451 0.929 . S
C4449 C4448 1.363 . S
C4449 C4455 1.428 . S
H4450 C4446 0.930 . S
H4451 C4448 0.929 . S
S4452 N4453 1.613 . S
S4452 N4454 1.610 . S
N4453 S4452 1.613 . S
N4453 C4456 1.350 . S
N4454 S4452 1.610 . S
N4454 C4455 1.351 . S
C4455 C4449 1.428 . S
C4455 N4454 1.351 . S
C4455 C4456 1.434 . S
C4456 C4447 1.429 . S
C4456 N4453 1.350 . S
C4456 C4455 1.434 . S
C4457 C4458 1.369 . S
C4457 C4459 1.419 . S
C4457 H4461 0.930 . S
C4458 C4457 1.369 . S
C4458 C4467 1.429 . S
C4459 C4457 1.419 . S
C4459 C4460 1.363 . S
C4459 H4462 0.929 . S
C4460 C4459 1.363 . S
C4460 C4466 1.428 . S
H4461 C4457 0.930 . S
H4462 C4459 0.929 . S
S4463 N4464 1.613 1_556 S
S4463 N4465 1.624 . S
N4464 S4463 1.613 1_554 S
N4464 C4467 1.350 . S
N4465 S4463 1.624 . S
N4465 C4466 1.331 1_556 S
C4466 C4460 1.428 . S
C4466 N4465 1.331 1_554 S
C4466 C4467 1.434 . S
C4467 C4458 1.429 . S
C4467 N4464 1.350 . S
C4467 C4466 1.434 . S
C4468 C4469 1.369 . S
C4468 C4470 1.419 . S
C4468 H4472 0.930 . S
C4469 C4468 1.369 . S
C4469 C4478 1.429 . S
C4470 C4468 1.419 . S
C4470 C4471 1.363 . S
C4470 H4473 0.929 . S
C4471 C4470 1.363 . S
C4471 C4477 1.428 . S
H4472 C4468 0.930 . S
H4473 C4470 0.929 . S
S4474 N4475 1.613 . S
S4474 N4476 1.610 . S
N4475 S4474 1.613 . S
N4475 C4478 1.350 . S
N4476 S4474 1.610 . S
N4476 C4477 1.351 . S
C4477 C4471 1.428 . S
C4477 N4476 1.351 . S
C4477 C4478 1.434 . S
C4478 C4469 1.429 . S
C4478 N4475 1.350 . S
C4478 C4477 1.434 . S
C4479 C4480 1.369 . S
C4479 C4481 1.419 . S
C4479 H4483 0.930 . S
C4480 C4479 1.369 . S
C4480 C4489 1.429 . S
C4481 C4479 1.419 . S
C4481 C4482 1.363 . S
C4481 H4484 0.929 . S
C4482 C4481 1.363 . S
C4482 C4488 1.428 . S
H4483 C4479 0.930 . S
H4484 C4481 0.929 . S
S4485 N4486 1.613 . S
S4485 N4487 1.610 . S
N4486 S4485 1.613 . S
N4486 C4489 1.350 . S
N4487 S4485 1.610 . S
N4487 C4488 1.351 . S
C4488 C4482 1.428 . S
C4488 N4487 1.351 . S
C4488 C4489 1.434 . S
C4489 C4480 1.429 . S
C4489 N4486 1.350 . S
C4489 C4488 1.434 . S
C4490 C4491 1.369 . S
C4490 C4492 1.419 . S
C4490 H4494 0.930 . S
C4491 C4490 1.369 . S
C4491 C4500 1.429 . S
C4492 C4490 1.419 . S
C4492 C4493 1.363 . S
C4492 H4495 0.929 . S
C4493 C4492 1.363 . S
C4493 C4499 1.428 . S
H4494 C4490 0.930 . S
H4495 C4492 0.929 . S
S4496 N4497 1.613 . S
S4496 N4498 1.610 . S
N4497 S4496 1.613 . S
N4497 C4500 1.350 . S
N4498 S4496 1.610 . S
N4498 C4499 1.351 . S
C4499 C4493 1.428 . S
C4499 N4498 1.351 . S
C4499 C4500 1.434 . S
C4500 C4491 1.429 . S
C4500 N4497 1.350 . S
C4500 C4499 1.434 . S
C4501 C4502 1.369 . S
C4501 C4503 1.419 . S
C4501 H4505 0.930 . S
C4502 C4501 1.369 . S
C4502 C4511 1.429 . S
C4503 C4501 1.419 . S
C4503 C4504 1.363 . S
C4503 H4506 0.929 . S
C4504 C4503 1.363 . S
C4504 C4510 1.428 . S
H4505 C4501 0.930 . S
H4506 C4503 0.929 . S
S4507 N4508 1.613 . S
S4507 N4509 1.610 . S
N4508 S4507 1.613 . S
N4508 C4511 1.350 . S
N4509 S4507 1.610 . S
N4509 C4510 1.351 . S
C4510 C4504 1.428 . S
C4510 N4509 1.351 . S
C4510 C4511 1.434 . S
C4511 C4502 1.429 . S
C4511 N4508 1.350 . S
C4511 C4510 1.434 . S
C3457 C665 2.240 1_455 S
C3459 C2168 2.304 . S
C3468 C381 1.876 . S
C3470 C2270 1.900 . S
C3479 C460 2.044 . S
C3481 C2336 2.125 . S
C3492 C2422 1.366 . S
C3490 C585 1.463 . S
C3501 C108 1.463 . S
C3503 C2506 1.364 . S
C3514 C2588 2.126 . S
C3512 C196 2.044 . S
C3525 C2690 1.900 . S
C3523 C313 1.876 . S
C3534 C49 2.234 . S
C3536 C2756 2.307 . S
C3547 C2186 1.677 . S
C3545 C1457 1.743 . S
C3556 C1545 0.870 . S
C3558 C2254 0.846 . S
C3569 C2354 1.083 . S
C3567 C1721 1.091 . S
C3580 C2420 1.733 . S
C3578 C1113 1.710 . S
C3589 C1428 1.703 1_455 S
C3591 C2504 1.737 . S
C3602 C2606 1.082 . S
C3600 C1516 1.093 . S
C3613 C2674 0.847 . S
C3611 C1692 0.870 . S
C3624 C2774 1.677 . S
C3622 C1085 1.743 . S
C3635 C2170 1.156 1_565 S
C3633 C988 1.126 1_554 S
C3644 C1817 1.667 . S
C3646 C2858 1.671 . S
C3657 C2926 1.339 . S
C3655 C2081 1.375 . S
C3668 C3008 0.972 . S
C3666 C1993 0.942 . S
C3677 C761 1.129 . S
C3679 C2758 1.171 . S
C3688 C821 1.370 . S
C3690 C2338 1.333 . S
C3699 C2053 1.670 . S
C3701 C3110 1.671 . S
C3712 C3176 0.970 . S
C3710 C1868 0.946 . S
C3723 C2179 2.300 . S
C3721 C372 2.237 . S
C3734 C3183 1.899 . S
C3732 C645 1.869 . S
C3743 C577 2.038 . S
C3745 C2347 2.120 . S
C3754 C497 1.461 . S
C3756 C3105 1.360 . S
C3767 C2517 1.363 . S
C3765 C57 1.462 . S
C3776 C293 2.042 . S
C3778 C2935 2.119 . S
C3789 C2679 1.898 1_556 S
C3787 C205 1.866 . S
C3800 C3271 2.299 . S
C3798 C145 2.241 . S
C3811 C2175 1.673 . S
C3809 C909 1.740 . S
C3822 C3189 0.847 . S
C3820 C1956 0.866 . S
C3831 C724 1.090 . S
C3833 C2343 1.081 . S
C3842 C1780 1.702 . S
C3844 C3103 1.731 . S
C3853 C937 1.704 . S
C3855 C2515 1.730 . S
C3866 C2931 1.077 . S
C3864 C1985 1.087 . S
C3875 C753 0.867 . S
C3877 C2685 0.857 . S
C3886 C1809 1.737 . S
C3888 C3267 1.676 . S
C3897 C1173 1.120 . S
C3899 C2181 1.164 . S
C3908 C1105 1.661 . S
C3910 C2847 1.667 . S
C3919 C1633 1.375 . S
C3921 C2601 1.338 . S
C3930 C1553 0.937 . S
C3932 C3019 0.967 . S
C3943 C3273 1.163 . S
C3941 C1729 1.130 . S
C3952 C1340 1.371 . S
C3954 C2349 1.330 . S
C3965 C2427 1.666 . S
C3963 C1604 1.662 . S
C3976 C2263 0.960 . S
C3974 C1252 0.949 . S
C3985 C489 2.240 . S
C3987 C3344 2.303 . S
C3998 C3194 1.900 . S
C3996 C557 1.874 . S
C4007 C636 2.038 . S
C4009 C3428 2.128 . S
C4018 C409 1.464 . S
C4020 C3094 1.365 . S
C4029 C284 1.463 . S
C4031 C2842 1.359 . S
C4042 C2924 2.128 . S
C4040 C20 2.038 . S
C4053 C3026 1.898 . S
C4051 C137 1.874 . S
C4064 C3260 2.305 . S
C4062 C225 2.238 . S
C4075 C3362 1.681 . S
C4073 C1641 1.740 . S
C4084 C1193 0.868 . S
C4086 C3178 0.842 . S
C4097 C3446 1.077 . S
C4095 C1289 1.090 . S
C4108 C3092 1.734 . S
C4106 C1377 1.709 . S
C4119 C2840 1.737 . S
C4117 C1613 1.705 . S
C4128 C1164 1.093 . S
C4130 C2942 1.081 . S
C4141 C3010 0.849 . S
C4139 C1261 0.869 . S
C4150 C1349 1.737 . S
C4152 C3278 1.684 . S
C4163 C3346 1.169 . S
C4161 C1965 1.121 . S
C4172 C849 1.666 . S
C4174 C2522 1.669 . S
C4185 C2590 1.335 . S
C4183 C929 1.373 . S
C4196 C2672 0.963 . S
C4194 C1017 0.972 . S
C4207 C3262 1.165 . S
C4205 C1897 1.120 . S
C4216 C1789 1.370 . S
C4218 C3430 1.334 . S
C4229 C2438 1.671 . S
C4227 C900 1.667 . S
C4240 C2252 0.972 . S
C4238 C733 0.941 . S
C4249 C548 2.240 . S
C4251 C3355 2.300 . S
C4262 C2259 1.897 . S
C4260 C469 1.865 . S
C4271 C401 2.042 . S
C4273 C3439 2.120 . S
C4282 C673 1.461 . S
C4284 C2433 1.360 . S
C4293 C233 1.462 . S
C4295 C2853 1.364 . S
C4306 C2599 2.123 . S
C4304 C117 2.036 . S
C4315 C29 1.865 . S
C4317 C3015 1.897 . S
C4326 C321 2.237 . S
C4328 C2767 2.301 . S
C4339 C3351 1.672 . S
C4337 C2044 1.741 . S
C4348 C997 0.865 . S
C4350 C2265 0.840 . S
C4361 C3435 1.081 1_655 S
C4359 C1877 1.090 . S
C4370 C812 1.707 . S
C4372 C2431 1.729 . S
C4381 C2073 1.707 . S
C4383 C2851 1.729 . S
C4394 C2595 1.081 . S
C4392 C1025 1.093 . S
C4403 C1905 0.867 . S
C4405 C3021 0.844 . S
C4416 C2763 1.676 . S
C4414 C841 1.737 . S
C4427 C3357 1.164 . S
C4425 C1525 1.131 . S
C4438 C2511 1.666 1_565 S
C4436 C1369 1.663 . S
C4447 C1465 1.372 . S
C4449 C2937 1.332 . S
C4460 C2683 0.960 . S
C4458 C1201 0.944 . S
C4469 C1281 1.124 . S
C4471 C2769 1.167 . S
C4480 C1076 1.375 . S
C4482 C3441 1.337 . S
C4493 C3099 1.667 . S
C4491 C1437 1.661 . S
C4504 C3187 0.957 . S
C4502 C1701 0.952 . S
