# Generated by pormake.
# Topology gar, (4,6)-cn, num edge types: 1
# Building blocks:
#     Node 0, Type 0, BuildingBlock: QUQFOY_clean_sbu_3, # of connection points: 4
#     Node 1, Type 0, BuildingBlock: QUQFOY_clean_sbu_3, # of connection points: 4
#     Node 2, Type 0, BuildingBlock: QUQFOY_clean_sbu_3, # of connection points: 4
#     Node 3, Type 0, BuildingBlock: QUQFOY_clean_sbu_3, # of connection points: 4
#     Node 4, Type 0, BuildingBlock: QUQFOY_clean_sbu_3, # of connection points: 4
#     Node 5, Type 0, BuildingBlock: QUQFOY_clean_sbu_3, # of connection points: 4
#     Node 6, Type 0, BuildingBlock: QUQFOY_clean_sbu_3, # of connection points: 4
#     Node 7, Type 0, BuildingBlock: QUQFOY_clean_sbu_3, # of connection points: 4
#     Node 8, Type 0, BuildingBlock: QUQFOY_clean_sbu_3, # of connection points: 4
#     Node 9, Type 0, BuildingBlock: QUQFOY_clean_sbu_3, # of connection points: 4
#     Node 10, Type 0, BuildingBlock: QUQFOY_clean_sbu_3, # of connection points: 4
#     Node 11, Type 0, BuildingBlock: QUQFOY_clean_sbu_3, # of connection points: 4
#     Node 12, Type 0, BuildingBlock: QUQFOY_clean_sbu_3, # of connection points: 4
#     Node 13, Type 0, BuildingBlock: QUQFOY_clean_sbu_3, # of connection points: 4
#     Node 14, Type 0, BuildingBlock: QUQFOY_clean_sbu_3, # of connection points: 4
#     Node 15, Type 0, BuildingBlock: QUQFOY_clean_sbu_3, # of connection points: 4
#     Node 16, Type 0, BuildingBlock: QUQFOY_clean_sbu_3, # of connection points: 4
#     Node 17, Type 0, BuildingBlock: QUQFOY_clean_sbu_3, # of connection points: 4
#     Node 18, Type 0, BuildingBlock: QUQFOY_clean_sbu_3, # of connection points: 4
#     Node 19, Type 0, BuildingBlock: QUQFOY_clean_sbu_3, # of connection points: 4
#     Node 20, Type 0, BuildingBlock: QUQFOY_clean_sbu_3, # of connection points: 4
#     Node 21, Type 0, BuildingBlock: QUQFOY_clean_sbu_3, # of connection points: 4
#     Node 22, Type 0, BuildingBlock: QUQFOY_clean_sbu_3, # of connection points: 4
#     Node 23, Type 0, BuildingBlock: QUQFOY_clean_sbu_3, # of connection points: 4
#     Node 24, Type 1, BuildingBlock: NUHQIS_clean_sbu_0, # of connection points: 6
#     Node 25, Type 1, BuildingBlock: NUHQIS_clean_sbu_0, # of connection points: 6
#     Node 26, Type 1, BuildingBlock: NUHQIS_clean_sbu_0, # of connection points: 6
#     Node 27, Type 1, BuildingBlock: NUHQIS_clean_sbu_0, # of connection points: 6
#     Node 28, Type 1, BuildingBlock: NUHQIS_clean_sbu_0, # of connection points: 6
#     Node 29, Type 1, BuildingBlock: NUHQIS_clean_sbu_0, # of connection points: 6
#     Node 30, Type 1, BuildingBlock: NUHQIS_clean_sbu_0, # of connection points: 6
#     Node 31, Type 1, BuildingBlock: NUHQIS_clean_sbu_0, # of connection points: 6
#     Node 32, Type 1, BuildingBlock: NUHQIS_clean_sbu_0, # of connection points: 6
#     Node 33, Type 1, BuildingBlock: NUHQIS_clean_sbu_0, # of connection points: 6
#     Node 34, Type 1, BuildingBlock: NUHQIS_clean_sbu_0, # of connection points: 6
#     Node 35, Type 1, BuildingBlock: NUHQIS_clean_sbu_0, # of connection points: 6
#     Node 36, Type 1, BuildingBlock: NUHQIS_clean_sbu_0, # of connection points: 6
#     Node 37, Type 1, BuildingBlock: NUHQIS_clean_sbu_0, # of connection points: 6
#     Node 38, Type 1, BuildingBlock: NUHQIS_clean_sbu_0, # of connection points: 6
#     Node 39, Type 1, BuildingBlock: NUHQIS_clean_sbu_0, # of connection points: 6
#     Edge 40, Type (0, 1), BuildingBlock: TEMPAE_clean_linker_10, # of connection points: 2
#     Edge 41, Type (0, 1), BuildingBlock: TEMPAE_clean_linker_10, # of connection points: 2
#     Edge 42, Type (0, 1), BuildingBlock: TEMPAE_clean_linker_10, # of connection points: 2
#     Edge 43, Type (0, 1), BuildingBlock: TEMPAE_clean_linker_10, # of connection points: 2
#     Edge 44, Type (0, 1), BuildingBlock: TEMPAE_clean_linker_10, # of connection points: 2
#     Edge 45, Type (0, 1), BuildingBlock: TEMPAE_clean_linker_10, # of connection points: 2
#     Edge 46, Type (0, 1), BuildingBlock: TEMPAE_clean_linker_10, # of connection points: 2
#     Edge 47, Type (0, 1), BuildingBlock: TEMPAE_clean_linker_10, # of connection points: 2
#     Edge 48, Type (0, 1), BuildingBlock: TEMPAE_clean_linker_10, # of connection points: 2
#     Edge 49, Type (0, 1), BuildingBlock: TEMPAE_clean_linker_10, # of connection points: 2
#     Edge 50, Type (0, 1), BuildingBlock: TEMPAE_clean_linker_10, # of connection points: 2
#     Edge 51, Type (0, 1), BuildingBlock: TEMPAE_clean_linker_10, # of connection points: 2
#     Edge 52, Type (0, 1), BuildingBlock: TEMPAE_clean_linker_10, # of connection points: 2
#     Edge 53, Type (0, 1), BuildingBlock: TEMPAE_clean_linker_10, # of connection points: 2
#     Edge 54, Type (0, 1), BuildingBlock: TEMPAE_clean_linker_10, # of connection points: 2
#     Edge 55, Type (0, 1), BuildingBlock: TEMPAE_clean_linker_10, # of connection points: 2
#     Edge 56, Type (0, 1), BuildingBlock: TEMPAE_clean_linker_10, # of connection points: 2
#     Edge 57, Type (0, 1), BuildingBlock: TEMPAE_clean_linker_10, # of connection points: 2
#     Edge 58, Type (0, 1), BuildingBlock: TEMPAE_clean_linker_10, # of connection points: 2
#     Edge 59, Type (0, 1), BuildingBlock: TEMPAE_clean_linker_10, # of connection points: 2
#     Edge 60, Type (0, 1), BuildingBlock: TEMPAE_clean_linker_10, # of connection points: 2
#     Edge 61, Type (0, 1), BuildingBlock: TEMPAE_clean_linker_10, # of connection points: 2
#     Edge 62, Type (0, 1), BuildingBlock: TEMPAE_clean_linker_10, # of connection points: 2
#     Edge 63, Type (0, 1), BuildingBlock: TEMPAE_clean_linker_10, # of connection points: 2
#     Edge 64, Type (0, 1), BuildingBlock: TEMPAE_clean_linker_10, # of connection points: 2
#     Edge 65, Type (0, 1), BuildingBlock: TEMPAE_clean_linker_10, # of connection points: 2
#     Edge 66, Type (0, 1), BuildingBlock: TEMPAE_clean_linker_10, # of connection points: 2
#     Edge 67, Type (0, 1), BuildingBlock: TEMPAE_clean_linker_10, # of connection points: 2
#     Edge 68, Type (0, 1), BuildingBlock: TEMPAE_clean_linker_10, # of connection points: 2
#     Edge 69, Type (0, 1), BuildingBlock: TEMPAE_clean_linker_10, # of connection points: 2
#     Edge 70, Type (0, 1), BuildingBlock: TEMPAE_clean_linker_10, # of connection points: 2
#     Edge 71, Type (0, 1), BuildingBlock: TEMPAE_clean_linker_10, # of connection points: 2
#     Edge 72, Type (0, 1), BuildingBlock: TEMPAE_clean_linker_10, # of connection points: 2
#     Edge 73, Type (0, 1), BuildingBlock: TEMPAE_clean_linker_10, # of connection points: 2
#     Edge 74, Type (0, 1), BuildingBlock: TEMPAE_clean_linker_10, # of connection points: 2
#     Edge 75, Type (0, 1), BuildingBlock: TEMPAE_clean_linker_10, # of connection points: 2
#     Edge 76, Type (0, 1), BuildingBlock: TEMPAE_clean_linker_10, # of connection points: 2
#     Edge 77, Type (0, 1), BuildingBlock: TEMPAE_clean_linker_10, # of connection points: 2
#     Edge 78, Type (0, 1), BuildingBlock: TEMPAE_clean_linker_10, # of connection points: 2
#     Edge 79, Type (0, 1), BuildingBlock: TEMPAE_clean_linker_10, # of connection points: 2
#     Edge 80, Type (0, 1), BuildingBlock: TEMPAE_clean_linker_10, # of connection points: 2
#     Edge 81, Type (0, 1), BuildingBlock: TEMPAE_clean_linker_10, # of connection points: 2
#     Edge 82, Type (0, 1), BuildingBlock: TEMPAE_clean_linker_10, # of connection points: 2
#     Edge 83, Type (0, 1), BuildingBlock: TEMPAE_clean_linker_10, # of connection points: 2
#     Edge 84, Type (0, 1), BuildingBlock: TEMPAE_clean_linker_10, # of connection points: 2
#     Edge 85, Type (0, 1), BuildingBlock: TEMPAE_clean_linker_10, # of connection points: 2
#     Edge 86, Type (0, 1), BuildingBlock: TEMPAE_clean_linker_10, # of connection points: 2
#     Edge 87, Type (0, 1), BuildingBlock: TEMPAE_clean_linker_10, # of connection points: 2
#     Edge 88, Type (0, 1), BuildingBlock: TEMPAE_clean_linker_10, # of connection points: 2
#     Edge 89, Type (0, 1), BuildingBlock: TEMPAE_clean_linker_10, # of connection points: 2
#     Edge 90, Type (0, 1), BuildingBlock: TEMPAE_clean_linker_10, # of connection points: 2
#     Edge 91, Type (0, 1), BuildingBlock: TEMPAE_clean_linker_10, # of connection points: 2
#     Edge 92, Type (0, 1), BuildingBlock: TEMPAE_clean_linker_10, # of connection points: 2
#     Edge 93, Type (0, 1), BuildingBlock: TEMPAE_clean_linker_10, # of connection points: 2
#     Edge 94, Type (0, 1), BuildingBlock: TEMPAE_clean_linker_10, # of connection points: 2
#     Edge 95, Type (0, 1), BuildingBlock: TEMPAE_clean_linker_10, # of connection points: 2
#     Edge 96, Type (0, 1), BuildingBlock: TEMPAE_clean_linker_10, # of connection points: 2
#     Edge 97, Type (0, 1), BuildingBlock: TEMPAE_clean_linker_10, # of connection points: 2
#     Edge 98, Type (0, 1), BuildingBlock: TEMPAE_clean_linker_10, # of connection points: 2
#     Edge 99, Type (0, 1), BuildingBlock: TEMPAE_clean_linker_10, # of connection points: 2
#     Edge 100, Type (0, 1), BuildingBlock: TEMPAE_clean_linker_10, # of connection points: 2
#     Edge 101, Type (0, 1), BuildingBlock: TEMPAE_clean_linker_10, # of connection points: 2
#     Edge 102, Type (0, 1), BuildingBlock: TEMPAE_clean_linker_10, # of connection points: 2
#     Edge 103, Type (0, 1), BuildingBlock: TEMPAE_clean_linker_10, # of connection points: 2
#     Edge 104, Type (0, 1), BuildingBlock: TEMPAE_clean_linker_10, # of connection points: 2
#     Edge 105, Type (0, 1), BuildingBlock: TEMPAE_clean_linker_10, # of connection points: 2
#     Edge 106, Type (0, 1), BuildingBlock: TEMPAE_clean_linker_10, # of connection points: 2
#     Edge 107, Type (0, 1), BuildingBlock: TEMPAE_clean_linker_10, # of connection points: 2
#     Edge 108, Type (0, 1), BuildingBlock: TEMPAE_clean_linker_10, # of connection points: 2
#     Edge 109, Type (0, 1), BuildingBlock: TEMPAE_clean_linker_10, # of connection points: 2
#     Edge 110, Type (0, 1), BuildingBlock: TEMPAE_clean_linker_10, # of connection points: 2
#     Edge 111, Type (0, 1), BuildingBlock: TEMPAE_clean_linker_10, # of connection points: 2
#     Edge 112, Type (0, 1), BuildingBlock: TEMPAE_clean_linker_10, # of connection points: 2
#     Edge 113, Type (0, 1), BuildingBlock: TEMPAE_clean_linker_10, # of connection points: 2
#     Edge 114, Type (0, 1), BuildingBlock: TEMPAE_clean_linker_10, # of connection points: 2
#     Edge 115, Type (0, 1), BuildingBlock: TEMPAE_clean_linker_10, # of connection points: 2
#     Edge 116, Type (0, 1), BuildingBlock: TEMPAE_clean_linker_10, # of connection points: 2
#     Edge 117, Type (0, 1), BuildingBlock: TEMPAE_clean_linker_10, # of connection points: 2
#     Edge 118, Type (0, 1), BuildingBlock: TEMPAE_clean_linker_10, # of connection points: 2
#     Edge 119, Type (0, 1), BuildingBlock: TEMPAE_clean_linker_10, # of connection points: 2
#     Edge 120, Type (0, 1), BuildingBlock: TEMPAE_clean_linker_10, # of connection points: 2
#     Edge 121, Type (0, 1), BuildingBlock: TEMPAE_clean_linker_10, # of connection points: 2
#     Edge 122, Type (0, 1), BuildingBlock: TEMPAE_clean_linker_10, # of connection points: 2
#     Edge 123, Type (0, 1), BuildingBlock: TEMPAE_clean_linker_10, # of connection points: 2
#     Edge 124, Type (0, 1), BuildingBlock: TEMPAE_clean_linker_10, # of connection points: 2
#     Edge 125, Type (0, 1), BuildingBlock: TEMPAE_clean_linker_10, # of connection points: 2
#     Edge 126, Type (0, 1), BuildingBlock: TEMPAE_clean_linker_10, # of connection points: 2
#     Edge 127, Type (0, 1), BuildingBlock: TEMPAE_clean_linker_10, # of connection points: 2
#     Edge 128, Type (0, 1), BuildingBlock: TEMPAE_clean_linker_10, # of connection points: 2
#     Edge 129, Type (0, 1), BuildingBlock: TEMPAE_clean_linker_10, # of connection points: 2
#     Edge 130, Type (0, 1), BuildingBlock: TEMPAE_clean_linker_10, # of connection points: 2
#     Edge 131, Type (0, 1), BuildingBlock: TEMPAE_clean_linker_10, # of connection points: 2
#     Edge 132, Type (0, 1), BuildingBlock: TEMPAE_clean_linker_10, # of connection points: 2
#     Edge 133, Type (0, 1), BuildingBlock: TEMPAE_clean_linker_10, # of connection points: 2
#     Edge 134, Type (0, 1), BuildingBlock: TEMPAE_clean_linker_10, # of connection points: 2
#     Edge 135, Type (0, 1), BuildingBlock: TEMPAE_clean_linker_10, # of connection points: 2
# Relax obj value: 0.208
# Max RMSD: 0.312
# Mean RMSD: 0.135
data_MOF--net-gar--node1-QUQFOY_clean_sbu_3--node2-NUHQIS_clean_sbu_0--edge1-TEMPAE_clean_linker_10
_symmetry_space_group_name_H-M    P1
_symmetry_Int_Tables_number       1
_symmetry_cell_setting            triclinic
loop_
_symmetry_equiv_pos_as_xyz
'x, y, z'
_cell_length_a     58.937026
_cell_length_b     62.490623
_cell_length_c     58.71967
_cell_angle_alpha  94.077071
_cell_angle_beta   96.850804
_cell_angle_gamma 100.95943
loop_
_atom_site_label
_atom_site_type_symbol
_atom_site_fract_x
_atom_site_fract_y
_atom_site_fract_z
_atom_type_partial_charge
C0 C 0.02606 0.29262 0.37601 0.0
O1 O 0.041 0.30616 0.36783 0.0
Cd2 Cd 0.07539 0.30861 0.39562 0.0
O3 O 0.03373 0.28315 0.39339 0.0
Cd4 Cd 0.07923 0.28655 0.41523 0.0
C5 C 0.08134 0.34622 0.43397 0.0
O6 O 0.10282 0.2915 0.37767 0.0
O7 O 0.12418 0.29185 0.40945 0.0
O8 O 0.06418 0.24347 0.41844 0.0
C9 C 0.12331 0.29188 0.38767 0.0
O10 O 0.08539 0.3467 0.41326 0.0
C11 C 0.0748 0.24103 0.43804 0.0
O12 O 0.07741 0.32678 0.44122 0.0
O13 O 0.08717 0.25913 0.44785 0.0
C14 C 1.0085 0.79256 0.68136 0.0
O15 O 0.02064 0.77909 0.68844 0.0
Cd16 Cd 0.05061 0.78188 0.66318 0.0
O17 O 0.01621 0.80385 0.66509 0.0
Cd18 Cd 0.05801 0.80552 0.64385 0.0
C19 C 0.05337 0.74526 0.62557 0.0
O20 O 0.08701 0.80392 0.68256 0.0
O21 O 0.10257 0.80776 0.65178 0.0
O22 O 0.0545 0.84764 0.64052 0.0
C23 C 0.10574 0.80655 0.67338 0.0
O24 O 0.05285 0.74523 0.64708 0.0
C25 C 0.06059 0.85087 0.62073 0.0
O26 O 0.05382 0.76419 0.61739 0.0
O27 O 0.06528 0.83364 0.61086 0.0
C28 C 0.52686 0.79231 0.87699 0.0
O29 O 0.5415 0.80617 0.86885 0.0
Cd30 Cd 0.57628 0.80857 0.89611 0.0
O31 O 0.53484 0.78265 0.89406 0.0
Cd32 Cd 0.58037 0.78629 0.91527 0.0
C33 C 0.58272 0.84614 0.93436 0.0
O34 O 0.60329 0.7918 0.87717 0.0
O35 O 0.62485 0.78992 0.90825 0.0
O36 O 0.56476 0.74336 0.9186 0.0
C37 C 0.62368 0.79094 0.88656 0.0
O38 O 0.58641 0.8467 0.91354 0.0
C39 C 0.57562 0.74078 0.93804 0.0
O40 O 0.57903 0.82666 0.94155 0.0
O41 O 0.58842 0.75874 0.94771 0.0
C42 C 0.50643 0.29223 0.18044 0.0
O43 O 0.51813 0.27832 0.1872 0.0
Cd44 Cd 0.5489 0.28127 0.16287 0.0
O45 O 0.51466 0.30388 0.16466 0.0
Cd46 Cd 0.5563 0.30499 0.14347 0.0
C47 C 0.55188 0.24427 0.12608 0.0
O48 O 0.58516 0.3038 0.18232 0.0
O49 O 0.60083 0.30799 0.15161 0.0
O50 O 0.55255 0.34698 0.13986 0.0
C51 C 0.60395 0.30685 0.17321 0.0
O52 O 0.55137 0.24446 0.1476 0.0
C53 C 0.55883 0.3502 0.12014 0.0
O54 O 0.55228 0.26312 0.11767 0.0
O55 O 0.56368 0.33299 0.11039 0.0
C56 C 0.10267 0.85799 0.21468 0.0
O57 O 0.11998 0.85362 0.22726 0.0
Cd58 Cd 0.15518 0.84739 0.2139 0.0
O59 O 0.10299 0.85955 0.1932 0.0
Cd60 Cd 0.12788 0.8575 0.16255 0.0
C61 C 0.13042 0.80467 0.17189 0.0
O62 O 0.16238 0.87353 0.18716 0.0
O63 O 0.16858 0.86128 0.15393 0.0
O64 O 0.1152 0.88876 0.14769 0.0
C65 C 0.17705 0.86951 0.17426 0.0
O66 O 0.14347 0.81185 0.19087 0.0
C67 C 0.10658 0.87938 0.12781 0.0
O68 O 0.12142 0.81754 0.15927 0.0
O69 O 0.10822 0.85951 0.12373 0.0
C70 C 0.50071 0.71573 0.36178 0.0
O71 O 0.51856 0.72221 0.35206 0.0
Cd72 Cd 0.55694 0.73524 0.37081 0.0
O73 O 0.50259 0.71448 0.38356 0.0
Cd74 Cd 0.53529 0.71991 0.41652 0.0
C75 C 0.54486 0.77401 0.41052 0.0
O76 O 0.56234 0.70705 0.39447 0.0
O77 O 0.5784 0.72509 0.42646 0.0
O78 O 0.51659 0.68641 0.43065 0.0
C79 C 0.58075 0.71381 0.40842 0.0
O80 O 0.55422 0.76947 0.39276 0.0
C81 C 0.52174 0.69337 0.45184 0.0
O82 O 0.53563 0.75889 0.42196 0.0
O83 O 0.53165 0.71335 0.45657 0.0
C84 C 0.609 0.35003 0.72036 0.0
O85 O 0.62712 0.34719 0.73288 0.0
Cd86 Cd 0.66515 0.3509 0.72135 0.0
O87 O 0.61001 0.35562 0.69997 0.0
Cd88 Cd 0.63796 0.36397 0.67206 0.0
C89 C 0.6495 0.31235 0.67418 0.0
O90 O 0.66823 0.3825 0.70079 0.0
O91 O 0.67977 0.37761 0.66797 0.0
O92 O 0.61886 0.39268 0.65844 0.0
C93 C 0.68508 0.38453 0.68916 0.0
O94 O 0.6609 0.31816 0.69424 0.0
C95 C 0.61324 0.38398 0.63781 0.0
O96 O 0.63906 0.32548 0.66339 0.0
O97 O 0.61963 0.36609 0.63291 0.0
C98 C 0.98143 0.20923 0.86292 0.0
O99 O 0.9961 0.21446 0.84909 0.0
Cd100 Cd 0.0363 0.22953 0.85947 0.0
O101 O 0.98792 0.20998 0.88457 0.0
Cd102 Cd 0.02635 0.21678 0.91038 0.0
C103 C 0.0324 0.27021 0.90151 0.0
O104 O 0.04859 0.20346 0.88268 0.0
O105 O 0.06938 0.22259 0.91221 0.0
O106 O 0.01382 0.1838 0.92857 0.0
C107 C 0.0687 0.21098 0.89346 0.0
O108 O 0.03732 0.26471 0.88162 0.0
C109 C 0.02157 0.19211 0.94904 0.0
O110 O 0.02681 0.25583 0.91527 0.0
O111 O 0.03014 0.21252 0.95175 0.0
C112 C 0.52558 0.12886 0.36271 0.0
O113 O 0.5386 0.12226 0.34914 0.0
Cd114 Cd 0.5268 0.10436 0.31113 0.0
O115 O 0.50374 0.12693 0.35638 0.0
Cd116 Cd 0.47641 0.1134 0.32022 0.0
C117 C 0.48484 0.0611 0.32126 0.0
O118 O 0.50243 0.12617 0.29309 0.0
O119 O 0.47201 0.1025 0.2783 0.0
O120 O 0.452 0.14088 0.31852 0.0
C121 C 0.49056 0.11535 0.27518 0.0
O122 O 0.50454 0.06722 0.31433 0.0
C123 C 0.43365 0.1279 0.32207 0.0
O124 O 0.47238 0.07494 0.32595 0.0
O125 O 0.43547 0.1085 0.3257 0.0
C126 C 0.38123 0.13733 0.52995 0.0
O127 O 0.36903 0.13194 0.54574 0.0
Cd128 Cd 0.33924 0.15409 0.54119 0.0
O129 O 0.37401 0.15123 0.51683 0.0
Cd130 Cd 0.33377 0.17031 0.51738 0.0
C131 C 0.33573 0.1901 0.57793 0.0
O132 O 0.30323 0.13305 0.52104 0.0
O133 O 0.28896 0.16116 0.51411 0.0
O134 O 0.33971 0.17607 0.47413 0.0
C135 C 0.28495 0.14096 0.51701 0.0
O136 O 0.33314 0.16957 0.57856 0.0
C137 C 0.33322 0.19427 0.47237 0.0
O138 O 0.33885 0.19729 0.55816 0.0
O139 O 0.32741 0.20193 0.49101 0.0
C140 C 0.18687 0.06836 0.89749 0.0
O141 O 0.17408 0.08124 0.88993 0.0
Cd142 Cd 0.16887 0.0921 0.85204 0.0
O143 O 0.20028 0.06076 0.885 0.0
Cd144 Cd 0.21091 0.0668 0.84633 0.0
C145 C 0.22281 0.12274 0.85305 0.0
O146 O 0.17031 0.05947 0.82897 0.0
O147 O 0.19566 0.06625 0.80557 0.0
O148 O 0.22287 0.03163 0.84657 0.0
C149 C 0.17445 0.06096 0.80846 0.0
O150 O 0.20101 0.1223 0.85115 0.0
C151 C 0.2422 0.03832 0.83932 0.0
O152 O 0.23058 0.1051 0.85323 0.0
O153 O 0.2471 0.05839 0.83587 0.0
C154 C 0.3649 0.92713 0.03313 0.0
O155 O 0.35056 0.93539 0.02039 0.0
Cd156 Cd 0.30954 0.92386 0.01744 0.0
O157 O 0.35793 0.91061 0.04394 0.0
Cd158 Cd 0.31994 0.88523 0.04652 0.0
C159 C 0.30577 0.8741 0.98743 0.0
O160 O 0.30432 0.91737 0.05633 0.0
O161 O 0.2788 0.88743 0.05194 0.0
O162 O 0.34416 0.87916 0.08197 0.0
C163 C 0.2839 0.9078 0.0583 0.0
O164 O 0.30057 0.89295 0.98815 0.0
C165 C 0.33135 0.86133 0.08557 0.0
O166 O 0.3147 0.86719 0.00576 0.0
O167 O 0.31384 0.85381 0.07043 0.0
C168 C 0.34475 0.45401 0.02906 0.0
O169 O 0.33024 0.46049 0.0149 0.0
Cd170 Cd 0.29564 0.43296 0.01541 0.0
O171 O 0.33646 0.43784 0.04019 0.0
Cd172 Cd 0.29052 0.41565 0.03776 0.0
C173 C 0.2895 0.39617 0.9771 0.0
O174 O 0.26733 0.44925 0.03228 0.0
O175 O 0.24557 0.41816 0.03315 0.0
O176 O 0.29564 0.41315 0.08283 0.0
C177 C 0.24669 0.43869 0.03263 0.0
O178 O 0.28671 0.41569 0.97593 0.0
C179 C 0.29251 0.39245 0.08338 0.0
O180 O 0.29209 0.38991 0.99762 0.0
O181 O 0.28841 0.38207 0.06335 0.0
C182 C 0.83427 0.15254 0.03037 0.0
O183 O 0.81929 0.14232 0.04166 0.0
Cd184 Cd 0.7827 0.15159 0.04591 0.0
O185 O 0.83065 0.16966 0.02101 0.0
Cd186 Cd 0.79865 0.19138 0.01705 0.0
C187 C 0.79996 0.20272 0.07549 0.0
O188 O 0.76932 0.15819 0.00772 0.0
O189 O 0.75518 0.18694 0.01367 0.0
O190 O 0.81064 0.19476 0.97872 0.0
C191 C 0.75153 0.16671 0.0069 0.0
O192 O 0.78915 0.18296 0.07467 0.0
C193 C 0.80674 0.21379 0.97632 0.0
O194 O 0.80762 0.21031 0.05757 0.0
O195 O 0.80033 0.22338 0.99356 0.0
C196 C 0.07512 0.48224 0.25085 0.0
O197 O 0.06426 0.48364 0.23113 0.0
Cd198 Cd 0.0795 0.48081 0.19522 0.0
O199 O 0.09592 0.47886 0.253 0.0
Cd200 Cd 0.12657 0.47332 0.22926 0.0
C201 C 0.12676 0.52334 0.20761 0.0
O202 O 0.09949 0.45113 0.19987 0.0
O203 O 0.13442 0.45755 0.19168 0.0
O204 O 0.14248 0.44873 0.25443 0.0
C205 C 0.11318 0.44866 0.18536 0.0
O206 O 0.10679 0.51619 0.1958 0.0
C207 C 0.16257 0.4611 0.25894 0.0
O208 O 0.13621 0.51118 0.22071 0.0
O209 O 0.16565 0.479 0.24971 0.0
C210 C 0.84604 0.95341 0.52909 0.0
O211 O 0.83153 0.96019 0.51523 0.0
Cd212 Cd 0.79713 0.93267 0.51608 0.0
O213 O 0.83768 0.93714 0.54007 0.0
Cd214 Cd 0.79131 0.91561 0.53799 0.0
C215 C 0.7904 0.89581 0.47754 0.0
O216 O 0.76945 0.95038 0.53202 0.0
O217 O 0.74731 0.92038 0.53637 0.0
O218 O 0.80598 0.91115 0.58156 0.0
C219 C 0.7489 0.94071 0.5342 0.0
O220 O 0.78903 0.91572 0.47655 0.0
C221 C 0.79344 0.89261 0.5838 0.0
O222 O 0.79184 0.88919 0.49796 0.0
O223 O 0.77998 0.8843 0.56538 0.0
C224 C 0.93231 1.00178 0.24139 0.0
O225 O 0.9424 0.99579 0.2248 0.0
Cd226 Cd 0.92791 0.99798 0.18554 0.0
O227 O 0.91375 1.00938 0.23756 0.0
Cd228 Cd 0.88742 0.01727 0.20437 0.0
C229 C 0.87525 0.9638 0.18463 0.0
O230 O 0.91911 0.03412 0.18607 0.0
O231 O 0.88603 0.02823 0.16445 0.0
O232 O 0.88167 0.04621 0.2312 0.0
C233 C 0.90753 0.03702 0.16744 0.0
O234 O 0.8952 0.96651 0.17777 0.0
C235 C 0.85996 0.04389 0.22465 0.0
O236 O 0.8689 0.97953 0.19538 0.0
O237 O 0.8509 0.02894 0.20859 0.0
C238 C 0.33449 0.65108 0.52849 0.0
O239 O 0.31961 0.64163 0.54037 0.0
Cd240 Cd 0.28339 0.65169 0.54513 0.0
O241 O 0.33122 0.66816 0.51884 0.0
Cd242 Cd 0.29994 0.69085 0.51609 0.0
C243 C 0.30053 0.70253 0.57475 0.0
O244 O 0.26911 0.65885 0.50743 0.0
O245 O 0.25681 0.68857 0.51449 0.0
O246 O 0.301 0.69249 0.4749 0.0
C247 C 0.25204 0.66839 0.50717 0.0
O248 O 0.28975 0.68278 0.57409 0.0
C249 C 0.3065 0.71306 0.47492 0.0
O250 O 0.30823 0.70995 0.55677 0.0
O251 O 0.31025 0.72413 0.49452 0.0
C252 C 0.43087 0.51663 0.74296 0.0
O253 O 0.4409 0.51062 0.72633 0.0
Cd254 Cd 0.4253 0.50834 0.68691 0.0
O255 O 0.41119 0.5224 0.73917 0.0
Cd256 Cd 0.38334 0.52605 0.70473 0.0
C257 C 0.37546 0.4716 0.69067 0.0
O258 O 0.41348 0.54291 0.68462 0.0
O259 O 0.38079 0.53191 0.66298 0.0
O260 O 0.37307 0.55622 0.72686 0.0
C261 C 0.40161 0.5426 0.66523 0.0
O262 O 0.39479 0.47491 0.68255 0.0
C263 C 0.35139 0.55091 0.7196 0.0
O264 O 0.36828 0.48741 0.70029 0.0
O265 O 0.34457 0.53376 0.7057 0.0
C266 C 0.56548 0.97432 0.75111 0.0
O267 O 0.55658 0.97754 0.73114 0.0
Cd268 Cd 0.57325 0.97366 0.69611 0.0
O269 O 0.58528 0.96877 0.75432 0.0
Cd270 Cd 0.61689 0.96175 0.73263 0.0
C271 C 0.62298 0.01281 0.71184 0.0
O272 O 0.59024 0.9423 0.70143 0.0
O273 O 0.62578 0.9459 0.69541 0.0
O274 O 0.63081 0.93584 0.75776 0.0
C275 C 0.60438 0.93927 0.68757 0.0
O276 O 0.60366 1.00716 0.69854 0.0
C277 C 0.65075 0.9482 0.76379 0.0
O278 O 0.62999 0.99965 0.72536 0.0
O279 O 0.65455 0.96643 0.75526 0.0
C280 C 0.87963 0.63568 0.02898 0.0
O281 O 0.86771 0.63062 0.04505 0.0
Cd282 Cd 0.83849 0.65329 0.04088 0.0
O283 O 0.87243 0.64959 0.01586 0.0
Cd284 Cd 0.83263 0.66928 0.01691 0.0
C285 C 0.83509 0.68905 0.07785 0.0
O286 O 0.80202 0.63235 0.02139 0.0
O287 O 0.78777 0.66 0.01238 0.0
O288 O 0.83759 0.67481 0.97338 0.0
C289 C 0.78376 0.64004 0.01633 0.0
O290 O 0.83386 0.66868 0.07874 0.0
C291 C 0.83297 0.69384 0.97229 0.0
O292 O 0.83682 0.69609 0.05778 0.0
O293 O 0.82855 0.70198 0.99139 0.0
C294 C 0.04766 0.61989 0.86182 0.0
O295 O 0.06228 0.60906 0.8552 0.0
Cd296 Cd 0.05853 0.58249 0.82299 0.0
O297 O 0.0274 0.61797 0.85041 0.0
Cd298 Cd 1.00637 0.59844 0.81299 0.0
C299 C 1.008 0.54738 0.83085 0.0
O300 O 0.04041 0.59984 0.79386 0.0
O301 O 1.00843 0.58438 0.77291 0.0
O302 O 0.98586 0.62848 0.80562 0.0
C303 C 0.03046 0.5891 0.77513 0.0
O304 O 0.02981 0.55037 0.82953 0.0
C305 C 0.96584 0.6159 0.80127 0.0
O306 O 0.99666 0.56251 0.82712 0.0
O307 O 0.96494 0.59561 0.80289 0.0
C308 C 0.86709 0.42841 0.533 0.0
O309 O 0.85389 0.43724 0.51956 0.0
Cd310 Cd 0.81247 0.42826 0.51511 0.0
O311 O 0.85866 0.41226 0.54371 0.0
Cd312 Cd 0.81861 0.38889 0.54385 0.0
C313 C 0.80529 0.37846 0.48472 0.0
O314 O 0.8044 0.42219 0.55338 0.0
O315 O 0.77788 0.39292 0.54764 0.0
O316 O 0.83851 0.37966 0.58034 0.0
C317 C 0.78355 0.41314 0.55447 0.0
O318 O 0.80129 0.39777 0.48532 0.0
C319 C 0.82436 0.36183 0.58143 0.0
O320 O 0.81352 0.3712 0.5031 0.0
O321 O 0.80826 0.3559 0.56454 0.0
C322 C 0.68538 0.5703 0.40139 0.0
O323 O 0.67554 0.58591 0.39575 0.0
Cd324 Cd 0.6742 0.60106 0.35982 0.0
O325 O 0.69762 0.56209 0.38799 0.0
Cd326 Cd 0.70997 0.57047 0.35039 0.0
C327 C 0.73079 0.62534 0.36221 0.0
O328 O 0.67 0.56939 0.33287 0.0
O329 O 0.69637 0.57505 0.31035 0.0
O330 O 0.71647 0.53303 0.34568 0.0
C331 C 0.67496 0.57176 0.31272 0.0
O332 O 0.70986 0.62796 0.36142 0.0
C333 C 0.73656 0.53858 0.33955 0.0
O334 O 0.73532 0.60628 0.36008 0.0
O335 O 0.74424 0.55889 0.33899 0.0
Tb336 Tb 0.03831 0.0271 0.01605 0.0
Eu337 Eu 0.07878 0.03618 0.06164 0.0
C338 C 0.08956 0.02501 0.00998 0.0
C339 C 0.05476 0.98825 0.03867 0.0
C340 C 0.98887 0.04136 0.98463 0.0
C341 C 0.9498 0.04909 0.97939 0.0
C342 C 0.96512 0.03485 0.97611 0.0
C343 C 0.99715 0.0624 0.99605 0.0
C344 C 0.98196 0.07652 0.99937 0.0
C345 C 0.95802 0.07004 0.9914 0.0
C346 C 1.0044 0.0255 0.98535 0.0
O347 O 0.02529 0.0434 0.044 0.0
O348 O 0.04388 0.02985 0.07433 0.0
O349 O 0.06917 0.06884 0.05611 0.0
O350 O 0.05917 0.06004 0.0172 0.0
C351 C 0.02634 0.03787 0.06508 0.0
O352 O 0.09228 0.02611 0.09456 0.0
O353 O 0.11271 0.05294 0.07988 0.0
O354 O 0.09628 0.03708 0.02975 0.0
O355 O 0.0675 0.0165 1.00253 0.0
O356 O 0.03635 0.99553 0.03028 0.0
O357 O 0.07436 1.00151 0.04697 0.0
C358 C 0.06463 0.07459 0.03525 0.0
O359 O 0.02597 0.03314 0.98248 0.0
O360 O 1.00329 0.01396 1.00296 0.0
C361 C 0.13168 0.02563 0.09343 0.0
C362 C 0.16616 1.00028 0.08973 0.0
C363 C 0.16636 0.01366 0.11017 0.0
C364 C 0.14917 0.02627 0.11201 0.0
C365 C 0.13147 0.01222 0.07319 0.0
C366 C 0.14835 0.99962 0.07138 0.0
C367 C 0.11298 0.03814 0.09452 0.0
H368 H 0.93141 0.0433 0.97339 0.0
H369 H 0.95828 0.01848 0.96777 0.0
H370 H 0.01533 0.06771 1.00321 0.0
H371 H 0.98905 0.09248 0.00847 0.0
H372 H 0.17993 0.0146 0.12458 0.0
H373 H 0.14956 0.03647 0.12782 0.0
H374 H 0.11813 0.01142 0.05867 0.0
H375 H 0.14729 0.98919 0.05558 0.0
Tb376 Tb 0.34407 0.80447 0.29359 0.0
Eu377 Eu 0.31272 0.75938 0.26255 0.0
C378 C 0.29628 0.8048 0.26492 0.0
C379 C 0.31418 0.76803 0.31738 0.0
C380 C 0.37961 0.85988 0.31797 0.0
C381 C 0.39734 0.89527 0.33855 0.0
C382 C 0.38525 0.87377 0.33847 0.0
C383 C 0.38571 0.86786 0.29733 0.0
C384 C 0.39789 0.88941 0.29738 0.0
C385 C 0.4041 0.90327 0.31808 0.0
C386 C 0.36865 0.83689 0.31895 0.0
O387 O 0.36121 0.77728 0.2997 0.0
O388 O 0.34979 0.7551 0.26589 0.0
O389 O 0.33024 0.77894 0.2366 0.0
O390 O 0.35231 0.80983 0.25872 0.0
C391 C 0.36436 0.76186 0.28478 0.0
O392 O 0.30192 0.7239 0.25592 0.0
O393 O 0.28625 0.7448 0.23347 0.0
O394 O 0.2898 0.78397 0.26791 0.0
O395 O 0.31782 0.81527 0.27114 0.0
O396 O 0.31895 0.78909 0.31501 0.0
O397 O 0.31379 0.75339 0.30009 0.0
C398 C 0.34444 0.79815 0.2387 0.0
O399 O 0.3459 0.83215 0.31685 0.0
O400 O 0.37716 0.82231 0.30744 0.0
C401 C 0.26401 0.70906 0.23528 0.0
C402 C 0.22443 0.67469 0.22579 0.0
C403 C 0.238 0.67831 0.24765 0.0
C404 C 0.25762 0.69532 0.25235 0.0
C405 C 0.24986 0.70612 0.21386 0.0
C406 C 0.23025 0.68915 0.20916 0.0
C407 C 0.28652 0.7248 0.23827 0.0
H408 H 0.40142 0.90562 0.35468 0.0
H409 H 0.38062 0.86786 0.35455 0.0
H410 H 0.38148 0.85733 0.2813 0.0
H411 H 0.40295 0.89503 0.28135 0.0
H412 H 0.23416 0.66734 0.26077 0.0
H413 H 0.26824 0.69714 0.26901 0.0
H414 H 0.25447 0.71647 0.2004 0.0
H415 H 0.22 0.68697 0.19227 0.0
Tb416 Tb 0.55405 0.02545 0.50679 0.0
Eu417 Eu 0.58075 0.05974 0.55096 0.0
C418 C 0.55668 0.01121 0.55692 0.0
C419 C 0.52799 0.06355 0.52812 0.0
C420 C 0.53284 0.97444 0.4686 0.0
C421 C 0.54501 0.94081 0.47813 0.0
C422 C 0.54377 0.96249 0.48435 0.0
C423 C 0.52328 0.96454 0.44652 0.0
C424 C 0.52462 0.94287 0.44021 0.0
C425 C 0.53552 0.93075 0.45595 0.0
C426 C 0.53201 0.99738 0.4749 0.0
O427 O 0.56778 0.05415 0.49067 0.0
O428 O 0.58453 0.08001 0.52102 0.0
O429 O 0.60591 0.03614 0.545 0.0
O430 O 0.58936 0.01674 0.51037 0.0
C431 C 0.57821 0.0741 0.49894 0.0
O432 O 0.61285 0.08032 0.56871 0.0
O433 O 0.58181 0.07523 0.58574 0.0
O434 O 0.55871 0.03165 0.56487 0.0
O435 O 0.55822 1.00595 0.53534 0.0
O436 O 0.52697 0.04466 0.51557 0.0
O437 O 0.54739 0.07294 0.54174 0.0
C438 C 0.60669 0.0215 0.52777 0.0
O439 O 0.52435 1.00136 0.49442 0.0
O440 O 0.55071 0.01157 0.47263 0.0
C441 C 0.6083 0.109 0.59507 0.0
C442 C 0.61906 0.15357 0.61185 0.0
C443 C 0.61418 0.14735 0.58801 0.0
C444 C 0.60872 0.12521 0.57967 0.0
C445 C 0.61307 0.11513 0.61883 0.0
C446 C 0.61834 0.13725 0.62718 0.0
C447 C 0.60334 0.08566 0.5867 0.0
H448 H 0.55324 0.93188 0.49077 0.0
H449 H 0.55139 0.96995 0.50145 0.0
H450 H 0.51497 0.97364 0.4341 0.0
H451 H 0.51746 0.93573 0.42289 0.0
H452 H 0.61435 0.1596 0.57584 0.0
H453 H 0.60493 0.12075 0.56125 0.0
H454 H 0.61286 0.10281 0.63093 0.0
H455 H 0.6222 0.14159 0.64562 0.0
Tb456 Tb 0.28995 0.2921 0.76875 0.0
Eu457 Eu 0.34448 0.29655 0.78812 0.0
C458 C 0.32717 0.33068 0.7546 0.0
C459 C 0.32274 0.27498 0.7346 0.0
C460 C 0.22833 0.27498 0.7713 0.0
C461 C 0.18778 0.26386 0.77645 0.0
C462 C 0.20469 0.27379 0.76365 0.0
C463 C 0.23497 0.26596 0.79168 0.0
C464 C 0.21814 0.25605 0.80445 0.0
C465 C 0.19437 0.25501 0.79706 0.0
C466 C 0.24633 0.2855 0.75832 0.0
O467 O 0.29532 0.26058 0.77865 0.0
O468 O 0.32412 0.27245 0.80831 0.0
O469 O 0.33151 0.31824 0.81471 0.0
O470 O 0.29263 0.30329 0.80634 0.0
C471 C 0.30636 0.25769 0.79843 0.0
O472 O 0.37361 0.28023 0.79609 0.0
O473 O 0.37807 0.31531 0.80463 0.0
O474 O 0.34459 0.32237 0.76367 0.0
O475 O 0.30529 0.32282 0.75666 0.0
O476 O 0.30396 0.28328 0.73678 0.0
O477 O 0.33889 0.27597 0.7527 0.0
C478 C 0.31026 0.31565 0.82046 0.0
O479 O 0.25888 0.30403 0.76814 0.0
O480 O 0.25927 0.27261 0.75073 0.0
C481 C 0.41054 0.30227 0.79468 0.0
C482 C 0.45345 0.31264 0.77773 0.0
C483 C 0.45232 0.31576 0.80147 0.0
C484 C 0.431 0.31058 0.80987 0.0
C485 C 0.41155 0.29891 0.77098 0.0
C486 C 0.43292 0.30396 0.76256 0.0
C487 C 0.38821 0.29851 0.80372 0.0
H488 H 0.16955 0.26307 0.77023 0.0
H489 H 0.19935 0.28058 0.74788 0.0
H490 H 0.25323 0.26675 0.7978 0.0
H491 H 0.22378 0.24965 0.82037 0.0
H492 H 0.46794 0.32222 0.81352 0.0
H493 H 0.43042 0.31335 0.82821 0.0
H494 H 0.3958 0.29274 0.759 0.0
H495 H 0.43333 0.30159 0.74417 0.0
Tb496 Tb 0.06619 0.03382 0.50467 0.0
Eu497 Eu 0.0687 0.05831 0.55413 0.0
C498 C 0.11553 0.06113 0.52889 0.0
C499 C 0.07083 1.00523 0.54972 0.0
C500 C 0.04851 0.01249 0.44277 0.0
C501 C 0.04458 0.01112 0.4011 0.0
C502 C 0.05854 0.01273 0.42231 0.0
C503 C 0.02426 0.01056 0.4418 0.0
C504 C 1.01024 1.00874 0.42055 0.0
C505 C 0.02031 1.00909 0.40003 0.0
C506 C 0.0637 0.01443 0.46482 0.0
O507 O 0.02864 0.03107 0.50847 0.0
O508 O 0.03228 0.03678 0.5476 0.0
O509 O 0.06175 0.08539 0.5306 0.0
O510 O 0.06597 0.06854 0.49594 0.0
C511 C 0.01928 0.02931 0.52783 0.0
O512 O 0.05216 0.07481 0.5798 0.0
O513 O 0.08857 0.07232 0.58697 0.0
O514 O 0.10435 0.07093 0.54319 0.0
O515 O 0.10437 0.04322 0.51589 0.0
O516 O 0.06714 1.00598 0.52702 0.0
O517 O 0.07446 0.02383 0.5633 0.0
C518 C 0.06382 0.08653 0.50845 0.0
O519 O 0.07647 0.03366 0.47155 0.0
O520 O 0.05443 1.00549 0.48172 0.0
C521 C 0.06719 0.07125 0.61823 0.0
C522 C 0.06955 0.06311 0.66483 0.0
C523 C 0.06126 0.08148 0.65734 0.0
C524 C 0.0603 0.08561 0.63421 0.0
C525 C 0.07313 0.05179 0.62516 0.0
C526 C 0.07446 0.04781 0.64828 0.0
C527 C 0.07064 0.07781 0.59522 0.0
H528 H 0.05272 0.01123 0.3855 0.0
H529 H 0.07721 0.01421 0.42276 0.0
H530 H 0.01617 0.01052 0.45743 0.0
H531 H 0.9916 1.00739 0.42015 0.0
H532 H 0.05679 0.09331 0.66954 0.0
H533 H 0.05536 0.10057 0.62904 0.0
H534 H 0.07823 0.04033 0.61298 0.0
H535 H 0.08107 0.03357 0.65331 0.0
Tb536 Tb 0.30364 0.77256 0.78632 0.0
Eu537 Eu 0.32465 0.82101 0.77315 0.0
C538 C 0.30784 0.81337 0.82306 0.0
C539 C 0.26953 0.80007 0.76003 0.0
C540 C 0.27882 0.71301 0.78539 0.0
C541 C 0.27614 0.67407 0.78705 0.0
C542 C 0.27889 0.69501 0.79821 0.0
C543 C 0.27418 0.7098 0.76129 0.0
C544 C 0.27116 0.68877 0.75006 0.0
C545 C 0.27319 0.67082 0.76282 0.0
C546 C 0.28709 0.73494 0.79728 0.0
O547 O 0.31512 0.76494 0.75315 0.0
O548 O 0.32156 0.79917 0.74024 0.0
O549 O 0.35699 0.8069 0.7835 0.0
O550 O 0.34002 0.78052 0.80469 0.0
C551 C 0.31899 0.77782 0.73665 0.0
O552 O 0.32565 0.84592 0.74892 0.0
O553 O 0.34874 0.85256 0.78116 0.0
O554 O 0.32117 0.82592 0.81092 0.0
O555 O 0.29656 0.79369 0.81467 0.0
O556 O 0.2755 0.7808 0.76176 0.0
O557 O 0.28488 0.81805 0.76827 0.0
C558 C 0.35898 0.79284 0.79898 0.0
O559 O 0.30921 0.74269 0.79745 0.0
O560 O 0.27459 0.74955 0.79262 0.0
C561 C 0.33327 0.88178 0.76744 0.0
C562 C 0.32021 0.92145 0.78018 0.0
C563 C 0.34389 0.9204 0.78109 0.0
C564 C 0.35037 0.90069 0.77466 0.0
C565 C 0.30959 0.88288 0.76623 0.0
C566 C 0.30313 0.90258 0.77243 0.0
C567 C 0.34024 0.86071 0.76301 0.0
H568 H 0.27818 0.66078 0.79749 0.0
H569 H 0.28264 0.69732 0.81685 0.0
H570 H 0.27416 0.72363 0.75116 0.0
H571 H 0.26856 0.68678 0.7314 0.0
H572 H 0.35736 0.93476 0.78697 0.0
H573 H 0.36872 0.90006 0.77586 0.0
H574 H 0.29607 0.86841 0.76106 0.0
H575 H 0.28476 0.90286 0.77194 0.0
Tb576 Tb 0.57631 0.03884 0.05483 0.0
Eu577 Eu 0.54718 0.04738 0.00808 0.0
C578 C 0.56959 1.00166 0.01187 0.0
C579 C 0.60288 0.06311 0.01713 0.0
C580 C 0.59482 0.0461 0.11678 0.0
C581 C 0.58212 0.04689 0.15455 0.0
C582 C 0.58867 0.03541 0.13598 0.0
C583 C 0.59644 0.06884 0.11728 0.0
C584 C 0.59002 0.08039 0.13592 0.0
C585 C 0.5817 0.06932 0.15423 0.0
C586 C 0.59335 0.03285 0.09481 0.0
O587 O 0.56589 0.07113 0.06434 0.0
O588 O 0.55163 0.08069 0.02927 0.0
O589 O 0.52279 0.04075 0.0344 0.0
O590 O 0.54276 0.01639 0.04817 0.0
C591 C 0.55841 0.08594 0.05159 0.0
O592 O 0.53862 0.06637 0.97979 0.0
O593 O 0.5166 0.03491 0.98251 0.0
O594 O 0.55396 0.0119 1.00149 0.0
O595 O 0.58261 0.01116 0.03142 0.0
O596 O 0.60256 0.05912 0.03873 0.0
O597 O 0.58437 0.05723 1.00156 0.0
C598 C 0.52311 0.02303 0.04466 0.0
O599 O 0.57199 0.02476 0.08565 0.0
O600 O 0.60599 0.04104 0.07954 0.0
C601 C 0.52196 0.04459 0.94543 0.0
C602 C 0.52283 0.03055 0.89914 0.0
C603 C 0.50151 0.03162 0.90716 0.0
C604 C 0.50111 0.0387 0.93021 0.0
C605 C 0.54323 0.04341 0.93747 0.0
C606 C 0.54366 0.03656 0.91448 0.0
C607 C 0.5214 0.05102 0.96979 0.0
H608 H 0.57564 0.03777 0.16824 0.0
H609 H 0.58697 0.01781 0.13575 0.0
H610 H 0.60101 0.07741 0.10256 0.0
H611 H 0.59035 0.09773 0.13538 0.0
H612 H 0.48525 0.02704 0.89562 0.0
H613 H 0.48454 0.03936 0.93619 0.0
H614 H 0.55948 0.04755 0.94908 0.0
H615 H 0.56028 0.03548 0.9088 0.0
Tb616 Tb 0.32403 0.3156 0.29225 0.0
Eu617 Eu 0.29884 0.27106 0.26351 0.0
C618 C 0.32187 0.27072 0.31801 0.0
C619 C 0.35462 0.29285 0.25989 0.0
C620 C 0.32823 0.37044 0.3208 0.0
C621 C 0.293 0.38141 0.3308 0.0
C622 C 0.30722 0.36595 0.33031 0.0
C623 C 0.33568 0.39125 0.31363 0.0
C624 C 0.32135 0.40664 0.31393 0.0
C625 C 0.29945 0.40145 0.32159 0.0
C626 C 0.34014 0.35266 0.31448 0.0
O627 O 0.31746 0.32504 0.25614 0.0
O628 O 0.28972 0.29608 0.23879 0.0
O629 O 0.27226 0.27686 0.28773 0.0
O630 O 0.28657 0.31314 0.29843 0.0
C631 C 0.30225 0.31585 0.23796 0.0
O632 O 0.3028 0.24142 0.24415 0.0
O633 O 0.2681 0.2469 0.24736 0.0
O634 O 0.31051 0.25949 0.29873 0.0
O635 O 0.32985 0.29207 0.31828 0.0
O636 O 0.35477 0.30543 0.27909 0.0
O637 O 0.33476 0.27996 0.25036 0.0
C638 C 0.27006 0.29539 0.29864 0.0
O639 O 0.33493 0.33461 0.32413 0.0
O640 O 0.34022 0.34865 0.29251 0.0
C641 C 0.27576 0.21117 0.25026 0.0
C642 C 0.2876 0.17656 0.27398 0.0
C643 C 0.28846 0.17654 0.25011 0.0
C644 C 0.2825 0.19372 0.23834 0.0
C645 C 0.27149 0.20956 0.27316 0.0
C646 C 0.27708 0.19217 0.28487 0.0
C647 C 0.28061 0.23276 0.24155 0.0
H648 H 0.2761 0.37693 0.33659 0.0
H649 H 0.30095 0.35 0.33588 0.0
H650 H 0.3518 0.39501 0.30622 0.0
H651 H 0.32671 0.42206 0.30685 0.0
H652 H 0.29641 0.16484 0.24105 0.0
H653 H 0.28599 0.19473 0.22069 0.0
H654 H 0.26629 0.22287 0.28276 0.0
H655 H 0.27553 0.19228 0.30307 0.0
Tb656 Tb 0.56467 0.53342 1.00455 0.0
Eu657 Eu 0.56787 0.55798 0.05411 0.0
C658 C 0.61432 0.56036 0.02828 0.0
C659 C 0.56958 0.50475 0.04949 0.0
C660 C 0.54598 0.51475 0.94277 0.0
C661 C 0.51948 0.53218 0.91923 0.0
C662 C 0.53372 0.53175 0.93991 0.0
C663 C 0.5437 0.49808 0.92494 0.0
C664 C 0.52937 0.49843 0.9043 0.0
C665 C 0.51717 0.51552 0.90123 0.0
C666 C 0.56067 0.51398 0.9645 0.0
O667 O 0.52737 0.53164 0.00895 0.0
O668 O 0.53133 0.53671 0.04811 0.0
O669 O 0.56088 0.58502 0.03048 0.0
O670 O 0.56507 0.56819 0.99582 0.0
C671 C 0.51815 0.52963 0.02836 0.0
O672 O 0.5521 0.57518 0.07994 0.0
O673 O 0.58828 0.5718 0.08674 0.0
O674 O 0.60335 0.57024 0.04271 0.0
O675 O 0.60296 0.54252 0.01529 0.0
O676 O 0.56596 0.50555 0.02679 0.0
O677 O 0.57315 0.52331 0.06314 0.0
C678 C 0.56302 0.58619 0.00835 0.0
O679 O 0.57597 0.53169 0.97199 0.0
O680 O 0.54966 0.50613 0.9809 0.0
C681 C 0.56776 0.57291 0.11861 0.0
C682 C 0.5713 0.56819 0.16609 0.0
C683 C 0.56207 0.58551 0.15713 0.0
C684 C 0.5605 0.58794 0.13356 0.0
C685 C 0.57472 0.55441 0.12711 0.0
C686 C 0.57662 0.55214 0.15067 0.0
C687 C 0.5708 0.57813 0.09507 0.0
H688 H 0.5101 0.54542 0.9174 0.0
H689 H 0.53513 0.54464 0.95367 0.0
H690 H 0.553 0.48481 0.92698 0.0
H691 H 0.5281 0.48551 0.89061 0.0
H692 H 0.5573 0.59787 0.16846 0.0
H693 H 0.55483 0.60219 0.12721 0.0
H694 H 0.58017 0.54247 0.11578 0.0
H695 H 0.58394 0.53866 0.15686 0.0
Tb696 Tb 0.8024 0.27461 0.28508 0.0
Eu697 Eu 0.82372 0.32306 0.27223 0.0
C698 C 0.80589 0.3152 0.32137 0.0
C699 C 0.76841 0.3031 0.2598 0.0
C700 C 0.78698 0.21455 0.28681 0.0
C701 C 0.79278 0.17857 0.29586 0.0
C702 C 0.78907 0.19929 0.30288 0.0
C703 C 0.78804 0.20872 0.26349 0.0
C704 C 0.79148 0.18796 0.25642 0.0
C705 C 0.79433 0.1728 0.27258 0.0
C706 C 0.78482 0.23675 0.29474 0.0
O707 O 0.81736 0.26732 0.2538 0.0
O708 O 0.81975 0.30075 0.23952 0.0
O709 O 0.85638 0.30958 0.28332 0.0
O710 O 0.83962 0.28007 0.30095 0.0
C711 C 0.81939 0.27967 0.23664 0.0
O712 O 0.8256 0.34757 0.24749 0.0
O713 O 0.84695 0.35502 0.28069 0.0
O714 O 0.82051 0.32721 0.30999 0.0
O715 O 0.79361 0.29614 0.31217 0.0
O716 O 0.7741 0.28377 0.2616 0.0
O717 O 0.78406 0.32098 0.26765 0.0
C718 C 0.85842 0.29388 0.29689 0.0
O719 O 0.80346 0.24901 0.30638 0.0
O720 O 0.77477 0.24738 0.27964 0.0
C721 C 0.83091 0.38343 0.26574 0.0
C722 C 0.81501 0.42161 0.27856 0.0
C723 C 0.79923 0.40298 0.26763 0.0
C724 C 0.80708 0.384 0.2614 0.0
C725 C 0.84681 0.40228 0.27586 0.0
C726 C 0.83891 0.42123 0.28232 0.0
C727 C 0.83901 0.36279 0.26205 0.0
H728 H 0.79525 0.16739 0.30877 0.0
H729 H 0.78841 0.20359 0.32097 0.0
H730 H 0.78658 0.22029 0.25076 0.0
H731 H 0.79225 0.18391 0.23832 0.0
H732 H 0.78068 0.40277 0.26482 0.0
H733 H 0.79439 0.36958 0.25391 0.0
H734 H 0.86523 0.40209 0.27948 0.0
H735 H 0.85141 0.43545 0.29062 0.0
Tb736 Tb 0.07891 0.54084 0.55307 0.0
Eu737 Eu 0.04705 0.54804 0.50682 0.0
C738 C 0.06863 0.50205 0.51063 0.0
C739 C 0.10262 0.56589 0.51424 0.0
C740 C 0.10184 0.52162 0.60943 0.0
C741 C 0.12104 0.52011 0.64789 0.0
C742 C 0.12233 0.52431 0.62501 0.0
C743 C 0.0807 0.51081 0.61572 0.0
C744 C 0.07936 0.50681 0.63865 0.0
C745 C 0.09916 0.51362 0.65529 0.0
C746 C 0.10172 0.53604 0.59082 0.0
O747 O 0.07107 0.57446 0.56135 0.0
O748 O 0.04976 0.581 0.52816 0.0
O749 O 0.0236 0.5407 0.53392 0.0
O750 O 0.04517 0.51917 0.55221 0.0
C751 C 0.06008 0.58776 0.54939 0.0
O752 O 0.03671 0.56705 0.47918 0.0
O753 O 0.01667 0.53455 0.48127 0.0
O754 O 0.05356 0.51264 0.49998 0.0
O755 O 0.08172 0.51139 0.53013 0.0
O756 O 0.10317 0.56197 0.53587 0.0
O757 O 0.08381 0.55937 0.49914 0.0
C758 C 0.02499 0.52442 0.5464 0.0
O759 O 0.10698 0.52943 0.57092 0.0
O760 O 0.08429 0.54618 0.58878 0.0
C761 C 0.02133 0.54526 0.44424 0.0
C762 C 0.02373 0.53146 0.39811 0.0
C763 C 0.04296 0.54526 0.4116 0.0
C764 C 0.04182 0.55203 0.43447 0.0
C765 C 1.00192 0.53185 0.43068 0.0
C766 C 1.00313 0.52489 0.40778 0.0
C767 C 0.02049 0.55099 0.4688 0.0
H768 H 0.13664 0.52501 0.66034 0.0
H769 H 0.13886 0.53239 0.62036 0.0
H770 H 0.0647 0.50832 0.60378 0.0
H771 H 0.06226 0.50153 0.64377 0.0
H772 H 0.05919 0.55026 0.40468 0.0
H773 H 0.05718 0.56215 0.44459 0.0
H774 H 0.98599 0.5264 0.43795 0.0
H775 H 0.98807 0.51429 0.39768 0.0
Tb776 Tb 0.78691 0.78988 0.26915 0.0
Eu777 Eu 0.84249 0.7971 0.28665 0.0
C778 C 0.82097 0.82903 0.25377 0.0
C779 C 0.8204 0.77268 0.23476 0.0
C780 C 0.72558 0.77576 0.27442 0.0
C781 C 0.70522 0.78391 0.30661 0.0
C782 C 0.71861 0.79102 0.2895 0.0
C783 C 0.7178 0.75326 0.27603 0.0
C784 C 0.70463 0.74619 0.29325 0.0
C785 C 0.69864 0.76145 0.30896 0.0
C786 C 0.74339 0.783 0.25937 0.0
O787 O 0.78952 0.76573 0.29328 0.0
O788 O 0.82836 0.76397 0.29709 0.0
O789 O 0.82714 0.80588 0.31923 0.0
O790 O 0.79186 0.81132 0.30238 0.0
C791 C 0.8068 0.75628 0.30005 0.0
O792 O 0.87575 0.78651 0.28979 0.0
O793 O 0.87376 0.81859 0.30512 0.0
O794 O 0.83619 0.82779 0.27154 0.0
O795 O 0.80215 0.81393 0.2478 0.0
O796 O 0.79941 0.77093 0.24133 0.0
O797 O 0.83899 0.78396 0.24841 0.0
C798 C 0.80778 0.8132 0.32084 0.0
O799 O 0.75625 0.80259 0.26479 0.0
O800 O 0.75596 0.76869 0.25439 0.0
C801 C 0.9081 0.81515 0.29022 0.0
C802 C 0.94842 0.83343 0.27191 0.0
C803 C 0.9485 0.83406 0.29588 0.0
C804 C 0.92845 0.82491 0.30497 0.0
C805 C 0.90769 0.81514 0.26629 0.0
C806 C 0.92779 0.82412 0.25718 0.0
C807 C 0.88735 0.8053 0.3 0.0
H808 H 0.70069 0.79598 0.31851 0.0
H809 H 0.72426 0.80845 0.2887 0.0
H810 H 0.72268 0.74106 0.26457 0.0
H811 H 0.69931 0.72877 0.29443 0.0
H812 H 0.96428 0.84096 0.30755 0.0
H813 H 0.9289 0.82519 0.3235 0.0
H814 H 0.89195 0.80795 0.25468 0.0
H815 H 0.9273 0.8236 0.23864 0.0
Tb816 Tb 0.84202 0.29975 0.78681 0.0
Eu817 Eu 0.79702 0.26069 0.76303 0.0
C818 C 0.79286 0.31174 0.77248 0.0
C819 C 0.81167 0.269 0.81817 0.0
C820 C 0.88874 0.35052 0.80729 0.0
C821 C 0.89571 0.3868 0.82805 0.0
C822 C 0.8835 0.36511 0.82433 0.0
C823 C 0.90624 0.35818 0.79386 0.0
C824 C 0.9184 0.37988 0.79755 0.0
C825 C 0.91348 0.39434 0.81489 0.0
C826 C 0.87801 0.32695 0.80526 0.0
O827 O 0.85376 0.27091 0.77358 0.0
O828 O 0.82412 0.24378 0.77941 0.0
O829 O 0.81736 0.27461 0.735 0.0
O830 O 0.83367 0.30904 0.75235 0.0
C831 C 0.8464 0.25119 0.77946 0.0
O832 O 0.78445 0.23275 0.73741 0.0
O833 O 0.75988 0.24554 0.75682 0.0
O834 O 0.78491 0.29241 0.76102 0.0
O835 O 0.8131 0.31688 0.7858 0.0
O836 O 0.83191 0.28037 0.81464 0.0
O837 O 0.79434 0.26226 0.80129 0.0
C838 C 0.82633 0.29541 0.73374 0.0
O839 O 0.85941 0.32125 0.81519 0.0
O840 O 0.87652 0.31572 0.78533 0.0
C841 C 0.7488 0.20826 0.74068 0.0
C842 C 0.7204 0.1659 0.73318 0.0
C843 C 0.74483 0.1687 0.73521 0.0
C844 C 0.75892 0.18967 0.73895 0.0
C845 C 0.72446 0.20544 0.73921 0.0
C846 C 0.71039 0.18449 0.73559 0.0
C847 C 0.76281 0.2306 0.74132 0.0
H848 H 0.89136 0.39763 0.84137 0.0
H849 H 0.87033 0.35969 0.83519 0.0
H850 H 0.91099 0.34725 0.78091 0.0
H851 H 0.9322 0.38514 0.78732 0.0
H852 H 0.75306 0.15465 0.73376 0.0
H853 H 0.77765 0.19132 0.73992 0.0
H854 H 0.71623 0.21953 0.74015 0.0
H855 H 0.69163 0.1829 0.7339 0.0
Tb856 Tb 0.8244 0.81588 0.79224 0.0
Eu857 Eu 0.8012 0.76967 0.76407 0.0
C858 C 0.82389 0.77165 0.81882 0.0
C859 C 0.85709 0.79203 0.76191 0.0
C860 C 0.82598 0.86914 0.82246 0.0
C861 C 0.7899 0.87594 0.83485 0.0
C862 C 0.80626 0.8626 0.83353 0.0
C863 C 0.83023 0.89012 0.81485 0.0
C864 C 0.81377 0.90341 0.81605 0.0
C865 C 0.79288 0.89589 0.82494 0.0
C866 C 0.83931 0.85297 0.81469 0.0
O867 O 0.81078 0.82597 0.75799 0.0
O868 O 0.79656 0.79313 0.73628 0.0
O869 O 0.76984 0.77904 0.77985 0.0
O870 O 0.78817 0.81074 0.80187 0.0
C871 C 0.80225 0.81472 0.73771 0.0
O872 O 0.80066 0.7452 0.73538 0.0
O873 O 0.77624 0.7384 0.75958 0.0
O874 O 0.81156 0.76013 0.80026 0.0
O875 O 0.83286 0.79269 0.818 0.0
O876 O 0.85471 0.8092 0.77535 0.0
O877 O 0.83981 0.77469 0.75772 0.0
C878 C 0.76934 0.79506 0.79574 0.0
O879 O 0.83658 0.83462 0.8241 0.0
O880 O 0.83814 0.84952 0.79249 0.0
C881 C 0.7956 0.71041 0.74829 0.0
C882 C 0.82419 0.67966 0.75704 0.0
C883 C 0.81389 0.6812 0.73444 0.0
C884 C 0.79983 0.69657 0.7301 0.0
C885 C 0.80435 0.7077 0.77098 0.0
C886 C 0.81854 0.69259 0.77531 0.0
C887 C 0.7863 0.73013 0.74349 0.0
H888 H 0.77398 0.86974 0.8418 0.0
H889 H 0.80249 0.8465 0.83959 0.0
H890 H 0.84533 0.89551 0.8063 0.0
H891 H 0.81662 0.9189 0.80858 0.0
H892 H 0.8175 0.6712 0.72 0.0
H893 H 0.79337 0.69848 0.71246 0.0
H894 H 0.8015 0.71822 0.78536 0.0
H895 H 0.8263 0.69217 0.7929 0.0
Tb896 Tb 0.53178 0.51914 0.51503 0.0
Eu897 Eu 0.57293 0.53252 0.56004 0.0
C898 C 0.58328 0.51892 0.50862 0.0
C899 C 0.55092 0.48305 0.54057 0.0
C900 C 0.482 0.53143 0.48285 0.0
C901 C 0.44313 0.53971 0.47973 0.0
C902 C 0.45781 0.52478 0.47676 0.0
C903 C 0.49128 0.55328 0.49143 0.0
C904 C 0.47673 0.56803 0.49464 0.0
C905 C 0.45241 0.56149 0.4891 0.0
C906 C 0.49725 0.5153 0.4846 0.0
O907 O 0.51846 0.53653 0.54195 0.0
O908 O 0.53843 0.52629 0.57367 0.0
O909 O 0.56129 0.56384 0.55235 0.0
O910 O 0.55106 0.55244 0.51394 0.0
C911 C 0.52021 0.53288 0.56365 0.0
O912 O 0.58811 0.52487 0.59351 0.0
O913 O 0.60646 0.55154 0.57695 0.0
O914 O 0.58975 0.53213 0.5277 0.0
O915 O 0.56143 0.5092 0.50182 0.0
O916 O 0.53179 0.48879 0.53148 0.0
O917 O 0.57 0.49746 0.5477 0.0
C918 C 0.55577 0.56802 0.53104 0.0
O919 O 0.51867 0.52213 0.48071 0.0
O920 O 0.49659 0.50522 0.50327 0.0
C921 C 0.62775 0.52624 0.59156 0.0
C922 C 0.66426 0.50331 0.58785 0.0
C923 C 0.66452 0.51756 0.60767 0.0
C924 C 0.64634 0.529 0.60949 0.0
C925 C 0.62745 0.51185 0.57204 0.0
C926 C 0.64534 0.50047 0.57022 0.0
C927 C 0.60816 0.53769 0.59244 0.0
H928 H 0.42447 0.53387 0.4757 0.0
H929 H 0.45022 0.50786 0.47069 0.0
H930 H 0.50981 0.55882 0.4967 0.0
H931 H 0.48466 0.58445 0.50202 0.0
H932 H 0.67891 0.5201 0.62153 0.0
H933 H 0.64684 0.53998 0.62475 0.0
H934 H 0.61329 0.50939 0.55804 0.0
H935 H 0.64426 0.48931 0.55495 0.0
Tb936 Tb 0.05038 0.52159 1.00427 0.0
Eu937 Eu 0.07552 0.55368 0.05027 0.0
C938 C 0.05002 0.50532 0.0529 0.0
C939 C 0.02432 0.55935 0.02576 0.0
C940 C 0.02992 0.4722 0.96329 0.0
C941 C 0.04314 0.4385 0.97035 0.0
C942 C 0.04261 0.46018 0.97743 0.0
C943 C 0.0179 0.4624 0.94196 0.0
C944 C 0.01846 0.44071 0.93482 0.0
C945 C 0.03107 0.42849 0.94897 0.0
C946 C 0.02926 0.49494 0.97073 0.0
O947 O 0.06368 0.55174 0.99037 0.0
O948 O 0.08372 0.57483 0.02181 0.0
O949 O 0.10029 0.52964 0.04488 0.0
O950 O 0.08618 0.51376 0.00816 0.0
C951 C 0.07651 0.57052 0.99967 0.0
O952 O 0.10649 0.57334 0.07114 0.0
O953 O 0.07383 0.56685 0.08533 0.0
O954 O 0.05043 0.52553 0.06059 0.0
O955 O 0.05373 0.50082 0.03182 0.0
O956 O 0.02292 0.54006 0.01381 0.0
O957 O 0.04392 0.56875 0.03902 0.0
C958 C 0.10235 0.51678 0.0266 0.0
O959 O 0.02094 0.49792 0.99007 0.0
O960 O 0.0483 0.50922 0.96973 0.0
C961 C 0.09892 0.60079 0.09702 0.0
C962 C 0.10555 0.64501 0.11419 0.0
C963 C 0.10037 0.63885 0.09035 0.0
C964 C 0.09696 0.61688 0.08184 0.0
C965 C 0.10407 0.60682 0.12079 0.0
C966 C 0.1073 0.62878 0.12934 0.0
C967 C 0.09534 0.57768 0.08827 0.0
H968 H 0.05275 0.42947 0.98178 0.0
H969 H 0.05202 0.46755 0.99398 0.0
H970 H 1.00812 0.47154 0.93082 0.0
H971 H 1.00924 0.43358 0.91814 0.0
H972 H 0.09865 0.65101 0.07834 0.0
H973 H 0.09277 0.61245 0.06342 0.0
H974 H 0.10559 0.59454 0.1327 0.0
H975 H 0.11144 0.63312 0.14777 0.0
C976 C 0.01474 0.15548 0.96382 0.0
C977 C 0.02387 0.17798 0.968 0.0
C978 C 0.02142 0.14084 0.979 0.0
C979 C 0.03723 0.14895 0.99929 0.0
C980 C 0.0449 0.17184 1.00461 0.0
C981 C 0.03815 0.18613 0.98885 0.0
C982 C 1.01245 0.11671 0.97191 0.0
C983 C 0.06183 0.18116 0.02592 0.0
C984 C 0.04464 0.10575 0.04029 0.0
C985 C 0.06234 0.09705 0.0314 0.0
C986 C 0.03706 0.12374 0.03103 0.0
C987 C 0.04796 0.1334 0.01296 0.0
C988 C 0.0672 0.12572 0.00542 0.0
C989 C 0.07391 0.1074 0.01451 0.0
C990 C 0.01632 0.13128 0.03928 0.0
C991 C 0.07925 0.13546 0.98615 0.0
H992 H 1.00345 0.14904 0.94788 0.0
H993 H 0.04526 0.20354 0.99222 0.0
H994 H 0.01626 0.11263 0.95423 0.0
H995 H 0.01995 0.10587 0.98347 0.0
H996 H 0.99318 0.11304 0.97122 0.0
H997 H 0.06323 0.1991 0.02943 0.0
H998 H 0.05651 0.17307 0.04119 0.0
H999 H 0.07936 0.17803 0.02357 0.0
H1000 H 0.0354 0.09733 0.05302 0.0
H1001 H 0.08734 0.10035 0.00745 0.0
H1002 H 1.00249 0.13078 0.02455 0.0
H1003 H 0.0216 0.14853 0.04692 0.0
H1004 H 1.00883 0.12108 0.05236 0.0
H1005 H 0.06751 0.13067 0.9696 0.0
H1006 H 0.09577 0.12974 0.98456 0.0
H1007 H 0.08315 0.15361 0.98895 0.0
C1008 C 0.21151 0.85164 0.17356 0.0
C1009 C 0.19968 0.86566 0.185 0.0
C1010 C 0.22923 0.84313 0.1857 0.0
C1011 C 0.23504 0.84877 0.20975 0.0
C1012 C 0.22455 0.86437 0.22094 0.0
C1013 C 0.20711 0.87277 0.20836 0.0
C1014 C 0.24046 0.82691 0.1731 0.0
C1015 C 0.23052 0.87101 0.24652 0.0
C1016 C 0.25629 0.80725 0.2467 0.0
C1017 C 0.28018 0.81621 0.25161 0.0
C1018 C 0.24139 0.81765 0.23292 0.0
C1019 C 0.25074 0.83725 0.22364 0.0
C1020 C 0.27485 0.84622 0.22833 0.0
C1021 C 0.28925 0.83569 0.24237 0.0
C1022 C 0.21564 0.80772 0.22832 0.0
C1023 C 0.28552 0.86678 0.21827 0.0
H1024 H 0.20594 0.84615 0.15547 0.0
H1025 H 0.19819 0.88381 0.21723 0.0
H1026 H 0.25951 0.83002 0.1788 0.0
H1027 H 0.23302 0.81012 0.17706 0.0
H1028 H 0.23743 0.82747 0.15413 0.0
H1029 H 0.22217 0.88462 0.2522 0.0
H1030 H 0.2246 0.85676 0.25611 0.0
H1031 H 0.24967 0.87614 0.25131 0.0
H1032 H 0.24924 0.79215 0.25364 0.0
H1033 H 0.30777 0.84257 0.24572 0.0
H1034 H 0.21006 0.80399 0.2095 0.0
H1035 H 0.20548 0.81961 0.23463 0.0
H1036 H 0.21116 0.79241 0.23679 0.0
H1037 H 0.2832 0.86383 0.1992 0.0
H1038 H 0.30444 0.8722 0.22453 0.0
H1039 H 0.27655 0.88029 0.22268 0.0
C1040 C 0.53578 0.80272 0.43807 0.0
C1041 C 0.54417 0.79712 0.41752 0.0
C1042 C 0.53454 0.82446 0.44462 0.0
C1043 C 0.54173 0.84098 0.43022 0.0
C1044 C 0.55029 0.83549 0.40952 0.0
C1045 C 0.55148 0.81365 0.40346 0.0
C1046 C 0.52546 0.82975 0.4669 0.0
C1047 C 0.55799 0.85266 0.39367 0.0
C1048 C 0.51821 0.89332 0.43606 0.0
C1049 C 0.53713 0.90775 0.44924 0.0
C1050 C 0.51951 0.87157 0.42965 0.0
C1051 C 0.54016 0.86402 0.43675 0.0
C1052 C 0.55931 0.87846 0.45008 0.0
C1053 C 0.5576 0.90017 0.45608 0.0
C1054 C 0.49875 0.85665 0.41534 0.0
C1055 C 0.58161 0.87098 0.458 0.0
H1056 H 0.53015 0.7901 0.44908 0.0
H1057 H 0.55792 0.8095 0.38752 0.0
H1058 H 0.53876 0.84215 0.47827 0.0
H1059 H 0.50973 0.83694 0.46335 0.0
H1060 H 0.52089 0.81506 0.47632 0.0
H1061 H 0.56435 0.84572 0.37826 0.0
H1062 H 0.54325 0.86055 0.38784 0.0
H1063 H 0.57215 0.86568 0.40306 0.0
H1064 H 0.50222 0.89895 0.43098 0.0
H1065 H 0.57244 0.91129 0.46595 0.0
H1066 H 0.49241 0.84247 0.42485 0.0
H1067 H 0.50394 0.85006 0.39913 0.0
H1068 H 0.48413 0.86517 0.41092 0.0
H1069 H 0.57787 0.85689 0.4684 0.0
H1070 H 0.59479 0.88418 0.4685 0.0
H1071 H 0.58925 0.86528 0.44286 0.0
C1072 C 0.56664 0.35148 0.71689 0.0
C1073 C 0.58626 0.34591 0.72917 0.0
C1074 C 0.54475 0.34677 0.72453 0.0
C1075 C 0.54245 0.33607 0.74482 0.0
C1076 C 0.5622 0.33061 0.75743 0.0
C1077 C 0.5839 0.33569 0.74951 0.0
C1078 C 0.52406 0.35302 0.7108 0.0
C1079 C 0.56032 0.31908 0.77909 0.0
C1080 C 0.49063 0.3391 0.77645 0.0
C1081 C 0.47598 0.3188 0.76885 0.0
C1082 C 0.51222 0.34508 0.76851 0.0
C1083 C 0.51931 0.33031 0.75274 0.0
C1084 C 0.50451 0.30986 0.74487 0.0
C1085 C 0.48292 0.30438 0.75297 0.0
C1086 C 0.52747 0.36712 0.77707 0.0
C1087 C 0.51162 0.29365 0.72818 0.0
H1088 H 0.56833 0.35947 0.70121 0.0
H1089 H 0.59895 0.33125 0.75906 0.0
H1090 H 0.51067 0.33812 0.70445 0.0
H1091 H 0.5159 0.36359 0.72196 0.0
H1092 H 0.52895 0.36186 0.69579 0.0
H1093 H 0.57741 0.31617 0.78701 0.0
H1094 H 0.55322 0.32893 0.79194 0.0
H1095 H 0.54801 0.30308 0.77511 0.0
H1096 H 0.4851 0.35038 0.7885 0.0
H1097 H 0.47165 0.28861 0.74725 0.0
H1098 H 0.53158 0.37658 0.76227 0.0
H1099 H 0.54427 0.36489 0.78633 0.0
H1100 H 0.51909 0.37692 0.78885 0.0
H1101 H 0.51538 0.30126 0.71219 0.0
H1102 H 0.49794 0.27858 0.72352 0.0
H1103 H 0.52788 0.28894 0.73586 0.0
C1104 C 0.07581 0.87932 0.59228 0.0
C1105 C 0.06219 0.87344 0.61006 0.0
C1106 C 0.07802 0.90031 0.58298 0.0
C1107 C 0.06556 0.91661 0.59043 0.0
C1108 C 0.05133 0.91046 0.60805 0.0
C1109 C 0.0503 0.88974 0.61773 0.0
C1110 C 0.0942 0.90475 0.56508 0.0
C1111 C 0.03669 0.92568 0.61698 0.0
C1112 C 0.08009 0.98064 0.58289 0.0
C1113 C 0.07006 0.98261 0.56013 0.0
C1114 C 0.07932 0.95989 0.59251 0.0
C1115 C 0.06722 0.93954 0.57993 0.0
C1116 C 0.0566 0.94158 0.55708 0.0
C1117 C 0.05856 0.96244 0.54759 0.0
C1118 C 0.09187 0.96025 0.61649 0.0
C1119 C 0.04263 0.9217 0.54218 0.0
H1120 H 0.08541 0.86756 0.5858 0.0
H1121 H 0.03958 0.88617 0.63128 0.0
H1122 H 0.08477 0.89758 0.54795 0.0
H1123 H 0.10075 0.92251 0.56432 0.0
H1124 H 0.10941 0.89677 0.56858 0.0
H1125 H 0.02069 0.91633 0.62264 0.0
H1126 H 0.04688 0.93618 0.63222 0.0
H1127 H 0.03146 0.93638 0.60386 0.0
H1128 H 0.08908 0.99549 0.59336 0.0
H1129 H 0.05034 0.96292 0.53016 0.0
H1130 H 0.09655 0.9443 0.61994 0.0
H1131 H 0.08051 0.96446 0.62917 0.0
H1132 H 0.10806 0.9731 0.61936 0.0
H1133 H 0.05419 0.91496 0.53124 0.0
H1134 H 0.02833 0.9261 0.53048 0.0
H1135 H 0.0349 0.9087 0.55252 0.0
C1136 C 0.49488 0.78578 0.84252 0.0
C1137 C 0.5012 0.78852 0.86664 0.0
C1138 C 0.47167 0.78509 0.83194 0.0
C1139 C 0.45386 0.78823 0.84546 0.0
C1140 C 0.46012 0.79098 0.8699 0.0
C1141 C 0.48336 0.79075 0.8801 0.0
C1142 C 0.46634 0.78127 0.80603 0.0
C1143 C 0.44247 0.79518 0.88537 0.0
C1144 C 0.40161 0.80997 0.81454 0.0
C1145 C 0.38316 0.79152 0.81098 0.0
C1146 C 0.4241 0.80927 0.82618 0.0
C1147 C 0.42919 0.7894 0.83399 0.0
C1148 C 0.41069 0.77062 0.83011 0.0
C1149 C 0.38807 0.772 0.81922 0.0
C1150 C 0.44247 0.83005 0.8303 0.0
C1151 C 0.41491 0.74879 0.83706 0.0
H1152 H 0.5083 0.78428 0.83174 0.0
H1153 H 0.48784 0.79345 0.89866 0.0
H1154 H 0.45066 0.76807 0.80094 0.0
H1155 H 0.46241 0.79634 0.79893 0.0
H1156 H 0.48111 0.7767 0.79803 0.0
H1157 H 0.44963 0.79668 0.90392 0.0
H1158 H 0.43661 0.81054 0.88142 0.0
H1159 H 0.42685 0.78176 0.88212 0.0
H1160 H 0.39833 0.82528 0.80863 0.0
H1161 H 0.37428 0.75751 0.81664 0.0
H1162 H 0.4571 0.82833 0.82054 0.0
H1163 H 0.4497 0.83311 0.84884 0.0
H1164 H 0.4355 0.84452 0.825 0.0
H1165 H 0.4294 0.74424 0.82857 0.0
H1166 H 0.39919 0.73555 0.83237 0.0
H1167 H 0.42028 0.74989 0.85592 0.0
C1168 C 0.53893 0.2022 0.11915 0.0
C1169 C 0.55158 0.22184 0.11234 0.0
C1170 C 0.53972 0.18077 0.10913 0.0
C1171 C 0.5543 0.17771 0.09194 0.0
C1172 C 0.56729 0.19745 0.08497 0.0
C1173 C 0.56557 0.21887 0.09482 0.0
C1174 C 0.52479 0.16117 0.11725 0.0
C1175 C 0.58381 0.19593 0.06751 0.0
C1176 C 0.57101 0.11931 0.08322 0.0
C1177 C 0.55727 0.10926 0.06238 0.0
C1178 C 0.57071 0.14124 0.0925 0.0
C1179 C 0.55575 0.15415 0.08148 0.0
C1180 C 0.54153 0.14387 0.0607 0.0
C1181 C 0.54275 0.12224 0.05142 0.0
C1182 C 0.58674 0.15063 0.11431 0.0
C1183 C 0.52443 0.15564 0.04828 0.0
H1184 H 0.52813 0.20358 0.13267 0.0
H1185 H 0.57604 0.23332 0.08939 0.0
H1186 H 0.51447 0.15035 0.10227 0.0
H1187 H 0.53607 0.15148 0.12667 0.0
H1188 H 0.51263 0.16593 0.12884 0.0
H1189 H 0.59331 0.21229 0.06418 0.0
H1190 H 0.59672 0.18609 0.07371 0.0
H1191 H 0.5741 0.18738 0.05102 0.0
H1192 H 0.58254 0.11016 0.09219 0.0
H1193 H 0.53181 0.11528 0.03546 0.0
H1194 H 0.57638 0.1515 0.12879 0.0
H1195 H 0.59592 0.16754 0.11251 0.0
H1196 H 0.59992 0.14052 0.11884 0.0
H1197 H 0.51254 0.16033 0.06019 0.0
H1198 H 0.5138 0.14548 0.033 0.0
H1199 H 0.53389 0.17096 0.04253 0.0
C1200 C 0.16729 0.29156 0.38588 0.0
C1201 C 0.14498 0.29274 0.37464 0.0
C1202 C 0.18741 0.29245 0.37402 0.0
C1203 C 0.18609 0.29483 0.34988 0.0
C1204 C 0.16364 0.29618 0.33849 0.0
C1205 C 0.14377 0.29505 0.35072 0.0
C1206 C 0.21028 0.29067 0.3875 0.0
C1207 C 0.16053 0.29889 0.31308 0.0
C1208 C 0.24353 0.31514 0.32211 0.0
C1209 C 0.24844 0.29577 0.31149 0.0
C1210 C 0.22369 0.31514 0.33427 0.0
C1211 C 0.20774 0.29529 0.33659 0.0
C1212 C 0.21272 0.27574 0.32596 0.0
C1213 C 0.23248 0.27623 0.31376 0.0
C1214 C 0.2198 0.33666 0.34472 0.0
C1215 C 0.19708 0.25397 0.32761 0.0
H1216 H 0.16911 0.28981 0.4042 0.0
H1217 H 0.1271 0.29612 0.34137 0.0
H1218 H 0.21644 0.27631 0.38012 0.0
H1219 H 0.22372 0.30541 0.38614 0.0
H1220 H 0.20889 0.28894 0.40601 0.0
H1221 H 0.14245 0.30032 0.30656 0.0
H1222 H 0.17275 0.31373 0.30954 0.0
H1223 H 0.16481 0.28467 0.3033 0.0
H1224 H 0.25524 0.33051 0.32091 0.0
H1225 H 0.23553 0.26093 0.30607 0.0
H1226 H 0.2202 0.33635 0.36363 0.0
H1227 H 0.20228 0.33922 0.33771 0.0
H1228 H 0.23314 0.35075 0.34129 0.0
H1229 H 0.19645 0.25107 0.34597 0.0
H1230 H 0.20306 0.24013 0.31882 0.0
H1231 H 0.17903 0.2541 0.31978 0.0
C1232 C 0.94088 0.06014 0.15357 0.0
C1233 C 0.92001 0.04463 0.14847 0.0
C1234 C 0.95667 0.06319 0.13756 0.0
C1235 C 0.95161 0.04992 0.11636 0.0
C1236 C 0.9294 0.03611 0.11012 0.0
C1237 C 0.91366 0.03371 0.12632 0.0
C1238 C 0.97965 0.07905 0.14417 0.0
C1239 C 0.92325 0.02228 0.08729 0.0
C1240 C 0.99389 0.05671 0.0723 0.0
C1241 C 1.00777 0.04159 0.07859 0.0
C1242 C 0.9757 0.06002 0.0846 0.0
C1243 C 0.9709 0.04734 0.10311 0.0
C1244 C 0.98486 0.03199 0.10945 0.0
C1245 C 1.00333 0.02951 0.09726 0.0
C1246 C 0.96163 0.07682 0.07735 0.0
C1247 C 0.98014 0.018 0.12899 0.0
H1248 H 0.94552 0.06886 0.17064 0.0
H1249 H 0.89741 0.02181 0.12237 0.0
H1250 H 0.99366 0.06982 0.14858 0.0
H1251 H 0.98423 0.0885 0.12948 0.0
H1252 H 0.97925 0.09067 0.15927 0.0
H1253 H 0.90446 0.0144 0.08396 0.0
H1254 H 0.92758 0.03241 0.07305 0.0
H1255 H 0.9337 1.00926 0.08716 0.0
H1256 H 0.99731 0.06614 0.05782 0.0
H1257 H 0.01394 0.0177 0.10199 0.0
H1258 H 0.95337 0.08334 0.09163 0.0
H1259 H 0.94766 0.06915 0.06316 0.0
H1260 H 0.97279 0.09076 0.07073 0.0
H1261 H 0.98222 0.02857 0.1454 0.0
H1262 H 0.99207 1.00627 0.13109 0.0
H1263 H 0.9619 1.00859 0.12592 0.0
C1264 C 0.29074 0.71358 0.43373 0.0
C1265 C 0.30705 0.72318 0.45281 0.0
C1266 C 0.29106 0.72203 0.41221 0.0
C1267 C 0.30869 0.74009 0.40933 0.0
C1268 C 0.32519 0.74996 0.42861 0.0
C1269 C 0.32391 0.74163 0.45026 0.0
C1270 C 0.27264 0.7114 0.39245 0.0
C1271 C 0.34472 0.76878 0.42617 0.0
C1272 C 0.32251 0.74355 0.34773 0.0
C1273 C 0.31198 0.76074 0.34067 0.0
C1274 C 0.32225 0.73724 0.37023 0.0
C1275 C 0.3104 0.74779 0.38588 0.0
C1276 C 0.29941 0.76497 0.37869 0.0
C1277 C 0.30076 0.77155 0.35632 0.0
C1278 C 0.33485 0.71935 0.37728 0.0
C1279 C 0.28588 0.77614 0.39447 0.0
H1280 H 0.27752 0.69943 0.4357 0.0
H1281 H 0.33662 0.749 0.46494 0.0
H1282 H 0.26424 0.72397 0.38437 0.0
H1283 H 0.28082 0.70342 0.379 0.0
H1284 H 0.25892 0.69886 0.39802 0.0
H1285 H 0.35584 0.77495 0.44284 0.0
H1286 H 0.35582 0.76345 0.41377 0.0
H1287 H 0.33754 0.78248 0.41911 0.0
H1288 H 0.33161 0.73544 0.33583 0.0
H1289 H 0.29268 0.78489 0.35092 0.0
H1290 H 0.32212 0.70492 0.38093 0.0
H1291 H 0.34711 0.72508 0.39335 0.0
H1292 H 0.34481 0.71404 0.36374 0.0
H1293 H 0.27166 0.76386 0.39964 0.0
H1294 H 0.27812 0.78902 0.38623 0.0
H1295 H 0.29743 0.78371 0.41045 0.0
C1296 C 0.57234 0.93161 0.65487 0.0
C1297 C 0.59633 0.93764 0.66265 0.0
C1298 C 0.56301 0.93785 0.6339 0.0
C1299 C 0.5781 0.95037 0.62066 0.0
C1300 C 0.60257 0.9534 0.62668 0.0
C1301 C 0.61147 0.94688 0.64771 0.0
C1302 C 0.53687 0.9335 0.62752 0.0
C1303 C 0.61927 0.96608 0.61252 0.0
C1304 C 0.55809 0.97278 0.56513 0.0
C1305 C 0.55744 0.99434 0.57321 0.0
C1306 C 0.56358 0.9577 0.58041 0.0
C1307 C 0.56865 0.96446 0.60425 0.0
C1308 C 0.56641 0.9857 0.61262 0.0
C1309 C 0.56072 1.00035 0.59697 0.0
C1310 C 0.56538 0.93512 0.57081 0.0
C1311 C 0.57141 0.99348 0.63803 0.0
H1312 H 0.56062 0.92393 0.66617 0.0
H1313 H 0.63008 0.95119 0.65343 0.0
H1314 H 0.53027 0.94831 0.63289 0.0
H1315 H 0.53192 0.92985 0.60861 0.0
H1316 H 0.52812 0.91963 0.63623 0.0
H1317 H 0.63742 0.9638 0.61723 0.0
H1318 H 0.61388 0.96102 0.59387 0.0
H1319 H 0.6191 0.98379 0.61544 0.0
H1320 H 0.5554 0.9679 0.54676 0.0
H1321 H 0.56008 0.0169 0.60337 0.0
H1322 H 0.55959 0.92256 0.58247 0.0
H1323 H 0.58385 0.93493 0.56891 0.0
H1324 H 0.55486 0.93046 0.55356 0.0
H1325 H 0.56067 0.98198 0.64796 0.0
H1326 H 0.56782 0.0101 0.64174 0.0
H1327 H 0.59 0.99386 0.6444 0.0
C1328 C 0.28772 0.39089 0.93318 0.0
C1329 C 0.29097 0.38226 0.95471 0.0
C1330 C 0.29023 0.37955 0.91199 0.0
C1331 C 0.29622 0.35853 0.91142 0.0
C1332 C 0.29923 0.34946 0.93301 0.0
C1333 C 0.29664 0.36127 0.95412 0.0
C1334 C 0.28676 0.39038 0.89003 0.0
C1335 C 0.3055 0.32724 0.93385 0.0
C1336 C 0.28452 0.32282 0.8519 0.0
C1337 C 0.30647 0.32629 0.84386 0.0
C1338 C 0.28106 0.33264 0.87368 0.0
C1339 C 0.29987 0.34663 0.88843 0.0
C1340 C 0.32206 0.35007 0.88043 0.0
C1341 C 0.32505 0.34 0.85867 0.0
C1342 C 0.25702 0.32809 0.88085 0.0
C1343 C 0.34285 0.36473 0.89487 0.0
H1344 H 0.28339 0.40697 0.93281 0.0
H1345 H 0.29939 0.35411 0.97024 0.0
H1346 H 0.30311 0.39291 0.88209 0.0
H1347 H 0.27307 0.37963 0.87743 0.0
H1348 H 0.28165 0.40647 0.89297 0.0
H1349 H 0.30637 0.32184 0.9515 0.0
H1350 H 0.29248 0.31493 0.92209 0.0
H1351 H 0.32267 0.32762 0.92776 0.0
H1352 H 0.26984 0.31233 0.84111 0.0
H1353 H 0.34219 0.34306 0.85319 0.0
H1354 H 0.25051 0.34357 0.88267 0.0
H1355 H 0.25773 0.32152 0.89793 0.0
H1356 H 0.24436 0.31623 0.86825 0.0
H1357 H 0.33957 0.38159 0.89737 0.0
H1358 H 0.3591 0.36539 0.88688 0.0
H1359 H 0.34558 0.35887 0.91219 0.0
C1360 C 0.96051 0.98894 0.26987 0.0
C1361 C 0.94278 1.00078 0.26535 0.0
C1362 C 0.97173 0.98907 0.29231 0.0
C1363 C 0.96523 1.00155 0.31061 0.0
C1364 C 0.94686 0.013 0.3063 0.0
C1365 C 0.93575 0.01238 0.2837 0.0
C1366 C 0.99105 0.97641 0.29634 0.0
C1367 C 0.93958 0.02659 0.32539 0.0
C1368 C 0.98542 0.99121 0.37193 0.0
C1369 C 1.00565 1.00752 0.37748 0.0
C1370 C 0.97191 0.98912 0.35024 0.0
C1371 C 0.97875 1.00384 0.33392 0.0
C1372 C 0.99893 0.02059 0.33964 0.0
C1373 C 1.01219 0.02217 0.36134 0.0
C1374 C 0.95063 0.97094 0.34461 0.0
C1375 C 1.00662 0.03674 0.32276 0.0
H1376 H 0.96586 0.97975 0.25579 0.0
H1377 H 0.92205 0.02156 0.28034 0.0
H1378 H 1.0079 0.98796 0.30189 0.0
H1379 H 0.98787 0.96567 0.31036 0.0
H1380 H 0.99272 0.96615 0.28062 0.0
H1381 H 0.924 0.03334 0.31944 0.0
H1382 H 0.93566 0.01663 0.33986 0.0
H1383 H 0.95413 0.04043 0.33223 0.0
H1384 H 0.98048 0.97978 0.38438 0.0
H1385 H 0.02768 0.03495 0.36576 0.0
H1386 H 0.95287 0.95974 0.32989 0.0
H1387 H 0.935 0.9778 0.33929 0.0
H1388 H 0.94733 0.96125 0.35945 0.0
H1389 H 1.01065 0.02794 0.30713 0.0
H1390 H 0.0223 0.04922 0.33019 0.0
H1391 H 0.99231 0.04526 0.31719 0.0
C1392 C 0.28612 0.71426 0.61097 0.0
C1393 C 0.30409 0.71633 0.59711 0.0
C1394 C 0.28946 0.72514 0.63328 0.0
C1395 C 0.31162 0.73793 0.64244 0.0
C1396 C 0.32984 0.74024 0.62844 0.0
C1397 C 0.32576 0.72968 0.60581 0.0
C1398 C 0.26926 0.72273 0.64713 0.0
C1399 C 0.35387 0.75324 0.63767 0.0
C1400 C 0.31395 0.77977 0.69381 0.0
C1401 C 0.31892 0.76799 0.71268 0.0
C1402 C 0.31192 0.77036 0.67097 0.0
C1403 C 0.3155 0.74873 0.66667 0.0
C1404 C 0.32129 0.73698 0.68564 0.0
C1405 C 0.3226 0.74661 0.70836 0.0
C1406 C 0.30499 0.78328 0.65143 0.0
C1407 C 0.3257 0.71406 0.68194 0.0
H1408 H 0.26933 0.70396 0.60433 0.0
H1409 H 0.33981 0.73105 0.59532 0.0
H1410 H 0.27327 0.71417 0.66257 0.0
H1411 H 0.26646 0.73911 0.65329 0.0
H1412 H 0.2528 0.71337 0.63702 0.0
H1413 H 0.3661 0.75368 0.62463 0.0
H1414 H 0.35291 0.77029 0.64348 0.0
H1415 H 0.36109 0.74594 0.65292 0.0
H1416 H 0.31078 0.79619 0.69687 0.0
H1417 H 0.32649 0.73737 0.72277 0.0
H1418 H 0.28788 0.77478 0.6419 0.0
H1419 H 0.31786 0.78432 0.63904 0.0
H1420 H 0.30361 0.80016 0.65757 0.0
H1421 H 0.30936 0.70275 0.67404 0.0
H1422 H 0.3321 0.7079 0.6983 0.0
H1423 H 0.33873 0.71359 0.66983 0.0
C1424 C 0.56251 0.97404 0.79309 0.0
C1425 C 0.55377 0.97898 0.77125 0.0
C1426 C 0.55383 0.98111 0.81285 0.0
C1427 C 0.53604 0.99347 0.81069 0.0
C1428 C 0.52611 0.99735 0.78862 0.0
C1429 C 0.53508 0.99 0.7691 0.0
C1430 C 0.56471 0.97648 0.83615 0.0
C1431 C 0.50705 0.0104 0.7857 0.0
C1432 C 0.50938 1.00265 0.86523 0.0
C1433 C 0.52362 0.02251 0.87506 0.0
C1434 C 0.51236 0.99339 0.84359 0.0
C1435 C 0.52992 1.00436 0.83168 0.0
C1436 C 0.54336 0.02505 0.84097 0.0
C1437 C 0.54005 0.03386 0.86259 0.0
C1438 C 0.49768 0.97135 0.83414 0.0
C1439 C 0.56212 0.03736 0.82865 0.0
H1440 H 0.57674 0.96529 0.79488 0.0
H1441 H 0.52813 0.99379 0.75226 0.0
H1442 H 0.57472 0.992 0.84574 0.0
H1443 H 0.55099 0.96958 0.84649 0.0
H1444 H 0.5767 0.96487 0.83472 0.0
H1445 H 0.49898 1.00931 0.76745 0.0
H1446 H 0.49323 1.00465 0.7964 0.0
H1447 H 0.51443 0.02787 0.79162 0.0
H1448 H 0.49673 0.99384 0.87495 0.0
H1449 H 0.5508 0.04939 0.8701 0.0
H1450 H 0.50863 0.95875 0.83514 0.0
H1451 H 0.49082 0.97148 0.81572 0.0
H1452 H 0.48278 0.96644 0.84387 0.0
H1453 H 0.57641 0.02814 0.82803 0.0
H1454 H 0.56962 0.05403 0.8373 0.0
H1455 H 0.555 0.03887 0.81061 0.0
C1456 C 0.29874 0.36002 0.10721 0.0
C1457 C 0.29362 0.38118 0.10611 0.0
C1458 C 0.30038 0.34968 0.12826 0.0
C1459 C 0.29601 0.36 0.14937 0.0
C1460 C 0.29038 0.38118 0.14823 0.0
C1461 C 0.2897 0.39148 0.12712 0.0
C1462 C 0.30725 0.32764 0.12792 0.0
C1463 C 0.2847 0.39304 0.16942 0.0
C1464 C 0.27991 0.32309 0.19921 0.0
C1465 C 0.30026 0.3276 0.2156 0.0
C1466 C 0.27814 0.33363 0.17829 0.0
C1467 C 0.29743 0.34882 0.17238 0.0
C1468 C 0.31814 0.35315 0.18872 0.0
C1469 C 0.31914 0.34298 0.20989 0.0
C1470 C 0.2553 0.32858 0.1625 0.0
C1471 C 0.33967 0.36834 0.18365 0.0
H1472 H 0.30202 0.35159 0.09154 0.0
H1473 H 0.28559 0.40765 0.12704 0.0
H1474 H 0.32264 0.3283 0.14104 0.0
H1475 H 0.29283 0.31521 0.13247 0.0
H1476 H 0.3115 0.32216 0.1108 0.0
H1477 H 0.27912 0.40859 0.16574 0.0
H1478 H 0.27058 0.3824 0.17671 0.0
H1479 H 0.3002 0.39681 0.18282 0.0
H1480 H 0.26501 0.31141 0.20288 0.0
H1481 H 0.33519 0.34672 0.22182 0.0
H1482 H 0.25758 0.32032 0.14583 0.0
H1483 H 0.24949 0.34402 0.15878 0.0
H1484 H 0.24136 0.31788 0.16999 0.0
H1485 H 0.3444 0.36272 0.16681 0.0
H1486 H 0.35481 0.36926 0.19716 0.0
H1487 H 0.33616 0.38504 0.1823 0.0
C1488 C 0.24272 0.91104 0.06237 0.0
C1489 C 0.2666 0.92034 0.06552 0.0
C1490 C 0.22626 0.92353 0.06783 0.0
C1491 C 0.23395 0.94572 0.0769 0.0
C1492 C 0.25811 0.95489 0.08093 0.0
C1493 C 0.2741 0.94214 0.07509 0.0
C1494 C 0.20063 0.91323 0.06313 0.0
C1495 C 0.26704 0.97839 0.09078 0.0
C1496 C 0.19326 0.9853 0.06607 0.0
C1497 C 0.18433 0.987 0.0871 0.0
C1498 C 0.2092 0.97178 0.06252 0.0
C1499 C 0.21676 0.95985 0.08056 0.0
C1500 C 0.20824 0.96181 0.10202 0.0
C1501 C 0.19206 0.97533 0.10503 0.0
C1502 C 0.21786 0.97021 0.03938 0.0
C1503 C 0.21611 0.94952 0.12173 0.0
H1504 H 0.23683 0.89423 0.05504 0.0
H1505 H 0.29259 0.94938 0.07781 0.0
H1506 H 0.19222 0.9154 0.07884 0.0
H1507 H 0.19191 0.92154 0.04955 0.0
H1508 H 0.19757 0.89548 0.05739 0.0
H1509 H 0.28638 0.98251 0.09455 0.0
H1510 H 0.26131 0.98953 0.07839 0.0
H1511 H 0.25966 0.98162 0.1069 0.0
H1512 H 0.18775 0.9946 0.05227 0.0
H1513 H 0.18509 0.97639 0.12124 0.0
H1514 H 0.21391 0.95291 0.03183 0.0
H1515 H 0.23708 0.97582 0.04151 0.0
H1516 H 0.20986 0.98019 0.02699 0.0
H1517 H 0.21134 0.93164 0.11662 0.0
H1518 H 0.2082 0.95314 0.13746 0.0
H1519 H 0.23537 0.95382 0.12599 0.0
C1520 C 0.73922 0.635 0.00801 0.0
C1521 C 0.75906 0.62692 0.01647 0.0
C1522 C 0.71609 0.62357 0.00914 0.0
C1523 C 0.71207 0.60345 0.01941 0.0
C1524 C 0.73203 0.59515 0.02788 0.0
C1525 C 0.75498 0.60675 0.02617 0.0
C1526 C 0.69583 0.63324 0.99946 0.0
C1527 C 0.72918 0.57413 0.03933 0.0
C1528 C 0.65305 0.58655 0.04323 0.0
C1529 C 0.63978 0.57027 0.0264 0.0
C1530 C 0.67634 0.59698 0.04138 0.0
C1531 C 0.68719 0.59161 0.02194 0.0
C1532 C 0.67394 0.57513 1.00489 0.0
C1533 C 0.65075 0.56466 0.00738 0.0
C1534 C 0.68936 0.61398 0.06034 0.0
C1535 C 0.68414 0.56883 0.98364 0.0
H1536 H 0.74176 0.65047 1.00047 0.0
H1537 H 0.76985 0.60018 0.03301 0.0
H1538 H 0.68366 0.62102 0.98682 0.0
H1539 H 0.68594 0.63745 0.01349 0.0
H1540 H 0.70154 0.64823 0.99085 0.0
H1541 H 0.74616 0.56949 0.04472 0.0
H1542 H 0.72023 0.5759 0.05475 0.0
H1543 H 0.71804 0.5606 0.02742 0.0
H1544 H 0.64517 0.59126 0.05808 0.0
H1545 H 0.64096 0.55238 0.99403 0.0
H1546 H 0.69367 0.6301 0.0534 0.0
H1547 H 0.70608 0.60957 0.06712 0.0
H1548 H 0.67913 0.61574 0.07484 0.0
H1549 H 0.68856 0.58337 0.97401 0.0
H1550 H 0.67196 0.55572 0.97198 0.0
H1551 H 0.70056 0.56309 0.9886 0.0
C1552 C 0.74145 0.49985 0.33352 0.0
C1553 C 0.74998 0.5222 0.33237 0.0
C1554 C 0.75334 0.48409 0.32538 0.0
C1555 C 0.77416 0.4909 0.31579 0.0
C1556 C 0.78314 0.51346 0.31505 0.0
C1557 C 0.77096 0.52886 0.32342 0.0
C1558 C 0.74337 0.46013 0.32659 0.0
C1559 C 0.80527 0.52128 0.30488 0.0
C1560 C 0.8133 0.44975 0.31027 0.0
C1561 C 0.80619 0.44075 0.2874 0.0
C1562 C 0.80335 0.46644 0.31967 0.0
C1563 C 0.78603 0.47433 0.30575 0.0
C1564 C 0.77937 0.4658 0.28242 0.0
C1565 C 0.78948 0.44901 0.27354 0.0
C1566 C 0.81076 0.47508 0.34466 0.0
C1567 C 0.76114 0.47402 0.267 0.0
H1568 H 0.72529 0.49462 0.34049 0.0
H1569 H 0.77765 0.54613 0.32249 0.0
H1570 H 0.73862 0.45166 0.30893 0.0
H1571 H 0.75665 0.45223 0.33577 0.0
H1572 H 0.72762 0.45762 0.33553 0.0
H1573 H 0.81042 0.53943 0.30647 0.0
H1574 H 0.81979 0.51457 0.31355 0.0
H1575 H 0.80285 0.51519 0.28636 0.0
H1576 H 0.82602 0.44316 0.32108 0.0
H1577 H 0.78414 0.44214 0.2558 0.0
H1578 H 0.79577 0.4711 0.35445 0.0
H1579 H 0.81626 0.49317 0.34627 0.0
H1580 H 0.82534 0.46804 0.35275 0.0
H1581 H 0.74415 0.47035 0.27371 0.0
H1582 H 0.75882 0.46645 0.24896 0.0
H1583 H 0.76603 0.49206 0.26697 0.0
C1584 C 0.90414 0.44275 0.55956 0.0
C1585 C 0.89221 0.43827 0.5371 0.0
C1586 C 0.92676 0.45578 0.56387 0.0
C1587 C 0.9378 0.46393 0.54519 0.0
C1588 C 0.92629 0.45819 0.52237 0.0
C1589 C 0.9035 0.44575 0.51865 0.0
C1590 C 0.93822 0.46191 0.58846 0.0
C1591 C 0.93768 0.46593 0.50189 0.0
C1592 C 0.98245 0.51707 0.55007 0.0
C1593 C 1.0033 0.50945 0.54992 0.0
C1594 C 0.96116 0.50247 0.55012 0.0
C1595 C 0.96064 0.47965 0.5493 0.0
C1596 C 0.98178 0.47195 0.55005 0.0
C1597 C 1.00291 0.48699 0.55066 0.0
C1598 C 0.93909 0.51142 0.54996 0.0
C1599 C 0.98197 0.44777 0.54864 0.0
H1600 H 0.89526 0.4372 0.57385 0.0
H1601 H 0.89426 0.44222 0.50127 0.0
H1602 H 0.95628 0.45893 0.59048 0.0
H1603 H 0.93939 0.47967 0.59301 0.0
H1604 H 0.92836 0.45264 0.60083 0.0
H1605 H 0.92742 0.45815 0.48527 0.0
H1606 H 0.93951 0.48394 0.50203 0.0
H1607 H 0.95545 0.46227 0.50285 0.0
H1608 H 0.98272 0.53443 0.54962 0.0
H1609 H 0.01896 0.48098 0.55031 0.0
H1610 H 0.92856 0.50408 0.56296 0.0
H1611 H 0.92833 0.50699 0.53284 0.0
H1612 H 0.94275 0.52953 0.55359 0.0
H1613 H 0.97143 0.43964 0.56119 0.0
H1614 H 0.99992 0.44457 0.55193 0.0
H1615 H 0.97395 0.44009 0.5312 0.0
C1616 C 0.40621 0.1494 0.30414 0.0
C1617 C 0.41076 0.13433 0.31972 0.0
C1618 C 0.38382 0.15388 0.29945 0.0
C1619 C 0.36574 0.1436 0.31126 0.0
C1620 C 0.37047 0.129 0.32773 0.0
C1621 C 0.39289 0.12419 0.33145 0.0
C1622 C 0.37941 0.16925 0.28141 0.0
C1623 C 0.35185 0.11839 0.34123 0.0
C1624 C 0.31749 0.17546 0.30747 0.0
C1625 C 0.3028 0.16442 0.28786 0.0
C1626 C 0.33701 0.16765 0.31673 0.0
C1627 C 0.34204 0.14841 0.30611 0.0
C1628 C 0.32599 0.13595 0.28789 0.0
C1629 C 0.3064 0.14403 0.2791 0.0
C1630 C 0.35352 0.18125 0.33636 0.0
C1631 C 0.33077 0.11538 0.27599 0.0
H1632 H 0.41995 0.15702 0.29485 0.0
H1633 H 0.39647 0.11254 0.34355 0.0
H1634 H 0.36532 0.16077 0.26769 0.0
H1635 H 0.37348 0.18355 0.28924 0.0
H1636 H 0.39521 0.17535 0.27332 0.0
H1637 H 0.35867 0.10825 0.35419 0.0
H1638 H 0.34444 0.13113 0.35023 0.0
H1639 H 0.33735 0.10784 0.32936 0.0
H1640 H 0.31515 0.19132 0.31436 0.0
H1641 H 0.29489 0.13519 0.26423 0.0
H1642 H 0.36967 0.18926 0.32992 0.0
H1643 H 0.35865 0.17068 0.34966 0.0
H1644 H 0.34571 0.19422 0.3444 0.0
H1645 H 0.34482 0.11987 0.26515 0.0
H1646 H 0.31507 0.10586 0.26475 0.0
H1647 H 0.33689 0.10474 0.28872 0.0
C1648 C 0.40826 0.11122 0.54257 0.0
C1649 C 0.40307 0.12714 0.52779 0.0
C1650 C 0.42811 0.10125 0.54185 0.0
C1651 C 0.4442 0.10692 0.52595 0.0
C1652 C 0.43917 0.12295 0.51085 0.0
C1653 C 0.41898 0.13269 0.51189 0.0
C1654 C 0.43188 0.08449 0.55843 0.0
C1655 C 0.45532 0.12995 0.49352 0.0
C1656 C 0.50715 0.09469 0.54042 0.0
C1657 C 0.50655 0.07475 0.52707 0.0
C1658 C 0.48758 0.10531 0.53986 0.0
C1659 C 0.46609 0.09624 0.52555 0.0
C1660 C 0.46542 0.07624 0.51184 0.0
C1661 C 0.48527 0.06593 0.51274 0.0
C1662 C 0.48993 0.12637 0.55496 0.0
C1663 C 0.44345 0.06547 0.49619 0.0
H1664 H 0.3966 0.10637 0.55505 0.0
H1665 H 0.41577 0.14481 0.50025 0.0
H1666 H 0.43257 0.06877 0.54875 0.0
H1667 H 0.44887 0.09009 0.56957 0.0
H1668 H 0.41789 0.08145 0.56961 0.0
H1669 H 0.44927 0.14223 0.48276 0.0
H1670 H 0.47307 0.13706 0.50255 0.0
H1671 H 0.45674 0.1155 0.48206 0.0
H1672 H 0.52309 0.10214 0.5516 0.0
H1673 H 0.48401 0.05073 0.50212 0.0
H1674 H 0.47734 0.12408 0.56764 0.0
H1675 H 0.48561 0.13941 0.54435 0.0
H1676 H 0.50778 0.132 0.56447 0.0
H1677 H 0.42904 0.0609 0.50658 0.0
H1678 H 0.4456 0.05053 0.48592 0.0
H1679 H 0.43814 0.07714 0.48422 0.0
C1680 C 0.74645 0.66548 0.36946 0.0
C1681 C 0.74947 0.6446 0.36178 0.0
C1682 C 0.76089 0.68427 0.36373 0.0
C1683 C 0.77816 0.68195 0.34945 0.0
C1684 C 0.7829 0.661 0.34381 0.0
C1685 C 0.7686 0.6425 0.35031 0.0
C1686 C 0.75595 0.70645 0.37084 0.0
C1687 C 0.80105 0.65783 0.32848 0.0
C1688 C 0.78033 0.72158 0.30392 0.0
C1689 C 0.8012 0.73638 0.31173 0.0
C1690 C 0.77318 0.7034 0.31571 0.0
C1691 C 0.787 0.70031 0.33619 0.0
C1692 C 0.80838 0.71504 0.34399 0.0
C1693 C 0.81541 0.73289 0.33142 0.0
C1694 C 0.75046 0.68785 0.30649 0.0
C1695 C 0.82316 0.71262 0.3661 0.0
H1696 H 0.73194 0.66713 0.37874 0.0
H1697 H 0.77109 0.62636 0.34447 0.0
H1698 H 0.77243 0.71871 0.37565 0.0
H1699 H 0.74576 0.7121 0.35614 0.0
H1700 H 0.74574 0.70588 0.38559 0.0
H1701 H 0.80569 0.64146 0.32941 0.0
H1702 H 0.79407 0.65926 0.31036 0.0
H1703 H 0.81713 0.6706 0.33316 0.0
H1704 H 0.76945 0.72434 0.2886 0.0
H1705 H 0.83142 0.74462 0.33755 0.0
H1706 H 0.73754 0.6888 0.3186 0.0
H1707 H 0.75315 0.67073 0.30494 0.0
H1708 H 0.74292 0.69164 0.28934 0.0
H1709 H 0.8145 0.7173 0.38093 0.0
H1710 H 0.84082 0.7232 0.36782 0.0
H1711 H 0.825 0.69537 0.36721 0.0
C1712 C 0.97096 0.52174 0.83524 0.0
C1713 C 0.99504 0.52529 0.83413 0.0
C1714 C 0.95771 0.5005 0.83465 0.0
C1715 C 0.96878 0.48236 0.83289 0.0
C1716 C 0.99326 0.48586 0.83319 0.0
C1717 C 1.00612 0.5073 0.83385 0.0
C1718 C 0.93166 0.49743 0.83462 0.0
C1719 C 1.00571 0.46692 0.83146 0.0
C1720 C 0.93551 0.42608 0.84236 0.0
C1721 C 0.9273 0.41703 0.81962 0.0
C1722 C 0.94907 0.44734 0.84702 0.0
C1723 C 0.9545 0.45981 0.82849 0.0
C1724 C 0.94618 0.45078 0.80552 0.0
C1725 C 0.93269 0.42951 0.80137 0.0
C1726 C 0.95772 0.4564 0.87172 0.0
C1727 C 0.95155 0.46361 0.78529 0.0
H1728 H 0.96224 0.53553 0.83568 0.0
H1729 H 0.02472 0.50984 0.8331 0.0
H1730 H 0.92257 0.48992 0.81746 0.0
H1731 H 0.92589 0.48612 0.84748 0.0
H1732 H 0.9261 0.51317 0.83849 0.0
H1733 H 0.02498 0.47241 0.83436 0.0
H1734 H 1.00054 0.45524 0.84418 0.0
H1735 H 1.00062 0.45789 0.81407 0.0
H1736 H 0.93166 0.41638 0.85652 0.0
H1737 H 0.92617 0.42268 0.7838 0.0
H1738 H 0.95169 0.47188 0.87552 0.0
H1739 H 0.97707 0.46032 0.87448 0.0
H1740 H 0.95161 0.44473 0.88417 0.0
H1741 H 0.94471 0.47894 0.78658 0.0
H1742 H 0.94385 0.45417 0.7685 0.0
H1743 H 0.97071 0.46833 0.78552 0.0
C1744 C 0.09669 0.91385 0.11483 0.0
C1745 C 0.09509 0.89125 0.11047 0.0
C1746 C 0.08616 0.92569 0.09879 0.0
C1747 C 0.07347 0.91462 0.07789 0.0
C1748 C 0.0714 0.89172 0.07349 0.0
C1749 C 0.08239 0.88028 0.08982 0.0
C1750 C 0.08913 0.9502 0.10408 0.0
C1751 C 0.05801 0.87945 0.0514 0.0
C1752 C 0.03763 0.95275 0.05213 0.0
C1753 C 0.05418 0.96489 0.04041 0.0
C1754 C 0.0423 0.93405 0.06223 0.0
C1755 C 0.06392 0.92771 0.06039 0.0
C1756 C 0.07899 0.93819 0.04572 0.0
C1757 C 0.07391 0.95675 0.03592 0.0
C1758 C 0.0256 0.92303 0.07739 0.0
C1759 C 0.10214 0.93197 0.0431 0.0
H1760 H 0.10649 0.92243 0.13073 0.0
H1761 H 0.08102 0.86277 0.08644 0.0
H1762 H 0.09875 0.95882 0.09115 0.0
H1763 H 0.07183 0.9549 0.10304 0.0
H1764 H 0.09885 0.95611 0.12147 0.0
H1765 H 0.05577 0.86143 0.05176 0.0
H1766 H 0.04055 0.88371 0.04812 0.0
H1767 H 0.06741 0.8843 0.03671 0.0
H1768 H 0.0224 0.95916 0.05562 0.0
H1769 H 0.0866 0.9662 0.02667 0.0
H1770 H 0.0318 0.92955 0.09561 0.0
H1771 H 0.02477 0.90509 0.07612 0.0
H1772 H 1.00776 0.92616 0.07281 0.0
H1773 H 0.11495 0.93923 0.05841 0.0
H1774 H 0.10914 0.93818 0.02754 0.0
H1775 H 0.10064 0.91397 0.04201 0.0
C1776 C 0.94927 0.19553 0.83101 0.0
C1777 C 0.95653 0.20532 0.85358 0.0
C1778 C 0.9279 0.19758 0.81901 0.0
C1779 C 0.91389 0.21019 0.8297 0.0
C1780 C 0.9199 0.21793 0.85335 0.0
C1781 C 0.94119 0.21522 0.86514 0.0
C1782 C 0.92164 0.18832 0.79411 0.0
C1783 C 0.90527 0.23128 0.86543 0.0
C1784 C 0.88741 0.24847 0.79245 0.0
C1785 C 0.86361 0.23893 0.7896 0.0
C1786 C 0.90384 0.23902 0.80522 0.0
C1787 C 0.89637 0.21931 0.81513 0.0
C1788 C 0.87253 0.20897 0.81141 0.0
C1789 C 0.85636 0.21901 0.7988 0.0
C1790 C 0.92915 0.25063 0.80874 0.0
C1791 C 0.86392 0.18781 0.8214 0.0
H1792 H 0.96103 0.18757 0.82219 0.0
H1793 H 0.9468 0.22277 0.88261 0.0
H1794 H 0.90269 0.18134 0.7901 0.0
H1795 H 0.92585 0.20163 0.78283 0.0
H1796 H 0.93149 0.1754 0.78987 0.0
H1797 H 0.91017 0.23306 0.88444 0.0
H1798 H 0.90773 0.24787 0.85933 0.0
H1799 H 0.88648 0.22371 0.86132 0.0
H1800 H 0.8932 0.26385 0.78542 0.0
H1801 H 0.83797 0.21156 0.79675 0.0
H1802 H 0.94011 0.23966 0.8021 0.0
H1803 H 0.93528 0.25492 0.82741 0.0
H1804 H 0.932 0.26587 0.79992 0.0
H1805 H 0.87606 0.17638 0.8198 0.0
H1806 H 0.84627 0.17956 0.81287 0.0
H1807 H 0.86296 0.19128 0.84001 0.0
C1808 C 0.63052 0.28141 0.64453 0.0
C1809 C 0.6472 0.2896 0.6638 0.0
C1810 C 0.62679 0.25944 0.63556 0.0
C1811 C 0.64025 0.24535 0.64593 0.0
C1812 C 0.65766 0.25364 0.66489 0.0
C1813 C 0.66085 0.27565 0.67369 0.0
C1814 C 0.60794 0.25115 0.61542 0.0
C1815 C 0.67256 0.23916 0.6762 0.0
C1816 C 0.61392 0.18455 0.63883 0.0
C1817 C 0.62478 0.17703 0.62074 0.0
C1818 C 0.61892 0.20673 0.64727 0.0
C1819 C 0.63535 0.22171 0.63753 0.0
C1820 C 0.64659 0.21417 0.61944 0.0
C1821 C 0.64106 0.19192 0.61116 0.0
C1822 C 0.60637 0.21419 0.6664 0.0
C1823 C 0.6644 0.22962 0.60881 0.0
H1824 H 0.61985 0.29203 0.6368 0.0
H1825 H 0.67388 0.28187 0.68848 0.0
H1826 H 0.61529 0.24345 0.60115 0.0
H1827 H 0.59429 0.23837 0.6207 0.0
H1828 H 0.59957 0.26439 0.60881 0.0
H1829 H 0.68632 0.24844 0.68982 0.0
H1830 H 0.66145 0.2261 0.68407 0.0
H1831 H 0.68101 0.23097 0.66313 0.0
H1832 H 0.60116 0.1731 0.64611 0.0
H1833 H 0.64967 0.18608 0.59735 0.0
H1834 H 0.59626 0.22651 0.66047 0.0
H1835 H 0.61918 0.22222 0.68138 0.0
H1836 H 0.59424 0.20043 0.67223 0.0
H1837 H 0.6562 0.24241 0.60096 0.0
H1838 H 0.67206 0.22104 0.59534 0.0
H1839 H 0.67869 0.2381 0.62233 0.0
C1840 C 0.62296 0.73104 0.41053 0.0
C1841 C 0.60354 0.71542 0.4 0.0
C1842 C 0.64242 0.7369 0.399 0.0
C1843 C 0.64218 0.72695 0.37653 0.0
C1844 C 0.62381 0.7094 0.36709 0.0
C1845 C 0.60474 0.70376 0.37904 0.0
C1846 C 0.66209 0.7552 0.40989 0.0
C1847 C 0.62301 0.69819 0.34326 0.0
C1848 C 0.66553 0.762 0.33144 0.0
C1849 C 0.68541 0.75384 0.32766 0.0
C1850 C 0.65182 0.75387 0.34798 0.0
C1851 C 0.65834 0.73734 0.36119 0.0
C1852 C 0.67893 0.72965 0.35809 0.0
C1853 C 0.69224 0.73797 0.34124 0.0
C1854 C 0.62978 0.76231 0.35058 0.0
C1855 C 0.68669 0.71245 0.37226 0.0
H1856 H 0.62226 0.73988 0.42692 0.0
H1857 H 0.58994 0.69134 0.37108 0.0
H1858 H 0.6792 0.75173 0.40642 0.0
H1859 H 0.66002 0.77061 0.40234 0.0
H1860 H 0.66222 0.75785 0.42882 0.0
H1861 H 0.60932 0.68301 0.33981 0.0
H1862 H 0.61922 0.7095 0.33022 0.0
H1863 H 0.64008 0.69397 0.34092 0.0
H1864 H 0.66024 0.77418 0.32084 0.0
H1865 H 0.70791 0.73198 0.33855 0.0
H1866 H 0.62983 0.76849 0.36877 0.0
H1867 H 0.61437 0.74876 0.34589 0.0
H1868 H 0.62768 0.77571 0.33953 0.0
H1869 H 0.69104 0.71909 0.39062 0.0
H1870 H 0.7022 0.70711 0.36654 0.0
H1871 H 0.67239 0.69789 0.37128 0.0
C1872 C 0.08952 0.21433 0.46651 0.0
C1873 C 0.07294 0.21837 0.44855 0.0
C1874 C 0.0883 0.19337 0.47578 0.0
C1875 C 0.06959 0.17512 0.46788 0.0
C1876 C 0.0526 0.17923 0.45002 0.0
C1877 C 0.05463 0.20014 0.44057 0.0
C1878 C 0.10751 0.19071 0.49406 0.0
C1879 C 0.03181 0.16141 0.44087 0.0
C1880 C 0.07463 0.11352 0.47722 0.0
C1881 C 0.06455 0.10894 0.49758 0.0
C1882 C 0.07661 0.13445 0.46781 0.0
C1883 C 0.06778 0.15213 0.47813 0.0
C1884 C 0.05721 0.14745 0.49844 0.0
C1885 C 0.05611 0.1266 0.50788 0.0
C1886 C 0.08871 0.13777 0.44677 0.0
C1887 C 0.04674 0.16462 0.51036 0.0
H1888 H 0.10398 0.22761 0.47318 0.0
H1889 H 0.04142 0.20228 0.42692 0.0
H1890 H 0.10029 0.18719 0.5103 0.0
H1891 H 0.11514 0.17655 0.48864 0.0
H1892 H 0.12162 0.20555 0.49761 0.0
H1893 H 0.01927 0.1671 0.42818 0.0
H1894 H 0.03767 0.14735 0.43245 0.0
H1895 H 0.02262 0.15535 0.4553 0.0
H1896 H 0.08164 0.10074 0.46874 0.0
H1897 H 0.04824 0.12407 0.52349 0.0
H1898 H 0.10325 0.15224 0.45035 0.0
H1899 H 0.07635 0.14112 0.43233 0.0
H1900 H 0.09578 0.12328 0.44119 0.0
H1901 H 0.06063 0.17898 0.51725 0.0
H1902 H 0.03762 0.15841 0.52479 0.0
H1903 H 0.03415 0.17041 0.49782 0.0
C1904 C 0.64822 0.30947 0.17537 0.0
C1905 C 0.62819 0.30782 0.18667 0.0
C1906 C 0.67075 0.3093 0.18725 0.0
C1907 C 0.67406 0.3075 0.21142 0.0
C1908 C 0.65395 0.30609 0.22299 0.0
C1909 C 0.63156 0.30621 0.21065 0.0
C1910 C 0.69111 0.31074 0.17373 0.0
C1911 C 0.65604 0.30424 0.24858 0.0
C1912 C 0.72789 0.2854 0.23823 0.0
C1913 C 0.74414 0.30445 0.24787 0.0
C1914 C 0.70542 0.28617 0.22663 0.0
C1915 C 0.69824 0.30651 0.22431 0.0
C1916 C 0.71449 0.32582 0.23411 0.0
C1917 C 0.73695 0.32459 0.24556 0.0
C1918 C 0.6893 0.265 0.21664 0.0
C1919 C 0.70817 0.34798 0.23243 0.0
H1920 H 0.64628 0.31064 0.15694 0.0
H1921 H 0.61657 0.30484 0.21987 0.0
H1922 H 0.70507 0.32491 0.18108 0.0
H1923 H 0.69859 0.2958 0.17506 0.0
H1924 H 0.68607 0.31252 0.15523 0.0
H1925 H 0.63921 0.30403 0.25539 0.0
H1926 H 0.66216 0.289 0.25249 0.0
H1927 H 0.66923 0.31817 0.25783 0.0
H1928 H 0.73279 0.26964 0.23959 0.0
H1929 H 0.74896 0.33956 0.25271 0.0
H1930 H 0.68491 0.26523 0.19776 0.0
H1931 H 0.67272 0.2632 0.22415 0.0
H1932 H 0.69711 0.25048 0.21988 0.0
H1933 H 0.70445 0.35089 0.21407 0.0
H1934 H 0.72229 0.36147 0.24112 0.0
H1935 H 0.69207 0.3485 0.24032 0.0
C1936 C 0.59175 0.88851 0.94059 0.0
C1937 C 0.58204 0.86822 0.94845 0.0
C1938 C 0.59019 0.90944 0.95136 0.0
C1939 C 0.57814 0.91129 0.97086 0.0
C1940 C 0.56835 0.89092 0.97909 0.0
C1941 C 0.57049 0.87004 0.96813 0.0
C1942 C 0.60148 0.92983 0.94152 0.0
C1943 C 0.555 0.89113 0.99941 0.0
C1944 C 0.59004 0.96788 0.00988 0.0
C1945 C 0.57192 0.97849 1.00151 0.0
C1946 C 0.59214 0.9465 1.00045 0.0
C1947 C 0.57561 0.93429 0.98202 0.0
C1948 C 0.55715 0.94482 0.9737 0.0
C1949 C 0.55566 0.96633 0.98321 0.0
C1950 C 0.61249 0.93703 0.01018 0.0
C1951 C 0.53867 0.93326 0.95451 0.0
H1952 H 0.60074 0.8881 0.92556 0.0
H1953 H 0.56248 0.85507 0.97469 0.0
H1954 H 0.58796 0.93888 0.93502 0.0
H1955 H 0.61366 0.94086 0.9552 0.0
H1956 H 0.61126 0.92612 0.92717 0.0
H1957 H 0.54856 0.8744 1.00421 0.0
H1958 H 0.56624 0.90098 0.0145 0.0
H1959 H 0.53986 0.89905 0.99532 0.0
H1960 H 0.60294 0.97643 0.02388 0.0
H1961 H 0.54135 0.97359 0.97625 0.0
H1962 H 0.62307 0.93386 0.99636 0.0
H1963 H 0.60607 0.92108 0.01675 0.0
H1964 H 0.62391 0.94807 0.02439 0.0
H1965 H 0.54671 0.93053 0.93868 0.0
H1966 H 0.52474 0.9427 0.95052 0.0
H1967 H 0.5306 0.91694 0.95924 0.0
C1968 C 0.96843 0.80499 0.68364 0.0
C1969 C 0.98616 0.79425 0.69258 0.0
C1970 C 0.94757 0.80515 0.69423 0.0
C1971 C 0.94377 0.79461 0.71474 0.0
C1972 C 0.96178 0.78409 0.72391 0.0
C1973 C 0.98215 0.78393 0.7129 0.0
C1974 C 0.92932 0.81648 0.68318 0.0
C1975 C 0.95959 0.77278 0.74564 0.0
C1976 C 0.8992 0.80995 0.75526 0.0
C1977 C 0.87957 0.7925 0.75031 0.0
C1978 C 0.91966 0.81093 0.74395 0.0
C1979 C 0.92124 0.79426 0.72656 0.0
C1980 C 0.90142 0.77669 0.72139 0.0
C1981 C 0.88131 0.77599 0.73314 0.0
C1982 C 0.93984 0.82996 0.75083 0.0
C1983 C 0.90138 0.75842 0.70318 0.0
H1984 H 0.97061 0.81302 0.66807 0.0
H1985 H 0.99522 0.77553 0.72051 0.0
H1986 H 0.91254 0.80459 0.67854 0.0
H1987 H 0.92628 0.82953 0.6956 0.0
H1988 H 0.93439 0.8239 0.66743 0.0
H1989 H 0.97516 0.7659 0.75124 0.0
H1990 H 0.95706 0.78449 0.75978 0.0
H1991 H 0.94402 0.75929 0.74286 0.0
H1992 H 0.89867 0.82305 0.76817 0.0
H1993 H 0.86665 0.7624 0.72857 0.0
H1994 H 0.94379 0.83878 0.73558 0.0
H1995 H 0.95567 0.82386 0.75732 0.0
H1996 H 0.93627 0.84172 0.76439 0.0
H1997 H 0.90472 0.76526 0.68669 0.0
H1998 H 0.88459 0.74636 0.70022 0.0
H1999 H 0.91563 0.74972 0.70835 0.0
C2000 C 0.17434 0.07225 0.93592 0.0
C2001 C 0.18301 0.05973 0.91961 0.0
C2002 C 0.16348 0.06247 0.9535 0.0
C2003 C 0.16127 0.03961 0.9546 0.0
C2004 C 0.1727 0.02747 0.94004 0.0
C2005 C 0.18354 0.03775 0.92256 0.0
C2006 C 0.15211 0.0762 0.96917 0.0
C2007 C 0.1715 1.00326 0.94129 0.0
C2008 C 0.13089 0.02508 0.00538 0.0
C2009 C 0.10758 0.0225 0.99534 0.0
C2010 C 0.149 0.02778 0.99182 0.0
C2011 C 0.14351 0.02842 0.96785 0.0
C2012 C 0.11991 0.02315 0.95741 0.0
C2013 C 0.10213 0.02011 0.97137 0.0
C2014 C 0.17389 0.03221 1.00348 0.0
C2015 C 0.11337 0.02324 0.93176 0.0
H2016 H 0.17442 0.08938 0.93387 0.0
H2017 H 0.19047 0.02807 0.91004 0.0
H2018 H 0.13285 0.07149 0.96485 0.0
H2019 H 0.15664 0.07331 0.98741 0.0
H2020 H 0.15744 0.09399 0.96751 0.0
H2021 H 0.18662 0.99802 0.93455 0.0
H2022 H 0.171 0.99878 0.9592 0.0
H2023 H 0.15537 0.99403 0.93055 0.0
H2024 H 0.13511 0.02625 0.02396 0.0
H2025 H 0.08409 0.01775 0.96359 0.0
H2026 H 0.18024 0.05015 0.00729 0.0
H2027 H 0.18552 0.02593 0.99226 0.0
H2028 H 0.17524 0.02466 0.02003 0.0
H2029 H 0.11686 0.04036 0.9271 0.0
H2030 H 0.09464 0.01601 0.9261 0.0
H2031 H 0.12406 0.01398 0.92211 0.0
C2032 C 0.84657 0.35146 0.61675 0.0
C2033 C 0.82545 0.34966 0.60224 0.0
C2034 C 0.84744 0.34143 0.63748 0.0
C2035 C 0.82657 0.32992 0.64428 0.0
C2036 C 0.80523 0.32792 0.62957 0.0
C2037 C 0.805 0.3375 0.60858 0.0
C2038 C 0.87064 0.3435 0.65232 0.0
C2039 C 0.78248 0.31643 0.63644 0.0
C2040 C 0.82854 0.29066 0.6912 0.0
C2041 C 0.82694 0.3041 0.71087 0.0
C2042 C 0.82887 0.29891 0.66949 0.0
C2043 C 0.82688 0.32096 0.66728 0.0
C2044 C 0.82496 0.33449 0.68709 0.0
C2045 C 0.82529 0.32598 0.70863 0.0
C2046 C 0.83149 0.28409 0.64895 0.0
C2047 C 0.82224 0.3579 0.6855 0.0
H2048 H 0.86244 0.3608 0.61192 0.0
H2049 H 0.78858 0.33628 0.59758 0.0
H2050 H 0.8708 0.35347 0.66875 0.0
H2051 H 0.87339 0.32711 0.65669 0.0
H2052 H 0.88545 0.35131 0.64371 0.0
H2053 H 0.76747 0.31581 0.62286 0.0
H2054 H 0.7835 0.29945 0.64013 0.0
H2055 H 0.77909 0.32505 0.65249 0.0
H2056 H 0.82986 0.27375 0.69284 0.0
H2057 H 0.82368 0.33639 0.7237 0.0
H2058 H 0.84681 0.29158 0.64088 0.0
H2059 H 0.81592 0.28208 0.63577 0.0
H2060 H 0.83371 0.26763 0.65366 0.0
H2061 H 0.83752 0.36739 0.67885 0.0
H2062 H 0.82051 0.36613 0.70243 0.0
H2063 H 0.80658 0.3584 0.67316 0.0
C2064 C 0.52183 0.12787 0.4043 0.0
C2065 C 0.53539 0.13475 0.38715 0.0
C2066 C 0.53251 0.12541 0.42635 0.0
C2067 C 0.55719 0.13038 0.43123 0.0
C2068 C 0.57044 0.14111 0.41532 0.0
C2069 C 0.55942 0.14279 0.39318 0.0
C2070 C 0.51761 0.11453 0.44313 0.0
C2071 C 0.59658 0.14826 0.42061 0.0
C2072 C 0.5785 0.1125 0.48904 0.0
C2073 C 0.57976 0.0908 0.48234 0.0
C2074 C 0.57318 0.12661 0.47245 0.0
C2075 C 0.56867 0.11856 0.44885 0.0
C2076 C 0.57226 0.09736 0.44205 0.0
C2077 C 0.57804 0.0839 0.45888 0.0
C2078 C 0.57075 0.14943 0.48047 0.0
C2079 C 0.56793 0.08802 0.41707 0.0
H2080 H 0.50318 0.12197 0.39981 0.0
H2081 H 0.56989 0.14874 0.38009 0.0
H2082 H 0.51986 0.09733 0.44379 0.0
H2083 H 0.52308 0.12301 0.46071 0.0
H2084 H 0.4988 0.11441 0.4381 0.0
H2085 H 0.60327 0.16136 0.40987 0.0
H2086 H 0.6019 0.15426 0.43909 0.0
H2087 H 0.60488 0.13412 0.41688 0.0
H2088 H 0.58 0.11801 0.50719 0.0
H2089 H 0.57954 0.06729 0.45364 0.0
H2090 H 0.55303 0.14887 0.48532 0.0
H2091 H 0.57335 0.16081 0.46691 0.0
H2092 H 0.58349 0.15606 0.49603 0.0
H2093 H 0.5494 0.08707 0.41 0.0
H2094 H 0.57186 0.07136 0.4148 0.0
H2095 H 0.57885 0.09879 0.40667 0.0
C2096 C 0.8345 0.6939 0.12141 0.0
C2097 C 0.83411 0.70329 0.10015 0.0
C2098 C 0.83272 0.7057 0.14256 0.0
C2099 C 0.8303 0.72794 0.14335 0.0
C2100 C 0.83005 0.73771 0.12204 0.0
C2101 C 0.83198 0.72546 0.10096 0.0
C2102 C 0.83328 0.69412 0.16426 0.0
C2103 C 0.82747 0.76119 0.12145 0.0
C2104 C 0.80345 0.75023 0.1958 0.0
C2105 C 0.82301 0.76167 0.21114 0.0
C2106 C 0.80551 0.73985 0.17386 0.0
C2107 C 0.82774 0.74051 0.16635 0.0
C2108 C 0.84755 0.75219 0.18166 0.0
C2109 C 0.84499 0.7625 0.20349 0.0
C2110 C 0.78368 0.72786 0.15873 0.0
C2111 C 0.87171 0.75359 0.17508 0.0
H2112 H 0.83613 0.67694 0.12161 0.0
H2113 H 0.83151 0.73323 0.08504 0.0
H2114 H 0.84765 0.70315 0.17739 0.0
H2115 H 0.81675 0.69381 0.17161 0.0
H2116 H 0.83574 0.67702 0.16116 0.0
H2117 H 0.82796 0.76676 0.10393 0.0
H2118 H 0.81069 0.76315 0.1273 0.0
H2119 H 0.84162 0.77199 0.13352 0.0
H2120 H 0.78627 0.74928 0.20096 0.0
H2121 H 0.86042 0.77117 0.21471 0.0
H2122 H 0.78413 0.71019 0.1561 0.0
H2123 H 0.78276 0.73415 0.14151 0.0
H2124 H 0.7676 0.72956 0.16623 0.0
H2125 H 0.87561 0.73693 0.17305 0.0
H2126 H 0.88533 0.7639 0.18814 0.0
H2127 H 0.87269 0.76047 0.15824 0.0
C2128 C 0.13246 0.05842 0.79343 0.0
C2129 C 0.15542 0.05858 0.78916 0.0
C2130 C 0.11452 0.05769 0.77522 0.0
C2131 C 0.11972 0.05691 0.75233 0.0
C2132 C 0.14269 0.05616 0.74792 0.0
C2133 C 0.1603 0.05714 0.76643 0.0
C2134 C 0.09027 0.05868 0.78054 0.0
C2135 C 0.14885 0.05505 0.72367 0.0
C2136 C 0.07588 0.04132 0.69854 0.0
C2137 C 0.07695 0.06173 0.68969 0.0
C2138 C 0.08838 0.03953 0.71996 0.0
C2139 C 0.10187 0.05864 0.73289 0.0
C2140 C 0.10093 0.07944 0.72522 0.0
C2141 C 0.08863 0.08073 0.70364 0.0
C2142 C 0.08881 0.01707 0.72769 0.0
C2143 C 0.11475 0.10025 0.73876 0.0
H2144 H 0.12863 0.05952 0.811 0.0
H2145 H 0.17802 0.05704 0.76307 0.0
H2146 H 0.08619 0.07475 0.7766 0.0
H2147 H 0.07711 0.04585 0.76958 0.0
H2148 H 0.08849 0.05663 0.79892 0.0
H2149 H 0.16711 0.05302 0.72314 0.0
H2150 H 0.13695 0.04119 0.71284 0.0
H2151 H 0.14662 0.07029 0.71584 0.0
H2152 H 0.0664 0.0266 0.68814 0.0
H2153 H 0.08979 0.09659 0.69703 0.0
H2154 H 0.08758 0.01694 0.74638 0.0
H2155 H 0.10561 0.01252 0.72476 0.0
H2156 H 0.07439 1.00441 0.71804 0.0
H2157 H 0.11275 0.10012 0.75729 0.0
H2158 H 0.10931 0.11506 0.73234 0.0
H2159 H 0.13355 0.10149 0.73731 0.0
C2160 C 0.81461 0.349 0.45774 0.0
C2161 C 0.80199 0.36548 0.46183 0.0
C2162 C 0.81411 0.33914 0.43526 0.0
C2163 C 0.80045 0.3457 0.41644 0.0
C2164 C 0.78671 0.36146 0.42071 0.0
C2165 C 0.78775 0.3712 0.44323 0.0
C2166 C 0.82911 0.32249 0.43149 0.0
C2167 C 0.77164 0.36876 0.40131 0.0
C2168 C 0.81915 0.34205 0.35654 0.0
C2169 C 0.8039 0.32313 0.34551 0.0
C2170 C 0.81839 0.3493 0.37961 0.0
C2171 C 0.80186 0.3375 0.39213 0.0
C2172 C 0.7863 0.31845 0.38111 0.0
C2173 C 0.78756 0.31145 0.35801 0.0
C2174 C 0.83537 0.36966 0.39062 0.0
C2175 C 0.76825 0.30553 0.3937 0.0
H2176 H 0.82574 0.34454 0.47193 0.0
H2177 H 0.77776 0.38378 0.44618 0.0
H2178 H 0.81864 0.30756 0.42115 0.0
H2179 H 0.84324 0.32936 0.42159 0.0
H2180 H 0.83714 0.31775 0.44798 0.0
H2181 H 0.76038 0.3796 0.40771 0.0
H2182 H 0.78287 0.3778 0.38982 0.0
H2183 H 0.76036 0.35437 0.39075 0.0
H2184 H 0.83196 0.35117 0.34721 0.0
H2185 H 0.77572 0.29679 0.34975 0.0
H2186 H 0.84566 0.36588 0.40637 0.0
H2187 H 0.82569 0.38234 0.39596 0.0
H2188 H 0.84762 0.37661 0.37881 0.0
H2189 H 0.77687 0.30001 0.40943 0.0
H2190 H 0.7576 0.29096 0.38284 0.0
H2191 H 0.75642 0.3161 0.39935 0.0
C2192 C 0.49287 0.09439 0.23795 0.0
C2193 C 0.50147 0.11264 0.25406 0.0
C2194 C 0.50561 0.08942 0.22026 0.0
C2195 C 0.52729 0.10318 0.21857 0.0
C2196 C 0.53519 0.12247 0.23375 0.0
C2197 C 0.52222 0.12693 0.2514 0.0
C2198 C 0.49661 0.06868 0.20437 0.0
C2199 C 0.55802 0.13772 0.23224 0.0
C2200 C 0.57225 0.07534 0.1944 0.0
C2201 C 0.56997 0.08022 0.17141 0.0
C2202 C 0.55871 0.08305 0.21 0.0
C2203 C 0.54272 0.09621 0.20249 0.0
C2204 C 0.54103 0.102 0.1796 0.0
C2205 C 0.5546 0.09386 0.16429 0.0
C2206 C 0.561 0.07651 0.23432 0.0
C2207 C 0.52435 0.11619 0.17107 0.0
H2208 H 0.47682 0.0833 0.23989 0.0
H2209 H 0.52883 0.14117 0.26369 0.0
H2210 H 0.50802 0.05676 0.20802 0.0
H2211 H 0.47848 0.06094 0.20648 0.0
H2212 H 0.49709 0.0721 0.18614 0.0
H2213 H 0.56023 0.15331 0.24336 0.0
H2214 H 0.5727 0.12962 0.2377 0.0
H2215 H 0.55924 0.14153 0.2142 0.0
H2216 H 0.5843 0.06509 0.20011 0.0
H2217 H 0.55243 0.09747 0.14647 0.0
H2218 H 0.5441 0.0668 0.23766 0.0
H2219 H 0.56535 0.0913 0.24686 0.0
H2220 H 0.57464 0.06661 0.23755 0.0
H2221 H 0.50614 0.10773 0.17179 0.0
H2222 H 0.52597 0.12007 0.1531 0.0
H2223 H 0.52754 0.13175 0.18237 0.0
C2224 C 0.82078 0.72327 0.94703 0.0
C2225 C 0.83251 0.7057 0.94998 0.0
C2226 C 0.81963 0.73397 0.92622 0.0
C2227 C 0.83104 0.7278 0.90737 0.0
C2228 C 0.84329 0.71034 0.91045 0.0
C2229 C 0.84357 0.69949 0.93118 0.0
C2230 C 0.80568 0.75179 0.92427 0.0
C2231 C 0.85638 0.7031 0.89173 0.0
C2232 C 0.81127 0.74072 0.84437 0.0
C2233 C 0.82662 0.7604 0.84142 0.0
C2234 C 0.81236 0.73035 0.86534 0.0
C2235 C 0.82969 0.73911 0.8845 0.0
C2236 C 0.84554 0.75877 0.88153 0.0
C2237 C 0.84363 0.7692 0.86053 0.0
C2238 C 0.79445 0.71001 0.86707 0.0
C2239 C 0.86483 0.76886 0.90063 0.0
H2240 H 0.81194 0.72847 0.96096 0.0
H2241 H 0.85285 0.68615 0.93276 0.0
H2242 H 0.81716 0.76739 0.92157 0.0
H2243 H 0.792 0.74751 0.90905 0.0
H2244 H 0.7972 0.75447 0.93985 0.0
H2245 H 0.86637 0.69046 0.89701 0.0
H2246 H 0.84399 0.69629 0.87603 0.0
H2247 H 0.86866 0.71736 0.88704 0.0
H2248 H 0.79779 0.73351 0.83027 0.0
H2249 H 0.85574 0.78425 0.85904 0.0
H2250 H 0.785 0.71255 0.88198 0.0
H2251 H 0.8032 0.69606 0.87014 0.0
H2252 H 0.78154 0.7055 0.85125 0.0
H2253 H 0.85729 0.77416 0.91598 0.0
H2254 H 0.87668 0.78323 0.89551 0.0
H2255 H 0.87523 0.75651 0.9058 0.0
C2256 C 0.85591 0.12189 0.0325 0.0
C2257 C 0.85487 0.14303 0.02634 0.0
C2258 C 0.87381 0.11146 0.02686 0.0
C2259 C 0.8914 0.1225 0.01504 0.0
C2260 C 0.89103 0.14415 0.00952 0.0
C2261 C 0.87264 0.15412 0.01507 0.0
C2262 C 0.87347 0.08831 0.03293 0.0
C2263 C 0.90985 0.15661 0.99743 0.0
C2264 C 0.94556 0.09779 0.01779 0.0
C2265 C 0.9417 0.08471 0.99667 0.0
C2266 C 0.92998 0.11104 0.02352 0.0
C2267 C 0.90968 0.11093 0.00796 0.0
C2268 C 0.90587 0.0982 0.98641 0.0
C2269 C 0.922 0.08538 0.98095 0.0
C2270 C 0.93484 0.12448 0.04662 0.0
C2271 C 0.88432 0.0975 0.96943 0.0
H2272 H 0.84229 0.11311 0.04116 0.0
H2273 H 0.87204 0.17047 0.01032 0.0
H2274 H 0.87206 0.07722 0.01698 0.0
H2275 H 0.88999 0.08744 0.04371 0.0
H2276 H 0.8587 0.08212 0.04241 0.0
H2277 H 0.90785 0.17375 0.99562 0.0
H2278 H 0.92728 0.15684 0.00708 0.0
H2279 H 0.90937 0.14826 0.98001 0.0
H2280 H 0.96048 0.09727 0.03027 0.0
H2281 H 0.91904 0.07574 0.96441 0.0
H2282 H 0.92272 0.1169 0.05821 0.0
H2283 H 0.93187 0.14131 0.04475 0.0
H2284 H 0.95299 0.12553 0.05501 0.0
H2285 H 0.86858 0.09029 0.97704 0.0
H2286 H 0.8845 0.08766 0.95296 0.0
H2287 H 0.88268 0.11432 0.96566 0.0
C2288 C 0.38888 0.45459 0.03905 0.0
C2289 C 0.37057 0.46498 0.03124 0.0
C2290 C 0.41282 0.46444 0.03867 0.0
C2291 C 0.41912 0.48554 0.03068 0.0
C2292 C 0.40067 0.49623 0.02334 0.0
C2293 C 0.37703 0.4859 0.02349 0.0
C2294 C 0.43143 0.45199 0.04641 0.0
C2295 C 0.40589 0.51878 0.01514 0.0
C2296 C 0.48169 0.5206 0.04847 0.0
C2297 C 0.49256 0.51878 0.02844 0.0
C2298 C 0.45823 0.51 0.04942 0.0
C2299 C 0.44475 0.49657 0.03005 0.0
C2300 C 0.45566 0.49451 0.00981 0.0
C2301 C 0.47907 0.50565 0.00918 0.0
C2302 C 0.44778 0.51339 0.0713 0.0
C2303 C 0.44259 0.48031 0.9887 0.0
H2304 H 0.38452 0.43842 0.04485 0.0
H2305 H 0.36339 0.49436 0.01737 0.0
H2306 H 0.4416 0.44935 0.03209 0.0
H2307 H 0.4438 0.46169 0.06086 0.0
H2308 H 0.42403 0.43584 0.05207 0.0
H2309 H 0.38986 0.52538 0.01079 0.0
H2310 H 0.41778 0.53027 0.02865 0.0
H2311 H 0.41493 0.51826 0.99965 0.0
H2312 H 0.49155 0.53054 0.0636 0.0
H2313 H 0.48697 0.5037 0.99362 0.0
H2314 H 0.44204 0.49742 0.07809 0.0
H2315 H 0.43209 0.52064 0.06764 0.0
H2316 H 0.46025 0.52431 0.08488 0.0
H2317 H 0.43631 0.46346 0.9932 0.0
H2318 H 0.45354 0.47952 0.97463 0.0
H2319 H 0.42701 0.48676 0.98219 0.0
C2320 C 0.34219 0.58139 0.74411 0.0
C2321 C 0.33511 0.5648 0.72595 0.0
C2322 C 0.32794 0.5962 0.7489 0.0
C2323 C 0.30622 0.59452 0.73496 0.0
C2324 C 0.2985 0.57724 0.71722 0.0
C2325 C 0.31304 0.56246 0.71298 0.0
C2326 C 0.33661 0.61425 0.76824 0.0
C2327 C 0.27552 0.57504 0.70196 0.0
C2328 C 0.26858 0.62993 0.7605 0.0
C2329 C 0.27637 0.64981 0.75144 0.0
C2330 C 0.27681 0.61108 0.75401 0.0
C2331 C 0.29286 0.61214 0.73785 0.0
C2332 C 0.29881 0.63146 0.72686 0.0
C2333 C 0.29061 0.65012 0.7339 0.0
C2334 C 0.26995 0.5907 0.76598 0.0
C2335 C 0.31559 0.63311 0.70922 0.0
H2336 H 0.35914 0.58309 0.75432 0.0
H2337 H 0.3075 0.54963 0.6989 0.0
H2338 H 0.34001 0.63031 0.76102 0.0
H2339 H 0.32315 0.61477 0.77986 0.0
H2340 H 0.35294 0.61215 0.77862 0.0
H2341 H 0.27067 0.55915 0.69107 0.0
H2342 H 0.26135 0.57658 0.71244 0.0
H2343 H 0.27672 0.58845 0.69048 0.0
H2344 H 0.25713 0.62944 0.77368 0.0
H2345 H 0.29692 0.66536 0.72686 0.0
H2346 H 0.28466 0.58918 0.77905 0.0
H2347 H 0.26625 0.57583 0.75357 0.0
H2348 H 0.2544 0.59119 0.77485 0.0
H2349 H 0.3335 0.63377 0.71798 0.0
H2350 H 0.31568 0.648 0.69992 0.0
H2351 H 0.31109 0.6185 0.69644 0.0
C2352 C 0.22402 0.63491 0.48918 0.0
C2353 C 0.22797 0.65553 0.50174 0.0
C2354 C 0.20218 0.62078 0.48662 0.0
C2355 C 0.18392 0.62731 0.49717 0.0
C2356 C 0.18729 0.64875 0.50841 0.0
C2357 C 0.20931 0.66271 0.51045 0.0
C2358 C 0.19927 0.59822 0.4742 0.0
C2359 C 0.16823 0.65631 0.51992 0.0
C2360 C 0.12295 0.59123 0.48816 0.0
C2361 C 0.12379 0.5797 0.5078 0.0
C2362 C 0.1425 0.60664 0.48412 0.0
C2363 C 0.16317 0.61055 0.50014 0.0
C2364 C 0.16428 0.59835 0.51949 0.0
C2365 C 0.14469 0.58307 0.52298 0.0
C2366 C 0.14083 0.61915 0.46315 0.0
C2367 C 0.18602 0.60183 0.53694 0.0
H2368 H 0.23832 0.62944 0.48204 0.0
H2369 H 0.21226 0.67869 0.52004 0.0
H2370 H 0.19936 0.586 0.48701 0.0
H2371 H 0.18232 0.59375 0.46282 0.0
H2372 H 0.21352 0.59705 0.46367 0.0
H2373 H 0.17235 0.67425 0.5249 0.0
H2374 H 0.15138 0.65207 0.50838 0.0
H2375 H 0.16595 0.6478 0.53569 0.0
H2376 H 0.10684 0.58879 0.47641 0.0
H2377 H 0.14564 0.57408 0.53808 0.0
H2378 H 0.15585 0.61838 0.45361 0.0
H2379 H 0.14154 0.63666 0.46859 0.0
H2380 H 0.12441 0.61276 0.45128 0.0
H2381 H 0.20102 0.59874 0.52835 0.0
H2382 H 0.18399 0.59094 0.55103 0.0
H2383 H 0.19039 0.61907 0.5447 0.0
C2384 C 0.68881 0.95712 0.78927 0.0
C2385 C 0.66944 0.94139 0.77883 0.0
C2386 C 0.70838 0.95088 0.80076 0.0
C2387 C 0.7087 0.92836 0.80143 0.0
C2388 C 0.68858 0.91244 0.79226 0.0
C2389 C 0.66906 0.91918 0.78118 0.0
C2390 C 0.7293 0.96834 0.81074 0.0
C2391 C 0.68833 0.88825 0.79253 0.0
C2392 C 0.76666 0.91182 0.79772 0.0
C2393 C 0.77272 0.90662 0.82016 0.0
C2394 C 0.74598 0.91912 0.79158 0.0
C2395 C 0.73106 0.92149 0.80836 0.0
C2396 C 0.73738 0.91694 0.83127 0.0
C2397 C 0.75812 0.90934 0.83688 0.0
C2398 C 0.73975 0.92358 0.76687 0.0
C2399 C 0.72203 0.91962 0.84966 0.0
H2400 H 0.68901 0.97435 0.78779 0.0
H2401 H 0.65406 0.907 0.77319 0.0
H2402 H 0.73648 0.96478 0.82808 0.0
H2403 H 0.74323 0.96855 0.79954 0.0
H2404 H 0.72498 0.98489 0.81209 0.0
H2405 H 0.67054 0.87816 0.78742 0.0
H2406 H 0.69988 0.88337 0.78034 0.0
H2407 H 0.69518 0.88448 0.80989 0.0
H2408 H 0.7776 0.90923 0.78461 0.0
H2409 H 0.76277 0.90525 0.85422 0.0
H2410 H 0.73729 0.9407 0.7662 0.0
H2411 H 0.72303 0.91266 0.7593 0.0
H2412 H 0.75336 0.921 0.75599 0.0
H2413 H 0.71772 0.93616 0.8502 0.0
H2414 H 0.7304 0.91722 0.86701 0.0
H2415 H 0.70534 0.90755 0.84551 0.0
C2416 C 0.72942 0.97395 0.5269 0.0
C2417 C 0.72792 0.95247 0.53361 0.0
C2418 C 0.71008 0.98492 0.52567 0.0
C2419 C 0.68803 0.97473 0.53159 0.0
C2420 C 0.68647 0.95312 0.53861 0.0
C2421 C 0.706 0.94238 0.53932 0.0
C2422 C 0.71329 1.0076 0.51779 0.0
C2423 C 0.66399 0.94122 0.54556 0.0
C2424 C 0.64425 0.01164 0.54841 0.0
C2425 C 0.62753 0.00952 0.52853 0.0
C2426 C 0.66343 1.00048 0.54968 0.0
C2427 C 0.66693 0.98662 0.53056 0.0
C2428 C 0.65012 0.98441 0.51043 0.0
C2429 C 0.6309 0.99555 0.50972 0.0
C2430 C 0.68001 1.00348 0.57182 0.0
C2431 C 0.65249 0.97022 0.48934 0.0
H2432 H 0.74585 0.98227 0.52226 0.0
H2433 H 0.70406 0.92593 0.54457 0.0
H2434 H 0.70034 1.00784 0.50249 0.0
H2435 H 0.71009 0.01933 0.53155 0.0
H2436 H 0.73107 0.01335 0.51329 0.0
H2437 H 0.66535 0.92484 0.55112 0.0
H2438 H 0.65892 0.95107 0.55989 0.0
H2439 H 0.64976 0.93914 0.5309 0.0
H2440 H 0.64227 0.022 0.56334 0.0
H2441 H 0.61849 0.99336 0.49416 0.0
H2442 H 0.69794 0.01054 0.56859 0.0
H2443 H 0.68044 0.98735 0.57845 0.0
H2444 H 0.67504 0.01438 0.58534 0.0
H2445 H 0.66964 0.97606 0.48353 0.0
H2446 H 0.63848 0.97021 0.47489 0.0
H2447 H 0.65192 0.95313 0.4936 0.0
C2448 C 0.37078 0.43092 0.68284 0.0
C2449 C 0.36308 0.449 0.69247 0.0
C2450 C 0.3625 0.40978 0.68885 0.0
C2451 C 0.34662 0.40688 0.7052 0.0
C2452 C 0.33734 0.42476 0.7134 0.0
C2453 C 0.34545 0.44555 0.70669 0.0
C2454 C 0.37208 0.39089 0.67907 0.0
C2455 C 0.32056 0.42243 0.73106 0.0
C2456 C 0.31732 0.35187 0.72172 0.0
C2457 C 0.33247 0.34961 0.74129 0.0
C2458 C 0.3223 0.36989 0.70892 0.0
C2459 C 0.34244 0.38628 0.71645 0.0
C2460 C 0.35789 0.38389 0.73609 0.0
C2461 C 0.35288 0.36536 0.74807 0.0
C2462 C 0.30592 0.37156 0.68761 0.0
C2463 C 0.3793 0.40126 0.74498 0.0
H2464 H 0.38413 0.4334 0.67155 0.0
H2465 H 0.33916 0.45936 0.71402 0.0
H2466 H 0.38553 0.38698 0.69212 0.0
H2467 H 0.35812 0.37601 0.67476 0.0
H2468 H 0.38024 0.39481 0.66336 0.0
H2469 H 0.31314 0.43732 0.73383 0.0
H2470 H 0.306 0.40823 0.72573 0.0
H2471 H 0.32983 0.41941 0.74775 0.0
H2472 H 0.30171 0.33941 0.71629 0.0
H2473 H 0.36456 0.36354 0.76322 0.0
H2474 H 0.31585 0.37533 0.67299 0.0
H2475 H 0.29669 0.38517 0.69072 0.0
H2476 H 0.29269 0.35623 0.68254 0.0
H2477 H 0.39076 0.40405 0.73136 0.0
H2478 H 0.38956 0.39676 0.7604 0.0
H2479 H 0.37406 0.41698 0.74958 0.0
C2480 C 0.12769 0.56187 0.19715 0.0
C2481 C 0.13914 0.54624 0.20685 0.0
C2482 C 0.13914 0.5839 0.19797 0.0
C2483 C 0.16258 0.59033 0.2086 0.0
C2484 C 0.17438 0.57447 0.21775 0.0
C2485 C 0.16253 0.55271 0.21682 0.0
C2486 C 0.12604 0.60036 0.18798 0.0
C2487 C 0.19949 0.58056 0.22894 0.0
C2488 C 0.20416 0.64197 0.19879 0.0
C2489 C 0.20572 0.65476 0.21978 0.0
C2490 C 0.1889 0.62152 0.19416 0.0
C2491 C 0.17491 0.61365 0.21095 0.0
C2492 C 0.17528 0.6271 0.2315 0.0
C2493 C 0.19073 0.64747 0.2357 0.0
C2494 C 0.18903 0.60772 0.17202 0.0
C2495 C 0.16041 0.61941 0.24972 0.0
H2496 H 0.10962 0.55701 0.1894 0.0
H2497 H 0.17163 0.54075 0.22416 0.0
H2498 H 0.1244 0.61273 0.20188 0.0
H2499 H 0.13582 0.60924 0.17534 0.0
H2500 H 0.10829 0.59257 0.17931 0.0
H2501 H 0.20639 0.56612 0.23445 0.0
H2502 H 0.21065 0.5886 0.21679 0.0
H2503 H 0.20104 0.59245 0.24428 0.0
H2504 H 0.2158 0.64736 0.18645 0.0
H2505 H 0.19156 0.65745 0.25177 0.0
H2506 H 0.17097 0.60043 0.16392 0.0
H2507 H 0.19797 0.59401 0.17583 0.0
H2508 H 0.1982 0.61732 0.15943 0.0
H2509 H 0.14214 0.61274 0.24183 0.0
H2510 H 0.1605 0.63278 0.26327 0.0
H2511 H 0.16708 0.60601 0.25803 0.0
C2512 C 0.50732 0.65661 0.46425 0.0
C2513 C 0.52038 0.6779 0.46971 0.0
C2514 C 0.51105 0.63982 0.47795 0.0
C2515 C 0.52815 0.64457 0.49775 0.0
C2516 C 0.53953 0.66654 0.50466 0.0
C2517 C 0.53543 0.68301 0.49057 0.0
C2518 C 0.49733 0.61696 0.4704 0.0
C2519 C 0.55781 0.67234 0.52562 0.0
C2520 C 0.53522 0.59892 0.53603 0.0
C2521 C 0.5519 0.58974 0.52577 0.0
C2522 C 0.52738 0.61704 0.52736 0.0
C2523 C 0.53706 0.62644 0.50855 0.0
C2524 C 0.55471 0.61771 0.49892 0.0
C2525 C 0.56163 0.59925 0.50743 0.0
C2526 C 0.50801 0.6254 0.5375 0.0
C2527 C 0.56536 0.6271 0.47872 0.0
H2528 H 0.49521 0.65275 0.44841 0.0
H2529 H 0.54551 0.69951 0.49495 0.0
H2530 H 0.49074 0.61486 0.45168 0.0
H2531 H 0.50774 0.60428 0.47409 0.0
H2532 H 0.48195 0.61408 0.47981 0.0
H2533 H 0.5622 0.69026 0.53075 0.0
H2534 H 0.55185 0.66379 0.5404 0.0
H2535 H 0.57393 0.66692 0.52176 0.0
H2536 H 0.52725 0.59106 0.54981 0.0
H2537 H 0.57418 0.59179 0.4993 0.0
H2538 H 0.49326 0.62513 0.52376 0.0
H2539 H 0.51427 0.64267 0.54482 0.0
H2540 H 0.50147 0.61553 0.55123 0.0
H2541 H 0.55184 0.62449 0.46337 0.0
H2542 H 0.58002 0.61943 0.47436 0.0
H2543 H 0.5719 0.64502 0.48251 0.0
C2544 C 0.72424 0.37457 0.69116 0.0
C2545 C 0.70871 0.38543 0.70132 0.0
C2546 C 0.74236 0.36797 0.70487 0.0
C2547 C 0.74491 0.37252 0.72914 0.0
C2548 C 0.73152 0.38634 0.73897 0.0
C2549 C 0.71351 0.39265 0.72489 0.0
C2550 C 0.75658 0.35361 0.69359 0.0
C2551 C 0.73405 0.39204 0.76467 0.0
C2552 C 0.75609 0.3236 0.75957 0.0
C2553 C 0.78017 0.32915 0.76652 0.0
C2554 C 0.74428 0.33814 0.74843 0.0
C2555 C 0.75697 0.35873 0.744 0.0
C2556 C 0.78105 0.36502 0.75231 0.0
C2557 C 0.79242 0.35011 0.76361 0.0
C2558 C 0.71847 0.33086 0.74014 0.0
C2559 C 0.79508 0.3868 0.74792 0.0
H2560 H 0.72083 0.36918 0.67289 0.0
H2561 H 0.7018 0.40146 0.73274 0.0
H2562 H 0.77474 0.35667 0.70245 0.0
H2563 H 0.74867 0.33618 0.69468 0.0
H2564 H 0.75693 0.35623 0.67511 0.0
H2565 H 0.72683 0.40678 0.76896 0.0
H2566 H 0.72435 0.37814 0.77263 0.0
H2567 H 0.75258 0.39497 0.7725 0.0
H2568 H 0.74664 0.3074 0.76187 0.0
H2569 H 0.81114 0.35431 0.76868 0.0
H2570 H 0.71542 0.32921 0.72102 0.0
H2571 H 0.70883 0.34328 0.74626 0.0
H2572 H 0.71101 0.31491 0.74619 0.0
H2573 H 0.79725 0.38662 0.7294 0.0
H2574 H 0.81267 0.39048 0.75824 0.0
H2575 H 0.78585 0.40021 0.75193 0.0
C2576 C 0.02796 0.30005 0.9305 0.0
C2577 C 0.03275 0.29356 0.90848 0.0
C2578 C 0.02784 0.32203 0.93716 0.0
C2579 C 0.03256 0.33792 0.92143 0.0
C2580 C 0.03749 0.33154 0.89924 0.0
C2581 C 0.03755 0.30945 0.89304 0.0
C2582 C 0.02257 0.32825 0.96101 0.0
C2583 C 0.04256 0.34804 0.88199 0.0
C2584 C 1.01114 0.39104 0.9309 0.0
C2585 C 0.03153 0.40537 0.94155 0.0
C2586 C 1.01126 0.36907 0.92413 0.0
C2587 C 0.03225 0.36123 0.92819 0.0
C2588 C 0.05291 0.37562 0.93883 0.0
C2589 C 0.05231 0.39752 0.94533 0.0
C2590 C 0.98888 0.35421 0.91281 0.0
C2591 C 0.07563 0.36785 0.94339 0.0
H2592 H 0.02425 0.28792 0.94257 0.0
H2593 H 0.04124 0.30464 0.87599 0.0
H2594 H 0.03731 0.34067 0.97044 0.0
H2595 H 1.00692 0.33577 0.95979 0.0
H2596 H 0.01944 0.31395 0.97126 0.0
H2597 H 0.04621 0.34044 0.86549 0.0
H2598 H 0.02748 0.35611 0.87833 0.0
H2599 H 0.05781 0.36103 0.88924 0.0
H2600 H 0.99496 0.39691 0.92819 0.0
H2601 H 0.0682 0.40857 0.95323 0.0
H2602 H 0.98407 0.34046 0.9234 0.0
H2603 H 0.99136 0.34699 0.8957 0.0
H2604 H 0.97415 0.36296 0.9105 0.0
H2605 H 0.07359 0.35425 0.95461 0.0
H2606 H 0.09014 0.38112 0.95181 0.0
H2607 H 0.08051 0.36138 0.92697 0.0
C2608 C 0.07755 0.85139 0.24577 0.0
C2609 C 0.08119 0.8597 0.22467 0.0
C2610 C 0.05601 0.85011 0.25394 0.0
C2611 C 0.03786 0.85762 0.24082 0.0
C2612 C 0.04195 0.86743 0.22033 0.0
C2613 C 0.06356 0.8682 0.21238 0.0
C2614 C 0.05221 0.83939 0.27581 0.0
C2615 C 0.02313 0.87602 0.20617 0.0
C2616 C 0.97724 0.82701 0.24594 0.0
C2617 C 0.9703 0.84089 0.26235 0.0
C2618 C 0.99898 0.83264 0.23829 0.0
C2619 C 0.01397 0.85274 0.24713 0.0
C2620 C 1.00664 0.86727 0.26298 0.0
C2621 C 0.98488 0.86106 0.2706 0.0
C2622 C 1.00629 0.81661 0.22152 0.0
C2623 C 0.02203 0.88901 0.27238 0.0
H2624 H 0.09113 0.84486 0.25539 0.0
H2625 H 0.0664 0.87494 0.1962 0.0
H2626 H 0.04463 0.84984 0.28764 0.0
H2627 H 0.03959 0.82359 0.27159 0.0
H2628 H 0.06864 0.83616 0.28499 0.0
H2629 H 0.03009 0.88596 0.19266 0.0
H2630 H 1.00952 0.86207 0.19763 0.0
H2631 H 0.01456 0.88617 0.21737 0.0
H2632 H 0.96605 0.81131 0.23978 0.0
H2633 H 0.97935 0.87184 0.28317 0.0
H2634 H 0.02176 0.81095 0.22976 0.0
H2635 H 1.0114 0.82471 0.20617 0.0
H2636 H 0.9922 0.80206 0.21568 0.0
H2637 H 0.03749 0.88624 0.28364 0.0
H2638 H 1.01274 0.89938 0.28256 0.0
H2639 H 0.02851 0.89809 0.25812 0.0
C2640 C 0.57427 0.3787 0.09182 0.0
C2641 C 0.56049 0.37277 0.10947 0.0
C2642 C 0.57655 0.39971 0.08255 0.0
C2643 C 0.56402 0.41598 0.08991 0.0
C2644 C 0.54963 0.40979 0.10739 0.0
C2645 C 0.54852 0.38905 0.11705 0.0
C2646 C 0.59289 0.4042 0.0648 0.0
C2647 C 0.53492 0.42499 0.11621 0.0
C2648 C 0.57875 0.48004 0.08258 0.0
C2649 C 0.56875 0.48209 0.05983 0.0
C2650 C 0.57791 0.45925 0.09213 0.0
C2651 C 0.56578 0.43895 0.07948 0.0
C2652 C 0.5552 0.44106 0.05664 0.0
C2653 C 0.55723 0.46196 0.04722 0.0
C2654 C 0.59043 0.45951 0.1161 0.0
C2655 C 0.54123 0.42122 0.04169 0.0
H2656 H 0.58393 0.36696 0.08542 0.0
H2657 H 0.53768 0.38544 0.1305 0.0
H2658 H 0.58357 0.39705 0.04761 0.0
H2659 H 0.59944 0.42196 0.06409 0.0
H2660 H 0.60809 0.39623 0.0684 0.0
H2661 H 0.51894 0.41565 0.12192 0.0
H2662 H 0.54507 0.4356 0.13138 0.0
H2663 H 0.52965 0.43558 0.10299 0.0
H2664 H 0.58776 0.49486 0.09309 0.0
H2665 H 0.54904 0.46249 0.02979 0.0
H2666 H 0.59514 0.44355 0.11946 0.0
H2667 H 0.57902 0.46361 0.12879 0.0
H2668 H 0.6066 0.47238 0.11907 0.0
H2669 H 0.55288 0.4143 0.03099 0.0
H2670 H 0.52715 0.42568 0.02976 0.0
H2671 H 0.53324 0.40833 0.05201 0.0
C2672 C 0.98212 0.28967 0.3785 0.0
C2673 C 1.00047 0.28899 0.36527 0.0
C2674 C 0.95891 0.28988 0.36813 0.0
C2675 C 0.95319 0.28869 0.34367 0.0
C2676 C 0.97154 0.2871 0.3303 0.0
C2677 C 0.99466 0.28774 0.34112 0.0
C2678 C 0.94065 0.29235 0.3835 0.0
C2679 C 0.96685 0.285 0.30434 0.0
C2680 C 0.88792 0.27236 0.31544 0.0
C2681 C 0.88264 0.29231 0.30873 0.0
C2682 C 0.91047 0.27089 0.32647 0.0
C2683 C 0.92855 0.28992 0.33204 0.0
C2684 C 0.92309 0.31016 0.32574 0.0
C2685 C 0.9007 0.31102 0.31398 0.0
C2686 C 0.91509 0.24874 0.33178 0.0
C2687 C 0.94097 0.33116 0.33164 0.0
H2688 H 0.98613 0.29114 0.39711 0.0
H2689 H 1.00843 0.28738 0.33049 0.0
H2690 H 0.9344 0.30775 0.38065 0.0
H2691 H 0.92537 0.27868 0.3791 0.0
H2692 H 0.94741 0.29273 0.40204 0.0
H2693 H 0.98207 0.28158 0.29628 0.0
H2694 H 0.95159 0.27164 0.29814 0.0
H2695 H 0.96257 0.30038 0.29837 0.0
H2696 H 0.87446 0.25767 0.31162 0.0
H2697 H 0.89715 0.32665 0.30932 0.0
H2698 H 0.91993 0.24861 0.3506 0.0
H2699 H 0.93006 0.2453 0.32334 0.0
H2700 H 0.89972 0.23538 0.32588 0.0
H2701 H 0.94763 0.3331 0.35032 0.0
H2702 H 0.93375 0.34577 0.32729 0.0
H2703 H 0.95606 0.33059 0.32217 0.0
C2704 C 0.06581 0.72053 0.59282 0.0
C2705 C 0.05315 0.723 0.61155 0.0
C2706 C 0.06752 0.69932 0.58239 0.0
C2707 C 0.05591 0.67933 0.59008 0.0
C2708 C 0.04262 0.68188 0.6085 0.0
C2709 C 0.04177 0.70312 0.61897 0.0
C2710 C 0.08246 0.69832 0.56341 0.0
C2711 C 0.02915 0.66195 0.61745 0.0
C2712 C 0.04306 0.62337 0.55027 0.0
C2713 C 0.05919 0.61122 0.55997 0.0
C2714 C 0.04186 0.64498 0.55962 0.0
C2715 C 0.05753 0.65598 0.57923 0.0
C2716 C 0.07411 0.64394 0.58891 0.0
C2717 C 0.07454 0.62209 0.57955 0.0
C2718 C 0.02331 0.65599 0.54854 0.0
C2719 C 0.09172 0.65427 0.60933 0.0
H2720 H 0.07522 0.7352 0.58679 0.0
H2721 H 0.03193 0.70412 0.63333 0.0
H2722 H 0.09643 0.68925 0.56856 0.0
H2723 H 0.07182 0.68922 0.54759 0.0
H2724 H 0.09065 0.71486 0.55928 0.0
H2725 H 0.01833 0.66629 0.63064 0.0
H2726 H 0.01759 0.65133 0.60303 0.0
H2727 H 0.0414 0.65218 0.6252 0.0
H2728 H 0.03088 0.61579 0.5353 0.0
H2729 H 0.08734 0.61358 0.58751 0.0
H2730 H 0.03151 0.67162 0.54241 0.0
H2731 H 1.01208 0.66003 0.56145 0.0
H2732 H 1.01213 0.64556 0.53374 0.0
H2733 H 0.10123 0.67045 0.60553 0.0
H2734 H 0.10457 0.64388 0.61404 0.0
H2735 H 0.08266 0.65716 0.62442 0.0
C2736 C 0.66664 0.78757 0.88299 0.0
C2737 C 0.64491 0.79148 0.87294 0.0
C2738 C 0.68633 0.78814 0.87057 0.0
C2739 C 0.68524 0.79308 0.8471 0.0
C2740 C 0.66342 0.79725 0.83694 0.0
C2741 C 0.64389 0.79624 0.84964 0.0
C2742 C 0.70853 0.78331 0.88272 0.0
C2743 C 0.6607 0.80311 0.81244 0.0
C2744 C 0.74389 0.8135 0.82154 0.0
C2745 C 0.74723 0.79497 0.80795 0.0
C2746 C 0.72406 0.81327 0.8337 0.0
C2747 C 0.70662 0.79385 0.83334 0.0
C2748 C 0.70994 0.77509 0.81971 0.0
C2749 C 0.72964 0.77592 0.80728 0.0
C2750 C 0.72193 0.83406 0.84721 0.0
C2751 C 0.69268 0.75375 0.81848 0.0
H2752 H 0.6683 0.78387 0.90079 0.0
H2753 H 0.62768 0.7995 0.84122 0.0
H2754 H 0.71363 0.76953 0.87292 0.0
H2755 H 0.72289 0.79778 0.88344 0.0
H2756 H 0.70679 0.77903 0.90056 0.0
H2757 H 0.64306 0.80627 0.80682 0.0
H2758 H 0.67389 0.81793 0.81069 0.0
H2759 H 0.66389 0.78964 0.80066 0.0
H2760 H 0.75689 0.82847 0.82268 0.0
H2761 H 0.73152 0.76123 0.79733 0.0
H2762 H 0.72555 0.83239 0.8659 0.0
H2763 H 0.70394 0.83708 0.84374 0.0
H2764 H 0.7343 0.84853 0.84304 0.0
H2765 H 0.69167 0.74852 0.83607 0.0
H2766 H 0.69742 0.74049 0.80752 0.0
H2767 H 0.67503 0.75595 0.81148 0.0
C2768 C 0.43442 0.56378 0.64875 0.0
C2769 C 0.41392 0.54772 0.6454 0.0
C2770 C 0.45038 0.56474 0.63286 0.0
C2771 C 0.44581 0.54894 0.6136 0.0
C2772 C 0.42391 0.53439 0.60877 0.0
C2773 C 0.40804 0.53399 0.6248 0.0
C2774 C 0.47294 0.58144 0.63765 0.0
C2775 C 0.41817 0.51801 0.58774 0.0
C2776 C 0.48717 0.55153 0.56873 0.0
C2777 C 0.50185 0.53769 0.57694 0.0
C2778 C 0.46901 0.55575 0.58059 0.0
C2779 C 0.46514 0.5454 0.60081 0.0
C2780 C 0.47998 0.53147 0.60921 0.0
C2781 C 0.49834 0.52797 0.59727 0.0
C2782 C 0.45412 0.57104 0.57097 0.0
C2783 C 0.47626 0.52001 0.63068 0.0
H2784 H 0.4387 0.57467 0.66455 0.0
H2785 H 0.39207 0.52167 0.62215 0.0
H2786 H 0.48747 0.57319 0.64324 0.0
H2787 H 0.47686 0.58916 0.62173 0.0
H2788 H 0.47236 0.59445 0.65135 0.0
H2789 H 0.39962 0.50938 0.58525 0.0
H2790 H 0.42185 0.52635 0.57212 0.0
H2791 H 0.4294 0.50567 0.58951 0.0
H2792 H 0.48987 0.55923 0.55301 0.0
H2793 H 0.50958 0.51717 0.60353 0.0
H2794 H 0.44271 0.57626 0.58308 0.0
H2795 H 0.443 0.5628 0.55498 0.0
H2796 H 0.46545 0.58591 0.56619 0.0
H2797 H 0.47794 0.5323 0.6457 0.0
H2798 H 0.48897 0.50927 0.63452 0.0
H2799 H 0.45837 0.50989 0.62867 0.0
C2800 C 0.79997 0.24268 0.94985 0.0
C2801 C 0.80805 0.22336 0.95386 0.0
C2802 C 0.79954 0.25079 0.92804 0.0
C2803 C 0.80745 0.2394 0.90977 0.0
C2804 C 0.81591 0.22007 0.91383 0.0
C2805 C 0.81606 0.21229 0.93573 0.0
C2806 C 0.79048 0.2715 0.92448 0.0
C2807 C 0.82476 0.20751 0.89498 0.0
C2808 C 0.78956 0.24826 0.84686 0.0
C2809 C 0.80958 0.26227 0.84186 0.0
C2810 C 0.78838 0.24106 0.86901 0.0
C2811 C 0.80766 0.24798 0.8866 0.0
C2812 C 0.82769 0.26242 0.88175 0.0
C2813 C 0.82838 0.26937 0.85957 0.0
C2814 C 0.76669 0.22566 0.87347 0.0
C2815 C 0.8487 0.27017 0.89985 0.0
H2816 H 0.79361 0.25128 0.96366 0.0
H2817 H 0.82231 0.19734 0.93858 0.0
H2818 H 0.80425 0.28406 0.91905 0.0
H2819 H 0.77552 0.2682 0.91046 0.0
H2820 H 0.78477 0.27835 0.94032 0.0
H2821 H 0.83055 0.19266 0.90083 0.0
H2822 H 0.81086 0.20248 0.88004 0.0
H2823 H 0.83965 0.21815 0.88881 0.0
H2824 H 0.77493 0.24263 0.8334 0.0
H2825 H 0.84398 0.28022 0.85609 0.0
H2826 H 0.75976 0.23244 0.88857 0.0
H2827 H 0.77103 0.20975 0.87765 0.0
H2828 H 0.75278 0.22264 0.85841 0.0
H2829 H 0.84346 0.27775 0.91554 0.0
H2830 H 0.86246 0.28225 0.8937 0.0
H2831 H 0.85629 0.25598 0.90493 0.0
C2832 C 0.08005 0.43434 0.15454 0.0
C2833 C 0.10368 0.44406 0.16077 0.0
C2834 C 0.06826 0.43713 0.13315 0.0
C2835 C 0.08043 0.4502 0.11809 0.0
C2836 C 0.105 0.45692 0.12277 0.0
C2837 C 0.11645 0.45363 0.14416 0.0
C2838 C 0.0423 0.42855 0.12804 0.0
C2839 C 0.11875 0.47027 0.10668 0.0
C2840 C 0.05501 0.46792 0.06198 0.0
C2841 C 0.05178 0.48886 0.06947 0.0
C2842 C 0.06266 0.45414 0.07777 0.0
C2843 C 0.0674 0.46169 0.10144 0.0
C2844 C 0.06209 0.48195 0.10922 0.0
C2845 C 0.05411 0.49518 0.09311 0.0
C2846 C 0.06725 0.43236 0.06879 0.0
C2847 C 0.06665 0.49055 0.13443 0.0
H2848 H 0.07027 0.42634 0.16716 0.0
H2849 H 0.13484 0.46073 0.14872 0.0
H2850 H 0.03303 0.44171 0.13295 0.0
H2851 H 0.03691 0.42345 0.10938 0.0
H2852 H 0.03669 0.41444 0.13797 0.0
H2853 H 0.13782 0.47133 0.11104 0.0
H2854 H 0.11334 0.46312 0.08857 0.0
H2855 H 0.11527 0.48713 0.10784 0.0
H2856 H 0.0529 0.46275 0.04369 0.0
H2857 H 0.05134 0.51119 0.09904 0.0
H2858 H 0.06517 0.42018 0.08163 0.0
H2859 H 0.08539 0.43463 0.06466 0.0
H2860 H 0.05536 0.42565 0.05269 0.0
H2861 H 0.05767 0.47838 0.14491 0.0
H2862 H 0.06067 0.50618 0.13762 0.0
H2863 H 0.08563 0.49338 0.1406 0.0
C2864 C 0.79531 0.89227 0.43479 0.0
C2865 C 0.79177 0.88191 0.45512 0.0
C2866 C 0.79739 0.88067 0.4136 0.0
C2867 C 0.79556 0.85758 0.41168 0.0
C2868 C 0.79169 0.84684 0.43201 0.0
C2869 C 0.7901 0.85899 0.45327 0.0
C2870 C 0.80195 0.89341 0.39316 0.0
C2871 C 0.78915 0.82235 0.43128 0.0
C2872 C 0.78226 0.82764 0.34907 0.0
C2873 C 0.80424 0.82416 0.34416 0.0
C2874 C 0.77906 0.83766 0.37085 0.0
C2875 C 0.79828 0.84511 0.38866 0.0
C2876 C 0.82048 0.84164 0.38373 0.0
C2877 C 0.82309 0.83118 0.36203 0.0
C2878 C 0.7549 0.84032 0.37479 0.0
C2879 C 0.84181 0.84942 0.40137 0.0
H2880 H 0.79686 0.90986 0.43544 0.0
H2881 H 0.78737 0.85043 0.46844 0.0
H2882 H 0.81845 0.89075 0.38718 0.0
H2883 H 0.78776 0.88746 0.37864 0.0
H2884 H 0.80322 0.91127 0.39721 0.0
H2885 H 0.78508 0.81609 0.44787 0.0
H2886 H 0.77507 0.81425 0.41737 0.0
H2887 H 0.80552 0.8176 0.42721 0.0
H2888 H 0.76733 0.82231 0.33588 0.0
H2889 H 0.84026 0.82886 0.35894 0.0
H2890 H 0.75433 0.85797 0.377 0.0
H2891 H 0.75043 0.83324 0.39088 0.0
H2892 H 0.74144 0.83229 0.36027 0.0
H2893 H 0.84457 0.86742 0.40538 0.0
H2894 H 0.85781 0.8454 0.39534 0.0
H2895 H 0.83924 0.84188 0.41764 0.0
C2896 C 0.43113 0.52179 0.78577 0.0
C2897 C 0.44229 0.51677 0.76684 0.0
C2898 C 0.44194 0.52176 0.80841 0.0
C2899 C 0.46441 0.51668 0.81213 0.0
C2900 C 0.47574 0.51161 0.79312 0.0
C2901 C 0.46453 0.51168 0.77074 0.0
C2902 C 0.42934 0.52714 0.82833 0.0
C2903 C 0.49976 0.50616 0.79642 0.0
C2904 C 0.5041 0.53562 0.86843 0.0
C2905 C 0.50245 0.51614 0.87913 0.0
C2906 C 0.49125 0.53619 0.84688 0.0
C2907 C 0.47635 0.51682 0.83587 0.0
C2908 C 0.4741 0.49725 0.84688 0.0
C2909 C 0.48725 0.49713 0.86839 0.0
C2910 C 0.49424 0.55731 0.83555 0.0
C2911 C 0.45828 0.47632 0.83569 0.0
H2912 H 0.41392 0.52567 0.78292 0.0
H2913 H 0.47333 0.50779 0.75625 0.0
H2914 H 0.42728 0.51335 0.83932 0.0
H2915 H 0.4398 0.54172 0.83927 0.0
H2916 H 0.41183 0.53048 0.82252 0.0
H2917 H 0.50615 0.50258 0.77979 0.0
H2918 H 0.51236 0.52004 0.80649 0.0
H2919 H 0.49954 0.49172 0.80639 0.0
H2920 H 0.51601 0.55028 0.87661 0.0
H2921 H 0.48573 0.48212 0.87679 0.0
H2922 H 0.47701 0.56152 0.83044 0.0
H2923 H 0.50232 0.55528 0.81961 0.0
H2924 H 0.50539 0.57122 0.84702 0.0
H2925 H 0.44041 0.47915 0.83068 0.0
H2926 H 0.4573 0.46292 0.84723 0.0
H2927 H 0.46473 0.47086 0.81971 0.0
C2928 C 0.82508 0.23059 0.10595 0.0
C2929 C 0.80375 0.21634 0.09797 0.0
C2930 C 0.82945 0.24132 0.1285 0.0
C2931 C 0.81183 0.23824 0.14316 0.0
C2932 C 0.79 0.22445 0.13478 0.0
C2933 C 0.78639 0.21346 0.11252 0.0
C2934 C 0.85314 0.25544 0.13688 0.0
C2935 C 0.77041 0.22119 0.14939 0.0
C2936 C 0.82449 0.24863 0.20892 0.0
C2937 C 0.81942 0.26952 0.21285 0.0
C2938 C 0.82313 0.23865 0.18633 0.0
C2939 C 0.8159 0.24954 0.16715 0.0
C2940 C 0.81097 0.2707 0.17106 0.0
C2941 C 0.81305 0.28049 0.19374 0.0
C2942 C 0.82902 0.21627 0.183 0.0
C2943 C 0.80251 0.28269 0.15131 0.0
H2944 H 0.83868 0.23262 0.09491 0.0
H2945 H 0.76985 0.2025 0.10644 0.0
H2946 H 0.85136 0.27235 0.14229 0.0
H2947 H 0.86131 0.24894 0.15223 0.0
H2948 H 0.865 0.25614 0.12348 0.0
H2949 H 0.75414 0.21079 0.13995 0.0
H2950 H 0.77567 0.21338 0.16501 0.0
H2951 H 0.76662 0.23727 0.15524 0.0
H2952 H 0.82945 0.24001 0.22351 0.0
H2953 H 0.80882 0.29653 0.19649 0.0
H2954 H 0.84176 0.2163 0.17052 0.0
H2955 H 0.81309 0.20409 0.1757 0.0
H2956 H 0.8364 0.21087 0.19942 0.0
H2957 H 0.81498 0.28414 0.13851 0.0
H2958 H 0.80023 0.29936 0.15713 0.0
H2959 H 0.78554 0.27323 0.14235 0.0
C2960 C 0.04121 0.4897 0.26984 0.0
C2961 C 0.06411 0.48603 0.27171 0.0
C2962 C 0.03146 0.49546 0.28947 0.0
C2963 C 0.04499 0.4977 0.31139 0.0
C2964 C 0.06772 0.49313 0.31348 0.0
C2965 C 0.07698 0.48728 0.29362 0.0
C2966 C 1.00707 0.50001 0.28668 0.0
C2967 C 0.08268 0.49535 0.33662 0.0
C2968 C 0.0364 0.53736 0.35966 0.0
C2969 C 0.02593 0.52309 0.37447 0.0
C2970 C 0.04166 0.52934 0.33848 0.0
C2971 C 0.0363 0.5065 0.33203 0.0
C2972 C 0.02457 0.49212 0.34634 0.0
C2973 C 0.01949 0.50062 0.36746 0.0
C2974 C 0.05404 0.54521 0.32358 0.0
C2975 C 0.01855 0.46768 0.33995 0.0
H2976 H 0.03107 0.4886 0.25299 0.0
H2977 H 0.09463 0.48438 0.29525 0.0
H2978 H 0.99653 0.49097 0.29869 0.0
H2979 H 1.00784 0.51772 0.29106 0.0
H2980 H 0.99802 0.49536 0.26881 0.0
H2981 H 0.09937 0.48983 0.33543 0.0
H2982 H 0.08672 0.51273 0.34393 0.0
H2983 H 0.07313 0.48567 0.34889 0.0
H2984 H 0.04108 0.55478 0.36498 0.0
H2985 H 1.01154 0.48955 0.379 0.0
H2986 H 0.04484 0.54256 0.30569 0.0
H2987 H 0.07196 0.54233 0.32285 0.0
H2988 H 0.05527 0.56255 0.33021 0.0
H2989 H 1.00986 0.46389 0.32189 0.0
H2990 H 1.00697 0.45909 0.35147 0.0
H2991 H 0.03479 0.46106 0.34112 0.0
C2992 C 0.81474 0.88537 0.62301 0.0
C2993 C 0.79443 0.88141 0.60659 0.0
C2994 C 0.81607 0.8748 0.64394 0.0
C2995 C 0.79635 0.86022 0.64989 0.0
C2996 C 0.77562 0.85657 0.63359 0.0
C2997 C 0.77507 0.86666 0.61234 0.0
C2998 C 0.83898 0.87903 0.65959 0.0
C2999 C 0.75365 0.84212 0.63874 0.0
C3000 C 0.80285 0.81628 0.69387 0.0
C3001 C 0.8 0.82649 0.71536 0.0
C3002 C 0.80215 0.82698 0.67306 0.0
C3003 C 0.79751 0.84857 0.67264 0.0
C3004 C 0.79412 0.85882 0.69422 0.0
C3005 C 0.79591 0.84806 0.71503 0.0
C3006 C 0.80696 0.81516 0.65141 0.0
C3007 C 0.7883 0.8813 0.69537 0.0
H3008 H 0.83003 0.89648 0.61925 0.0
H3009 H 0.75909 0.86328 0.60034 0.0
H3010 H 0.83713 0.88739 0.67636 0.0
H3011 H 0.84412 0.86327 0.66312 0.0
H3012 H 0.8532 0.88933 0.65209 0.0
H3013 H 0.73842 0.84228 0.62568 0.0
H3014 H 0.75617 0.82502 0.63923 0.0
H3015 H 0.74963 0.84754 0.65596 0.0
H3016 H 0.80637 0.79986 0.69339 0.0
H3017 H 0.79363 0.85651 0.7311 0.0
H3018 H 0.82132 0.82547 0.64414 0.0
H3019 H 0.79131 0.81218 0.63823 0.0
H3020 H 0.81183 0.79919 0.65454 0.0
H3021 H 0.80346 0.89351 0.69189 0.0
H3022 H 0.78364 0.88626 0.71248 0.0
H3023 H 0.77351 0.88177 0.68193 0.0
C3024 C 0.77416 0.44809 0.57041 0.0
C3025 C 0.76652 0.42607 0.56164 0.0
C3026 C 0.75833 0.46094 0.57654 0.0
C3027 C 0.73422 0.45161 0.5737 0.0
C3028 C 0.72642 0.42925 0.56534 0.0
C3029 C 0.74268 0.41671 0.55949 0.0
C3030 C 0.76736 0.48466 0.58553 0.0
C3031 C 0.70082 0.41875 0.56195 0.0
C3032 C 0.69272 0.48071 0.60315 0.0
C3033 C 0.68344 0.49133 0.58507 0.0
C3034 C 0.70948 0.46789 0.59984 0.0
C3035 C 0.71705 0.46563 0.57793 0.0
C3036 C 0.70812 0.47674 0.5598 0.0
C3037 C 0.69156 0.48952 0.56364 0.0
C3038 C 0.71876 0.45642 0.61962 0.0
C3039 C 0.71575 0.47487 0.5362 0.0
H3040 H 0.79258 0.45541 0.5723 0.0
H3041 H 0.73666 0.3997 0.55279 0.0
H3042 H 0.76075 0.49538 0.57314 0.0
H3043 H 0.76089 0.48826 0.60209 0.0
H3044 H 0.78673 0.48901 0.58824 0.0
H3045 H 0.6977 0.40094 0.55647 0.0
H3046 H 0.69328 0.42112 0.57816 0.0
H3047 H 0.69131 0.42676 0.54866 0.0
H3048 H 0.68639 0.48191 0.61969 0.0
H3049 H 0.68479 0.49801 0.5497 0.0
H3050 H 0.73809 0.46087 0.62269 0.0
H3051 H 0.71393 0.43843 0.61525 0.0
H3052 H 0.71188 0.46059 0.63582 0.0
H3053 H 0.73492 0.48049 0.5375 0.0
H3054 H 0.70718 0.48465 0.524 0.0
H3055 H 0.71157 0.45749 0.52891 0.0
C3056 C 0.24043 0.13616 0.50929 0.0
C3057 C 0.26027 0.12782 0.51721 0.0
C3058 C 0.21731 0.12474 0.51047 0.0
C3059 C 0.21329 0.10438 0.52028 0.0
C3060 C 0.23326 0.09584 0.52824 0.0
C3061 C 0.2562 0.10742 0.52645 0.0
C3062 C 0.19705 0.13465 0.50129 0.0
C3063 C 0.23042 0.07457 0.53923 0.0
C3064 C 0.15434 0.08711 0.54418 0.0
C3065 C 0.141 0.07111 0.52712 0.0
C3066 C 0.17766 0.09754 0.5424 0.0
C3067 C 0.18842 0.09249 0.52278 0.0
C3068 C 0.17507 0.07632 0.50549 0.0
C3069 C 0.15188 0.0658 0.50793 0.0
C3070 C 0.19081 0.11418 0.56163 0.0
C3071 C 0.18513 0.0704 0.48403 0.0
H3072 H 0.24296 0.15181 0.50212 0.0
H3073 H 0.27108 0.10067 0.53287 0.0
H3074 H 0.18474 0.12268 0.48853 0.0
H3075 H 0.18731 0.13863 0.51555 0.0
H3076 H 0.20274 0.14983 0.49298 0.0
H3077 H 0.2474 0.06983 0.54436 0.0
H3078 H 0.22156 0.07605 0.55475 0.0
H3079 H 0.21921 0.06124 0.52713 0.0
H3080 H 0.14651 0.09158 0.55914 0.0
H3081 H 0.14203 0.05375 0.4944 0.0
H3082 H 0.19509 0.13047 0.55507 0.0
H3083 H 0.20756 0.10963 0.5681 0.0
H3084 H 0.18069 0.1156 0.57627 0.0
H3085 H 0.18959 0.08516 0.47473 0.0
H3086 H 0.17286 0.05753 0.47217 0.0
H3087 H 0.20152 0.06451 0.48869 0.0
C3088 C 0.27706 0.03032 0.82261 0.0
C3089 C 0.25749 0.02314 0.83359 0.0
C3090 C 0.29019 0.01552 0.81471 0.0
C3091 C 0.28358 0.9931 0.81796 0.0
C3092 C 0.26455 0.98596 0.83004 0.0
C3093 C 0.25169 1.00108 0.83768 0.0
C3094 C 0.31042 0.0237 0.80195 0.0
C3095 C 0.25712 0.96217 0.83399 0.0
C3096 C 0.29485 0.94899 0.77584 0.0
C3097 C 0.31306 0.94169 0.78855 0.0
C3098 C 0.28581 0.96644 0.78484 0.0
C3099 C 0.29517 0.97672 0.80713 0.0
C3100 C 0.31432 0.97013 0.81959 0.0
C3101 C 0.32309 0.95265 0.81011 0.0
C3102 C 0.26553 0.97319 0.77092 0.0
C3103 C 0.32473 0.98074 0.8434 0.0
H3104 H 0.28167 0.04739 0.81947 0.0
H3105 H 0.23669 0.99548 0.8463 0.0
H3106 H 0.32611 0.01767 0.80898 0.0
H3107 H 0.30603 0.01722 0.78354 0.0
H3108 H 0.3148 0.04187 0.80297 0.0
H3109 H 0.24313 0.95959 0.84522 0.0
H3110 H 0.2506 0.95229 0.81722 0.0
H3111 H 0.27222 0.95585 0.84201 0.0
H3112 H 0.28731 0.94067 0.75903 0.0
H3113 H 0.33707 0.94689 0.82003 0.0
H3114 H 0.26931 0.99111 0.76966 0.0
H3115 H 0.24977 0.96938 0.77968 0.0
H3116 H 0.26149 0.96467 0.75322 0.0
H3117 H 0.32841 0.99883 0.84356 0.0
H3118 H 0.34113 0.97542 0.84966 0.0
H3119 H 0.31204 0.97639 0.85566 0.0
C3120 C 0.40277 0.94155 0.0582 0.0
C3121 C 0.38971 0.93786 0.03624 0.0
C3122 C 0.42527 0.95475 0.06181 0.0
C3123 C 0.43501 0.96382 0.04286 0.0
C3124 C 0.42229 0.95907 0.02046 0.0
C3125 C 0.39962 0.94645 0.0175 0.0
C3126 C 0.43811 0.95987 0.08599 0.0
C3127 C 0.43235 0.96784 0.9997 0.0
C3128 C 0.48071 0.01626 0.04872 0.0
C3129 C 0.50104 1.00813 0.04694 0.0
C3130 C 0.45925 1.00197 0.04879 0.0
C3131 C 0.45807 0.97904 0.04633 0.0
C3132 C 0.47869 0.97078 0.04517 0.0
C3133 C 0.5 0.98546 0.04579 0.0
C3134 C 0.43771 0.01139 0.05066 0.0
C3135 C 0.47809 0.94648 0.04197 0.0
H3136 H 0.39492 0.93511 0.07273 0.0
H3137 H 0.38948 0.94348 1.00051 0.0
H3138 H 0.45585 0.9562 0.08667 0.0
H3139 H 0.44022 0.97761 0.09132 0.0
H3140 H 0.42875 0.95047 0.09861 0.0
H3141 H 0.42101 0.96107 0.98329 0.0
H3142 H 0.4346 0.98594 1.00108 0.0
H3143 H 0.44983 0.96386 0.99897 0.0
H3144 H 0.48155 0.0338 0.04979 0.0
H3145 H 0.51568 0.97909 0.04424 0.0
H3146 H 0.4279 1.00368 0.06396 0.0
H3147 H 0.426 1.0078 0.03402 0.0
H3148 H 0.44198 0.02941 0.05511 0.0
H3149 H 0.46869 0.93795 0.05506 0.0
H3150 H 0.49585 0.94272 0.04317 0.0
H3151 H 0.46844 0.93967 0.02479 0.0
C3152 C 0.92455 0.60978 0.78271 0.0
C3153 C 0.94449 0.6242 0.79415 0.0
C3154 C 0.90413 0.61727 0.77554 0.0
C3155 C 0.90351 0.63963 0.78038 0.0
C3156 C 0.92354 0.65425 0.79209 0.0
C3157 C 0.94391 0.64639 0.79862 0.0
C3158 C 0.88331 0.60131 0.76262 0.0
C3159 C 0.92338 0.67815 0.79789 0.0
C3160 C 0.85942 0.66629 0.74642 0.0
C3161 C 0.8427 0.66666 0.76152 0.0
C3162 C 0.87884 0.65675 0.75193 0.0
C3163 C 0.88189 0.64778 0.77327 0.0
C3164 C 0.86472 0.64739 0.78823 0.0
C3165 C 0.84519 0.65657 0.78204 0.0
C3166 C 0.89655 0.65705 0.7353 0.0
C3167 C 0.86745 0.6381 0.81123 0.0
H3168 H 0.92499 0.59262 0.77903 0.0
H3169 H 0.95928 0.65754 0.80754 0.0
H3170 H 0.86815 0.60053 0.77227 0.0
H3171 H 0.87826 0.60699 0.74561 0.0
H3172 H 0.88681 0.58453 0.75982 0.0
H3173 H 0.94024 0.68724 0.80751 0.0
H3174 H 0.9197 0.68599 0.78187 0.0
H3175 H 0.90928 0.67973 0.80846 0.0
H3176 H 0.85795 0.67429 0.73069 0.0
H3177 H 0.83217 0.65637 0.79362 0.0
H3178 H 0.90038 0.64047 0.73212 0.0
H3179 H 0.91313 0.66817 0.74288 0.0
H3180 H 0.89049 0.66267 0.71853 0.0
H3181 H 0.86989 0.62096 0.80884 0.0
H3182 H 0.85217 0.63842 0.82056 0.0
H3183 H 0.88327 0.64768 0.82219 0.0
C3184 C 0.90685 0.6099 0.04201 0.0
C3185 C 0.90118 0.62513 0.02656 0.0
C3186 C 0.92641 0.59958 0.04104 0.0
C3187 C 0.94165 0.60411 0.02415 0.0
C3188 C 0.93612 0.61943 0.00838 0.0
C3189 C 0.91627 0.6296 0.00972 0.0
C3190 C 0.9308 0.58367 0.05843 0.0
C3191 C 0.95135 0.62519 0.98996 0.0
C3192 C 1.00454 0.59148 0.0371 0.0
C3193 C 1.00315 0.57089 0.02469 0.0
C3194 C 0.98524 0.60244 0.03666 0.0
C3195 C 0.96322 0.59303 0.02346 0.0
C3196 C 0.96174 0.57236 0.01068 0.0
C3197 C 0.98136 0.56174 0.01142 0.0
C3198 C 0.98846 0.62421 0.05071 0.0
C3199 C 0.93914 0.56119 0.99627 0.0
H3200 H 0.89583 0.60591 0.05523 0.0
H3201 H 0.91265 0.64114 0.99754 0.0
H3202 H 0.93086 0.56746 0.04942 0.0
H3203 H 0.94822 0.5895 0.06871 0.0
H3204 H 0.91747 0.58151 0.07039 0.0
H3205 H 0.94499 0.63702 0.97879 0.0
H3206 H 0.96945 0.63236 0.99803 0.0
H3207 H 0.95203 0.61015 0.97903 0.0
H3208 H 0.0209 0.59919 0.04746 0.0
H3209 H 0.97949 0.54603 1.00157 0.0
H3210 H 0.97659 0.62285 0.06408 0.0
H3211 H 0.98376 0.63672 0.03952 0.0
H3212 H 1.00665 0.63002 0.05933 0.0
H3213 H 0.92535 0.55738 0.00752 0.0
H3214 H 0.9407 0.54576 0.98652 0.0
H3215 H 0.93336 0.57232 0.98389 0.0
C3216 C 0.26181 0.14403 0.84769 0.0
C3217 C 0.23904 0.14377 0.85255 0.0
C3218 C 0.27586 0.16336 0.84266 0.0
C3219 C 0.26693 0.18282 0.84275 0.0
C3220 C 0.24488 0.18312 0.84986 0.0
C3221 C 0.2311 0.16352 0.85456 0.0
C3222 C 0.29932 0.16244 0.83517 0.0
C3223 C 0.23499 0.20372 0.85056 0.0
C3224 C 0.30485 0.23683 0.8332 0.0
C3225 C 0.29792 0.23797 0.8097 0.0
C3226 C 0.29522 0.21877 0.84431 0.0
C3227 C 0.2785 0.20156 0.83148 0.0
C3228 C 0.27198 0.2024 0.80762 0.0
C3229 C 0.2817 0.22064 0.79706 0.0
C3230 C 0.30233 0.21845 0.86982 0.0
C3231 C 0.25428 0.18425 0.79329 0.0
H3232 H 0.26817 0.12886 0.84633 0.0
H3233 H 0.21366 0.16351 0.85873 0.0
H3234 H 0.29801 0.16277 0.81619 0.0
H3235 H 0.31266 0.17687 0.84308 0.0
H3236 H 0.30538 0.14733 0.83977 0.0
H3237 H 0.21954 0.20212 0.85991 0.0
H3238 H 0.24834 0.21793 0.85894 0.0
H3239 H 0.22969 0.20731 0.8327 0.0
H3240 H 0.31726 0.25031 0.84306 0.0
H3241 H 0.27636 0.2214 0.77887 0.0
H3242 H 0.30748 0.20272 0.87344 0.0
H3243 H 0.28727 0.21975 0.87914 0.0
H3244 H 0.31704 0.23212 0.87684 0.0
H3245 H 0.25968 0.16831 0.79498 0.0
H3246 H 0.25203 0.18699 0.77474 0.0
H3247 H 0.23711 0.18301 0.79961 0.0
C3248 C 0.4555 0.0312 0.3334 0.0
C3249 C 0.47544 0.03755 0.32267 0.0
C3250 C 0.44507 1.00907 0.33327 0.0
C3251 C 0.45469 0.99284 0.32199 0.0
C3252 C 0.47519 0.99904 0.31168 0.0
C3253 C 0.48539 0.02135 0.31222 0.0
C3254 C 0.42338 1.0031 0.3447 0.0
C3255 C 0.48591 0.98217 0.29948 0.0
C3256 C 0.43578 0.93444 0.33655 0.0
C3257 C 0.41777 0.92593 0.31849 0.0
C3258 C 0.44827 0.95606 0.33771 0.0
C3259 C 0.4427 0.96947 0.3203 0.0
C3260 C 0.4249 0.96085 0.30175 0.0
C3261 C 0.41262 0.9392 0.30109 0.0
C3262 C 0.46711 0.96466 0.35777 0.0
C3263 C 0.41846 0.97467 0.28285 0.0
H3264 H 0.44778 0.04358 0.34168 0.0
H3265 H 0.50075 0.0261 0.30385 0.0
H3266 H 0.40845 0.99517 0.33159 0.0
H3267 H 0.42587 0.99113 0.35738 0.0
H3268 H 0.41876 0.0176 0.3537 0.0
H3269 H 0.50252 0.98956 0.29339 0.0
H3270 H 0.48934 0.96958 0.31112 0.0
H3271 H 0.47353 0.97364 0.28441 0.0
H3272 H 0.44016 0.92415 0.34985 0.0
H3273 H 0.39859 0.93282 0.28721 0.0
H3274 H 0.46236 0.97842 0.36792 0.0
H3275 H 0.48381 0.97117 0.35141 0.0
H3276 H 0.46992 0.95187 0.36941 0.0
H3277 H 0.41164 0.98864 0.2902 0.0
H3278 H 0.40504 0.96519 0.26905 0.0
H3279 H 0.43415 0.9816 0.27503 0.0
C3280 C 0.58799 0.3822 0.6 0.0
C3281 C 0.59992 0.39434 0.62038 0.0
C3282 C 0.57547 0.3921 0.5833 0.0
C3283 C 0.57543 0.41471 0.58692 0.0
C3284 C 0.58726 0.42694 0.60762 0.0
C3285 C 0.59913 0.41653 0.62418 0.0
C3286 C 0.56278 0.37852 0.56163 0.0
C3287 C 0.5881 0.45124 0.61197 0.0
C3288 C 0.57269 0.45333 0.54121 0.0
C3289 C 0.55199 0.46032 0.54446 0.0
C3290 C 0.5795 0.43656 0.55318 0.0
C3291 C 0.56501 0.4264 0.56851 0.0
C3292 C 0.54256 0.4313 0.56929 0.0
C3293 C 0.53629 0.44843 0.55723 0.0
C3294 C 0.60362 0.43204 0.55184 0.0
C3295 C 0.52638 0.42038 0.58497 0.0
H3296 H 0.58837 0.36495 0.59713 0.0
H3297 H 0.60836 0.42596 0.63989 0.0
H3298 H 0.54473 0.38139 0.55812 0.0
H3299 H 0.57177 0.38348 0.54672 0.0
H3300 H 0.56202 0.36073 0.56274 0.0
H3301 H 0.59745 0.45817 0.62924 0.0
H3302 H 0.59704 0.46006 0.59874 0.0
H3303 H 0.57016 0.45452 0.61058 0.0
H3304 H 0.58476 0.46259 0.5312 0.0
H3305 H 0.52032 0.45394 0.55981 0.0
H3306 H 0.60355 0.41428 0.55161 0.0
H3307 H 0.61557 0.44043 0.56728 0.0
H3308 H 0.61075 0.43815 0.5363 0.0
H3309 H 0.52694 0.40274 0.58504 0.0
H3310 H 0.50811 0.42207 0.57975 0.0
H3311 H 0.53202 0.42815 0.60285 0.0
C3312 C 0.45737 0.71245 0.35838 0.0
C3313 C 0.47749 0.7126 0.34781 0.0
C3314 C 0.4366 0.71531 0.34566 0.0
C3315 C 0.43617 0.71852 0.32198 0.0
C3316 C 0.45554 0.71602 0.31074 0.0
C3317 C 0.47597 0.713 0.32379 0.0
C3318 C 0.41599 0.71723 0.35809 0.0
C3319 C 0.45572 0.71908 0.28548 0.0
C3320 C 0.38042 0.72774 0.28764 0.0
C3321 C 0.3835 0.75056 0.29131 0.0
C3322 C 0.39751 0.71685 0.2973 0.0
C3323 C 0.41809 0.72923 0.31053 0.0
C3324 C 0.42159 0.75238 0.3133 0.0
C3325 C 0.40416 0.76271 0.30383 0.0
C3326 C 0.39304 0.69216 0.29426 0.0
C3327 C 0.44352 0.76629 0.32684 0.0
H3328 H 0.45826 0.71177 0.37686 0.0
H3329 H 0.49128 0.71256 0.31535 0.0
H3330 H 0.41519 0.73477 0.36131 0.0
H3331 H 0.39943 0.70886 0.34743 0.0
H3332 H 0.4173 0.71017 0.37492 0.0
H3333 H 0.47004 0.71259 0.27848 0.0
H3334 H 0.43888 0.71089 0.27524 0.0
H3335 H 0.45823 0.73681 0.28318 0.0
H3336 H 0.36422 0.71835 0.27824 0.0
H3337 H 0.40649 0.78039 0.30657 0.0
H3338 H 0.38884 0.68568 0.31069 0.0
H3339 H 0.40878 0.6863 0.28996 0.0
H3340 H 0.37823 0.68523 0.28057 0.0
H3341 H 0.44486 0.76255 0.34508 0.0
H3342 H 0.44389 0.7841 0.32642 0.0
H3343 H 0.45913 0.76252 0.31983 0.0
C3344 C 0.14033 0.76766 0.17427 0.0
C3345 C 0.12612 0.78102 0.16414 0.0
C3346 C 0.13702 0.74538 0.16661 0.0
C3347 C 0.11889 0.73619 0.14858 0.0
C3348 C 0.10424 0.74948 0.13854 0.0
C3349 C 0.10813 0.77179 0.14634 0.0
C3350 C 0.15315 0.73175 0.17755 0.0
C3351 C 0.08457 0.74016 0.11944 0.0
C3352 C 0.12355 0.68443 0.11314 0.0
C3353 C 0.10911 0.66831 0.12317 0.0
C3354 C 0.12701 0.70658 0.12136 0.0
C3355 C 0.11555 0.71275 0.13989 0.0
C3356 C 0.10091 0.69654 0.15007 0.0
C3357 C 0.09797 0.67447 0.14166 0.0
C3358 C 0.14299 0.72338 0.11026 0.0
C3359 C 0.08822 0.70254 0.16971 0.0
H3360 H 0.15436 0.7747 0.18794 0.0
H3361 H 0.09701 0.78198 0.13852 0.0
H3362 H 0.14293 0.71768 0.18481 0.0
H3363 H 0.16246 0.72494 0.1643 0.0
H3364 H 0.16628 0.74136 0.19152 0.0
H3365 H 0.07427 0.75253 0.11401 0.0
H3366 H 0.09166 0.7338 0.10425 0.0
H3367 H 0.07267 0.72619 0.12514 0.0
H3368 H 0.13238 0.67965 0.09901 0.0
H3369 H 0.08661 0.66203 0.14928 0.0
H3370 H 0.15726 0.73259 0.12339 0.0
H3371 H 0.13319 0.73542 0.10305 0.0
H3372 H 0.15082 0.71584 0.09621 0.0
H3373 H 0.10094 0.71117 0.18449 0.0
H3374 H 0.07741 0.68797 0.17564 0.0
H3375 H 0.07675 0.71395 0.16428 0.0
C3376 C 0.08708 0.20219 0.85886 0.0
C3377 C 0.08949 0.21187 0.88154 0.0
C3378 C 0.10537 0.20633 0.84559 0.0
C3379 C 0.12658 0.22035 0.85532 0.0
C3380 C 0.12982 0.2286 0.87881 0.0
C3381 C 0.11116 0.22429 0.89168 0.0
C3382 C 0.10137 0.19703 0.82065 0.0
C3383 C 0.15242 0.24323 0.88988 0.0
C3384 C 0.17827 0.22624 0.82174 0.0
C3385 C 0.17662 0.24553 0.81135 0.0
C3386 C 0.1621 0.2177 0.83612 0.0
C3387 C 0.14394 0.22879 0.84016 0.0
C3388 C 0.14205 0.24812 0.82949 0.0
C3389 C 0.15845 0.25627 0.81526 0.0
C3390 C 0.16474 0.1971 0.84724 0.0
C3391 C 0.12277 0.26032 0.83323 0.0
H3392 H 0.07046 0.1923 0.85101 0.0
H3393 H 0.11322 0.23158 0.90931 0.0
H3394 H 0.10013 0.21041 0.8094 0.0
H3395 H 0.11626 0.18969 0.81642 0.0
H3396 H 0.08508 0.18437 0.81653 0.0
H3397 H 0.15324 0.2459 0.90889 0.0
H3398 H 0.1675 0.2361 0.88586 0.0
H3399 H 0.15421 0.25938 0.8828 0.0
H3400 H 0.19215 0.21776 0.81854 0.0
H3401 H 0.15732 0.27136 0.80756 0.0
H3402 H 0.14768 0.18564 0.84601 0.0
H3403 H 0.17138 0.20139 0.86581 0.0
H3404 H 0.17711 0.1885 0.83928 0.0
H3405 H 0.10553 0.2493 0.82794 0.0
H3406 H 0.1236 0.27492 0.82338 0.0
H3407 H 0.12386 0.26574 0.8518 0.0
C3408 C 0.59019 0.71383 0.96628 0.0
C3409 C 0.57353 0.7181 0.94854 0.0
C3410 C 0.58873 0.69285 0.97554 0.0
C3411 C 0.56972 0.67483 0.96783 0.0
C3412 C 0.55266 0.67918 0.95018 0.0
C3413 C 0.55492 0.70009 0.94075 0.0
C3414 C 0.60802 0.68991 0.99359 0.0
C3415 C 0.53157 0.6616 0.94125 0.0
C3416 C 0.57386 0.61301 0.97701 0.0
C3417 C 0.56399 0.60862 0.99751 0.0
C3418 C 0.57605 0.63395 0.9676 0.0
C3419 C 0.56766 0.65182 0.97808 0.0
C3420 C 0.55729 0.64734 0.99854 0.0
C3421 C 0.55596 0.62647 0.00796 0.0
C3422 C 0.58789 0.63703 0.94636 0.0
C3423 C 0.54728 0.66475 0.01063 0.0
H3424 H 0.60488 0.72693 0.9728 0.0
H3425 H 0.54163 0.70242 0.92726 0.0
H3426 H 0.60097 0.68648 0.00993 0.0
H3427 H 0.61536 0.67561 0.988 0.0
H3428 H 0.62234 0.7046 0.99703 0.0
H3429 H 0.51904 0.66747 0.92871 0.0
H3430 H 0.53707 0.64738 0.93273 0.0
H3431 H 0.52249 0.6557 0.95582 0.0
H3432 H 0.58053 0.60007 0.9684 0.0
H3433 H 0.54827 0.62409 0.02368 0.0
H3434 H 0.60265 0.65134 0.94979 0.0
H3435 H 0.57548 0.64056 0.93207 0.0
H3436 H 0.59462 0.62238 0.94066 0.0
H3437 H 0.5614 0.67898 0.01734 0.0
H3438 H 0.53831 0.65871 0.02522 0.0
H3439 H 0.53466 0.67068 0.99825 0.0
C3440 C 0.13315 0.80482 0.71064 0.0
C3441 C 0.12989 0.80689 0.68674 0.0
C3442 C 0.1554 0.80409 0.72291 0.0
C3443 C 0.17551 0.80534 0.71136 0.0
C3444 C 0.17232 0.80757 0.68727 0.0
C3445 C 0.14991 0.80833 0.67545 0.0
C3446 C 0.15735 0.80178 0.74842 0.0
C3447 C 0.19269 0.80895 0.67377 0.0
C3448 C 0.23824 0.82169 0.74587 0.0
C3449 C 0.24532 0.80147 0.74792 0.0
C3450 C 0.2159 0.82316 0.73436 0.0
C3451 C 0.1996 0.80402 0.72424 0.0
C3452 C 0.20665 0.78357 0.7263 0.0
C3453 C 0.22906 0.78255 0.73795 0.0
C3454 C 0.20976 0.84542 0.73297 0.0
C3455 C 0.19046 0.76256 0.71599 0.0
H3456 H 0.11816 0.80358 0.71986 0.0
H3457 H 0.14806 0.80982 0.65708 0.0
H3458 H 0.16335 0.78642 0.75203 0.0
H3459 H 0.17057 0.81554 0.75791 0.0
H3460 H 0.1405 0.80152 0.7552 0.0
H3461 H 0.18774 0.81096 0.65531 0.0
H3462 H 0.20678 0.82295 0.68128 0.0
H3463 H 0.19997 0.79388 0.67491 0.0
H3464 H 0.25026 0.83657 0.75327 0.0
H3465 H 0.23387 0.76674 0.73913 0.0
H3466 H 0.19365 0.84593 0.74085 0.0
H3467 H 0.20612 0.84856 0.71466 0.0
H3468 H 0.22393 0.85878 0.74183 0.0
H3469 H 0.17383 0.76074 0.72342 0.0
H3470 H 0.19815 0.74793 0.71904 0.0
H3471 H 0.18617 0.76305 0.69713 0.0
C3472 C 0.06862 0.3702 0.4673 0.0
C3473 C 0.08056 0.36832 0.44791 0.0
C3474 C 0.06643 0.39111 0.47813 0.0
C3475 C 0.07658 0.41143 0.47005 0.0
C3476 C 0.08903 0.40952 0.45085 0.0
C3477 C 0.09062 0.38856 0.4402 0.0
C3478 C 0.05265 0.3914 0.49812 0.0
C3479 C 0.10073 0.42987 0.44123 0.0
C3480 C 0.05456 0.46677 0.48189 0.0
C3481 C 0.07064 0.47875 0.50042 0.0
C3482 C 0.05594 0.44521 0.47247 0.0
C3483 C 0.07411 0.43446 0.48112 0.0
C3484 C 0.09043 0.44649 0.49979 0.0
C3485 C 0.08844 0.46791 0.50913 0.0
C3486 C 0.03769 0.43384 0.45299 0.0
C3487 C 0.11045 0.43677 0.50988 0.0
H3488 H 0.06033 0.35526 0.47372 0.0
H3489 H 0.09992 0.3881 0.42539 0.0
H3490 H 0.06369 0.40114 0.51339 0.0
H3491 H 0.03769 0.39949 0.49375 0.0
H3492 H 0.0459 0.37468 0.50279 0.0
H3493 H 0.11075 0.4261 0.4271 0.0
H3494 H 0.08743 0.43907 0.4345 0.0
H3495 H 0.11278 0.44081 0.45509 0.0
H3496 H 0.04051 0.47423 0.47467 0.0
H3497 H 0.1012 0.47634 0.5233 0.0
H3498 H 0.02935 0.41752 0.45755 0.0
H3499 H 0.046 0.43109 0.43734 0.0
H3500 H 0.02394 0.44342 0.44878 0.0
H3501 H 0.10371 0.42081 0.51626 0.0
H3502 H 0.1217 0.44767 0.52431 0.0
H3503 H 0.12131 0.43356 0.49632 0.0
C3504 C 0.46894 0.30846 0.18536 0.0
C3505 C 0.48389 0.29389 0.19131 0.0
C3506 C 0.44819 0.30916 0.19596 0.0
C3507 C 0.44151 0.29502 0.21324 0.0
C3508 C 0.45658 0.28039 0.21923 0.0
C3509 C 0.47705 0.28003 0.20846 0.0
C3510 C 0.43326 0.32516 0.18855 0.0
C3511 C 0.45105 0.26482 0.23722 0.0
C3512 C 0.39862 0.30743 0.25698 0.0
C3513 C 0.37703 0.29347 0.24814 0.0
C3514 C 0.41918 0.30837 0.24584 0.0
C3515 C 0.41897 0.29513 0.2249 0.0
C3516 C 0.3972 0.2811 0.21587 0.0
C3517 C 0.37693 0.28048 0.22734 0.0
C3518 C 0.44139 0.32366 0.2567 0.0
C3519 C 0.39527 0.26646 0.1939 0.0
H3520 H 0.47339 0.31938 0.17234 0.0
H3521 H 0.48787 0.26855 0.21366 0.0
H3522 H 0.41541 0.31619 0.18152 0.0
H3523 H 0.43167 0.33621 0.20367 0.0
H3524 H 0.44049 0.33523 0.17526 0.0
H3525 H 0.4643 0.2545 0.24031 0.0
H3526 H 0.45002 0.27415 0.25373 0.0
H3527 H 0.43377 0.25394 0.23175 0.0
H3528 H 0.39954 0.31779 0.27279 0.0
H3529 H 0.36078 0.26961 0.21982 0.0
H3530 H 0.44794 0.335 0.24416 0.0
H3531 H 0.45504 0.31411 0.26136 0.0
H3532 H 0.43895 0.33345 0.27243 0.0
H3533 H 0.40069 0.27642 0.17983 0.0
H3534 H 0.37726 0.25696 0.18845 0.0
H3535 H 0.40723 0.25483 0.19626 0.0
C3536 C 0.66943 0.57083 0.43847 0.0
C3537 C 0.67919 0.55957 0.42194 0.0
C3538 C 0.65721 0.55962 0.45441 0.0
C3539 C 0.65493 0.5366 0.45386 0.0
C3540 C 0.66706 0.52553 0.43903 0.0
C3541 C 0.67909 0.5372 0.42309 0.0
C3542 C 0.64492 0.57219 0.47031 0.0
C3543 C 0.66574 0.50115 0.4385 0.0
C3544 C 0.62454 0.51927 0.50379 0.0
C3545 C 0.60124 0.51673 0.49381 0.0
C3546 C 0.64266 0.52278 0.49029 0.0
C3547 C 0.63719 0.52438 0.46648 0.0
C3548 C 0.61362 0.51916 0.45599 0.0
C3549 C 0.5958 0.51521 0.46986 0.0
C3550 C 0.66757 0.52713 0.50189 0.0
C3551 C 0.60711 0.52034 0.43052 0.0
H3552 H 0.66994 0.58822 0.43791 0.0
H3553 H 0.68682 0.52845 0.41044 0.0
H3554 H 0.62576 0.56709 0.46544 0.0
H3555 H 0.6491 0.56856 0.48837 0.0
H3556 H 0.64982 0.59017 0.4696 0.0
H3557 H 0.6813 0.49648 0.43213 0.0
H3558 H 0.66423 0.49532 0.45577 0.0
H3559 H 0.65011 0.49255 0.42659 0.0
H3560 H 0.62872 0.51986 0.52232 0.0
H3561 H 0.57775 0.51297 0.46216 0.0
H3562 H 0.6744 0.54506 0.50474 0.0
H3563 H 0.67885 0.51997 0.49091 0.0
H3564 H 0.66892 0.52036 0.51888 0.0
H3565 H 0.61022 0.53775 0.42678 0.0
H3566 H 0.58848 0.5129 0.4246 0.0
H3567 H 0.6181 0.51189 0.4204 0.0
C3568 C 0.3582 0.854 0.11938 0.0
C3569 C 0.33563 0.85094 0.10726 0.0
C3570 C 0.36221 0.84544 0.14073 0.0
C3571 C 0.34312 0.83422 0.15062 0.0
C3572 C 0.32028 0.8312 0.13846 0.0
C3573 C 0.31688 0.83924 0.11678 0.0
C3574 C 0.38687 0.84852 0.15277 0.0
C3575 C 0.29933 0.81992 0.14861 0.0
C3576 C 0.34941 0.79511 0.1969 0.0
C3577 C 0.3486 0.80826 0.21705 0.0
C3578 C 0.34897 0.80367 0.17535 0.0
C3579 C 0.34684 0.82575 0.17374 0.0
C3580 C 0.34673 0.83927 0.19417 0.0
C3581 C 0.34798 0.83045 0.2156 0.0
C3582 C 0.34983 0.78882 0.15418 0.0
C3583 C 0.34381 0.86269 0.19328 0.0
H3584 H 0.37276 0.86304 0.11211 0.0
H3585 H 0.29937 0.83708 0.10765 0.0
H3586 H 0.38872 0.85862 0.16945 0.0
H3587 H 0.39092 0.83243 0.15665 0.0
H3588 H 0.3999 0.8566 0.14228 0.0
H3589 H 0.28263 0.8201 0.13768 0.0
H3590 H 0.30052 0.80266 0.15073 0.0
H3591 H 0.29899 0.82803 0.16597 0.0
H3592 H 0.34981 0.77793 0.19791 0.0
H3593 H 0.34693 0.84061 0.23104 0.0
H3594 H 0.36289 0.79694 0.14377 0.0
H3595 H 0.33263 0.78538 0.14323 0.0
H3596 H 0.35428 0.77299 0.15861 0.0
H3597 H 0.35669 0.87171 0.18328 0.0
H3598 H 0.34585 0.87151 0.21074 0.0
H3599 H 0.32618 0.86294 0.18435 0.0
C3600 C 0.03623 0.62633 0.90044 0.0
C3601 C 0.05291 0.63078 0.88544 0.0
C3602 C 0.04333 0.6259 0.92404 0.0
C3603 C 0.0675 0.63032 0.93237 0.0
C3604 C 0.08359 0.63996 0.91822 0.0
C3605 C 0.07618 0.63962 0.89458 0.0
C3606 C 0.02538 0.61686 0.939 0.0
C3607 C 0.10918 0.64696 0.92714 0.0
C3608 C 0.07991 0.60958 0.99095 0.0
C3609 C 0.08077 0.58783 0.98407 0.0
C3610 C 0.07755 0.62457 0.97446 0.0
C3611 C 0.07572 0.61735 0.95076 0.0
C3612 C 0.07888 0.59593 0.94412 0.0
C3613 C 0.08156 0.58158 0.96091 0.0
C3614 C 0.07549 0.64748 0.98254 0.0
C3615 C 0.07755 0.58736 0.91912 0.0
H3616 H 0.01811 0.62003 0.89346 0.0
H3617 H 0.08903 0.64382 0.88301 0.0
H3618 H 0.02598 0.59944 0.94109 0.0
H3619 H 0.02915 0.62597 0.95636 0.0
H3620 H 1.00745 0.61772 0.93131 0.0
H3621 H 0.11784 0.6597 0.917 0.0
H3622 H 0.11184 0.6534 0.94559 0.0
H3623 H 0.11772 0.63266 0.92559 0.0
H3624 H 0.07944 0.6145 0.00895 0.0
H3625 H 0.08273 0.56486 0.95571 0.0
H3626 H 0.05759 0.64726 0.98672 0.0
H3627 H 0.07911 0.65912 0.96938 0.0
H3628 H 0.08773 0.65355 0.99858 0.0
H3629 H 0.0602 0.58776 0.90965 0.0
H3630 H 0.0803 0.57026 0.91713 0.0
H3631 H 0.09096 0.59776 0.9108 0.0
C3632 C 0.34015 0.22748 0.60266 0.0
C3633 C 0.3345 0.20436 0.60013 0.0
C3634 C 0.33904 0.23997 0.62385 0.0
C3635 C 0.33181 0.22946 0.64339 0.0
C3636 C 0.32595 0.2062 0.64075 0.0
C3637 C 0.32747 0.1942 0.61964 0.0
C3638 C 0.34576 0.26458 0.62537 0.0
C3639 C 0.31784 0.19377 0.66038 0.0
C3640 C 0.34637 0.25742 0.7067 0.0
C3641 C 0.32553 0.26403 0.71103 0.0
C3642 C 0.34887 0.24695 0.68492 0.0
C3643 C 0.33007 0.24241 0.66643 0.0
C3644 C 0.30906 0.24918 0.67067 0.0
C3645 C 0.30712 0.25984 0.6925 0.0
C3646 C 0.37177 0.24053 0.68179 0.0
C3647 C 0.28823 0.24473 0.65217 0.0
H3648 H 0.34567 0.23588 0.58814 0.0
H3649 H 0.32287 0.17649 0.61844 0.0
H3650 H 0.33075 0.27189 0.62927 0.0
H3651 H 0.36013 0.27056 0.63972 0.0
H3652 H 0.35144 0.2705 0.60916 0.0
H3653 H 0.31359 0.17577 0.65579 0.0
H3654 H 0.33157 0.19749 0.67557 0.0
H3655 H 0.30212 0.19903 0.66562 0.0
H3656 H 0.36092 0.26043 0.72044 0.0
H3657 H 0.29083 0.26462 0.69512 0.0
H3658 H 0.37832 0.24732 0.66631 0.0
H3659 H 0.36921 0.22244 0.67891 0.0
H3660 H 0.38527 0.24636 0.69696 0.0
H3661 H 0.29309 0.25194 0.63628 0.0
H3662 H 0.27337 0.25149 0.65758 0.0
H3663 H 0.28238 0.22681 0.64773 0.0
C3664 C 0.66211 0.56898 0.27049 0.0
C3665 C 0.65664 0.57069 0.29301 0.0
C3666 C 0.64496 0.56792 0.25155 0.0
C3667 C 0.62186 0.5689 0.25527 0.0
C3668 C 0.61617 0.57055 0.27796 0.0
C3669 C 0.63365 0.57131 0.29662 0.0
C3670 C 0.65165 0.56595 0.22754 0.0
C3671 C 0.59179 0.57194 0.28252 0.0
C3672 C 0.59024 0.58857 0.20379 0.0
C3673 C 0.57903 0.56866 0.19119 0.0
C3674 C 0.60261 0.589 0.22576 0.0
C3675 C 0.6041 0.56904 0.23518 0.0
C3676 C 0.59117 0.54905 0.22351 0.0
C3677 C 0.5786 0.54913 0.20168 0.0
C3678 C 0.61582 0.6107 0.23789 0.0
C3679 C 0.59225 0.52743 0.23308 0.0
H3680 H 0.67982 0.56835 0.26764 0.0
H3681 H 0.62938 0.57269 0.31405 0.0
H3682 H 0.64035 0.55141 0.21724 0.0
H3683 H 0.64893 0.58056 0.21871 0.0
H3684 H 0.67015 0.56447 0.22764 0.0
H3685 H 0.59 0.57218 0.30115 0.0
H3686 H 0.58714 0.58702 0.27607 0.0
H3687 H 0.57901 0.55784 0.27307 0.0
H3688 H 0.59091 0.60379 0.19589 0.0
H3689 H 0.56952 0.53373 0.19229 0.0
H3690 H 0.63468 0.61226 0.23653 0.0
H3691 H 0.6139 0.61172 0.25647 0.0
H3692 H 0.60981 0.62476 0.23025 0.0
H3693 H 0.60951 0.52331 0.23133 0.0
H3694 H 0.57849 0.51391 0.22385 0.0
H3695 H 0.59042 0.52842 0.25168 0.0
C3696 C 0.31726 0.84628 0.95996 0.0
C3697 C 0.30326 0.86152 0.96438 0.0
C3698 C 0.31742 0.8371 0.93731 0.0
C3699 C 0.30307 0.8431 0.91864 0.0
C3700 C 0.28809 0.85765 0.92321 0.0
C3701 C 0.28845 0.8667 0.94589 0.0
C3702 C 0.33371 0.82171 0.93322 0.0
C3703 C 0.27225 0.86432 0.904 0.0
C3704 C 0.32062 0.84069 0.85806 0.0
C3705 C 0.30612 0.82124 0.84732 0.0
C3706 C 0.32006 0.84774 0.88128 0.0
C3707 C 0.30448 0.83519 0.8942 0.0
C3708 C 0.2897 0.81561 0.88345 0.0
C3709 C 0.29074 0.80885 0.86024 0.0
C3710 C 0.33618 0.86869 0.89199 0.0
C3711 C 0.27265 0.80185 0.89644 0.0
H3712 H 0.32889 0.84228 0.97404 0.0
H3713 H 0.27744 0.87835 0.94907 0.0
H3714 H 0.32401 0.8064 0.92301 0.0
H3715 H 0.34722 0.82943 0.92306 0.0
H3716 H 0.34254 0.81746 0.94959 0.0
H3717 H 0.26044 0.87449 0.91056 0.0
H3718 H 0.28289 0.87382 0.89237 0.0
H3719 H 0.26149 0.8496 0.89352 0.0
H3720 H 0.3327 0.85036 0.84841 0.0
H3721 H 0.27946 0.79379 0.85224 0.0
H3722 H 0.34718 0.86544 0.90755 0.0
H3723 H 0.32581 0.88069 0.8976 0.0
H3724 H 0.34776 0.87624 0.87989 0.0
H3725 H 0.28208 0.79684 0.91203 0.0
H3726 H 0.26258 0.7869 0.88577 0.0
H3727 H 0.26021 0.81162 0.90234 0.0
C3728 C 0.03424 0.57196 0.73661 0.0
C3729 C 0.0433 0.57765 0.75983 0.0
C3730 C 0.04549 0.55993 0.7221 0.0
C3731 C 0.06573 0.55267 0.73135 0.0
C3732 C 0.07463 0.55792 0.75493 0.0
C3733 C 0.06363 0.57084 0.76876 0.0
C3734 C 0.03594 0.55531 0.69682 0.0
C3735 C 0.09564 0.54978 0.76554 0.0
C3736 C 0.07959 0.50858 0.69078 0.0
C3737 C 0.09571 0.52117 0.67887 0.0
C3738 C 0.07109 0.51824 0.70948 0.0
C3739 C 0.07843 0.54105 0.7158 0.0
C3740 C 0.09606 0.55338 0.70502 0.0
C3741 C 0.10468 0.54322 0.68689 0.0
C3742 C 0.05298 0.50441 0.72128 0.0
C3743 C 0.10405 0.57782 0.71086 0.0
H3744 H 0.01849 0.5772 0.72973 0.0
H3745 H 0.07062 0.57505 0.78673 0.0
H3746 H 0.04953 0.56204 0.68624 0.0
H3747 H 0.03109 0.53738 0.69202 0.0
H3748 H 0.02035 0.56253 0.69232 0.0
H3749 H 0.09918 0.5538 0.78452 0.0
H3750 H 0.09296 0.53176 0.76168 0.0
H3751 H 0.11131 0.55715 0.75795 0.0
H3752 H 0.07265 0.49154 0.68463 0.0
H3753 H 0.11683 0.5532 0.67754 0.0
H3754 H 0.03548 0.50747 0.71503 0.0
H3755 H 0.05629 0.50877 0.7402 0.0
H3756 H 0.05268 0.48665 0.71768 0.0
H3757 H 0.08966 0.58614 0.70495 0.0
H3758 H 0.1195 0.58456 0.70254 0.0
H3759 H 0.10846 0.58194 0.72974 0.0
C3760 C 0.34594 0.20158 0.43243 0.0
C3761 C 0.33228 0.20572 0.44982 0.0
C3762 C 0.34543 0.2121 0.41152 0.0
C3763 C 0.33009 0.22688 0.40659 0.0
C3764 C 0.31599 0.23086 0.42401 0.0
C3765 C 0.31753 0.22073 0.44518 0.0
C3766 C 0.36156 0.20682 0.39486 0.0
C3767 C 0.29874 0.24565 0.4201 0.0
C3768 C 0.33953 0.26952 0.36056 0.0
C3769 C 0.32492 0.25911 0.34037 0.0
C3770 C 0.34169 0.25927 0.38161 0.0
C3771 C 0.32854 0.23794 0.38355 0.0
C3772 C 0.31393 0.22727 0.36318 0.0
C3773 C 0.31242 0.23772 0.34221 0.0
C3774 C 0.35853 0.27127 0.40187 0.0
C3775 C 0.29961 0.20463 0.36356 0.0
H3776 H 0.35755 0.19021 0.43527 0.0
H3777 H 0.30662 0.22425 0.458 0.0
H3778 H 0.3549 0.18985 0.3868 0.0
H3779 H 0.36328 0.21812 0.38116 0.0
H3780 H 0.37919 0.20727 0.40424 0.0
H3781 H 0.28835 0.24665 0.43459 0.0
H3782 H 0.30803 0.26238 0.41787 0.0
H3783 H 0.28663 0.23957 0.404 0.0
H3784 H 0.34953 0.28587 0.35995 0.0
H3785 H 0.30095 0.22912 0.32722 0.0
H3786 H 0.37113 0.26097 0.40762 0.0
H3787 H 0.34897 0.27435 0.41654 0.0
H3788 H 0.36836 0.28718 0.3977 0.0
H3789 H 0.31133 0.19306 0.36762 0.0
H3790 H 0.2885 0.19854 0.34688 0.0
H3791 H 0.28826 0.20464 0.37736 0.0
C3792 C 0.35607 0.62048 0.53271 0.0
C3793 C 0.35453 0.64073 0.52428 0.0
C3794 C 0.37321 0.60905 0.52701 0.0
C3795 C 0.3895 0.61811 0.51272 0.0
C3796 C 0.38874 0.63894 0.5049 0.0
C3797 C 0.37116 0.64996 0.51066 0.0
C3798 C 0.37337 0.58687 0.5357 0.0
C3799 C 0.40618 0.64933 0.49006 0.0
C3800 C 0.44284 0.59219 0.51391 0.0
C3801 C 0.43692 0.57705 0.49421 0.0
C3802 C 0.42815 0.60641 0.51954 0.0
C3803 C 0.40669 0.60526 0.5054 0.0
C3804 C 0.40078 0.5904 0.48524 0.0
C3805 C 0.41601 0.5766 0.47981 0.0
C3806 C 0.43525 0.62205 0.54114 0.0
C3807 C 0.37796 0.58856 0.46978 0.0
H3808 H 0.3434 0.61315 0.54328 0.0
H3809 H 0.37021 0.6656 0.50413 0.0
H3810 H 0.37028 0.57414 0.52088 0.0
H3811 H 0.39068 0.58667 0.54537 0.0
H3812 H 0.35985 0.58235 0.54712 0.0
H3813 H 0.40426 0.66622 0.48672 0.0
H3814 H 0.42421 0.6499 0.49846 0.0
H3815 H 0.40391 0.63928 0.4733 0.0
H3816 H 0.45871 0.59257 0.52541 0.0
H3817 H 0.41143 0.56536 0.46431 0.0
H3818 H 0.42437 0.61628 0.55451 0.0
H3819 H 0.43236 0.63862 0.5377 0.0
H3820 H 0.45386 0.62333 0.54821 0.0
H3821 H 0.36323 0.58281 0.47942 0.0
H3822 H 0.37646 0.577 0.45415 0.0
H3823 H 0.3761 0.60484 0.46432 0.0
C3824 C 0.87835 0.9852 0.52342 0.0
C3825 C 0.87189 0.96426 0.53112 0.0
C3826 C 0.90198 0.99549 0.52312 0.0
C3827 C 0.92043 0.98475 0.53029 0.0
C3828 C 0.91414 0.96362 0.53824 0.0
C3829 C 0.89022 0.9538 0.53874 0.0
C3830 C 0.90717 0.01805 0.51496 0.0
C3831 C 0.93277 0.95113 0.54583 0.0
C3832 C 0.98029 1.00509 0.50867 0.0
C3833 C 0.99375 0.01827 0.52791 0.0
C3834 C 0.95692 0.99385 0.50934 0.0
C3835 C 0.94604 0.99581 0.52962 0.0
C3836 C 0.95951 1.00926 0.54898 0.0
C3837 C 0.98291 0.01999 0.54797 0.0
C3838 C 0.94385 0.97967 0.48822 0.0
C3839 C 0.9491 0.01253 0.57091 0.0
H3840 H 0.86472 0.99373 0.51745 0.0
H3841 H 0.88586 0.93761 0.5445 0.0
H3842 H 0.91905 0.02954 0.52849 0.0
H3843 H 0.91622 0.01757 0.49948 0.0
H3844 H 0.89113 0.02465 0.51062 0.0
H3845 H 0.92538 0.93496 0.55145 0.0
H3846 H 0.94288 0.94854 0.53146 0.0
H3847 H 0.94518 0.96079 0.56028 0.0
H3848 H 0.98816 1.00321 0.49308 0.0
H3849 H 0.99274 0.02996 0.5631 0.0
H3850 H 0.92821 0.98606 0.48179 0.0
H3851 H 0.93767 0.96278 0.49268 0.0
H3852 H 0.95476 0.97897 0.47411 0.0
H3853 H 0.93342 0.01981 0.56734 0.0
H3854 H 0.96161 0.02338 0.58452 0.0
H3855 H 0.94337 0.99651 0.57761 0.0
C3856 C 0.85581 0.07287 0.25421 0.0
C3857 C 0.84636 0.05898 0.23418 0.0
C3858 C 0.84469 0.08942 0.26178 0.0
C3859 C 0.82384 0.09223 0.24878 0.0
C3860 C 0.81346 0.0774 0.22936 0.0
C3861 C 0.82483 0.06081 0.22233 0.0
C3862 C 0.85608 0.10474 0.2828 0.0
C3863 C 0.79128 0.08001 0.21504 0.0
C3864 C 0.79112 0.13242 0.27484 0.0
C3865 C 0.80047 0.15166 0.26543 0.0
C3866 C 0.79815 0.1127 0.26923 0.0
C3867 C 0.81474 0.1123 0.25377 0.0
C3868 C 0.82374 0.13151 0.24374 0.0
C3869 C 0.81661 0.15098 0.24982 0.0
C3870 C 0.78833 0.09249 0.28028 0.0
C3871 C 0.84143 0.13169 0.22708 0.0
H3872 H 0.87232 0.07129 0.26358 0.0
H3873 H 0.81745 0.05002 0.20687 0.0
H3874 H 0.8633 0.12104 0.27743 0.0
H3875 H 0.84307 0.10704 0.29446 0.0
H3876 H 0.87049 0.09864 0.29259 0.0
H3877 H 0.78384 0.06551 0.20247 0.0
H3878 H 0.77799 0.08269 0.22622 0.0
H3879 H 0.79499 0.09462 0.20538 0.0
H3880 H 0.77843 0.13281 0.2867 0.0
H3881 H 0.82425 0.16585 0.24282 0.0
H3882 H 0.80253 0.08738 0.29142 0.0
H3883 H 0.78085 0.07872 0.26688 0.0
H3884 H 0.7746 0.09525 0.29093 0.0
H3885 H 0.85781 0.12816 0.23599 0.0
H3886 H 0.84559 0.14767 0.21978 0.0
H3887 H 0.83482 0.11869 0.21267 0.0
C3888 C 0.70895 0.15957 0.01075 0.0
C3889 C 0.72796 0.15271 1.00243 0.0
C3890 C 0.68747 0.14494 0.00967 0.0
C3891 C 0.68499 0.12312 0.99978 0.0
C3892 C 0.70362 0.11668 0.98978 0.0
C3893 C 0.72494 0.13151 0.99138 0.0
C3894 C 0.668 0.1524 0.02055 0.0
C3895 C 0.70157 0.09369 0.97875 0.0
C3896 C 0.64503 0.08024 0.02669 0.0
C3897 C 0.62448 0.0764 0.01097 0.0
C3898 C 0.66491 0.09505 0.02291 0.0
C3899 C 0.66434 0.10633 1.00286 0.0
C3900 C 0.64403 0.10188 0.98638 0.0
C3901 C 0.62428 0.08693 0.99063 0.0
C3902 C 0.68632 0.09913 0.04082 0.0
C3903 C 0.6429 0.11345 0.96469 0.0
H3904 H 0.7112 0.17596 0.01922 0.0
H3905 H 0.73953 0.12625 0.98462 0.0
H3906 H 0.65134 0.14769 0.00875 0.0
H3907 H 0.66557 0.1442 0.03649 0.0
H3908 H 0.67169 0.1704 0.02509 0.0
H3909 H 0.71618 0.09229 0.96876 0.0
H3910 H 0.70168 0.08223 0.99233 0.0
H3911 H 0.68486 0.08837 0.9671 0.0
H3912 H 0.64545 0.07204 0.04235 0.0
H3913 H 0.60846 0.08411 0.97841 0.0
H3914 H 0.69032 0.11652 0.04807 0.0
H3915 H 0.70163 0.09602 0.03278 0.0
H3916 H 0.68407 0.08862 0.05519 0.0
H3917 H 0.64349 0.1311 0.96921 0.0
H3918 H 0.62672 0.10664 0.95261 0.0
H3919 H 0.6582 0.11222 0.95571 0.0
C3920 C 0.20215 0.47011 0.28188 0.0
C3921 C 0.18199 0.45452 0.27313 0.0
C3922 C 0.22178 0.46378 0.29318 0.0
C3923 C 0.22135 0.4413 0.2953 0.0
C3924 C 0.20067 0.42562 0.28745 0.0
C3925 C 0.18112 0.43246 0.27663 0.0
C3926 C 0.24335 0.481 0.30182 0.0
C3927 C 0.19964 0.40145 0.28914 0.0
C3928 C 0.27698 0.41996 0.29352 0.0
C3929 C 0.28175 0.41486 0.31622 0.0
C3930 C 0.25775 0.42924 0.28671 0.0
C3931 C 0.24317 0.43386 0.30312 0.0
C3932 C 0.24864 0.4299 0.32639 0.0
C3933 C 0.26778 0.42015 0.33263 0.0
C3934 C 0.25231 0.43291 0.26165 0.0
C3935 C 0.23379 0.43514 0.34443 0.0
H3936 H 0.20277 0.48724 0.27945 0.0
H3937 H 0.16555 0.42039 0.2699 0.0
H3938 H 0.25052 0.47842 0.31953 0.0
H3939 H 0.257 0.4797 0.29061 0.0
H3940 H 0.23979 0.49783 0.30188 0.0
H3941 H 0.18177 0.39157 0.28381 0.0
H3942 H 0.21154 0.39561 0.27793 0.0
H3943 H 0.20563 0.39842 0.30703 0.0
H3944 H 0.28753 0.41551 0.28072 0.0
H3945 H 0.27151 0.41618 0.35018 0.0
H3946 H 0.2506 0.45012 0.26003 0.0
H3947 H 0.23538 0.42229 0.25416 0.0
H3948 H 0.26595 0.42925 0.2513 0.0
H3949 H 0.23036 0.45192 0.34341 0.0
H3950 H 0.24212 0.43382 0.36213 0.0
H3951 H 0.21667 0.42362 0.34127 0.0
C3952 C 0.22699 0.47226 0.02863 0.0
C3953 C 0.22521 0.44981 0.03194 0.0
C3954 C 0.20735 0.48283 0.02755 0.0
C3955 C 0.18461 0.47116 0.03004 0.0
C3956 C 0.18272 0.44852 0.03355 0.0
C3957 C 0.20262 0.43828 0.03431 0.0
C3958 C 0.21102 0.50675 0.02362 0.0
C3959 C 0.15944 0.43496 0.03663 0.0
C3960 C 0.13795 0.50429 0.04807 0.0
C3961 C 0.12329 0.50493 0.02728 0.0
C3962 C 0.15731 0.49337 0.04923 0.0
C3963 C 0.16315 0.4826 0.02911 0.0
C3964 C 0.14839 0.48313 0.00807 0.0
C3965 C 0.1289 0.49393 0.00745 0.0
C3966 C 0.17156 0.49329 0.0723 0.0
C3967 C 0.15328 0.4723 0.98592 0.0
H3968 H 0.24393 0.48173 0.02666 0.0
H3969 H 0.20043 0.42106 0.0369 0.0
H3970 H 0.19957 0.50898 0.00791 0.0
H3971 H 0.20608 0.51621 0.0383 0.0
H3972 H 0.2294 0.51369 0.02163 0.0
H3973 H 0.16052 0.4178 0.0396 0.0
H3974 H 0.15262 0.44238 0.05146 0.0
H3975 H 0.14664 0.43478 0.02112 0.0
H3976 H 0.13417 0.51227 0.06377 0.0
H3977 H 0.11812 0.49392 0.99116 0.0
H3978 H 0.19003 0.50101 0.07171 0.0
H3979 H 0.17122 0.47617 0.07638 0.0
H3980 H 0.16504 0.50213 0.08644 0.0
H3981 H 0.17111 0.47957 0.98254 0.0
H3982 H 0.14059 0.47404 0.97093 0.0
H3983 H 0.15267 0.45461 0.98747 0.0
C3984 C 0.8709 0.92314 0.17931 0.0
C3985 C 0.8612 0.94148 0.18429 0.0
C3986 C 0.86122 0.90265 0.18597 0.0
C3987 C 0.84152 0.90065 0.19787 0.0
C3988 C 0.82995 0.91838 0.20018 0.0
C3989 C 0.83989 0.93861 0.19321 0.0
C3990 C 0.87366 0.8839 0.18264 0.0
C3991 C 0.80874 0.91685 0.21254 0.0
C3992 C 0.81398 0.84611 0.21705 0.0
C3993 C 0.82569 0.84744 0.23953 0.0
C3994 C 0.81907 0.86319 0.20302 0.0
C3995 C 0.83603 0.88203 0.21188 0.0
C3996 C 0.84776 0.8835 0.23462 0.0
C3997 C 0.84254 0.86612 0.24811 0.0
C3998 C 0.80653 0.86098 0.17875 0.0
C3999 C 0.86582 0.90348 0.24478 0.0
H4000 H 0.88715 0.92511 0.17203 0.0
H4001 H 0.83196 0.9526 0.19661 0.0
H4002 H 0.88453 0.88245 0.19903 0.0
H4003 H 0.86103 0.86817 0.17796 0.0
H4004 H 0.88526 0.88648 0.16906 0.0
H4005 H 0.79939 0.93038 0.20908 0.0
H4006 H 0.79642 0.90102 0.20742 0.0
H4007 H 0.81428 0.9178 0.23139 0.0
H4008 H 0.80112 0.83156 0.21023 0.0
H4009 H 0.8516 0.86723 0.26548 0.0
H4010 H 0.81933 0.86152 0.16629 0.0
H4011 H 0.79763 0.87491 0.17613 0.0
H4012 H 0.7934 0.84546 0.17468 0.0
H4013 H 0.88038 0.906 0.23428 0.0
H4014 H 0.87312 0.90207 0.26283 0.0
H4015 H 0.85798 0.91827 0.24451 0.0
C4016 C 0.63012 0.0506 0.69841 0.0
C4017 C 0.63733 0.03517 0.71241 0.0
C4018 C 0.64318 0.07211 0.69994 0.0
C4019 C 0.66384 0.07831 0.71589 0.0
C4020 C 0.67145 0.06268 0.72966 0.0
C4021 C 0.65816 0.04135 0.72773 0.0
C4022 C 0.63464 0.08831 0.68482 0.0
C4023 C 0.69341 0.0686 0.74685 0.0
C4024 C 0.70999 0.12869 0.71122 0.0
C4025 C 0.70536 0.14371 0.7281 0.0
C4026 C 0.69611 0.10757 0.70644 0.0
C4027 C 0.67722 0.10129 0.71897 0.0
C4028 C 0.67218 0.11652 0.73572 0.0
C4029 C 0.68628 0.13756 0.74005 0.0
C4030 C 0.70193 0.09185 0.68835 0.0
C4031 C 0.65229 0.11039 0.74955 0.0
H4032 H 0.61412 0.04598 0.68645 0.0
H4033 H 0.66399 0.0296 0.73858 0.0
H4034 H 0.63028 0.10181 0.69569 0.0
H4035 H 0.64859 0.09574 0.67499 0.0
H4036 H 0.61896 0.08062 0.67244 0.0
H4037 H 0.69729 0.05436 0.75577 0.0
H4038 H 0.70852 0.07524 0.73807 0.0
H4039 H 0.69163 0.0816 0.76002 0.0
H4040 H 0.72447 0.1335 0.70164 0.0
H4041 H 0.6827 0.14905 0.75321 0.0
H4042 H 0.6863 0.08511 0.67559 0.0
H4043 H 0.70737 0.07783 0.69654 0.0
H4044 H 0.71619 0.09973 0.67908 0.0
H4045 H 0.6358 0.10399 0.73786 0.0
H4046 H 0.64987 0.12449 0.76099 0.0
H4047 H 0.65565 0.09715 0.76033 0.0
loop_
_geom_bond_atom_site_label_1
_geom_bond_atom_site_label_2
_geom_bond_distance
_geom_bond_site_symmetry_2
_ccdc_geom_bond_type
C0 O1 1.306 . S
C0 O3 1.160 . S
O1 C0 1.306 . S
O1 Cd2 2.228 . S
Cd2 O1 2.228 . S
Cd2 O6 2.273 . S
Cd2 O10 2.277 . S
O3 C0 1.160 . S
O3 Cd4 2.203 . S
Cd4 O3 2.203 . S
Cd4 O6 2.411 . S
Cd4 O7 2.333 . S
Cd4 O8 2.352 . S
Cd4 O12 2.277 . S
Cd4 O13 2.356 . S
C5 O10 1.209 . S
C5 O12 1.226 . S
O6 Cd2 2.273 . S
O6 Cd4 2.411 . S
O6 C9 1.320 . S
O7 Cd4 2.333 . S
O7 C9 1.214 . S
O8 Cd4 2.352 . S
O8 C11 1.258 . S
C9 O6 1.320 . S
C9 O7 1.214 . S
O10 Cd2 2.277 . S
O10 C5 1.209 . S
C11 O8 1.258 . S
C11 O13 1.282 . S
O12 Cd4 2.277 . S
O12 C5 1.226 . S
O13 Cd4 2.356 . S
O13 C11 1.282 . S
C14 O15 1.306 . S
C14 O17 1.160 . S
O15 C14 1.306 . S
O15 Cd16 2.228 . S
Cd16 O15 2.228 . S
Cd16 O20 2.273 . S
Cd16 O24 2.277 . S
O17 C14 1.160 . S
O17 Cd18 2.203 . S
Cd18 O17 2.203 . S
Cd18 O20 2.411 . S
Cd18 O21 2.333 . S
Cd18 O22 2.352 . S
Cd18 O26 2.277 . S
Cd18 O27 2.356 . S
C19 O24 1.209 . S
C19 O26 1.226 . S
O20 Cd16 2.273 . S
O20 Cd18 2.411 . S
O20 C23 1.320 . S
O21 Cd18 2.333 . S
O21 C23 1.214 . S
O22 Cd18 2.352 . S
O22 C25 1.258 . S
C23 O20 1.320 . S
C23 O21 1.214 . S
O24 Cd16 2.277 . S
O24 C19 1.209 . S
C25 O22 1.258 . S
C25 O27 1.282 . S
O26 Cd18 2.277 . S
O26 C19 1.226 . S
O27 Cd18 2.356 . S
O27 C25 1.282 . S
C28 O29 1.306 . S
C28 O31 1.160 . S
O29 C28 1.306 . S
O29 Cd30 2.228 . S
Cd30 O29 2.228 . S
Cd30 O34 2.273 . S
Cd30 O38 2.277 . S
O31 C28 1.160 . S
O31 Cd32 2.203 . S
Cd32 O31 2.203 . S
Cd32 O34 2.411 . S
Cd32 O35 2.333 . S
Cd32 O36 2.352 . S
Cd32 O40 2.277 . S
Cd32 O41 2.356 . S
C33 O38 1.209 . S
C33 O40 1.226 . S
O34 Cd30 2.273 . S
O34 Cd32 2.411 . S
O34 C37 1.320 . S
O35 Cd32 2.333 . S
O35 C37 1.214 . S
O36 Cd32 2.352 . S
O36 C39 1.258 . S
C37 O34 1.320 . S
C37 O35 1.214 . S
O38 Cd30 2.277 . S
O38 C33 1.209 . S
C39 O36 1.258 . S
C39 O41 1.282 . S
O40 Cd32 2.277 . S
O40 C33 1.226 . S
O41 Cd32 2.356 . S
O41 C39 1.282 . S
C42 O43 1.306 . S
C42 O45 1.160 . S
O43 C42 1.306 . S
O43 Cd44 2.228 . S
Cd44 O43 2.228 . S
Cd44 O48 2.273 . S
Cd44 O52 2.277 . S
O45 C42 1.160 . S
O45 Cd46 2.203 . S
Cd46 O45 2.203 . S
Cd46 O48 2.411 . S
Cd46 O49 2.333 . S
Cd46 O50 2.352 . S
Cd46 O54 2.277 . S
Cd46 O55 2.356 . S
C47 O52 1.209 . S
C47 O54 1.226 . S
O48 Cd44 2.273 . S
O48 Cd46 2.411 . S
O48 C51 1.320 . S
O49 Cd46 2.333 . S
O49 C51 1.214 . S
O50 Cd46 2.352 . S
O50 C53 1.258 . S
C51 O48 1.320 . S
C51 O49 1.214 . S
O52 Cd44 2.277 . S
O52 C47 1.209 . S
C53 O50 1.258 . S
C53 O55 1.282 . S
O54 Cd46 2.277 . S
O54 C47 1.226 . S
O55 Cd46 2.356 . S
O55 C53 1.282 . S
C56 O57 1.306 . S
C56 O59 1.160 . S
O57 C56 1.306 . S
O57 Cd58 2.228 . S
Cd58 O57 2.228 . S
Cd58 O62 2.273 . S
Cd58 O66 2.277 . S
O59 C56 1.160 . S
O59 Cd60 2.203 . S
Cd60 O59 2.203 . S
Cd60 O62 2.411 . S
Cd60 O63 2.333 . S
Cd60 O64 2.352 . S
Cd60 O68 2.277 . S
Cd60 O69 2.356 . S
C61 O66 1.209 . S
C61 O68 1.226 . S
O62 Cd58 2.273 . S
O62 Cd60 2.411 . S
O62 C65 1.320 . S
O63 Cd60 2.333 . S
O63 C65 1.214 . S
O64 Cd60 2.352 . S
O64 C67 1.258 . S
C65 O62 1.320 . S
C65 O63 1.214 . S
O66 Cd58 2.277 . S
O66 C61 1.209 . S
C67 O64 1.258 . S
C67 O69 1.282 . S
O68 Cd60 2.277 . S
O68 C61 1.226 . S
O69 Cd60 2.356 . S
O69 C67 1.282 . S
C70 O71 1.306 . S
C70 O73 1.160 . S
O71 C70 1.306 . S
O71 Cd72 2.228 . S
Cd72 O71 2.228 . S
Cd72 O76 2.273 . S
Cd72 O80 2.277 . S
O73 C70 1.160 . S
O73 Cd74 2.203 . S
Cd74 O73 2.203 . S
Cd74 O76 2.411 . S
Cd74 O77 2.333 . S
Cd74 O78 2.352 . S
Cd74 O82 2.277 . S
Cd74 O83 2.356 . S
C75 O80 1.209 . S
C75 O82 1.226 . S
O76 Cd72 2.273 . S
O76 Cd74 2.411 . S
O76 C79 1.320 . S
O77 Cd74 2.333 . S
O77 C79 1.214 . S
O78 Cd74 2.352 . S
O78 C81 1.258 . S
C79 O76 1.320 . S
C79 O77 1.214 . S
O80 Cd72 2.277 . S
O80 C75 1.209 . S
C81 O78 1.258 . S
C81 O83 1.282 . S
O82 Cd74 2.277 . S
O82 C75 1.226 . S
O83 Cd74 2.356 . S
O83 C81 1.282 . S
C84 O85 1.306 . S
C84 O87 1.160 . S
O85 C84 1.306 . S
O85 Cd86 2.228 . S
Cd86 O85 2.228 . S
Cd86 O90 2.273 . S
Cd86 O94 2.277 . S
O87 C84 1.160 . S
O87 Cd88 2.203 . S
Cd88 O87 2.203 . S
Cd88 O90 2.411 . S
Cd88 O91 2.333 . S
Cd88 O92 2.352 . S
Cd88 O96 2.277 . S
Cd88 O97 2.356 . S
C89 O94 1.209 . S
C89 O96 1.226 . S
O90 Cd86 2.273 . S
O90 Cd88 2.411 . S
O90 C93 1.320 . S
O91 Cd88 2.333 . S
O91 C93 1.214 . S
O92 Cd88 2.352 . S
O92 C95 1.258 . S
C93 O90 1.320 . S
C93 O91 1.214 . S
O94 Cd86 2.277 . S
O94 C89 1.209 . S
C95 O92 1.258 . S
C95 O97 1.282 . S
O96 Cd88 2.277 . S
O96 C89 1.226 . S
O97 Cd88 2.356 . S
O97 C95 1.282 . S
C98 O99 1.306 . S
C98 O101 1.160 . S
O99 C98 1.306 . S
O99 Cd100 2.228 1_655 S
Cd100 O99 2.228 1_455 S
Cd100 O104 2.273 . S
Cd100 O108 2.277 . S
O101 C98 1.160 . S
O101 Cd102 2.203 1_655 S
Cd102 O101 2.203 1_455 S
Cd102 O104 2.411 . S
Cd102 O105 2.333 . S
Cd102 O106 2.352 1_455 S
Cd102 O110 2.277 . S
Cd102 O111 2.356 . S
C103 O108 1.209 . S
C103 O110 1.226 . S
O104 Cd100 2.273 . S
O104 Cd102 2.411 . S
O104 C107 1.320 . S
O105 Cd102 2.333 . S
O105 C107 1.214 . S
O106 Cd102 2.352 1_655 S
O106 C109 1.263 . S
C107 O104 1.320 . S
C107 O105 1.214 . S
O108 Cd100 2.277 . S
O108 C103 1.209 . S
C109 O106 1.263 . S
C109 O111 1.281 1_655 S
O110 Cd102 2.277 . S
O110 C103 1.226 . S
O111 Cd102 2.356 . S
O111 C109 1.281 1_455 S
C112 O113 1.306 . S
C112 O115 1.160 . S
O113 C112 1.306 . S
O113 Cd114 2.228 . S
Cd114 O113 2.228 . S
Cd114 O118 2.273 . S
Cd114 O122 2.277 . S
O115 C112 1.160 . S
O115 Cd116 2.203 . S
Cd116 O115 2.203 . S
Cd116 O118 2.411 . S
Cd116 O119 2.333 . S
Cd116 O120 2.352 . S
Cd116 O124 2.277 . S
Cd116 O125 2.356 . S
C117 O122 1.209 . S
C117 O124 1.226 . S
O118 Cd114 2.273 . S
O118 Cd116 2.411 . S
O118 C121 1.320 . S
O119 Cd116 2.333 . S
O119 C121 1.214 . S
O120 Cd116 2.352 . S
O120 C123 1.258 . S
C121 O118 1.320 . S
C121 O119 1.214 . S
O122 Cd114 2.277 . S
O122 C117 1.209 . S
C123 O120 1.258 . S
C123 O125 1.282 . S
O124 Cd116 2.277 . S
O124 C117 1.226 . S
O125 Cd116 2.356 . S
O125 C123 1.282 . S
C126 O127 1.306 . S
C126 O129 1.160 . S
O127 C126 1.306 . S
O127 Cd128 2.228 . S
Cd128 O127 2.228 . S
Cd128 O132 2.273 . S
Cd128 O136 2.277 . S
O129 C126 1.160 . S
O129 Cd130 2.203 . S
Cd130 O129 2.203 . S
Cd130 O132 2.411 . S
Cd130 O133 2.333 . S
Cd130 O134 2.352 . S
Cd130 O138 2.277 . S
Cd130 O139 2.356 . S
C131 O136 1.209 . S
C131 O138 1.226 . S
O132 Cd128 2.273 . S
O132 Cd130 2.411 . S
O132 C135 1.320 . S
O133 Cd130 2.333 . S
O133 C135 1.214 . S
O134 Cd130 2.352 . S
O134 C137 1.258 . S
C135 O132 1.320 . S
C135 O133 1.214 . S
O136 Cd128 2.277 . S
O136 C131 1.209 . S
C137 O134 1.258 . S
C137 O139 1.282 . S
O138 Cd130 2.277 . S
O138 C131 1.226 . S
O139 Cd130 2.356 . S
O139 C137 1.282 . S
C140 O141 1.306 . S
C140 O143 1.160 . S
O141 C140 1.306 . S
O141 Cd142 2.228 . S
Cd142 O141 2.228 . S
Cd142 O146 2.273 . S
Cd142 O150 2.277 . S
O143 C140 1.160 . S
O143 Cd144 2.203 . S
Cd144 O143 2.203 . S
Cd144 O146 2.411 . S
Cd144 O147 2.333 . S
Cd144 O148 2.352 . S
Cd144 O152 2.277 . S
Cd144 O153 2.356 . S
C145 O150 1.209 . S
C145 O152 1.226 . S
O146 Cd142 2.273 . S
O146 Cd144 2.411 . S
O146 C149 1.320 . S
O147 Cd144 2.333 . S
O147 C149 1.214 . S
O148 Cd144 2.352 . S
O148 C151 1.258 . S
C149 O146 1.320 . S
C149 O147 1.214 . S
O150 Cd142 2.277 . S
O150 C145 1.209 . S
C151 O148 1.258 . S
C151 O153 1.282 . S
O152 Cd144 2.277 . S
O152 C145 1.226 . S
O153 Cd144 2.356 . S
O153 C151 1.282 . S
C154 O155 1.306 . S
C154 O157 1.160 . S
O155 C154 1.306 . S
O155 Cd156 2.228 . S
Cd156 O155 2.228 . S
Cd156 O160 2.273 . S
Cd156 O164 2.277 . S
O157 C154 1.160 . S
O157 Cd158 2.203 . S
Cd158 O157 2.203 . S
Cd158 O160 2.411 . S
Cd158 O161 2.333 . S
Cd158 O162 2.352 . S
Cd158 O166 2.277 . S
Cd158 O167 2.356 . S
C159 O164 1.209 . S
C159 O166 1.226 . S
O160 Cd156 2.273 . S
O160 Cd158 2.411 . S
O160 C163 1.320 . S
O161 Cd158 2.333 . S
O161 C163 1.214 . S
O162 Cd158 2.352 . S
O162 C165 1.258 . S
C163 O160 1.320 . S
C163 O161 1.214 . S
O164 Cd156 2.277 . S
O164 C159 1.209 . S
C165 O162 1.258 . S
C165 O167 1.282 . S
O166 Cd158 2.277 . S
O166 C159 1.226 . S
O167 Cd158 2.356 . S
O167 C165 1.282 . S
C168 O169 1.306 . S
C168 O171 1.160 . S
O169 C168 1.306 . S
O169 Cd170 2.228 1_554 S
Cd170 O169 2.228 1_556 S
Cd170 O174 2.273 1_556 S
Cd170 O178 2.277 . S
O171 C168 1.160 . S
O171 Cd172 2.203 . S
Cd172 O171 2.203 . S
Cd172 O174 2.411 . S
Cd172 O175 2.333 . S
Cd172 O176 2.352 . S
Cd172 O180 2.277 . S
Cd172 O181 2.356 . S
C173 O178 1.209 . S
C173 O180 1.226 1_556 S
O174 Cd170 2.273 1_554 S
O174 Cd172 2.411 . S
O174 C177 1.320 . S
O175 Cd172 2.333 . S
O175 C177 1.214 . S
O176 Cd172 2.352 . S
O176 C179 1.258 . S
C177 O174 1.320 . S
C177 O175 1.214 . S
O178 Cd170 2.277 . S
O178 C173 1.209 . S
C179 O176 1.258 . S
C179 O181 1.282 . S
O180 Cd172 2.277 . S
O180 C173 1.226 1_554 S
O181 Cd172 2.356 . S
O181 C179 1.282 . S
C182 O183 1.306 . S
C182 O185 1.161 . S
O183 C182 1.306 . S
O183 Cd184 2.228 . S
Cd184 O183 2.228 . S
Cd184 O188 2.273 1_554 S
Cd184 O192 2.277 . S
O185 C182 1.161 . S
O185 Cd186 2.203 1_554 S
Cd186 O185 2.203 1_556 S
Cd186 O188 2.411 . S
Cd186 O189 2.333 . S
Cd186 O190 2.352 . S
Cd186 O194 2.277 1_556 S
Cd186 O195 2.356 . S
C187 O192 1.209 . S
C187 O194 1.226 . S
O188 Cd184 2.273 1_556 S
O188 Cd186 2.411 . S
O188 C191 1.320 . S
O189 Cd186 2.333 . S
O189 C191 1.214 . S
O190 Cd186 2.352 . S
O190 C193 1.258 . S
C191 O188 1.320 . S
C191 O189 1.214 . S
O192 Cd184 2.277 . S
O192 C187 1.209 . S
C193 O190 1.258 . S
C193 O195 1.282 . S
O194 Cd186 2.277 1_554 S
O194 C187 1.226 . S
O195 Cd186 2.356 . S
O195 C193 1.282 . S
C196 O197 1.306 . S
C196 O199 1.160 . S
O197 C196 1.306 . S
O197 Cd198 2.228 . S
Cd198 O197 2.228 . S
Cd198 O202 2.273 . S
Cd198 O206 2.277 . S
O199 C196 1.160 . S
O199 Cd200 2.203 . S
Cd200 O199 2.203 . S
Cd200 O202 2.411 . S
Cd200 O203 2.333 . S
Cd200 O204 2.352 . S
Cd200 O208 2.277 . S
Cd200 O209 2.356 . S
C201 O206 1.209 . S
C201 O208 1.226 . S
O202 Cd198 2.273 . S
O202 Cd200 2.411 . S
O202 C205 1.320 . S
O203 Cd200 2.333 . S
O203 C205 1.214 . S
O204 Cd200 2.352 . S
O204 C207 1.258 . S
C205 O202 1.320 . S
C205 O203 1.214 . S
O206 Cd198 2.277 . S
O206 C201 1.209 . S
C207 O204 1.258 . S
C207 O209 1.282 . S
O208 Cd200 2.277 . S
O208 C201 1.226 . S
O209 Cd200 2.356 . S
O209 C207 1.282 . S
C210 O211 1.306 . S
C210 O213 1.160 . S
O211 C210 1.306 . S
O211 Cd212 2.228 . S
Cd212 O211 2.228 . S
Cd212 O216 2.273 . S
Cd212 O220 2.277 . S
O213 C210 1.160 . S
O213 Cd214 2.203 . S
Cd214 O213 2.203 . S
Cd214 O216 2.411 . S
Cd214 O217 2.333 . S
Cd214 O218 2.352 . S
Cd214 O222 2.277 . S
Cd214 O223 2.356 . S
C215 O220 1.209 . S
C215 O222 1.226 . S
O216 Cd212 2.273 . S
O216 Cd214 2.411 . S
O216 C219 1.320 . S
O217 Cd214 2.333 . S
O217 C219 1.214 . S
O218 Cd214 2.352 . S
O218 C221 1.258 . S
C219 O216 1.320 . S
C219 O217 1.214 . S
O220 Cd212 2.277 . S
O220 C215 1.209 . S
C221 O218 1.258 . S
C221 O223 1.282 . S
O222 Cd214 2.277 . S
O222 C215 1.226 . S
O223 Cd214 2.356 . S
O223 C221 1.282 . S
C224 O225 1.306 1_545 S
C224 O227 1.160 . S
O225 C224 1.306 1_565 S
O225 Cd226 2.228 . S
Cd226 O225 2.228 . S
Cd226 O230 2.273 1_565 S
Cd226 O234 2.277 . S
O227 C224 1.160 . S
O227 Cd228 2.203 . S
Cd228 O227 2.203 . S
Cd228 O230 2.411 . S
Cd228 O231 2.333 . S
Cd228 O232 2.352 . S
Cd228 O236 2.277 1_545 S
Cd228 O237 2.356 . S
C229 O234 1.209 . S
C229 O236 1.226 . S
O230 Cd226 2.273 1_545 S
O230 Cd228 2.411 . S
O230 C233 1.320 . S
O231 Cd228 2.333 . S
O231 C233 1.214 . S
O232 Cd228 2.352 . S
O232 C235 1.258 . S
C233 O230 1.320 . S
C233 O231 1.214 . S
O234 Cd226 2.277 . S
O234 C229 1.209 . S
C235 O232 1.258 . S
C235 O237 1.282 . S
O236 Cd228 2.277 1_565 S
O236 C229 1.226 . S
O237 Cd228 2.356 . S
O237 C235 1.282 . S
C238 O239 1.306 . S
C238 O241 1.160 . S
O239 C238 1.306 . S
O239 Cd240 2.228 . S
Cd240 O239 2.228 . S
Cd240 O244 2.273 . S
Cd240 O248 2.277 . S
O241 C238 1.160 . S
O241 Cd242 2.203 . S
Cd242 O241 2.203 . S
Cd242 O244 2.411 . S
Cd242 O245 2.333 . S
Cd242 O246 2.352 . S
Cd242 O250 2.277 . S
Cd242 O251 2.356 . S
C243 O248 1.209 . S
C243 O250 1.226 . S
O244 Cd240 2.273 . S
O244 Cd242 2.411 . S
O244 C247 1.320 . S
O245 Cd242 2.333 . S
O245 C247 1.214 . S
O246 Cd242 2.352 . S
O246 C249 1.258 . S
C247 O244 1.320 . S
C247 O245 1.214 . S
O248 Cd240 2.277 . S
O248 C243 1.209 . S
C249 O246 1.258 . S
C249 O251 1.282 . S
O250 Cd242 2.277 . S
O250 C243 1.226 . S
O251 Cd242 2.356 . S
O251 C249 1.282 . S
C252 O253 1.306 . S
C252 O255 1.160 . S
O253 C252 1.306 . S
O253 Cd254 2.228 . S
Cd254 O253 2.228 . S
Cd254 O258 2.273 . S
Cd254 O262 2.277 . S
O255 C252 1.160 . S
O255 Cd256 2.203 . S
Cd256 O255 2.203 . S
Cd256 O258 2.411 . S
Cd256 O259 2.333 . S
Cd256 O260 2.352 . S
Cd256 O264 2.277 . S
Cd256 O265 2.356 . S
C257 O262 1.209 . S
C257 O264 1.226 . S
O258 Cd254 2.273 . S
O258 Cd256 2.411 . S
O258 C261 1.320 . S
O259 Cd256 2.333 . S
O259 C261 1.214 . S
O260 Cd256 2.352 . S
O260 C263 1.258 . S
C261 O258 1.320 . S
C261 O259 1.214 . S
O262 Cd254 2.277 . S
O262 C257 1.209 . S
C263 O260 1.258 . S
C263 O265 1.282 . S
O264 Cd256 2.277 . S
O264 C257 1.226 . S
O265 Cd256 2.356 . S
O265 C263 1.282 . S
C266 O267 1.306 . S
C266 O269 1.160 . S
O267 C266 1.306 . S
O267 Cd268 2.228 . S
Cd268 O267 2.228 . S
Cd268 O272 2.318 . S
Cd268 O276 2.277 . S
O269 C266 1.160 . S
O269 Cd270 2.203 . S
Cd270 O269 2.203 . S
Cd270 O272 2.401 . S
Cd270 O273 2.333 1_545 S
Cd270 O274 2.352 1_545 S
Cd270 O278 2.277 . S
Cd270 O279 2.356 1_545 S
C271 O276 1.209 . S
C271 O278 1.226 . S
O272 Cd268 2.318 . S
O272 Cd270 2.401 . S
O272 C275 1.316 1_545 S
O273 Cd270 2.333 1_565 S
O273 C275 1.212 . S
O274 Cd270 2.352 1_565 S
O274 C277 1.258 . S
C275 O272 1.316 1_565 S
C275 O273 1.212 . S
O276 Cd268 2.277 . S
O276 C271 1.209 . S
C277 O274 1.258 . S
C277 O279 1.282 . S
O278 Cd270 2.277 . S
O278 C271 1.226 . S
O279 Cd270 2.356 1_565 S
O279 C277 1.282 . S
C280 O281 1.306 . S
C280 O283 1.160 . S
O281 C280 1.306 . S
O281 Cd282 2.228 . S
Cd282 O281 2.228 . S
Cd282 O286 2.273 . S
Cd282 O290 2.277 . S
O283 C280 1.160 . S
O283 Cd284 2.203 . S
Cd284 O283 2.203 . S
Cd284 O286 2.411 . S
Cd284 O287 2.333 . S
Cd284 O288 2.352 1_554 S
Cd284 O292 2.277 . S
Cd284 O293 2.356 1_554 S
C285 O290 1.209 . S
C285 O292 1.226 . S
O286 Cd282 2.273 . S
O286 Cd284 2.411 . S
O286 C289 1.320 . S
O287 Cd284 2.333 . S
O287 C289 1.214 . S
O288 Cd284 2.352 1_556 S
O288 C291 1.258 . S
C289 O286 1.320 . S
C289 O287 1.214 . S
O290 Cd282 2.277 . S
O290 C285 1.209 . S
C291 O288 1.258 . S
C291 O293 1.282 . S
O292 Cd284 2.277 . S
O292 C285 1.226 . S
O293 Cd284 2.356 1_556 S
O293 C291 1.282 . S
C294 O295 1.306 . S
C294 O297 1.160 1_455 S
O295 C294 1.306 . S
O295 Cd296 2.228 . S
Cd296 O295 2.228 . S
Cd296 O300 2.273 . S
Cd296 O304 2.277 1_455 S
O297 C294 1.160 1_655 S
O297 Cd298 2.203 . S
Cd298 O297 2.203 . S
Cd298 O300 2.411 1_655 S
Cd298 O301 2.333 . S
Cd298 O302 2.352 . S
Cd298 O306 2.277 . S
Cd298 O307 2.356 . S
C299 O304 1.209 . S
C299 O306 1.226 . S
O300 Cd296 2.273 . S
O300 Cd298 2.411 1_455 S
O300 C303 1.320 . S
O301 Cd298 2.333 . S
O301 C303 1.214 1_655 S
O302 Cd298 2.352 . S
O302 C305 1.258 . S
C303 O300 1.320 . S
C303 O301 1.214 1_455 S
O304 Cd296 2.277 1_655 S
O304 C299 1.209 . S
C305 O302 1.258 . S
C305 O307 1.282 . S
O306 Cd298 2.277 . S
O306 C299 1.226 . S
O307 Cd298 2.356 . S
O307 C305 1.282 . S
C308 O309 1.306 . S
C308 O311 1.160 . S
O309 C308 1.306 . S
O309 Cd310 2.228 . S
Cd310 O309 2.228 . S
Cd310 O314 2.273 . S
Cd310 O318 2.277 . S
O311 C308 1.160 . S
O311 Cd312 2.203 . S
Cd312 O311 2.203 . S
Cd312 O314 2.411 . S
Cd312 O315 2.333 . S
Cd312 O316 2.352 . S
Cd312 O320 2.277 . S
Cd312 O321 2.356 . S
C313 O318 1.209 . S
C313 O320 1.226 . S
O314 Cd310 2.273 . S
O314 Cd312 2.411 . S
O314 C317 1.320 . S
O315 Cd312 2.333 . S
O315 C317 1.214 . S
O316 Cd312 2.352 . S
O316 C319 1.258 . S
C317 O314 1.320 . S
C317 O315 1.214 . S
O318 Cd310 2.277 . S
O318 C313 1.209 . S
C319 O316 1.258 . S
C319 O321 1.282 . S
O320 Cd312 2.277 . S
O320 C313 1.226 . S
O321 Cd312 2.356 . S
O321 C319 1.282 . S
C322 O323 1.306 . S
C322 O325 1.160 . S
O323 C322 1.306 . S
O323 Cd324 2.228 . S
Cd324 O323 2.228 . S
Cd324 O328 2.273 . S
Cd324 O332 2.277 . S
O325 C322 1.160 . S
O325 Cd326 2.203 . S
Cd326 O325 2.203 . S
Cd326 O328 2.411 . S
Cd326 O329 2.333 . S
Cd326 O330 2.352 . S
Cd326 O334 2.277 . S
Cd326 O335 2.356 . S
C327 O332 1.209 . S
C327 O334 1.226 . S
O328 Cd324 2.273 . S
O328 Cd326 2.411 . S
O328 C331 1.320 . S
O329 Cd326 2.333 . S
O329 C331 1.214 . S
O330 Cd326 2.352 . S
O330 C333 1.258 . S
C331 O328 1.320 . S
C331 O329 1.214 . S
O332 Cd324 2.277 . S
O332 C327 1.209 . S
C333 O330 1.258 . S
C333 O335 1.282 . S
O334 Cd326 2.277 . S
O334 C327 1.226 . S
O335 Cd326 2.356 . S
O335 C333 1.282 . S
Tb336 C346 2.825 1_454 S
Tb336 O347 2.347 . S
Tb336 O350 2.366 . S
Tb336 O355 2.418 1_554 S
Tb336 O356 2.384 1_545 S
Tb336 O359 2.479 1_454 S
Tb336 O360 2.471 1_455 S
Eu337 O348 2.418 . S
Eu337 O349 2.384 . S
Eu337 O352 2.479 . S
Eu337 O353 2.471 . S
Eu337 O354 2.347 . S
Eu337 O357 2.366 . S
Eu337 C367 2.825 . S
C338 O354 1.259 1_556 S
C338 O355 1.265 . S
C339 O356 1.255 . S
C339 O357 1.265 1_565 S
C340 C342 1.380 . S
C340 C343 1.374 1_556 S
C340 C346 1.507 . S
C341 C342 1.384 . S
C341 C345 1.387 . S
C341 H368 0.930 . S
C342 C340 1.380 . S
C342 C341 1.384 . S
C342 H369 0.931 . S
C343 C340 1.374 1_554 S
C343 C344 1.390 1_554 S
C343 H370 0.930 . S
C344 C343 1.390 1_556 S
C344 C345 1.391 . S
C344 H371 0.930 1_556 S
C345 C341 1.387 . S
C345 C344 1.391 . S
C346 Tb336 2.825 1_656 S
C346 C340 1.507 . S
C346 O359 1.238 . S
C346 O360 1.247 1_556 S
O347 Tb336 2.347 . S
O347 C351 1.259 . S
O348 Eu337 2.418 . S
O348 C351 1.265 . S
O349 Eu337 2.384 . S
O349 C358 1.255 . S
O350 Tb336 2.366 . S
O350 C358 1.265 . S
C351 O347 1.259 . S
C351 O348 1.265 . S
O352 Eu337 2.479 . S
O352 C367 1.238 . S
O353 Eu337 2.471 . S
O353 C367 1.247 . S
O354 Eu337 2.347 . S
O354 C338 1.259 1_554 S
O355 Tb336 2.418 1_556 S
O355 C338 1.265 . S
O356 Tb336 2.384 1_565 S
O356 C339 1.255 . S
O357 Eu337 2.366 . S
O357 C339 1.265 1_545 S
C358 O349 1.255 . S
C358 O350 1.265 . S
O359 Tb336 2.479 1_656 S
O359 C346 1.238 . S
O360 Tb336 2.471 1_655 S
O360 C346 1.247 1_554 S
C361 C364 1.380 . S
C361 C365 1.374 . S
C361 C367 1.507 . S
C362 C363 1.402 . S
C362 C366 1.391 1_545 S
C363 C362 1.402 . S
C363 C364 1.384 . S
C363 H372 0.930 . S
C364 C361 1.380 . S
C364 C363 1.384 . S
C364 H373 0.931 . S
C365 C361 1.374 . S
C365 C366 1.390 1_545 S
C365 H374 0.930 . S
C366 C362 1.391 1_565 S
C366 C365 1.390 1_565 S
C366 H375 0.930 . S
C367 Eu337 2.825 . S
C367 O352 1.238 . S
C367 O353 1.247 . S
C367 C361 1.507 . S
H368 C341 0.930 . S
H369 C342 0.931 . S
H370 C343 0.930 . S
H371 C344 0.930 1_554 S
H372 C363 0.930 . S
H373 C364 0.931 . S
H374 C365 0.930 . S
H375 C366 0.930 . S
Tb376 C386 2.825 . S
Tb376 O387 2.347 . S
Tb376 O390 2.366 . S
Tb376 O395 2.418 . S
Tb376 O396 2.384 . S
Tb376 O399 2.479 . S
Tb376 O400 2.471 . S
Eu377 O388 2.418 . S
Eu377 O389 2.384 . S
Eu377 O392 2.479 . S
Eu377 O393 2.471 . S
Eu377 O394 2.347 . S
Eu377 O397 2.366 . S
Eu377 C407 2.825 . S
C378 O394 1.259 . S
C378 O395 1.265 . S
C379 O396 1.255 . S
C379 O397 1.265 . S
C380 C382 1.380 . S
C380 C383 1.374 . S
C380 C386 1.507 . S
C381 C382 1.384 . S
C381 C385 1.387 . S
C381 H408 0.930 . S
C382 C380 1.380 . S
C382 C381 1.384 . S
C382 H409 0.931 . S
C383 C380 1.374 . S
C383 C384 1.390 . S
C383 H410 0.930 . S
C384 C383 1.390 . S
C384 C385 1.391 . S
C384 H411 0.930 . S
C385 C381 1.387 . S
C385 C384 1.391 . S
C386 Tb376 2.825 . S
C386 C380 1.507 . S
C386 O399 1.238 . S
C386 O400 1.247 . S
O387 Tb376 2.347 . S
O387 C391 1.259 . S
O388 Eu377 2.418 . S
O388 C391 1.265 . S
O389 Eu377 2.384 . S
O389 C398 1.255 . S
O390 Tb376 2.366 . S
O390 C398 1.265 . S
C391 O387 1.259 . S
C391 O388 1.265 . S
O392 Eu377 2.479 . S
O392 C407 1.238 . S
O393 Eu377 2.471 . S
O393 C407 1.247 . S
O394 Eu377 2.347 . S
O394 C378 1.259 . S
O395 Tb376 2.418 . S
O395 C378 1.265 . S
O396 Tb376 2.384 . S
O396 C379 1.255 . S
O397 Eu377 2.366 . S
O397 C379 1.265 . S
C398 O389 1.255 . S
C398 O390 1.265 . S
O399 Tb376 2.479 . S
O399 C386 1.238 . S
O400 Tb376 2.471 . S
O400 C386 1.247 . S
C401 C404 1.380 . S
C401 C405 1.374 . S
C401 C407 1.507 . S
C402 C403 1.387 . S
C402 C406 1.391 . S
C403 C402 1.387 . S
C403 C404 1.384 . S
C403 H412 0.930 . S
C404 C401 1.380 . S
C404 C403 1.384 . S
C404 H413 0.931 . S
C405 C401 1.374 . S
C405 C406 1.390 . S
C405 H414 0.930 . S
C406 C402 1.391 . S
C406 C405 1.390 . S
C406 H415 0.930 . S
C407 Eu377 2.825 . S
C407 O392 1.238 . S
C407 O393 1.247 . S
C407 C401 1.507 . S
H408 C381 0.930 . S
H409 C382 0.931 . S
H410 C383 0.930 . S
H411 C384 0.930 . S
H412 C403 0.930 . S
H413 C404 0.931 . S
H414 C405 0.930 . S
H415 C406 0.930 . S
Tb416 C426 2.825 1_545 S
Tb416 O427 2.347 . S
Tb416 O430 2.366 1_545 S
Tb416 O435 2.418 . S
Tb416 O436 2.384 . S
Tb416 O439 2.479 1_545 S
Tb416 O440 2.471 1_545 S
Eu417 O428 2.418 . S
Eu417 O429 2.384 . S
Eu417 O432 2.479 . S
Eu417 O433 2.471 . S
Eu417 O434 2.347 . S
Eu417 O437 2.366 . S
Eu417 C447 2.825 . S
C418 O434 1.259 . S
C418 O435 1.265 . S
C419 O436 1.255 . S
C419 O437 1.265 . S
C420 C422 1.380 . S
C420 C423 1.374 . S
C420 C426 1.507 . S
C421 C422 1.384 . S
C421 C425 1.387 . S
C421 H448 0.930 . S
C422 C420 1.380 . S
C422 C421 1.384 . S
C422 H449 0.931 . S
C423 C420 1.374 . S
C423 C424 1.390 . S
C423 H450 0.930 . S
C424 C423 1.390 . S
C424 C425 1.391 . S
C424 H451 0.930 . S
C425 C421 1.387 . S
C425 C424 1.391 . S
C426 Tb416 2.825 1_565 S
C426 C420 1.507 . S
C426 O439 1.238 . S
C426 O440 1.247 . S
O427 Tb416 2.347 . S
O427 C431 1.259 . S
O428 Eu417 2.418 . S
O428 C431 1.265 . S
O429 Eu417 2.384 . S
O429 C438 1.255 . S
O430 Tb416 2.366 1_565 S
O430 C438 1.265 1_565 S
C431 O427 1.259 . S
C431 O428 1.265 . S
O432 Eu417 2.479 . S
O432 C447 1.238 . S
O433 Eu417 2.471 . S
O433 C447 1.247 . S
O434 Eu417 2.347 . S
O434 C418 1.259 . S
O435 Tb416 2.418 . S
O435 C418 1.265 . S
O436 Tb416 2.384 . S
O436 C419 1.255 . S
O437 Eu417 2.366 . S
O437 C419 1.265 . S
C438 O429 1.255 . S
C438 O430 1.265 1_545 S
O439 Tb416 2.479 1_565 S
O439 C426 1.238 . S
O440 Tb416 2.471 1_565 S
O440 C426 1.247 . S
C441 C444 1.380 . S
C441 C445 1.374 . S
C441 C447 1.507 . S
C442 C443 1.387 . S
C442 C446 1.391 . S
C443 C442 1.387 . S
C443 C444 1.384 . S
C443 H452 0.930 . S
C444 C441 1.380 . S
C444 C443 1.384 . S
C444 H453 0.931 . S
C445 C441 1.374 . S
C445 C446 1.390 . S
C445 H454 0.930 . S
C446 C442 1.391 . S
C446 C445 1.390 . S
C446 H455 0.930 . S
C447 Eu417 2.825 . S
C447 O432 1.238 . S
C447 O433 1.247 . S
C447 C441 1.507 . S
H448 C421 0.930 . S
H449 C422 0.931 . S
H450 C423 0.930 . S
H451 C424 0.930 . S
H452 C443 0.930 . S
H453 C444 0.931 . S
H454 C445 0.930 . S
H455 C446 0.930 . S
Tb456 C466 2.825 . S
Tb456 O467 2.347 . S
Tb456 O470 2.366 . S
Tb456 O475 2.418 . S
Tb456 O476 2.384 . S
Tb456 O479 2.479 . S
Tb456 O480 2.471 . S
Eu457 O468 2.418 . S
Eu457 O469 2.384 . S
Eu457 O472 2.479 . S
Eu457 O473 2.471 . S
Eu457 O474 2.347 . S
Eu457 O477 2.366 . S
Eu457 C487 2.825 . S
C458 O474 1.259 . S
C458 O475 1.265 . S
C459 O476 1.255 . S
C459 O477 1.265 . S
C460 C462 1.380 . S
C460 C463 1.374 . S
C460 C466 1.507 . S
C461 C462 1.384 . S
C461 C465 1.387 . S
C461 H488 0.930 . S
C462 C460 1.380 . S
C462 C461 1.384 . S
C462 H489 0.931 . S
C463 C460 1.374 . S
C463 C464 1.390 . S
C463 H490 0.930 . S
C464 C463 1.390 . S
C464 C465 1.391 . S
C464 H491 0.930 . S
C465 C461 1.387 . S
C465 C464 1.391 . S
C466 Tb456 2.825 . S
C466 C460 1.507 . S
C466 O479 1.238 . S
C466 O480 1.247 . S
O467 Tb456 2.347 . S
O467 C471 1.259 . S
O468 Eu457 2.418 . S
O468 C471 1.265 . S
O469 Eu457 2.384 . S
O469 C478 1.255 . S
O470 Tb456 2.366 . S
O470 C478 1.265 . S
C471 O467 1.259 . S
C471 O468 1.265 . S
O472 Eu457 2.479 . S
O472 C487 1.238 . S
O473 Eu457 2.471 . S
O473 C487 1.247 . S
O474 Eu457 2.347 . S
O474 C458 1.259 . S
O475 Tb456 2.418 . S
O475 C458 1.265 . S
O476 Tb456 2.384 . S
O476 C459 1.255 . S
O477 Eu457 2.366 . S
O477 C459 1.265 . S
C478 O469 1.255 . S
C478 O470 1.265 . S
O479 Tb456 2.479 . S
O479 C466 1.238 . S
O480 Tb456 2.471 . S
O480 C466 1.247 . S
C481 C484 1.380 . S
C481 C485 1.374 . S
C481 C487 1.507 . S
C482 C483 1.387 . S
C482 C486 1.391 . S
C483 C482 1.387 . S
C483 C484 1.384 . S
C483 H492 0.930 . S
C484 C481 1.380 . S
C484 C483 1.384 . S
C484 H493 0.931 . S
C485 C481 1.374 . S
C485 C486 1.390 . S
C485 H494 0.930 . S
C486 C482 1.391 . S
C486 C485 1.390 . S
C486 H495 0.930 . S
C487 Eu457 2.825 . S
C487 O472 1.238 . S
C487 O473 1.247 . S
C487 C481 1.507 . S
H488 C461 0.930 . S
H489 C462 0.931 . S
H490 C463 0.930 . S
H491 C464 0.930 . S
H492 C483 0.930 . S
H493 C484 0.931 . S
H494 C485 0.930 . S
H495 C486 0.930 . S
Tb496 C506 2.825 . S
Tb496 O507 2.347 . S
Tb496 O510 2.366 . S
Tb496 O515 2.418 . S
Tb496 O516 2.384 1_545 S
Tb496 O519 2.479 . S
Tb496 O520 2.471 . S
Eu497 O508 2.418 . S
Eu497 O509 2.384 . S
Eu497 O512 2.479 . S
Eu497 O513 2.471 . S
Eu497 O514 2.347 . S
Eu497 O517 2.366 . S
Eu497 C527 2.825 . S
C498 O514 1.259 . S
C498 O515 1.265 . S
C499 O516 1.255 . S
C499 O517 1.265 1_565 S
C500 C502 1.380 . S
C500 C503 1.376 1_455 S
C500 C506 1.507 . S
C501 C502 1.384 . S
C501 C505 1.387 . S
C501 H528 0.930 . S
C502 C500 1.380 . S
C502 C501 1.384 . S
C502 H529 0.931 . S
C503 C500 1.376 1_655 S
C503 C504 1.390 . S
C503 H530 0.929 . S
C504 C503 1.390 . S
C504 C505 1.391 1_655 S
C504 H531 0.930 . S
C505 C501 1.387 . S
C505 C504 1.391 1_455 S
C506 Tb496 2.825 . S
C506 C500 1.507 . S
C506 O519 1.238 . S
C506 O520 1.247 . S
O507 Tb496 2.347 . S
O507 C511 1.259 . S
O508 Eu497 2.418 . S
O508 C511 1.265 . S
O509 Eu497 2.384 . S
O509 C518 1.255 . S
O510 Tb496 2.366 . S
O510 C518 1.265 . S
C511 O507 1.259 . S
C511 O508 1.265 . S
O512 Eu497 2.479 . S
O512 C527 1.238 . S
O513 Eu497 2.471 . S
O513 C527 1.247 . S
O514 Eu497 2.347 . S
O514 C498 1.259 . S
O515 Tb496 2.418 . S
O515 C498 1.265 . S
O516 Tb496 2.384 1_565 S
O516 C499 1.255 . S
O517 Eu497 2.366 . S
O517 C499 1.265 1_545 S
C518 O509 1.255 . S
C518 O510 1.265 . S
O519 Tb496 2.479 . S
O519 C506 1.238 . S
O520 Tb496 2.471 . S
O520 C506 1.247 . S
C521 C524 1.380 . S
C521 C525 1.374 . S
C521 C527 1.507 . S
C522 C523 1.387 . S
C522 C526 1.391 . S
C523 C522 1.387 . S
C523 C524 1.384 . S
C523 H532 0.930 . S
C524 C521 1.380 . S
C524 C523 1.384 . S
C524 H533 0.931 . S
C525 C521 1.374 . S
C525 C526 1.390 . S
C525 H534 0.930 . S
C526 C522 1.391 . S
C526 C525 1.390 . S
C526 H535 0.930 . S
C527 Eu497 2.825 . S
C527 O512 1.238 . S
C527 O513 1.247 . S
C527 C521 1.507 . S
H528 C501 0.930 . S
H529 C502 0.931 . S
H530 C503 0.929 . S
H531 C504 0.930 . S
H532 C523 0.930 . S
H533 C524 0.931 . S
H534 C525 0.930 . S
H535 C526 0.930 . S
Tb536 C546 2.825 . S
Tb536 O547 2.347 . S
Tb536 O550 2.366 . S
Tb536 O555 2.418 . S
Tb536 O556 2.384 . S
Tb536 O559 2.479 . S
Tb536 O560 2.471 . S
Eu537 O548 2.418 . S
Eu537 O549 2.384 . S
Eu537 O552 2.479 . S
Eu537 O553 2.471 . S
Eu537 O554 2.347 . S
Eu537 O557 2.366 . S
Eu537 C567 2.825 . S
C538 O554 1.259 . S
C538 O555 1.265 . S
C539 O556 1.255 . S
C539 O557 1.265 . S
C540 C542 1.380 . S
C540 C543 1.374 . S
C540 C546 1.507 . S
C541 C542 1.384 . S
C541 C545 1.387 . S
C541 H568 0.930 . S
C542 C540 1.380 . S
C542 C541 1.384 . S
C542 H569 0.931 . S
C543 C540 1.374 . S
C543 C544 1.390 . S
C543 H570 0.930 . S
C544 C543 1.390 . S
C544 C545 1.391 . S
C544 H571 0.930 . S
C545 C541 1.387 . S
C545 C544 1.391 . S
C546 Tb536 2.825 . S
C546 C540 1.507 . S
C546 O559 1.238 . S
C546 O560 1.247 . S
O547 Tb536 2.347 . S
O547 C551 1.259 . S
O548 Eu537 2.418 . S
O548 C551 1.265 . S
O549 Eu537 2.384 . S
O549 C558 1.255 . S
O550 Tb536 2.366 . S
O550 C558 1.265 . S
C551 O547 1.259 . S
C551 O548 1.265 . S
O552 Eu537 2.479 . S
O552 C567 1.238 . S
O553 Eu537 2.471 . S
O553 C567 1.247 . S
O554 Eu537 2.347 . S
O554 C538 1.259 . S
O555 Tb536 2.418 . S
O555 C538 1.265 . S
O556 Tb536 2.384 . S
O556 C539 1.255 . S
O557 Eu537 2.366 . S
O557 C539 1.265 . S
C558 O549 1.255 . S
C558 O550 1.265 . S
O559 Tb536 2.479 . S
O559 C546 1.238 . S
O560 Tb536 2.471 . S
O560 C546 1.247 . S
C561 C564 1.380 . S
C561 C565 1.374 . S
C561 C567 1.507 . S
C562 C563 1.387 . S
C562 C566 1.391 . S
C563 C562 1.387 . S
C563 C564 1.384 . S
C563 H572 0.930 . S
C564 C561 1.380 . S
C564 C563 1.384 . S
C564 H573 0.931 . S
C565 C561 1.374 . S
C565 C566 1.390 . S
C565 H574 0.930 . S
C566 C562 1.391 . S
C566 C565 1.390 . S
C566 H575 0.930 . S
C567 Eu537 2.825 . S
C567 O552 1.238 . S
C567 O553 1.247 . S
C567 C561 1.507 . S
H568 C541 0.930 . S
H569 C542 0.931 . S
H570 C543 0.930 . S
H571 C544 0.930 . S
H572 C563 0.930 . S
H573 C564 0.931 . S
H574 C565 0.930 . S
H575 C566 0.930 . S
Tb576 C586 2.825 . S
Tb576 O587 2.347 . S
Tb576 O590 2.366 . S
Tb576 O595 2.418 1_545 S
Tb576 O596 2.384 . S
Tb576 O599 2.479 . S
Tb576 O600 2.471 . S
Eu577 O588 2.418 1_556 S
Eu577 O589 2.384 1_556 S
Eu577 O592 2.479 . S
Eu577 O593 2.471 . S
Eu577 O594 2.347 1_556 S
Eu577 O597 2.366 1_556 S
Eu577 C607 2.825 . S
C578 O594 1.259 1_565 S
C578 O595 1.265 . S
C579 O596 1.255 . S
C579 O597 1.265 . S
C580 C582 1.384 . S
C580 C583 1.374 . S
C580 C586 1.507 . S
C581 C582 1.384 1_565 S
C581 C585 1.387 1_565 S
C581 H608 0.930 . S
C582 C580 1.384 . S
C582 C581 1.384 1_545 S
C582 H609 0.927 1_545 S
C583 C580 1.374 . S
C583 C584 1.390 . S
C583 H610 0.930 . S
C584 C583 1.390 . S
C584 C585 1.391 . S
C584 H611 0.930 . S
C585 C581 1.387 1_545 S
C585 C584 1.391 . S
C586 Tb576 2.825 . S
C586 C580 1.507 . S
C586 O599 1.238 . S
C586 O600 1.247 . S
O587 Tb576 2.347 . S
O587 C591 1.259 . S
O588 Eu577 2.418 1_554 S
O588 C591 1.265 . S
O589 Eu577 2.384 1_554 S
O589 C598 1.255 . S
O590 Tb576 2.366 . S
O590 C598 1.265 . S
C591 O587 1.259 . S
C591 O588 1.265 . S
O592 Eu577 2.479 . S
O592 C607 1.238 . S
O593 Eu577 2.471 . S
O593 C607 1.247 . S
O594 Eu577 2.347 1_554 S
O594 C578 1.259 1_545 S
O595 Tb576 2.418 1_565 S
O595 C578 1.265 . S
O596 Tb576 2.384 . S
O596 C579 1.255 . S
O597 Eu577 2.366 1_554 S
O597 C579 1.265 . S
C598 O589 1.255 . S
C598 O590 1.265 . S
O599 Tb576 2.479 . S
O599 C586 1.238 . S
O600 Tb576 2.471 . S
O600 C586 1.247 . S
C601 C604 1.380 . S
C601 C605 1.374 . S
C601 C607 1.507 . S
C602 C603 1.387 . S
C602 C606 1.391 . S
C603 C602 1.387 . S
C603 C604 1.384 . S
C603 H612 0.930 . S
C604 C601 1.380 . S
C604 C603 1.384 . S
C604 H613 0.931 . S
C605 C601 1.374 . S
C605 C606 1.390 . S
C605 H614 0.930 . S
C606 C602 1.391 . S
C606 C605 1.390 . S
C606 H615 0.930 . S
C607 Eu577 2.825 . S
C607 O592 1.238 . S
C607 O593 1.247 . S
C607 C601 1.507 . S
H608 C581 0.930 . S
H609 C582 0.927 1_565 S
H610 C583 0.930 . S
H611 C584 0.930 . S
H612 C603 0.930 . S
H613 C604 0.931 . S
H614 C605 0.930 . S
H615 C606 0.930 . S
Tb616 C626 2.825 . S
Tb616 O627 2.347 . S
Tb616 O630 2.366 . S
Tb616 O635 2.418 . S
Tb616 O636 2.384 . S
Tb616 O639 2.479 . S
Tb616 O640 2.471 . S
Eu617 O628 2.418 . S
Eu617 O629 2.384 . S
Eu617 O632 2.479 . S
Eu617 O633 2.471 . S
Eu617 O634 2.347 . S
Eu617 O637 2.366 . S
Eu617 C647 2.825 . S
C618 O634 1.259 . S
C618 O635 1.265 . S
C619 O636 1.255 . S
C619 O637 1.265 . S
C620 C622 1.380 . S
C620 C623 1.374 . S
C620 C626 1.507 . S
C621 C622 1.384 . S
C621 C625 1.387 . S
C621 H648 0.930 . S
C622 C620 1.380 . S
C622 C621 1.384 . S
C622 H649 0.931 . S
C623 C620 1.374 . S
C623 C624 1.390 . S
C623 H650 0.930 . S
C624 C623 1.390 . S
C624 C625 1.391 . S
C624 H651 0.930 . S
C625 C621 1.387 . S
C625 C624 1.391 . S
C626 Tb616 2.825 . S
C626 C620 1.507 . S
C626 O639 1.238 . S
C626 O640 1.247 . S
O627 Tb616 2.347 . S
O627 C631 1.259 . S
O628 Eu617 2.418 . S
O628 C631 1.265 . S
O629 Eu617 2.384 . S
O629 C638 1.255 . S
O630 Tb616 2.366 . S
O630 C638 1.265 . S
C631 O627 1.259 . S
C631 O628 1.265 . S
O632 Eu617 2.479 . S
O632 C647 1.238 . S
O633 Eu617 2.471 . S
O633 C647 1.247 . S
O634 Eu617 2.347 . S
O634 C618 1.259 . S
O635 Tb616 2.418 . S
O635 C618 1.265 . S
O636 Tb616 2.384 . S
O636 C619 1.255 . S
O637 Eu617 2.366 . S
O637 C619 1.265 . S
C638 O629 1.255 . S
C638 O630 1.265 . S
O639 Tb616 2.479 . S
O639 C626 1.238 . S
O640 Tb616 2.471 . S
O640 C626 1.247 . S
C641 C644 1.380 . S
C641 C645 1.374 . S
C641 C647 1.507 . S
C642 C643 1.387 . S
C642 C646 1.391 . S
C643 C642 1.387 . S
C643 C644 1.384 . S
C643 H652 0.930 . S
C644 C641 1.380 . S
C644 C643 1.384 . S
C644 H653 0.931 . S
C645 C641 1.374 . S
C645 C646 1.390 . S
C645 H654 0.930 . S
C646 C642 1.391 . S
C646 C645 1.390 . S
C646 H655 0.930 . S
C647 Eu617 2.825 . S
C647 O632 1.238 . S
C647 O633 1.247 . S
C647 C641 1.507 . S
H648 C621 0.930 . S
H649 C622 0.931 . S
H650 C623 0.930 . S
H651 C624 0.930 . S
H652 C643 0.930 . S
H653 C644 0.931 . S
H654 C645 0.930 . S
H655 C646 0.930 . S
Tb656 C666 2.825 . S
Tb656 O667 2.347 1_556 S
Tb656 O670 2.366 . S
Tb656 O675 2.418 . S
Tb656 O676 2.384 1_556 S
Tb656 O679 2.479 . S
Tb656 O680 2.471 . S
Eu657 O668 2.418 . S
Eu657 O669 2.384 . S
Eu657 O672 2.479 . S
Eu657 O673 2.471 . S
Eu657 O674 2.347 . S
Eu657 O677 2.366 . S
Eu657 C687 2.825 . S
C658 O674 1.259 . S
C658 O675 1.265 1_554 S
C659 O676 1.255 . S
C659 O677 1.265 . S
C660 C662 1.380 . S
C660 C663 1.374 . S
C660 C666 1.507 . S
C661 C662 1.384 . S
C661 C665 1.387 . S
C661 H688 0.930 . S
C662 C660 1.380 . S
C662 C661 1.384 . S
C662 H689 0.931 . S
C663 C660 1.374 . S
C663 C664 1.390 . S
C663 H690 0.930 . S
C664 C663 1.390 . S
C664 C665 1.391 . S
C664 H691 0.930 . S
C665 C661 1.387 . S
C665 C664 1.391 . S
C666 Tb656 2.825 . S
C666 C660 1.507 . S
C666 O679 1.238 . S
C666 O680 1.247 . S
O667 Tb656 2.347 1_554 S
O667 C671 1.259 . S
O668 Eu657 2.418 . S
O668 C671 1.265 . S
O669 Eu657 2.384 . S
O669 C678 1.255 . S
O670 Tb656 2.366 . S
O670 C678 1.265 1_556 S
C671 O667 1.259 . S
C671 O668 1.265 . S
O672 Eu657 2.479 . S
O672 C687 1.238 . S
O673 Eu657 2.471 . S
O673 C687 1.247 . S
O674 Eu657 2.347 . S
O674 C658 1.259 . S
O675 Tb656 2.418 . S
O675 C658 1.265 1_556 S
O676 Tb656 2.384 1_554 S
O676 C659 1.255 . S
O677 Eu657 2.366 . S
O677 C659 1.265 . S
C678 O669 1.255 . S
C678 O670 1.265 1_554 S
O679 Tb656 2.479 . S
O679 C666 1.238 . S
O680 Tb656 2.471 . S
O680 C666 1.247 . S
C681 C684 1.380 . S
C681 C685 1.374 . S
C681 C687 1.507 . S
C682 C683 1.387 . S
C682 C686 1.391 . S
C683 C682 1.387 . S
C683 C684 1.384 . S
C683 H692 0.930 . S
C684 C681 1.380 . S
C684 C683 1.384 . S
C684 H693 0.931 . S
C685 C681 1.374 . S
C685 C686 1.390 . S
C685 H694 0.930 . S
C686 C682 1.391 . S
C686 C685 1.390 . S
C686 H695 0.930 . S
C687 Eu657 2.825 . S
C687 O672 1.238 . S
C687 O673 1.247 . S
C687 C681 1.507 . S
H688 C661 0.930 . S
H689 C662 0.931 . S
H690 C663 0.930 . S
H691 C664 0.930 . S
H692 C683 0.930 . S
H693 C684 0.931 . S
H694 C685 0.930 . S
H695 C686 0.930 . S
Tb696 C706 2.825 . S
Tb696 O707 2.347 . S
Tb696 O710 2.366 . S
Tb696 O715 2.418 . S
Tb696 O716 2.384 . S
Tb696 O719 2.479 . S
Tb696 O720 2.471 . S
Eu697 O708 2.418 . S
Eu697 O709 2.384 . S
Eu697 O712 2.479 . S
Eu697 O713 2.471 . S
Eu697 O714 2.347 . S
Eu697 O717 2.366 . S
Eu697 C727 2.825 . S
C698 O714 1.259 . S
C698 O715 1.265 . S
C699 O716 1.255 . S
C699 O717 1.265 . S
C700 C702 1.380 . S
C700 C703 1.374 . S
C700 C706 1.507 . S
C701 C702 1.384 . S
C701 C705 1.387 . S
C701 H728 0.930 . S
C702 C700 1.380 . S
C702 C701 1.384 . S
C702 H729 0.931 . S
C703 C700 1.374 . S
C703 C704 1.390 . S
C703 H730 0.930 . S
C704 C703 1.390 . S
C704 C705 1.391 . S
C704 H731 0.930 . S
C705 C701 1.387 . S
C705 C704 1.391 . S
C706 Tb696 2.825 . S
C706 C700 1.507 . S
C706 O719 1.238 . S
C706 O720 1.247 . S
O707 Tb696 2.347 . S
O707 C711 1.259 . S
O708 Eu697 2.418 . S
O708 C711 1.265 . S
O709 Eu697 2.384 . S
O709 C718 1.255 . S
O710 Tb696 2.366 . S
O710 C718 1.265 . S
C711 O707 1.259 . S
C711 O708 1.265 . S
O712 Eu697 2.479 . S
O712 C727 1.238 . S
O713 Eu697 2.471 . S
O713 C727 1.247 . S
O714 Eu697 2.347 . S
O714 C698 1.259 . S
O715 Tb696 2.418 . S
O715 C698 1.265 . S
O716 Tb696 2.384 . S
O716 C699 1.255 . S
O717 Eu697 2.366 . S
O717 C699 1.265 . S
C718 O709 1.255 . S
C718 O710 1.265 . S
O719 Tb696 2.479 . S
O719 C706 1.238 . S
O720 Tb696 2.471 . S
O720 C706 1.247 . S
C721 C724 1.380 . S
C721 C725 1.374 . S
C721 C727 1.507 . S
C722 C723 1.387 . S
C722 C726 1.391 . S
C723 C722 1.387 . S
C723 C724 1.384 . S
C723 H732 0.930 . S
C724 C721 1.380 . S
C724 C723 1.384 . S
C724 H733 0.931 . S
C725 C721 1.374 . S
C725 C726 1.390 . S
C725 H734 0.930 . S
C726 C722 1.391 . S
C726 C725 1.390 . S
C726 H735 0.930 . S
C727 Eu697 2.825 . S
C727 O712 1.238 . S
C727 O713 1.247 . S
C727 C721 1.507 . S
H728 C701 0.930 . S
H729 C702 0.931 . S
H730 C703 0.930 . S
H731 C704 0.930 . S
H732 C723 0.930 . S
H733 C724 0.931 . S
H734 C725 0.930 . S
H735 C726 0.930 . S
Tb736 C746 2.825 . S
Tb736 O747 2.347 . S
Tb736 O750 2.366 . S
Tb736 O755 2.418 . S
Tb736 O756 2.384 . S
Tb736 O759 2.479 . S
Tb736 O760 2.471 . S
Eu737 O748 2.418 . S
Eu737 O749 2.384 . S
Eu737 O752 2.479 . S
Eu737 O753 2.471 . S
Eu737 O754 2.347 . S
Eu737 O757 2.366 . S
Eu737 C767 2.825 . S
C738 O754 1.259 . S
C738 O755 1.265 . S
C739 O756 1.255 . S
C739 O757 1.265 . S
C740 C742 1.380 . S
C740 C743 1.374 . S
C740 C746 1.507 . S
C741 C742 1.384 . S
C741 C745 1.387 . S
C741 H768 0.930 . S
C742 C740 1.380 . S
C742 C741 1.384 . S
C742 H769 0.931 . S
C743 C740 1.374 . S
C743 C744 1.390 . S
C743 H770 0.930 . S
C744 C743 1.390 . S
C744 C745 1.391 . S
C744 H771 0.930 . S
C745 C741 1.387 . S
C745 C744 1.391 . S
C746 Tb736 2.825 . S
C746 C740 1.507 . S
C746 O759 1.238 . S
C746 O760 1.247 . S
O747 Tb736 2.347 . S
O747 C751 1.259 . S
O748 Eu737 2.418 . S
O748 C751 1.265 . S
O749 Eu737 2.384 . S
O749 C758 1.255 . S
O750 Tb736 2.366 . S
O750 C758 1.265 . S
C751 O747 1.259 . S
C751 O748 1.265 . S
O752 Eu737 2.479 . S
O752 C767 1.238 . S
O753 Eu737 2.471 . S
O753 C767 1.247 . S
O754 Eu737 2.347 . S
O754 C738 1.259 . S
O755 Tb736 2.418 . S
O755 C738 1.265 . S
O756 Tb736 2.384 . S
O756 C739 1.255 . S
O757 Eu737 2.366 . S
O757 C739 1.265 . S
C758 O749 1.255 . S
C758 O750 1.265 . S
O759 Tb736 2.479 . S
O759 C746 1.238 . S
O760 Tb736 2.471 . S
O760 C746 1.247 . S
C761 C764 1.380 . S
C761 C765 1.374 . S
C761 C767 1.507 . S
C762 C763 1.387 . S
C762 C766 1.391 . S
C763 C762 1.387 . S
C763 C764 1.384 . S
C763 H772 0.930 . S
C764 C761 1.380 . S
C764 C763 1.384 . S
C764 H773 0.931 . S
C765 C761 1.374 . S
C765 C766 1.390 . S
C765 H774 0.930 . S
C766 C762 1.391 . S
C766 C765 1.390 . S
C766 H775 0.930 . S
C767 Eu737 2.825 . S
C767 O752 1.238 . S
C767 O753 1.247 . S
C767 C761 1.507 . S
H768 C741 0.930 . S
H769 C742 0.931 . S
H770 C743 0.930 . S
H771 C744 0.930 . S
H772 C763 0.930 . S
H773 C764 0.931 . S
H774 C765 0.930 . S
H775 C766 0.930 . S
Tb776 C786 2.825 . S
Tb776 O787 2.347 . S
Tb776 O790 2.366 . S
Tb776 O795 2.418 . S
Tb776 O796 2.384 . S
Tb776 O799 2.479 . S
Tb776 O800 2.471 . S
Eu777 O788 2.418 . S
Eu777 O789 2.384 . S
Eu777 O792 2.479 . S
Eu777 O793 2.471 . S
Eu777 O794 2.347 . S
Eu777 O797 2.366 . S
Eu777 C807 2.825 . S
C778 O794 1.259 . S
C778 O795 1.265 . S
C779 O796 1.255 . S
C779 O797 1.265 . S
C780 C782 1.380 . S
C780 C783 1.374 . S
C780 C786 1.507 . S
C781 C782 1.384 . S
C781 C785 1.387 . S
C781 H808 0.930 . S
C782 C780 1.380 . S
C782 C781 1.384 . S
C782 H809 0.931 . S
C783 C780 1.374 . S
C783 C784 1.390 . S
C783 H810 0.930 . S
C784 C783 1.390 . S
C784 C785 1.391 . S
C784 H811 0.930 . S
C785 C781 1.387 . S
C785 C784 1.391 . S
C786 Tb776 2.825 . S
C786 C780 1.507 . S
C786 O799 1.238 . S
C786 O800 1.247 . S
O787 Tb776 2.347 . S
O787 C791 1.259 . S
O788 Eu777 2.418 . S
O788 C791 1.265 . S
O789 Eu777 2.384 . S
O789 C798 1.255 . S
O790 Tb776 2.366 . S
O790 C798 1.265 . S
C791 O787 1.259 . S
C791 O788 1.265 . S
O792 Eu777 2.479 . S
O792 C807 1.238 . S
O793 Eu777 2.471 . S
O793 C807 1.247 . S
O794 Eu777 2.347 . S
O794 C778 1.259 . S
O795 Tb776 2.418 . S
O795 C778 1.265 . S
O796 Tb776 2.384 . S
O796 C779 1.255 . S
O797 Eu777 2.366 . S
O797 C779 1.265 . S
C798 O789 1.255 . S
C798 O790 1.265 . S
O799 Tb776 2.479 . S
O799 C786 1.238 . S
O800 Tb776 2.471 . S
O800 C786 1.247 . S
C801 C804 1.380 . S
C801 C805 1.374 . S
C801 C807 1.507 . S
C802 C803 1.387 . S
C802 C806 1.391 . S
C803 C802 1.387 . S
C803 C804 1.384 . S
C803 H812 0.930 . S
C804 C801 1.380 . S
C804 C803 1.384 . S
C804 H813 0.931 . S
C805 C801 1.374 . S
C805 C806 1.390 . S
C805 H814 0.930 . S
C806 C802 1.391 . S
C806 C805 1.390 . S
C806 H815 0.930 . S
C807 Eu777 2.825 . S
C807 O792 1.238 . S
C807 O793 1.247 . S
C807 C801 1.507 . S
H808 C781 0.930 . S
H809 C782 0.931 . S
H810 C783 0.930 . S
H811 C784 0.930 . S
H812 C803 0.930 . S
H813 C804 0.931 . S
H814 C805 0.930 . S
H815 C806 0.930 . S
Tb816 C826 2.825 . S
Tb816 O827 2.347 . S
Tb816 O830 2.366 . S
Tb816 O835 2.418 . S
Tb816 O836 2.384 . S
Tb816 O839 2.479 . S
Tb816 O840 2.471 . S
Eu817 O828 2.418 . S
Eu817 O829 2.384 . S
Eu817 O832 2.479 . S
Eu817 O833 2.471 . S
Eu817 O834 2.347 . S
Eu817 O837 2.366 . S
Eu817 C847 2.825 . S
C818 O834 1.259 . S
C818 O835 1.265 . S
C819 O836 1.255 . S
C819 O837 1.265 . S
C820 C822 1.380 . S
C820 C823 1.374 . S
C820 C826 1.507 . S
C821 C822 1.384 . S
C821 C825 1.387 . S
C821 H848 0.930 . S
C822 C820 1.380 . S
C822 C821 1.384 . S
C822 H849 0.931 . S
C823 C820 1.374 . S
C823 C824 1.390 . S
C823 H850 0.930 . S
C824 C823 1.390 . S
C824 C825 1.391 . S
C824 H851 0.930 . S
C825 C821 1.387 . S
C825 C824 1.391 . S
C826 Tb816 2.825 . S
C826 C820 1.507 . S
C826 O839 1.238 . S
C826 O840 1.247 . S
O827 Tb816 2.347 . S
O827 C831 1.259 . S
O828 Eu817 2.418 . S
O828 C831 1.265 . S
O829 Eu817 2.384 . S
O829 C838 1.255 . S
O830 Tb816 2.366 . S
O830 C838 1.265 . S
C831 O827 1.259 . S
C831 O828 1.265 . S
O832 Eu817 2.479 . S
O832 C847 1.238 . S
O833 Eu817 2.471 . S
O833 C847 1.247 . S
O834 Eu817 2.347 . S
O834 C818 1.259 . S
O835 Tb816 2.418 . S
O835 C818 1.265 . S
O836 Tb816 2.384 . S
O836 C819 1.255 . S
O837 Eu817 2.366 . S
O837 C819 1.265 . S
C838 O829 1.255 . S
C838 O830 1.265 . S
O839 Tb816 2.479 . S
O839 C826 1.238 . S
O840 Tb816 2.471 . S
O840 C826 1.247 . S
C841 C844 1.380 . S
C841 C845 1.374 . S
C841 C847 1.507 . S
C842 C843 1.387 . S
C842 C846 1.391 . S
C843 C842 1.387 . S
C843 C844 1.384 . S
C843 H852 0.930 . S
C844 C841 1.380 . S
C844 C843 1.384 . S
C844 H853 0.931 . S
C845 C841 1.374 . S
C845 C846 1.390 . S
C845 H854 0.930 . S
C846 C842 1.391 . S
C846 C845 1.390 . S
C846 H855 0.930 . S
C847 Eu817 2.825 . S
C847 O832 1.238 . S
C847 O833 1.247 . S
C847 C841 1.507 . S
H848 C821 0.930 . S
H849 C822 0.931 . S
H850 C823 0.930 . S
H851 C824 0.930 . S
H852 C843 0.930 . S
H853 C844 0.931 . S
H854 C845 0.930 . S
H855 C846 0.930 . S
Tb856 C866 2.825 . S
Tb856 O867 2.347 . S
Tb856 O870 2.366 . S
Tb856 O875 2.418 . S
Tb856 O876 2.384 . S
Tb856 O879 2.479 . S
Tb856 O880 2.471 . S
Eu857 O868 2.418 . S
Eu857 O869 2.384 . S
Eu857 O872 2.479 . S
Eu857 O873 2.471 . S
Eu857 O874 2.347 . S
Eu857 O877 2.366 . S
Eu857 C887 2.825 . S
C858 O874 1.259 . S
C858 O875 1.265 . S
C859 O876 1.255 . S
C859 O877 1.265 . S
C860 C862 1.380 . S
C860 C863 1.374 . S
C860 C866 1.507 . S
C861 C862 1.384 . S
C861 C865 1.387 . S
C861 H888 0.930 . S
C862 C860 1.380 . S
C862 C861 1.384 . S
C862 H889 0.931 . S
C863 C860 1.374 . S
C863 C864 1.390 . S
C863 H890 0.930 . S
C864 C863 1.390 . S
C864 C865 1.391 . S
C864 H891 0.930 . S
C865 C861 1.387 . S
C865 C864 1.391 . S
C866 Tb856 2.825 . S
C866 C860 1.507 . S
C866 O879 1.238 . S
C866 O880 1.247 . S
O867 Tb856 2.347 . S
O867 C871 1.259 . S
O868 Eu857 2.418 . S
O868 C871 1.265 . S
O869 Eu857 2.384 . S
O869 C878 1.255 . S
O870 Tb856 2.366 . S
O870 C878 1.265 . S
C871 O867 1.259 . S
C871 O868 1.265 . S
O872 Eu857 2.479 . S
O872 C887 1.238 . S
O873 Eu857 2.471 . S
O873 C887 1.247 . S
O874 Eu857 2.347 . S
O874 C858 1.259 . S
O875 Tb856 2.418 . S
O875 C858 1.265 . S
O876 Tb856 2.384 . S
O876 C859 1.255 . S
O877 Eu857 2.366 . S
O877 C859 1.265 . S
C878 O869 1.255 . S
C878 O870 1.265 . S
O879 Tb856 2.479 . S
O879 C866 1.238 . S
O880 Tb856 2.471 . S
O880 C866 1.247 . S
C881 C884 1.380 . S
C881 C885 1.374 . S
C881 C887 1.507 . S
C882 C883 1.387 . S
C882 C886 1.391 . S
C883 C882 1.387 . S
C883 C884 1.384 . S
C883 H892 0.930 . S
C884 C881 1.380 . S
C884 C883 1.384 . S
C884 H893 0.931 . S
C885 C881 1.374 . S
C885 C886 1.390 . S
C885 H894 0.930 . S
C886 C882 1.391 . S
C886 C885 1.390 . S
C886 H895 0.930 . S
C887 Eu857 2.825 . S
C887 O872 1.238 . S
C887 O873 1.247 . S
C887 C881 1.507 . S
H888 C861 0.930 . S
H889 C862 0.931 . S
H890 C863 0.930 . S
H891 C864 0.930 . S
H892 C883 0.930 . S
H893 C884 0.931 . S
H894 C885 0.930 . S
H895 C886 0.930 . S
Tb896 C906 2.825 . S
Tb896 O907 2.347 . S
Tb896 O910 2.366 . S
Tb896 O915 2.418 . S
Tb896 O916 2.384 . S
Tb896 O919 2.479 . S
Tb896 O920 2.471 . S
Eu897 O908 2.418 . S
Eu897 O909 2.384 . S
Eu897 O912 2.479 . S
Eu897 O913 2.471 . S
Eu897 O914 2.347 . S
Eu897 O917 2.366 . S
Eu897 C927 2.825 . S
C898 O914 1.259 . S
C898 O915 1.265 . S
C899 O916 1.255 . S
C899 O917 1.265 . S
C900 C902 1.380 . S
C900 C903 1.374 . S
C900 C906 1.507 . S
C901 C902 1.384 . S
C901 C905 1.387 . S
C901 H928 0.930 . S
C902 C900 1.380 . S
C902 C901 1.384 . S
C902 H929 0.931 . S
C903 C900 1.374 . S
C903 C904 1.390 . S
C903 H930 0.930 . S
C904 C903 1.390 . S
C904 C905 1.391 . S
C904 H931 0.930 . S
C905 C901 1.387 . S
C905 C904 1.391 . S
C906 Tb896 2.825 . S
C906 C900 1.507 . S
C906 O919 1.238 . S
C906 O920 1.247 . S
O907 Tb896 2.347 . S
O907 C911 1.259 . S
O908 Eu897 2.418 . S
O908 C911 1.265 . S
O909 Eu897 2.384 . S
O909 C918 1.255 . S
O910 Tb896 2.366 . S
O910 C918 1.265 . S
C911 O907 1.259 . S
C911 O908 1.265 . S
O912 Eu897 2.479 . S
O912 C927 1.238 . S
O913 Eu897 2.471 . S
O913 C927 1.247 . S
O914 Eu897 2.347 . S
O914 C898 1.259 . S
O915 Tb896 2.418 . S
O915 C898 1.265 . S
O916 Tb896 2.384 . S
O916 C899 1.255 . S
O917 Eu897 2.366 . S
O917 C899 1.265 . S
C918 O909 1.255 . S
C918 O910 1.265 . S
O919 Tb896 2.479 . S
O919 C906 1.238 . S
O920 Tb896 2.471 . S
O920 C906 1.247 . S
C921 C924 1.380 . S
C921 C925 1.374 . S
C921 C927 1.507 . S
C922 C923 1.387 . S
C922 C926 1.391 . S
C923 C922 1.387 . S
C923 C924 1.384 . S
C923 H932 0.930 . S
C924 C921 1.380 . S
C924 C923 1.384 . S
C924 H933 0.931 . S
C925 C921 1.374 . S
C925 C926 1.390 . S
C925 H934 0.930 . S
C926 C922 1.391 . S
C926 C925 1.390 . S
C926 H935 0.930 . S
C927 Eu897 2.825 . S
C927 O912 1.238 . S
C927 O913 1.247 . S
C927 C921 1.507 . S
H928 C901 0.930 . S
H929 C902 0.931 . S
H930 C903 0.930 . S
H931 C904 0.930 . S
H932 C923 0.930 . S
H933 C924 0.931 . S
H934 C925 0.930 . S
H935 C926 0.930 . S
Tb936 C946 2.825 . S
Tb936 O947 2.347 1_554 S
Tb936 O950 2.366 . S
Tb936 O955 2.418 . S
Tb936 O956 2.384 . S
Tb936 O959 2.479 . S
Tb936 O960 2.471 1_554 S
Eu937 O948 2.418 1_554 S
Eu937 O949 2.384 . S
Eu937 O952 2.479 . S
Eu937 O953 2.471 . S
Eu937 O954 2.347 . S
Eu937 O957 2.366 . S
Eu937 C967 2.825 . S
C938 O954 1.259 . S
C938 O955 1.265 . S
C939 O956 1.255 . S
C939 O957 1.265 . S
C940 C942 1.380 1_556 S
C940 C943 1.374 . S
C940 C946 1.507 1_556 S
C941 C942 1.384 1_556 S
C941 C945 1.387 . S
C941 H968 0.930 1_556 S
C942 C940 1.380 1_554 S
C942 C941 1.384 1_554 S
C942 H969 0.931 . S
C943 C940 1.374 . S
C943 C944 1.390 . S
C943 H970 0.930 . S
C944 C943 1.390 . S
C944 C945 1.391 . S
C944 H971 0.930 . S
C945 C941 1.387 . S
C945 C944 1.391 . S
C946 Tb936 2.825 . S
C946 C940 1.507 1_554 S
C946 O959 1.238 . S
C946 O960 1.247 1_554 S
O947 Tb936 2.347 1_556 S
O947 C951 1.259 . S
O948 Eu937 2.418 1_556 S
O948 C951 1.265 . S
O949 Eu937 2.384 . S
O949 C958 1.255 . S
O950 Tb936 2.366 . S
O950 C958 1.265 . S
C951 O947 1.259 . S
C951 O948 1.265 . S
O952 Eu937 2.479 . S
O952 C967 1.238 . S
O953 Eu937 2.471 . S
O953 C967 1.247 . S
O954 Eu937 2.347 . S
O954 C938 1.259 . S
O955 Tb936 2.418 . S
O955 C938 1.265 . S
O956 Tb936 2.384 . S
O956 C939 1.255 . S
O957 Eu937 2.366 . S
O957 C939 1.265 . S
C958 O949 1.255 . S
C958 O950 1.265 . S
O959 Tb936 2.479 . S
O959 C946 1.238 . S
O960 Tb936 2.471 1_556 S
O960 C946 1.247 1_556 S
C961 C964 1.380 . S
C961 C965 1.374 . S
C961 C967 1.507 . S
C962 C963 1.387 . S
C962 C966 1.391 . S
C963 C962 1.387 . S
C963 C964 1.384 . S
C963 H972 0.930 . S
C964 C961 1.380 . S
C964 C963 1.384 . S
C964 H973 0.931 . S
C965 C961 1.374 . S
C965 C966 1.390 . S
C965 H974 0.930 . S
C966 C962 1.391 . S
C966 C965 1.390 . S
C966 H975 0.930 . S
C967 Eu937 2.825 . S
C967 O952 1.238 . S
C967 O953 1.247 . S
C967 C961 1.507 . S
H968 C941 0.930 1_554 S
H969 C942 0.931 . S
H970 C943 0.930 . S
H971 C944 0.930 . S
H972 C963 0.930 . S
H973 C964 0.931 . S
H974 C965 0.930 . S
H975 C966 0.930 . S
C976 C977 1.391 1_655 S
C976 C978 1.394 . S
C976 H992 0.931 . S
C977 C976 1.391 1_455 S
C977 C981 1.376 . S
C978 C976 1.394 . S
C978 C979 1.369 1_655 S
C978 C982 1.531 . S
C979 C978 1.369 1_455 S
C979 C980 1.410 . S
C979 C987 1.503 . S
C980 C979 1.410 . S
C980 C981 1.392 . S
C980 C983 1.511 . S
C981 C977 1.376 . S
C981 C980 1.392 . S
C981 H993 0.929 . S
C982 C978 1.531 . S
C982 H994 0.960 . S
C982 H995 0.962 . S
C982 H996 0.960 . S
C983 C980 1.511 . S
C983 H997 0.961 . S
C983 H998 0.961 . S
C983 H999 0.961 . S
C984 C985 1.370 . S
C984 C986 1.363 1_554 S
C984 H1000 0.931 . S
C985 C984 1.370 . S
C985 C989 1.408 1_554 S
C986 C984 1.363 1_556 S
C986 C987 1.370 . S
C986 C990 1.524 1_556 S
C987 C979 1.503 . S
C987 C986 1.370 . S
C987 C988 1.403 . S
C988 C987 1.403 . S
C988 C989 1.404 . S
C988 C991 1.539 . S
C989 C985 1.408 1_556 S
C989 C988 1.404 . S
C989 H1001 0.930 . S
C990 C986 1.524 1_554 S
C990 H1002 0.955 1_554 S
C990 H1003 0.961 1_554 S
C990 H1004 0.961 . S
C991 C988 1.539 . S
C991 H1005 0.958 . S
C991 H1006 0.961 . S
C991 H1007 0.960 . S
H992 C976 0.931 . S
H993 C981 0.929 . S
H994 C982 0.960 . S
H995 C982 0.962 . S
H996 C982 0.960 . S
H997 C983 0.961 . S
H998 C983 0.961 . S
H999 C983 0.961 . S
H1000 C984 0.931 . S
H1001 C989 0.930 . S
H1002 C990 0.955 1_556 S
H1003 C990 0.961 1_556 S
H1004 C990 0.961 . S
H1005 C991 0.958 . S
H1006 C991 0.961 . S
H1007 C991 0.960 . S
C1008 C1009 1.391 . S
C1008 C1010 1.394 . S
C1008 H1024 0.931 . S
C1009 C1008 1.391 . S
C1009 C1013 1.376 . S
C1010 C1008 1.394 . S
C1010 C1011 1.369 . S
C1010 C1014 1.531 . S
C1011 C1010 1.369 . S
C1011 C1012 1.410 . S
C1011 C1019 1.503 . S
C1012 C1011 1.410 . S
C1012 C1013 1.392 . S
C1012 C1015 1.511 . S
C1013 C1009 1.376 . S
C1013 C1012 1.392 . S
C1013 H1025 0.929 . S
C1014 C1010 1.531 . S
C1014 H1026 0.960 . S
C1014 H1027 0.962 . S
C1014 H1028 0.960 . S
C1015 C1012 1.511 . S
C1015 H1029 0.961 . S
C1015 H1030 0.961 . S
C1015 H1031 0.961 . S
C1016 C1017 1.370 . S
C1016 C1018 1.363 . S
C1016 H1032 0.931 . S
C1017 C1016 1.370 . S
C1017 C1021 1.408 . S
C1018 C1016 1.363 . S
C1018 C1019 1.370 . S
C1018 C1022 1.524 . S
C1019 C1011 1.503 . S
C1019 C1018 1.370 . S
C1019 C1020 1.403 . S
C1020 C1019 1.403 . S
C1020 C1021 1.404 . S
C1020 C1023 1.539 . S
C1021 C1017 1.408 . S
C1021 C1020 1.404 . S
C1021 H1033 0.930 . S
C1022 C1018 1.524 . S
C1022 H1034 0.956 . S
C1022 H1035 0.961 . S
C1022 H1036 0.961 . S
C1023 C1020 1.539 . S
C1023 H1037 0.958 . S
C1023 H1038 0.961 . S
C1023 H1039 0.960 . S
H1024 C1008 0.931 . S
H1025 C1013 0.929 . S
H1026 C1014 0.960 . S
H1027 C1014 0.962 . S
H1028 C1014 0.960 . S
H1029 C1015 0.961 . S
H1030 C1015 0.961 . S
H1031 C1015 0.961 . S
H1032 C1016 0.931 . S
H1033 C1021 0.930 . S
H1034 C1022 0.956 . S
H1035 C1022 0.961 . S
H1036 C1022 0.961 . S
H1037 C1023 0.958 . S
H1038 C1023 0.961 . S
H1039 C1023 0.960 . S
C1040 C1041 1.391 . S
C1040 C1042 1.394 . S
C1040 H1056 0.931 . S
C1041 C1040 1.391 . S
C1041 C1045 1.376 . S
C1042 C1040 1.394 . S
C1042 C1043 1.369 . S
C1042 C1046 1.531 . S
C1043 C1042 1.369 . S
C1043 C1044 1.410 . S
C1043 C1051 1.503 . S
C1044 C1043 1.410 . S
C1044 C1045 1.392 . S
C1044 C1047 1.511 . S
C1045 C1041 1.376 . S
C1045 C1044 1.392 . S
C1045 H1057 0.929 . S
C1046 C1042 1.531 . S
C1046 H1058 0.960 . S
C1046 H1059 0.962 . S
C1046 H1060 0.960 . S
C1047 C1044 1.511 . S
C1047 H1061 0.961 . S
C1047 H1062 0.961 . S
C1047 H1063 0.961 . S
C1048 C1049 1.370 . S
C1048 C1050 1.363 . S
C1048 H1064 0.931 . S
C1049 C1048 1.370 . S
C1049 C1053 1.408 . S
C1050 C1048 1.363 . S
C1050 C1051 1.370 . S
C1050 C1054 1.524 . S
C1051 C1043 1.503 . S
C1051 C1050 1.370 . S
C1051 C1052 1.403 . S
C1052 C1051 1.403 . S
C1052 C1053 1.404 . S
C1052 C1055 1.539 . S
C1053 C1049 1.408 . S
C1053 C1052 1.404 . S
C1053 H1065 0.930 . S
C1054 C1050 1.524 . S
C1054 H1066 0.956 . S
C1054 H1067 0.961 . S
C1054 H1068 0.961 . S
C1055 C1052 1.539 . S
C1055 H1069 0.958 . S
C1055 H1070 0.961 . S
C1055 H1071 0.960 . S
H1056 C1040 0.931 . S
H1057 C1045 0.929 . S
H1058 C1046 0.960 . S
H1059 C1046 0.962 . S
H1060 C1046 0.960 . S
H1061 C1047 0.961 . S
H1062 C1047 0.961 . S
H1063 C1047 0.961 . S
H1064 C1048 0.931 . S
H1065 C1053 0.930 . S
H1066 C1054 0.956 . S
H1067 C1054 0.961 . S
H1068 C1054 0.961 . S
H1069 C1055 0.958 . S
H1070 C1055 0.961 . S
H1071 C1055 0.960 . S
C1072 C1073 1.391 . S
C1072 C1074 1.394 . S
C1072 H1088 0.931 . S
C1073 C1072 1.391 . S
C1073 C1077 1.376 . S
C1074 C1072 1.394 . S
C1074 C1075 1.369 . S
C1074 C1078 1.531 . S
C1075 C1074 1.369 . S
C1075 C1076 1.410 . S
C1075 C1083 1.503 . S
C1076 C1075 1.410 . S
C1076 C1077 1.392 . S
C1076 C1079 1.511 . S
C1077 C1073 1.376 . S
C1077 C1076 1.392 . S
C1077 H1089 0.929 . S
C1078 C1074 1.531 . S
C1078 H1090 0.960 . S
C1078 H1091 0.962 . S
C1078 H1092 0.960 . S
C1079 C1076 1.511 . S
C1079 H1093 0.961 . S
C1079 H1094 0.961 . S
C1079 H1095 0.961 . S
C1080 C1081 1.370 . S
C1080 C1082 1.363 . S
C1080 H1096 0.931 . S
C1081 C1080 1.370 . S
C1081 C1085 1.408 . S
C1082 C1080 1.363 . S
C1082 C1083 1.370 . S
C1082 C1086 1.524 . S
C1083 C1075 1.503 . S
C1083 C1082 1.370 . S
C1083 C1084 1.403 . S
C1084 C1083 1.403 . S
C1084 C1085 1.404 . S
C1084 C1087 1.539 . S
C1085 C1081 1.408 . S
C1085 C1084 1.404 . S
C1085 H1097 0.930 . S
C1086 C1082 1.524 . S
C1086 H1098 0.956 . S
C1086 H1099 0.961 . S
C1086 H1100 0.961 . S
C1087 C1084 1.539 . S
C1087 H1101 0.958 . S
C1087 H1102 0.961 . S
C1087 H1103 0.960 . S
H1088 C1072 0.931 . S
H1089 C1077 0.929 . S
H1090 C1078 0.960 . S
H1091 C1078 0.962 . S
H1092 C1078 0.960 . S
H1093 C1079 0.961 . S
H1094 C1079 0.961 . S
H1095 C1079 0.961 . S
H1096 C1080 0.931 . S
H1097 C1085 0.930 . S
H1098 C1086 0.956 . S
H1099 C1086 0.961 . S
H1100 C1086 0.961 . S
H1101 C1087 0.958 . S
H1102 C1087 0.961 . S
H1103 C1087 0.960 . S
C1104 C1105 1.391 . S
C1104 C1106 1.394 . S
C1104 H1120 0.931 . S
C1105 C1104 1.391 . S
C1105 C1109 1.376 . S
C1106 C1104 1.394 . S
C1106 C1107 1.369 . S
C1106 C1110 1.531 . S
C1107 C1106 1.369 . S
C1107 C1108 1.410 . S
C1107 C1115 1.503 . S
C1108 C1107 1.410 . S
C1108 C1109 1.392 . S
C1108 C1111 1.511 . S
C1109 C1105 1.376 . S
C1109 C1108 1.392 . S
C1109 H1121 0.929 . S
C1110 C1106 1.531 . S
C1110 H1122 0.960 . S
C1110 H1123 0.962 . S
C1110 H1124 0.960 . S
C1111 C1108 1.511 . S
C1111 H1125 0.961 . S
C1111 H1126 0.961 . S
C1111 H1127 0.961 . S
C1112 C1113 1.370 . S
C1112 C1114 1.363 . S
C1112 H1128 0.931 . S
C1113 C1112 1.370 . S
C1113 C1117 1.408 . S
C1114 C1112 1.363 . S
C1114 C1115 1.370 . S
C1114 C1118 1.524 . S
C1115 C1107 1.503 . S
C1115 C1114 1.370 . S
C1115 C1116 1.403 . S
C1116 C1115 1.403 . S
C1116 C1117 1.404 . S
C1116 C1119 1.539 . S
C1117 C1113 1.408 . S
C1117 C1116 1.404 . S
C1117 H1129 0.930 . S
C1118 C1114 1.524 . S
C1118 H1130 0.956 . S
C1118 H1131 0.961 . S
C1118 H1132 0.961 . S
C1119 C1116 1.539 . S
C1119 H1133 0.958 . S
C1119 H1134 0.961 . S
C1119 H1135 0.960 . S
H1120 C1104 0.931 . S
H1121 C1109 0.929 . S
H1122 C1110 0.960 . S
H1123 C1110 0.962 . S
H1124 C1110 0.960 . S
H1125 C1111 0.961 . S
H1126 C1111 0.961 . S
H1127 C1111 0.961 . S
H1128 C1112 0.931 . S
H1129 C1117 0.930 . S
H1130 C1118 0.956 . S
H1131 C1118 0.961 . S
H1132 C1118 0.961 . S
H1133 C1119 0.958 . S
H1134 C1119 0.961 . S
H1135 C1119 0.960 . S
C1136 C1137 1.391 . S
C1136 C1138 1.394 . S
C1136 H1152 0.931 . S
C1137 C1136 1.391 . S
C1137 C1141 1.376 . S
C1138 C1136 1.394 . S
C1138 C1139 1.369 . S
C1138 C1142 1.531 . S
C1139 C1138 1.369 . S
C1139 C1140 1.410 . S
C1139 C1147 1.503 . S
C1140 C1139 1.410 . S
C1140 C1141 1.392 . S
C1140 C1143 1.511 . S
C1141 C1137 1.376 . S
C1141 C1140 1.392 . S
C1141 H1153 0.929 . S
C1142 C1138 1.531 . S
C1142 H1154 0.960 . S
C1142 H1155 0.962 . S
C1142 H1156 0.960 . S
C1143 C1140 1.511 . S
C1143 H1157 0.961 . S
C1143 H1158 0.961 . S
C1143 H1159 0.961 . S
C1144 C1145 1.370 . S
C1144 C1146 1.363 . S
C1144 H1160 0.931 . S
C1145 C1144 1.370 . S
C1145 C1149 1.408 . S
C1146 C1144 1.363 . S
C1146 C1147 1.370 . S
C1146 C1150 1.524 . S
C1147 C1139 1.503 . S
C1147 C1146 1.370 . S
C1147 C1148 1.403 . S
C1148 C1147 1.403 . S
C1148 C1149 1.404 . S
C1148 C1151 1.539 . S
C1149 C1145 1.408 . S
C1149 C1148 1.404 . S
C1149 H1161 0.930 . S
C1150 C1146 1.524 . S
C1150 H1162 0.956 . S
C1150 H1163 0.961 . S
C1150 H1164 0.961 . S
C1151 C1148 1.539 . S
C1151 H1165 0.958 . S
C1151 H1166 0.961 . S
C1151 H1167 0.960 . S
H1152 C1136 0.931 . S
H1153 C1141 0.929 . S
H1154 C1142 0.960 . S
H1155 C1142 0.962 . S
H1156 C1142 0.960 . S
H1157 C1143 0.961 . S
H1158 C1143 0.961 . S
H1159 C1143 0.961 . S
H1160 C1144 0.931 . S
H1161 C1149 0.930 . S
H1162 C1150 0.956 . S
H1163 C1150 0.961 . S
H1164 C1150 0.961 . S
H1165 C1151 0.958 . S
H1166 C1151 0.961 . S
H1167 C1151 0.960 . S
C1168 C1169 1.391 . S
C1168 C1170 1.394 . S
C1168 H1184 0.931 . S
C1169 C1168 1.391 . S
C1169 C1173 1.376 . S
C1170 C1168 1.394 . S
C1170 C1171 1.369 . S
C1170 C1174 1.531 . S
C1171 C1170 1.369 . S
C1171 C1172 1.410 . S
C1171 C1179 1.503 . S
C1172 C1171 1.410 . S
C1172 C1173 1.392 . S
C1172 C1175 1.511 . S
C1173 C1169 1.376 . S
C1173 C1172 1.392 . S
C1173 H1185 0.929 . S
C1174 C1170 1.531 . S
C1174 H1186 0.960 . S
C1174 H1187 0.962 . S
C1174 H1188 0.960 . S
C1175 C1172 1.511 . S
C1175 H1189 0.961 . S
C1175 H1190 0.961 . S
C1175 H1191 0.961 . S
C1176 C1177 1.370 . S
C1176 C1178 1.363 . S
C1176 H1192 0.931 . S
C1177 C1176 1.370 . S
C1177 C1181 1.408 . S
C1178 C1176 1.363 . S
C1178 C1179 1.370 . S
C1178 C1182 1.524 . S
C1179 C1171 1.503 . S
C1179 C1178 1.370 . S
C1179 C1180 1.403 . S
C1180 C1179 1.403 . S
C1180 C1181 1.404 . S
C1180 C1183 1.539 . S
C1181 C1177 1.408 . S
C1181 C1180 1.404 . S
C1181 H1193 0.930 . S
C1182 C1178 1.524 . S
C1182 H1194 0.956 . S
C1182 H1195 0.961 . S
C1182 H1196 0.961 . S
C1183 C1180 1.539 . S
C1183 H1197 0.958 . S
C1183 H1198 0.961 . S
C1183 H1199 0.960 . S
H1184 C1168 0.931 . S
H1185 C1173 0.929 . S
H1186 C1174 0.960 . S
H1187 C1174 0.962 . S
H1188 C1174 0.960 . S
H1189 C1175 0.961 . S
H1190 C1175 0.961 . S
H1191 C1175 0.961 . S
H1192 C1176 0.931 . S
H1193 C1181 0.930 . S
H1194 C1182 0.956 . S
H1195 C1182 0.961 . S
H1196 C1182 0.961 . S
H1197 C1183 0.958 . S
H1198 C1183 0.961 . S
H1199 C1183 0.960 . S
C1200 C1201 1.391 . S
C1200 C1202 1.394 . S
C1200 H1216 0.931 . S
C1201 C1200 1.391 . S
C1201 C1205 1.376 . S
C1202 C1200 1.394 . S
C1202 C1203 1.369 . S
C1202 C1206 1.531 . S
C1203 C1202 1.369 . S
C1203 C1204 1.410 . S
C1203 C1211 1.503 . S
C1204 C1203 1.410 . S
C1204 C1205 1.392 . S
C1204 C1207 1.511 . S
C1205 C1201 1.376 . S
C1205 C1204 1.392 . S
C1205 H1217 0.929 . S
C1206 C1202 1.531 . S
C1206 H1218 0.960 . S
C1206 H1219 0.962 . S
C1206 H1220 0.960 . S
C1207 C1204 1.511 . S
C1207 H1221 0.961 . S
C1207 H1222 0.961 . S
C1207 H1223 0.961 . S
C1208 C1209 1.370 . S
C1208 C1210 1.363 . S
C1208 H1224 0.931 . S
C1209 C1208 1.370 . S
C1209 C1213 1.408 . S
C1210 C1208 1.363 . S
C1210 C1211 1.370 . S
C1210 C1214 1.524 . S
C1211 C1203 1.503 . S
C1211 C1210 1.370 . S
C1211 C1212 1.403 . S
C1212 C1211 1.403 . S
C1212 C1213 1.404 . S
C1212 C1215 1.539 . S
C1213 C1209 1.408 . S
C1213 C1212 1.404 . S
C1213 H1225 0.930 . S
C1214 C1210 1.524 . S
C1214 H1226 0.956 . S
C1214 H1227 0.961 . S
C1214 H1228 0.961 . S
C1215 C1212 1.539 . S
C1215 H1229 0.958 . S
C1215 H1230 0.961 . S
C1215 H1231 0.960 . S
H1216 C1200 0.931 . S
H1217 C1205 0.929 . S
H1218 C1206 0.960 . S
H1219 C1206 0.962 . S
H1220 C1206 0.960 . S
H1221 C1207 0.961 . S
H1222 C1207 0.961 . S
H1223 C1207 0.961 . S
H1224 C1208 0.931 . S
H1225 C1213 0.930 . S
H1226 C1214 0.956 . S
H1227 C1214 0.961 . S
H1228 C1214 0.961 . S
H1229 C1215 0.958 . S
H1230 C1215 0.961 . S
H1231 C1215 0.960 . S
C1232 C1233 1.391 1_565 S
C1232 C1234 1.394 . S
C1232 H1248 0.931 . S
C1233 C1232 1.391 1_545 S
C1233 C1237 1.376 . S
C1234 C1232 1.394 . S
C1234 C1235 1.369 1_565 S
C1234 C1238 1.531 . S
C1235 C1234 1.369 1_545 S
C1235 C1236 1.410 . S
C1235 C1243 1.503 . S
C1236 C1235 1.410 . S
C1236 C1237 1.392 . S
C1236 C1239 1.511 . S
C1237 C1233 1.376 . S
C1237 C1236 1.392 . S
C1237 H1249 0.929 . S
C1238 C1234 1.531 . S
C1238 H1250 0.960 . S
C1238 H1251 0.962 1_655 S
C1238 H1252 0.960 . S
C1239 C1236 1.511 . S
C1239 H1253 0.961 . S
C1239 H1254 0.961 . S
C1239 H1255 0.961 . S
C1240 C1241 1.370 . S
C1240 C1242 1.363 . S
C1240 H1256 0.931 . S
C1241 C1240 1.370 . S
C1241 C1245 1.441 . S
C1242 C1240 1.363 . S
C1242 C1243 1.370 1_455 S
C1242 C1246 1.524 . S
C1243 C1235 1.503 . S
C1243 C1242 1.370 1_655 S
C1243 C1244 1.403 . S
C1244 C1243 1.403 . S
C1244 C1245 1.366 1_655 S
C1244 C1247 1.539 1_545 S
C1245 C1241 1.441 . S
C1245 C1244 1.366 1_455 S
C1245 H1257 0.941 1_455 S
C1246 C1242 1.524 . S
C1246 H1258 0.956 . S
C1246 H1259 0.961 1_455 S
C1246 H1260 0.961 . S
C1247 C1244 1.539 1_565 S
C1247 H1261 0.958 . S
C1247 H1262 0.961 . S
C1247 H1263 0.960 . S
H1248 C1232 0.931 . S
H1249 C1237 0.929 . S
H1250 C1238 0.960 . S
H1251 C1238 0.962 1_455 S
H1252 C1238 0.960 . S
H1253 C1239 0.961 . S
H1254 C1239 0.961 . S
H1255 C1239 0.961 . S
H1256 C1240 0.931 . S
H1257 C1245 0.941 1_655 S
H1258 C1246 0.956 . S
H1259 C1246 0.961 1_655 S
H1260 C1246 0.961 . S
H1261 C1247 0.958 . S
H1262 C1247 0.961 . S
H1263 C1247 0.960 . S
C1264 C1265 1.391 . S
C1264 C1266 1.394 . S
C1264 H1280 0.931 . S
C1265 C1264 1.391 . S
C1265 C1269 1.376 . S
C1266 C1264 1.394 . S
C1266 C1267 1.369 . S
C1266 C1270 1.531 . S
C1267 C1266 1.369 . S
C1267 C1268 1.410 . S
C1267 C1275 1.503 . S
C1268 C1267 1.410 . S
C1268 C1269 1.392 . S
C1268 C1271 1.511 . S
C1269 C1265 1.376 . S
C1269 C1268 1.392 . S
C1269 H1281 0.929 . S
C1270 C1266 1.531 . S
C1270 H1282 0.960 . S
C1270 H1283 0.962 . S
C1270 H1284 0.960 . S
C1271 C1268 1.511 . S
C1271 H1285 0.961 . S
C1271 H1286 0.961 . S
C1271 H1287 0.961 . S
C1272 C1273 1.370 . S
C1272 C1274 1.363 . S
C1272 H1288 0.931 . S
C1273 C1272 1.370 . S
C1273 C1277 1.408 . S
C1274 C1272 1.363 . S
C1274 C1275 1.370 . S
C1274 C1278 1.524 . S
C1275 C1267 1.503 . S
C1275 C1274 1.370 . S
C1275 C1276 1.403 . S
C1276 C1275 1.403 . S
C1276 C1277 1.404 . S
C1276 C1279 1.539 . S
C1277 C1273 1.408 . S
C1277 C1276 1.404 . S
C1277 H1289 0.930 . S
C1278 C1274 1.524 . S
C1278 H1290 0.956 . S
C1278 H1291 0.961 . S
C1278 H1292 0.961 . S
C1279 C1276 1.539 . S
C1279 H1293 0.958 . S
C1279 H1294 0.961 . S
C1279 H1295 0.960 . S
H1280 C1264 0.931 . S
H1281 C1269 0.929 . S
H1282 C1270 0.960 . S
H1283 C1270 0.962 . S
H1284 C1270 0.960 . S
H1285 C1271 0.961 . S
H1286 C1271 0.961 . S
H1287 C1271 0.961 . S
H1288 C1272 0.931 . S
H1289 C1277 0.930 . S
H1290 C1278 0.956 . S
H1291 C1278 0.961 . S
H1292 C1278 0.961 . S
H1293 C1279 0.958 . S
H1294 C1279 0.961 . S
H1295 C1279 0.960 . S
C1296 C1297 1.406 . S
C1296 C1298 1.394 . S
C1296 H1312 0.931 . S
C1297 C1296 1.406 . S
C1297 C1301 1.371 1_545 S
C1298 C1296 1.394 . S
C1298 C1299 1.369 . S
C1298 C1302 1.531 . S
C1299 C1298 1.369 . S
C1299 C1300 1.410 . S
C1299 C1307 1.503 . S
C1300 C1299 1.410 . S
C1300 C1301 1.392 1_545 S
C1300 C1303 1.511 1_545 S
C1301 C1297 1.371 1_565 S
C1301 C1300 1.392 1_565 S
C1301 H1313 0.929 . S
C1302 C1298 1.531 . S
C1302 H1314 0.960 . S
C1302 H1315 0.962 . S
C1302 H1316 0.960 . S
C1303 C1300 1.511 1_565 S
C1303 H1317 0.961 . S
C1303 H1318 0.961 . S
C1303 H1319 0.960 1_565 S
C1304 C1305 1.370 . S
C1304 C1306 1.363 . S
C1304 H1320 0.931 1_545 S
C1305 C1304 1.370 . S
C1305 C1309 1.408 . S
C1306 C1304 1.363 . S
C1306 C1307 1.370 . S
C1306 C1310 1.524 1_545 S
C1307 C1299 1.503 . S
C1307 C1306 1.370 . S
C1307 C1308 1.403 . S
C1308 C1307 1.403 . S
C1308 C1309 1.404 . S
C1308 C1311 1.539 . S
C1309 C1305 1.408 . S
C1309 C1308 1.404 . S
C1309 H1321 0.930 . S
C1310 C1306 1.524 1_565 S
C1310 H1322 0.956 . S
C1310 H1323 0.961 . S
C1310 H1324 0.961 . S
C1311 C1308 1.539 . S
C1311 H1325 0.958 . S
C1311 H1326 0.961 . S
C1311 H1327 0.960 . S
H1312 C1296 0.931 . S
H1313 C1301 0.929 . S
H1314 C1302 0.960 . S
H1315 C1302 0.962 . S
H1316 C1302 0.960 . S
H1317 C1303 0.961 . S
H1318 C1303 0.961 . S
H1319 C1303 0.960 1_545 S
H1320 C1304 0.931 1_565 S
H1321 C1309 0.930 . S
H1322 C1310 0.956 . S
H1323 C1310 0.961 . S
H1324 C1310 0.961 . S
H1325 C1311 0.958 . S
H1326 C1311 0.961 . S
H1327 C1311 0.960 . S
C1328 C1329 1.391 . S
C1328 C1330 1.394 . S
C1328 H1344 0.931 . S
C1329 C1328 1.391 . S
C1329 C1333 1.376 . S
C1330 C1328 1.394 . S
C1330 C1331 1.369 . S
C1330 C1334 1.531 . S
C1331 C1330 1.369 . S
C1331 C1332 1.410 . S
C1331 C1339 1.503 . S
C1332 C1331 1.410 . S
C1332 C1333 1.392 . S
C1332 C1335 1.511 . S
C1333 C1329 1.376 . S
C1333 C1332 1.392 . S
C1333 H1345 0.929 . S
C1334 C1330 1.531 . S
C1334 H1346 0.960 . S
C1334 H1347 0.962 . S
C1334 H1348 0.960 . S
C1335 C1332 1.511 . S
C1335 H1349 0.961 . S
C1335 H1350 0.961 . S
C1335 H1351 0.961 . S
C1336 C1337 1.370 . S
C1336 C1338 1.363 . S
C1336 H1352 0.931 . S
C1337 C1336 1.370 . S
C1337 C1341 1.408 . S
C1338 C1336 1.363 . S
C1338 C1339 1.370 . S
C1338 C1342 1.524 . S
C1339 C1331 1.503 . S
C1339 C1338 1.370 . S
C1339 C1340 1.403 . S
C1340 C1339 1.403 . S
C1340 C1341 1.404 . S
C1340 C1343 1.539 . S
C1341 C1337 1.408 . S
C1341 C1340 1.404 . S
C1341 H1353 0.930 . S
C1342 C1338 1.524 . S
C1342 H1354 0.956 . S
C1342 H1355 0.961 . S
C1342 H1356 0.961 . S
C1343 C1340 1.539 . S
C1343 H1357 0.958 . S
C1343 H1358 0.961 . S
C1343 H1359 0.960 . S
H1344 C1328 0.931 . S
H1345 C1333 0.929 . S
H1346 C1334 0.960 . S
H1347 C1334 0.962 . S
H1348 C1334 0.960 . S
H1349 C1335 0.961 . S
H1350 C1335 0.961 . S
H1351 C1335 0.961 . S
H1352 C1336 0.931 . S
H1353 C1341 0.930 . S
H1354 C1342 0.956 . S
H1355 C1342 0.961 . S
H1356 C1342 0.961 . S
H1357 C1343 0.958 . S
H1358 C1343 0.961 . S
H1359 C1343 0.960 . S
C1360 C1361 1.391 1_565 S
C1360 C1362 1.394 . S
C1360 H1376 0.931 . S
C1361 C1360 1.391 1_545 S
C1361 C1365 1.376 . S
C1362 C1360 1.394 . S
C1362 C1363 1.369 1_565 S
C1362 C1366 1.531 . S
C1363 C1362 1.369 1_545 S
C1363 C1364 1.410 . S
C1363 C1371 1.503 . S
C1364 C1363 1.410 . S
C1364 C1365 1.392 . S
C1364 C1367 1.511 . S
C1365 C1361 1.376 . S
C1365 C1364 1.392 . S
C1365 H1377 0.929 . S
C1366 C1362 1.531 . S
C1366 H1378 0.960 . S
C1366 H1379 0.962 . S
C1366 H1380 0.960 . S
C1367 C1364 1.511 . S
C1367 H1381 0.961 . S
C1367 H1382 0.961 . S
C1367 H1383 0.961 . S
C1368 C1369 1.370 1_655 S
C1368 C1370 1.363 . S
C1368 H1384 0.931 . S
C1369 C1368 1.370 1_455 S
C1369 C1373 1.408 . S
C1370 C1368 1.363 . S
C1370 C1371 1.370 . S
C1370 C1374 1.525 . S
C1371 C1363 1.503 . S
C1371 C1370 1.370 . S
C1371 C1372 1.417 . S
C1372 C1371 1.417 . S
C1372 C1373 1.397 1_655 S
C1372 C1375 1.531 1_655 S
C1373 C1369 1.408 . S
C1373 C1372 1.397 1_455 S
C1373 H1385 0.930 . S
C1374 C1370 1.525 . S
C1374 H1386 0.953 1_545 S
C1374 H1387 0.963 . S
C1374 H1388 0.960 1_545 S
C1375 C1372 1.531 1_455 S
C1375 H1389 0.958 . S
C1375 H1390 0.961 . S
C1375 H1391 0.957 . S
H1376 C1360 0.931 . S
H1377 C1365 0.929 . S
H1378 C1366 0.960 . S
H1379 C1366 0.962 . S
H1380 C1366 0.960 . S
H1381 C1367 0.961 . S
H1382 C1367 0.961 . S
H1383 C1367 0.961 . S
H1384 C1368 0.931 . S
H1385 C1373 0.930 . S
H1386 C1374 0.953 1_565 S
H1387 C1374 0.963 . S
H1388 C1374 0.960 1_565 S
H1389 C1375 0.958 . S
H1390 C1375 0.961 . S
H1391 C1375 0.957 . S
C1392 C1393 1.391 . S
C1392 C1394 1.394 . S
C1392 H1408 0.931 . S
C1393 C1392 1.391 . S
C1393 C1397 1.376 . S
C1394 C1392 1.394 . S
C1394 C1395 1.369 . S
C1394 C1398 1.531 . S
C1395 C1394 1.369 . S
C1395 C1396 1.410 . S
C1395 C1403 1.503 . S
C1396 C1395 1.410 . S
C1396 C1397 1.392 . S
C1396 C1399 1.511 . S
C1397 C1393 1.376 . S
C1397 C1396 1.392 . S
C1397 H1409 0.929 . S
C1398 C1394 1.531 . S
C1398 H1410 0.960 . S
C1398 H1411 0.962 . S
C1398 H1412 0.960 . S
C1399 C1396 1.511 . S
C1399 H1413 0.961 . S
C1399 H1414 0.961 . S
C1399 H1415 0.961 . S
C1400 C1401 1.370 . S
C1400 C1402 1.363 . S
C1400 H1416 0.931 . S
C1401 C1400 1.370 . S
C1401 C1405 1.408 . S
C1402 C1400 1.363 . S
C1402 C1403 1.370 . S
C1402 C1406 1.524 . S
C1403 C1395 1.503 . S
C1403 C1402 1.370 . S
C1403 C1404 1.403 . S
C1404 C1403 1.403 . S
C1404 C1405 1.404 . S
C1404 C1407 1.539 . S
C1405 C1401 1.408 . S
C1405 C1404 1.404 . S
C1405 H1417 0.930 . S
C1406 C1402 1.524 . S
C1406 H1418 0.956 . S
C1406 H1419 0.961 . S
C1406 H1420 0.961 . S
C1407 C1404 1.539 . S
C1407 H1421 0.958 . S
C1407 H1422 0.961 . S
C1407 H1423 0.960 . S
H1408 C1392 0.931 . S
H1409 C1397 0.929 . S
H1410 C1398 0.960 . S
H1411 C1398 0.962 . S
H1412 C1398 0.960 . S
H1413 C1399 0.961 . S
H1414 C1399 0.961 . S
H1415 C1399 0.961 . S
H1416 C1400 0.931 . S
H1417 C1405 0.930 . S
H1418 C1406 0.956 . S
H1419 C1406 0.961 . S
H1420 C1406 0.961 . S
H1421 C1407 0.958 . S
H1422 C1407 0.961 . S
H1423 C1407 0.960 . S
C1424 C1425 1.384 1_565 S
C1424 C1426 1.394 1_565 S
C1424 H1440 0.931 . S
C1425 C1424 1.384 1_545 S
C1425 C1429 1.389 . S
C1426 C1424 1.394 1_545 S
C1426 C1427 1.369 . S
C1426 C1430 1.531 1_545 S
C1427 C1426 1.369 . S
C1427 C1428 1.410 . S
C1427 C1435 1.503 . S
C1428 C1427 1.410 . S
C1428 C1429 1.392 . S
C1428 C1431 1.511 . S
C1429 C1425 1.389 . S
C1429 C1428 1.392 . S
C1429 H1441 0.929 . S
C1430 C1426 1.531 1_565 S
C1430 H1442 0.960 . S
C1430 H1443 0.962 . S
C1430 H1444 0.960 . S
C1431 C1428 1.511 . S
C1431 H1445 0.961 . S
C1431 H1446 0.961 . S
C1431 H1447 0.961 . S
C1432 C1433 1.370 . S
C1432 C1434 1.363 . S
C1432 H1448 0.931 . S
C1433 C1432 1.370 . S
C1433 C1437 1.408 . S
C1434 C1432 1.363 . S
C1434 C1435 1.370 . S
C1434 C1438 1.524 . S
C1435 C1427 1.503 . S
C1435 C1434 1.370 . S
C1435 C1436 1.403 . S
C1436 C1435 1.403 . S
C1436 C1437 1.404 . S
C1436 C1439 1.539 . S
C1437 C1433 1.408 . S
C1437 C1436 1.404 . S
C1437 H1449 0.930 . S
C1438 C1434 1.524 . S
C1438 H1450 0.956 . S
C1438 H1451 0.961 . S
C1438 H1452 0.961 . S
C1439 C1436 1.539 . S
C1439 H1453 0.958 . S
C1439 H1454 0.961 . S
C1439 H1455 0.960 . S
H1440 C1424 0.931 . S
H1441 C1429 0.929 . S
H1442 C1430 0.960 . S
H1443 C1430 0.962 . S
H1444 C1430 0.960 . S
H1445 C1431 0.961 . S
H1446 C1431 0.961 . S
H1447 C1431 0.961 . S
H1448 C1432 0.931 . S
H1449 C1437 0.930 . S
H1450 C1438 0.956 . S
H1451 C1438 0.961 . S
H1452 C1438 0.961 . S
H1453 C1439 0.958 . S
H1454 C1439 0.961 . S
H1455 C1439 0.960 . S
C1456 C1457 1.391 . S
C1456 C1458 1.394 . S
C1456 H1472 0.931 . S
C1457 C1456 1.391 . S
C1457 C1461 1.376 . S
C1458 C1456 1.394 . S
C1458 C1459 1.369 . S
C1458 C1462 1.531 . S
C1459 C1458 1.369 . S
C1459 C1460 1.410 . S
C1459 C1467 1.503 . S
C1460 C1459 1.410 . S
C1460 C1461 1.392 . S
C1460 C1463 1.511 . S
C1461 C1457 1.376 . S
C1461 C1460 1.392 . S
C1461 H1473 0.929 . S
C1462 C1458 1.531 . S
C1462 H1474 0.960 . S
C1462 H1475 0.962 . S
C1462 H1476 0.960 . S
C1463 C1460 1.511 . S
C1463 H1477 0.961 . S
C1463 H1478 0.961 . S
C1463 H1479 0.961 . S
C1464 C1465 1.370 . S
C1464 C1466 1.363 . S
C1464 H1480 0.931 . S
C1465 C1464 1.370 . S
C1465 C1469 1.408 . S
C1466 C1464 1.363 . S
C1466 C1467 1.370 . S
C1466 C1470 1.524 . S
C1467 C1459 1.503 . S
C1467 C1466 1.370 . S
C1467 C1468 1.403 . S
C1468 C1467 1.403 . S
C1468 C1469 1.404 . S
C1468 C1471 1.539 . S
C1469 C1465 1.408 . S
C1469 C1468 1.404 . S
C1469 H1481 0.930 . S
C1470 C1466 1.524 . S
C1470 H1482 0.956 . S
C1470 H1483 0.961 . S
C1470 H1484 0.961 . S
C1471 C1468 1.539 . S
C1471 H1485 0.958 . S
C1471 H1486 0.961 . S
C1471 H1487 0.960 . S
H1472 C1456 0.931 . S
H1473 C1461 0.929 . S
H1474 C1462 0.960 . S
H1475 C1462 0.962 . S
H1476 C1462 0.960 . S
H1477 C1463 0.961 . S
H1478 C1463 0.961 . S
H1479 C1463 0.961 . S
H1480 C1464 0.931 . S
H1481 C1469 0.930 . S
H1482 C1470 0.956 . S
H1483 C1470 0.961 . S
H1484 C1470 0.961 . S
H1485 C1471 0.958 . S
H1486 C1471 0.961 . S
H1487 C1471 0.960 . S
C1488 C1489 1.391 . S
C1488 C1490 1.394 . S
C1488 H1504 0.931 . S
C1489 C1488 1.391 . S
C1489 C1493 1.376 . S
C1490 C1488 1.394 . S
C1490 C1491 1.369 . S
C1490 C1494 1.531 . S
C1491 C1490 1.369 . S
C1491 C1492 1.410 . S
C1491 C1499 1.503 . S
C1492 C1491 1.410 . S
C1492 C1493 1.392 . S
C1492 C1495 1.511 . S
C1493 C1489 1.376 . S
C1493 C1492 1.392 . S
C1493 H1505 0.929 . S
C1494 C1490 1.531 . S
C1494 H1506 0.960 . S
C1494 H1507 0.962 . S
C1494 H1508 0.960 . S
C1495 C1492 1.511 . S
C1495 H1509 0.961 . S
C1495 H1510 0.961 . S
C1495 H1511 0.961 . S
C1496 C1497 1.370 . S
C1496 C1498 1.363 . S
C1496 H1512 0.931 1_565 S
C1497 C1496 1.370 . S
C1497 C1501 1.408 . S
C1498 C1496 1.363 . S
C1498 C1499 1.370 . S
C1498 C1502 1.524 . S
C1499 C1491 1.503 . S
C1499 C1498 1.370 . S
C1499 C1500 1.403 . S
C1500 C1499 1.403 . S
C1500 C1501 1.404 . S
C1500 C1503 1.539 . S
C1501 C1497 1.408 . S
C1501 C1500 1.404 . S
C1501 H1513 0.930 . S
C1502 C1498 1.524 . S
C1502 H1514 0.956 . S
C1502 H1515 0.961 . S
C1502 H1516 0.961 . S
C1503 C1500 1.539 . S
C1503 H1517 0.958 . S
C1503 H1518 0.961 . S
C1503 H1519 0.960 . S
H1504 C1488 0.931 . S
H1505 C1493 0.929 . S
H1506 C1494 0.960 . S
H1507 C1494 0.962 . S
H1508 C1494 0.960 . S
H1509 C1495 0.961 . S
H1510 C1495 0.961 . S
H1511 C1495 0.961 . S
H1512 C1496 0.931 1_545 S
H1513 C1501 0.930 . S
H1514 C1502 0.956 . S
H1515 C1502 0.961 . S
H1516 C1502 0.961 . S
H1517 C1503 0.958 . S
H1518 C1503 0.961 . S
H1519 C1503 0.960 . S
C1520 C1521 1.391 . S
C1520 C1522 1.394 . S
C1520 H1536 0.931 1_554 S
C1521 C1520 1.391 . S
C1521 C1525 1.376 . S
C1522 C1520 1.394 . S
C1522 C1523 1.369 . S
C1522 C1526 1.531 1_554 S
C1523 C1522 1.369 . S
C1523 C1524 1.410 . S
C1523 C1531 1.503 . S
C1524 C1523 1.410 . S
C1524 C1525 1.392 . S
C1524 C1527 1.511 . S
C1525 C1521 1.376 . S
C1525 C1524 1.392 . S
C1525 H1537 0.929 . S
C1526 C1522 1.531 1_556 S
C1526 H1538 0.960 . S
C1526 H1539 0.962 1_556 S
C1526 H1540 0.960 . S
C1527 C1524 1.511 . S
C1527 H1541 0.961 . S
C1527 H1542 0.961 . S
C1527 H1543 0.961 . S
C1528 C1529 1.370 . S
C1528 C1530 1.363 . S
C1528 H1544 0.931 . S
C1529 C1528 1.370 . S
C1529 C1533 1.408 . S
C1530 C1528 1.363 . S
C1530 C1531 1.370 . S
C1530 C1534 1.524 . S
C1531 C1523 1.503 . S
C1531 C1530 1.370 . S
C1531 C1532 1.400 . S
C1532 C1531 1.400 . S
C1532 C1533 1.403 . S
C1532 C1535 1.543 1_554 S
C1533 C1529 1.408 . S
C1533 C1532 1.403 . S
C1533 H1545 0.930 1_554 S
C1534 C1530 1.524 . S
C1534 H1546 0.956 . S
C1534 H1547 0.961 . S
C1534 H1548 0.961 . S
C1535 C1532 1.543 1_556 S
C1535 H1549 0.958 . S
C1535 H1550 0.961 . S
C1535 H1551 0.960 . S
H1536 C1520 0.931 1_556 S
H1537 C1525 0.929 . S
H1538 C1526 0.960 . S
H1539 C1526 0.962 1_554 S
H1540 C1526 0.960 . S
H1541 C1527 0.961 . S
H1542 C1527 0.961 . S
H1543 C1527 0.961 . S
H1544 C1528 0.931 . S
H1545 C1533 0.930 1_556 S
H1546 C1534 0.956 . S
H1547 C1534 0.961 . S
H1548 C1534 0.961 . S
H1549 C1535 0.958 . S
H1550 C1535 0.961 . S
H1551 C1535 0.960 . S
C1552 C1553 1.391 . S
C1552 C1554 1.394 . S
C1552 H1568 0.931 . S
C1553 C1552 1.391 . S
C1553 C1557 1.376 . S
C1554 C1552 1.394 . S
C1554 C1555 1.369 . S
C1554 C1558 1.531 . S
C1555 C1554 1.369 . S
C1555 C1556 1.410 . S
C1555 C1563 1.503 . S
C1556 C1555 1.410 . S
C1556 C1557 1.392 . S
C1556 C1559 1.511 . S
C1557 C1553 1.376 . S
C1557 C1556 1.392 . S
C1557 H1569 0.929 . S
C1558 C1554 1.531 . S
C1558 H1570 0.960 . S
C1558 H1571 0.962 . S
C1558 H1572 0.960 . S
C1559 C1556 1.511 . S
C1559 H1573 0.961 . S
C1559 H1574 0.961 . S
C1559 H1575 0.961 . S
C1560 C1561 1.370 . S
C1560 C1562 1.363 . S
C1560 H1576 0.931 . S
C1561 C1560 1.370 . S
C1561 C1565 1.408 . S
C1562 C1560 1.363 . S
C1562 C1563 1.370 . S
C1562 C1566 1.524 . S
C1563 C1555 1.503 . S
C1563 C1562 1.370 . S
C1563 C1564 1.403 . S
C1564 C1563 1.403 . S
C1564 C1565 1.404 . S
C1564 C1567 1.539 . S
C1565 C1561 1.408 . S
C1565 C1564 1.404 . S
C1565 H1577 0.930 . S
C1566 C1562 1.524 . S
C1566 H1578 0.956 . S
C1566 H1579 0.961 . S
C1566 H1580 0.961 . S
C1567 C1564 1.539 . S
C1567 H1581 0.958 . S
C1567 H1582 0.961 . S
C1567 H1583 0.960 . S
H1568 C1552 0.931 . S
H1569 C1557 0.929 . S
H1570 C1558 0.960 . S
H1571 C1558 0.962 . S
H1572 C1558 0.960 . S
H1573 C1559 0.961 . S
H1574 C1559 0.961 . S
H1575 C1559 0.961 . S
H1576 C1560 0.931 . S
H1577 C1565 0.930 . S
H1578 C1566 0.956 . S
H1579 C1566 0.961 . S
H1580 C1566 0.961 . S
H1581 C1567 0.958 . S
H1582 C1567 0.961 . S
H1583 C1567 0.960 . S
C1584 C1585 1.391 . S
C1584 C1586 1.394 . S
C1584 H1600 0.931 . S
C1585 C1584 1.391 . S
C1585 C1589 1.376 . S
C1586 C1584 1.394 . S
C1586 C1587 1.369 . S
C1586 C1590 1.531 . S
C1587 C1586 1.369 . S
C1587 C1588 1.410 . S
C1587 C1595 1.503 . S
C1588 C1587 1.410 . S
C1588 C1589 1.392 . S
C1588 C1591 1.511 . S
C1589 C1585 1.376 . S
C1589 C1588 1.392 . S
C1589 H1601 0.929 . S
C1590 C1586 1.531 . S
C1590 H1602 0.960 . S
C1590 H1603 0.962 . S
C1590 H1604 0.960 . S
C1591 C1588 1.511 . S
C1591 H1605 0.961 . S
C1591 H1606 0.961 . S
C1591 H1607 0.961 . S
C1592 C1593 1.370 . S
C1592 C1594 1.363 . S
C1592 H1608 0.931 . S
C1593 C1592 1.370 . S
C1593 C1597 1.408 . S
C1594 C1592 1.363 . S
C1594 C1595 1.370 . S
C1594 C1598 1.524 . S
C1595 C1587 1.503 . S
C1595 C1594 1.370 . S
C1595 C1596 1.403 . S
C1596 C1595 1.403 . S
C1596 C1597 1.404 . S
C1596 C1599 1.539 . S
C1597 C1593 1.408 . S
C1597 C1596 1.404 . S
C1597 H1609 0.930 1_655 S
C1598 C1594 1.524 . S
C1598 H1610 0.956 . S
C1598 H1611 0.961 . S
C1598 H1612 0.961 . S
C1599 C1596 1.539 . S
C1599 H1613 0.958 . S
C1599 H1614 0.961 . S
C1599 H1615 0.960 . S
H1600 C1584 0.931 . S
H1601 C1589 0.929 . S
H1602 C1590 0.960 . S
H1603 C1590 0.962 . S
H1604 C1590 0.960 . S
H1605 C1591 0.961 . S
H1606 C1591 0.961 . S
H1607 C1591 0.961 . S
H1608 C1592 0.931 . S
H1609 C1597 0.930 1_455 S
H1610 C1598 0.956 . S
H1611 C1598 0.961 . S
H1612 C1598 0.961 . S
H1613 C1599 0.958 . S
H1614 C1599 0.961 . S
H1615 C1599 0.960 . S
C1616 C1617 1.391 . S
C1616 C1618 1.394 . S
C1616 H1632 0.931 . S
C1617 C1616 1.391 . S
C1617 C1621 1.376 . S
C1618 C1616 1.394 . S
C1618 C1619 1.369 . S
C1618 C1622 1.531 . S
C1619 C1618 1.369 . S
C1619 C1620 1.410 . S
C1619 C1627 1.503 . S
C1620 C1619 1.410 . S
C1620 C1621 1.392 . S
C1620 C1623 1.511 . S
C1621 C1617 1.376 . S
C1621 C1620 1.392 . S
C1621 H1633 0.929 . S
C1622 C1618 1.531 . S
C1622 H1634 0.960 . S
C1622 H1635 0.962 . S
C1622 H1636 0.960 . S
C1623 C1620 1.511 . S
C1623 H1637 0.961 . S
C1623 H1638 0.961 . S
C1623 H1639 0.961 . S
C1624 C1625 1.370 . S
C1624 C1626 1.363 . S
C1624 H1640 0.931 . S
C1625 C1624 1.370 . S
C1625 C1629 1.408 . S
C1626 C1624 1.363 . S
C1626 C1627 1.370 . S
C1626 C1630 1.524 . S
C1627 C1619 1.503 . S
C1627 C1626 1.370 . S
C1627 C1628 1.403 . S
C1628 C1627 1.403 . S
C1628 C1629 1.404 . S
C1628 C1631 1.539 . S
C1629 C1625 1.408 . S
C1629 C1628 1.404 . S
C1629 H1641 0.930 . S
C1630 C1626 1.524 . S
C1630 H1642 0.956 . S
C1630 H1643 0.961 . S
C1630 H1644 0.961 . S
C1631 C1628 1.539 . S
C1631 H1645 0.958 . S
C1631 H1646 0.961 . S
C1631 H1647 0.960 . S
H1632 C1616 0.931 . S
H1633 C1621 0.929 . S
H1634 C1622 0.960 . S
H1635 C1622 0.962 . S
H1636 C1622 0.960 . S
H1637 C1623 0.961 . S
H1638 C1623 0.961 . S
H1639 C1623 0.961 . S
H1640 C1624 0.931 . S
H1641 C1629 0.930 . S
H1642 C1630 0.956 . S
H1643 C1630 0.961 . S
H1644 C1630 0.961 . S
H1645 C1631 0.958 . S
H1646 C1631 0.961 . S
H1647 C1631 0.960 . S
C1648 C1649 1.391 . S
C1648 C1650 1.394 . S
C1648 H1664 0.931 . S
C1649 C1648 1.391 . S
C1649 C1653 1.376 . S
C1650 C1648 1.394 . S
C1650 C1651 1.369 . S
C1650 C1654 1.531 . S
C1651 C1650 1.369 . S
C1651 C1652 1.410 . S
C1651 C1659 1.503 . S
C1652 C1651 1.410 . S
C1652 C1653 1.392 . S
C1652 C1655 1.511 . S
C1653 C1649 1.376 . S
C1653 C1652 1.392 . S
C1653 H1665 0.929 . S
C1654 C1650 1.531 . S
C1654 H1666 0.960 . S
C1654 H1667 0.962 . S
C1654 H1668 0.960 . S
C1655 C1652 1.511 . S
C1655 H1669 0.961 . S
C1655 H1670 0.961 . S
C1655 H1671 0.961 . S
C1656 C1657 1.370 . S
C1656 C1658 1.363 . S
C1656 H1672 0.931 . S
C1657 C1656 1.370 . S
C1657 C1661 1.408 . S
C1658 C1656 1.363 . S
C1658 C1659 1.370 . S
C1658 C1662 1.524 . S
C1659 C1651 1.503 . S
C1659 C1658 1.370 . S
C1659 C1660 1.403 . S
C1660 C1659 1.403 . S
C1660 C1661 1.404 . S
C1660 C1663 1.539 . S
C1661 C1657 1.408 . S
C1661 C1660 1.404 . S
C1661 H1673 0.930 . S
C1662 C1658 1.524 . S
C1662 H1674 0.956 . S
C1662 H1675 0.961 . S
C1662 H1676 0.961 . S
C1663 C1660 1.539 . S
C1663 H1677 0.958 . S
C1663 H1678 0.961 . S
C1663 H1679 0.960 . S
H1664 C1648 0.931 . S
H1665 C1653 0.929 . S
H1666 C1654 0.960 . S
H1667 C1654 0.962 . S
H1668 C1654 0.960 . S
H1669 C1655 0.961 . S
H1670 C1655 0.961 . S
H1671 C1655 0.961 . S
H1672 C1656 0.931 . S
H1673 C1661 0.930 . S
H1674 C1662 0.956 . S
H1675 C1662 0.961 . S
H1676 C1662 0.961 . S
H1677 C1663 0.958 . S
H1678 C1663 0.961 . S
H1679 C1663 0.960 . S
C1680 C1681 1.391 . S
C1680 C1682 1.394 . S
C1680 H1696 0.931 . S
C1681 C1680 1.391 . S
C1681 C1685 1.376 . S
C1682 C1680 1.394 . S
C1682 C1683 1.369 . S
C1682 C1686 1.531 . S
C1683 C1682 1.369 . S
C1683 C1684 1.410 . S
C1683 C1691 1.503 . S
C1684 C1683 1.410 . S
C1684 C1685 1.392 . S
C1684 C1687 1.511 . S
C1685 C1681 1.376 . S
C1685 C1684 1.392 . S
C1685 H1697 0.929 . S
C1686 C1682 1.531 . S
C1686 H1698 0.960 . S
C1686 H1699 0.962 . S
C1686 H1700 0.960 . S
C1687 C1684 1.511 . S
C1687 H1701 0.961 . S
C1687 H1702 0.961 . S
C1687 H1703 0.961 . S
C1688 C1689 1.370 . S
C1688 C1690 1.363 . S
C1688 H1704 0.931 . S
C1689 C1688 1.370 . S
C1689 C1693 1.408 . S
C1690 C1688 1.363 . S
C1690 C1691 1.370 . S
C1690 C1694 1.524 . S
C1691 C1683 1.503 . S
C1691 C1690 1.370 . S
C1691 C1692 1.403 . S
C1692 C1691 1.403 . S
C1692 C1693 1.404 . S
C1692 C1695 1.539 . S
C1693 C1689 1.408 . S
C1693 C1692 1.404 . S
C1693 H1705 0.930 . S
C1694 C1690 1.524 . S
C1694 H1706 0.956 . S
C1694 H1707 0.961 . S
C1694 H1708 0.961 . S
C1695 C1692 1.539 . S
C1695 H1709 0.958 . S
C1695 H1710 0.961 . S
C1695 H1711 0.960 . S
H1696 C1680 0.931 . S
H1697 C1685 0.929 . S
H1698 C1686 0.960 . S
H1699 C1686 0.962 . S
H1700 C1686 0.960 . S
H1701 C1687 0.961 . S
H1702 C1687 0.961 . S
H1703 C1687 0.961 . S
H1704 C1688 0.931 . S
H1705 C1693 0.930 . S
H1706 C1694 0.956 . S
H1707 C1694 0.961 . S
H1708 C1694 0.961 . S
H1709 C1695 0.958 . S
H1710 C1695 0.961 . S
H1711 C1695 0.960 . S
C1712 C1713 1.391 . S
C1712 C1714 1.394 . S
C1712 H1728 0.931 . S
C1713 C1712 1.391 . S
C1713 C1717 1.376 . S
C1714 C1712 1.394 . S
C1714 C1715 1.369 . S
C1714 C1718 1.531 . S
C1715 C1714 1.369 . S
C1715 C1716 1.410 . S
C1715 C1723 1.503 . S
C1716 C1715 1.410 . S
C1716 C1717 1.392 . S
C1716 C1719 1.511 . S
C1717 C1713 1.376 . S
C1717 C1716 1.392 . S
C1717 H1729 0.929 . S
C1718 C1714 1.531 . S
C1718 H1730 0.960 . S
C1718 H1731 0.962 . S
C1718 H1732 0.960 . S
C1719 C1716 1.511 . S
C1719 H1733 0.961 . S
C1719 H1734 0.961 . S
C1719 H1735 0.961 . S
C1720 C1721 1.370 . S
C1720 C1722 1.363 . S
C1720 H1736 0.931 . S
C1721 C1720 1.370 . S
C1721 C1725 1.408 . S
C1722 C1720 1.363 . S
C1722 C1723 1.370 . S
C1722 C1726 1.524 . S
C1723 C1715 1.503 . S
C1723 C1722 1.370 . S
C1723 C1724 1.403 . S
C1724 C1723 1.403 . S
C1724 C1725 1.404 . S
C1724 C1727 1.539 . S
C1725 C1721 1.408 . S
C1725 C1724 1.404 . S
C1725 H1737 0.930 . S
C1726 C1722 1.524 . S
C1726 H1738 0.956 . S
C1726 H1739 0.961 . S
C1726 H1740 0.961 . S
C1727 C1724 1.539 . S
C1727 H1741 0.958 . S
C1727 H1742 0.961 . S
C1727 H1743 0.960 . S
H1728 C1712 0.931 . S
H1729 C1717 0.929 . S
H1730 C1718 0.960 . S
H1731 C1718 0.962 . S
H1732 C1718 0.960 . S
H1733 C1719 0.961 . S
H1734 C1719 0.961 . S
H1735 C1719 0.961 . S
H1736 C1720 0.931 . S
H1737 C1725 0.930 . S
H1738 C1726 0.956 . S
H1739 C1726 0.961 . S
H1740 C1726 0.961 . S
H1741 C1727 0.958 . S
H1742 C1727 0.961 . S
H1743 C1727 0.960 . S
C1744 C1745 1.391 . S
C1744 C1746 1.394 . S
C1744 H1760 0.931 . S
C1745 C1744 1.391 . S
C1745 C1749 1.376 . S
C1746 C1744 1.394 . S
C1746 C1747 1.369 . S
C1746 C1750 1.531 . S
C1747 C1746 1.369 . S
C1747 C1748 1.410 . S
C1747 C1755 1.503 . S
C1748 C1747 1.410 . S
C1748 C1749 1.392 . S
C1748 C1751 1.511 . S
C1749 C1745 1.376 . S
C1749 C1748 1.392 . S
C1749 H1761 0.929 . S
C1750 C1746 1.531 . S
C1750 H1762 0.960 . S
C1750 H1763 0.962 . S
C1750 H1764 0.960 . S
C1751 C1748 1.511 . S
C1751 H1765 0.961 . S
C1751 H1766 0.961 . S
C1751 H1767 0.961 . S
C1752 C1753 1.370 . S
C1752 C1754 1.363 . S
C1752 H1768 0.931 . S
C1753 C1752 1.370 . S
C1753 C1757 1.408 . S
C1754 C1752 1.363 . S
C1754 C1755 1.370 . S
C1754 C1758 1.524 . S
C1755 C1747 1.503 . S
C1755 C1754 1.370 . S
C1755 C1756 1.403 . S
C1756 C1755 1.403 . S
C1756 C1757 1.404 . S
C1756 C1759 1.539 . S
C1757 C1753 1.408 . S
C1757 C1756 1.404 . S
C1757 H1769 0.930 . S
C1758 C1754 1.524 . S
C1758 H1770 0.956 . S
C1758 H1771 0.961 . S
C1758 H1772 0.961 . S
C1759 C1756 1.539 . S
C1759 H1773 0.958 . S
C1759 H1774 0.961 . S
C1759 H1775 0.960 . S
H1760 C1744 0.931 . S
H1761 C1749 0.929 . S
H1762 C1750 0.960 . S
H1763 C1750 0.962 . S
H1764 C1750 0.960 . S
H1765 C1751 0.961 . S
H1766 C1751 0.961 . S
H1767 C1751 0.961 . S
H1768 C1752 0.931 . S
H1769 C1757 0.930 . S
H1770 C1758 0.956 . S
H1771 C1758 0.961 . S
H1772 C1758 0.961 . S
H1773 C1759 0.958 . S
H1774 C1759 0.961 . S
H1775 C1759 0.960 . S
C1776 C1777 1.391 . S
C1776 C1778 1.394 . S
C1776 H1792 0.931 . S
C1777 C1776 1.391 . S
C1777 C1781 1.376 . S
C1778 C1776 1.394 . S
C1778 C1779 1.369 . S
C1778 C1782 1.531 . S
C1779 C1778 1.369 . S
C1779 C1780 1.410 . S
C1779 C1787 1.503 . S
C1780 C1779 1.410 . S
C1780 C1781 1.392 . S
C1780 C1783 1.511 . S
C1781 C1777 1.376 . S
C1781 C1780 1.392 . S
C1781 H1793 0.929 . S
C1782 C1778 1.531 . S
C1782 H1794 0.960 . S
C1782 H1795 0.962 . S
C1782 H1796 0.960 . S
C1783 C1780 1.511 . S
C1783 H1797 0.961 . S
C1783 H1798 0.961 . S
C1783 H1799 0.961 . S
C1784 C1785 1.370 . S
C1784 C1786 1.363 . S
C1784 H1800 0.931 . S
C1785 C1784 1.370 . S
C1785 C1789 1.408 . S
C1786 C1784 1.363 . S
C1786 C1787 1.370 . S
C1786 C1790 1.524 . S
C1787 C1779 1.503 . S
C1787 C1786 1.370 . S
C1787 C1788 1.403 . S
C1788 C1787 1.403 . S
C1788 C1789 1.404 . S
C1788 C1791 1.539 . S
C1789 C1785 1.408 . S
C1789 C1788 1.404 . S
C1789 H1801 0.930 . S
C1790 C1786 1.524 . S
C1790 H1802 0.956 . S
C1790 H1803 0.961 . S
C1790 H1804 0.961 . S
C1791 C1788 1.539 . S
C1791 H1805 0.958 . S
C1791 H1806 0.961 . S
C1791 H1807 0.960 . S
H1792 C1776 0.931 . S
H1793 C1781 0.929 . S
H1794 C1782 0.960 . S
H1795 C1782 0.962 . S
H1796 C1782 0.960 . S
H1797 C1783 0.961 . S
H1798 C1783 0.961 . S
H1799 C1783 0.961 . S
H1800 C1784 0.931 . S
H1801 C1789 0.930 . S
H1802 C1790 0.956 . S
H1803 C1790 0.961 . S
H1804 C1790 0.961 . S
H1805 C1791 0.958 . S
H1806 C1791 0.961 . S
H1807 C1791 0.960 . S
C1808 C1809 1.391 . S
C1808 C1810 1.394 . S
C1808 H1824 0.931 . S
C1809 C1808 1.391 . S
C1809 C1813 1.376 . S
C1810 C1808 1.394 . S
C1810 C1811 1.369 . S
C1810 C1814 1.531 . S
C1811 C1810 1.369 . S
C1811 C1812 1.410 . S
C1811 C1819 1.503 . S
C1812 C1811 1.410 . S
C1812 C1813 1.392 . S
C1812 C1815 1.511 . S
C1813 C1809 1.376 . S
C1813 C1812 1.392 . S
C1813 H1825 0.929 . S
C1814 C1810 1.531 . S
C1814 H1826 0.960 . S
C1814 H1827 0.962 . S
C1814 H1828 0.960 . S
C1815 C1812 1.511 . S
C1815 H1829 0.961 . S
C1815 H1830 0.961 . S
C1815 H1831 0.961 . S
C1816 C1817 1.370 . S
C1816 C1818 1.363 . S
C1816 H1832 0.931 . S
C1817 C1816 1.370 . S
C1817 C1821 1.408 . S
C1818 C1816 1.363 . S
C1818 C1819 1.370 . S
C1818 C1822 1.524 . S
C1819 C1811 1.503 . S
C1819 C1818 1.370 . S
C1819 C1820 1.403 . S
C1820 C1819 1.403 . S
C1820 C1821 1.404 . S
C1820 C1823 1.539 . S
C1821 C1817 1.408 . S
C1821 C1820 1.404 . S
C1821 H1833 0.930 . S
C1822 C1818 1.524 . S
C1822 H1834 0.956 . S
C1822 H1835 0.961 . S
C1822 H1836 0.961 . S
C1823 C1820 1.539 . S
C1823 H1837 0.958 . S
C1823 H1838 0.961 . S
C1823 H1839 0.960 . S
H1824 C1808 0.931 . S
H1825 C1813 0.929 . S
H1826 C1814 0.960 . S
H1827 C1814 0.962 . S
H1828 C1814 0.960 . S
H1829 C1815 0.961 . S
H1830 C1815 0.961 . S
H1831 C1815 0.961 . S
H1832 C1816 0.931 . S
H1833 C1821 0.930 . S
H1834 C1822 0.956 . S
H1835 C1822 0.961 . S
H1836 C1822 0.961 . S
H1837 C1823 0.958 . S
H1838 C1823 0.961 . S
H1839 C1823 0.960 . S
C1840 C1841 1.391 . S
C1840 C1842 1.394 . S
C1840 H1856 0.931 . S
C1841 C1840 1.391 . S
C1841 C1845 1.376 . S
C1842 C1840 1.394 . S
C1842 C1843 1.369 . S
C1842 C1846 1.531 . S
C1843 C1842 1.369 . S
C1843 C1844 1.410 . S
C1843 C1851 1.503 . S
C1844 C1843 1.410 . S
C1844 C1845 1.392 . S
C1844 C1847 1.511 . S
C1845 C1841 1.376 . S
C1845 C1844 1.392 . S
C1845 H1857 0.929 . S
C1846 C1842 1.531 . S
C1846 H1858 0.960 . S
C1846 H1859 0.962 . S
C1846 H1860 0.960 . S
C1847 C1844 1.511 . S
C1847 H1861 0.961 . S
C1847 H1862 0.961 . S
C1847 H1863 0.961 . S
C1848 C1849 1.370 . S
C1848 C1850 1.363 . S
C1848 H1864 0.931 . S
C1849 C1848 1.370 . S
C1849 C1853 1.408 . S
C1850 C1848 1.363 . S
C1850 C1851 1.370 . S
C1850 C1854 1.524 . S
C1851 C1843 1.503 . S
C1851 C1850 1.370 . S
C1851 C1852 1.403 . S
C1852 C1851 1.403 . S
C1852 C1853 1.404 . S
C1852 C1855 1.539 . S
C1853 C1849 1.408 . S
C1853 C1852 1.404 . S
C1853 H1865 0.930 . S
C1854 C1850 1.524 . S
C1854 H1866 0.956 . S
C1854 H1867 0.961 . S
C1854 H1868 0.961 . S
C1855 C1852 1.539 . S
C1855 H1869 0.958 . S
C1855 H1870 0.961 . S
C1855 H1871 0.960 . S
H1856 C1840 0.931 . S
H1857 C1845 0.929 . S
H1858 C1846 0.960 . S
H1859 C1846 0.962 . S
H1860 C1846 0.960 . S
H1861 C1847 0.961 . S
H1862 C1847 0.961 . S
H1863 C1847 0.961 . S
H1864 C1848 0.931 . S
H1865 C1853 0.930 . S
H1866 C1854 0.956 . S
H1867 C1854 0.961 . S
H1868 C1854 0.961 . S
H1869 C1855 0.958 . S
H1870 C1855 0.961 . S
H1871 C1855 0.960 . S
C1872 C1873 1.391 . S
C1872 C1874 1.394 . S
C1872 H1888 0.931 . S
C1873 C1872 1.391 . S
C1873 C1877 1.376 . S
C1874 C1872 1.394 . S
C1874 C1875 1.369 . S
C1874 C1878 1.531 . S
C1875 C1874 1.369 . S
C1875 C1876 1.410 . S
C1875 C1883 1.503 . S
C1876 C1875 1.410 . S
C1876 C1877 1.392 . S
C1876 C1879 1.511 . S
C1877 C1873 1.376 . S
C1877 C1876 1.392 . S
C1877 H1889 0.929 . S
C1878 C1874 1.531 . S
C1878 H1890 0.960 . S
C1878 H1891 0.962 . S
C1878 H1892 0.960 . S
C1879 C1876 1.511 . S
C1879 H1893 0.961 . S
C1879 H1894 0.961 . S
C1879 H1895 0.961 1_455 S
C1880 C1881 1.370 . S
C1880 C1882 1.363 . S
C1880 H1896 0.931 . S
C1881 C1880 1.370 . S
C1881 C1885 1.408 . S
C1882 C1880 1.363 . S
C1882 C1883 1.370 . S
C1882 C1886 1.524 . S
C1883 C1875 1.503 . S
C1883 C1882 1.370 . S
C1883 C1884 1.403 . S
C1884 C1883 1.403 . S
C1884 C1885 1.404 . S
C1884 C1887 1.539 . S
C1885 C1881 1.408 . S
C1885 C1884 1.404 . S
C1885 H1897 0.930 . S
C1886 C1882 1.524 . S
C1886 H1898 0.956 . S
C1886 H1899 0.961 . S
C1886 H1900 0.961 . S
C1887 C1884 1.539 . S
C1887 H1901 0.958 . S
C1887 H1902 0.961 1_455 S
C1887 H1903 0.960 . S
H1888 C1872 0.931 . S
H1889 C1877 0.929 . S
H1890 C1878 0.960 . S
H1891 C1878 0.962 . S
H1892 C1878 0.960 . S
H1893 C1879 0.961 . S
H1894 C1879 0.961 . S
H1895 C1879 0.961 1_655 S
H1896 C1880 0.931 . S
H1897 C1885 0.930 . S
H1898 C1886 0.956 . S
H1899 C1886 0.961 . S
H1900 C1886 0.961 . S
H1901 C1887 0.958 . S
H1902 C1887 0.961 1_655 S
H1903 C1887 0.960 . S
C1904 C1905 1.391 . S
C1904 C1906 1.394 . S
C1904 H1920 0.931 . S
C1905 C1904 1.391 . S
C1905 C1909 1.376 . S
C1906 C1904 1.394 . S
C1906 C1907 1.369 . S
C1906 C1910 1.531 . S
C1907 C1906 1.369 . S
C1907 C1908 1.410 . S
C1907 C1915 1.503 . S
C1908 C1907 1.410 . S
C1908 C1909 1.392 . S
C1908 C1911 1.511 . S
C1909 C1905 1.376 . S
C1909 C1908 1.392 . S
C1909 H1921 0.929 . S
C1910 C1906 1.531 . S
C1910 H1922 0.960 . S
C1910 H1923 0.962 . S
C1910 H1924 0.960 . S
C1911 C1908 1.511 . S
C1911 H1925 0.961 . S
C1911 H1926 0.961 . S
C1911 H1927 0.961 . S
C1912 C1913 1.370 . S
C1912 C1914 1.363 . S
C1912 H1928 0.931 . S
C1913 C1912 1.370 . S
C1913 C1917 1.408 . S
C1914 C1912 1.363 . S
C1914 C1915 1.370 . S
C1914 C1918 1.524 . S
C1915 C1907 1.503 . S
C1915 C1914 1.370 . S
C1915 C1916 1.403 . S
C1916 C1915 1.403 . S
C1916 C1917 1.404 . S
C1916 C1919 1.539 . S
C1917 C1913 1.408 . S
C1917 C1916 1.404 . S
C1917 H1929 0.930 . S
C1918 C1914 1.524 . S
C1918 H1930 0.956 . S
C1918 H1931 0.961 . S
C1918 H1932 0.961 . S
C1919 C1916 1.539 . S
C1919 H1933 0.958 . S
C1919 H1934 0.961 . S
C1919 H1935 0.960 . S
H1920 C1904 0.931 . S
H1921 C1909 0.929 . S
H1922 C1910 0.960 . S
H1923 C1910 0.962 . S
H1924 C1910 0.960 . S
H1925 C1911 0.961 . S
H1926 C1911 0.961 . S
H1927 C1911 0.961 . S
H1928 C1912 0.931 . S
H1929 C1917 0.930 . S
H1930 C1918 0.956 . S
H1931 C1918 0.961 . S
H1932 C1918 0.961 . S
H1933 C1919 0.958 . S
H1934 C1919 0.961 . S
H1935 C1919 0.960 . S
C1936 C1937 1.391 . S
C1936 C1938 1.394 . S
C1936 H1952 0.931 . S
C1937 C1936 1.391 . S
C1937 C1941 1.376 . S
C1938 C1936 1.394 . S
C1938 C1939 1.369 . S
C1938 C1942 1.531 . S
C1939 C1938 1.369 . S
C1939 C1940 1.410 . S
C1939 C1947 1.503 . S
C1940 C1939 1.410 . S
C1940 C1941 1.392 . S
C1940 C1943 1.511 . S
C1941 C1937 1.376 . S
C1941 C1940 1.392 . S
C1941 H1953 0.929 . S
C1942 C1938 1.531 . S
C1942 H1954 0.960 . S
C1942 H1955 0.962 . S
C1942 H1956 0.960 . S
C1943 C1940 1.511 . S
C1943 H1957 0.961 . S
C1943 H1958 0.961 . S
C1943 H1959 0.961 . S
C1944 C1945 1.370 1_554 S
C1944 C1946 1.363 1_554 S
C1944 H1960 0.931 . S
C1945 C1944 1.370 1_556 S
C1945 C1949 1.408 . S
C1946 C1944 1.363 1_556 S
C1946 C1947 1.370 . S
C1946 C1950 1.524 1_556 S
C1947 C1939 1.503 . S
C1947 C1946 1.370 . S
C1947 C1948 1.403 . S
C1948 C1947 1.403 . S
C1948 C1949 1.404 . S
C1948 C1951 1.539 . S
C1949 C1945 1.408 . S
C1949 C1948 1.404 . S
C1949 H1961 0.930 . S
C1950 C1946 1.524 1_554 S
C1950 H1962 0.956 1_554 S
C1950 H1963 0.961 1_554 S
C1950 H1964 0.961 . S
C1951 C1948 1.539 . S
C1951 H1965 0.958 . S
C1951 H1966 0.961 . S
C1951 H1967 0.960 . S
H1952 C1936 0.931 . S
H1953 C1941 0.929 . S
H1954 C1942 0.960 . S
H1955 C1942 0.962 . S
H1956 C1942 0.960 . S
H1957 C1943 0.961 . S
H1958 C1943 0.961 . S
H1959 C1943 0.961 . S
H1960 C1944 0.931 . S
H1961 C1949 0.930 . S
H1962 C1950 0.956 1_556 S
H1963 C1950 0.961 1_556 S
H1964 C1950 0.961 . S
H1965 C1951 0.958 . S
H1966 C1951 0.961 . S
H1967 C1951 0.960 . S
C1968 C1969 1.391 . S
C1968 C1970 1.394 . S
C1968 H1984 0.931 . S
C1969 C1968 1.391 . S
C1969 C1973 1.376 . S
C1970 C1968 1.394 . S
C1970 C1971 1.369 . S
C1970 C1974 1.531 . S
C1971 C1970 1.369 . S
C1971 C1972 1.410 . S
C1971 C1979 1.503 . S
C1972 C1971 1.410 . S
C1972 C1973 1.392 . S
C1972 C1975 1.511 . S
C1973 C1969 1.376 . S
C1973 C1972 1.392 . S
C1973 H1985 0.929 . S
C1974 C1970 1.531 . S
C1974 H1986 0.960 . S
C1974 H1987 0.962 . S
C1974 H1988 0.960 . S
C1975 C1972 1.511 . S
C1975 H1989 0.961 . S
C1975 H1990 0.961 . S
C1975 H1991 0.961 . S
C1976 C1977 1.370 . S
C1976 C1978 1.363 . S
C1976 H1992 0.931 . S
C1977 C1976 1.370 . S
C1977 C1981 1.408 . S
C1978 C1976 1.363 . S
C1978 C1979 1.370 . S
C1978 C1982 1.524 . S
C1979 C1971 1.503 . S
C1979 C1978 1.370 . S
C1979 C1980 1.403 . S
C1980 C1979 1.403 . S
C1980 C1981 1.404 . S
C1980 C1983 1.539 . S
C1981 C1977 1.408 . S
C1981 C1980 1.404 . S
C1981 H1993 0.930 . S
C1982 C1978 1.524 . S
C1982 H1994 0.956 . S
C1982 H1995 0.961 . S
C1982 H1996 0.961 . S
C1983 C1980 1.539 . S
C1983 H1997 0.958 . S
C1983 H1998 0.961 . S
C1983 H1999 0.960 . S
H1984 C1968 0.931 . S
H1985 C1973 0.929 . S
H1986 C1974 0.960 . S
H1987 C1974 0.962 . S
H1988 C1974 0.960 . S
H1989 C1975 0.961 . S
H1990 C1975 0.961 . S
H1991 C1975 0.961 . S
H1992 C1976 0.931 . S
H1993 C1981 0.930 . S
H1994 C1982 0.956 . S
H1995 C1982 0.961 . S
H1996 C1982 0.961 . S
H1997 C1983 0.958 . S
H1998 C1983 0.961 . S
H1999 C1983 0.960 . S
C2000 C2001 1.391 . S
C2000 C2002 1.394 . S
C2000 H2016 0.931 . S
C2001 C2000 1.391 . S
C2001 C2005 1.376 . S
C2002 C2000 1.394 . S
C2002 C2003 1.369 . S
C2002 C2006 1.531 . S
C2003 C2002 1.369 . S
C2003 C2004 1.410 . S
C2003 C2011 1.503 . S
C2004 C2003 1.410 . S
C2004 C2005 1.392 . S
C2004 C2007 1.511 . S
C2005 C2001 1.376 . S
C2005 C2004 1.392 . S
C2005 H2017 0.929 . S
C2006 C2002 1.531 . S
C2006 H2018 0.960 . S
C2006 H2019 0.962 . S
C2006 H2020 0.960 . S
C2007 C2004 1.511 . S
C2007 H2021 0.961 . S
C2007 H2022 0.961 . S
C2007 H2023 0.961 . S
C2008 C2009 1.370 . S
C2008 C2010 1.363 . S
C2008 H2024 0.931 . S
C2009 C2008 1.370 . S
C2009 C2013 1.408 . S
C2010 C2008 1.363 . S
C2010 C2011 1.370 . S
C2010 C2014 1.524 . S
C2011 C2003 1.503 . S
C2011 C2010 1.370 . S
C2011 C2012 1.403 . S
C2012 C2011 1.403 . S
C2012 C2013 1.404 . S
C2012 C2015 1.539 . S
C2013 C2009 1.408 . S
C2013 C2012 1.404 . S
C2013 H2025 0.930 . S
C2014 C2010 1.524 . S
C2014 H2026 0.956 . S
C2014 H2027 0.961 . S
C2014 H2028 0.961 1_545 S
C2015 C2012 1.539 . S
C2015 H2029 0.958 . S
C2015 H2030 0.961 . S
C2015 H2031 0.960 . S
H2016 C2000 0.931 . S
H2017 C2005 0.929 . S
H2018 C2006 0.960 . S
H2019 C2006 0.962 . S
H2020 C2006 0.960 . S
H2021 C2007 0.961 . S
H2022 C2007 0.961 . S
H2023 C2007 0.961 . S
H2024 C2008 0.931 . S
H2025 C2013 0.930 . S
H2026 C2014 0.956 . S
H2027 C2014 0.961 . S
H2028 C2014 0.961 1_565 S
H2029 C2015 0.958 . S
H2030 C2015 0.961 . S
H2031 C2015 0.960 . S
C2032 C2033 1.391 . S
C2032 C2034 1.394 . S
C2032 H2048 0.931 . S
C2033 C2032 1.391 . S
C2033 C2037 1.376 . S
C2034 C2032 1.394 . S
C2034 C2035 1.369 . S
C2034 C2038 1.531 . S
C2035 C2034 1.369 . S
C2035 C2036 1.410 . S
C2035 C2043 1.503 . S
C2036 C2035 1.410 . S
C2036 C2037 1.392 . S
C2036 C2039 1.511 . S
C2037 C2033 1.376 . S
C2037 C2036 1.392 . S
C2037 H2049 0.929 . S
C2038 C2034 1.531 . S
C2038 H2050 0.960 . S
C2038 H2051 0.962 . S
C2038 H2052 0.960 . S
C2039 C2036 1.511 . S
C2039 H2053 0.961 . S
C2039 H2054 0.961 . S
C2039 H2055 0.961 . S
C2040 C2041 1.370 . S
C2040 C2042 1.363 . S
C2040 H2056 0.931 . S
C2041 C2040 1.370 . S
C2041 C2045 1.408 . S
C2042 C2040 1.363 . S
C2042 C2043 1.370 . S
C2042 C2046 1.524 . S
C2043 C2035 1.503 . S
C2043 C2042 1.370 . S
C2043 C2044 1.403 . S
C2044 C2043 1.403 . S
C2044 C2045 1.404 . S
C2044 C2047 1.539 . S
C2045 C2041 1.408 . S
C2045 C2044 1.404 . S
C2045 H2057 0.930 . S
C2046 C2042 1.524 . S
C2046 H2058 0.956 . S
C2046 H2059 0.961 . S
C2046 H2060 0.961 . S
C2047 C2044 1.539 . S
C2047 H2061 0.958 . S
C2047 H2062 0.961 . S
C2047 H2063 0.960 . S
H2048 C2032 0.931 . S
H2049 C2037 0.929 . S
H2050 C2038 0.960 . S
H2051 C2038 0.962 . S
H2052 C2038 0.960 . S
H2053 C2039 0.961 . S
H2054 C2039 0.961 . S
H2055 C2039 0.961 . S
H2056 C2040 0.931 . S
H2057 C2045 0.930 . S
H2058 C2046 0.956 . S
H2059 C2046 0.961 . S
H2060 C2046 0.961 . S
H2061 C2047 0.958 . S
H2062 C2047 0.961 . S
H2063 C2047 0.960 . S
C2064 C2065 1.391 . S
C2064 C2066 1.394 . S
C2064 H2080 0.931 . S
C2065 C2064 1.391 . S
C2065 C2069 1.376 . S
C2066 C2064 1.394 . S
C2066 C2067 1.369 . S
C2066 C2070 1.531 . S
C2067 C2066 1.369 . S
C2067 C2068 1.410 . S
C2067 C2075 1.503 . S
C2068 C2067 1.410 . S
C2068 C2069 1.392 . S
C2068 C2071 1.511 . S
C2069 C2065 1.376 . S
C2069 C2068 1.392 . S
C2069 H2081 0.929 . S
C2070 C2066 1.531 . S
C2070 H2082 0.960 . S
C2070 H2083 0.962 . S
C2070 H2084 0.960 . S
C2071 C2068 1.511 . S
C2071 H2085 0.961 . S
C2071 H2086 0.961 . S
C2071 H2087 0.961 . S
C2072 C2073 1.370 . S
C2072 C2074 1.363 . S
C2072 H2088 0.931 . S
C2073 C2072 1.370 . S
C2073 C2077 1.408 . S
C2074 C2072 1.363 . S
C2074 C2075 1.370 . S
C2074 C2078 1.524 . S
C2075 C2067 1.503 . S
C2075 C2074 1.370 . S
C2075 C2076 1.403 . S
C2076 C2075 1.403 . S
C2076 C2077 1.404 . S
C2076 C2079 1.539 . S
C2077 C2073 1.408 . S
C2077 C2076 1.404 . S
C2077 H2089 0.930 . S
C2078 C2074 1.524 . S
C2078 H2090 0.956 . S
C2078 H2091 0.961 . S
C2078 H2092 0.961 . S
C2079 C2076 1.539 . S
C2079 H2093 0.958 1_545 S
C2079 H2094 0.961 1_545 S
C2079 H2095 0.960 . S
H2080 C2064 0.931 . S
H2081 C2069 0.929 . S
H2082 C2070 0.960 . S
H2083 C2070 0.962 . S
H2084 C2070 0.960 . S
H2085 C2071 0.961 . S
H2086 C2071 0.961 . S
H2087 C2071 0.961 . S
H2088 C2072 0.931 . S
H2089 C2077 0.930 . S
H2090 C2078 0.956 . S
H2091 C2078 0.961 . S
H2092 C2078 0.961 . S
H2093 C2079 0.958 1_565 S
H2094 C2079 0.961 1_565 S
H2095 C2079 0.960 . S
C2096 C2097 1.391 . S
C2096 C2098 1.394 . S
C2096 H2112 0.931 . S
C2097 C2096 1.391 . S
C2097 C2101 1.376 . S
C2098 C2096 1.394 . S
C2098 C2099 1.369 . S
C2098 C2102 1.531 . S
C2099 C2098 1.369 . S
C2099 C2100 1.410 . S
C2099 C2107 1.503 . S
C2100 C2099 1.410 . S
C2100 C2101 1.392 . S
C2100 C2103 1.511 . S
C2101 C2097 1.376 . S
C2101 C2100 1.392 . S
C2101 H2113 0.929 . S
C2102 C2098 1.531 . S
C2102 H2114 0.960 . S
C2102 H2115 0.962 . S
C2102 H2116 0.960 . S
C2103 C2100 1.511 . S
C2103 H2117 0.961 . S
C2103 H2118 0.961 . S
C2103 H2119 0.961 . S
C2104 C2105 1.370 . S
C2104 C2106 1.363 . S
C2104 H2120 0.931 . S
C2105 C2104 1.370 . S
C2105 C2109 1.408 . S
C2106 C2104 1.363 . S
C2106 C2107 1.370 . S
C2106 C2110 1.524 . S
C2107 C2099 1.503 . S
C2107 C2106 1.370 . S
C2107 C2108 1.403 . S
C2108 C2107 1.403 . S
C2108 C2109 1.404 . S
C2108 C2111 1.539 . S
C2109 C2105 1.408 . S
C2109 C2108 1.404 . S
C2109 H2121 0.930 . S
C2110 C2106 1.524 . S
C2110 H2122 0.956 . S
C2110 H2123 0.961 . S
C2110 H2124 0.961 . S
C2111 C2108 1.539 . S
C2111 H2125 0.958 . S
C2111 H2126 0.961 . S
C2111 H2127 0.960 . S
H2112 C2096 0.931 . S
H2113 C2101 0.929 . S
H2114 C2102 0.960 . S
H2115 C2102 0.962 . S
H2116 C2102 0.960 . S
H2117 C2103 0.961 . S
H2118 C2103 0.961 . S
H2119 C2103 0.961 . S
H2120 C2104 0.931 . S
H2121 C2109 0.930 . S
H2122 C2110 0.956 . S
H2123 C2110 0.961 . S
H2124 C2110 0.961 . S
H2125 C2111 0.958 . S
H2126 C2111 0.961 . S
H2127 C2111 0.960 . S
C2128 C2129 1.391 . S
C2128 C2130 1.394 . S
C2128 H2144 0.931 . S
C2129 C2128 1.391 . S
C2129 C2133 1.376 . S
C2130 C2128 1.394 . S
C2130 C2131 1.369 . S
C2130 C2134 1.531 . S
C2131 C2130 1.369 . S
C2131 C2132 1.410 . S
C2131 C2139 1.503 . S
C2132 C2131 1.410 . S
C2132 C2133 1.392 . S
C2132 C2135 1.511 . S
C2133 C2129 1.376 . S
C2133 C2132 1.392 . S
C2133 H2145 0.929 . S
C2134 C2130 1.531 . S
C2134 H2146 0.960 . S
C2134 H2147 0.962 . S
C2134 H2148 0.960 . S
C2135 C2132 1.511 . S
C2135 H2149 0.961 . S
C2135 H2150 0.961 . S
C2135 H2151 0.961 . S
C2136 C2137 1.370 . S
C2136 C2138 1.363 . S
C2136 H2152 0.931 . S
C2137 C2136 1.370 . S
C2137 C2141 1.408 . S
C2138 C2136 1.363 . S
C2138 C2139 1.370 . S
C2138 C2142 1.524 . S
C2139 C2131 1.503 . S
C2139 C2138 1.370 . S
C2139 C2140 1.403 . S
C2140 C2139 1.403 . S
C2140 C2141 1.404 . S
C2140 C2143 1.539 . S
C2141 C2137 1.408 . S
C2141 C2140 1.404 . S
C2141 H2153 0.930 . S
C2142 C2138 1.524 . S
C2142 H2154 0.956 . S
C2142 H2155 0.961 . S
C2142 H2156 0.961 . S
C2143 C2140 1.539 . S
C2143 H2157 0.958 . S
C2143 H2158 0.961 . S
C2143 H2159 0.960 . S
H2144 C2128 0.931 . S
H2145 C2133 0.929 . S
H2146 C2134 0.960 . S
H2147 C2134 0.962 . S
H2148 C2134 0.960 . S
H2149 C2135 0.961 . S
H2150 C2135 0.961 . S
H2151 C2135 0.961 . S
H2152 C2136 0.931 . S
H2153 C2141 0.930 . S
H2154 C2142 0.956 . S
H2155 C2142 0.961 . S
H2156 C2142 0.961 . S
H2157 C2143 0.958 . S
H2158 C2143 0.961 . S
H2159 C2143 0.960 . S
C2160 C2161 1.391 . S
C2160 C2162 1.394 . S
C2160 H2176 0.931 . S
C2161 C2160 1.391 . S
C2161 C2165 1.376 . S
C2162 C2160 1.394 . S
C2162 C2163 1.369 . S
C2162 C2166 1.531 . S
C2163 C2162 1.369 . S
C2163 C2164 1.410 . S
C2163 C2171 1.503 . S
C2164 C2163 1.410 . S
C2164 C2165 1.392 . S
C2164 C2167 1.511 . S
C2165 C2161 1.376 . S
C2165 C2164 1.392 . S
C2165 H2177 0.929 . S
C2166 C2162 1.531 . S
C2166 H2178 0.960 . S
C2166 H2179 0.962 . S
C2166 H2180 0.960 . S
C2167 C2164 1.511 . S
C2167 H2181 0.961 . S
C2167 H2182 0.961 . S
C2167 H2183 0.961 . S
C2168 C2169 1.370 . S
C2168 C2170 1.363 . S
C2168 H2184 0.931 . S
C2169 C2168 1.370 . S
C2169 C2173 1.408 . S
C2170 C2168 1.363 . S
C2170 C2171 1.370 . S
C2170 C2174 1.524 . S
C2171 C2163 1.503 . S
C2171 C2170 1.370 . S
C2171 C2172 1.403 . S
C2172 C2171 1.403 . S
C2172 C2173 1.404 . S
C2172 C2175 1.539 . S
C2173 C2169 1.408 . S
C2173 C2172 1.404 . S
C2173 H2185 0.930 . S
C2174 C2170 1.524 . S
C2174 H2186 0.956 . S
C2174 H2187 0.961 . S
C2174 H2188 0.961 . S
C2175 C2172 1.539 . S
C2175 H2189 0.958 . S
C2175 H2190 0.961 . S
C2175 H2191 0.960 . S
H2176 C2160 0.931 . S
H2177 C2165 0.929 . S
H2178 C2166 0.960 . S
H2179 C2166 0.962 . S
H2180 C2166 0.960 . S
H2181 C2167 0.961 . S
H2182 C2167 0.961 . S
H2183 C2167 0.961 . S
H2184 C2168 0.931 . S
H2185 C2173 0.930 . S
H2186 C2174 0.956 . S
H2187 C2174 0.961 . S
H2188 C2174 0.961 . S
H2189 C2175 0.958 . S
H2190 C2175 0.961 . S
H2191 C2175 0.960 . S
C2192 C2193 1.391 . S
C2192 C2194 1.394 . S
C2192 H2208 0.931 . S
C2193 C2192 1.391 . S
C2193 C2197 1.376 . S
C2194 C2192 1.394 . S
C2194 C2195 1.369 . S
C2194 C2198 1.531 . S
C2195 C2194 1.369 . S
C2195 C2196 1.410 . S
C2195 C2203 1.503 . S
C2196 C2195 1.410 . S
C2196 C2197 1.392 . S
C2196 C2199 1.511 . S
C2197 C2193 1.376 . S
C2197 C2196 1.392 . S
C2197 H2209 0.929 . S
C2198 C2194 1.531 . S
C2198 H2210 0.960 1_545 S
C2198 H2211 0.962 1_545 S
C2198 H2212 0.960 1_545 S
C2199 C2196 1.511 . S
C2199 H2213 0.961 . S
C2199 H2214 0.961 . S
C2199 H2215 0.961 . S
C2200 C2201 1.370 . S
C2200 C2202 1.363 . S
C2200 H2216 0.931 . S
C2201 C2200 1.370 . S
C2201 C2205 1.408 . S
C2202 C2200 1.363 . S
C2202 C2203 1.370 . S
C2202 C2206 1.524 . S
C2203 C2195 1.503 . S
C2203 C2202 1.370 . S
C2203 C2204 1.403 . S
C2204 C2203 1.403 . S
C2204 C2205 1.404 . S
C2204 C2207 1.539 . S
C2205 C2201 1.408 . S
C2205 C2204 1.404 . S
C2205 H2217 0.930 . S
C2206 C2202 1.524 . S
C2206 H2218 0.956 . S
C2206 H2219 0.961 . S
C2206 H2220 0.961 . S
C2207 C2204 1.539 . S
C2207 H2221 0.958 . S
C2207 H2222 0.961 . S
C2207 H2223 0.960 . S
H2208 C2192 0.931 . S
H2209 C2197 0.929 . S
H2210 C2198 0.960 1_565 S
H2211 C2198 0.962 1_565 S
H2212 C2198 0.960 1_565 S
H2213 C2199 0.961 . S
H2214 C2199 0.961 . S
H2215 C2199 0.961 . S
H2216 C2200 0.931 . S
H2217 C2205 0.930 . S
H2218 C2206 0.956 . S
H2219 C2206 0.961 . S
H2220 C2206 0.961 . S
H2221 C2207 0.958 . S
H2222 C2207 0.961 . S
H2223 C2207 0.960 . S
C2224 C2225 1.391 . S
C2224 C2226 1.394 . S
C2224 H2240 0.931 . S
C2225 C2224 1.391 . S
C2225 C2229 1.376 . S
C2226 C2224 1.394 . S
C2226 C2227 1.369 . S
C2226 C2230 1.531 . S
C2227 C2226 1.369 . S
C2227 C2228 1.410 . S
C2227 C2235 1.503 . S
C2228 C2227 1.410 . S
C2228 C2229 1.392 . S
C2228 C2231 1.511 . S
C2229 C2225 1.376 . S
C2229 C2228 1.392 . S
C2229 H2241 0.929 . S
C2230 C2226 1.531 . S
C2230 H2242 0.960 . S
C2230 H2243 0.962 . S
C2230 H2244 0.960 . S
C2231 C2228 1.511 . S
C2231 H2245 0.961 . S
C2231 H2246 0.961 . S
C2231 H2247 0.961 . S
C2232 C2233 1.370 . S
C2232 C2234 1.363 . S
C2232 H2248 0.931 . S
C2233 C2232 1.370 . S
C2233 C2237 1.408 . S
C2234 C2232 1.363 . S
C2234 C2235 1.370 . S
C2234 C2238 1.524 . S
C2235 C2227 1.503 . S
C2235 C2234 1.370 . S
C2235 C2236 1.403 . S
C2236 C2235 1.403 . S
C2236 C2237 1.404 . S
C2236 C2239 1.539 . S
C2237 C2233 1.408 . S
C2237 C2236 1.404 . S
C2237 H2249 0.930 . S
C2238 C2234 1.524 . S
C2238 H2250 0.956 . S
C2238 H2251 0.961 . S
C2238 H2252 0.961 . S
C2239 C2236 1.539 . S
C2239 H2253 0.958 . S
C2239 H2254 0.961 . S
C2239 H2255 0.960 . S
H2240 C2224 0.931 . S
H2241 C2229 0.929 . S
H2242 C2230 0.960 . S
H2243 C2230 0.962 . S
H2244 C2230 0.960 . S
H2245 C2231 0.961 . S
H2246 C2231 0.961 . S
H2247 C2231 0.961 . S
H2248 C2232 0.931 . S
H2249 C2237 0.930 . S
H2250 C2238 0.956 . S
H2251 C2238 0.961 . S
H2252 C2238 0.961 . S
H2253 C2239 0.958 . S
H2254 C2239 0.961 . S
H2255 C2239 0.960 . S
C2256 C2257 1.391 . S
C2256 C2258 1.394 . S
C2256 H2272 0.931 . S
C2257 C2256 1.391 . S
C2257 C2261 1.376 1_556 S
C2258 C2256 1.394 . S
C2258 C2259 1.369 . S
C2258 C2262 1.531 . S
C2259 C2258 1.369 . S
C2259 C2260 1.431 . S
C2259 C2267 1.503 . S
C2260 C2259 1.431 . S
C2260 C2261 1.378 1_556 S
C2260 C2263 1.505 1_556 S
C2261 C2257 1.376 1_554 S
C2261 C2260 1.378 1_554 S
C2261 H2273 0.929 . S
C2262 C2258 1.531 . S
C2262 H2274 0.960 . S
C2262 H2275 0.962 . S
C2262 H2276 0.960 . S
C2263 C2260 1.505 1_554 S
C2263 H2277 0.961 . S
C2263 H2278 0.961 . S
C2263 H2279 0.961 1_554 S
C2264 C2265 1.370 . S
C2264 C2266 1.363 . S
C2264 H2280 0.931 1_556 S
C2265 C2264 1.370 . S
C2265 C2269 1.408 . S
C2266 C2264 1.363 . S
C2266 C2267 1.370 . S
C2266 C2270 1.524 1_556 S
C2267 C2259 1.503 . S
C2267 C2266 1.370 . S
C2267 C2268 1.403 . S
C2268 C2267 1.403 . S
C2268 C2269 1.404 . S
C2268 C2271 1.539 . S
C2269 C2265 1.408 . S
C2269 C2268 1.404 . S
C2269 H2281 0.930 . S
C2270 C2266 1.524 1_554 S
C2270 H2282 0.956 . S
C2270 H2283 0.961 . S
C2270 H2284 0.961 . S
C2271 C2268 1.539 . S
C2271 H2285 0.958 . S
C2271 H2286 0.961 . S
C2271 H2287 0.960 . S
H2272 C2256 0.931 . S
H2273 C2261 0.929 . S
H2274 C2262 0.960 . S
H2275 C2262 0.962 . S
H2276 C2262 0.960 . S
H2277 C2263 0.961 . S
H2278 C2263 0.961 . S
H2279 C2263 0.961 1_556 S
H2280 C2264 0.931 1_554 S
H2281 C2269 0.930 . S
H2282 C2270 0.956 . S
H2283 C2270 0.961 . S
H2284 C2270 0.961 . S
H2285 C2271 0.958 . S
H2286 C2271 0.961 . S
H2287 C2271 0.960 . S
C2288 C2289 1.391 . S
C2288 C2290 1.394 . S
C2288 H2304 0.931 . S
C2289 C2288 1.391 . S
C2289 C2293 1.376 . S
C2290 C2288 1.394 . S
C2290 C2291 1.369 . S
C2290 C2294 1.531 1_554 S
C2291 C2290 1.369 . S
C2291 C2292 1.410 . S
C2291 C2299 1.503 . S
C2292 C2291 1.410 . S
C2292 C2293 1.392 . S
C2292 C2295 1.511 . S
C2293 C2289 1.376 . S
C2293 C2292 1.392 . S
C2293 H2305 0.929 . S
C2294 C2290 1.531 1_556 S
C2294 H2306 0.960 . S
C2294 H2307 0.962 1_556 S
C2294 H2308 0.960 . S
C2295 C2292 1.511 . S
C2295 H2309 0.961 . S
C2295 H2310 0.961 . S
C2295 H2311 0.961 . S
C2296 C2297 1.370 . S
C2296 C2298 1.363 . S
C2296 H2312 0.931 . S
C2297 C2296 1.370 . S
C2297 C2301 1.408 . S
C2298 C2296 1.363 . S
C2298 C2299 1.370 . S
C2298 C2302 1.524 . S
C2299 C2291 1.503 . S
C2299 C2298 1.370 . S
C2299 C2300 1.403 . S
C2300 C2299 1.403 . S
C2300 C2301 1.404 . S
C2300 C2303 1.539 1_554 S
C2301 C2297 1.408 . S
C2301 C2300 1.404 . S
C2301 H2313 0.930 . S
C2302 C2298 1.524 . S
C2302 H2314 0.956 . S
C2302 H2315 0.961 . S
C2302 H2316 0.961 . S
C2303 C2300 1.539 1_556 S
C2303 H2317 0.958 . S
C2303 H2318 0.961 . S
C2303 H2319 0.960 1_556 S
H2304 C2288 0.931 . S
H2305 C2293 0.929 . S
H2306 C2294 0.960 . S
H2307 C2294 0.962 1_554 S
H2308 C2294 0.960 . S
H2309 C2295 0.961 . S
H2310 C2295 0.961 . S
H2311 C2295 0.961 . S
H2312 C2296 0.931 . S
H2313 C2301 0.930 . S
H2314 C2302 0.956 . S
H2315 C2302 0.961 . S
H2316 C2302 0.961 . S
H2317 C2303 0.958 . S
H2318 C2303 0.961 . S
H2319 C2303 0.960 1_554 S
C2320 C2321 1.391 . S
C2320 C2322 1.394 . S
C2320 H2336 0.931 . S
C2321 C2320 1.391 . S
C2321 C2325 1.376 . S
C2322 C2320 1.394 . S
C2322 C2323 1.369 . S
C2322 C2326 1.531 . S
C2323 C2322 1.369 . S
C2323 C2324 1.410 . S
C2323 C2331 1.503 . S
C2324 C2323 1.410 . S
C2324 C2325 1.392 . S
C2324 C2327 1.511 . S
C2325 C2321 1.376 . S
C2325 C2324 1.392 . S
C2325 H2337 0.929 . S
C2326 C2322 1.531 . S
C2326 H2338 0.960 . S
C2326 H2339 0.962 . S
C2326 H2340 0.960 . S
C2327 C2324 1.511 . S
C2327 H2341 0.961 . S
C2327 H2342 0.961 . S
C2327 H2343 0.961 . S
C2328 C2329 1.370 . S
C2328 C2330 1.363 . S
C2328 H2344 0.931 . S
C2329 C2328 1.370 . S
C2329 C2333 1.408 . S
C2330 C2328 1.363 . S
C2330 C2331 1.370 . S
C2330 C2334 1.524 . S
C2331 C2323 1.503 . S
C2331 C2330 1.370 . S
C2331 C2332 1.403 . S
C2332 C2331 1.403 . S
C2332 C2333 1.404 . S
C2332 C2335 1.539 . S
C2333 C2329 1.408 . S
C2333 C2332 1.404 . S
C2333 H2345 0.930 . S
C2334 C2330 1.524 . S
C2334 H2346 0.956 . S
C2334 H2347 0.961 . S
C2334 H2348 0.961 . S
C2335 C2332 1.539 . S
C2335 H2349 0.958 . S
C2335 H2350 0.961 . S
C2335 H2351 0.960 . S
H2336 C2320 0.931 . S
H2337 C2325 0.929 . S
H2338 C2326 0.960 . S
H2339 C2326 0.962 . S
H2340 C2326 0.960 . S
H2341 C2327 0.961 . S
H2342 C2327 0.961 . S
H2343 C2327 0.961 . S
H2344 C2328 0.931 . S
H2345 C2333 0.930 . S
H2346 C2334 0.956 . S
H2347 C2334 0.961 . S
H2348 C2334 0.961 . S
H2349 C2335 0.958 . S
H2350 C2335 0.961 . S
H2351 C2335 0.960 . S
C2352 C2353 1.391 . S
C2352 C2354 1.394 . S
C2352 H2368 0.931 . S
C2353 C2352 1.391 . S
C2353 C2357 1.376 . S
C2354 C2352 1.394 . S
C2354 C2355 1.369 . S
C2354 C2358 1.531 . S
C2355 C2354 1.369 . S
C2355 C2356 1.410 . S
C2355 C2363 1.503 . S
C2356 C2355 1.410 . S
C2356 C2357 1.392 . S
C2356 C2359 1.511 . S
C2357 C2353 1.376 . S
C2357 C2356 1.392 . S
C2357 H2369 0.929 . S
C2358 C2354 1.531 . S
C2358 H2370 0.960 . S
C2358 H2371 0.962 . S
C2358 H2372 0.960 . S
C2359 C2356 1.511 . S
C2359 H2373 0.961 . S
C2359 H2374 0.961 . S
C2359 H2375 0.961 . S
C2360 C2361 1.370 . S
C2360 C2362 1.363 . S
C2360 H2376 0.931 . S
C2361 C2360 1.370 . S
C2361 C2365 1.408 . S
C2362 C2360 1.363 . S
C2362 C2363 1.370 . S
C2362 C2366 1.524 . S
C2363 C2355 1.503 . S
C2363 C2362 1.370 . S
C2363 C2364 1.403 . S
C2364 C2363 1.403 . S
C2364 C2365 1.404 . S
C2364 C2367 1.539 . S
C2365 C2361 1.408 . S
C2365 C2364 1.404 . S
C2365 H2377 0.930 . S
C2366 C2362 1.524 . S
C2366 H2378 0.956 . S
C2366 H2379 0.961 . S
C2366 H2380 0.961 . S
C2367 C2364 1.539 . S
C2367 H2381 0.958 . S
C2367 H2382 0.961 . S
C2367 H2383 0.960 . S
H2368 C2352 0.931 . S
H2369 C2357 0.929 . S
H2370 C2358 0.960 . S
H2371 C2358 0.962 . S
H2372 C2358 0.960 . S
H2373 C2359 0.961 . S
H2374 C2359 0.961 . S
H2375 C2359 0.961 . S
H2376 C2360 0.931 . S
H2377 C2365 0.930 . S
H2378 C2366 0.956 . S
H2379 C2366 0.961 . S
H2380 C2366 0.961 . S
H2381 C2367 0.958 . S
H2382 C2367 0.961 . S
H2383 C2367 0.960 . S
C2384 C2385 1.391 . S
C2384 C2386 1.394 . S
C2384 H2400 0.931 . S
C2385 C2384 1.391 . S
C2385 C2389 1.376 . S
C2386 C2384 1.394 . S
C2386 C2387 1.369 . S
C2386 C2390 1.531 . S
C2387 C2386 1.369 . S
C2387 C2388 1.410 . S
C2387 C2395 1.503 . S
C2388 C2387 1.410 . S
C2388 C2389 1.392 . S
C2388 C2391 1.511 . S
C2389 C2385 1.376 . S
C2389 C2388 1.392 . S
C2389 H2401 0.929 . S
C2390 C2386 1.531 . S
C2390 H2402 0.960 . S
C2390 H2403 0.962 . S
C2390 H2404 0.960 . S
C2391 C2388 1.511 . S
C2391 H2405 0.961 . S
C2391 H2406 0.961 . S
C2391 H2407 0.961 . S
C2392 C2393 1.370 . S
C2392 C2394 1.363 . S
C2392 H2408 0.931 . S
C2393 C2392 1.370 . S
C2393 C2397 1.408 . S
C2394 C2392 1.363 . S
C2394 C2395 1.370 . S
C2394 C2398 1.524 . S
C2395 C2387 1.503 . S
C2395 C2394 1.370 . S
C2395 C2396 1.403 . S
C2396 C2395 1.403 . S
C2396 C2397 1.404 . S
C2396 C2399 1.539 . S
C2397 C2393 1.408 . S
C2397 C2396 1.404 . S
C2397 H2409 0.930 . S
C2398 C2394 1.524 . S
C2398 H2410 0.956 . S
C2398 H2411 0.961 . S
C2398 H2412 0.961 . S
C2399 C2396 1.539 . S
C2399 H2413 0.958 . S
C2399 H2414 0.961 . S
C2399 H2415 0.960 . S
H2400 C2384 0.931 . S
H2401 C2389 0.929 . S
H2402 C2390 0.960 . S
H2403 C2390 0.962 . S
H2404 C2390 0.960 . S
H2405 C2391 0.961 . S
H2406 C2391 0.961 . S
H2407 C2391 0.961 . S
H2408 C2392 0.931 . S
H2409 C2397 0.930 . S
H2410 C2398 0.956 . S
H2411 C2398 0.961 . S
H2412 C2398 0.961 . S
H2413 C2399 0.958 . S
H2414 C2399 0.961 . S
H2415 C2399 0.960 . S
C2416 C2417 1.391 . S
C2416 C2418 1.394 . S
C2416 H2432 0.931 . S
C2417 C2416 1.391 . S
C2417 C2421 1.376 . S
C2418 C2416 1.394 . S
C2418 C2419 1.369 . S
C2418 C2422 1.531 . S
C2419 C2418 1.369 . S
C2419 C2420 1.410 . S
C2419 C2427 1.503 . S
C2420 C2419 1.410 . S
C2420 C2421 1.392 . S
C2420 C2423 1.511 . S
C2421 C2417 1.376 . S
C2421 C2420 1.392 . S
C2421 H2433 0.929 . S
C2422 C2418 1.531 . S
C2422 H2434 0.960 . S
C2422 H2435 0.962 . S
C2422 H2436 0.960 . S
C2423 C2420 1.511 . S
C2423 H2437 0.961 . S
C2423 H2438 0.961 . S
C2423 H2439 0.961 . S
C2424 C2425 1.370 . S
C2424 C2426 1.363 . S
C2424 H2440 0.931 1_565 S
C2425 C2424 1.370 . S
C2425 C2429 1.408 . S
C2426 C2424 1.363 . S
C2426 C2427 1.370 . S
C2426 C2430 1.524 . S
C2427 C2419 1.503 . S
C2427 C2426 1.370 . S
C2427 C2428 1.403 . S
C2428 C2427 1.403 . S
C2428 C2429 1.404 . S
C2428 C2431 1.539 . S
C2429 C2425 1.408 . S
C2429 C2428 1.404 . S
C2429 H2441 0.930 . S
C2430 C2426 1.524 . S
C2430 H2442 0.956 . S
C2430 H2443 0.961 . S
C2430 H2444 0.961 1_565 S
C2431 C2428 1.539 . S
C2431 H2445 0.958 . S
C2431 H2446 0.961 . S
C2431 H2447 0.960 . S
H2432 C2416 0.931 . S
H2433 C2421 0.929 . S
H2434 C2422 0.960 . S
H2435 C2422 0.962 . S
H2436 C2422 0.960 . S
H2437 C2423 0.961 . S
H2438 C2423 0.961 . S
H2439 C2423 0.961 . S
H2440 C2424 0.931 1_545 S
H2441 C2429 0.930 . S
H2442 C2430 0.956 . S
H2443 C2430 0.961 . S
H2444 C2430 0.961 1_545 S
H2445 C2431 0.958 . S
H2446 C2431 0.961 . S
H2447 C2431 0.960 . S
C2448 C2449 1.391 . S
C2448 C2450 1.394 . S
C2448 H2464 0.931 . S
C2449 C2448 1.391 . S
C2449 C2453 1.376 . S
C2450 C2448 1.394 . S
C2450 C2451 1.369 . S
C2450 C2454 1.531 . S
C2451 C2450 1.369 . S
C2451 C2452 1.410 . S
C2451 C2459 1.503 . S
C2452 C2451 1.410 . S
C2452 C2453 1.392 . S
C2452 C2455 1.511 . S
C2453 C2449 1.376 . S
C2453 C2452 1.392 . S
C2453 H2465 0.929 . S
C2454 C2450 1.531 . S
C2454 H2466 0.960 . S
C2454 H2467 0.962 . S
C2454 H2468 0.960 . S
C2455 C2452 1.511 . S
C2455 H2469 0.961 . S
C2455 H2470 0.961 . S
C2455 H2471 0.961 . S
C2456 C2457 1.370 . S
C2456 C2458 1.363 . S
C2456 H2472 0.931 . S
C2457 C2456 1.370 . S
C2457 C2461 1.408 . S
C2458 C2456 1.363 . S
C2458 C2459 1.370 . S
C2458 C2462 1.524 . S
C2459 C2451 1.503 . S
C2459 C2458 1.370 . S
C2459 C2460 1.403 . S
C2460 C2459 1.403 . S
C2460 C2461 1.404 . S
C2460 C2463 1.539 . S
C2461 C2457 1.408 . S
C2461 C2460 1.404 . S
C2461 H2473 0.930 . S
C2462 C2458 1.524 . S
C2462 H2474 0.956 . S
C2462 H2475 0.961 . S
C2462 H2476 0.961 . S
C2463 C2460 1.539 . S
C2463 H2477 0.958 . S
C2463 H2478 0.961 . S
C2463 H2479 0.960 . S
H2464 C2448 0.931 . S
H2465 C2453 0.929 . S
H2466 C2454 0.960 . S
H2467 C2454 0.962 . S
H2468 C2454 0.960 . S
H2469 C2455 0.961 . S
H2470 C2455 0.961 . S
H2471 C2455 0.961 . S
H2472 C2456 0.931 . S
H2473 C2461 0.930 . S
H2474 C2462 0.956 . S
H2475 C2462 0.961 . S
H2476 C2462 0.961 . S
H2477 C2463 0.958 . S
H2478 C2463 0.961 . S
H2479 C2463 0.960 . S
C2480 C2481 1.391 . S
C2480 C2482 1.394 . S
C2480 H2496 0.931 . S
C2481 C2480 1.391 . S
C2481 C2485 1.376 . S
C2482 C2480 1.394 . S
C2482 C2483 1.369 . S
C2482 C2486 1.531 . S
C2483 C2482 1.369 . S
C2483 C2484 1.410 . S
C2483 C2491 1.503 . S
C2484 C2483 1.410 . S
C2484 C2485 1.392 . S
C2484 C2487 1.511 . S
C2485 C2481 1.376 . S
C2485 C2484 1.392 . S
C2485 H2497 0.929 . S
C2486 C2482 1.531 . S
C2486 H2498 0.960 . S
C2486 H2499 0.962 . S
C2486 H2500 0.960 . S
C2487 C2484 1.511 . S
C2487 H2501 0.961 . S
C2487 H2502 0.961 . S
C2487 H2503 0.961 . S
C2488 C2489 1.370 . S
C2488 C2490 1.363 . S
C2488 H2504 0.931 . S
C2489 C2488 1.370 . S
C2489 C2493 1.408 . S
C2490 C2488 1.363 . S
C2490 C2491 1.370 . S
C2490 C2494 1.524 . S
C2491 C2483 1.503 . S
C2491 C2490 1.370 . S
C2491 C2492 1.403 . S
C2492 C2491 1.403 . S
C2492 C2493 1.404 . S
C2492 C2495 1.539 . S
C2493 C2489 1.408 . S
C2493 C2492 1.404 . S
C2493 H2505 0.930 . S
C2494 C2490 1.524 . S
C2494 H2506 0.956 . S
C2494 H2507 0.961 . S
C2494 H2508 0.961 . S
C2495 C2492 1.539 . S
C2495 H2509 0.958 . S
C2495 H2510 0.961 . S
C2495 H2511 0.960 . S
H2496 C2480 0.931 . S
H2497 C2485 0.929 . S
H2498 C2486 0.960 . S
H2499 C2486 0.962 . S
H2500 C2486 0.960 . S
H2501 C2487 0.961 . S
H2502 C2487 0.961 . S
H2503 C2487 0.961 . S
H2504 C2488 0.931 . S
H2505 C2493 0.930 . S
H2506 C2494 0.956 . S
H2507 C2494 0.961 . S
H2508 C2494 0.961 . S
H2509 C2495 0.958 . S
H2510 C2495 0.961 . S
H2511 C2495 0.960 . S
C2512 C2513 1.391 . S
C2512 C2514 1.394 . S
C2512 H2528 0.931 . S
C2513 C2512 1.391 . S
C2513 C2517 1.376 . S
C2514 C2512 1.394 . S
C2514 C2515 1.369 . S
C2514 C2518 1.531 . S
C2515 C2514 1.369 . S
C2515 C2516 1.410 . S
C2515 C2523 1.503 . S
C2516 C2515 1.410 . S
C2516 C2517 1.392 . S
C2516 C2519 1.511 . S
C2517 C2513 1.376 . S
C2517 C2516 1.392 . S
C2517 H2529 0.929 . S
C2518 C2514 1.531 . S
C2518 H2530 0.960 . S
C2518 H2531 0.962 . S
C2518 H2532 0.960 . S
C2519 C2516 1.511 . S
C2519 H2533 0.961 . S
C2519 H2534 0.961 . S
C2519 H2535 0.961 . S
C2520 C2521 1.370 . S
C2520 C2522 1.363 . S
C2520 H2536 0.931 . S
C2521 C2520 1.370 . S
C2521 C2525 1.408 . S
C2522 C2520 1.363 . S
C2522 C2523 1.370 . S
C2522 C2526 1.524 . S
C2523 C2515 1.503 . S
C2523 C2522 1.370 . S
C2523 C2524 1.403 . S
C2524 C2523 1.403 . S
C2524 C2525 1.404 . S
C2524 C2527 1.539 . S
C2525 C2521 1.408 . S
C2525 C2524 1.404 . S
C2525 H2537 0.930 . S
C2526 C2522 1.524 . S
C2526 H2538 0.956 . S
C2526 H2539 0.961 . S
C2526 H2540 0.961 . S
C2527 C2524 1.539 . S
C2527 H2541 0.958 . S
C2527 H2542 0.961 . S
C2527 H2543 0.960 . S
H2528 C2512 0.931 . S
H2529 C2517 0.929 . S
H2530 C2518 0.960 . S
H2531 C2518 0.962 . S
H2532 C2518 0.960 . S
H2533 C2519 0.961 . S
H2534 C2519 0.961 . S
H2535 C2519 0.961 . S
H2536 C2520 0.931 . S
H2537 C2525 0.930 . S
H2538 C2526 0.956 . S
H2539 C2526 0.961 . S
H2540 C2526 0.961 . S
H2541 C2527 0.958 . S
H2542 C2527 0.961 . S
H2543 C2527 0.960 . S
C2544 C2545 1.391 . S
C2544 C2546 1.394 . S
C2544 H2560 0.931 . S
C2545 C2544 1.391 . S
C2545 C2549 1.376 . S
C2546 C2544 1.394 . S
C2546 C2547 1.369 . S
C2546 C2550 1.531 . S
C2547 C2546 1.369 . S
C2547 C2548 1.410 . S
C2547 C2555 1.503 . S
C2548 C2547 1.410 . S
C2548 C2549 1.392 . S
C2548 C2551 1.511 . S
C2549 C2545 1.376 . S
C2549 C2548 1.392 . S
C2549 H2561 0.929 . S
C2550 C2546 1.531 . S
C2550 H2562 0.960 . S
C2550 H2563 0.962 . S
C2550 H2564 0.960 . S
C2551 C2548 1.511 . S
C2551 H2565 0.961 . S
C2551 H2566 0.961 . S
C2551 H2567 0.961 . S
C2552 C2553 1.370 . S
C2552 C2554 1.363 . S
C2552 H2568 0.931 . S
C2553 C2552 1.370 . S
C2553 C2557 1.408 . S
C2554 C2552 1.363 . S
C2554 C2555 1.370 . S
C2554 C2558 1.524 . S
C2555 C2547 1.503 . S
C2555 C2554 1.370 . S
C2555 C2556 1.403 . S
C2556 C2555 1.403 . S
C2556 C2557 1.404 . S
C2556 C2559 1.539 . S
C2557 C2553 1.408 . S
C2557 C2556 1.404 . S
C2557 H2569 0.930 . S
C2558 C2554 1.524 . S
C2558 H2570 0.956 . S
C2558 H2571 0.961 . S
C2558 H2572 0.961 . S
C2559 C2556 1.539 . S
C2559 H2573 0.958 . S
C2559 H2574 0.961 . S
C2559 H2575 0.960 . S
H2560 C2544 0.931 . S
H2561 C2549 0.929 . S
H2562 C2550 0.960 . S
H2563 C2550 0.962 . S
H2564 C2550 0.960 . S
H2565 C2551 0.961 . S
H2566 C2551 0.961 . S
H2567 C2551 0.961 . S
H2568 C2552 0.931 . S
H2569 C2557 0.930 . S
H2570 C2558 0.956 . S
H2571 C2558 0.961 . S
H2572 C2558 0.961 . S
H2573 C2559 0.958 . S
H2574 C2559 0.961 . S
H2575 C2559 0.960 . S
C2576 C2577 1.391 1_655 S
C2576 C2578 1.394 . S
C2576 H2592 0.931 . S
C2577 C2576 1.391 1_455 S
C2577 C2581 1.376 . S
C2578 C2576 1.394 . S
C2578 C2579 1.369 1_655 S
C2578 C2582 1.531 . S
C2579 C2578 1.369 1_455 S
C2579 C2580 1.410 . S
C2579 C2587 1.503 . S
C2580 C2579 1.410 . S
C2580 C2581 1.392 . S
C2580 C2583 1.511 . S
C2581 C2577 1.376 . S
C2581 C2580 1.392 . S
C2581 H2593 0.929 . S
C2582 C2578 1.531 . S
C2582 H2594 0.960 . S
C2582 H2595 0.962 . S
C2582 H2596 0.960 . S
C2583 C2580 1.511 . S
C2583 H2597 0.961 . S
C2583 H2598 0.961 . S
C2583 H2599 0.961 . S
C2584 C2585 1.370 . S
C2584 C2586 1.363 . S
C2584 H2600 0.931 . S
C2585 C2584 1.370 . S
C2585 C2589 1.408 . S
C2586 C2584 1.363 . S
C2586 C2587 1.370 . S
C2586 C2590 1.524 . S
C2587 C2579 1.503 . S
C2587 C2586 1.370 . S
C2587 C2588 1.403 . S
C2588 C2587 1.403 . S
C2588 C2589 1.404 . S
C2588 C2591 1.539 . S
C2589 C2585 1.408 . S
C2589 C2588 1.404 . S
C2589 H2601 0.930 1_556 S
C2590 C2586 1.524 . S
C2590 H2602 0.956 . S
C2590 H2603 0.961 . S
C2590 H2604 0.961 . S
C2591 C2588 1.539 . S
C2591 H2605 0.958 . S
C2591 H2606 0.961 1_556 S
C2591 H2607 0.960 . S
H2592 C2576 0.931 . S
H2593 C2581 0.929 . S
H2594 C2582 0.960 . S
H2595 C2582 0.962 . S
H2596 C2582 0.960 . S
H2597 C2583 0.961 . S
H2598 C2583 0.961 . S
H2599 C2583 0.961 . S
H2600 C2584 0.931 . S
H2601 C2589 0.930 1_554 S
H2602 C2590 0.956 . S
H2603 C2590 0.961 . S
H2604 C2590 0.961 . S
H2605 C2591 0.958 . S
H2606 C2591 0.961 1_554 S
H2607 C2591 0.960 . S
C2608 C2609 1.391 . S
C2608 C2610 1.394 . S
C2608 H2624 0.931 . S
C2609 C2608 1.391 . S
C2609 C2613 1.376 . S
C2610 C2608 1.394 . S
C2610 C2611 1.369 . S
C2610 C2614 1.531 . S
C2611 C2610 1.369 . S
C2611 C2612 1.410 . S
C2611 C2619 1.503 1_455 S
C2612 C2611 1.410 . S
C2612 C2613 1.392 . S
C2612 C2615 1.511 1_455 S
C2613 C2609 1.376 . S
C2613 C2612 1.392 . S
C2613 H2625 0.929 . S
C2614 C2610 1.531 . S
C2614 H2626 0.960 . S
C2614 H2627 0.962 . S
C2614 H2628 0.960 . S
C2615 C2612 1.511 1_655 S
C2615 H2629 0.961 . S
C2615 H2630 0.961 . S
C2615 H2631 0.961 . S
C2616 C2617 1.370 . S
C2616 C2618 1.363 . S
C2616 H2632 0.931 . S
C2617 C2616 1.370 . S
C2617 C2621 1.408 . S
C2618 C2616 1.363 . S
C2618 C2619 1.370 . S
C2618 C2622 1.524 . S
C2619 C2611 1.503 1_655 S
C2619 C2618 1.370 . S
C2619 C2620 1.403 . S
C2620 C2619 1.403 . S
C2620 C2621 1.404 . S
C2620 C2623 1.539 . S
C2621 C2617 1.408 . S
C2621 C2620 1.404 . S
C2621 H2633 0.930 . S
C2622 C2618 1.524 . S
C2622 H2634 0.956 . S
C2622 H2635 0.961 . S
C2622 H2636 0.961 . S
C2623 C2620 1.539 . S
C2623 H2637 0.958 . S
C2623 H2638 0.961 . S
C2623 H2639 0.960 . S
H2624 C2608 0.931 . S
H2625 C2613 0.929 . S
H2626 C2614 0.960 . S
H2627 C2614 0.962 . S
H2628 C2614 0.960 . S
H2629 C2615 0.961 . S
H2630 C2615 0.961 . S
H2631 C2615 0.961 . S
H2632 C2616 0.931 . S
H2633 C2621 0.930 . S
H2634 C2622 0.956 . S
H2635 C2622 0.961 . S
H2636 C2622 0.961 . S
H2637 C2623 0.958 . S
H2638 C2623 0.961 . S
H2639 C2623 0.960 . S
C2640 C2641 1.391 . S
C2640 C2642 1.394 . S
C2640 H2656 0.931 . S
C2641 C2640 1.391 . S
C2641 C2645 1.376 . S
C2642 C2640 1.394 . S
C2642 C2643 1.369 . S
C2642 C2646 1.531 . S
C2643 C2642 1.369 . S
C2643 C2644 1.410 . S
C2643 C2651 1.503 . S
C2644 C2643 1.410 . S
C2644 C2645 1.392 . S
C2644 C2647 1.511 . S
C2645 C2641 1.376 . S
C2645 C2644 1.392 . S
C2645 H2657 0.929 . S
C2646 C2642 1.531 . S
C2646 H2658 0.960 . S
C2646 H2659 0.962 . S
C2646 H2660 0.960 . S
C2647 C2644 1.511 . S
C2647 H2661 0.961 . S
C2647 H2662 0.961 . S
C2647 H2663 0.961 . S
C2648 C2649 1.370 . S
C2648 C2650 1.363 . S
C2648 H2664 0.931 . S
C2649 C2648 1.370 . S
C2649 C2653 1.408 . S
C2650 C2648 1.363 . S
C2650 C2651 1.370 . S
C2650 C2654 1.524 . S
C2651 C2643 1.503 . S
C2651 C2650 1.370 . S
C2651 C2652 1.403 . S
C2652 C2651 1.403 . S
C2652 C2653 1.404 . S
C2652 C2655 1.539 . S
C2653 C2649 1.408 . S
C2653 C2652 1.404 . S
C2653 H2665 0.930 . S
C2654 C2650 1.524 . S
C2654 H2666 0.956 . S
C2654 H2667 0.961 . S
C2654 H2668 0.961 . S
C2655 C2652 1.539 . S
C2655 H2669 0.958 . S
C2655 H2670 0.961 . S
C2655 H2671 0.960 . S
H2656 C2640 0.931 . S
H2657 C2645 0.929 . S
H2658 C2646 0.960 . S
H2659 C2646 0.962 . S
H2660 C2646 0.960 . S
H2661 C2647 0.961 . S
H2662 C2647 0.961 . S
H2663 C2647 0.961 . S
H2664 C2648 0.931 . S
H2665 C2653 0.930 . S
H2666 C2654 0.956 . S
H2667 C2654 0.961 . S
H2668 C2654 0.961 . S
H2669 C2655 0.958 . S
H2670 C2655 0.961 . S
H2671 C2655 0.960 . S
C2672 C2673 1.391 . S
C2672 C2674 1.394 . S
C2672 H2688 0.931 . S
C2673 C2672 1.391 . S
C2673 C2677 1.376 . S
C2674 C2672 1.394 . S
C2674 C2675 1.369 . S
C2674 C2678 1.531 . S
C2675 C2674 1.369 . S
C2675 C2676 1.410 . S
C2675 C2683 1.503 . S
C2676 C2675 1.410 . S
C2676 C2677 1.392 . S
C2676 C2679 1.511 . S
C2677 C2673 1.376 . S
C2677 C2676 1.392 . S
C2677 H2689 0.929 . S
C2678 C2674 1.531 . S
C2678 H2690 0.960 . S
C2678 H2691 0.962 . S
C2678 H2692 0.960 . S
C2679 C2676 1.511 . S
C2679 H2693 0.961 . S
C2679 H2694 0.961 . S
C2679 H2695 0.961 . S
C2680 C2681 1.370 . S
C2680 C2682 1.363 . S
C2680 H2696 0.931 . S
C2681 C2680 1.370 . S
C2681 C2685 1.408 . S
C2682 C2680 1.363 . S
C2682 C2683 1.370 . S
C2682 C2686 1.524 . S
C2683 C2675 1.503 . S
C2683 C2682 1.370 . S
C2683 C2684 1.403 . S
C2684 C2683 1.403 . S
C2684 C2685 1.404 . S
C2684 C2687 1.539 . S
C2685 C2681 1.408 . S
C2685 C2684 1.404 . S
C2685 H2697 0.930 . S
C2686 C2682 1.524 . S
C2686 H2698 0.956 . S
C2686 H2699 0.961 . S
C2686 H2700 0.961 . S
C2687 C2684 1.539 . S
C2687 H2701 0.958 . S
C2687 H2702 0.961 . S
C2687 H2703 0.960 . S
H2688 C2672 0.931 . S
H2689 C2677 0.929 . S
H2690 C2678 0.960 . S
H2691 C2678 0.962 . S
H2692 C2678 0.960 . S
H2693 C2679 0.961 . S
H2694 C2679 0.961 . S
H2695 C2679 0.961 . S
H2696 C2680 0.931 . S
H2697 C2685 0.930 . S
H2698 C2686 0.956 . S
H2699 C2686 0.961 . S
H2700 C2686 0.961 . S
H2701 C2687 0.958 . S
H2702 C2687 0.961 . S
H2703 C2687 0.960 . S
C2704 C2705 1.391 . S
C2704 C2706 1.394 . S
C2704 H2720 0.931 . S
C2705 C2704 1.391 . S
C2705 C2709 1.376 . S
C2706 C2704 1.394 . S
C2706 C2707 1.369 . S
C2706 C2710 1.531 . S
C2707 C2706 1.369 . S
C2707 C2708 1.410 . S
C2707 C2715 1.503 . S
C2708 C2707 1.410 . S
C2708 C2709 1.392 . S
C2708 C2711 1.511 . S
C2709 C2705 1.376 . S
C2709 C2708 1.392 . S
C2709 H2721 0.929 . S
C2710 C2706 1.531 . S
C2710 H2722 0.960 . S
C2710 H2723 0.962 . S
C2710 H2724 0.960 . S
C2711 C2708 1.511 . S
C2711 H2725 0.961 . S
C2711 H2726 0.961 . S
C2711 H2727 0.961 1_455 S
C2712 C2713 1.370 . S
C2712 C2714 1.363 . S
C2712 H2728 0.931 . S
C2713 C2712 1.370 . S
C2713 C2717 1.408 . S
C2714 C2712 1.363 . S
C2714 C2715 1.370 . S
C2714 C2718 1.524 . S
C2715 C2707 1.503 . S
C2715 C2714 1.370 . S
C2715 C2716 1.403 . S
C2716 C2715 1.403 . S
C2716 C2717 1.404 . S
C2716 C2719 1.584 . S
C2717 C2713 1.408 . S
C2717 C2716 1.404 . S
C2717 H2729 0.930 . S
C2718 C2714 1.524 . S
C2718 H2730 0.956 . S
C2718 H2731 0.961 . S
C2718 H2732 0.961 . S
C2719 C2716 1.584 . S
C2719 H2733 0.968 . S
C2719 H2734 0.930 1_455 S
C2719 H2735 0.940 1_455 S
H2720 C2704 0.931 . S
H2721 C2709 0.929 . S
H2722 C2710 0.960 . S
H2723 C2710 0.962 . S
H2724 C2710 0.960 . S
H2725 C2711 0.961 . S
H2726 C2711 0.961 . S
H2727 C2711 0.961 1_655 S
H2728 C2712 0.931 . S
H2729 C2717 0.930 . S
H2730 C2718 0.956 . S
H2731 C2718 0.961 . S
H2732 C2718 0.961 . S
H2733 C2719 0.968 . S
H2734 C2719 0.930 1_655 S
H2735 C2719 0.940 1_655 S
C2736 C2737 1.391 . S
C2736 C2738 1.394 . S
C2736 H2752 0.931 . S
C2737 C2736 1.391 . S
C2737 C2741 1.376 . S
C2738 C2736 1.394 . S
C2738 C2739 1.369 . S
C2738 C2742 1.531 . S
C2739 C2738 1.369 . S
C2739 C2740 1.410 . S
C2739 C2747 1.503 . S
C2740 C2739 1.410 . S
C2740 C2741 1.392 . S
C2740 C2743 1.511 . S
C2741 C2737 1.376 . S
C2741 C2740 1.392 . S
C2741 H2753 0.929 . S
C2742 C2738 1.531 . S
C2742 H2754 0.960 . S
C2742 H2755 0.962 . S
C2742 H2756 0.960 . S
C2743 C2740 1.511 . S
C2743 H2757 0.961 . S
C2743 H2758 0.961 . S
C2743 H2759 0.961 . S
C2744 C2745 1.370 . S
C2744 C2746 1.363 . S
C2744 H2760 0.931 . S
C2745 C2744 1.370 . S
C2745 C2749 1.408 . S
C2746 C2744 1.363 . S
C2746 C2747 1.370 . S
C2746 C2750 1.524 . S
C2747 C2739 1.503 . S
C2747 C2746 1.370 . S
C2747 C2748 1.403 . S
C2748 C2747 1.403 . S
C2748 C2749 1.404 . S
C2748 C2751 1.539 . S
C2749 C2745 1.408 . S
C2749 C2748 1.404 . S
C2749 H2761 0.930 . S
C2750 C2746 1.524 . S
C2750 H2762 0.956 . S
C2750 H2763 0.961 . S
C2750 H2764 0.961 . S
C2751 C2748 1.539 . S
C2751 H2765 0.958 . S
C2751 H2766 0.961 . S
C2751 H2767 0.960 . S
H2752 C2736 0.931 . S
H2753 C2741 0.929 . S
H2754 C2742 0.960 . S
H2755 C2742 0.962 . S
H2756 C2742 0.960 . S
H2757 C2743 0.961 . S
H2758 C2743 0.961 . S
H2759 C2743 0.961 . S
H2760 C2744 0.931 . S
H2761 C2749 0.930 . S
H2762 C2750 0.956 . S
H2763 C2750 0.961 . S
H2764 C2750 0.961 . S
H2765 C2751 0.958 . S
H2766 C2751 0.961 . S
H2767 C2751 0.960 . S
C2768 C2769 1.391 . S
C2768 C2770 1.394 . S
C2768 H2784 0.931 . S
C2769 C2768 1.391 . S
C2769 C2773 1.376 . S
C2770 C2768 1.394 . S
C2770 C2771 1.369 . S
C2770 C2774 1.531 . S
C2771 C2770 1.369 . S
C2771 C2772 1.410 . S
C2771 C2779 1.503 . S
C2772 C2771 1.410 . S
C2772 C2773 1.392 . S
C2772 C2775 1.511 . S
C2773 C2769 1.376 . S
C2773 C2772 1.392 . S
C2773 H2785 0.929 . S
C2774 C2770 1.531 . S
C2774 H2786 0.960 . S
C2774 H2787 0.962 . S
C2774 H2788 0.960 . S
C2775 C2772 1.511 . S
C2775 H2789 0.961 . S
C2775 H2790 0.961 . S
C2775 H2791 0.961 . S
C2776 C2777 1.370 . S
C2776 C2778 1.363 . S
C2776 H2792 0.931 . S
C2777 C2776 1.370 . S
C2777 C2781 1.408 . S
C2778 C2776 1.363 . S
C2778 C2779 1.370 . S
C2778 C2782 1.524 . S
C2779 C2771 1.503 . S
C2779 C2778 1.370 . S
C2779 C2780 1.403 . S
C2780 C2779 1.403 . S
C2780 C2781 1.404 . S
C2780 C2783 1.539 . S
C2781 C2777 1.408 . S
C2781 C2780 1.404 . S
C2781 H2793 0.930 . S
C2782 C2778 1.524 . S
C2782 H2794 0.956 . S
C2782 H2795 0.961 . S
C2782 H2796 0.961 . S
C2783 C2780 1.539 . S
C2783 H2797 0.958 . S
C2783 H2798 0.961 . S
C2783 H2799 0.960 . S
H2784 C2768 0.931 . S
H2785 C2773 0.929 . S
H2786 C2774 0.960 . S
H2787 C2774 0.962 . S
H2788 C2774 0.960 . S
H2789 C2775 0.961 . S
H2790 C2775 0.961 . S
H2791 C2775 0.961 . S
H2792 C2776 0.931 . S
H2793 C2781 0.930 . S
H2794 C2782 0.956 . S
H2795 C2782 0.961 . S
H2796 C2782 0.961 . S
H2797 C2783 0.958 . S
H2798 C2783 0.961 . S
H2799 C2783 0.960 . S
C2800 C2801 1.391 . S
C2800 C2802 1.394 . S
C2800 H2816 0.931 . S
C2801 C2800 1.391 . S
C2801 C2805 1.376 . S
C2802 C2800 1.394 . S
C2802 C2803 1.369 . S
C2802 C2806 1.531 . S
C2803 C2802 1.369 . S
C2803 C2804 1.410 . S
C2803 C2811 1.503 . S
C2804 C2803 1.410 . S
C2804 C2805 1.392 . S
C2804 C2807 1.511 . S
C2805 C2801 1.376 . S
C2805 C2804 1.392 . S
C2805 H2817 0.929 . S
C2806 C2802 1.531 . S
C2806 H2818 0.960 . S
C2806 H2819 0.962 . S
C2806 H2820 0.960 . S
C2807 C2804 1.511 . S
C2807 H2821 0.961 . S
C2807 H2822 0.961 . S
C2807 H2823 0.961 . S
C2808 C2809 1.370 . S
C2808 C2810 1.363 . S
C2808 H2824 0.931 . S
C2809 C2808 1.370 . S
C2809 C2813 1.408 . S
C2810 C2808 1.363 . S
C2810 C2811 1.370 . S
C2810 C2814 1.524 . S
C2811 C2803 1.503 . S
C2811 C2810 1.370 . S
C2811 C2812 1.403 . S
C2812 C2811 1.403 . S
C2812 C2813 1.404 . S
C2812 C2815 1.539 . S
C2813 C2809 1.408 . S
C2813 C2812 1.404 . S
C2813 H2825 0.930 . S
C2814 C2810 1.524 . S
C2814 H2826 0.956 . S
C2814 H2827 0.961 . S
C2814 H2828 0.961 . S
C2815 C2812 1.539 . S
C2815 H2829 0.958 . S
C2815 H2830 0.961 . S
C2815 H2831 0.960 . S
H2816 C2800 0.931 . S
H2817 C2805 0.929 . S
H2818 C2806 0.960 . S
H2819 C2806 0.962 . S
H2820 C2806 0.960 . S
H2821 C2807 0.961 . S
H2822 C2807 0.961 . S
H2823 C2807 0.961 . S
H2824 C2808 0.931 . S
H2825 C2813 0.930 . S
H2826 C2814 0.956 . S
H2827 C2814 0.961 . S
H2828 C2814 0.961 . S
H2829 C2815 0.958 . S
H2830 C2815 0.961 . S
H2831 C2815 0.960 . S
C2832 C2833 1.391 . S
C2832 C2834 1.394 . S
C2832 H2848 0.931 . S
C2833 C2832 1.391 . S
C2833 C2837 1.376 . S
C2834 C2832 1.394 . S
C2834 C2835 1.369 . S
C2834 C2838 1.531 . S
C2835 C2834 1.369 . S
C2835 C2836 1.410 . S
C2835 C2843 1.503 . S
C2836 C2835 1.410 . S
C2836 C2837 1.392 . S
C2836 C2839 1.511 . S
C2837 C2833 1.376 . S
C2837 C2836 1.392 . S
C2837 H2849 0.929 . S
C2838 C2834 1.531 . S
C2838 H2850 0.960 . S
C2838 H2851 0.962 . S
C2838 H2852 0.960 . S
C2839 C2836 1.511 . S
C2839 H2853 0.961 . S
C2839 H2854 0.961 . S
C2839 H2855 0.961 . S
C2840 C2841 1.370 . S
C2840 C2842 1.363 . S
C2840 H2856 0.931 . S
C2841 C2840 1.370 . S
C2841 C2845 1.408 . S
C2842 C2840 1.363 . S
C2842 C2843 1.370 . S
C2842 C2846 1.524 . S
C2843 C2835 1.503 . S
C2843 C2842 1.370 . S
C2843 C2844 1.403 . S
C2844 C2843 1.403 . S
C2844 C2845 1.404 . S
C2844 C2847 1.539 . S
C2845 C2841 1.408 . S
C2845 C2844 1.404 . S
C2845 H2857 0.930 . S
C2846 C2842 1.524 . S
C2846 H2858 0.956 . S
C2846 H2859 0.961 . S
C2846 H2860 0.961 . S
C2847 C2844 1.539 . S
C2847 H2861 0.958 . S
C2847 H2862 0.961 . S
C2847 H2863 0.960 . S
H2848 C2832 0.931 . S
H2849 C2837 0.929 . S
H2850 C2838 0.960 . S
H2851 C2838 0.962 . S
H2852 C2838 0.960 . S
H2853 C2839 0.961 . S
H2854 C2839 0.961 . S
H2855 C2839 0.961 . S
H2856 C2840 0.931 . S
H2857 C2845 0.930 . S
H2858 C2846 0.956 . S
H2859 C2846 0.961 . S
H2860 C2846 0.961 . S
H2861 C2847 0.958 . S
H2862 C2847 0.961 . S
H2863 C2847 0.960 . S
C2864 C2865 1.391 . S
C2864 C2866 1.394 . S
C2864 H2880 0.931 . S
C2865 C2864 1.391 . S
C2865 C2869 1.376 . S
C2866 C2864 1.394 . S
C2866 C2867 1.369 . S
C2866 C2870 1.531 . S
C2867 C2866 1.369 . S
C2867 C2868 1.410 . S
C2867 C2875 1.503 . S
C2868 C2867 1.410 . S
C2868 C2869 1.392 . S
C2868 C2871 1.511 . S
C2869 C2865 1.376 . S
C2869 C2868 1.392 . S
C2869 H2881 0.929 . S
C2870 C2866 1.531 . S
C2870 H2882 0.960 . S
C2870 H2883 0.962 . S
C2870 H2884 0.960 . S
C2871 C2868 1.511 . S
C2871 H2885 0.961 . S
C2871 H2886 0.961 . S
C2871 H2887 0.961 . S
C2872 C2873 1.370 . S
C2872 C2874 1.363 . S
C2872 H2888 0.931 . S
C2873 C2872 1.370 . S
C2873 C2877 1.408 . S
C2874 C2872 1.363 . S
C2874 C2875 1.370 . S
C2874 C2878 1.524 . S
C2875 C2867 1.503 . S
C2875 C2874 1.370 . S
C2875 C2876 1.403 . S
C2876 C2875 1.403 . S
C2876 C2877 1.404 . S
C2876 C2879 1.539 . S
C2877 C2873 1.408 . S
C2877 C2876 1.404 . S
C2877 H2889 0.930 . S
C2878 C2874 1.524 . S
C2878 H2890 0.956 . S
C2878 H2891 0.961 . S
C2878 H2892 0.961 . S
C2879 C2876 1.539 . S
C2879 H2893 0.958 . S
C2879 H2894 0.961 . S
C2879 H2895 0.960 . S
H2880 C2864 0.931 . S
H2881 C2869 0.929 . S
H2882 C2870 0.960 . S
H2883 C2870 0.962 . S
H2884 C2870 0.960 . S
H2885 C2871 0.961 . S
H2886 C2871 0.961 . S
H2887 C2871 0.961 . S
H2888 C2872 0.931 . S
H2889 C2877 0.930 . S
H2890 C2878 0.956 . S
H2891 C2878 0.961 . S
H2892 C2878 0.961 . S
H2893 C2879 0.958 . S
H2894 C2879 0.961 . S
H2895 C2879 0.960 . S
C2896 C2897 1.391 . S
C2896 C2898 1.394 . S
C2896 H2912 0.931 . S
C2897 C2896 1.391 . S
C2897 C2901 1.376 . S
C2898 C2896 1.394 . S
C2898 C2899 1.369 . S
C2898 C2902 1.531 . S
C2899 C2898 1.369 . S
C2899 C2900 1.410 . S
C2899 C2907 1.503 . S
C2900 C2899 1.410 . S
C2900 C2901 1.392 . S
C2900 C2903 1.511 . S
C2901 C2897 1.376 . S
C2901 C2900 1.392 . S
C2901 H2913 0.929 . S
C2902 C2898 1.531 . S
C2902 H2914 0.960 . S
C2902 H2915 0.962 . S
C2902 H2916 0.960 . S
C2903 C2900 1.511 . S
C2903 H2917 0.961 . S
C2903 H2918 0.961 . S
C2903 H2919 0.961 . S
C2904 C2905 1.370 . S
C2904 C2906 1.363 . S
C2904 H2920 0.931 . S
C2905 C2904 1.370 . S
C2905 C2909 1.408 . S
C2906 C2904 1.363 . S
C2906 C2907 1.370 . S
C2906 C2910 1.524 . S
C2907 C2899 1.503 . S
C2907 C2906 1.370 . S
C2907 C2908 1.403 . S
C2908 C2907 1.403 . S
C2908 C2909 1.404 . S
C2908 C2911 1.539 . S
C2909 C2905 1.408 . S
C2909 C2908 1.404 . S
C2909 H2921 0.930 . S
C2910 C2906 1.524 . S
C2910 H2922 0.956 . S
C2910 H2923 0.961 . S
C2910 H2924 0.961 . S
C2911 C2908 1.539 . S
C2911 H2925 0.958 . S
C2911 H2926 0.961 . S
C2911 H2927 0.960 . S
H2912 C2896 0.931 . S
H2913 C2901 0.929 . S
H2914 C2902 0.960 . S
H2915 C2902 0.962 . S
H2916 C2902 0.960 . S
H2917 C2903 0.961 . S
H2918 C2903 0.961 . S
H2919 C2903 0.961 . S
H2920 C2904 0.931 . S
H2921 C2909 0.930 . S
H2922 C2910 0.956 . S
H2923 C2910 0.961 . S
H2924 C2910 0.961 . S
H2925 C2911 0.958 . S
H2926 C2911 0.961 . S
H2927 C2911 0.960 . S
C2928 C2929 1.391 . S
C2928 C2930 1.394 . S
C2928 H2944 0.931 . S
C2929 C2928 1.391 . S
C2929 C2933 1.376 . S
C2930 C2928 1.394 . S
C2930 C2931 1.369 . S
C2930 C2934 1.531 . S
C2931 C2930 1.369 . S
C2931 C2932 1.410 . S
C2931 C2939 1.503 . S
C2932 C2931 1.410 . S
C2932 C2933 1.392 . S
C2932 C2935 1.511 . S
C2933 C2929 1.376 . S
C2933 C2932 1.392 . S
C2933 H2945 0.929 . S
C2934 C2930 1.531 . S
C2934 H2946 0.960 . S
C2934 H2947 0.962 . S
C2934 H2948 0.960 . S
C2935 C2932 1.511 . S
C2935 H2949 0.961 . S
C2935 H2950 0.961 . S
C2935 H2951 0.961 . S
C2936 C2937 1.370 . S
C2936 C2938 1.363 . S
C2936 H2952 0.931 . S
C2937 C2936 1.370 . S
C2937 C2941 1.408 . S
C2938 C2936 1.363 . S
C2938 C2939 1.370 . S
C2938 C2942 1.524 . S
C2939 C2931 1.503 . S
C2939 C2938 1.370 . S
C2939 C2940 1.403 . S
C2940 C2939 1.403 . S
C2940 C2941 1.404 . S
C2940 C2943 1.539 . S
C2941 C2937 1.408 . S
C2941 C2940 1.404 . S
C2941 H2953 0.930 . S
C2942 C2938 1.524 . S
C2942 H2954 0.956 . S
C2942 H2955 0.961 . S
C2942 H2956 0.961 . S
C2943 C2940 1.539 . S
C2943 H2957 0.958 . S
C2943 H2958 0.961 . S
C2943 H2959 0.960 . S
H2944 C2928 0.931 . S
H2945 C2933 0.929 . S
H2946 C2934 0.960 . S
H2947 C2934 0.962 . S
H2948 C2934 0.960 . S
H2949 C2935 0.961 . S
H2950 C2935 0.961 . S
H2951 C2935 0.961 . S
H2952 C2936 0.931 . S
H2953 C2941 0.930 . S
H2954 C2942 0.956 . S
H2955 C2942 0.961 . S
H2956 C2942 0.961 . S
H2957 C2943 0.958 . S
H2958 C2943 0.961 . S
H2959 C2943 0.960 . S
C2960 C2961 1.391 . S
C2960 C2962 1.394 . S
C2960 H2976 0.931 . S
C2961 C2960 1.391 . S
C2961 C2965 1.376 . S
C2962 C2960 1.394 . S
C2962 C2963 1.369 . S
C2962 C2966 1.531 . S
C2963 C2962 1.369 . S
C2963 C2964 1.410 . S
C2963 C2971 1.503 . S
C2964 C2963 1.410 . S
C2964 C2965 1.392 . S
C2964 C2967 1.511 . S
C2965 C2961 1.376 . S
C2965 C2964 1.392 . S
C2965 H2977 0.929 . S
C2966 C2962 1.531 . S
C2966 H2978 0.960 . S
C2966 H2979 0.962 . S
C2966 H2980 0.960 . S
C2967 C2964 1.511 . S
C2967 H2981 0.961 . S
C2967 H2982 0.961 . S
C2967 H2983 0.961 . S
C2968 C2969 1.370 . S
C2968 C2970 1.363 . S
C2968 H2984 0.931 . S
C2969 C2968 1.370 . S
C2969 C2973 1.408 . S
C2970 C2968 1.363 . S
C2970 C2971 1.370 . S
C2970 C2974 1.524 . S
C2971 C2963 1.503 . S
C2971 C2970 1.370 . S
C2971 C2972 1.403 . S
C2972 C2971 1.403 . S
C2972 C2973 1.404 . S
C2972 C2975 1.539 . S
C2973 C2969 1.408 . S
C2973 C2972 1.404 . S
C2973 H2985 0.930 . S
C2974 C2970 1.524 . S
C2974 H2986 0.956 . S
C2974 H2987 0.961 . S
C2974 H2988 0.961 . S
C2975 C2972 1.539 . S
C2975 H2989 0.958 . S
C2975 H2990 0.961 . S
C2975 H2991 0.960 . S
H2976 C2960 0.931 . S
H2977 C2965 0.929 . S
H2978 C2966 0.960 . S
H2979 C2966 0.962 . S
H2980 C2966 0.960 . S
H2981 C2967 0.961 . S
H2982 C2967 0.961 . S
H2983 C2967 0.961 . S
H2984 C2968 0.931 . S
H2985 C2973 0.930 . S
H2986 C2974 0.956 . S
H2987 C2974 0.961 . S
H2988 C2974 0.961 . S
H2989 C2975 0.958 . S
H2990 C2975 0.961 . S
H2991 C2975 0.960 . S
C2992 C2993 1.391 . S
C2992 C2994 1.394 . S
C2992 H3008 0.931 . S
C2993 C2992 1.391 . S
C2993 C2997 1.376 . S
C2994 C2992 1.394 . S
C2994 C2995 1.369 . S
C2994 C2998 1.531 . S
C2995 C2994 1.369 . S
C2995 C2996 1.410 . S
C2995 C3003 1.503 . S
C2996 C2995 1.410 . S
C2996 C2997 1.392 . S
C2996 C2999 1.511 . S
C2997 C2993 1.376 . S
C2997 C2996 1.392 . S
C2997 H3009 0.929 . S
C2998 C2994 1.531 . S
C2998 H3010 0.960 . S
C2998 H3011 0.962 . S
C2998 H3012 0.960 . S
C2999 C2996 1.511 . S
C2999 H3013 0.961 . S
C2999 H3014 0.961 . S
C2999 H3015 0.961 . S
C3000 C3001 1.370 . S
C3000 C3002 1.363 . S
C3000 H3016 0.931 . S
C3001 C3000 1.370 . S
C3001 C3005 1.408 . S
C3002 C3000 1.363 . S
C3002 C3003 1.370 . S
C3002 C3006 1.524 . S
C3003 C2995 1.503 . S
C3003 C3002 1.370 . S
C3003 C3004 1.403 . S
C3004 C3003 1.403 . S
C3004 C3005 1.404 . S
C3004 C3007 1.539 . S
C3005 C3001 1.408 . S
C3005 C3004 1.404 . S
C3005 H3017 0.930 . S
C3006 C3002 1.524 . S
C3006 H3018 0.956 . S
C3006 H3019 0.961 . S
C3006 H3020 0.961 . S
C3007 C3004 1.539 . S
C3007 H3021 0.958 . S
C3007 H3022 0.961 . S
C3007 H3023 0.960 . S
H3008 C2992 0.931 . S
H3009 C2997 0.929 . S
H3010 C2998 0.960 . S
H3011 C2998 0.962 . S
H3012 C2998 0.960 . S
H3013 C2999 0.961 . S
H3014 C2999 0.961 . S
H3015 C2999 0.961 . S
H3016 C3000 0.931 . S
H3017 C3005 0.930 . S
H3018 C3006 0.956 . S
H3019 C3006 0.961 . S
H3020 C3006 0.961 . S
H3021 C3007 0.958 . S
H3022 C3007 0.961 . S
H3023 C3007 0.960 . S
C3024 C3025 1.391 . S
C3024 C3026 1.394 . S
C3024 H3040 0.931 . S
C3025 C3024 1.391 . S
C3025 C3029 1.376 . S
C3026 C3024 1.394 . S
C3026 C3027 1.369 . S
C3026 C3030 1.531 . S
C3027 C3026 1.369 . S
C3027 C3028 1.410 . S
C3027 C3035 1.503 . S
C3028 C3027 1.410 . S
C3028 C3029 1.392 . S
C3028 C3031 1.511 . S
C3029 C3025 1.376 . S
C3029 C3028 1.392 . S
C3029 H3041 0.929 . S
C3030 C3026 1.531 . S
C3030 H3042 0.960 . S
C3030 H3043 0.962 . S
C3030 H3044 0.960 . S
C3031 C3028 1.511 . S
C3031 H3045 0.961 . S
C3031 H3046 0.961 . S
C3031 H3047 0.961 . S
C3032 C3033 1.370 . S
C3032 C3034 1.363 . S
C3032 H3048 0.931 . S
C3033 C3032 1.370 . S
C3033 C3037 1.408 . S
C3034 C3032 1.363 . S
C3034 C3035 1.370 . S
C3034 C3038 1.524 . S
C3035 C3027 1.503 . S
C3035 C3034 1.370 . S
C3035 C3036 1.403 . S
C3036 C3035 1.403 . S
C3036 C3037 1.404 . S
C3036 C3039 1.539 . S
C3037 C3033 1.408 . S
C3037 C3036 1.404 . S
C3037 H3049 0.930 . S
C3038 C3034 1.524 . S
C3038 H3050 0.956 . S
C3038 H3051 0.961 . S
C3038 H3052 0.961 . S
C3039 C3036 1.539 . S
C3039 H3053 0.958 . S
C3039 H3054 0.961 . S
C3039 H3055 0.960 . S
H3040 C3024 0.931 . S
H3041 C3029 0.929 . S
H3042 C3030 0.960 . S
H3043 C3030 0.962 . S
H3044 C3030 0.960 . S
H3045 C3031 0.961 . S
H3046 C3031 0.961 . S
H3047 C3031 0.961 . S
H3048 C3032 0.931 . S
H3049 C3037 0.930 . S
H3050 C3038 0.956 . S
H3051 C3038 0.961 . S
H3052 C3038 0.961 . S
H3053 C3039 0.958 . S
H3054 C3039 0.961 . S
H3055 C3039 0.960 . S
C3056 C3057 1.391 . S
C3056 C3058 1.394 . S
C3056 H3072 0.931 . S
C3057 C3056 1.391 . S
C3057 C3061 1.376 . S
C3058 C3056 1.394 . S
C3058 C3059 1.369 . S
C3058 C3062 1.531 . S
C3059 C3058 1.369 . S
C3059 C3060 1.410 . S
C3059 C3067 1.503 . S
C3060 C3059 1.410 . S
C3060 C3061 1.392 . S
C3060 C3063 1.511 . S
C3061 C3057 1.376 . S
C3061 C3060 1.392 . S
C3061 H3073 0.929 . S
C3062 C3058 1.531 . S
C3062 H3074 0.960 . S
C3062 H3075 0.962 . S
C3062 H3076 0.960 . S
C3063 C3060 1.511 . S
C3063 H3077 0.961 . S
C3063 H3078 0.961 . S
C3063 H3079 0.961 . S
C3064 C3065 1.370 . S
C3064 C3066 1.363 . S
C3064 H3080 0.931 . S
C3065 C3064 1.370 . S
C3065 C3069 1.408 . S
C3066 C3064 1.363 . S
C3066 C3067 1.370 . S
C3066 C3070 1.524 . S
C3067 C3059 1.503 . S
C3067 C3066 1.370 . S
C3067 C3068 1.403 . S
C3068 C3067 1.403 . S
C3068 C3069 1.404 . S
C3068 C3071 1.539 . S
C3069 C3065 1.408 . S
C3069 C3068 1.404 . S
C3069 H3081 0.930 . S
C3070 C3066 1.524 . S
C3070 H3082 0.956 . S
C3070 H3083 0.961 . S
C3070 H3084 0.961 . S
C3071 C3068 1.539 . S
C3071 H3085 0.958 . S
C3071 H3086 0.961 . S
C3071 H3087 0.960 . S
H3072 C3056 0.931 . S
H3073 C3061 0.929 . S
H3074 C3062 0.960 . S
H3075 C3062 0.962 . S
H3076 C3062 0.960 . S
H3077 C3063 0.961 . S
H3078 C3063 0.961 . S
H3079 C3063 0.961 . S
H3080 C3064 0.931 . S
H3081 C3069 0.930 . S
H3082 C3070 0.956 . S
H3083 C3070 0.961 . S
H3084 C3070 0.961 . S
H3085 C3071 0.958 . S
H3086 C3071 0.961 . S
H3087 C3071 0.960 . S
C3088 C3089 1.391 . S
C3088 C3090 1.394 1_545 S
C3088 H3104 0.931 . S
C3089 C3088 1.391 . S
C3089 C3093 1.376 1_545 S
C3090 C3088 1.394 1_565 S
C3090 C3091 1.369 . S
C3090 C3094 1.531 . S
C3091 C3090 1.369 . S
C3091 C3092 1.410 . S
C3091 C3099 1.503 . S
C3092 C3091 1.410 . S
C3092 C3093 1.392 . S
C3092 C3095 1.511 . S
C3093 C3089 1.376 1_565 S
C3093 C3092 1.392 . S
C3093 H3105 0.929 . S
C3094 C3090 1.531 . S
C3094 H3106 0.960 . S
C3094 H3107 0.962 . S
C3094 H3108 0.960 . S
C3095 C3092 1.511 . S
C3095 H3109 0.961 . S
C3095 H3110 0.961 . S
C3095 H3111 0.961 . S
C3096 C3097 1.370 . S
C3096 C3098 1.363 . S
C3096 H3112 0.931 . S
C3097 C3096 1.370 . S
C3097 C3101 1.408 . S
C3098 C3096 1.363 . S
C3098 C3099 1.370 . S
C3098 C3102 1.524 . S
C3099 C3091 1.503 . S
C3099 C3098 1.370 . S
C3099 C3100 1.403 . S
C3100 C3099 1.403 . S
C3100 C3101 1.404 . S
C3100 C3103 1.539 . S
C3101 C3097 1.408 . S
C3101 C3100 1.404 . S
C3101 H3113 0.930 . S
C3102 C3098 1.524 . S
C3102 H3114 0.956 . S
C3102 H3115 0.961 . S
C3102 H3116 0.961 . S
C3103 C3100 1.539 . S
C3103 H3117 0.958 . S
C3103 H3118 0.961 . S
C3103 H3119 0.960 . S
H3104 C3088 0.931 . S
H3105 C3093 0.929 . S
H3106 C3094 0.960 . S
H3107 C3094 0.962 . S
H3108 C3094 0.960 . S
H3109 C3095 0.961 . S
H3110 C3095 0.961 . S
H3111 C3095 0.961 . S
H3112 C3096 0.931 . S
H3113 C3101 0.930 . S
H3114 C3102 0.956 . S
H3115 C3102 0.961 . S
H3116 C3102 0.961 . S
H3117 C3103 0.958 . S
H3118 C3103 0.961 . S
H3119 C3103 0.960 . S
C3120 C3121 1.391 . S
C3120 C3122 1.394 . S
C3120 H3136 0.931 . S
C3121 C3120 1.391 . S
C3121 C3125 1.376 . S
C3122 C3120 1.394 . S
C3122 C3123 1.369 . S
C3122 C3126 1.531 . S
C3123 C3122 1.369 . S
C3123 C3124 1.410 . S
C3123 C3131 1.503 . S
C3124 C3123 1.410 . S
C3124 C3125 1.392 . S
C3124 C3127 1.511 . S
C3125 C3121 1.376 . S
C3125 C3124 1.392 . S
C3125 H3137 0.929 . S
C3126 C3122 1.531 . S
C3126 H3138 0.960 . S
C3126 H3139 0.962 . S
C3126 H3140 0.960 . S
C3127 C3124 1.511 . S
C3127 H3141 0.961 1_554 S
C3127 H3142 0.961 . S
C3127 H3143 0.961 1_554 S
C3128 C3129 1.371 1_545 S
C3128 C3130 1.363 1_545 S
C3128 H3144 0.931 . S
C3129 C3128 1.371 1_565 S
C3129 C3133 1.407 . S
C3130 C3128 1.363 1_565 S
C3130 C3131 1.370 . S
C3130 C3134 1.524 . S
C3131 C3123 1.503 . S
C3131 C3130 1.370 . S
C3131 C3132 1.403 . S
C3132 C3131 1.403 . S
C3132 C3133 1.404 . S
C3132 C3135 1.539 . S
C3133 C3129 1.407 . S
C3133 C3132 1.404 . S
C3133 H3145 0.930 . S
C3134 C3130 1.524 . S
C3134 H3146 0.956 . S
C3134 H3147 0.961 . S
C3134 H3148 0.961 1_565 S
C3135 C3132 1.539 . S
C3135 H3149 0.958 . S
C3135 H3150 0.961 . S
C3135 H3151 0.960 . S
H3136 C3120 0.931 . S
H3137 C3125 0.929 . S
H3138 C3126 0.960 . S
H3139 C3126 0.962 . S
H3140 C3126 0.960 . S
H3141 C3127 0.961 1_556 S
H3142 C3127 0.961 . S
H3143 C3127 0.961 1_556 S
H3144 C3128 0.931 . S
H3145 C3133 0.930 . S
H3146 C3134 0.956 . S
H3147 C3134 0.961 . S
H3148 C3134 0.961 1_545 S
H3149 C3135 0.958 . S
H3150 C3135 0.961 . S
H3151 C3135 0.960 . S
C3152 C3153 1.391 . S
C3152 C3154 1.394 . S
C3152 H3168 0.931 . S
C3153 C3152 1.391 . S
C3153 C3157 1.376 . S
C3154 C3152 1.394 . S
C3154 C3155 1.369 . S
C3154 C3158 1.531 . S
C3155 C3154 1.369 . S
C3155 C3156 1.410 . S
C3155 C3163 1.503 . S
C3156 C3155 1.410 . S
C3156 C3157 1.392 . S
C3156 C3159 1.511 . S
C3157 C3153 1.376 . S
C3157 C3156 1.392 . S
C3157 H3169 0.929 . S
C3158 C3154 1.531 . S
C3158 H3170 0.960 . S
C3158 H3171 0.962 . S
C3158 H3172 0.960 . S
C3159 C3156 1.511 . S
C3159 H3173 0.961 . S
C3159 H3174 0.961 . S
C3159 H3175 0.961 . S
C3160 C3161 1.370 . S
C3160 C3162 1.363 . S
C3160 H3176 0.931 . S
C3161 C3160 1.370 . S
C3161 C3165 1.408 . S
C3162 C3160 1.363 . S
C3162 C3163 1.370 . S
C3162 C3166 1.524 . S
C3163 C3155 1.503 . S
C3163 C3162 1.370 . S
C3163 C3164 1.403 . S
C3164 C3163 1.403 . S
C3164 C3165 1.404 . S
C3164 C3167 1.539 . S
C3165 C3161 1.408 . S
C3165 C3164 1.404 . S
C3165 H3177 0.930 . S
C3166 C3162 1.524 . S
C3166 H3178 0.956 . S
C3166 H3179 0.961 . S
C3166 H3180 0.961 . S
C3167 C3164 1.539 . S
C3167 H3181 0.958 . S
C3167 H3182 0.961 . S
C3167 H3183 0.960 . S
H3168 C3152 0.931 . S
H3169 C3157 0.929 . S
H3170 C3158 0.960 . S
H3171 C3158 0.962 . S
H3172 C3158 0.960 . S
H3173 C3159 0.961 . S
H3174 C3159 0.961 . S
H3175 C3159 0.961 . S
H3176 C3160 0.931 . S
H3177 C3165 0.930 . S
H3178 C3166 0.956 . S
H3179 C3166 0.961 . S
H3180 C3166 0.961 . S
H3181 C3167 0.958 . S
H3182 C3167 0.961 . S
H3183 C3167 0.960 . S
C3184 C3185 1.391 . S
C3184 C3186 1.394 . S
C3184 H3200 0.931 . S
C3185 C3184 1.391 . S
C3185 C3189 1.376 . S
C3186 C3184 1.394 . S
C3186 C3187 1.369 . S
C3186 C3190 1.531 . S
C3187 C3186 1.369 . S
C3187 C3188 1.410 . S
C3187 C3195 1.503 . S
C3188 C3187 1.410 . S
C3188 C3189 1.392 . S
C3188 C3191 1.511 1_554 S
C3189 C3185 1.376 . S
C3189 C3188 1.392 . S
C3189 H3201 0.929 1_554 S
C3190 C3186 1.531 . S
C3190 H3202 0.960 . S
C3190 H3203 0.962 . S
C3190 H3204 0.960 . S
C3191 C3188 1.511 1_556 S
C3191 H3205 0.961 . S
C3191 H3206 0.961 . S
C3191 H3207 0.961 . S
C3192 C3193 1.370 . S
C3192 C3194 1.363 . S
C3192 H3208 0.931 . S
C3193 C3192 1.370 . S
C3193 C3197 1.408 . S
C3194 C3192 1.363 . S
C3194 C3195 1.370 . S
C3194 C3198 1.524 . S
C3195 C3187 1.503 . S
C3195 C3194 1.370 . S
C3195 C3196 1.403 . S
C3196 C3195 1.403 . S
C3196 C3197 1.404 . S
C3196 C3199 1.539 . S
C3197 C3193 1.408 . S
C3197 C3196 1.404 . S
C3197 H3209 0.930 . S
C3198 C3194 1.524 . S
C3198 H3210 0.956 . S
C3198 H3211 0.961 . S
C3198 H3212 0.961 . S
C3199 C3196 1.539 . S
C3199 H3213 0.958 . S
C3199 H3214 0.961 . S
C3199 H3215 0.960 . S
H3200 C3184 0.931 . S
H3201 C3189 0.929 1_556 S
H3202 C3190 0.960 . S
H3203 C3190 0.962 . S
H3204 C3190 0.960 . S
H3205 C3191 0.961 . S
H3206 C3191 0.961 . S
H3207 C3191 0.961 . S
H3208 C3192 0.931 . S
H3209 C3197 0.930 . S
H3210 C3198 0.956 . S
H3211 C3198 0.961 . S
H3212 C3198 0.961 . S
H3213 C3199 0.958 . S
H3214 C3199 0.961 . S
H3215 C3199 0.960 . S
C3216 C3217 1.391 . S
C3216 C3218 1.394 . S
C3216 H3232 0.931 . S
C3217 C3216 1.391 . S
C3217 C3221 1.376 . S
C3218 C3216 1.394 . S
C3218 C3219 1.369 . S
C3218 C3222 1.531 . S
C3219 C3218 1.369 . S
C3219 C3220 1.410 . S
C3219 C3227 1.503 . S
C3220 C3219 1.410 . S
C3220 C3221 1.392 . S
C3220 C3223 1.511 . S
C3221 C3217 1.376 . S
C3221 C3220 1.392 . S
C3221 H3233 0.929 . S
C3222 C3218 1.531 . S
C3222 H3234 0.960 . S
C3222 H3235 0.962 . S
C3222 H3236 0.960 . S
C3223 C3220 1.511 . S
C3223 H3237 0.961 . S
C3223 H3238 0.961 . S
C3223 H3239 0.961 . S
C3224 C3225 1.370 . S
C3224 C3226 1.363 . S
C3224 H3240 0.931 . S
C3225 C3224 1.370 . S
C3225 C3229 1.408 . S
C3226 C3224 1.363 . S
C3226 C3227 1.370 . S
C3226 C3230 1.524 . S
C3227 C3219 1.503 . S
C3227 C3226 1.370 . S
C3227 C3228 1.403 . S
C3228 C3227 1.403 . S
C3228 C3229 1.404 . S
C3228 C3231 1.539 . S
C3229 C3225 1.408 . S
C3229 C3228 1.404 . S
C3229 H3241 0.930 . S
C3230 C3226 1.524 . S
C3230 H3242 0.956 . S
C3230 H3243 0.961 . S
C3230 H3244 0.961 . S
C3231 C3228 1.539 . S
C3231 H3245 0.958 . S
C3231 H3246 0.961 . S
C3231 H3247 0.960 . S
H3232 C3216 0.931 . S
H3233 C3221 0.929 . S
H3234 C3222 0.960 . S
H3235 C3222 0.962 . S
H3236 C3222 0.960 . S
H3237 C3223 0.961 . S
H3238 C3223 0.961 . S
H3239 C3223 0.961 . S
H3240 C3224 0.931 . S
H3241 C3229 0.930 . S
H3242 C3230 0.956 . S
H3243 C3230 0.961 . S
H3244 C3230 0.961 . S
H3245 C3231 0.958 . S
H3246 C3231 0.961 . S
H3247 C3231 0.960 . S
C3248 C3249 1.391 . S
C3248 C3250 1.394 1_545 S
C3248 H3264 0.931 . S
C3249 C3248 1.391 . S
C3249 C3253 1.376 1_545 S
C3250 C3248 1.394 1_565 S
C3250 C3251 1.369 . S
C3250 C3254 1.531 . S
C3251 C3250 1.369 . S
C3251 C3252 1.410 . S
C3251 C3259 1.503 . S
C3252 C3251 1.410 . S
C3252 C3253 1.392 . S
C3252 C3255 1.511 . S
C3253 C3249 1.376 1_565 S
C3253 C3252 1.392 . S
C3253 H3265 0.929 . S
C3254 C3250 1.531 . S
C3254 H3266 0.960 . S
C3254 H3267 0.962 . S
C3254 H3268 0.960 1_565 S
C3255 C3252 1.511 . S
C3255 H3269 0.961 . S
C3255 H3270 0.961 . S
C3255 H3271 0.961 . S
C3256 C3257 1.370 . S
C3256 C3258 1.363 . S
C3256 H3272 0.931 . S
C3257 C3256 1.370 . S
C3257 C3261 1.408 . S
C3258 C3256 1.363 . S
C3258 C3259 1.370 . S
C3258 C3262 1.524 . S
C3259 C3251 1.503 . S
C3259 C3258 1.370 . S
C3259 C3260 1.403 . S
C3260 C3259 1.403 . S
C3260 C3261 1.404 . S
C3260 C3263 1.539 . S
C3261 C3257 1.408 . S
C3261 C3260 1.404 . S
C3261 H3273 0.930 . S
C3262 C3258 1.524 . S
C3262 H3274 0.956 . S
C3262 H3275 0.961 . S
C3262 H3276 0.961 . S
C3263 C3260 1.539 . S
C3263 H3277 0.958 . S
C3263 H3278 0.961 . S
C3263 H3279 0.960 . S
H3264 C3248 0.931 . S
H3265 C3253 0.929 . S
H3266 C3254 0.960 . S
H3267 C3254 0.962 . S
H3268 C3254 0.960 1_545 S
H3269 C3255 0.961 . S
H3270 C3255 0.961 . S
H3271 C3255 0.961 . S
H3272 C3256 0.931 . S
H3273 C3261 0.930 . S
H3274 C3262 0.956 . S
H3275 C3262 0.961 . S
H3276 C3262 0.961 . S
H3277 C3263 0.958 . S
H3278 C3263 0.961 . S
H3279 C3263 0.960 . S
C3280 C3281 1.391 . S
C3280 C3282 1.394 . S
C3280 H3296 0.931 . S
C3281 C3280 1.391 . S
C3281 C3285 1.376 . S
C3282 C3280 1.394 . S
C3282 C3283 1.369 . S
C3282 C3286 1.531 . S
C3283 C3282 1.369 . S
C3283 C3284 1.410 . S
C3283 C3291 1.503 . S
C3284 C3283 1.410 . S
C3284 C3285 1.392 . S
C3284 C3287 1.511 . S
C3285 C3281 1.376 . S
C3285 C3284 1.392 . S
C3285 H3297 0.929 . S
C3286 C3282 1.531 . S
C3286 H3298 0.960 . S
C3286 H3299 0.962 . S
C3286 H3300 0.960 . S
C3287 C3284 1.511 . S
C3287 H3301 0.961 . S
C3287 H3302 0.961 . S
C3287 H3303 0.961 . S
C3288 C3289 1.370 . S
C3288 C3290 1.363 . S
C3288 H3304 0.931 . S
C3289 C3288 1.370 . S
C3289 C3293 1.408 . S
C3290 C3288 1.363 . S
C3290 C3291 1.370 . S
C3290 C3294 1.524 . S
C3291 C3283 1.503 . S
C3291 C3290 1.370 . S
C3291 C3292 1.403 . S
C3292 C3291 1.403 . S
C3292 C3293 1.404 . S
C3292 C3295 1.539 . S
C3293 C3289 1.408 . S
C3293 C3292 1.404 . S
C3293 H3305 0.930 . S
C3294 C3290 1.524 . S
C3294 H3306 0.956 . S
C3294 H3307 0.961 . S
C3294 H3308 0.961 . S
C3295 C3292 1.539 . S
C3295 H3309 0.958 . S
C3295 H3310 0.961 . S
C3295 H3311 0.960 . S
H3296 C3280 0.931 . S
H3297 C3285 0.929 . S
H3298 C3286 0.960 . S
H3299 C3286 0.962 . S
H3300 C3286 0.960 . S
H3301 C3287 0.961 . S
H3302 C3287 0.961 . S
H3303 C3287 0.961 . S
H3304 C3288 0.931 . S
H3305 C3293 0.930 . S
H3306 C3294 0.956 . S
H3307 C3294 0.961 . S
H3308 C3294 0.961 . S
H3309 C3295 0.958 . S
H3310 C3295 0.961 . S
H3311 C3295 0.960 . S
C3312 C3313 1.391 . S
C3312 C3314 1.394 . S
C3312 H3328 0.931 . S
C3313 C3312 1.391 . S
C3313 C3317 1.376 . S
C3314 C3312 1.394 . S
C3314 C3315 1.369 . S
C3314 C3318 1.531 . S
C3315 C3314 1.369 . S
C3315 C3316 1.410 . S
C3315 C3323 1.503 . S
C3316 C3315 1.410 . S
C3316 C3317 1.392 . S
C3316 C3319 1.511 . S
C3317 C3313 1.376 . S
C3317 C3316 1.392 . S
C3317 H3329 0.929 . S
C3318 C3314 1.531 . S
C3318 H3330 0.960 . S
C3318 H3331 0.962 . S
C3318 H3332 0.960 . S
C3319 C3316 1.511 . S
C3319 H3333 0.961 . S
C3319 H3334 0.961 . S
C3319 H3335 0.961 . S
C3320 C3321 1.370 . S
C3320 C3322 1.363 . S
C3320 H3336 0.931 . S
C3321 C3320 1.370 . S
C3321 C3325 1.408 . S
C3322 C3320 1.363 . S
C3322 C3323 1.370 . S
C3322 C3326 1.524 . S
C3323 C3315 1.503 . S
C3323 C3322 1.370 . S
C3323 C3324 1.403 . S
C3324 C3323 1.403 . S
C3324 C3325 1.404 . S
C3324 C3327 1.539 . S
C3325 C3321 1.408 . S
C3325 C3324 1.404 . S
C3325 H3337 0.930 . S
C3326 C3322 1.524 . S
C3326 H3338 0.956 . S
C3326 H3339 0.961 . S
C3326 H3340 0.961 . S
C3327 C3324 1.539 . S
C3327 H3341 0.958 . S
C3327 H3342 0.961 . S
C3327 H3343 0.960 . S
H3328 C3312 0.931 . S
H3329 C3317 0.929 . S
H3330 C3318 0.960 . S
H3331 C3318 0.962 . S
H3332 C3318 0.960 . S
H3333 C3319 0.961 . S
H3334 C3319 0.961 . S
H3335 C3319 0.961 . S
H3336 C3320 0.931 . S
H3337 C3325 0.930 . S
H3338 C3326 0.956 . S
H3339 C3326 0.961 . S
H3340 C3326 0.961 . S
H3341 C3327 0.958 . S
H3342 C3327 0.961 . S
H3343 C3327 0.960 . S
C3344 C3345 1.391 . S
C3344 C3346 1.394 . S
C3344 H3360 0.931 . S
C3345 C3344 1.391 . S
C3345 C3349 1.376 . S
C3346 C3344 1.394 . S
C3346 C3347 1.369 . S
C3346 C3350 1.531 . S
C3347 C3346 1.369 . S
C3347 C3348 1.410 . S
C3347 C3355 1.503 . S
C3348 C3347 1.410 . S
C3348 C3349 1.392 . S
C3348 C3351 1.511 . S
C3349 C3345 1.376 . S
C3349 C3348 1.392 . S
C3349 H3361 0.929 . S
C3350 C3346 1.531 . S
C3350 H3362 0.960 . S
C3350 H3363 0.962 . S
C3350 H3364 0.960 . S
C3351 C3348 1.511 . S
C3351 H3365 0.961 . S
C3351 H3366 0.961 . S
C3351 H3367 0.961 . S
C3352 C3353 1.370 . S
C3352 C3354 1.363 . S
C3352 H3368 0.931 . S
C3353 C3352 1.370 . S
C3353 C3357 1.408 . S
C3354 C3352 1.363 . S
C3354 C3355 1.370 . S
C3354 C3358 1.524 . S
C3355 C3347 1.503 . S
C3355 C3354 1.370 . S
C3355 C3356 1.403 . S
C3356 C3355 1.403 . S
C3356 C3357 1.404 . S
C3356 C3359 1.539 . S
C3357 C3353 1.408 . S
C3357 C3356 1.404 . S
C3357 H3369 0.930 . S
C3358 C3354 1.524 . S
C3358 H3370 0.956 . S
C3358 H3371 0.961 . S
C3358 H3372 0.961 . S
C3359 C3356 1.539 . S
C3359 H3373 0.958 . S
C3359 H3374 0.961 . S
C3359 H3375 0.960 . S
H3360 C3344 0.931 . S
H3361 C3349 0.929 . S
H3362 C3350 0.960 . S
H3363 C3350 0.962 . S
H3364 C3350 0.960 . S
H3365 C3351 0.961 . S
H3366 C3351 0.961 . S
H3367 C3351 0.961 . S
H3368 C3352 0.931 . S
H3369 C3357 0.930 . S
H3370 C3358 0.956 . S
H3371 C3358 0.961 . S
H3372 C3358 0.961 . S
H3373 C3359 0.958 . S
H3374 C3359 0.961 . S
H3375 C3359 0.960 . S
C3376 C3377 1.391 . S
C3376 C3378 1.394 . S
C3376 H3392 0.931 . S
C3377 C3376 1.391 . S
C3377 C3381 1.376 . S
C3378 C3376 1.394 . S
C3378 C3379 1.369 . S
C3378 C3382 1.531 . S
C3379 C3378 1.369 . S
C3379 C3380 1.410 . S
C3379 C3387 1.503 . S
C3380 C3379 1.410 . S
C3380 C3381 1.392 . S
C3380 C3383 1.511 . S
C3381 C3377 1.376 . S
C3381 C3380 1.392 . S
C3381 H3393 0.929 . S
C3382 C3378 1.531 . S
C3382 H3394 0.960 . S
C3382 H3395 0.962 . S
C3382 H3396 0.960 . S
C3383 C3380 1.511 . S
C3383 H3397 0.961 . S
C3383 H3398 0.961 . S
C3383 H3399 0.961 . S
C3384 C3385 1.370 . S
C3384 C3386 1.363 . S
C3384 H3400 0.931 . S
C3385 C3384 1.370 . S
C3385 C3389 1.408 . S
C3386 C3384 1.363 . S
C3386 C3387 1.370 . S
C3386 C3390 1.524 . S
C3387 C3379 1.503 . S
C3387 C3386 1.370 . S
C3387 C3388 1.403 . S
C3388 C3387 1.403 . S
C3388 C3389 1.404 . S
C3388 C3391 1.539 . S
C3389 C3385 1.408 . S
C3389 C3388 1.404 . S
C3389 H3401 0.930 . S
C3390 C3386 1.524 . S
C3390 H3402 0.956 . S
C3390 H3403 0.961 . S
C3390 H3404 0.961 . S
C3391 C3388 1.539 . S
C3391 H3405 0.958 . S
C3391 H3406 0.961 . S
C3391 H3407 0.960 . S
H3392 C3376 0.931 . S
H3393 C3381 0.929 . S
H3394 C3382 0.960 . S
H3395 C3382 0.962 . S
H3396 C3382 0.960 . S
H3397 C3383 0.961 . S
H3398 C3383 0.961 . S
H3399 C3383 0.961 . S
H3400 C3384 0.931 . S
H3401 C3389 0.930 . S
H3402 C3390 0.956 . S
H3403 C3390 0.961 . S
H3404 C3390 0.961 . S
H3405 C3391 0.958 . S
H3406 C3391 0.961 . S
H3407 C3391 0.960 . S
C3408 C3409 1.391 . S
C3408 C3410 1.394 . S
C3408 H3424 0.931 . S
C3409 C3408 1.391 . S
C3409 C3413 1.376 . S
C3410 C3408 1.394 . S
C3410 C3411 1.369 . S
C3410 C3414 1.531 . S
C3411 C3410 1.369 . S
C3411 C3412 1.410 . S
C3411 C3419 1.503 . S
C3412 C3411 1.410 . S
C3412 C3413 1.392 . S
C3412 C3415 1.511 . S
C3413 C3409 1.376 . S
C3413 C3412 1.392 . S
C3413 H3425 0.929 . S
C3414 C3410 1.531 . S
C3414 H3426 0.960 . S
C3414 H3427 0.962 . S
C3414 H3428 0.960 . S
C3415 C3412 1.511 . S
C3415 H3429 0.961 . S
C3415 H3430 0.961 . S
C3415 H3431 0.961 . S
C3416 C3417 1.370 . S
C3416 C3418 1.363 . S
C3416 H3432 0.931 . S
C3417 C3416 1.370 . S
C3417 C3421 1.408 . S
C3418 C3416 1.363 . S
C3418 C3419 1.370 . S
C3418 C3422 1.524 . S
C3419 C3411 1.503 . S
C3419 C3418 1.370 . S
C3419 C3420 1.403 . S
C3420 C3419 1.403 . S
C3420 C3421 1.404 . S
C3420 C3423 1.539 . S
C3421 C3417 1.408 . S
C3421 C3420 1.404 . S
C3421 H3433 0.930 1_556 S
C3422 C3418 1.524 . S
C3422 H3434 0.956 . S
C3422 H3435 0.961 . S
C3422 H3436 0.961 . S
C3423 C3420 1.539 . S
C3423 H3437 0.958 1_556 S
C3423 H3438 0.961 . S
C3423 H3439 0.960 . S
H3424 C3408 0.931 . S
H3425 C3413 0.929 . S
H3426 C3414 0.960 . S
H3427 C3414 0.962 . S
H3428 C3414 0.960 . S
H3429 C3415 0.961 . S
H3430 C3415 0.961 . S
H3431 C3415 0.961 . S
H3432 C3416 0.931 . S
H3433 C3421 0.930 1_554 S
H3434 C3422 0.956 . S
H3435 C3422 0.961 . S
H3436 C3422 0.961 . S
H3437 C3423 0.958 1_554 S
H3438 C3423 0.961 . S
H3439 C3423 0.960 . S
C3440 C3441 1.391 . S
C3440 C3442 1.394 . S
C3440 H3456 0.931 . S
C3441 C3440 1.391 . S
C3441 C3445 1.376 . S
C3442 C3440 1.394 . S
C3442 C3443 1.369 . S
C3442 C3446 1.531 . S
C3443 C3442 1.369 . S
C3443 C3444 1.410 . S
C3443 C3451 1.503 . S
C3444 C3443 1.410 . S
C3444 C3445 1.392 . S
C3444 C3447 1.511 . S
C3445 C3441 1.376 . S
C3445 C3444 1.392 . S
C3445 H3457 0.929 . S
C3446 C3442 1.531 . S
C3446 H3458 0.960 . S
C3446 H3459 0.962 . S
C3446 H3460 0.960 . S
C3447 C3444 1.511 . S
C3447 H3461 0.961 . S
C3447 H3462 0.961 . S
C3447 H3463 0.961 . S
C3448 C3449 1.370 . S
C3448 C3450 1.363 . S
C3448 H3464 0.931 . S
C3449 C3448 1.370 . S
C3449 C3453 1.408 . S
C3450 C3448 1.363 . S
C3450 C3451 1.370 . S
C3450 C3454 1.524 . S
C3451 C3443 1.503 . S
C3451 C3450 1.370 . S
C3451 C3452 1.403 . S
C3452 C3451 1.403 . S
C3452 C3453 1.404 . S
C3452 C3455 1.539 . S
C3453 C3449 1.408 . S
C3453 C3452 1.404 . S
C3453 H3465 0.930 . S
C3454 C3450 1.524 . S
C3454 H3466 0.956 . S
C3454 H3467 0.961 . S
C3454 H3468 0.961 . S
C3455 C3452 1.539 . S
C3455 H3469 0.958 . S
C3455 H3470 0.961 . S
C3455 H3471 0.960 . S
H3456 C3440 0.931 . S
H3457 C3445 0.929 . S
H3458 C3446 0.960 . S
H3459 C3446 0.962 . S
H3460 C3446 0.960 . S
H3461 C3447 0.961 . S
H3462 C3447 0.961 . S
H3463 C3447 0.961 . S
H3464 C3448 0.931 . S
H3465 C3453 0.930 . S
H3466 C3454 0.956 . S
H3467 C3454 0.961 . S
H3468 C3454 0.961 . S
H3469 C3455 0.958 . S
H3470 C3455 0.961 . S
H3471 C3455 0.960 . S
C3472 C3473 1.391 . S
C3472 C3474 1.394 . S
C3472 H3488 0.931 . S
C3473 C3472 1.391 . S
C3473 C3477 1.376 . S
C3474 C3472 1.394 . S
C3474 C3475 1.369 . S
C3474 C3478 1.531 . S
C3475 C3474 1.369 . S
C3475 C3476 1.410 . S
C3475 C3483 1.503 . S
C3476 C3475 1.410 . S
C3476 C3477 1.392 . S
C3476 C3479 1.511 . S
C3477 C3473 1.376 . S
C3477 C3476 1.392 . S
C3477 H3489 0.929 . S
C3478 C3474 1.531 . S
C3478 H3490 0.960 . S
C3478 H3491 0.962 . S
C3478 H3492 0.960 . S
C3479 C3476 1.511 . S
C3479 H3493 0.961 . S
C3479 H3494 0.961 . S
C3479 H3495 0.961 . S
C3480 C3481 1.370 . S
C3480 C3482 1.363 . S
C3480 H3496 0.931 . S
C3481 C3480 1.370 . S
C3481 C3485 1.408 . S
C3482 C3480 1.363 . S
C3482 C3483 1.370 . S
C3482 C3486 1.524 . S
C3483 C3475 1.503 . S
C3483 C3482 1.370 . S
C3483 C3484 1.403 . S
C3484 C3483 1.403 . S
C3484 C3485 1.404 . S
C3484 C3487 1.539 . S
C3485 C3481 1.408 . S
C3485 C3484 1.404 . S
C3485 H3497 0.930 . S
C3486 C3482 1.524 . S
C3486 H3498 0.956 . S
C3486 H3499 0.961 . S
C3486 H3500 0.961 . S
C3487 C3484 1.539 . S
C3487 H3501 0.958 . S
C3487 H3502 0.961 . S
C3487 H3503 0.960 . S
H3488 C3472 0.931 . S
H3489 C3477 0.929 . S
H3490 C3478 0.960 . S
H3491 C3478 0.962 . S
H3492 C3478 0.960 . S
H3493 C3479 0.961 . S
H3494 C3479 0.961 . S
H3495 C3479 0.961 . S
H3496 C3480 0.931 . S
H3497 C3485 0.930 . S
H3498 C3486 0.956 . S
H3499 C3486 0.961 . S
H3500 C3486 0.961 . S
H3501 C3487 0.958 . S
H3502 C3487 0.961 . S
H3503 C3487 0.960 . S
C3504 C3505 1.391 . S
C3504 C3506 1.394 . S
C3504 H3520 0.931 . S
C3505 C3504 1.391 . S
C3505 C3509 1.376 . S
C3506 C3504 1.394 . S
C3506 C3507 1.369 . S
C3506 C3510 1.531 . S
C3507 C3506 1.369 . S
C3507 C3508 1.410 . S
C3507 C3515 1.503 . S
C3508 C3507 1.410 . S
C3508 C3509 1.392 . S
C3508 C3511 1.511 . S
C3509 C3505 1.376 . S
C3509 C3508 1.392 . S
C3509 H3521 0.929 . S
C3510 C3506 1.531 . S
C3510 H3522 0.960 . S
C3510 H3523 0.962 . S
C3510 H3524 0.960 . S
C3511 C3508 1.511 . S
C3511 H3525 0.961 . S
C3511 H3526 0.961 . S
C3511 H3527 0.961 . S
C3512 C3513 1.370 . S
C3512 C3514 1.363 . S
C3512 H3528 0.931 . S
C3513 C3512 1.370 . S
C3513 C3517 1.408 . S
C3514 C3512 1.363 . S
C3514 C3515 1.370 . S
C3514 C3518 1.524 . S
C3515 C3507 1.503 . S
C3515 C3514 1.370 . S
C3515 C3516 1.403 . S
C3516 C3515 1.403 . S
C3516 C3517 1.404 . S
C3516 C3519 1.539 . S
C3517 C3513 1.408 . S
C3517 C3516 1.404 . S
C3517 H3529 0.930 . S
C3518 C3514 1.524 . S
C3518 H3530 0.956 . S
C3518 H3531 0.961 . S
C3518 H3532 0.961 . S
C3519 C3516 1.539 . S
C3519 H3533 0.958 . S
C3519 H3534 0.961 . S
C3519 H3535 0.960 . S
H3520 C3504 0.931 . S
H3521 C3509 0.929 . S
H3522 C3510 0.960 . S
H3523 C3510 0.962 . S
H3524 C3510 0.960 . S
H3525 C3511 0.961 . S
H3526 C3511 0.961 . S
H3527 C3511 0.961 . S
H3528 C3512 0.931 . S
H3529 C3517 0.930 . S
H3530 C3518 0.956 . S
H3531 C3518 0.961 . S
H3532 C3518 0.961 . S
H3533 C3519 0.958 . S
H3534 C3519 0.961 . S
H3535 C3519 0.960 . S
C3536 C3537 1.391 . S
C3536 C3538 1.394 . S
C3536 H3552 0.931 . S
C3537 C3536 1.391 . S
C3537 C3541 1.376 . S
C3538 C3536 1.394 . S
C3538 C3539 1.369 . S
C3538 C3542 1.531 . S
C3539 C3538 1.369 . S
C3539 C3540 1.410 . S
C3539 C3547 1.503 . S
C3540 C3539 1.410 . S
C3540 C3541 1.392 . S
C3540 C3543 1.511 . S
C3541 C3537 1.376 . S
C3541 C3540 1.392 . S
C3541 H3553 0.929 . S
C3542 C3538 1.531 . S
C3542 H3554 0.960 . S
C3542 H3555 0.962 . S
C3542 H3556 0.960 . S
C3543 C3540 1.511 . S
C3543 H3557 0.961 . S
C3543 H3558 0.961 . S
C3543 H3559 0.961 . S
C3544 C3545 1.370 . S
C3544 C3546 1.363 . S
C3544 H3560 0.931 . S
C3545 C3544 1.370 . S
C3545 C3549 1.408 . S
C3546 C3544 1.363 . S
C3546 C3547 1.370 . S
C3546 C3550 1.524 . S
C3547 C3539 1.503 . S
C3547 C3546 1.370 . S
C3547 C3548 1.403 . S
C3548 C3547 1.403 . S
C3548 C3549 1.404 . S
C3548 C3551 1.539 . S
C3549 C3545 1.408 . S
C3549 C3548 1.404 . S
C3549 H3561 0.930 . S
C3550 C3546 1.524 . S
C3550 H3562 0.956 . S
C3550 H3563 0.961 . S
C3550 H3564 0.961 . S
C3551 C3548 1.539 . S
C3551 H3565 0.958 . S
C3551 H3566 0.961 . S
C3551 H3567 0.960 . S
H3552 C3536 0.931 . S
H3553 C3541 0.929 . S
H3554 C3542 0.960 . S
H3555 C3542 0.962 . S
H3556 C3542 0.960 . S
H3557 C3543 0.961 . S
H3558 C3543 0.961 . S
H3559 C3543 0.961 . S
H3560 C3544 0.931 . S
H3561 C3549 0.930 . S
H3562 C3550 0.956 . S
H3563 C3550 0.961 . S
H3564 C3550 0.961 . S
H3565 C3551 0.958 . S
H3566 C3551 0.961 . S
H3567 C3551 0.960 . S
C3568 C3569 1.391 . S
C3568 C3570 1.394 . S
C3568 H3584 0.931 . S
C3569 C3568 1.391 . S
C3569 C3573 1.376 . S
C3570 C3568 1.394 . S
C3570 C3571 1.369 . S
C3570 C3574 1.531 . S
C3571 C3570 1.369 . S
C3571 C3572 1.410 . S
C3571 C3579 1.503 . S
C3572 C3571 1.410 . S
C3572 C3573 1.392 . S
C3572 C3575 1.511 . S
C3573 C3569 1.376 . S
C3573 C3572 1.392 . S
C3573 H3585 0.929 . S
C3574 C3570 1.531 . S
C3574 H3586 0.960 . S
C3574 H3587 0.962 . S
C3574 H3588 0.960 . S
C3575 C3572 1.511 . S
C3575 H3589 0.961 . S
C3575 H3590 0.961 . S
C3575 H3591 0.961 . S
C3576 C3577 1.370 . S
C3576 C3578 1.363 . S
C3576 H3592 0.931 . S
C3577 C3576 1.370 . S
C3577 C3581 1.408 . S
C3578 C3576 1.363 . S
C3578 C3579 1.370 . S
C3578 C3582 1.524 . S
C3579 C3571 1.503 . S
C3579 C3578 1.370 . S
C3579 C3580 1.403 . S
C3580 C3579 1.403 . S
C3580 C3581 1.404 . S
C3580 C3583 1.539 . S
C3581 C3577 1.408 . S
C3581 C3580 1.404 . S
C3581 H3593 0.930 . S
C3582 C3578 1.524 . S
C3582 H3594 0.956 . S
C3582 H3595 0.961 . S
C3582 H3596 0.961 . S
C3583 C3580 1.539 . S
C3583 H3597 0.958 . S
C3583 H3598 0.961 . S
C3583 H3599 0.960 . S
H3584 C3568 0.931 . S
H3585 C3573 0.929 . S
H3586 C3574 0.960 . S
H3587 C3574 0.962 . S
H3588 C3574 0.960 . S
H3589 C3575 0.961 . S
H3590 C3575 0.961 . S
H3591 C3575 0.961 . S
H3592 C3576 0.931 . S
H3593 C3581 0.930 . S
H3594 C3582 0.956 . S
H3595 C3582 0.961 . S
H3596 C3582 0.961 . S
H3597 C3583 0.958 . S
H3598 C3583 0.961 . S
H3599 C3583 0.960 . S
C3600 C3601 1.391 . S
C3600 C3602 1.394 . S
C3600 H3616 0.931 1_455 S
C3601 C3600 1.391 . S
C3601 C3605 1.376 . S
C3602 C3600 1.394 . S
C3602 C3603 1.369 . S
C3602 C3606 1.531 1_455 S
C3603 C3602 1.369 . S
C3603 C3604 1.410 . S
C3603 C3611 1.503 . S
C3604 C3603 1.410 . S
C3604 C3605 1.392 . S
C3604 C3607 1.511 . S
C3605 C3601 1.376 . S
C3605 C3604 1.392 . S
C3605 H3617 0.929 . S
C3606 C3602 1.531 1_655 S
C3606 H3618 0.960 . S
C3606 H3619 0.962 . S
C3606 H3620 0.960 . S
C3607 C3604 1.511 . S
C3607 H3621 0.961 . S
C3607 H3622 0.961 . S
C3607 H3623 0.961 . S
C3608 C3609 1.370 . S
C3608 C3610 1.363 . S
C3608 H3624 0.931 . S
C3609 C3608 1.370 . S
C3609 C3613 1.408 . S
C3610 C3608 1.363 . S
C3610 C3611 1.370 . S
C3610 C3614 1.524 . S
C3611 C3603 1.503 . S
C3611 C3610 1.370 . S
C3611 C3612 1.403 . S
C3612 C3611 1.403 . S
C3612 C3613 1.404 . S
C3612 C3615 1.539 . S
C3613 C3609 1.408 . S
C3613 C3612 1.404 . S
C3613 H3625 0.930 . S
C3614 C3610 1.524 . S
C3614 H3626 0.956 . S
C3614 H3627 0.961 . S
C3614 H3628 0.961 . S
C3615 C3612 1.539 . S
C3615 H3629 0.958 1_455 S
C3615 H3630 0.961 . S
C3615 H3631 0.960 . S
H3616 C3600 0.931 1_655 S
H3617 C3605 0.929 . S
H3618 C3606 0.960 . S
H3619 C3606 0.962 . S
H3620 C3606 0.960 . S
H3621 C3607 0.961 . S
H3622 C3607 0.961 . S
H3623 C3607 0.961 . S
H3624 C3608 0.931 . S
H3625 C3613 0.930 . S
H3626 C3614 0.956 . S
H3627 C3614 0.961 . S
H3628 C3614 0.961 . S
H3629 C3615 0.958 1_655 S
H3630 C3615 0.961 . S
H3631 C3615 0.960 . S
C3632 C3633 1.391 . S
C3632 C3634 1.394 . S
C3632 H3648 0.931 . S
C3633 C3632 1.391 . S
C3633 C3637 1.376 . S
C3634 C3632 1.394 . S
C3634 C3635 1.369 . S
C3634 C3638 1.531 . S
C3635 C3634 1.369 . S
C3635 C3636 1.410 . S
C3635 C3643 1.503 . S
C3636 C3635 1.410 . S
C3636 C3637 1.392 . S
C3636 C3639 1.511 . S
C3637 C3633 1.376 . S
C3637 C3636 1.392 . S
C3637 H3649 0.929 . S
C3638 C3634 1.531 . S
C3638 H3650 0.960 . S
C3638 H3651 0.962 . S
C3638 H3652 0.960 . S
C3639 C3636 1.511 . S
C3639 H3653 0.961 . S
C3639 H3654 0.961 . S
C3639 H3655 0.961 . S
C3640 C3641 1.370 . S
C3640 C3642 1.363 . S
C3640 H3656 0.931 . S
C3641 C3640 1.370 . S
C3641 C3645 1.408 . S
C3642 C3640 1.363 . S
C3642 C3643 1.370 . S
C3642 C3646 1.524 . S
C3643 C3635 1.503 . S
C3643 C3642 1.370 . S
C3643 C3644 1.403 . S
C3644 C3643 1.403 . S
C3644 C3645 1.404 . S
C3644 C3647 1.539 . S
C3645 C3641 1.408 . S
C3645 C3644 1.404 . S
C3645 H3657 0.930 . S
C3646 C3642 1.524 . S
C3646 H3658 0.956 . S
C3646 H3659 0.961 . S
C3646 H3660 0.961 . S
C3647 C3644 1.539 . S
C3647 H3661 0.958 . S
C3647 H3662 0.961 . S
C3647 H3663 0.960 . S
H3648 C3632 0.931 . S
H3649 C3637 0.929 . S
H3650 C3638 0.960 . S
H3651 C3638 0.962 . S
H3652 C3638 0.960 . S
H3653 C3639 0.961 . S
H3654 C3639 0.961 . S
H3655 C3639 0.961 . S
H3656 C3640 0.931 . S
H3657 C3645 0.930 . S
H3658 C3646 0.956 . S
H3659 C3646 0.961 . S
H3660 C3646 0.961 . S
H3661 C3647 0.958 . S
H3662 C3647 0.961 . S
H3663 C3647 0.960 . S
C3664 C3665 1.391 . S
C3664 C3666 1.394 . S
C3664 H3680 0.931 . S
C3665 C3664 1.391 . S
C3665 C3669 1.376 . S
C3666 C3664 1.394 . S
C3666 C3667 1.369 . S
C3666 C3670 1.531 . S
C3667 C3666 1.369 . S
C3667 C3668 1.410 . S
C3667 C3675 1.503 . S
C3668 C3667 1.410 . S
C3668 C3669 1.392 . S
C3668 C3671 1.511 . S
C3669 C3665 1.376 . S
C3669 C3668 1.392 . S
C3669 H3681 0.929 . S
C3670 C3666 1.531 . S
C3670 H3682 0.960 . S
C3670 H3683 0.962 . S
C3670 H3684 0.960 . S
C3671 C3668 1.511 . S
C3671 H3685 0.961 . S
C3671 H3686 0.961 . S
C3671 H3687 0.961 . S
C3672 C3673 1.370 . S
C3672 C3674 1.363 . S
C3672 H3688 0.931 . S
C3673 C3672 1.370 . S
C3673 C3677 1.408 . S
C3674 C3672 1.363 . S
C3674 C3675 1.370 . S
C3674 C3678 1.524 . S
C3675 C3667 1.503 . S
C3675 C3674 1.370 . S
C3675 C3676 1.403 . S
C3676 C3675 1.403 . S
C3676 C3677 1.404 . S
C3676 C3679 1.539 . S
C3677 C3673 1.408 . S
C3677 C3676 1.404 . S
C3677 H3689 0.930 . S
C3678 C3674 1.524 . S
C3678 H3690 0.956 . S
C3678 H3691 0.961 . S
C3678 H3692 0.961 . S
C3679 C3676 1.539 . S
C3679 H3693 0.958 . S
C3679 H3694 0.961 . S
C3679 H3695 0.960 . S
H3680 C3664 0.931 . S
H3681 C3669 0.929 . S
H3682 C3670 0.960 . S
H3683 C3670 0.962 . S
H3684 C3670 0.960 . S
H3685 C3671 0.961 . S
H3686 C3671 0.961 . S
H3687 C3671 0.961 . S
H3688 C3672 0.931 . S
H3689 C3677 0.930 . S
H3690 C3678 0.956 . S
H3691 C3678 0.961 . S
H3692 C3678 0.961 . S
H3693 C3679 0.958 . S
H3694 C3679 0.961 . S
H3695 C3679 0.960 . S
C3696 C3697 1.391 . S
C3696 C3698 1.394 . S
C3696 H3712 0.931 . S
C3697 C3696 1.391 . S
C3697 C3701 1.376 . S
C3698 C3696 1.394 . S
C3698 C3699 1.369 . S
C3698 C3702 1.531 . S
C3699 C3698 1.369 . S
C3699 C3700 1.410 . S
C3699 C3707 1.503 . S
C3700 C3699 1.410 . S
C3700 C3701 1.392 . S
C3700 C3703 1.511 . S
C3701 C3697 1.376 . S
C3701 C3700 1.392 . S
C3701 H3713 0.929 . S
C3702 C3698 1.531 . S
C3702 H3714 0.960 . S
C3702 H3715 0.962 . S
C3702 H3716 0.960 . S
C3703 C3700 1.511 . S
C3703 H3717 0.961 . S
C3703 H3718 0.961 . S
C3703 H3719 0.961 . S
C3704 C3705 1.370 . S
C3704 C3706 1.363 . S
C3704 H3720 0.931 . S
C3705 C3704 1.370 . S
C3705 C3709 1.408 . S
C3706 C3704 1.363 . S
C3706 C3707 1.370 . S
C3706 C3710 1.524 . S
C3707 C3699 1.503 . S
C3707 C3706 1.370 . S
C3707 C3708 1.403 . S
C3708 C3707 1.403 . S
C3708 C3709 1.404 . S
C3708 C3711 1.539 . S
C3709 C3705 1.408 . S
C3709 C3708 1.404 . S
C3709 H3721 0.930 . S
C3710 C3706 1.524 . S
C3710 H3722 0.956 . S
C3710 H3723 0.961 . S
C3710 H3724 0.961 . S
C3711 C3708 1.539 . S
C3711 H3725 0.958 . S
C3711 H3726 0.961 . S
C3711 H3727 0.960 . S
H3712 C3696 0.931 . S
H3713 C3701 0.929 . S
H3714 C3702 0.960 . S
H3715 C3702 0.962 . S
H3716 C3702 0.960 . S
H3717 C3703 0.961 . S
H3718 C3703 0.961 . S
H3719 C3703 0.961 . S
H3720 C3704 0.931 . S
H3721 C3709 0.930 . S
H3722 C3710 0.956 . S
H3723 C3710 0.961 . S
H3724 C3710 0.961 . S
H3725 C3711 0.958 . S
H3726 C3711 0.961 . S
H3727 C3711 0.960 . S
C3728 C3729 1.391 . S
C3728 C3730 1.394 . S
C3728 H3744 0.931 . S
C3729 C3728 1.391 . S
C3729 C3733 1.376 . S
C3730 C3728 1.394 . S
C3730 C3731 1.369 . S
C3730 C3734 1.527 1_455 S
C3731 C3730 1.369 . S
C3731 C3732 1.410 . S
C3731 C3739 1.503 . S
C3732 C3731 1.410 . S
C3732 C3733 1.392 . S
C3732 C3735 1.511 . S
C3733 C3729 1.376 . S
C3733 C3732 1.392 . S
C3733 H3745 0.929 . S
C3734 C3730 1.527 1_655 S
C3734 H3746 0.953 1_655 S
C3734 H3747 0.971 . S
C3734 H3748 0.962 1_655 S
C3735 C3732 1.511 . S
C3735 H3749 0.961 . S
C3735 H3750 0.961 . S
C3735 H3751 0.961 . S
C3736 C3737 1.370 1_655 S
C3736 C3738 1.356 . S
C3736 H3752 0.931 . S
C3737 C3736 1.370 1_455 S
C3737 C3741 1.408 . S
C3738 C3736 1.356 . S
C3738 C3739 1.339 1_655 S
C3738 C3742 1.565 . S
C3739 C3731 1.503 . S
C3739 C3738 1.339 1_455 S
C3739 C3740 1.403 . S
C3740 C3739 1.403 . S
C3740 C3741 1.404 . S
C3740 C3743 1.539 . S
C3741 C3737 1.408 . S
C3741 C3740 1.404 . S
C3741 H3753 0.930 . S
C3742 C3738 1.565 . S
C3742 H3754 0.956 . S
C3742 H3755 0.961 . S
C3742 H3756 0.961 . S
C3743 C3740 1.539 . S
C3743 H3757 0.958 . S
C3743 H3758 0.961 . S
C3743 H3759 0.960 . S
H3744 C3728 0.931 . S
H3745 C3733 0.929 . S
H3746 C3734 0.953 1_455 S
H3747 C3734 0.971 . S
H3748 C3734 0.962 1_455 S
H3749 C3735 0.961 . S
H3750 C3735 0.961 . S
H3751 C3735 0.961 . S
H3752 C3736 0.931 . S
H3753 C3741 0.930 . S
H3754 C3742 0.956 . S
H3755 C3742 0.961 . S
H3756 C3742 0.961 . S
H3757 C3743 0.958 . S
H3758 C3743 0.961 . S
H3759 C3743 0.960 . S
C3760 C3761 1.391 . S
C3760 C3762 1.394 . S
C3760 H3776 0.931 . S
C3761 C3760 1.391 . S
C3761 C3765 1.376 . S
C3762 C3760 1.394 . S
C3762 C3763 1.369 . S
C3762 C3766 1.531 . S
C3763 C3762 1.369 . S
C3763 C3764 1.410 . S
C3763 C3771 1.503 . S
C3764 C3763 1.410 . S
C3764 C3765 1.392 . S
C3764 C3767 1.511 . S
C3765 C3761 1.376 . S
C3765 C3764 1.392 . S
C3765 H3777 0.929 . S
C3766 C3762 1.531 . S
C3766 H3778 0.960 . S
C3766 H3779 0.962 . S
C3766 H3780 0.960 . S
C3767 C3764 1.511 . S
C3767 H3781 0.961 . S
C3767 H3782 0.961 . S
C3767 H3783 0.961 . S
C3768 C3769 1.370 . S
C3768 C3770 1.363 . S
C3768 H3784 0.931 . S
C3769 C3768 1.370 . S
C3769 C3773 1.408 . S
C3770 C3768 1.363 . S
C3770 C3771 1.370 . S
C3770 C3774 1.524 . S
C3771 C3763 1.503 . S
C3771 C3770 1.370 . S
C3771 C3772 1.403 . S
C3772 C3771 1.403 . S
C3772 C3773 1.404 . S
C3772 C3775 1.539 . S
C3773 C3769 1.408 . S
C3773 C3772 1.404 . S
C3773 H3785 0.930 . S
C3774 C3770 1.524 . S
C3774 H3786 0.956 . S
C3774 H3787 0.961 . S
C3774 H3788 0.961 . S
C3775 C3772 1.539 . S
C3775 H3789 0.958 . S
C3775 H3790 0.961 . S
C3775 H3791 0.960 . S
H3776 C3760 0.931 . S
H3777 C3765 0.929 . S
H3778 C3766 0.960 . S
H3779 C3766 0.962 . S
H3780 C3766 0.960 . S
H3781 C3767 0.961 . S
H3782 C3767 0.961 . S
H3783 C3767 0.961 . S
H3784 C3768 0.931 . S
H3785 C3773 0.930 . S
H3786 C3774 0.956 . S
H3787 C3774 0.961 . S
H3788 C3774 0.961 . S
H3789 C3775 0.958 . S
H3790 C3775 0.961 . S
H3791 C3775 0.960 . S
C3792 C3793 1.391 . S
C3792 C3794 1.394 . S
C3792 H3808 0.931 . S
C3793 C3792 1.391 . S
C3793 C3797 1.376 . S
C3794 C3792 1.394 . S
C3794 C3795 1.369 . S
C3794 C3798 1.531 . S
C3795 C3794 1.369 . S
C3795 C3796 1.410 . S
C3795 C3803 1.503 . S
C3796 C3795 1.410 . S
C3796 C3797 1.392 . S
C3796 C3799 1.511 . S
C3797 C3793 1.376 . S
C3797 C3796 1.392 . S
C3797 H3809 0.929 . S
C3798 C3794 1.531 . S
C3798 H3810 0.960 . S
C3798 H3811 0.962 . S
C3798 H3812 0.960 . S
C3799 C3796 1.511 . S
C3799 H3813 0.961 . S
C3799 H3814 0.961 . S
C3799 H3815 0.961 . S
C3800 C3801 1.370 . S
C3800 C3802 1.363 . S
C3800 H3816 0.931 . S
C3801 C3800 1.370 . S
C3801 C3805 1.408 . S
C3802 C3800 1.363 . S
C3802 C3803 1.370 . S
C3802 C3806 1.524 . S
C3803 C3795 1.503 . S
C3803 C3802 1.370 . S
C3803 C3804 1.403 . S
C3804 C3803 1.403 . S
C3804 C3805 1.404 . S
C3804 C3807 1.539 . S
C3805 C3801 1.408 . S
C3805 C3804 1.404 . S
C3805 H3817 0.930 . S
C3806 C3802 1.524 . S
C3806 H3818 0.956 . S
C3806 H3819 0.961 . S
C3806 H3820 0.961 . S
C3807 C3804 1.539 . S
C3807 H3821 0.958 . S
C3807 H3822 0.961 . S
C3807 H3823 0.960 . S
H3808 C3792 0.931 . S
H3809 C3797 0.929 . S
H3810 C3798 0.960 . S
H3811 C3798 0.962 . S
H3812 C3798 0.960 . S
H3813 C3799 0.961 . S
H3814 C3799 0.961 . S
H3815 C3799 0.961 . S
H3816 C3800 0.931 . S
H3817 C3805 0.930 . S
H3818 C3806 0.956 . S
H3819 C3806 0.961 . S
H3820 C3806 0.961 . S
H3821 C3807 0.958 . S
H3822 C3807 0.961 . S
H3823 C3807 0.960 . S
C3824 C3825 1.391 . S
C3824 C3826 1.394 . S
C3824 H3840 0.931 . S
C3825 C3824 1.391 . S
C3825 C3829 1.376 . S
C3826 C3824 1.394 . S
C3826 C3827 1.369 . S
C3826 C3830 1.531 . S
C3827 C3826 1.369 . S
C3827 C3828 1.410 . S
C3827 C3835 1.503 . S
C3828 C3827 1.410 . S
C3828 C3829 1.392 . S
C3828 C3831 1.511 . S
C3829 C3825 1.376 . S
C3829 C3828 1.392 . S
C3829 H3841 0.929 . S
C3830 C3826 1.531 . S
C3830 H3842 0.960 . S
C3830 H3843 0.962 . S
C3830 H3844 0.960 . S
C3831 C3828 1.511 . S
C3831 H3845 0.961 . S
C3831 H3846 0.961 . S
C3831 H3847 0.961 . S
C3832 C3833 1.348 1_545 S
C3832 C3834 1.363 1_545 S
C3832 H3848 0.931 . S
C3833 C3832 1.348 1_565 S
C3833 C3837 1.449 . S
C3834 C3832 1.363 1_565 S
C3834 C3835 1.370 . S
C3834 C3838 1.524 . S
C3835 C3827 1.503 . S
C3835 C3834 1.370 . S
C3835 C3836 1.403 . S
C3836 C3835 1.403 . S
C3836 C3837 1.404 . S
C3836 C3839 1.539 . S
C3837 C3833 1.449 . S
C3837 C3836 1.404 . S
C3837 H3849 0.930 . S
C3838 C3834 1.524 . S
C3838 H3850 0.956 1_565 S
C3838 H3851 0.960 . S
C3838 H3852 0.961 1_565 S
C3839 C3836 1.539 . S
C3839 H3853 0.958 . S
C3839 H3854 0.961 . S
C3839 H3855 0.960 . S
H3840 C3824 0.931 . S
H3841 C3829 0.929 . S
H3842 C3830 0.960 . S
H3843 C3830 0.962 . S
H3844 C3830 0.960 . S
H3845 C3831 0.961 . S
H3846 C3831 0.961 . S
H3847 C3831 0.961 . S
H3848 C3832 0.931 . S
H3849 C3837 0.930 . S
H3850 C3838 0.956 1_545 S
H3851 C3838 0.960 . S
H3852 C3838 0.961 1_545 S
H3853 C3839 0.958 . S
H3854 C3839 0.961 . S
H3855 C3839 0.960 . S
C3856 C3857 1.391 . S
C3856 C3858 1.394 . S
C3856 H3872 0.931 . S
C3857 C3856 1.391 . S
C3857 C3861 1.376 . S
C3858 C3856 1.394 . S
C3858 C3859 1.369 . S
C3858 C3862 1.531 . S
C3859 C3858 1.369 . S
C3859 C3860 1.410 . S
C3859 C3867 1.503 . S
C3860 C3859 1.410 . S
C3860 C3861 1.392 . S
C3860 C3863 1.511 . S
C3861 C3857 1.376 . S
C3861 C3860 1.392 . S
C3861 H3873 0.929 . S
C3862 C3858 1.531 . S
C3862 H3874 0.960 . S
C3862 H3875 0.962 . S
C3862 H3876 0.960 . S
C3863 C3860 1.511 . S
C3863 H3877 0.961 . S
C3863 H3878 0.961 . S
C3863 H3879 0.961 . S
C3864 C3865 1.370 . S
C3864 C3866 1.363 . S
C3864 H3880 0.931 . S
C3865 C3864 1.370 . S
C3865 C3869 1.408 . S
C3866 C3864 1.363 . S
C3866 C3867 1.370 . S
C3866 C3870 1.524 . S
C3867 C3859 1.503 . S
C3867 C3866 1.370 . S
C3867 C3868 1.403 . S
C3868 C3867 1.403 . S
C3868 C3869 1.404 . S
C3868 C3871 1.539 . S
C3869 C3865 1.408 . S
C3869 C3868 1.404 . S
C3869 H3881 0.930 . S
C3870 C3866 1.524 . S
C3870 H3882 0.956 . S
C3870 H3883 0.961 . S
C3870 H3884 0.961 . S
C3871 C3868 1.539 . S
C3871 H3885 0.958 . S
C3871 H3886 0.961 . S
C3871 H3887 0.960 . S
H3872 C3856 0.931 . S
H3873 C3861 0.929 . S
H3874 C3862 0.960 . S
H3875 C3862 0.962 . S
H3876 C3862 0.960 . S
H3877 C3863 0.961 . S
H3878 C3863 0.961 . S
H3879 C3863 0.961 . S
H3880 C3864 0.931 . S
H3881 C3869 0.930 . S
H3882 C3870 0.956 . S
H3883 C3870 0.961 . S
H3884 C3870 0.961 . S
H3885 C3871 0.958 . S
H3886 C3871 0.961 . S
H3887 C3871 0.960 . S
C3888 C3889 1.391 1_554 S
C3888 C3890 1.394 . S
C3888 H3904 0.931 . S
C3889 C3888 1.391 1_556 S
C3889 C3893 1.376 . S
C3890 C3888 1.394 . S
C3890 C3891 1.369 . S
C3890 C3894 1.531 . S
C3891 C3890 1.369 . S
C3891 C3892 1.410 1_554 S
C3891 C3899 1.503 . S
C3892 C3891 1.410 1_556 S
C3892 C3893 1.392 . S
C3892 C3895 1.511 . S
C3893 C3889 1.376 . S
C3893 C3892 1.392 . S
C3893 H3905 0.929 . S
C3894 C3890 1.531 . S
C3894 H3906 0.960 . S
C3894 H3907 0.962 . S
C3894 H3908 0.960 . S
C3895 C3892 1.511 . S
C3895 H3909 0.961 . S
C3895 H3910 0.961 . S
C3895 H3911 0.961 . S
C3896 C3897 1.370 . S
C3896 C3898 1.363 . S
C3896 H3912 0.931 . S
C3897 C3896 1.370 . S
C3897 C3901 1.408 . S
C3898 C3896 1.363 . S
C3898 C3899 1.370 . S
C3898 C3902 1.524 . S
C3899 C3891 1.503 . S
C3899 C3898 1.370 . S
C3899 C3900 1.403 . S
C3900 C3899 1.403 . S
C3900 C3901 1.404 . S
C3900 C3903 1.539 . S
C3901 C3897 1.408 . S
C3901 C3900 1.404 . S
C3901 H3913 0.930 . S
C3902 C3898 1.524 . S
C3902 H3914 0.956 . S
C3902 H3915 0.961 1_554 S
C3902 H3916 0.960 1_554 S
C3903 C3900 1.539 . S
C3903 H3917 0.958 . S
C3903 H3918 0.961 . S
C3903 H3919 0.961 1_554 S
H3904 C3888 0.931 . S
H3905 C3893 0.929 . S
H3906 C3894 0.960 . S
H3907 C3894 0.962 . S
H3908 C3894 0.960 . S
H3909 C3895 0.961 . S
H3910 C3895 0.961 . S
H3911 C3895 0.961 . S
H3912 C3896 0.931 . S
H3913 C3901 0.930 . S
H3914 C3902 0.956 . S
H3915 C3902 0.961 1_556 S
H3916 C3902 0.960 1_556 S
H3917 C3903 0.958 . S
H3918 C3903 0.961 . S
H3919 C3903 0.961 1_556 S
C3920 C3921 1.391 . S
C3920 C3922 1.394 . S
C3920 H3936 0.931 . S
C3921 C3920 1.391 . S
C3921 C3925 1.376 . S
C3922 C3920 1.394 . S
C3922 C3923 1.369 . S
C3922 C3926 1.531 . S
C3923 C3922 1.369 . S
C3923 C3924 1.410 . S
C3923 C3931 1.503 . S
C3924 C3923 1.410 . S
C3924 C3925 1.392 . S
C3924 C3927 1.511 . S
C3925 C3921 1.376 . S
C3925 C3924 1.392 . S
C3925 H3937 0.929 . S
C3926 C3922 1.531 . S
C3926 H3938 0.960 . S
C3926 H3939 0.962 . S
C3926 H3940 0.960 . S
C3927 C3924 1.511 . S
C3927 H3941 0.961 . S
C3927 H3942 0.961 . S
C3927 H3943 0.961 . S
C3928 C3929 1.370 . S
C3928 C3930 1.363 . S
C3928 H3944 0.931 . S
C3929 C3928 1.370 . S
C3929 C3933 1.408 . S
C3930 C3928 1.363 . S
C3930 C3931 1.370 . S
C3930 C3934 1.524 . S
C3931 C3923 1.503 . S
C3931 C3930 1.370 . S
C3931 C3932 1.403 . S
C3932 C3931 1.403 . S
C3932 C3933 1.404 . S
C3932 C3935 1.539 . S
C3933 C3929 1.408 . S
C3933 C3932 1.404 . S
C3933 H3945 0.930 . S
C3934 C3930 1.524 . S
C3934 H3946 0.956 . S
C3934 H3947 0.961 . S
C3934 H3948 0.961 . S
C3935 C3932 1.539 . S
C3935 H3949 0.958 . S
C3935 H3950 0.961 . S
C3935 H3951 0.960 . S
H3936 C3920 0.931 . S
H3937 C3925 0.929 . S
H3938 C3926 0.960 . S
H3939 C3926 0.962 . S
H3940 C3926 0.960 . S
H3941 C3927 0.961 . S
H3942 C3927 0.961 . S
H3943 C3927 0.961 . S
H3944 C3928 0.931 . S
H3945 C3933 0.930 . S
H3946 C3934 0.956 . S
H3947 C3934 0.961 . S
H3948 C3934 0.961 . S
H3949 C3935 0.958 . S
H3950 C3935 0.961 . S
H3951 C3935 0.960 . S
C3952 C3953 1.391 . S
C3952 C3954 1.394 . S
C3952 H3968 0.931 1_554 S
C3953 C3952 1.391 . S
C3953 C3957 1.376 . S
C3954 C3952 1.394 . S
C3954 C3955 1.369 . S
C3954 C3958 1.531 1_554 S
C3955 C3954 1.369 . S
C3955 C3956 1.410 . S
C3955 C3963 1.503 . S
C3956 C3955 1.410 . S
C3956 C3957 1.392 . S
C3956 C3959 1.511 . S
C3957 C3953 1.376 . S
C3957 C3956 1.392 . S
C3957 H3969 0.929 . S
C3958 C3954 1.531 1_556 S
C3958 H3970 0.960 . S
C3958 H3971 0.962 . S
C3958 H3972 0.960 . S
C3959 C3956 1.511 . S
C3959 H3973 0.961 . S
C3959 H3974 0.961 . S
C3959 H3975 0.961 . S
C3960 C3961 1.370 . S
C3960 C3962 1.363 . S
C3960 H3976 0.931 . S
C3961 C3960 1.370 . S
C3961 C3965 1.408 . S
C3962 C3960 1.363 . S
C3962 C3963 1.370 . S
C3962 C3966 1.524 . S
C3963 C3955 1.503 . S
C3963 C3962 1.370 . S
C3963 C3964 1.403 . S
C3964 C3963 1.403 . S
C3964 C3965 1.404 . S
C3964 C3967 1.539 . S
C3965 C3961 1.408 . S
C3965 C3964 1.404 . S
C3965 H3977 0.930 . S
C3966 C3962 1.524 . S
C3966 H3978 0.956 . S
C3966 H3979 0.961 . S
C3966 H3980 0.961 . S
C3967 C3964 1.539 . S
C3967 H3981 0.958 1_554 S
C3967 H3982 0.961 . S
C3967 H3983 0.960 . S
H3968 C3952 0.931 1_556 S
H3969 C3957 0.929 . S
H3970 C3958 0.960 . S
H3971 C3958 0.962 . S
H3972 C3958 0.960 . S
H3973 C3959 0.961 . S
H3974 C3959 0.961 . S
H3975 C3959 0.961 . S
H3976 C3960 0.931 . S
H3977 C3965 0.930 . S
H3978 C3966 0.956 . S
H3979 C3966 0.961 . S
H3980 C3966 0.961 . S
H3981 C3967 0.958 1_556 S
H3982 C3967 0.961 . S
H3983 C3967 0.960 . S
C3984 C3985 1.391 . S
C3984 C3986 1.394 . S
C3984 H4000 0.931 . S
C3985 C3984 1.391 . S
C3985 C3989 1.376 . S
C3986 C3984 1.394 . S
C3986 C3987 1.369 . S
C3986 C3990 1.531 . S
C3987 C3986 1.369 . S
C3987 C3988 1.410 . S
C3987 C3995 1.503 . S
C3988 C3987 1.410 . S
C3988 C3989 1.392 . S
C3988 C3991 1.511 . S
C3989 C3985 1.376 . S
C3989 C3988 1.392 . S
C3989 H4001 0.929 . S
C3990 C3986 1.531 . S
C3990 H4002 0.960 . S
C3990 H4003 0.962 . S
C3990 H4004 0.960 . S
C3991 C3988 1.511 . S
C3991 H4005 0.961 . S
C3991 H4006 0.961 . S
C3991 H4007 0.961 . S
C3992 C3993 1.370 . S
C3992 C3994 1.363 . S
C3992 H4008 0.931 . S
C3993 C3992 1.370 . S
C3993 C3997 1.408 . S
C3994 C3992 1.363 . S
C3994 C3995 1.370 . S
C3994 C3998 1.524 . S
C3995 C3987 1.503 . S
C3995 C3994 1.370 . S
C3995 C3996 1.403 . S
C3996 C3995 1.403 . S
C3996 C3997 1.404 . S
C3996 C3999 1.539 . S
C3997 C3993 1.408 . S
C3997 C3996 1.404 . S
C3997 H4009 0.930 . S
C3998 C3994 1.524 . S
C3998 H4010 0.956 . S
C3998 H4011 0.961 . S
C3998 H4012 0.961 . S
C3999 C3996 1.539 . S
C3999 H4013 0.958 . S
C3999 H4014 0.961 . S
C3999 H4015 0.960 . S
H4000 C3984 0.931 . S
H4001 C3989 0.929 . S
H4002 C3990 0.960 . S
H4003 C3990 0.962 . S
H4004 C3990 0.960 . S
H4005 C3991 0.961 . S
H4006 C3991 0.961 . S
H4007 C3991 0.961 . S
H4008 C3992 0.931 . S
H4009 C3997 0.930 . S
H4010 C3998 0.956 . S
H4011 C3998 0.961 . S
H4012 C3998 0.961 . S
H4013 C3999 0.958 . S
H4014 C3999 0.961 . S
H4015 C3999 0.960 . S
C4016 C4017 1.391 . S
C4016 C4018 1.394 . S
C4016 H4032 0.931 . S
C4017 C4016 1.391 . S
C4017 C4021 1.376 . S
C4018 C4016 1.394 . S
C4018 C4019 1.369 . S
C4018 C4022 1.531 . S
C4019 C4018 1.369 . S
C4019 C4020 1.410 . S
C4019 C4027 1.503 . S
C4020 C4019 1.410 . S
C4020 C4021 1.392 . S
C4020 C4023 1.511 . S
C4021 C4017 1.376 . S
C4021 C4020 1.392 . S
C4021 H4033 0.929 . S
C4022 C4018 1.531 . S
C4022 H4034 0.960 . S
C4022 H4035 0.962 . S
C4022 H4036 0.960 . S
C4023 C4020 1.511 . S
C4023 H4037 0.961 . S
C4023 H4038 0.961 . S
C4023 H4039 0.961 . S
C4024 C4025 1.370 . S
C4024 C4026 1.363 . S
C4024 H4040 0.931 . S
C4025 C4024 1.370 . S
C4025 C4029 1.408 . S
C4026 C4024 1.363 . S
C4026 C4027 1.370 . S
C4026 C4030 1.524 . S
C4027 C4019 1.503 . S
C4027 C4026 1.370 . S
C4027 C4028 1.403 . S
C4028 C4027 1.403 . S
C4028 C4029 1.404 . S
C4028 C4031 1.539 . S
C4029 C4025 1.408 . S
C4029 C4028 1.404 . S
C4029 H4041 0.930 . S
C4030 C4026 1.524 . S
C4030 H4042 0.956 . S
C4030 H4043 0.961 . S
C4030 H4044 0.961 . S
C4031 C4028 1.539 . S
C4031 H4045 0.958 . S
C4031 H4046 0.961 . S
C4031 H4047 0.960 . S
H4032 C4016 0.931 . S
H4033 C4021 0.929 . S
H4034 C4022 0.960 . S
H4035 C4022 0.962 . S
H4036 C4022 0.960 . S
H4037 C4023 0.961 . S
H4038 C4023 0.961 . S
H4039 C4023 0.961 . S
H4040 C4024 0.931 . S
H4041 C4029 0.930 . S
H4042 C4030 0.956 . S
H4043 C4030 0.961 . S
H4044 C4030 0.961 . S
H4045 C4031 0.958 . S
H4046 C4031 0.961 . S
H4047 C4031 0.960 . S
C977 C109 1.772 1_455 S
C985 C358 1.764 . S
C1009 C65 1.163 . S
C1017 C378 1.170 . S
C1041 C75 0.702 . S
C1049 C425 0.701 . S
C1081 C482 1.059 . S
C1073 C84 1.071 . S
C1105 C25 2.597 . S
C1113 C499 2.591 . S
C1145 C558 1.779 . S
C1137 C28 1.774 . S
C1177 C591 2.727 . S
C1169 C47 2.723 . S
C1201 C9 2.515 . S
C1209 C638 2.499 . S
C1241 C351 1.624 . S
C1233 C233 1.625 . S
C1265 C249 1.383 . S
C1273 C379 1.381 . S
C1305 C418 0.583 . S
C1297 C275 0.481 1_545 S
C1337 C478 2.155 . S
C1329 C173 2.136 . S
C1361 C224 0.416 . S
C1369 C505 0.490 . S
C1401 C551 2.306 . S
C1393 C243 2.306 . S
C1433 C602 0.536 . S
C1425 C266 0.516 . S
C1465 C631 2.270 . S
C1457 C179 2.261 . S
C1497 C362 1.775 1_565 S
C1489 C163 1.815 . S
C1521 C289 2.211 . S
C1529 C658 2.177 . S
C1561 C722 1.259 . S
C1553 C333 1.223 . S
C1593 C758 1.335 1_655 S
C1585 C308 1.334 . S
C1617 C123 1.289 . S
C1625 C642 1.378 . S
C1649 C126 2.623 . S
C1657 C419 2.630 . S
C1681 C327 1.463 . S
C1689 C791 1.462 . S
C1721 C825 0.385 . S
C1713 C299 0.448 . S
C1753 C339 1.776 . S
C1745 C67 1.796 . S
C1785 C831 1.208 . S
C1777 C98 1.174 . S
C1809 C89 0.730 . S
C1817 C442 0.711 . S
C1841 C79 1.112 . S
C1849 C785 1.079 . S
C1881 C518 2.643 . S
C1873 C11 2.646 . S
C1905 C51 1.803 . S
C1913 C699 1.795 . S
C1945 C578 2.779 1_556 S
C1937 C33 2.774 . S
C1977 C859 2.476 . S
C1969 C14 2.504 1_655 S
C2009 C338 1.581 . S
C2001 C140 1.559 . S
C2041 C838 1.421 . S
C2033 C319 1.436 . S
C2065 C112 0.517 . S
C2073 C431 0.603 . S
C2097 C285 2.170 . S
C2105 C779 2.177 . S
C2129 C149 0.507 . S
C2137 C522 0.471 . S
C2169 C698 2.348 . S
C2161 C313 2.358 . S
C2193 C121 0.393 . S
C2201 C585 0.532 . S
C2225 C291 2.280 . S
C2233 C858 2.303 . S
C2257 C182 1.772 1_556 S
C2265 C345 1.750 . S
C2289 C168 2.191 . S
C2297 C671 2.196 . S
C2321 C263 1.308 . S
C2329 C545 1.262 . S
C2353 C247 1.391 . S
C2361 C739 1.390 . S
C2393 C865 1.362 . S
C2385 C277 1.292 . S
C2417 C219 2.660 . S
C2425 C438 2.658 1_565 S
C2457 C458 1.523 . S
C2449 C257 1.471 . S
C2489 C402 0.427 . S
C2481 C201 0.328 . S
C2513 C81 1.765 . S
C2521 C918 1.771 . S
C2553 C818 1.152 . S
C2545 C93 1.192 . S
C2577 C103 0.700 . S
C2585 C945 0.705 . S
C2609 C56 1.083 . S
C2617 C802 1.039 . S
C2641 C53 2.599 . S
C2649 C659 2.590 . S
C2681 C718 1.772 . S
C2673 C0 1.756 1_655 S
C2713 C751 2.730 . S
C2705 C19 2.729 . S
C2745 C878 2.503 . S
C2737 C37 2.516 . S
C2777 C911 1.621 . S
C2769 C261 1.624 . S
C2801 C193 1.383 . S
C2809 C819 1.376 . S
C2841 C938 0.579 . S
C2833 C205 0.478 . S
C2873 C798 2.154 . S
C2865 C215 2.129 . S
C2905 C665 0.465 . S
C2897 C252 0.485 . S
C2929 C187 2.311 . S
C2937 C711 2.296 . S
C2969 C762 0.514 . S
C2961 C196 0.554 . S
C2993 C221 2.262 . S
C3001 C871 2.270 . S
C3033 C922 1.781 . S
C3025 C317 1.830 . S
C3057 C135 2.211 . S
C3065 C498 2.176 . S
C3097 C562 1.245 . S
C3089 C151 1.287 . S
C3129 C598 1.336 1_565 S
C3121 C154 1.342 . S
C3161 C882 1.369 . S
C3153 C305 1.304 . S
C3185 C280 2.610 . S
C3193 C939 2.633 1_655 S
C3225 C471 1.473 . S
C3217 C145 1.427 . S
C3257 C385 0.414 . S
C3249 C117 0.387 . S
C3281 C95 1.758 . S
C3289 C899 1.784 . S
C3321 C391 1.208 . S
C3313 C70 1.166 . S
C3345 C61 0.715 . S
C3353 C962 0.732 . S
C3377 C107 1.080 . S
C3385 C465 1.099 . S
C3409 C39 2.645 . S
C3417 C678 2.642 1_556 S
C3449 C539 1.790 . S
C3441 C23 1.797 . S
C3473 C5 2.774 . S
C3481 C738 2.775 . S
C3505 C42 2.496 . S
C3513 C619 2.483 . S
C3545 C898 1.581 . S
C3537 C322 1.550 . S
C3569 C165 1.429 . S
C3577 C398 1.414 . S
C3609 C951 0.610 . S
C3601 C294 0.504 . S
C3633 C131 2.154 . S
C3641 C459 2.180 . S
C3665 C331 0.447 . S
C3673 C682 0.519 . S
C3705 C538 2.350 . S
C3697 C159 2.356 1_556 S
C3729 C303 0.576 . S
C3737 C745 0.481 . S
C3769 C618 2.302 . S
C3761 C137 2.290 . S
C3801 C905 1.755 . S
C3793 C238 1.759 . S
C3833 C511 2.174 1_665 S
C3825 C210 2.211 . S
C3857 C235 1.290 . S
C3865 C705 1.271 . S
C3897 C579 1.382 . S
C3889 C191 1.412 . S
C3921 C207 1.291 . S
C3929 C625 1.362 . S
C3953 C177 2.659 . S
C3961 C958 2.658 . S
C3993 C778 1.519 . S
C3985 C229 1.469 . S
C4025 C842 0.429 . S
C4017 C271 0.359 . S
