# Generated by pormake.
# Topology pth, (4,4)-cn, num edge types: 1
# Building blocks:
#     Node 0, Type 0, BuildingBlock: QUQFOY_clean_sbu_1, # of connection points: 4
#     Node 1, Type 0, BuildingBlock: QUQFOY_clean_sbu_1, # of connection points: 4
#     Node 2, Type 0, BuildingBlock: QUQFOY_clean_sbu_1, # of connection points: 4
#     Node 3, Type 1, BuildingBlock: MUDLON_clean_sbu_0, # of connection points: 4
#     Node 4, Type 1, BuildingBlock: MUDLON_clean_sbu_0, # of connection points: 4
#     Node 5, Type 1, BuildingBlock: MUDLON_clean_sbu_0, # of connection points: 4
#     Edge 6, Type (0, 1), BuildingBlock: FUNLAD_clean_linker_1, # of connection points: 2
#     Edge 7, Type (0, 1), BuildingBlock: FUNLAD_clean_linker_1, # of connection points: 2
#     Edge 8, Type (0, 1), BuildingBlock: FUNLAD_clean_linker_1, # of connection points: 2
#     Edge 9, Type (0, 1), BuildingBlock: FUNLAD_clean_linker_1, # of connection points: 2
#     Edge 10, Type (0, 1), BuildingBlock: FUNLAD_clean_linker_1, # of connection points: 2
#     Edge 11, Type (0, 1), BuildingBlock: FUNLAD_clean_linker_1, # of connection points: 2
#     Edge 12, Type (0, 1), BuildingBlock: FUNLAD_clean_linker_1, # of connection points: 2
#     Edge 13, Type (0, 1), BuildingBlock: FUNLAD_clean_linker_1, # of connection points: 2
#     Edge 14, Type (0, 1), BuildingBlock: FUNLAD_clean_linker_1, # of connection points: 2
#     Edge 15, Type (0, 1), BuildingBlock: FUNLAD_clean_linker_1, # of connection points: 2
#     Edge 16, Type (0, 1), BuildingBlock: FUNLAD_clean_linker_1, # of connection points: 2
#     Edge 17, Type (0, 1), BuildingBlock: FUNLAD_clean_linker_1, # of connection points: 2
# Relax obj value: 0.037
# Max RMSD: 0.129
# Mean RMSD: 0.076
data_MOF--net-pth--node1-QUQFOY_clean_sbu_1--node2-MUDLON_clean_sbu_0--edge1-FUNLAD_clean_linker_1
_symmetry_space_group_name_H-M    P1
_symmetry_Int_Tables_number       1
_symmetry_cell_setting            triclinic
loop_
_symmetry_equiv_pos_as_xyz
'x, y, z'
_cell_length_a     22.870718
_cell_length_b     24.262748
_cell_length_c     62.917201
_cell_angle_alpha  89.901271
_cell_angle_beta   89.837084
_cell_angle_gamma 120.06463
loop_
_atom_site_label
_atom_site_type_symbol
_atom_site_fract_x
_atom_site_fract_y
_atom_site_fract_z
_atom_type_partial_charge
O0 O 0.08477 0.11717 0.06972 0.0
Cd1 Cd 1.00094 0.06635 0.08871 0.0
Cd2 Cd 0.04751 0.98515 0.08906 0.0
O3 O 0.13438 0.06074 0.07593 0.0
O4 O 0.98015 0.1311 0.10031 0.0
O5 O 0.01461 0.0775 0.12025 0.0
C6 C 0.99866 0.1214 0.11864 0.0
C7 C 0.04688 0.9253 0.11817 0.0
C8 C 0.13513 0.10899 0.06765 0.0
C9 C 0.91578 0.94437 0.06668 0.0
O10 O 0.96567 0.93575 0.06932 0.0
O11 O 0.91583 0.99244 0.07475 0.0
O12 O 0.06944 0.92028 0.09991 0.0
O13 O 0.02853 0.96742 0.12035 0.0
O14 O 0.95215 0.05953 0.44171 0.0
Cd15 Cd 0.03604 0.0851 0.42316 0.0
Cd16 Cd 0.98592 0.96035 0.42249 0.0
O17 O 0.89976 0.95671 0.4348 0.0
O18 O 0.05939 0.16951 0.41086 0.0
O19 O 0.02593 0.08254 0.39147 0.0
C20 C 0.04275 0.14181 0.39258 0.0
C21 C 0.98524 0.89786 0.39428 0.0
C22 C 0.9004 1.00444 0.44337 0.0
C23 C 0.11475 0.03893 0.44666 0.0
O24 O 0.06384 0.9841 0.44349 0.0
O25 O 0.11801 0.08806 0.4382 0.0
O26 O 0.96017 0.87311 0.41255 0.0
O27 O 1.00729 0.95788 0.39151 0.0
O28 O 0.90424 0.92538 0.74648 0.0
Cd29 Cd 0.97313 0.92713 0.76793 0.0
Cd30 Cd 0.01738 0.05237 0.76626 0.0
O31 O 0.92608 0.02408 0.75127 0.0
O32 O 0.93205 0.83943 0.78042 0.0
O33 O 0.9528 0.92466 0.79906 0.0
C34 C 0.92865 0.86391 0.79826 0.0
C35 C 0.05434 0.11662 0.79631 0.0
C36 C 0.8907 0.96932 0.74296 0.0
C37 C 0.10592 1.00707 0.74688 0.0
O38 O 0.09247 0.05188 0.74806 0.0
O39 O 0.06753 0.95355 0.75569 0.0
O40 O 0.05589 0.14058 0.77783 0.0
O41 O 0.0287 0.05575 0.79785 0.0
Mg42 Mg 0.01554 0.53391 0.2497 0.0
C43 C 1.00839 0.43529 0.27746 0.0
O44 O 0.06719 0.45996 0.26776 0.0
C45 C 0.93053 0.5959 0.23945 0.0
O46 O 0.92874 0.60159 0.26013 0.0
C47 C 0.05323 0.50434 0.2067 0.0
O48 O 0.02679 0.53838 0.20008 0.0
O49 O 0.06139 0.50034 0.22651 0.0
O50 O 0.96888 0.45613 0.27272 0.0
O51 O 0.08071 0.61986 0.26763 0.0
C52 C 0.05548 0.62125 0.28552 0.0
O53 O 1.00089 0.56973 0.29214 0.0
O54 O 0.95424 0.56273 0.23166 0.0
Mg55 Mg 0.51109 0.02272 0.59742 0.0
C56 C 0.41879 1.01543 0.56551 0.0
O57 O 0.46556 0.07571 0.56722 0.0
C58 C 0.59132 0.97664 0.62155 0.0
O59 O 0.63665 1.01375 0.60749 0.0
C60 C 0.44575 0.04776 0.63147 0.0
O61 O 0.42291 0.98611 0.63105 0.0
O62 O 0.4899 0.08289 0.61778 0.0
O63 O 0.4222 0.97488 0.57749 0.0
O64 O 0.5941 0.0664 0.57474 0.0
C65 C 0.59007 0.02616 0.56103 0.0
O66 O 0.53948 0.96731 0.56233 0.0
O67 O 0.53121 0.96611 0.61997 0.0
Mg68 Mg 0.48741 0.51799 0.93661 0.0
C69 C 0.3815 0.43335 0.90749 0.0
O70 O 0.41698 0.40524 0.91103 0.0
C71 C 0.56996 0.63068 0.96293 0.0
O72 O 0.61463 0.6186 0.95423 0.0
C73 C 0.50571 0.43642 0.9709 0.0
O74 O 0.56547 0.48676 0.97375 0.0
O75 O 0.46767 0.43653 0.95622 0.0
O76 O 0.39843 0.48565 0.91682 0.0
O77 O 0.57209 0.55391 0.91454 0.0
C78 C 0.61241 0.5333 0.91087 0.0
O79 O 0.60522 0.48307 0.9211 0.0
O80 O 0.50802 0.59576 0.95814 0.0
H81 H 0.02161 0.15212 0.15215 0.0
C82 C 1.00657 0.1625 0.13697 0.0
H83 H 0.99024 0.22759 0.11935 0.0
H84 H 0.96573 0.31926 0.21637 0.0
H85 H 0.86709 0.21473 0.2208 0.0
H86 H 0.83704 0.13147 0.19373 0.0
H87 H 0.90572 0.15223 0.1621 0.0
C88 C 1.00171 0.2152 0.13478 0.0
C89 C 0.02159 0.26324 0.15204 0.0
C90 C 0.98089 0.25021 0.17049 0.0
C91 C 0.99792 0.29856 0.186 0.0
C92 C 0.95567 0.28448 0.2041 0.0
C93 C 0.89865 0.22462 0.20684 0.0
C94 C 0.88176 0.17773 0.19161 0.0
C95 C 0.92193 0.19021 0.17356 0.0
H96 H 0.05037 0.46566 0.17486 0.0
C97 C 0.05998 0.4615 0.19153 0.0
H98 H 0.07362 0.40585 0.21466 0.0
H99 H 0.11317 0.30246 0.11932 0.0
H100 H 0.21395 0.40604 0.11542 0.0
H101 H 0.2443 0.4891 0.14261 0.0
H102 H 0.17375 0.46913 0.17381 0.0
C103 C 0.06751 0.41243 0.19789 0.0
C104 C 0.05503 0.36011 0.18288 0.0
C105 C 0.09741 0.37212 0.16493 0.0
C106 C 0.08034 0.32386 0.14941 0.0
C107 C 0.12339 0.33742 0.13155 0.0
C108 C 0.1816 0.39662 0.12915 0.0
C109 C 0.19865 0.4434 0.14444 0.0
C110 C 0.15741 0.43148 0.16219 0.0
H111 H 0.80102 0.94679 0.45907 0.0
C112 C 0.84315 0.99491 0.45688 0.0
H113 H 0.88617 0.09168 0.46569 0.0
H114 H 0.61455 0.06379 0.50258 0.0
H115 H 0.62358 0.11913 0.46948 0.0
H116 H 0.71018 0.13583 0.44275 0.0
H117 H 0.78801 0.0969 0.44889 0.0
C118 C 0.84496 0.04318 0.46795 0.0
C119 C 0.79247 0.03256 0.48403 0.0
C120 C 0.74811 0.05646 0.48033 0.0
C121 C 0.69846 0.04721 0.4958 0.0
C122 C 0.65366 0.07013 0.49147 0.0
C123 C 0.65821 0.10186 0.47252 0.0
C124 C 0.70696 0.11125 0.45747 0.0
C125 C 0.75142 0.0888 0.46121 0.0
H126 H 0.68499 0.09217 0.54401 0.0
C127 C 0.64244 0.04379 0.54449 0.0
H128 H 0.59762 0.95137 0.53131 0.0
H129 H 0.87519 0.98765 0.49744 0.0
H130 H 0.86605 0.93265 0.5305 0.0
H131 H 0.77772 0.91389 0.55682 0.0
H132 H 0.69847 0.95076 0.55026 0.0
C133 C 0.63898 1.0003 0.53054 0.0
C134 C 0.69374 1.01454 0.51498 0.0
C135 C 0.73874 0.9915 0.51884 0.0
C136 C 0.78874 1.00118 0.50348 0.0
C137 C 0.83484 0.97997 0.50819 0.0
C138 C 0.83048 0.94866 0.52722 0.0
C139 C 0.78083 0.93816 0.54204 0.0
C140 C 0.73552 0.95941 0.53803 0.0
H141 H 0.88747 0.84649 0.83088 0.0
C142 C 0.89379 0.8236 0.81693 0.0
H143 H 0.86937 0.73645 0.80236 0.0
H144 H 0.78743 0.6693 0.90577 0.0
H145 H 0.90736 0.73434 0.91285 0.0
H146 H 0.98825 0.79098 0.88375 0.0
H147 H 0.94954 0.78375 0.84744 0.0
C148 C 0.86515 0.7598 0.81653 0.0
C149 C 0.81846 0.71915 0.8338 0.0
C150 C 0.84224 0.72178 0.8548 0.0
C151 C 0.79582 0.68721 0.87147 0.0
C152 C 0.82056 0.69324 0.89244 0.0
C153 C 0.88929 0.73054 0.89673 0.0
C154 C 0.93483 0.76257 0.88036 0.0
C155 C 0.91189 0.75835 0.85961 0.0
H156 H 0.69896 0.54576 0.89122 0.0
C157 C 0.66666 0.56551 0.89481 0.0
H158 H 0.6424 0.63674 0.88754 0.0
H159 H 0.756 0.70037 0.79513 0.0
H160 H 0.63704 0.6311 0.78787 0.0
H161 H 0.55753 0.56819 0.81655 0.0
H162 H 0.5966 0.5746 0.85274 0.0
C163 C 0.67579 0.61785 0.88445 0.0
C164 C 0.72604 0.64847 0.86697 0.0
C165 C 0.70282 0.64326 0.84581 0.0
C166 C 0.74893 0.67872 0.82922 0.0
C167 C 0.72366 0.67386 0.80834 0.0
C168 C 0.65533 0.63433 0.80393 0.0
C169 C 0.61054 0.599 0.82008 0.0
C170 C 0.63366 0.60328 0.8408 0.0
H171 H 0.05736 0.84803 0.13262 0.0
C172 C 0.03746 0.87983 0.13527 0.0
H173 H 0.97791 0.90187 0.15548 0.0
H174 H 0.87379 0.59735 0.17623 0.0
H175 H 0.82105 0.57848 0.14155 0.0
H176 H 0.839 0.66827 0.11861 0.0
H177 H 0.91019 0.77739 0.13012 0.0
C178 C 0.99871 0.87099 0.15249 0.0
C179 C 0.98096 0.81685 0.16738 0.0
C180 C 0.93786 0.75324 0.16061 0.0
C181 C 0.92664 0.70144 0.17397 0.0
C182 C 0.88425 0.63845 0.16667 0.0
C183 C 0.85343 0.62693 0.14684 0.0
C184 C 0.86359 0.67748 0.13392 0.0
C185 C 0.90502 0.73994 0.14067 0.0
H186 H 0.89667 0.66483 0.23225 0.0
C187 C 0.9213 0.64027 0.22564 0.0
H188 H 0.97853 0.63518 0.2001 0.0
H189 H 0.05896 0.93259 0.18607 0.0
H190 H 0.10959 0.95188 0.22111 0.0
H191 H 0.09288 0.86246 0.24401 0.0
H192 H 0.02538 0.7536 0.23219 0.0
C193 C 0.95291 0.65882 0.2067 0.0
C194 C 0.95736 0.71312 0.19425 0.0
C195 C 0.99783 0.77683 0.20146 0.0
C196 C 1.00879 0.82864 0.18808 0.0
C197 C 0.04938 0.89165 0.19557 0.0
C198 C 0.07878 0.90339 0.21562 0.0
C199 C 0.06931 0.85305 0.22852 0.0
C200 C 0.02984 0.79052 0.22156 0.0
H201 H 0.21122 0.09341 0.46397 0.0
C202 C 0.16885 0.04594 0.46109 0.0
H203 H 0.1217 0.94835 0.46934 0.0
H204 H 0.43477 0.05622 0.50412 0.0
H205 H 0.46713 0.07 0.4669 0.0
H206 H 0.38414 0.05227 0.43892 0.0
H207 H 0.26842 1.02097 0.44802 0.0
C208 C 0.16504 0.9957 0.47149 0.0
C209 C 0.21483 1.0037 0.4881 0.0
C210 C 0.28206 1.02139 0.48247 0.0
C211 C 0.32969 0.03103 0.49859 0.0
C212 C 0.39661 0.04875 0.49254 0.0
C213 C 0.41581 0.05656 0.47122 0.0
C214 C 0.3691 0.0466 0.45547 0.0
C215 C 0.3029 0.029 0.46093 0.0
H216 H 0.32615 0.94594 0.54843 0.0
C217 C 0.36438 0.99595 0.54972 0.0
H218 H 0.40144 0.08912 0.53776 0.0
H219 H 0.08891 0.96641 0.50419 0.0
H220 H 0.05628 0.95183 0.54136 0.0
H221 H 0.13944 0.97066 0.56938 0.0
H222 H 0.25544 1.00364 0.5604 0.0
C223 C 0.36202 0.0394 0.53697 0.0
C224 C 0.30987 1.02235 0.52028 0.0
C225 C 0.24217 1.00311 0.52589 0.0
C226 C 0.19445 0.99317 0.50975 0.0
C227 C 0.12726 0.97447 0.51577 0.0
C228 C 0.10784 0.9661 0.53707 0.0
C229 C 0.15463 0.97665 0.55284 0.0
C230 C 0.22111 0.99526 0.54743 0.0
H231 H 0.08984 0.13481 0.82945 0.0
C232 C 0.08676 0.15756 0.81492 0.0
H233 H 0.1178 0.24459 0.79905 0.0
H234 H 0.19671 0.31154 0.90267 0.0
H235 H 0.07588 0.25474 0.90943 0.0
H236 H 0.99494 0.20271 0.8802 0.0
H237 H 0.0344 0.20633 0.84407 0.0
C238 C 0.11879 0.2215 0.81375 0.0
C239 C 0.16595 0.26163 0.83085 0.0
C240 C 0.14201 0.26123 0.85172 0.0
C241 C 0.18866 0.29301 0.86847 0.0
C242 C 0.1635 0.28929 0.88931 0.0
C243 C 0.09427 0.25681 0.89341 0.0
C244 C 0.04869 0.22738 0.87696 0.0
C245 C 0.07198 0.22946 0.85632 0.0
H246 H 0.29936 0.43206 0.88837 0.0
C247 C 0.32555 0.40621 0.892 0.0
H248 H 0.33637 0.32676 0.88489 0.0
H249 H 0.22919 0.27682 0.79231 0.0
H250 H 0.34937 0.33895 0.78532 0.0
H251 H 0.42962 0.3971 0.81416 0.0
H252 H 0.38994 0.39297 0.85025 0.0
C253 C 0.3088 0.35162 0.88179 0.0
C254 C 0.259 0.32662 0.86417 0.0
C255 C 0.28265 0.33072 0.84306 0.0
C256 C 0.23621 0.29809 0.82638 0.0
C257 C 0.2618 0.30137 0.80558 0.0
C258 C 0.33084 0.33682 0.80133 0.0
C259 C 0.37603 0.36946 0.81756 0.0
C260 C 0.35256 0.36652 0.83821 0.0
H261 H 0.82408 0.91816 0.71623 0.0
C262 C 0.83868 0.95784 0.72704 0.0
H263 H 0.82784 0.03637 0.73508 0.0
H264 H 0.76264 0.09075 0.64307 0.0
H265 H 0.8608 0.19054 0.65285 0.0
H266 H 0.9213 0.20035 0.68626 0.0
H267 H 0.88327 0.11089 0.71023 0.0
C268 C 0.813 0.99648 0.72437 0.0
C269 C 0.77269 0.99139 0.70506 0.0
C270 C 0.79671 0.04411 0.69096 0.0
C271 C 0.76329 0.0378 0.67131 0.0
C272 C 0.78711 0.09196 0.65789 0.0
C273 C 0.84333 0.14982 0.66334 0.0
C274 C 0.87727 0.15538 0.68216 0.0
C275 C 0.85461 0.10341 0.69584 0.0
H276 H 0.5795 0.94721 0.65524 0.0
C277 C 0.61324 0.96094 0.64159 0.0
H278 H 0.71049 0.98719 0.63036 0.0
H279 H 0.7033 0.88625 0.73047 0.0
H280 H 0.60717 0.78486 0.72025 0.0
H281 H 0.55843 0.76961 0.68434 0.0
H282 H 0.60403 0.85611 0.65872 0.0
C283 C 0.67663 0.97208 0.64401 0.0
C284 C 0.70729 0.97821 0.6654 0.0
C285 C 0.68231 0.9259 0.67969 0.0
C286 C 0.71341 0.93333 0.69988 0.0
C287 C 0.68412 0.88198 0.7145 0.0
C288 C 0.62857 0.82375 0.70891 0.0
C289 C 0.60092 0.81527 0.68873 0.0
C290 C 0.62731 0.86553 0.67422 0.0
H291 H 0.86207 0.85738 0.04766 0.0
C292 C 0.85896 0.89787 0.05366 0.0
H293 H 0.80278 0.94551 0.05316 0.0
H294 H 0.68809 0.81809 0.96253 0.0
H295 H 0.75127 0.9307 0.95346 0.0
H296 H 0.81622 1.01118 0.98076 0.0
H297 H 0.8184 0.97972 1.01728 0.0
C298 C 0.80593 0.90425 0.04815 0.0
C299 C 0.75497 0.85803 0.03301 0.0
C300 C 0.75286 0.87751 1.01192 0.0
C301 C 0.71581 0.83112 0.99615 0.0
C302 C 0.71598 0.85151 0.97505 0.0
C303 C 0.75181 0.9159 0.96966 0.0
C304 C 0.78835 0.96123 0.98504 0.0
C305 C 0.78922 0.94253 1.00594 0.0
H306 H 0.5531 0.6874 0.98731 0.0
C307 C 0.59125 0.68119 0.9791 0.0
H308 H 0.69519 0.71221 0.97587 0.0
H309 H 0.73601 0.80681 0.07285 0.0
H310 H 0.67053 0.69446 0.08214 0.0
H311 H 0.60958 0.61347 0.05459 0.0
H312 H 0.613 0.6442 1.01769 0.0
C313 C 0.65671 0.71731 0.98434 0.0
C314 C 0.68074 0.76557 1.00154 0.0
C315 C 0.67789 0.74656 1.02301 0.0
C316 C 0.71444 0.79302 0.03882 0.0
C317 C 0.71055 0.77308 0.06018 0.0
C318 C 0.6729 0.7089 0.06572 0.0
C319 C 0.63849 0.66331 0.05021 0.0
C320 C 0.64086 0.68161 0.02908 0.0
H321 H 0.96757 0.80737 0.38076 0.0
C322 C 0.99259 0.85842 0.37787 0.0
H323 H 0.06092 0.9341 0.35801 0.0
H324 H 0.11515 0.68918 0.34455 0.0
H325 H 0.16203 0.71484 0.38017 0.0
H326 H 0.16049 0.80064 0.40073 0.0
H327 H 0.11133 0.86068 0.38594 0.0
C328 C 0.03499 0.88323 0.3612 0.0
C329 C 0.04912 0.84143 0.3473 0.0
C330 C 0.0805 0.80857 0.35589 0.0
C331 C 0.08278 0.76012 0.34388 0.0
C332 C 0.11212 0.7264 0.35307 0.0
C333 C 0.13946 0.74086 0.37343 0.0
C334 C 0.13853 0.78912 0.38501 0.0
C335 C 0.10965 0.82286 0.37641 0.0
H336 H 0.12113 0.72545 0.29043 0.0
C337 C 0.07833 0.68222 0.29668 0.0
H338 H 0.99934 0.64218 0.31937 0.0
H339 H 0.99772 0.90391 0.32482 0.0
H340 H 0.95832 0.88335 0.28829 0.0
H341 H 0.96272 0.79956 0.26737 0.0
H342 H 1.0068 0.73608 0.28274 0.0
C343 C 0.0421 0.68532 0.31305 0.0
C344 C 0.05553 0.74584 0.32314 0.0
C345 C 0.03066 0.78322 0.31374 0.0
C346 C 0.02773 0.83134 0.32584 0.0
C347 C 1.00107 0.86688 0.3163 0.0
C348 C 0.97829 0.85554 0.29537 0.0
C349 C 0.98079 0.80837 0.28359 0.0
C350 C 1.00626 0.77225 0.29261 0.0
H351 H 0.16894 0.97323 0.73157 0.0
C352 C 0.16237 1.01436 0.73345 0.0
H353 H 0.19534 0.10892 0.72334 0.0
H354 H 0.46448 0.11416 0.68772 0.0
H355 H 0.51027 0.17385 0.72033 0.0
H356 H 0.43622 0.18604 0.74619 0.0
H357 H 0.31568 0.13824 0.73967 0.0
C358 C 0.20085 0.06715 0.72187 0.0
C359 C 0.2471 0.06723 0.70521 0.0
C360 C 0.31744 0.09681 0.70899 0.0
C361 C 0.36022 0.09022 0.69399 0.0
C362 C 0.4299 0.11817 0.69851 0.0
C363 C 0.45677 0.1525 0.71716 0.0
C364 C 0.41506 0.15935 0.73173 0.0
C365 C 0.34608 0.13174 0.72781 0.0
H366 H 0.4292 0.12314 0.64536 0.0
C367 C 0.41676 0.0738 0.64677 0.0
H368 H 0.35907 0.98589 0.6627 0.0
H369 H 0.11628 1.0139 0.69153 0.0
H370 H 0.0712 0.95763 0.65838 0.0
H371 H 0.14517 0.94551 0.63248 0.0
H372 H 0.26473 0.98986 0.63954 0.0
C373 C 0.37249 0.03558 0.66164 0.0
C374 C 0.33238 0.0546 0.67519 0.0
C375 C 0.2628 0.02883 0.67075 0.0
C376 C 0.22014 0.03543 0.68572 0.0
C377 C 0.1508 1.00939 0.68085 0.0
C378 C 0.12431 0.97722 0.66184 0.0
C379 C 0.16595 0.9704 0.64725 0.0
C380 C 0.23441 0.99585 0.65155 0.0
H381 H 0.1895 0.19586 0.04841 0.0
C382 C 0.19318 0.15622 0.05499 0.0
H383 H 0.25225 0.11161 0.05629 0.0
H384 H 0.39019 0.23924 0.9676 0.0
H385 H 0.33454 0.12642 0.95938 0.0
H386 H 0.26322 0.04585 0.9861 0.0
H387 H 0.2474 0.07746 1.02124 0.0
C388 C 0.2483 0.1519 0.0506 0.0
C389 C 0.30134 0.19937 0.036 0.0
C390 C 0.31086 0.18001 1.01566 0.0
C391 C 0.35128 0.22652 1.00015 0.0
C392 C 0.35929 0.20589 0.97987 0.0
C393 C 0.32782 0.14132 0.97496 0.0
C394 C 0.28772 0.09596 0.99002 0.0
C395 C 0.27903 0.11477 1.01013 0.0
H396 H 0.51255 0.38498 0.99905 0.0
C397 C 0.479 0.38404 0.98667 0.0
H398 H 0.37917 0.33833 0.97499 0.0
H399 H 0.30702 0.25134 0.07494 0.0
H400 H 0.3617 0.36404 0.0833 0.0
H401 H 0.42379 0.44523 0.0557 0.0
H402 H 0.43293 0.41456 1.01985 0.0
C403 C 0.41289 0.33995 0.98743 0.0
C404 C 0.38188 0.29229 1.00494 0.0
C405 C 0.37568 0.31158 0.02574 0.0
C406 C 0.33691 0.2649 0.04141 0.0
C407 C 0.33357 0.28505 0.06226 0.0
C408 C 0.36504 0.34949 0.0673 0.0
C409 C 0.4002 0.39518 0.05178 0.0
C410 C 0.40543 0.37678 0.03122 0.0
H411 H 0.03873 0.15589 0.35799 0.0
C412 C 0.0401 0.176 0.37353 0.0
H413 H 0.03607 0.24869 0.39065 0.0
H414 H 0.13717 0.45437 0.31824 0.0
H415 H 0.22893 0.5031 0.34351 0.0
H416 H 0.23251 0.44297 0.37464 0.0
H417 H 0.14413 0.33397 0.38077 0.0
C418 C 0.03506 0.22875 0.37511 0.0
C419 C 0.03227 0.26404 0.35607 0.0
C420 C 0.08481 0.32759 0.3526 0.0
C421 C 0.08351 0.36179 0.33441 0.0
C422 C 0.13621 0.42561 0.33154 0.0
C423 C 0.18913 0.45434 0.34598 0.0
C424 C 0.19107 0.42054 0.36352 0.0
C425 C 0.13979 0.35794 0.36687 0.0
H426 H 0.94989 0.37804 0.30543 0.0
C427 C 0.99283 0.38971 0.29514 0.0
H428 H 0.07803 0.3798 0.28939 0.0
H429 H 0.91731 0.14722 0.35978 0.0
H430 H 0.82659 0.09787 0.33415 0.0
H431 H 0.82909 0.1541 0.30116 0.0
H432 H 0.92161 0.26061 0.29384 0.0
C433 C 0.03424 0.36668 0.29946 0.0
C434 C 0.03018 0.33221 0.31951 0.0
C435 C 0.97687 0.26911 0.32315 0.0
C436 C 0.97711 0.23549 0.34171 0.0
C437 C 0.92136 0.17388 0.34553 0.0
C438 C 0.86862 0.14515 0.33102 0.0
C439 C 0.86991 0.17689 0.31247 0.0
C440 C 0.92325 0.23814 0.3085 0.0
loop_
_geom_bond_atom_site_label_1
_geom_bond_atom_site_label_2
_geom_bond_distance
_geom_bond_site_symmetry_2
_ccdc_geom_bond_type
O0 Cd1 2.223 1_455 S
O0 C8 1.315 . S
Cd1 O0 2.223 1_655 S
Cd1 O4 2.297 . S
Cd1 O5 2.439 . S
Cd1 O11 2.240 1_545 S
Cd2 O3 2.240 1_565 S
Cd2 O10 2.223 1_455 S
Cd2 O12 2.297 . S
Cd2 O13 2.439 . S
O3 Cd2 2.240 1_545 S
O3 C8 1.279 . S
O4 Cd1 2.297 . S
O4 C6 1.247 . S
O5 Cd1 2.439 . S
O5 C6 1.208 . S
C6 O4 1.247 . S
C6 O5 1.208 . S
C7 O12 1.247 . S
C7 O13 1.208 . S
C8 O0 1.315 . S
C8 O3 1.279 . S
C9 O10 1.315 . S
C9 O11 1.279 . S
O10 Cd2 2.223 1_655 S
O10 C9 1.315 . S
O11 Cd1 2.240 1_565 S
O11 C9 1.279 . S
O12 Cd2 2.297 . S
O12 C7 1.247 . S
O13 Cd2 2.439 . S
O13 C7 1.208 . S
O14 Cd15 2.223 1_655 S
O14 C22 1.315 . S
Cd15 O14 2.223 1_455 S
Cd15 O18 2.297 . S
Cd15 O19 2.439 . S
Cd15 O25 2.240 . S
Cd16 O17 2.240 . S
Cd16 O24 2.223 1_655 S
Cd16 O26 2.297 . S
Cd16 O27 2.439 . S
O17 Cd16 2.240 . S
O17 C22 1.279 1_565 S
O18 Cd15 2.297 . S
O18 C20 1.247 . S
O19 Cd15 2.439 . S
O19 C20 1.208 . S
C20 O18 1.247 . S
C20 O19 1.208 . S
C21 O26 1.247 . S
C21 O27 1.208 . S
C22 O14 1.315 . S
C22 O17 1.279 1_545 S
C23 O24 1.315 . S
C23 O25 1.279 1_565 S
O24 Cd16 2.223 1_455 S
O24 C23 1.315 . S
O25 Cd15 2.240 . S
O25 C23 1.279 1_545 S
O26 Cd16 2.297 . S
O26 C21 1.247 . S
O27 Cd16 2.439 . S
O27 C21 1.208 . S
O28 Cd29 2.223 . S
O28 C36 1.315 . S
Cd29 O28 2.223 . S
Cd29 O32 2.297 . S
Cd29 O33 2.439 . S
Cd29 O39 2.240 1_655 S
Cd30 O31 2.240 1_455 S
Cd30 O38 2.223 . S
Cd30 O40 2.297 . S
Cd30 O41 2.439 . S
O31 Cd30 2.240 1_655 S
O31 C36 1.279 1_545 S
O32 Cd29 2.297 . S
O32 C34 1.247 . S
O33 Cd29 2.439 . S
O33 C34 1.208 . S
C34 O32 1.247 . S
C34 O33 1.208 . S
C35 O40 1.247 . S
C35 O41 1.208 . S
C36 O28 1.315 . S
C36 O31 1.279 1_565 S
C37 O38 1.315 . S
C37 O39 1.279 1_545 S
O38 Cd30 2.223 . S
O38 C37 1.315 . S
O39 Cd29 2.240 1_455 S
O39 C37 1.279 1_565 S
O40 Cd30 2.297 . S
O40 C35 1.247 . S
O41 Cd30 2.439 . S
O41 C35 1.208 . S
Mg42 O49 2.141 . S
Mg42 O50 2.048 . S
Mg42 O51 2.048 . S
Mg42 O54 2.141 . S
C43 O44 1.313 . S
C43 O50 1.195 1_655 S
O44 C43 1.313 . S
C45 O46 1.245 . S
C45 O54 1.289 1_655 S
O46 C45 1.245 . S
C47 O48 1.245 . S
C47 O49 1.289 1_655 S
O48 C47 1.245 . S
O49 Mg42 2.141 . S
O49 C47 1.289 1_455 S
O50 Mg42 2.048 . S
O50 C43 1.195 1_455 S
O51 Mg42 2.048 . S
O51 C52 1.195 1_455 S
C52 O51 1.195 1_655 S
C52 O53 1.313 . S
O53 C52 1.313 . S
O54 Mg42 2.141 . S
O54 C45 1.289 1_455 S
Mg55 O62 2.141 . S
Mg55 O63 2.048 . S
Mg55 O64 2.048 . S
Mg55 O67 2.141 . S
C56 O57 1.313 . S
C56 O63 1.195 1_565 S
O57 C56 1.313 . S
C58 O59 1.245 . S
C58 O67 1.289 1_565 S
O59 C58 1.245 . S
C60 O61 1.245 . S
C60 O62 1.289 1_565 S
O61 C60 1.245 . S
O62 Mg55 2.141 . S
O62 C60 1.289 1_545 S
O63 Mg55 2.048 . S
O63 C56 1.195 1_545 S
O64 Mg55 2.048 . S
O64 C65 1.195 1_545 S
C65 O64 1.195 1_565 S
C65 O66 1.313 . S
O66 C65 1.313 . S
O67 Mg55 2.141 . S
O67 C58 1.289 1_545 S
Mg68 O75 2.141 . S
Mg68 O76 2.048 . S
Mg68 O77 2.048 . S
Mg68 O80 2.141 . S
C69 O70 1.313 . S
C69 O76 1.195 . S
O70 C69 1.313 . S
C71 O72 1.245 . S
C71 O80 1.289 . S
O72 C71 1.245 . S
C73 O74 1.245 . S
C73 O75 1.289 . S
O74 C73 1.245 . S
O75 Mg68 2.141 . S
O75 C73 1.289 . S
O76 Mg68 2.048 . S
O76 C69 1.195 . S
O77 Mg68 2.048 . S
O77 C78 1.195 . S
C78 O77 1.195 . S
C78 O79 1.313 . S
O79 C78 1.313 . S
O80 Mg68 2.141 . S
O80 C71 1.289 . S
H81 C82 0.951 . S
C82 H81 0.951 . S
C82 C88 1.265 1_455 S
H83 C88 0.950 . S
H84 C92 0.949 . S
H85 C93 0.950 . S
H86 C94 0.951 . S
H87 C95 0.951 . S
C88 C82 1.265 1_655 S
C88 H83 0.950 . S
C88 C89 1.478 . S
C89 C88 1.478 . S
C89 C90 1.397 . S
C89 C106 1.394 1_655 S
C90 C89 1.397 . S
C90 C91 1.438 . S
C90 C95 1.429 . S
C91 C90 1.438 . S
C91 C92 1.428 . S
C91 C104 1.394 1_655 S
C92 H84 0.949 . S
C92 C91 1.428 . S
C92 C93 1.345 . S
C93 H85 0.950 . S
C93 C92 1.345 . S
C93 C94 1.424 . S
C94 H86 0.951 . S
C94 C93 1.424 . S
C94 C95 1.347 . S
C95 H87 0.951 . S
C95 C90 1.429 . S
C95 C94 1.347 . S
H96 C97 0.951 . S
C97 H96 0.951 . S
C97 C103 1.265 1_655 S
H98 C103 0.950 . S
H99 C107 0.949 . S
H100 C108 0.950 . S
H101 C109 0.951 . S
H102 C110 0.951 . S
C103 C97 1.265 1_455 S
C103 H98 0.950 . S
C103 C104 1.478 . S
C104 C91 1.394 1_455 S
C104 C103 1.478 . S
C104 C105 1.397 . S
C105 C104 1.397 . S
C105 C106 1.438 . S
C105 C110 1.429 . S
C106 C89 1.394 1_455 S
C106 C105 1.438 . S
C106 C107 1.428 . S
C107 H99 0.949 . S
C107 C106 1.428 . S
C107 C108 1.345 . S
C108 H100 0.950 . S
C108 C107 1.345 . S
C108 C109 1.424 . S
C109 H101 0.951 . S
C109 C108 1.424 . S
C109 C110 1.347 . S
C110 H102 0.951 . S
C110 C105 1.429 . S
C110 C109 1.347 . S
H111 C112 0.951 1_565 S
C112 H111 0.951 1_545 S
C112 C118 1.265 . S
H113 C118 0.950 . S
H114 C122 0.949 . S
H115 C123 0.950 . S
H116 C124 0.951 . S
H117 C125 0.951 . S
C118 C112 1.265 . S
C118 H113 0.950 . S
C118 C119 1.478 . S
C119 C118 1.478 . S
C119 C120 1.397 . S
C119 C136 1.394 1_545 S
C120 C119 1.397 . S
C120 C121 1.438 . S
C120 C125 1.429 . S
C121 C120 1.438 . S
C121 C122 1.428 . S
C121 C134 1.394 1_545 S
C122 H114 0.949 . S
C122 C121 1.428 . S
C122 C123 1.345 . S
C123 H115 0.950 . S
C123 C122 1.345 . S
C123 C124 1.424 . S
C124 H116 0.951 . S
C124 C123 1.424 . S
C124 C125 1.347 . S
C125 H117 0.951 . S
C125 C120 1.429 . S
C125 C124 1.347 . S
H126 C127 0.951 . S
C127 H126 0.951 . S
C127 C133 1.265 1_545 S
H128 C133 0.950 . S
H129 C137 0.949 . S
H130 C138 0.950 . S
H131 C139 0.951 . S
H132 C140 0.951 . S
C133 C127 1.265 1_565 S
C133 H128 0.950 . S
C133 C134 1.478 . S
C134 C121 1.394 1_565 S
C134 C133 1.478 . S
C134 C135 1.397 . S
C135 C134 1.397 . S
C135 C136 1.438 . S
C135 C140 1.429 . S
C136 C119 1.394 1_565 S
C136 C135 1.438 . S
C136 C137 1.428 . S
C137 H129 0.949 . S
C137 C136 1.428 . S
C137 C138 1.345 . S
C138 H130 0.950 . S
C138 C137 1.345 . S
C138 C139 1.424 . S
C139 H131 0.951 . S
C139 C138 1.424 . S
C139 C140 1.347 . S
C140 H132 0.951 . S
C140 C135 1.429 . S
C140 C139 1.347 . S
H141 C142 0.951 . S
C142 H141 0.951 . S
C142 C148 1.265 . S
H143 C148 0.950 . S
H144 C152 0.949 . S
H145 C153 0.950 . S
H146 C154 0.951 . S
H147 C155 0.951 . S
C148 C142 1.265 . S
C148 H143 0.950 . S
C148 C149 1.478 . S
C149 C148 1.478 . S
C149 C150 1.397 . S
C149 C166 1.394 . S
C150 C149 1.397 . S
C150 C151 1.438 . S
C150 C155 1.429 . S
C151 C150 1.438 . S
C151 C152 1.428 . S
C151 C164 1.394 . S
C152 H144 0.949 . S
C152 C151 1.428 . S
C152 C153 1.345 . S
C153 H145 0.950 . S
C153 C152 1.345 . S
C153 C154 1.424 . S
C154 H146 0.951 . S
C154 C153 1.424 . S
C154 C155 1.347 . S
C155 H147 0.951 . S
C155 C150 1.429 . S
C155 C154 1.347 . S
H156 C157 0.951 . S
C157 H156 0.951 . S
C157 C163 1.265 . S
H158 C163 0.950 . S
H159 C167 0.949 . S
H160 C168 0.950 . S
H161 C169 0.951 . S
H162 C170 0.951 . S
C163 C157 1.265 . S
C163 H158 0.950 . S
C163 C164 1.478 . S
C164 C151 1.394 . S
C164 C163 1.478 . S
C164 C165 1.397 . S
C165 C164 1.397 . S
C165 C166 1.438 . S
C165 C170 1.429 . S
C166 C149 1.394 . S
C166 C165 1.438 . S
C166 C167 1.428 . S
C167 H159 0.949 . S
C167 C166 1.428 . S
C167 C168 1.345 . S
C168 H160 0.950 . S
C168 C167 1.345 . S
C168 C169 1.424 . S
C169 H161 0.951 . S
C169 C168 1.424 . S
C169 C170 1.347 . S
C170 H162 0.951 . S
C170 C165 1.429 . S
C170 C169 1.347 . S
H171 C172 0.951 . S
C172 H171 0.951 . S
C172 C178 1.265 1_455 S
H173 C178 0.950 . S
H174 C182 0.949 . S
H175 C183 0.950 . S
H176 C184 0.951 . S
H177 C185 0.951 . S
C178 C172 1.265 1_655 S
C178 H173 0.950 . S
C178 C179 1.478 . S
C179 C178 1.478 . S
C179 C180 1.397 . S
C179 C196 1.394 1_655 S
C180 C179 1.397 . S
C180 C181 1.438 . S
C180 C185 1.429 . S
C181 C180 1.438 . S
C181 C182 1.428 . S
C181 C194 1.394 1_655 S
C182 H174 0.949 . S
C182 C181 1.428 . S
C182 C183 1.345 . S
C183 H175 0.950 . S
C183 C182 1.345 . S
C183 C184 1.424 . S
C184 H176 0.951 . S
C184 C183 1.424 . S
C184 C185 1.347 . S
C185 H177 0.951 . S
C185 C180 1.429 . S
C185 C184 1.347 . S
H186 C187 0.951 . S
C187 H186 0.951 . S
C187 C193 1.265 1_655 S
H188 C193 0.950 . S
H189 C197 0.949 . S
H190 C198 0.950 . S
H191 C199 0.951 . S
H192 C200 0.951 . S
C193 C187 1.265 1_455 S
C193 H188 0.950 . S
C193 C194 1.478 . S
C194 C181 1.394 1_455 S
C194 C193 1.478 . S
C194 C195 1.397 . S
C195 C194 1.397 . S
C195 C196 1.438 . S
C195 C200 1.429 . S
C196 C179 1.394 1_455 S
C196 C195 1.438 . S
C196 C197 1.428 . S
C197 H189 0.949 . S
C197 C196 1.428 . S
C197 C198 1.345 . S
C198 H190 0.950 . S
C198 C197 1.345 . S
C198 C199 1.424 . S
C199 H191 0.951 . S
C199 C198 1.424 . S
C199 C200 1.347 . S
C200 H192 0.951 . S
C200 C195 1.429 . S
C200 C199 1.347 . S
H201 C202 0.951 . S
C202 H201 0.951 . S
C202 C208 1.268 1_565 S
H203 C208 0.949 . S
H204 C212 0.949 . S
H205 C213 0.950 . S
H206 C214 0.951 . S
H207 C215 0.951 . S
C208 C202 1.268 1_545 S
C208 H203 0.949 . S
C208 C209 1.476 1_545 S
C209 C208 1.476 1_565 S
C209 C210 1.397 1_565 S
C209 C226 1.394 . S
C210 C209 1.397 1_545 S
C210 C211 1.438 . S
C210 C215 1.429 . S
C211 C210 1.438 . S
C211 C212 1.428 . S
C211 C224 1.394 1_545 S
C212 H204 0.949 . S
C212 C211 1.428 . S
C212 C213 1.345 . S
C213 H205 0.950 . S
C213 C212 1.345 . S
C213 C214 1.424 . S
C214 H206 0.951 . S
C214 C213 1.424 . S
C214 C215 1.347 . S
C215 H207 0.951 . S
C215 C210 1.429 . S
C215 C214 1.347 . S
H216 C217 0.951 . S
C217 H216 0.951 . S
C217 C223 1.264 1_545 S
H218 C223 0.950 . S
H219 C227 0.949 . S
H220 C228 0.950 . S
H221 C229 0.951 . S
H222 C230 0.951 . S
C223 C217 1.264 1_565 S
C223 H218 0.950 . S
C223 C224 1.478 . S
C224 C211 1.394 1_565 S
C224 C223 1.478 . S
C224 C225 1.397 . S
C225 C224 1.397 . S
C225 C226 1.438 . S
C225 C230 1.429 . S
C226 C209 1.394 . S
C226 C225 1.438 . S
C226 C227 1.428 . S
C227 H219 0.949 . S
C227 C226 1.428 . S
C227 C228 1.345 . S
C228 H220 0.950 . S
C228 C227 1.345 . S
C228 C229 1.424 . S
C229 H221 0.951 . S
C229 C228 1.424 . S
C229 C230 1.347 . S
C230 H222 0.951 . S
C230 C225 1.429 . S
C230 C229 1.347 . S
H231 C232 0.951 . S
C232 H231 0.951 . S
C232 C238 1.265 . S
H233 C238 0.950 . S
H234 C242 0.949 . S
H235 C243 0.950 . S
H236 C244 0.951 . S
H237 C245 0.951 . S
C238 C232 1.265 . S
C238 H233 0.950 . S
C238 C239 1.478 . S
C239 C238 1.478 . S
C239 C240 1.397 . S
C239 C256 1.394 . S
C240 C239 1.397 . S
C240 C241 1.438 . S
C240 C245 1.429 . S
C241 C240 1.438 . S
C241 C242 1.428 . S
C241 C254 1.394 . S
C242 H234 0.949 . S
C242 C241 1.428 . S
C242 C243 1.345 . S
C243 H235 0.950 . S
C243 C242 1.345 . S
C243 C244 1.424 . S
C244 H236 0.951 . S
C244 C243 1.424 . S
C244 C245 1.347 . S
C245 H237 0.951 . S
C245 C240 1.429 . S
C245 C244 1.347 . S
H246 C247 0.951 . S
C247 H246 0.951 . S
C247 C253 1.265 . S
H248 C253 0.950 . S
H249 C257 0.949 . S
H250 C258 0.950 . S
H251 C259 0.951 . S
H252 C260 0.951 . S
C253 C247 1.265 . S
C253 H248 0.950 . S
C253 C254 1.478 . S
C254 C241 1.394 . S
C254 C253 1.478 . S
C254 C255 1.397 . S
C255 C254 1.397 . S
C255 C256 1.438 . S
C255 C260 1.429 . S
C256 C239 1.394 . S
C256 C255 1.438 . S
C256 C257 1.428 . S
C257 H249 0.949 . S
C257 C256 1.428 . S
C257 C258 1.345 . S
C258 H250 0.950 . S
C258 C257 1.345 . S
C258 C259 1.424 . S
C259 H251 0.951 . S
C259 C258 1.424 . S
C259 C260 1.347 . S
C260 H252 0.951 . S
C260 C255 1.429 . S
C260 C259 1.347 . S
H261 C262 0.951 . S
C262 H261 0.951 . S
C262 C268 1.265 . S
H263 C268 0.950 . S
H264 C272 0.949 . S
H265 C273 0.950 . S
H266 C274 0.951 . S
H267 C275 0.951 . S
C268 C262 1.265 . S
C268 H263 0.950 . S
C268 C269 1.478 . S
C269 C268 1.478 . S
C269 C270 1.397 1_565 S
C269 C286 1.394 . S
C270 C269 1.397 1_545 S
C270 C271 1.438 . S
C270 C275 1.429 . S
C271 C270 1.438 . S
C271 C272 1.428 . S
C271 C284 1.394 1_545 S
C272 H264 0.949 . S
C272 C271 1.428 . S
C272 C273 1.345 . S
C273 H265 0.950 . S
C273 C272 1.345 . S
C273 C274 1.424 . S
C274 H266 0.951 . S
C274 C273 1.424 . S
C274 C275 1.347 . S
C275 H267 0.951 . S
C275 C270 1.429 . S
C275 C274 1.347 . S
H276 C277 0.948 . S
C277 H276 0.948 . S
C277 C283 1.277 . S
H278 C283 0.950 . S
H279 C287 0.949 . S
H280 C288 0.950 . S
H281 C289 0.951 . S
H282 C290 0.951 . S
C283 C277 1.277 . S
C283 H278 0.950 . S
C283 C284 1.478 . S
C284 C271 1.394 1_565 S
C284 C283 1.478 . S
C284 C285 1.397 . S
C285 C284 1.397 . S
C285 C286 1.438 . S
C285 C290 1.429 . S
C286 C269 1.394 . S
C286 C285 1.438 . S
C286 C287 1.428 . S
C287 H279 0.949 . S
C287 C286 1.428 . S
C287 C288 1.345 . S
C288 H280 0.950 . S
C288 C287 1.345 . S
C288 C289 1.424 . S
C289 H281 0.951 . S
C289 C288 1.424 . S
C289 C290 1.347 . S
C290 H282 0.951 . S
C290 C285 1.429 . S
C290 C289 1.347 . S
H291 C292 0.951 . S
C292 H291 0.951 . S
C292 C298 1.265 . S
H293 C298 0.950 . S
H294 C302 0.949 . S
H295 C303 0.950 . S
H296 C304 0.951 . S
H297 C305 0.951 . S
C298 C292 1.265 . S
C298 H293 0.950 . S
C298 C299 1.478 . S
C299 C298 1.478 . S
C299 C300 1.397 1_554 S
C299 C316 1.394 . S
C300 C299 1.397 1_556 S
C300 C301 1.438 . S
C300 C305 1.429 . S
C301 C300 1.438 . S
C301 C302 1.428 . S
C301 C314 1.394 . S
C302 H294 0.949 . S
C302 C301 1.428 . S
C302 C303 1.345 . S
C303 H295 0.950 . S
C303 C302 1.345 . S
C303 C304 1.424 . S
C304 H296 0.951 . S
C304 C303 1.424 . S
C304 C305 1.347 . S
C305 H297 0.951 . S
C305 C300 1.429 . S
C305 C304 1.347 . S
H306 C307 0.951 . S
C307 H306 0.951 . S
C307 C313 1.265 . S
H308 C313 0.950 . S
H309 C317 0.949 . S
H310 C318 0.950 . S
H311 C319 0.951 . S
H312 C320 0.951 . S
C313 C307 1.265 . S
C313 H308 0.950 . S
C313 C314 1.478 . S
C314 C301 1.394 . S
C314 C313 1.478 . S
C314 C315 1.397 . S
C315 C314 1.397 . S
C315 C316 1.438 1_556 S
C315 C320 1.429 . S
C316 C299 1.394 . S
C316 C315 1.438 1_554 S
C316 C317 1.428 . S
C317 H309 0.949 . S
C317 C316 1.428 . S
C317 C318 1.345 . S
C318 H310 0.950 . S
C318 C317 1.345 . S
C318 C319 1.424 . S
C319 H311 0.951 . S
C319 C318 1.424 . S
C319 C320 1.347 1_554 S
C320 H312 0.951 . S
C320 C315 1.429 . S
C320 C319 1.347 1_556 S
H321 C322 0.951 . S
C322 H321 0.951 . S
C322 C328 1.265 1_655 S
H323 C328 0.950 . S
H324 C332 0.949 . S
H325 C333 0.950 . S
H326 C334 0.951 . S
H327 C335 0.951 . S
C328 C322 1.265 1_455 S
C328 H323 0.950 . S
C328 C329 1.478 . S
C329 C328 1.478 . S
C329 C330 1.397 . S
C329 C346 1.394 1_455 S
C330 C329 1.397 . S
C330 C331 1.438 . S
C330 C335 1.429 . S
C331 C330 1.438 . S
C331 C332 1.428 . S
C331 C344 1.394 1_455 S
C332 H324 0.949 . S
C332 C331 1.428 . S
C332 C333 1.345 . S
C333 H325 0.950 . S
C333 C332 1.345 . S
C333 C334 1.424 . S
C334 H326 0.951 . S
C334 C333 1.424 . S
C334 C335 1.347 . S
C335 H327 0.951 . S
C335 C330 1.429 . S
C335 C334 1.347 . S
H336 C337 0.951 . S
C337 H336 0.951 . S
C337 C343 1.265 1_455 S
H338 C343 0.950 . S
H339 C347 0.949 . S
H340 C348 0.950 . S
H341 C349 0.951 . S
H342 C350 0.951 . S
C343 C337 1.265 1_655 S
C343 H338 0.950 . S
C343 C344 1.478 . S
C344 C331 1.394 1_655 S
C344 C343 1.478 . S
C344 C345 1.397 . S
C345 C344 1.397 . S
C345 C346 1.438 . S
C345 C350 1.429 . S
C346 C329 1.394 1_655 S
C346 C345 1.438 . S
C346 C347 1.428 . S
C347 H339 0.949 . S
C347 C346 1.428 . S
C347 C348 1.345 . S
C348 H340 0.950 . S
C348 C347 1.345 . S
C348 C349 1.424 . S
C349 H341 0.951 . S
C349 C348 1.424 . S
C349 C350 1.347 . S
C350 H342 0.951 . S
C350 C345 1.429 . S
C350 C349 1.347 . S
H351 C352 0.951 . S
C352 H351 0.951 . S
C352 C358 1.265 . S
H353 C358 0.950 . S
H354 C362 0.949 . S
H355 C363 0.950 . S
H356 C364 0.951 . S
H357 C365 0.951 . S
C358 C352 1.265 . S
C358 H353 0.950 . S
C358 C359 1.478 . S
C359 C358 1.478 . S
C359 C360 1.397 . S
C359 C376 1.394 1_545 S
C360 C359 1.397 . S
C360 C361 1.438 . S
C360 C365 1.429 . S
C361 C360 1.438 . S
C361 C362 1.428 . S
C361 C374 1.394 . S
C362 H354 0.949 . S
C362 C361 1.428 . S
C362 C363 1.345 . S
C363 H355 0.950 . S
C363 C362 1.345 . S
C363 C364 1.424 . S
C364 H356 0.951 . S
C364 C363 1.424 . S
C364 C365 1.347 . S
C365 H357 0.951 . S
C365 C360 1.429 . S
C365 C364 1.347 . S
H366 C367 0.959 . S
C367 H366 0.959 . S
C367 C373 1.266 1_545 S
H368 C373 0.955 . S
H369 C377 0.949 . S
H370 C378 0.950 . S
H371 C379 0.951 . S
H372 C380 0.951 . S
C373 C367 1.266 1_565 S
C373 H368 0.955 . S
C373 C374 1.473 1_565 S
C374 C361 1.394 . S
C374 C373 1.473 1_545 S
C374 C375 1.397 1_545 S
C375 C374 1.397 1_565 S
C375 C376 1.438 . S
C375 C380 1.429 . S
C376 C359 1.394 1_565 S
C376 C375 1.438 . S
C376 C377 1.428 . S
C377 H369 0.949 . S
C377 C376 1.428 . S
C377 C378 1.345 . S
C378 H370 0.950 . S
C378 C377 1.345 . S
C378 C379 1.424 . S
C379 H371 0.951 . S
C379 C378 1.424 . S
C379 C380 1.347 . S
C380 H372 0.951 . S
C380 C375 1.429 . S
C380 C379 1.347 . S
H381 C382 0.951 . S
C382 H381 0.951 . S
C382 C388 1.265 . S
H383 C388 0.950 . S
H384 C392 0.949 . S
H385 C393 0.950 . S
H386 C394 0.951 . S
H387 C395 0.951 . S
C388 C382 1.265 . S
C388 H383 0.950 . S
C388 C389 1.478 . S
C389 C388 1.478 . S
C389 C390 1.397 1_554 S
C389 C406 1.394 . S
C390 C389 1.397 1_556 S
C390 C391 1.438 . S
C390 C395 1.429 . S
C391 C390 1.438 . S
C391 C392 1.428 . S
C391 C404 1.394 . S
C392 H384 0.949 . S
C392 C391 1.428 . S
C392 C393 1.345 . S
C393 H385 0.950 . S
C393 C392 1.345 . S
C393 C394 1.424 . S
C394 H386 0.951 . S
C394 C393 1.424 . S
C394 C395 1.347 . S
C395 H387 0.951 . S
C395 C390 1.429 . S
C395 C394 1.347 . S
H396 C397 0.951 . S
C397 H396 0.951 . S
C397 C403 1.265 . S
H398 C403 0.950 . S
H399 C407 0.949 . S
H400 C408 0.950 . S
H401 C409 0.951 . S
H402 C410 0.921 1_556 S
C403 C397 1.265 . S
C403 H398 0.950 . S
C403 C404 1.478 . S
C404 C391 1.394 . S
C404 C403 1.478 . S
C404 C405 1.397 . S
C405 C404 1.397 . S
C405 C406 1.438 1_556 S
C405 C410 1.416 1_556 S
C406 C389 1.394 . S
C406 C405 1.438 1_554 S
C406 C407 1.428 . S
C407 H399 0.949 . S
C407 C406 1.428 . S
C407 C408 1.345 . S
C408 H400 0.950 . S
C408 C407 1.345 . S
C408 C409 1.424 . S
C409 H401 0.951 . S
C409 C408 1.424 . S
C409 C410 1.390 . S
C410 H402 0.921 1_554 S
C410 C405 1.416 1_554 S
C410 C409 1.390 . S
H411 C412 0.965 . S
C412 H411 0.965 . S
C412 C418 1.250 1_455 S
H413 C418 0.950 . S
H414 C422 0.949 . S
H415 C423 0.950 . S
H416 C424 0.951 . S
H417 C425 0.951 . S
C418 C412 1.250 1_655 S
C418 H413 0.950 . S
C418 C419 1.478 . S
C419 C418 1.478 . S
C419 C420 1.397 1_655 S
C419 C436 1.394 . S
C420 C419 1.397 1_455 S
C420 C421 1.438 . S
C420 C425 1.429 . S
C421 C420 1.438 . S
C421 C422 1.428 . S
C421 C434 1.394 . S
C422 H414 0.949 . S
C422 C421 1.428 . S
C422 C423 1.345 . S
C423 H415 0.950 . S
C423 C422 1.345 . S
C423 C424 1.424 . S
C424 H416 0.951 . S
C424 C423 1.424 . S
C424 C425 1.347 . S
C425 H417 0.951 . S
C425 C420 1.429 . S
C425 C424 1.347 . S
H426 C427 0.951 . S
C427 H426 0.951 . S
C427 C433 1.265 1_655 S
H428 C433 0.950 . S
H429 C437 0.949 . S
H430 C438 0.950 . S
H431 C439 0.951 . S
H432 C440 0.951 . S
C433 C427 1.265 1_455 S
C433 H428 0.950 . S
C433 C434 1.478 . S
C434 C421 1.394 . S
C434 C433 1.478 . S
C434 C435 1.397 1_455 S
C435 C434 1.397 1_655 S
C435 C436 1.438 . S
C435 C440 1.429 . S
C436 C419 1.394 . S
C436 C435 1.438 . S
C436 C437 1.428 . S
C437 H429 0.949 . S
C437 C436 1.428 . S
C437 C438 1.345 . S
C438 H430 0.950 . S
C438 C437 1.345 . S
C438 C439 1.424 . S
C439 H431 0.951 . S
C439 C438 1.424 . S
C439 C440 1.347 . S
C440 H432 0.951 . S
C440 C435 1.429 . S
C440 C439 1.347 . S
C97 C47 1.391 . S
C82 C6 1.431 1_455 S
C112 C22 1.531 . S
C127 C65 1.554 1_545 S
C142 C34 1.310 . S
C157 C78 1.292 . S
C172 C7 1.382 . S
C187 C45 1.393 . S
C217 C56 1.546 1_545 S
C202 C23 1.536 . S
C232 C35 1.320 . S
C247 C69 1.310 . S
C277 C58 1.468 . S
C262 C36 1.481 . S
C292 C9 1.642 . S
C307 C71 1.704 . S
C337 C52 1.495 1_455 S
C322 C21 1.448 . S
C367 C60 1.473 1_545 S
C352 C37 1.467 . S
C397 C73 1.667 . S
C382 C8 1.638 . S
C412 C20 1.466 . S
C427 C43 1.463 . S
