# Generated by pormake.
# Topology scu, (8,4)-cn, num edge types: 1
# Building blocks:
#     Node 0, Type 0, BuildingBlock: VETTIZ_charged_sbu_0, # of connection points: 8
#     Node 1, Type 1, BuildingBlock: NAWXER_clean_sbu_0, # of connection points: 4
#     Node 2, Type 1, BuildingBlock: NAWXER_clean_sbu_0, # of connection points: 4
#     Edge 3, Type (0, 1), BuildingBlock: MIFKUJ_clean_linker_0, # of connection points: 2
#     Edge 4, Type (0, 1), BuildingBlock: MIFKUJ_clean_linker_0, # of connection points: 2
#     Edge 5, Type (0, 1), BuildingBlock: MIFKUJ_clean_linker_0, # of connection points: 2
#     Edge 6, Type (0, 1), BuildingBlock: MIFKUJ_clean_linker_0, # of connection points: 2
#     Edge 7, Type (0, 1), BuildingBlock: MIFKUJ_clean_linker_0, # of connection points: 2
#     Edge 8, Type (0, 1), BuildingBlock: MIFKUJ_clean_linker_0, # of connection points: 2
#     Edge 9, Type (0, 1), BuildingBlock: MIFKUJ_clean_linker_0, # of connection points: 2
#     Edge 10, Type (0, 1), BuildingBlock: MIFKUJ_clean_linker_0, # of connection points: 2
# Relax obj value: 0.013
# Max RMSD: 0.059
# Mean RMSD: 0.052
data_MOF--net-scu--node1-VETTIZ_charged_sbu_0--node2-NAWXER_clean_sbu_0--edge1-MIFKUJ_clean_linker_0
_symmetry_space_group_name_H-M    P1
_symmetry_Int_Tables_number       1
_symmetry_cell_setting            triclinic
loop_
_symmetry_equiv_pos_as_xyz
'x, y, z'
_cell_length_a     32.403466
_cell_length_b     31.692489
_cell_length_c     24.97512
_cell_angle_alpha  89.997928
_cell_angle_beta   90.180931
_cell_angle_gamma 91.204209
loop_
_atom_site_label
_atom_site_type_symbol
_atom_site_fract_x
_atom_site_fract_y
_atom_site_fract_z
_atom_type_partial_charge
Fe0 Fe 1.00143 1.00819 0.07757 0.0
O1 O 0.95884 1.01063 0.01985 0.0
Fe2 Fe 0.083 0.9606 0.01275 0.0
Fe3 Fe 0.91485 0.05189 0.0217 0.0
O4 O 0.04052 1.00392 0.01625 0.0
O5 O 0.04032 1.00401 0.01059 0.0
O6 O 0.95849 1.01003 0.01393 0.0
Fe7 Fe 0.99789 1.00885 0.95217 0.0
C8 C 0.91412 1.0061 0.12779 0.0
O9 O 0.00913 0.07308 0.0776 0.0
O10 O 0.94263 0.08885 0.08066 0.0
O11 O 0.04736 1.00733 0.89647 0.0
O12 O 0.10488 0.99615 0.94971 0.0
O13 O 0.10823 0.99554 0.07444 0.0
O14 O 0.05252 1.00573 0.13021 0.0
O15 O 0.939 0.09187 0.96444 0.0
O16 O 0.00457 0.07414 0.95208 0.0
C17 C 0.09199 1.00521 0.12008 0.0
O18 O 0.99038 0.94404 0.94572 0.0
O19 O 0.05527 0.92297 0.95553 0.0
O20 O 0.95382 1.01093 0.13481 0.0
O21 O 0.89447 0.01394 0.08364 0.0
C22 C 0.98048 0.09833 0.08905 0.0
C23 C 0.9752 0.10014 0.94713 0.0
C24 C 0.90658 1.01192 0.91106 0.0
O25 O 0.89085 0.0179 0.95825 0.0
O26 O 0.94614 1.01343 0.9002 0.0
C27 C 0.08732 1.00681 0.90493 0.0
O28 O 0.05716 0.92232 0.07188 0.0
O29 O 0.99282 0.94398 0.08083 0.0
C30 C 0.01852 0.91708 0.93892 0.0
C31 C 0.02022 0.91655 0.08809 0.0
C32 C 0.04408 0.56905 0.57346 0.0
C33 C 0.03708 0.45368 0.44133 0.0
O34 O 0.07469 0.55122 0.55195 0.0
Zn35 Zn 0.04327 0.5108 0.50739 0.0
O36 O 0.00733 0.55636 0.56226 0.0
Zn37 Zn 0.97684 0.5099 0.51392 0.0
O38 O 0.95089 0.47245 0.56728 0.0
O39 O 0.01858 0.46688 0.5645 0.0
O40 O 1.002 0.46466 0.4597 0.0
O41 O 0.06991 0.47289 0.45688 0.0
O42 O 0.01228 0.55108 0.45291 0.0
O43 O 0.94503 0.5461 0.46566 0.0
C44 C 0.98362 0.4549 0.5837 0.0
C45 C 0.97569 0.56209 0.44043 0.0
C46 C 0.5575 0.05935 0.57202 0.0
C47 C 0.45869 0.05824 0.42366 0.0
O48 O 0.54254 0.02248 0.56186 0.0
Zn49 Zn 0.49968 0.99356 0.50701 0.0
O50 O 0.54432 0.09119 0.54671 0.0
Zn51 Zn 0.50629 0.06092 0.49947 0.0
O52 O 0.45565 0.04 0.5479 0.0
O53 O 0.45533 0.97049 0.55194 0.0
O54 O 0.47698 0.0906 0.44345 0.0
O55 O 0.46525 0.02165 0.44347 0.0
O56 O 0.53697 0.95687 0.46787 0.0
O57 O 0.54951 0.02492 0.45578 0.0
C58 C 0.43882 1.0053 0.56396 0.0
C59 C 0.55895 0.98647 0.44737 0.0
H60 H 0.03325 0.16366 0.06268 0.0
H61 H 0.04568 0.22929 0.11326 0.0
H62 H 0.96357 0.18355 0.23729 0.0
H63 H 0.94894 0.11992 0.1848 0.0
H64 H 0.94887 0.26084 0.22161 0.0
H65 H 0.08054 0.18489 0.23495 0.0
H66 H 0.14108 0.1544 0.19095 0.0
H67 H 0.17356 0.27508 0.12382 0.0
H68 H 0.1125 0.30616 0.16587 0.0
H69 H 0.99242 0.38106 0.44711 0.0
H70 H 0.98778 0.32417 0.3816 0.0
H71 H 0.0769 0.3898 0.28204 0.0
H72 H 0.08349 0.44587 0.34995 0.0
H73 H 0.0895 0.31129 0.27243 0.0
H74 H 0.96794 0.39035 0.25709 0.0
H75 H 0.90569 0.42704 0.28682 0.0
H76 H 0.8534 0.3099 0.34392 0.0
H77 H 0.91559 0.27257 0.31522 0.0
C78 C 0.01811 0.16784 0.10087 0.0
C79 C 0.99036 0.13685 0.12017 0.0
C80 C 0.02533 0.20522 0.12997 0.0
C81 C 0.00626 0.21137 0.17997 0.0
C82 C 0.97874 0.17993 0.19901 0.0
C83 C 0.97052 0.14341 0.16919 0.0
C84 C 0.01394 0.2503 0.21285 0.0
C85 C 0.97967 0.27144 0.2332 0.0
C86 C 0.05406 0.26616 0.22569 0.0
C87 C 0.0918 0.24771 0.20314 0.0
C88 C 0.1006 0.2049 0.21083 0.0
C89 C 0.13496 0.18751 0.18618 0.0
C90 C 0.1611 0.21276 0.15475 0.0
C91 C 0.15321 0.25557 0.14813 0.0
C92 C 0.11871 0.27307 0.17224 0.0
C93 C 0.01136 0.38312 0.41147 0.0
C94 C 0.0381 0.41794 0.40334 0.0
C95 C 0.0084 0.35076 0.3737 0.0
C96 C 0.03084 0.35317 0.32568 0.0
C97 C 0.0589 0.38725 0.3184 0.0
C98 C 0.06273 0.41925 0.35717 0.0
C99 C 0.02435 0.32022 0.28343 0.0
C100 C 0.05869 0.30062 0.26095 0.0
C101 C 0.98426 0.30647 0.26733 0.0
C102 C 0.94658 0.32871 0.28429 0.0
C103 C 0.94326 0.37245 0.27625 0.0
C104 C 0.90798 0.39335 0.2929 0.0
C105 C 0.87564 0.37082 0.31732 0.0
C106 C 0.87848 0.32731 0.32502 0.0
C107 C 0.91372 0.30625 0.3085 0.0
H108 H 0.84836 0.38707 0.33021 0.0
H109 H 0.18735 0.19915 0.13531 0.0
H110 H 0.87703 0.92975 0.14239 0.0
H111 H 0.82353 0.91166 0.20816 0.0
H112 H 0.83689 0.03617 0.27714 0.0
H113 H 0.89206 0.05319 0.21315 0.0
H114 H 0.81705 0.98333 0.35303 0.0
H115 H 0.7647 1.01135 0.17614 0.0
H116 H 0.75834 1.00115 0.07853 0.0
H117 H 0.71665 0.87313 0.1032 0.0
H118 H 0.72331 0.88244 0.20103 0.0
H119 H 0.61868 0.04385 0.4213 0.0
H120 H 0.68403 0.03221 0.37733 0.0
H121 H 0.65417 0.89945 0.36336 0.0
H122 H 0.58772 0.91076 0.40853 0.0
H123 H 0.68428 0.94116 0.26671 0.0
H124 H 0.72397 0.92451 0.45024 0.0
H125 H 0.72602 0.94414 0.54578 0.0
H126 H 0.78716 0.06151 0.50653 0.0
H127 H 0.78501 0.04289 0.41063 0.0
C128 C 0.86939 0.95258 0.17289 0.0
C129 C 0.88855 0.99266 0.17331 0.0
C130 C 0.8386 0.94245 0.21008 0.0
C131 C 0.82537 0.97289 0.24685 0.0
C132 C 0.84643 1.01214 0.24921 0.0
C133 C 0.8779 0.02191 0.21274 0.0
C134 C 0.78717 0.96571 0.27889 0.0
C135 C 0.78807 0.97404 0.33415 0.0
C136 C 0.74927 0.95303 0.25453 0.0
C137 C 0.74501 0.94741 0.1958 0.0
C138 C 0.75445 0.98094 0.16071 0.0
C139 C 0.75076 0.97534 0.10537 0.0
C140 C 0.73723 0.93647 0.08467 0.0
C141 C 0.72723 0.90318 0.11929 0.0
C142 C 0.73095 0.9086 0.17468 0.0
C143 C 0.62562 1.01204 0.40886 0.0
C144 C 0.59774 0.97818 0.41828 0.0
C145 C 0.6633 1.00546 0.38408 0.0
C146 C 0.67418 0.96493 0.36785 0.0
C147 C 0.64635 0.93094 0.37612 0.0
C148 C 0.60848 0.93744 0.40174 0.0
C149 C 0.71417 0.9594 0.3404 0.0
C150 C 0.71354 0.94908 0.28587 0.0
C151 C 0.752 0.97133 0.36521 0.0
C152 C 0.75423 0.98229 0.42308 0.0
C153 C 0.73771 0.95459 0.4619 0.0
C154 C 0.73891 0.96554 0.51615 0.0
C155 C 0.75675 1.00403 0.53221 0.0
C156 C 0.77345 0.03165 0.49403 0.0
C157 C 0.77233 0.02087 0.43971 0.0
H158 H 0.75765 1.01243 0.57422 0.0
H159 H 0.7344 0.93219 0.04181 0.0
H160 H 0.06618 0.84564 0.10264 0.0
H161 H 0.04944 0.78407 0.1581 0.0
H162 H 0.93333 0.83862 0.20108 0.0
H163 H 0.94989 0.90042 0.14595 0.0
H164 H 0.97379 0.80701 0.28872 0.0
H165 H 0.93442 0.75865 0.1144 0.0
H166 H 0.94438 0.74654 0.01783 0.0
H167 H 0.04551 0.66529 0.05201 0.0
H168 H 0.03665 0.67751 0.14881 0.0
H169 H 0.91126 0.61631 0.42369 0.0
H170 H 0.90911 0.67474 0.35882 0.0
H171 H 0.02739 0.63883 0.29687 0.0
H172 H 0.02972 0.58101 0.36093 0.0
H173 H 0.97579 0.66125 0.21639 0.0
H174 H 0.02112 0.71586 0.38764 0.0
H175 H 0.01472 0.72949 0.48445 0.0
H176 H 0.9049 0.79973 0.456 0.0
H177 H 0.91026 0.78585 0.35902 0.0
C178 C 0.03697 0.84451 0.12361 0.0
C179 C 0.00934 0.87801 0.11953 0.0
C180 C 0.02738 0.80918 0.15524 0.0
C181 C 0.98997 0.80651 0.18352 0.0
C182 C 0.96234 0.83989 0.17961 0.0
C183 C 0.97178 0.87512 0.14774 0.0
C184 C 0.98014 0.76913 0.21773 0.0
C185 C 0.97338 0.77518 0.27271 0.0
C186 C 0.98023 0.72752 0.19706 0.0
C187 C 0.98504 0.71925 0.13891 0.0
C188 C 0.95894 0.73838 0.10134 0.0
C189 C 0.96438 0.7315 0.04654 0.0
C190 C 0.99561 0.70523 0.02879 0.0
C191 C 0.02135 0.68566 0.06582 0.0
C192 C 0.01611 0.69252 0.12067 0.0
C193 C 0.93641 0.62054 0.39561 0.0
C194 C 0.97078 0.59422 0.39773 0.0
C195 C 0.93528 0.65403 0.35876 0.0
C196 C 0.96831 0.66144 0.32323 0.0
C197 C 1.00156 0.63385 0.32375 0.0
C198 C 0.0029 0.60086 0.36069 0.0
C199 C 0.97002 0.6991 0.2875 0.0
C200 C 0.97541 0.69311 0.23223 0.0
C201 C 0.9689 0.74076 0.30794 0.0
C202 C 0.96577 0.74933 0.36617 0.0
C203 C 0.99539 0.73388 0.40207 0.0
C204 C 0.99199 0.74169 0.45696 0.0
C205 C 0.95935 0.76534 0.47638 0.0
C206 C 0.93011 0.78132 0.44091 0.0
C207 C 0.9333 0.77348 0.38599 0.0
H208 H 0.95678 0.77139 0.51889 0.0
H209 H 0.99982 0.70001 0.98634 0.0
H210 H 0.10738 0.07913 0.17376 0.0
H211 H 0.16873 0.09516 0.22986 0.0
H212 H 0.20586 0.9659 0.21669 0.0
H213 H 0.14534 0.94992 0.16083 0.0
H214 H 0.22036 1.00001 0.31831 0.0
H215 H 0.2406 0.03177 0.13411 0.0
H216 H 0.23129 0.06489 0.04591 0.0
H217 H 0.26188 0.18627 0.11305 0.0
H218 H 0.26888 0.15428 0.20249 0.0
H219 H 0.43129 0.99736 0.3553 0.0
H220 H 0.36755 0.99702 0.30319 0.0
H221 H 0.347 0.12615 0.34837 0.0
H222 H 0.41144 0.12692 0.40065 0.0
H223 H 0.32232 0.0992 0.23553 0.0
H224 H 0.29859 0.06249 0.42307 0.0
H225 H 0.32236 0.02449 0.50308 0.0
H226 H 0.31066 0.90671 0.41903 0.0
H227 H 0.28659 0.94412 0.33833 0.0
C228 C 0.12807 0.05404 0.18437 0.0
C229 C 0.12179 1.01328 0.16355 0.0
C230 C 0.16314 0.0633 0.21568 0.0
C231 C 0.19201 0.03193 0.2265 0.0
C232 C 0.18401 0.99057 0.20877 0.0
C233 C 0.14945 0.98145 0.17705 0.0
C234 C 0.23217 0.04249 0.25238 0.0
C235 C 0.24239 0.02193 0.30026 0.0
C236 C 0.26122 0.07096 0.2287 0.0
C237 C 0.25425 0.09067 0.17551 0.0
C238 C 0.24411 0.06569 0.13056 0.0
C239 C 0.23933 0.08428 0.08022 0.0
C240 C 0.24559 0.12772 0.07396 0.0
C241 C 0.25661 0.15266 0.11806 0.0
C242 C 0.2606 0.13438 0.1687 0.0
C243 C 0.41384 0.0261 0.35308 0.0
C244 C 0.42608 0.06203 0.38256 0.0
C245 C 0.37744 0.02583 0.32326 0.0
C246 C 0.35234 0.06131 0.32276 0.0
C247 C 0.36604 0.09846 0.34842 0.0
C248 C 0.40283 0.09886 0.37816 0.0
C249 C 0.30982 0.05723 0.30122 0.0
C250 C 0.29945 0.07851 0.25415 0.0
C251 C 0.28081 0.02907 0.32492 0.0
C252 C 0.29089 1.00607 0.37478 0.0
C253 C 0.30081 0.02845 0.42182 0.0
C254 C 0.31455 1.00705 0.46718 0.0
C255 C 0.31859 0.96329 0.46598 0.0
C256 C 0.30783 0.94067 0.41976 0.0
C257 C 0.29384 0.96191 0.37431 0.0
H258 H 0.32967 0.94686 0.50103 0.0
H259 H 0.24222 0.14202 0.03488 0.0
H260 H 0.99217 0.9161 0.83562 0.0
H261 H 0.99612 0.85722 0.77263 0.0
H262 H 0.03219 0.77507 0.90183 0.0
H263 H 0.03115 0.83494 0.9638 0.0
H264 H 0.08084 0.76312 0.82536 0.0
H265 H 0.9308 0.77354 0.82796 0.0
H266 H 0.86457 0.80965 0.8166 0.0
H267 H 0.89528 0.83851 0.65334 0.0
H268 H 0.9618 0.80311 0.66388 0.0
H269 H 0.06583 0.56941 0.67894 0.0
H270 H 0.06094 0.62879 0.74156 0.0
H271 H 0.02736 0.7104 0.61067 0.0
H272 H 0.03061 0.65054 0.54887 0.0
H273 H 0.97755 0.72287 0.68684 0.0
H274 H 0.12454 0.71699 0.67965 0.0
H275 H 0.19284 0.68432 0.68483 0.0
H276 H 0.17125 0.65177 0.84942 0.0
H277 H 0.10257 0.6838 0.84504 0.0
C278 C 0.99972 0.88513 0.85067 0.0
C279 C 0.01072 0.8798 0.90461 0.0
C280 C 1.00199 0.85133 0.81462 0.0
C281 C 0.01399 0.81112 0.83217 0.0
C282 C 0.02297 0.80556 0.88689 0.0
C283 C 0.02192 0.83964 0.92252 0.0
C284 C 0.02044 0.77578 0.79336 0.0
C285 C 0.05779 0.75391 0.79576 0.0
C286 C 0.99147 0.76462 0.7528 0.0
C287 C 0.95141 0.78593 0.74686 0.0
C288 C 0.92352 0.78783 0.78977 0.0
C289 C 0.88591 0.80816 0.78344 0.0
C290 C 0.87579 0.82642 0.73428 0.0
C291 C 0.90318 0.82439 0.69137 0.0
C292 C 0.9408 0.80418 0.69749 0.0
C293 C 0.05851 0.60036 0.66361 0.0
C294 C 0.04942 0.60581 0.60914 0.0
C295 C 0.05565 0.63433 0.69933 0.0
C296 C 0.04413 0.67449 0.68104 0.0
C297 C 0.03627 0.67994 0.62606 0.0
C298 C 0.03855 0.64588 0.59061 0.0
C299 C 0.03765 0.71007 0.71932 0.0
C300 C 1.00043 0.73197 0.71672 0.0
C301 C 0.06699 0.72174 0.75907 0.0
C302 C 0.10824 0.70242 0.76184 0.0
C303 C 0.13422 0.70257 0.71683 0.0
C304 C 0.17303 0.68423 0.71965 0.0
C305 C 0.18633 0.66588 0.76738 0.0
C306 C 0.16088 0.66594 0.81245 0.0
C307 C 0.12203 0.68422 0.80984 0.0
H308 H 0.21639 0.6517 0.76949 0.0
H309 H 0.84671 0.84205 0.72918 0.0
H310 H 0.16793 0.03025 0.91445 0.0
H311 H 0.21966 0.03446 0.8453 0.0
H312 H 0.1263 1.01089 0.72476 0.0
H313 H 0.07359 1.00436 0.79534 0.0
H314 H 0.19032 0.96417 0.70518 0.0
H315 H 0.17608 0.10997 0.73815 0.0
H316 H 0.16946 0.17485 0.79164 0.0
H317 H 0.29015 0.15728 0.85842 0.0
H318 H 0.2973 0.09197 0.80591 0.0
H319 H 0.38766 0.07189 0.57031 0.0
H320 H 0.32061 0.07529 0.61276 0.0
H321 H 0.33137 0.9462 0.66541 0.0
H322 H 0.39795 0.94189 0.61966 0.0
H323 H 0.30017 0.07544 0.70569 0.0
H324 H 0.24884 0.90097 0.69722 0.0
H325 H 0.24553 0.84035 0.63511 0.0
H326 H 0.24224 0.92504 0.50115 0.0
H327 H 0.24732 0.98617 0.56238 0.0
C328 C 0.15795 0.02628 0.87328 0.0
C329 C 0.11643 0.01662 0.86061 0.0
C330 C 0.18778 0.02913 0.83351 0.0
C331 C 0.17703 0.02357 0.77955 0.0
C332 C 0.13535 0.01542 0.76617 0.0
C333 C 0.10519 1.01211 0.80643 0.0
C334 C 0.21027 0.0239 0.73847 0.0
C335 C 0.21409 0.98879 0.70474 0.0
C336 C 0.24101 0.05631 0.73691 0.0
C337 C 0.23715 0.09594 0.76816 0.0
C338 C 0.20115 0.11983 0.76441 0.0
C339 C 0.1973 0.1567 0.79456 0.0
C340 C 0.22935 0.17016 0.82843 0.0
C341 C 0.26536 0.14683 0.83213 0.0
C342 C 0.26936 0.10993 0.80209 0.0
C343 C 0.37585 0.04406 0.59081 0.0
C344 C 0.39848 1.00667 0.59195 0.0
C345 C 0.33722 0.04604 0.61507 0.0
C346 C 0.32026 1.01097 0.64219 0.0
C347 C 0.34287 0.97346 0.64356 0.0
C348 C 0.38134 0.97116 0.61808 0.0
C349 C 0.28086 0.01525 0.67259 0.0
C350 C 0.27609 0.05117 0.70493 0.0
C351 C 0.24859 0.98437 0.67131 0.0
C352 C 0.24891 0.94799 0.63426 0.0
C353 C 0.248 0.90658 0.65444 0.0
C354 C 0.24603 0.87219 0.61941 0.0
C355 C 0.24419 0.87888 0.56416 0.0
C356 C 0.24452 0.91997 0.54387 0.0
C357 C 0.24734 0.95448 0.57867 0.0
H358 H 0.2422 0.85224 0.53709 0.0
H359 H 0.2263 0.19869 0.85178 0.0
H360 H 0.92383 0.16705 0.94303 0.0
H361 H 0.92707 0.22751 0.88308 0.0
H362 H 0.0421 0.18434 0.81892 0.0
H363 H 0.03915 0.12307 0.8793 0.0
H364 H 0.04157 0.27145 0.83506 0.0
H365 H 0.95306 0.16564 0.75297 0.0
H366 H 0.89408 0.11521 0.74855 0.0
H367 H 0.81003 0.21631 0.7728 0.0
H368 H 0.86847 0.26722 0.7786 0.0
H369 H 0.04433 0.39921 0.60448 0.0
H370 H 0.04375 0.34065 0.66734 0.0
H371 H 0.92031 0.37147 0.71583 0.0
H372 H 0.92013 0.42969 0.65082 0.0
H373 H 0.92525 0.29013 0.70813 0.0
H374 H 0.00949 0.39524 0.79453 0.0
H375 H 0.06608 0.44808 0.80305 0.0
H376 H 0.15503 0.35191 0.77589 0.0
H377 H 0.09892 0.29858 0.76645 0.0
C378 C 0.95012 0.17036 0.91655 0.0
C379 C 0.98106 0.13977 0.91573 0.0
C380 C 0.95177 0.20501 0.88206 0.0
C381 C 0.9843 0.21004 0.84559 0.0
C382 C 0.01647 0.18089 0.84643 0.0
C383 C 0.01484 0.14596 0.8811 0.0
C384 C 0.98393 0.2453 0.8061 0.0
C385 C 0.01646 0.27521 0.80673 0.0
C386 C 0.95042 0.25102 0.77032 0.0
C387 C 0.91526 0.22024 0.76677 0.0
C388 C 0.92205 0.17709 0.75789 0.0
C389 C 0.88869 0.14841 0.75507 0.0
C390 C 0.84837 0.16257 0.76054 0.0
C391 C 0.84129 0.2054 0.76869 0.0
C392 C 0.87452 0.23417 0.77177 0.0
C393 C 0.01701 0.3938 0.62862 0.0
C394 C 0.98237 0.41953 0.62289 0.0
C395 C 0.01683 0.36026 0.6649 0.0
C396 C 0.98239 0.35199 0.69751 0.0
C397 C 0.94742 0.37726 0.69144 0.0
C398 C 0.94735 0.41062 0.65437 0.0
C399 C 0.98289 0.31654 0.73704 0.0
C400 C 0.9504 0.2865 0.73642 0.0
C401 C 0.01611 0.31102 0.77341 0.0
C402 C 0.04996 0.34298 0.77929 0.0
C403 C 0.0411 0.38541 0.78999 0.0
C404 C 0.07309 0.41544 0.79504 0.0
C405 C 0.11412 0.40338 0.78989 0.0
C406 C 0.12323 0.36122 0.77981 0.0
C407 C 0.09135 0.33107 0.77465 0.0
H408 H 0.13884 0.42668 0.7938 0.0
H409 H 0.82256 0.14044 0.75848 0.0
H410 H 0.82422 0.99553 0.9208 0.0
H411 H 0.77158 0.99923 0.8527 0.0
H412 H 0.86486 0.0192 0.73186 0.0
H413 H 0.91866 0.01794 0.80148 0.0
H414 H 0.80687 0.0733 0.71904 0.0
H415 H 0.80314 0.92408 0.74561 0.0
H416 H 0.80022 0.85833 0.79864 0.0
H417 H 0.68133 0.89059 0.85917 0.0
H418 H 0.68388 0.95713 0.80831 0.0
H419 H 0.63392 0.08122 0.53795 0.0
H420 H 0.69904 0.06884 0.58447 0.0
H421 H 0.63132 0.03018 0.7256 0.0
H422 H 0.56632 0.03963 0.67724 0.0
H423 H 0.68482 0.97676 0.71049 0.0
H424 H 0.69454 0.12998 0.70817 0.0
H425 H 0.69713 0.20074 0.66693 0.0
H426 H 0.80116 0.16524 0.57214 0.0
H427 H 0.79889 0.09413 0.61246 0.0
C428 C 0.83402 1.00021 0.87977 0.0
C429 C 0.87597 1.00669 0.8669 0.0
C430 C 0.80358 1.00181 0.84048 0.0
C431 C 0.81401 1.0086 0.78669 0.0
C432 C 0.85598 0.01354 0.77305 0.0
C433 C 0.88676 1.01252 0.81282 0.0
C434 C 0.78047 0.01435 0.74648 0.0
C435 C 0.78042 0.05187 0.71659 0.0
C436 C 0.74567 0.98656 0.74344 0.0
C437 C 0.74374 0.94577 0.77298 0.0
C438 C 0.77641 0.91729 0.77034 0.0
C439 C 0.77485 0.87987 0.80006 0.0
C440 C 0.74061 0.87024 0.83194 0.0
C441 C 0.70781 0.89803 0.83433 0.0
C442 C 0.7093 0.93563 0.80509 0.0
C443 C 0.63316 0.07134 0.57949 0.0
C444 C 0.59529 0.06232 0.60466 0.0
C445 C 0.67044 0.06412 0.60612 0.0
C446 C 0.67053 0.04884 0.65902 0.0
C447 C 0.63238 0.04174 0.68479 0.0
C448 C 0.59517 0.0477 0.65756 0.0
C449 C 0.70976 0.03743 0.68667 0.0
C450 C 0.7112 0.9983 0.71307 0.0
C451 C 0.74535 0.06423 0.68774 0.0
C452 C 0.74621 0.10665 0.66282 0.0
C453 C 0.71771 0.13718 0.67818 0.0
C454 C 0.71919 0.17736 0.65507 0.0
C455 C 0.74921 0.18744 0.61683 0.0
C456 C 0.77787 0.15737 0.60169 0.0
C457 C 0.77652 0.11715 0.62466 0.0
H458 H 0.75032 0.21857 0.59902 0.0
H459 H 0.73952 0.84125 0.85486 0.0
loop_
_geom_bond_atom_site_label_1
_geom_bond_atom_site_label_2
_geom_bond_distance
_geom_bond_site_symmetry_2
_ccdc_geom_bond_type
Fe0 O1 1.906 . S
Fe0 O4 1.695 1_645 S
Fe0 O9 2.099 1_655 S
Fe0 O14 1.924 1_655 S
Fe0 O20 2.092 1_545 S
Fe0 O29 1.916 1_545 S
O1 Fe0 1.906 . S
O1 Fe3 1.715 1_554 S
Fe2 O4 1.886 . S
Fe2 O5 1.715 1_554 S
Fe2 O12 1.935 1_554 S
Fe2 O13 2.077 . S
Fe2 O19 1.935 1_554 S
Fe2 O28 2.077 . S
Fe3 O1 1.715 1_556 S
Fe3 O6 1.886 . S
Fe3 O10 1.935 1_556 S
Fe3 O15 2.077 . S
Fe3 O21 1.935 1_556 S
Fe3 O25 2.077 . S
O4 Fe0 1.695 1_465 S
O4 Fe2 1.886 . S
O5 Fe2 1.715 1_556 S
O5 Fe7 1.906 . S
O6 Fe3 1.886 . S
O6 Fe7 1.695 1_645 S
Fe7 O5 1.906 . S
Fe7 O6 1.695 1_465 S
Fe7 O11 2.099 1_565 S
Fe7 O16 1.924 1_565 S
Fe7 O18 2.092 1_455 S
Fe7 O26 1.916 1_455 S
C8 O20 1.381 1_545 S
C8 O21 1.421 . S
O9 Fe0 2.099 1_455 S
O9 C22 1.381 1_455 S
O10 Fe3 1.935 1_554 S
O10 C22 1.421 . S
O11 Fe7 2.099 1_545 S
O11 C27 1.381 1_545 S
O12 Fe2 1.935 1_556 S
O12 C27 1.421 . S
O13 Fe2 2.077 . S
O13 C17 1.381 . S
O14 Fe0 1.924 1_455 S
O14 C17 1.421 1_545 S
O15 Fe3 2.077 . S
O15 C23 1.381 . S
O16 Fe7 1.924 1_545 S
O16 C23 1.421 1_455 S
C17 O13 1.381 . S
C17 O14 1.421 1_565 S
O18 Fe7 2.092 1_655 S
O18 C30 1.381 1_655 S
O19 Fe2 1.935 1_556 S
O19 C30 1.421 . S
O20 Fe0 2.092 1_565 S
O20 C8 1.381 1_565 S
O21 Fe3 1.935 1_554 S
O21 C8 1.421 . S
C22 O9 1.381 1_655 S
C22 O10 1.421 . S
C23 O15 1.381 . S
C23 O16 1.421 1_655 S
C24 O25 1.381 . S
C24 O26 1.421 1_545 S
O25 Fe3 2.077 . S
O25 C24 1.381 . S
O26 Fe7 1.916 1_655 S
O26 C24 1.421 1_565 S
C27 O11 1.381 1_565 S
C27 O12 1.421 . S
O28 Fe2 2.077 . S
O28 C31 1.381 . S
O29 Fe0 1.916 1_565 S
O29 C31 1.421 1_655 S
C30 O18 1.381 1_455 S
C30 O19 1.421 . S
C31 O28 1.381 . S
C31 O29 1.421 1_455 S
C32 O34 1.251 . S
C32 O36 1.254 1_455 S
C33 O40 1.245 . S
C33 O41 1.260 1_655 S
O34 C32 1.251 . S
O34 Zn35 2.028 . S
Zn35 O34 2.028 . S
Zn35 O39 2.035 . S
Zn35 O41 2.035 . S
Zn35 O42 2.028 . S
O36 C32 1.254 1_655 S
O36 Zn37 2.035 . S
Zn37 O36 2.035 . S
Zn37 O38 2.028 . S
Zn37 O40 2.028 . S
Zn37 O43 2.035 . S
O38 Zn37 2.028 . S
O38 C44 1.245 . S
O39 Zn35 2.035 . S
O39 C44 1.260 1_455 S
O40 C33 1.245 . S
O40 Zn37 2.028 . S
O41 C33 1.260 1_455 S
O41 Zn35 2.035 . S
O42 Zn35 2.028 . S
O42 C45 1.251 . S
O43 Zn37 2.035 . S
O43 C45 1.254 1_655 S
C44 O38 1.245 . S
C44 O39 1.260 1_655 S
C45 O42 1.251 . S
C45 O43 1.254 1_455 S
C46 O48 1.245 . S
C46 O50 1.260 1_565 S
C47 O54 1.251 . S
C47 O55 1.254 1_545 S
O48 C46 1.245 . S
O48 Zn49 2.028 . S
Zn49 O48 2.028 . S
Zn49 O53 2.035 . S
Zn49 O55 2.035 . S
Zn49 O56 2.028 . S
O50 C46 1.260 1_545 S
O50 Zn51 2.035 . S
Zn51 O50 2.035 . S
Zn51 O52 2.028 . S
Zn51 O54 2.028 . S
Zn51 O57 2.035 . S
O52 Zn51 2.028 . S
O52 C58 1.251 . S
O53 Zn49 2.035 . S
O53 C58 1.254 1_565 S
O54 C47 1.251 . S
O54 Zn51 2.028 . S
O55 C47 1.254 1_565 S
O55 Zn49 2.035 . S
O56 Zn49 2.028 . S
O56 C59 1.245 . S
O57 Zn51 2.035 . S
O57 C59 1.260 1_545 S
C58 O52 1.251 . S
C58 O53 1.254 1_545 S
C59 O56 1.245 . S
C59 O57 1.260 1_565 S
H60 C78 0.951 . S
H61 C80 0.951 . S
H62 C82 0.950 . S
H63 C83 0.950 . S
H64 C85 0.950 . S
H65 C88 0.950 . S
H66 C89 0.950 . S
H67 C91 0.950 . S
H68 C92 0.950 . S
H69 C93 0.951 . S
H70 C95 0.951 . S
H71 C97 0.950 . S
H72 C98 0.950 . S
H73 C100 0.950 . S
H74 C103 0.950 . S
H75 C104 0.950 . S
H76 C106 0.950 . S
H77 C107 0.950 . S
C78 H60 0.951 . S
C78 C79 1.366 . S
C78 C80 1.388 . S
C79 C78 1.366 . S
C79 C83 1.384 1_455 S
C80 H61 0.951 . S
C80 C78 1.388 . S
C80 C81 1.366 . S
C81 C80 1.366 . S
C81 C82 1.414 1_455 S
C81 C84 1.499 . S
C82 H62 0.950 . S
C82 C81 1.414 1_655 S
C82 C83 1.374 . S
C83 H63 0.950 . S
C83 C79 1.384 1_655 S
C83 C82 1.374 . S
C84 C81 1.499 . S
C84 C85 1.373 1_455 S
C84 C86 1.389 . S
C85 H64 0.950 . S
C85 C84 1.373 1_655 S
C85 C101 1.377 . S
C86 C84 1.389 . S
C86 C87 1.524 . S
C86 C100 1.377 . S
C87 C86 1.524 . S
C87 C88 1.397 . S
C87 C92 1.363 . S
C88 H65 0.950 . S
C88 C87 1.397 . S
C88 C89 1.334 . S
C89 H66 0.950 . S
C89 C88 1.334 . S
C89 C90 1.287 . S
C90 C89 1.287 . S
C90 C91 1.524 . S
C90 H109 0.913 . S
C91 H67 0.950 . S
C91 C90 1.524 . S
C91 C92 1.415 . S
C92 H68 0.950 . S
C92 C87 1.363 . S
C92 C91 1.415 . S
C93 H69 0.951 . S
C93 C94 1.365 1_655 S
C93 C95 1.388 . S
C94 C93 1.365 1_455 S
C94 C98 1.385 . S
C95 H70 0.951 . S
C95 C93 1.388 . S
C95 C96 1.366 . S
C96 C95 1.366 . S
C96 C97 1.414 1_655 S
C96 C99 1.499 . S
C97 H71 0.950 . S
C97 C96 1.414 1_455 S
C97 C98 1.374 . S
C98 H72 0.950 . S
C98 C94 1.385 . S
C98 C97 1.374 . S
C99 C96 1.499 . S
C99 C100 1.373 1_655 S
C99 C101 1.389 . S
C100 H73 0.950 . S
C100 C86 1.377 . S
C100 C99 1.373 1_455 S
C101 C85 1.377 . S
C101 C99 1.389 . S
C101 C102 1.524 . S
C102 C101 1.524 . S
C102 C103 1.397 . S
C102 C107 1.363 . S
C103 H74 0.950 . S
C103 C102 1.397 . S
C103 C104 1.334 . S
C104 H75 0.950 . S
C104 C103 1.334 . S
C104 C105 1.287 . S
C105 C104 1.287 . S
C105 C106 1.524 . S
C105 H108 0.999 . S
C106 H76 0.950 . S
C106 C105 1.524 . S
C106 C107 1.415 . S
C107 H77 0.950 . S
C107 C102 1.363 . S
C107 C106 1.415 . S
H108 C105 0.999 . S
H109 C90 0.913 . S
H110 C128 0.951 . S
H111 C130 0.951 . S
H112 C132 0.950 . S
H113 C133 0.950 . S
H114 C135 0.950 . S
H115 C138 0.950 . S
H116 C139 0.950 . S
H117 C141 0.950 1_565 S
H118 C142 0.950 . S
H119 C143 0.951 . S
H120 C145 0.951 . S
H121 C147 0.950 . S
H122 C148 0.950 . S
H123 C150 0.950 . S
H124 C153 0.950 . S
H125 C154 0.950 . S
H126 C156 0.950 1_545 S
H127 C157 0.950 . S
C128 H110 0.951 . S
C128 C129 1.364 . S
C128 C130 1.388 . S
C129 C128 1.364 . S
C129 C133 1.386 1_565 S
C130 H111 0.951 . S
C130 C128 1.388 . S
C130 C131 1.366 1_565 S
C131 C130 1.366 1_545 S
C131 C132 1.414 . S
C131 C134 1.499 . S
C132 H112 0.950 . S
C132 C131 1.414 . S
C132 C133 1.374 . S
C133 H113 0.950 . S
C133 C129 1.386 1_545 S
C133 C132 1.374 . S
C134 C131 1.499 . S
C134 C135 1.373 1_545 S
C134 C136 1.389 . S
C135 H114 0.950 . S
C135 C134 1.373 1_565 S
C135 C151 1.377 . S
C136 C134 1.389 . S
C136 C137 1.524 . S
C136 C150 1.377 . S
C137 C136 1.524 . S
C137 C138 1.397 . S
C137 C142 1.363 1_545 S
C138 H115 0.950 . S
C138 C137 1.397 . S
C138 C139 1.334 . S
C139 H116 0.950 . S
C139 C138 1.334 . S
C139 C140 1.287 . S
C140 C139 1.287 . S
C140 C141 1.524 . S
C140 H159 0.913 . S
C141 H117 0.950 1_545 S
C141 C140 1.524 . S
C141 C142 1.415 1_545 S
C142 H118 0.950 . S
C142 C137 1.363 1_565 S
C142 C141 1.415 1_565 S
C143 H119 0.951 . S
C143 C144 1.366 . S
C143 C145 1.388 . S
C144 C143 1.366 . S
C144 C148 1.384 1_545 S
C145 H120 0.951 . S
C145 C143 1.388 . S
C145 C146 1.366 1_545 S
C146 C145 1.366 1_565 S
C146 C147 1.414 . S
C146 C149 1.499 . S
C147 H121 0.950 . S
C147 C146 1.414 . S
C147 C148 1.374 . S
C148 H122 0.950 . S
C148 C144 1.384 1_565 S
C148 C147 1.374 . S
C149 C146 1.499 . S
C149 C150 1.373 1_565 S
C149 C151 1.389 . S
C150 H123 0.950 . S
C150 C136 1.377 . S
C150 C149 1.373 1_545 S
C151 C135 1.377 . S
C151 C149 1.389 . S
C151 C152 1.524 . S
C152 C151 1.524 . S
C152 C153 1.397 . S
C152 C157 1.363 1_565 S
C153 H124 0.950 . S
C153 C152 1.397 . S
C153 C154 1.334 . S
C154 H125 0.950 . S
C154 C153 1.334 . S
C154 C155 1.287 . S
C155 C154 1.287 . S
C155 C156 1.524 . S
C155 H158 0.999 . S
C156 H126 0.950 1_565 S
C156 C155 1.524 . S
C156 C157 1.415 1_565 S
C157 H127 0.950 . S
C157 C152 1.363 1_545 S
C157 C156 1.415 1_545 S
H158 C155 0.999 . S
H159 C140 0.913 . S
H160 C178 0.951 . S
H161 C180 0.951 . S
H162 C182 0.950 . S
H163 C183 0.950 . S
H164 C185 0.950 . S
H165 C188 0.950 . S
H166 C189 0.950 . S
H167 C191 0.950 . S
H168 C192 0.950 . S
H169 C193 0.951 . S
H170 C195 0.951 . S
H171 C197 0.950 . S
H172 C198 0.950 . S
H173 C200 0.950 . S
H174 C203 0.950 . S
H175 C204 0.950 . S
H176 C206 0.950 . S
H177 C207 0.950 . S
C178 H160 0.951 . S
C178 C179 1.365 . S
C178 C180 1.388 . S
C179 C178 1.365 . S
C179 C183 1.385 1_455 S
C180 H161 0.951 . S
C180 C178 1.388 . S
C180 C181 1.366 1_455 S
C181 C180 1.366 1_655 S
C181 C182 1.414 . S
C181 C184 1.499 . S
C182 H162 0.950 . S
C182 C181 1.414 . S
C182 C183 1.374 . S
C183 H163 0.950 . S
C183 C179 1.385 1_655 S
C183 C182 1.374 . S
C184 C181 1.499 . S
C184 C185 1.373 1_655 S
C184 C186 1.389 . S
C185 H164 0.950 . S
C185 C184 1.373 1_455 S
C185 C201 1.377 . S
C186 C184 1.389 . S
C186 C187 1.524 . S
C186 C200 1.377 . S
C187 C186 1.524 . S
C187 C188 1.397 . S
C187 C192 1.363 . S
C188 H165 0.950 . S
C188 C187 1.397 . S
C188 C189 1.334 . S
C189 H166 0.950 . S
C189 C188 1.334 . S
C189 C190 1.287 . S
C190 C189 1.287 . S
C190 C191 1.524 . S
C190 H209 0.913 . S
C191 H167 0.950 . S
C191 C190 1.524 . S
C191 C192 1.415 . S
C192 H168 0.950 . S
C192 C187 1.363 . S
C192 C191 1.415 . S
C193 H169 0.951 . S
C193 C194 1.367 1_655 S
C193 C195 1.388 . S
C194 C193 1.367 1_455 S
C194 C198 1.384 . S
C195 H170 0.951 . S
C195 C193 1.388 . S
C195 C196 1.366 1_655 S
C196 C195 1.366 1_455 S
C196 C197 1.414 . S
C196 C199 1.499 . S
C197 H171 0.950 . S
C197 C196 1.414 . S
C197 C198 1.374 . S
C198 H172 0.950 . S
C198 C194 1.384 . S
C198 C197 1.374 . S
C199 C196 1.499 . S
C199 C200 1.373 1_455 S
C199 C201 1.389 . S
C200 H173 0.950 . S
C200 C186 1.377 . S
C200 C199 1.373 1_655 S
C201 C185 1.377 . S
C201 C199 1.389 . S
C201 C202 1.524 . S
C202 C201 1.524 . S
C202 C203 1.397 . S
C202 C207 1.363 . S
C203 H174 0.950 . S
C203 C202 1.397 . S
C203 C204 1.334 . S
C204 H175 0.950 . S
C204 C203 1.334 . S
C204 C205 1.287 . S
C205 C204 1.287 . S
C205 C206 1.524 . S
C205 H208 0.999 . S
C206 H176 0.950 . S
C206 C205 1.524 . S
C206 C207 1.415 . S
C207 H177 0.950 . S
C207 C202 1.363 . S
C207 C206 1.415 . S
H208 C205 0.999 . S
H209 C190 0.913 . S
H210 C228 0.951 . S
H211 C230 0.951 . S
H212 C232 0.950 . S
H213 C233 0.950 . S
H214 C235 0.950 . S
H215 C238 0.950 . S
H216 C239 0.950 . S
H217 C241 0.950 . S
H218 C242 0.950 . S
H219 C243 0.951 . S
H220 C245 0.951 . S
H221 C247 0.950 . S
H222 C248 0.950 . S
H223 C250 0.950 . S
H224 C253 0.950 . S
H225 C254 0.950 . S
H226 C256 0.950 . S
H227 C257 0.950 . S
C228 H210 0.951 . S
C228 C229 1.367 . S
C228 C230 1.388 . S
C229 C228 1.367 . S
C229 C233 1.384 1_545 S
C230 H211 0.951 . S
C230 C228 1.388 . S
C230 C231 1.366 . S
C231 C230 1.366 . S
C231 C232 1.414 1_545 S
C231 C234 1.499 . S
C232 H212 0.950 . S
C232 C231 1.414 1_565 S
C232 C233 1.374 . S
C233 H213 0.950 . S
C233 C229 1.384 1_565 S
C233 C232 1.374 . S
C234 C231 1.499 . S
C234 C235 1.368 1_545 S
C234 C236 1.394 . S
C235 H214 0.950 . S
C235 C234 1.368 1_565 S
C235 C251 1.377 . S
C236 C234 1.394 . S
C236 C237 1.524 . S
C236 C250 1.377 . S
C237 C236 1.524 . S
C237 C238 1.397 . S
C237 C242 1.363 . S
C238 H215 0.950 . S
C238 C237 1.397 . S
C238 C239 1.334 . S
C239 H216 0.950 . S
C239 C238 1.334 . S
C239 C240 1.287 . S
C240 C239 1.287 . S
C240 C241 1.524 . S
C240 H259 0.913 . S
C241 H217 0.950 . S
C241 C240 1.524 . S
C241 C242 1.415 . S
C242 H218 0.950 . S
C242 C237 1.363 . S
C242 C241 1.415 . S
C243 H219 0.951 . S
C243 C244 1.364 1_565 S
C243 C245 1.388 . S
C244 C243 1.364 1_545 S
C244 C248 1.386 . S
C245 H220 0.951 . S
C245 C243 1.388 . S
C245 C246 1.386 . S
C246 C245 1.386 . S
C246 C247 1.393 1_565 S
C246 C249 1.498 1_565 S
C247 H221 0.950 . S
C247 C246 1.393 1_545 S
C247 C248 1.374 . S
C248 H222 0.950 . S
C248 C244 1.386 . S
C248 C247 1.374 . S
C249 C246 1.498 1_545 S
C249 C250 1.371 . S
C249 C251 1.392 1_545 S
C250 H223 0.950 . S
C250 C236 1.377 . S
C250 C249 1.371 . S
C251 C235 1.377 . S
C251 C249 1.392 1_565 S
C251 C252 1.524 . S
C252 C251 1.524 . S
C252 C253 1.397 . S
C252 C257 1.363 . S
C253 H224 0.950 . S
C253 C252 1.397 . S
C253 C254 1.334 . S
C254 H225 0.950 . S
C254 C253 1.334 . S
C254 C255 1.287 . S
C255 C254 1.287 . S
C255 C256 1.524 . S
C255 H258 0.999 . S
C256 H226 0.950 . S
C256 C255 1.524 . S
C256 C257 1.415 . S
C257 H227 0.950 . S
C257 C252 1.363 . S
C257 C256 1.415 . S
H258 C255 0.999 . S
H259 C240 0.913 . S
H260 C278 0.951 . S
H261 C280 0.951 . S
H262 C282 0.950 . S
H263 C283 0.950 . S
H264 C285 0.950 . S
H265 C288 0.950 . S
H266 C289 0.950 . S
H267 C291 0.950 . S
H268 C292 0.950 . S
H269 C293 0.951 . S
H270 C295 0.951 . S
H271 C297 0.950 . S
H272 C298 0.950 . S
H273 C300 0.950 . S
H274 C303 0.950 . S
H275 C304 0.950 . S
H276 C306 0.950 . S
H277 C307 0.950 . S
C278 H260 0.951 . S
C278 C279 1.366 1_655 S
C278 C280 1.388 . S
C279 C278 1.366 1_455 S
C279 C283 1.385 . S
C280 H261 0.951 . S
C280 C278 1.388 . S
C280 C281 1.366 . S
C281 C280 1.366 . S
C281 C282 1.414 1_655 S
C281 C284 1.499 . S
C282 H262 0.950 . S
C282 C281 1.414 1_455 S
C282 C283 1.374 . S
C283 H263 0.950 . S
C283 C279 1.385 . S
C283 C282 1.374 . S
C284 C281 1.499 . S
C284 C285 1.373 1_655 S
C284 C286 1.389 . S
C285 H264 0.950 . S
C285 C284 1.373 1_455 S
C285 C301 1.377 . S
C286 C284 1.389 . S
C286 C287 1.524 . S
C286 C300 1.377 . S
C287 C286 1.524 . S
C287 C288 1.397 . S
C287 C292 1.363 . S
C288 H265 0.950 . S
C288 C287 1.397 . S
C288 C289 1.334 . S
C289 H266 0.950 . S
C289 C288 1.334 . S
C289 C290 1.287 . S
C290 C289 1.287 . S
C290 C291 1.524 . S
C290 H309 0.913 . S
C291 H267 0.950 . S
C291 C290 1.524 . S
C291 C292 1.415 . S
C292 H268 0.950 . S
C292 C287 1.363 . S
C292 C291 1.415 . S
C293 H269 0.951 . S
C293 C294 1.366 . S
C293 C295 1.388 . S
C294 C293 1.366 . S
C294 C298 1.385 1_455 S
C295 H270 0.951 . S
C295 C293 1.388 . S
C295 C296 1.366 . S
C296 C295 1.366 . S
C296 C297 1.414 1_455 S
C296 C299 1.499 . S
C297 H271 0.950 . S
C297 C296 1.414 1_655 S
C297 C298 1.374 . S
C298 H272 0.950 . S
C298 C294 1.385 1_655 S
C298 C297 1.374 . S
C299 C296 1.499 . S
C299 C300 1.373 1_455 S
C299 C301 1.389 . S
C300 H273 0.950 . S
C300 C286 1.377 . S
C300 C299 1.373 1_655 S
C301 C285 1.377 . S
C301 C299 1.389 . S
C301 C302 1.524 . S
C302 C301 1.524 . S
C302 C303 1.397 . S
C302 C307 1.363 . S
C303 H274 0.950 . S
C303 C302 1.397 . S
C303 C304 1.334 . S
C304 H275 0.950 . S
C304 C303 1.334 . S
C304 C305 1.287 . S
C305 C304 1.287 . S
C305 C306 1.524 . S
C305 H308 0.999 . S
C306 H276 0.950 . S
C306 C305 1.524 . S
C306 C307 1.415 . S
C307 H277 0.950 . S
C307 C302 1.363 . S
C307 C306 1.415 . S
H308 C305 0.999 . S
H309 C290 0.913 . S
H310 C328 0.951 . S
H311 C330 0.951 . S
H312 C332 0.950 . S
H313 C333 0.950 . S
H314 C335 0.950 . S
H315 C338 0.950 . S
H316 C339 0.950 . S
H317 C341 0.950 . S
H318 C342 0.950 . S
H319 C343 0.951 . S
H320 C345 0.951 . S
H321 C347 0.950 . S
H322 C348 0.950 . S
H323 C350 0.950 . S
H324 C353 0.950 . S
H325 C354 0.950 . S
H326 C356 0.950 . S
H327 C357 0.950 . S
C328 H310 0.951 . S
C328 C329 1.366 1_565 S
C328 C330 1.388 . S
C329 C328 1.366 1_545 S
C329 C333 1.385 . S
C330 H311 0.951 . S
C330 C328 1.388 . S
C330 C331 1.366 1_565 S
C331 C330 1.366 1_545 S
C331 C332 1.414 . S
C331 C334 1.499 . S
C332 H312 0.950 . S
C332 C331 1.414 . S
C332 C333 1.374 . S
C333 H313 0.950 . S
C333 C329 1.385 . S
C333 C332 1.374 . S
C334 C331 1.499 . S
C334 C335 1.373 1_545 S
C334 C336 1.389 . S
C335 H314 0.950 . S
C335 C334 1.373 1_565 S
C335 C351 1.377 . S
C336 C334 1.389 . S
C336 C337 1.524 . S
C336 C350 1.377 . S
C337 C336 1.524 . S
C337 C338 1.397 . S
C337 C342 1.363 . S
C338 H315 0.950 . S
C338 C337 1.397 . S
C338 C339 1.334 . S
C339 H316 0.950 . S
C339 C338 1.334 . S
C339 C340 1.287 . S
C340 C339 1.287 . S
C340 C341 1.524 . S
C340 H359 0.913 . S
C341 H317 0.950 . S
C341 C340 1.524 . S
C341 C342 1.415 . S
C342 H318 0.950 . S
C342 C337 1.363 . S
C342 C341 1.415 . S
C343 H319 0.951 . S
C343 C344 1.366 . S
C343 C345 1.388 . S
C344 C343 1.366 . S
C344 C348 1.384 1_545 S
C345 H320 0.951 . S
C345 C343 1.388 . S
C345 C346 1.366 1_545 S
C346 C345 1.366 1_565 S
C346 C347 1.414 . S
C346 C349 1.499 . S
C347 H321 0.950 . S
C347 C346 1.414 . S
C347 C348 1.374 . S
C348 H322 0.950 . S
C348 C344 1.384 1_565 S
C348 C347 1.374 . S
C349 C346 1.499 . S
C349 C350 1.373 1_565 S
C349 C351 1.389 . S
C350 H323 0.950 . S
C350 C336 1.377 . S
C350 C349 1.373 1_545 S
C351 C335 1.377 . S
C351 C349 1.389 . S
C351 C352 1.524 . S
C352 C351 1.524 . S
C352 C353 1.397 . S
C352 C357 1.363 . S
C353 H324 0.950 . S
C353 C352 1.397 . S
C353 C354 1.334 . S
C354 H325 0.950 . S
C354 C353 1.334 . S
C354 C355 1.287 . S
C355 C354 1.287 . S
C355 C356 1.524 . S
C355 H358 0.999 . S
C356 H326 0.950 . S
C356 C355 1.524 . S
C356 C357 1.415 . S
C357 H327 0.950 . S
C357 C352 1.363 . S
C357 C356 1.415 . S
H358 C355 0.999 . S
H359 C340 0.913 . S
H360 C378 0.951 . S
H361 C380 0.951 . S
H362 C382 0.950 . S
H363 C383 0.950 . S
H364 C385 0.950 . S
H365 C388 0.950 . S
H366 C389 0.950 . S
H367 C391 0.950 . S
H368 C392 0.950 . S
H369 C393 0.951 . S
H370 C395 0.951 . S
H371 C397 0.950 . S
H372 C398 0.950 . S
H373 C400 0.950 . S
H374 C403 0.950 . S
H375 C404 0.950 . S
H376 C406 0.950 . S
H377 C407 0.950 . S
C378 H360 0.951 . S
C378 C379 1.362 1_655 S
C378 C380 1.388 . S
C379 C378 1.362 1_455 S
C379 C383 1.388 . S
C380 H361 0.951 . S
C380 C378 1.388 . S
C380 C381 1.376 . S
C381 C380 1.376 . S
C381 C382 1.404 1_655 S
C381 C384 1.499 1_655 S
C382 H362 0.950 . S
C382 C381 1.404 1_455 S
C382 C383 1.374 . S
C383 H363 0.950 . S
C383 C379 1.388 . S
C383 C382 1.374 . S
C384 C381 1.499 1_455 S
C384 C385 1.386 . S
C384 C386 1.377 1_455 S
C385 H364 0.950 . S
C385 C384 1.386 . S
C385 C401 1.377 . S
C386 C384 1.377 1_655 S
C386 C387 1.524 . S
C386 C400 1.377 . S
C387 C386 1.524 . S
C387 C388 1.397 . S
C387 C392 1.363 . S
C388 H365 0.950 . S
C388 C387 1.397 . S
C388 C389 1.334 . S
C389 H366 0.950 . S
C389 C388 1.334 . S
C389 C390 1.287 . S
C390 C389 1.287 . S
C390 C391 1.524 . S
C390 H409 0.913 . S
C391 H367 0.950 . S
C391 C390 1.524 . S
C391 C392 1.415 . S
C392 H368 0.950 . S
C392 C387 1.363 . S
C392 C391 1.415 . S
C393 H369 0.951 . S
C393 C394 1.365 . S
C393 C395 1.388 . S
C394 C393 1.365 . S
C394 C398 1.386 1_455 S
C395 H370 0.951 . S
C395 C393 1.388 . S
C395 C396 1.383 . S
C396 C395 1.383 . S
C396 C397 1.396 1_455 S
C396 C399 1.499 1_455 S
C397 H371 0.950 . S
C397 C396 1.396 1_655 S
C397 C398 1.374 . S
C398 H372 0.950 . S
C398 C394 1.386 1_655 S
C398 C397 1.374 . S
C399 C396 1.499 1_655 S
C399 C400 1.379 . S
C399 C401 1.384 1_655 S
C400 H373 0.950 . S
C400 C386 1.377 . S
C400 C399 1.379 . S
C401 C385 1.377 . S
C401 C399 1.384 1_455 S
C401 C402 1.524 . S
C402 C401 1.524 . S
C402 C403 1.397 . S
C402 C407 1.363 . S
C403 H374 0.950 . S
C403 C402 1.397 . S
C403 C404 1.334 . S
C404 H375 0.950 . S
C404 C403 1.334 . S
C404 C405 1.287 . S
C405 C404 1.287 . S
C405 C406 1.524 . S
C405 H408 0.999 . S
C406 H376 0.950 . S
C406 C405 1.524 . S
C406 C407 1.415 . S
C407 H377 0.950 . S
C407 C402 1.363 . S
C407 C406 1.415 . S
H408 C405 0.999 . S
H409 C390 0.913 . S
H410 C428 0.951 . S
H411 C430 0.951 . S
H412 C432 0.950 . S
H413 C433 0.950 . S
H414 C435 0.950 . S
H415 C438 0.950 . S
H416 C439 0.950 . S
H417 C441 0.950 . S
H418 C442 0.950 . S
H419 C443 0.951 . S
H420 C445 0.951 . S
H421 C447 0.950 . S
H422 C448 0.950 . S
H423 C450 0.950 . S
H424 C453 0.950 . S
H425 C454 0.950 . S
H426 C456 0.950 . S
H427 C457 0.950 . S
C428 H410 0.951 . S
C428 C429 1.366 1_565 S
C428 C430 1.388 . S
C429 C428 1.366 1_545 S
C429 C433 1.384 . S
C430 H411 0.951 . S
C430 C428 1.388 . S
C430 C431 1.366 . S
C431 C430 1.366 . S
C431 C432 1.414 1_565 S
C431 C434 1.499 . S
C432 H412 0.950 . S
C432 C431 1.414 1_545 S
C432 C433 1.374 . S
C433 H413 0.950 . S
C433 C429 1.384 . S
C433 C432 1.374 . S
C434 C431 1.499 . S
C434 C435 1.373 1_565 S
C434 C436 1.389 . S
C435 H414 0.950 . S
C435 C434 1.373 1_545 S
C435 C451 1.377 . S
C436 C434 1.389 . S
C436 C437 1.524 . S
C436 C450 1.377 . S
C437 C436 1.524 . S
C437 C438 1.397 . S
C437 C442 1.363 . S
C438 H415 0.950 . S
C438 C437 1.397 . S
C438 C439 1.334 . S
C439 H416 0.950 . S
C439 C438 1.334 . S
C439 C440 1.287 . S
C440 C439 1.287 . S
C440 C441 1.524 . S
C440 H459 0.913 . S
C441 H417 0.950 . S
C441 C440 1.524 . S
C441 C442 1.415 . S
C442 H418 0.950 . S
C442 C437 1.363 . S
C442 C441 1.415 . S
C443 H419 0.951 . S
C443 C444 1.366 . S
C443 C445 1.388 . S
C444 C443 1.366 . S
C444 C448 1.385 1_545 S
C445 H420 0.951 . S
C445 C443 1.388 . S
C445 C446 1.366 . S
C446 C445 1.366 . S
C446 C447 1.414 1_545 S
C446 C449 1.499 . S
C447 H421 0.950 . S
C447 C446 1.414 1_565 S
C447 C448 1.374 . S
C448 H422 0.950 . S
C448 C444 1.385 1_565 S
C448 C447 1.374 . S
C449 C446 1.499 . S
C449 C450 1.373 1_545 S
C449 C451 1.389 . S
C450 H423 0.950 . S
C450 C436 1.377 . S
C450 C449 1.373 1_565 S
C451 C435 1.377 . S
C451 C449 1.389 . S
C451 C452 1.524 . S
C452 C451 1.524 . S
C452 C453 1.397 . S
C452 C457 1.363 . S
C453 H424 0.950 . S
C453 C452 1.397 . S
C453 C454 1.334 . S
C454 H425 0.950 . S
C454 C453 1.334 . S
C454 C455 1.287 . S
C455 C454 1.287 . S
C455 C456 1.524 . S
C455 H458 0.999 . S
C456 H426 0.950 . S
C456 C455 1.524 . S
C456 C457 1.415 . S
C457 H427 0.950 . S
C457 C452 1.363 . S
C457 C456 1.415 . S
H458 C455 0.999 . S
H459 C440 0.913 . S
C79 C22 1.395 1_455 S
C94 C33 1.444 1_455 S
C129 C8 1.397 1_565 S
C144 C59 1.445 1_545 S
C179 C31 1.393 . S
C194 C45 1.445 . S
C229 C17 1.393 1_545 S
C244 C47 1.444 . S
C279 C30 1.395 . S
C294 C32 1.448 . S
C329 C27 1.395 1_545 S
C344 C58 1.447 . S
C394 C44 1.446 1_455 S
C379 C23 1.394 1_455 S
C429 C24 1.393 . S
C444 C46 1.448 1_545 S
