# Generated by pormake.
# Topology pyr, (3,6)-cn, num edge types: 1
# Building blocks:
#     Node 0, Type 0, BuildingBlock: OLANEW_clean_sbu_2, # of connection points: 3
#     Node 1, Type 0, BuildingBlock: OLANEW_clean_sbu_2, # of connection points: 3
#     Node 2, Type 0, BuildingBlock: OLANEW_clean_sbu_2, # of connection points: 3
#     Node 3, Type 0, BuildingBlock: OLANEW_clean_sbu_2, # of connection points: 3
#     Node 4, Type 0, BuildingBlock: OLANEW_clean_sbu_2, # of connection points: 3
#     Node 5, Type 0, BuildingBlock: OLANEW_clean_sbu_2, # of connection points: 3
#     Node 6, Type 0, BuildingBlock: OLANEW_clean_sbu_2, # of connection points: 3
#     Node 7, Type 0, BuildingBlock: OLANEW_clean_sbu_2, # of connection points: 3
#     Node 8, Type 1, BuildingBlock: BETDEL_clean_sbu_0, # of connection points: 6
#     Node 9, Type 1, BuildingBlock: BETDEL_clean_sbu_0, # of connection points: 6
#     Node 10, Type 1, BuildingBlock: BETDEL_clean_sbu_0, # of connection points: 6
#     Node 11, Type 1, BuildingBlock: BETDEL_clean_sbu_0, # of connection points: 6
#     Edge 12, Type (0, 1), BuildingBlock: XUDNAN_clean_linker_2, # of connection points: 2
#     Edge 13, Type (0, 1), BuildingBlock: XUDNAN_clean_linker_2, # of connection points: 2
#     Edge 14, Type (0, 1), BuildingBlock: XUDNAN_clean_linker_2, # of connection points: 2
#     Edge 15, Type (0, 1), BuildingBlock: XUDNAN_clean_linker_2, # of connection points: 2
#     Edge 16, Type (0, 1), BuildingBlock: XUDNAN_clean_linker_2, # of connection points: 2
#     Edge 17, Type (0, 1), BuildingBlock: XUDNAN_clean_linker_2, # of connection points: 2
#     Edge 18, Type (0, 1), BuildingBlock: XUDNAN_clean_linker_2, # of connection points: 2
#     Edge 19, Type (0, 1), BuildingBlock: XUDNAN_clean_linker_2, # of connection points: 2
#     Edge 20, Type (0, 1), BuildingBlock: XUDNAN_clean_linker_2, # of connection points: 2
#     Edge 21, Type (0, 1), BuildingBlock: XUDNAN_clean_linker_2, # of connection points: 2
#     Edge 22, Type (0, 1), BuildingBlock: XUDNAN_clean_linker_2, # of connection points: 2
#     Edge 23, Type (0, 1), BuildingBlock: XUDNAN_clean_linker_2, # of connection points: 2
#     Edge 24, Type (0, 1), BuildingBlock: XUDNAN_clean_linker_2, # of connection points: 2
#     Edge 25, Type (0, 1), BuildingBlock: XUDNAN_clean_linker_2, # of connection points: 2
#     Edge 26, Type (0, 1), BuildingBlock: XUDNAN_clean_linker_2, # of connection points: 2
#     Edge 27, Type (0, 1), BuildingBlock: XUDNAN_clean_linker_2, # of connection points: 2
#     Edge 28, Type (0, 1), BuildingBlock: XUDNAN_clean_linker_2, # of connection points: 2
#     Edge 29, Type (0, 1), BuildingBlock: XUDNAN_clean_linker_2, # of connection points: 2
#     Edge 30, Type (0, 1), BuildingBlock: XUDNAN_clean_linker_2, # of connection points: 2
#     Edge 31, Type (0, 1), BuildingBlock: XUDNAN_clean_linker_2, # of connection points: 2
#     Edge 32, Type (0, 1), BuildingBlock: XUDNAN_clean_linker_2, # of connection points: 2
#     Edge 33, Type (0, 1), BuildingBlock: XUDNAN_clean_linker_2, # of connection points: 2
#     Edge 34, Type (0, 1), BuildingBlock: XUDNAN_clean_linker_2, # of connection points: 2
#     Edge 35, Type (0, 1), BuildingBlock: XUDNAN_clean_linker_2, # of connection points: 2
# Relax obj value: 0.054
# Max RMSD: 0.144
# Mean RMSD: 0.111
data_MOF--net-pyr--node1-OLANEW_clean_sbu_2--node2-BETDEL_clean_sbu_0--edge1-XUDNAN_clean_linker_2
_symmetry_space_group_name_H-M    P1
_symmetry_Int_Tables_number       1
_symmetry_cell_setting            triclinic
loop_
_symmetry_equiv_pos_as_xyz
'x, y, z'
_cell_length_a     39.056021
_cell_length_b     41.244424
_cell_length_c     36.899756
_cell_angle_alpha  96.372643
_cell_angle_beta   87.978797
_cell_angle_gamma 99.82135
loop_
_atom_site_label
_atom_site_type_symbol
_atom_site_fract_x
_atom_site_fract_y
_atom_site_fract_z
_atom_type_partial_charge
O0 O 0.24931 0.18225 0.11916 0.0
Cd1 Cd 0.20336 0.2103 0.14922 0.0
O2 O 0.27428 0.18389 0.17203 0.0
Cd3 Cd 0.23141 0.19976 0.20484 0.0
O4 O 0.19056 0.18846 0.24555 0.0
C5 C 0.15939 0.17655 0.23681 0.0
O6 O 0.15074 0.17337 0.20235 0.0
C7 C 0.27428 0.1767 0.13761 0.0
C8 C 0.1817 0.2599 0.11413 0.0
O9 O 0.21038 0.26529 0.13136 0.0
O10 O 0.16357 0.2308 0.11252 0.0
O11 O 0.34234 0.88758 0.72519 0.0
Cd12 Cd 0.30512 0.86385 0.67401 0.0
O13 O 0.30526 0.87158 0.76855 0.0
Cd14 Cd 0.26425 0.85832 0.72834 0.0
O15 O 0.23041 0.86478 0.68484 0.0
C16 C 0.2151 0.88978 0.68963 0.0
O17 O 0.21932 0.90902 0.72056 0.0
C18 C 0.33549 0.88486 0.75878 0.0
C19 C 0.32415 0.80271 0.65133 0.0
O20 O 0.3397 0.8291 0.6386 0.0
O21 O 0.29864 0.80505 0.67374 0.0
O22 O 0.71496 0.41201 0.86878 0.0
Cd23 Cd 0.65734 0.40061 0.84104 0.0
O24 O 0.70062 0.36333 0.88846 0.0
Cd25 Cd 0.70355 0.32177 0.91989 0.0
O26 O 0.68893 0.27686 0.94737 0.0
C27 C 0.67754 0.27899 0.9801 0.0
O28 O 0.67632 0.30844 0.9973 0.0
C29 C 0.72272 0.38964 0.88659 0.0
C30 C 0.64129 0.44618 0.79617 0.0
O31 O 0.63603 0.45008 0.83076 0.0
O32 O 0.6552 0.42133 0.78294 0.0
O33 O 0.88295 0.73607 0.35743 0.0
Cd34 Cd 0.83751 0.69283 0.32925 0.0
O35 O 0.90121 0.70599 0.39604 0.0
Cd36 Cd 0.85847 0.66539 0.38483 0.0
O37 O 0.80729 0.63723 0.39478 0.0
C38 C 0.79303 0.64589 0.42497 0.0
O39 O 0.81003 0.66997 0.4471 0.0
C40 C 0.90383 0.73315 0.3821 0.0
C41 C 0.86222 0.64285 0.28348 0.0
O42 O 0.86048 0.67081 0.27224 0.0
O43 O 0.85256 0.63855 0.31637 0.0
O44 O 0.88535 0.84873 0.85468 0.0
Cd45 Cd 0.84122 0.8247 0.89729 0.0
O46 O 0.86505 0.89554 0.85771 0.0
Cd47 Cd 0.82394 0.8823 0.89762 0.0
O48 O 0.77997 0.88691 0.93481 0.0
C49 C 0.78523 0.89753 0.96814 0.0
O50 O 0.81724 0.90371 0.98007 0.0
C51 C 0.88683 0.87749 0.84473 0.0
C52 C 0.86479 0.77871 0.93608 0.0
O53 O 0.85111 0.77003 0.90467 0.0
O54 O 0.86732 0.80914 0.94912 0.0
O55 O 0.74739 0.18705 0.37678 0.0
Cd56 Cd 0.77459 0.20463 0.43589 0.0
O57 O 0.6943 0.18316 0.39986 0.0
Cd58 Cd 0.70997 0.21565 0.44914 0.0
O59 O 0.69943 0.26499 0.46851 0.0
C60 C 0.66894 0.26966 0.46218 0.0
O61 O 0.64665 0.24468 0.44719 0.0
C62 C 0.71476 0.17832 0.37302 0.0
C63 C 0.80826 0.15463 0.45543 0.0
O64 O 0.77605 0.15482 0.46322 0.0
O65 O 0.8248 0.17838 0.4388 0.0
O66 O 0.40707 0.74489 0.19618 0.0
Cd67 Cd 0.37113 0.697 0.22138 0.0
O68 O 0.39918 0.72179 0.13975 0.0
Cd69 Cd 0.36426 0.67787 0.15429 0.0
O70 O 0.31146 0.65014 0.15367 0.0
C71 C 0.28794 0.66676 0.16508 0.0
O72 O 0.29726 0.69783 0.17829 0.0
C73 C 0.41223 0.74616 0.16203 0.0
C74 C 0.40134 0.66111 0.2682 0.0
O75 O 0.4022 0.65386 0.2335 0.0
O76 O 0.38736 0.68612 0.28074 0.0
O77 O 0.18998 0.39737 0.78831 0.0
Cd78 Cd 0.21895 0.36034 0.74595 0.0
O79 O 0.16525 0.35913 0.8225 0.0
Cd80 Cd 0.17838 0.31838 0.78496 0.0
O81 O 0.16513 0.27602 0.74428 0.0
C82 C 0.15683 0.28189 0.71298 0.0
O83 O 0.15874 0.3128 0.70632 0.0
C84 C 0.1719 0.38927 0.81625 0.0
C85 C 0.27173 0.39807 0.70823 0.0
O86 O 0.24272 0.3861 0.69284 0.0
O87 O 0.27591 0.39167 0.74081 0.0
Dy88 Dy 0.03835 0.02414 0.49668 0.0
C89 C 0.00832 0.97783 0.63898 0.0
C90 C 0.0511 0.05653 0.43604 0.0
Dy91 Dy 0.0156 0.00091 0.57231 0.0
O92 O 0.0212 0.03942 0.44426 0.0
O93 O 0.0738 0.05538 0.46054 0.0
O94 O 0.0781 0.99001 0.49156 0.0
O95 O 0.06454 0.01166 0.54297 0.0
C96 C 0.08195 0.99141 0.52655 0.0
C97 C 0.96439 0.01399 0.53196 0.0
O98 O 0.04223 0.05252 0.59035 0.0
O99 O 0.04917 0.07176 0.53296 0.0
O100 O 0.99431 0.00214 0.62981 0.0
O101 O 0.02693 0.96677 0.612 0.0
O102 O 0.95978 0.99181 0.55479 0.0
O103 O 0.99501 0.0294 0.53423 0.0
O104 O 0.00683 0.97419 0.48088 0.0
O105 O 0.01408 0.95374 0.5357 0.0
C106 C 0.0513 0.07663 0.56903 0.0
C107 C 0.00609 0.94917 0.50071 0.0
Dy108 Dy 0.53665 0.03715 0.11041 0.0
C109 C 0.48362 0.97049 0.96872 0.0
C110 C 0.57794 0.07898 0.15901 0.0
Dy111 Dy 0.51345 0.00355 0.03078 0.0
O112 O 0.58679 0.0698 0.12569 0.0
O113 O 0.54592 0.06568 0.1659 0.0
O114 O 0.51539 0.99352 0.14184 0.0
O115 O 0.51067 0.9904 0.08575 0.0
C116 C 0.50442 0.97414 0.11276 0.0
C117 C 0.55744 0.06161 0.03496 0.0
O118 O 0.46873 0.02988 0.04851 0.0
O119 O 0.48873 0.05939 0.10401 0.0
O120 O 0.51469 0.98763 0.97092 0.0
O121 O 0.46854 0.97104 0.00076 0.0
O122 O 0.55657 0.03927 0.00718 0.0
O123 O 0.53301 0.05294 0.0567 0.0
O124 O 0.58146 0.0128 0.08793 0.0
O125 O 0.55366 0.9742 0.04293 0.0
C126 C 0.46527 0.05134 0.07768 0.0
C127 C 0.58068 0.98614 0.06399 0.0
Dy128 Dy 0.51748 0.51281 0.5169 0.0
C129 C 0.4527 0.61977 0.58435 0.0
C130 C 0.55935 0.46813 0.49248 0.0
Dy131 Dy 0.49477 0.57708 0.55499 0.0
O132 O 0.52554 0.46206 0.49221 0.0
O133 O 0.57001 0.49867 0.50512 0.0
O134 O 0.46316 0.48476 0.52467 0.0
O135 O 0.48315 0.52484 0.56178 0.0
C136 C 0.45628 0.50442 0.55308 0.0
C137 C 0.55726 0.58476 0.52277 0.0
O138 O 0.51992 0.56243 0.60282 0.0
O139 O 0.54606 0.52122 0.57021 0.0
O140 O 0.48412 0.62861 0.57197 0.0
O141 O 0.44456 0.58774 0.58111 0.0
O142 O 0.54968 0.60421 0.55116 0.0
O143 O 0.53054 0.56517 0.51153 0.0
O144 O 0.49728 0.53108 0.4682 0.0
O145 O 0.46782 0.56986 0.50064 0.0
C146 C 0.54147 0.54058 0.60069 0.0
C147 C 0.47541 0.55263 0.46959 0.0
Dy148 Dy 0.01663 0.4797 0.04906 0.0
C149 C 0.95742 0.5955 0.02348 0.0
C150 C 0.05782 0.43239 0.04976 0.0
Dy151 Dy 0.99064 0.54368 0.03191 0.0
O152 O 0.02586 0.42955 0.06182 0.0
O153 O 0.06694 0.46078 0.03712 0.0
O154 O 0.97722 0.4717 0.0947 0.0
O155 O 0.99526 0.51947 0.08058 0.0
C156 C 0.97296 0.5025 0.0993 0.0
C157 C 0.03675 0.52109 0.98455 0.0
O158 O 0.03532 0.56714 0.06693 0.0
O159 O 0.06057 0.5201 0.06913 0.0
O160 O 0.96285 0.57274 0.99772 0.0
O161 O 0.96985 0.58979 0.05385 0.0
O162 O 0.03477 0.55229 0.99139 0.0
O163 O 0.01242 0.50388 0.0006 0.0
O164 O 0.97217 0.45854 0.01211 0.0
O165 O 0.94387 0.50401 0.02253 0.0
C166 C 0.06116 0.55256 0.07564 0.0
C167 C 0.94411 0.47253 0.01033 0.0
H168 H 0.17317 0.16923 0.30723 0.0
H169 H 0.09019 0.15023 0.22854 0.0
H170 H 0.05132 0.12044 0.27285 0.0
H171 H 0.15742 0.09172 0.33828 0.0
H172 H 0.16786 0.1062 0.38514 0.0
H173 H 0.18748 0.12961 0.34924 0.0
H174 H 0.16426 0.18157 0.37951 0.0
H175 H 0.1448 0.15837 0.41577 0.0
H176 H 0.11848 0.17906 0.38985 0.0
H177 H 0.02302 0.08877 0.32464 0.0
H178 H 0.00839 0.05821 0.37894 0.0
H179 H 0.11101 0.09713 0.42153 0.0
C180 C 0.1466 0.15948 0.29949 0.0
C181 C 0.13468 0.16222 0.26446 0.0
C182 C 0.09986 0.14857 0.2553 0.0
C183 C 0.07758 0.13163 0.2803 0.0
C184 C 0.09053 0.12863 0.31429 0.0
C185 C 0.12422 0.14236 0.3239 0.0
C186 C 0.13282 0.13377 0.36091 0.0
C187 C 0.16318 0.11416 0.3582 0.0
C188 C 0.14053 0.16506 0.38811 0.0
C189 C 0.09901 0.1124 0.37034 0.0
C190 C 0.07468 0.10999 0.34344 0.0
C191 C 0.04181 0.09069 0.34597 0.0
C192 C 0.03375 0.07337 0.37675 0.0
C193 C 0.05866 0.07527 0.40416 0.0
C194 C 0.09149 0.09521 0.40092 0.0
H195 H 0.32896 0.89071 0.83378 0.0
H196 H 0.40429 0.90608 0.74521 0.0
H197 H 0.4505 0.92636 0.78978 0.0
H198 H 0.36358 0.9633 0.89108 0.0
H199 H 0.35542 0.94444 0.93302 0.0
H200 H 0.32828 0.92927 0.89428 0.0
H201 H 0.34194 0.87031 0.89728 0.0
H202 H 0.36923 0.88535 0.936 0.0
H203 H 0.38654 0.86402 0.89605 0.0
H204 H 0.48814 0.94647 0.84288 0.0
H205 H 0.51503 0.9675 0.90216 0.0
H206 H 0.41595 0.93999 0.95716 0.0
C207 C 0.35522 0.89811 0.82378 0.0
C208 C 0.36299 0.89672 0.78597 0.0
C209 C 0.39764 0.90693 0.774 0.0
C210 C 0.42415 0.91838 0.7991 0.0
C211 C 0.41563 0.91951 0.8361 0.0
C212 C 0.38207 0.90979 0.84852 0.0
C213 C 0.37987 0.91484 0.88983 0.0
C214 C 0.35534 0.93943 0.9028 0.0
C215 C 0.36874 0.88165 0.90572 0.0
C216 C 0.41737 0.92934 0.89855 0.0
C217 C 0.43752 0.93148 0.86707 0.0
C218 C 0.47273 0.94478 0.86777 0.0
C219 C 0.48775 0.95665 0.90154 0.0
C220 C 0.46755 0.95524 0.93411 0.0
C221 C 0.432 0.94107 0.93264 0.0
H222 H 0.64188 0.43997 0.72136 0.0
H223 H 0.61343 0.50232 0.81639 0.0
H224 H 0.58903 0.53643 0.77625 0.0
H225 H 0.66389 0.50597 0.6603 0.0
H226 H 0.64574 0.47934 0.62116 0.0
H227 H 0.66425 0.46209 0.65717 0.0
H228 H 0.60641 0.42168 0.66425 0.0
H229 H 0.58777 0.43887 0.6284 0.0
H230 H 0.56653 0.438 0.67254 0.0
H231 H 0.5631 0.56079 0.72589 0.0
H232 H 0.53801 0.57332 0.66954 0.0
H233 H 0.58364 0.49493 0.60777 0.0
C234 C 0.63116 0.46119 0.73375 0.0
C235 C 0.62974 0.46855 0.77205 0.0
C236 C 0.61496 0.49625 0.78712 0.0
C237 C 0.60107 0.51582 0.76453 0.0
C238 C 0.60227 0.50748 0.72691 0.0
C239 C 0.61712 0.48091 0.71162 0.0
C240 C 0.61322 0.4759 0.67059 0.0
C241 C 0.6489 0.48115 0.65117 0.0
C242 C 0.59222 0.44159 0.65825 0.0
C243 C 0.59312 0.50328 0.66528 0.0
C244 C 0.58732 0.52144 0.698 0.0
C245 C 0.56784 0.54698 0.70005 0.0
C246 C 0.55365 0.55389 0.66787 0.0
C247 C 0.55886 0.53523 0.63411 0.0
C248 C 0.57931 0.50991 0.63298 0.0
H249 H 0.89947 0.64863 0.21956 0.0
H250 H 0.85383 0.57706 0.29282 0.0
H251 H 0.87491 0.53253 0.25222 0.0
H252 H 0.88167 0.59555 0.13564 0.0
H253 H 0.92224 0.61065 0.11372 0.0
H254 H 0.90301 0.63758 0.1473 0.0
H255 H 0.95865 0.64895 0.18575 0.0
H256 H 0.97897 0.62329 0.15183 0.0
H257 H 0.97677 0.61464 0.19876 0.0
H258 H 0.90095 0.49566 0.20303 0.0
H259 H 0.93368 0.47047 0.15172 0.0
H260 H 0.96537 0.56701 0.11392 0.0
C261 C 0.89372 0.62356 0.22696 0.0
C262 C 0.87485 0.61623 0.25922 0.0
C263 C 0.86825 0.58319 0.2682 0.0
C264 C 0.87999 0.55773 0.24526 0.0
C265 C 0.89855 0.56579 0.21364 0.0
C266 C 0.90565 0.59797 0.20468 0.0
C267 C 0.92736 0.60034 0.17 0.0
C268 C 0.90737 0.61173 0.13991 0.0
C269 C 0.96252 0.62315 0.17703 0.0
C270 C 0.93181 0.5646 0.16117 0.0
C271 C 0.91451 0.54489 0.18623 0.0
C272 C 0.91465 0.51089 0.18329 0.0
C273 C 0.93325 0.49681 0.15411 0.0
C274 C 0.95179 0.51683 0.12874 0.0
C275 C 0.95098 0.55107 0.13249 0.0
H276 H 0.33339 0.16602 0.16894 0.0
H277 H 0.27778 0.14811 0.06689 0.0
H278 H 0.32129 0.11491 0.04004 0.0
H279 H 0.42086 0.17246 0.12864 0.0
H280 H 0.43666 0.15208 0.16383 0.0
H281 H 0.40227 0.17593 0.17403 0.0
H282 H 0.3635 0.12484 0.19762 0.0
H283 H 0.3976 0.10075 0.18716 0.0
H284 H 0.35512 0.08658 0.16811 0.0
H285 H 0.36862 0.08041 0.02593 0.0
H286 H 0.4182 0.05041 0.02398 0.0
H287 H 0.44329 0.09175 0.13521 0.0
C288 C 0.33051 0.15551 0.14077 0.0
C289 C 0.30209 0.15971 0.12002 0.0
C290 C 0.29937 0.1454 0.08329 0.0
C291 C 0.3239 0.12641 0.06785 0.0
C292 C 0.35113 0.12219 0.08939 0.0
C293 C 0.35478 0.13666 0.12493 0.0
C294 C 0.38596 0.12784 0.14254 0.0
C295 C 0.41304 0.15893 0.15285 0.0
C296 C 0.37487 0.10887 0.17582 0.0
C297 C 0.39906 0.1057 0.11152 0.0
C298 C 0.3786 0.10273 0.08112 0.0
C299 C 0.38498 0.0828 0.04947 0.0
C300 C 0.41318 0.06572 0.04873 0.0
C301 C 0.43483 0.0687 0.07943 0.0
C302 C 0.42746 0.08901 0.1112 0.0
H303 H 0.17713 0.94 0.69295 0.0
H304 H 0.20704 0.85932 0.61968 0.0
H305 H 0.17522 0.87585 0.56989 0.0
H306 H 0.09147 0.93357 0.65843 0.0
H307 H 0.09128 0.97755 0.66282 0.0
H308 H 0.1164 0.96025 0.69348 0.0
H309 H 0.17267 0.99819 0.67614 0.0
H310 H 0.14828 0.01703 0.64629 0.0
H311 H 0.18544 0.99929 0.6288 0.0
H312 H 0.14237 0.90311 0.52731 0.0
H313 H 0.10895 0.93756 0.49619 0.0
H314 H 0.09983 0.99921 0.59802 0.0
C315 C 0.17689 0.92565 0.66651 0.0
C316 C 0.19461 0.89838 0.66021 0.0
C317 C 0.19357 0.88027 0.62518 0.0
C318 C 0.17563 0.8895 0.59672 0.0
C319 C 0.15876 0.91677 0.6038 0.0
C320 C 0.15909 0.93445 0.63791 0.0
C321 C 0.13905 0.96283 0.63849 0.0
C322 C 0.10767 0.9583 0.66487 0.0
C323 C 0.16279 0.99631 0.64798 0.0
C324 C 0.12773 0.95864 0.59924 0.0
C325 C 0.13937 0.93198 0.5796 0.0
C326 C 0.13295 0.92391 0.54247 0.0
C327 C 0.11413 0.94364 0.52501 0.0
C328 C 0.10192 0.9709 0.54479 0.0
C329 C 0.10873 0.97835 0.58234 0.0
H330 H 0.75994 0.44834 0.91536 0.0
H331 H 0.76192 0.34292 0.8993 0.0
H332 H 0.81832 0.35215 0.93047 0.0
H333 H 0.85077 0.47517 0.89986 0.0
H334 H 0.85386 0.51013 0.93425 0.0
H335 H 0.81345 0.49492 0.91129 0.0
H336 H 0.78192 0.48785 0.97364 0.0
H337 H 0.82227 0.50303 0.99677 0.0
H338 H 0.79769 0.46328 0.00481 0.0
H339 H 0.87596 0.3736 0.9617 0.0
H340 H 0.92878 0.4052 0.99203 0.0
H341 H 0.88783 0.49624 0.98832 0.0
C342 C 0.77223 0.42719 0.91847 0.0
C343 C 0.75631 0.39484 0.90545 0.0
C344 C 0.77317 0.3678 0.90998 0.0
C345 C 0.80538 0.37285 0.92734 0.0
C346 C 0.82028 0.40509 0.94009 0.0
C347 C 0.80415 0.43177 0.93598 0.0
C348 C 0.82548 0.46392 0.9521 0.0
C349 C 0.83655 0.48741 0.92261 0.0
C350 C 0.80566 0.48048 0.98371 0.0
C351 C 0.85629 0.45123 0.96571 0.0
C352 C 0.85296 0.41727 0.95843 0.0
C353 C 0.87873 0.40019 0.96772 0.0
C354 C 0.90865 0.41834 0.98489 0.0
C355 C 0.9124 0.45317 0.99279 0.0
C356 C 0.88569 0.46962 0.98307 0.0
H357 H 0.75496 0.66123 0.48619 0.0
H358 H 0.7506 0.59532 0.38553 0.0
H359 H 0.69034 0.57081 0.40099 0.0
H360 H 0.70361 0.60273 0.5421 0.0
H361 H 0.68237 0.63396 0.56717 0.0
H362 H 0.72573 0.64497 0.54906 0.0
H363 H 0.70526 0.68953 0.51464 0.0
H364 H 0.66186 0.67861 0.53254 0.0
H365 H 0.66927 0.67768 0.48397 0.0
H366 H 0.62981 0.55532 0.42612 0.0
H367 H 0.57332 0.54997 0.4591 0.0
H368 H 0.61749 0.62599 0.54327 0.0
C369 C 0.7415 0.64144 0.46749 0.0
C370 C 0.7575 0.63015 0.43466 0.0
C371 C 0.73887 0.60433 0.41087 0.0
C372 C 0.70467 0.59024 0.41943 0.0
C373 C 0.68959 0.60219 0.45188 0.0
C374 C 0.70743 0.62715 0.47558 0.0
C375 C 0.68497 0.63631 0.50812 0.0
C376 C 0.70007 0.62905 0.54372 0.0
C377 C 0.68005 0.67268 0.50989 0.0
C378 C 0.65148 0.61294 0.49876 0.0
C379 C 0.65475 0.59332 0.46633 0.0
C380 C 0.62702 0.57038 0.45166 0.0
C381 C 0.59508 0.56752 0.47057 0.0
C382 C 0.59122 0.58749 0.50374 0.0
C383 C 0.61982 0.61035 0.51802 0.0
H384 H 0.11431 0.26732 0.10473 0.0
H385 H 0.2211 0.31417 0.08874 0.0
H386 H 0.20053 0.36138 0.06561 0.0
H387 H 0.07668 0.29617 0.02655 0.0
H388 H 0.03765 0.30314 0.05154 0.0
H389 H 0.06062 0.27129 0.06269 0.0
H390 H 0.06495 0.29769 0.12981 0.0
H391 H 0.04209 0.32961 0.11886 0.0
H392 H 0.08419 0.3406 0.13955 0.0
H393 H 0.16853 0.40433 0.04652 0.0
H394 H 0.12761 0.44208 0.03729 0.0
H395 H 0.04155 0.36917 0.06949 0.0
C396 C 0.13331 0.28721 0.0956 0.0
C397 C 0.1693 0.28695 0.09798 0.0
C398 C 0.19342 0.31385 0.08688 0.0
C399 C 0.18197 0.34067 0.0736 0.0
C400 C 0.14631 0.34041 0.07204 0.0
C401 C 0.12231 0.31452 0.083 0.0
C402 C 0.08558 0.3217 0.08163 0.0
C403 C 0.06385 0.29658 0.05395 0.0
C404 C 0.0682 0.32245 0.11973 0.0
C405 C 0.09271 0.35585 0.06864 0.0
C406 C 0.12788 0.3659 0.06266 0.0
C407 C 0.14094 0.39669 0.05104 0.0
C408 C 0.11751 0.41795 0.04588 0.0
C409 C 0.08151 0.40852 0.05277 0.0
C410 C 0.06897 0.37695 0.06399 0.0
H411 H 0.67239 0.21419 0.95056 0.0
H412 H 0.6489 0.27544 0.04866 0.0
H413 H 0.61981 0.22557 0.07562 0.0
H414 H 0.59327 0.16015 0.94664 0.0
H415 H 0.61119 0.12356 0.93068 0.0
H416 H 0.63341 0.16354 0.92058 0.0
H417 H 0.68922 0.15325 0.95027 0.0
H418 H 0.66717 0.11311 0.96036 0.0
H419 H 0.68718 0.14254 0.99645 0.0
H420 H 0.58801 0.16992 0.08933 0.0
H421 H 0.55715 0.11237 0.08914 0.0
H422 H 0.60266 0.08708 0.98304 0.0
C423 C 0.6617 0.2171 0.97798 0.0
C424 C 0.663 0.24878 0.9975 0.0
C425 C 0.64834 0.25147 0.03317 0.0
C426 C 0.63178 0.22326 0.04876 0.0
C427 C 0.63036 0.19249 0.0285 0.0
C428 C 0.64517 0.1892 0.99399 0.0
C429 C 0.63836 0.15354 0.97716 0.0
C430 C 0.61783 0.15001 0.94168 0.0
C431 C 0.67252 0.1398 0.97069 0.0
C432 C 0.61657 0.13745 0.00715 0.0
C433 C 0.61246 0.1603 0.03666 0.0
C434 C 0.59156 0.1517 0.06667 0.0
C435 C 0.57417 0.11896 0.06636 0.0
C436 C 0.57795 0.09525 0.03633 0.0
C437 C 0.59975 0.1046 0.0066 0.0
H438 H 0.90719 0.79818 0.36996 0.0
H439 H 0.95577 0.73395 0.43012 0.0
H440 H 0.99119 0.78284 0.46288 0.0
H441 H 0.98538 0.86419 0.36445 0.0
H442 H 0.95944 0.89665 0.37052 0.0
H443 H 0.94154 0.85662 0.34793 0.0
H444 H 0.88985 0.85267 0.39411 0.0
H445 H 0.90774 0.89241 0.41707 0.0
H446 H 0.89836 0.85681 0.44226 0.0
H447 H 0.01512 0.83768 0.49482 0.0
H448 H 0.02894 0.89566 0.52175 0.0
H449 H 0.96597 0.92521 0.44063 0.0
C450 C 0.926 0.79436 0.38924 0.0
C451 C 0.92876 0.76218 0.39737 0.0
C452 C 0.95322 0.75831 0.42335 0.0
C453 C 0.97352 0.78594 0.44208 0.0
C454 C 0.96928 0.81729 0.43434 0.0
C455 C 0.94648 0.82172 0.40825 0.0
C456 C 0.94504 0.85813 0.4072 0.0
C457 C 0.95867 0.86957 0.37033 0.0
C458 C 0.90806 0.86541 0.41568 0.0
C459 C 0.96968 0.87334 0.43764 0.0
C460 C 0.98352 0.84929 0.45271 0.0
C461 C 0.00494 0.85681 0.48289 0.0
C462 C 0.01239 0.88977 0.49816 0.0
C463 C 0.99853 0.91486 0.4832 0.0
C464 C 0.97728 0.90656 0.45226 0.0
H465 H 0.385 0.79247 0.6164 0.0
H466 H 0.29186 0.74114 0.66613 0.0
H467 H 0.31459 0.68853 0.65414 0.0
H468 H 0.39694 0.72678 0.54549 0.0
H469 H 0.44362 0.73491 0.54874 0.0
H470 H 0.4191 0.76805 0.55962 0.0
H471 H 0.44732 0.78084 0.62328 0.0
H472 H 0.4717 0.74757 0.61273 0.0
H473 H 0.44404 0.74842 0.65285 0.0
H474 H 0.3479 0.64172 0.6375 0.0
H475 H 0.3895 0.60409 0.61738 0.0
H476 H 0.46161 0.68652 0.58064 0.0
C477 C 0.36916 0.77011 0.62437 0.0
C478 C 0.33655 0.77084 0.642 0.0
C479 C 0.31686 0.74112 0.65248 0.0
C480 C 0.32956 0.71114 0.6458 0.0
C481 C 0.36203 0.71139 0.62883 0.0
C482 C 0.38156 0.74008 0.61823 0.0
C483 C 0.41611 0.73386 0.60148 0.0
C484 C 0.4191 0.74134 0.56146 0.0
C485 C 0.44658 0.75386 0.62394 0.0
C486 C 0.41303 0.69717 0.6044 0.0
C487 C 0.38156 0.68463 0.62008 0.0
C488 C 0.37263 0.65127 0.62524 0.0
C489 C 0.39639 0.63012 0.6138 0.0
C490 C 0.42872 0.64253 0.59771 0.0
C491 C 0.43716 0.67649 0.59317 0.0
H492 H 0.8941 0.93627 0.81487 0.0
H493 H 0.93795 0.84601 0.81128 0.0
H494 H 0.97847 0.86493 0.76207 0.0
H495 H 0.89433 0.93979 0.72106 0.0
H496 H 0.90534 0.98422 0.72331 0.0
H497 H 0.88264 0.96532 0.76089 0.0
H498 H 0.93088 0.99609 0.80473 0.0
H499 H 0.95378 0.01512 0.76719 0.0
H500 H 0.9755 0.99172 0.79483 0.0
H501 H 0.00997 0.89106 0.70925 0.0
H502 H 0.02952 0.92211 0.65668 0.0
H503 H 0.96602 0.99576 0.69559 0.0
C504 C 0.91261 0.92067 0.80424 0.0
C505 C 0.91289 0.88966 0.81707 0.0
C506 C 0.93728 0.86989 0.80201 0.0
C507 C 0.96048 0.88048 0.77411 0.0
C508 C 0.95912 0.91098 0.76176 0.0
C509 C 0.93589 0.93084 0.77645 0.0
C510 C 0.93801 0.96144 0.75673 0.0
C511 C 0.90301 0.96274 0.73947 0.0
C512 C 0.95028 0.99296 0.78241 0.0
C513 C 0.9654 0.95527 0.72795 0.0
C514 C 0.97754 0.92621 0.73156 0.0
C515 C 0.0012 0.91419 0.70662 0.0
C516 C 0.01232 0.93208 0.67697 0.0
C517 C 0.99986 0.96165 0.67258 0.0
C518 C 0.9765 0.97357 0.69871 0.0
H519 H 0.64713 0.15119 0.35722 0.0
H520 H 0.74964 0.17397 0.30741 0.0
H521 H 0.72485 0.15351 0.24689 0.0
H522 H 0.61934 0.07568 0.29971 0.0
H523 H 0.57502 0.08232 0.29794 0.0
H524 H 0.60085 0.09923 0.33721 0.0
H525 H 0.58844 0.15771 0.32892 0.0
H526 H 0.56285 0.14102 0.28939 0.0
H527 H 0.59889 0.17431 0.28594 0.0
H528 H 0.68907 0.13147 0.19199 0.0
H529 H 0.6454 0.10481 0.14652 0.0
H530 H 0.56627 0.09533 0.23203 0.0
C531 C 0.66442 0.15184 0.33362 0.0
C532 C 0.70034 0.16427 0.33704 0.0
C533 C 0.72207 0.1645 0.30548 0.0
C534 C 0.70821 0.1531 0.27097 0.0
C535 C 0.67264 0.14143 0.26855 0.0
C536 C 0.65108 0.14039 0.29902 0.0
C537 C 0.61392 0.12582 0.28901 0.0
C538 C 0.60157 0.09386 0.30703 0.0
C539 C 0.5896 0.15124 0.2989 0.0
C540 C 0.61798 0.11871 0.2481 0.0
C541 C 0.65203 0.12821 0.23688 0.0
C542 C 0.66235 0.12391 0.20043 0.0
C543 C 0.63735 0.10883 0.17483 0.0
C544 C 0.60256 0.09809 0.18588 0.0
C545 C 0.59267 0.10351 0.22289 0.0
H546 H 0.4003 0.66837 0.34324 0.0
H547 H 0.43223 0.60657 0.24946 0.0
H548 H 0.45212 0.57054 0.29063 0.0
H549 H 0.47158 0.66357 0.40048 0.0
H550 H 0.44536 0.66253 0.44166 0.0
H551 H 0.43357 0.68323 0.40466 0.0
H552 H 0.37244 0.64693 0.40371 0.0
H553 H 0.3842 0.62591 0.44049 0.0
H554 H 0.36865 0.60248 0.39839 0.0
H555 H 0.469 0.54133 0.34227 0.0
H556 H 0.48376 0.52274 0.40025 0.0
H557 H 0.44007 0.60327 0.46016 0.0
C558 C 0.41158 0.64734 0.33131 0.0
C559 C 0.41472 0.64036 0.29304 0.0
C560 C 0.42958 0.6125 0.27864 0.0
C561 C 0.44087 0.5918 0.30182 0.0
C562 C 0.43708 0.5992 0.33938 0.0
C563 C 0.42293 0.62638 0.35404 0.0
C564 C 0.42216 0.62908 0.39536 0.0
C565 C 0.4445 0.66152 0.41148 0.0
C566 C 0.38463 0.6259 0.41036 0.0
C567 C 0.43824 0.59928 0.40166 0.0
C568 C 0.44657 0.58229 0.36904 0.0
C569 C 0.46248 0.55439 0.36798 0.0
C570 C 0.47069 0.54396 0.40111 0.0
C571 C 0.46298 0.56136 0.43491 0.0
C572 C 0.44605 0.58911 0.43494 0.0
H573 H 0.1218 0.37938 0.86959 0.0
H574 H 0.18952 0.45669 0.8183 0.0
H575 H 0.16414 0.49906 0.85803 0.0
H576 H 0.04757 0.4182 0.87579 0.0
H577 H 0.03278 0.40438 0.9192 0.0
H578 H 0.05806 0.38021 0.88876 0.0
H579 H 0.10311 0.38275 0.93956 0.0
H580 H 0.07745 0.40652 0.97004 0.0
H581 H 0.12264 0.42242 0.96173 0.0
H582 H 0.13009 0.53291 0.90201 0.0
H583 H 0.08852 0.55567 0.94577 0.0
H584 H 0.04192 0.45605 0.96643 0.0
C585 C 0.13164 0.40521 0.86699 0.0
C586 C 0.15778 0.41474 0.84096 0.0
C587 C 0.16954 0.44882 0.83807 0.0
C588 C 0.15536 0.47305 0.86058 0.0
C589 C 0.12941 0.46278 0.88572 0.0
C590 C 0.11761 0.42967 0.88899 0.0
C591 C 0.08823 0.42513 0.91682 0.0
C592 C 0.05468 0.40585 0.89906 0.0
C593 C 0.0985 0.40821 0.94894 0.0
C594 C 0.08509 0.46086 0.9284 0.0
C595 C 0.1093 0.48222 0.91044 0.0
C596 C 0.11109 0.51643 0.91633 0.0
C597 C 0.0874 0.52911 0.94113 0.0
C598 C 0.06217 0.50758 0.9594 0.0
C599 C 0.06112 0.47307 0.95297 0.0
H600 H 0.71668 0.89154 0.95038 0.0
H601 H 0.78848 0.92509 0.03927 0.0
H602 H 0.74171 0.94656 0.07625 0.0
H603 H 0.67569 0.95986 0.95875 0.0
H604 H 0.63278 0.93756 0.94815 0.0
H605 H 0.67035 0.92079 0.93054 0.0
H606 H 0.64822 0.86668 0.95995 0.0
H607 H 0.61038 0.88325 0.97752 0.0
H608 H 0.638 0.86875 0.00809 0.0
H609 H 0.68956 0.97064 0.10035 0.0
H610 H 0.63521 0.99362 0.11061 0.0
H611 H 0.59719 0.94335 0.00649 0.0
C612 C 0.72242 0.90271 0.97793 0.0
C613 C 0.75627 0.9066 0.99193 0.0
C614 C 0.76274 0.92173 0.02797 0.0
C615 C 0.73632 0.93396 0.04923 0.0
C616 C 0.7035 0.93055 0.03421 0.0
C617 C 0.69635 0.91497 0.99952 0.0
C618 C 0.65967 0.91655 0.98877 0.0
C619 C 0.65965 0.93478 0.95454 0.0
C620 C 0.63777 0.88173 0.98327 0.0
C621 C 0.64769 0.93645 0.02231 0.0
C622 C 0.67323 0.94406 0.04835 0.0
C623 C 0.66912 0.96433 0.08047 0.0
C624 C 0.63823 0.97739 0.08597 0.0
C625 C 0.61185 0.97009 0.05948 0.0
C626 C 0.61657 0.94892 0.02756 0.0
H627 H 0.87809 0.1516 0.45175 0.0
H628 H 0.77794 0.09695 0.48178 0.0
H629 H 0.80687 0.05244 0.49936 0.0
H630 H 0.91792 0.07979 0.41612 0.0
H631 H 0.95992 0.09764 0.43451 0.0
H632 H 0.93127 0.12408 0.42138 0.0
H633 H 0.93489 0.15582 0.48621 0.0
H634 H 0.96367 0.12962 0.4994 0.0
H635 H 0.92421 0.13314 0.52527 0.0
H636 H 0.8467 0.01517 0.51656 0.0
H637 H 0.89505 0.98942 0.53538 0.0
H638 H 0.96926 0.06855 0.49499 0.0
C639 C 0.8622 0.13009 0.46162 0.0
C640 C 0.82571 0.1277 0.46526 0.0
C641 C 0.80591 0.09934 0.47875 0.0
C642 C 0.82209 0.07384 0.48863 0.0
C643 C 0.85809 0.07703 0.48487 0.0
C644 C 0.87795 0.10447 0.4718 0.0
C645 C 0.91638 0.10275 0.47258 0.0
C646 C 0.9323 0.10095 0.43384 0.0
C647 C 0.93592 0.13207 0.49735 0.0
C648 C 0.91501 0.07039 0.48882 0.0
C649 C 0.88113 0.05572 0.49526 0.0
C650 C 0.87334 0.02629 0.51142 0.0
C651 C 0.90092 0.01184 0.52199 0.0
C652 C 0.93578 0.027 0.51659 0.0
C653 C 0.94282 0.05629 0.49917 0.0
H654 H 0.25949 0.60486 0.13344 0.0
H655 H 0.23227 0.69753 0.18382 0.0
H656 H 0.17077 0.67698 0.1693 0.0
H657 H 0.20304 0.59431 0.05984 0.0
H658 H 0.19127 0.55004 0.05911 0.0
H659 H 0.23283 0.57058 0.0763 0.0
H660 H 0.21921 0.54518 0.13742 0.0
H661 H 0.17767 0.52433 0.12028 0.0
H662 H 0.1799 0.55113 0.16248 0.0
H663 H 0.11354 0.64894 0.14427 0.0
H664 H 0.0633 0.61362 0.11343 0.0
H665 H 0.12695 0.53842 0.0805 0.0
C666 C 0.24052 0.6206 0.14201 0.0
C667 C 0.25074 0.65283 0.15979 0.0
C668 C 0.22512 0.67275 0.17024 0.0
C669 C 0.19009 0.6613 0.16212 0.0
C670 C 0.18102 0.62976 0.14383 0.0
C671 C 0.20537 0.60951 0.13424 0.0
C672 C 0.18886 0.57717 0.11343 0.0
C673 C 0.20496 0.57279 0.07489 0.0
C674 C 0.19157 0.54771 0.13468 0.0
C675 C 0.15162 0.58278 0.11212 0.0
C676 C 0.14769 0.61327 0.12988 0.0
C677 C 0.11616 0.62482 0.13068 0.0
C678 C 0.08783 0.60466 0.1129 0.0
C679 C 0.09119 0.57323 0.09471 0.0
C680 C 0.12348 0.56214 0.0946 0.0
H681 H 0.28896 0.39434 0.63518 0.0
H682 H 0.31689 0.44999 0.73972 0.0
H683 H 0.36342 0.48651 0.70967 0.0
H684 H 0.37614 0.39501 0.60343 0.0
H685 H 0.36718 0.39829 0.55651 0.0
H686 H 0.33362 0.37868 0.5854 0.0
H687 H 0.29341 0.41919 0.57059 0.0
H688 H 0.32698 0.43904 0.54176 0.0
H689 H 0.30834 0.46317 0.57864 0.0
H690 H 0.40705 0.51623 0.66926 0.0
H691 H 0.45038 0.53352 0.62216 0.0
H692 H 0.39781 0.45645 0.54371 0.0
C693 C 0.30465 0.41451 0.65154 0.0
C694 C 0.29924 0.41967 0.68967 0.0
C695 C 0.32069 0.44573 0.71046 0.0
C696 C 0.34698 0.46671 0.69362 0.0
C697 C 0.3518 0.46097 0.65603 0.0
C698 C 0.33165 0.43525 0.63524 0.0
C699 C 0.34448 0.43279 0.59587 0.0
C700 C 0.35605 0.3992 0.58466 0.0
C701 C 0.31664 0.43892 0.5702 0.0
C702 C 0.37519 0.46091 0.59796 0.0
C703 C 0.37838 0.47719 0.6328 0.0
C704 C 0.40485 0.50371 0.64186 0.0
C705 C 0.4293 0.51338 0.61484 0.0
C706 C 0.42748 0.49627 0.5793 0.0
C707 C 0.39973 0.47002 0.57062 0.0
H708 H 0.87227 0.71499 0.91153 0.0
H709 H 0.88647 0.78754 0.00677 0.0
H710 H 0.90884 0.74734 0.04059 0.0
H711 H 0.84591 0.64232 0.96006 0.0
H712 H 0.86914 0.61649 0.9291 0.0
H713 H 0.85237 0.6503 0.91303 0.0
H714 H 0.91395 0.67423 0.88994 0.0
H715 H 0.93088 0.64052 0.90588 0.0
H716 H 0.94961 0.68263 0.92121 0.0
H717 H 0.93131 0.69988 0.06345 0.0
H718 H 0.95433 0.64927 0.07285 0.0
H719 H 0.92632 0.60805 0.96248 0.0
C720 C 0.87978 0.72235 0.93961 0.0
C721 C 0.8775 0.75438 0.95657 0.0
C722 C 0.88797 0.76314 0.99322 0.0
C723 C 0.90061 0.74045 0.01269 0.0
C724 C 0.90268 0.70914 0.9951 0.0
C725 C 0.89265 0.70009 0.95935 0.0
C726 C 0.89892 0.66542 0.94628 0.0
C727 C 0.86453 0.64227 0.93655 0.0
C728 C 0.92489 0.66574 0.91392 0.0
C729 C 0.91442 0.65653 0.98012 0.0
C730 C 0.91605 0.68195 0.0081 0.0
C731 C 0.92997 0.67973 0.04182 0.0
C732 C 0.94285 0.65088 0.04696 0.0
C733 C 0.94184 0.62477 0.01847 0.0
C734 C 0.92724 0.62761 0.98476 0.0
H735 H 0.43743 0.80615 0.20068 0.0
H736 H 0.42629 0.75647 0.0906 0.0
H737 H 0.44888 0.8092 0.06584 0.0
H738 H 0.41033 0.87987 0.18259 0.0
H739 H 0.44097 0.90693 0.21235 0.0
H740 H 0.42616 0.86489 0.22181 0.0
H741 H 0.4898 0.85459 0.22169 0.0
H742 H 0.50484 0.89677 0.21272 0.0
H743 H 0.51769 0.86322 0.18273 0.0
H744 H 0.46889 0.86837 0.05274 0.0
H745 H 0.48926 0.92871 0.05298 0.0
H746 H 0.48807 0.93936 0.17125 0.0
C747 C 0.44031 0.80619 0.17139 0.0
C748 C 0.43007 0.77703 0.14766 0.0
C749 C 0.43399 0.77837 0.10944 0.0
C750 C 0.44673 0.80827 0.09504 0.0
C751 C 0.45568 0.83669 0.11915 0.0
C752 C 0.45307 0.83584 0.15652 0.0
C753 C 0.4638 0.87003 0.17644 0.0
C754 C 0.4335 0.88106 0.19966 0.0
C755 C 0.49595 0.87121 0.19977 0.0
C756 C 0.47242 0.89024 0.14447 0.0
C757 C 0.46751 0.87061 0.11161 0.0
C758 C 0.47309 0.88395 0.07832 0.0
C759 C 0.48447 0.91821 0.07868 0.0
C760 C 0.49021 0.93856 0.11209 0.0
C761 C 0.48391 0.92433 0.14529 0.0
H762 H 0.13965 0.21567 0.7216 0.0
H763 H 0.14089 0.28635 0.64242 0.0
H764 H 0.11358 0.24148 0.59751 0.0
H765 H 0.15823 0.14725 0.65754 0.0
H766 H 0.12972 0.11649 0.68038 0.0
H767 H 0.15041 0.15401 0.70602 0.0
H768 H 0.09015 0.16596 0.73002 0.0
H769 H 0.06927 0.12862 0.70423 0.0
H770 H 0.05693 0.16776 0.69795 0.0
H771 H 0.08547 0.18967 0.56166 0.0
H772 H 0.05935 0.13361 0.5362 0.0
H773 H 0.07532 0.09619 0.63876 0.0
C774 C 0.13449 0.22167 0.69471 0.0
C775 C 0.14248 0.25454 0.68549 0.0
C776 C 0.13503 0.26138 0.65011 0.0
C777 C 0.11948 0.23608 0.62441 0.0
C778 C 0.1115 0.20409 0.63454 0.0
C779 C 0.11882 0.19673 0.66875 0.0
C780 C 0.1071 0.16029 0.67275 0.0
C781 C 0.13822 0.14353 0.67957 0.0
C782 C 0.0792 0.15539 0.70303 0.0
C783 C 0.09197 0.14838 0.63544 0.0
C784 C 0.09487 0.17408 0.61387 0.0
C785 C 0.08308 0.16931 0.57824 0.0
C786 C 0.06828 0.13732 0.56404 0.0
C787 C 0.06526 0.11044 0.58547 0.0
C788 C 0.07702 0.11622 0.62178 0.0
H789 H 0.60436 0.28596 0.45713 0.0
H790 H 0.71153 0.32873 0.48181 0.0
H791 H 0.69548 0.38457 0.48931 0.0
H792 H 0.58584 0.34976 0.40601 0.0
H793 H 0.54207 0.34832 0.42374 0.0
H794 H 0.56193 0.31173 0.42013 0.0
H795 H 0.55006 0.30653 0.48898 0.0
H796 H 0.52984 0.34288 0.49271 0.0
H797 H 0.56541 0.34119 0.52188 0.0
H798 H 0.66779 0.43572 0.49334 0.0
H799 H 0.62971 0.47815 0.49829 0.0
H800 H 0.54055 0.40175 0.47181 0.0
C801 C 0.62449 0.30704 0.46418 0.0
C802 C 0.65924 0.30299 0.4688 0.0
C803 C 0.68473 0.33122 0.47821 0.0
C804 C 0.6759 0.36304 0.48235 0.0
C805 C 0.64147 0.36614 0.47713 0.0
C806 C 0.61611 0.33888 0.4686 0.0
C807 C 0.58087 0.34884 0.4653 0.0
C808 C 0.56687 0.33908 0.42648 0.0
C809 C 0.55503 0.33398 0.49393 0.0
C810 C 0.59032 0.38602 0.47338 0.0
C811 C 0.62545 0.39552 0.47986 0.0
C812 C 0.64026 0.42857 0.48831 0.0
C813 C 0.61846 0.45248 0.49092 0.0
C814 C 0.58228 0.44315 0.4853 0.0
C815 C 0.56817 0.40955 0.47596 0.0
loop_
_geom_bond_atom_site_label_1
_geom_bond_atom_site_label_2
_geom_bond_distance
_geom_bond_site_symmetry_2
_ccdc_geom_bond_type
O0 Cd1 2.300 . S
O0 C7 1.275 . S
Cd1 O0 2.300 . S
Cd1 O9 2.381 . S
Cd1 O10 2.378 . S
O2 Cd3 2.385 . S
O2 C7 1.255 . S
Cd3 O2 2.385 . S
Cd3 O4 2.317 . S
O4 Cd3 2.317 . S
O4 C5 1.232 . S
C5 O4 1.232 . S
C5 O6 1.218 . S
O6 C5 1.218 . S
C7 O0 1.275 . S
C7 O2 1.255 . S
C8 O9 1.258 . S
C8 O10 1.256 . S
O9 Cd1 2.381 . S
O9 C8 1.258 . S
O10 Cd1 2.378 . S
O10 C8 1.256 . S
O11 Cd12 2.300 . S
O11 C18 1.275 . S
Cd12 O11 2.300 . S
Cd12 O20 2.381 . S
Cd12 O21 2.378 . S
O13 Cd14 2.385 . S
O13 C18 1.255 . S
Cd14 O13 2.385 . S
Cd14 O15 2.317 . S
O15 Cd14 2.317 . S
O15 C16 1.232 . S
C16 O15 1.232 . S
C16 O17 1.218 . S
O17 C16 1.218 . S
C18 O11 1.275 . S
C18 O13 1.255 . S
C19 O20 1.258 . S
C19 O21 1.256 . S
O20 Cd12 2.381 . S
O20 C19 1.258 . S
O21 Cd12 2.378 . S
O21 C19 1.256 . S
O22 Cd23 2.300 . S
O22 C29 1.275 . S
Cd23 O22 2.300 . S
Cd23 O31 2.381 . S
Cd23 O32 2.378 . S
O24 Cd25 2.385 . S
O24 C29 1.255 . S
Cd25 O24 2.385 . S
Cd25 O26 2.317 . S
O26 Cd25 2.317 . S
O26 C27 1.232 . S
C27 O26 1.232 . S
C27 O28 1.218 . S
O28 C27 1.218 . S
C29 O22 1.275 . S
C29 O24 1.255 . S
C30 O31 1.258 . S
C30 O32 1.256 . S
O31 Cd23 2.381 . S
O31 C30 1.258 . S
O32 Cd23 2.378 . S
O32 C30 1.256 . S
O33 Cd34 2.300 . S
O33 C40 1.275 . S
Cd34 O33 2.300 . S
Cd34 O42 2.381 . S
Cd34 O43 2.378 . S
O35 Cd36 2.385 . S
O35 C40 1.255 . S
Cd36 O35 2.385 . S
Cd36 O37 2.317 . S
O37 Cd36 2.317 . S
O37 C38 1.232 . S
C38 O37 1.232 . S
C38 O39 1.218 . S
O39 C38 1.218 . S
C40 O33 1.275 . S
C40 O35 1.255 . S
C41 O42 1.258 . S
C41 O43 1.256 . S
O42 Cd34 2.381 . S
O42 C41 1.258 . S
O43 Cd34 2.378 . S
O43 C41 1.256 . S
O44 Cd45 2.300 . S
O44 C51 1.275 . S
Cd45 O44 2.300 . S
Cd45 O53 2.381 . S
Cd45 O54 2.378 . S
O46 Cd47 2.385 . S
O46 C51 1.255 . S
Cd47 O46 2.385 . S
Cd47 O48 2.317 . S
O48 Cd47 2.317 . S
O48 C49 1.232 . S
C49 O48 1.232 . S
C49 O50 1.218 . S
O50 C49 1.218 . S
C51 O44 1.275 . S
C51 O46 1.255 . S
C52 O53 1.258 . S
C52 O54 1.256 . S
O53 Cd45 2.381 . S
O53 C52 1.258 . S
O54 Cd45 2.378 . S
O54 C52 1.256 . S
O55 Cd56 2.300 . S
O55 C62 1.275 . S
Cd56 O55 2.300 . S
Cd56 O64 2.381 . S
Cd56 O65 2.378 . S
O57 Cd58 2.385 . S
O57 C62 1.255 . S
Cd58 O57 2.385 . S
Cd58 O59 2.317 . S
O59 Cd58 2.317 . S
O59 C60 1.232 . S
C60 O59 1.232 . S
C60 O61 1.218 . S
O61 C60 1.218 . S
C62 O55 1.275 . S
C62 O57 1.255 . S
C63 O64 1.258 . S
C63 O65 1.256 . S
O64 Cd56 2.381 . S
O64 C63 1.258 . S
O65 Cd56 2.378 . S
O65 C63 1.256 . S
O66 Cd67 2.300 . S
O66 C73 1.275 . S
Cd67 O66 2.300 . S
Cd67 O75 2.381 . S
Cd67 O76 2.378 . S
O68 Cd69 2.385 . S
O68 C73 1.255 . S
Cd69 O68 2.385 . S
Cd69 O70 2.317 . S
O70 Cd69 2.317 . S
O70 C71 1.232 . S
C71 O70 1.232 . S
C71 O72 1.218 . S
O72 C71 1.218 . S
C73 O66 1.275 . S
C73 O68 1.255 . S
C74 O75 1.258 . S
C74 O76 1.256 . S
O75 Cd67 2.381 . S
O75 C74 1.258 . S
O76 Cd67 2.378 . S
O76 C74 1.256 . S
O77 Cd78 2.300 . S
O77 C84 1.275 . S
Cd78 O77 2.300 . S
Cd78 O86 2.381 . S
Cd78 O87 2.378 . S
O79 Cd80 2.385 . S
O79 C84 1.255 . S
Cd80 O79 2.385 . S
Cd80 O81 2.317 . S
O81 Cd80 2.317 . S
O81 C82 1.232 . S
C82 O81 1.232 . S
C82 O83 1.218 . S
O83 C82 1.218 . S
C84 O77 1.275 . S
C84 O79 1.255 . S
C85 O86 1.258 . S
C85 O87 1.256 . S
O86 Cd78 2.381 . S
O86 C85 1.258 . S
O87 Cd78 2.378 . S
O87 C85 1.256 . S
Dy88 O92 2.398 . S
Dy88 O93 2.491 . S
Dy88 O94 2.389 1_545 S
Dy88 O95 2.664 1_545 S
Dy88 O99 2.326 . S
Dy88 O103 2.310 1_455 S
Dy88 O104 2.351 1_545 S
C89 O100 1.185 . S
C89 O101 1.355 . S
C90 O92 1.185 . S
C90 O93 1.355 . S
Dy91 O95 2.310 1_645 S
Dy91 O98 2.351 1_655 S
Dy91 O100 2.398 1_545 S
Dy91 O101 2.491 1_545 S
Dy91 O102 2.403 . S
Dy91 O103 2.664 . S
Dy91 O105 2.326 1_545 S
O92 Dy88 2.398 . S
O92 C90 1.185 . S
O93 Dy88 2.491 . S
O93 C90 1.355 . S
O94 Dy88 2.389 1_565 S
O94 C96 1.264 . S
O95 Dy88 2.664 1_565 S
O95 Dy91 2.310 1_465 S
O95 C96 1.268 . S
C96 O94 1.264 . S
C96 O95 1.268 . S
C97 O102 1.254 . S
C97 O103 1.268 . S
O98 Dy91 2.351 1_455 S
O98 C106 1.249 . S
O99 Dy88 2.326 . S
O99 C106 1.267 . S
O100 C89 1.185 . S
O100 Dy91 2.398 1_565 S
O101 C89 1.355 . S
O101 Dy91 2.491 1_565 S
O102 Dy91 2.403 . S
O102 C97 1.254 . S
O103 Dy88 2.310 1_655 S
O103 Dy91 2.664 . S
O103 C97 1.268 . S
O104 Dy88 2.351 1_565 S
O104 C107 1.249 1_455 S
O105 Dy91 2.326 1_565 S
O105 C107 1.267 . S
C106 O98 1.249 . S
C106 O99 1.267 . S
C107 O104 1.249 1_655 S
C107 O105 1.267 . S
Dy108 O112 2.398 . S
Dy108 O113 2.491 . S
Dy108 O114 2.403 1_545 S
Dy108 O115 2.664 1_545 S
Dy108 O119 2.326 . S
Dy108 O123 2.310 . S
Dy108 O124 2.351 . S
C109 O120 1.185 1_565 S
C109 O121 1.355 . S
C110 O112 1.185 . S
C110 O113 1.355 . S
Dy111 O115 2.310 1_545 S
Dy111 O118 2.351 . S
Dy111 O120 2.398 1_554 S
Dy111 O121 2.491 1_544 S
Dy111 O122 2.407 . S
Dy111 O123 2.664 . S
Dy111 O125 2.328 . S
O112 Dy108 2.398 . S
O112 C110 1.185 . S
O113 Dy108 2.491 . S
O113 C110 1.355 . S
O114 Dy108 2.403 1_565 S
O114 C116 1.254 . S
O115 Dy108 2.664 1_565 S
O115 Dy111 2.310 1_565 S
O115 C116 1.268 . S
C116 O114 1.254 . S
C116 O115 1.268 . S
C117 O122 1.263 . S
C117 O123 1.268 . S
O118 Dy111 2.351 . S
O118 C126 1.249 . S
O119 Dy108 2.326 . S
O119 C126 1.267 . S
O120 C109 1.185 1_545 S
O120 Dy111 2.398 1_556 S
O121 C109 1.355 . S
O121 Dy111 2.491 1_566 S
O122 Dy111 2.407 . S
O122 C117 1.263 . S
O123 Dy108 2.310 . S
O123 Dy111 2.664 . S
O123 C117 1.268 . S
O124 Dy108 2.351 . S
O124 C127 1.249 1_545 S
O125 Dy111 2.328 . S
O125 C127 1.272 1_545 S
C126 O118 1.249 . S
C126 O119 1.267 . S
C127 O124 1.249 1_565 S
C127 O125 1.272 1_565 S
Dy128 O132 2.398 . S
Dy128 O133 2.491 . S
Dy128 O134 2.403 . S
Dy128 O135 2.664 . S
Dy128 O139 2.326 . S
Dy128 O143 2.310 . S
Dy128 O144 2.351 . S
C129 O140 1.185 . S
C129 O141 1.355 . S
C130 O132 1.185 . S
C130 O133 1.355 . S
Dy131 O135 2.310 . S
Dy131 O138 2.351 . S
Dy131 O140 2.398 . S
Dy131 O141 2.491 . S
Dy131 O142 2.403 . S
Dy131 O143 2.664 . S
Dy131 O145 2.326 . S
O132 Dy128 2.398 . S
O132 C130 1.185 . S
O133 Dy128 2.491 . S
O133 C130 1.355 . S
O134 Dy128 2.403 . S
O134 C136 1.254 . S
O135 Dy128 2.664 . S
O135 Dy131 2.310 . S
O135 C136 1.268 . S
C136 O134 1.254 . S
C136 O135 1.268 . S
C137 O142 1.254 . S
C137 O143 1.268 . S
O138 Dy131 2.351 . S
O138 C146 1.249 . S
O139 Dy128 2.326 . S
O139 C146 1.267 . S
O140 C129 1.185 . S
O140 Dy131 2.398 . S
O141 C129 1.355 . S
O141 Dy131 2.491 . S
O142 Dy131 2.403 . S
O142 C137 1.254 . S
O143 Dy128 2.310 . S
O143 Dy131 2.664 . S
O143 C137 1.268 . S
O144 Dy128 2.351 . S
O144 C147 1.249 . S
O145 Dy131 2.326 . S
O145 C147 1.267 . S
C146 O138 1.249 . S
C146 O139 1.267 . S
C147 O144 1.249 . S
C147 O145 1.267 . S
Dy148 O152 2.398 . S
Dy148 O153 2.491 . S
Dy148 O154 2.403 . S
Dy148 O155 2.664 . S
Dy148 O159 2.326 . S
Dy148 O163 2.310 1_554 S
Dy148 O164 2.351 1_455 S
C149 O160 1.185 . S
C149 O161 1.355 . S
C150 O152 1.185 . S
C150 O153 1.355 . S
Dy151 O155 2.310 1_556 S
Dy151 O158 2.351 1_556 S
Dy151 O160 2.398 1_455 S
Dy151 O161 2.491 1_455 S
Dy151 O162 2.403 . S
Dy151 O163 2.664 . S
Dy151 O165 2.326 1_455 S
O152 Dy148 2.398 . S
O152 C150 1.185 . S
O153 Dy148 2.491 . S
O153 C150 1.355 . S
O154 Dy148 2.403 . S
O154 C156 1.254 1_455 S
O155 Dy148 2.664 . S
O155 Dy151 2.310 1_554 S
O155 C156 1.268 1_455 S
C156 O154 1.254 1_655 S
C156 O155 1.268 1_655 S
C157 O162 1.254 . S
C157 O163 1.268 . S
O158 Dy151 2.351 1_554 S
O158 C166 1.249 . S
O159 Dy148 2.326 . S
O159 C166 1.267 . S
O160 C149 1.185 . S
O160 Dy151 2.398 1_655 S
O161 C149 1.355 . S
O161 Dy151 2.491 1_655 S
O162 Dy151 2.403 . S
O162 C157 1.254 . S
O163 Dy148 2.310 1_556 S
O163 Dy151 2.664 . S
O163 C157 1.268 . S
O164 Dy148 2.351 1_655 S
O164 C167 1.249 1_554 S
O165 Dy151 2.326 1_655 S
O165 C167 1.267 . S
C166 O158 1.249 . S
C166 O159 1.267 . S
C167 O164 1.249 1_556 S
C167 O165 1.267 . S
H168 C180 0.930 . S
H169 C182 0.930 . S
H170 C183 0.930 . S
H171 C187 0.959 . S
H172 C187 0.959 . S
H173 C187 0.961 . S
H174 C188 0.960 . S
H175 C188 0.961 . S
H176 C188 0.959 . S
H177 C191 0.929 . S
H178 C192 0.931 . S
H179 C194 0.930 . S
C180 H168 0.930 . S
C180 C181 1.399 . S
C180 C185 1.399 . S
C181 C180 1.399 . S
C181 C182 1.376 . S
C182 H169 0.930 . S
C182 C181 1.376 . S
C182 C183 1.388 . S
C183 H170 0.930 . S
C183 C182 1.388 . S
C183 C184 1.390 . S
C184 C183 1.390 . S
C184 C185 1.394 . S
C184 C190 1.465 . S
C185 C180 1.399 . S
C185 C184 1.394 . S
C185 C186 1.516 . S
C186 C185 1.516 . S
C186 C187 1.502 . S
C186 C188 1.561 . S
C186 C189 1.526 . S
C187 H171 0.959 . S
C187 H172 0.959 . S
C187 H173 0.961 . S
C187 C186 1.502 . S
C188 H174 0.960 . S
C188 H175 0.961 . S
C188 H176 0.959 . S
C188 C186 1.561 . S
C189 C186 1.526 . S
C189 C190 1.396 . S
C189 C194 1.390 . S
C190 C184 1.465 . S
C190 C189 1.396 . S
C190 C191 1.399 . S
C191 H177 0.929 . S
C191 C190 1.399 . S
C191 C192 1.385 . S
C192 H178 0.931 . S
C192 C191 1.385 . S
C192 C193 1.389 . S
C193 C192 1.389 . S
C193 C194 1.387 . S
C194 H179 0.930 . S
C194 C189 1.390 . S
C194 C193 1.387 . S
H195 C207 0.930 . S
H196 C209 0.930 . S
H197 C210 0.930 . S
H198 C214 0.959 . S
H199 C214 0.959 . S
H200 C214 0.961 . S
H201 C215 0.960 . S
H202 C215 0.961 . S
H203 C215 0.959 . S
H204 C218 0.929 1_545 S
H205 C219 0.931 1_545 S
H206 C221 0.930 . S
C207 H195 0.930 . S
C207 C208 1.399 . S
C207 C212 1.399 . S
C208 C207 1.399 . S
C208 C209 1.376 . S
C209 H196 0.930 . S
C209 C208 1.376 . S
C209 C210 1.388 . S
C210 H197 0.930 . S
C210 C209 1.388 . S
C210 C211 1.390 . S
C211 C210 1.390 . S
C211 C212 1.394 . S
C211 C217 1.465 . S
C212 C207 1.399 . S
C212 C211 1.394 . S
C212 C213 1.516 . S
C213 C212 1.516 . S
C213 C214 1.502 . S
C213 C215 1.561 . S
C213 C216 1.526 . S
C214 H198 0.959 . S
C214 H199 0.959 . S
C214 H200 0.961 . S
C214 C213 1.502 . S
C215 H201 0.960 . S
C215 H202 0.961 . S
C215 H203 0.959 . S
C215 C213 1.561 . S
C216 C213 1.526 . S
C216 C217 1.396 . S
C216 C221 1.390 . S
C217 C211 1.465 . S
C217 C216 1.396 . S
C217 C218 1.399 . S
C218 H204 0.929 1_565 S
C218 C217 1.399 . S
C218 C219 1.385 . S
C219 H205 0.931 1_565 S
C219 C218 1.385 . S
C219 C220 1.389 . S
C220 C219 1.389 . S
C220 C221 1.387 . S
C221 H206 0.930 . S
C221 C216 1.390 . S
C221 C220 1.387 . S
H222 C234 0.930 . S
H223 C236 0.930 . S
H224 C237 0.930 . S
H225 C241 0.959 . S
H226 C241 0.959 . S
H227 C241 0.961 . S
H228 C242 0.960 . S
H229 C242 0.961 . S
H230 C242 0.959 . S
H231 C245 0.929 . S
H232 C246 0.931 . S
H233 C248 0.930 . S
C234 H222 0.930 . S
C234 C235 1.399 . S
C234 C239 1.399 . S
C235 C234 1.399 . S
C235 C236 1.376 . S
C236 H223 0.930 . S
C236 C235 1.376 . S
C236 C237 1.388 . S
C237 H224 0.930 . S
C237 C236 1.388 . S
C237 C238 1.390 . S
C238 C237 1.390 . S
C238 C239 1.394 . S
C238 C244 1.465 . S
C239 C234 1.399 . S
C239 C238 1.394 . S
C239 C240 1.516 . S
C240 C239 1.516 . S
C240 C241 1.502 . S
C240 C242 1.561 . S
C240 C243 1.526 . S
C241 H225 0.959 . S
C241 H226 0.959 . S
C241 H227 0.961 . S
C241 C240 1.502 . S
C242 H228 0.960 . S
C242 H229 0.961 . S
C242 H230 0.959 . S
C242 C240 1.561 . S
C243 C240 1.526 . S
C243 C244 1.396 . S
C243 C248 1.390 . S
C244 C238 1.465 . S
C244 C243 1.396 . S
C244 C245 1.399 . S
C245 H231 0.929 . S
C245 C244 1.399 . S
C245 C246 1.385 . S
C246 H232 0.931 . S
C246 C245 1.385 . S
C246 C247 1.389 . S
C247 C246 1.389 . S
C247 C248 1.387 . S
C248 H233 0.930 . S
C248 C243 1.390 . S
C248 C247 1.387 . S
H249 C261 0.930 . S
H250 C263 0.930 . S
H251 C264 0.930 . S
H252 C268 0.959 . S
H253 C268 0.959 . S
H254 C268 0.961 . S
H255 C269 0.960 . S
H256 C269 0.961 . S
H257 C269 0.959 . S
H258 C272 0.929 . S
H259 C273 0.931 . S
H260 C275 0.930 . S
C261 H249 0.930 . S
C261 C262 1.399 . S
C261 C266 1.399 . S
C262 C261 1.399 . S
C262 C263 1.376 . S
C263 H250 0.930 . S
C263 C262 1.376 . S
C263 C264 1.388 . S
C264 H251 0.930 . S
C264 C263 1.388 . S
C264 C265 1.390 . S
C265 C264 1.390 . S
C265 C266 1.394 . S
C265 C271 1.465 . S
C266 C261 1.399 . S
C266 C265 1.394 . S
C266 C267 1.516 . S
C267 C266 1.516 . S
C267 C268 1.502 . S
C267 C269 1.561 1_655 S
C267 C270 1.526 . S
C268 H252 0.959 . S
C268 H253 0.959 . S
C268 H254 0.961 . S
C268 C267 1.502 . S
C269 H255 0.960 . S
C269 H256 0.961 . S
C269 H257 0.959 . S
C269 C267 1.561 1_455 S
C270 C267 1.526 . S
C270 C271 1.396 . S
C270 C275 1.390 . S
C271 C265 1.465 . S
C271 C270 1.396 . S
C271 C272 1.399 . S
C272 H258 0.929 . S
C272 C271 1.399 . S
C272 C273 1.385 . S
C273 H259 0.931 . S
C273 C272 1.385 . S
C273 C274 1.389 . S
C274 C273 1.389 . S
C274 C275 1.387 . S
C275 H260 0.930 . S
C275 C270 1.390 . S
C275 C274 1.387 . S
H276 C288 0.930 . S
H277 C290 0.930 . S
H278 C291 0.930 . S
H279 C295 0.959 . S
H280 C295 0.959 . S
H281 C295 0.961 . S
H282 C296 0.960 . S
H283 C296 0.961 . S
H284 C296 0.959 . S
H285 C299 0.929 . S
H286 C300 0.931 . S
H287 C302 0.930 . S
C288 H276 0.930 . S
C288 C289 1.399 . S
C288 C293 1.399 . S
C289 C288 1.399 . S
C289 C290 1.376 . S
C290 H277 0.930 . S
C290 C289 1.376 . S
C290 C291 1.388 . S
C291 H278 0.930 . S
C291 C290 1.388 . S
C291 C292 1.390 . S
C292 C291 1.390 . S
C292 C293 1.394 . S
C292 C298 1.465 . S
C293 C288 1.399 . S
C293 C292 1.394 . S
C293 C294 1.516 . S
C294 C293 1.516 . S
C294 C295 1.502 . S
C294 C296 1.561 . S
C294 C297 1.526 . S
C295 H279 0.959 . S
C295 H280 0.959 . S
C295 H281 0.961 . S
C295 C294 1.502 . S
C296 H282 0.960 . S
C296 H283 0.961 . S
C296 H284 0.959 . S
C296 C294 1.561 . S
C297 C294 1.526 . S
C297 C298 1.396 . S
C297 C302 1.390 . S
C298 C292 1.465 . S
C298 C297 1.396 . S
C298 C299 1.399 . S
C299 H285 0.929 . S
C299 C298 1.399 . S
C299 C300 1.385 . S
C300 H286 0.931 . S
C300 C299 1.385 . S
C300 C301 1.389 . S
C301 C300 1.389 . S
C301 C302 1.387 . S
C302 H287 0.930 . S
C302 C297 1.390 . S
C302 C301 1.387 . S
H303 C315 0.930 . S
H304 C317 0.930 . S
H305 C318 0.930 . S
H306 C322 0.959 . S
H307 C322 0.959 . S
H308 C322 0.961 . S
H309 C323 0.960 . S
H310 C323 0.961 . S
H311 C323 0.959 1_545 S
H312 C326 0.929 . S
H313 C327 0.931 . S
H314 C329 0.930 . S
C315 H303 0.930 . S
C315 C316 1.399 . S
C315 C320 1.399 . S
C316 C315 1.399 . S
C316 C317 1.376 . S
C317 H304 0.930 . S
C317 C316 1.376 . S
C317 C318 1.388 . S
C318 H305 0.930 . S
C318 C317 1.388 . S
C318 C319 1.390 . S
C319 C318 1.390 . S
C319 C320 1.394 . S
C319 C325 1.465 . S
C320 C315 1.399 . S
C320 C319 1.394 . S
C320 C321 1.516 . S
C321 C320 1.516 . S
C321 C322 1.502 . S
C321 C323 1.561 . S
C321 C324 1.526 . S
C322 H306 0.959 . S
C322 H307 0.959 . S
C322 H308 0.961 . S
C322 C321 1.502 . S
C323 H309 0.960 . S
C323 H310 0.961 . S
C323 H311 0.959 1_565 S
C323 C321 1.561 . S
C324 C321 1.526 . S
C324 C325 1.396 . S
C324 C329 1.390 . S
C325 C319 1.465 . S
C325 C324 1.396 . S
C325 C326 1.399 . S
C326 H312 0.929 . S
C326 C325 1.399 . S
C326 C327 1.385 . S
C327 H313 0.931 . S
C327 C326 1.385 . S
C327 C328 1.389 . S
C328 C327 1.389 . S
C328 C329 1.387 . S
C329 H314 0.930 . S
C329 C324 1.390 . S
C329 C328 1.387 . S
H330 C342 0.930 . S
H331 C344 0.930 . S
H332 C345 0.930 . S
H333 C349 0.959 . S
H334 C349 0.959 . S
H335 C349 0.961 . S
H336 C350 0.960 . S
H337 C350 0.961 . S
H338 C350 0.959 . S
H339 C353 0.929 . S
H340 C354 0.931 . S
H341 C356 0.930 . S
C342 H330 0.930 . S
C342 C343 1.399 . S
C342 C347 1.399 . S
C343 C342 1.399 . S
C343 C344 1.376 . S
C344 H331 0.930 . S
C344 C343 1.376 . S
C344 C345 1.388 . S
C345 H332 0.930 . S
C345 C344 1.388 . S
C345 C346 1.390 . S
C346 C345 1.390 . S
C346 C347 1.394 . S
C346 C352 1.465 . S
C347 C342 1.399 . S
C347 C346 1.394 . S
C347 C348 1.516 . S
C348 C347 1.516 . S
C348 C349 1.502 . S
C348 C350 1.561 1_556 S
C348 C351 1.526 . S
C349 H333 0.959 . S
C349 H334 0.959 . S
C349 H335 0.961 . S
C349 C348 1.502 . S
C350 H336 0.960 . S
C350 H337 0.961 . S
C350 H338 0.959 . S
C350 C348 1.561 1_554 S
C351 C348 1.526 . S
C351 C352 1.396 . S
C351 C356 1.390 . S
C352 C346 1.465 . S
C352 C351 1.396 . S
C352 C353 1.399 . S
C353 H339 0.929 . S
C353 C352 1.399 . S
C353 C354 1.385 . S
C354 H340 0.931 . S
C354 C353 1.385 . S
C354 C355 1.389 . S
C355 C354 1.389 . S
C355 C356 1.387 . S
C356 H341 0.930 . S
C356 C351 1.390 . S
C356 C355 1.387 . S
H357 C369 0.930 . S
H358 C371 0.930 . S
H359 C372 0.930 . S
H360 C376 0.959 . S
H361 C376 0.959 . S
H362 C376 0.961 . S
H363 C377 0.960 . S
H364 C377 0.961 . S
H365 C377 0.959 . S
H366 C380 0.929 . S
H367 C381 0.931 . S
H368 C383 0.930 . S
C369 H357 0.930 . S
C369 C370 1.399 . S
C369 C374 1.399 . S
C370 C369 1.399 . S
C370 C371 1.376 . S
C371 H358 0.930 . S
C371 C370 1.376 . S
C371 C372 1.388 . S
C372 H359 0.930 . S
C372 C371 1.388 . S
C372 C373 1.390 . S
C373 C372 1.390 . S
C373 C374 1.394 . S
C373 C379 1.465 . S
C374 C369 1.399 . S
C374 C373 1.394 . S
C374 C375 1.516 . S
C375 C374 1.516 . S
C375 C376 1.502 . S
C375 C377 1.561 . S
C375 C378 1.526 . S
C376 H360 0.959 . S
C376 H361 0.959 . S
C376 H362 0.961 . S
C376 C375 1.502 . S
C377 H363 0.960 . S
C377 H364 0.961 . S
C377 H365 0.959 . S
C377 C375 1.561 . S
C378 C375 1.526 . S
C378 C379 1.396 . S
C378 C383 1.390 . S
C379 C373 1.465 . S
C379 C378 1.396 . S
C379 C380 1.399 . S
C380 H366 0.929 . S
C380 C379 1.399 . S
C380 C381 1.385 . S
C381 H367 0.931 . S
C381 C380 1.385 . S
C381 C382 1.389 . S
C382 C381 1.389 . S
C382 C383 1.387 . S
C383 H368 0.930 . S
C383 C378 1.390 . S
C383 C382 1.387 . S
H384 C396 0.930 . S
H385 C398 0.930 . S
H386 C399 0.930 . S
H387 C403 0.959 . S
H388 C403 0.959 . S
H389 C403 0.961 . S
H390 C404 0.960 . S
H391 C404 0.961 . S
H392 C404 0.959 . S
H393 C407 0.929 . S
H394 C408 0.931 . S
H395 C410 0.930 . S
C396 H384 0.930 . S
C396 C397 1.399 . S
C396 C401 1.399 . S
C397 C396 1.399 . S
C397 C398 1.376 . S
C398 H385 0.930 . S
C398 C397 1.376 . S
C398 C399 1.388 . S
C399 H386 0.930 . S
C399 C398 1.388 . S
C399 C400 1.390 . S
C400 C399 1.390 . S
C400 C401 1.394 . S
C400 C406 1.465 . S
C401 C396 1.399 . S
C401 C400 1.394 . S
C401 C402 1.516 . S
C402 C401 1.516 . S
C402 C403 1.502 . S
C402 C404 1.561 . S
C402 C405 1.526 . S
C403 H387 0.959 . S
C403 H388 0.959 . S
C403 H389 0.961 . S
C403 C402 1.502 . S
C404 H390 0.960 . S
C404 H391 0.961 . S
C404 H392 0.959 . S
C404 C402 1.561 . S
C405 C402 1.526 . S
C405 C406 1.396 . S
C405 C410 1.390 . S
C406 C400 1.465 . S
C406 C405 1.396 . S
C406 C407 1.399 . S
C407 H393 0.929 . S
C407 C406 1.399 . S
C407 C408 1.385 . S
C408 H394 0.931 . S
C408 C407 1.385 . S
C408 C409 1.389 . S
C409 C408 1.389 . S
C409 C410 1.387 . S
C410 H395 0.930 . S
C410 C405 1.390 . S
C410 C409 1.387 . S
H411 C423 0.930 . S
H412 C425 0.930 . S
H413 C426 0.930 . S
H414 C430 0.959 . S
H415 C430 0.959 . S
H416 C430 0.961 . S
H417 C431 0.960 . S
H418 C431 0.961 . S
H419 C431 0.959 . S
H420 C434 0.929 . S
H421 C435 0.931 . S
H422 C437 0.930 . S
C423 H411 0.930 . S
C423 C424 1.399 . S
C423 C428 1.399 . S
C424 C423 1.399 . S
C424 C425 1.376 . S
C425 H412 0.930 . S
C425 C424 1.376 . S
C425 C426 1.388 1_556 S
C426 H413 0.930 . S
C426 C425 1.388 1_554 S
C426 C427 1.390 1_554 S
C427 C426 1.390 1_556 S
C427 C428 1.394 . S
C427 C433 1.465 1_556 S
C428 C423 1.399 . S
C428 C427 1.394 . S
C428 C429 1.516 . S
C429 C428 1.516 . S
C429 C430 1.502 . S
C429 C431 1.561 . S
C429 C432 1.526 . S
C430 H414 0.959 . S
C430 H415 0.959 . S
C430 H416 0.961 . S
C430 C429 1.502 . S
C431 H417 0.960 . S
C431 H418 0.961 . S
C431 H419 0.959 . S
C431 C429 1.561 . S
C432 C429 1.526 . S
C432 C433 1.396 1_556 S
C432 C437 1.390 . S
C433 C427 1.465 1_554 S
C433 C432 1.396 1_554 S
C433 C434 1.399 . S
C434 H420 0.929 . S
C434 C433 1.399 . S
C434 C435 1.385 . S
C435 H421 0.931 . S
C435 C434 1.385 . S
C435 C436 1.389 . S
C436 C435 1.389 . S
C436 C437 1.387 1_554 S
C437 H422 0.930 . S
C437 C432 1.390 . S
C437 C436 1.387 1_556 S
H438 C450 0.930 . S
H439 C452 0.930 . S
H440 C453 0.930 . S
H441 C457 0.959 . S
H442 C457 0.959 . S
H443 C457 0.961 . S
H444 C458 0.960 . S
H445 C458 0.961 . S
H446 C458 0.959 . S
H447 C461 0.929 . S
H448 C462 0.931 1_455 S
H449 C464 0.930 . S
C450 H438 0.930 . S
C450 C451 1.399 . S
C450 C455 1.399 . S
C451 C450 1.399 . S
C451 C452 1.376 . S
C452 H439 0.930 . S
C452 C451 1.376 . S
C452 C453 1.388 . S
C453 H440 0.930 . S
C453 C452 1.388 . S
C453 C454 1.390 . S
C454 C453 1.390 . S
C454 C455 1.394 . S
C454 C460 1.465 . S
C455 C450 1.399 . S
C455 C454 1.394 . S
C455 C456 1.516 . S
C456 C455 1.516 . S
C456 C457 1.502 . S
C456 C458 1.561 . S
C456 C459 1.526 . S
C457 H441 0.959 . S
C457 H442 0.959 . S
C457 H443 0.961 . S
C457 C456 1.502 . S
C458 H444 0.960 . S
C458 H445 0.961 . S
C458 H446 0.959 . S
C458 C456 1.561 . S
C459 C456 1.526 . S
C459 C460 1.396 . S
C459 C464 1.390 . S
C460 C454 1.465 . S
C460 C459 1.396 . S
C460 C461 1.399 . S
C461 H447 0.929 . S
C461 C460 1.399 . S
C461 C462 1.385 . S
C462 H448 0.931 1_655 S
C462 C461 1.385 . S
C462 C463 1.389 . S
C463 C462 1.389 . S
C463 C464 1.387 . S
C464 H449 0.930 . S
C464 C459 1.390 . S
C464 C463 1.387 . S
H465 C477 0.930 . S
H466 C479 0.930 . S
H467 C480 0.930 . S
H468 C484 0.959 . S
H469 C484 0.959 . S
H470 C484 0.961 . S
H471 C485 0.960 . S
H472 C485 0.961 . S
H473 C485 0.959 . S
H474 C488 0.929 . S
H475 C489 0.931 . S
H476 C491 0.930 . S
C477 H465 0.930 . S
C477 C478 1.399 . S
C477 C482 1.399 . S
C478 C477 1.399 . S
C478 C479 1.376 . S
C479 H466 0.930 . S
C479 C478 1.376 . S
C479 C480 1.388 . S
C480 H467 0.930 . S
C480 C479 1.388 . S
C480 C481 1.390 . S
C481 C480 1.390 . S
C481 C482 1.394 . S
C481 C487 1.465 . S
C482 C477 1.399 . S
C482 C481 1.394 . S
C482 C483 1.516 . S
C483 C482 1.516 . S
C483 C484 1.502 . S
C483 C485 1.561 . S
C483 C486 1.526 . S
C484 H468 0.959 . S
C484 H469 0.959 . S
C484 H470 0.961 . S
C484 C483 1.502 . S
C485 H471 0.960 . S
C485 H472 0.961 . S
C485 H473 0.959 . S
C485 C483 1.561 . S
C486 C483 1.526 . S
C486 C487 1.396 . S
C486 C491 1.390 . S
C487 C481 1.465 . S
C487 C486 1.396 . S
C487 C488 1.399 . S
C488 H474 0.929 . S
C488 C487 1.399 . S
C488 C489 1.385 . S
C489 H475 0.931 . S
C489 C488 1.385 . S
C489 C490 1.389 . S
C490 C489 1.389 . S
C490 C491 1.387 . S
C491 H476 0.930 . S
C491 C486 1.390 . S
C491 C490 1.387 . S
H492 C504 0.930 . S
H493 C506 0.930 . S
H494 C507 0.930 . S
H495 C511 0.959 . S
H496 C511 0.959 . S
H497 C511 0.961 . S
H498 C512 0.960 . S
H499 C512 0.961 . S
H500 C512 0.959 . S
H501 C515 0.929 . S
H502 C516 0.931 . S
H503 C518 0.930 . S
C504 H492 0.930 . S
C504 C505 1.399 . S
C504 C509 1.399 . S
C505 C504 1.399 . S
C505 C506 1.376 . S
C506 H493 0.930 . S
C506 C505 1.376 . S
C506 C507 1.388 . S
C507 H494 0.930 . S
C507 C506 1.388 . S
C507 C508 1.390 . S
C508 C507 1.390 . S
C508 C509 1.394 . S
C508 C514 1.465 . S
C509 C504 1.399 . S
C509 C508 1.394 . S
C509 C510 1.516 . S
C510 C509 1.516 . S
C510 C511 1.502 . S
C510 C512 1.561 . S
C510 C513 1.526 . S
C511 H495 0.959 . S
C511 H496 0.959 . S
C511 H497 0.961 . S
C511 C510 1.502 . S
C512 H498 0.960 . S
C512 H499 0.961 . S
C512 H500 0.959 . S
C512 C510 1.561 . S
C513 C510 1.526 . S
C513 C514 1.396 . S
C513 C518 1.390 . S
C514 C508 1.465 . S
C514 C513 1.396 . S
C514 C515 1.399 . S
C515 H501 0.929 . S
C515 C514 1.399 . S
C515 C516 1.385 . S
C516 H502 0.931 . S
C516 C515 1.385 . S
C516 C517 1.389 . S
C517 C516 1.389 . S
C517 C518 1.387 . S
C518 H503 0.930 . S
C518 C513 1.390 . S
C518 C517 1.387 . S
H519 C531 0.930 . S
H520 C533 0.930 . S
H521 C534 0.930 . S
H522 C538 0.959 . S
H523 C538 0.959 . S
H524 C538 0.961 . S
H525 C539 0.960 . S
H526 C539 0.961 . S
H527 C539 0.959 . S
H528 C542 0.929 . S
H529 C543 0.931 . S
H530 C545 0.930 . S
C531 H519 0.930 . S
C531 C532 1.399 . S
C531 C536 1.399 . S
C532 C531 1.399 . S
C532 C533 1.376 . S
C533 H520 0.930 . S
C533 C532 1.376 . S
C533 C534 1.388 . S
C534 H521 0.930 . S
C534 C533 1.388 . S
C534 C535 1.390 . S
C535 C534 1.390 . S
C535 C536 1.394 . S
C535 C541 1.465 . S
C536 C531 1.399 . S
C536 C535 1.394 . S
C536 C537 1.516 . S
C537 C536 1.516 . S
C537 C538 1.502 . S
C537 C539 1.561 . S
C537 C540 1.526 . S
C538 H522 0.959 . S
C538 H523 0.959 . S
C538 H524 0.961 . S
C538 C537 1.502 . S
C539 H525 0.960 . S
C539 H526 0.961 . S
C539 H527 0.959 . S
C539 C537 1.561 . S
C540 C537 1.526 . S
C540 C541 1.396 . S
C540 C545 1.390 . S
C541 C535 1.465 . S
C541 C540 1.396 . S
C541 C542 1.399 . S
C542 H528 0.929 . S
C542 C541 1.399 . S
C542 C543 1.385 . S
C543 H529 0.931 . S
C543 C542 1.385 . S
C543 C544 1.389 . S
C544 C543 1.389 . S
C544 C545 1.387 . S
C545 H530 0.930 . S
C545 C540 1.390 . S
C545 C544 1.387 . S
H546 C558 0.930 . S
H547 C560 0.930 . S
H548 C561 0.930 . S
H549 C565 0.959 . S
H550 C565 0.959 . S
H551 C565 0.961 . S
H552 C566 0.960 . S
H553 C566 0.961 . S
H554 C566 0.959 . S
H555 C569 0.929 . S
H556 C570 0.931 . S
H557 C572 0.930 . S
C558 H546 0.930 . S
C558 C559 1.399 . S
C558 C563 1.399 . S
C559 C558 1.399 . S
C559 C560 1.376 . S
C560 H547 0.930 . S
C560 C559 1.376 . S
C560 C561 1.388 . S
C561 H548 0.930 . S
C561 C560 1.388 . S
C561 C562 1.390 . S
C562 C561 1.390 . S
C562 C563 1.394 . S
C562 C568 1.465 . S
C563 C558 1.399 . S
C563 C562 1.394 . S
C563 C564 1.516 . S
C564 C563 1.516 . S
C564 C565 1.502 . S
C564 C566 1.561 . S
C564 C567 1.526 . S
C565 H549 0.959 . S
C565 H550 0.959 . S
C565 H551 0.961 . S
C565 C564 1.502 . S
C566 H552 0.960 . S
C566 H553 0.961 . S
C566 H554 0.959 . S
C566 C564 1.561 . S
C567 C564 1.526 . S
C567 C568 1.396 . S
C567 C572 1.390 . S
C568 C562 1.465 . S
C568 C567 1.396 . S
C568 C569 1.399 . S
C569 H555 0.929 . S
C569 C568 1.399 . S
C569 C570 1.385 . S
C570 H556 0.931 . S
C570 C569 1.385 . S
C570 C571 1.389 . S
C571 C570 1.389 . S
C571 C572 1.387 . S
C572 H557 0.930 . S
C572 C567 1.390 . S
C572 C571 1.387 . S
H573 C585 0.930 . S
H574 C587 0.930 . S
H575 C588 0.930 . S
H576 C592 0.959 . S
H577 C592 0.959 . S
H578 C592 0.961 . S
H579 C593 0.960 . S
H580 C593 0.961 . S
H581 C593 0.959 . S
H582 C596 0.929 . S
H583 C597 0.931 . S
H584 C599 0.930 . S
C585 H573 0.930 . S
C585 C586 1.399 . S
C585 C590 1.399 . S
C586 C585 1.399 . S
C586 C587 1.376 . S
C587 H574 0.930 . S
C587 C586 1.376 . S
C587 C588 1.388 . S
C588 H575 0.930 . S
C588 C587 1.388 . S
C588 C589 1.390 . S
C589 C588 1.390 . S
C589 C590 1.394 . S
C589 C595 1.465 . S
C590 C585 1.399 . S
C590 C589 1.394 . S
C590 C591 1.516 . S
C591 C590 1.516 . S
C591 C592 1.502 . S
C591 C593 1.561 . S
C591 C594 1.526 . S
C592 H576 0.959 . S
C592 H577 0.959 . S
C592 H578 0.961 . S
C592 C591 1.502 . S
C593 H579 0.960 . S
C593 H580 0.961 . S
C593 H581 0.959 . S
C593 C591 1.561 . S
C594 C591 1.526 . S
C594 C595 1.396 . S
C594 C599 1.390 . S
C595 C589 1.465 . S
C595 C594 1.396 . S
C595 C596 1.399 . S
C596 H582 0.929 . S
C596 C595 1.399 . S
C596 C597 1.385 . S
C597 H583 0.931 . S
C597 C596 1.385 . S
C597 C598 1.389 . S
C598 C597 1.389 . S
C598 C599 1.387 . S
C599 H584 0.930 . S
C599 C594 1.390 . S
C599 C598 1.387 . S
H600 C612 0.930 . S
H601 C614 0.930 . S
H602 C615 0.930 . S
H603 C619 0.959 . S
H604 C619 0.959 1_554 S
H605 C619 0.961 . S
H606 C620 0.958 . S
H607 C620 0.961 . S
H608 C620 0.959 1_556 S
H609 C623 0.929 . S
H610 C624 0.931 . S
H611 C626 0.930 1_554 S
C612 H600 0.930 . S
C612 C613 1.399 . S
C612 C617 1.399 . S
C613 C612 1.399 . S
C613 C614 1.376 . S
C614 H601 0.930 . S
C614 C613 1.376 . S
C614 C615 1.388 . S
C615 H602 0.930 . S
C615 C614 1.388 . S
C615 C616 1.390 . S
C616 C615 1.390 . S
C616 C617 1.394 . S
C616 C622 1.465 . S
C617 C612 1.399 . S
C617 C616 1.394 . S
C617 C618 1.516 . S
C618 C617 1.516 . S
C618 C619 1.502 . S
C618 C620 1.561 1_556 S
C618 C621 1.526 . S
C619 H603 0.959 . S
C619 H604 0.959 1_556 S
C619 H605 0.961 . S
C619 C618 1.502 . S
C620 H606 0.958 . S
C620 H607 0.961 . S
C620 H608 0.959 1_554 S
C620 C618 1.561 1_554 S
C621 C618 1.526 . S
C621 C622 1.396 . S
C621 C626 1.390 . S
C622 C616 1.465 . S
C622 C621 1.396 . S
C622 C623 1.399 . S
C623 H609 0.929 . S
C623 C622 1.399 . S
C623 C624 1.385 . S
C624 H610 0.931 . S
C624 C623 1.385 . S
C624 C625 1.389 . S
C625 C624 1.389 . S
C625 C626 1.387 . S
C626 H611 0.930 1_556 S
C626 C621 1.390 . S
C626 C625 1.387 . S
H627 C639 0.930 . S
H628 C641 0.930 . S
H629 C642 0.930 . S
H630 C646 0.959 . S
H631 C646 0.959 . S
H632 C646 0.961 . S
H633 C647 0.960 . S
H634 C647 0.961 . S
H635 C647 0.959 . S
H636 C650 0.929 . S
H637 C651 0.931 . S
H638 C653 0.930 . S
C639 H627 0.930 . S
C639 C640 1.399 . S
C639 C644 1.399 . S
C640 C639 1.399 . S
C640 C641 1.376 . S
C641 H628 0.930 . S
C641 C640 1.376 . S
C641 C642 1.388 . S
C642 H629 0.930 . S
C642 C641 1.388 . S
C642 C643 1.390 . S
C643 C642 1.390 . S
C643 C644 1.394 . S
C643 C649 1.465 . S
C644 C639 1.399 . S
C644 C643 1.394 . S
C644 C645 1.516 . S
C645 C644 1.516 . S
C645 C646 1.502 . S
C645 C647 1.561 . S
C645 C648 1.526 . S
C646 H630 0.959 . S
C646 H631 0.959 . S
C646 H632 0.961 . S
C646 C645 1.502 . S
C647 H633 0.960 . S
C647 H634 0.961 . S
C647 H635 0.959 . S
C647 C645 1.561 . S
C648 C645 1.526 . S
C648 C649 1.396 . S
C648 C653 1.390 . S
C649 C643 1.465 . S
C649 C648 1.396 . S
C649 C650 1.399 . S
C650 H636 0.929 . S
C650 C649 1.399 . S
C650 C651 1.385 . S
C651 H637 0.931 . S
C651 C650 1.385 . S
C651 C652 1.389 . S
C652 C651 1.389 . S
C652 C653 1.387 . S
C653 H638 0.930 . S
C653 C648 1.390 . S
C653 C652 1.387 . S
H654 C666 0.930 . S
H655 C668 0.930 . S
H656 C669 0.930 . S
H657 C673 0.959 . S
H658 C673 0.959 . S
H659 C673 0.961 . S
H660 C674 0.960 . S
H661 C674 0.961 . S
H662 C674 0.959 . S
H663 C677 0.929 . S
H664 C678 0.931 . S
H665 C680 0.930 . S
C666 H654 0.930 . S
C666 C667 1.399 . S
C666 C671 1.399 . S
C667 C666 1.399 . S
C667 C668 1.376 . S
C668 H655 0.930 . S
C668 C667 1.376 . S
C668 C669 1.388 . S
C669 H656 0.930 . S
C669 C668 1.388 . S
C669 C670 1.390 . S
C670 C669 1.390 . S
C670 C671 1.394 . S
C670 C676 1.465 . S
C671 C666 1.399 . S
C671 C670 1.394 . S
C671 C672 1.516 . S
C672 C671 1.516 . S
C672 C673 1.502 . S
C672 C674 1.561 . S
C672 C675 1.526 . S
C673 H657 0.959 . S
C673 H658 0.959 . S
C673 H659 0.961 . S
C673 C672 1.502 . S
C674 H660 0.960 . S
C674 H661 0.961 . S
C674 H662 0.959 . S
C674 C672 1.561 . S
C675 C672 1.526 . S
C675 C676 1.396 . S
C675 C680 1.390 . S
C676 C670 1.465 . S
C676 C675 1.396 . S
C676 C677 1.399 . S
C677 H663 0.929 . S
C677 C676 1.399 . S
C677 C678 1.385 . S
C678 H664 0.931 . S
C678 C677 1.385 . S
C678 C679 1.389 . S
C679 C678 1.389 . S
C679 C680 1.387 . S
C680 H665 0.930 . S
C680 C675 1.390 . S
C680 C679 1.387 . S
H681 C693 0.930 . S
H682 C695 0.930 . S
H683 C696 0.930 . S
H684 C700 0.959 . S
H685 C700 0.959 . S
H686 C700 0.961 . S
H687 C701 0.960 . S
H688 C701 0.961 . S
H689 C701 0.959 . S
H690 C704 0.929 . S
H691 C705 0.931 . S
H692 C707 0.930 . S
C693 H681 0.930 . S
C693 C694 1.399 . S
C693 C698 1.399 . S
C694 C693 1.399 . S
C694 C695 1.376 . S
C695 H682 0.930 . S
C695 C694 1.376 . S
C695 C696 1.388 . S
C696 H683 0.930 . S
C696 C695 1.388 . S
C696 C697 1.390 . S
C697 C696 1.390 . S
C697 C698 1.394 . S
C697 C703 1.465 . S
C698 C693 1.399 . S
C698 C697 1.394 . S
C698 C699 1.516 . S
C699 C698 1.516 . S
C699 C700 1.502 . S
C699 C701 1.561 . S
C699 C702 1.526 . S
C700 H684 0.959 . S
C700 H685 0.959 . S
C700 H686 0.961 . S
C700 C699 1.502 . S
C701 H687 0.960 . S
C701 H688 0.961 . S
C701 H689 0.959 . S
C701 C699 1.561 . S
C702 C699 1.526 . S
C702 C703 1.396 . S
C702 C707 1.390 . S
C703 C697 1.465 . S
C703 C702 1.396 . S
C703 C704 1.399 . S
C704 H690 0.929 . S
C704 C703 1.399 . S
C704 C705 1.385 . S
C705 H691 0.931 . S
C705 C704 1.385 . S
C705 C706 1.389 . S
C706 C705 1.389 . S
C706 C707 1.387 . S
C707 H692 0.930 . S
C707 C702 1.390 . S
C707 C706 1.387 . S
H708 C720 0.930 . S
H709 C722 0.930 . S
H710 C723 0.930 . S
H711 C727 0.959 . S
H712 C727 0.959 . S
H713 C727 0.961 . S
H714 C728 0.960 . S
H715 C728 0.961 . S
H716 C728 0.959 . S
H717 C731 0.929 . S
H718 C732 0.931 . S
H719 C734 0.930 . S
C720 H708 0.930 . S
C720 C721 1.399 . S
C720 C725 1.399 . S
C721 C720 1.399 . S
C721 C722 1.376 . S
C722 H709 0.930 . S
C722 C721 1.376 . S
C722 C723 1.388 . S
C723 H710 0.930 . S
C723 C722 1.388 . S
C723 C724 1.390 . S
C724 C723 1.390 . S
C724 C725 1.394 . S
C724 C730 1.465 . S
C725 C720 1.399 . S
C725 C724 1.394 . S
C725 C726 1.516 . S
C726 C725 1.516 . S
C726 C727 1.502 . S
C726 C728 1.561 . S
C726 C729 1.526 . S
C727 H711 0.959 . S
C727 H712 0.959 . S
C727 H713 0.961 . S
C727 C726 1.502 . S
C728 H714 0.960 . S
C728 H715 0.961 . S
C728 H716 0.959 . S
C728 C726 1.561 . S
C729 C726 1.526 . S
C729 C730 1.396 . S
C729 C734 1.390 . S
C730 C724 1.465 . S
C730 C729 1.396 . S
C730 C731 1.399 . S
C731 H717 0.929 . S
C731 C730 1.399 . S
C731 C732 1.385 . S
C732 H718 0.931 . S
C732 C731 1.385 . S
C732 C733 1.389 . S
C733 C732 1.389 . S
C733 C734 1.387 . S
C734 H719 0.930 . S
C734 C729 1.390 . S
C734 C733 1.387 . S
H735 C747 0.930 . S
H736 C749 0.930 . S
H737 C750 0.930 . S
H738 C754 0.959 . S
H739 C754 0.959 . S
H740 C754 0.961 . S
H741 C755 0.960 . S
H742 C755 0.961 . S
H743 C755 0.959 . S
H744 C758 0.929 . S
H745 C759 0.931 . S
H746 C761 0.930 . S
C747 H735 0.930 . S
C747 C748 1.399 . S
C747 C752 1.399 . S
C748 C747 1.399 . S
C748 C749 1.376 . S
C749 H736 0.930 . S
C749 C748 1.376 . S
C749 C750 1.388 . S
C750 H737 0.930 . S
C750 C749 1.388 . S
C750 C751 1.390 . S
C751 C750 1.390 . S
C751 C752 1.394 . S
C751 C757 1.465 . S
C752 C747 1.399 . S
C752 C751 1.394 . S
C752 C753 1.516 . S
C753 C752 1.516 . S
C753 C754 1.502 . S
C753 C755 1.561 . S
C753 C756 1.526 . S
C754 H738 0.959 . S
C754 H739 0.959 . S
C754 H740 0.961 . S
C754 C753 1.502 . S
C755 H741 0.960 . S
C755 H742 0.961 . S
C755 H743 0.959 . S
C755 C753 1.561 . S
C756 C753 1.526 . S
C756 C757 1.396 . S
C756 C761 1.390 . S
C757 C751 1.465 . S
C757 C756 1.396 . S
C757 C758 1.399 . S
C758 H744 0.929 . S
C758 C757 1.399 . S
C758 C759 1.385 . S
C759 H745 0.931 . S
C759 C758 1.385 . S
C759 C760 1.389 . S
C760 C759 1.389 . S
C760 C761 1.387 . S
C761 H746 0.930 . S
C761 C756 1.390 . S
C761 C760 1.387 . S
H762 C774 0.930 . S
H763 C776 0.930 . S
H764 C777 0.930 . S
H765 C781 0.959 . S
H766 C781 0.959 . S
H767 C781 0.961 . S
H768 C782 0.960 . S
H769 C782 0.961 . S
H770 C782 0.959 . S
H771 C785 0.929 . S
H772 C786 0.931 . S
H773 C788 0.930 . S
C774 H762 0.930 . S
C774 C775 1.399 . S
C774 C779 1.399 . S
C775 C774 1.399 . S
C775 C776 1.376 . S
C776 H763 0.930 . S
C776 C775 1.376 . S
C776 C777 1.388 . S
C777 H764 0.930 . S
C777 C776 1.388 . S
C777 C778 1.390 . S
C778 C777 1.390 . S
C778 C779 1.394 . S
C778 C784 1.465 . S
C779 C774 1.399 . S
C779 C778 1.394 . S
C779 C780 1.516 . S
C780 C779 1.516 . S
C780 C781 1.502 . S
C780 C782 1.561 . S
C780 C783 1.526 . S
C781 H765 0.959 . S
C781 H766 0.959 . S
C781 H767 0.961 . S
C781 C780 1.502 . S
C782 H768 0.960 . S
C782 H769 0.961 . S
C782 H770 0.959 . S
C782 C780 1.561 . S
C783 C780 1.526 . S
C783 C784 1.396 . S
C783 C788 1.390 . S
C784 C778 1.465 . S
C784 C783 1.396 . S
C784 C785 1.399 . S
C785 H771 0.929 . S
C785 C784 1.399 . S
C785 C786 1.385 . S
C786 H772 0.931 . S
C786 C785 1.385 . S
C786 C787 1.389 . S
C787 C786 1.389 . S
C787 C788 1.387 . S
C788 H773 0.930 . S
C788 C783 1.390 . S
C788 C787 1.387 . S
H789 C801 0.930 . S
H790 C803 0.930 . S
H791 C804 0.930 . S
H792 C808 0.959 . S
H793 C808 0.959 . S
H794 C808 0.961 . S
H795 C809 0.960 . S
H796 C809 0.961 . S
H797 C809 0.959 . S
H798 C812 0.929 . S
H799 C813 0.931 . S
H800 C815 0.930 . S
C801 H789 0.930 . S
C801 C802 1.399 . S
C801 C806 1.399 . S
C802 C801 1.399 . S
C802 C803 1.376 . S
C803 H790 0.930 . S
C803 C802 1.376 . S
C803 C804 1.388 . S
C804 H791 0.930 . S
C804 C803 1.388 . S
C804 C805 1.390 . S
C805 C804 1.390 . S
C805 C806 1.394 . S
C805 C811 1.465 . S
C806 C801 1.399 . S
C806 C805 1.394 . S
C806 C807 1.516 . S
C807 C806 1.516 . S
C807 C808 1.502 . S
C807 C809 1.561 . S
C807 C810 1.526 . S
C808 H792 0.959 . S
C808 H793 0.959 . S
C808 H794 0.961 . S
C808 C807 1.502 . S
C809 H795 0.960 . S
C809 H796 0.961 . S
C809 H797 0.959 . S
C809 C807 1.561 . S
C810 C807 1.526 . S
C810 C811 1.396 . S
C810 C815 1.390 . S
C811 C805 1.465 . S
C811 C810 1.396 . S
C811 C812 1.399 . S
C812 H798 0.929 . S
C812 C811 1.399 . S
C812 C813 1.385 . S
C813 H799 0.931 . S
C813 C812 1.385 . S
C813 C814 1.389 . S
C814 C813 1.389 . S
C814 C815 1.387 . S
C815 H800 0.930 . S
C815 C810 1.390 . S
C815 C814 1.387 . S
C181 C5 1.266 . S
C193 C90 1.591 . S
C208 C18 1.393 . S
C220 C109 1.414 . S
C247 C146 1.561 . S
C235 C30 1.600 . S
C262 C41 1.423 . S
C274 C156 1.359 . S
C301 C126 2.044 . S
C289 C7 1.907 . S
C328 C96 1.552 . S
C316 C16 1.451 . S
C355 C167 1.546 . S
C343 C29 1.511 . S
C382 C137 1.064 . S
C370 C38 1.051 . S
C397 C8 1.712 . S
C409 C150 1.739 . S
C436 C117 1.910 . S
C424 C27 1.701 . S
C451 C40 1.760 . S
C463 C107 1.803 . S
C478 C19 0.930 . S
C490 C129 0.956 . S
C517 C89 1.489 . S
C505 C51 1.327 . S
C532 C62 1.519 . S
C544 C110 1.523 . S
C559 C74 1.714 . S
C571 C147 1.674 . S
C586 C84 1.473 . S
C598 C157 1.550 . S
C613 C49 1.712 . S
C625 C127 2.154 1_556 S
C652 C97 1.440 . S
C640 C63 1.497 . S
C679 C166 1.487 . S
C667 C71 1.340 . S
C706 C136 1.144 . S
C694 C85 1.102 . S
C721 C52 1.588 . S
C733 C149 1.658 . S
C760 C116 1.973 . S
C748 C73 1.984 . S
C787 C106 1.454 . S
C775 C82 1.281 . S
C802 C60 1.175 . S
C814 C130 1.314 . S
