# Generated by pormake.
# Topology gar, (4,6)-cn, num edge types: 1
# Building blocks:
#     Node 0, Type 0, BuildingBlock: GALJAG_clean_sbu_0, # of connection points: 4
#     Node 1, Type 0, BuildingBlock: GALJAG_clean_sbu_0, # of connection points: 4
#     Node 2, Type 0, BuildingBlock: GALJAG_clean_sbu_0, # of connection points: 4
#     Node 3, Type 0, BuildingBlock: GALJAG_clean_sbu_0, # of connection points: 4
#     Node 4, Type 0, BuildingBlock: GALJAG_clean_sbu_0, # of connection points: 4
#     Node 5, Type 0, BuildingBlock: GALJAG_clean_sbu_0, # of connection points: 4
#     Node 6, Type 0, BuildingBlock: GALJAG_clean_sbu_0, # of connection points: 4
#     Node 7, Type 0, BuildingBlock: GALJAG_clean_sbu_0, # of connection points: 4
#     Node 8, Type 0, BuildingBlock: GALJAG_clean_sbu_0, # of connection points: 4
#     Node 9, Type 0, BuildingBlock: GALJAG_clean_sbu_0, # of connection points: 4
#     Node 10, Type 0, BuildingBlock: GALJAG_clean_sbu_0, # of connection points: 4
#     Node 11, Type 0, BuildingBlock: GALJAG_clean_sbu_0, # of connection points: 4
#     Node 12, Type 0, BuildingBlock: GALJAG_clean_sbu_0, # of connection points: 4
#     Node 13, Type 0, BuildingBlock: GALJAG_clean_sbu_0, # of connection points: 4
#     Node 14, Type 0, BuildingBlock: GALJAG_clean_sbu_0, # of connection points: 4
#     Node 15, Type 0, BuildingBlock: GALJAG_clean_sbu_0, # of connection points: 4
#     Node 16, Type 0, BuildingBlock: GALJAG_clean_sbu_0, # of connection points: 4
#     Node 17, Type 0, BuildingBlock: GALJAG_clean_sbu_0, # of connection points: 4
#     Node 18, Type 0, BuildingBlock: GALJAG_clean_sbu_0, # of connection points: 4
#     Node 19, Type 0, BuildingBlock: GALJAG_clean_sbu_0, # of connection points: 4
#     Node 20, Type 0, BuildingBlock: GALJAG_clean_sbu_0, # of connection points: 4
#     Node 21, Type 0, BuildingBlock: GALJAG_clean_sbu_0, # of connection points: 4
#     Node 22, Type 0, BuildingBlock: GALJAG_clean_sbu_0, # of connection points: 4
#     Node 23, Type 0, BuildingBlock: GALJAG_clean_sbu_0, # of connection points: 4
#     Node 24, Type 1, BuildingBlock: PAMTUU_clean_sbu_0, # of connection points: 6
#     Node 25, Type 1, BuildingBlock: PAMTUU_clean_sbu_0, # of connection points: 6
#     Node 26, Type 1, BuildingBlock: PAMTUU_clean_sbu_0, # of connection points: 6
#     Node 27, Type 1, BuildingBlock: PAMTUU_clean_sbu_0, # of connection points: 6
#     Node 28, Type 1, BuildingBlock: PAMTUU_clean_sbu_0, # of connection points: 6
#     Node 29, Type 1, BuildingBlock: PAMTUU_clean_sbu_0, # of connection points: 6
#     Node 30, Type 1, BuildingBlock: PAMTUU_clean_sbu_0, # of connection points: 6
#     Node 31, Type 1, BuildingBlock: PAMTUU_clean_sbu_0, # of connection points: 6
#     Node 32, Type 1, BuildingBlock: PAMTUU_clean_sbu_0, # of connection points: 6
#     Node 33, Type 1, BuildingBlock: PAMTUU_clean_sbu_0, # of connection points: 6
#     Node 34, Type 1, BuildingBlock: PAMTUU_clean_sbu_0, # of connection points: 6
#     Node 35, Type 1, BuildingBlock: PAMTUU_clean_sbu_0, # of connection points: 6
#     Node 36, Type 1, BuildingBlock: PAMTUU_clean_sbu_0, # of connection points: 6
#     Node 37, Type 1, BuildingBlock: PAMTUU_clean_sbu_0, # of connection points: 6
#     Node 38, Type 1, BuildingBlock: PAMTUU_clean_sbu_0, # of connection points: 6
#     Node 39, Type 1, BuildingBlock: PAMTUU_clean_sbu_0, # of connection points: 6
#     Edge 40, Type (0, 1), BuildingBlock: CIFDUS_clean_linker_0, # of connection points: 2
#     Edge 41, Type (0, 1), BuildingBlock: CIFDUS_clean_linker_0, # of connection points: 2
#     Edge 42, Type (0, 1), BuildingBlock: CIFDUS_clean_linker_0, # of connection points: 2
#     Edge 43, Type (0, 1), BuildingBlock: CIFDUS_clean_linker_0, # of connection points: 2
#     Edge 44, Type (0, 1), BuildingBlock: CIFDUS_clean_linker_0, # of connection points: 2
#     Edge 45, Type (0, 1), BuildingBlock: CIFDUS_clean_linker_0, # of connection points: 2
#     Edge 46, Type (0, 1), BuildingBlock: CIFDUS_clean_linker_0, # of connection points: 2
#     Edge 47, Type (0, 1), BuildingBlock: CIFDUS_clean_linker_0, # of connection points: 2
#     Edge 48, Type (0, 1), BuildingBlock: CIFDUS_clean_linker_0, # of connection points: 2
#     Edge 49, Type (0, 1), BuildingBlock: CIFDUS_clean_linker_0, # of connection points: 2
#     Edge 50, Type (0, 1), BuildingBlock: CIFDUS_clean_linker_0, # of connection points: 2
#     Edge 51, Type (0, 1), BuildingBlock: CIFDUS_clean_linker_0, # of connection points: 2
#     Edge 52, Type (0, 1), BuildingBlock: CIFDUS_clean_linker_0, # of connection points: 2
#     Edge 53, Type (0, 1), BuildingBlock: CIFDUS_clean_linker_0, # of connection points: 2
#     Edge 54, Type (0, 1), BuildingBlock: CIFDUS_clean_linker_0, # of connection points: 2
#     Edge 55, Type (0, 1), BuildingBlock: CIFDUS_clean_linker_0, # of connection points: 2
#     Edge 56, Type (0, 1), BuildingBlock: CIFDUS_clean_linker_0, # of connection points: 2
#     Edge 57, Type (0, 1), BuildingBlock: CIFDUS_clean_linker_0, # of connection points: 2
#     Edge 58, Type (0, 1), BuildingBlock: CIFDUS_clean_linker_0, # of connection points: 2
#     Edge 59, Type (0, 1), BuildingBlock: CIFDUS_clean_linker_0, # of connection points: 2
#     Edge 60, Type (0, 1), BuildingBlock: CIFDUS_clean_linker_0, # of connection points: 2
#     Edge 61, Type (0, 1), BuildingBlock: CIFDUS_clean_linker_0, # of connection points: 2
#     Edge 62, Type (0, 1), BuildingBlock: CIFDUS_clean_linker_0, # of connection points: 2
#     Edge 63, Type (0, 1), BuildingBlock: CIFDUS_clean_linker_0, # of connection points: 2
#     Edge 64, Type (0, 1), BuildingBlock: CIFDUS_clean_linker_0, # of connection points: 2
#     Edge 65, Type (0, 1), BuildingBlock: CIFDUS_clean_linker_0, # of connection points: 2
#     Edge 66, Type (0, 1), BuildingBlock: CIFDUS_clean_linker_0, # of connection points: 2
#     Edge 67, Type (0, 1), BuildingBlock: CIFDUS_clean_linker_0, # of connection points: 2
#     Edge 68, Type (0, 1), BuildingBlock: CIFDUS_clean_linker_0, # of connection points: 2
#     Edge 69, Type (0, 1), BuildingBlock: CIFDUS_clean_linker_0, # of connection points: 2
#     Edge 70, Type (0, 1), BuildingBlock: CIFDUS_clean_linker_0, # of connection points: 2
#     Edge 71, Type (0, 1), BuildingBlock: CIFDUS_clean_linker_0, # of connection points: 2
#     Edge 72, Type (0, 1), BuildingBlock: CIFDUS_clean_linker_0, # of connection points: 2
#     Edge 73, Type (0, 1), BuildingBlock: CIFDUS_clean_linker_0, # of connection points: 2
#     Edge 74, Type (0, 1), BuildingBlock: CIFDUS_clean_linker_0, # of connection points: 2
#     Edge 75, Type (0, 1), BuildingBlock: CIFDUS_clean_linker_0, # of connection points: 2
#     Edge 76, Type (0, 1), BuildingBlock: CIFDUS_clean_linker_0, # of connection points: 2
#     Edge 77, Type (0, 1), BuildingBlock: CIFDUS_clean_linker_0, # of connection points: 2
#     Edge 78, Type (0, 1), BuildingBlock: CIFDUS_clean_linker_0, # of connection points: 2
#     Edge 79, Type (0, 1), BuildingBlock: CIFDUS_clean_linker_0, # of connection points: 2
#     Edge 80, Type (0, 1), BuildingBlock: CIFDUS_clean_linker_0, # of connection points: 2
#     Edge 81, Type (0, 1), BuildingBlock: CIFDUS_clean_linker_0, # of connection points: 2
#     Edge 82, Type (0, 1), BuildingBlock: CIFDUS_clean_linker_0, # of connection points: 2
#     Edge 83, Type (0, 1), BuildingBlock: CIFDUS_clean_linker_0, # of connection points: 2
#     Edge 84, Type (0, 1), BuildingBlock: CIFDUS_clean_linker_0, # of connection points: 2
#     Edge 85, Type (0, 1), BuildingBlock: CIFDUS_clean_linker_0, # of connection points: 2
#     Edge 86, Type (0, 1), BuildingBlock: CIFDUS_clean_linker_0, # of connection points: 2
#     Edge 87, Type (0, 1), BuildingBlock: CIFDUS_clean_linker_0, # of connection points: 2
#     Edge 88, Type (0, 1), BuildingBlock: CIFDUS_clean_linker_0, # of connection points: 2
#     Edge 89, Type (0, 1), BuildingBlock: CIFDUS_clean_linker_0, # of connection points: 2
#     Edge 90, Type (0, 1), BuildingBlock: CIFDUS_clean_linker_0, # of connection points: 2
#     Edge 91, Type (0, 1), BuildingBlock: CIFDUS_clean_linker_0, # of connection points: 2
#     Edge 92, Type (0, 1), BuildingBlock: CIFDUS_clean_linker_0, # of connection points: 2
#     Edge 93, Type (0, 1), BuildingBlock: CIFDUS_clean_linker_0, # of connection points: 2
#     Edge 94, Type (0, 1), BuildingBlock: CIFDUS_clean_linker_0, # of connection points: 2
#     Edge 95, Type (0, 1), BuildingBlock: CIFDUS_clean_linker_0, # of connection points: 2
#     Edge 96, Type (0, 1), BuildingBlock: CIFDUS_clean_linker_0, # of connection points: 2
#     Edge 97, Type (0, 1), BuildingBlock: CIFDUS_clean_linker_0, # of connection points: 2
#     Edge 98, Type (0, 1), BuildingBlock: CIFDUS_clean_linker_0, # of connection points: 2
#     Edge 99, Type (0, 1), BuildingBlock: CIFDUS_clean_linker_0, # of connection points: 2
#     Edge 100, Type (0, 1), BuildingBlock: CIFDUS_clean_linker_0, # of connection points: 2
#     Edge 101, Type (0, 1), BuildingBlock: CIFDUS_clean_linker_0, # of connection points: 2
#     Edge 102, Type (0, 1), BuildingBlock: CIFDUS_clean_linker_0, # of connection points: 2
#     Edge 103, Type (0, 1), BuildingBlock: CIFDUS_clean_linker_0, # of connection points: 2
#     Edge 104, Type (0, 1), BuildingBlock: CIFDUS_clean_linker_0, # of connection points: 2
#     Edge 105, Type (0, 1), BuildingBlock: CIFDUS_clean_linker_0, # of connection points: 2
#     Edge 106, Type (0, 1), BuildingBlock: CIFDUS_clean_linker_0, # of connection points: 2
#     Edge 107, Type (0, 1), BuildingBlock: CIFDUS_clean_linker_0, # of connection points: 2
#     Edge 108, Type (0, 1), BuildingBlock: CIFDUS_clean_linker_0, # of connection points: 2
#     Edge 109, Type (0, 1), BuildingBlock: CIFDUS_clean_linker_0, # of connection points: 2
#     Edge 110, Type (0, 1), BuildingBlock: CIFDUS_clean_linker_0, # of connection points: 2
#     Edge 111, Type (0, 1), BuildingBlock: CIFDUS_clean_linker_0, # of connection points: 2
#     Edge 112, Type (0, 1), BuildingBlock: CIFDUS_clean_linker_0, # of connection points: 2
#     Edge 113, Type (0, 1), BuildingBlock: CIFDUS_clean_linker_0, # of connection points: 2
#     Edge 114, Type (0, 1), BuildingBlock: CIFDUS_clean_linker_0, # of connection points: 2
#     Edge 115, Type (0, 1), BuildingBlock: CIFDUS_clean_linker_0, # of connection points: 2
#     Edge 116, Type (0, 1), BuildingBlock: CIFDUS_clean_linker_0, # of connection points: 2
#     Edge 117, Type (0, 1), BuildingBlock: CIFDUS_clean_linker_0, # of connection points: 2
#     Edge 118, Type (0, 1), BuildingBlock: CIFDUS_clean_linker_0, # of connection points: 2
#     Edge 119, Type (0, 1), BuildingBlock: CIFDUS_clean_linker_0, # of connection points: 2
#     Edge 120, Type (0, 1), BuildingBlock: CIFDUS_clean_linker_0, # of connection points: 2
#     Edge 121, Type (0, 1), BuildingBlock: CIFDUS_clean_linker_0, # of connection points: 2
#     Edge 122, Type (0, 1), BuildingBlock: CIFDUS_clean_linker_0, # of connection points: 2
#     Edge 123, Type (0, 1), BuildingBlock: CIFDUS_clean_linker_0, # of connection points: 2
#     Edge 124, Type (0, 1), BuildingBlock: CIFDUS_clean_linker_0, # of connection points: 2
#     Edge 125, Type (0, 1), BuildingBlock: CIFDUS_clean_linker_0, # of connection points: 2
#     Edge 126, Type (0, 1), BuildingBlock: CIFDUS_clean_linker_0, # of connection points: 2
#     Edge 127, Type (0, 1), BuildingBlock: CIFDUS_clean_linker_0, # of connection points: 2
#     Edge 128, Type (0, 1), BuildingBlock: CIFDUS_clean_linker_0, # of connection points: 2
#     Edge 129, Type (0, 1), BuildingBlock: CIFDUS_clean_linker_0, # of connection points: 2
#     Edge 130, Type (0, 1), BuildingBlock: CIFDUS_clean_linker_0, # of connection points: 2
#     Edge 131, Type (0, 1), BuildingBlock: CIFDUS_clean_linker_0, # of connection points: 2
#     Edge 132, Type (0, 1), BuildingBlock: CIFDUS_clean_linker_0, # of connection points: 2
#     Edge 133, Type (0, 1), BuildingBlock: CIFDUS_clean_linker_0, # of connection points: 2
#     Edge 134, Type (0, 1), BuildingBlock: CIFDUS_clean_linker_0, # of connection points: 2
#     Edge 135, Type (0, 1), BuildingBlock: CIFDUS_clean_linker_0, # of connection points: 2
# Relax obj value: 0.207
# Max RMSD: 0.349
# Mean RMSD: 0.182
data_MOF--net-gar--node1-GALJAG_clean_sbu_0--node2-PAMTUU_clean_sbu_0--edge1-CIFDUS_clean_linker_0
_symmetry_space_group_name_H-M    P1
_symmetry_Int_Tables_number       1
_symmetry_cell_setting            triclinic
loop_
_symmetry_equiv_pos_as_xyz
'x, y, z'
_cell_length_a     52.230867
_cell_length_b     48.668811
_cell_length_c     52.285979
_cell_angle_alpha  93.153427
_cell_angle_beta   94.041057
_cell_angle_gamma 106.46348
loop_
_atom_site_label
_atom_site_type_symbol
_atom_site_fract_x
_atom_site_fract_y
_atom_site_fract_z
_atom_type_partial_charge
In0 In 0.08946 0.31063 0.40825 0.0
O1 O 0.1147 0.29995 0.37294 0.0
O2 O 0.13826 0.32608 0.40327 0.0
C3 C 1.03536 0.3053 0.38366 0.0
C4 C 0.08565 0.25878 0.43579 0.0
C5 C 0.09473 0.36638 0.43424 0.0
O6 O 0.05706 0.31781 0.37433 0.0
O7 O 0.04079 0.29412 0.4039 0.0
O8 O 0.09401 0.34402 0.44599 0.0
O9 O 0.09419 0.36092 0.41023 0.0
C10 C 0.1387 0.3133 0.38153 0.0
O11 O 0.08893 0.28366 0.44681 0.0
O12 O 0.08419 0.26007 0.41158 0.0
In13 In 0.0729 0.81965 0.68285 0.0
O14 O 0.06964 0.84442 0.64446 0.0
O15 O 0.08302 0.87151 0.67766 0.0
C16 C 0.0707 0.76797 0.65061 0.0
C17 C 0.12422 0.82185 0.71188 0.0
C18 C 1.02203 0.81418 0.70825 0.0
O19 O 0.06763 0.79102 0.64247 0.0
O20 O 0.07368 0.77017 0.67496 0.0
O21 O 0.04444 0.83252 0.71531 0.0
O22 O 1.0253 0.79837 0.68933 0.0
C23 C 0.07699 0.87042 0.65359 0.0
O24 O 0.10103 0.81204 0.71949 0.0
O25 O 0.12205 0.83233 0.69044 0.0
In26 In 0.58257 0.80655 0.90783 0.0
O27 O 0.61049 0.79783 0.87322 0.0
O28 O 0.63084 0.8242 0.90486 0.0
C29 C 0.52845 0.80095 0.88265 0.0
C30 C 0.58017 0.75425 0.93393 0.0
C31 C 0.58684 0.86122 0.93566 0.0
O32 O 0.55028 0.81413 0.87382 0.0
O33 O 0.5338 0.78939 0.9027 0.0
O34 O 0.58472 0.83803 0.94653 0.0
O35 O 0.58776 0.85696 0.91168 0.0
C36 C 0.63358 0.81229 0.88343 0.0
O37 O 0.58504 0.77914 0.94546 0.0
O38 O 0.57618 0.75568 0.90988 0.0
In39 In 0.57872 0.31928 0.18452 0.0
O40 O 0.5794 0.28821 0.14644 0.0
O41 O 0.57168 0.26817 0.18029 0.0
C42 C 0.58116 0.36902 0.15441 0.0
C43 C 0.52805 0.31461 0.20974 0.0
C44 C 0.63248 0.32537 0.21045 0.0
O45 O 0.57594 0.34307 0.14537 0.0
O46 O 0.5853 0.37042 0.17874 0.0
O47 O 0.6273 0.33566 0.18964 0.0
O48 O 0.61061 0.31329 0.21971 0.0
C49 C 0.57524 0.26454 0.15677 0.0
O50 O 0.55141 0.32867 0.2196 0.0
O51 O 0.53029 0.30282 0.18805 0.0
In52 In 0.13081 0.84007 0.14942 0.0
O53 O 0.13521 0.79512 0.15064 0.0
O54 O 0.12002 0.80585 0.11504 0.0
C55 C 0.12363 0.88263 0.12065 0.0
C56 C 0.09205 0.83043 0.18178 0.0
C57 C 0.17881 0.85552 0.17705 0.0
O58 O 0.1047 0.86369 0.12852 0.0
O59 O 0.14648 0.87951 0.1262 0.0
O60 O 0.15769 0.85778 0.18615 0.0
O61 O 0.17595 0.8466 0.15355 0.0
C62 C 0.12603 0.78683 0.12774 0.0
O63 O 0.11298 0.85141 0.18564 0.0
O64 O 0.09069 0.8145 0.16161 0.0
In65 In 0.52506 0.78889 0.46117 0.0
O66 O 0.53958 0.7718 0.42533 0.0
O67 O 0.56908 0.79711 0.45392 0.0
C68 C 0.48003 0.78572 0.43094 0.0
C69 C 0.52478 0.74526 0.4915 0.0
C70 C 0.53705 0.84414 0.48101 0.0
O71 O 0.50282 0.78975 0.4228 0.0
O72 O 0.4796 0.78329 0.45487 0.0
O73 O 0.51875 0.82436 0.48906 0.0
O74 O 0.54906 0.8359 0.4634 0.0
C75 C 0.56415 0.78312 0.43219 0.0
O76 O 0.5371 0.77112 0.49844 0.0
O77 O 0.51136 0.74164 0.46999 0.0
In78 In 0.62398 0.33112 0.64492 0.0
O79 O 0.63141 0.28796 0.63694 0.0
O80 O 0.60686 0.3005 0.60858 0.0
C81 C 0.61855 0.38136 0.62913 0.0
C82 C 0.58247 0.31125 0.67299 0.0
C83 C 0.67249 0.34571 0.67142 0.0
O84 O 0.6306 0.36688 0.61631 0.0
O85 O 0.61038 0.37085 0.6495 0.0
O86 O 0.65109 0.34435 0.6817 0.0
O87 O 0.66972 0.34115 0.64719 0.0
C88 C 0.617 0.28129 0.61596 0.0
O89 O 0.60645 0.31525 0.68182 0.0
O90 O 0.57945 0.31664 0.64983 0.0
In91 In 1.02752 0.29959 0.96491 0.0
O92 O 0.04167 0.27202 0.9941 0.0
O93 O 1.01096 0.25066 0.96524 0.0
C94 C 1.03667 0.34938 0.99529 0.0
C95 C 0.06581 0.30176 0.93224 0.0
C96 C 0.98161 0.30083 0.93847 0.0
O97 O 1.02099 0.32596 1.00082 0.0
O98 O 0.04809 0.34736 0.97515 0.0
O99 O 1.00435 0.30922 0.93009 0.0
O100 O 0.98177 0.29177 0.96066 0.0
C101 C 1.02631 0.24836 0.98415 0.0
O102 O 0.04107 0.29292 0.92529 0.0
O103 O 0.07147 0.30931 0.95597 0.0
In104 In 0.49229 0.08014 0.32746 0.0
O105 O 0.53249 0.08144 0.31395 0.0
O106 O 0.51718 0.11638 0.30563 0.0
C107 C 0.51086 0.09636 0.3767 0.0
C108 C 0.44726 0.09433 0.31631 0.0
C109 C 0.4718 0.02376 0.31242 0.0
O110 O 0.49314 0.10571 0.3657 0.0
O111 O 0.51922 0.07934 0.36286 0.0
O112 O 0.47826 0.0426 0.29661 0.0
O113 O 0.47657 0.03329 0.33569 0.0
C114 C 0.53591 0.10491 0.30373 0.0
O115 O 0.4507 0.08106 0.33572 0.0
O116 O 0.46698 0.10126 0.30287 0.0
In117 In 0.31972 0.2472 0.54754 0.0
O118 O 0.3093 0.27399 0.58194 0.0
O119 O 0.34598 0.26415 0.5859 0.0
C120 C 0.3248 0.26817 0.49922 0.0
C121 C 0.35505 0.21646 0.54898 0.0
C122 C 0.269 0.2134 0.54994 0.0
O123 O 0.32984 0.28448 0.51981 0.0
O124 O 0.31648 0.24197 0.50303 0.0
O125 O 0.289 0.20373 0.55007 0.0
O126 O 0.27441 0.24014 0.54779 0.0
C127 C 0.32975 0.27475 0.59667 0.0
O128 O 0.33033 0.2055 0.55098 0.0
O129 O 0.36207 0.24317 0.54629 0.0
In130 In 0.20061 0.06775 0.85728 0.0
O131 O 0.15761 0.06009 0.83893 0.0
O132 O 0.19062 0.08144 0.81858 0.0
C133 C 0.18781 0.05377 0.9046 0.0
C134 C 0.22645 0.03251 0.83689 0.0
C135 C 0.22393 0.12432 0.86117 0.0
O136 O 0.17314 0.04181 0.88455 0.0
O137 O 0.20937 0.07192 0.90064 0.0
O138 O 0.23654 0.10615 0.85679 0.0
O139 O 0.19964 0.11383 0.86509 0.0
C140 C 0.16556 0.07269 0.81918 0.0
O141 O 0.23806 0.05375 0.85252 0.0
O142 O 0.2015 0.028 0.8328 0.0
In143 In 0.32512 0.967 1.00234 0.0
O144 O 0.30663 0.92715 0.02377 0.0
O145 O 0.34585 0.95365 0.03686 0.0
C146 C 0.30476 0.94572 0.95404 0.0
C147 C 0.3007 1.00464 0.02114 0.0
C148 C 0.3781 0.98483 0.99923 0.0
O149 O 0.30103 0.93094 0.97321 0.0
O150 O 0.31757 0.97171 0.95943 0.0
O151 O 0.36526 1.00109 1.00811 0.0
O152 O 0.36404 0.95975 0.99134 0.0
C153 C 0.32717 0.93133 0.03949 0.0
O154 O 0.31804 1.01115 1.00525 0.0
O155 O 0.29509 0.97897 0.0269 0.0
In156 In 0.34515 0.38164 0.05616 0.0
O157 O 0.32633 0.34492 0.08264 0.0
O158 O 0.3554 0.3821 0.09954 0.0
C159 C 0.33878 0.35677 1.00661 0.0
C160 C 0.31311 0.41587 0.0602 0.0
C161 C 0.39547 0.4154 0.05372 0.0
O162 O 0.32506 0.37246 0.0146 0.0
O163 O 0.3541 0.35128 0.02415 0.0
O164 O 0.37522 0.42463 0.05235 0.0
O165 O 0.39049 0.38882 0.05663 0.0
C166 C 0.33904 0.35848 0.10319 0.0
O167 O 0.33834 0.42493 0.06248 0.0
O168 O 0.3035 0.38895 0.05543 0.0
In169 In 0.8434 0.2005 0.08134 0.0
O170 O 0.86516 0.18784 0.0488 0.0
O171 O 0.85894 0.16117 0.07992 0.0
C172 C 0.79175 0.17117 0.06858 0.0
C173 C 0.86023 0.21121 0.13174 0.0
C174 C 0.84804 0.25231 0.06338 0.0
O175 O 0.80899 0.17524 0.05243 0.0
O176 O 0.80045 0.18249 0.09095 0.0
O177 O 0.86701 0.24104 0.06438 0.0
O178 O 0.82706 0.23793 0.07248 0.0
C179 C 0.86759 0.16535 0.05812 0.0
O180 O 0.87352 0.22446 0.11466 0.0
O181 O 0.83925 0.19189 0.12323 0.0
In182 In 0.19648 0.54519 0.30093 0.0
O183 O 0.22948 0.5249 0.29312 0.0
O184 O 0.22401 0.53483 0.33214 0.0
C185 C 0.21926 0.60208 0.29822 0.0
C186 C 0.16841 0.52984 0.25516 0.0
C187 C 0.15897 0.52196 0.33204 0.0
O188 O 0.22776 0.58296 0.28765 0.0
O189 O 0.19902 0.59263 0.31047 0.0
O190 O 0.15863 0.51131 0.30946 0.0
O191 O 0.17823 0.54408 0.33898 0.0
C192 C 0.23737 0.52535 0.31655 0.0
O193 O 0.18646 0.51856 0.26241 0.0
O194 O 0.16483 0.54871 0.27094 0.0
In195 In 0.8395 0.88292 0.55342 0.0
O196 O 0.81962 0.8536 0.58542 0.0
O197 O 0.86045 0.87604 0.59211 0.0
C198 C 0.82773 0.85112 0.5063 0.0
C199 C 0.80578 0.91598 0.55064 0.0
C200 C 0.88623 0.92518 0.55285 0.0
O201 O 0.84941 0.85426 0.52005 0.0
O202 O 0.8114 0.86117 0.51745 0.0
O203 O 0.86702 0.92791 0.56515 0.0
O204 O 0.8823 0.90065 0.5412 0.0
C205 C 0.84016 0.86048 0.6013 0.0
O206 O 0.82739 0.92139 0.54006 0.0
O207 O 0.80099 0.89375 0.56296 0.0
In208 In 0.96554 0.07131 0.26945 0.0
O209 O 0.96377 0.06239 0.22647 0.0
O210 O 0.98581 0.1043 0.2425 0.0
C211 C 1.01477 0.0758 0.29091 0.0
C212 C 0.92933 0.0967 0.28502 0.0
C213 C 0.93998 1.01825 0.28115 0.0
O214 O 1.00197 0.05521 0.27501 0.0
O215 O 1.00281 0.09453 0.29567 0.0
O216 O 0.93912 0.02589 0.25849 0.0
O217 O 0.95405 0.03724 0.29781 0.0
C218 C 0.97829 0.08708 0.22268 0.0
O219 O 0.92561 0.08059 0.26462 0.0
O220 O 0.95212 0.10143 0.29711 0.0
In221 In 0.347 0.70129 0.57064 0.0
O222 O 0.35893 0.67031 0.54279 0.0
O223 O 0.38517 0.68778 0.57617 0.0
C224 C 0.29776 0.66381 0.56316 0.0
C225 C 0.35807 0.72288 0.61979 0.0
C226 C 0.3438 0.74691 0.5454 0.0
O227 O 0.30674 0.68253 0.54776 0.0
O228 O 0.31387 0.66357 0.58228 0.0
O229 O 0.36282 0.73591 0.54314 0.0
O230 O 0.3271 0.73527 0.56067 0.0
C231 C 0.3801 0.6709 0.55615 0.0
O232 O 0.3707 0.73513 0.6019 0.0
O233 O 0.34021 0.69964 0.61286 0.0
In234 In 0.47991 0.58682 0.77256 0.0
O235 O 0.44794 0.60986 0.76715 0.0
O236 O 0.47229 0.61818 0.80263 0.0
C237 C 0.44713 0.53566 0.78259 0.0
C238 C 0.48901 0.59471 0.72304 0.0
C239 C 0.52735 0.59156 0.7987 0.0
O240 O 0.4501 0.55833 0.7967 0.0
O241 O 0.46156 0.53852 0.764 0.0
O242 O 0.51801 0.61261 0.7964 0.0
O243 O 0.51303 0.56816 0.78723 0.0
C244 C 0.45272 0.62226 0.78953 0.0
O245 O 0.50551 0.60794 0.74152 0.0
O246 O 0.46752 0.57844 0.72959 0.0
In247 In 0.72127 0.03966 0.76017 0.0
O248 O 0.76591 0.04836 0.7559 0.0
O249 O 0.74063 1.0058 0.74659 0.0
C250 C 0.73554 0.09694 0.77015 0.0
C251 C 0.68342 0.02855 0.72034 0.0
C252 C 0.70175 1.01596 0.80278 0.0
O253 O 0.7413 0.08526 0.75003 0.0
O254 O 0.72246 0.07977 0.78497 0.0
O255 O 0.68761 1.01382 0.78185 0.0
O256 O 0.72636 0.02818 0.80166 0.0
C257 C 0.76398 1.02292 0.74782 0.0
O258 O 0.70042 1.01475 0.72265 0.0
O259 O 0.68585 0.04821 0.7378 0.0
In260 In 0.82579 0.74464 0.04653 0.0
O261 O 0.83395 0.70461 0.06091 0.0
O262 O 0.8671 0.73609 0.0487 0.0
C263 C 0.77609 0.70688 0.04124 0.0
C264 C 0.83279 0.77322 0.09492 0.0
C265 C 0.83159 0.76838 0.99901 0.0
O266 O 0.79616 0.70142 0.03255 0.0
O267 O 0.78064 0.73202 0.05168 0.0
O268 O 0.82821 0.7823 0.01908 0.0
O269 O 0.83244 0.74347 1.00313 0.0
C270 C 0.85855 0.71184 0.05761 0.0
O271 O 0.81024 0.7629 0.08233 0.0
O272 O 0.85217 0.77191 0.08215 0.0
In273 In 0.99531 0.57177 0.8619 0.0
O274 O 0.95934 0.58734 0.86881 0.0
O275 O 0.99098 0.61421 0.85 0.0
C276 C 0.95834 0.52022 0.86002 0.0
C277 C 1.02322 0.57077 0.8212 0.0
C278 C 1.03223 0.58844 0.90188 0.0
O279 O 0.96934 0.53342 0.88121 0.0
O280 O 0.96668 0.53258 0.84046 0.0
O281 O 1.02917 0.56564 0.88788 0.0
O282 O 1.01582 0.60236 0.89641 0.0
C283 C 0.96785 0.61006 0.85758 0.0
O284 O 1.03084 0.5645 0.84292 0.0
O285 O 1.00176 0.57782 0.82017 0.0
In286 In 0.83011 0.4711 0.50883 0.0
O287 O 0.83356 0.42969 0.52451 0.0
O288 O 0.80596 0.44908 0.54048 0.0
C289 C 0.81357 0.44538 0.46153 0.0
C290 C 0.80941 0.51553 0.5114 0.0
C291 C 0.88258 0.49351 0.52441 0.0
O292 O 0.79997 0.43869 0.4805 0.0
O293 O 0.83487 0.46582 0.46632 0.0
O294 O 0.86481 0.50307 0.53334 0.0
O295 O 0.87402 0.47346 0.50692 0.0
C296 C 0.81691 0.42906 0.54091 0.0
O297 O 0.81742 0.50746 0.49087 0.0
O298 O 0.81098 0.5006 0.53008 0.0
In299 In 0.69088 0.54507 0.34458 0.0
O300 O 0.7236 0.52246 0.34399 0.0
O301 O 0.69509 0.51493 0.31149 0.0
C302 C 0.72418 0.59849 0.34452 0.0
C303 C 0.64849 0.55087 0.31543 0.0
C304 C 0.6762 0.52988 0.3914 0.0
O305 O 0.725 0.57821 0.3288 0.0
O306 O 0.70669 0.59172 0.36031 0.0
O307 O 0.66054 0.52174 0.37124 0.0
O308 O 0.69966 0.544 0.38766 0.0
C309 C 0.71606 0.51062 0.32159 0.0
O310 O 0.65198 0.52661 0.31865 0.0
O311 O 0.66586 0.57182 0.32755 0.0
Tb312 Tb 0.09481 0.08115 0.07197 0.0
Tb313 Tb 0.04043 0.04258 0.03662 0.0
C314 C 1.03717 0.06982 0.09112 0.0
C315 C 0.16543 0.10761 0.09402 0.0
C316 C 0.21135 0.08994 0.08676 0.0
C317 C 0.20321 0.09275 0.1116 0.0
C318 C 0.18037 0.10153 0.1152 0.0
C319 C 0.17484 0.10707 0.06954 0.0
C320 C 0.19756 0.09833 0.06595 0.0
C321 C 0.13814 0.10953 0.09669 0.0
O322 O 0.09636 0.03703 0.07152 0.0
O323 O 0.05133 1.0143 0.06366 0.0
O324 O 0.0737 0.03265 0.02042 0.0
O325 O 0.10584 0.07495 0.03312 0.0
O326 O 1.00254 1.01221 0.03347 0.0
O327 O 1.02076 0.0293 0.99969 0.0
O328 O 0.04898 0.08665 0.02473 0.0
O329 O 0.07293 0.11099 0.06162 0.0
O330 O 0.06268 0.07256 0.0972 0.0
O331 O 1.02584 0.06333 0.06756 0.0
C332 C 0.07576 1.01413 0.07161 0.0
O333 O 0.1269 0.1189 0.07726 0.0
O334 O 0.12182 0.08682 0.1049 0.0
C335 C 0.09684 0.05113 0.01803 0.0
C336 C 0.97477 0.0241 1.00191 0.0
C337 C 0.93165 0.04744 1.00511 0.0
C338 C 0.95637 0.06421 0.99796 0.0
C339 C 0.9777 0.05265 0.99637 0.0
C340 C 0.94941 1.00641 1.00628 0.0
C341 C 0.9279 1.01799 1.00778 0.0
C342 C 0.99869 1.01513 1.00897 0.0
C343 C 0.0592 0.11061 0.0396 0.0
H344 H 0.21366 0.08671 0.12801 0.0
H345 H 0.17342 0.10181 0.13423 0.0
H346 H 0.16371 0.1115 0.05278 0.0
H347 H 0.20302 0.09605 0.04651 0.0
H348 H 0.96022 0.08703 0.99603 0.0
H349 H 0.99708 0.06684 0.99307 0.0
H350 H 0.9468 0.98432 1.01064 0.0
H351 H 0.90893 1.00442 1.01284 0.0
Tb352 Tb 0.32357 0.81966 0.30986 0.0
Tb353 Tb 0.35633 0.80854 0.26083 0.0
C354 C 0.30548 0.83031 0.25373 0.0
C355 C 0.31339 0.83637 0.37575 0.0
C356 C 0.33319 0.83704 0.42733 0.0
C357 C 0.3085 0.84274 0.42121 0.0
C358 C 0.29848 0.84194 0.39555 0.0
C359 C 0.3391 0.83375 0.38169 0.0
C360 C 0.34879 0.83369 0.40714 0.0
C361 C 0.30189 0.83102 0.34897 0.0
O362 O 0.30032 0.77967 0.28895 0.0
O363 O 0.33547 0.76688 0.27319 0.0
O364 O 0.38113 0.80232 0.29374 0.0
O365 O 0.35182 0.79793 0.32548 0.0
O366 O 0.35682 0.78572 0.22572 0.0
O367 O 0.39068 0.82117 0.24071 0.0
O368 O 0.36646 0.85451 0.27149 0.0
O369 O 0.36291 0.84998 0.31409 0.0
O370 O 0.30831 0.83948 0.27813 0.0
O371 O 0.31862 0.81314 0.24487 0.0
C372 C 0.31093 0.75997 0.28022 0.0
O373 O 0.3132 0.85025 0.33368 0.0
O374 O 0.29866 0.80494 0.33898 0.0
C375 C 0.37461 0.79629 0.3171 0.0
C376 C 0.37664 0.81848 0.19695 0.0
C377 C 0.3694 0.84507 0.15174 0.0
C378 C 0.38607 0.82687 0.15281 0.0
C379 C 0.38949 0.81342 0.1753 0.0
C380 C 0.36053 0.83714 0.196 0.0
C381 C 0.35673 0.8501 0.17355 0.0
C382 C 0.37899 0.8041 0.22054 0.0
C383 C 0.37338 0.86485 0.29546 0.0
H384 H 0.29629 0.84651 0.43614 0.0
H385 H 0.27878 0.8446 0.39122 0.0
H386 H 0.35115 0.83018 0.36655 0.0
H387 H 0.36774 0.82905 0.41064 0.0
H388 H 0.39612 0.82281 0.1362 0.0
H389 H 0.40202 0.79909 0.17578 0.0
H390 H 0.35081 0.84166 0.21268 0.0
H391 H 0.3442 0.86444 0.17337 0.0
Tb392 Tb 0.54154 0.05647 0.56821 0.0
Tb393 Tb 0.60314 0.06051 0.55521 0.0
C394 C 0.58212 0.03843 0.60539 0.0
C395 C 0.47631 0.07203 0.57415 0.0
C396 C 0.44012 0.10482 0.56635 0.0
C397 C 0.46645 0.11792 0.57737 0.0
C398 C 0.48441 0.10173 0.58111 0.0
C399 C 0.4502 0.05895 0.56293 0.0
C400 C 0.4323 0.07518 0.55895 0.0
C401 C 0.49462 0.0543 0.57857 0.0
O402 O 0.56204 0.10209 0.56901 0.0
O403 O 0.6042 0.09854 0.57974 0.0
O404 O 0.58959 0.08531 0.52722 0.0
O405 O 0.54403 0.06549 0.528 0.0
O406 O 0.64326 0.07018 0.57017 0.0
O407 O 0.63163 0.05694 0.52986 0.0
O408 O 0.57752 1.02122 0.53459 0.0
O409 O 0.5422 1.01237 0.55974 0.0
O410 O 0.56508 0.05365 0.60355 0.0
O411 O 0.59304 0.03174 0.58516 0.0
C412 C 0.5871 0.11376 0.57804 0.0
O413 O 0.49997 0.04102 0.5582 0.0
O414 O 0.51593 0.06552 0.59443 0.0
C415 C 0.56495 0.08016 0.51691 0.0
C416 C 0.66679 0.0422 0.54986 0.0
C417 C 0.69805 1.00386 0.554 0.0
C418 C 0.66989 0.99349 0.5516 0.0
C419 C 0.65435 1.01255 0.5496 0.0
C420 C 0.69476 0.05265 0.55249 0.0
C421 C 0.71028 0.03367 0.55459 0.0
C422 C 0.65091 0.06258 0.54836 0.0
C423 C 0.55599 1.00363 0.54256 0.0
H424 H 0.47306 0.1406 0.58361 0.0
H425 H 0.50452 0.11244 0.58968 0.0
H426 H 0.44361 0.03611 0.55727 0.0
H427 H 0.41236 0.06448 0.55 0.0
H428 H 0.65987 0.97066 0.55089 0.0
H429 H 0.63269 1.00419 0.54783 0.0
H430 H 0.70461 0.07552 0.55307 0.0
H431 H 0.7319 0.0424 0.55694 0.0
Tb432 Tb 0.35523 0.31896 0.80283 0.0
Tb433 Tb 0.29722 0.33343 0.79715 0.0
C434 C 0.30247 0.27361 0.81328 0.0
C435 C 0.41899 0.30683 0.78693 0.0
C436 C 0.45641 0.30438 0.75135 0.0
C437 C 0.46504 0.31507 0.77704 0.0
C438 C 0.44645 0.31618 0.79469 0.0
C439 C 0.41024 0.29638 0.76128 0.0
C440 C 0.42878 0.29502 0.74369 0.0
C441 C 0.39967 0.30831 0.80561 0.0
O442 O 0.33785 0.30293 0.76322 0.0
O443 O 0.30697 0.32836 0.75756 0.0
O444 O 0.32929 0.37384 0.79841 0.0
O445 O 0.36093 0.35617 0.78126 0.0
O446 O 0.2566 0.32286 0.78305 0.0
O447 O 0.27548 0.36228 0.80636 0.0
O448 O 0.30552 0.33044 0.83795 0.0
O449 O 0.3513 0.33941 0.84061 0.0
O450 O 0.32801 0.28493 0.8198 0.0
O451 O 0.28765 0.2873 0.80098 0.0
C452 C 0.3214 0.31257 0.74815 0.0
O453 O 0.39705 0.33378 0.81132 0.0
O454 O 0.37659 0.28859 0.80186 0.0
C455 C 0.35123 0.37748 0.78661 0.0
C456 C 0.23142 0.33799 0.81358 0.0
C457 C 0.19187 0.32797 0.84874 0.0
C458 C 0.18871 0.34189 0.82633 0.0
C459 C 0.20841 0.34694 0.80893 0.0
C460 C 0.23438 0.32355 0.83561 0.0
C461 C 0.21484 0.31868 0.85309 0.0
C462 C 0.25288 0.34474 0.79618 0.0
C463 C 0.32886 0.33763 0.85152 0.0
H464 H 0.48619 0.32301 0.78344 0.0
H465 H 0.45352 0.32452 0.81436 0.0
H466 H 0.38908 0.28917 0.75486 0.0
H467 H 0.42144 0.28643 0.72414 0.0
H468 H 0.17133 0.34949 0.82257 0.0
H469 H 0.20586 0.3582 0.79206 0.0
H470 H 0.25197 0.31634 0.83946 0.0
H471 H 0.21768 0.30759 0.86999 0.0
Tb472 Tb 0.07076 0.08393 0.5754 0.0
Tb473 Tb 0.08886 0.05359 0.52691 0.0
C474 C 1.02725 0.03872 0.5369 0.0
C475 C 0.07395 0.11124 0.64243 0.0
C476 C 0.0992 0.11395 0.69209 0.0
C477 C 0.07174 0.11175 0.68864 0.0
C478 C 0.0592 0.11049 0.66389 0.0
C479 C 0.10139 0.11367 0.64589 0.0
C480 C 0.11392 0.11516 0.6705 0.0
C481 C 0.06043 0.10696 0.61642 0.0
O482 O 0.08312 0.0468 0.59101 0.0
O483 O 0.08343 1.01881 0.55432 0.0
O484 O 0.12358 0.06844 0.55476 0.0
O485 O 0.1123 0.10667 0.57133 0.0
O486 O 0.08298 1.02338 0.49512 0.0
O487 O 0.12074 0.05569 0.50402 0.0
O488 O 0.08762 0.09719 0.51437 0.0
O489 O 0.0631 0.11107 0.54446 0.0
O490 O 1.03293 0.05636 0.55771 0.0
O491 O 0.04542 0.03656 0.52139 0.0
C492 C 0.08321 1.0215 0.57975 0.0
O493 O 0.0741 0.12124 0.59912 0.0
O494 O 0.04919 0.08029 0.60813 0.0
C495 C 0.13069 0.09478 0.56516 0.0
C496 C 0.10387 0.04719 0.46115 0.0
C497 C 0.10148 0.07127 0.41375 0.0
C498 C 0.11878 0.05422 0.41842 0.0
C499 C 0.12017 0.04246 0.44219 0.0
C500 C 0.08655 0.06402 0.45635 0.0
C501 C 0.08547 0.07606 0.433 0.0
C502 C 0.10576 0.03664 0.4867 0.0
C503 C 0.07513 0.11579 0.52291 0.0
H504 H 0.06 0.11075 0.70502 0.0
H505 H 0.03792 0.10828 0.66146 0.0
H506 H 0.11302 0.11368 0.62953 0.0
H507 H 0.13498 0.11625 0.67257 0.0
H508 H 0.13108 0.04998 0.40372 0.0
H509 H 0.13384 0.02972 0.44575 0.0
H510 H 0.07364 0.06773 0.47065 0.0
H511 H 0.07137 0.08836 0.42971 0.0
Tb512 Tb 0.34241 0.84469 0.78331 0.0
Tb513 Tb 0.31331 0.7879 0.80973 0.0
C514 C 0.3386 0.78447 0.75747 0.0
C515 C 0.35011 0.91475 0.76132 0.0
C516 C 0.32506 0.95751 0.77239 0.0
C517 C 0.35312 0.96475 0.77191 0.0
C518 C 0.36559 0.9434 0.76664 0.0
C519 C 0.32208 0.90806 0.75916 0.0
C520 C 0.30969 0.92912 0.76477 0.0
C521 C 0.36239 0.89141 0.76425 0.0
O522 O 0.30039 0.83165 0.76425 0.0
O523 O 0.27832 0.80257 0.79346 0.0
O524 O 0.32189 0.82313 0.83858 0.0
O525 O 0.31969 0.85803 0.81247 0.0
O526 O 0.2894 0.74494 0.80679 0.0
O527 O 0.30234 0.76817 0.8437 0.0
O528 O 0.35737 0.79033 0.8177 0.0
O529 O 0.37589 0.83694 0.80845 0.0
O530 O 0.35338 0.81112 0.76203 0.0
O531 O 0.31889 0.77331 0.7713 0.0
C532 C 0.27735 0.81788 0.7732 0.0
O533 O 0.36758 0.88698 0.7882 0.0
O534 O 0.35056 0.86741 0.75037 0.0
C535 C 0.31695 0.84737 0.8348 0.0
C536 C 0.30499 0.72079 0.83866 0.0
C537 C 0.33516 0.68168 0.83433 0.0
C538 C 0.30719 0.67241 0.8284 0.0
C539 C 0.2922 0.69196 0.83038 0.0
C540 C 0.33217 0.72902 0.84789 0.0
C541 C 0.34716 0.7097 0.84564 0.0
C542 C 0.29241 0.74295 0.83145 0.0
C543 C 0.37897 0.81312 0.81797 0.0
H544 H 0.36554 0.98653 0.77711 0.0
H545 H 0.38727 0.9489 0.76856 0.0
H546 H 0.30968 0.88606 0.75536 0.0
H547 H 0.28813 0.92236 0.76523 0.0
H548 H 0.29723 0.65072 0.82031 0.0
H549 H 0.27121 0.6852 0.82324 0.0
H550 H 0.34258 0.75114 0.85445 0.0
H551 H 0.36861 0.71779 0.85037 0.0
Tb552 Tb 0.58195 0.05036 0.0726 0.0
Tb553 Tb 0.58948 0.07876 0.01924 0.0
C554 C 0.63753 0.08283 0.05744 0.0
C555 C 0.58995 0.04365 0.14115 0.0
C556 C 0.60523 0.07163 0.19052 0.0
C557 C 0.61009 0.0873 0.16873 0.0
C558 C 0.60254 0.07337 0.14418 0.0
C559 C 0.58646 0.02767 0.16268 0.0
C560 C 0.59411 0.04156 0.18724 0.0
C561 C 0.57972 0.02968 0.11556 0.0
O562 O 0.57639 0.09369 0.08253 0.0
O563 O 0.59187 0.11659 0.04688 0.0
O564 O 0.54914 0.07514 0.02852 0.0
O565 O 0.54407 0.03447 0.04921 0.0
O566 O 0.61283 0.1078 0.99581 0.0
O567 O 0.57344 0.08039 0.98167 0.0
O568 O 0.58273 0.03205 1.00749 0.0
O569 O 0.59013 1.01618 0.0469 0.0
O570 O 0.62123 0.08096 0.07542 0.0
O571 O 0.62797 0.07463 0.03366 0.0
C572 C 0.58374 0.1177 0.07046 0.0
O573 O 0.56025 0.03787 0.10435 0.0
O574 O 0.59815 0.02891 0.1002 0.0
C575 C 0.53379 0.05153 0.03615 0.0
C576 C 0.60734 0.08432 0.9545 0.0
C577 C 0.62356 0.05435 0.91419 0.0
C578 C 0.60945 0.07445 0.90893 0.0
C579 C 0.60133 0.08928 0.92899 0.0
C580 C 0.62161 0.06448 0.95982 0.0
C581 C 0.62969 0.04966 0.93985 0.0
C582 C 0.59618 0.0969 0.97554 0.0
C583 C 0.58666 1.01145 0.02148 0.0
H584 H 0.61861 0.11044 0.17073 0.0
H585 H 0.60564 0.08593 0.1276 0.0
H586 H 0.57692 1.00469 0.16055 0.0
H587 H 0.58965 0.02896 0.20367 0.0
H588 H 0.6048 0.07878 0.88932 0.0
H589 H 0.58999 0.1042 0.92458 0.0
H590 H 0.62598 0.05996 0.97944 0.0
H591 H 0.64028 0.03413 0.94447 0.0
Tb592 Tb 0.32306 0.28718 0.29026 0.0
Tb593 Tb 0.35241 0.35041 0.31409 0.0
C594 C 0.33114 0.33726 0.25483 0.0
C595 C 0.31004 0.20973 0.27412 0.0
C596 C 0.33489 0.16564 0.27518 0.0
C597 C 0.32131 0.17001 0.25229 0.0
C598 C 0.30889 0.19192 0.25179 0.0
C599 C 0.32238 0.20439 0.29726 0.0
C600 C 0.33459 0.18249 0.2978 0.0
C601 C 0.30145 0.23579 0.27246 0.0
O602 O 0.36504 0.29514 0.2765 0.0
O603 O 0.3871 0.3353 0.30248 0.0
O604 O 0.34237 0.32615 0.34732 0.0
O605 O 0.34031 0.2821 0.32894 0.0
O606 O 0.35904 0.39466 0.31301 0.0
O607 O 0.38183 0.37751 0.34096 0.0
O608 O 0.30943 0.34594 0.32229 0.0
O609 O 0.28863 0.2991 0.30745 0.0
O610 O 0.31386 0.31364 0.26061 0.0
O611 O 0.34953 0.35269 0.2724 0.0
C612 C 0.388 0.31521 0.28452 0.0
O613 O 0.29592 0.24682 0.29387 0.0
O614 O 0.31622 0.25544 0.25958 0.0
C615 C 0.34121 0.29927 0.34963 0.0
C616 C 0.37064 0.41963 0.35322 0.0
C617 C 0.34828 0.46035 0.37438 0.0
C618 C 0.37415 0.4691 0.366 0.0
C619 C 0.38518 0.44873 0.35516 0.0
C620 C 0.34712 0.4106 0.36569 0.0
C621 C 0.336 0.43097 0.3764 0.0
C622 C 0.37625 0.40043 0.33336 0.0
C623 C 0.28744 0.32335 0.31979 0.0
H624 H 0.32121 0.15724 0.23462 0.0
H625 H 0.29953 0.19586 0.23375 0.0
H626 H 0.32382 0.21804 0.3147 0.0
H627 H 0.34532 0.18005 0.31563 0.0
H628 H 0.38402 0.49168 0.36446 0.0
H629 H 0.40348 0.45593 0.34574 0.0
H630 H 0.33579 0.38809 0.36447 0.0
H631 H 0.31604 0.42368 0.38275 0.0
Tb632 Tb 0.57588 0.5826 0.075 0.0
Tb633 Tb 0.58901 0.54929 0.02487 0.0
C634 C 0.53196 0.53741 0.04191 0.0
C635 C 0.56889 0.60599 0.1426 0.0
C636 C 0.5812 0.60225 0.19539 0.0
C637 C 0.55639 0.58589 0.18304 0.0
C638 C 0.55023 0.58786 0.15691 0.0
C639 C 0.59319 0.62335 0.15525 0.0
C640 C 0.59929 0.62146 0.18138 0.0
C641 C 0.56316 0.60608 0.11454 0.0
O642 O 0.57892 0.54121 0.08992 0.0
O643 O 0.59389 0.52006 0.05587 0.0
O644 O 0.62509 0.58369 0.0362 0.0
O645 O 0.61942 0.59287 0.07853 0.0
O646 O 0.5742 0.5273 0.98903 0.0
O647 O 0.61497 0.53202 1.0046 0.0
O648 O 0.5799 0.58855 1.0089 0.0
O649 O 0.58018 0.6154 0.04651 0.0
O650 O 0.53894 0.56448 0.05032 0.0
O651 O 0.5503 0.52565 0.0356 0.0
C652 C 0.58672 0.51949 0.07988 0.0
O653 O 0.58314 0.61846 0.10159 0.0
O654 O 0.54855 0.58189 0.10267 0.0
C655 C 0.63438 0.59619 0.05911 0.0
C656 C 0.60607 0.53093 0.95947 0.0
C657 C 0.61082 0.54782 0.90903 0.0
C658 C 0.62279 0.56755 0.93023 0.0
C659 C 0.62014 0.55924 0.95532 0.0
C660 C 0.59652 0.51059 0.93852 0.0
C661 C 0.59879 0.51892 0.91352 0.0
C662 C 0.59725 0.52326 0.98475 0.0
C663 C 0.57992 0.6135 0.02109 0.0
H664 H 0.54198 0.57116 0.19347 0.0
H665 H 0.53112 0.57463 0.14777 0.0
H666 H 0.60786 0.63782 0.14487 0.0
H667 H 0.61869 0.63413 0.19032 0.0
H668 H 0.63269 0.58983 0.92752 0.0
H669 H 0.62764 0.57525 0.97138 0.0
H670 H 0.58548 0.48868 0.94145 0.0
H671 H 0.589 0.50308 0.89789 0.0
Tb672 Tb 0.84678 0.34261 0.28152 0.0
Tb673 Tb 0.82049 0.29257 0.31757 0.0
C674 C 0.84189 0.27877 0.26547 0.0
C675 C 0.85081 0.4053 0.24788 0.0
C676 C 0.82244 0.44503 0.25894 0.0
C677 C 0.85065 0.45378 0.26122 0.0
C678 C 0.86475 0.43399 0.25578 0.0
C679 C 0.82289 0.39774 0.24208 0.0
C680 C 0.80882 0.41737 0.24768 0.0
C681 C 0.86362 0.38266 0.25323 0.0
O682 O 0.80262 0.32997 0.26775 0.0
O683 O 0.78494 0.30547 0.30154 0.0
O684 O 0.82367 0.3312 0.3414 0.0
O685 O 0.83299 0.36522 0.31196 0.0
O686 O 0.78933 0.25562 0.32262 0.0
O687 O 0.82138 0.27308 0.35239 0.0
O688 O 0.86476 0.29655 0.32417 0.0
O689 O 0.88267 0.33872 0.3058 0.0
O690 O 0.85682 0.30535 0.26627 0.0
O691 O 0.82278 0.27089 0.28074 0.0
C692 C 0.78126 0.31779 0.28001 0.0
O693 O 0.87259 0.38349 0.27728 0.0
O694 O 0.85034 0.35653 0.24421 0.0
C695 C 0.82652 0.35733 0.33471 0.0
C696 C 0.80784 0.22322 0.34374 0.0
C697 C 0.83353 0.1797 0.34158 0.0
C698 C 0.83137 0.19338 0.3654 0.0
C699 C 0.81861 0.21505 0.36645 0.0
C700 C 0.80795 0.2078 0.32028 0.0
C701 C 0.82067 0.18634 0.31921 0.0
C702 C 0.80155 0.25081 0.34376 0.0
C703 C 0.8862 0.31767 0.31965 0.0
H704 H 0.86174 0.47522 0.26917 0.0
H705 H 0.88629 0.44033 0.26031 0.0
H706 H 0.8115 0.37583 0.23583 0.0
H707 H 0.78713 0.40976 0.2456 0.0
H708 H 0.84076 0.18844 0.383 0.0
H709 H 0.81878 0.22673 0.38474 0.0
H710 H 0.80001 0.21366 0.30235 0.0
H711 H 0.82223 0.17668 0.30044 0.0
Tb712 Tb 0.09677 0.55594 0.57178 0.0
Tb713 Tb 0.08137 0.57981 0.51916 0.0
C714 C 0.14055 0.59177 0.54019 0.0
C715 C 0.09729 0.54301 0.63878 0.0
C716 C 0.07429 0.55077 0.68429 0.0
C717 C 0.08961 0.53128 0.68241 0.0
C718 C 0.10108 0.5274 0.65966 0.0
C719 C 0.08235 0.56269 0.64076 0.0
C720 C 0.07112 0.56673 0.66339 0.0
C721 C 0.10707 0.53778 0.61416 0.0
O722 O 0.09705 0.60039 0.58442 0.0
O723 O 0.07518 0.6122 0.54908 0.0
O724 O 0.05007 0.54232 0.52645 0.0
O725 O 0.05406 0.5515 0.56942 0.0
O726 O 0.08941 0.59529 0.4831 0.0
O727 O 0.05062 0.59041 0.49746 0.0
O728 O 0.09148 0.53947 0.50528 0.0
O729 O 0.0923 0.51877 0.54364 0.0
O730 O 0.13302 0.56847 0.55238 0.0
O731 O 0.12293 0.60326 0.52977 0.0
C732 C 0.08515 0.61808 0.57359 0.0
O733 O 0.08838 0.52301 0.59679 0.0
O734 O 0.12266 0.56049 0.60524 0.0
C735 C 0.03952 0.53971 0.54824 0.0
C736 C 0.05193 0.57605 0.45409 0.0
C737 C 0.04642 0.53923 0.40977 0.0
C738 C 0.05166 0.56902 0.40793 0.0
C739 C 0.05466 0.58741 0.4301 0.0
C740 C 0.04279 0.54614 0.45543 0.0
C741 C 0.03999 0.52779 0.43333 0.0
C742 C 0.0644 0.59435 0.4774 0.0
C743 C 0.0926 0.51689 0.51829 0.0
H744 H 0.09212 0.51855 0.69824 0.0
H745 H 0.11236 0.5119 0.65818 0.0
H746 H 0.07893 0.57457 0.6246 0.0
H747 H 0.05978 0.58221 0.66445 0.0
H748 H 0.05694 0.57838 0.39001 0.0
H749 H 0.06177 0.61043 0.42878 0.0
H750 H 0.04059 0.53696 0.47383 0.0
H751 H 1.03605 0.50493 0.4352 0.0
Tb752 Tb 0.85693 0.80252 0.30308 0.0
Tb753 Tb 0.79705 0.81052 0.29916 0.0
C754 C 0.80698 0.752 0.30727 0.0
C755 C 0.92249 0.79026 0.29033 0.0
C756 C 0.96237 0.78581 0.25855 0.0
C757 C 0.9674 0.78748 0.28543 0.0
C758 C 0.94757 0.78974 0.30121 0.0
C759 C 0.91674 0.78676 0.26354 0.0
C760 C 0.9366 0.78447 0.2477 0.0
C761 C 0.90393 0.79792 0.30702 0.0
O762 O 0.8481 0.80435 0.2616 0.0
O763 O 0.80215 0.79394 0.2604 0.0
O764 O 0.82348 0.84734 0.28394 0.0
O765 O 0.85923 0.84737 0.31105 0.0
O766 O 0.75586 0.79261 0.2888 0.0
O767 O 0.77201 0.83692 0.30406 0.0
O768 O 0.81235 0.82365 0.33972 0.0
O769 O 0.84666 0.80267 0.34287 0.0
O770 O 0.8284 0.76026 0.29483 0.0
O771 O 0.79531 0.77062 0.31601 0.0
C772 C 0.82428 0.79713 0.24857 0.0
O773 O 0.89804 0.82147 0.30214 0.0
O774 O 0.88286 0.77741 0.31137 0.0
C775 C 0.84692 0.86079 0.29569 0.0
C776 C 0.73013 0.81121 0.31616 0.0
C777 C 0.69144 0.80354 0.35196 0.0
C778 C 0.68533 0.80967 0.32664 0.0
C779 C 0.70458 0.81351 0.30889 0.0
C780 C 0.73629 0.80481 0.34129 0.0
C781 C 0.71711 0.8011 0.3591 0.0
C782 C 0.75037 0.81571 0.2976 0.0
C783 C 0.83042 0.81522 0.35368 0.0
H784 H 0.98701 0.78819 0.29423 0.0
H785 H 0.95222 0.79243 0.32189 0.0
H786 H 0.8974 0.78723 0.25491 0.0
H787 H 0.93228 0.78339 0.22703 0.0
H788 H 0.66583 0.81203 0.32069 0.0
H789 H 0.69957 0.81847 0.28956 0.0
H790 H 0.75596 0.80279 0.34713 0.0
H791 H 0.7223 0.79613 0.37838 0.0
Tb792 Tb 0.80629 0.31834 0.83129 0.0
Tb793 Tb 0.84074 0.32275 0.78073 0.0
C794 C 0.78277 0.32905 0.77696 0.0
C795 C 0.78614 0.32178 0.89763 0.0
C796 C 0.80051 0.32676 0.95091 0.0
C797 C 0.81833 0.34235 0.93431 0.0
C798 C 0.81127 0.33971 0.90782 0.0
C799 C 0.76776 0.30756 0.91415 0.0
C800 C 0.77486 0.30996 0.94056 0.0
C801 C 0.77958 0.31588 0.86983 0.0
O802 O 0.79095 0.27854 0.80678 0.0
O803 O 0.83027 0.27867 0.79024 0.0
O804 O 0.86983 0.32321 0.81253 0.0
O805 O 0.84245 0.30763 0.84494 0.0
O806 O 0.84596 0.30558 0.74446 0.0
O807 O 0.87223 0.34638 0.76084 0.0
O808 O 0.83795 0.3647 0.79373 0.0
O809 O 0.83849 0.35821 0.83637 0.0
O810 O 0.78473 0.33519 0.8019 0.0
O811 O 0.79974 0.3179 0.76607 0.0
C812 C 0.80614 0.26493 0.79569 0.0
O813 O 0.7858 0.33804 0.85614 0.0
O814 O 0.7862 0.29408 0.85962 0.0
C815 C 0.86604 0.314 0.83557 0.0
C816 C 0.85643 0.3428 0.71748 0.0
C817 C 0.83872 0.36601 0.67384 0.0
C818 C 0.86009 0.35367 0.67302 0.0
C819 C 0.86873 0.34193 0.69468 0.0
C820 C 0.83555 0.35554 0.71853 0.0
C821 C 0.82654 0.36669 0.69689 0.0
C822 C 0.86383 0.32921 0.74 0.0
C823 C 0.84455 0.37504 0.81767 0.0
H824 H 0.83811 0.35569 0.94166 0.0
H825 H 0.82573 0.35084 0.89524 0.0
H826 H 0.74833 0.29356 0.90652 0.0
H827 H 0.76078 0.29719 0.95259 0.0
H828 H 0.8703 0.35328 0.65575 0.0
H829 H 0.88489 0.33214 0.69361 0.0
H830 H 0.82593 0.35651 0.73609 0.0
H831 H 0.80981 0.37554 0.6982 0.0
Tb832 Tb 0.81847 0.78105 0.78974 0.0
Tb833 Tb 0.84032 0.84674 0.80837 0.0
C834 C 0.8189 0.82571 0.74966 0.0
C835 C 0.82139 0.70917 0.78693 0.0
C836 C 0.85342 0.67633 0.80662 0.0
C837 C 0.82762 0.66271 0.79444 0.0
C838 C 0.81157 0.67914 0.78471 0.0
C839 C 0.84711 0.7226 0.79886 0.0
C840 C 0.8628 0.70644 0.80884 0.0
C841 C 0.80493 0.72755 0.7792 0.0
O842 O 0.85963 0.79258 0.77465 0.0
O843 O 0.87774 0.83641 0.79665 0.0
O844 O 0.83627 0.82618 0.84449 0.0
O845 O 0.83906 0.78304 0.82845 0.0
O846 O 0.87111 0.88042 0.82818 0.0
O847 O 0.83559 0.88791 0.80942 0.0
O848 O 0.79702 0.83694 0.81817 0.0
O849 O 0.7814 0.78929 0.80403 0.0
O850 O 0.80463 0.80144 0.75758 0.0
O851 O 0.83599 0.84489 0.766 0.0
C852 C 0.88084 0.81533 0.7808 0.0
O853 O 0.79676 0.7398 0.79847 0.0
O854 O 0.81525 0.74608 0.76299 0.0
C855 C 0.83862 0.80068 0.84831 0.0
C856 C 0.87556 0.92423 0.80908 0.0
C857 C 0.88476 0.97123 0.77904 0.0
C858 C 0.88408 0.97527 0.80585 0.0
C859 C 0.87918 0.95175 0.82074 0.0
C860 C 0.8814 0.92097 0.7835 0.0
C861 C 0.88635 0.94455 0.76857 0.0
C862 C 0.85943 0.8996 0.82124 0.0
C863 C 0.77704 0.81247 0.81553 0.0
H864 H 0.81994 0.63949 0.79239 0.0
H865 H 0.79159 0.66854 0.77576 0.0
H866 H 0.85493 0.74577 0.80099 0.0
H867 H 0.88219 0.71771 0.81872 0.0
H868 H 0.88309 0.99554 0.81473 0.0
H869 H 0.87501 0.9546 0.84057 0.0
H870 H 0.87901 0.89977 0.77431 0.0
H871 H 0.88747 0.94095 0.74809 0.0
Tb872 Tb 0.60484 0.58622 0.56115 0.0
Tb873 Tb 0.54694 0.53803 0.54376 0.0
C874 C 0.55708 0.57615 0.59549 0.0
C875 C 0.67593 0.62146 0.56567 0.0
C876 C 0.7251 0.61511 0.55236 0.0
C877 C 0.72452 0.63769 0.57012 0.0
C878 C 0.69991 0.641 0.57661 0.0
C879 C 0.67662 0.59919 0.54795 0.0
C880 C 0.70088 0.59618 0.54112 0.0
C881 C 0.64983 0.62247 0.57325 0.0
O882 O 0.61226 0.54457 0.56386 0.0
O883 O 0.56937 0.51866 0.57024 0.0
O884 O 0.57476 0.52759 0.51888 0.0
O885 O 0.60584 0.57205 0.52114 0.0
O886 O 0.51273 0.50722 0.55368 0.0
O887 O 0.51852 0.51517 0.51408 0.0
O888 O 0.54663 0.57654 0.5245 0.0
O889 O 0.57628 0.61008 0.55286 0.0
O890 O 0.58283 0.57954 0.59485 0.0
O891 O 0.53994 0.5651 0.57542 0.0
C892 C 0.59525 0.52171 0.57149 0.0
O893 O 0.6331 0.62474 0.55431 0.0
O894 O 0.63864 0.60224 0.5877 0.0
C895 C 0.595 0.54604 0.51001 0.0
C896 C 0.47516 0.50966 0.52695 0.0
C897 C 0.43564 0.53843 0.52494 0.0
C898 C 0.44712 0.533 0.50248 0.0
C899 C 0.46674 0.5186 0.50345 0.0
C900 C 0.46096 0.51172 0.54848 0.0
C901 C 0.44145 0.52618 0.54751 0.0
C902 C 0.50136 0.50369 0.53021 0.0
C903 C 0.55671 0.60317 0.53439 0.0
H904 H 0.743 0.65224 0.57931 0.0
H905 H 0.6996 0.65816 0.59058 0.0
H906 H 0.65824 0.58347 0.54017 0.0
H907 H 0.70065 0.57799 0.52809 0.0
H908 H 0.4428 0.54218 0.48485 0.0
H909 H 0.47694 0.51677 0.48637 0.0
H910 H 0.4665 0.50446 0.56671 0.0
H911 H 0.43243 0.52979 0.56495 0.0
Tb912 Tb 0.05332 0.55956 0.08471 0.0
Tb913 Tb 0.11768 0.56769 0.07953 0.0
C914 C 0.0891 0.53848 0.12449 0.0
C915 C 0.98957 0.57731 0.08239 0.0
C916 C 0.96042 0.61682 0.0718 0.0
C917 C 0.98855 0.62616 0.0762 0.0
C918 C 1.00297 0.60659 0.08132 0.0
C919 C 0.96162 0.56777 0.07772 0.0
C920 C 0.94716 0.58731 0.07241 0.0
C921 C 1.00473 0.55676 0.08807 0.0
O922 O 0.07331 0.60536 0.09155 0.0
O923 O 0.11528 0.60316 0.10563 0.0
O924 O 0.10809 0.59673 0.05323 0.0
O925 O 0.06232 0.57566 0.04765 0.0
O926 O 0.15576 0.57263 0.09825 0.0
O927 O 0.14965 0.57019 0.05677 0.0
O928 O 0.09509 0.53213 0.05256 0.0
O929 O 0.05638 0.5169 0.07254 0.0
O930 O 0.07136 0.55267 0.12144 0.0
O931 O 0.10372 0.5351 0.10592 0.0
C932 C 0.09735 0.61732 0.10314 0.0
O933 O 1.01339 0.54581 0.06829 0.0
O934 O 1.02318 0.56479 0.10732 0.0
C935 C 0.0845 0.59333 0.04106 0.0
C936 C 0.18077 0.54865 0.07451 0.0
C937 C 0.20851 0.50716 0.06884 0.0
C938 C 0.21882 0.5348 0.06041 0.0
C939 C 0.20508 0.55537 0.06329 0.0
C940 C 0.17008 0.52101 0.08261 0.0
C941 C 0.1839 0.50043 0.07987 0.0
C942 C 0.16623 0.57026 0.0766 0.0
C943 C 0.0731 0.5121 0.05632 0.0
H944 H 0.99944 0.64869 0.07616 0.0
H945 H 1.02459 0.61439 0.08467 0.0
H946 H 0.95098 0.54521 0.07817 0.0
H947 H 0.92559 0.57923 0.06862 0.0
H948 H 0.23744 0.5405 0.05136 0.0
H949 H 0.21336 0.57648 0.0566 0.0
H950 H 0.1511 0.51538 0.09106 0.0
H951 H 0.17553 0.47944 0.08673 0.0
H952 H 0.05972 0.23829 0.02235 0.0
H953 H 0.99602 0.19486 0.96445 0.0
H954 H 1.00037 0.14827 0.97612 0.0
H955 H 1.02333 0.11976 1.00219 0.0
H956 H 0.08688 0.16417 0.06012 0.0
H957 H 0.08158 0.21013 0.04892 0.0
C958 C 0.04665 0.21864 1.0124 0.0
C959 C 1.0276 0.22011 0.99257 0.0
C960 C 0.04938 0.19194 0.01908 0.0
C961 C 1.01086 0.19438 0.97984 0.0
C962 C 1.0134 0.16769 0.98643 0.0
C963 C 1.03604 0.13949 1.01229 0.0
C964 C 0.0555 0.13832 0.03194 0.0
C965 C 1.0328 0.16618 1.00587 0.0
C966 C 0.07164 0.16421 0.04496 0.0
C967 C 0.06867 0.19065 0.03858 0.0
H968 H 0.22337 0.84211 0.16403 0.0
H969 H 0.18983 0.87574 0.22751 0.0
H970 H 0.2276 0.87335 0.25678 0.0
H971 H 0.26758 0.85683 0.26506 0.0
H972 H 0.29961 0.82112 0.20149 0.0
H973 H 0.26521 0.82941 0.17166 0.0
C974 C 0.22458 0.84942 0.18418 0.0
C975 C 0.20377 0.85889 0.19362 0.0
C976 C 0.24596 0.84729 0.201 0.0
C977 C 0.20558 0.86825 0.21979 0.0
C978 C 0.2271 0.86676 0.23657 0.0
C979 C 0.26722 0.85117 0.24466 0.0
C980 C 0.28601 0.83807 0.23565 0.0
C981 C 0.247 0.85551 0.22752 0.0
C982 C 0.28527 0.83097 0.20909 0.0
C983 C 0.26558 0.8357 0.19193 0.0
H984 H 0.5105 0.86939 0.51405 0.0
H985 H 0.57928 0.88758 0.46982 0.0
H986 H 0.59098 0.93827 0.48472 0.0
H987 H 0.5818 0.97751 0.50999 0.0
H988 H 0.51294 0.96021 0.55415 0.0
H989 H 0.50116 0.90926 0.53951 0.0
C990 C 0.52807 0.88447 0.50777 0.0
C991 C 0.54399 0.87469 0.49087 0.0
C992 C 0.53464 0.9138 0.51628 0.0
C993 C 0.56665 0.89451 0.48279 0.0
C994 C 0.57337 0.92355 0.49129 0.0
C995 C 0.56413 0.96269 0.51639 0.0
C996 C 0.54828 0.97281 0.53313 0.0
C997 C 0.55748 0.93345 0.50795 0.0
C998 C 0.52553 0.95312 0.54124 0.0
C999 C 0.51878 0.92392 0.5329 0.0
H1000 H 0.53252 0.31541 0.66184 0.0
H1001 H 0.5825 0.29178 0.72086 0.0
H1002 H 0.54688 0.28552 0.74985 0.0
H1003 H 0.5028 0.28988 0.75921 0.0
H1004 H 0.45443 0.31725 0.70112 0.0
H1005 H 0.48798 0.31839 0.67078 0.0
C1006 C 0.53545 0.30849 0.68092 0.0
C1007 C 0.56002 0.30409 0.68928 0.0
C1008 C 0.51524 0.30573 0.69766 0.0
C1009 C 0.56371 0.29534 0.71407 0.0
C1010 C 0.54341 0.29185 0.73065 0.0
C1011 C 0.49966 0.29626 0.73996 0.0
C1012 C 0.4762 0.30363 0.73254 0.0
C1013 C 0.51933 0.2976 0.72282 0.0
C1014 C 0.47216 0.31118 0.70731 0.0
C1015 C 0.49142 0.31203 0.68997 0.0
H1016 H 0.08639 0.93083 0.66757 0.0
H1017 H 0.06993 0.87049 0.60083 0.0
H1018 H 0.07084 0.90941 0.57294 0.0
H1019 H 0.0759 0.96164 0.56614 0.0
H1020 H 0.09092 1.02189 0.63286 0.0
H1021 H 0.09096 0.98317 0.66076 0.0
C1022 C 0.08305 0.92595 0.64693 0.0
C1023 C 0.07816 0.89661 0.63696 0.0
C1024 C 0.08332 0.94911 0.63036 0.0
C1025 C 0.07379 0.89203 0.6098 0.0
C1026 C 0.07431 0.91467 0.59353 0.0
C1027 C 0.07933 0.96661 0.58677 0.0
C1028 C 0.08359 0.99586 0.59668 0.0
C1029 C 0.07903 0.9435 0.60335 0.0
C1030 C 0.08764 1.00045 0.62387 0.0
C1031 C 0.08765 0.9779 0.64017 0.0
H1032 H 0.5081 0.83566 0.84807 0.0
H1033 H 0.4803 0.76217 0.89172 0.0
H1034 H 0.43385 0.75804 0.87631 0.0
H1035 H 0.39901 0.77542 0.85043 0.0
H1036 H 0.42733 0.8508 0.80901 0.0
H1037 H 0.47351 0.85357 0.82318 0.0
C1038 C 0.49206 0.81852 0.85425 0.0
C1039 C 0.49905 0.79907 0.87136 0.0
C1040 C 0.46438 0.81652 0.84554 0.0
C1041 C 0.47678 0.7776 0.87878 0.0
C1042 C 0.44967 0.7752 0.86984 0.0
C1043 C 0.4151 0.79254 0.84431 0.0
C1044 C 0.40821 0.81288 0.82807 0.0
C1045 C 0.44282 0.79453 0.85319 0.0
C1046 C 0.43062 0.83465 0.82122 0.0
C1047 C 0.45765 0.83631 0.82945 0.0
H1048 H 0.58658 0.24948 0.10604 0.0
H1049 H 0.56419 0.2116 0.17673 0.0
H1050 H 0.56456 0.16467 0.15771 0.0
H1051 H 0.57139 0.13274 0.12073 0.0
H1052 H 0.59433 0.17074 0.05018 0.0
H1053 H 0.59353 0.21752 0.06906 0.0
C1054 C 0.58164 0.23105 0.11741 0.0
C1055 C 0.5752 0.23511 0.14329 0.0
C1056 C 0.58202 0.20328 0.10615 0.0
C1057 C 0.56915 0.21012 0.15703 0.0
C1058 C 0.56939 0.18284 0.14602 0.0
C1059 C 0.57621 0.15112 0.10928 0.0
C1060 C 0.58291 0.14707 0.08348 0.0
C1061 C 0.57581 0.17887 0.12053 0.0
C1062 C 0.58908 0.1721 0.06977 0.0
C1063 C 0.58861 0.19933 0.08072 0.0
H1064 H 0.19395 0.34952 0.38814 0.0
H1065 H 0.14384 0.27485 0.34241 0.0
H1066 H 0.18257 0.27053 0.32044 0.0
H1067 H 0.23218 0.28718 0.31328 0.0
H1068 H 0.2816 0.36391 0.35682 0.0
H1069 H 0.24307 0.36771 0.37931 0.0
C1070 C 0.19118 0.33219 0.37336 0.0
C1071 C 0.16464 0.31242 0.36768 0.0
C1072 C 0.21425 0.33004 0.35982 0.0
C1073 C 0.16299 0.29062 0.34791 0.0
C1074 C 0.18562 0.28806 0.33508 0.0
C1075 C 0.23482 0.30496 0.32757 0.0
C1076 C 0.2612 0.32524 0.33266 0.0
C1077 C 0.21163 0.30753 0.34067 0.0
C1078 C 0.26259 0.34778 0.35165 0.0
C1079 C 0.24009 0.34998 0.36488 0.0
H1080 H 0.95765 0.0597 0.17639 0.0
H1081 H 1.02379 0.12789 0.2138 0.0
H1082 H 0.0475 0.13005 0.17497 0.0
H1083 H 0.05183 0.1078 0.13274 0.0
H1084 H 0.98522 0.04052 0.09492 0.0
H1085 H 0.9591 0.04271 0.13162 0.0
C1086 C 0.97699 0.07544 0.17578 0.0
C1087 C 0.98923 0.09327 0.19787 0.0
C1088 C 0.99054 0.07635 0.15357 0.0
C1089 C 1.01407 0.1139 0.19693 0.0
C1090 C 1.02773 0.11496 0.17486 0.0
C1091 C 1.0315 0.09386 0.13253 0.0
C1092 C 1.02053 0.07362 0.11165 0.0
C1093 C 1.01658 0.0955 0.15347 0.0
C1094 C 0.99402 0.05609 0.11105 0.0
C1095 C 0.97914 0.05731 0.13198 0.0
H1096 H 0.38019 0.78529 0.52044 0.0
H1097 H 0.29633 0.75696 0.5332 0.0
H1098 H 0.28598 0.7861 0.49981 0.0
H1099 H 0.29969 0.8128 0.46291 0.0
H1100 H 0.3839 0.84504 0.45166 0.0
H1101 H 0.39509 0.82102 0.48867 0.0
C1102 C 0.35977 0.786 0.51617 0.0
C1103 C 0.33898 0.76865 0.5288 0.0
C1104 C 0.35394 0.80305 0.49706 0.0
C1105 C 0.31265 0.77003 0.52355 0.0
C1106 C 0.30668 0.78659 0.5044 0.0
C1107 C 0.32064 0.81574 0.46889 0.0
C1108 C 0.34075 0.83 0.4537 0.0
C1109 C 0.32704 0.80234 0.49044 0.0
C1110 C 0.36775 0.83319 0.46218 0.0
C1111 C 0.37426 0.81958 0.48349 0.0
H1112 H 0.64152 0.05065 0.71512 0.0
H1113 H 0.67915 0.99349 0.67691 0.0
H1114 H 0.64773 0.98801 0.63882 0.0
H1115 H 0.61327 1.00376 0.61502 0.0
H1116 H 0.57655 0.06229 0.65252 0.0
H1117 H 0.60344 0.06221 0.69268 0.0
C1118 C 0.64265 0.03679 0.69852 0.0
C1119 C 0.66283 1.02289 0.69854 0.0
C1120 C 0.62469 0.03391 0.6767 0.0
C1121 C 0.6639 1.00462 0.67717 0.0
C1122 C 0.64597 1.00147 0.65543 0.0
C1123 C 0.61081 1.01616 0.63208 0.0
C1124 C 0.59335 0.03342 0.63073 0.0
C1125 C 0.6268 1.01664 0.65478 0.0
C1126 C 0.59 0.04895 0.65306 0.0
C1127 C 0.60552 0.0491 0.67596 0.0
H1128 H 0.30659 0.36554 0.96637 0.0
H1129 H 0.37313 0.33164 0.98346 0.0
H1130 H 0.37727 0.32406 0.93736 0.0
H1131 H 0.36225 0.32782 0.89153 0.0
H1132 H 0.29449 0.36028 0.87557 0.0
H1133 H 0.29086 0.36785 0.92142 0.0
C1134 C 0.32186 0.35621 0.96007 0.0
C1135 C 0.33942 0.34908 0.97855 0.0
C1136 C 0.32417 0.35197 0.93348 0.0
C1137 C 0.35914 0.33713 0.96981 0.0
C1138 C 0.36165 0.33298 0.94336 0.0
C1139 C 0.3469 0.33682 0.89814 0.0
C1140 C 0.32885 0.34371 0.87992 0.0
C1141 C 0.34443 0.34056 0.92491 0.0
C1142 C 0.30874 0.35483 0.88897 0.0
C1143 C 0.30656 0.35913 0.9153 0.0
H1144 H 0.04654 0.11773 0.3249 0.0
H1145 H 0.03809 0.0324 0.29104 0.0
H1146 H 0.07057 0.02588 0.32425 0.0
H1147 H 0.09265 0.04023 0.36787 0.0
H1148 H 0.0997 0.12476 0.40257 0.0
H1149 H 0.07702 0.13611 0.36385 0.0
C1150 C 0.05239 0.09803 0.32441 0.0
C1151 C 0.03943 0.07528 0.30609 0.0
C1152 C 0.07059 0.09417 0.3439 0.0
C1153 C 0.04751 0.05007 0.30527 0.0
C1154 C 0.066 0.04626 0.32432 0.0
C1155 C 0.09023 0.06153 0.3665 0.0
C1156 C 0.09714 0.0814 0.38814 0.0
C1157 C 0.07645 0.06753 0.34452 0.0
C1158 C 0.09397 0.10897 0.38621 0.0
C1159 C 0.0809 0.11539 0.36416 0.0
H1160 H 0.33233 0.70065 0.66027 0.0
H1161 H 0.39214 0.77476 0.63852 0.0
H1162 H 0.3934 0.79949 0.68075 0.0
H1163 H 0.37392 0.80185 0.72176 0.0
H1164 H 0.31291 0.72814 0.74274 0.0
H1165 H 0.31593 0.70135 0.70288 0.0
C1166 C 0.34591 0.72207 0.6649 0.0
C1167 C 0.36186 0.73605 0.64629 0.0
C1168 C 0.34614 0.7363 0.68894 0.0
C1169 C 0.37954 0.76366 0.65255 0.0
C1170 C 0.3802 0.77784 0.67663 0.0
C1171 C 0.36149 0.77982 0.71779 0.0
C1172 C 0.34289 0.76721 0.73499 0.0
C1173 C 0.36301 0.76466 0.69466 0.0
C1174 C 0.32714 0.73853 0.72966 0.0
C1175 C 0.32884 0.72316 0.70686 0.0
H1176 H 0.64909 1.00324 0.80976 0.0
H1177 H 0.72735 1.02253 0.85111 0.0
H1178 H 0.70869 0.03273 0.89091 0.0
H1179 H 0.67217 0.045 0.9116 0.0
H1180 H 0.59477 0.02898 0.86923 0.0
H1181 H 0.61118 1.00908 0.83197 0.0
C1182 C 0.66194 1.00884 0.82762 0.0
C1183 C 0.68962 1.0126 0.82746 0.0
C1184 C 0.65137 1.01612 0.85004 0.0
C1185 C 0.70599 1.0197 0.85075 0.0
C1186 C 0.69538 0.02584 0.87344 0.0
C1187 C 0.65873 0.03654 0.89441 0.0
C1188 C 0.63246 0.03893 0.89295 0.0
C1189 C 0.66842 0.02557 0.87297 0.0
C1190 C 0.61528 0.028 0.87055 0.0
C1191 C 0.62458 1.01645 0.84933 0.0
H1192 H 0.35851 0.38993 0.14846 0.0
H1193 H 0.30806 0.30661 0.11795 0.0
H1194 H 0.29976 0.29294 0.16186 0.0
H1195 H 0.30774 0.30464 0.20949 0.0
H1196 H 0.35802 0.38881 0.2386 0.0
H1197 H 0.36509 0.40208 0.19493 0.0
C1198 C 0.34575 0.36868 0.15131 0.0
C1199 C 0.33416 0.34925 0.12975 0.0
C1200 C 0.34082 0.36115 0.17656 0.0
C1201 C 0.31742 0.32197 0.13405 0.0
C1202 C 0.3126 0.31419 0.15923 0.0
C1203 C 0.31992 0.32602 0.20627 0.0
C1204 C 0.33226 0.34565 0.22763 0.0
C1205 C 0.32421 0.33362 0.18073 0.0
C1206 C 0.34823 0.37314 0.22282 0.0
C1207 C 0.3524 0.38079 0.19773 0.0
H1208 H 0.27055 0.99787 0.06144 0.0
H1209 H 0.30374 0.05833 1.00662 0.0
H1210 H 0.28173 0.09219 0.02465 0.0
H1211 H 0.25045 0.10288 0.0539 0.0
H1212 H 0.21603 0.04127 0.10745 0.0
H1213 H 0.24204 1.01009 0.09273 0.0
C1214 C 0.27301 1.01849 0.0535 0.0
C1215 C 0.28834 0.02549 0.03253 0.0
C1216 C 0.2604 0.03778 0.06396 0.0
C1217 C 0.29178 0.05243 0.02265 0.0
C1218 C 0.27928 0.07179 0.03297 0.0
C1219 C 0.24889 0.08276 0.06251 0.0
C1220 C 0.23123 0.07436 0.08161 0.0
C1221 C 0.26319 0.06446 0.05335 0.0
C1222 C 0.22972 0.04846 0.09294 0.0
C1223 C 0.2443 0.03039 0.08428 0.0
H1224 H 0.73854 0.70246 0.07559 0.0
H1225 H 0.75617 0.66068 1.0069 0.0
H1226 H 0.71469 0.62179 1.00743 0.0
H1227 H 0.6734 0.59997 0.02698 0.0
H1228 H 0.65581 0.6402 0.09656 0.0
H1229 H 0.69767 0.67899 0.09656 0.0
C1230 C 0.73308 0.68494 0.06064 0.0
C1231 C 0.75011 0.68459 0.04099 0.0
C1232 C 0.70952 0.66218 0.06149 0.0
C1233 C 0.74323 0.66149 0.02207 0.0
C1234 C 0.71961 0.6392 0.02244 0.0
C1235 C 0.67878 0.61706 0.04233 0.0
C1236 C 0.66143 0.61718 0.06172 0.0
C1237 C 0.70266 0.6393 0.04206 0.0
C1238 C 0.66888 0.63943 0.08152 0.0
C1239 C 0.69269 0.66177 0.08137 0.0
H1240 H 0.7661 0.50799 0.33574 0.0
H1241 H 0.70258 0.48178 0.27424 0.0
H1242 H 0.73097 0.46168 0.24821 0.0
H1243 H 0.77377 0.45163 0.24299 0.0
H1244 H 0.83648 0.47605 0.30545 0.0
H1245 H 0.80888 0.49794 0.33051 0.0
C1246 C 0.7584 0.49763 0.31674 0.0
C1247 C 0.73227 0.49613 0.30699 0.0
C1248 C 0.7749 0.48646 0.30179 0.0
C1249 C 0.72262 0.48299 0.28222 0.0
C1250 C 0.73888 0.47168 0.26727 0.0
C1251 C 0.78144 0.4618 0.26205 0.0
C1252 C 0.80724 0.46226 0.27217 0.0
C1253 C 0.76508 0.47341 0.27683 0.0
C1254 C 0.81697 0.4759 0.29682 0.0
C1255 C 0.80102 0.48804 0.31141 0.0
H1256 H 0.92193 0.47062 0.51281 0.0
H1257 H 0.90647 0.53967 0.55863 0.0
H1258 H 0.95406 0.55781 0.57389 0.0
H1259 H 1.00071 0.55642 0.57075 0.0
H1260 H 1.01545 0.48843 0.52301 0.0
H1261 H 0.9674 0.46691 0.51248 0.0
C1262 C 0.92897 0.48959 0.5262 0.0
C1263 C 0.91095 0.50409 0.53427 0.0
C1264 C 0.95617 0.49984 0.53476 0.0
C1265 C 0.92016 0.52837 0.55193 0.0
C1266 C 0.9473 0.53867 0.56072 0.0
C1267 C 0.99319 0.53642 0.55873 0.0
C1268 C 1.01122 0.52378 0.54774 0.0
C1269 C 0.96557 0.52485 0.55191 0.0
C1270 C 1.00163 0.49827 0.53172 0.0
C1271 C 0.97427 0.48615 0.52552 0.0
H1272 H 0.43324 0.11708 0.2733 0.0
H1273 H 0.40489 0.08704 0.34522 0.0
H1274 H 0.36465 0.10224 0.33649 0.0
H1275 H 0.34015 0.12867 0.31071 0.0
H1276 H 0.36978 0.161 0.23997 0.0
H1277 H 0.40629 0.13919 0.24538 0.0
C1278 C 0.41815 0.11369 0.28695 0.0
C1279 C 0.42217 0.1015 0.31005 0.0
C1280 C 0.39519 0.12261 0.2819 0.0
C1281 C 0.40232 0.09674 0.32742 0.0
C1282 C 0.37931 0.10535 0.32244 0.0
C1283 C 0.3544 0.13053 0.29631 0.0
C1284 C 0.35252 0.14668 0.27519 0.0
C1285 C 0.3759 0.11896 0.30006 0.0
C1286 C 0.37072 0.14852 0.25635 0.0
C1287 C 0.39182 0.1364 0.25961 0.0
H1288 H 0.34506 0.16116 0.56052 0.0
H1289 H 0.40807 0.23341 0.54054 0.0
H1290 H 0.43985 0.20495 0.5434 0.0
H1291 H 0.44964 0.15962 0.55185 0.0
H1292 H 0.38683 0.08836 0.57399 0.0
H1293 H 0.35494 0.11624 0.56948 0.0
C1294 C 0.36574 0.17067 0.55672 0.0
C1295 C 0.37423 0.19931 0.55032 0.0
C1296 C 0.38388 0.15432 0.55865 0.0
C1297 C 0.40108 0.21139 0.54555 0.0
C1298 C 0.41924 0.19513 0.54716 0.0
C1299 C 0.42905 0.15025 0.55593 0.0
C1300 C 0.42071 0.12186 0.56319 0.0
C1301 C 0.41087 0.16661 0.55382 0.0
C1302 C 0.39378 0.10995 0.56795 0.0
C1303 C 0.37553 0.12596 0.56558 0.0
H1304 H 0.76233 0.61805 0.3119 0.0
H1305 H 0.72235 0.64576 0.37358 0.0
H1306 H 0.74555 0.69583 0.36802 0.0
H1307 H 0.77466 0.73154 0.34395 0.0
H1308 H 0.81513 0.70464 0.28234 0.0
H1309 H 0.79429 0.6542 0.28966 0.0
C1310 C 0.75893 0.63506 0.32427 0.0
C1311 C 0.7405 0.62832 0.34295 0.0
C1312 C 0.7722 0.66382 0.32087 0.0
C1313 C 0.73637 0.65047 0.35899 0.0
C1314 C 0.74954 0.67908 0.35578 0.0
C1315 C 0.77896 0.71466 0.33211 0.0
C1316 C 0.79604 0.72168 0.31239 0.0
C1317 C 0.76705 0.68596 0.33646 0.0
C1318 C 0.8019 0.69966 0.29756 0.0
C1319 C 0.78998 0.67089 0.30171 0.0
H1320 H 0.92526 0.49771 0.81788 0.0
H1321 H 0.94212 0.48262 0.89697 0.0
H1322 H 0.90636 0.43685 0.89147 0.0
H1323 H 0.87222 0.40012 0.86313 0.0
H1324 H 0.85627 0.41642 0.78403 0.0
H1325 H 0.88967 0.46315 0.79076 0.0
C1326 C 0.92114 0.48443 0.83396 0.0
C1327 C 0.93646 0.49319 0.85768 0.0
C1328 C 0.90068 0.45852 0.83067 0.0
C1329 C 0.93063 0.4761 0.87847 0.0
C1330 C 0.91022 0.45002 0.87533 0.0
C1331 C 0.87578 0.41409 0.84749 0.0
C1332 C 0.86194 0.40474 0.82306 0.0
C1333 C 0.89533 0.44087 0.85138 0.0
C1334 C 0.86677 0.42303 0.80297 0.0
C1335 C 0.88592 0.44972 0.80676 0.0
H1336 H 0.07612 0.89261 0.10784 0.0
H1337 H 0.16146 0.92976 0.1069 0.0
H1338 H 0.15417 0.97378 0.09147 0.0
H1339 H 0.12357 1.00238 0.0801 0.0
H1340 H 0.03819 0.96481 0.08116 0.0
H1341 H 0.04554 0.92031 0.0948 0.0
C1342 C 0.09314 0.91022 0.10401 0.0
C1343 C 0.1193 0.90793 0.10855 0.0
C1344 C 0.0888 0.93549 0.09542 0.0
C1345 C 0.14112 0.93095 0.10349 0.0
C1346 C 0.13696 0.95617 0.0948 0.0
C1347 C 0.10654 0.98449 0.08335 0.0
C1348 C 0.08035 0.98708 0.07979 0.0
C1349 C 0.1109 0.95883 0.09106 0.0
C1350 C 0.05855 0.96351 0.0838 0.0
C1351 C 0.06273 0.93801 0.09159 0.0
H1352 H 0.97778 0.31389 0.88927 0.0
H1353 H 0.93027 0.2889 0.95291 0.0
H1354 H 0.88995 0.29039 0.9266 0.0
H1355 H 0.8685 0.29928 0.88539 0.0
H1356 H 0.91713 0.32385 0.82219 0.0
H1357 H 0.95665 0.3219 0.84853 0.0
C1358 C 0.95861 0.30876 0.89745 0.0
C1359 C 0.957 0.30138 0.923 0.0
C1360 C 0.93569 0.30953 0.88226 0.0
C1361 C 0.932 0.29466 0.93325 0.0
C1362 C 0.90898 0.29551 0.91822 0.0
C1363 C 0.88771 0.30409 0.87734 0.0
C1364 C 0.88971 0.31172 0.85177 0.0
C1365 C 0.9106 0.30295 0.89266 0.0
C1366 C 0.91485 0.31794 0.84175 0.0
C1367 C 0.93756 0.31686 0.85681 0.0
H1368 H 0.64123 0.24042 0.62581 0.0
H1369 H 0.57679 0.25612 0.57818 0.0
H1370 H 0.56159 0.20533 0.56216 0.0
H1371 H 0.56531 0.15591 0.56368 0.0
H1372 H 0.63056 0.14118 0.611 0.0
H1373 H 0.64661 0.19214 0.62532 0.0
C1374 C 0.62404 0.23281 0.61168 0.0
C1375 C 0.61009 0.25193 0.60325 0.0
C1376 C 0.61536 0.20369 0.60278 0.0
C1377 C 0.58794 0.24182 0.58487 0.0
C1378 C 0.57912 0.21275 0.57587 0.0
C1379 C 0.583 0.16389 0.57716 0.0
C1380 C 0.59657 0.14474 0.58646 0.0
C1381 C 0.5924 0.19338 0.58507 0.0
C1382 C 0.61972 0.15544 0.60359 0.0
C1383 C 0.62894 0.18459 0.61178 0.0
H1384 H 0.61783 0.80751 0.44195 0.0
H1385 H 0.55769 0.75571 0.38437 0.0
H1386 H 0.59201 0.75644 0.35484 0.0
H1387 H 0.63872 0.77363 0.34465 0.0
H1388 H 0.69883 0.82614 0.40183 0.0
H1389 H 0.66497 0.82296 0.43238 0.0
C1390 C 0.61229 0.7962 0.42301 0.0
C1391 C 0.58528 0.78172 0.4153 0.0
C1392 C 0.63209 0.79687 0.40605 0.0
C1393 C 0.57836 0.76709 0.39074 0.0
C1394 C 0.59795 0.76753 0.37382 0.0
C1395 C 0.64437 0.78443 0.36379 0.0
C1396 C 0.67117 0.80025 0.37091 0.0
C1397 C 0.6248 0.78271 0.38114 0.0
C1398 C 0.67834 0.81367 0.39593 0.0
C1399 C 0.65897 0.812 0.41336 0.0
H1400 H 0.07496 0.2429 0.48713 0.0
H1401 H 0.09358 0.20863 0.41537 0.0
H1402 H 0.09276 0.16356 0.43434 0.0
H1403 H 0.08692 0.13204 0.4718 0.0
H1404 H 0.06507 0.16519 0.54255 0.0
H1405 H 0.06698 0.21057 0.52389 0.0
C1406 C 0.07891 0.22573 0.47546 0.0
C1407 C 0.08459 0.23043 0.44928 0.0
C1408 C 0.07778 0.19867 0.48658 0.0
C1409 C 0.08921 0.20677 0.43525 0.0
C1410 C 0.08875 0.18051 0.44626 0.0
C1411 C 0.08245 0.14902 0.48331 0.0
C1412 C 0.0758 0.14395 0.50921 0.0
C1413 C 0.08307 0.17587 0.472 0.0
C1414 C 0.07013 0.16722 0.52288 0.0
C1415 C 0.0713 0.19374 0.51206 0.0
H1416 H 0.65241 0.3015 0.2545 0.0
H1417 H 0.68066 0.35238 0.19181 0.0
H1418 H 0.72688 0.35495 0.2063 0.0
H1419 H 0.76124 0.34268 0.23677 0.0
H1420 H 0.73302 0.2919 0.29957 0.0
H1421 H 0.68688 0.2897 0.2853 0.0
C1422 C 0.66852 0.31333 0.2439 0.0
C1423 C 0.66174 0.32682 0.2216 0.0
C1424 C 0.69609 0.31478 0.25251 0.0
C1425 C 0.68404 0.3417 0.20881 0.0
C1426 C 0.71101 0.34318 0.2172 0.0
C1427 C 0.74518 0.33104 0.24752 0.0
C1428 C 0.75199 0.3174 0.26972 0.0
C1429 C 0.71764 0.32978 0.23903 0.0
C1430 C 0.7297 0.30274 0.28265 0.0
C1431 C 0.70274 0.30142 0.27436 0.0
H1432 H 0.5866 0.88 0.98854 0.0
H1433 H 0.58807 0.91109 0.91291 0.0
H1434 H 0.58795 0.95832 0.93122 0.0
H1435 H 0.58713 0.99243 0.96896 0.0
H1436 H 0.58673 0.96183 0.04477 0.0
H1437 H 0.58671 0.91453 0.02648 0.0
C1438 C 0.58694 0.89699 0.97592 0.0
C1439 C 0.58733 0.89091 0.94885 0.0
C1440 C 0.58699 0.92505 0.98683 0.0
C1441 C 0.58779 0.91414 0.93355 0.0
C1442 C 0.58768 0.9416 0.94415 0.0
C1443 C 0.587 0.97554 0.98165 0.0
C1444 C 0.58684 0.98177 1.00873 0.0
C1445 C 0.58722 0.94759 0.97081 0.0
C1446 C 0.58687 0.95871 0.02413 0.0
C1447 C 0.58684 0.93118 1.01353 0.0
H1448 H 1.00543 0.84873 0.7477 0.0
H1449 H 0.9734 0.77214 0.6967 0.0
H1450 H 0.92953 0.76505 0.71333 0.0
H1451 H 0.89801 0.78003 0.74261 0.0
H1452 H 0.92975 0.85727 0.79289 0.0
H1453 H 0.97378 0.86393 0.77677 0.0
C1454 C 0.98905 0.83032 0.74006 0.0
C1455 C 0.99422 0.811 0.72035 0.0
C1456 C 0.9627 0.82621 0.7499 0.0
C1457 C 0.97143 0.78768 0.7115 0.0
C1458 C 0.94575 0.78351 0.72121 0.0
C1459 C 0.91439 0.7984 0.75033 0.0
C1460 C 0.90908 0.81794 0.76975 0.0
C1461 C 0.94074 0.80252 0.74049 0.0
C1462 C 0.93181 0.84143 0.77843 0.0
C1463 C 0.9576 0.84539 0.76899 0.0
H1464 H 0.14212 1.01718 0.91721 0.0
H1465 H 0.21176 0.08467 0.94941 0.0
H1466 H 0.19037 0.08834 0.98904 0.0
H1467 H 0.1493 0.07705 1.01167 0.0
H1468 H 0.07951 1.01021 0.97828 0.0
H1469 H 0.10355 1.00172 0.94199 0.0
C1470 C 0.15283 0.03227 0.93311 0.0
C1471 C 0.17816 0.05097 0.9303 0.0
C1472 C 0.14018 0.03482 0.95541 0.0
C1473 C 0.19205 0.07018 0.95111 0.0
C1474 C 0.17976 0.07248 0.97367 0.0
C1475 C 0.13946 0.06054 0.99652 0.0
C1476 C 0.11254 0.04477 0.9974 0.0
C1477 C 0.15337 0.05576 0.97555 0.0
C1478 C 0.10017 1.02295 0.97794 0.0
C1479 C 0.11388 1.018 0.95715 0.0
H1480 H 0.8059 0.44004 0.58922 0.0
H1481 H 0.82453 0.37601 0.53958 0.0
H1482 H 0.83038 0.34898 0.57658 0.0
H1483 H 0.8349 0.34655 0.62335 0.0
H1484 H 0.82178 0.41431 0.673 0.0
H1485 H 0.80863 0.43657 0.63574 0.0
C1486 C 0.81055 0.41978 0.58648 0.0
C1487 C 0.81469 0.40987 0.56186 0.0
C1488 C 0.81523 0.40524 0.6079 0.0
C1489 C 0.82119 0.38391 0.55847 0.0
C1490 C 0.82472 0.36861 0.5796 0.0
C1491 C 0.82932 0.36627 0.62605 0.0
C1492 C 0.82952 0.37873 0.65102 0.0
C1493 C 0.82272 0.37963 0.60449 0.0
C1494 C 0.82154 0.40394 0.65409 0.0
C1495 C 0.81416 0.41686 0.63276 0.0
H1496 H 0.55898 0.09868 0.39968 0.0
H1497 H 0.48098 0.10565 0.41507 0.0
H1498 H 0.49174 0.10366 0.46119 0.0
H1499 H 0.52128 0.09331 0.49599 0.0
H1500 H 0.59972 0.0877 0.4801 0.0
H1501 H 0.59098 0.09609 0.43524 0.0
C1502 C 0.5446 0.10036 0.41327 0.0
C1503 C 0.51919 0.10186 0.40427 0.0
C1504 C 0.55089 0.0991 0.4395 0.0
C1505 C 0.50071 0.10446 0.4218 0.0
C1506 C 0.50677 0.10307 0.44806 0.0
C1507 C 0.53652 0.0943 0.48271 0.0
C1508 C 0.56085 0.08938 0.49107 0.0
C1509 C 0.53143 0.09931 0.45697 0.0
C1510 C 0.58075 0.09129 0.47398 0.0
C1511 C 0.57576 0.09598 0.44834 0.0
H1512 H 0.79334 0.77034 0.1276 0.0
H1513 H 0.87929 0.79503 0.12669 0.0
H1514 H 0.88449 0.80462 0.17355 0.0
H1515 H 0.8646 0.8045 0.21545 0.0
H1516 H 0.77844 0.77927 0.21577 0.0
H1517 H 0.77357 0.77142 0.16905 0.0
C1518 C 0.81325 0.77818 0.13756 0.0
C1519 C 0.83588 0.78211 0.1233 0.0
C1520 C 0.81613 0.78333 0.16472 0.0
C1521 C 0.86146 0.79198 0.13687 0.0
C1522 C 0.86446 0.79734 0.16382 0.0
C1523 C 0.84473 0.7973 0.20536 0.0
C1524 C 0.82194 0.79246 0.21959 0.0
C1525 C 0.84194 0.79281 0.17807 0.0
C1526 C 0.79644 0.7832 0.20576 0.0
C1527 C 0.79358 0.7787 0.17884 0.0
H1528 H 0.17814 0.11525 0.78805 0.0
H1529 H 0.11285 0.04354 0.8048 0.0
H1530 H 0.08503 0.05191 0.76782 0.0
H1531 H 0.08129 0.07718 0.72856 0.0
H1532 H 0.14719 0.149 0.71288 0.0
H1533 H 0.17288 0.14319 0.75195 0.0
C1534 C 0.15776 0.10149 0.78365 0.0
C1535 C 0.14759 0.0785 0.79865 0.0
C1536 C 0.14213 0.10649 0.76266 0.0
C1537 C 0.12104 0.06123 0.79326 0.0
C1538 C 0.10524 0.06601 0.77217 0.0
C1539 C 0.10102 0.09192 0.73407 0.0
C1540 C 0.11252 0.11328 0.71781 0.0
C1541 C 0.1158 0.08825 0.75644 0.0
C1542 C 0.13816 0.13216 0.72497 0.0
C1543 C 0.15283 0.12884 0.74725 0.0
H1544 H 0.83497 0.45939 0.41663 0.0
H1545 H 0.77903 0.39175 0.45134 0.0
H1546 H 0.77652 0.35873 0.41375 0.0
H1547 H 0.79468 0.34761 0.37374 0.0
H1548 H 0.84983 0.4153 0.33837 0.0
H1549 H 0.84803 0.44994 0.37343 0.0
C1550 C 0.82184 0.43757 0.4157 0.0
C1551 C 0.80754 0.42783 0.43682 0.0
C1552 C 0.82065 0.41867 0.39413 0.0
C1553 C 0.79031 0.39968 0.43533 0.0
C1554 C 0.78902 0.38074 0.41393 0.0
C1555 C 0.80613 0.37 0.37364 0.0
C1556 C 0.82286 0.37883 0.35394 0.0
C1557 C 0.80486 0.38974 0.39369 0.0
C1558 C 0.83704 0.408 0.35355 0.0
C1559 C 0.83606 0.42777 0.37359 0.0
H1560 H 0.58059 0.08797 0.30202 0.0
H1561 H 0.53864 0.14264 0.26654 0.0
H1562 H 0.56382 0.14336 0.22883 0.0
H1563 H 0.58722 0.11715 0.20221 0.0
H1564 H 0.62576 0.0588 0.23644 0.0
H1565 H 0.61288 0.07116 0.27859 0.0
C1566 C 0.57765 0.10082 0.28637 0.0
C1567 C 0.55724 0.11439 0.28651 0.0
C1568 C 0.5912 0.09996 0.26436 0.0
C1569 C 0.55398 0.13162 0.26658 0.0
C1570 C 0.5682 0.1318 0.24493 0.0
C1571 C 0.59385 0.10811 0.21907 0.0
C1572 C 0.60675 0.08651 0.21623 0.0
C1573 C 0.58534 0.11434 0.24293 0.0
C1574 C 0.61527 0.075 0.23819 0.0
C1575 C 0.60781 0.08196 0.26223 0.0
H1576 H 0.8391 0.74078 0.95409 0.0
H1577 H 0.82867 0.8209 0.9839 0.0
H1578 H 0.83078 0.83817 0.94068 0.0
H1579 H 0.83455 0.83021 0.89388 0.0
H1580 H 0.84467 0.74977 0.86427 0.0
H1581 H 0.84384 0.73324 0.90761 0.0
C1582 C 0.83738 0.7621 0.95124 0.0
C1583 C 0.8337 0.77945 0.97257 0.0
C1584 C 0.83857 0.77193 0.92614 0.0
C1585 C 0.83152 0.80699 0.96813 0.0
C1586 C 0.83271 0.81689 0.94329 0.0
C1587 C 0.8368 0.80912 0.89684 0.0
C1588 C 0.83979 0.79141 0.87542 0.0
C1589 C 0.83612 0.79954 0.92206 0.0
C1590 C 0.84245 0.76407 0.88004 0.0
C1591 C 0.84191 0.75451 0.90497 0.0
H1592 H 0.86998 0.11329 0.07202 0.0
H1593 H 0.88788 0.17094 1.01159 0.0
H1594 H 0.90501 0.1367 0.98739 0.0
H1595 H 0.91768 0.09206 0.98485 0.0
H1596 H 0.903 0.03628 0.04699 0.0
H1597 H 0.88042 0.06729 0.06828 0.0
C1598 C 0.87764 0.11833 0.05356 0.0
C1599 C 0.87807 0.1447 0.04376 0.0
C1600 C 0.88751 0.09862 0.03979 0.0
C1601 C 0.88767 0.15086 0.01966 0.0
C1602 C 0.89731 0.13125 1.00574 0.0
C1603 C 0.90933 0.08655 1.00294 0.0
C1604 C 0.91231 0.06204 0.01436 0.0
C1605 C 0.89767 0.10526 0.01581 0.0
C1606 C 0.90078 0.05481 0.03751 0.0
C1607 C 0.88825 0.07282 0.04999 0.0
H1608 H 0.41051 0.47342 0.0534 0.0
H1609 H 0.44127 0.39997 0.04884 0.0
H1610 H 0.48598 0.43145 0.04371 0.0
H1611 H 0.51607 0.4795 0.0407 0.0
H1612 H 0.48616 0.55347 0.04695 0.0
H1613 H 0.44106 0.52195 0.05109 0.0
C1614 C 0.42702 0.46431 0.05129 0.0
C1615 C 0.42264 0.43441 0.05145 0.0
C1616 C 0.45265 0.48256 0.04853 0.0
C1617 C 0.44418 0.42291 0.04884 0.0
C1618 C 0.46969 0.44088 0.04583 0.0
C1619 C 0.49968 0.48881 0.04273 0.0
C1620 C 0.50438 0.5188 0.04326 0.0
C1621 C 0.4741 0.47068 0.0456 0.0
C1622 C 0.483 0.53046 0.04636 0.0
C1623 C 0.45727 0.51246 0.04878 0.0
H1624 H 0.40364 0.6218 0.76927 0.0
H1625 H 0.4601 0.65262 0.83612 0.0
H1626 H 0.42722 0.67066 0.85738 0.0
H1627 H 0.38252 0.67745 0.85688 0.0
H1628 H 0.32713 0.64872 0.78887 0.0
H1629 H 0.359 0.62852 0.76883 0.0
C1630 C 0.40885 0.63278 0.78837 0.0
C1631 C 0.43426 0.63618 0.80103 0.0
C1632 C 0.38979 0.64263 0.80059 0.0
C1633 C 0.44067 0.65002 0.82592 0.0
C1634 C 0.42184 0.66009 0.83816 0.0
C1635 C 0.37738 0.66675 0.83769 0.0
C1636 C 0.35241 0.6647 0.8245 0.0
C1637 C 0.39629 0.65636 0.82571 0.0
C1638 C 0.34591 0.65018 0.79982 0.0
C1639 C 0.36435 0.63906 0.78807 0.0
H1640 H 0.25796 0.66831 0.52928 0.0
H1641 H 0.27512 0.61812 0.59024 0.0
H1642 H 0.22795 0.58994 0.58716 0.0
H1643 H 0.18166 0.5817 0.56897 0.0
H1644 H 0.16418 0.63369 0.50959 0.0
H1645 H 0.21184 0.65908 0.51018 0.0
C1646 C 0.25141 0.651 0.54171 0.0
C1647 C 0.26989 0.64526 0.55998 0.0
C1648 C 0.22426 0.63539 0.54021 0.0
C1649 C 0.26119 0.62292 0.57606 0.0
C1650 C 0.23425 0.60687 0.57433 0.0
C1651 C 0.18827 0.59839 0.55596 0.0
C1652 C 0.16942 0.60587 0.5393 0.0
C1653 C 0.21558 0.61323 0.55675 0.0
C1654 C 0.1783 0.62766 0.5227 0.0
C1655 C 0.20553 0.64217 0.52301 0.0
H1656 H 0.81648 0.05189 0.75993 0.0
H1657 H 0.76394 0.97234 0.72319 0.0
H1658 H 0.80157 0.95214 0.72184 0.0
H1659 H 0.84557 0.95323 0.74043 0.0
H1660 H 0.89712 0.03041 0.78192 0.0
H1661 H 0.86417 0.05595 0.77097 0.0
C1662 C 0.81345 0.03038 0.75109 0.0
C1663 C 0.78744 1.01327 0.74233 0.0
C1664 C 0.83502 1.01853 0.75127 0.0
C1665 C 0.78373 0.98562 0.7306 0.0
C1666 C 0.80524 0.97411 0.72976 0.0
C1667 C 0.85034 0.97601 0.74611 0.0
C1668 C 0.87344 0.98967 0.76266 0.0
C1669 C 0.83057 0.9898 0.74136 0.0
C1670 C 0.87922 1.01927 0.76958 0.0
C1671 C 0.86019 0.03373 0.76364 0.0
H1672 H 0.75926 0.91069 0.57315 0.0
H1673 H 0.81213 0.96277 0.52322 0.0
H1674 H 0.78313 0.99394 0.51943 0.0
H1675 H 0.74305 1.00661 0.53025 0.0
H1676 H 0.69047 0.95597 0.58116 0.0
H1677 H 0.71877 0.92371 0.58421 0.0
C1678 C 0.76436 0.92885 0.56144 0.0
C1679 C 0.7878 0.93443 0.54853 0.0
C1680 C 0.74762 0.94685 0.5594 0.0
C1681 C 0.79421 0.95803 0.53341 0.0
C1682 C 0.77764 0.97588 0.53119 0.0
C1683 C 0.73789 0.9887 0.54224 0.0
C1684 C 0.71477 0.98382 0.55556 0.0
C1685 C 0.75438 0.97055 0.54417 0.0
C1686 C 0.70805 0.96008 0.57052 0.0
C1687 C 0.72431 0.94173 0.5724 0.0
H1688 H 0.4351 0.48589 0.75269 0.0
H1689 H 0.41403 0.52469 0.82124 0.0
H1690 H 0.38013 0.47971 0.82722 0.0
H1691 H 0.35781 0.42856 0.81382 0.0
H1692 H 0.38039 0.38999 0.74598 0.0
H1693 H 0.41197 0.43581 0.73855 0.0
C1694 C 0.42313 0.48448 0.76897 0.0
C1695 C 0.42719 0.5084 0.78661 0.0
C1696 C 0.40375 0.45868 0.77225 0.0
C1697 C 0.41139 0.5064 0.8075 0.0
C1698 C 0.39193 0.48076 0.81087 0.0
C1699 C 0.36931 0.43045 0.79719 0.0
C1700 C 0.36686 0.40613 0.78045 0.0
C1701 C 0.38802 0.4567 0.79343 0.0
C1702 C 0.38208 0.40855 0.75914 0.0
C1703 C 0.4002 0.43465 0.75494 0.0
H1704 H 0.26324 0.6254 0.27388 0.0
H1705 H 0.20458 0.64787 0.31837 0.0
H1706 H 0.22717 0.69899 0.31569 0.0
H1707 H 0.26433 0.73706 0.30169 0.0
H1708 H 0.32334 0.71398 0.25795 0.0
H1709 H 0.29968 0.66319 0.25926 0.0
C1710 C 0.25533 0.64147 0.28295 0.0
C1711 C 0.23234 0.63293 0.29637 0.0
C1712 C 0.26845 0.67065 0.28145 0.0
C1713 C 0.22231 0.65396 0.30799 0.0
C1714 C 0.2352 0.68315 0.30645 0.0
C1715 C 0.27191 0.72094 0.29226 0.0
C1716 C 0.2956 0.72933 0.27975 0.0
C1717 C 0.25838 0.69172 0.29334 0.0
C1718 C 0.30521 0.70814 0.26777 0.0
C1719 C 0.29171 0.67907 0.26852 0.0
H1720 H 0.5055 0.68821 0.47668 0.0
H1721 H 0.55447 0.74801 0.5371 0.0
H1722 H 0.56769 0.70893 0.55637 0.0
H1723 H 0.56831 0.65869 0.55405 0.0
H1724 H 0.5198 0.59882 0.49334 0.0
H1725 H 0.50343 0.63704 0.47625 0.0
C1726 C 0.51872 0.69262 0.4943 0.0
C1727 C 0.5291 0.72102 0.50536 0.0
C1728 C 0.52662 0.67011 0.50503 0.0
C1729 C 0.54622 0.72636 0.52818 0.0
C1730 C 0.55391 0.70405 0.53914 0.0
C1731 C 0.5541 0.65391 0.53711 0.0
C1732 C 0.54565 0.62596 0.52479 0.0
C1733 C 0.54477 0.67599 0.52736 0.0
C1734 C 0.52688 0.62016 0.50309 0.0
C1735 C 0.51747 0.64202 0.49331 0.0
H1736 H 0.68175 0.35553 0.72301 0.0
H1737 H 0.7193 0.33935 0.65511 0.0
H1738 H 0.75741 0.33351 0.68203 0.0
H1739 H 0.7776 0.32836 0.72472 0.0
H1740 H 0.73977 0.34473 0.79248 0.0
H1741 H 0.70382 0.35458 0.7656 0.0
C1742 C 0.69845 0.35115 0.71407 0.0
C1743 C 0.69763 0.34763 0.68713 0.0
C1744 C 0.7199 0.34725 0.7296 0.0
C1745 C 0.71948 0.34214 0.67582 0.0
C1746 C 0.74113 0.33855 0.6912 0.0
C1747 C 0.76163 0.33429 0.73366 0.0
C1748 C 0.76131 0.33557 0.7606 0.0
C1749 C 0.74115 0.34024 0.7181 0.0
C1750 C 0.74047 0.34341 0.77181 0.0
C1751 C 0.71992 0.34913 0.75646 0.0
H1752 H 0.06981 0.40105 0.98623 0.0
H1753 H 1.01188 0.36069 0.03762 0.0
H1754 H 1.01718 0.40748 0.06072 0.0
H1755 H 0.03848 0.46028 0.0662 0.0
H1756 H 0.09675 0.49939 0.01443 0.0
H1757 H 0.09093 0.45285 0.99165 0.0
C1758 C 0.05837 0.40241 1.00254 0.0
C1759 C 0.04051 0.37736 1.01019 0.0
C1760 C 0.06148 0.4293 0.01564 0.0
C1761 C 1.02585 0.37961 0.03137 0.0
C1762 C 1.02881 0.4064 0.04454 0.0
C1763 C 0.04974 0.45861 0.04984 0.0
C1764 C 0.06801 0.48346 0.04211 0.0
C1765 C 0.04653 0.43147 0.0368 0.0
C1766 C 0.08261 0.48076 0.02096 0.0
C1767 C 0.07933 0.45409 1.00785 0.0
H1768 H 0.0446 0.78876 0.17546 0.0
H1769 H 0.09171 0.85999 0.22742 0.0
H1770 H 0.05597 0.85142 0.25629 0.0
H1771 H 1.01101 0.82475 0.26601 0.0
H1772 H 0.96329 0.75412 0.21391 0.0
H1773 H 0.99971 0.76145 0.18562 0.0
C1774 C 0.04706 0.80233 0.19315 0.0
C1775 C 0.07068 0.82498 0.19934 0.0
C1776 C 1.02639 0.79741 0.20953 0.0
C1777 C 0.07364 0.84246 0.22225 0.0
C1778 C 0.05326 0.83757 0.23876 0.0
C1779 C 1.00876 0.81065 0.24867 0.0
C1780 C 0.98469 0.78876 0.2421 0.0
C1781 C 1.02955 0.8152 0.23251 0.0
C1782 C 0.9817 0.77111 0.21928 0.0
C1783 C 1.00248 0.77529 0.20317 0.0
H1784 H 0.58436 0.42802 0.16786 0.0
H1785 H 0.5812 0.37013 0.1016 0.0
H1786 H 0.58357 0.40925 0.07354 0.0
H1787 H 0.58621 0.46108 0.06648 0.0
H1788 H 0.58702 0.51823 0.13268 0.0
H1789 H 0.58599 0.47948 0.16074 0.0
C1790 C 0.58422 0.42372 0.14729 0.0
C1791 C 0.58265 0.39505 0.13752 0.0
C1792 C 0.58523 0.4469 0.13062 0.0
C1793 C 0.58236 0.39116 0.11042 0.0
C1794 C 0.58376 0.41392 0.09406 0.0
C1795 C 0.58636 0.46537 0.08704 0.0
C1796 C 0.58699 0.4938 0.09678 0.0
C1797 C 0.58521 0.44212 0.1037 0.0
C1798 C 0.58668 0.49746 0.12384 0.0
C1799 C 0.58605 0.4749 0.14023 0.0
H1800 H 1.0154 0.3379 0.34672 0.0
H1801 H 0.98713 0.26985 0.39618 0.0
H1802 H 0.94071 0.26671 0.3817 0.0
H1803 H 0.9062 0.28327 0.35497 0.0
H1804 H 0.93464 0.35286 0.30701 0.0
H1805 H 0.98092 0.35503 0.32062 0.0
C1806 C 0.99925 0.32217 0.35437 0.0
C1807 C 1.00604 0.30393 0.37284 0.0
C1808 C 0.97161 0.3207 0.34609 0.0
C1809 C 0.9837 0.28426 0.38213 0.0
C1810 C 0.95664 0.28244 0.37374 0.0
C1811 C 0.92235 0.29902 0.34734 0.0
C1812 C 0.91556 0.3179 0.32947 0.0
C1813 C 0.94999 0.30055 0.35571 0.0
C1814 C 0.93795 0.3379 0.32055 0.0
C1815 C 0.96499 0.33918 0.32844 0.0
H1816 H 0.08424 0.71724 0.66253 0.0
H1817 H 0.05913 0.75737 0.59782 0.0
H1818 H 0.06053 0.71654 0.56888 0.0
H1819 H 0.06928 0.6682 0.56082 0.0
H1820 H 0.09595 0.62955 0.62598 0.0
H1821 H 0.09344 0.6697 0.65454 0.0
C1822 C 0.07893 0.71722 0.64212 0.0
C1823 C 0.07138 0.74128 0.63298 0.0
C1824 C 0.0801 0.69323 0.62504 0.0
C1825 C 0.06495 0.73988 0.60608 0.0
C1826 C 0.06578 0.71617 0.58925 0.0
C1827 C 0.07455 0.66834 0.58125 0.0
C1828 C 0.08284 0.64468 0.59052 0.0
C1829 C 0.07338 0.69249 0.59829 0.0
C1830 C 0.08953 0.64654 0.61745 0.0
C1831 C 0.08808 0.66991 0.63417 0.0
H1832 H 0.65083 0.77975 0.843 0.0
H1833 H 0.68212 0.8531 0.89785 0.0
H1834 H 0.72663 0.86075 0.88255 0.0
H1835 H 0.75894 0.84697 0.85358 0.0
H1836 H 0.72826 0.77179 0.80064 0.0
H1837 H 0.68343 0.76521 0.81481 0.0
C1838 C 0.66719 0.7976 0.85172 0.0
C1839 C 0.66166 0.81588 0.87202 0.0
C1840 C 0.69395 0.8018 0.84292 0.0
C1841 C 0.68442 0.8384 0.88247 0.0
C1842 C 0.71045 0.8429 0.87356 0.0
C1843 C 0.74259 0.82913 0.84484 0.0
C1844 C 0.74839 0.81015 0.82529 0.0
C1845 C 0.71586 0.82483 0.85374 0.0
C1846 C 0.72577 0.78716 0.81533 0.0
C1847 C 0.69954 0.78326 0.8236 0.0
H1848 H 0.53769 0.61746 0.70642 0.0
H1849 H 0.45609 0.57063 0.67982 0.0
H1850 H 0.46963 0.56262 0.63684 0.0
H1851 H 0.50559 0.56452 0.60835 0.0
H1852 H 0.58747 0.60918 0.63645 0.0
H1853 H 0.57287 0.62233 0.6773 0.0
C1854 C 0.52278 0.60598 0.6911 0.0
C1855 C 0.49601 0.59451 0.69625 0.0
C1856 C 0.53084 0.60062 0.66681 0.0
C1857 C 0.47688 0.57959 0.67627 0.0
C1858 C 0.48463 0.57486 0.65176 0.0
C1859 C 0.52018 0.57733 0.62334 0.0
C1860 C 0.54759 0.58547 0.61947 0.0
C1861 C 0.51171 0.58452 0.64704 0.0
C1862 C 0.56627 0.60221 0.63904 0.0
C1863 C 0.55796 0.60987 0.66241 0.0
H1864 H 0.80978 0.27987 0.05814 0.0
H1865 H 0.8866 0.27895 0.03326 0.0
H1866 H 0.88062 0.30784 0.99793 0.0
H1867 H 0.84936 0.32328 0.96923 0.0
H1868 H 0.77216 0.32387 0.99347 0.0
H1869 H 0.78262 0.30527 0.0341 0.0
C1870 C 0.82555 0.28674 0.04543 0.0
C1871 C 0.84823 0.27669 0.04783 0.0
C1872 C 0.82168 0.30274 0.02477 0.0
C1873 C 0.86876 0.28611 0.03157 0.0
C1874 C 0.86527 0.30248 1.01124 0.0
C1875 C 0.83517 0.32049 0.98373 0.0
C1876 C 0.80968 0.32417 0.97797 0.0
C1877 C 0.84116 0.30946 1.00686 0.0
C1878 C 0.79162 0.32034 0.9971 0.0
C1879 C 0.79759 0.30975 0.02036 0.0
H1880 H 0.12098 0.53866 0.24164 0.0
H1881 H 0.18207 0.50515 0.21205 0.0
H1882 H 0.16014 0.50074 0.16842 0.0
H1883 H 0.1272 0.51268 0.13858 0.0
H1884 H 0.0667 0.54713 0.16865 0.0
H1885 H 0.08453 0.54425 0.21239 0.0
C1886 C 0.12927 0.53004 0.22565 0.0
C1887 C 0.15328 0.52277 0.22978 0.0
C1888 C 0.11674 0.52781 0.2008 0.0
C1889 C 0.16364 0.51107 0.20915 0.0
C1890 C 0.15118 0.50865 0.18426 0.0
C1891 C 0.11758 0.51905 0.15469 0.0
C1892 C 0.09604 0.5307 0.15037 0.0
C1893 C 0.12823 0.51787 0.17981 0.0
C1894 C 0.08354 0.53844 0.17143 0.0
C1895 C 0.09378 0.53693 0.19647 0.0
H1896 H 0.86237 0.83547 0.47476 0.0
H1897 H 0.78279 0.84519 0.47402 0.0
H1898 H 0.77641 0.83539 0.42736 0.0
H1899 H 0.79403 0.82607 0.38594 0.0
H1900 H 0.87321 0.81514 0.38685 0.0
H1901 H 0.87898 0.8234 0.4336 0.0
C1902 C 0.84347 0.83501 0.46447 0.0
C1903 C 0.82311 0.84105 0.4782 0.0
C1904 C 0.83989 0.82945 0.43732 0.0
C1905 C 0.79886 0.84054 0.46423 0.0
C1906 C 0.79521 0.83508 0.43738 0.0
C1907 C 0.81255 0.8255 0.39633 0.0
C1908 C 0.83318 0.82012 0.38254 0.0
C1909 C 0.81571 0.82992 0.42358 0.0
C1910 C 0.85689 0.81918 0.39666 0.0
C1911 C 0.86027 0.82393 0.42356 0.0
H1912 H 0.55703 0.55398 0.8006 0.0
H1913 H 0.54958 0.63241 0.83768 0.0
H1914 H 0.58 0.62865 0.87401 0.0
H1915 H 0.60054 0.598 0.89842 0.0
H1916 H 0.60953 0.52014 0.86132 0.0
H1917 H 0.58687 0.52905 0.82156 0.0
C1918 C 0.56265 0.5706 0.81636 0.0
C1919 C 0.55065 0.59302 0.81684 0.0
C1920 C 0.58005 0.56822 0.83727 0.0
C1921 C 0.55839 0.61476 0.83704 0.0
C1922 C 0.57568 0.61256 0.85789 0.0
C1923 C 0.59867 0.58348 0.88146 0.0
C1924 C 0.60595 0.55787 0.88323 0.0
C1925 C 0.58554 0.58863 0.85872 0.0
C1926 C 0.60325 0.53951 0.86081 0.0
C1927 C 0.5903 0.54457 0.83804 0.0
H1928 H 0.82971 0.19116 0.17022 0.0
H1929 H 0.90262 0.25409 0.15473 0.0
H1930 H 0.90541 0.27838 0.19739 0.0
H1931 H 0.88311 0.28618 0.23549 0.0
H1932 H 0.8087 0.225 0.24998 0.0
H1933 H 0.81072 0.19529 0.21138 0.0
C1934 C 0.84657 0.20979 0.17642 0.0
C1935 C 0.86568 0.22117 0.15923 0.0
C1936 C 0.84751 0.22419 0.20058 0.0
C1937 C 0.88753 0.24513 0.16755 0.0
C1938 C 0.88903 0.25911 0.19187 0.0
C1939 C 0.86747 0.26616 0.23042 0.0
C1940 C 0.84541 0.25819 0.24517 0.0
C1941 C 0.86846 0.24959 0.20798 0.0
C1942 C 0.8257 0.23184 0.23872 0.0
C1943 C 0.8268 0.21488 0.21662 0.0
H1944 H 0.1072 0.51565 0.31798 0.0
H1945 H 0.16162 0.50864 0.38145 0.0
H1946 H 0.1264 0.50444 0.41069 0.0
H1947 H 0.08448 0.51375 0.41932 0.0
H1948 H 1.03339 0.5307 0.35753 0.0
H1949 H 0.0623 0.51915 0.32614 0.0
C1950 C 0.11086 0.51217 0.33806 0.0
C1951 C 0.13663 0.51234 0.34781 0.0
C1952 C 0.0911 0.51182 0.35494 0.0
C1953 C 0.14174 0.50849 0.3738 0.0
C1954 C 0.12168 0.5062 0.39043 0.0
C1955 C 0.07902 0.51364 0.39889 0.0
C1956 C 0.05688 0.52289 0.3906 0.0
C1957 C 0.0968 0.50935 0.38143 0.0
C1958 C 0.05031 0.52344 0.36418 0.0
C1959 C 0.067 0.51719 0.34636 0.0
H1960 H 0.79894 0.82812 0.62765 0.0
H1961 H 0.88133 0.88043 0.63868 0.0
H1962 H 0.88157 0.87589 0.68487 0.0
H1963 H 0.8586 0.85765 0.72282 0.0
H1964 H 0.77725 0.80277 0.71233 0.0
H1965 H 0.77638 0.80788 0.6659 0.0
C1966 C 0.81703 0.83828 0.64012 0.0
C1967 C 0.84013 0.85459 0.62932 0.0
C1968 C 0.81717 0.8354 0.66708 0.0
C1969 C 0.86327 0.86762 0.64609 0.0
C1970 C 0.86341 0.86517 0.6727 0.0
C1971 C 0.84055 0.84701 0.71044 0.0
C1972 C 0.81786 0.83017 0.72137 0.0
C1973 C 0.84046 0.84933 0.68352 0.0
C1974 C 0.79495 0.81605 0.7047 0.0
C1975 C 0.79448 0.8189 0.67802 0.0
H1976 H 0.80872 0.54766 0.55468 0.0
H1977 H 0.78647 0.53875 0.47298 0.0
H1978 H 0.76262 0.57511 0.47799 0.0
H1979 H 0.74221 0.60295 0.50663 0.0
H1980 H 0.76305 0.60992 0.58849 0.0
H1981 H 0.79453 0.58191 0.58235 0.0
C1982 C 0.79894 0.55402 0.53796 0.0
C1983 C 0.79862 0.5402 0.51362 0.0
C1984 C 0.78532 0.57476 0.54103 0.0
C1985 C 0.78658 0.54897 0.49194 0.0
C1986 C 0.77299 0.56971 0.49481 0.0
C1987 C 0.75432 0.59904 0.52299 0.0
C1988 C 0.75011 0.60796 0.54797 0.0
C1989 C 0.77141 0.58189 0.51939 0.0
C1990 C 0.76604 0.60326 0.56908 0.0
C1991 C 0.7837 0.58686 0.56561 0.0
H1992 H 0.25267 0.15531 0.55198 0.0
H1993 H 0.22414 0.23029 0.55599 0.0
H1994 H 0.17943 0.20034 0.56315 0.0
H1995 H 0.14828 0.15293 0.56735 0.0
H1996 H 0.17591 0.07744 0.56129 0.0
H1997 H 0.22128 0.10759 0.55624 0.0
C1998 C 0.23665 0.16509 0.55439 0.0
C1999 C 0.24172 0.19501 0.55338 0.0
C2000 C 0.21092 0.14768 0.55836 0.0
C2001 C 0.22075 0.20733 0.55653 0.0
C2002 C 0.19521 0.19022 0.56074 0.0
C2003 C 0.16428 0.14304 0.5653 0.0
C2004 C 0.15874 0.11295 0.56494 0.0
C2005 C 0.19007 0.1604 0.56167 0.0
C2006 C 0.17966 0.10053 0.56178 0.0
C2007 C 0.20557 0.11776 0.55877 0.0
H2008 H 0.27874 0.03487 0.84562 0.0
H2009 H 0.20753 0.99522 0.79465 0.0
H2010 H 0.23301 0.97196 0.76785 0.0
H2011 H 0.27515 0.96251 0.75931 0.0
H2012 H 0.34514 0.99768 0.81312 0.0
H2013 H 0.32089 0.02451 0.83746 0.0
C2014 C 0.2688 1.02099 0.82873 0.0
C2015 C 0.24133 1.01657 0.82218 0.0
C2016 C 0.28349 1.00751 0.81355 0.0
C2017 C 0.22864 0.99865 0.80022 0.0
C2018 C 0.24323 0.98558 0.78478 0.0
C2019 C 0.28515 0.97589 0.77643 0.0
C2020 C 0.31194 0.97778 0.78433 0.0
C2021 C 0.27063 0.98983 0.79131 0.0
C2022 C 0.32471 0.99604 0.80617 0.0
C2023 C 0.3107 1.01106 0.82044 0.0
H2024 H 0.41191 0.03841 1.00805 0.0
H2025 H 0.40983 0.94927 0.997 0.0
H2026 H 0.45818 0.96206 1.00812 0.0
H2027 H 0.50057 0.99838 0.02332 0.0
H2028 H 0.50302 0.08772 0.03219 0.0
H2029 H 0.45482 0.0751 0.01982 0.0
C2030 C 0.42215 1.02188 1.00778 0.0
C2031 C 0.40748 0.99301 1.0019 0.0
C2032 C 0.44984 0.02937 0.01416 0.0
C2033 C 0.42084 0.9717 1.00139 0.0
C2034 C 0.4484 0.97895 1.00794 0.0
C2035 C 0.49042 1.01497 0.02263 0.0
C2036 C 0.50493 0.04379 0.02898 0.0
C2037 C 0.46298 1.00764 0.01485 0.0
C2038 C 0.49197 0.06534 0.02748 0.0
C2039 C 0.46453 0.05816 0.02038 0.0
H2040 H 0.91472 0.59891 0.8626 0.0
H2041 H 0.982 0.66016 0.83457 0.0
H2042 H 0.95199 0.68514 0.81526 0.0
H2043 H 0.90683 0.68774 0.80418 0.0
H2044 H 0.83926 0.62801 0.83323 0.0
H2045 H 0.86925 0.60326 0.85339 0.0
C2046 C 0.92283 0.61802 0.85264 0.0
C2047 C 0.95047 0.62774 0.84997 0.0
C2048 C 0.90544 0.63196 0.84121 0.0
C2049 C 0.96077 0.65236 0.83689 0.0
C2050 C 0.94364 0.66649 0.82568 0.0
C2051 C 0.89863 0.66954 0.81522 0.0
C2052 C 0.8709 0.65982 0.81734 0.0
C2053 C 0.91595 0.65614 0.82734 0.0
C2054 C 0.86052 0.6357 0.83106 0.0
C2055 C 0.87768 0.62179 0.84285 0.0
H2056 H 0.90803 0.71478 0.04198 0.0
H2057 H 0.84661 0.6659 0.0862 0.0
H2058 H 0.87282 0.6327 0.09485 0.0
H2059 H 0.91276 0.6171 0.08956 0.0
H2060 H 0.97341 0.66398 0.04348 0.0
H2061 H 0.94818 0.69854 0.0362 0.0
C2062 C 0.90052 0.69696 0.05363 0.0
C2063 C 0.87544 0.69283 0.06345 0.0
C2064 C 0.91555 0.67755 0.05821 0.0
C2065 C 0.86583 0.66952 0.07835 0.0
C2066 C 0.8808 0.65049 0.08332 0.0
C2067 C 0.92036 0.63464 0.07764 0.0
C2068 C 0.94496 0.63779 0.06706 0.0
C2069 C 0.90556 0.65416 0.07318 0.0
C2070 C 0.9547 0.66113 0.05215 0.0
C2071 C 0.9402 0.68086 0.04784 0.0
H2072 H 0.27418 0.1496 0.8504 0.0
H2073 H 0.19893 0.16675 0.86151 0.0
H2074 H 0.21621 0.21485 0.8466 0.0
H2075 H 0.25233 0.25103 0.8282 0.0
H2076 H 0.32678 0.23202 0.81676 0.0
H2077 H 0.30991 0.18527 0.83346 0.0
C2078 C 0.26165 0.16398 0.8499 0.0
C2079 C 0.2354 0.15476 0.85697 0.0
C2080 C 0.27136 0.19099 0.84071 0.0
C2081 C 0.21935 0.17356 0.85626 0.0
C2082 C 0.22909 0.20089 0.84749 0.0
C2083 C 0.2646 0.23641 0.82913 0.0
C2084 C 0.29059 0.24469 0.82116 0.0
C2085 C 0.2549 0.20959 0.83913 0.0
C2086 C 0.30665 0.22596 0.82282 0.0
C2087 C 0.29711 0.19932 0.83245 0.0
H2088 H 0.45251 0.98188 0.34353 0.0
H2089 H 0.45736 0.99831 0.26352 0.0
H2090 H 0.42795 0.94983 0.25085 0.0
H2091 H 0.3985 0.90383 0.26285 0.0
H2092 H 0.39333 0.88911 0.34335 0.0
H2093 H 0.42511 0.93587 0.35538 0.0
C2094 C 0.4474 0.97476 0.3233 0.0
C2095 C 0.45698 0.9936 0.3045 0.0
C2096 C 0.43016 0.94725 0.31623 0.0
C2097 C 0.45019 0.98411 0.27836 0.0
C2098 C 0.43328 0.95647 0.27112 0.0
C2099 C 0.40443 0.91085 0.28299 0.0
C2100 C 0.39334 0.89306 0.30211 0.0
C2101 C 0.42273 0.93803 0.28992 0.0
C2102 C 0.40133 0.9024 0.32816 0.0
C2103 C 0.41959 0.92916 0.33514 0.0
H2104 H 0.64478 0.42043 0.59668 0.0
H2105 H 0.57749 0.40025 0.64283 0.0
H2106 H 0.5648 0.44195 0.62946 0.0
H2107 H 0.57197 0.48359 0.60432 0.0
H2108 H 0.64014 0.50669 0.55969 0.0
H2109 H 0.65355 0.4648 0.573 0.0
C2110 C 0.62738 0.42527 0.60372 0.0
C2111 C 0.61203 0.40721 0.6206 0.0
C2112 C 0.62041 0.44987 0.59635 0.0
C2113 C 0.5897 0.41385 0.62987 0.0
C2114 C 0.58236 0.43769 0.62222 0.0
C2115 C 0.58981 0.47952 0.59754 0.0
C2116 C 0.60491 0.49802 0.58093 0.0
C2117 C 0.59748 0.45576 0.60545 0.0
C2118 C 0.62821 0.49274 0.57259 0.0
C2119 C 0.6358 0.46872 0.58008 0.0
H2120 H 0.47659 0.78143 0.37929 0.0
H2121 H 0.43014 0.7874 0.44329 0.0
H2122 H 0.39222 0.78893 0.41344 0.0
H2123 H 0.37359 0.79151 0.36909 0.0
H2124 H 0.4214 0.78626 0.30579 0.0
H2125 H 0.45734 0.78111 0.33552 0.0
C2126 C 0.45813 0.78294 0.38676 0.0
C2127 C 0.45622 0.78456 0.41343 0.0
C2128 C 0.43666 0.78393 0.36959 0.0
C2129 C 0.43209 0.78618 0.4228 0.0
C2130 C 0.41046 0.78712 0.40574 0.0
C2131 C 0.39176 0.78901 0.36176 0.0
C2132 C 0.39481 0.78966 0.33518 0.0
C2133 C 0.41268 0.78643 0.37907 0.0
C2134 C 0.41848 0.78613 0.3261 0.0
C2135 C 0.43914 0.78321 0.3431 0.0
H2136 H 0.14481 0.74598 0.14871 0.0
H2137 H 0.09338 0.75932 0.08528 0.0
H2138 H 0.07919 0.70767 0.0726 0.0
H2139 H 0.08026 0.65854 0.0806 0.0
H2140 H 0.13346 0.64572 0.14276 0.0
H2141 H 0.14796 0.69741 0.15511 0.0
C2142 C 0.13068 0.73761 0.13196 0.0
C2143 C 0.12007 0.75639 0.11798 0.0
C2144 C 0.12269 0.70799 0.12481 0.0
C2145 C 0.10192 0.7453 0.09625 0.0
C2146 C 0.09366 0.71576 0.08913 0.0
C2147 C 0.09488 0.66708 0.09697 0.0
C2148 C 0.1055 0.64838 0.11105 0.0
C2149 C 0.10363 0.69687 0.10349 0.0
C2150 C 0.1249 0.65973 0.13179 0.0
C2151 C 0.13322 0.68925 0.13879 0.0
H2152 H 0.12017 0.31871 0.94233 0.0
H2153 H 0.05731 0.28995 0.88039 0.0
H2154 H 0.09063 0.29529 0.84918 0.0
H2155 H 0.13763 0.30883 0.83928 0.0
H2156 H 0.20063 0.33744 0.90102 0.0
H2157 H 0.16735 0.33122 0.93245 0.0
C2158 C 0.1138 0.31353 0.92201 0.0
C2159 C 0.08631 0.30403 0.91371 0.0
C2160 C 0.1331 0.31661 0.9041 0.0
C2161 C 0.07835 0.29732 0.88731 0.0
C2162 C 0.09739 0.3004 0.86942 0.0
C2163 C 0.14404 0.31384 0.85961 0.0
C2164 C 0.17154 0.32365 0.86778 0.0
C2165 C 0.12481 0.31021 0.87756 0.0
C2166 C 0.17958 0.32961 0.89424 0.0
C2167 C 0.16055 0.3262 0.91222 0.0
H2168 H 0.58449 0.74206 0.98679 0.0
H2169 H 0.57443 0.70009 0.91056 0.0
H2170 H 0.57364 0.65457 0.92876 0.0
H2171 H 0.57576 0.62477 0.967 0.0
H2172 H 0.58486 0.66757 0.04301 0.0
H2173 H 0.58595 0.71254 0.02456 0.0
C2174 C 0.58209 0.72309 0.97395 0.0
C2175 C 0.57956 0.72568 0.94677 0.0
C2176 C 0.58142 0.69606 0.98478 0.0
C2177 C 0.57644 0.69986 0.93129 0.0
C2178 C 0.57599 0.67333 0.94186 0.0
C2179 C 0.57795 0.64378 0.97972 0.0
C2180 C 0.58015 0.64138 1.00705 0.0
C2181 C 0.57844 0.6708 0.9687 0.0
C2182 C 0.58297 0.66736 0.02224 0.0
C2183 C 0.58365 0.69372 1.01155 0.0
H2184 H 0.17923 0.84166 0.70033 0.0
H2185 H 0.13133 0.79652 0.75708 0.0
H2186 H 0.17167 0.79075 0.78029 0.0
H2187 H 0.22203 0.79794 0.78546 0.0
H2188 H 0.26965 0.844 0.72884 0.0
H2189 H 0.22937 0.84956 0.70585 0.0
C2190 C 0.17735 0.8306 0.71783 0.0
C2191 C 0.15103 0.81969 0.7264 0.0
C2192 C 0.20138 0.82727 0.73165 0.0
C2193 C 0.1504 0.80544 0.7494 0.0
C2194 C 0.1739 0.80202 0.76292 0.0
C2195 C 0.22387 0.8092 0.76808 0.0
C2196 C 0.2502 0.82032 0.75948 0.0
C2197 C 0.19977 0.81272 0.75441 0.0
C2198 C 0.25069 0.83491 0.73666 0.0
C2199 C 0.22719 0.8382 0.72318 0.0
H2200 H 0.09634 0.38683 0.4866 0.0
H2201 H 0.09313 0.41488 0.41006 0.0
H2202 H 0.09198 0.46213 0.42753 0.0
H2203 H 0.09191 0.49732 0.46509 0.0
H2204 H 0.09552 0.46852 0.54149 0.0
H2205 H 0.09663 0.42172 0.52382 0.0
C2206 C 0.09554 0.4032 0.47359 0.0
C2207 C 0.09494 0.39629 0.4466 0.0
C2208 C 0.09502 0.43119 0.48396 0.0
C2209 C 0.09377 0.41867 0.43073 0.0
C2210 C 0.09311 0.44615 0.44083 0.0
C2211 C 0.09302 0.48097 0.47802 0.0
C2212 C 0.09365 0.4877 0.50513 0.0
C2213 C 0.09374 0.453 0.46752 0.0
C2214 C 0.095 0.46517 0.5208 0.0
C2215 C 0.09565 0.43784 0.51059 0.0
H2216 H 0.51363 0.34165 0.25566 0.0
H2217 H 0.47717 0.2806 0.19138 0.0
H2218 H 0.43311 0.2743 0.20737 0.0
H2219 H 0.40259 0.28594 0.23979 0.0
H2220 H 0.43913 0.34802 0.30341 0.0
H2221 H 0.48317 0.35342 0.2879 0.0
C2222 C 0.49623 0.32681 0.24495 0.0
C2223 C 0.50021 0.31164 0.22169 0.0
C2224 C 0.46979 0.32321 0.25444 0.0
C2225 C 0.47614 0.29285 0.209 0.0
C2226 C 0.45034 0.28914 0.21834 0.0
C2227 C 0.42003 0.3006 0.2506 0.0
C2228 C 0.41601 0.3163 0.27356 0.0
C2229 C 0.44649 0.30412 0.24111 0.0
C2230 C 0.44011 0.33523 0.28609 0.0
C2231 C 0.46594 0.33848 0.27703 0.0
H2232 H 0.62607 0.50357 0.40401 0.0
H2233 H 0.70453 0.55467 0.43653 0.0
H2234 H 0.68617 0.56352 0.47674 0.0
H2235 H 0.64706 0.56157 0.5004 0.0
H2236 H 0.56878 0.50935 0.46913 0.0
H2237 H 0.58778 0.49627 0.43035 0.0
C2238 C 0.63923 0.51608 0.42011 0.0
C2239 C 0.6665 0.5288 0.41721 0.0
C2240 C 0.62849 0.52141 0.44307 0.0
C2241 C 0.68342 0.54477 0.43826 0.0
C2242 C 0.67291 0.55007 0.46118 0.0
C2243 C 0.6342 0.54723 0.48522 0.0
C2244 C 0.60657 0.53689 0.48734 0.0
C2245 C 0.64533 0.53939 0.46339 0.0
C2246 C 0.59014 0.51777 0.46773 0.0
C2247 C 0.60098 0.51027 0.44563 0.0
H2248 H 0.37324 0.92477 0.06067 0.0
H2249 H 0.28741 0.89331 0.06167 0.0
H2250 H 0.29291 0.86247 0.09598 0.0
H2251 H 0.32247 0.84646 0.12701 0.0
H2252 H 0.40819 0.87691 0.12461 0.0
H2253 H 0.40246 0.90595 0.08909 0.0
C2254 C 0.35574 0.9111 0.06839 0.0
C2255 C 0.32997 0.9115 0.05904 0.0
C2256 C 0.35909 0.89325 0.08768 0.0
C2257 C 0.30742 0.89336 0.06874 0.0
C2258 C 0.31058 0.87581 0.08832 0.0
C2259 C 0.33983 0.85932 0.11851 0.0
C2260 C 0.36572 0.85978 0.12838 0.0
C2261 C 0.33634 0.87586 0.09812 0.0
C2262 C 0.3881 0.87616 0.11714 0.0
C2263 C 0.38483 0.89288 0.09701 0.0
H2264 H 1.03166 0.62383 0.94311 0.0
H2265 H 0.07679 0.57098 0.91048 0.0
H2266 H 0.10371 0.5756 0.95144 0.0
H2267 H 0.10664 0.58493 0.99816 0.0
H2268 H 0.05625 0.63079 0.03167 0.0
H2269 H 0.03972 0.63971 0.98887 0.0
C2270 C 0.04789 0.61402 0.94486 0.0
C2271 C 0.05196 0.59656 0.92427 0.0
C2272 C 0.06223 0.61552 0.96873 0.0
C2273 C 0.07306 0.58404 0.92646 0.0
C2274 C 0.08843 0.58668 0.9498 0.0
C2275 C 0.09295 0.59794 0.9959 0.0
C2276 C 0.08252 0.60728 0.01751 0.0
C2277 C 0.08213 0.60097 0.97138 0.0
C2278 C 0.06442 0.62361 0.01491 0.0
C2279 C 0.05482 0.62839 0.99054 0.0
H2280 H 0.29503 0.29283 0.62631 0.0
H2281 H 0.37174 0.27567 0.6313 0.0
H2282 H 0.37586 0.28492 0.67803 0.0
H2283 H 0.35725 0.29678 0.71816 0.0
H2284 H 0.28099 0.31502 0.713 0.0
H2285 H 0.27721 0.3064 0.66628 0.0
C2286 C 0.3128 0.29144 0.63757 0.0
C2287 C 0.33307 0.28362 0.625 0.0
C2288 C 0.31506 0.29671 0.66472 0.0
C2289 C 0.35583 0.28175 0.64018 0.0
C2290 C 0.35817 0.28691 0.66706 0.0
C2291 C 0.33973 0.29873 0.70687 0.0
C2292 C 0.31936 0.30639 0.71944 0.0
C2293 C 0.33779 0.29412 0.67966 0.0
C2294 C 0.29703 0.30917 0.70414 0.0
C2295 C 0.29483 0.30425 0.67727 0.0
H2296 H 0.6407 0.60133 0.3034 0.0
H2297 H 0.61157 0.50987 0.28371 0.0
H2298 H 0.58484 0.51787 0.24609 0.0
H2299 H 0.57531 0.5511 0.21571 0.0
H2300 H 0.60621 0.6426 0.23446 0.0
H2301 H 0.6268 0.63435 0.27566 0.0
C2302 C 0.62809 0.58311 0.29116 0.0
C2303 C 0.62834 0.55508 0.29607 0.0
C2304 C 0.61344 0.58791 0.26925 0.0
C2305 C 0.61181 0.53166 0.28019 0.0
C2306 C 0.59664 0.53623 0.25863 0.0
C2307 C 0.58591 0.56922 0.22913 0.0
C2308 C 0.58948 0.59741 0.22201 0.0
C2309 C 0.5981 0.56431 0.25249 0.0
C2310 C 0.60356 0.62071 0.23941 0.0
C2311 C 0.61529 0.616 0.26294 0.0
H2312 H 0.28443 0.88943 0.93931 0.0
H2313 H 0.31555 0.97206 0.90943 0.0
H2314 H 0.31906 0.94851 0.86776 0.0
H2315 H 0.3201 0.90434 0.84244 0.0
H2316 H 0.29221 0.82249 0.87477 0.0
H2317 H 0.28073 0.84577 0.91278 0.0
C2318 C 0.2914 0.90232 0.92351 0.0
C2319 C 0.3001 0.93235 0.9275 0.0
C2320 C 0.29453 0.88872 0.90018 0.0
C2321 C 0.30889 0.94881 0.90683 0.0
C2322 C 0.31114 0.93536 0.88308 0.0
C2323 C 0.31119 0.89168 0.85769 0.0
C2324 C 0.30759 0.86189 0.85612 0.0
C2325 C 0.30517 0.90532 0.87994 0.0
C2326 C 0.29579 0.84558 0.87585 0.0
C2327 C 0.28906 0.85883 0.89755 0.0
H2328 H 1.00339 0.56843 0.77218 0.0
H2329 H 0.07408 0.56686 0.81934 0.0
H2330 H 0.09642 0.56051 0.78076 0.0
H2331 H 0.09543 0.55513 0.73369 0.0
H2332 H 1.02349 0.55411 0.68709 0.0
H2333 H 1.00197 0.56191 0.72558 0.0
C2334 C 1.02376 0.5669 0.77399 0.0
C2335 C 1.03722 0.56823 0.79835 0.0
C2336 C 1.03614 0.56271 0.75193 0.0
C2337 C 0.06343 0.56588 0.80061 0.0
C2338 C 0.07615 0.56222 0.77864 0.0
C2339 C 0.07496 0.55632 0.73204 0.0
C2340 C 0.06111 0.55426 0.70771 0.0
C2341 C 0.06259 0.56043 0.75421 0.0
C2342 C 1.03469 0.55612 0.70569 0.0
C2343 C 1.02233 0.56045 0.72763 0.0
H2344 H 0.32238 0.23606 0.45362 0.0
H2345 H 0.33707 0.32352 0.48504 0.0
H2346 H 0.34415 0.34052 0.44217 0.0
H2347 H 0.34566 0.33079 0.39565 0.0
H2348 H 0.33173 0.24357 0.36381 0.0
H2349 H 0.32519 0.22642 0.4068 0.0
C2350 C 0.32709 0.25887 0.45112 0.0
C2351 C 0.32899 0.27845 0.47278 0.0
C2352 C 0.33145 0.26859 0.42625 0.0
C2353 C 0.33537 0.3079 0.46896 0.0
C2354 C 0.33946 0.31766 0.44435 0.0
C2355 C 0.34136 0.30798 0.39798 0.0
C2356 C 0.33928 0.28857 0.37615 0.0
C2357 C 0.33753 0.29824 0.42283 0.0
C2358 C 0.33365 0.25913 0.37998 0.0
C2359 C 0.32977 0.24928 0.40466 0.0
H2360 H 0.36833 0.62714 0.51875 0.0
H2361 H 0.42628 0.66886 0.5822 0.0
H2362 H 0.44843 0.63119 0.57783 0.0
H2363 H 0.44978 0.58526 0.55777 0.0
H2364 H 0.39248 0.54301 0.49427 0.0
H2365 H 0.37136 0.58212 0.49685 0.0
C2366 C 0.38604 0.62817 0.53136 0.0
C2367 C 0.39562 0.65062 0.55084 0.0
C2368 C 0.39843 0.60621 0.52899 0.0
C2369 C 0.41854 0.65175 0.56708 0.0
C2370 C 0.43111 0.63016 0.5647 0.0
C2371 C 0.43247 0.58452 0.54469 0.0
C2372 C 0.42213 0.56115 0.5263 0.0
C2373 C 0.42086 0.60704 0.54613 0.0
C2374 C 0.40038 0.56072 0.50881 0.0
C2375 C 0.38845 0.58305 0.51025 0.0
H2376 H 0.92539 0.92992 0.51978 0.0
H2377 H 0.90195 0.97512 0.58318 0.0
H2378 H 0.94201 1.01548 0.58197 0.0
H2379 H 0.98461 0.03703 0.56448 0.0
H2380 H 1.00879 0.99244 0.50109 0.0
H2381 H 0.96726 0.95326 0.5003 0.0
C2382 C 0.92912 0.9486 0.53333 0.0
C2383 C 0.91084 0.94934 0.55174 0.0
C2384 C 0.95218 0.97203 0.53237 0.0
C2385 C 0.91574 0.97389 0.56892 0.0
C2386 C 0.93863 0.99705 0.5682 0.0
C2387 C 0.98073 1.01899 0.55019 0.0
C2388 C 1.00002 1.01778 0.53296 0.0
C2389 C 0.95708 0.99627 0.55016 0.0
C2390 C 0.99438 0.99413 0.51457 0.0
C2391 C 0.9707 0.97152 0.51425 0.0
H2392 H 0.93307 0.13483 0.32607 0.0
H2393 H 0.87732 0.08194 0.26567 0.0
H2394 H 0.84132 0.09924 0.28111 0.0
H2395 H 0.82643 0.13169 0.30968 0.0
H2396 H 0.88304 0.18845 0.36727 0.0
H2397 H 0.91748 0.16618 0.356 0.0
C2398 C 0.91302 0.1271 0.31636 0.0
C2399 C 0.9079 0.10748 0.2946 0.0
C2400 C 0.89245 0.13743 0.32512 0.0
C2401 C 0.88183 0.09739 0.28227 0.0
C2402 C 0.86118 0.10711 0.29117 0.0
C2403 C 0.84627 0.13911 0.31987 0.0
C2404 C 0.85217 0.16193 0.33903 0.0
C2405 C 0.86638 0.12745 0.31229 0.0
C2406 C 0.87778 0.17073 0.35257 0.0
C2407 C 0.89766 0.15833 0.34585 0.0
H2408 H 0.75405 0.15351 0.10158 0.0
H2409 H 0.76706 0.14951 0.02105 0.0
H2410 H 0.72059 0.12034 1.01049 0.0
H2411 H 0.67607 0.09714 0.02418 0.0
H2412 H 0.66352 0.10123 0.10493 0.0
H2413 H 0.7102 0.12898 0.11538 0.0
C2414 C 0.74669 0.1463 0.08172 0.0
C2415 C 0.76378 0.15378 0.0621 0.0
C2416 C 0.72014 0.12945 0.07585 0.0
C2417 C 0.75415 0.14408 0.03647 0.0
C2418 C 0.72764 0.12738 0.03043 0.0
C2419 C 0.68361 0.10387 0.04408 0.0
C2420 C 0.66634 0.09724 0.06371 0.0
C2421 C 0.71044 0.12004 0.04997 0.0
C2422 C 0.67639 0.10614 0.08942 0.0
C2423 C 0.70306 0.12207 0.09543 0.0
H2424 H 0.25118 0.5117 0.36419 0.0
H2425 H 0.27707 0.5206 0.28768 0.0
H2426 H 0.31683 0.50642 0.30102 0.0
H2427 H 0.34169 0.48744 0.3328 0.0
H2428 H 0.31415 0.47284 0.40805 0.0
H2429 H 0.2777 0.49406 0.39713 0.0
C2430 C 0.26566 0.51064 0.35056 0.0
C2431 C 0.26122 0.51689 0.32497 0.0
C2432 C 0.28817 0.5018 0.35822 0.0
C2433 C 0.27997 0.51548 0.30738 0.0
C2434 C 0.30275 0.50758 0.31503 0.0
C2435 C 0.32829 0.48982 0.34717 0.0
C2436 C 0.33082 0.47922 0.37137 0.0
C2437 C 0.30679 0.5003 0.34023 0.0
C2438 C 0.31274 0.48138 0.38947 0.0
C2439 C 0.29181 0.49315 0.3831 0.0
H2440 H 0.25858 0.40388 0.05252 0.0
H2441 H 0.33099 0.4727 0.07481 0.0
H2442 H 0.30497 0.50655 0.07998 0.0
H2443 H 0.26203 0.5169 0.07823 0.0
H2444 H 0.18921 0.44933 0.05457 0.0
H2445 H 0.21493 0.41464 0.05037 0.0
C2446 C 0.26858 0.42628 0.05852 0.0
C2447 C 0.29665 0.43575 0.06323 0.0
C2448 C 0.25346 0.44584 0.06134 0.0
C2449 C 0.3094 0.46484 0.07098 0.0
C2450 C 0.29456 0.48426 0.07399 0.0
C2451 C 0.25176 0.49466 0.07185 0.0
C2452 C 0.22378 0.48579 0.06656 0.0
C2453 C 0.26664 0.47503 0.06914 0.0
C2454 C 0.21074 0.4567 0.05896 0.0
C2455 C 0.22545 0.43688 0.05641 0.0
H2456 H 0.89688 0.98142 0.25409 0.0
H2457 H 0.94975 0.99129 0.32332 0.0
H2458 H 0.92512 0.94334 0.33431 0.0
H2459 H 0.88909 0.89846 0.32374 0.0
H2460 H 0.83499 0.88952 0.25543 0.0
H2461 H 0.85942 0.93753 0.24469 0.0
C2462 C 0.90301 0.97297 0.27153 0.0
C2463 C 0.92515 0.98953 0.28777 0.0
C2464 C 0.88848 0.94574 0.27793 0.0
C2465 C 0.93274 0.97874 0.31053 0.0
C2466 C 0.91869 0.9514 0.31681 0.0
C2467 C 0.88261 0.90708 0.30656 0.0
C2468 C 0.86042 0.8905 0.29033 0.0
C2469 C 0.8966 0.9347 0.3006 0.0
C2470 C 0.85201 0.90197 0.26827 0.0
C2471 C 0.86602 0.92933 0.26204 0.0
H2472 H 0.77548 0.13601 0.75047 0.0
H2473 H 0.71569 0.12753 0.80468 0.0
H2474 H 0.73176 0.17915 0.81697 0.0
H2475 H 0.76364 0.22644 0.81305 0.0
H2476 H 0.82499 0.23411 0.76047 0.0
H2477 H 0.80757 0.18305 0.74689 0.0
C2478 C 0.76586 0.14556 0.76482 0.0
C2479 C 0.74442 0.12818 0.77658 0.0
C2480 C 0.77561 0.17503 0.77221 0.0
C2481 C 0.73228 0.14061 0.79538 0.0
C2482 C 0.74146 0.17007 0.80242 0.0
C2483 C 0.77312 0.21692 0.79858 0.0
C2484 C 0.79554 0.23398 0.78781 0.0
C2485 C 0.76325 0.18744 0.7911 0.0
C2486 C 0.80779 0.22137 0.7692 0.0
C2487 C 0.7978 0.1922 0.76134 0.0
loop_
_geom_bond_atom_site_label_1
_geom_bond_atom_site_label_2
_geom_bond_distance
_geom_bond_site_symmetry_2
_ccdc_geom_bond_type
In0 O1 2.294 . S
In0 O2 2.326 . S
In0 O6 2.266 . S
In0 O7 2.375 . S
In0 O8 2.266 . S
In0 O9 2.326 . S
In0 O11 2.294 . S
In0 O12 2.326 . S
O1 In0 2.294 . S
O1 C10 1.240 . S
O2 In0 2.326 . S
O2 C10 1.252 . S
C3 O6 1.252 1_655 S
C3 O7 1.256 1_655 S
C4 O11 1.240 . S
C4 O12 1.252 . S
C5 O8 1.252 . S
C5 O9 1.260 . S
O6 In0 2.266 . S
O6 C3 1.252 1_455 S
O7 In0 2.375 . S
O7 C3 1.256 1_455 S
O8 In0 2.266 . S
O8 C5 1.252 . S
O9 In0 2.326 . S
O9 C5 1.260 . S
C10 O1 1.240 . S
C10 O2 1.252 . S
O11 In0 2.294 . S
O11 C4 1.240 . S
O12 In0 2.326 . S
O12 C4 1.252 . S
In13 O14 2.294 . S
In13 O15 2.326 . S
In13 O19 2.266 . S
In13 O20 2.326 . S
In13 O21 2.266 . S
In13 O22 2.326 . S
In13 O24 2.294 . S
In13 O25 2.326 . S
O14 In13 2.294 . S
O14 C23 1.240 . S
O15 In13 2.326 . S
O15 C23 1.252 . S
C16 O19 1.252 . S
C16 O20 1.260 . S
C17 O24 1.240 . S
C17 O25 1.252 . S
C18 O21 1.252 . S
C18 O22 1.260 . S
O19 In13 2.266 . S
O19 C16 1.252 . S
O20 In13 2.326 . S
O20 C16 1.260 . S
O21 In13 2.266 . S
O21 C18 1.252 . S
O22 In13 2.326 . S
O22 C18 1.260 . S
C23 O14 1.240 . S
C23 O15 1.252 . S
O24 In13 2.294 . S
O24 C17 1.240 . S
O25 In13 2.326 . S
O25 C17 1.252 . S
In26 O27 2.294 . S
In26 O28 2.326 . S
In26 O32 2.266 . S
In26 O33 2.326 . S
In26 O34 2.266 . S
In26 O35 2.326 . S
In26 O37 2.294 . S
In26 O38 2.326 . S
O27 In26 2.294 . S
O27 C36 1.240 . S
O28 In26 2.326 . S
O28 C36 1.252 . S
C29 O32 1.252 . S
C29 O33 1.260 . S
C30 O37 1.240 . S
C30 O38 1.252 . S
C31 O34 1.252 . S
C31 O35 1.260 . S
O32 In26 2.266 . S
O32 C29 1.252 . S
O33 In26 2.326 . S
O33 C29 1.260 . S
O34 In26 2.266 . S
O34 C31 1.252 . S
O35 In26 2.326 . S
O35 C31 1.260 . S
C36 O27 1.240 . S
C36 O28 1.252 . S
O37 In26 2.294 . S
O37 C30 1.240 . S
O38 In26 2.326 . S
O38 C30 1.252 . S
In39 O40 2.294 . S
In39 O41 2.326 . S
In39 O45 2.266 . S
In39 O46 2.326 . S
In39 O47 2.266 . S
In39 O48 2.326 . S
In39 O50 2.294 . S
In39 O51 2.326 . S
O40 In39 2.294 . S
O40 C49 1.240 . S
O41 In39 2.326 . S
O41 C49 1.252 . S
C42 O45 1.252 . S
C42 O46 1.260 . S
C43 O50 1.240 . S
C43 O51 1.252 . S
C44 O47 1.252 . S
C44 O48 1.260 . S
O45 In39 2.266 . S
O45 C42 1.252 . S
O46 In39 2.326 . S
O46 C42 1.260 . S
O47 In39 2.266 . S
O47 C44 1.252 . S
O48 In39 2.326 . S
O48 C44 1.260 . S
C49 O40 1.240 . S
C49 O41 1.252 . S
O50 In39 2.294 . S
O50 C43 1.240 . S
O51 In39 2.326 . S
O51 C43 1.252 . S
In52 O53 2.294 . S
In52 O54 2.326 . S
In52 O58 2.266 . S
In52 O59 2.326 . S
In52 O60 2.266 . S
In52 O61 2.326 . S
In52 O63 2.294 . S
In52 O64 2.326 . S
O53 In52 2.294 . S
O53 C62 1.240 . S
O54 In52 2.326 . S
O54 C62 1.252 . S
C55 O58 1.252 . S
C55 O59 1.260 . S
C56 O63 1.240 . S
C56 O64 1.252 . S
C57 O60 1.252 . S
C57 O61 1.260 . S
O58 In52 2.266 . S
O58 C55 1.252 . S
O59 In52 2.326 . S
O59 C55 1.260 . S
O60 In52 2.266 . S
O60 C57 1.252 . S
O61 In52 2.326 . S
O61 C57 1.260 . S
C62 O53 1.240 . S
C62 O54 1.252 . S
O63 In52 2.294 . S
O63 C56 1.240 . S
O64 In52 2.326 . S
O64 C56 1.252 . S
In65 O66 2.294 . S
In65 O67 2.326 . S
In65 O71 2.266 . S
In65 O72 2.326 . S
In65 O73 2.266 . S
In65 O74 2.326 . S
In65 O76 2.294 . S
In65 O77 2.326 . S
O66 In65 2.294 . S
O66 C75 1.240 . S
O67 In65 2.326 . S
O67 C75 1.252 . S
C68 O71 1.252 . S
C68 O72 1.260 . S
C69 O76 1.240 . S
C69 O77 1.252 . S
C70 O73 1.252 . S
C70 O74 1.260 . S
O71 In65 2.266 . S
O71 C68 1.252 . S
O72 In65 2.326 . S
O72 C68 1.260 . S
O73 In65 2.266 . S
O73 C70 1.252 . S
O74 In65 2.326 . S
O74 C70 1.260 . S
C75 O66 1.240 . S
C75 O67 1.252 . S
O76 In65 2.294 . S
O76 C69 1.240 . S
O77 In65 2.326 . S
O77 C69 1.252 . S
In78 O79 2.294 . S
In78 O80 2.326 . S
In78 O84 2.266 . S
In78 O85 2.326 . S
In78 O86 2.266 . S
In78 O87 2.326 . S
In78 O89 2.294 . S
In78 O90 2.326 . S
O79 In78 2.294 . S
O79 C88 1.240 . S
O80 In78 2.326 . S
O80 C88 1.252 . S
C81 O84 1.252 . S
C81 O85 1.260 . S
C82 O89 1.240 . S
C82 O90 1.252 . S
C83 O86 1.252 . S
C83 O87 1.260 . S
O84 In78 2.266 . S
O84 C81 1.252 . S
O85 In78 2.326 . S
O85 C81 1.260 . S
O86 In78 2.266 . S
O86 C83 1.252 . S
O87 In78 2.326 . S
O87 C83 1.260 . S
C88 O79 1.240 . S
C88 O80 1.252 . S
O89 In78 2.294 . S
O89 C82 1.240 . S
O90 In78 2.326 . S
O90 C82 1.252 . S
In91 O92 2.295 . S
In91 O93 2.327 1_455 S
In91 O97 2.265 . S
In91 O98 2.325 . S
In91 O99 2.264 1_455 S
In91 O100 2.323 1_455 S
In91 O102 2.296 . S
In91 O103 2.329 . S
O92 In91 2.295 . S
O92 C101 1.243 1_455 S
O93 In91 2.327 1_655 S
O93 C101 1.254 . S
C94 O97 1.252 . S
C94 O98 1.260 . S
C95 O102 1.240 . S
C95 O103 1.252 . S
C96 O99 1.252 . S
C96 O100 1.260 . S
O97 In91 2.265 . S
O97 C94 1.252 . S
O98 In91 2.325 . S
O98 C94 1.260 . S
O99 In91 2.264 1_655 S
O99 C96 1.252 . S
O100 In91 2.323 1_655 S
O100 C96 1.260 . S
C101 O92 1.243 1_655 S
C101 O93 1.254 . S
O102 In91 2.296 . S
O102 C95 1.240 . S
O103 In91 2.329 . S
O103 C95 1.252 . S
In104 O105 2.294 . S
In104 O106 2.326 . S
In104 O110 2.266 . S
In104 O111 2.326 . S
In104 O112 2.266 1_545 S
In104 O113 2.326 1_545 S
In104 O115 2.294 . S
In104 O116 2.326 . S
O105 In104 2.294 . S
O105 C114 1.240 . S
O106 In104 2.326 . S
O106 C114 1.252 . S
C107 O110 1.252 . S
C107 O111 1.260 . S
C108 O115 1.240 . S
C108 O116 1.252 . S
C109 O112 1.252 . S
C109 O113 1.260 . S
O110 In104 2.266 . S
O110 C107 1.252 . S
O111 In104 2.326 . S
O111 C107 1.260 . S
O112 In104 2.266 1_565 S
O112 C109 1.252 . S
O113 In104 2.326 1_565 S
O113 C109 1.260 . S
C114 O105 1.240 . S
C114 O106 1.252 . S
O115 In104 2.294 . S
O115 C108 1.240 . S
O116 In104 2.326 . S
O116 C108 1.252 . S
In117 O118 2.294 . S
In117 O119 2.326 . S
In117 O123 2.266 . S
In117 O124 2.326 . S
In117 O125 2.266 . S
In117 O126 2.326 . S
In117 O128 2.294 . S
In117 O129 2.326 . S
O118 In117 2.294 . S
O118 C127 1.240 . S
O119 In117 2.326 . S
O119 C127 1.252 . S
C120 O123 1.252 . S
C120 O124 1.260 . S
C121 O128 1.240 . S
C121 O129 1.252 . S
C122 O125 1.252 . S
C122 O126 1.260 . S
O123 In117 2.266 . S
O123 C120 1.252 . S
O124 In117 2.326 . S
O124 C120 1.260 . S
O125 In117 2.266 . S
O125 C122 1.252 . S
O126 In117 2.326 . S
O126 C122 1.260 . S
C127 O118 1.240 . S
C127 O119 1.252 . S
O128 In117 2.294 . S
O128 C121 1.240 . S
O129 In117 2.326 . S
O129 C121 1.252 . S
In130 O131 2.294 . S
In130 O132 2.326 . S
In130 O136 2.266 . S
In130 O137 2.326 . S
In130 O138 2.266 . S
In130 O139 2.326 . S
In130 O141 2.294 . S
In130 O142 2.326 . S
O131 In130 2.294 . S
O131 C140 1.240 . S
O132 In130 2.326 . S
O132 C140 1.252 . S
C133 O136 1.252 . S
C133 O137 1.260 . S
C134 O141 1.240 . S
C134 O142 1.252 . S
C135 O138 1.252 . S
C135 O139 1.260 . S
O136 In130 2.266 . S
O136 C133 1.252 . S
O137 In130 2.326 . S
O137 C133 1.260 . S
O138 In130 2.266 . S
O138 C135 1.252 . S
O139 In130 2.326 . S
O139 C135 1.260 . S
C140 O131 1.240 . S
C140 O132 1.252 . S
O141 In130 2.294 . S
O141 C134 1.240 . S
O142 In130 2.326 . S
O142 C134 1.252 . S
In143 O144 2.296 . S
In143 O145 2.329 . S
In143 O149 2.264 1_554 S
In143 O150 2.322 1_554 S
In143 O151 2.266 1_554 S
In143 O152 2.325 1_554 S
In143 O154 2.294 . S
In143 O155 2.327 . S
O144 In143 2.296 . S
O144 C153 1.240 . S
O145 In143 2.329 . S
O145 C153 1.252 . S
C146 O149 1.252 . S
C146 O150 1.260 . S
C147 O154 1.240 . S
C147 O155 1.252 . S
C148 O151 1.252 . S
C148 O152 1.260 . S
O149 In143 2.264 1_556 S
O149 C146 1.252 . S
O150 In143 2.322 1_556 S
O150 C146 1.260 . S
O151 In143 2.266 1_556 S
O151 C148 1.252 . S
O152 In143 2.325 1_556 S
O152 C148 1.260 . S
C153 O144 1.240 . S
C153 O145 1.252 . S
O154 In143 2.294 . S
O154 C147 1.240 . S
O155 In143 2.327 . S
O155 C147 1.252 . S
In156 O157 2.294 . S
In156 O158 2.326 . S
In156 O162 2.266 . S
In156 O163 2.326 1_554 S
In156 O164 2.266 . S
In156 O165 2.326 . S
In156 O167 2.294 . S
In156 O168 2.326 . S
O157 In156 2.294 . S
O157 C166 1.240 . S
O158 In156 2.326 . S
O158 C166 1.252 . S
C159 O162 1.252 1_556 S
C159 O163 1.260 . S
C160 O167 1.240 . S
C160 O168 1.252 . S
C161 O164 1.252 . S
C161 O165 1.260 . S
O162 In156 2.266 . S
O162 C159 1.252 1_554 S
O163 In156 2.326 1_556 S
O163 C159 1.260 . S
O164 In156 2.266 . S
O164 C161 1.252 . S
O165 In156 2.326 . S
O165 C161 1.260 . S
C166 O157 1.240 . S
C166 O158 1.252 . S
O167 In156 2.294 . S
O167 C160 1.240 . S
O168 In156 2.326 . S
O168 C160 1.252 . S
In169 O170 2.294 . S
In169 O171 2.326 . S
In169 O175 2.266 . S
In169 O176 2.326 . S
In169 O177 2.266 . S
In169 O178 2.326 . S
In169 O180 2.294 . S
In169 O181 2.326 . S
O170 In169 2.294 . S
O170 C179 1.240 . S
O171 In169 2.326 . S
O171 C179 1.252 . S
C172 O175 1.252 . S
C172 O176 1.260 . S
C173 O180 1.240 . S
C173 O181 1.252 . S
C174 O177 1.252 . S
C174 O178 1.260 . S
O175 In169 2.266 . S
O175 C172 1.252 . S
O176 In169 2.326 . S
O176 C172 1.260 . S
O177 In169 2.266 . S
O177 C174 1.252 . S
O178 In169 2.326 . S
O178 C174 1.260 . S
C179 O170 1.240 . S
C179 O171 1.252 . S
O180 In169 2.294 . S
O180 C173 1.240 . S
O181 In169 2.326 . S
O181 C173 1.252 . S
In182 O183 2.294 . S
In182 O184 2.326 . S
In182 O188 2.266 . S
In182 O189 2.326 . S
In182 O190 2.266 . S
In182 O191 2.326 . S
In182 O193 2.294 . S
In182 O194 2.326 . S
O183 In182 2.294 . S
O183 C192 1.240 . S
O184 In182 2.326 . S
O184 C192 1.252 . S
C185 O188 1.252 . S
C185 O189 1.260 . S
C186 O193 1.240 . S
C186 O194 1.252 . S
C187 O190 1.252 . S
C187 O191 1.260 . S
O188 In182 2.266 . S
O188 C185 1.252 . S
O189 In182 2.326 . S
O189 C185 1.260 . S
O190 In182 2.266 . S
O190 C187 1.252 . S
O191 In182 2.326 . S
O191 C187 1.260 . S
C192 O183 1.240 . S
C192 O184 1.252 . S
O193 In182 2.294 . S
O193 C186 1.240 . S
O194 In182 2.326 . S
O194 C186 1.252 . S
In195 O196 2.294 . S
In195 O197 2.326 . S
In195 O201 2.266 . S
In195 O202 2.326 . S
In195 O203 2.266 . S
In195 O204 2.326 . S
In195 O206 2.294 . S
In195 O207 2.326 . S
O196 In195 2.294 . S
O196 C205 1.240 . S
O197 In195 2.326 . S
O197 C205 1.252 . S
C198 O201 1.252 . S
C198 O202 1.260 . S
C199 O206 1.240 . S
C199 O207 1.252 . S
C200 O203 1.252 . S
C200 O204 1.260 . S
O201 In195 2.266 . S
O201 C198 1.252 . S
O202 In195 2.326 . S
O202 C198 1.260 . S
O203 In195 2.266 . S
O203 C200 1.252 . S
O204 In195 2.326 . S
O204 C200 1.260 . S
C205 O196 1.240 . S
C205 O197 1.252 . S
O206 In195 2.294 . S
O206 C199 1.240 . S
O207 In195 2.326 . S
O207 C199 1.252 . S
In208 O209 2.294 . S
In208 O210 2.326 . S
In208 O214 2.266 . S
In208 O215 2.326 . S
In208 O216 2.266 1_545 S
In208 O217 2.326 1_545 S
In208 O219 2.294 . S
In208 O220 2.326 . S
O209 In208 2.294 . S
O209 C218 1.240 . S
O210 In208 2.326 . S
O210 C218 1.252 . S
C211 O214 1.252 . S
C211 O215 1.260 . S
C212 O219 1.240 . S
C212 O220 1.252 . S
C213 O216 1.252 . S
C213 O217 1.260 . S
O214 In208 2.266 . S
O214 C211 1.252 . S
O215 In208 2.326 . S
O215 C211 1.260 . S
O216 In208 2.266 1_565 S
O216 C213 1.252 . S
O217 In208 2.326 1_565 S
O217 C213 1.260 . S
C218 O209 1.240 . S
C218 O210 1.252 . S
O219 In208 2.294 . S
O219 C212 1.240 . S
O220 In208 2.326 . S
O220 C212 1.252 . S
In221 O222 2.294 . S
In221 O223 2.326 . S
In221 O227 2.266 . S
In221 O228 2.326 . S
In221 O229 2.266 . S
In221 O230 2.326 . S
In221 O232 2.294 . S
In221 O233 2.326 . S
O222 In221 2.294 . S
O222 C231 1.240 . S
O223 In221 2.326 . S
O223 C231 1.252 . S
C224 O227 1.252 . S
C224 O228 1.260 . S
C225 O232 1.240 . S
C225 O233 1.252 . S
C226 O229 1.252 . S
C226 O230 1.260 . S
O227 In221 2.266 . S
O227 C224 1.252 . S
O228 In221 2.326 . S
O228 C224 1.260 . S
O229 In221 2.266 . S
O229 C226 1.252 . S
O230 In221 2.326 . S
O230 C226 1.260 . S
C231 O222 1.240 . S
C231 O223 1.252 . S
O232 In221 2.294 . S
O232 C225 1.240 . S
O233 In221 2.326 . S
O233 C225 1.252 . S
In234 O235 2.294 . S
In234 O236 2.326 . S
In234 O240 2.266 . S
In234 O241 2.326 . S
In234 O242 2.266 . S
In234 O243 2.326 . S
In234 O245 2.294 . S
In234 O246 2.326 . S
O235 In234 2.294 . S
O235 C244 1.240 . S
O236 In234 2.326 . S
O236 C244 1.252 . S
C237 O240 1.252 . S
C237 O241 1.260 . S
C238 O245 1.240 . S
C238 O246 1.252 . S
C239 O242 1.252 . S
C239 O243 1.260 . S
O240 In234 2.266 . S
O240 C237 1.252 . S
O241 In234 2.326 . S
O241 C237 1.260 . S
O242 In234 2.266 . S
O242 C239 1.252 . S
O243 In234 2.326 . S
O243 C239 1.260 . S
C244 O235 1.240 . S
C244 O236 1.252 . S
O245 In234 2.294 . S
O245 C238 1.240 . S
O246 In234 2.326 . S
O246 C238 1.252 . S
In247 O248 2.294 . S
In247 O249 2.326 . S
In247 O253 2.266 . S
In247 O254 2.326 . S
In247 O255 2.266 . S
In247 O256 2.326 . S
In247 O258 2.294 . S
In247 O259 2.326 . S
O248 In247 2.294 . S
O248 C257 1.240 . S
O249 In247 2.326 . S
O249 C257 1.252 . S
C250 O253 1.252 . S
C250 O254 1.260 . S
C251 O258 1.240 . S
C251 O259 1.252 . S
C252 O255 1.252 . S
C252 O256 1.260 . S
O253 In247 2.266 . S
O253 C250 1.252 . S
O254 In247 2.326 . S
O254 C250 1.260 . S
O255 In247 2.266 . S
O255 C252 1.252 . S
O256 In247 2.326 . S
O256 C252 1.260 . S
C257 O248 1.240 . S
C257 O249 1.252 . S
O258 In247 2.294 . S
O258 C251 1.240 . S
O259 In247 2.326 . S
O259 C251 1.252 . S
In260 O261 2.294 . S
In260 O262 2.326 . S
In260 O266 2.266 . S
In260 O267 2.326 . S
In260 O268 2.266 . S
In260 O269 2.326 1_554 S
In260 O271 2.294 . S
In260 O272 2.326 . S
O261 In260 2.294 . S
O261 C270 1.240 . S
O262 In260 2.326 . S
O262 C270 1.252 . S
C263 O266 1.252 . S
C263 O267 1.260 . S
C264 O271 1.240 . S
C264 O272 1.252 . S
C265 O268 1.252 1_556 S
C265 O269 1.260 . S
O266 In260 2.266 . S
O266 C263 1.252 . S
O267 In260 2.326 . S
O267 C263 1.260 . S
O268 In260 2.266 . S
O268 C265 1.252 1_554 S
O269 In260 2.326 1_556 S
O269 C265 1.260 . S
C270 O261 1.240 . S
C270 O262 1.252 . S
O271 In260 2.294 . S
O271 C264 1.240 . S
O272 In260 2.326 . S
O272 C264 1.252 . S
In273 O274 2.294 . S
In273 O275 2.326 . S
In273 O279 2.266 . S
In273 O280 2.326 . S
In273 O281 2.266 . S
In273 O282 2.326 . S
In273 O284 2.294 . S
In273 O285 2.326 . S
O274 In273 2.294 . S
O274 C283 1.240 . S
O275 In273 2.326 . S
O275 C283 1.252 . S
C276 O279 1.252 . S
C276 O280 1.260 . S
C277 O284 1.240 . S
C277 O285 1.252 . S
C278 O281 1.252 . S
C278 O282 1.260 . S
O279 In273 2.266 . S
O279 C276 1.252 . S
O280 In273 2.326 . S
O280 C276 1.260 . S
O281 In273 2.266 . S
O281 C278 1.252 . S
O282 In273 2.326 . S
O282 C278 1.260 . S
C283 O274 1.240 . S
C283 O275 1.252 . S
O284 In273 2.294 . S
O284 C277 1.240 . S
O285 In273 2.326 . S
O285 C277 1.252 . S
In286 O287 2.294 . S
In286 O288 2.326 . S
In286 O292 2.266 . S
In286 O293 2.326 . S
In286 O294 2.266 . S
In286 O295 2.326 . S
In286 O297 2.294 . S
In286 O298 2.326 . S
O287 In286 2.294 . S
O287 C296 1.240 . S
O288 In286 2.326 . S
O288 C296 1.252 . S
C289 O292 1.252 . S
C289 O293 1.260 . S
C290 O297 1.240 . S
C290 O298 1.252 . S
C291 O294 1.252 . S
C291 O295 1.260 . S
O292 In286 2.266 . S
O292 C289 1.252 . S
O293 In286 2.326 . S
O293 C289 1.260 . S
O294 In286 2.266 . S
O294 C291 1.252 . S
O295 In286 2.326 . S
O295 C291 1.260 . S
C296 O287 1.240 . S
C296 O288 1.252 . S
O297 In286 2.294 . S
O297 C290 1.240 . S
O298 In286 2.326 . S
O298 C290 1.252 . S
In299 O300 2.294 . S
In299 O301 2.326 . S
In299 O305 2.266 . S
In299 O306 2.326 . S
In299 O307 2.266 . S
In299 O308 2.326 . S
In299 O310 2.294 . S
In299 O311 2.326 . S
O300 In299 2.294 . S
O300 C309 1.240 . S
O301 In299 2.326 . S
O301 C309 1.252 . S
C302 O305 1.252 . S
C302 O306 1.260 . S
C303 O310 1.240 . S
C303 O311 1.252 . S
C304 O307 1.252 . S
C304 O308 1.260 . S
O305 In299 2.266 . S
O305 C302 1.252 . S
O306 In299 2.326 . S
O306 C302 1.260 . S
O307 In299 2.266 . S
O307 C304 1.252 . S
O308 In299 2.326 . S
O308 C304 1.260 . S
C309 O300 1.240 . S
C309 O301 1.252 . S
O310 In299 2.294 . S
O310 C303 1.240 . S
O311 In299 2.326 . S
O311 C303 1.252 . S
Tb312 C321 2.764 . S
Tb312 O322 2.325 . S
Tb312 O325 2.303 . S
Tb312 O329 2.322 . S
Tb312 O330 2.349 . S
Tb312 O333 2.415 . S
Tb312 O334 2.399 . S
Tb313 O323 2.322 . S
Tb313 O324 2.349 . S
Tb313 O326 2.415 1_455 S
Tb313 O327 2.399 1_455 S
Tb313 O328 2.325 . S
Tb313 O331 2.303 . S
Tb313 C342 2.764 1_455 S
C314 O330 1.261 . S
C314 O331 1.257 . S
C315 C318 1.358 . S
C315 C319 1.332 . S
C315 C321 1.504 . S
C316 C317 1.373 . S
C316 C320 1.308 . S
C317 C316 1.373 . S
C317 C318 1.429 . S
C317 H344 0.932 . S
C318 C315 1.358 . S
C318 C317 1.429 . S
C318 H345 0.930 . S
C319 C315 1.332 . S
C319 C320 1.394 . S
C319 H346 0.932 . S
C320 C316 1.308 . S
C320 C319 1.394 . S
C320 H347 0.929 . S
C321 Tb312 2.764 . S
C321 C315 1.504 . S
C321 O333 1.239 . S
C321 O334 1.263 . S
O322 Tb312 2.325 . S
O322 C332 1.236 . S
O323 Tb313 2.322 . S
O323 C332 1.257 . S
O324 Tb313 2.349 . S
O324 C335 1.261 . S
O325 Tb312 2.303 . S
O325 C335 1.257 . S
O326 Tb313 2.415 1_655 S
O326 C342 1.239 . S
O327 Tb313 2.399 1_655 S
O327 C342 1.263 . S
O328 Tb313 2.325 . S
O328 C343 1.236 . S
O329 Tb312 2.322 . S
O329 C343 1.257 . S
O330 Tb312 2.349 . S
O330 C314 1.261 . S
O331 Tb313 2.303 . S
O331 C314 1.257 . S
C332 O322 1.236 . S
C332 O323 1.257 . S
O333 Tb312 2.415 . S
O333 C321 1.239 . S
O334 Tb312 2.399 . S
O334 C321 1.263 . S
C335 O324 1.261 . S
C335 O325 1.257 . S
C336 C339 1.358 . S
C336 C340 1.332 . S
C336 C342 1.504 . S
C337 C338 1.373 1_554 S
C337 C341 1.308 . S
C338 C337 1.373 1_556 S
C338 C339 1.429 1_556 S
C338 H348 0.932 . S
C339 C336 1.358 . S
C339 C338 1.429 1_554 S
C339 H349 0.930 1_554 S
C340 C336 1.332 . S
C340 C341 1.394 . S
C340 H350 0.932 . S
C341 C337 1.308 . S
C341 C340 1.394 . S
C341 H351 0.929 . S
C342 Tb313 2.764 1_655 S
C342 O326 1.239 . S
C342 O327 1.263 . S
C342 C336 1.504 . S
C343 O328 1.236 . S
C343 O329 1.257 . S
H344 C317 0.932 . S
H345 C318 0.930 . S
H346 C319 0.932 . S
H347 C320 0.929 . S
H348 C338 0.932 . S
H349 C339 0.930 1_556 S
H350 C340 0.932 . S
H351 C341 0.929 . S
Tb352 C361 2.764 . S
Tb352 O362 2.325 . S
Tb352 O365 2.303 . S
Tb352 O369 2.322 . S
Tb352 O370 2.349 . S
Tb352 O373 2.415 . S
Tb352 O374 2.399 . S
Tb353 O363 2.322 . S
Tb353 O364 2.349 . S
Tb353 O366 2.415 . S
Tb353 O367 2.399 . S
Tb353 O368 2.325 . S
Tb353 O371 2.303 . S
Tb353 C382 2.764 . S
C354 O370 1.261 . S
C354 O371 1.257 . S
C355 C358 1.358 . S
C355 C359 1.332 . S
C355 C361 1.504 . S
C356 C357 1.373 . S
C356 C360 1.308 . S
C357 C356 1.373 . S
C357 C358 1.429 . S
C357 H384 0.932 . S
C358 C355 1.358 . S
C358 C357 1.429 . S
C358 H385 0.930 . S
C359 C355 1.332 . S
C359 C360 1.394 . S
C359 H386 0.932 . S
C360 C356 1.308 . S
C360 C359 1.394 . S
C360 H387 0.929 . S
C361 Tb352 2.764 . S
C361 C355 1.504 . S
C361 O373 1.239 . S
C361 O374 1.263 . S
O362 Tb352 2.325 . S
O362 C372 1.236 . S
O363 Tb353 2.322 . S
O363 C372 1.257 . S
O364 Tb353 2.349 . S
O364 C375 1.261 . S
O365 Tb352 2.303 . S
O365 C375 1.257 . S
O366 Tb353 2.415 . S
O366 C382 1.239 . S
O367 Tb353 2.399 . S
O367 C382 1.263 . S
O368 Tb353 2.325 . S
O368 C383 1.236 . S
O369 Tb352 2.322 . S
O369 C383 1.257 . S
O370 Tb352 2.349 . S
O370 C354 1.261 . S
O371 Tb353 2.303 . S
O371 C354 1.257 . S
C372 O362 1.236 . S
C372 O363 1.257 . S
O373 Tb352 2.415 . S
O373 C361 1.239 . S
O374 Tb352 2.399 . S
O374 C361 1.263 . S
C375 O364 1.261 . S
C375 O365 1.257 . S
C376 C379 1.358 . S
C376 C380 1.332 . S
C376 C382 1.504 . S
C377 C378 1.373 . S
C377 C381 1.308 . S
C378 C377 1.373 . S
C378 C379 1.429 . S
C378 H388 0.932 . S
C379 C376 1.358 . S
C379 C378 1.429 . S
C379 H389 0.930 . S
C380 C376 1.332 . S
C380 C381 1.394 . S
C380 H390 0.932 . S
C381 C377 1.308 . S
C381 C380 1.394 . S
C381 H391 0.929 . S
C382 Tb353 2.764 . S
C382 O366 1.239 . S
C382 O367 1.263 . S
C382 C376 1.504 . S
C383 O368 1.236 . S
C383 O369 1.257 . S
H384 C357 0.932 . S
H385 C358 0.930 . S
H386 C359 0.932 . S
H387 C360 0.929 . S
H388 C378 0.932 . S
H389 C379 0.930 . S
H390 C380 0.932 . S
H391 C381 0.929 . S
Tb392 C401 2.764 . S
Tb392 O402 2.325 . S
Tb392 O405 2.303 . S
Tb392 O409 2.322 1_545 S
Tb392 O410 2.349 . S
Tb392 O413 2.415 . S
Tb392 O414 2.399 . S
Tb393 O403 2.322 . S
Tb393 O404 2.349 . S
Tb393 O406 2.415 . S
Tb393 O407 2.399 . S
Tb393 O408 2.325 1_545 S
Tb393 O411 2.303 . S
Tb393 C422 2.764 . S
C394 O410 1.261 . S
C394 O411 1.257 . S
C395 C398 1.358 . S
C395 C399 1.332 . S
C395 C401 1.504 . S
C396 C397 1.373 . S
C396 C400 1.308 . S
C397 C396 1.373 . S
C397 C398 1.429 . S
C397 H424 0.932 . S
C398 C395 1.358 . S
C398 C397 1.429 . S
C398 H425 0.930 . S
C399 C395 1.332 . S
C399 C400 1.394 . S
C399 H426 0.932 . S
C400 C396 1.308 . S
C400 C399 1.394 . S
C400 H427 0.929 . S
C401 Tb392 2.764 . S
C401 C395 1.504 . S
C401 O413 1.239 . S
C401 O414 1.263 . S
O402 Tb392 2.325 . S
O402 C412 1.236 . S
O403 Tb393 2.322 . S
O403 C412 1.257 . S
O404 Tb393 2.349 . S
O404 C415 1.261 . S
O405 Tb392 2.303 . S
O405 C415 1.257 . S
O406 Tb393 2.415 . S
O406 C422 1.239 . S
O407 Tb393 2.399 . S
O407 C422 1.263 . S
O408 Tb393 2.325 1_565 S
O408 C423 1.236 . S
O409 Tb392 2.322 1_565 S
O409 C423 1.257 . S
O410 Tb392 2.349 . S
O410 C394 1.261 . S
O411 Tb393 2.303 . S
O411 C394 1.257 . S
C412 O402 1.236 . S
C412 O403 1.257 . S
O413 Tb392 2.415 . S
O413 C401 1.239 . S
O414 Tb392 2.399 . S
O414 C401 1.263 . S
C415 O404 1.261 . S
C415 O405 1.257 . S
C416 C419 1.358 . S
C416 C420 1.332 . S
C416 C422 1.504 1_565 S
C417 C418 1.373 . S
C417 C421 1.308 . S
C418 C417 1.373 . S
C418 C419 1.429 . S
C418 H428 0.932 . S
C419 C416 1.358 . S
C419 C418 1.429 . S
C419 H429 0.930 1_565 S
C420 C416 1.332 . S
C420 C421 1.394 . S
C420 H430 0.932 . S
C421 C417 1.308 . S
C421 C420 1.394 . S
C421 H431 0.929 . S
C422 Tb393 2.764 . S
C422 O406 1.239 . S
C422 O407 1.263 . S
C422 C416 1.504 1_545 S
C423 O408 1.236 . S
C423 O409 1.257 . S
H424 C397 0.932 . S
H425 C398 0.930 . S
H426 C399 0.932 . S
H427 C400 0.929 . S
H428 C418 0.932 . S
H429 C419 0.930 1_545 S
H430 C420 0.932 . S
H431 C421 0.929 . S
Tb432 C441 2.764 . S
Tb432 O442 2.325 . S
Tb432 O445 2.303 . S
Tb432 O449 2.322 . S
Tb432 O450 2.349 . S
Tb432 O453 2.415 . S
Tb432 O454 2.399 . S
Tb433 O443 2.322 . S
Tb433 O444 2.349 . S
Tb433 O446 2.415 . S
Tb433 O447 2.399 . S
Tb433 O448 2.325 . S
Tb433 O451 2.303 . S
Tb433 C462 2.764 . S
C434 O450 1.261 . S
C434 O451 1.257 . S
C435 C438 1.358 . S
C435 C439 1.332 . S
C435 C441 1.504 . S
C436 C437 1.373 . S
C436 C440 1.308 . S
C437 C436 1.373 . S
C437 C438 1.429 . S
C437 H464 0.932 . S
C438 C435 1.358 . S
C438 C437 1.429 . S
C438 H465 0.930 . S
C439 C435 1.332 . S
C439 C440 1.394 . S
C439 H466 0.932 . S
C440 C436 1.308 . S
C440 C439 1.394 . S
C440 H467 0.929 . S
C441 Tb432 2.764 . S
C441 C435 1.504 . S
C441 O453 1.239 . S
C441 O454 1.263 . S
O442 Tb432 2.325 . S
O442 C452 1.236 . S
O443 Tb433 2.322 . S
O443 C452 1.257 . S
O444 Tb433 2.349 . S
O444 C455 1.261 . S
O445 Tb432 2.303 . S
O445 C455 1.257 . S
O446 Tb433 2.415 . S
O446 C462 1.239 . S
O447 Tb433 2.399 . S
O447 C462 1.263 . S
O448 Tb433 2.325 . S
O448 C463 1.236 . S
O449 Tb432 2.322 . S
O449 C463 1.257 . S
O450 Tb432 2.349 . S
O450 C434 1.261 . S
O451 Tb433 2.303 . S
O451 C434 1.257 . S
C452 O442 1.236 . S
C452 O443 1.257 . S
O453 Tb432 2.415 . S
O453 C441 1.239 . S
O454 Tb432 2.399 . S
O454 C441 1.263 . S
C455 O444 1.261 . S
C455 O445 1.257 . S
C456 C459 1.358 . S
C456 C460 1.332 . S
C456 C462 1.504 . S
C457 C458 1.373 . S
C457 C461 1.308 . S
C458 C457 1.373 . S
C458 C459 1.429 . S
C458 H468 0.932 . S
C459 C456 1.358 . S
C459 C458 1.429 . S
C459 H469 0.930 . S
C460 C456 1.332 . S
C460 C461 1.394 . S
C460 H470 0.932 . S
C461 C457 1.308 . S
C461 C460 1.394 . S
C461 H471 0.929 . S
C462 Tb433 2.764 . S
C462 O446 1.239 . S
C462 O447 1.263 . S
C462 C456 1.504 . S
C463 O448 1.236 . S
C463 O449 1.257 . S
H464 C437 0.932 . S
H465 C438 0.930 . S
H466 C439 0.932 . S
H467 C440 0.929 . S
H468 C458 0.932 . S
H469 C459 0.930 . S
H470 C460 0.932 . S
H471 C461 0.929 . S
Tb472 C481 2.764 . S
Tb472 O482 2.325 . S
Tb472 O485 2.303 . S
Tb472 O489 2.322 . S
Tb472 O490 2.349 . S
Tb472 O493 2.415 . S
Tb472 O494 2.399 . S
Tb473 O483 2.322 1_545 S
Tb473 O484 2.349 . S
Tb473 O486 2.415 . S
Tb473 O487 2.399 . S
Tb473 O488 2.325 . S
Tb473 O491 2.303 . S
Tb473 C502 2.764 . S
C474 O490 1.261 . S
C474 O491 1.257 . S
C475 C478 1.358 . S
C475 C479 1.332 . S
C475 C481 1.504 . S
C476 C477 1.373 . S
C476 C480 1.308 . S
C477 C476 1.373 . S
C477 C478 1.429 . S
C477 H504 0.932 . S
C478 C475 1.358 . S
C478 C477 1.429 . S
C478 H505 0.930 . S
C479 C475 1.332 . S
C479 C480 1.394 . S
C479 H506 0.932 . S
C480 C476 1.308 . S
C480 C479 1.394 . S
C480 H507 0.929 . S
C481 Tb472 2.764 . S
C481 C475 1.504 . S
C481 O493 1.239 . S
C481 O494 1.263 . S
O482 Tb472 2.325 . S
O482 C492 1.236 1_545 S
O483 Tb473 2.322 1_565 S
O483 C492 1.257 . S
O484 Tb473 2.349 . S
O484 C495 1.261 . S
O485 Tb472 2.303 . S
O485 C495 1.257 . S
O486 Tb473 2.415 . S
O486 C502 1.239 . S
O487 Tb473 2.399 . S
O487 C502 1.263 . S
O488 Tb473 2.325 . S
O488 C503 1.236 . S
O489 Tb472 2.322 . S
O489 C503 1.257 . S
O490 Tb472 2.349 . S
O490 C474 1.261 . S
O491 Tb473 2.303 . S
O491 C474 1.257 . S
C492 O482 1.236 1_565 S
C492 O483 1.257 . S
O493 Tb472 2.415 . S
O493 C481 1.239 . S
O494 Tb472 2.399 . S
O494 C481 1.263 . S
C495 O484 1.261 . S
C495 O485 1.257 . S
C496 C499 1.358 . S
C496 C500 1.332 . S
C496 C502 1.504 . S
C497 C498 1.373 . S
C497 C501 1.308 1_455 S
C498 C497 1.373 . S
C498 C499 1.429 . S
C498 H508 0.932 . S
C499 C496 1.358 . S
C499 C498 1.429 . S
C499 H509 0.930 . S
C500 C496 1.332 . S
C500 C501 1.394 1_455 S
C500 H510 0.932 1_455 S
C501 C497 1.308 1_655 S
C501 C500 1.394 1_655 S
C501 H511 0.929 . S
C502 Tb473 2.764 . S
C502 O486 1.239 . S
C502 O487 1.263 . S
C502 C496 1.504 . S
C503 O488 1.236 . S
C503 O489 1.257 . S
H504 C477 0.932 . S
H505 C478 0.930 . S
H506 C479 0.932 . S
H507 C480 0.929 . S
H508 C498 0.932 . S
H509 C499 0.930 . S
H510 C500 0.932 1_655 S
H511 C501 0.929 . S
Tb512 C521 2.764 . S
Tb512 O522 2.325 . S
Tb512 O525 2.303 . S
Tb512 O529 2.322 . S
Tb512 O530 2.349 . S
Tb512 O533 2.415 . S
Tb512 O534 2.399 . S
Tb513 O523 2.322 . S
Tb513 O524 2.349 . S
Tb513 O526 2.415 . S
Tb513 O527 2.399 . S
Tb513 O528 2.325 . S
Tb513 O531 2.303 . S
Tb513 C542 2.764 . S
C514 O530 1.261 . S
C514 O531 1.257 . S
C515 C518 1.358 . S
C515 C519 1.332 . S
C515 C521 1.504 . S
C516 C517 1.373 . S
C516 C520 1.308 . S
C517 C516 1.373 . S
C517 C518 1.429 . S
C517 H544 0.932 . S
C518 C515 1.358 . S
C518 C517 1.429 . S
C518 H545 0.930 . S
C519 C515 1.332 . S
C519 C520 1.394 . S
C519 H546 0.932 . S
C520 C516 1.308 . S
C520 C519 1.394 . S
C520 H547 0.929 . S
C521 Tb512 2.764 . S
C521 C515 1.504 . S
C521 O533 1.239 . S
C521 O534 1.263 . S
O522 Tb512 2.325 . S
O522 C532 1.236 . S
O523 Tb513 2.322 . S
O523 C532 1.257 . S
O524 Tb513 2.349 . S
O524 C535 1.261 . S
O525 Tb512 2.303 . S
O525 C535 1.257 . S
O526 Tb513 2.415 . S
O526 C542 1.239 . S
O527 Tb513 2.399 . S
O527 C542 1.263 . S
O528 Tb513 2.325 . S
O528 C543 1.236 . S
O529 Tb512 2.322 . S
O529 C543 1.257 . S
O530 Tb512 2.349 . S
O530 C514 1.261 . S
O531 Tb513 2.303 . S
O531 C514 1.257 . S
C532 O522 1.236 . S
C532 O523 1.257 . S
O533 Tb512 2.415 . S
O533 C521 1.239 . S
O534 Tb512 2.399 . S
O534 C521 1.263 . S
C535 O524 1.261 . S
C535 O525 1.257 . S
C536 C539 1.358 . S
C536 C540 1.332 . S
C536 C542 1.504 . S
C537 C538 1.373 . S
C537 C541 1.308 . S
C538 C537 1.373 . S
C538 C539 1.429 . S
C538 H548 0.932 . S
C539 C536 1.358 . S
C539 C538 1.429 . S
C539 H549 0.930 . S
C540 C536 1.332 . S
C540 C541 1.394 . S
C540 H550 0.932 . S
C541 C537 1.308 . S
C541 C540 1.394 . S
C541 H551 0.929 . S
C542 Tb513 2.764 . S
C542 O526 1.239 . S
C542 O527 1.263 . S
C542 C536 1.504 . S
C543 O528 1.236 . S
C543 O529 1.257 . S
H544 C517 0.932 . S
H545 C518 0.930 . S
H546 C519 0.932 . S
H547 C520 0.929 . S
H548 C538 0.932 . S
H549 C539 0.930 . S
H550 C540 0.932 . S
H551 C541 0.929 . S
Tb552 C561 2.764 . S
Tb552 O562 2.325 . S
Tb552 O565 2.303 . S
Tb552 O569 2.322 . S
Tb552 O570 2.349 . S
Tb552 O573 2.415 . S
Tb552 O574 2.399 . S
Tb553 O563 2.322 1_556 S
Tb553 O564 2.349 . S
Tb553 O566 2.415 . S
Tb553 O567 2.399 . S
Tb553 O568 2.325 . S
Tb553 O571 2.303 1_556 S
Tb553 C582 2.764 . S
C554 O570 1.261 . S
C554 O571 1.257 . S
C555 C558 1.358 . S
C555 C559 1.332 . S
C555 C561 1.504 . S
C556 C557 1.373 . S
C556 C560 1.308 . S
C557 C556 1.373 . S
C557 C558 1.429 . S
C557 H584 0.932 . S
C558 C555 1.358 . S
C558 C557 1.429 . S
C558 H585 0.930 . S
C559 C555 1.332 . S
C559 C560 1.394 . S
C559 H586 0.932 . S
C560 C556 1.308 . S
C560 C559 1.394 . S
C560 H587 0.929 . S
C561 Tb552 2.764 . S
C561 C555 1.504 . S
C561 O573 1.239 . S
C561 O574 1.263 . S
O562 Tb552 2.325 . S
O562 C572 1.236 . S
O563 Tb553 2.322 1_554 S
O563 C572 1.257 . S
O564 Tb553 2.349 . S
O564 C575 1.261 1_556 S
O565 Tb552 2.303 . S
O565 C575 1.257 . S
O566 Tb553 2.415 . S
O566 C582 1.239 . S
O567 Tb553 2.399 . S
O567 C582 1.263 . S
O568 Tb553 2.325 . S
O568 C583 1.236 1_556 S
O569 Tb552 2.322 . S
O569 C583 1.257 . S
O570 Tb552 2.349 . S
O570 C554 1.261 . S
O571 Tb553 2.303 1_554 S
O571 C554 1.257 . S
C572 O562 1.236 . S
C572 O563 1.257 . S
O573 Tb552 2.415 . S
O573 C561 1.239 . S
O574 Tb552 2.399 . S
O574 C561 1.263 . S
C575 O564 1.261 1_554 S
C575 O565 1.257 . S
C576 C579 1.358 . S
C576 C580 1.332 . S
C576 C582 1.504 . S
C577 C578 1.373 . S
C577 C581 1.308 . S
C578 C577 1.373 . S
C578 C579 1.429 . S
C578 H588 0.932 . S
C579 C576 1.358 . S
C579 C578 1.429 . S
C579 H589 0.930 . S
C580 C576 1.332 . S
C580 C581 1.394 . S
C580 H590 0.932 . S
C581 C577 1.308 . S
C581 C580 1.394 . S
C581 H591 0.929 . S
C582 Tb553 2.764 . S
C582 O566 1.239 . S
C582 O567 1.263 . S
C582 C576 1.504 . S
C583 O568 1.236 1_554 S
C583 O569 1.257 . S
H584 C557 0.932 . S
H585 C558 0.930 . S
H586 C559 0.932 . S
H587 C560 0.929 . S
H588 C578 0.932 . S
H589 C579 0.930 . S
H590 C580 0.932 . S
H591 C581 0.929 . S
Tb592 C601 2.764 . S
Tb592 O602 2.325 . S
Tb592 O605 2.303 . S
Tb592 O609 2.322 . S
Tb592 O610 2.349 . S
Tb592 O613 2.415 . S
Tb592 O614 2.399 . S
Tb593 O603 2.322 . S
Tb593 O604 2.349 . S
Tb593 O606 2.415 . S
Tb593 O607 2.399 . S
Tb593 O608 2.325 . S
Tb593 O611 2.303 . S
Tb593 C622 2.764 . S
C594 O610 1.261 . S
C594 O611 1.257 . S
C595 C598 1.358 . S
C595 C599 1.332 . S
C595 C601 1.504 . S
C596 C597 1.373 . S
C596 C600 1.308 . S
C597 C596 1.373 . S
C597 C598 1.429 . S
C597 H624 0.932 . S
C598 C595 1.358 . S
C598 C597 1.429 . S
C598 H625 0.930 . S
C599 C595 1.332 . S
C599 C600 1.394 . S
C599 H626 0.932 . S
C600 C596 1.308 . S
C600 C599 1.394 . S
C600 H627 0.929 . S
C601 Tb592 2.764 . S
C601 C595 1.504 . S
C601 O613 1.239 . S
C601 O614 1.263 . S
O602 Tb592 2.325 . S
O602 C612 1.236 . S
O603 Tb593 2.322 . S
O603 C612 1.257 . S
O604 Tb593 2.349 . S
O604 C615 1.261 . S
O605 Tb592 2.303 . S
O605 C615 1.257 . S
O606 Tb593 2.415 . S
O606 C622 1.239 . S
O607 Tb593 2.399 . S
O607 C622 1.263 . S
O608 Tb593 2.325 . S
O608 C623 1.236 . S
O609 Tb592 2.322 . S
O609 C623 1.257 . S
O610 Tb592 2.349 . S
O610 C594 1.261 . S
O611 Tb593 2.303 . S
O611 C594 1.257 . S
C612 O602 1.236 . S
C612 O603 1.257 . S
O613 Tb592 2.415 . S
O613 C601 1.239 . S
O614 Tb592 2.399 . S
O614 C601 1.263 . S
C615 O604 1.261 . S
C615 O605 1.257 . S
C616 C619 1.358 . S
C616 C620 1.332 . S
C616 C622 1.504 . S
C617 C618 1.373 . S
C617 C621 1.308 . S
C618 C617 1.373 . S
C618 C619 1.429 . S
C618 H628 0.932 . S
C619 C616 1.358 . S
C619 C618 1.429 . S
C619 H629 0.930 . S
C620 C616 1.332 . S
C620 C621 1.394 . S
C620 H630 0.932 . S
C621 C617 1.308 . S
C621 C620 1.394 . S
C621 H631 0.929 . S
C622 Tb593 2.764 . S
C622 O606 1.239 . S
C622 O607 1.263 . S
C622 C616 1.504 . S
C623 O608 1.236 . S
C623 O609 1.257 . S
H624 C597 0.932 . S
H625 C598 0.930 . S
H626 C599 0.932 . S
H627 C600 0.929 . S
H628 C618 0.932 . S
H629 C619 0.930 . S
H630 C620 0.932 . S
H631 C621 0.929 . S
Tb632 C641 2.764 . S
Tb632 O642 2.325 . S
Tb632 O645 2.303 . S
Tb632 O649 2.322 . S
Tb632 O650 2.349 . S
Tb632 O653 2.415 . S
Tb632 O654 2.399 . S
Tb633 O643 2.322 1_556 S
Tb633 O644 2.349 1_556 S
Tb633 O646 2.415 . S
Tb633 O647 2.399 . S
Tb633 O648 2.325 . S
Tb633 O651 2.303 1_556 S
Tb633 C662 2.764 . S
C634 O650 1.261 . S
C634 O651 1.257 . S
C635 C638 1.358 . S
C635 C639 1.332 . S
C635 C641 1.504 . S
C636 C637 1.373 . S
C636 C640 1.308 . S
C637 C636 1.373 . S
C637 C638 1.429 . S
C637 H664 0.932 . S
C638 C635 1.358 . S
C638 C637 1.429 . S
C638 H665 0.930 . S
C639 C635 1.332 . S
C639 C640 1.394 . S
C639 H666 0.932 . S
C640 C636 1.308 . S
C640 C639 1.394 . S
C640 H667 0.929 . S
C641 Tb632 2.764 . S
C641 C635 1.504 . S
C641 O653 1.239 . S
C641 O654 1.263 . S
O642 Tb632 2.325 . S
O642 C652 1.236 . S
O643 Tb633 2.322 1_554 S
O643 C652 1.257 . S
O644 Tb633 2.349 1_554 S
O644 C655 1.261 . S
O645 Tb632 2.303 . S
O645 C655 1.257 . S
O646 Tb633 2.415 . S
O646 C662 1.239 . S
O647 Tb633 2.399 . S
O647 C662 1.263 . S
O648 Tb633 2.325 . S
O648 C663 1.236 1_556 S
O649 Tb632 2.322 . S
O649 C663 1.257 . S
O650 Tb632 2.349 . S
O650 C634 1.261 . S
O651 Tb633 2.303 1_554 S
O651 C634 1.257 . S
C652 O642 1.236 . S
C652 O643 1.257 . S
O653 Tb632 2.415 . S
O653 C641 1.239 . S
O654 Tb632 2.399 . S
O654 C641 1.263 . S
C655 O644 1.261 . S
C655 O645 1.257 . S
C656 C659 1.358 . S
C656 C660 1.332 . S
C656 C662 1.504 . S
C657 C658 1.373 . S
C657 C661 1.308 . S
C658 C657 1.373 . S
C658 C659 1.429 . S
C658 H668 0.932 . S
C659 C656 1.358 . S
C659 C658 1.429 . S
C659 H669 0.930 . S
C660 C656 1.332 . S
C660 C661 1.394 . S
C660 H670 0.932 . S
C661 C657 1.308 . S
C661 C660 1.394 . S
C661 H671 0.929 . S
C662 Tb633 2.764 . S
C662 O646 1.239 . S
C662 O647 1.263 . S
C662 C656 1.504 . S
C663 O648 1.236 1_554 S
C663 O649 1.257 . S
H664 C637 0.932 . S
H665 C638 0.930 . S
H666 C639 0.932 . S
H667 C640 0.929 . S
H668 C658 0.932 . S
H669 C659 0.930 . S
H670 C660 0.932 . S
H671 C661 0.929 . S
Tb672 C681 2.764 . S
Tb672 O682 2.325 . S
Tb672 O685 2.303 . S
Tb672 O689 2.322 . S
Tb672 O690 2.349 . S
Tb672 O693 2.415 . S
Tb672 O694 2.399 . S
Tb673 O683 2.322 . S
Tb673 O684 2.349 . S
Tb673 O686 2.415 . S
Tb673 O687 2.399 . S
Tb673 O688 2.325 . S
Tb673 O691 2.303 . S
Tb673 C702 2.764 . S
C674 O690 1.261 . S
C674 O691 1.257 . S
C675 C678 1.358 . S
C675 C679 1.332 . S
C675 C681 1.504 . S
C676 C677 1.373 . S
C676 C680 1.308 . S
C677 C676 1.373 . S
C677 C678 1.429 . S
C677 H704 0.932 . S
C678 C675 1.358 . S
C678 C677 1.429 . S
C678 H705 0.930 . S
C679 C675 1.332 . S
C679 C680 1.394 . S
C679 H706 0.932 . S
C680 C676 1.308 . S
C680 C679 1.394 . S
C680 H707 0.929 . S
C681 Tb672 2.764 . S
C681 C675 1.504 . S
C681 O693 1.239 . S
C681 O694 1.263 . S
O682 Tb672 2.325 . S
O682 C692 1.236 . S
O683 Tb673 2.322 . S
O683 C692 1.257 . S
O684 Tb673 2.349 . S
O684 C695 1.261 . S
O685 Tb672 2.303 . S
O685 C695 1.257 . S
O686 Tb673 2.415 . S
O686 C702 1.239 . S
O687 Tb673 2.399 . S
O687 C702 1.263 . S
O688 Tb673 2.325 . S
O688 C703 1.236 . S
O689 Tb672 2.322 . S
O689 C703 1.257 . S
O690 Tb672 2.349 . S
O690 C674 1.261 . S
O691 Tb673 2.303 . S
O691 C674 1.257 . S
C692 O682 1.236 . S
C692 O683 1.257 . S
O693 Tb672 2.415 . S
O693 C681 1.239 . S
O694 Tb672 2.399 . S
O694 C681 1.263 . S
C695 O684 1.261 . S
C695 O685 1.257 . S
C696 C699 1.358 . S
C696 C700 1.332 . S
C696 C702 1.504 . S
C697 C698 1.373 . S
C697 C701 1.308 . S
C698 C697 1.373 . S
C698 C699 1.429 . S
C698 H708 0.932 . S
C699 C696 1.358 . S
C699 C698 1.429 . S
C699 H709 0.930 . S
C700 C696 1.332 . S
C700 C701 1.394 . S
C700 H710 0.932 . S
C701 C697 1.308 . S
C701 C700 1.394 . S
C701 H711 0.929 . S
C702 Tb673 2.764 . S
C702 O686 1.239 . S
C702 O687 1.263 . S
C702 C696 1.504 . S
C703 O688 1.236 . S
C703 O689 1.257 . S
H704 C677 0.932 . S
H705 C678 0.930 . S
H706 C679 0.932 . S
H707 C680 0.929 . S
H708 C698 0.932 . S
H709 C699 0.930 . S
H710 C700 0.932 . S
H711 C701 0.929 . S
Tb712 C721 2.764 . S
Tb712 O722 2.325 . S
Tb712 O725 2.303 . S
Tb712 O729 2.322 . S
Tb712 O730 2.349 . S
Tb712 O733 2.415 . S
Tb712 O734 2.399 . S
Tb713 O723 2.322 . S
Tb713 O724 2.349 1_455 S
Tb713 O726 2.415 . S
Tb713 O727 2.399 . S
Tb713 O728 2.325 . S
Tb713 O731 2.303 . S
Tb713 C742 2.764 . S
C714 O730 1.261 . S
C714 O731 1.257 . S
C715 C718 1.358 . S
C715 C719 1.332 1_455 S
C715 C721 1.504 . S
C716 C717 1.373 1_655 S
C716 C720 1.308 . S
C717 C716 1.373 1_455 S
C717 C718 1.429 . S
C717 H744 0.932 . S
C718 C715 1.358 . S
C718 C717 1.429 . S
C718 H745 0.930 . S
C719 C715 1.332 1_655 S
C719 C720 1.394 . S
C719 H746 0.932 . S
C720 C716 1.308 . S
C720 C719 1.394 . S
C720 H747 0.929 . S
C721 Tb712 2.764 . S
C721 C715 1.504 . S
C721 O733 1.239 . S
C721 O734 1.263 . S
O722 Tb712 2.325 . S
O722 C732 1.236 . S
O723 Tb713 2.322 . S
O723 C732 1.257 . S
O724 Tb713 2.349 1_655 S
O724 C735 1.261 . S
O725 Tb712 2.303 . S
O725 C735 1.257 1_455 S
O726 Tb713 2.415 . S
O726 C742 1.239 . S
O727 Tb713 2.399 . S
O727 C742 1.263 . S
O728 Tb713 2.325 . S
O728 C743 1.236 . S
O729 Tb712 2.322 . S
O729 C743 1.257 . S
O730 Tb712 2.349 . S
O730 C714 1.261 . S
O731 Tb713 2.303 . S
O731 C714 1.257 . S
C732 O722 1.236 . S
C732 O723 1.257 . S
O733 Tb712 2.415 . S
O733 C721 1.239 . S
O734 Tb712 2.399 . S
O734 C721 1.263 . S
C735 O724 1.261 . S
C735 O725 1.257 1_655 S
C736 C739 1.358 . S
C736 C740 1.332 . S
C736 C742 1.504 . S
C737 C738 1.373 . S
C737 C741 1.308 . S
C738 C737 1.373 . S
C738 C739 1.429 . S
C738 H748 0.932 . S
C739 C736 1.358 . S
C739 C738 1.429 . S
C739 H749 0.930 . S
C740 C736 1.332 . S
C740 C741 1.394 . S
C740 H750 0.932 . S
C741 C737 1.308 . S
C741 C740 1.394 . S
C741 H751 0.929 . S
C742 Tb713 2.764 . S
C742 O726 1.239 . S
C742 O727 1.263 . S
C742 C736 1.504 . S
C743 O728 1.236 . S
C743 O729 1.257 . S
H744 C717 0.932 . S
H745 C718 0.930 . S
H746 C719 0.932 . S
H747 C720 0.929 . S
H748 C738 0.932 . S
H749 C739 0.930 . S
H750 C740 0.932 . S
H751 C741 0.929 . S
Tb752 C761 2.764 . S
Tb752 O762 2.325 . S
Tb752 O765 2.303 . S
Tb752 O769 2.322 . S
Tb752 O770 2.349 . S
Tb752 O773 2.415 . S
Tb752 O774 2.399 . S
Tb753 O763 2.322 . S
Tb753 O764 2.349 . S
Tb753 O766 2.415 . S
Tb753 O767 2.399 . S
Tb753 O768 2.325 . S
Tb753 O771 2.303 . S
Tb753 C782 2.764 . S
C754 O770 1.261 . S
C754 O771 1.257 . S
C755 C758 1.358 . S
C755 C759 1.332 . S
C755 C761 1.504 . S
C756 C757 1.373 . S
C756 C760 1.308 . S
C757 C756 1.373 . S
C757 C758 1.429 . S
C757 H784 0.932 . S
C758 C755 1.358 . S
C758 C757 1.429 . S
C758 H785 0.930 . S
C759 C755 1.332 . S
C759 C760 1.394 . S
C759 H786 0.932 . S
C760 C756 1.308 . S
C760 C759 1.394 . S
C760 H787 0.929 . S
C761 Tb752 2.764 . S
C761 C755 1.504 . S
C761 O773 1.239 . S
C761 O774 1.263 . S
O762 Tb752 2.325 . S
O762 C772 1.236 . S
O763 Tb753 2.322 . S
O763 C772 1.257 . S
O764 Tb753 2.349 . S
O764 C775 1.261 . S
O765 Tb752 2.303 . S
O765 C775 1.257 . S
O766 Tb753 2.415 . S
O766 C782 1.239 . S
O767 Tb753 2.399 . S
O767 C782 1.263 . S
O768 Tb753 2.325 . S
O768 C783 1.236 . S
O769 Tb752 2.322 . S
O769 C783 1.257 . S
O770 Tb752 2.349 . S
O770 C754 1.261 . S
O771 Tb753 2.303 . S
O771 C754 1.257 . S
C772 O762 1.236 . S
C772 O763 1.257 . S
O773 Tb752 2.415 . S
O773 C761 1.239 . S
O774 Tb752 2.399 . S
O774 C761 1.263 . S
C775 O764 1.261 . S
C775 O765 1.257 . S
C776 C779 1.358 . S
C776 C780 1.332 . S
C776 C782 1.504 . S
C777 C778 1.373 . S
C777 C781 1.308 . S
C778 C777 1.373 . S
C778 C779 1.429 . S
C778 H788 0.932 . S
C779 C776 1.358 . S
C779 C778 1.429 . S
C779 H789 0.930 . S
C780 C776 1.332 . S
C780 C781 1.394 . S
C780 H790 0.932 . S
C781 C777 1.308 . S
C781 C780 1.394 . S
C781 H791 0.929 . S
C782 Tb753 2.764 . S
C782 O766 1.239 . S
C782 O767 1.263 . S
C782 C776 1.504 . S
C783 O768 1.236 . S
C783 O769 1.257 . S
H784 C757 0.932 . S
H785 C758 0.930 . S
H786 C759 0.932 . S
H787 C760 0.929 . S
H788 C778 0.932 . S
H789 C779 0.930 . S
H790 C780 0.932 . S
H791 C781 0.929 . S
Tb792 C801 2.764 . S
Tb792 O802 2.325 . S
Tb792 O805 2.303 . S
Tb792 O809 2.322 . S
Tb792 O810 2.349 . S
Tb792 O813 2.415 . S
Tb792 O814 2.399 . S
Tb793 O803 2.322 . S
Tb793 O804 2.349 . S
Tb793 O806 2.415 . S
Tb793 O807 2.399 . S
Tb793 O808 2.325 . S
Tb793 O811 2.303 . S
Tb793 C822 2.764 . S
C794 O810 1.261 . S
C794 O811 1.257 . S
C795 C798 1.358 . S
C795 C799 1.332 . S
C795 C801 1.504 . S
C796 C797 1.373 . S
C796 C800 1.308 . S
C797 C796 1.373 . S
C797 C798 1.429 . S
C797 H824 0.932 . S
C798 C795 1.358 . S
C798 C797 1.429 . S
C798 H825 0.930 . S
C799 C795 1.332 . S
C799 C800 1.394 . S
C799 H826 0.932 . S
C800 C796 1.308 . S
C800 C799 1.394 . S
C800 H827 0.929 . S
C801 Tb792 2.764 . S
C801 C795 1.504 . S
C801 O813 1.239 . S
C801 O814 1.263 . S
O802 Tb792 2.325 . S
O802 C812 1.236 . S
O803 Tb793 2.322 . S
O803 C812 1.257 . S
O804 Tb793 2.349 . S
O804 C815 1.261 . S
O805 Tb792 2.303 . S
O805 C815 1.257 . S
O806 Tb793 2.415 . S
O806 C822 1.239 . S
O807 Tb793 2.399 . S
O807 C822 1.263 . S
O808 Tb793 2.325 . S
O808 C823 1.236 . S
O809 Tb792 2.322 . S
O809 C823 1.257 . S
O810 Tb792 2.349 . S
O810 C794 1.261 . S
O811 Tb793 2.303 . S
O811 C794 1.257 . S
C812 O802 1.236 . S
C812 O803 1.257 . S
O813 Tb792 2.415 . S
O813 C801 1.239 . S
O814 Tb792 2.399 . S
O814 C801 1.263 . S
C815 O804 1.261 . S
C815 O805 1.257 . S
C816 C819 1.358 . S
C816 C820 1.332 . S
C816 C822 1.504 . S
C817 C818 1.373 . S
C817 C821 1.308 . S
C818 C817 1.373 . S
C818 C819 1.429 . S
C818 H828 0.932 . S
C819 C816 1.358 . S
C819 C818 1.429 . S
C819 H829 0.930 . S
C820 C816 1.332 . S
C820 C821 1.394 . S
C820 H830 0.932 . S
C821 C817 1.308 . S
C821 C820 1.394 . S
C821 H831 0.929 . S
C822 Tb793 2.764 . S
C822 O806 1.239 . S
C822 O807 1.263 . S
C822 C816 1.504 . S
C823 O808 1.236 . S
C823 O809 1.257 . S
H824 C797 0.932 . S
H825 C798 0.930 . S
H826 C799 0.932 . S
H827 C800 0.929 . S
H828 C818 0.932 . S
H829 C819 0.930 . S
H830 C820 0.932 . S
H831 C821 0.929 . S
Tb832 C841 2.764 . S
Tb832 O842 2.325 . S
Tb832 O845 2.303 . S
Tb832 O849 2.322 . S
Tb832 O850 2.349 . S
Tb832 O853 2.415 . S
Tb832 O854 2.399 . S
Tb833 O843 2.322 . S
Tb833 O844 2.349 . S
Tb833 O846 2.415 . S
Tb833 O847 2.399 . S
Tb833 O848 2.325 . S
Tb833 O851 2.303 . S
Tb833 C862 2.764 . S
C834 O850 1.261 . S
C834 O851 1.257 . S
C835 C838 1.358 . S
C835 C839 1.332 . S
C835 C841 1.504 . S
C836 C837 1.373 . S
C836 C840 1.308 . S
C837 C836 1.373 . S
C837 C838 1.429 . S
C837 H864 0.932 . S
C838 C835 1.358 . S
C838 C837 1.429 . S
C838 H865 0.930 . S
C839 C835 1.332 . S
C839 C840 1.394 . S
C839 H866 0.932 . S
C840 C836 1.308 . S
C840 C839 1.394 . S
C840 H867 0.929 . S
C841 Tb832 2.764 . S
C841 C835 1.504 . S
C841 O853 1.239 . S
C841 O854 1.263 . S
O842 Tb832 2.325 . S
O842 C852 1.236 . S
O843 Tb833 2.322 . S
O843 C852 1.257 . S
O844 Tb833 2.349 . S
O844 C855 1.261 . S
O845 Tb832 2.303 . S
O845 C855 1.257 . S
O846 Tb833 2.415 . S
O846 C862 1.239 . S
O847 Tb833 2.399 . S
O847 C862 1.263 . S
O848 Tb833 2.325 . S
O848 C863 1.236 . S
O849 Tb832 2.322 . S
O849 C863 1.257 . S
O850 Tb832 2.349 . S
O850 C834 1.261 . S
O851 Tb833 2.303 . S
O851 C834 1.257 . S
C852 O842 1.236 . S
C852 O843 1.257 . S
O853 Tb832 2.415 . S
O853 C841 1.239 . S
O854 Tb832 2.399 . S
O854 C841 1.263 . S
C855 O844 1.261 . S
C855 O845 1.257 . S
C856 C859 1.358 . S
C856 C860 1.332 . S
C856 C862 1.504 . S
C857 C858 1.373 . S
C857 C861 1.308 . S
C858 C857 1.373 . S
C858 C859 1.429 . S
C858 H868 0.932 . S
C859 C856 1.358 . S
C859 C858 1.429 . S
C859 H869 0.930 . S
C860 C856 1.332 . S
C860 C861 1.394 . S
C860 H870 0.932 . S
C861 C857 1.308 . S
C861 C860 1.394 . S
C861 H871 0.929 . S
C862 Tb833 2.764 . S
C862 O846 1.239 . S
C862 O847 1.263 . S
C862 C856 1.504 . S
C863 O848 1.236 . S
C863 O849 1.257 . S
H864 C837 0.932 . S
H865 C838 0.930 . S
H866 C839 0.932 . S
H867 C840 0.929 . S
H868 C858 0.932 . S
H869 C859 0.930 . S
H870 C860 0.932 . S
H871 C861 0.929 . S
Tb872 C881 2.764 . S
Tb872 O882 2.325 . S
Tb872 O885 2.303 . S
Tb872 O889 2.322 . S
Tb872 O890 2.349 . S
Tb872 O893 2.415 . S
Tb872 O894 2.399 . S
Tb873 O883 2.322 . S
Tb873 O884 2.349 . S
Tb873 O886 2.415 . S
Tb873 O887 2.399 . S
Tb873 O888 2.325 . S
Tb873 O891 2.303 . S
Tb873 C902 2.764 . S
C874 O890 1.261 . S
C874 O891 1.257 . S
C875 C878 1.358 . S
C875 C879 1.332 . S
C875 C881 1.504 . S
C876 C877 1.373 . S
C876 C880 1.308 . S
C877 C876 1.373 . S
C877 C878 1.429 . S
C877 H904 0.932 . S
C878 C875 1.358 . S
C878 C877 1.429 . S
C878 H905 0.930 . S
C879 C875 1.332 . S
C879 C880 1.394 . S
C879 H906 0.932 . S
C880 C876 1.308 . S
C880 C879 1.394 . S
C880 H907 0.929 . S
C881 Tb872 2.764 . S
C881 C875 1.504 . S
C881 O893 1.239 . S
C881 O894 1.263 . S
O882 Tb872 2.325 . S
O882 C892 1.236 . S
O883 Tb873 2.322 . S
O883 C892 1.257 . S
O884 Tb873 2.349 . S
O884 C895 1.261 . S
O885 Tb872 2.303 . S
O885 C895 1.257 . S
O886 Tb873 2.415 . S
O886 C902 1.239 . S
O887 Tb873 2.399 . S
O887 C902 1.263 . S
O888 Tb873 2.325 . S
O888 C903 1.236 . S
O889 Tb872 2.322 . S
O889 C903 1.257 . S
O890 Tb872 2.349 . S
O890 C874 1.261 . S
O891 Tb873 2.303 . S
O891 C874 1.257 . S
C892 O882 1.236 . S
C892 O883 1.257 . S
O893 Tb872 2.415 . S
O893 C881 1.239 . S
O894 Tb872 2.399 . S
O894 C881 1.263 . S
C895 O884 1.261 . S
C895 O885 1.257 . S
C896 C899 1.358 . S
C896 C900 1.332 . S
C896 C902 1.504 . S
C897 C898 1.373 . S
C897 C901 1.308 . S
C898 C897 1.373 . S
C898 C899 1.429 . S
C898 H908 0.932 . S
C899 C896 1.358 . S
C899 C898 1.429 . S
C899 H909 0.930 . S
C900 C896 1.332 . S
C900 C901 1.394 . S
C900 H910 0.932 . S
C901 C897 1.308 . S
C901 C900 1.394 . S
C901 H911 0.929 . S
C902 Tb873 2.764 . S
C902 O886 1.239 . S
C902 O887 1.263 . S
C902 C896 1.504 . S
C903 O888 1.236 . S
C903 O889 1.257 . S
H904 C877 0.932 . S
H905 C878 0.930 . S
H906 C879 0.932 . S
H907 C880 0.929 . S
H908 C898 0.932 . S
H909 C899 0.930 . S
H910 C900 0.932 . S
H911 C901 0.929 . S
Tb912 C921 2.739 1_455 S
Tb912 O922 2.333 . S
Tb912 O925 2.316 . S
Tb912 O929 2.337 . S
Tb912 O930 2.362 . S
Tb912 O933 2.393 1_455 S
Tb912 O934 2.377 1_455 S
Tb913 O923 2.322 . S
Tb913 O924 2.349 . S
Tb913 O926 2.415 . S
Tb913 O927 2.399 . S
Tb913 O928 2.325 . S
Tb913 O931 2.303 . S
Tb913 C942 2.764 . S
C914 O930 1.261 . S
C914 O931 1.257 . S
C915 C918 1.358 . S
C915 C919 1.332 . S
C915 C921 1.504 . S
C916 C917 1.373 . S
C916 C920 1.308 . S
C917 C916 1.373 . S
C917 C918 1.429 . S
C917 H944 0.932 . S
C918 C915 1.358 . S
C918 C917 1.429 . S
C918 H945 0.930 . S
C919 C915 1.332 . S
C919 C920 1.394 . S
C919 H946 0.932 . S
C920 C916 1.308 . S
C920 C919 1.394 . S
C920 H947 0.929 . S
C921 Tb912 2.739 1_655 S
C921 C915 1.504 . S
C921 O933 1.239 . S
C921 O934 1.263 . S
O922 Tb912 2.333 . S
O922 C932 1.236 . S
O923 Tb913 2.322 . S
O923 C932 1.257 . S
O924 Tb913 2.349 . S
O924 C935 1.261 . S
O925 Tb912 2.316 . S
O925 C935 1.257 . S
O926 Tb913 2.415 . S
O926 C942 1.239 . S
O927 Tb913 2.399 . S
O927 C942 1.263 . S
O928 Tb913 2.325 . S
O928 C943 1.236 . S
O929 Tb912 2.337 . S
O929 C943 1.257 . S
O930 Tb912 2.362 . S
O930 C914 1.261 . S
O931 Tb913 2.303 . S
O931 C914 1.257 . S
C932 O922 1.236 . S
C932 O923 1.257 . S
O933 Tb912 2.393 1_655 S
O933 C921 1.239 . S
O934 Tb912 2.377 1_655 S
O934 C921 1.263 . S
C935 O924 1.261 . S
C935 O925 1.257 . S
C936 C939 1.358 . S
C936 C940 1.332 . S
C936 C942 1.504 . S
C937 C938 1.373 . S
C937 C941 1.308 . S
C938 C937 1.373 . S
C938 C939 1.429 . S
C938 H948 0.932 1_554 S
C939 C936 1.358 . S
C939 C938 1.429 . S
C939 H949 0.930 1_554 S
C940 C936 1.332 . S
C940 C941 1.394 . S
C940 H950 0.932 . S
C941 C937 1.308 . S
C941 C940 1.394 . S
C941 H951 0.929 . S
C942 Tb913 2.764 . S
C942 O926 1.239 . S
C942 O927 1.263 . S
C942 C936 1.504 . S
C943 O928 1.236 . S
C943 O929 1.257 . S
H944 C917 0.932 . S
H945 C918 0.930 . S
H946 C919 0.932 . S
H947 C920 0.929 . S
H948 C938 0.932 1_556 S
H949 C939 0.930 1_556 S
H950 C940 0.932 . S
H951 C941 0.929 . S
H952 C958 0.934 . S
H953 C961 0.911 1_655 S
H954 C962 0.930 . S
H955 C963 0.930 . S
H956 C966 0.930 . S
H957 C967 0.930 . S
C958 H952 0.934 . S
C958 C959 1.344 1_554 S
C958 C960 1.422 . S
C959 C958 1.344 1_556 S
C959 C961 1.418 . S
C960 C958 1.422 . S
C960 C965 1.425 . S
C960 C967 1.409 . S
C961 H953 0.911 1_455 S
C961 C959 1.418 . S
C961 C962 1.384 . S
C962 H954 0.930 . S
C962 C961 1.384 . S
C962 C965 1.409 1_556 S
C963 H955 0.930 . S
C963 C964 1.355 . S
C963 C965 1.415 . S
C964 C963 1.355 . S
C964 C966 1.419 . S
C965 C960 1.425 . S
C965 C962 1.409 1_554 S
C965 C963 1.415 . S
C966 H956 0.930 . S
C966 C964 1.419 . S
C966 C967 1.362 . S
C967 H957 0.930 . S
C967 C960 1.409 . S
C967 C966 1.362 . S
H968 C974 0.930 . S
H969 C977 0.930 . S
H970 C978 0.930 . S
H971 C979 0.930 . S
H972 C982 0.930 . S
H973 C983 0.930 . S
C974 H968 0.930 . S
C974 C975 1.355 . S
C974 C976 1.415 . S
C975 C974 1.355 . S
C975 C977 1.419 . S
C976 C974 1.415 . S
C976 C981 1.425 . S
C976 C983 1.409 . S
C977 H969 0.930 . S
C977 C975 1.419 . S
C977 C978 1.362 . S
C978 H970 0.930 . S
C978 C977 1.362 . S
C978 C981 1.409 . S
C979 H971 0.930 . S
C979 C980 1.355 . S
C979 C981 1.415 . S
C980 C979 1.355 . S
C980 C982 1.419 . S
C981 C976 1.425 . S
C981 C978 1.409 . S
C981 C979 1.415 . S
C982 H972 0.930 . S
C982 C980 1.419 . S
C982 C983 1.362 . S
C983 H973 0.930 . S
C983 C976 1.409 . S
C983 C982 1.362 . S
H984 C990 0.930 . S
H985 C993 0.930 . S
H986 C994 0.930 . S
H987 C995 0.930 . S
H988 C998 0.930 . S
H989 C999 0.930 . S
C990 H984 0.930 . S
C990 C991 1.355 . S
C990 C992 1.415 . S
C991 C990 1.355 . S
C991 C993 1.419 . S
C992 C990 1.415 . S
C992 C997 1.425 . S
C992 C999 1.409 . S
C993 H985 0.930 . S
C993 C991 1.419 . S
C993 C994 1.362 . S
C994 H986 0.930 . S
C994 C993 1.362 . S
C994 C997 1.409 . S
C995 H987 0.930 . S
C995 C996 1.355 . S
C995 C997 1.415 . S
C996 C995 1.355 . S
C996 C998 1.419 . S
C997 C992 1.425 . S
C997 C994 1.409 . S
C997 C995 1.415 . S
C998 H988 0.930 . S
C998 C996 1.419 . S
C998 C999 1.362 . S
C999 H989 0.930 . S
C999 C992 1.409 . S
C999 C998 1.362 . S
H1000 C1006 0.930 . S
H1001 C1009 0.930 . S
H1002 C1010 0.930 . S
H1003 C1011 0.930 . S
H1004 C1014 0.930 . S
H1005 C1015 0.930 . S
C1006 H1000 0.930 . S
C1006 C1007 1.355 . S
C1006 C1008 1.415 . S
C1007 C1006 1.355 . S
C1007 C1009 1.419 . S
C1008 C1006 1.415 . S
C1008 C1013 1.425 . S
C1008 C1015 1.409 . S
C1009 H1001 0.930 . S
C1009 C1007 1.419 . S
C1009 C1010 1.362 . S
C1010 H1002 0.930 . S
C1010 C1009 1.362 . S
C1010 C1013 1.409 . S
C1011 H1003 0.930 . S
C1011 C1012 1.355 . S
C1011 C1013 1.415 . S
C1012 C1011 1.355 . S
C1012 C1014 1.419 . S
C1013 C1008 1.425 . S
C1013 C1010 1.409 . S
C1013 C1011 1.415 . S
C1014 H1004 0.930 . S
C1014 C1012 1.419 . S
C1014 C1015 1.362 . S
C1015 H1005 0.930 . S
C1015 C1008 1.409 . S
C1015 C1014 1.362 . S
H1016 C1022 0.930 . S
H1017 C1025 0.930 . S
H1018 C1026 0.930 . S
H1019 C1027 0.930 . S
H1020 C1030 0.930 . S
H1021 C1031 0.930 . S
C1022 H1016 0.930 . S
C1022 C1023 1.355 . S
C1022 C1024 1.415 . S
C1023 C1022 1.355 . S
C1023 C1025 1.419 . S
C1024 C1022 1.415 . S
C1024 C1029 1.425 . S
C1024 C1031 1.409 . S
C1025 H1017 0.930 . S
C1025 C1023 1.419 . S
C1025 C1026 1.362 . S
C1026 H1018 0.930 . S
C1026 C1025 1.362 . S
C1026 C1029 1.409 . S
C1027 H1019 0.930 . S
C1027 C1028 1.355 . S
C1027 C1029 1.415 . S
C1028 C1027 1.355 . S
C1028 C1030 1.419 . S
C1029 C1024 1.425 . S
C1029 C1026 1.409 . S
C1029 C1027 1.415 . S
C1030 H1020 0.930 . S
C1030 C1028 1.419 . S
C1030 C1031 1.362 . S
C1031 H1021 0.930 . S
C1031 C1024 1.409 . S
C1031 C1030 1.362 . S
H1032 C1038 0.930 . S
H1033 C1041 0.930 . S
H1034 C1042 0.930 . S
H1035 C1043 0.930 . S
H1036 C1046 0.930 . S
H1037 C1047 0.930 . S
C1038 H1032 0.930 . S
C1038 C1039 1.355 . S
C1038 C1040 1.415 . S
C1039 C1038 1.355 . S
C1039 C1041 1.419 . S
C1040 C1038 1.415 . S
C1040 C1045 1.425 . S
C1040 C1047 1.409 . S
C1041 H1033 0.930 . S
C1041 C1039 1.419 . S
C1041 C1042 1.362 . S
C1042 H1034 0.930 . S
C1042 C1041 1.362 . S
C1042 C1045 1.409 . S
C1043 H1035 0.930 . S
C1043 C1044 1.355 . S
C1043 C1045 1.415 . S
C1044 C1043 1.355 . S
C1044 C1046 1.419 . S
C1045 C1040 1.425 . S
C1045 C1042 1.409 . S
C1045 C1043 1.415 . S
C1046 H1036 0.930 . S
C1046 C1044 1.419 . S
C1046 C1047 1.362 . S
C1047 H1037 0.930 . S
C1047 C1040 1.409 . S
C1047 C1046 1.362 . S
H1048 C1054 0.930 . S
H1049 C1057 0.930 . S
H1050 C1058 0.930 . S
H1051 C1059 0.930 . S
H1052 C1062 0.930 . S
H1053 C1063 0.930 . S
C1054 H1048 0.930 . S
C1054 C1055 1.355 . S
C1054 C1056 1.415 . S
C1055 C1054 1.355 . S
C1055 C1057 1.419 . S
C1056 C1054 1.415 . S
C1056 C1061 1.425 . S
C1056 C1063 1.409 . S
C1057 H1049 0.930 . S
C1057 C1055 1.419 . S
C1057 C1058 1.362 . S
C1058 H1050 0.930 . S
C1058 C1057 1.362 . S
C1058 C1061 1.409 . S
C1059 H1051 0.930 . S
C1059 C1060 1.355 . S
C1059 C1061 1.415 . S
C1060 C1059 1.355 . S
C1060 C1062 1.419 . S
C1061 C1056 1.425 . S
C1061 C1058 1.409 . S
C1061 C1059 1.415 . S
C1062 H1052 0.930 . S
C1062 C1060 1.419 . S
C1062 C1063 1.362 . S
C1063 H1053 0.930 . S
C1063 C1056 1.409 . S
C1063 C1062 1.362 . S
H1064 C1070 0.930 . S
H1065 C1073 0.930 . S
H1066 C1074 0.930 . S
H1067 C1075 0.930 . S
H1068 C1078 0.930 . S
H1069 C1079 0.930 . S
C1070 H1064 0.930 . S
C1070 C1071 1.355 . S
C1070 C1072 1.415 . S
C1071 C1070 1.355 . S
C1071 C1073 1.419 . S
C1072 C1070 1.415 . S
C1072 C1077 1.425 . S
C1072 C1079 1.409 . S
C1073 H1065 0.930 . S
C1073 C1071 1.419 . S
C1073 C1074 1.362 . S
C1074 H1066 0.930 . S
C1074 C1073 1.362 . S
C1074 C1077 1.409 . S
C1075 H1067 0.930 . S
C1075 C1076 1.355 . S
C1075 C1077 1.415 . S
C1076 C1075 1.355 . S
C1076 C1078 1.419 . S
C1077 C1072 1.425 . S
C1077 C1074 1.409 . S
C1077 C1075 1.415 . S
C1078 H1068 0.930 . S
C1078 C1076 1.419 . S
C1078 C1079 1.362 . S
C1079 H1069 0.930 . S
C1079 C1072 1.409 . S
C1079 C1078 1.362 . S
H1080 C1086 0.930 1_565 S
H1081 C1089 0.930 . S
H1082 C1090 0.930 . S
H1083 C1091 0.930 . S
H1084 C1094 0.930 . S
H1085 C1095 0.947 . S
C1086 H1080 0.930 1_545 S
C1086 C1087 1.355 . S
C1086 C1088 1.415 . S
C1087 C1086 1.355 . S
C1087 C1089 1.419 . S
C1088 C1086 1.415 . S
C1088 C1093 1.429 . S
C1088 C1095 1.409 . S
C1089 H1081 0.930 . S
C1089 C1087 1.419 . S
C1089 C1090 1.362 . S
C1090 H1082 0.930 . S
C1090 C1089 1.362 . S
C1090 C1093 1.422 . S
C1091 H1083 0.930 . S
C1091 C1092 1.355 . S
C1091 C1093 1.398 1_455 S
C1092 C1091 1.355 . S
C1092 C1094 1.419 . S
C1093 C1088 1.429 . S
C1093 C1090 1.422 . S
C1093 C1091 1.398 1_655 S
C1094 H1084 0.930 . S
C1094 C1092 1.419 . S
C1094 C1095 1.362 1_455 S
C1095 H1085 0.947 . S
C1095 C1088 1.409 . S
C1095 C1094 1.362 1_655 S
H1096 C1102 0.930 . S
H1097 C1105 0.930 . S
H1098 C1106 0.930 . S
H1099 C1107 0.930 . S
H1100 C1110 0.930 . S
H1101 C1111 0.930 . S
C1102 H1096 0.930 . S
C1102 C1103 1.355 . S
C1102 C1104 1.415 . S
C1103 C1102 1.355 . S
C1103 C1105 1.419 . S
C1104 C1102 1.415 . S
C1104 C1109 1.425 . S
C1104 C1111 1.409 . S
C1105 H1097 0.930 . S
C1105 C1103 1.419 . S
C1105 C1106 1.362 . S
C1106 H1098 0.930 . S
C1106 C1105 1.362 . S
C1106 C1109 1.409 . S
C1107 H1099 0.930 . S
C1107 C1108 1.355 . S
C1107 C1109 1.415 . S
C1108 C1107 1.355 . S
C1108 C1110 1.419 . S
C1109 C1104 1.425 . S
C1109 C1106 1.409 . S
C1109 C1107 1.415 . S
C1110 H1100 0.930 . S
C1110 C1108 1.419 . S
C1110 C1111 1.362 . S
C1111 H1101 0.930 . S
C1111 C1104 1.409 . S
C1111 C1110 1.362 . S
H1112 C1118 0.930 . S
H1113 C1121 0.930 . S
H1114 C1122 0.912 1_565 S
H1115 C1123 0.920 1_565 S
H1116 C1126 0.930 . S
H1117 C1127 0.930 . S
C1118 H1112 0.930 . S
C1118 C1119 1.355 . S
C1118 C1120 1.415 . S
C1119 C1118 1.355 . S
C1119 C1121 1.419 . S
C1120 C1118 1.415 . S
C1120 C1125 1.425 . S
C1120 C1127 1.409 . S
C1121 H1113 0.930 . S
C1121 C1119 1.419 . S
C1121 C1122 1.362 . S
C1122 H1114 0.912 1_545 S
C1122 C1121 1.362 . S
C1122 C1125 1.409 . S
C1123 H1115 0.920 1_545 S
C1123 C1124 1.355 . S
C1123 C1125 1.415 . S
C1124 C1123 1.355 . S
C1124 C1126 1.419 . S
C1125 C1120 1.425 . S
C1125 C1122 1.409 . S
C1125 C1123 1.415 . S
C1126 H1116 0.930 . S
C1126 C1124 1.419 . S
C1126 C1127 1.362 . S
C1127 H1117 0.930 . S
C1127 C1120 1.409 . S
C1127 C1126 1.362 . S
H1128 C1134 0.930 . S
H1129 C1137 0.930 . S
H1130 C1138 0.930 . S
H1131 C1139 0.930 . S
H1132 C1142 0.930 . S
H1133 C1143 0.930 . S
C1134 H1128 0.930 . S
C1134 C1135 1.355 . S
C1134 C1136 1.415 . S
C1135 C1134 1.355 . S
C1135 C1137 1.419 . S
C1136 C1134 1.415 . S
C1136 C1141 1.425 . S
C1136 C1143 1.409 . S
C1137 H1129 0.930 . S
C1137 C1135 1.419 . S
C1137 C1138 1.362 . S
C1138 H1130 0.930 . S
C1138 C1137 1.362 . S
C1138 C1141 1.409 . S
C1139 H1131 0.930 . S
C1139 C1140 1.355 . S
C1139 C1141 1.415 . S
C1140 C1139 1.355 . S
C1140 C1142 1.419 . S
C1141 C1136 1.425 . S
C1141 C1138 1.409 . S
C1141 C1139 1.415 . S
C1142 H1132 0.930 . S
C1142 C1140 1.419 . S
C1142 C1143 1.362 . S
C1143 H1133 0.930 . S
C1143 C1136 1.409 . S
C1143 C1142 1.362 . S
H1144 C1150 0.930 . S
H1145 C1153 0.930 . S
H1146 C1154 0.930 . S
H1147 C1155 0.930 1_455 S
H1148 C1158 0.930 . S
H1149 C1159 0.930 . S
C1150 H1144 0.930 . S
C1150 C1151 1.355 . S
C1150 C1152 1.415 . S
C1151 C1150 1.355 . S
C1151 C1153 1.419 1_545 S
C1152 C1150 1.415 . S
C1152 C1157 1.425 1_545 S
C1152 C1159 1.409 . S
C1153 H1145 0.930 . S
C1153 C1151 1.419 1_565 S
C1153 C1154 1.362 . S
C1154 H1146 0.930 . S
C1154 C1153 1.362 . S
C1154 C1157 1.409 . S
C1155 H1147 0.930 1_655 S
C1155 C1156 1.355 1_665 S
C1155 C1157 1.415 . S
C1156 C1155 1.355 1_445 S
C1156 C1158 1.419 1_455 S
C1157 C1152 1.425 1_565 S
C1157 C1154 1.409 . S
C1157 C1155 1.415 . S
C1158 H1148 0.930 . S
C1158 C1156 1.419 1_655 S
C1158 C1159 1.362 . S
C1159 H1149 0.930 . S
C1159 C1152 1.409 . S
C1159 C1158 1.362 . S
H1160 C1166 0.930 . S
H1161 C1169 0.930 . S
H1162 C1170 0.930 . S
H1163 C1171 0.930 . S
H1164 C1174 0.930 . S
H1165 C1175 0.930 . S
C1166 H1160 0.930 . S
C1166 C1167 1.355 . S
C1166 C1168 1.415 . S
C1167 C1166 1.355 . S
C1167 C1169 1.419 . S
C1168 C1166 1.415 . S
C1168 C1173 1.425 . S
C1168 C1175 1.409 . S
C1169 H1161 0.930 . S
C1169 C1167 1.419 . S
C1169 C1170 1.362 . S
C1170 H1162 0.930 . S
C1170 C1169 1.362 . S
C1170 C1173 1.409 . S
C1171 H1163 0.930 . S
C1171 C1172 1.355 . S
C1171 C1173 1.415 . S
C1172 C1171 1.355 . S
C1172 C1174 1.419 . S
C1173 C1168 1.425 . S
C1173 C1170 1.409 . S
C1173 C1171 1.415 . S
C1174 H1164 0.930 . S
C1174 C1172 1.419 . S
C1174 C1175 1.362 . S
C1175 H1165 0.930 . S
C1175 C1168 1.409 . S
C1175 C1174 1.362 . S
H1176 C1182 0.930 . S
H1177 C1185 0.930 . S
H1178 C1186 0.930 . S
H1179 C1187 0.930 . S
H1180 C1190 0.930 . S
H1181 C1191 0.930 . S
C1182 H1176 0.930 . S
C1182 C1183 1.355 . S
C1182 C1184 1.415 . S
C1183 C1182 1.355 . S
C1183 C1185 1.419 . S
C1184 C1182 1.415 . S
C1184 C1189 1.425 . S
C1184 C1191 1.409 . S
C1185 H1177 0.930 . S
C1185 C1183 1.419 . S
C1185 C1186 1.362 . S
C1186 H1178 0.930 . S
C1186 C1185 1.362 . S
C1186 C1189 1.409 . S
C1187 H1179 0.930 . S
C1187 C1188 1.355 . S
C1187 C1189 1.415 . S
C1188 C1187 1.355 . S
C1188 C1190 1.419 . S
C1189 C1184 1.425 . S
C1189 C1186 1.409 . S
C1189 C1187 1.415 . S
C1190 H1180 0.930 . S
C1190 C1188 1.419 . S
C1190 C1191 1.362 . S
C1191 H1181 0.930 . S
C1191 C1184 1.409 . S
C1191 C1190 1.362 . S
H1192 C1198 0.930 . S
H1193 C1201 0.930 . S
H1194 C1202 0.930 . S
H1195 C1203 0.930 . S
H1196 C1206 0.930 . S
H1197 C1207 0.930 . S
C1198 H1192 0.930 . S
C1198 C1199 1.355 . S
C1198 C1200 1.415 . S
C1199 C1198 1.355 . S
C1199 C1201 1.419 . S
C1200 C1198 1.415 . S
C1200 C1205 1.425 . S
C1200 C1207 1.409 . S
C1201 H1193 0.930 . S
C1201 C1199 1.419 . S
C1201 C1202 1.362 . S
C1202 H1194 0.930 . S
C1202 C1201 1.362 . S
C1202 C1205 1.409 . S
C1203 H1195 0.930 . S
C1203 C1204 1.355 . S
C1203 C1205 1.415 . S
C1204 C1203 1.355 . S
C1204 C1206 1.419 . S
C1205 C1200 1.425 . S
C1205 C1202 1.409 . S
C1205 C1203 1.415 . S
C1206 H1196 0.930 . S
C1206 C1204 1.419 . S
C1206 C1207 1.362 . S
C1207 H1197 0.930 . S
C1207 C1200 1.409 . S
C1207 C1206 1.362 . S
H1208 C1214 0.930 . S
H1209 C1217 0.930 . S
H1210 C1218 0.930 . S
H1211 C1219 0.930 . S
H1212 C1222 0.930 1_565 S
H1213 C1223 0.930 . S
C1214 H1208 0.930 . S
C1214 C1215 1.355 . S
C1214 C1216 1.415 . S
C1215 C1214 1.355 . S
C1215 C1217 1.419 1_565 S
C1216 C1214 1.415 . S
C1216 C1221 1.425 1_565 S
C1216 C1223 1.409 . S
C1217 H1209 0.930 . S
C1217 C1215 1.419 1_545 S
C1217 C1218 1.362 . S
C1218 H1210 0.930 . S
C1218 C1217 1.362 . S
C1218 C1221 1.409 . S
C1219 H1211 0.930 . S
C1219 C1220 1.355 . S
C1219 C1221 1.415 . S
C1220 C1219 1.355 . S
C1220 C1222 1.419 . S
C1221 C1216 1.425 1_545 S
C1221 C1218 1.409 . S
C1221 C1219 1.415 . S
C1222 H1212 0.930 1_545 S
C1222 C1220 1.419 . S
C1222 C1223 1.362 1_545 S
C1223 H1213 0.930 . S
C1223 C1216 1.409 . S
C1223 C1222 1.362 1_565 S
H1224 C1230 0.930 . S
H1225 C1233 0.930 . S
H1226 C1234 0.930 . S
H1227 C1235 0.930 . S
H1228 C1238 0.930 . S
H1229 C1239 0.930 . S
C1230 H1224 0.930 . S
C1230 C1231 1.355 . S
C1230 C1232 1.415 . S
C1231 C1230 1.355 . S
C1231 C1233 1.419 . S
C1232 C1230 1.415 . S
C1232 C1237 1.425 . S
C1232 C1239 1.409 . S
C1233 H1225 0.930 . S
C1233 C1231 1.419 . S
C1233 C1234 1.362 . S
C1234 H1226 0.930 . S
C1234 C1233 1.362 . S
C1234 C1237 1.409 . S
C1235 H1227 0.930 . S
C1235 C1236 1.355 . S
C1235 C1237 1.415 . S
C1236 C1235 1.355 . S
C1236 C1238 1.419 . S
C1237 C1232 1.425 . S
C1237 C1234 1.409 . S
C1237 C1235 1.415 . S
C1238 H1228 0.930 . S
C1238 C1236 1.419 . S
C1238 C1239 1.362 . S
C1239 H1229 0.930 . S
C1239 C1232 1.409 . S
C1239 C1238 1.362 . S
H1240 C1246 0.930 . S
H1241 C1249 0.930 . S
H1242 C1250 0.930 . S
H1243 C1251 0.930 . S
H1244 C1254 0.930 . S
H1245 C1255 0.930 . S
C1246 H1240 0.930 . S
C1246 C1247 1.355 . S
C1246 C1248 1.415 . S
C1247 C1246 1.355 . S
C1247 C1249 1.419 . S
C1248 C1246 1.415 . S
C1248 C1253 1.425 . S
C1248 C1255 1.409 . S
C1249 H1241 0.930 . S
C1249 C1247 1.419 . S
C1249 C1250 1.362 . S
C1250 H1242 0.930 . S
C1250 C1249 1.362 . S
C1250 C1253 1.409 . S
C1251 H1243 0.930 . S
C1251 C1252 1.355 . S
C1251 C1253 1.415 . S
C1252 C1251 1.355 . S
C1252 C1254 1.419 . S
C1253 C1248 1.425 . S
C1253 C1250 1.409 . S
C1253 C1251 1.415 . S
C1254 H1244 0.930 . S
C1254 C1252 1.419 . S
C1254 C1255 1.362 . S
C1255 H1245 0.930 . S
C1255 C1248 1.409 . S
C1255 C1254 1.362 . S
H1256 C1262 0.930 . S
H1257 C1265 0.930 . S
H1258 C1266 0.930 . S
H1259 C1267 0.930 . S
H1260 C1270 0.930 1_455 S
H1261 C1271 0.930 . S
C1262 H1256 0.930 . S
C1262 C1263 1.355 . S
C1262 C1264 1.415 . S
C1263 C1262 1.355 . S
C1263 C1265 1.419 . S
C1264 C1262 1.415 . S
C1264 C1269 1.425 . S
C1264 C1271 1.409 . S
C1265 H1257 0.930 . S
C1265 C1263 1.419 . S
C1265 C1266 1.362 . S
C1266 H1258 0.930 . S
C1266 C1265 1.362 . S
C1266 C1269 1.409 . S
C1267 H1259 0.930 . S
C1267 C1268 1.355 . S
C1267 C1269 1.415 . S
C1268 C1267 1.355 . S
C1268 C1270 1.419 . S
C1269 C1264 1.425 . S
C1269 C1266 1.409 . S
C1269 C1267 1.415 . S
C1270 H1260 0.930 1_655 S
C1270 C1268 1.419 . S
C1270 C1271 1.362 . S
C1271 H1261 0.930 . S
C1271 C1264 1.409 . S
C1271 C1270 1.362 . S
H1272 C1278 0.930 . S
H1273 C1281 0.930 . S
H1274 C1282 0.930 . S
H1275 C1283 0.930 . S
H1276 C1286 0.930 . S
H1277 C1287 0.930 . S
C1278 H1272 0.930 . S
C1278 C1279 1.355 . S
C1278 C1280 1.415 . S
C1279 C1278 1.355 . S
C1279 C1281 1.419 . S
C1280 C1278 1.415 . S
C1280 C1285 1.425 . S
C1280 C1287 1.409 . S
C1281 H1273 0.930 . S
C1281 C1279 1.419 . S
C1281 C1282 1.362 . S
C1282 H1274 0.930 . S
C1282 C1281 1.362 . S
C1282 C1285 1.409 . S
C1283 H1275 0.930 . S
C1283 C1284 1.355 . S
C1283 C1285 1.415 . S
C1284 C1283 1.355 . S
C1284 C1286 1.419 . S
C1285 C1280 1.425 . S
C1285 C1282 1.409 . S
C1285 C1283 1.415 . S
C1286 H1276 0.930 . S
C1286 C1284 1.419 . S
C1286 C1287 1.362 . S
C1287 H1277 0.930 . S
C1287 C1280 1.409 . S
C1287 C1286 1.362 . S
H1288 C1294 0.930 . S
H1289 C1297 0.930 . S
H1290 C1298 0.930 . S
H1291 C1299 0.930 . S
H1292 C1302 0.930 . S
H1293 C1303 0.930 . S
C1294 H1288 0.930 . S
C1294 C1295 1.355 . S
C1294 C1296 1.415 . S
C1295 C1294 1.355 . S
C1295 C1297 1.419 . S
C1296 C1294 1.415 . S
C1296 C1301 1.425 . S
C1296 C1303 1.409 . S
C1297 H1289 0.930 . S
C1297 C1295 1.419 . S
C1297 C1298 1.362 . S
C1298 H1290 0.930 . S
C1298 C1297 1.362 . S
C1298 C1301 1.409 . S
C1299 H1291 0.930 . S
C1299 C1300 1.355 . S
C1299 C1301 1.415 . S
C1300 C1299 1.355 . S
C1300 C1302 1.419 . S
C1301 C1296 1.425 . S
C1301 C1298 1.409 . S
C1301 C1299 1.415 . S
C1302 H1292 0.930 . S
C1302 C1300 1.419 . S
C1302 C1303 1.362 . S
C1303 H1293 0.930 . S
C1303 C1296 1.409 . S
C1303 C1302 1.362 . S
H1304 C1310 0.930 . S
H1305 C1313 0.930 . S
H1306 C1314 0.930 . S
H1307 C1315 0.930 . S
H1308 C1318 0.930 . S
H1309 C1319 0.930 . S
C1310 H1304 0.930 . S
C1310 C1311 1.355 . S
C1310 C1312 1.415 . S
C1311 C1310 1.355 . S
C1311 C1313 1.419 . S
C1312 C1310 1.415 . S
C1312 C1317 1.425 . S
C1312 C1319 1.409 . S
C1313 H1305 0.930 . S
C1313 C1311 1.419 . S
C1313 C1314 1.362 . S
C1314 H1306 0.930 . S
C1314 C1313 1.362 . S
C1314 C1317 1.409 . S
C1315 H1307 0.930 . S
C1315 C1316 1.355 . S
C1315 C1317 1.415 . S
C1316 C1315 1.355 . S
C1316 C1318 1.419 . S
C1317 C1312 1.425 . S
C1317 C1314 1.409 . S
C1317 C1315 1.415 . S
C1318 H1308 0.930 . S
C1318 C1316 1.419 . S
C1318 C1319 1.362 . S
C1319 H1309 0.930 . S
C1319 C1312 1.409 . S
C1319 C1318 1.362 . S
H1320 C1326 0.930 . S
H1321 C1329 0.930 . S
H1322 C1330 0.930 . S
H1323 C1331 0.930 . S
H1324 C1334 0.930 . S
H1325 C1335 0.930 . S
C1326 H1320 0.930 . S
C1326 C1327 1.355 . S
C1326 C1328 1.415 . S
C1327 C1326 1.355 . S
C1327 C1329 1.419 . S
C1328 C1326 1.415 . S
C1328 C1333 1.425 . S
C1328 C1335 1.409 . S
C1329 H1321 0.930 . S
C1329 C1327 1.419 . S
C1329 C1330 1.362 . S
C1330 H1322 0.930 . S
C1330 C1329 1.362 . S
C1330 C1333 1.409 . S
C1331 H1323 0.930 . S
C1331 C1332 1.355 . S
C1331 C1333 1.415 . S
C1332 C1331 1.355 . S
C1332 C1334 1.419 . S
C1333 C1328 1.425 . S
C1333 C1330 1.409 . S
C1333 C1331 1.415 . S
C1334 H1324 0.930 . S
C1334 C1332 1.419 . S
C1334 C1335 1.362 . S
C1335 H1325 0.930 . S
C1335 C1328 1.409 . S
C1335 C1334 1.362 . S
H1336 C1342 0.930 . S
H1337 C1345 0.930 . S
H1338 C1346 0.930 . S
H1339 C1347 0.930 . S
H1340 C1350 0.930 . S
H1341 C1351 0.930 . S
C1342 H1336 0.930 . S
C1342 C1343 1.355 . S
C1342 C1344 1.415 . S
C1343 C1342 1.355 . S
C1343 C1345 1.419 . S
C1344 C1342 1.415 . S
C1344 C1349 1.425 . S
C1344 C1351 1.409 . S
C1345 H1337 0.930 . S
C1345 C1343 1.419 . S
C1345 C1346 1.362 . S
C1346 H1338 0.930 . S
C1346 C1345 1.362 . S
C1346 C1349 1.409 . S
C1347 H1339 0.930 . S
C1347 C1348 1.355 . S
C1347 C1349 1.415 . S
C1348 C1347 1.355 . S
C1348 C1350 1.419 . S
C1349 C1344 1.425 . S
C1349 C1346 1.409 . S
C1349 C1347 1.415 . S
C1350 H1340 0.930 . S
C1350 C1348 1.419 . S
C1350 C1351 1.362 . S
C1351 H1341 0.930 . S
C1351 C1344 1.409 . S
C1351 C1350 1.362 . S
H1352 C1358 0.930 . S
H1353 C1361 0.930 . S
H1354 C1362 0.930 . S
H1355 C1363 0.930 . S
H1356 C1366 0.930 . S
H1357 C1367 0.930 . S
C1358 H1352 0.930 . S
C1358 C1359 1.355 . S
C1358 C1360 1.415 . S
C1359 C1358 1.355 . S
C1359 C1361 1.419 . S
C1360 C1358 1.415 . S
C1360 C1365 1.425 . S
C1360 C1367 1.409 . S
C1361 H1353 0.930 . S
C1361 C1359 1.419 . S
C1361 C1362 1.362 . S
C1362 H1354 0.930 . S
C1362 C1361 1.362 . S
C1362 C1365 1.409 . S
C1363 H1355 0.930 . S
C1363 C1364 1.355 . S
C1363 C1365 1.415 . S
C1364 C1363 1.355 . S
C1364 C1366 1.419 . S
C1365 C1360 1.425 . S
C1365 C1362 1.409 . S
C1365 C1363 1.415 . S
C1366 H1356 0.930 . S
C1366 C1364 1.419 . S
C1366 C1367 1.362 . S
C1367 H1357 0.930 . S
C1367 C1360 1.409 . S
C1367 C1366 1.362 . S
H1368 C1374 0.930 . S
H1369 C1377 0.930 . S
H1370 C1378 0.930 . S
H1371 C1379 0.930 . S
H1372 C1382 0.930 . S
H1373 C1383 0.930 . S
C1374 H1368 0.930 . S
C1374 C1375 1.355 . S
C1374 C1376 1.415 . S
C1375 C1374 1.355 . S
C1375 C1377 1.419 . S
C1376 C1374 1.415 . S
C1376 C1381 1.425 . S
C1376 C1383 1.409 . S
C1377 H1369 0.930 . S
C1377 C1375 1.419 . S
C1377 C1378 1.362 . S
C1378 H1370 0.930 . S
C1378 C1377 1.362 . S
C1378 C1381 1.409 . S
C1379 H1371 0.930 . S
C1379 C1380 1.355 . S
C1379 C1381 1.415 . S
C1380 C1379 1.355 . S
C1380 C1382 1.419 . S
C1381 C1376 1.425 . S
C1381 C1378 1.409 . S
C1381 C1379 1.415 . S
C1382 H1372 0.930 . S
C1382 C1380 1.419 . S
C1382 C1383 1.362 . S
C1383 H1373 0.930 . S
C1383 C1376 1.409 . S
C1383 C1382 1.362 . S
H1384 C1390 0.930 . S
H1385 C1393 0.930 . S
H1386 C1394 0.930 . S
H1387 C1395 0.930 . S
H1388 C1398 0.930 . S
H1389 C1399 0.930 . S
C1390 H1384 0.930 . S
C1390 C1391 1.355 . S
C1390 C1392 1.415 . S
C1391 C1390 1.355 . S
C1391 C1393 1.419 . S
C1392 C1390 1.415 . S
C1392 C1397 1.425 . S
C1392 C1399 1.409 . S
C1393 H1385 0.930 . S
C1393 C1391 1.419 . S
C1393 C1394 1.362 . S
C1394 H1386 0.930 . S
C1394 C1393 1.362 . S
C1394 C1397 1.409 . S
C1395 H1387 0.930 . S
C1395 C1396 1.355 . S
C1395 C1397 1.415 . S
C1396 C1395 1.355 . S
C1396 C1398 1.419 . S
C1397 C1392 1.425 . S
C1397 C1394 1.409 . S
C1397 C1395 1.415 . S
C1398 H1388 0.930 . S
C1398 C1396 1.419 . S
C1398 C1399 1.362 . S
C1399 H1389 0.930 . S
C1399 C1392 1.409 . S
C1399 C1398 1.362 . S
H1400 C1406 0.930 . S
H1401 C1409 0.930 . S
H1402 C1410 0.930 . S
H1403 C1411 0.930 . S
H1404 C1414 0.930 . S
H1405 C1415 0.930 . S
C1406 H1400 0.930 . S
C1406 C1407 1.355 . S
C1406 C1408 1.415 . S
C1407 C1406 1.355 . S
C1407 C1409 1.419 . S
C1408 C1406 1.415 . S
C1408 C1413 1.425 . S
C1408 C1415 1.409 . S
C1409 H1401 0.930 . S
C1409 C1407 1.419 . S
C1409 C1410 1.362 . S
C1410 H1402 0.930 . S
C1410 C1409 1.362 . S
C1410 C1413 1.409 . S
C1411 H1403 0.930 . S
C1411 C1412 1.355 . S
C1411 C1413 1.415 . S
C1412 C1411 1.355 . S
C1412 C1414 1.419 . S
C1413 C1408 1.425 . S
C1413 C1410 1.409 . S
C1413 C1411 1.415 . S
C1414 H1404 0.930 . S
C1414 C1412 1.419 . S
C1414 C1415 1.362 . S
C1415 H1405 0.930 . S
C1415 C1408 1.409 . S
C1415 C1414 1.362 . S
H1416 C1422 0.930 . S
H1417 C1425 0.930 . S
H1418 C1426 0.930 . S
H1419 C1427 0.930 . S
H1420 C1430 0.930 . S
H1421 C1431 0.930 . S
C1422 H1416 0.930 . S
C1422 C1423 1.355 . S
C1422 C1424 1.415 . S
C1423 C1422 1.355 . S
C1423 C1425 1.419 . S
C1424 C1422 1.415 . S
C1424 C1429 1.425 . S
C1424 C1431 1.409 . S
C1425 H1417 0.930 . S
C1425 C1423 1.419 . S
C1425 C1426 1.362 . S
C1426 H1418 0.930 . S
C1426 C1425 1.362 . S
C1426 C1429 1.409 . S
C1427 H1419 0.930 . S
C1427 C1428 1.355 . S
C1427 C1429 1.415 . S
C1428 C1427 1.355 . S
C1428 C1430 1.419 . S
C1429 C1424 1.425 . S
C1429 C1426 1.409 . S
C1429 C1427 1.415 . S
C1430 H1420 0.930 . S
C1430 C1428 1.419 . S
C1430 C1431 1.362 . S
C1431 H1421 0.930 . S
C1431 C1424 1.409 . S
C1431 C1430 1.362 . S
H1432 C1438 0.930 . S
H1433 C1441 0.930 . S
H1434 C1442 0.930 . S
H1435 C1443 0.930 . S
H1436 C1446 0.930 . S
H1437 C1447 0.930 . S
C1438 H1432 0.930 . S
C1438 C1439 1.355 . S
C1438 C1440 1.415 . S
C1439 C1438 1.355 . S
C1439 C1441 1.419 . S
C1440 C1438 1.415 . S
C1440 C1445 1.425 . S
C1440 C1447 1.409 . S
C1441 H1433 0.930 . S
C1441 C1439 1.419 . S
C1441 C1442 1.362 . S
C1442 H1434 0.930 . S
C1442 C1441 1.362 . S
C1442 C1445 1.409 . S
C1443 H1435 0.930 . S
C1443 C1444 1.355 . S
C1443 C1445 1.415 . S
C1444 C1443 1.355 . S
C1444 C1446 1.419 . S
C1445 C1440 1.425 . S
C1445 C1442 1.409 . S
C1445 C1443 1.415 . S
C1446 H1436 0.930 . S
C1446 C1444 1.419 . S
C1446 C1447 1.362 . S
C1447 H1437 0.930 . S
C1447 C1440 1.409 . S
C1447 C1446 1.362 . S
H1448 C1454 0.930 . S
H1449 C1457 0.930 . S
H1450 C1458 0.930 . S
H1451 C1459 0.930 . S
H1452 C1462 0.930 . S
H1453 C1463 0.930 . S
C1454 H1448 0.930 . S
C1454 C1455 1.355 . S
C1454 C1456 1.415 . S
C1455 C1454 1.355 . S
C1455 C1457 1.419 . S
C1456 C1454 1.415 . S
C1456 C1461 1.425 . S
C1456 C1463 1.409 . S
C1457 H1449 0.930 . S
C1457 C1455 1.419 . S
C1457 C1458 1.362 . S
C1458 H1450 0.930 . S
C1458 C1457 1.362 . S
C1458 C1461 1.409 . S
C1459 H1451 0.930 . S
C1459 C1460 1.355 . S
C1459 C1461 1.415 . S
C1460 C1459 1.355 . S
C1460 C1462 1.419 . S
C1461 C1456 1.425 . S
C1461 C1458 1.409 . S
C1461 C1459 1.415 . S
C1462 H1452 0.930 . S
C1462 C1460 1.419 . S
C1462 C1463 1.362 . S
C1463 H1453 0.930 . S
C1463 C1456 1.409 . S
C1463 C1462 1.362 . S
H1464 C1470 0.930 . S
H1465 C1473 0.930 . S
H1466 C1474 0.930 . S
H1467 C1475 0.930 1_554 S
H1468 C1478 0.930 . S
H1469 C1479 0.930 . S
C1470 H1464 0.930 . S
C1470 C1471 1.355 . S
C1470 C1472 1.415 . S
C1471 C1470 1.355 . S
C1471 C1473 1.419 . S
C1472 C1470 1.415 . S
C1472 C1477 1.425 . S
C1472 C1479 1.409 . S
C1473 H1465 0.930 . S
C1473 C1471 1.419 . S
C1473 C1474 1.362 . S
C1474 H1466 0.930 . S
C1474 C1473 1.362 . S
C1474 C1477 1.409 . S
C1475 H1467 0.930 1_556 S
C1475 C1476 1.355 . S
C1475 C1477 1.415 . S
C1476 C1475 1.355 . S
C1476 C1478 1.419 . S
C1477 C1472 1.425 . S
C1477 C1474 1.409 . S
C1477 C1475 1.415 . S
C1478 H1468 0.930 . S
C1478 C1476 1.419 . S
C1478 C1479 1.362 . S
C1479 H1469 0.930 . S
C1479 C1472 1.409 . S
C1479 C1478 1.362 . S
H1480 C1486 0.930 . S
H1481 C1489 0.930 . S
H1482 C1490 0.930 . S
H1483 C1491 0.930 . S
H1484 C1494 0.930 . S
H1485 C1495 0.930 . S
C1486 H1480 0.930 . S
C1486 C1487 1.355 . S
C1486 C1488 1.415 . S
C1487 C1486 1.355 . S
C1487 C1489 1.419 . S
C1488 C1486 1.415 . S
C1488 C1493 1.425 . S
C1488 C1495 1.409 . S
C1489 H1481 0.930 . S
C1489 C1487 1.419 . S
C1489 C1490 1.362 . S
C1490 H1482 0.930 . S
C1490 C1489 1.362 . S
C1490 C1493 1.409 . S
C1491 H1483 0.930 . S
C1491 C1492 1.355 . S
C1491 C1493 1.415 . S
C1492 C1491 1.355 . S
C1492 C1494 1.419 . S
C1493 C1488 1.425 . S
C1493 C1490 1.409 . S
C1493 C1491 1.415 . S
C1494 H1484 0.930 . S
C1494 C1492 1.419 . S
C1494 C1495 1.362 . S
C1495 H1485 0.930 . S
C1495 C1488 1.409 . S
C1495 C1494 1.362 . S
H1496 C1502 0.930 . S
H1497 C1505 0.930 . S
H1498 C1506 0.930 . S
H1499 C1507 0.930 . S
H1500 C1510 0.930 1_565 S
H1501 C1511 0.930 1_565 S
C1502 H1496 0.930 . S
C1502 C1503 1.355 . S
C1502 C1504 1.415 . S
C1503 C1502 1.355 . S
C1503 C1505 1.419 . S
C1504 C1502 1.415 . S
C1504 C1509 1.425 . S
C1504 C1511 1.409 . S
C1505 H1497 0.930 . S
C1505 C1503 1.419 . S
C1505 C1506 1.362 . S
C1506 H1498 0.930 . S
C1506 C1505 1.362 . S
C1506 C1509 1.409 . S
C1507 H1499 0.930 . S
C1507 C1508 1.355 . S
C1507 C1509 1.415 . S
C1508 C1507 1.355 . S
C1508 C1510 1.419 . S
C1509 C1504 1.425 . S
C1509 C1506 1.409 . S
C1509 C1507 1.415 . S
C1510 H1500 0.930 1_545 S
C1510 C1508 1.419 . S
C1510 C1511 1.362 . S
C1511 H1501 0.930 1_545 S
C1511 C1504 1.409 . S
C1511 C1510 1.362 . S
H1512 C1518 0.930 . S
H1513 C1521 0.930 . S
H1514 C1522 0.930 . S
H1515 C1523 0.930 . S
H1516 C1526 0.930 . S
H1517 C1527 0.930 . S
C1518 H1512 0.930 . S
C1518 C1519 1.355 . S
C1518 C1520 1.415 . S
C1519 C1518 1.355 . S
C1519 C1521 1.419 . S
C1520 C1518 1.415 . S
C1520 C1525 1.425 . S
C1520 C1527 1.409 . S
C1521 H1513 0.930 . S
C1521 C1519 1.419 . S
C1521 C1522 1.362 . S
C1522 H1514 0.930 . S
C1522 C1521 1.362 . S
C1522 C1525 1.409 . S
C1523 H1515 0.930 . S
C1523 C1524 1.355 . S
C1523 C1525 1.415 . S
C1524 C1523 1.355 . S
C1524 C1526 1.419 . S
C1525 C1520 1.425 . S
C1525 C1522 1.409 . S
C1525 C1523 1.415 . S
C1526 H1516 0.930 . S
C1526 C1524 1.419 . S
C1526 C1527 1.362 . S
C1527 H1517 0.930 . S
C1527 C1520 1.409 . S
C1527 C1526 1.362 . S
H1528 C1534 0.930 . S
H1529 C1537 0.930 . S
H1530 C1538 0.930 . S
H1531 C1539 0.930 . S
H1532 C1542 0.930 . S
H1533 C1543 0.930 . S
C1534 H1528 0.930 . S
C1534 C1535 1.355 . S
C1534 C1536 1.415 . S
C1535 C1534 1.355 . S
C1535 C1537 1.419 . S
C1536 C1534 1.415 . S
C1536 C1541 1.425 . S
C1536 C1543 1.409 . S
C1537 H1529 0.930 . S
C1537 C1535 1.419 . S
C1537 C1538 1.362 . S
C1538 H1530 0.930 . S
C1538 C1537 1.362 . S
C1538 C1541 1.409 . S
C1539 H1531 0.930 . S
C1539 C1540 1.355 . S
C1539 C1541 1.415 . S
C1540 C1539 1.355 . S
C1540 C1542 1.419 . S
C1541 C1536 1.425 . S
C1541 C1538 1.409 . S
C1541 C1539 1.415 . S
C1542 H1532 0.930 . S
C1542 C1540 1.419 . S
C1542 C1543 1.362 . S
C1543 H1533 0.930 . S
C1543 C1536 1.409 . S
C1543 C1542 1.362 . S
H1544 C1550 0.930 . S
H1545 C1553 0.930 . S
H1546 C1554 0.930 . S
H1547 C1555 0.930 . S
H1548 C1558 0.930 . S
H1549 C1559 0.930 . S
C1550 H1544 0.930 . S
C1550 C1551 1.355 . S
C1550 C1552 1.415 . S
C1551 C1550 1.355 . S
C1551 C1553 1.419 . S
C1552 C1550 1.415 . S
C1552 C1557 1.425 . S
C1552 C1559 1.409 . S
C1553 H1545 0.930 . S
C1553 C1551 1.419 . S
C1553 C1554 1.362 . S
C1554 H1546 0.930 . S
C1554 C1553 1.362 . S
C1554 C1557 1.409 . S
C1555 H1547 0.930 . S
C1555 C1556 1.355 . S
C1555 C1557 1.415 . S
C1556 C1555 1.355 . S
C1556 C1558 1.419 . S
C1557 C1552 1.425 . S
C1557 C1554 1.409 . S
C1557 C1555 1.415 . S
C1558 H1548 0.930 . S
C1558 C1556 1.419 . S
C1558 C1559 1.362 . S
C1559 H1549 0.930 . S
C1559 C1552 1.409 . S
C1559 C1558 1.362 . S
H1560 C1566 0.930 . S
H1561 C1569 0.930 . S
H1562 C1570 0.930 . S
H1563 C1571 0.930 . S
H1564 C1574 0.930 . S
H1565 C1575 0.930 . S
C1566 H1560 0.930 . S
C1566 C1567 1.355 . S
C1566 C1568 1.415 . S
C1567 C1566 1.355 . S
C1567 C1569 1.419 . S
C1568 C1566 1.415 . S
C1568 C1573 1.425 . S
C1568 C1575 1.409 . S
C1569 H1561 0.930 . S
C1569 C1567 1.419 . S
C1569 C1570 1.362 . S
C1570 H1562 0.930 . S
C1570 C1569 1.362 . S
C1570 C1573 1.409 . S
C1571 H1563 0.930 . S
C1571 C1572 1.355 . S
C1571 C1573 1.415 . S
C1572 C1571 1.355 . S
C1572 C1574 1.419 . S
C1573 C1568 1.425 . S
C1573 C1570 1.409 . S
C1573 C1571 1.415 . S
C1574 H1564 0.930 . S
C1574 C1572 1.419 . S
C1574 C1575 1.362 . S
C1575 H1565 0.930 . S
C1575 C1568 1.409 . S
C1575 C1574 1.362 . S
H1576 C1582 0.930 . S
H1577 C1585 0.930 . S
H1578 C1586 0.930 . S
H1579 C1587 0.930 . S
H1580 C1590 0.930 . S
H1581 C1591 0.930 . S
C1582 H1576 0.930 . S
C1582 C1583 1.355 . S
C1582 C1584 1.415 . S
C1583 C1582 1.355 . S
C1583 C1585 1.419 . S
C1584 C1582 1.415 . S
C1584 C1589 1.425 . S
C1584 C1591 1.409 . S
C1585 H1577 0.930 . S
C1585 C1583 1.419 . S
C1585 C1586 1.362 . S
C1586 H1578 0.930 . S
C1586 C1585 1.362 . S
C1586 C1589 1.409 . S
C1587 H1579 0.930 . S
C1587 C1588 1.355 . S
C1587 C1589 1.415 . S
C1588 C1587 1.355 . S
C1588 C1590 1.419 . S
C1589 C1584 1.425 . S
C1589 C1586 1.409 . S
C1589 C1587 1.415 . S
C1590 H1580 0.930 . S
C1590 C1588 1.419 . S
C1590 C1591 1.362 . S
C1591 H1581 0.930 . S
C1591 C1584 1.409 . S
C1591 C1590 1.362 . S
H1592 C1598 0.930 . S
H1593 C1601 0.930 . S
H1594 C1602 0.930 . S
H1595 C1603 0.930 . S
H1596 C1606 0.930 . S
H1597 C1607 0.930 . S
C1598 H1592 0.930 . S
C1598 C1599 1.355 . S
C1598 C1600 1.415 . S
C1599 C1598 1.355 . S
C1599 C1601 1.419 . S
C1600 C1598 1.415 . S
C1600 C1605 1.425 . S
C1600 C1607 1.409 . S
C1601 H1593 0.930 . S
C1601 C1599 1.419 . S
C1601 C1602 1.362 . S
C1602 H1594 0.930 . S
C1602 C1601 1.362 . S
C1602 C1605 1.409 . S
C1603 H1595 0.930 . S
C1603 C1604 1.355 . S
C1603 C1605 1.415 . S
C1604 C1603 1.355 . S
C1604 C1606 1.419 . S
C1605 C1600 1.425 . S
C1605 C1602 1.409 . S
C1605 C1603 1.415 . S
C1606 H1596 0.930 . S
C1606 C1604 1.419 . S
C1606 C1607 1.362 . S
C1607 H1597 0.930 . S
C1607 C1600 1.409 . S
C1607 C1606 1.362 . S
H1608 C1614 0.930 . S
H1609 C1617 0.930 1_556 S
H1610 C1618 0.930 1_556 S
H1611 C1619 0.930 1_556 S
H1612 C1622 0.930 . S
H1613 C1623 0.930 . S
C1614 H1608 0.930 . S
C1614 C1615 1.355 . S
C1614 C1616 1.415 . S
C1615 C1614 1.355 . S
C1615 C1617 1.419 . S
C1616 C1614 1.415 . S
C1616 C1621 1.425 . S
C1616 C1623 1.409 . S
C1617 H1609 0.930 1_554 S
C1617 C1615 1.419 . S
C1617 C1618 1.362 . S
C1618 H1610 0.930 1_554 S
C1618 C1617 1.362 . S
C1618 C1621 1.409 . S
C1619 H1611 0.930 1_554 S
C1619 C1620 1.355 . S
C1619 C1621 1.415 . S
C1620 C1619 1.355 . S
C1620 C1622 1.419 . S
C1621 C1616 1.425 . S
C1621 C1618 1.409 . S
C1621 C1619 1.415 . S
C1622 H1612 0.930 . S
C1622 C1620 1.419 . S
C1622 C1623 1.362 . S
C1623 H1613 0.930 . S
C1623 C1616 1.409 . S
C1623 C1622 1.362 . S
H1624 C1630 0.930 . S
H1625 C1633 0.930 . S
H1626 C1634 0.930 . S
H1627 C1635 0.930 . S
H1628 C1638 0.930 . S
H1629 C1639 0.930 . S
C1630 H1624 0.930 . S
C1630 C1631 1.355 . S
C1630 C1632 1.415 . S
C1631 C1630 1.355 . S
C1631 C1633 1.419 . S
C1632 C1630 1.415 . S
C1632 C1637 1.425 . S
C1632 C1639 1.409 . S
C1633 H1625 0.930 . S
C1633 C1631 1.419 . S
C1633 C1634 1.362 . S
C1634 H1626 0.930 . S
C1634 C1633 1.362 . S
C1634 C1637 1.409 . S
C1635 H1627 0.930 . S
C1635 C1636 1.355 . S
C1635 C1637 1.415 . S
C1636 C1635 1.355 . S
C1636 C1638 1.419 . S
C1637 C1632 1.425 . S
C1637 C1634 1.409 . S
C1637 C1635 1.415 . S
C1638 H1628 0.930 . S
C1638 C1636 1.419 . S
C1638 C1639 1.362 . S
C1639 H1629 0.930 . S
C1639 C1632 1.409 . S
C1639 C1638 1.362 . S
H1640 C1646 0.930 . S
H1641 C1649 0.930 . S
H1642 C1650 0.930 . S
H1643 C1651 0.930 . S
H1644 C1654 0.930 . S
H1645 C1655 0.930 . S
C1646 H1640 0.930 . S
C1646 C1647 1.355 . S
C1646 C1648 1.415 . S
C1647 C1646 1.355 . S
C1647 C1649 1.419 . S
C1648 C1646 1.415 . S
C1648 C1653 1.425 . S
C1648 C1655 1.409 . S
C1649 H1641 0.930 . S
C1649 C1647 1.419 . S
C1649 C1650 1.362 . S
C1650 H1642 0.930 . S
C1650 C1649 1.362 . S
C1650 C1653 1.409 . S
C1651 H1643 0.930 . S
C1651 C1652 1.355 . S
C1651 C1653 1.415 . S
C1652 C1651 1.355 . S
C1652 C1654 1.419 . S
C1653 C1648 1.425 . S
C1653 C1650 1.409 . S
C1653 C1651 1.415 . S
C1654 H1644 0.930 . S
C1654 C1652 1.419 . S
C1654 C1655 1.362 . S
C1655 H1645 0.930 . S
C1655 C1648 1.409 . S
C1655 C1654 1.362 . S
H1656 C1662 0.930 . S
H1657 C1665 0.930 . S
H1658 C1666 0.930 . S
H1659 C1667 0.930 . S
H1660 C1670 0.930 . S
H1661 C1671 0.930 1_545 S
C1662 H1656 0.930 . S
C1662 C1663 1.355 1_545 S
C1662 C1664 1.415 1_545 S
C1663 C1662 1.355 1_565 S
C1663 C1665 1.419 . S
C1664 C1662 1.415 1_565 S
C1664 C1669 1.425 . S
C1664 C1671 1.409 . S
C1665 H1657 0.930 . S
C1665 C1663 1.419 . S
C1665 C1666 1.362 . S
C1666 H1658 0.930 . S
C1666 C1665 1.362 . S
C1666 C1669 1.409 . S
C1667 H1659 0.930 . S
C1667 C1668 1.355 . S
C1667 C1669 1.415 . S
C1668 C1667 1.355 . S
C1668 C1670 1.419 . S
C1669 C1664 1.425 . S
C1669 C1666 1.409 . S
C1669 C1667 1.415 . S
C1670 H1660 0.930 . S
C1670 C1668 1.419 . S
C1670 C1671 1.362 . S
C1671 H1661 0.930 1_565 S
C1671 C1664 1.409 . S
C1671 C1670 1.362 . S
H1672 C1678 0.930 . S
H1673 C1681 0.930 . S
H1674 C1682 0.930 . S
H1675 C1683 0.930 . S
H1676 C1686 0.930 . S
H1677 C1687 0.930 . S
C1678 H1672 0.930 . S
C1678 C1679 1.355 . S
C1678 C1680 1.415 . S
C1679 C1678 1.355 . S
C1679 C1681 1.419 . S
C1680 C1678 1.415 . S
C1680 C1685 1.425 . S
C1680 C1687 1.409 . S
C1681 H1673 0.930 . S
C1681 C1679 1.419 . S
C1681 C1682 1.362 . S
C1682 H1674 0.930 . S
C1682 C1681 1.362 . S
C1682 C1685 1.409 . S
C1683 H1675 0.930 . S
C1683 C1684 1.355 . S
C1683 C1685 1.415 . S
C1684 C1683 1.355 . S
C1684 C1686 1.419 . S
C1685 C1680 1.425 . S
C1685 C1682 1.409 . S
C1685 C1683 1.415 . S
C1686 H1676 0.930 . S
C1686 C1684 1.419 . S
C1686 C1687 1.362 . S
C1687 H1677 0.930 . S
C1687 C1680 1.409 . S
C1687 C1686 1.362 . S
H1688 C1694 0.930 . S
H1689 C1697 0.930 . S
H1690 C1698 0.930 . S
H1691 C1699 0.930 . S
H1692 C1702 0.930 . S
H1693 C1703 0.930 . S
C1694 H1688 0.930 . S
C1694 C1695 1.355 . S
C1694 C1696 1.415 . S
C1695 C1694 1.355 . S
C1695 C1697 1.419 . S
C1696 C1694 1.415 . S
C1696 C1701 1.425 . S
C1696 C1703 1.409 . S
C1697 H1689 0.930 . S
C1697 C1695 1.419 . S
C1697 C1698 1.362 . S
C1698 H1690 0.930 . S
C1698 C1697 1.362 . S
C1698 C1701 1.409 . S
C1699 H1691 0.930 . S
C1699 C1700 1.355 . S
C1699 C1701 1.415 . S
C1700 C1699 1.355 . S
C1700 C1702 1.419 . S
C1701 C1696 1.425 . S
C1701 C1698 1.409 . S
C1701 C1699 1.415 . S
C1702 H1692 0.930 . S
C1702 C1700 1.419 . S
C1702 C1703 1.362 . S
C1703 H1693 0.930 . S
C1703 C1696 1.409 . S
C1703 C1702 1.362 . S
H1704 C1710 0.930 . S
H1705 C1713 0.930 . S
H1706 C1714 0.930 . S
H1707 C1715 0.930 . S
H1708 C1718 0.930 . S
H1709 C1719 0.930 . S
C1710 H1704 0.930 . S
C1710 C1711 1.355 . S
C1710 C1712 1.415 . S
C1711 C1710 1.355 . S
C1711 C1713 1.419 . S
C1712 C1710 1.415 . S
C1712 C1717 1.425 . S
C1712 C1719 1.409 . S
C1713 H1705 0.930 . S
C1713 C1711 1.419 . S
C1713 C1714 1.362 . S
C1714 H1706 0.930 . S
C1714 C1713 1.362 . S
C1714 C1717 1.409 . S
C1715 H1707 0.930 . S
C1715 C1716 1.355 . S
C1715 C1717 1.415 . S
C1716 C1715 1.355 . S
C1716 C1718 1.419 . S
C1717 C1712 1.425 . S
C1717 C1714 1.409 . S
C1717 C1715 1.415 . S
C1718 H1708 0.930 . S
C1718 C1716 1.419 . S
C1718 C1719 1.362 . S
C1719 H1709 0.930 . S
C1719 C1712 1.409 . S
C1719 C1718 1.362 . S
H1720 C1726 0.930 . S
H1721 C1729 0.930 . S
H1722 C1730 0.930 . S
H1723 C1731 0.930 . S
H1724 C1734 0.930 . S
H1725 C1735 0.930 . S
C1726 H1720 0.930 . S
C1726 C1727 1.355 . S
C1726 C1728 1.415 . S
C1727 C1726 1.355 . S
C1727 C1729 1.419 . S
C1728 C1726 1.415 . S
C1728 C1733 1.425 . S
C1728 C1735 1.409 . S
C1729 H1721 0.930 . S
C1729 C1727 1.419 . S
C1729 C1730 1.362 . S
C1730 H1722 0.930 . S
C1730 C1729 1.362 . S
C1730 C1733 1.409 . S
C1731 H1723 0.930 . S
C1731 C1732 1.355 . S
C1731 C1733 1.415 . S
C1732 C1731 1.355 . S
C1732 C1734 1.419 . S
C1733 C1728 1.425 . S
C1733 C1730 1.409 . S
C1733 C1731 1.415 . S
C1734 H1724 0.930 . S
C1734 C1732 1.419 . S
C1734 C1735 1.362 . S
C1735 H1725 0.930 . S
C1735 C1728 1.409 . S
C1735 C1734 1.362 . S
H1736 C1742 0.930 . S
H1737 C1745 0.930 . S
H1738 C1746 0.930 . S
H1739 C1747 0.930 . S
H1740 C1750 0.930 . S
H1741 C1751 0.930 . S
C1742 H1736 0.930 . S
C1742 C1743 1.355 . S
C1742 C1744 1.415 . S
C1743 C1742 1.355 . S
C1743 C1745 1.419 . S
C1744 C1742 1.415 . S
C1744 C1749 1.425 . S
C1744 C1751 1.409 . S
C1745 H1737 0.930 . S
C1745 C1743 1.419 . S
C1745 C1746 1.362 . S
C1746 H1738 0.930 . S
C1746 C1745 1.362 . S
C1746 C1749 1.409 . S
C1747 H1739 0.930 . S
C1747 C1748 1.355 . S
C1747 C1749 1.415 . S
C1748 C1747 1.355 . S
C1748 C1750 1.419 . S
C1749 C1744 1.425 . S
C1749 C1746 1.409 . S
C1749 C1747 1.415 . S
C1750 H1740 0.930 . S
C1750 C1748 1.419 . S
C1750 C1751 1.362 . S
C1751 H1741 0.930 . S
C1751 C1744 1.409 . S
C1751 C1750 1.362 . S
H1752 C1758 0.930 . S
H1753 C1761 0.930 . S
H1754 C1762 0.930 . S
H1755 C1763 0.930 1_655 S
H1756 C1766 0.930 . S
H1757 C1767 0.930 . S
C1758 H1752 0.930 . S
C1758 C1759 1.355 . S
C1758 C1760 1.415 1_556 S
C1759 C1758 1.355 . S
C1759 C1761 1.419 1_455 S
C1760 C1758 1.415 1_554 S
C1760 C1765 1.425 . S
C1760 C1767 1.409 . S
C1761 H1753 0.930 . S
C1761 C1759 1.419 1_655 S
C1761 C1762 1.362 . S
C1762 H1754 0.930 . S
C1762 C1761 1.362 . S
C1762 C1765 1.409 1_656 S
C1763 H1755 0.930 1_455 S
C1763 C1764 1.355 . S
C1763 C1765 1.415 . S
C1764 C1763 1.355 . S
C1764 C1766 1.419 . S
C1765 C1760 1.425 . S
C1765 C1762 1.409 1_454 S
C1765 C1763 1.415 . S
C1766 H1756 0.930 . S
C1766 C1764 1.419 . S
C1766 C1767 1.362 . S
C1767 H1757 0.930 . S
C1767 C1760 1.409 . S
C1767 C1766 1.362 . S
H1768 C1774 0.930 1_655 S
H1769 C1777 0.930 . S
H1770 C1778 0.930 . S
H1771 C1779 0.930 . S
H1772 C1782 0.930 . S
H1773 C1783 0.930 . S
C1774 H1768 0.930 1_455 S
C1774 C1775 1.355 . S
C1774 C1776 1.415 1_455 S
C1775 C1774 1.355 . S
C1775 C1777 1.419 . S
C1776 C1774 1.415 1_655 S
C1776 C1781 1.425 . S
C1776 C1783 1.409 . S
C1777 H1769 0.930 . S
C1777 C1775 1.419 . S
C1777 C1778 1.362 . S
C1778 H1770 0.930 . S
C1778 C1777 1.362 . S
C1778 C1781 1.409 1_455 S
C1779 H1771 0.930 . S
C1779 C1780 1.355 . S
C1779 C1781 1.415 . S
C1780 C1779 1.355 . S
C1780 C1782 1.419 . S
C1781 C1776 1.425 . S
C1781 C1778 1.409 1_655 S
C1781 C1779 1.415 . S
C1782 H1772 0.930 . S
C1782 C1780 1.419 . S
C1782 C1783 1.362 . S
C1783 H1773 0.930 . S
C1783 C1776 1.409 . S
C1783 C1782 1.362 . S
H1784 C1790 0.930 . S
H1785 C1793 0.930 . S
H1786 C1794 0.930 . S
H1787 C1795 0.930 . S
H1788 C1798 0.930 . S
H1789 C1799 0.930 . S
C1790 H1784 0.930 . S
C1790 C1791 1.355 . S
C1790 C1792 1.415 . S
C1791 C1790 1.355 . S
C1791 C1793 1.419 . S
C1792 C1790 1.415 . S
C1792 C1797 1.425 . S
C1792 C1799 1.409 . S
C1793 H1785 0.930 . S
C1793 C1791 1.419 . S
C1793 C1794 1.362 . S
C1794 H1786 0.930 . S
C1794 C1793 1.362 . S
C1794 C1797 1.409 . S
C1795 H1787 0.930 . S
C1795 C1796 1.355 . S
C1795 C1797 1.415 . S
C1796 C1795 1.355 . S
C1796 C1798 1.419 . S
C1797 C1792 1.425 . S
C1797 C1794 1.409 . S
C1797 C1795 1.415 . S
C1798 H1788 0.930 . S
C1798 C1796 1.419 . S
C1798 C1799 1.362 . S
C1799 H1789 0.930 . S
C1799 C1792 1.409 . S
C1799 C1798 1.362 . S
H1800 C1806 0.930 . S
H1801 C1809 0.930 . S
H1802 C1810 0.930 . S
H1803 C1811 0.930 . S
H1804 C1814 0.930 . S
H1805 C1815 0.930 . S
C1806 H1800 0.930 . S
C1806 C1807 1.355 . S
C1806 C1808 1.415 . S
C1807 C1806 1.355 . S
C1807 C1809 1.419 . S
C1808 C1806 1.415 . S
C1808 C1813 1.425 . S
C1808 C1815 1.409 . S
C1809 H1801 0.930 . S
C1809 C1807 1.419 . S
C1809 C1810 1.362 . S
C1810 H1802 0.930 . S
C1810 C1809 1.362 . S
C1810 C1813 1.409 . S
C1811 H1803 0.930 . S
C1811 C1812 1.355 . S
C1811 C1813 1.415 . S
C1812 C1811 1.355 . S
C1812 C1814 1.419 . S
C1813 C1808 1.425 . S
C1813 C1810 1.409 . S
C1813 C1811 1.415 . S
C1814 H1804 0.930 . S
C1814 C1812 1.419 . S
C1814 C1815 1.362 . S
C1815 H1805 0.930 . S
C1815 C1808 1.409 . S
C1815 C1814 1.362 . S
H1816 C1822 0.930 . S
H1817 C1825 0.930 . S
H1818 C1826 0.930 . S
H1819 C1827 0.930 . S
H1820 C1830 0.930 . S
H1821 C1831 0.930 . S
C1822 H1816 0.930 . S
C1822 C1823 1.355 . S
C1822 C1824 1.415 . S
C1823 C1822 1.355 . S
C1823 C1825 1.419 . S
C1824 C1822 1.415 . S
C1824 C1829 1.425 . S
C1824 C1831 1.409 . S
C1825 H1817 0.930 . S
C1825 C1823 1.419 . S
C1825 C1826 1.362 . S
C1826 H1818 0.930 . S
C1826 C1825 1.362 . S
C1826 C1829 1.409 . S
C1827 H1819 0.930 . S
C1827 C1828 1.355 . S
C1827 C1829 1.415 . S
C1828 C1827 1.355 . S
C1828 C1830 1.419 . S
C1829 C1824 1.425 . S
C1829 C1826 1.409 . S
C1829 C1827 1.415 . S
C1830 H1820 0.930 . S
C1830 C1828 1.419 . S
C1830 C1831 1.362 . S
C1831 H1821 0.930 . S
C1831 C1824 1.409 . S
C1831 C1830 1.362 . S
H1832 C1838 0.930 . S
H1833 C1841 0.930 . S
H1834 C1842 0.930 . S
H1835 C1843 0.930 . S
H1836 C1846 0.930 . S
H1837 C1847 0.930 . S
C1838 H1832 0.930 . S
C1838 C1839 1.355 . S
C1838 C1840 1.415 . S
C1839 C1838 1.355 . S
C1839 C1841 1.419 . S
C1840 C1838 1.415 . S
C1840 C1845 1.425 . S
C1840 C1847 1.409 . S
C1841 H1833 0.930 . S
C1841 C1839 1.419 . S
C1841 C1842 1.362 . S
C1842 H1834 0.930 . S
C1842 C1841 1.362 . S
C1842 C1845 1.409 . S
C1843 H1835 0.930 . S
C1843 C1844 1.355 . S
C1843 C1845 1.415 . S
C1844 C1843 1.355 . S
C1844 C1846 1.419 . S
C1845 C1840 1.425 . S
C1845 C1842 1.409 . S
C1845 C1843 1.415 . S
C1846 H1836 0.930 . S
C1846 C1844 1.419 . S
C1846 C1847 1.362 . S
C1847 H1837 0.930 . S
C1847 C1840 1.409 . S
C1847 C1846 1.362 . S
H1848 C1854 0.930 . S
H1849 C1857 0.930 . S
H1850 C1858 0.930 . S
H1851 C1859 0.930 . S
H1852 C1862 0.930 . S
H1853 C1863 0.930 . S
C1854 H1848 0.930 . S
C1854 C1855 1.355 . S
C1854 C1856 1.415 . S
C1855 C1854 1.355 . S
C1855 C1857 1.419 . S
C1856 C1854 1.415 . S
C1856 C1861 1.425 . S
C1856 C1863 1.409 . S
C1857 H1849 0.930 . S
C1857 C1855 1.419 . S
C1857 C1858 1.362 . S
C1858 H1850 0.930 . S
C1858 C1857 1.362 . S
C1858 C1861 1.409 . S
C1859 H1851 0.930 . S
C1859 C1860 1.355 . S
C1859 C1861 1.415 . S
C1860 C1859 1.355 . S
C1860 C1862 1.419 . S
C1861 C1856 1.425 . S
C1861 C1858 1.409 . S
C1861 C1859 1.415 . S
C1862 H1852 0.930 . S
C1862 C1860 1.419 . S
C1862 C1863 1.362 . S
C1863 H1853 0.930 . S
C1863 C1856 1.409 . S
C1863 C1862 1.362 . S
H1864 C1870 0.930 . S
H1865 C1873 0.930 . S
H1866 C1874 0.930 . S
H1867 C1875 0.930 . S
H1868 C1878 0.930 . S
H1869 C1879 0.930 . S
C1870 H1864 0.930 . S
C1870 C1871 1.355 1_556 S
C1870 C1872 1.415 . S
C1871 C1870 1.355 1_554 S
C1871 C1873 1.419 . S
C1872 C1870 1.415 . S
C1872 C1877 1.425 . S
C1872 C1879 1.409 . S
C1873 H1865 0.930 . S
C1873 C1871 1.419 . S
C1873 C1874 1.362 . S
C1874 H1866 0.930 . S
C1874 C1873 1.362 . S
C1874 C1877 1.409 1_554 S
C1875 H1867 0.930 . S
C1875 C1876 1.355 . S
C1875 C1877 1.415 . S
C1876 C1875 1.355 . S
C1876 C1878 1.419 . S
C1877 C1872 1.425 . S
C1877 C1874 1.409 1_556 S
C1877 C1875 1.415 . S
C1878 H1868 0.930 . S
C1878 C1876 1.419 . S
C1878 C1879 1.362 . S
C1879 H1869 0.930 . S
C1879 C1872 1.409 . S
C1879 C1878 1.362 . S
H1880 C1886 0.930 . S
H1881 C1889 0.930 . S
H1882 C1890 0.930 . S
H1883 C1891 0.930 . S
H1884 C1894 0.930 . S
H1885 C1895 0.930 . S
C1886 H1880 0.930 . S
C1886 C1887 1.355 . S
C1886 C1888 1.415 . S
C1887 C1886 1.355 . S
C1887 C1889 1.419 . S
C1888 C1886 1.415 . S
C1888 C1893 1.425 . S
C1888 C1895 1.409 . S
C1889 H1881 0.930 . S
C1889 C1887 1.419 . S
C1889 C1890 1.362 . S
C1890 H1882 0.930 . S
C1890 C1889 1.362 . S
C1890 C1893 1.409 . S
C1891 H1883 0.930 . S
C1891 C1892 1.355 . S
C1891 C1893 1.415 . S
C1892 C1891 1.355 . S
C1892 C1894 1.419 . S
C1893 C1888 1.425 . S
C1893 C1890 1.409 . S
C1893 C1891 1.415 . S
C1894 H1884 0.930 . S
C1894 C1892 1.419 . S
C1894 C1895 1.362 . S
C1895 H1885 0.930 . S
C1895 C1888 1.409 . S
C1895 C1894 1.362 . S
H1896 C1902 0.930 . S
H1897 C1905 0.930 . S
H1898 C1906 0.930 . S
H1899 C1907 0.930 . S
H1900 C1910 0.930 . S
H1901 C1911 0.930 . S
C1902 H1896 0.930 . S
C1902 C1903 1.355 . S
C1902 C1904 1.415 . S
C1903 C1902 1.355 . S
C1903 C1905 1.419 . S
C1904 C1902 1.415 . S
C1904 C1909 1.425 . S
C1904 C1911 1.409 . S
C1905 H1897 0.930 . S
C1905 C1903 1.419 . S
C1905 C1906 1.362 . S
C1906 H1898 0.930 . S
C1906 C1905 1.362 . S
C1906 C1909 1.409 . S
C1907 H1899 0.930 . S
C1907 C1908 1.355 . S
C1907 C1909 1.415 . S
C1908 C1907 1.355 . S
C1908 C1910 1.419 . S
C1909 C1904 1.425 . S
C1909 C1906 1.409 . S
C1909 C1907 1.415 . S
C1910 H1900 0.930 . S
C1910 C1908 1.419 . S
C1910 C1911 1.362 . S
C1911 H1901 0.930 . S
C1911 C1904 1.409 . S
C1911 C1910 1.362 . S
H1912 C1918 0.930 . S
H1913 C1921 0.930 . S
H1914 C1922 0.930 . S
H1915 C1923 0.930 . S
H1916 C1926 0.930 . S
H1917 C1927 0.930 . S
C1918 H1912 0.930 . S
C1918 C1919 1.355 . S
C1918 C1920 1.415 . S
C1919 C1918 1.355 . S
C1919 C1921 1.419 . S
C1920 C1918 1.415 . S
C1920 C1925 1.425 . S
C1920 C1927 1.409 . S
C1921 H1913 0.930 . S
C1921 C1919 1.419 . S
C1921 C1922 1.362 . S
C1922 H1914 0.930 . S
C1922 C1921 1.362 . S
C1922 C1925 1.409 . S
C1923 H1915 0.930 . S
C1923 C1924 1.355 . S
C1923 C1925 1.415 . S
C1924 C1923 1.355 . S
C1924 C1926 1.419 . S
C1925 C1920 1.425 . S
C1925 C1922 1.409 . S
C1925 C1923 1.415 . S
C1926 H1916 0.930 . S
C1926 C1924 1.419 . S
C1926 C1927 1.362 . S
C1927 H1917 0.930 . S
C1927 C1920 1.409 . S
C1927 C1926 1.362 . S
H1928 C1934 0.930 . S
H1929 C1937 0.930 . S
H1930 C1938 0.930 . S
H1931 C1939 0.930 . S
H1932 C1942 0.930 . S
H1933 C1943 0.930 . S
C1934 H1928 0.930 . S
C1934 C1935 1.355 . S
C1934 C1936 1.415 . S
C1935 C1934 1.355 . S
C1935 C1937 1.419 . S
C1936 C1934 1.415 . S
C1936 C1941 1.425 . S
C1936 C1943 1.409 . S
C1937 H1929 0.930 . S
C1937 C1935 1.419 . S
C1937 C1938 1.362 . S
C1938 H1930 0.930 . S
C1938 C1937 1.362 . S
C1938 C1941 1.409 . S
C1939 H1931 0.930 . S
C1939 C1940 1.355 . S
C1939 C1941 1.415 . S
C1940 C1939 1.355 . S
C1940 C1942 1.419 . S
C1941 C1936 1.425 . S
C1941 C1938 1.409 . S
C1941 C1939 1.415 . S
C1942 H1932 0.930 . S
C1942 C1940 1.419 . S
C1942 C1943 1.362 . S
C1943 H1933 0.930 . S
C1943 C1936 1.409 . S
C1943 C1942 1.362 . S
H1944 C1950 0.930 . S
H1945 C1953 0.930 . S
H1946 C1954 0.930 . S
H1947 C1955 0.930 . S
H1948 C1958 0.930 . S
H1949 C1959 0.930 . S
C1950 H1944 0.930 . S
C1950 C1951 1.355 . S
C1950 C1952 1.415 . S
C1951 C1950 1.355 . S
C1951 C1953 1.419 . S
C1952 C1950 1.415 . S
C1952 C1957 1.425 . S
C1952 C1959 1.409 . S
C1953 H1945 0.930 . S
C1953 C1951 1.419 . S
C1953 C1954 1.362 . S
C1954 H1946 0.930 . S
C1954 C1953 1.362 . S
C1954 C1957 1.409 . S
C1955 H1947 0.930 . S
C1955 C1956 1.355 . S
C1955 C1957 1.415 . S
C1956 C1955 1.355 . S
C1956 C1958 1.419 . S
C1957 C1952 1.425 . S
C1957 C1954 1.409 . S
C1957 C1955 1.415 . S
C1958 H1948 0.930 . S
C1958 C1956 1.419 . S
C1958 C1959 1.362 . S
C1959 H1949 0.930 . S
C1959 C1952 1.409 . S
C1959 C1958 1.362 . S
H1960 C1966 0.930 . S
H1961 C1969 0.930 . S
H1962 C1970 0.930 . S
H1963 C1971 0.930 . S
H1964 C1974 0.930 . S
H1965 C1975 0.930 . S
C1966 H1960 0.930 . S
C1966 C1967 1.355 . S
C1966 C1968 1.415 . S
C1967 C1966 1.355 . S
C1967 C1969 1.419 . S
C1968 C1966 1.415 . S
C1968 C1973 1.425 . S
C1968 C1975 1.409 . S
C1969 H1961 0.930 . S
C1969 C1967 1.419 . S
C1969 C1970 1.362 . S
C1970 H1962 0.930 . S
C1970 C1969 1.362 . S
C1970 C1973 1.409 . S
C1971 H1963 0.930 . S
C1971 C1972 1.355 . S
C1971 C1973 1.415 . S
C1972 C1971 1.355 . S
C1972 C1974 1.419 . S
C1973 C1968 1.425 . S
C1973 C1970 1.409 . S
C1973 C1971 1.415 . S
C1974 H1964 0.930 . S
C1974 C1972 1.419 . S
C1974 C1975 1.362 . S
C1975 H1965 0.930 . S
C1975 C1968 1.409 . S
C1975 C1974 1.362 . S
H1976 C1982 0.930 . S
H1977 C1985 0.930 . S
H1978 C1986 0.930 . S
H1979 C1987 0.930 . S
H1980 C1990 0.930 . S
H1981 C1991 0.930 . S
C1982 H1976 0.930 . S
C1982 C1983 1.355 . S
C1982 C1984 1.415 . S
C1983 C1982 1.355 . S
C1983 C1985 1.419 . S
C1984 C1982 1.415 . S
C1984 C1989 1.425 . S
C1984 C1991 1.409 . S
C1985 H1977 0.930 . S
C1985 C1983 1.419 . S
C1985 C1986 1.362 . S
C1986 H1978 0.930 . S
C1986 C1985 1.362 . S
C1986 C1989 1.409 . S
C1987 H1979 0.930 . S
C1987 C1988 1.355 . S
C1987 C1989 1.415 . S
C1988 C1987 1.355 . S
C1988 C1990 1.419 . S
C1989 C1984 1.425 . S
C1989 C1986 1.409 . S
C1989 C1987 1.415 . S
C1990 H1980 0.930 . S
C1990 C1988 1.419 . S
C1990 C1991 1.362 . S
C1991 H1981 0.930 . S
C1991 C1984 1.409 . S
C1991 C1990 1.362 . S
H1992 C1998 0.930 . S
H1993 C2001 0.930 . S
H1994 C2002 0.930 . S
H1995 C2003 0.930 . S
H1996 C2006 0.930 . S
H1997 C2007 0.930 . S
C1998 H1992 0.930 . S
C1998 C1999 1.355 . S
C1998 C2000 1.415 . S
C1999 C1998 1.355 . S
C1999 C2001 1.419 . S
C2000 C1998 1.415 . S
C2000 C2005 1.425 . S
C2000 C2007 1.409 . S
C2001 H1993 0.930 . S
C2001 C1999 1.419 . S
C2001 C2002 1.362 . S
C2002 H1994 0.930 . S
C2002 C2001 1.362 . S
C2002 C2005 1.409 . S
C2003 H1995 0.930 . S
C2003 C2004 1.355 . S
C2003 C2005 1.415 . S
C2004 C2003 1.355 . S
C2004 C2006 1.419 . S
C2005 C2000 1.425 . S
C2005 C2002 1.409 . S
C2005 C2003 1.415 . S
C2006 H1996 0.930 . S
C2006 C2004 1.419 . S
C2006 C2007 1.362 . S
C2007 H1997 0.930 . S
C2007 C2000 1.409 . S
C2007 C2006 1.362 . S
H2008 C2014 0.930 . S
H2009 C2017 0.930 . S
H2010 C2018 0.930 . S
H2011 C2019 0.930 . S
H2012 C2022 0.930 . S
H2013 C2023 0.930 . S
C2014 H2008 0.930 . S
C2014 C2015 1.355 . S
C2014 C2016 1.415 1_545 S
C2015 C2014 1.355 . S
C2015 C2017 1.419 . S
C2016 C2014 1.415 1_565 S
C2016 C2021 1.425 . S
C2016 C2023 1.409 . S
C2017 H2009 0.930 . S
C2017 C2015 1.419 . S
C2017 C2018 1.362 1_545 S
C2018 H2010 0.930 . S
C2018 C2017 1.362 1_565 S
C2018 C2021 1.409 . S
C2019 H2011 0.930 . S
C2019 C2020 1.355 . S
C2019 C2021 1.415 . S
C2020 C2019 1.355 . S
C2020 C2022 1.419 . S
C2021 C2016 1.425 . S
C2021 C2018 1.409 . S
C2021 C2019 1.415 . S
C2022 H2012 0.930 . S
C2022 C2020 1.419 . S
C2022 C2023 1.362 . S
C2023 H2013 0.930 . S
C2023 C2016 1.409 . S
C2023 C2022 1.362 . S
H2024 C2030 0.930 . S
H2025 C2033 0.930 . S
H2026 C2034 0.930 . S
H2027 C2035 0.930 . S
H2028 C2038 0.930 . S
H2029 C2039 0.930 . S
C2030 H2024 0.930 . S
C2030 C2031 1.355 . S
C2030 C2032 1.415 1_565 S
C2031 C2030 1.355 . S
C2031 C2033 1.419 1_556 S
C2032 C2030 1.415 1_545 S
C2032 C2037 1.425 1_556 S
C2032 C2039 1.409 . S
C2033 H2025 0.930 . S
C2033 C2031 1.419 1_554 S
C2033 C2034 1.362 . S
C2034 H2026 0.930 . S
C2034 C2033 1.362 . S
C2034 C2037 1.409 1_565 S
C2035 H2027 0.930 . S
C2035 C2036 1.355 . S
C2035 C2037 1.415 . S
C2036 C2035 1.355 . S
C2036 C2038 1.419 1_554 S
C2037 C2032 1.425 1_554 S
C2037 C2034 1.409 1_545 S
C2037 C2035 1.415 . S
C2038 H2028 0.930 . S
C2038 C2036 1.419 1_556 S
C2038 C2039 1.362 . S
C2039 H2029 0.930 . S
C2039 C2032 1.409 . S
C2039 C2038 1.362 . S
H2040 C2046 0.930 . S
H2041 C2049 0.930 . S
H2042 C2050 0.930 . S
H2043 C2051 0.930 . S
H2044 C2054 0.930 . S
H2045 C2055 0.930 . S
C2046 H2040 0.930 . S
C2046 C2047 1.355 . S
C2046 C2048 1.415 . S
C2047 C2046 1.355 . S
C2047 C2049 1.419 . S
C2048 C2046 1.415 . S
C2048 C2053 1.425 . S
C2048 C2055 1.409 . S
C2049 H2041 0.930 . S
C2049 C2047 1.419 . S
C2049 C2050 1.362 . S
C2050 H2042 0.930 . S
C2050 C2049 1.362 . S
C2050 C2053 1.409 . S
C2051 H2043 0.930 . S
C2051 C2052 1.355 . S
C2051 C2053 1.415 . S
C2052 C2051 1.355 . S
C2052 C2054 1.419 . S
C2053 C2048 1.425 . S
C2053 C2050 1.409 . S
C2053 C2051 1.415 . S
C2054 H2044 0.930 . S
C2054 C2052 1.419 . S
C2054 C2055 1.362 . S
C2055 H2045 0.930 . S
C2055 C2048 1.409 . S
C2055 C2054 1.362 . S
H2056 C2062 0.930 . S
H2057 C2065 0.930 . S
H2058 C2066 0.930 . S
H2059 C2067 0.930 . S
H2060 C2070 0.930 . S
H2061 C2071 0.930 . S
C2062 H2056 0.930 . S
C2062 C2063 1.355 . S
C2062 C2064 1.415 . S
C2063 C2062 1.355 . S
C2063 C2065 1.419 . S
C2064 C2062 1.415 . S
C2064 C2069 1.425 . S
C2064 C2071 1.409 . S
C2065 H2057 0.930 . S
C2065 C2063 1.419 . S
C2065 C2066 1.362 . S
C2066 H2058 0.930 . S
C2066 C2065 1.362 . S
C2066 C2069 1.409 . S
C2067 H2059 0.930 . S
C2067 C2068 1.355 . S
C2067 C2069 1.415 . S
C2068 C2067 1.355 . S
C2068 C2070 1.419 . S
C2069 C2064 1.425 . S
C2069 C2066 1.409 . S
C2069 C2067 1.415 . S
C2070 H2060 0.930 . S
C2070 C2068 1.419 . S
C2070 C2071 1.362 . S
C2071 H2061 0.930 . S
C2071 C2064 1.409 . S
C2071 C2070 1.362 . S
H2072 C2078 0.930 . S
H2073 C2081 0.930 . S
H2074 C2082 0.930 . S
H2075 C2083 0.930 . S
H2076 C2086 0.930 . S
H2077 C2087 0.930 . S
C2078 H2072 0.930 . S
C2078 C2079 1.355 . S
C2078 C2080 1.415 . S
C2079 C2078 1.355 . S
C2079 C2081 1.419 . S
C2080 C2078 1.415 . S
C2080 C2085 1.425 . S
C2080 C2087 1.409 . S
C2081 H2073 0.930 . S
C2081 C2079 1.419 . S
C2081 C2082 1.362 . S
C2082 H2074 0.930 . S
C2082 C2081 1.362 . S
C2082 C2085 1.409 . S
C2083 H2075 0.930 . S
C2083 C2084 1.355 . S
C2083 C2085 1.415 . S
C2084 C2083 1.355 . S
C2084 C2086 1.419 . S
C2085 C2080 1.425 . S
C2085 C2082 1.409 . S
C2085 C2083 1.415 . S
C2086 H2076 0.930 . S
C2086 C2084 1.419 . S
C2086 C2087 1.362 . S
C2087 H2077 0.930 . S
C2087 C2080 1.409 . S
C2087 C2086 1.362 . S
H2088 C2094 0.930 . S
H2089 C2097 0.930 . S
H2090 C2098 0.930 . S
H2091 C2099 0.930 . S
H2092 C2102 0.930 . S
H2093 C2103 0.930 . S
C2094 H2088 0.930 . S
C2094 C2095 1.355 . S
C2094 C2096 1.415 . S
C2095 C2094 1.355 . S
C2095 C2097 1.419 . S
C2096 C2094 1.415 . S
C2096 C2101 1.425 . S
C2096 C2103 1.409 . S
C2097 H2089 0.930 . S
C2097 C2095 1.419 . S
C2097 C2098 1.362 . S
C2098 H2090 0.930 . S
C2098 C2097 1.362 . S
C2098 C2101 1.409 . S
C2099 H2091 0.930 . S
C2099 C2100 1.355 . S
C2099 C2101 1.415 . S
C2100 C2099 1.355 . S
C2100 C2102 1.419 . S
C2101 C2096 1.425 . S
C2101 C2098 1.409 . S
C2101 C2099 1.415 . S
C2102 H2092 0.930 . S
C2102 C2100 1.419 . S
C2102 C2103 1.362 . S
C2103 H2093 0.930 . S
C2103 C2096 1.409 . S
C2103 C2102 1.362 . S
H2104 C2110 0.930 . S
H2105 C2113 0.930 . S
H2106 C2114 0.930 . S
H2107 C2115 0.930 . S
H2108 C2118 0.930 . S
H2109 C2119 0.930 . S
C2110 H2104 0.930 . S
C2110 C2111 1.355 . S
C2110 C2112 1.415 . S
C2111 C2110 1.355 . S
C2111 C2113 1.419 . S
C2112 C2110 1.415 . S
C2112 C2117 1.425 . S
C2112 C2119 1.409 . S
C2113 H2105 0.930 . S
C2113 C2111 1.419 . S
C2113 C2114 1.362 . S
C2114 H2106 0.930 . S
C2114 C2113 1.362 . S
C2114 C2117 1.409 . S
C2115 H2107 0.930 . S
C2115 C2116 1.355 . S
C2115 C2117 1.415 . S
C2116 C2115 1.355 . S
C2116 C2118 1.419 . S
C2117 C2112 1.425 . S
C2117 C2114 1.409 . S
C2117 C2115 1.415 . S
C2118 H2108 0.930 . S
C2118 C2116 1.419 . S
C2118 C2119 1.362 . S
C2119 H2109 0.930 . S
C2119 C2112 1.409 . S
C2119 C2118 1.362 . S
H2120 C2126 0.930 . S
H2121 C2129 0.930 . S
H2122 C2130 0.930 . S
H2123 C2131 0.930 . S
H2124 C2134 0.930 . S
H2125 C2135 0.930 . S
C2126 H2120 0.930 . S
C2126 C2127 1.355 . S
C2126 C2128 1.415 . S
C2127 C2126 1.355 . S
C2127 C2129 1.419 . S
C2128 C2126 1.415 . S
C2128 C2133 1.425 . S
C2128 C2135 1.409 . S
C2129 H2121 0.930 . S
C2129 C2127 1.419 . S
C2129 C2130 1.362 . S
C2130 H2122 0.930 . S
C2130 C2129 1.362 . S
C2130 C2133 1.409 . S
C2131 H2123 0.930 . S
C2131 C2132 1.355 . S
C2131 C2133 1.415 . S
C2132 C2131 1.355 . S
C2132 C2134 1.419 . S
C2133 C2128 1.425 . S
C2133 C2130 1.409 . S
C2133 C2131 1.415 . S
C2134 H2124 0.930 . S
C2134 C2132 1.419 . S
C2134 C2135 1.362 . S
C2135 H2125 0.930 . S
C2135 C2128 1.409 . S
C2135 C2134 1.362 . S
H2136 C2142 0.930 . S
H2137 C2145 0.930 . S
H2138 C2146 0.930 . S
H2139 C2147 0.930 . S
H2140 C2150 0.930 . S
H2141 C2151 0.930 . S
C2142 H2136 0.930 . S
C2142 C2143 1.355 . S
C2142 C2144 1.415 . S
C2143 C2142 1.355 . S
C2143 C2145 1.419 . S
C2144 C2142 1.415 . S
C2144 C2149 1.425 . S
C2144 C2151 1.409 . S
C2145 H2137 0.930 . S
C2145 C2143 1.419 . S
C2145 C2146 1.362 . S
C2146 H2138 0.930 . S
C2146 C2145 1.362 . S
C2146 C2149 1.409 . S
C2147 H2139 0.930 . S
C2147 C2148 1.355 . S
C2147 C2149 1.415 . S
C2148 C2147 1.355 . S
C2148 C2150 1.419 . S
C2149 C2144 1.425 . S
C2149 C2146 1.409 . S
C2149 C2147 1.415 . S
C2150 H2140 0.930 . S
C2150 C2148 1.419 . S
C2150 C2151 1.362 . S
C2151 H2141 0.930 . S
C2151 C2144 1.409 . S
C2151 C2150 1.362 . S
H2152 C2158 0.930 . S
H2153 C2161 0.930 . S
H2154 C2162 0.930 . S
H2155 C2163 0.930 . S
H2156 C2166 0.930 . S
H2157 C2167 0.930 . S
C2158 H2152 0.930 . S
C2158 C2159 1.355 . S
C2158 C2160 1.415 . S
C2159 C2158 1.355 . S
C2159 C2161 1.419 . S
C2160 C2158 1.415 . S
C2160 C2165 1.425 . S
C2160 C2167 1.409 . S
C2161 H2153 0.930 . S
C2161 C2159 1.419 . S
C2161 C2162 1.362 . S
C2162 H2154 0.930 . S
C2162 C2161 1.362 . S
C2162 C2165 1.409 . S
C2163 H2155 0.930 . S
C2163 C2164 1.355 . S
C2163 C2165 1.415 . S
C2164 C2163 1.355 . S
C2164 C2166 1.419 . S
C2165 C2160 1.425 . S
C2165 C2162 1.409 . S
C2165 C2163 1.415 . S
C2166 H2156 0.930 . S
C2166 C2164 1.419 . S
C2166 C2167 1.362 . S
C2167 H2157 0.930 . S
C2167 C2160 1.409 . S
C2167 C2166 1.362 . S
H2168 C2174 0.930 . S
H2169 C2177 0.930 . S
H2170 C2178 0.930 . S
H2171 C2179 0.930 . S
H2172 C2182 0.930 1_554 S
H2173 C2183 0.930 . S
C2174 H2168 0.930 . S
C2174 C2175 1.355 . S
C2174 C2176 1.415 . S
C2175 C2174 1.355 . S
C2175 C2177 1.419 . S
C2176 C2174 1.415 . S
C2176 C2181 1.425 . S
C2176 C2183 1.409 . S
C2177 H2169 0.930 . S
C2177 C2175 1.419 . S
C2177 C2178 1.362 . S
C2178 H2170 0.930 . S
C2178 C2177 1.362 . S
C2178 C2181 1.409 . S
C2179 H2171 0.930 . S
C2179 C2180 1.355 . S
C2179 C2181 1.415 . S
C2180 C2179 1.355 . S
C2180 C2182 1.419 . S
C2181 C2176 1.425 . S
C2181 C2178 1.409 . S
C2181 C2179 1.415 . S
C2182 H2172 0.930 1_556 S
C2182 C2180 1.419 . S
C2182 C2183 1.362 . S
C2183 H2173 0.930 . S
C2183 C2176 1.409 . S
C2183 C2182 1.362 . S
H2184 C2190 0.930 . S
H2185 C2193 0.930 . S
H2186 C2194 0.930 . S
H2187 C2195 0.930 . S
H2188 C2198 0.930 . S
H2189 C2199 0.930 . S
C2190 H2184 0.930 . S
C2190 C2191 1.355 . S
C2190 C2192 1.415 . S
C2191 C2190 1.355 . S
C2191 C2193 1.419 . S
C2192 C2190 1.415 . S
C2192 C2197 1.425 . S
C2192 C2199 1.409 . S
C2193 H2185 0.930 . S
C2193 C2191 1.419 . S
C2193 C2194 1.362 . S
C2194 H2186 0.930 . S
C2194 C2193 1.362 . S
C2194 C2197 1.409 . S
C2195 H2187 0.930 . S
C2195 C2196 1.355 . S
C2195 C2197 1.415 . S
C2196 C2195 1.355 . S
C2196 C2198 1.419 . S
C2197 C2192 1.425 . S
C2197 C2194 1.409 . S
C2197 C2195 1.415 . S
C2198 H2188 0.930 . S
C2198 C2196 1.419 . S
C2198 C2199 1.362 . S
C2199 H2189 0.930 . S
C2199 C2192 1.409 . S
C2199 C2198 1.362 . S
H2200 C2206 0.930 . S
H2201 C2209 0.930 . S
H2202 C2210 0.930 . S
H2203 C2211 0.930 . S
H2204 C2214 0.930 . S
H2205 C2215 0.930 . S
C2206 H2200 0.930 . S
C2206 C2207 1.355 . S
C2206 C2208 1.415 . S
C2207 C2206 1.355 . S
C2207 C2209 1.419 . S
C2208 C2206 1.415 . S
C2208 C2213 1.425 . S
C2208 C2215 1.409 . S
C2209 H2201 0.930 . S
C2209 C2207 1.419 . S
C2209 C2210 1.362 . S
C2210 H2202 0.930 . S
C2210 C2209 1.362 . S
C2210 C2213 1.409 . S
C2211 H2203 0.930 . S
C2211 C2212 1.355 . S
C2211 C2213 1.415 . S
C2212 C2211 1.355 . S
C2212 C2214 1.419 . S
C2213 C2208 1.425 . S
C2213 C2210 1.409 . S
C2213 C2211 1.415 . S
C2214 H2204 0.930 . S
C2214 C2212 1.419 . S
C2214 C2215 1.362 . S
C2215 H2205 0.930 . S
C2215 C2208 1.409 . S
C2215 C2214 1.362 . S
H2216 C2222 0.930 . S
H2217 C2225 0.930 . S
H2218 C2226 0.930 . S
H2219 C2227 0.930 . S
H2220 C2230 0.930 . S
H2221 C2231 0.930 . S
C2222 H2216 0.930 . S
C2222 C2223 1.355 . S
C2222 C2224 1.415 . S
C2223 C2222 1.355 . S
C2223 C2225 1.419 . S
C2224 C2222 1.415 . S
C2224 C2229 1.425 . S
C2224 C2231 1.409 . S
C2225 H2217 0.930 . S
C2225 C2223 1.419 . S
C2225 C2226 1.362 . S
C2226 H2218 0.930 . S
C2226 C2225 1.362 . S
C2226 C2229 1.409 . S
C2227 H2219 0.930 . S
C2227 C2228 1.355 . S
C2227 C2229 1.415 . S
C2228 C2227 1.355 . S
C2228 C2230 1.419 . S
C2229 C2224 1.425 . S
C2229 C2226 1.409 . S
C2229 C2227 1.415 . S
C2230 H2220 0.930 . S
C2230 C2228 1.419 . S
C2230 C2231 1.362 . S
C2231 H2221 0.930 . S
C2231 C2224 1.409 . S
C2231 C2230 1.362 . S
H2232 C2238 0.930 . S
H2233 C2241 0.930 . S
H2234 C2242 0.930 . S
H2235 C2243 0.930 . S
H2236 C2246 0.930 . S
H2237 C2247 0.930 . S
C2238 H2232 0.930 . S
C2238 C2239 1.355 . S
C2238 C2240 1.415 . S
C2239 C2238 1.355 . S
C2239 C2241 1.419 . S
C2240 C2238 1.415 . S
C2240 C2245 1.425 . S
C2240 C2247 1.409 . S
C2241 H2233 0.930 . S
C2241 C2239 1.419 . S
C2241 C2242 1.362 . S
C2242 H2234 0.930 . S
C2242 C2241 1.362 . S
C2242 C2245 1.409 . S
C2243 H2235 0.930 . S
C2243 C2244 1.355 . S
C2243 C2245 1.415 . S
C2244 C2243 1.355 . S
C2244 C2246 1.419 . S
C2245 C2240 1.425 . S
C2245 C2242 1.409 . S
C2245 C2243 1.415 . S
C2246 H2236 0.930 . S
C2246 C2244 1.419 . S
C2246 C2247 1.362 . S
C2247 H2237 0.930 . S
C2247 C2240 1.409 . S
C2247 C2246 1.362 . S
H2248 C2254 0.930 . S
H2249 C2257 0.930 . S
H2250 C2258 0.930 . S
H2251 C2259 0.930 . S
H2252 C2262 0.930 . S
H2253 C2263 0.930 . S
C2254 H2248 0.930 . S
C2254 C2255 1.355 . S
C2254 C2256 1.415 . S
C2255 C2254 1.355 . S
C2255 C2257 1.419 . S
C2256 C2254 1.415 . S
C2256 C2261 1.425 . S
C2256 C2263 1.409 . S
C2257 H2249 0.930 . S
C2257 C2255 1.419 . S
C2257 C2258 1.362 . S
C2258 H2250 0.930 . S
C2258 C2257 1.362 . S
C2258 C2261 1.409 . S
C2259 H2251 0.930 . S
C2259 C2260 1.355 . S
C2259 C2261 1.415 . S
C2260 C2259 1.355 . S
C2260 C2262 1.419 . S
C2261 C2256 1.425 . S
C2261 C2258 1.409 . S
C2261 C2259 1.415 . S
C2262 H2252 0.930 . S
C2262 C2260 1.419 . S
C2262 C2263 1.362 . S
C2263 H2253 0.930 . S
C2263 C2256 1.409 . S
C2263 C2262 1.362 . S
H2264 C2270 0.930 . S
H2265 C2273 0.930 . S
H2266 C2274 0.930 . S
H2267 C2275 0.930 . S
H2268 C2278 0.930 1_554 S
H2269 C2279 0.930 . S
C2270 H2264 0.930 . S
C2270 C2271 1.355 . S
C2270 C2272 1.415 . S
C2271 C2270 1.355 . S
C2271 C2273 1.419 . S
C2272 C2270 1.415 . S
C2272 C2277 1.395 1_655 S
C2272 C2279 1.409 . S
C2273 H2265 0.930 . S
C2273 C2271 1.419 . S
C2273 C2274 1.362 1_655 S
C2274 H2266 0.930 . S
C2274 C2273 1.362 1_455 S
C2274 C2277 1.421 . S
C2275 H2267 0.930 . S
C2275 C2276 1.355 . S
C2275 C2277 1.432 . S
C2276 C2275 1.355 . S
C2276 C2278 1.419 1_455 S
C2277 C2272 1.395 1_455 S
C2277 C2274 1.421 . S
C2277 C2275 1.432 . S
C2278 H2268 0.930 1_556 S
C2278 C2276 1.419 1_655 S
C2278 C2279 1.362 . S
C2279 H2269 0.930 . S
C2279 C2272 1.409 . S
C2279 C2278 1.362 . S
H2280 C2286 0.930 . S
H2281 C2289 0.930 . S
H2282 C2290 0.930 . S
H2283 C2291 0.930 . S
H2284 C2294 0.930 . S
H2285 C2295 0.930 . S
C2286 H2280 0.930 . S
C2286 C2287 1.355 . S
C2286 C2288 1.415 . S
C2287 C2286 1.355 . S
C2287 C2289 1.419 . S
C2288 C2286 1.415 . S
C2288 C2293 1.425 . S
C2288 C2295 1.409 . S
C2289 H2281 0.930 . S
C2289 C2287 1.419 . S
C2289 C2290 1.362 . S
C2290 H2282 0.930 . S
C2290 C2289 1.362 . S
C2290 C2293 1.409 . S
C2291 H2283 0.930 . S
C2291 C2292 1.355 . S
C2291 C2293 1.415 . S
C2292 C2291 1.355 . S
C2292 C2294 1.419 . S
C2293 C2288 1.425 . S
C2293 C2290 1.409 . S
C2293 C2291 1.415 . S
C2294 H2284 0.930 . S
C2294 C2292 1.419 . S
C2294 C2295 1.362 . S
C2295 H2285 0.930 . S
C2295 C2288 1.409 . S
C2295 C2294 1.362 . S
H2296 C2302 0.930 . S
H2297 C2305 0.930 . S
H2298 C2306 0.930 . S
H2299 C2307 0.930 . S
H2300 C2310 0.930 . S
H2301 C2311 0.930 . S
C2302 H2296 0.930 . S
C2302 C2303 1.355 . S
C2302 C2304 1.415 . S
C2303 C2302 1.355 . S
C2303 C2305 1.419 . S
C2304 C2302 1.415 . S
C2304 C2309 1.425 . S
C2304 C2311 1.409 . S
C2305 H2297 0.930 . S
C2305 C2303 1.419 . S
C2305 C2306 1.362 . S
C2306 H2298 0.930 . S
C2306 C2305 1.362 . S
C2306 C2309 1.409 . S
C2307 H2299 0.930 . S
C2307 C2308 1.355 . S
C2307 C2309 1.415 . S
C2308 C2307 1.355 . S
C2308 C2310 1.419 . S
C2309 C2304 1.425 . S
C2309 C2306 1.409 . S
C2309 C2307 1.415 . S
C2310 H2300 0.930 . S
C2310 C2308 1.419 . S
C2310 C2311 1.362 . S
C2311 H2301 0.930 . S
C2311 C2304 1.409 . S
C2311 C2310 1.362 . S
H2312 C2318 0.930 . S
H2313 C2321 0.930 . S
H2314 C2322 0.930 . S
H2315 C2323 0.930 . S
H2316 C2326 0.930 . S
H2317 C2327 0.930 . S
C2318 H2312 0.930 . S
C2318 C2319 1.355 . S
C2318 C2320 1.415 . S
C2319 C2318 1.355 . S
C2319 C2321 1.419 . S
C2320 C2318 1.415 . S
C2320 C2325 1.425 . S
C2320 C2327 1.409 . S
C2321 H2313 0.930 . S
C2321 C2319 1.419 . S
C2321 C2322 1.362 . S
C2322 H2314 0.930 . S
C2322 C2321 1.362 . S
C2322 C2325 1.409 . S
C2323 H2315 0.930 . S
C2323 C2324 1.355 . S
C2323 C2325 1.415 . S
C2324 C2323 1.355 . S
C2324 C2326 1.419 . S
C2325 C2320 1.425 . S
C2325 C2322 1.409 . S
C2325 C2323 1.415 . S
C2326 H2316 0.930 . S
C2326 C2324 1.419 . S
C2326 C2327 1.362 . S
C2327 H2317 0.930 . S
C2327 C2320 1.409 . S
C2327 C2326 1.362 . S
H2328 C2334 0.930 . S
H2329 C2337 0.930 . S
H2330 C2338 0.937 . S
H2331 C2339 0.930 . S
H2332 C2342 0.930 . S
H2333 C2343 0.930 . S
C2334 H2328 0.930 . S
C2334 C2335 1.355 . S
C2334 C2336 1.415 . S
C2335 C2334 1.355 . S
C2335 C2337 1.419 . S
C2336 C2334 1.415 . S
C2336 C2341 1.425 . S
C2336 C2343 1.409 . S
C2337 H2329 0.930 . S
C2337 C2335 1.419 . S
C2337 C2338 1.358 1_655 S
C2338 H2330 0.937 . S
C2338 C2337 1.358 1_455 S
C2338 C2341 1.406 1_455 S
C2339 H2331 0.930 . S
C2339 C2340 1.355 1_455 S
C2339 C2341 1.415 1_455 S
C2340 C2339 1.355 1_655 S
C2340 C2342 1.419 . S
C2341 C2336 1.425 . S
C2341 C2338 1.406 1_655 S
C2341 C2339 1.415 1_655 S
C2342 H2332 0.930 . S
C2342 C2340 1.419 . S
C2342 C2343 1.362 . S
C2343 H2333 0.930 . S
C2343 C2336 1.409 . S
C2343 C2342 1.362 . S
H2344 C2350 0.930 . S
H2345 C2353 0.930 . S
H2346 C2354 0.930 . S
H2347 C2355 0.930 . S
H2348 C2358 0.930 . S
H2349 C2359 0.930 . S
C2350 H2344 0.930 . S
C2350 C2351 1.355 . S
C2350 C2352 1.415 . S
C2351 C2350 1.355 . S
C2351 C2353 1.419 . S
C2352 C2350 1.415 . S
C2352 C2357 1.425 . S
C2352 C2359 1.409 . S
C2353 H2345 0.930 . S
C2353 C2351 1.419 . S
C2353 C2354 1.362 . S
C2354 H2346 0.930 . S
C2354 C2353 1.362 . S
C2354 C2357 1.409 . S
C2355 H2347 0.930 . S
C2355 C2356 1.355 . S
C2355 C2357 1.415 . S
C2356 C2355 1.355 . S
C2356 C2358 1.419 . S
C2357 C2352 1.425 . S
C2357 C2354 1.409 . S
C2357 C2355 1.415 . S
C2358 H2348 0.930 . S
C2358 C2356 1.419 . S
C2358 C2359 1.362 . S
C2359 H2349 0.930 . S
C2359 C2352 1.409 . S
C2359 C2358 1.362 . S
H2360 C2366 0.930 . S
H2361 C2369 0.930 . S
H2362 C2370 0.930 . S
H2363 C2371 0.930 . S
H2364 C2374 0.930 . S
H2365 C2375 0.930 . S
C2366 H2360 0.930 . S
C2366 C2367 1.355 . S
C2366 C2368 1.415 . S
C2367 C2366 1.355 . S
C2367 C2369 1.419 . S
C2368 C2366 1.415 . S
C2368 C2373 1.425 . S
C2368 C2375 1.409 . S
C2369 H2361 0.930 . S
C2369 C2367 1.419 . S
C2369 C2370 1.362 . S
C2370 H2362 0.930 . S
C2370 C2369 1.362 . S
C2370 C2373 1.409 . S
C2371 H2363 0.930 . S
C2371 C2372 1.355 . S
C2371 C2373 1.415 . S
C2372 C2371 1.355 . S
C2372 C2374 1.419 . S
C2373 C2368 1.425 . S
C2373 C2370 1.409 . S
C2373 C2371 1.415 . S
C2374 H2364 0.930 . S
C2374 C2372 1.419 . S
C2374 C2375 1.362 . S
C2375 H2365 0.930 . S
C2375 C2368 1.409 . S
C2375 C2374 1.362 . S
H2376 C2382 0.930 . S
H2377 C2385 0.930 . S
H2378 C2386 0.930 . S
H2379 C2387 0.930 1_545 S
H2380 C2390 0.930 . S
H2381 C2391 0.930 . S
C2382 H2376 0.930 . S
C2382 C2383 1.355 . S
C2382 C2384 1.415 . S
C2383 C2382 1.355 . S
C2383 C2385 1.419 . S
C2384 C2382 1.415 . S
C2384 C2389 1.425 . S
C2384 C2391 1.409 . S
C2385 H2377 0.930 . S
C2385 C2383 1.419 . S
C2385 C2386 1.362 . S
C2386 H2378 0.930 . S
C2386 C2385 1.362 . S
C2386 C2389 1.409 . S
C2387 H2379 0.930 1_565 S
C2387 C2388 1.355 . S
C2387 C2389 1.415 . S
C2388 C2387 1.355 . S
C2388 C2390 1.419 . S
C2389 C2384 1.425 . S
C2389 C2386 1.409 . S
C2389 C2387 1.415 . S
C2390 H2380 0.930 . S
C2390 C2388 1.419 . S
C2390 C2391 1.362 . S
C2391 H2381 0.930 . S
C2391 C2384 1.409 . S
C2391 C2390 1.362 . S
H2392 C2398 0.930 . S
H2393 C2401 0.930 . S
H2394 C2402 0.930 . S
H2395 C2403 0.930 . S
H2396 C2406 0.930 . S
H2397 C2407 0.930 . S
C2398 H2392 0.930 . S
C2398 C2399 1.355 . S
C2398 C2400 1.415 . S
C2399 C2398 1.355 . S
C2399 C2401 1.419 . S
C2400 C2398 1.415 . S
C2400 C2405 1.425 . S
C2400 C2407 1.409 . S
C2401 H2393 0.930 . S
C2401 C2399 1.419 . S
C2401 C2402 1.362 . S
C2402 H2394 0.930 . S
C2402 C2401 1.362 . S
C2402 C2405 1.409 . S
C2403 H2395 0.930 . S
C2403 C2404 1.355 . S
C2403 C2405 1.415 . S
C2404 C2403 1.355 . S
C2404 C2406 1.419 . S
C2405 C2400 1.425 . S
C2405 C2402 1.409 . S
C2405 C2403 1.415 . S
C2406 H2396 0.930 . S
C2406 C2404 1.419 . S
C2406 C2407 1.362 . S
C2407 H2397 0.930 . S
C2407 C2400 1.409 . S
C2407 C2406 1.362 . S
H2408 C2414 0.930 . S
H2409 C2417 0.930 . S
H2410 C2418 0.930 . S
H2411 C2419 0.930 . S
H2412 C2422 0.930 . S
H2413 C2423 0.930 . S
C2414 H2408 0.930 . S
C2414 C2415 1.355 . S
C2414 C2416 1.415 . S
C2415 C2414 1.355 . S
C2415 C2417 1.419 . S
C2416 C2414 1.415 . S
C2416 C2421 1.425 . S
C2416 C2423 1.409 . S
C2417 H2409 0.930 . S
C2417 C2415 1.419 . S
C2417 C2418 1.362 . S
C2418 H2410 0.930 . S
C2418 C2417 1.362 . S
C2418 C2421 1.409 . S
C2419 H2411 0.930 . S
C2419 C2420 1.355 . S
C2419 C2421 1.415 . S
C2420 C2419 1.355 . S
C2420 C2422 1.419 . S
C2421 C2416 1.425 . S
C2421 C2418 1.409 . S
C2421 C2419 1.415 . S
C2422 H2412 0.930 . S
C2422 C2420 1.419 . S
C2422 C2423 1.362 . S
C2423 H2413 0.930 . S
C2423 C2416 1.409 . S
C2423 C2422 1.362 . S
H2424 C2430 0.930 . S
H2425 C2433 0.930 . S
H2426 C2434 0.930 . S
H2427 C2435 0.930 . S
H2428 C2438 0.930 . S
H2429 C2439 0.930 . S
C2430 H2424 0.930 . S
C2430 C2431 1.355 . S
C2430 C2432 1.415 . S
C2431 C2430 1.355 . S
C2431 C2433 1.419 . S
C2432 C2430 1.415 . S
C2432 C2437 1.425 . S
C2432 C2439 1.409 . S
C2433 H2425 0.930 . S
C2433 C2431 1.419 . S
C2433 C2434 1.362 . S
C2434 H2426 0.930 . S
C2434 C2433 1.362 . S
C2434 C2437 1.409 . S
C2435 H2427 0.930 . S
C2435 C2436 1.355 . S
C2435 C2437 1.415 . S
C2436 C2435 1.355 . S
C2436 C2438 1.419 . S
C2437 C2432 1.425 . S
C2437 C2434 1.409 . S
C2437 C2435 1.415 . S
C2438 H2428 0.930 . S
C2438 C2436 1.419 . S
C2438 C2439 1.362 . S
C2439 H2429 0.930 . S
C2439 C2432 1.409 . S
C2439 C2438 1.362 . S
H2440 C2446 0.930 . S
H2441 C2449 0.930 . S
H2442 C2450 0.930 . S
H2443 C2451 0.930 . S
H2444 C2454 0.930 . S
H2445 C2455 0.930 . S
C2446 H2440 0.930 . S
C2446 C2447 1.355 . S
C2446 C2448 1.415 . S
C2447 C2446 1.355 . S
C2447 C2449 1.419 . S
C2448 C2446 1.415 . S
C2448 C2453 1.425 . S
C2448 C2455 1.409 . S
C2449 H2441 0.930 . S
C2449 C2447 1.419 . S
C2449 C2450 1.362 . S
C2450 H2442 0.930 . S
C2450 C2449 1.362 . S
C2450 C2453 1.409 . S
C2451 H2443 0.930 . S
C2451 C2452 1.355 . S
C2451 C2453 1.415 . S
C2452 C2451 1.355 . S
C2452 C2454 1.419 . S
C2453 C2448 1.425 . S
C2453 C2450 1.409 . S
C2453 C2451 1.415 . S
C2454 H2444 0.930 . S
C2454 C2452 1.419 . S
C2454 C2455 1.362 . S
C2455 H2445 0.930 . S
C2455 C2448 1.409 . S
C2455 C2454 1.362 . S
H2456 C2462 0.930 . S
H2457 C2465 0.930 . S
H2458 C2466 0.930 . S
H2459 C2467 0.930 . S
H2460 C2470 0.930 . S
H2461 C2471 0.930 . S
C2462 H2456 0.930 . S
C2462 C2463 1.355 . S
C2462 C2464 1.415 . S
C2463 C2462 1.355 . S
C2463 C2465 1.419 . S
C2464 C2462 1.415 . S
C2464 C2469 1.425 . S
C2464 C2471 1.409 . S
C2465 H2457 0.930 . S
C2465 C2463 1.419 . S
C2465 C2466 1.362 . S
C2466 H2458 0.930 . S
C2466 C2465 1.362 . S
C2466 C2469 1.409 . S
C2467 H2459 0.930 . S
C2467 C2468 1.355 . S
C2467 C2469 1.415 . S
C2468 C2467 1.355 . S
C2468 C2470 1.419 . S
C2469 C2464 1.425 . S
C2469 C2466 1.409 . S
C2469 C2467 1.415 . S
C2470 H2460 0.930 . S
C2470 C2468 1.419 . S
C2470 C2471 1.362 . S
C2471 H2461 0.930 . S
C2471 C2464 1.409 . S
C2471 C2470 1.362 . S
H2472 C2478 0.930 . S
H2473 C2481 0.930 . S
H2474 C2482 0.930 . S
H2475 C2483 0.930 . S
H2476 C2486 0.930 . S
H2477 C2487 0.930 . S
C2478 H2472 0.930 . S
C2478 C2479 1.355 . S
C2478 C2480 1.415 . S
C2479 C2478 1.355 . S
C2479 C2481 1.419 . S
C2480 C2478 1.415 . S
C2480 C2485 1.425 . S
C2480 C2487 1.409 . S
C2481 H2473 0.930 . S
C2481 C2479 1.419 . S
C2481 C2482 1.362 . S
C2482 H2474 0.930 . S
C2482 C2481 1.362 . S
C2482 C2485 1.409 . S
C2483 H2475 0.930 . S
C2483 C2484 1.355 . S
C2483 C2485 1.415 . S
C2484 C2483 1.355 . S
C2484 C2486 1.419 . S
C2485 C2480 1.425 . S
C2485 C2482 1.409 . S
C2485 C2483 1.415 . S
C2486 H2476 0.930 . S
C2486 C2484 1.419 . S
C2486 C2487 1.362 . S
C2487 H2477 0.930 . S
C2487 C2480 1.409 . S
C2487 C2486 1.362 . S
C959 C101 2.240 1_455 S
C964 C343 2.205 . S
C975 C57 1.770 . S
C980 C354 1.846 . S
C991 C70 1.657 . S
C996 C423 1.617 . S
C1012 C436 1.161 . S
C1007 C82 1.210 . S
C1023 C23 2.447 . S
C1028 C492 2.443 . S
C1044 C543 2.115 . S
C1039 C29 2.195 . S
C1060 C572 2.277 . S
C1055 C49 2.289 . S
C1071 C10 2.511 . S
C1076 C623 2.406 . S
C1092 C314 1.447 . S
C1087 C218 1.409 . S
C1103 C226 1.040 . S
C1108 C356 0.948 . S
C1124 C394 1.051 . S
C1119 C251 1.027 . S
C1140 C463 1.582 . S
C1135 C159 1.584 . S
C1151 C211 0.670 . S
C1156 C497 0.639 . S
C1172 C514 1.488 . S
C1167 C225 1.431 . S
C1188 C577 0.600 . S
C1183 C252 0.538 . S
C1204 C594 2.002 . S
C1199 C166 2.050 . S
C1220 C316 1.919 . S
C1215 C147 2.087 . S
C1231 C263 1.619 . S
C1236 C655 1.585 . S
C1252 C676 1.813 . S
C1247 C309 1.923 . S
C1268 C735 0.365 . S
C1263 C291 0.343 . S
C1279 C108 1.314 . S
C1284 C596 1.279 . S
C1295 C121 1.526 . S
C1300 C396 1.458 . S
C1311 C302 0.981 . S
C1316 C754 1.005 . S
C1332 C823 0.919 . S
C1327 C276 0.966 . S
C1348 C332 2.348 1_565 S
C1343 C55 2.346 . S
C1364 C815 2.071 . S
C1359 C96 2.075 . S
C1375 C88 1.919 . S
C1380 C412 1.892 . S
C1391 C75 1.319 . S
C1396 C777 1.280 . S
C1412 C503 2.728 . S
C1407 C4 2.757 . S
C1423 C44 2.334 . S
C1428 C692 2.297 . S
C1444 C583 2.592 1_566 S
C1439 C31 2.616 . S
C1460 C852 2.590 . S
C1455 C18 2.635 1_655 S
C1476 C335 1.501 1_556 S
C1471 C133 1.512 . S
C1492 C817 1.131 . S
C1487 C296 1.185 . S
C1503 C107 1.274 . S
C1508 C415 1.243 . S
C1519 C264 1.996 . S
C1524 C772 2.012 . S
C1535 C140 0.827 . S
C1540 C476 0.806 . S
C1556 C695 1.634 . S
C1551 C289 1.623 . S
C1567 C114 0.656 . S
C1572 C556 0.677 . S
C1583 C265 2.353 . S
C1588 C855 2.308 . S
C1599 C179 1.803 . S
C1604 C337 1.702 . S
C1615 C161 1.744 . S
C1620 C634 1.678 . S
C1631 C244 1.634 . S
C1636 C537 1.571 . S
C1647 C224 0.699 . S
C1652 C714 0.752 . S
C1668 C857 1.189 . S
C1663 C257 1.199 1_565 S
C1679 C199 1.502 . S
C1684 C417 1.488 . S
C1700 C455 1.256 . S
C1695 C237 1.239 . S
C1716 C372 1.113 . S
C1711 C185 1.133 . S
C1727 C69 2.217 . S
C1732 C903 2.149 . S
C1748 C794 1.843 . S
C1743 C83 1.810 . S
C1759 C94 1.652 . S
C1764 C943 1.591 . S
C1775 C56 1.232 . S
C1780 C756 1.220 . S
C1791 C42 2.456 . S
C1796 C652 2.420 . S
C1812 C703 2.132 . S
C1807 C3 2.186 . S
C1828 C732 2.274 . S
C1823 C16 2.269 . S
C1844 C863 2.452 . S
C1839 C36 2.524 . S
C1860 C874 1.466 . S
C1855 C238 1.411 . S
C1871 C174 1.041 . S
C1876 C796 0.967 . S
C1892 C914 1.063 . S
C1887 C186 1.024 . S
C1908 C783 1.592 . S
C1903 C198 1.581 . S
C1924 C657 0.676 . S
C1919 C239 0.686 . S
C1935 C173 1.432 . S
C1940 C674 1.488 . S
C1956 C737 0.578 . S
C1951 C187 0.529 . S
C1967 C205 2.056 . S
C1972 C834 2.010 . S
C1988 C876 1.908 . S
C1983 C290 2.081 . S
C1999 C122 1.670 . S
C2004 C495 1.637 . S
C2020 C516 1.747 . S
C2015 C134 1.871 . S
C2036 C575 0.424 . S
C2031 C148 0.393 . S
C2052 C836 1.291 . S
C2047 C283 1.335 . S
C2063 C270 1.552 . S
C2068 C916 1.516 . S
C2084 C434 0.990 . S
C2079 C135 0.919 . S
C2100 C383 0.912 . S
C2095 C109 0.955 . S
C2111 C81 2.325 . S
C2116 C892 2.347 . S
C2132 C375 2.070 . S
C2127 C68 2.068 . S
C2143 C62 1.920 . S
C2148 C932 1.877 . S
C2159 C95 1.317 . S
C2164 C457 1.277 . S
C2175 C30 2.757 . S
C2180 C663 2.730 1_556 S
C2196 C532 2.285 . S
C2191 C17 2.322 . S
C2207 C5 2.613 . S
C2212 C743 2.606 . S
C2223 C43 2.630 . S
C2228 C612 2.573 . S
C2244 C895 1.508 . S
C2239 C304 1.509 . S
C2255 C153 1.216 . S
C2260 C377 1.199 . S
C2276 C935 1.279 1_556 S
C2271 C278 1.270 . S
C2287 C127 1.986 . S
C2292 C452 2.013 . S
C2303 C303 0.809 . S
C2308 C636 0.778 . S
C2324 C535 1.628 . S
C2319 C146 1.653 . S
C2335 C277 0.654 . S
C2340 C716 0.632 . S
C2356 C615 2.327 . S
C2351 C120 2.360 . S
C2372 C897 1.780 . S
C2367 C231 1.850 . S
C2388 C474 1.705 1_665 S
C2383 C200 1.741 . S
C2399 C212 1.618 . S
C2404 C697 1.547 . S
C2420 C554 0.712 . S
C2415 C172 0.716 . S
C2431 C192 1.116 . S
C2436 C617 1.092 . S
C2447 C160 1.474 . S
C2452 C937 1.441 . S
C2468 C775 1.233 . S
C2463 C213 1.166 . S
C2484 C812 1.130 . S
C2479 C250 1.143 . S
