# Generated by pormake.
# Topology ssb, (4,4)-cn, num edge types: 1
# Building blocks:
#     Node 0, Type 0, BuildingBlock: NAWXER_clean_sbu_0, # of connection points: 4
#     Node 1, Type 0, BuildingBlock: NAWXER_clean_sbu_0, # of connection points: 4
#     Node 2, Type 0, BuildingBlock: NAWXER_clean_sbu_0, # of connection points: 4
#     Node 3, Type 0, BuildingBlock: NAWXER_clean_sbu_0, # of connection points: 4
#     Node 4, Type 0, BuildingBlock: NAWXER_clean_sbu_0, # of connection points: 4
#     Node 5, Type 0, BuildingBlock: NAWXER_clean_sbu_0, # of connection points: 4
#     Node 6, Type 0, BuildingBlock: NAWXER_clean_sbu_0, # of connection points: 4
#     Node 7, Type 0, BuildingBlock: NAWXER_clean_sbu_0, # of connection points: 4
#     Node 8, Type 1, BuildingBlock: KOZSID_clean_sbu_0, # of connection points: 4
#     Node 9, Type 1, BuildingBlock: KOZSID_clean_sbu_0, # of connection points: 4
#     Node 10, Type 1, BuildingBlock: KOZSID_clean_sbu_0, # of connection points: 4
#     Node 11, Type 1, BuildingBlock: KOZSID_clean_sbu_0, # of connection points: 4
#     Node 12, Type 1, BuildingBlock: KOZSID_clean_sbu_0, # of connection points: 4
#     Node 13, Type 1, BuildingBlock: KOZSID_clean_sbu_0, # of connection points: 4
#     Node 14, Type 1, BuildingBlock: KOZSID_clean_sbu_0, # of connection points: 4
#     Node 15, Type 1, BuildingBlock: KOZSID_clean_sbu_0, # of connection points: 4
#     Edge 16, Type (0, 1), BuildingBlock: EZIPEK_clean_linker_0, # of connection points: 2
#     Edge 17, Type (0, 1), BuildingBlock: EZIPEK_clean_linker_0, # of connection points: 2
#     Edge 18, Type (0, 1), BuildingBlock: EZIPEK_clean_linker_0, # of connection points: 2
#     Edge 19, Type (0, 1), BuildingBlock: EZIPEK_clean_linker_0, # of connection points: 2
#     Edge 20, Type (0, 1), BuildingBlock: EZIPEK_clean_linker_0, # of connection points: 2
#     Edge 21, Type (0, 1), BuildingBlock: EZIPEK_clean_linker_0, # of connection points: 2
#     Edge 22, Type (0, 1), BuildingBlock: EZIPEK_clean_linker_0, # of connection points: 2
#     Edge 23, Type (0, 1), BuildingBlock: EZIPEK_clean_linker_0, # of connection points: 2
#     Edge 24, Type (0, 1), BuildingBlock: EZIPEK_clean_linker_0, # of connection points: 2
#     Edge 25, Type (0, 1), BuildingBlock: EZIPEK_clean_linker_0, # of connection points: 2
#     Edge 26, Type (0, 1), BuildingBlock: EZIPEK_clean_linker_0, # of connection points: 2
#     Edge 27, Type (0, 1), BuildingBlock: EZIPEK_clean_linker_0, # of connection points: 2
#     Edge 28, Type (0, 1), BuildingBlock: EZIPEK_clean_linker_0, # of connection points: 2
#     Edge 29, Type (0, 1), BuildingBlock: EZIPEK_clean_linker_0, # of connection points: 2
#     Edge 30, Type (0, 1), BuildingBlock: EZIPEK_clean_linker_0, # of connection points: 2
#     Edge 31, Type (0, 1), BuildingBlock: EZIPEK_clean_linker_0, # of connection points: 2
#     Edge 32, Type (0, 1), BuildingBlock: EZIPEK_clean_linker_0, # of connection points: 2
#     Edge 33, Type (0, 1), BuildingBlock: EZIPEK_clean_linker_0, # of connection points: 2
#     Edge 34, Type (0, 1), BuildingBlock: EZIPEK_clean_linker_0, # of connection points: 2
#     Edge 35, Type (0, 1), BuildingBlock: EZIPEK_clean_linker_0, # of connection points: 2
#     Edge 36, Type (0, 1), BuildingBlock: EZIPEK_clean_linker_0, # of connection points: 2
#     Edge 37, Type (0, 1), BuildingBlock: EZIPEK_clean_linker_0, # of connection points: 2
#     Edge 38, Type (0, 1), BuildingBlock: EZIPEK_clean_linker_0, # of connection points: 2
#     Edge 39, Type (0, 1), BuildingBlock: EZIPEK_clean_linker_0, # of connection points: 2
#     Edge 40, Type (0, 1), BuildingBlock: EZIPEK_clean_linker_0, # of connection points: 2
#     Edge 41, Type (0, 1), BuildingBlock: EZIPEK_clean_linker_0, # of connection points: 2
#     Edge 42, Type (0, 1), BuildingBlock: EZIPEK_clean_linker_0, # of connection points: 2
#     Edge 43, Type (0, 1), BuildingBlock: EZIPEK_clean_linker_0, # of connection points: 2
#     Edge 44, Type (0, 1), BuildingBlock: EZIPEK_clean_linker_0, # of connection points: 2
#     Edge 45, Type (0, 1), BuildingBlock: EZIPEK_clean_linker_0, # of connection points: 2
#     Edge 46, Type (0, 1), BuildingBlock: EZIPEK_clean_linker_0, # of connection points: 2
#     Edge 47, Type (0, 1), BuildingBlock: EZIPEK_clean_linker_0, # of connection points: 2
# Relax obj value: 0.008
# Max RMSD: 0.037
# Mean RMSD: 0.022
data_MOF--net-ssb--node1-NAWXER_clean_sbu_0--node2-KOZSID_clean_sbu_0--edge1-EZIPEK_clean_linker_0
_symmetry_space_group_name_H-M    P1
_symmetry_Int_Tables_number       1
_symmetry_cell_setting            triclinic
loop_
_symmetry_equiv_pos_as_xyz
'x, y, z'
_cell_length_a     40.061086
_cell_length_b     39.885959
_cell_length_c     29.247134
_cell_angle_alpha  93.277381
_cell_angle_beta   96.285592
_cell_angle_gamma 90.172671
loop_
_atom_site_label
_atom_site_type_symbol
_atom_site_fract_x
_atom_site_fract_y
_atom_site_fract_z
_atom_type_partial_charge
C0 C 0.23013 0.27636 0.36921 0.0
C1 C 0.33678 0.26087 0.29472 0.0
O2 O 0.22776 0.25941 0.33031 0.0
Zn3 Zn 0.25934 0.23854 0.2808 0.0
O4 O 0.25904 0.28747 0.38631 0.0
Zn5 Zn 0.28516 0.26821 0.33761 0.0
O6 O 0.26654 0.29716 0.27993 0.0
O7 O 0.24153 0.26274 0.22498 0.0
O8 O 0.33446 0.27502 0.3345 0.0
O9 O 0.31088 0.24624 0.27299 0.0
O10 O 0.25693 0.18856 0.29172 0.0
O11 O 0.27936 0.21649 0.35346 0.0
C12 C 0.2513 0.2925 0.23916 0.0
C13 C 0.26859 0.1883 0.33414 0.0
C14 C 0.72391 0.27656 0.24048 0.0
C15 C 0.83374 0.28841 0.33706 0.0
O16 O 0.72825 0.2867 0.2829 0.0
Zn17 Zn 0.7777 0.28554 0.29108 0.0
O18 O 0.7498 0.26881 0.22036 0.0
Zn19 Zn 0.80281 0.26386 0.23472 0.0
O20 O 0.80592 0.21454 0.22798 0.0
O21 O 0.78274 0.23321 0.28941 0.0
O22 O 0.83558 0.27547 0.29632 0.0
O23 O 0.80555 0.29875 0.3484 0.0
O24 O 0.79064 0.32061 0.24371 0.0
O25 O 0.81772 0.29393 0.19073 0.0
C26 C 0.79272 0.20873 0.26451 0.0
C27 C 0.80546 0.32089 0.20711 0.0
C28 C 0.77662 0.71405 0.16691 0.0
C29 C 0.76511 0.82264 0.266 0.0
O30 O 0.76127 0.71147 0.2028 0.0
Zn31 Zn 0.74725 0.74264 0.2603 0.0
O32 O 0.78815 0.74296 0.15966 0.0
Zn33 Zn 0.77233 0.77072 0.21329 0.0
O34 O 0.80432 0.75419 0.27058 0.0
O35 O 0.77481 0.72384 0.31255 0.0
O36 O 0.77825 0.82044 0.228 0.0
O37 O 0.75282 0.79586 0.28023 0.0
O38 O 0.69824 0.73747 0.24977 0.0
O39 O 0.71899 0.76661 0.19732 0.0
C40 C 0.8028 0.737 0.30596 0.0
C41 C 0.6937 0.75338 0.21305 0.0
C42 C 0.25421 0.67322 0.27041 0.0
C43 C 0.28331 0.78504 0.34178 0.0
O44 O 0.24463 0.69776 0.24574 0.0
Zn45 Zn 0.24576 0.75141 0.24817 0.0
O46 O 0.27132 0.67951 0.30921 0.0
Zn47 Zn 0.27218 0.72823 0.3055 0.0
O48 O 0.21993 0.73867 0.31119 0.0
O49 O 0.19772 0.76126 0.24776 0.0
O50 O 0.29398 0.75709 0.35614 0.0
O51 O 0.26594 0.78584 0.30246 0.0
O52 O 0.27063 0.76121 0.19645 0.0
O53 O 0.30192 0.73468 0.24924 0.0
C54 C 0.19446 0.75077 0.2874 0.0
C55 C 0.29853 0.74789 0.21001 0.0
C56 C 0.31972 0.75549 0.78191 0.0
C57 C 0.20575 0.74692 0.69702 0.0
O58 O 0.29694 0.77126 0.80154 0.0
Zn59 Zn 0.24473 0.78153 0.79014 0.0
O60 O 0.31215 0.73995 0.74283 0.0
Zn61 Zn 0.26353 0.74941 0.73738 0.0
O62 O 0.26215 0.80201 0.72207 0.0
O63 O 0.24579 0.83126 0.78116 0.0
O64 O 0.23165 0.73107 0.68636 0.0
O65 O 0.20787 0.76581 0.73421 0.0
O66 O 0.22965 0.75794 0.84384 0.0
O67 O 0.24965 0.72198 0.79434 0.0
C68 C 0.25522 0.8307 0.74074 0.0
C69 C 0.23753 0.72773 0.83279 0.0
C70 C 0.25086 0.20031 0.79475 0.0
C71 C 0.25638 0.31451 0.86592 0.0
O72 O 0.24067 0.20901 0.83338 0.0
Zn73 Zn 0.25478 0.25604 0.83425 0.0
O74 O 0.26627 0.22145 0.77314 0.0
Zn75 Zn 0.28209 0.27248 0.77988 0.0
O76 O 0.33136 0.26787 0.78769 0.0
O77 O 0.30822 0.25474 0.84902 0.0
O78 O 0.27309 0.3109 0.83106 0.0
O79 O 0.24151 0.28917 0.87929 0.0
O80 O 0.22422 0.27098 0.77541 0.0
O81 O 0.2556 0.28927 0.72465 0.0
C82 C 0.33477 0.25901 0.82908 0.0
C83 C 0.22654 0.28302 0.73635 0.0
C84 C 0.73804 0.2023 0.68958 0.0
C85 C 0.7475 0.31636 0.77803 0.0
O86 O 0.72798 0.23088 0.67665 0.0
Zn87 Zn 0.73988 0.261 0.73374 0.0
O88 O 0.75041 0.20146 0.73189 0.0
Zn89 Zn 0.76487 0.2371 0.79026 0.0
O90 O 0.73924 0.2229 0.83971 0.0
O91 O 0.70733 0.24872 0.78684 0.0
O92 O 0.75932 0.29142 0.80038 0.0
O93 O 0.73394 0.31077 0.73667 0.0
O94 O 0.79364 0.26025 0.73497 0.0
O95 O 0.81451 0.23419 0.79586 0.0
C96 C 0.71082 0.2352 0.82606 0.0
C97 C 0.81913 0.24925 0.75978 0.0
C98 C 0.8069 0.76635 0.71922 0.0
C99 C 0.70139 0.78151 0.79331 0.0
O100 O 0.78046 0.75388 0.69566 0.0
Zn101 Zn 0.7277 0.74914 0.70102 0.0
O102 O 0.80475 0.7811 0.75862 0.0
Zn103 Zn 0.75605 0.77563 0.75889 0.0
O104 O 0.75205 0.72359 0.76489 0.0
O105 O 0.72059 0.70066 0.7046 0.0
O106 O 0.7309 0.79032 0.81077 0.0
O107 O 0.69781 0.76834 0.75225 0.0
O108 O 0.70929 0.77303 0.64851 0.0
O109 O 0.73753 0.80569 0.70345 0.0
C110 C 0.73742 0.69781 0.74368 0.0
C111 C 0.72078 0.80187 0.66353 0.0
C112 C 0.07637 0.31939 0.62353 0.0
C113 C 0.08722 0.3506 0.64308 0.0
C114 C 0.06203 0.37273 0.63148 0.0
C115 C 0.03741 0.35394 0.60533 0.0
N116 N 0.04543 0.32135 0.59996 0.0
Co117 Co 0.01868 0.28606 0.5615 0.0
N118 N 0.99104 0.32005 0.52714 0.0
C119 C 0.98923 0.35288 0.54039 0.0
C120 C 0.96657 0.37021 0.51242 0.0
C121 C 0.95255 0.3468 0.47993 0.0
C122 C 0.96759 0.31631 0.4898 0.0
N123 N 0.99197 0.25044 0.52301 0.0
C124 C 0.96928 0.25255 0.48514 0.0
C125 C 0.95683 0.22099 0.46922 0.0
C126 C 0.97101 0.19862 0.49924 0.0
C127 C 0.99163 0.21755 0.53139 0.0
N128 N 0.04632 0.25246 0.59596 0.0
C129 C 0.03871 0.21977 0.59815 0.0
C130 C 0.06318 0.20272 0.62382 0.0
C131 C 0.08774 0.22617 0.63852 0.0
C132 C 0.07684 0.25624 0.62077 0.0
N133 N 0.98576 0.28534 0.60763 0.0
C134 C 0.9377 0.27561 0.66958 0.0
C135 C 0.9722 0.27515 0.6845 0.0
C136 C 0.99579 0.28045 0.65314 0.0
C137 C 0.92789 0.28269 0.62391 0.0
C138 C 0.95212 0.28759 0.59388 0.0
N139 N 0.052 0.28624 0.51628 0.0
C140 C 0.09565 0.25674 0.4801 0.0
C141 C 0.1078 0.28665 0.46463 0.0
C142 C 0.09001 0.3162 0.4737 0.0
C143 C 0.06278 0.3156 0.50037 0.0
C144 C 0.06736 0.25693 0.5043 0.0
H145 H 0.05112 0.33906 0.50912 0.0
H146 H 0.05885 0.23328 0.51493 0.0
H147 H 0.02212 0.2799 0.66561 0.0
H148 H 0.94332 0.29276 0.55933 0.0
C149 C 0.01057 0.36694 0.57756 0.0
C150 C 0.09529 0.28818 0.62955 0.0
C151 C 0.95505 0.28394 0.46757 0.0
C152 C 0.01274 0.20502 0.56774 0.0
H153 H 0.11098 0.35685 0.6631 0.0
H154 H 0.06257 0.39965 0.63882 0.0
H155 H 0.96066 0.39665 0.51553 0.0
H156 H 0.93243 0.35151 0.45335 0.0
H157 H 0.93821 0.21499 0.4402 0.0
H158 H 0.96674 0.17175 0.4978 0.0
H159 H 0.06405 0.17606 0.62898 0.0
H160 H 0.11114 0.2216 0.65935 0.0
H161 H 0.98082 0.2703 0.71988 0.0
H162 H 0.90151 0.28382 0.61118 0.0
H163 H 0.10816 0.23315 0.47382 0.0
H164 H 0.09783 0.33986 0.46167 0.0
C165 C 0.71327 0.06848 0.52631 0.0
C166 C 0.68125 0.08141 0.52781 0.0
C167 C 0.66068 0.06397 0.49435 0.0
C168 C 0.68096 0.04111 0.47447 0.0
N169 N 0.71324 0.04244 0.49362 0.0
Co170 Co 0.75034 0.01263 0.47411 0.0
N171 N 0.71922 0.98524 0.4273 0.0
C172 C 0.68562 0.98909 0.41957 0.0
C173 C 0.6701 0.96589 0.38777 0.0
C174 C 0.69527 0.94582 0.37444 0.0
C175 C 0.72495 0.95815 0.39854 0.0
N176 N 0.78775 0.98418 0.45295 0.0
C177 C 0.78777 0.95889 0.41939 0.0
C178 C 0.82013 0.94801 0.41456 0.0
C179 C 0.84114 0.96663 0.44624 0.0
C180 C 0.82062 0.98802 0.46836 0.0
N181 N 0.78105 0.0387 0.52305 0.0
C182 C 0.81428 0.0332 0.53302 0.0
C183 C 0.82975 0.05552 0.56602 0.0
C184 C 0.80498 0.07654 0.57816 0.0
C185 C 0.77541 0.06574 0.55215 0.0
N186 N 0.74169 0.97974 0.51984 0.0
C187 C 0.7287 0.92402 0.56977 0.0
C188 C 0.76162 0.93395 0.56579 0.0
C189 C 0.76754 0.96192 0.5411 0.0
C190 C 0.70244 0.94362 0.55125 0.0
C191 C 0.70949 0.97151 0.52706 0.0
N192 N 0.75908 0.04496 0.42739 0.0
C193 C 0.79481 0.0864 0.39923 0.0
C194 C 0.77149 0.09047 0.36109 0.0
C195 C 0.74247 0.07062 0.35552 0.0
C196 C 0.73641 0.0488 0.38936 0.0
C197 C 0.78842 0.06331 0.43132 0.0
H198 H 0.71289 0.03586 0.38411 0.0
H199 H 0.80758 0.06126 0.45917 0.0
H200 H 0.79316 0.96801 0.53833 0.0
H201 H 0.68841 0.98531 0.51322 0.0
C202 C 0.66983 0.0159 0.44104 0.0
C203 C 0.74284 0.08245 0.5561 0.0
C204 C 0.75794 0.94366 0.39198 0.0
C205 C 0.83105 0.01039 0.50571 0.0
H206 H 0.67346 0.10142 0.55072 0.0
H207 H 0.6339 0.06711 0.48615 0.0
H208 H 0.64365 0.96399 0.37542 0.0
H209 H 0.69215 0.9247 0.34939 0.0
H210 H 0.82773 0.92836 0.39091 0.0
H211 H 0.86815 0.96449 0.45281 0.0
H212 H 0.85623 0.05733 0.57824 0.0
H213 H 0.80861 0.09792 0.60267 0.0
H214 H 0.78262 0.91954 0.58045 0.0
H215 H 0.6766 0.93688 0.55438 0.0
H216 H 0.81759 0.10148 0.40473 0.0
H217 H 0.72367 0.07334 0.32641 0.0
C218 C 0.06246 0.77769 0.5648 0.0
C219 C 0.07685 0.80905 0.57709 0.0
C220 C 0.0557 0.83206 0.55689 0.0
C221 C 0.02977 0.81351 0.53338 0.0
N222 N 0.03275 0.78008 0.53794 0.0
Co223 Co 1.00228 0.744 0.50569 0.0
N224 N 0.97138 0.77768 0.47533 0.0
C225 C 0.97373 0.81145 0.48214 0.0
C226 C 0.94765 0.82815 0.45937 0.0
C227 C 0.92711 0.80354 0.43725 0.0
C228 C 0.94195 0.77314 0.44774 0.0
N229 N 0.97319 0.70775 0.47121 0.0
C230 C 0.94464 0.70975 0.44195 0.0
C231 C 0.93266 0.67819 0.4253 0.0
C232 C 0.95423 0.65542 0.445 0.0
C233 C 0.97808 0.67428 0.47233 0.0
N234 N 0.03184 0.71025 0.53821 0.0
C235 C 0.0272 0.6766 0.53567 0.0
C236 C 0.05136 0.65975 0.56191 0.0
C237 C 0.07289 0.68408 0.58235 0.0
C238 C 0.06057 0.71449 0.56721 0.0
N239 N 0.97337 0.74538 0.55728 0.0
C240 C 0.92412 0.75111 0.61933 0.0
C241 C 0.93015 0.72027 0.59671 0.0
C242 C 0.95504 0.71786 0.56642 0.0
C243 C 0.9446 0.77836 0.61291 0.0
C244 C 0.96889 0.77498 0.58213 0.0
N245 N 0.03108 0.74329 0.45411 0.0
C246 C 0.07306 0.71621 0.41124 0.0
C247 C 0.07916 0.74608 0.39065 0.0
C248 C 0.05951 0.77384 0.40014 0.0
C249 C 0.03579 0.77192 0.43159 0.0
C250 C 0.0488 0.71527 0.44238 0.0
H251 H 0.02229 0.79434 0.43803 0.0
H252 H 0.04539 0.69187 0.45743 0.0
H253 H 0.95836 0.69372 0.54982 0.0
H254 H 0.98292 0.7971 0.57806 0.0
C255 C 1.00158 0.82665 0.50831 0.0
C256 C 0.07798 0.74642 0.57962 0.0
C257 C 0.92711 0.74068 0.43059 0.0
C258 C 1.00266 0.66136 0.50375 0.0
H259 H 0.10026 0.81465 0.59837 0.0
H260 H 0.05887 0.85908 0.55909 0.0
H261 H 0.94405 0.85501 0.45883 0.0
H262 H 0.90379 0.80747 0.41589 0.0
H263 H 0.91013 0.6722 0.4023 0.0
H264 H 0.95202 0.62832 0.44131 0.0
H265 H 0.05383 0.63288 0.56432 0.0
H266 H 0.09562 0.67984 0.60478 0.0
H267 H 0.91504 0.69841 0.60131 0.0
H268 H 0.94095 0.80259 0.63026 0.0
H269 H 0.08759 0.694 0.40428 0.0
H270 H 0.06329 0.79734 0.38449 0.0
C271 C 0.29175 0.96581 0.61848 0.0
C272 C 0.32116 0.96147 0.64722 0.0
C273 C 0.3448 0.98227 0.6333 0.0
C274 C 0.32856 0.99848 0.59731 0.0
N275 N 0.29598 0.98932 0.58732 0.0
Co276 Co 0.26313 0.00986 0.5401 0.0
N277 N 0.29858 0.03825 0.5166 0.0
C278 C 0.33182 0.03731 0.53071 0.0
C279 C 0.35095 0.05666 0.50618 0.0
C280 C 0.32862 0.07098 0.47451 0.0
C281 C 0.29681 0.06014 0.48202 0.0
N282 N 0.22992 0.03215 0.49491 0.0
C283 C 0.23358 0.05805 0.46695 0.0
C284 C 0.20261 0.0685 0.44694 0.0
C285 C 0.17886 0.04828 0.46158 0.0
C286 C 0.19635 0.02698 0.49036 0.0
N287 N 0.22804 0.97967 0.56104 0.0
C288 C 0.19542 0.97794 0.54342 0.0
C289 C 0.17758 0.953 0.56041 0.0
C290 C 0.20019 0.93763 0.59057 0.0
C291 C 0.23063 0.95442 0.59089 0.0
N292 N 0.25466 0.04543 0.58779 0.0
C293 C 0.24474 0.09152 0.66142 0.0
C294 C 0.21881 0.07016 0.64188 0.0
C295 C 0.22411 0.04778 0.60489 0.0
C296 C 0.27544 0.09004 0.64319 0.0
C297 C 0.27987 0.06699 0.60668 0.0
N298 N 0.27169 0.97372 0.49361 0.0
C299 C 0.24994 0.92979 0.43794 0.0
C300 C 0.28103 0.91395 0.44152 0.0
C301 C 0.30795 0.92954 0.46878 0.0
C302 C 0.3028 0.95939 0.4942 0.0
C303 C 0.24592 0.95981 0.46377 0.0
H304 H 0.32412 0.96975 0.51533 0.0
H305 H 0.22154 0.97074 0.46033 0.0
H306 H 0.20313 0.03253 0.59105 0.0
H307 H 0.30406 0.06695 0.59478 0.0
C308 C 0.34383 0.01982 0.56924 0.0
C309 C 0.26096 0.94594 0.6211 0.0
C310 C 0.2657 0.07315 0.45737 0.0
C311 C 0.18217 1.00117 0.51245 0.0
H312 H 0.32531 0.94452 0.67483 0.0
H313 H 0.37095 0.98465 0.64707 0.0
H314 H 0.3779 0.06039 0.51124 0.0
H315 H 0.33506 0.08814 0.44945 0.0
H316 H 0.19757 0.08861 0.42395 0.0
H317 H 0.15197 0.04905 0.45238 0.0
H318 H 0.15123 0.94679 0.55198 0.0
H319 H 0.19473 0.91656 0.61034 0.0
H320 H 0.19451 0.07095 0.65491 0.0
H321 H 0.29602 0.10654 0.6573 0.0
H322 H 0.2287 0.91859 0.41623 0.0
H323 H 0.33256 0.91815 0.47158 0.0
C324 C 0.54947 0.79403 0.08613 0.0
C325 C 0.55956 0.82505 0.10699 0.0
C326 C 0.54021 0.84851 0.08468 0.0
C327 C 0.51963 0.83058 0.05137 0.0
N328 N 0.5242 0.79702 0.05157 0.0
Co329 Co 0.50242 0.76214 1.00543 0.0
N330 N 0.47555 0.79672 0.97047 0.0
C331 C 0.47482 0.83004 0.98186 0.0
C332 C 0.45237 0.84722 0.95335 0.0
C333 C 0.43751 0.82342 0.92219 0.0
C334 C 0.452 0.79297 0.9333 0.0
N335 N 0.48219 0.72733 0.95816 0.0
C336 C 0.4601 0.7305 0.92009 0.0
C337 C 0.45402 0.69999 0.89524 0.0
C338 C 0.47243 0.67658 0.91888 0.0
C339 C 0.48883 0.6941 0.95644 0.0
N340 N 0.52794 0.7273 0.04145 0.0
C341 C 0.52584 0.69364 0.03303 0.0
C342 C 0.54567 0.67598 0.06424 0.0
C343 C 0.5617 0.6998 0.09418 0.0
C344 C 0.55084 0.73072 0.07918 0.0
N345 N 0.4642 0.75682 0.04318 0.0
C346 C 0.40914 0.75039 0.09515 0.0
C347 C 0.42196 0.72239 0.07223 0.0
C348 C 0.44925 0.72614 0.0465 0.0
C349 C 0.42427 0.78153 0.09166 0.0
C350 C 0.45152 0.78414 0.06593 0.0
N351 N 0.54047 0.76781 0.96773 0.0
C352 C 0.58693 0.74487 0.92984 0.0
C353 C 0.59405 0.77622 0.91385 0.0
C354 C 0.57418 0.80331 0.9257 0.0
C355 C 0.54798 0.79867 0.95275 0.0
C356 C 0.5601 0.74118 0.95622 0.0
H357 H 0.53401 0.82047 0.96072 0.0
H358 H 0.55559 0.71652 0.96675 0.0
H359 H 0.4578 0.70388 0.0296 0.0
H360 H 0.46186 0.80864 0.06506 0.0
C361 C 0.49615 0.84444 0.01893 0.0
C362 C 0.56523 0.7625 0.09953 0.0
C363 C 0.44224 0.76115 0.90792 0.0
C364 C 0.50831 0.67971 0.99254 0.0
H365 H 0.57917 0.83019 0.13504 0.0
H366 H 0.54145 0.87548 0.09135 0.0
H367 H 0.44729 0.87388 0.95514 0.0
H368 H 0.41813 0.82793 0.8945 0.0
H369 H 0.43725 0.69504 0.86396 0.0
H370 H 0.47304 0.64983 0.9104 0.0
H371 H 0.54915 0.64907 0.06408 0.0
H372 H 0.58025 0.69505 0.12281 0.0
H373 H 0.41104 0.69772 0.07432 0.0
H374 H 0.41523 0.80382 0.10914 0.0
H375 H 0.60159 0.72312 0.92108 0.0
H376 H 0.57862 0.82794 0.91363 0.0
C377 C 0.2072 0.54411 0.11924 0.0
C378 C 0.17535 0.54873 0.13304 0.0
C379 C 0.15283 0.53982 0.09557 0.0
C380 C 0.172 0.52943 0.06141 0.0
N381 N 0.20519 0.53064 0.0754 0.0
Co382 Co 0.24137 0.51208 0.04045 0.0
N383 N 0.20853 0.48767 0.99467 0.0
C384 C 0.17548 0.49382 0.98672 0.0
C385 C 0.15933 0.47202 0.95331 0.0
C386 C 0.18377 0.45079 0.93972 0.0
C387 C 0.21345 0.46091 0.96577 0.0
N388 N 0.27731 0.49263 0.00602 0.0
C389 C 0.27635 0.46472 0.97743 0.0
C390 C 0.30736 0.45872 0.96179 0.0
C391 C 0.32841 0.48406 0.98141 0.0
C392 C 0.30909 0.50388 0.00788 0.0
N393 N 0.27449 0.53723 0.08522 0.0
C394 C 0.30635 0.54446 0.07791 0.0
C395 C 0.32243 0.56608 0.11126 0.0
C396 C 0.29921 0.57342 0.14117 0.0
C397 C 0.27009 0.55545 0.12465 0.0
N398 N 0.24394 0.47246 0.07947 0.0
C399 C 0.24722 0.41405 0.13173 0.0
C400 C 0.27617 0.43305 0.12672 0.0
C401 C 0.27407 0.46171 0.10021 0.0
C402 C 0.21656 0.42574 0.11073 0.0
C403 C 0.21541 0.45485 0.08545 0.0
N404 N 0.23873 0.55184 1.00136 0.0
C405 C 0.24127 0.57692 0.92784 0.0
C406 C 0.23706 0.60954 0.9475 0.0
C407 C 0.23344 0.61221 0.99478 0.0
C408 C 0.23481 0.58348 0.02082 0.0
C409 C 0.24165 0.5486 0.955 0.0
H410 H 0.23313 0.58707 0.05704 0.0
H411 H 0.24459 0.52405 0.93845 0.0
H412 H 0.29696 0.47504 0.09623 0.0
H413 H 0.19127 0.46266 0.07003 0.0
C414 C 0.15973 0.51373 0.01879 0.0
C415 C 0.23797 0.55907 0.14469 0.0
C416 C 0.24594 0.44491 0.96256 0.0
C417 C 0.32098 0.52889 0.04102 0.0
H418 H 0.16907 0.55923 0.16593 0.0
H419 H 0.1257 0.54016 0.09384 0.0
H420 H 0.13264 0.47017 0.94249 0.0
H421 H 0.18007 0.42982 0.91447 0.0
H422 H 0.31401 0.43826 0.93869 0.0
H423 H 0.35497 0.48672 0.97847 0.0
H424 H 0.34792 0.5756 0.11342 0.0
H425 H 0.30323 0.59103 0.17075 0.0
H426 H 0.30044 0.42545 0.14263 0.0
H427 H 0.19344 0.41229 0.11369 0.0
H428 H 0.24411 0.57328 0.8915 0.0
H429 H 0.23005 0.63659 0.01184 0.0
C430 C 0.46631 0.28528 0.97958 0.0
C431 C 0.45013 0.31474 0.96713 0.0
C432 C 0.46456 0.34008 0.99601 0.0
C433 C 0.48841 0.32485 0.02474 0.0
N434 N 0.49039 0.29144 0.01567 0.0
Co435 Co 0.51852 0.26005 0.05405 0.0
N436 N 0.54592 0.29769 0.08701 0.0
C437 C 0.53857 0.33057 0.08629 0.0
C438 C 0.56309 0.35095 0.10971 0.0
C439 C 0.58741 0.3296 0.12672 0.0
C440 C 0.576 0.29724 0.11325 0.0
N441 N 0.54599 0.22888 0.09323 0.0
C442 C 0.57481 0.23451 0.12165 0.0
C443 C 0.58446 0.206 0.14461 0.0
C444 C 0.56089 0.18168 0.12994 0.0
C445 C 0.53816 0.19668 0.09916 0.0
N446 N 0.49135 0.22244 0.02044 0.0
C447 C 0.49132 0.19032 0.03243 0.0
C448 C 0.47252 0.16926 1.00084 0.0
C449 C 0.45933 0.18939 0.96716 0.0
C450 C 0.47026 0.22191 0.98061 0.0
N451 N 0.55122 0.25584 0.0074 0.0
C452 C 0.60144 0.24925 0.94601 0.0
C453 C 0.5884 0.22115 0.96483 0.0
C454 C 0.56355 0.22493 0.9952 0.0
C455 C 0.5883 0.28078 0.95805 0.0
C456 C 0.56323 0.28352 0.98849 0.0
N457 N 0.48634 0.26374 0.10139 0.0
C458 C 0.4295 0.26079 0.12237 0.0
C459 C 0.44092 0.26511 0.16943 0.0
C460 C 0.47558 0.26944 0.18158 0.0
C461 C 0.49772 0.26849 0.1473 0.0
C462 C 0.45244 0.26046 0.08915 0.0
H463 H 0.52417 0.27128 0.15823 0.0
H464 H 0.44266 0.25735 0.05352 0.0
H465 H 0.55478 0.20266 0.00936 0.0
H466 H 0.55398 0.30815 0.99726 0.0
C467 C 0.51099 0.34148 0.05808 0.0
C468 C 0.45606 0.25188 0.9586 0.0
C469 C 0.59279 0.26679 0.12943 0.0
C470 C 0.51241 0.18021 0.07031 0.0
H471 H 0.42944 0.31774 0.94073 0.0
H472 H 0.4584 0.36649 0.99601 0.0
H473 H 0.56377 0.37812 0.11273 0.0
H474 H 0.61064 0.33713 0.14715 0.0
H475 H 0.60622 0.20313 0.16943 0.0
H476 H 0.56094 0.15586 0.13951 0.0
H477 H 0.46931 0.14236 1.00168 0.0
H478 H 0.4425 0.18124 0.93707 0.0
H479 H 0.59778 0.19633 0.95667 0.0
H480 H 0.59761 0.30323 0.94439 0.0
H481 H 0.40292 0.2577 0.1113 0.0
H482 H 0.48555 0.27308 0.21747 0.0
C483 C 0.74615 0.56989 0.03958 0.0
C484 C 0.71811 0.57976 0.06066 0.0
C485 C 0.69452 0.55482 0.05015 0.0
C486 C 0.70934 0.53113 0.02328 0.0
N487 N 0.74077 0.53952 0.01573 0.0
Co488 Co 0.77061 0.51126 0.97869 0.0
N489 N 0.7327 0.4812 0.95076 0.0
C490 C 0.70178 0.48054 0.9648 0.0
C491 C 0.67988 0.45929 0.93779 0.0
C492 C 0.69818 0.44506 0.90506 0.0
C493 C 0.73061 0.45798 0.9144 0.0
N494 N 0.80048 0.48305 0.94169 0.0
C495 C 0.79326 0.45783 0.90828 0.0
C496 C 0.82258 0.44344 0.89537 0.0
C497 C 0.84879 0.45987 0.9214 0.0
C498 C 0.83426 0.48325 0.94902 0.0
N499 N 0.80823 0.54155 0.00696 0.0
C500 C 0.84109 0.53478 0.00654 0.0
C501 C 0.8617 0.55934 0.02933 0.0
C502 C 0.84057 0.58307 0.04559 0.0
C503 C 0.8081 0.57166 0.03185 0.0
N504 N 0.77952 0.48139 0.02949 0.0
C505 C 0.79419 0.437 0.09919 0.0
C506 C 0.79338 0.47162 0.10995 0.0
C507 C 0.78592 0.49347 0.07434 0.0
C508 C 0.78782 0.42511 0.05344 0.0
C509 C 0.78061 0.44761 0.01941 0.0
N510 N 0.76215 0.54042 0.92752 0.0
C511 C 0.78311 0.57263 0.86958 0.0
C512 C 0.7505 0.58236 0.85461 0.0
C513 C 0.72365 0.56975 0.87539 0.0
C514 C 0.73006 0.54906 0.9121 0.0
C515 C 0.78839 0.55152 0.906 0.0
H516 H 0.70907 0.54073 0.92859 0.0
H517 H 0.8138 0.54482 0.91736 0.0
H518 H 0.78525 0.51994 0.08294 0.0
H519 H 0.77613 0.4375 0.98484 0.0
C520 C 0.69302 0.50339 0.99936 0.0
C521 C 0.77809 0.58892 0.04644 0.0
C522 C 0.75936 0.44391 0.89217 0.0
C523 C 0.85136 0.50714 0.98005 0.0
H524 H 0.71514 0.60247 0.08185 0.0
H525 H 0.66922 0.55449 0.05985 0.0
H526 H 0.65352 0.45518 0.94085 0.0
H527 H 0.68893 0.42646 0.87827 0.0
H528 H 0.82485 0.42248 0.87079 0.0
H529 H 0.87531 0.45519 0.92042 0.0
H530 H 0.88887 0.56024 0.03294 0.0
H531 H 0.84814 0.60592 0.06587 0.0
H532 H 0.79784 0.48152 0.14536 0.0
H533 H 0.78797 0.39842 0.04406 0.0
H534 H 0.80442 0.58251 0.85465 0.0
H535 H 0.69816 0.57748 0.86508 0.0
C536 C 0.17366 0.25477 0.388 0.0
C537 C 0.19922 0.28012 0.39466 0.0
C538 C 0.16652 0.30854 0.45214 0.0
C539 C 0.13874 0.28626 0.43902 0.0
N540 N 0.11393 0.24467 0.38184 0.0
N541 N 0.2142 0.33637 0.42613 0.0
C542 C 0.14166 0.26151 0.40288 0.0
C543 C 0.19404 0.30861 0.42472 0.0
N544 N 0.18017 0.22327 0.37051 0.0
N545 N 0.16777 0.32853 0.49176 0.0
H546 H 0.23292 0.33876 0.40445 0.0
H547 H 0.20948 0.35855 0.44487 0.0
H548 H 0.14951 0.32787 0.51447 0.0
H549 H 0.18891 0.34286 0.50455 0.0
H550 H 0.16255 0.20376 0.36808 0.0
H551 H 0.20423 0.21524 0.36517 0.0
H552 H 0.1149 0.22806 0.35314 0.0
H553 H 0.08967 0.25036 0.38947 0.0
C554 C 0.8109 0.14947 0.28347 0.0
C555 C 0.78568 0.17441 0.27864 0.0
C556 C 0.75177 0.14423 0.32777 0.0
C557 C 0.77564 0.11814 0.33024 0.0
N558 N 0.82382 0.09188 0.30111 0.0
N559 N 0.72731 0.18839 0.28305 0.0
C560 C 0.80391 0.1194 0.30493 0.0
C561 C 0.75448 0.16923 0.29622 0.0
N562 N 0.84204 0.1551 0.27044 0.0
N563 N 0.72779 0.14672 0.35767 0.0
H564 H 0.72804 0.20678 0.25941 0.0
H565 H 0.70331 0.18344 0.29178 0.0
H566 H 0.72602 0.13034 0.38384 0.0
H567 H 0.71208 0.1674 0.35989 0.0
H568 H 0.86231 0.13932 0.27818 0.0
H569 H 0.84845 0.17674 0.25501 0.0
H570 H 0.84294 0.09036 0.27964 0.0
H571 H 0.81907 0.06942 0.31594 0.0
C572 C 0.83322 0.74233 0.38739 0.0
C573 C 0.83386 0.73455 0.33926 0.0
C574 C 0.89573 0.7341 0.35104 0.0
C575 C 0.89481 0.73892 0.3992 0.0
N576 N 0.86287 0.74143 0.46436 0.0
N577 N 0.86606 0.71583 0.27745 0.0
C578 C 0.86357 0.741 0.41772 0.0
C579 C 0.86526 0.72838 0.32177 0.0
N580 N 0.80432 0.7532 0.40402 0.0
N581 N 0.92576 0.7357 0.33306 0.0
H582 H 0.84451 0.71064 0.25494 0.0
H583 H 0.8879 0.70736 0.2644 0.0
H584 H 0.94868 0.73935 0.35342 0.0
H585 H 0.9277 0.73631 0.29789 0.0
H586 H 0.80347 0.76278 0.43776 0.0
H587 H 0.78177 0.75605 0.38337 0.0
H588 H 0.8408 0.73924 0.47982 0.0
H589 H 0.8846 0.74117 0.48753 0.0
C590 C 0.27489 0.81963 0.41452 0.0
C591 C 0.28787 0.81678 0.37108 0.0
C592 C 0.29677 0.87791 0.37415 0.0
C593 C 0.28505 0.88044 0.41815 0.0
N594 N 0.2697 0.85367 0.48476 0.0
N595 N 0.31743 0.84199 0.31405 0.0
C596 C 0.2764 0.85122 0.43984 0.0
C597 C 0.30074 0.84562 0.35232 0.0
N598 N 0.25887 0.79295 0.4302 0.0
N599 N 0.30307 0.90643 0.35259 0.0
H600 H 0.32088 0.81872 0.29737 0.0
H601 H 0.33044 0.86142 0.30131 0.0
H602 H 0.30128 0.93049 0.36805 0.0
H603 H 0.30779 0.90645 0.31829 0.0
H604 H 0.24534 0.79484 0.45867 0.0
H605 H 0.25624 0.76948 0.41263 0.0
H606 H 0.26704 0.83289 0.50413 0.0
H607 H 0.26956 0.8765 0.50401 0.0
C608 C 0.14243 0.74087 0.68534 0.0
C609 C 0.17325 0.74539 0.66617 0.0
C610 C 0.14154 0.74827 0.58943 0.0
C611 C 0.11095 0.74698 0.60952 0.0
N612 N 0.08197 0.74785 0.67743 0.0
N613 N 0.20096 0.76151 0.60115 0.0
C614 C 0.11134 0.74506 0.65777 0.0
C615 C 0.17255 0.75113 0.61842 0.0
N616 N 0.1427 0.7312 0.72945 0.0
N617 N 0.141 0.74636 0.54256 0.0
H618 H 0.22384 0.76575 0.6213 0.0
H619 H 0.20103 0.76939 0.56781 0.0
H620 H 0.11874 0.74485 0.52035 0.0
H621 H 0.16255 0.7435 0.52581 0.0
H622 H 0.12123 0.72377 0.74342 0.0
H623 H 0.16468 0.72752 0.75088 0.0
H624 H 0.08098 0.75054 0.71289 0.0
H625 H 0.05866 0.75039 0.65828 0.0
C626 C 0.2181 0.16927 0.72942 0.0
C627 C 0.24101 0.16799 0.76971 0.0
C628 C 0.25768 0.11156 0.74449 0.0
C629 C 0.24 0.11596 0.7004 0.0
N630 N 0.20472 0.1501 0.64955 0.0
N631 N 0.28195 0.13813 0.81753 0.0
C632 C 0.22001 0.14484 0.69265 0.0
C633 C 0.26021 0.13889 0.77825 0.0
N634 N 0.19482 0.19424 0.72641 0.0
N635 N 0.27183 0.08124 0.75389 0.0
H636 H 0.28283 0.15716 0.84366 0.0
H637 H 0.29977 0.11949 0.82345 0.0
H638 H 0.2701 0.06076 0.72987 0.0
H639 H 0.28268 0.07549 0.78646 0.0
H640 H 0.17565 0.1953 0.69945 0.0
H641 H 0.19264 0.21193 0.7536 0.0
H642 H 0.19316 0.17256 0.64081 0.0
H643 H 0.20578 0.13309 0.62136 0.0
C644 C 0.87198 0.22796 0.72788 0.0
C645 C 0.8535 0.25518 0.74567 0.0
C646 C 0.89556 0.29493 0.72363 0.0
C647 C 0.91137 0.26812 0.70055 0.0
N648 N 0.91453 0.20915 0.67904 0.0
N649 N 0.84753 0.31468 0.76143 0.0
C650 C 0.8998 0.23457 0.70279 0.0
C651 C 0.86547 0.2887 0.7441 0.0
N652 N 0.86275 0.19575 0.73465 0.0
N653 N 0.90967 0.32634 0.72631 0.0
H654 H 0.82706 0.311 0.77983 0.0
H655 H 0.85199 0.33983 0.75633 0.0
H656 H 0.93142 0.33165 0.71135 0.0
H657 H 0.90155 0.34658 0.7461 0.0
H658 H 0.87686 0.17478 0.72674 0.0
H659 H 0.84211 0.18997 0.75162 0.0
H660 H 0.90499 0.18477 0.67413 0.0
H661 H 0.93561 0.21283 0.66184 0.0
C662 C 0.70429 0.86162 0.65474 0.0
C663 C 0.71674 0.83145 0.63506 0.0
C664 C 0.72877 0.86117 0.56766 0.0
C665 C 0.72193 0.89211 0.59104 0.0
N666 N 0.70579 0.92246 0.65878 0.0
N667 N 0.74514 0.80332 0.57497 0.0
C668 C 0.71008 0.89256 0.63499 0.0
C669 C 0.72977 0.83124 0.59178 0.0
N670 N 0.68648 0.86053 0.69192 0.0
N671 N 0.73386 0.86036 0.52216 0.0
H672 H 0.74721 0.78093 0.59166 0.0
H673 H 0.75859 0.80331 0.54643 0.0
H674 H 0.73267 0.88179 0.50324 0.0
H675 H 0.73577 0.83812 0.50215 0.0
H676 H 0.67414 0.8812 0.70527 0.0
H677 H 0.68116 0.83809 0.70648 0.0
H678 H 0.70084 0.92426 0.69305 0.0
H679 H 0.70979 0.94566 0.64547 0.0
C680 C 0.86625 0.74552 0.715 0.0
C681 C 0.83895 0.76547 0.69765 0.0
C682 C 0.86659 0.77403 0.62822 0.0
C683 C 0.89488 0.75584 0.64668 0.0
N684 N 0.92432 0.72917 0.71093 0.0
N685 N 0.81676 0.80516 0.64333 0.0
C686 C 0.89551 0.74303 0.69113 0.0
C687 C 0.84025 0.78164 0.65589 0.0
N688 N 0.86367 0.72781 0.75311 0.0
N689 N 0.86422 0.78297 0.58353 0.0
H690 H 0.79762 0.81203 0.66337 0.0
H691 H 0.81821 0.82028 0.61573 0.0
H692 H 0.88284 0.77784 0.56192 0.0
H693 H 0.84251 0.79276 0.56655 0.0
H694 H 0.88096 0.70983 0.76444 0.0
H695 H 0.84291 0.72942 0.77175 0.0
H696 H 0.92763 0.72255 0.74505 0.0
H697 H 0.946 0.72671 0.69429 0.0
C698 C 0.28324 0.86404 0.68284 0.0
C699 C 0.25816 0.86223 0.71384 0.0
C700 C 0.23963 0.91868 0.69042 0.0
C701 C 0.26051 0.91731 0.65396 0.0
N702 N 0.29763 0.88399 0.61064 0.0
N703 N 0.20727 0.88674 0.7384 0.0
C704 C 0.2809 0.88855 0.64873 0.0
C705 C 0.23501 0.88938 0.71553 0.0
N706 N 0.31053 0.84359 0.68732 0.0
N707 N 0.22433 0.9481 0.7016 0.0
H708 H 0.2012 0.86528 0.75444 0.0
H709 H 0.18819 0.90447 0.73678 0.0
H710 H 0.22742 0.97 0.68457 0.0
H711 H 0.21142 0.95148 0.73056 0.0
H712 H 0.33074 0.84577 0.66803 0.0
H713 H 0.3151 0.82772 0.71437 0.0
H714 H 0.31016 0.86185 0.60296 0.0
H715 H 0.2962 0.90087 0.58456 0.0
C716 C 0.16633 0.30127 0.7272 0.0
C717 C 0.19452 0.28846 0.70621 0.0
C718 C 0.15824 0.28038 0.63278 0.0
C719 C 0.12971 0.28887 0.65567 0.0
N720 N 0.10602 0.29989 0.72731 0.0
N721 N 0.21491 0.25898 0.6402 0.0
C722 C 0.13359 0.29711 0.70366 0.0
C723 C 0.19 0.2764 0.65911 0.0
N724 N 0.17073 0.31821 0.76939 0.0
N725 N 0.15503 0.27616 0.58585 0.0
H726 H 0.23799 0.25395 0.65837 0.0
H727 H 0.21144 0.24655 0.60769 0.0
H728 H 0.13209 0.27855 0.56581 0.0
H729 H 0.17547 0.27328 0.56685 0.0
H730 H 0.15142 0.33099 0.78386 0.0
H731 H 0.19418 0.32259 0.78779 0.0
H732 H 0.10766 0.30223 0.76316 0.0
H733 H 0.08151 0.29663 0.71154 0.0
C734 C 0.72105 0.17058 0.60967 0.0
C735 C 0.73762 0.17076 0.65581 0.0
C736 C 0.74973 0.11043 0.63843 0.0
C737 C 0.7399 0.11282 0.59059 0.0
N738 N 0.72329 0.15013 0.53027 0.0
N739 N 0.77837 0.13978 0.70547 0.0
C740 C 0.7279 0.14448 0.57608 0.0
C741 C 0.75484 0.14035 0.66803 0.0
N742 N 0.69713 0.19373 0.59778 0.0
N743 N 0.75471 0.07966 0.65599 0.0
H744 H 0.78828 0.16113 0.72405 0.0
H745 H 0.79238 0.11843 0.71316 0.0
H746 H 0.75066 0.05731 0.63574 0.0
H747 H 0.7594 0.07661 0.6913 0.0
H748 H 0.68339 0.19297 0.56531 0.0
H749 H 0.68713 0.20999 0.6217 0.0
H750 H 0.71719 0.17372 0.51828 0.0
H751 H 0.72886 0.13224 0.50485 0.0
C752 C 0.8949 0.30233 0.3608 0.0
C753 C 0.86421 0.28827 0.37134 0.0
C754 C 0.89235 0.27192 0.44552 0.0
C755 C 0.92379 0.28337 0.43334 0.0
N756 N 0.95575 0.30338 0.37511 0.0
N757 N 0.83609 0.25208 0.41869 0.0
C758 C 0.92525 0.29666 0.38955 0.0
C759 C 0.86353 0.27108 0.41238 0.0
N760 N 0.89487 0.32223 0.32427 0.0
N761 N 0.88953 0.26229 0.48897 0.0
H762 H 0.81476 0.24969 0.39487 0.0
H763 H 0.83582 0.23586 0.44534 0.0
H764 H 0.9099 0.25995 0.51362 0.0
H765 H 0.86649 0.25845 0.5014 0.0
H766 H 0.91578 0.33592 0.31751 0.0
H767 H 0.87305 0.32772 0.30327 0.0
H768 H 0.95868 0.3099 0.34179 0.0
H769 H 0.97843 0.29944 0.39518 0.0
C770 C 0.77747 0.85406 0.34432 0.0
C771 C 0.76582 0.8549 0.29654 0.0
C772 C 0.75411 0.91548 0.31008 0.0
C773 C 0.76108 0.91307 0.35864 0.0
N774 N 0.77428 0.8776 0.42203 0.0
N775 N 0.73842 0.88639 0.23539 0.0
C776 C 0.77125 0.8816 0.37569 0.0
C777 C 0.75307 0.88572 0.27973 0.0
N778 N 0.79622 0.82758 0.35963 0.0
N779 N 0.74914 0.94635 0.29273 0.0
H780 H 0.73667 0.86531 0.21247 0.0
H781 H 0.72542 0.90704 0.22261 0.0
H782 H 0.74981 0.96848 0.31366 0.0
H783 H 0.74735 0.95027 0.25764 0.0
H784 H 0.8082 0.82705 0.39305 0.0
H785 H 0.80323 0.80807 0.33754 0.0
H786 H 0.77803 0.85433 0.43616 0.0
H787 H 0.77006 0.89698 0.44612 0.0
C788 C 0.13298 0.736 0.29004 0.0
C789 C 0.1624 0.75412 0.30884 0.0
C790 C 0.13715 0.76683 0.38062 0.0
C791 C 0.10748 0.74921 0.36181 0.0
N792 N 0.07433 0.72269 0.29589 0.0
N793 N 0.18829 0.79484 0.3658 0.0
C794 C 0.10454 0.7355 0.3156 0.0
C795 C 0.16315 0.77197 0.3523 0.0
N796 N 0.13261 0.71828 0.24862 0.0
N797 N 0.1411 0.77762 0.42614 0.0
H798 H 0.20705 0.80006 0.34509 0.0
H799 H 0.18852 0.81116 0.39494 0.0
H800 H 0.12263 0.77468 0.44811 0.0
H801 H 0.16373 0.78698 0.44309 0.0
H802 H 0.11383 0.70109 0.23573 0.0
H803 H 0.15209 0.71952 0.2279 0.0
H804 H 0.06935 0.71547 0.26103 0.0
H805 H 0.05323 0.72164 0.31378 0.0
C806 C 0.24877 0.12738 0.35006 0.0
C807 C 0.26914 0.15684 0.36291 0.0
C808 C 0.28263 0.1332 0.43952 0.0
C809 C 0.26676 0.10201 0.42439 0.0
N810 N 0.243 0.0674 0.35846 0.0
N811 N 0.31635 0.17795 0.41622 0.0
C812 C 0.25256 0.09845 0.37747 0.0
C813 C 0.28922 0.15695 0.40663 0.0
N814 N 0.22433 0.12694 0.31367 0.0
N815 N 0.29139 0.14066 0.48538 0.0
H816 H 0.32584 0.1918 0.39131 0.0
H817 H 0.33252 0.17729 0.44664 0.0
H818 H 0.28594 0.12469 0.51067 0.0
H819 H 0.30079 0.1642 0.49806 0.0
H820 H 0.20746 0.10693 0.306 0.0
H821 H 0.21774 0.14769 0.29489 0.0
H822 H 0.23525 0.063 0.32341 0.0
H823 H 0.24616 0.04574 0.37678 0.0
C824 C 0.6716 0.80588 0.86025 0.0
C825 C 0.67182 0.78247 0.82152 0.0
C826 C 0.61642 0.76199 0.83825 0.0
C827 C 0.62025 0.7799 0.88161 0.0
N828 N 0.65464 0.81603 0.93683 0.0
N829 N 0.64447 0.7323 0.78046 0.0
C830 C 0.64876 0.80107 0.89352 0.0
C831 C 0.64419 0.75899 0.81202 0.0
N832 N 0.69178 0.83378 0.86426 0.0
N833 N 0.58597 0.74813 0.8214 0.0
H834 H 0.6638 0.726 0.76091 0.0
H835 H 0.62639 0.7132 0.77749 0.0
H836 H 0.56474 0.75032 0.83903 0.0
H837 H 0.58094 0.73787 0.78773 0.0
H838 H 0.69057 0.85274 0.89007 0.0
H839 H 0.7062 0.8403 0.83848 0.0
H840 H 0.67682 0.82908 0.94849 0.0
H841 H 0.63886 0.81271 0.96234 0.0
C842 C 0.25631 0.69817 0.90678 0.0
C843 C 0.23501 0.69897 0.86447 0.0
C844 C 0.21199 0.64338 0.88008 0.0
C845 C 0.23623 0.64063 0.91908 0.0
N846 N 0.28604 0.66381 0.96377 0.0
N847 N 0.19641 0.66865 0.80745 0.0
C848 C 0.25947 0.66776 0.93106 0.0
C849 C 0.2141 0.67042 0.85015 0.0
N850 N 0.27414 0.72627 0.9237 0.0
N851 N 0.18582 0.62098 0.87255 0.0
H852 H 0.19646 0.68791 0.78495 0.0
H853 H 0.18395 0.64697 0.79296 0.0
H854 H 0.18253 0.60173 0.89433 0.0
H855 H 0.16548 0.62367 0.84765 0.0
H856 H 0.287 0.72854 0.95668 0.0
H857 H 0.27428 0.74825 0.90612 0.0
H858 H 0.30579 0.68103 0.97066 0.0
H859 H 0.29027 0.64168 0.98073 0.0
C860 C 0.36975 0.23044 0.89185 0.0
C861 C 0.36848 0.2529 0.85567 0.0
C862 C 0.42862 0.26465 0.87888 0.0
C863 C 0.42667 0.24921 0.92115 0.0
N864 N 0.39043 0.22381 0.97101 0.0
N865 N 0.39812 0.29595 0.81978 0.0
C866 C 0.39586 0.23384 0.92861 0.0
C867 C 0.39842 0.27103 0.84994 0.0
N868 N 0.34667 0.20507 0.89072 0.0
N869 N 0.45915 0.2739 0.86683 0.0
H870 H 0.37672 0.30351 0.79982 0.0
H871 H 0.41872 0.31172 0.81827 0.0
H872 H 0.48158 0.26954 0.88727 0.0
H873 H 0.46224 0.28272 0.83467 0.0
H874 H 0.34813 0.18699 0.91525 0.0
H875 H 0.3292 0.1995 0.86213 0.0
H876 H 0.36707 0.21509 0.97812 0.0
H877 H 0.4079 0.22733 0.99991 0.0
C878 C 0.76302 0.37928 0.78784 0.0
C879 C 0.74735 0.35055 0.80319 0.0
C880 C 0.74228 0.38157 0.87727 0.0
C881 C 0.7551 0.41156 0.86098 0.0
N882 N 0.77113 0.43994 0.79597 0.0
N883 N 0.71189 0.32955 0.8566 0.0
C884 C 0.76344 0.41069 0.8147 0.0
C885 C 0.73398 0.35332 0.84613 0.0
N886 N 0.77872 0.37641 0.74869 0.0
N887 N 0.73888 0.37922 0.92289 0.0
H888 H 0.70373 0.30948 0.83367 0.0
H889 H 0.69864 0.33215 0.88535 0.0
H890 H 0.74471 0.39875 0.94742 0.0
H891 H 0.73313 0.35671 0.93685 0.0
H892 H 0.79373 0.39536 0.73848 0.0
H893 H 0.7789 0.35406 0.72839 0.0
H894 H 0.77428 0.44145 0.76127 0.0
H895 H 0.77145 0.46319 0.81428 0.0
C896 C 0.68434 0.25087 0.17289 0.0
C897 C 0.68965 0.27327 0.21328 0.0
C898 C 0.62939 0.28596 0.20286 0.0
C899 C 0.62606 0.26892 0.15869 0.0
N900 N 0.65294 0.24059 0.09784 0.0
N901 N 0.66675 0.31998 0.25671 0.0
C902 C 0.65439 0.25324 0.14244 0.0
C903 C 0.66203 0.29297 0.22577 0.0
N904 N 0.70645 0.22584 0.1643 0.0
N905 N 0.60153 0.29551 0.22312 0.0
H906 H 0.69032 0.32928 0.27005 0.0
H907 H 0.6473 0.33612 0.26382 0.0
H908 H 0.57721 0.29027 0.20771 0.0
H909 H 0.60285 0.30558 0.25698 0.0
H910 H 0.70151 0.20755 0.13747 0.0
H911 H 0.72733 0.22009 0.18661 0.0
H912 H 0.6741 0.23203 0.08306 0.0
H913 H 0.63138 0.24163 0.07447 0.0
C914 C 0.77122 0.68307 0.08628 0.0
C915 C 0.78027 0.68288 0.1349 0.0
C916 C 0.78798 0.62109 0.12559 0.0
C917 C 0.78102 0.6217 0.07689 0.0
N918 N 0.77279 0.65468 0.01052 0.0
N919 N 0.80419 0.65163 0.19872 0.0
C920 C 0.77482 0.6532 0.05724 0.0
C921 C 0.79056 0.65181 0.15382 0.0
N922 N 0.75712 0.71109 0.06783 0.0
N923 N 0.79132 0.59092 0.14536 0.0
H924 H 0.80679 0.67311 0.22068 0.0
H925 H 0.81591 0.63082 0.21307 0.0
H926 H 0.79127 0.56815 0.12619 0.0
H927 H 0.79173 0.58828 0.18064 0.0
H928 H 0.74648 0.71159 0.03375 0.0
H929 H 0.75305 0.73302 0.08743 0.0
H930 H 0.7718 0.67713 0.99392 0.0
H931 H 0.77538 0.63347 0.98869 0.0
C932 C 0.36017 0.75669 0.20019 0.0
C933 C 0.32709 0.74717 0.18064 0.0
C934 C 0.34767 0.74028 0.10421 0.0
C935 C 0.38097 0.74737 0.1245 0.0
N936 N 0.41988 0.75433 0.19331 0.0
N937 N 0.29186 0.72126 0.11573 0.0
C938 C 0.38747 0.75313 0.17297 0.0
C939 C 0.32151 0.73656 0.13305 0.0
N940 N 0.36554 0.77068 0.24413 0.0
N941 N 0.34073 0.73805 0.05733 0.0
H942 H 0.27273 0.71643 0.13597 0.0
H943 H 0.28771 0.71003 0.08253 0.0
H944 H 0.35911 0.74052 0.03506 0.0
H945 H 0.31638 0.7366 0.04065 0.0
H946 H 0.38829 0.78171 0.25802 0.0
H947 H 0.3466 0.77423 0.26547 0.0
H948 H 0.42618 0.75477 0.22886 0.0
H949 H 0.44056 0.75145 0.17468 0.0
C950 C 0.22752 0.34965 0.21986 0.0
C951 C 0.24799 0.32199 0.2086 0.0
C952 C 0.26711 0.35372 0.14561 0.0
C953 C 0.24853 0.38246 0.15907 0.0
N954 N 0.21685 0.40943 0.2161 0.0
N955 N 0.29222 0.30039 0.16603 0.0
C956 C 0.2302 0.38076 0.19807 0.0
C957 C 0.26905 0.32476 0.17279 0.0
N958 N 0.20495 0.34602 0.25109 0.0
N959 N 0.28228 0.3535 0.10598 0.0
H960 H 0.29411 0.27868 0.18435 0.0
H961 H 0.31134 0.30291 0.14499 0.0
H962 H 0.28242 0.37407 0.08568 0.0
H963 H 0.29255 0.33205 0.09128 0.0
H964 H 0.18673 0.36374 0.25738 0.0
H965 H 0.20243 0.32382 0.2677 0.0
H966 H 0.20629 0.41077 0.24712 0.0
H967 H 0.21941 0.43283 0.20262 0.0
C968 C 0.373 0.29376 0.24712 0.0
C969 C 0.36754 0.26389 0.2698 0.0
C970 C 0.41308 0.23632 0.23124 0.0
C971 C 0.41661 0.26522 0.20562 0.0
N972 N 0.39931 0.32114 0.18763 0.0
N973 N 0.38083 0.20617 0.28213 0.0
C974 C 0.39649 0.29393 0.21342 0.0
C975 C 0.3874 0.23512 0.2617 0.0
N976 N 0.35556 0.32204 0.25785 0.0
N977 N 0.43436 0.20993 0.2264 0.0
H978 H 0.36371 0.20502 0.30646 0.0
H979 H 0.39107 0.18298 0.27381 0.0
H980 H 0.45204 0.20898 0.20273 0.0
H981 H 0.43598 0.18971 0.24745 0.0
H982 H 0.36011 0.3456 0.24622 0.0
H983 H 0.33765 0.32261 0.28118 0.0
H984 H 0.38287 0.34128 0.18684 0.0
H985 H 0.41743 0.32302 0.16486 0.0
C986 C 0.83343 0.36928 0.17374 0.0
C987 C 0.80376 0.35189 0.18132 0.0
C988 C 0.76946 0.39715 0.14823 0.0
C989 C 0.79865 0.41202 0.13484 0.0
N990 N 0.85846 0.412 0.13188 0.0
N991 N 0.74333 0.34607 0.16735 0.0
C992 C 0.83075 0.39814 0.14704 0.0
C993 C 0.77167 0.36512 0.1667 0.0
N994 N 0.86394 0.35875 0.19299 0.0
N995 N 0.73946 0.41348 0.14256 0.0
H996 H 0.74399 0.32148 0.17735 0.0
H997 H 0.71963 0.35307 0.15295 0.0
H998 H 0.73692 0.4369 0.12846 0.0
H999 H 0.71795 0.40543 0.15595 0.0
H1000 H 0.88616 0.37229 0.19263 0.0
H1001 H 0.8667 0.33761 0.21245 0.0
H1002 H 0.88201 0.40086 0.13484 0.0
H1003 H 0.85742 0.43403 0.11417 0.0
C1004 C 0.65731 0.74562 0.13752 0.0
C1005 C 0.66004 0.75478 0.18552 0.0
C1006 C 0.59966 0.76758 0.17811 0.0
C1007 C 0.59822 0.76224 0.12948 0.0
N1008 N 0.6275 0.7529 0.06222 0.0
N1009 N 0.63471 0.78 0.2502 0.0
C1010 C 0.62768 0.75342 0.10902 0.0
C1011 C 0.63141 0.76719 0.2056 0.0
N1012 N 0.68231 0.72777 0.1194 0.0
N1013 N 0.57066 0.77228 0.19812 0.0
H1014 H 0.65752 0.78077 0.27114 0.0
H1015 H 0.61549 0.79257 0.26512 0.0
H1016 H 0.54714 0.77325 0.17902 0.0
H1017 H 0.56968 0.77267 0.23358 0.0
H1018 H 0.68022 0.71771 0.08552 0.0
H1019 H 0.70347 0.71956 0.1395 0.0
H1020 H 0.64915 0.74986 0.04571 0.0
H1021 H 0.60634 0.75889 0.04025 0.0
C1022 C 0.26431 0.60948 0.25746 0.0
C1023 C 0.24403 0.63853 0.25159 0.0
C1024 C 0.216 0.61354 0.17995 0.0
C1025 C 0.23608 0.58435 0.18453 0.0
N1026 N 0.27021 0.55009 0.23617 0.0
N1027 N 0.18896 0.65695 0.22263 0.0
C1028 C 0.25693 0.58069 0.22654 0.0
C1029 C 0.21571 0.63643 0.21825 0.0
N1030 N 0.2912 0.60937 0.29036 0.0
N1031 N 0.19925 0.62129 0.13881 0.0
H1032 H 0.18767 0.67271 0.25214 0.0
H1033 H 0.16696 0.65499 0.19992 0.0
H1034 H 0.20048 0.60706 0.10824 0.0
H1035 H 0.18679 0.64402 0.13449 0.0
H1036 H 0.30908 0.59042 0.29134 0.0
H1037 H 0.29638 0.62837 0.31595 0.0
H1038 H 0.28347 0.54532 0.26777 0.0
H1039 H 0.26508 0.52879 0.21402 0.0
C1040 C 0.35471 0.73621 0.85101 0.0
C1041 C 0.35323 0.75237 0.80892 0.0
C1042 C 0.41206 0.77044 0.82852 0.0
C1043 C 0.41143 0.75876 0.87349 0.0
N1044 N 0.38004 0.7349 0.92983 0.0
N1045 N 0.37983 0.78648 0.75785 0.0
C1046 C 0.38215 0.74281 0.88535 0.0
C1047 C 0.38185 0.76975 0.79749 0.0
N1048 N 0.33031 0.71355 0.85751 0.0
N1049 N 0.44161 0.78158 0.81528 0.0
H1050 H 0.35861 0.78521 0.73373 0.0
H1051 H 0.39839 0.80289 0.75007 0.0
H1052 H 0.46397 0.7827 0.83729 0.0
H1053 H 0.44453 0.78732 0.78166 0.0
H1054 H 0.33186 0.69834 0.88547 0.0
H1055 H 0.31057 0.70718 0.83221 0.0
H1056 H 0.35795 0.7264 0.94127 0.0
H1057 H 0.39938 0.73979 0.9563 0.0
C1058 C 0.24924 0.37778 0.86478 0.0
C1059 C 0.25435 0.34827 0.89014 0.0
C1060 C 0.24913 0.38204 0.9616 0.0
C1061 C 0.24804 0.41164 0.93713 0.0
N1062 N 0.25139 0.43863 0.86617 0.0
N1063 N 0.26828 0.3249 0.96435 0.0
C1064 C 0.24952 0.40978 0.88893 0.0
C1065 C 0.25669 0.35106 0.93903 0.0
N1066 N 0.24235 0.37551 0.81786 0.0
N1067 N 0.24236 0.3833 0.00633 0.0
H1068 H 0.27694 0.3026 0.94965 0.0
H1069 H 0.27318 0.32691 1.00015 0.0
H1070 H 0.23779 0.40572 0.02445 0.0
H1071 H 0.23812 0.36179 0.02358 0.0
H1072 H 0.23425 0.39578 0.79875 0.0
H1073 H 0.24162 0.35314 0.79781 0.0
H1074 H 0.25689 0.43891 0.8322 0.0
H1075 H 0.24996 0.46253 0.88223 0.0
C1076 C 0.68924 0.25241 0.90312 0.0
C1077 C 0.68294 0.2375 0.85736 0.0
C1078 C 0.62259 0.23324 0.8684 0.0
C1079 C 0.62946 0.24556 0.91515 0.0
N1080 N 0.67053 0.26143 0.97915 0.0
N1081 N 0.64412 0.20843 0.79966 0.0
C1082 C 0.66317 0.25349 0.93305 0.0
C1083 C 0.64967 0.22657 0.84089 0.0
N1084 N 0.7196 0.26745 0.91744 0.0
N1085 N 0.58997 0.22871 0.84981 0.0
H1086 H 0.66325 0.20236 0.77923 0.0
H1087 H 0.62134 0.19667 0.78773 0.0
H1088 H 0.56968 0.23296 0.86884 0.0
H1089 H 0.58289 0.22344 0.81481 0.0
H1090 H 0.72435 0.28207 0.94815 0.0
H1091 H 0.73906 0.26862 0.89671 0.0
H1092 H 0.69496 0.26336 0.9955 0.0
H1093 H 0.65224 0.26338 1.00189 0.0
C1094 C 0.7469 0.63514 0.74932 0.0
C1095 C 0.73714 0.66653 0.76897 0.0
C1096 C 0.7381 0.64256 0.84437 0.0
C1097 C 0.74514 0.61069 0.82421 0.0
N1098 N 0.75115 0.57482 0.75662 0.0
N1099 N 0.71474 0.69704 0.83277 0.0
C1100 C 0.7479 0.60637 0.77628 0.0
C1101 C 0.7301 0.66925 0.81572 0.0
N1102 N 0.75697 0.63313 0.70611 0.0
N1103 N 0.74038 0.6479 0.89126 0.0
H1104 H 0.70807 0.7173 0.81326 0.0
H1105 H 0.70543 0.69849 0.86473 0.0
H1106 H 0.74617 0.62909 0.91404 0.0
H1107 H 0.73968 0.67172 0.90773 0.0
H1108 H 0.7677 0.61176 0.69194 0.0
H1109 H 0.75711 0.65368 0.68567 0.0
H1110 H 0.74993 0.56961 0.72117 0.0
H1111 H 0.75239 0.55344 0.7757 0.0
loop_
_geom_bond_atom_site_label_1
_geom_bond_atom_site_label_2
_geom_bond_distance
_geom_bond_site_symmetry_2
_ccdc_geom_bond_type
C0 O2 1.247 . S
C0 O4 1.258 . S
C1 O8 1.247 . S
C1 O9 1.258 . S
O2 C0 1.247 . S
O2 Zn3 2.028 . S
Zn3 O2 2.028 . S
Zn3 O7 2.035 . S
Zn3 O9 2.035 . S
Zn3 O10 2.028 . S
O4 C0 1.258 . S
O4 Zn5 2.035 . S
Zn5 O4 2.035 . S
Zn5 O6 2.028 . S
Zn5 O8 2.028 . S
Zn5 O11 2.035 . S
O6 Zn5 2.028 . S
O6 C12 1.247 . S
O7 Zn3 2.035 . S
O7 C12 1.258 . S
O8 C1 1.247 . S
O8 Zn5 2.028 . S
O9 C1 1.258 . S
O9 Zn3 2.035 . S
O10 Zn3 2.028 . S
O10 C13 1.247 . S
O11 Zn5 2.035 . S
O11 C13 1.258 . S
C12 O6 1.247 . S
C12 O7 1.258 . S
C13 O10 1.247 . S
C13 O11 1.258 . S
C14 O16 1.247 . S
C14 O18 1.258 . S
C15 O22 1.247 . S
C15 O23 1.258 . S
O16 C14 1.247 . S
O16 Zn17 2.028 . S
Zn17 O16 2.028 . S
Zn17 O21 2.035 . S
Zn17 O23 2.035 . S
Zn17 O24 2.028 . S
O18 C14 1.258 . S
O18 Zn19 2.035 . S
Zn19 O18 2.035 . S
Zn19 O20 2.028 . S
Zn19 O22 2.028 . S
Zn19 O25 2.035 . S
O20 Zn19 2.028 . S
O20 C26 1.247 . S
O21 Zn17 2.035 . S
O21 C26 1.258 . S
O22 C15 1.247 . S
O22 Zn19 2.028 . S
O23 C15 1.258 . S
O23 Zn17 2.035 . S
O24 Zn17 2.028 . S
O24 C27 1.247 . S
O25 Zn19 2.035 . S
O25 C27 1.258 . S
C26 O20 1.247 . S
C26 O21 1.258 . S
C27 O24 1.247 . S
C27 O25 1.258 . S
C28 O30 1.247 . S
C28 O32 1.258 . S
C29 O36 1.247 . S
C29 O37 1.258 . S
O30 C28 1.247 . S
O30 Zn31 2.028 . S
Zn31 O30 2.028 . S
Zn31 O35 2.035 . S
Zn31 O37 2.035 . S
Zn31 O38 2.028 . S
O32 C28 1.258 . S
O32 Zn33 2.035 . S
Zn33 O32 2.035 . S
Zn33 O34 2.028 . S
Zn33 O36 2.028 . S
Zn33 O39 2.035 . S
O34 Zn33 2.028 . S
O34 C40 1.247 . S
O35 Zn31 2.035 . S
O35 C40 1.258 . S
O36 C29 1.247 . S
O36 Zn33 2.028 . S
O37 C29 1.258 . S
O37 Zn31 2.035 . S
O38 Zn31 2.028 . S
O38 C41 1.247 . S
O39 Zn33 2.035 . S
O39 C41 1.258 . S
C40 O34 1.247 . S
C40 O35 1.258 . S
C41 O38 1.247 . S
C41 O39 1.258 . S
C42 O44 1.247 . S
C42 O46 1.258 . S
C43 O50 1.247 . S
C43 O51 1.258 . S
O44 C42 1.247 . S
O44 Zn45 2.028 . S
Zn45 O44 2.028 . S
Zn45 O49 2.035 . S
Zn45 O51 2.035 . S
Zn45 O52 2.028 . S
O46 C42 1.258 . S
O46 Zn47 2.035 . S
Zn47 O46 2.035 . S
Zn47 O48 2.028 . S
Zn47 O50 2.028 . S
Zn47 O53 2.035 . S
O48 Zn47 2.028 . S
O48 C54 1.247 . S
O49 Zn45 2.035 . S
O49 C54 1.258 . S
O50 C43 1.247 . S
O50 Zn47 2.028 . S
O51 C43 1.258 . S
O51 Zn45 2.035 . S
O52 Zn45 2.028 . S
O52 C55 1.247 . S
O53 Zn47 2.035 . S
O53 C55 1.258 . S
C54 O48 1.247 . S
C54 O49 1.258 . S
C55 O52 1.247 . S
C55 O53 1.258 . S
C56 O58 1.247 . S
C56 O60 1.258 . S
C57 O64 1.247 . S
C57 O65 1.258 . S
O58 C56 1.247 . S
O58 Zn59 2.028 . S
Zn59 O58 2.028 . S
Zn59 O63 2.035 . S
Zn59 O65 2.035 . S
Zn59 O66 2.028 . S
O60 C56 1.258 . S
O60 Zn61 2.035 . S
Zn61 O60 2.035 . S
Zn61 O62 2.028 . S
Zn61 O64 2.028 . S
Zn61 O67 2.035 . S
O62 Zn61 2.028 . S
O62 C68 1.247 . S
O63 Zn59 2.035 . S
O63 C68 1.258 . S
O64 C57 1.247 . S
O64 Zn61 2.028 . S
O65 C57 1.258 . S
O65 Zn59 2.035 . S
O66 Zn59 2.028 . S
O66 C69 1.247 . S
O67 Zn61 2.035 . S
O67 C69 1.258 . S
C68 O62 1.247 . S
C68 O63 1.258 . S
C69 O66 1.247 . S
C69 O67 1.258 . S
C70 O72 1.247 . S
C70 O74 1.258 . S
C71 O78 1.247 . S
C71 O79 1.258 . S
O72 C70 1.247 . S
O72 Zn73 2.028 . S
Zn73 O72 2.028 . S
Zn73 O77 2.035 . S
Zn73 O79 2.035 . S
Zn73 O80 2.028 . S
O74 C70 1.258 . S
O74 Zn75 2.035 . S
Zn75 O74 2.035 . S
Zn75 O76 2.028 . S
Zn75 O78 2.028 . S
Zn75 O81 2.035 . S
O76 Zn75 2.028 . S
O76 C82 1.247 . S
O77 Zn73 2.035 . S
O77 C82 1.258 . S
O78 C71 1.247 . S
O78 Zn75 2.028 . S
O79 C71 1.258 . S
O79 Zn73 2.035 . S
O80 Zn73 2.028 . S
O80 C83 1.247 . S
O81 Zn75 2.035 . S
O81 C83 1.258 . S
C82 O76 1.247 . S
C82 O77 1.258 . S
C83 O80 1.247 . S
C83 O81 1.258 . S
C84 O86 1.247 . S
C84 O88 1.258 . S
C85 O92 1.247 . S
C85 O93 1.258 . S
O86 C84 1.247 . S
O86 Zn87 2.028 . S
Zn87 O86 2.028 . S
Zn87 O91 2.035 . S
Zn87 O93 2.035 . S
Zn87 O94 2.028 . S
O88 C84 1.258 . S
O88 Zn89 2.035 . S
Zn89 O88 2.035 . S
Zn89 O90 2.028 . S
Zn89 O92 2.028 . S
Zn89 O95 2.035 . S
O90 Zn89 2.028 . S
O90 C96 1.247 . S
O91 Zn87 2.035 . S
O91 C96 1.258 . S
O92 C85 1.247 . S
O92 Zn89 2.028 . S
O93 C85 1.258 . S
O93 Zn87 2.035 . S
O94 Zn87 2.028 . S
O94 C97 1.247 . S
O95 Zn89 2.035 . S
O95 C97 1.258 . S
C96 O90 1.247 . S
C96 O91 1.258 . S
C97 O94 1.247 . S
C97 O95 1.258 . S
C98 O100 1.247 . S
C98 O102 1.258 . S
C99 O106 1.247 . S
C99 O107 1.258 . S
O100 C98 1.247 . S
O100 Zn101 2.028 . S
Zn101 O100 2.028 . S
Zn101 O105 2.035 . S
Zn101 O107 2.035 . S
Zn101 O108 2.028 . S
O102 C98 1.258 . S
O102 Zn103 2.035 . S
Zn103 O102 2.035 . S
Zn103 O104 2.028 . S
Zn103 O106 2.028 . S
Zn103 O109 2.035 . S
O104 Zn103 2.028 . S
O104 C110 1.247 . S
O105 Zn101 2.035 . S
O105 C110 1.258 . S
O106 C99 1.247 . S
O106 Zn103 2.028 . S
O107 C99 1.258 . S
O107 Zn101 2.035 . S
O108 Zn101 2.028 . S
O108 C111 1.247 . S
O109 Zn103 2.035 . S
O109 C111 1.258 . S
C110 O104 1.247 . S
C110 O105 1.258 . S
C111 O108 1.247 . S
C111 O109 1.258 . S
C112 C113 1.443 . S
C112 N116 1.376 . S
C112 C150 1.389 . S
C113 C112 1.443 . S
C113 C114 1.340 . S
C113 H153 0.951 . S
C114 C113 1.340 . S
C114 C115 1.439 . S
C114 H154 0.950 . S
C115 C114 1.439 . S
C115 N116 1.374 . S
C115 C149 1.395 . S
N116 C112 1.376 . S
N116 C115 1.374 . S
N116 Co117 2.008 . S
Co117 N116 2.008 . S
Co117 N118 1.995 1_455 S
Co117 N123 2.008 1_455 S
Co117 N128 1.995 . S
Co117 N133 2.282 1_455 S
Co117 N139 2.282 . S
N118 Co117 1.995 1_655 S
N118 C119 1.376 . S
N118 C122 1.383 . S
C119 N118 1.376 . S
C119 C120 1.446 . S
C119 C149 1.391 1_655 S
C120 C119 1.446 . S
C120 C121 1.339 . S
C120 H155 0.949 . S
C121 C120 1.339 . S
C121 C122 1.439 . S
C121 H156 0.950 . S
C122 N118 1.383 . S
C122 C121 1.439 . S
C122 C151 1.392 . S
N123 Co117 2.008 1_655 S
N123 C124 1.376 . S
N123 C127 1.374 . S
C124 N123 1.376 . S
C124 C125 1.443 . S
C124 C151 1.389 . S
C125 C124 1.443 . S
C125 C126 1.340 . S
C125 H157 0.951 . S
C126 C125 1.340 . S
C126 C127 1.439 . S
C126 H158 0.950 . S
C127 N123 1.374 . S
C127 C126 1.439 . S
C127 C152 1.377 1_655 S
N128 Co117 1.995 . S
N128 C129 1.376 . S
N128 C132 1.383 . S
C129 N128 1.376 . S
C129 C130 1.446 . S
C129 C152 1.411 . S
C130 C129 1.446 . S
C130 C131 1.339 . S
C130 H159 0.949 . S
C131 C130 1.339 . S
C131 C132 1.439 . S
C131 H160 0.950 . S
C132 N128 1.383 . S
C132 C131 1.439 . S
C132 C150 1.392 . S
N133 Co117 2.282 1_655 S
N133 C136 1.332 . S
N133 C138 1.332 . S
C134 C135 1.386 . S
C134 C137 1.388 . S
C135 C134 1.386 . S
C135 C136 1.382 . S
C135 H161 0.950 . S
C136 N133 1.332 . S
C136 C135 1.382 . S
C136 H147 0.952 . S
C137 C134 1.388 . S
C137 C138 1.382 . S
C137 H162 0.950 . S
C138 N133 1.332 . S
C138 C137 1.382 . S
C138 H148 0.948 . S
N139 Co117 2.282 . S
N139 C143 1.332 . S
N139 C144 1.332 . S
C140 C141 1.388 . S
C140 C144 1.382 . S
C140 H163 0.950 . S
C141 C140 1.388 . S
C141 C142 1.386 . S
C142 C141 1.386 . S
C142 C143 1.382 . S
C142 H164 0.950 . S
C143 N139 1.332 . S
C143 C142 1.382 . S
C143 H145 0.952 . S
C144 N139 1.332 . S
C144 C140 1.382 . S
C144 H146 0.948 . S
H145 C143 0.952 . S
H146 C144 0.948 . S
H147 C136 0.952 . S
H148 C138 0.948 . S
C149 C115 1.395 . S
C149 C119 1.391 1_455 S
C150 C112 1.389 . S
C150 C132 1.392 . S
C151 C122 1.392 . S
C151 C124 1.389 . S
C152 C127 1.377 1_455 S
C152 C129 1.411 . S
H153 C113 0.951 . S
H154 C114 0.950 . S
H155 C120 0.949 . S
H156 C121 0.950 . S
H157 C125 0.951 . S
H158 C126 0.950 . S
H159 C130 0.949 . S
H160 C131 0.950 . S
H161 C135 0.950 . S
H162 C137 0.950 . S
H163 C140 0.950 . S
H164 C142 0.950 . S
C165 C166 1.443 . S
C165 N169 1.376 . S
C165 C203 1.389 . S
C166 C165 1.443 . S
C166 C167 1.340 . S
C166 H206 0.951 . S
C167 C166 1.340 . S
C167 C168 1.439 . S
C167 H207 0.950 . S
C168 C167 1.439 . S
C168 N169 1.374 . S
C168 C202 1.395 . S
N169 C165 1.376 . S
N169 C168 1.374 . S
N169 Co170 2.008 . S
Co170 N169 2.008 . S
Co170 N171 1.995 1_545 S
Co170 N176 2.008 1_545 S
Co170 N181 1.995 . S
Co170 N186 2.282 1_545 S
Co170 N192 2.282 . S
N171 Co170 1.995 1_565 S
N171 C172 1.376 . S
N171 C175 1.383 . S
C172 N171 1.376 . S
C172 C173 1.446 . S
C172 C202 1.391 1_565 S
C173 C172 1.446 . S
C173 C174 1.339 . S
C173 H208 0.949 . S
C174 C173 1.339 . S
C174 C175 1.439 . S
C174 H209 0.950 . S
C175 N171 1.383 . S
C175 C174 1.439 . S
C175 C204 1.392 . S
N176 Co170 2.008 1_565 S
N176 C177 1.376 . S
N176 C180 1.374 . S
C177 N176 1.376 . S
C177 C178 1.443 . S
C177 C204 1.389 . S
C178 C177 1.443 . S
C178 C179 1.340 . S
C178 H210 0.951 . S
C179 C178 1.340 . S
C179 C180 1.439 . S
C179 H211 0.950 . S
C180 N176 1.374 . S
C180 C179 1.439 . S
C180 C205 1.395 . S
N181 Co170 1.995 . S
N181 C182 1.376 . S
N181 C185 1.383 . S
C182 N181 1.376 . S
C182 C183 1.446 . S
C182 C205 1.391 1_545 S
C183 C182 1.446 . S
C183 C184 1.339 . S
C183 H212 0.949 . S
C184 C183 1.339 . S
C184 C185 1.439 . S
C184 H213 0.950 . S
C185 N181 1.383 . S
C185 C184 1.439 . S
C185 C203 1.392 . S
N186 Co170 2.282 1_565 S
N186 C189 1.332 . S
N186 C191 1.332 . S
C187 C188 1.386 . S
C187 C190 1.388 . S
C188 C187 1.386 . S
C188 C189 1.382 . S
C188 H214 0.950 . S
C189 N186 1.332 . S
C189 C188 1.382 . S
C189 H200 0.952 . S
C190 C187 1.388 . S
C190 C191 1.382 . S
C190 H215 0.950 . S
C191 N186 1.332 . S
C191 C190 1.382 . S
C191 H201 0.948 . S
N192 Co170 2.282 . S
N192 C196 1.332 . S
N192 C197 1.332 . S
C193 C194 1.388 . S
C193 C197 1.382 . S
C193 H216 0.950 . S
C194 C193 1.388 . S
C194 C195 1.386 . S
C195 C194 1.386 . S
C195 C196 1.382 . S
C195 H217 0.950 . S
C196 N192 1.332 . S
C196 C195 1.382 . S
C196 H198 0.952 . S
C197 N192 1.332 . S
C197 C193 1.382 . S
C197 H199 0.948 . S
H198 C196 0.952 . S
H199 C197 0.948 . S
H200 C189 0.952 . S
H201 C191 0.948 . S
C202 C168 1.395 . S
C202 C172 1.391 1_545 S
C203 C165 1.389 . S
C203 C185 1.392 . S
C204 C175 1.392 . S
C204 C177 1.389 . S
C205 C180 1.395 . S
C205 C182 1.391 1_565 S
H206 C166 0.951 . S
H207 C167 0.950 . S
H208 C173 0.949 . S
H209 C174 0.950 . S
H210 C178 0.951 . S
H211 C179 0.950 . S
H212 C183 0.949 . S
H213 C184 0.950 . S
H214 C188 0.950 . S
H215 C190 0.950 . S
H216 C193 0.950 . S
H217 C195 0.950 . S
C218 C219 1.443 . S
C218 N222 1.376 . S
C218 C256 1.389 . S
C219 C218 1.443 . S
C219 C220 1.340 . S
C219 H259 0.951 . S
C220 C219 1.340 . S
C220 C221 1.439 . S
C220 H260 0.950 . S
C221 C220 1.439 . S
C221 N222 1.374 . S
C221 C255 1.395 . S
N222 C218 1.376 . S
N222 C221 1.374 . S
N222 Co223 2.008 . S
Co223 N222 2.008 . S
Co223 N224 1.995 1_455 S
Co223 N229 2.008 1_455 S
Co223 N234 1.995 . S
Co223 N239 2.282 1_455 S
Co223 N245 2.282 . S
N224 Co223 1.995 1_655 S
N224 C225 1.376 . S
N224 C228 1.383 . S
C225 N224 1.376 . S
C225 C226 1.446 . S
C225 C255 1.391 1_655 S
C226 C225 1.446 . S
C226 C227 1.339 . S
C226 H261 0.949 . S
C227 C226 1.339 . S
C227 C228 1.439 . S
C227 H262 0.950 . S
C228 N224 1.383 . S
C228 C227 1.439 . S
C228 C257 1.392 . S
N229 Co223 2.008 1_655 S
N229 C230 1.376 . S
N229 C233 1.374 . S
C230 N229 1.376 . S
C230 C231 1.443 . S
C230 C257 1.389 . S
C231 C230 1.443 . S
C231 C232 1.340 . S
C231 H263 0.951 . S
C232 C231 1.340 . S
C232 C233 1.439 . S
C232 H264 0.950 . S
C233 N229 1.374 . S
C233 C232 1.439 . S
C233 C258 1.395 . S
N234 Co223 1.995 . S
N234 C235 1.376 . S
N234 C238 1.383 . S
C235 N234 1.376 . S
C235 C236 1.446 . S
C235 C258 1.391 1_455 S
C236 C235 1.446 . S
C236 C237 1.339 . S
C236 H265 0.949 . S
C237 C236 1.339 . S
C237 C238 1.439 . S
C237 H266 0.950 . S
C238 N234 1.383 . S
C238 C237 1.439 . S
C238 C256 1.392 . S
N239 Co223 2.282 1_655 S
N239 C242 1.332 . S
N239 C244 1.332 . S
C240 C241 1.386 . S
C240 C243 1.388 . S
C241 C240 1.386 . S
C241 C242 1.382 . S
C241 H267 0.950 . S
C242 N239 1.332 . S
C242 C241 1.382 . S
C242 H253 0.952 . S
C243 C240 1.388 . S
C243 C244 1.382 . S
C243 H268 0.950 . S
C244 N239 1.332 . S
C244 C243 1.382 . S
C244 H254 0.948 . S
N245 Co223 2.282 . S
N245 C249 1.332 . S
N245 C250 1.332 . S
C246 C247 1.388 . S
C246 C250 1.382 . S
C246 H269 0.950 . S
C247 C246 1.388 . S
C247 C248 1.386 . S
C248 C247 1.386 . S
C248 C249 1.382 . S
C248 H270 0.950 . S
C249 N245 1.332 . S
C249 C248 1.382 . S
C249 H251 0.952 . S
C250 N245 1.332 . S
C250 C246 1.382 . S
C250 H252 0.948 . S
H251 C249 0.952 . S
H252 C250 0.948 . S
H253 C242 0.952 . S
H254 C244 0.948 . S
C255 C221 1.395 . S
C255 C225 1.391 1_455 S
C256 C218 1.389 . S
C256 C238 1.392 . S
C257 C228 1.392 . S
C257 C230 1.389 . S
C258 C233 1.395 . S
C258 C235 1.391 1_655 S
H259 C219 0.951 . S
H260 C220 0.950 . S
H261 C226 0.949 . S
H262 C227 0.950 . S
H263 C231 0.951 . S
H264 C232 0.950 . S
H265 C236 0.949 . S
H266 C237 0.950 . S
H267 C241 0.950 . S
H268 C243 0.950 . S
H269 C246 0.950 . S
H270 C248 0.950 . S
C271 C272 1.443 . S
C271 N275 1.376 . S
C271 C309 1.389 . S
C272 C271 1.443 . S
C272 C273 1.340 . S
C272 H312 0.951 . S
C273 C272 1.340 . S
C273 C274 1.439 . S
C273 H313 0.950 . S
C274 C273 1.439 . S
C274 N275 1.374 . S
C274 C308 1.395 . S
N275 C271 1.376 . S
N275 C274 1.374 . S
N275 Co276 2.008 1_565 S
Co276 N275 2.008 1_545 S
Co276 N277 1.995 . S
Co276 N282 2.008 . S
Co276 N287 1.995 1_545 S
Co276 N292 2.282 . S
Co276 N298 2.282 1_545 S
N277 Co276 1.995 . S
N277 C278 1.376 . S
N277 C281 1.383 . S
C278 N277 1.376 . S
C278 C279 1.446 . S
C278 C308 1.391 1_545 S
C279 C278 1.446 . S
C279 C280 1.339 . S
C279 H314 0.949 . S
C280 C279 1.339 . S
C280 C281 1.439 . S
C280 H315 0.950 . S
C281 N277 1.383 . S
C281 C280 1.439 . S
C281 C310 1.392 . S
N282 Co276 2.008 . S
N282 C283 1.376 . S
N282 C286 1.374 . S
C283 N282 1.376 . S
C283 C284 1.443 . S
C283 C310 1.389 . S
C284 C283 1.443 . S
C284 C285 1.340 . S
C284 H316 0.951 . S
C285 C284 1.340 . S
C285 C286 1.439 . S
C285 H317 0.950 . S
C286 N282 1.374 . S
C286 C285 1.439 . S
C286 C311 1.395 . S
N287 Co276 1.995 1_565 S
N287 C288 1.376 . S
N287 C291 1.383 . S
C288 N287 1.376 . S
C288 C289 1.446 . S
C288 C311 1.391 1_565 S
C289 C288 1.446 . S
C289 C290 1.339 . S
C289 H318 0.949 . S
C290 C289 1.339 . S
C290 C291 1.439 . S
C290 H319 0.950 . S
C291 N287 1.383 . S
C291 C290 1.439 . S
C291 C309 1.392 . S
N292 Co276 2.282 . S
N292 C295 1.332 . S
N292 C297 1.332 . S
C293 C294 1.386 . S
C293 C296 1.388 . S
C294 C293 1.386 . S
C294 C295 1.382 . S
C294 H320 0.950 . S
C295 N292 1.332 . S
C295 C294 1.382 . S
C295 H306 0.952 . S
C296 C293 1.388 . S
C296 C297 1.382 . S
C296 H321 0.950 . S
C297 N292 1.332 . S
C297 C296 1.382 . S
C297 H307 0.948 . S
N298 Co276 2.282 1_565 S
N298 C302 1.332 . S
N298 C303 1.332 . S
C299 C300 1.388 . S
C299 C303 1.382 . S
C299 H322 0.950 . S
C300 C299 1.388 . S
C300 C301 1.386 . S
C301 C300 1.386 . S
C301 C302 1.382 . S
C301 H323 0.950 . S
C302 N298 1.332 . S
C302 C301 1.382 . S
C302 H304 0.952 . S
C303 N298 1.332 . S
C303 C299 1.382 . S
C303 H305 0.948 . S
H304 C302 0.952 . S
H305 C303 0.948 . S
H306 C295 0.952 . S
H307 C297 0.948 . S
C308 C274 1.395 . S
C308 C278 1.391 1_565 S
C309 C271 1.389 . S
C309 C291 1.392 . S
C310 C281 1.392 . S
C310 C283 1.389 . S
C311 C286 1.395 . S
C311 C288 1.391 1_545 S
H312 C272 0.951 . S
H313 C273 0.950 . S
H314 C279 0.949 . S
H315 C280 0.950 . S
H316 C284 0.951 . S
H317 C285 0.950 . S
H318 C289 0.949 . S
H319 C290 0.950 . S
H320 C294 0.950 . S
H321 C296 0.950 . S
H322 C299 0.950 . S
H323 C301 0.950 . S
C324 C325 1.443 . S
C324 N328 1.376 . S
C324 C362 1.389 . S
C325 C324 1.443 . S
C325 C326 1.340 . S
C325 H365 0.951 . S
C326 C325 1.340 . S
C326 C327 1.439 . S
C326 H366 0.950 . S
C327 C326 1.439 . S
C327 N328 1.374 . S
C327 C361 1.395 . S
N328 C324 1.376 . S
N328 C327 1.374 . S
N328 Co329 2.008 . S
Co329 N328 2.008 . S
Co329 N330 1.994 1_554 S
Co329 N335 2.008 1_554 S
Co329 N340 1.995 . S
Co329 N345 2.283 . S
Co329 N351 2.282 1_554 S
N330 Co329 1.994 1_556 S
N330 C331 1.376 . S
N330 C334 1.383 . S
C331 N330 1.376 . S
C331 C332 1.446 . S
C331 C361 1.391 1_556 S
C332 C331 1.446 . S
C332 C333 1.339 . S
C332 H367 0.949 . S
C333 C332 1.339 . S
C333 C334 1.439 . S
C333 H368 0.950 . S
C334 N330 1.383 . S
C334 C333 1.439 . S
C334 C363 1.392 . S
N335 Co329 2.008 1_556 S
N335 C336 1.376 . S
N335 C339 1.374 . S
C336 N335 1.376 . S
C336 C337 1.443 . S
C336 C363 1.389 . S
C337 C336 1.443 . S
C337 C338 1.340 . S
C337 H369 0.951 . S
C338 C337 1.340 . S
C338 C339 1.439 . S
C338 H370 0.950 . S
C339 N335 1.374 . S
C339 C338 1.439 . S
C339 C364 1.395 . S
N340 Co329 1.995 . S
N340 C341 1.376 . S
N340 C344 1.383 . S
C341 N340 1.376 . S
C341 C342 1.446 . S
C341 C364 1.391 1_554 S
C342 C341 1.446 . S
C342 C343 1.339 . S
C342 H371 0.949 . S
C343 C342 1.339 . S
C343 C344 1.439 . S
C343 H372 0.950 . S
C344 N340 1.383 . S
C344 C343 1.439 . S
C344 C362 1.392 . S
N345 Co329 2.283 . S
N345 C348 1.332 . S
N345 C350 1.332 . S
C346 C347 1.386 . S
C346 C349 1.388 . S
C347 C346 1.386 . S
C347 C348 1.382 . S
C347 H373 0.950 . S
C348 N345 1.332 . S
C348 C347 1.382 . S
C348 H359 0.952 . S
C349 C346 1.388 . S
C349 C350 1.382 . S
C349 H374 0.950 . S
C350 N345 1.332 . S
C350 C349 1.382 . S
C350 H360 0.948 . S
N351 Co329 2.282 1_556 S
N351 C355 1.332 . S
N351 C356 1.332 . S
C352 C353 1.388 . S
C352 C356 1.382 . S
C352 H375 0.950 . S
C353 C352 1.388 . S
C353 C354 1.386 . S
C354 C353 1.386 . S
C354 C355 1.382 . S
C354 H376 0.950 . S
C355 N351 1.332 . S
C355 C354 1.382 . S
C355 H357 0.952 . S
C356 N351 1.332 . S
C356 C352 1.382 . S
C356 H358 0.948 . S
H357 C355 0.952 . S
H358 C356 0.948 . S
H359 C348 0.952 . S
H360 C350 0.948 . S
C361 C327 1.395 . S
C361 C331 1.391 1_554 S
C362 C324 1.389 . S
C362 C344 1.392 . S
C363 C334 1.392 . S
C363 C336 1.389 . S
C364 C339 1.395 . S
C364 C341 1.391 1_556 S
H365 C325 0.951 . S
H366 C326 0.950 . S
H367 C332 0.949 . S
H368 C333 0.950 . S
H369 C337 0.951 . S
H370 C338 0.950 . S
H371 C342 0.949 . S
H372 C343 0.950 . S
H373 C347 0.950 . S
H374 C349 0.950 . S
H375 C352 0.950 . S
H376 C354 0.950 . S
C377 C378 1.443 . S
C377 N381 1.376 . S
C377 C415 1.389 . S
C378 C377 1.443 . S
C378 C379 1.340 . S
C378 H418 0.951 . S
C379 C378 1.340 . S
C379 C380 1.439 . S
C379 H419 0.950 . S
C380 C379 1.439 . S
C380 N381 1.374 . S
C380 C414 1.395 1_554 S
N381 C377 1.376 . S
N381 C380 1.374 . S
N381 Co382 2.008 . S
Co382 N381 2.008 . S
Co382 N383 1.995 1_554 S
Co382 N388 2.008 1_554 S
Co382 N393 1.995 . S
Co382 N398 2.282 . S
Co382 N404 2.282 1_554 S
N383 Co382 1.995 1_556 S
N383 C384 1.376 . S
N383 C387 1.383 . S
C384 N383 1.376 . S
C384 C385 1.446 . S
C384 C414 1.391 . S
C385 C384 1.446 . S
C385 C386 1.339 . S
C385 H420 0.949 . S
C386 C385 1.339 . S
C386 C387 1.439 . S
C386 H421 0.950 . S
C387 N383 1.383 . S
C387 C386 1.439 . S
C387 C416 1.392 . S
N388 Co382 2.008 1_556 S
N388 C389 1.376 . S
N388 C392 1.374 1_556 S
C389 N388 1.376 . S
C389 C390 1.443 . S
C389 C416 1.389 . S
C390 C389 1.443 . S
C390 C391 1.340 . S
C390 H422 0.951 . S
C391 C390 1.340 . S
C391 C392 1.439 1_556 S
C391 H423 0.950 . S
C392 N388 1.374 1_554 S
C392 C391 1.439 1_554 S
C392 C417 1.395 . S
N393 Co382 1.995 . S
N393 C394 1.376 . S
N393 C397 1.383 . S
C394 N393 1.376 . S
C394 C395 1.446 . S
C394 C417 1.391 . S
C395 C394 1.446 . S
C395 C396 1.339 . S
C395 H424 0.949 . S
C396 C395 1.339 . S
C396 C397 1.439 . S
C396 H425 0.950 . S
C397 N393 1.383 . S
C397 C396 1.439 . S
C397 C415 1.392 . S
N398 Co382 2.282 . S
N398 C401 1.332 . S
N398 C403 1.332 . S
C399 C400 1.386 . S
C399 C402 1.388 . S
C400 C399 1.386 . S
C400 C401 1.382 . S
C400 H426 0.950 . S
C401 N398 1.332 . S
C401 C400 1.382 . S
C401 H412 0.952 . S
C402 C399 1.388 . S
C402 C403 1.382 . S
C402 H427 0.950 . S
C403 N398 1.332 . S
C403 C402 1.382 . S
C403 H413 0.948 . S
N404 Co382 2.282 1_556 S
N404 C408 1.332 . S
N404 C409 1.332 . S
C405 C406 1.388 . S
C405 C409 1.382 . S
C405 H428 0.950 . S
C406 C405 1.388 . S
C406 C407 1.386 . S
C407 C406 1.386 . S
C407 C408 1.382 . S
C407 H429 0.950 . S
C408 N404 1.332 . S
C408 C407 1.382 . S
C408 H410 0.952 . S
C409 N404 1.332 . S
C409 C405 1.382 . S
C409 H411 0.948 . S
H410 C408 0.952 . S
H411 C409 0.948 . S
H412 C401 0.952 . S
H413 C403 0.948 . S
C414 C380 1.395 1_556 S
C414 C384 1.391 . S
C415 C377 1.389 . S
C415 C397 1.392 . S
C416 C387 1.392 . S
C416 C389 1.389 . S
C417 C392 1.395 . S
C417 C394 1.391 . S
H418 C378 0.951 . S
H419 C379 0.950 . S
H420 C385 0.949 . S
H421 C386 0.950 . S
H422 C390 0.951 . S
H423 C391 0.950 . S
H424 C395 0.949 . S
H425 C396 0.950 . S
H426 C400 0.950 . S
H427 C402 0.950 . S
H428 C405 0.950 . S
H429 C407 0.950 . S
C430 C431 1.443 . S
C430 N434 1.376 1_556 S
C430 C468 1.389 . S
C431 C430 1.443 . S
C431 C432 1.340 . S
C431 H471 0.951 . S
C432 C431 1.340 . S
C432 C433 1.439 1_556 S
C432 H472 0.950 . S
C433 C432 1.439 1_554 S
C433 N434 1.374 . S
C433 C467 1.395 . S
N434 C430 1.376 1_554 S
N434 C433 1.374 . S
N434 Co435 2.008 . S
Co435 N434 2.008 . S
Co435 N436 1.995 . S
Co435 N441 2.008 . S
Co435 N446 1.995 1_554 S
Co435 N451 2.282 1_554 S
Co435 N457 2.282 . S
N436 Co435 1.995 . S
N436 C437 1.376 . S
N436 C440 1.383 . S
C437 N436 1.376 . S
C437 C438 1.446 . S
C437 C467 1.391 . S
C438 C437 1.446 . S
C438 C439 1.339 . S
C438 H473 0.949 . S
C439 C438 1.339 . S
C439 C440 1.439 . S
C439 H474 0.950 . S
C440 N436 1.383 . S
C440 C439 1.439 . S
C440 C469 1.392 . S
N441 Co435 2.008 . S
N441 C442 1.376 . S
N441 C445 1.374 . S
C442 N441 1.376 . S
C442 C443 1.443 . S
C442 C469 1.389 . S
C443 C442 1.443 . S
C443 C444 1.340 . S
C443 H475 0.951 . S
C444 C443 1.340 . S
C444 C445 1.439 . S
C444 H476 0.950 . S
C445 N441 1.374 . S
C445 C444 1.439 . S
C445 C470 1.395 . S
N446 Co435 1.995 1_556 S
N446 C447 1.376 . S
N446 C450 1.383 . S
C447 N446 1.376 . S
C447 C448 1.446 . S
C447 C470 1.391 1_556 S
C448 C447 1.446 . S
C448 C449 1.339 . S
C448 H477 0.949 . S
C449 C448 1.339 . S
C449 C450 1.439 . S
C449 H478 0.950 . S
C450 N446 1.383 . S
C450 C449 1.439 . S
C450 C468 1.392 . S
N451 Co435 2.282 1_556 S
N451 C454 1.332 . S
N451 C456 1.332 . S
C452 C453 1.386 . S
C452 C455 1.388 . S
C453 C452 1.386 . S
C453 C454 1.382 . S
C453 H479 0.950 . S
C454 N451 1.332 . S
C454 C453 1.382 . S
C454 H465 0.952 . S
C455 C452 1.388 . S
C455 C456 1.382 . S
C455 H480 0.950 . S
C456 N451 1.332 . S
C456 C455 1.382 . S
C456 H466 0.948 . S
N457 Co435 2.282 . S
N457 C461 1.332 . S
N457 C462 1.332 . S
C458 C459 1.388 . S
C458 C462 1.382 . S
C458 H481 0.950 . S
C459 C458 1.388 . S
C459 C460 1.386 . S
C460 C459 1.386 . S
C460 C461 1.382 . S
C460 H482 0.950 . S
C461 N457 1.332 . S
C461 C460 1.382 . S
C461 H463 0.952 . S
C462 N457 1.332 . S
C462 C458 1.382 . S
C462 H464 0.948 . S
H463 C461 0.952 . S
H464 C462 0.948 . S
H465 C454 0.952 . S
H466 C456 0.948 . S
C467 C433 1.395 . S
C467 C437 1.391 . S
C468 C430 1.389 . S
C468 C450 1.392 . S
C469 C440 1.392 . S
C469 C442 1.389 . S
C470 C445 1.395 . S
C470 C447 1.391 1_554 S
H471 C431 0.951 . S
H472 C432 0.950 . S
H473 C438 0.949 . S
H474 C439 0.950 . S
H475 C443 0.951 . S
H476 C444 0.950 . S
H477 C448 0.949 . S
H478 C449 0.950 . S
H479 C453 0.950 . S
H480 C455 0.950 . S
H481 C458 0.950 . S
H482 C460 0.950 . S
C483 C484 1.443 . S
C483 N487 1.376 . S
C483 C521 1.389 . S
C484 C483 1.443 . S
C484 C485 1.340 . S
C484 H524 0.951 . S
C485 C484 1.340 . S
C485 C486 1.439 . S
C485 H525 0.950 . S
C486 C485 1.439 . S
C486 N487 1.374 . S
C486 C520 1.395 1_554 S
N487 C483 1.376 . S
N487 C486 1.374 . S
N487 Co488 2.008 . S
Co488 N487 2.008 . S
Co488 N489 1.995 1_554 S
Co488 N494 2.008 1_554 S
Co488 N499 1.995 . S
Co488 N504 2.282 . S
Co488 N510 2.282 1_554 S
N489 Co488 1.995 1_556 S
N489 C490 1.376 . S
N489 C493 1.383 . S
C490 N489 1.376 . S
C490 C491 1.446 . S
C490 C520 1.391 . S
C491 C490 1.446 . S
C491 C492 1.339 . S
C491 H526 0.949 . S
C492 C491 1.339 . S
C492 C493 1.439 . S
C492 H527 0.950 . S
C493 N489 1.383 . S
C493 C492 1.439 . S
C493 C522 1.392 . S
N494 Co488 2.008 1_556 S
N494 C495 1.376 . S
N494 C498 1.374 1_556 S
C495 N494 1.376 . S
C495 C496 1.443 . S
C495 C522 1.389 . S
C496 C495 1.443 . S
C496 C497 1.340 . S
C496 H528 0.951 . S
C497 C496 1.340 . S
C497 C498 1.439 1_556 S
C497 H529 0.950 . S
C498 N494 1.374 1_554 S
C498 C497 1.439 1_554 S
C498 C523 1.395 . S
N499 Co488 1.995 . S
N499 C500 1.376 . S
N499 C503 1.383 . S
C500 N499 1.376 . S
C500 C501 1.446 . S
C500 C523 1.391 . S
C501 C500 1.446 . S
C501 C502 1.339 . S
C501 H530 0.949 . S
C502 C501 1.339 . S
C502 C503 1.439 . S
C502 H531 0.950 . S
C503 N499 1.383 . S
C503 C502 1.439 . S
C503 C521 1.392 . S
N504 Co488 2.282 . S
N504 C507 1.332 . S
N504 C509 1.332 . S
C505 C506 1.386 . S
C505 C508 1.388 . S
C506 C505 1.386 . S
C506 C507 1.382 . S
C506 H532 0.950 . S
C507 N504 1.332 . S
C507 C506 1.382 . S
C507 H518 0.952 . S
C508 C505 1.388 . S
C508 C509 1.382 . S
C508 H533 0.950 . S
C509 N504 1.332 . S
C509 C508 1.382 . S
C509 H519 0.948 . S
N510 Co488 2.282 1_556 S
N510 C514 1.332 . S
N510 C515 1.332 . S
C511 C512 1.388 . S
C511 C515 1.382 . S
C511 H534 0.950 . S
C512 C511 1.388 . S
C512 C513 1.386 . S
C513 C512 1.386 . S
C513 C514 1.382 . S
C513 H535 0.950 . S
C514 N510 1.332 . S
C514 C513 1.382 . S
C514 H516 0.952 . S
C515 N510 1.332 . S
C515 C511 1.382 . S
C515 H517 0.948 . S
H516 C514 0.952 . S
H517 C515 0.948 . S
H518 C507 0.952 . S
H519 C509 0.948 . S
C520 C486 1.395 1_556 S
C520 C490 1.391 . S
C521 C483 1.389 . S
C521 C503 1.392 . S
C522 C493 1.392 . S
C522 C495 1.389 . S
C523 C498 1.395 . S
C523 C500 1.391 . S
H524 C484 0.951 . S
H525 C485 0.950 . S
H526 C491 0.949 . S
H527 C492 0.950 . S
H528 C496 0.951 . S
H529 C497 0.950 . S
H530 C501 0.949 . S
H531 C502 0.950 . S
H532 C506 0.950 . S
H533 C508 0.950 . S
H534 C511 0.950 . S
H535 C513 0.950 . S
C536 C537 1.363 . S
C536 C542 1.379 . S
C536 N544 1.356 . S
C537 C536 1.363 . S
C537 C543 1.363 . S
C538 C539 1.363 . S
C538 C543 1.379 . S
C538 N545 1.356 . S
C539 C538 1.363 . S
C539 C542 1.363 . S
N540 C542 1.356 . S
N540 H552 0.984 . S
N540 H553 0.985 . S
N541 C543 1.356 . S
N541 H546 0.984 . S
N541 H547 0.985 . S
C542 C536 1.379 . S
C542 C539 1.363 . S
C542 N540 1.356 . S
C543 C537 1.363 . S
C543 C538 1.379 . S
C543 N541 1.356 . S
N544 C536 1.356 . S
N544 H550 0.984 . S
N544 H551 0.984 . S
N545 C538 1.356 . S
N545 H548 0.984 . S
N545 H549 0.985 . S
H546 N541 0.984 . S
H547 N541 0.985 . S
H548 N545 0.984 . S
H549 N545 0.985 . S
H550 N544 0.984 . S
H551 N544 0.984 . S
H552 N540 0.984 . S
H553 N540 0.985 . S
C554 C555 1.363 . S
C554 C560 1.379 . S
C554 N562 1.356 . S
C555 C554 1.363 . S
C555 C561 1.363 . S
C556 C557 1.363 . S
C556 C561 1.379 . S
C556 N563 1.356 . S
C557 C556 1.363 . S
C557 C560 1.363 . S
N558 C560 1.356 . S
N558 H570 0.984 . S
N558 H571 0.985 . S
N559 C561 1.356 . S
N559 H564 0.984 . S
N559 H565 0.985 . S
C560 C554 1.379 . S
C560 C557 1.363 . S
C560 N558 1.356 . S
C561 C555 1.363 . S
C561 C556 1.379 . S
C561 N559 1.356 . S
N562 C554 1.356 . S
N562 H568 0.984 . S
N562 H569 0.984 . S
N563 C556 1.356 . S
N563 H566 0.984 . S
N563 H567 0.985 . S
H564 N559 0.984 . S
H565 N559 0.985 . S
H566 N563 0.984 . S
H567 N563 0.985 . S
H568 N562 0.984 . S
H569 N562 0.984 . S
H570 N558 0.984 . S
H571 N558 0.985 . S
C572 C573 1.363 . S
C572 C578 1.379 . S
C572 N580 1.356 . S
C573 C572 1.363 . S
C573 C579 1.363 . S
C574 C575 1.363 . S
C574 C579 1.379 . S
C574 N581 1.356 . S
C575 C574 1.363 . S
C575 C578 1.363 . S
N576 C578 1.356 . S
N576 H588 0.984 . S
N576 H589 0.985 . S
N577 C579 1.356 . S
N577 H582 0.984 . S
N577 H583 0.985 . S
C578 C572 1.379 . S
C578 C575 1.363 . S
C578 N576 1.356 . S
C579 C573 1.363 . S
C579 C574 1.379 . S
C579 N577 1.356 . S
N580 C572 1.356 . S
N580 H586 0.984 . S
N580 H587 0.984 . S
N581 C574 1.356 . S
N581 H584 0.984 . S
N581 H585 0.985 . S
H582 N577 0.984 . S
H583 N577 0.985 . S
H584 N581 0.984 . S
H585 N581 0.985 . S
H586 N580 0.984 . S
H587 N580 0.984 . S
H588 N576 0.984 . S
H589 N576 0.985 . S
C590 C591 1.363 . S
C590 C596 1.379 . S
C590 N598 1.356 . S
C591 C590 1.363 . S
C591 C597 1.363 . S
C592 C593 1.363 . S
C592 C597 1.379 . S
C592 N599 1.356 . S
C593 C592 1.363 . S
C593 C596 1.363 . S
N594 C596 1.356 . S
N594 H606 0.984 . S
N594 H607 0.985 . S
N595 C597 1.356 . S
N595 H600 0.984 . S
N595 H601 0.985 . S
C596 C590 1.379 . S
C596 C593 1.363 . S
C596 N594 1.356 . S
C597 C591 1.363 . S
C597 C592 1.379 . S
C597 N595 1.356 . S
N598 C590 1.356 . S
N598 H604 0.984 . S
N598 H605 0.984 . S
N599 C592 1.356 . S
N599 H602 0.984 . S
N599 H603 0.985 . S
H600 N595 0.984 . S
H601 N595 0.985 . S
H602 N599 0.984 . S
H603 N599 0.985 . S
H604 N598 0.984 . S
H605 N598 0.984 . S
H606 N594 0.984 . S
H607 N594 0.985 . S
C608 C609 1.363 . S
C608 C614 1.379 . S
C608 N616 1.356 . S
C609 C608 1.363 . S
C609 C615 1.363 . S
C610 C611 1.363 . S
C610 C615 1.379 . S
C610 N617 1.356 . S
C611 C610 1.363 . S
C611 C614 1.363 . S
N612 C614 1.356 . S
N612 H624 0.984 . S
N612 H625 0.985 . S
N613 C615 1.356 . S
N613 H618 0.984 . S
N613 H619 0.985 . S
C614 C608 1.379 . S
C614 C611 1.363 . S
C614 N612 1.356 . S
C615 C609 1.363 . S
C615 C610 1.379 . S
C615 N613 1.356 . S
N616 C608 1.356 . S
N616 H622 0.984 . S
N616 H623 0.984 . S
N617 C610 1.356 . S
N617 H620 0.984 . S
N617 H621 0.985 . S
H618 N613 0.984 . S
H619 N613 0.985 . S
H620 N617 0.984 . S
H621 N617 0.985 . S
H622 N616 0.984 . S
H623 N616 0.984 . S
H624 N612 0.984 . S
H625 N612 0.985 . S
C626 C627 1.363 . S
C626 C632 1.379 . S
C626 N634 1.356 . S
C627 C626 1.363 . S
C627 C633 1.363 . S
C628 C629 1.363 . S
C628 C633 1.379 . S
C628 N635 1.356 . S
C629 C628 1.363 . S
C629 C632 1.363 . S
N630 C632 1.356 . S
N630 H642 0.984 . S
N630 H643 0.985 . S
N631 C633 1.356 . S
N631 H636 0.984 . S
N631 H637 0.985 . S
C632 C626 1.379 . S
C632 C629 1.363 . S
C632 N630 1.356 . S
C633 C627 1.363 . S
C633 C628 1.379 . S
C633 N631 1.356 . S
N634 C626 1.356 . S
N634 H640 0.984 . S
N634 H641 0.984 . S
N635 C628 1.356 . S
N635 H638 0.984 . S
N635 H639 0.985 . S
H636 N631 0.984 . S
H637 N631 0.985 . S
H638 N635 0.984 . S
H639 N635 0.985 . S
H640 N634 0.984 . S
H641 N634 0.984 . S
H642 N630 0.984 . S
H643 N630 0.985 . S
C644 C645 1.363 . S
C644 C650 1.379 . S
C644 N652 1.356 . S
C645 C644 1.363 . S
C645 C651 1.363 . S
C646 C647 1.363 . S
C646 C651 1.379 . S
C646 N653 1.356 . S
C647 C646 1.363 . S
C647 C650 1.363 . S
N648 C650 1.356 . S
N648 H660 0.984 . S
N648 H661 0.985 . S
N649 C651 1.356 . S
N649 H654 0.984 . S
N649 H655 0.985 . S
C650 C644 1.379 . S
C650 C647 1.363 . S
C650 N648 1.356 . S
C651 C645 1.363 . S
C651 C646 1.379 . S
C651 N649 1.356 . S
N652 C644 1.356 . S
N652 H658 0.984 . S
N652 H659 0.984 . S
N653 C646 1.356 . S
N653 H656 0.984 . S
N653 H657 0.985 . S
H654 N649 0.984 . S
H655 N649 0.985 . S
H656 N653 0.984 . S
H657 N653 0.985 . S
H658 N652 0.984 . S
H659 N652 0.984 . S
H660 N648 0.984 . S
H661 N648 0.985 . S
C662 C663 1.363 . S
C662 C668 1.379 . S
C662 N670 1.356 . S
C663 C662 1.363 . S
C663 C669 1.363 . S
C664 C665 1.363 . S
C664 C669 1.379 . S
C664 N671 1.356 . S
C665 C664 1.363 . S
C665 C668 1.363 . S
N666 C668 1.356 . S
N666 H678 0.984 . S
N666 H679 0.985 . S
N667 C669 1.356 . S
N667 H672 0.984 . S
N667 H673 0.985 . S
C668 C662 1.379 . S
C668 C665 1.363 . S
C668 N666 1.356 . S
C669 C663 1.363 . S
C669 C664 1.379 . S
C669 N667 1.356 . S
N670 C662 1.356 . S
N670 H676 0.984 . S
N670 H677 0.984 . S
N671 C664 1.356 . S
N671 H674 0.984 . S
N671 H675 0.985 . S
H672 N667 0.984 . S
H673 N667 0.985 . S
H674 N671 0.984 . S
H675 N671 0.985 . S
H676 N670 0.984 . S
H677 N670 0.984 . S
H678 N666 0.984 . S
H679 N666 0.985 . S
C680 C681 1.363 . S
C680 C686 1.379 . S
C680 N688 1.356 . S
C681 C680 1.363 . S
C681 C687 1.363 . S
C682 C683 1.363 . S
C682 C687 1.379 . S
C682 N689 1.356 . S
C683 C682 1.363 . S
C683 C686 1.363 . S
N684 C686 1.356 . S
N684 H696 0.984 . S
N684 H697 0.985 . S
N685 C687 1.356 . S
N685 H690 0.984 . S
N685 H691 0.985 . S
C686 C680 1.379 . S
C686 C683 1.363 . S
C686 N684 1.356 . S
C687 C681 1.363 . S
C687 C682 1.379 . S
C687 N685 1.356 . S
N688 C680 1.356 . S
N688 H694 0.984 . S
N688 H695 0.984 . S
N689 C682 1.356 . S
N689 H692 0.984 . S
N689 H693 0.985 . S
H690 N685 0.984 . S
H691 N685 0.985 . S
H692 N689 0.984 . S
H693 N689 0.985 . S
H694 N688 0.984 . S
H695 N688 0.984 . S
H696 N684 0.984 . S
H697 N684 0.985 . S
C698 C699 1.363 . S
C698 C704 1.379 . S
C698 N706 1.356 . S
C699 C698 1.363 . S
C699 C705 1.363 . S
C700 C701 1.363 . S
C700 C705 1.379 . S
C700 N707 1.356 . S
C701 C700 1.363 . S
C701 C704 1.363 . S
N702 C704 1.356 . S
N702 H714 0.984 . S
N702 H715 0.985 . S
N703 C705 1.356 . S
N703 H708 0.984 . S
N703 H709 0.985 . S
C704 C698 1.379 . S
C704 C701 1.363 . S
C704 N702 1.356 . S
C705 C699 1.363 . S
C705 C700 1.379 . S
C705 N703 1.356 . S
N706 C698 1.356 . S
N706 H712 0.984 . S
N706 H713 0.984 . S
N707 C700 1.356 . S
N707 H710 0.984 . S
N707 H711 0.985 . S
H708 N703 0.984 . S
H709 N703 0.985 . S
H710 N707 0.984 . S
H711 N707 0.985 . S
H712 N706 0.984 . S
H713 N706 0.984 . S
H714 N702 0.984 . S
H715 N702 0.985 . S
C716 C717 1.363 . S
C716 C722 1.379 . S
C716 N724 1.356 . S
C717 C716 1.363 . S
C717 C723 1.363 . S
C718 C719 1.363 . S
C718 C723 1.379 . S
C718 N725 1.356 . S
C719 C718 1.363 . S
C719 C722 1.363 . S
N720 C722 1.356 . S
N720 H732 0.984 . S
N720 H733 0.985 . S
N721 C723 1.356 . S
N721 H726 0.984 . S
N721 H727 0.985 . S
C722 C716 1.379 . S
C722 C719 1.363 . S
C722 N720 1.356 . S
C723 C717 1.363 . S
C723 C718 1.379 . S
C723 N721 1.356 . S
N724 C716 1.356 . S
N724 H730 0.984 . S
N724 H731 0.984 . S
N725 C718 1.356 . S
N725 H728 0.984 . S
N725 H729 0.985 . S
H726 N721 0.984 . S
H727 N721 0.985 . S
H728 N725 0.984 . S
H729 N725 0.985 . S
H730 N724 0.984 . S
H731 N724 0.984 . S
H732 N720 0.984 . S
H733 N720 0.985 . S
C734 C735 1.363 . S
C734 C740 1.379 . S
C734 N742 1.356 . S
C735 C734 1.363 . S
C735 C741 1.363 . S
C736 C737 1.363 . S
C736 C741 1.379 . S
C736 N743 1.356 . S
C737 C736 1.363 . S
C737 C740 1.363 . S
N738 C740 1.356 . S
N738 H750 0.984 . S
N738 H751 0.985 . S
N739 C741 1.356 . S
N739 H744 0.984 . S
N739 H745 0.985 . S
C740 C734 1.379 . S
C740 C737 1.363 . S
C740 N738 1.356 . S
C741 C735 1.363 . S
C741 C736 1.379 . S
C741 N739 1.356 . S
N742 C734 1.356 . S
N742 H748 0.984 . S
N742 H749 0.984 . S
N743 C736 1.356 . S
N743 H746 0.984 . S
N743 H747 0.985 . S
H744 N739 0.984 . S
H745 N739 0.985 . S
H746 N743 0.984 . S
H747 N743 0.985 . S
H748 N742 0.984 . S
H749 N742 0.984 . S
H750 N738 0.984 . S
H751 N738 0.985 . S
C752 C753 1.363 . S
C752 C758 1.379 . S
C752 N760 1.356 . S
C753 C752 1.363 . S
C753 C759 1.363 . S
C754 C755 1.363 . S
C754 C759 1.379 . S
C754 N761 1.356 . S
C755 C754 1.363 . S
C755 C758 1.363 . S
N756 C758 1.356 . S
N756 H768 0.984 . S
N756 H769 0.985 . S
N757 C759 1.356 . S
N757 H762 0.984 . S
N757 H763 0.985 . S
C758 C752 1.379 . S
C758 C755 1.363 . S
C758 N756 1.356 . S
C759 C753 1.363 . S
C759 C754 1.379 . S
C759 N757 1.356 . S
N760 C752 1.356 . S
N760 H766 0.984 . S
N760 H767 0.984 . S
N761 C754 1.356 . S
N761 H764 0.984 . S
N761 H765 0.985 . S
H762 N757 0.984 . S
H763 N757 0.985 . S
H764 N761 0.984 . S
H765 N761 0.985 . S
H766 N760 0.984 . S
H767 N760 0.984 . S
H768 N756 0.984 . S
H769 N756 0.985 . S
C770 C771 1.363 . S
C770 C776 1.379 . S
C770 N778 1.356 . S
C771 C770 1.363 . S
C771 C777 1.363 . S
C772 C773 1.363 . S
C772 C777 1.379 . S
C772 N779 1.356 . S
C773 C772 1.363 . S
C773 C776 1.363 . S
N774 C776 1.356 . S
N774 H786 0.984 . S
N774 H787 0.985 . S
N775 C777 1.356 . S
N775 H780 0.984 . S
N775 H781 0.985 . S
C776 C770 1.379 . S
C776 C773 1.363 . S
C776 N774 1.356 . S
C777 C771 1.363 . S
C777 C772 1.379 . S
C777 N775 1.356 . S
N778 C770 1.356 . S
N778 H784 0.984 . S
N778 H785 0.984 . S
N779 C772 1.356 . S
N779 H782 0.984 . S
N779 H783 0.985 . S
H780 N775 0.984 . S
H781 N775 0.985 . S
H782 N779 0.984 . S
H783 N779 0.985 . S
H784 N778 0.984 . S
H785 N778 0.984 . S
H786 N774 0.984 . S
H787 N774 0.985 . S
C788 C789 1.363 . S
C788 C794 1.379 . S
C788 N796 1.356 . S
C789 C788 1.363 . S
C789 C795 1.363 . S
C790 C791 1.363 . S
C790 C795 1.379 . S
C790 N797 1.356 . S
C791 C790 1.363 . S
C791 C794 1.363 . S
N792 C794 1.356 . S
N792 H804 0.984 . S
N792 H805 0.985 . S
N793 C795 1.356 . S
N793 H798 0.984 . S
N793 H799 0.985 . S
C794 C788 1.379 . S
C794 C791 1.363 . S
C794 N792 1.356 . S
C795 C789 1.363 . S
C795 C790 1.379 . S
C795 N793 1.356 . S
N796 C788 1.356 . S
N796 H802 0.984 . S
N796 H803 0.984 . S
N797 C790 1.356 . S
N797 H800 0.984 . S
N797 H801 0.985 . S
H798 N793 0.984 . S
H799 N793 0.985 . S
H800 N797 0.984 . S
H801 N797 0.985 . S
H802 N796 0.984 . S
H803 N796 0.984 . S
H804 N792 0.984 . S
H805 N792 0.985 . S
C806 C807 1.363 . S
C806 C812 1.379 . S
C806 N814 1.356 . S
C807 C806 1.363 . S
C807 C813 1.363 . S
C808 C809 1.363 . S
C808 C813 1.379 . S
C808 N815 1.356 . S
C809 C808 1.363 . S
C809 C812 1.363 . S
N810 C812 1.356 . S
N810 H822 0.984 . S
N810 H823 0.985 . S
N811 C813 1.356 . S
N811 H816 0.984 . S
N811 H817 0.985 . S
C812 C806 1.379 . S
C812 C809 1.363 . S
C812 N810 1.356 . S
C813 C807 1.363 . S
C813 C808 1.379 . S
C813 N811 1.356 . S
N814 C806 1.356 . S
N814 H820 0.984 . S
N814 H821 0.984 . S
N815 C808 1.356 . S
N815 H818 0.984 . S
N815 H819 0.985 . S
H816 N811 0.984 . S
H817 N811 0.985 . S
H818 N815 0.984 . S
H819 N815 0.985 . S
H820 N814 0.984 . S
H821 N814 0.984 . S
H822 N810 0.984 . S
H823 N810 0.985 . S
C824 C825 1.363 . S
C824 C830 1.379 . S
C824 N832 1.356 . S
C825 C824 1.363 . S
C825 C831 1.363 . S
C826 C827 1.363 . S
C826 C831 1.379 . S
C826 N833 1.356 . S
C827 C826 1.363 . S
C827 C830 1.363 . S
N828 C830 1.356 . S
N828 H840 0.984 . S
N828 H841 0.985 . S
N829 C831 1.356 . S
N829 H834 0.984 . S
N829 H835 0.985 . S
C830 C824 1.379 . S
C830 C827 1.363 . S
C830 N828 1.356 . S
C831 C825 1.363 . S
C831 C826 1.379 . S
C831 N829 1.356 . S
N832 C824 1.356 . S
N832 H838 0.984 . S
N832 H839 0.984 . S
N833 C826 1.356 . S
N833 H836 0.984 . S
N833 H837 0.985 . S
H834 N829 0.984 . S
H835 N829 0.985 . S
H836 N833 0.984 . S
H837 N833 0.985 . S
H838 N832 0.984 . S
H839 N832 0.984 . S
H840 N828 0.984 . S
H841 N828 0.985 . S
C842 C843 1.363 . S
C842 C848 1.379 . S
C842 N850 1.356 . S
C843 C842 1.363 . S
C843 C849 1.363 . S
C844 C845 1.363 . S
C844 C849 1.379 . S
C844 N851 1.356 . S
C845 C844 1.363 . S
C845 C848 1.363 . S
N846 C848 1.356 . S
N846 H858 0.984 . S
N846 H859 0.985 . S
N847 C849 1.356 . S
N847 H852 0.984 . S
N847 H853 0.985 . S
C848 C842 1.379 . S
C848 C845 1.363 . S
C848 N846 1.356 . S
C849 C843 1.363 . S
C849 C844 1.379 . S
C849 N847 1.356 . S
N850 C842 1.356 . S
N850 H856 0.984 . S
N850 H857 0.984 . S
N851 C844 1.356 . S
N851 H854 0.984 . S
N851 H855 0.985 . S
H852 N847 0.984 . S
H853 N847 0.985 . S
H854 N851 0.984 . S
H855 N851 0.985 . S
H856 N850 0.984 . S
H857 N850 0.984 . S
H858 N846 0.984 . S
H859 N846 0.985 . S
C860 C861 1.363 . S
C860 C866 1.379 . S
C860 N868 1.356 . S
C861 C860 1.363 . S
C861 C867 1.363 . S
C862 C863 1.363 . S
C862 C867 1.379 . S
C862 N869 1.356 . S
C863 C862 1.363 . S
C863 C866 1.363 . S
N864 C866 1.356 . S
N864 H876 0.984 . S
N864 H877 0.985 . S
N865 C867 1.356 . S
N865 H870 0.984 . S
N865 H871 0.985 . S
C866 C860 1.379 . S
C866 C863 1.363 . S
C866 N864 1.356 . S
C867 C861 1.363 . S
C867 C862 1.379 . S
C867 N865 1.356 . S
N868 C860 1.356 . S
N868 H874 0.984 . S
N868 H875 0.984 . S
N869 C862 1.356 . S
N869 H872 0.984 . S
N869 H873 0.985 . S
H870 N865 0.984 . S
H871 N865 0.985 . S
H872 N869 0.984 . S
H873 N869 0.985 . S
H874 N868 0.984 . S
H875 N868 0.984 . S
H876 N864 0.984 . S
H877 N864 0.985 . S
C878 C879 1.363 . S
C878 C884 1.379 . S
C878 N886 1.356 . S
C879 C878 1.363 . S
C879 C885 1.363 . S
C880 C881 1.363 . S
C880 C885 1.379 . S
C880 N887 1.356 . S
C881 C880 1.363 . S
C881 C884 1.363 . S
N882 C884 1.356 . S
N882 H894 0.984 . S
N882 H895 0.985 . S
N883 C885 1.356 . S
N883 H888 0.984 . S
N883 H889 0.985 . S
C884 C878 1.379 . S
C884 C881 1.363 . S
C884 N882 1.356 . S
C885 C879 1.363 . S
C885 C880 1.379 . S
C885 N883 1.356 . S
N886 C878 1.356 . S
N886 H892 0.984 . S
N886 H893 0.984 . S
N887 C880 1.356 . S
N887 H890 0.984 . S
N887 H891 0.985 . S
H888 N883 0.984 . S
H889 N883 0.985 . S
H890 N887 0.984 . S
H891 N887 0.985 . S
H892 N886 0.984 . S
H893 N886 0.984 . S
H894 N882 0.984 . S
H895 N882 0.985 . S
C896 C897 1.363 . S
C896 C902 1.379 . S
C896 N904 1.356 . S
C897 C896 1.363 . S
C897 C903 1.363 . S
C898 C899 1.363 . S
C898 C903 1.379 . S
C898 N905 1.356 . S
C899 C898 1.363 . S
C899 C902 1.363 . S
N900 C902 1.356 . S
N900 H912 0.984 . S
N900 H913 0.985 . S
N901 C903 1.356 . S
N901 H906 0.984 . S
N901 H907 0.985 . S
C902 C896 1.379 . S
C902 C899 1.363 . S
C902 N900 1.356 . S
C903 C897 1.363 . S
C903 C898 1.379 . S
C903 N901 1.356 . S
N904 C896 1.356 . S
N904 H910 0.984 . S
N904 H911 0.984 . S
N905 C898 1.356 . S
N905 H908 0.984 . S
N905 H909 0.985 . S
H906 N901 0.984 . S
H907 N901 0.985 . S
H908 N905 0.984 . S
H909 N905 0.985 . S
H910 N904 0.984 . S
H911 N904 0.984 . S
H912 N900 0.984 . S
H913 N900 0.985 . S
C914 C915 1.363 . S
C914 C920 1.379 . S
C914 N922 1.356 . S
C915 C914 1.363 . S
C915 C921 1.363 . S
C916 C917 1.363 . S
C916 C921 1.379 . S
C916 N923 1.356 . S
C917 C916 1.363 . S
C917 C920 1.363 . S
N918 C920 1.356 . S
N918 H930 0.984 . S
N918 H931 0.985 . S
N919 C921 1.356 . S
N919 H924 0.984 . S
N919 H925 0.985 . S
C920 C914 1.379 . S
C920 C917 1.363 . S
C920 N918 1.356 . S
C921 C915 1.363 . S
C921 C916 1.379 . S
C921 N919 1.356 . S
N922 C914 1.356 . S
N922 H928 0.984 . S
N922 H929 0.984 . S
N923 C916 1.356 . S
N923 H926 0.984 . S
N923 H927 0.985 . S
H924 N919 0.984 . S
H925 N919 0.985 . S
H926 N923 0.984 . S
H927 N923 0.985 . S
H928 N922 0.984 . S
H929 N922 0.984 . S
H930 N918 0.984 . S
H931 N918 0.985 . S
C932 C933 1.363 . S
C932 C938 1.379 . S
C932 N940 1.356 . S
C933 C932 1.363 . S
C933 C939 1.363 . S
C934 C935 1.363 . S
C934 C939 1.379 . S
C934 N941 1.356 . S
C935 C934 1.363 . S
C935 C938 1.363 . S
N936 C938 1.356 . S
N936 H948 0.984 . S
N936 H949 0.985 . S
N937 C939 1.356 . S
N937 H942 0.984 . S
N937 H943 0.985 . S
C938 C932 1.379 . S
C938 C935 1.363 . S
C938 N936 1.356 . S
C939 C933 1.363 . S
C939 C934 1.379 . S
C939 N937 1.356 . S
N940 C932 1.356 . S
N940 H946 0.984 . S
N940 H947 0.984 . S
N941 C934 1.356 . S
N941 H944 0.984 . S
N941 H945 0.985 . S
H942 N937 0.984 . S
H943 N937 0.985 . S
H944 N941 0.984 . S
H945 N941 0.985 . S
H946 N940 0.984 . S
H947 N940 0.984 . S
H948 N936 0.984 . S
H949 N936 0.985 . S
C950 C951 1.363 . S
C950 C956 1.379 . S
C950 N958 1.356 . S
C951 C950 1.363 . S
C951 C957 1.363 . S
C952 C953 1.363 . S
C952 C957 1.379 . S
C952 N959 1.356 . S
C953 C952 1.363 . S
C953 C956 1.363 . S
N954 C956 1.356 . S
N954 H966 0.984 . S
N954 H967 0.985 . S
N955 C957 1.356 . S
N955 H960 0.984 . S
N955 H961 0.985 . S
C956 C950 1.379 . S
C956 C953 1.363 . S
C956 N954 1.356 . S
C957 C951 1.363 . S
C957 C952 1.379 . S
C957 N955 1.356 . S
N958 C950 1.356 . S
N958 H964 0.984 . S
N958 H965 0.984 . S
N959 C952 1.356 . S
N959 H962 0.984 . S
N959 H963 0.985 . S
H960 N955 0.984 . S
H961 N955 0.985 . S
H962 N959 0.984 . S
H963 N959 0.985 . S
H964 N958 0.984 . S
H965 N958 0.984 . S
H966 N954 0.984 . S
H967 N954 0.985 . S
C968 C969 1.363 . S
C968 C974 1.379 . S
C968 N976 1.356 . S
C969 C968 1.363 . S
C969 C975 1.363 . S
C970 C971 1.363 . S
C970 C975 1.379 . S
C970 N977 1.356 . S
C971 C970 1.363 . S
C971 C974 1.363 . S
N972 C974 1.356 . S
N972 H984 0.984 . S
N972 H985 0.985 . S
N973 C975 1.356 . S
N973 H978 0.984 . S
N973 H979 0.985 . S
C974 C968 1.379 . S
C974 C971 1.363 . S
C974 N972 1.356 . S
C975 C969 1.363 . S
C975 C970 1.379 . S
C975 N973 1.356 . S
N976 C968 1.356 . S
N976 H982 0.984 . S
N976 H983 0.984 . S
N977 C970 1.356 . S
N977 H980 0.984 . S
N977 H981 0.985 . S
H978 N973 0.984 . S
H979 N973 0.985 . S
H980 N977 0.984 . S
H981 N977 0.985 . S
H982 N976 0.984 . S
H983 N976 0.984 . S
H984 N972 0.984 . S
H985 N972 0.985 . S
C986 C987 1.363 . S
C986 C992 1.379 . S
C986 N994 1.356 . S
C987 C986 1.363 . S
C987 C993 1.363 . S
C988 C989 1.363 . S
C988 C993 1.379 . S
C988 N995 1.356 . S
C989 C988 1.363 . S
C989 C992 1.363 . S
N990 C992 1.356 . S
N990 H1002 0.984 . S
N990 H1003 0.985 . S
N991 C993 1.356 . S
N991 H996 0.984 . S
N991 H997 0.985 . S
C992 C986 1.379 . S
C992 C989 1.363 . S
C992 N990 1.356 . S
C993 C987 1.363 . S
C993 C988 1.379 . S
C993 N991 1.356 . S
N994 C986 1.356 . S
N994 H1000 0.984 . S
N994 H1001 0.984 . S
N995 C988 1.356 . S
N995 H998 0.984 . S
N995 H999 0.985 . S
H996 N991 0.984 . S
H997 N991 0.985 . S
H998 N995 0.984 . S
H999 N995 0.985 . S
H1000 N994 0.984 . S
H1001 N994 0.984 . S
H1002 N990 0.984 . S
H1003 N990 0.985 . S
C1004 C1005 1.363 . S
C1004 C1010 1.379 . S
C1004 N1012 1.356 . S
C1005 C1004 1.363 . S
C1005 C1011 1.363 . S
C1006 C1007 1.363 . S
C1006 C1011 1.379 . S
C1006 N1013 1.356 . S
C1007 C1006 1.363 . S
C1007 C1010 1.363 . S
N1008 C1010 1.356 . S
N1008 H1020 0.984 . S
N1008 H1021 0.985 . S
N1009 C1011 1.356 . S
N1009 H1014 0.984 . S
N1009 H1015 0.985 . S
C1010 C1004 1.379 . S
C1010 C1007 1.363 . S
C1010 N1008 1.356 . S
C1011 C1005 1.363 . S
C1011 C1006 1.379 . S
C1011 N1009 1.356 . S
N1012 C1004 1.356 . S
N1012 H1018 0.984 . S
N1012 H1019 0.984 . S
N1013 C1006 1.356 . S
N1013 H1016 0.984 . S
N1013 H1017 0.985 . S
H1014 N1009 0.984 . S
H1015 N1009 0.985 . S
H1016 N1013 0.984 . S
H1017 N1013 0.985 . S
H1018 N1012 0.984 . S
H1019 N1012 0.984 . S
H1020 N1008 0.984 . S
H1021 N1008 0.985 . S
C1022 C1023 1.363 . S
C1022 C1028 1.379 . S
C1022 N1030 1.356 . S
C1023 C1022 1.363 . S
C1023 C1029 1.363 . S
C1024 C1025 1.363 . S
C1024 C1029 1.379 . S
C1024 N1031 1.356 . S
C1025 C1024 1.363 . S
C1025 C1028 1.363 . S
N1026 C1028 1.356 . S
N1026 H1038 0.984 . S
N1026 H1039 0.985 . S
N1027 C1029 1.356 . S
N1027 H1032 0.984 . S
N1027 H1033 0.985 . S
C1028 C1022 1.379 . S
C1028 C1025 1.363 . S
C1028 N1026 1.356 . S
C1029 C1023 1.363 . S
C1029 C1024 1.379 . S
C1029 N1027 1.356 . S
N1030 C1022 1.356 . S
N1030 H1036 0.984 . S
N1030 H1037 0.984 . S
N1031 C1024 1.356 . S
N1031 H1034 0.984 . S
N1031 H1035 0.985 . S
H1032 N1027 0.984 . S
H1033 N1027 0.985 . S
H1034 N1031 0.984 . S
H1035 N1031 0.985 . S
H1036 N1030 0.984 . S
H1037 N1030 0.984 . S
H1038 N1026 0.984 . S
H1039 N1026 0.985 . S
C1040 C1041 1.363 . S
C1040 C1046 1.379 . S
C1040 N1048 1.356 . S
C1041 C1040 1.363 . S
C1041 C1047 1.363 . S
C1042 C1043 1.363 . S
C1042 C1047 1.379 . S
C1042 N1049 1.356 . S
C1043 C1042 1.363 . S
C1043 C1046 1.363 . S
N1044 C1046 1.356 . S
N1044 H1056 0.984 . S
N1044 H1057 0.985 . S
N1045 C1047 1.356 . S
N1045 H1050 0.984 . S
N1045 H1051 0.985 . S
C1046 C1040 1.379 . S
C1046 C1043 1.363 . S
C1046 N1044 1.356 . S
C1047 C1041 1.363 . S
C1047 C1042 1.379 . S
C1047 N1045 1.356 . S
N1048 C1040 1.356 . S
N1048 H1054 0.984 . S
N1048 H1055 0.984 . S
N1049 C1042 1.356 . S
N1049 H1052 0.984 . S
N1049 H1053 0.985 . S
H1050 N1045 0.984 . S
H1051 N1045 0.985 . S
H1052 N1049 0.984 . S
H1053 N1049 0.985 . S
H1054 N1048 0.984 . S
H1055 N1048 0.984 . S
H1056 N1044 0.984 . S
H1057 N1044 0.985 . S
C1058 C1059 1.363 . S
C1058 C1064 1.379 . S
C1058 N1066 1.356 . S
C1059 C1058 1.363 . S
C1059 C1065 1.363 . S
C1060 C1061 1.363 . S
C1060 C1065 1.379 . S
C1060 N1067 1.356 . S
C1061 C1060 1.363 . S
C1061 C1064 1.363 . S
N1062 C1064 1.356 . S
N1062 H1074 0.984 . S
N1062 H1075 0.985 . S
N1063 C1065 1.356 . S
N1063 H1068 0.984 . S
N1063 H1069 0.985 . S
C1064 C1058 1.379 . S
C1064 C1061 1.363 . S
C1064 N1062 1.356 . S
C1065 C1059 1.363 . S
C1065 C1060 1.379 . S
C1065 N1063 1.356 . S
N1066 C1058 1.356 . S
N1066 H1072 0.984 . S
N1066 H1073 0.984 . S
N1067 C1060 1.356 . S
N1067 H1070 0.984 . S
N1067 H1071 0.985 . S
H1068 N1063 0.984 . S
H1069 N1063 0.985 . S
H1070 N1067 0.984 . S
H1071 N1067 0.985 . S
H1072 N1066 0.984 . S
H1073 N1066 0.984 . S
H1074 N1062 0.984 . S
H1075 N1062 0.985 . S
C1076 C1077 1.363 . S
C1076 C1082 1.379 . S
C1076 N1084 1.356 . S
C1077 C1076 1.363 . S
C1077 C1083 1.363 . S
C1078 C1079 1.363 . S
C1078 C1083 1.379 . S
C1078 N1085 1.356 . S
C1079 C1078 1.363 . S
C1079 C1082 1.363 . S
N1080 C1082 1.356 . S
N1080 H1092 0.984 . S
N1080 H1093 0.985 . S
N1081 C1083 1.356 . S
N1081 H1086 0.984 . S
N1081 H1087 0.985 . S
C1082 C1076 1.379 . S
C1082 C1079 1.363 . S
C1082 N1080 1.356 . S
C1083 C1077 1.363 . S
C1083 C1078 1.379 . S
C1083 N1081 1.356 . S
N1084 C1076 1.356 . S
N1084 H1090 0.984 . S
N1084 H1091 0.984 . S
N1085 C1078 1.356 . S
N1085 H1088 0.984 . S
N1085 H1089 0.985 . S
H1086 N1081 0.984 . S
H1087 N1081 0.985 . S
H1088 N1085 0.984 . S
H1089 N1085 0.985 . S
H1090 N1084 0.984 . S
H1091 N1084 0.984 . S
H1092 N1080 0.984 . S
H1093 N1080 0.985 . S
C1094 C1095 1.363 . S
C1094 C1100 1.379 . S
C1094 N1102 1.356 . S
C1095 C1094 1.363 . S
C1095 C1101 1.363 . S
C1096 C1097 1.363 . S
C1096 C1101 1.379 . S
C1096 N1103 1.356 . S
C1097 C1096 1.363 . S
C1097 C1100 1.363 . S
N1098 C1100 1.356 . S
N1098 H1110 0.984 . S
N1098 H1111 0.985 . S
N1099 C1101 1.356 . S
N1099 H1104 0.984 . S
N1099 H1105 0.985 . S
C1100 C1094 1.379 . S
C1100 C1097 1.363 . S
C1100 N1098 1.356 . S
C1101 C1095 1.363 . S
C1101 C1096 1.379 . S
C1101 N1099 1.356 . S
N1102 C1094 1.356 . S
N1102 H1108 0.984 . S
N1102 H1109 0.984 . S
N1103 C1096 1.356 . S
N1103 H1106 0.984 . S
N1103 H1107 0.985 . S
H1104 N1099 0.984 . S
H1105 N1099 0.985 . S
H1106 N1103 0.984 . S
H1107 N1103 0.985 . S
H1108 N1102 0.984 . S
H1109 N1102 0.984 . S
H1110 N1098 0.984 . S
H1111 N1098 0.985 . S
C539 C141 1.526 . S
C537 C0 1.536 . S
C557 C194 1.353 . S
C555 C26 1.356 . S
C575 C257 1.614 . S
C573 C40 1.616 . S
C593 C300 1.296 . S
C591 C43 1.303 . S
C609 C57 1.615 . S
C611 C256 1.607 . S
C629 C293 1.387 . S
C627 C70 1.388 . S
C647 C134 1.530 . S
C645 C97 1.536 . S
C665 C187 1.264 . S
C663 C111 1.267 . S
C683 C240 1.477 . S
C681 C98 1.481 . S
C701 C309 1.843 . S
C699 C68 1.845 . S
C719 C150 1.584 . S
C717 C83 1.585 . S
C737 C203 1.754 . S
C735 C84 1.758 . S
C755 C151 1.564 . S
C753 C15 1.568 . S
C773 C204 1.844 . S
C771 C29 1.851 . S
C791 C247 1.494 . S
C789 C54 1.497 . S
C809 C310 1.741 . S
C807 C13 1.750 . S
C827 C353 1.484 . S
C825 C99 1.496 . S
C843 C69 1.710 . S
C845 C406 1.704 . S
C861 C82 1.663 . S
C863 C468 1.658 . S
C879 C85 1.709 . S
C881 C522 1.707 . S
C897 C14 1.572 . S
C899 C469 1.567 . S
C915 C28 1.802 . S
C917 C521 1.800 . S
C933 C55 1.576 . S
C935 C346 1.573 . S
C953 C399 1.626 . S
C951 C12 1.631 . S
C971 C459 1.451 . S
C969 C1 1.454 . S
C987 C27 1.408 . S
C989 C505 1.400 . S
C1005 C41 1.621 . S
C1007 C362 1.622 . S
C1023 C42 1.348 . S
C1025 C415 1.344 . S
C1043 C363 1.529 . S
C1041 C56 1.533 . S
C1061 C416 1.450 . S
C1059 C71 1.454 . S
C1077 C96 1.527 . S
C1079 C452 1.523 . S
C1097 C512 1.316 . S
C1095 C110 1.321 . S
