# Generated by pormake.
# Topology apo, (3,6)-cn, num edge types: 1
# Building blocks:
#     Node 0, Type 0, BuildingBlock: OLANEW_clean_sbu_2, # of connection points: 3
#     Node 1, Type 0, BuildingBlock: OLANEW_clean_sbu_2, # of connection points: 3
#     Node 2, Type 0, BuildingBlock: OLANEW_clean_sbu_2, # of connection points: 3
#     Node 3, Type 0, BuildingBlock: OLANEW_clean_sbu_2, # of connection points: 3
#     Node 4, Type 0, BuildingBlock: OLANEW_clean_sbu_2, # of connection points: 3
#     Node 5, Type 0, BuildingBlock: OLANEW_clean_sbu_2, # of connection points: 3
#     Node 6, Type 0, BuildingBlock: OLANEW_clean_sbu_2, # of connection points: 3
#     Node 7, Type 0, BuildingBlock: OLANEW_clean_sbu_2, # of connection points: 3
#     Node 8, Type 1, BuildingBlock: KUMJIN_clean_sbu_1, # of connection points: 6
#     Node 9, Type 1, BuildingBlock: KUMJIN_clean_sbu_1, # of connection points: 6
#     Node 10, Type 1, BuildingBlock: KUMJIN_clean_sbu_1, # of connection points: 6
#     Node 11, Type 1, BuildingBlock: KUMJIN_clean_sbu_1, # of connection points: 6
#     Edge 12, Type (0, 1), BuildingBlock: ZUJKAS_clean_linker_0, # of connection points: 2
#     Edge 13, Type (0, 1), BuildingBlock: ZUJKAS_clean_linker_0, # of connection points: 2
#     Edge 14, Type (0, 1), BuildingBlock: ZUJKAS_clean_linker_0, # of connection points: 2
#     Edge 15, Type (0, 1), BuildingBlock: ZUJKAS_clean_linker_0, # of connection points: 2
#     Edge 16, Type (0, 1), BuildingBlock: ZUJKAS_clean_linker_0, # of connection points: 2
#     Edge 17, Type (0, 1), BuildingBlock: ZUJKAS_clean_linker_0, # of connection points: 2
#     Edge 18, Type (0, 1), BuildingBlock: ZUJKAS_clean_linker_0, # of connection points: 2
#     Edge 19, Type (0, 1), BuildingBlock: ZUJKAS_clean_linker_0, # of connection points: 2
#     Edge 20, Type (0, 1), BuildingBlock: ZUJKAS_clean_linker_0, # of connection points: 2
#     Edge 21, Type (0, 1), BuildingBlock: ZUJKAS_clean_linker_0, # of connection points: 2
#     Edge 22, Type (0, 1), BuildingBlock: ZUJKAS_clean_linker_0, # of connection points: 2
#     Edge 23, Type (0, 1), BuildingBlock: ZUJKAS_clean_linker_0, # of connection points: 2
#     Edge 24, Type (0, 1), BuildingBlock: ZUJKAS_clean_linker_0, # of connection points: 2
#     Edge 25, Type (0, 1), BuildingBlock: ZUJKAS_clean_linker_0, # of connection points: 2
#     Edge 26, Type (0, 1), BuildingBlock: ZUJKAS_clean_linker_0, # of connection points: 2
#     Edge 27, Type (0, 1), BuildingBlock: ZUJKAS_clean_linker_0, # of connection points: 2
#     Edge 28, Type (0, 1), BuildingBlock: ZUJKAS_clean_linker_0, # of connection points: 2
#     Edge 29, Type (0, 1), BuildingBlock: ZUJKAS_clean_linker_0, # of connection points: 2
#     Edge 30, Type (0, 1), BuildingBlock: ZUJKAS_clean_linker_0, # of connection points: 2
#     Edge 31, Type (0, 1), BuildingBlock: ZUJKAS_clean_linker_0, # of connection points: 2
#     Edge 32, Type (0, 1), BuildingBlock: ZUJKAS_clean_linker_0, # of connection points: 2
#     Edge 33, Type (0, 1), BuildingBlock: ZUJKAS_clean_linker_0, # of connection points: 2
#     Edge 34, Type (0, 1), BuildingBlock: ZUJKAS_clean_linker_0, # of connection points: 2
#     Edge 35, Type (0, 1), BuildingBlock: ZUJKAS_clean_linker_0, # of connection points: 2
# Relax obj value: 0.029
# Max RMSD: 0.211
# Mean RMSD: 0.128
data_MOF--net-apo--node1-OLANEW_clean_sbu_2--node2-KUMJIN_clean_sbu_1--edge1-ZUJKAS_clean_linker_0
_symmetry_space_group_name_H-M    P1
_symmetry_Int_Tables_number       1
_symmetry_cell_setting            triclinic
loop_
_symmetry_equiv_pos_as_xyz
'x, y, z'
_cell_length_a     35.4302
_cell_length_b     57.984768
_cell_length_c     68.903701
_cell_angle_alpha  89.005316
_cell_angle_beta   89.950428
_cell_angle_gamma 90.984081
loop_
_atom_site_label
_atom_site_type_symbol
_atom_site_fract_x
_atom_site_fract_y
_atom_site_fract_z
_atom_type_partial_charge
O0 O 0.31236 0.38346 0.3811 0.0
Cd1 Cd 0.28598 0.35317 0.40248 0.0
O2 O 0.37021 0.37919 0.39199 0.0
Cd3 Cd 0.35447 0.35641 0.41632 0.0
O4 O 0.35736 0.35021 0.44763 0.0
C5 C 0.33682 0.36217 0.4586 0.0
O6 O 0.31254 0.37634 0.45062 0.0
C7 C 0.3473 0.38879 0.38032 0.0
C8 C 0.25042 0.31879 0.38088 0.0
O9 O 0.23238 0.33647 0.38644 0.0
O10 O 0.28525 0.31726 0.38566 0.0
O11 O 0.23991 0.14916 0.94417 0.0
Cd12 Cd 0.24503 0.14508 0.90892 0.0
O13 O 0.26477 0.11523 0.94998 0.0
Cd14 Cd 0.26717 0.10529 0.91959 0.0
O15 O 0.25327 0.08348 0.89497 0.0
C16 C 0.22317 0.08695 0.88542 0.0
O17 O 0.20224 0.10461 0.88982 0.0
C18 C 0.25105 0.13384 0.95619 0.0
C19 C 0.2909 0.17857 0.89062 0.0
O20 O 0.25571 0.182 0.89355 0.0
O21 O 0.30457 0.1594 0.8966 0.0
O22 O 0.82036 0.11426 0.62289 0.0
Cd23 Cd 0.79636 0.1463 0.60312 0.0
O24 O 0.87863 0.11861 0.61204 0.0
Cd25 Cd 0.86444 0.14054 0.58704 0.0
O26 O 0.86645 0.14749 0.55568 0.0
C27 C 0.87033 0.13001 0.54499 0.0
O28 O 0.87172 0.10946 0.55329 0.0
C29 C 0.85501 0.10892 0.62359 0.0
C30 C 0.75831 0.17811 0.62587 0.0
O31 O 0.74057 0.1613 0.61792 0.0
O32 O 0.79401 0.17992 0.62305 0.0
O33 O 0.75824 0.35227 0.0592 0.0
Cd34 Cd 0.77426 0.35824 0.0933 0.0
O35 O 0.75131 0.38945 0.05365 0.0
Cd36 Cd 0.75712 0.40009 0.08375 0.0
O37 O 0.74067 0.42123 0.10819 0.0
C38 C 0.72955 0.44134 0.10367 0.0
O39 O 0.73027 0.44787 0.08531 0.0
C40 C 0.75154 0.36891 0.04749 0.0
C41 C 0.81354 0.32148 0.10986 0.0
O42 O 0.77745 0.32221 0.11082 0.0
O43 O 0.83103 0.33804 0.10093 0.0
O44 O 0.72001 0.61378 0.62519 0.0
Cd45 Cd 0.74199 0.64477 0.60316 0.0
O46 O 0.75127 0.58752 0.60942 0.0
Cd47 Cd 0.76392 0.60973 0.58429 0.0
O48 O 0.75603 0.61628 0.55326 0.0
C49 C 0.72326 0.62166 0.54743 0.0
O50 O 0.69662 0.62471 0.56037 0.0
C51 C 0.7308 0.59308 0.62371 0.0
C52 C 0.78121 0.67922 0.62306 0.0
O53 O 0.74579 0.68088 0.61964 0.0
O54 O 0.79807 0.66132 0.61703 0.0
O55 O 0.79408 0.8925 0.12399 0.0
Cd56 Cd 0.76947 0.86279 0.10237 0.0
O57 O 0.85254 0.88825 0.11405 0.0
Cd58 Cd 0.83864 0.86468 0.09068 0.0
O59 O 0.84107 0.85588 0.06003 0.0
C60 C 0.86868 0.86494 0.0507 0.0
O61 O 0.89329 0.8777 0.06015 0.0
C62 C 0.82896 0.89786 0.12509 0.0
C63 C 0.73082 0.82772 0.12279 0.0
O64 O 0.76629 0.82637 0.11939 0.0
O65 O 0.71368 0.84565 0.11651 0.0
O66 O 0.23659 0.89606 0.38359 0.0
Cd67 Cd 0.26515 0.8663 0.4042 0.0
O68 O 0.24004 0.9216 0.4068 0.0
Cd69 Cd 0.25727 0.89736 0.42949 0.0
O70 O 0.25077 0.88126 0.45814 0.0
C71 C 0.21962 0.87089 0.46183 0.0
O72 O 0.19435 0.86917 0.44796 0.0
C73 C 0.23185 0.91652 0.38941 0.0
C74 C 0.29616 0.83052 0.38317 0.0
O75 O 0.26259 0.82877 0.39006 0.0
O76 O 0.31492 0.84923 0.3861 0.0
O77 O 0.322 0.61225 0.87528 0.0
Cd78 Cd 0.3019 0.64388 0.8959 0.0
O79 O 0.31731 0.58606 0.89875 0.0
Cd80 Cd 0.30407 0.60948 0.92218 0.0
O81 O 0.30637 0.61992 0.95251 0.0
C82 C 0.31465 0.60417 0.96477 0.0
O83 O 0.32036 0.58323 0.95852 0.0
C84 C 0.32447 0.59139 0.88113 0.0
C85 C 0.25582 0.67575 0.87673 0.0
O86 O 0.29189 0.67752 0.87582 0.0
O87 O 0.24145 0.65879 0.88656 0.0
Eu88 Eu 0.07327 0.11303 0.22948 0.0
C89 C 0.90688 0.09271 0.25012 0.0
N90 N 0.92319 0.1138 0.2467 0.0
C91 C 0.87248 0.12425 0.22551 0.0
C92 C 0.87295 0.08636 0.24078 0.0
C93 C 0.90629 0.12973 0.23494 0.0
C94 C 0.85585 0.10243 0.22834 0.0
C95 C 0.90827 0.05528 0.26637 0.0
C96 C 0.9247 0.07727 0.26265 0.0
C97 C 0.87495 0.04872 0.25674 0.0
C98 C 0.85735 0.0642 0.24399 0.0
Eu99 Eu 0.98032 0.12152 0.26306 0.0
N100 N 0.9571 0.08402 0.27177 0.0
C101 C 0.92515 0.04074 0.28012 0.0
C102 C 0.97112 0.07082 0.28663 0.0
C103 C 0.95622 0.04876 0.29059 0.0
H104 H 0.91915 0.1466 0.2328 0.0
H105 H 0.96822 0.03816 0.30202 0.0
H106 H 0.12923 0.07902 0.25595 0.0
H107 H 0.09692 0.2021 0.20329 0.0
H108 H 0.99314 0.0773 0.29593 0.0
H109 H 0.91342 0.02373 0.28336 0.0
H110 H 0.06416 0.16463 0.20534 0.0
H111 H 0.85934 0.13683 0.21603 0.0
H112 H 0.86217 0.03184 0.25934 0.0
H113 H 0.83151 0.05894 0.2368 0.0
H114 H 0.19089 0.08138 0.27263 0.0
H115 H 0.82979 0.09818 0.22089 0.0
H116 H 0.1573 0.20809 0.22058 0.0
N117 N 0.13188 0.11366 0.24555 0.0
C118 C 0.15247 0.13363 0.24409 0.0
C119 C 0.18035 0.09622 0.26473 0.0
C120 C 0.18783 0.13573 0.25333 0.0
C121 C 0.14533 0.09497 0.25544 0.0
C122 C 0.20166 0.1167 0.26372 0.0
N123 N 0.1027 0.14992 0.22553 0.0
C124 C 0.08907 0.16718 0.21394 0.0
C125 C 0.15774 0.1734 0.23271 0.0
C126 C 0.13728 0.15233 0.23403 0.0
C127 C 0.14245 0.19165 0.22195 0.0
C128 C 0.10825 0.18839 0.21229 0.0
H129 H 0.2287 0.11765 0.27103 0.0
H130 H 0.23506 0.15876 0.25928 0.0
H131 H 0.20887 0.19166 0.24114 0.0
O132 O 0.08368 0.11279 0.1978 0.0
O133 O 0.08096 0.1302 0.25869 0.0
O134 O 0.02567 0.14956 0.26274 0.0
O135 O 0.11162 0.08829 0.21728 0.0
O136 O 0.02428 0.13283 0.21608 0.0
O137 O 0.99606 0.15049 0.24206 0.0
O138 O 0.96778 0.12644 0.29422 0.0
O139 O 0.9742 0.10501 0.23343 0.0
O140 O 0.02852 0.08466 0.23005 0.0
O141 O 0.93811 0.146 0.27178 0.0
O142 O 0.03059 0.10278 0.27635 0.0
O143 O 0.05598 0.0841 0.25018 0.0
C144 C 0.06183 0.14712 0.26607 0.0
C145 C 0.1262 0.0848 0.18321 0.0
C146 C 0.1486 0.08543 0.14965 0.0
C147 C 0.16217 0.06295 0.15243 0.0
C148 C 0.14016 0.0624 0.18562 0.0
C149 C 0.15797 0.05158 0.1703 0.0
C150 C 0.13059 0.09633 0.16518 0.0
C151 C 1.00241 0.14877 0.22333 0.0
C152 C 0.1069 0.09568 0.19958 0.0
C153 C 0.20792 0.15679 0.25221 0.0
C154 C 0.19293 0.17555 0.24194 0.0
C155 C 0.99209 0.08686 0.2275 0.0
C156 C 0.92006 0.15398 0.30484 0.0
C157 C 0.9032 0.16159 0.33854 0.0
C158 C 0.87761 0.17825 0.33191 0.0
C159 C 0.89428 0.17075 0.29866 0.0
C160 C 0.92429 0.14935 0.32486 0.0
C161 C 0.87324 0.18274 0.31213 0.0
C162 C 0.05054 0.08603 0.26894 0.0
C163 C 0.94243 0.14182 0.29019 0.0
H164 H 0.17654 0.05427 0.14083 0.0
H165 H 0.13706 0.05312 0.19933 0.0
H166 H 0.16862 0.03431 0.1723 0.0
H167 H 0.11986 0.1136 0.16318 0.0
H168 H 0.86053 0.18764 0.34204 0.0
H169 H 0.89036 0.17468 0.28338 0.0
H170 H 0.94425 0.13657 0.32978 0.0
H171 H 0.8534 0.19556 0.3072 0.0
Eu172 Eu 0.48336 0.3763 0.73974 0.0
C173 C 0.645 0.41072 0.75555 0.0
N174 N 0.63267 0.38839 0.75656 0.0
C175 C 0.68546 0.37663 0.73761 0.0
C176 C 0.67784 0.41693 0.74498 0.0
C177 C 0.65255 0.37132 0.74809 0.0
C178 C 0.69805 0.39955 0.73594 0.0
C179 C 0.63609 0.45079 0.76372 0.0
C180 C 0.62402 0.42746 0.76466 0.0
C181 C 0.66827 0.45711 0.75282 0.0
C182 C 0.68913 0.44023 0.74351 0.0
Eu183 Eu 0.57596 0.38103 0.7737 0.0
N184 N 0.59257 0.42091 0.77489 0.0
C185 C 0.61605 0.46701 0.77421 0.0
C186 C 0.57569 0.43627 0.78678 0.0
C187 C 0.58628 0.45961 0.78616 0.0
H188 H 0.64291 0.35361 0.74943 0.0
H189 H 0.57196 0.47178 0.79521 0.0
H190 H 0.42039 0.41427 0.75503 0.0
H191 H 0.47398 0.28178 0.73814 0.0
H192 H 0.5548 0.43063 0.79723 0.0
H193 H 0.62439 0.48508 0.77386 0.0
H194 H 0.50169 0.31994 0.73068 0.0
H195 H 0.70102 0.36307 0.73077 0.0
H196 H 0.67762 0.47498 0.75175 0.0
H197 H 0.71403 0.44536 0.73526 0.0
H198 H 0.35812 0.41409 0.77125 0.0
H199 H 0.72338 0.40364 0.72767 0.0
H200 H 0.41265 0.27842 0.75519 0.0
N201 N 0.42311 0.37779 0.75409 0.0
C202 C 0.40536 0.35721 0.75781 0.0
C203 C 0.37116 0.39798 0.76763 0.0
C204 C 0.3698 0.35627 0.76703 0.0
C205 C 0.40653 0.39804 0.75862 0.0
C206 C 0.35277 0.377 0.77193 0.0
N207 N 0.45838 0.33839 0.74469 0.0
C208 C 0.4758 0.31893 0.73875 0.0
C209 C 0.40614 0.31536 0.75723 0.0
C210 C 0.42346 0.33696 0.753 0.0
C211 C 0.42497 0.29533 0.75214 0.0
C212 C 0.4597 0.29716 0.74264 0.0
H213 H 0.32546 0.377 0.77902 0.0
H214 H 0.32542 0.33372 0.77848 0.0
H215 H 0.3572 0.29793 0.7699 0.0
O216 O 0.48005 0.36747 0.70909 0.0
O217 O 0.47925 0.36413 0.77118 0.0
O218 O 0.53766 0.34955 0.77761 0.0
O219 O 0.44113 0.39187 0.72079 0.0
O220 O 0.5359 0.35727 0.73015 0.0
O221 O 0.57013 0.3474 0.75769 0.0
O222 O 0.58311 0.38315 0.80518 0.0
O223 O 0.57908 0.39198 0.74183 0.0
O224 O 0.52147 0.40775 0.73608 0.0
O225 O 0.62414 0.36538 0.78821 0.0
O226 O 0.52178 0.39857 0.78346 0.0
O227 O 0.49251 0.41008 0.75502 0.0
C228 C 0.50108 0.34964 0.78043 0.0
C229 C 0.46096 0.3977 0.6884 0.0
C230 C 0.45589 0.4054 0.65358 0.0
C231 C 0.4766 0.42609 0.65595 0.0
C232 C 0.4814 0.41846 0.69048 0.0
C233 C 0.48922 0.43253 0.6743 0.0
C234 C 0.44823 0.39125 0.66998 0.0
C235 C 0.56139 0.34473 0.73926 0.0
C236 C 0.45377 0.38229 0.7052 0.0
C237 C 0.35264 0.33477 0.77132 0.0
C238 C 0.37077 0.31438 0.76645 0.0
C239 C 0.55808 0.40763 0.73349 0.0
C240 C 0.61106 0.3505 0.81949 0.0
C241 C 0.62251 0.33493 0.85206 0.0
C242 C 0.6071 0.31359 0.84628 0.0
C243 C 0.59614 0.32903 0.81398 0.0
C244 C 0.62422 0.35339 0.83851 0.0
C245 C 0.594 0.31072 0.82736 0.0
C246 C 0.49877 0.41224 0.77374 0.0
C247 C 0.61253 0.37001 0.80557 0.0
H248 H 0.48262 0.43745 0.64365 0.0
H249 H 0.49129 0.42379 0.70457 0.0
H250 H 0.50505 0.44851 0.67599 0.0
H251 H 0.43291 0.37505 0.66839 0.0
H252 H 0.60572 0.29899 0.85629 0.0
H253 H 0.58633 0.3264 0.79931 0.0
H254 H 0.63537 0.37008 0.84276 0.0
H255 H 0.58238 0.29422 0.82301 0.0
Eu256 Eu 0.06114 0.87852 0.73695 0.0
C257 C 0.89554 0.85319 0.74981 0.0
N258 N 0.91125 0.87477 0.7499 0.0
C259 C 0.86274 0.88875 0.72879 0.0
C260 C 0.86313 0.84847 0.73859 0.0
C261 C 0.89513 0.8926 0.73993 0.0
C262 C 0.84678 0.86658 0.72804 0.0
C263 C 0.89756 0.813 0.76011 0.0
C264 C 0.91291 0.83562 0.76037 0.0
C265 C 0.86573 0.80816 0.74864 0.0
C266 C 0.84853 0.82584 0.73795 0.0
Eu267 Eu 0.96562 0.87971 0.76917 0.0
N268 N 0.94415 0.84068 0.77115 0.0
C269 C 0.91414 0.79596 0.77172 0.0
C270 C 0.95796 0.82458 0.78387 0.0
C271 C 0.94396 0.8019 0.78395 0.0
H272 H 0.90749 0.90974 0.74052 0.0
H273 H 0.9557 0.78912 0.79375 0.0
H274 H 0.11923 0.84213 0.75949 0.0
H275 H 0.08202 0.9705 0.71879 0.0
H276 H 0.97896 0.82913 0.79447 0.0
H277 H 0.90318 0.77839 0.77193 0.0
H278 H 0.05233 0.93221 0.7162 0.0
H279 H 0.85019 0.90286 0.72075 0.0
H280 H 0.85388 0.79083 0.74812 0.0
H281 H 0.82391 0.82183 0.72924 0.0
H282 H 0.17933 0.84349 0.7777 0.0
H283 H 0.82189 0.86362 0.71924 0.0
H284 H 0.1396 0.97567 0.7386 0.0
N285 N 0.11949 0.87805 0.75328 0.0
C286 C 0.13846 0.89855 0.7545 0.0
C287 C 0.16808 0.85911 0.77133 0.0
C288 C 0.17293 0.90016 0.76465 0.0
C289 C 0.13391 0.8584 0.76121 0.0
C290 C 0.1876 0.88011 0.77315 0.0
N291 N 0.08913 0.91608 0.73653 0.0
C292 C 0.07575 0.9343 0.72594 0.0
C293 C 0.14157 0.93967 0.74735 0.0
C294 C 0.12267 0.91813 0.74608 0.0
C295 C 0.12596 0.95883 0.73796 0.0
C296 C 0.09332 0.95602 0.72689 0.0
H297 H 0.21396 0.88064 0.78109 0.0
H298 H 0.21767 0.92328 0.77413 0.0
H299 H 0.19035 0.95783 0.75891 0.0
O300 O 0.06687 0.88147 0.7054 0.0
O301 O 0.06571 0.89176 0.76771 0.0
O302 O 1.00869 0.90837 0.77448 0.0
O303 O 0.10415 0.85937 0.72166 0.0
O304 O 0.01219 0.90033 0.72582 0.0
O305 O 0.98068 0.91282 0.75309 0.0
O306 O 0.94737 0.87707 0.79992 0.0
O307 O 0.96419 0.86878 0.73756 0.0
O308 O 0.01882 0.84909 0.73501 0.0
O309 O 0.92082 0.90124 0.77972 0.0
O310 O 0.01617 0.86068 0.78197 0.0
O311 O 0.04578 0.84658 0.75483 0.0
C312 C 0.04567 0.90772 0.77588 0.0
C313 C 0.08615 0.84746 0.69047 0.0
C314 C 0.09257 0.83301 0.65761 0.0
C315 C 0.07182 0.81307 0.6632 0.0
C316 C 0.06604 0.82729 0.69585 0.0
C317 C 0.05871 0.81027 0.68222 0.0
C318 C 0.0994 0.85023 0.67139 0.0
C319 C 0.99061 0.91516 0.73478 0.0
C320 C 0.09282 0.86588 0.70451 0.0
C321 C 0.19131 0.92168 0.76626 0.0
C322 C 0.17567 0.94137 0.75765 0.0
C323 C 0.9834 0.85184 0.7304 0.0
C324 C 0.89593 0.90078 0.81237 0.0
C325 C 0.87448 0.90143 0.84607 0.0
C326 C 0.84617 0.91694 0.84056 0.0
C327 C 0.86743 0.91633 0.80728 0.0
C328 C 0.89923 0.89325 0.83181 0.0
C329 C 0.84273 0.9243 0.8213 0.0
C330 C 0.03897 0.84598 0.77363 0.0
C331 C 0.92181 0.8927 0.79722 0.0
H332 H 0.06631 0.79945 0.65296 0.0
H333 H 0.05615 0.82468 0.71058 0.0
H334 H 0.04304 0.79479 0.68646 0.0
H335 H 0.11465 0.86593 0.66725 0.0
H336 H 0.82635 0.92322 0.85113 0.0
H337 H 0.86408 0.92235 0.79242 0.0
H338 H 0.92131 0.88141 0.8359 0.0
H339 H 0.82079 0.9362 0.81722 0.0
Eu340 Eu 0.45851 0.61719 0.23658 0.0
C341 C 0.62401 0.64518 0.2489 0.0
N342 N 0.60782 0.62423 0.25294 0.0
C343 C 0.65781 0.60564 0.23606 0.0
C344 C 0.65692 0.64722 0.23742 0.0
C345 C 0.62554 0.60454 0.24777 0.0
C346 C 0.67315 0.62711 0.23052 0.0
C347 C 0.62662 0.68632 0.25472 0.0
C348 C 0.60911 0.66449 0.25738 0.0
C349 C 0.6583 0.68862 0.24253 0.0
C350 C 0.67333 0.66912 0.23383 0.0
Eu351 Eu 0.55084 0.62443 0.27109 0.0
N352 N 0.57803 0.66179 0.26876 0.0
C353 C 0.61203 0.70509 0.26463 0.0
C354 C 0.56474 0.6797 0.27923 0.0
C355 C 0.58127 0.70169 0.27715 0.0
H356 H 0.6151 0.58788 0.25278 0.0
H357 H 0.5702 0.716 0.28513 0.0
H358 H 0.38802 0.62936 0.26645 0.0
H359 H 0.47989 0.53846 0.19529 0.0
H360 H 0.54084 0.67701 0.28882 0.0
H361 H 0.62467 0.72216 0.26297 0.0
H362 H 0.48589 0.57998 0.20189 0.0
H363 H 0.67111 0.58994 0.23155 0.0
H364 H 0.67188 0.7053 0.2401 0.0
H365 H 0.69835 0.67106 0.22486 0.0
H366 H 0.33648 0.60881 0.28443 0.0
H367 H 0.6984 0.62792 0.22164 0.0
H368 H 0.43742 0.5136 0.21545 0.0
N369 N 0.40802 0.59896 0.25348 0.0
C370 C 0.40247 0.57607 0.25056 0.0
C371 C 0.35499 0.59938 0.27505 0.0
C372 C 0.37387 0.5636 0.26062 0.0
C373 C 0.38402 0.61095 0.26489 0.0
C374 C 0.35022 0.57553 0.27312 0.0
N375 N 0.45075 0.57825 0.22696 0.0
C376 C 0.46871 0.56916 0.21138 0.0
C377 C 0.41965 0.54162 0.23352 0.0
C378 C 0.42507 0.5653 0.23719 0.0
C379 C 0.4407 0.53173 0.21872 0.0
C380 C 0.46476 0.54569 0.20734 0.0
H381 H 0.3279 0.56658 0.28112 0.0
H382 H 0.3483 0.52978 0.26559 0.0
H383 H 0.3884 0.51051 0.24184 0.0
O384 O 0.42408 0.61588 0.20989 0.0
O385 O 0.4604 0.60332 0.26769 0.0
O386 O 0.52019 0.59 0.27067 0.0
O387 O 0.42408 0.64641 0.22812 0.0
O388 O 0.51525 0.60635 0.22438 0.0
O389 O 0.54755 0.59325 0.25139 0.0
O390 O 0.54517 0.62516 0.3026 0.0
O391 O 0.53096 0.6533 0.251 0.0
O392 O 0.51036 0.6351 0.22377 0.0
O393 O 0.59813 0.61548 0.28997 0.0
O394 O 0.49618 0.63846 0.28317 0.0
O395 O 0.4582 0.64782 0.25669 0.0
C396 C 0.48388 0.58754 0.27371 0.0
C397 C 0.38375 0.64785 0.1998 0.0
C398 C 0.35518 0.65346 0.16781 0.0
C399 C 0.33176 0.67031 0.17567 0.0
C400 C 0.36034 0.66488 0.20722 0.0
C401 C 0.33439 0.67593 0.19522 0.0
C402 C 0.38097 0.64209 0.1801 0.0
C403 C 0.54061 0.59301 0.23261 0.0
C404 C 0.41112 0.63643 0.21268 0.0
C405 C 0.36965 0.53978 0.25774 0.0
C406 C 0.39257 0.52879 0.24426 0.0
C407 C 0.52919 0.65191 0.23207 0.0
C408 C 0.58114 0.59823 0.32 0.0
C409 C 0.59743 0.58444 0.35254 0.0
C410 C 0.5841 0.56228 0.34763 0.0
C411 C 0.56806 0.57605 0.31534 0.0
C412 C 0.59571 0.60236 0.33854 0.0
C413 C 0.5695 0.55818 0.32914 0.0
C414 C 0.46876 0.65025 0.27492 0.0
C415 C 0.57882 0.61741 0.3059 0.0
H416 H 0.31111 0.67903 0.16673 0.0
H417 H 0.36189 0.66954 0.22237 0.0
H418 H 0.31623 0.68892 0.2011 0.0
H419 H 0.39953 0.62925 0.17427 0.0
H420 H 0.58534 0.54806 0.35799 0.0
H421 H 0.55671 0.57258 0.30109 0.0
H422 H 0.60509 0.61967 0.34213 0.0
H423 H 0.55933 0.54108 0.3255 0.0
H424 H 0.20874 0.91194 0.35163 0.0
H425 H 0.1789 0.94114 0.3309 0.0
H426 H 0.18694 0.99011 0.37717 0.0
H427 H 0.21717 0.96132 0.39782 0.0
H428 H 0.11166 0.96374 0.33799 0.0
H429 H 0.23099 0.02657 0.33116 0.0
H430 H 0.23709 0.99731 0.3398 0.0
H431 H 0.21944 0.0188 0.35581 0.0
C432 C 0.20453 0.929 0.35732 0.0
C433 C 0.21548 0.9343 0.37637 0.0
C434 C 0.18742 0.94564 0.34547 0.0
C435 C 0.1812 0.96787 0.35242 0.0
C436 C 0.19221 0.97322 0.37137 0.0
H437 H 0.06856 0.08983 0.3074 0.0
H438 H 0.09884 0.06076 0.32823 0.0
C439 C 0.20932 0.95666 0.3832 0.0
C440 C 0.16162 0.98521 0.34022 0.0
H441 H 0.17098 0.03936 0.32032 0.0
C442 C 0.1247 0.98021 0.33402 0.0
C443 C 0.17868 0.00673 0.33514 0.0
C444 C 0.21886 0.01264 0.34066 0.0
C445 C 0.10411 0.99633 0.32312 0.0
C446 C 0.12111 0.01786 0.31814 0.0
C447 C 0.158 0.02288 0.32432 0.0
C448 C 0.10156 0.03508 0.30589 0.0
C449 C 0.06414 0.99038 0.31725 0.0
C450 C 0.09328 0.0302 0.28649 0.0
C451 C 0.07615 0.04668 0.27463 0.0
C452 C 0.06705 0.06838 0.28194 0.0
C453 C 0.07504 0.07319 0.30144 0.0
C454 C 0.09242 0.05668 0.3133 0.0
H455 H 0.05226 0.97571 0.32602 0.0
H456 H 0.04557 0.00547 0.31883 0.0
H457 H 0.0638 0.9854 0.30178 0.0
H458 H 0.10062 0.01374 0.28045 0.0
H459 H 0.07026 0.04247 0.25966 0.0
H460 H 0.35817 0.59722 0.84548 0.0
H461 H 0.38525 0.5673 0.82521 0.0
H462 H 0.34859 0.51507 0.86667 0.0
H463 H 0.3217 0.54471 0.88704 0.0
H464 H 0.44277 0.53421 0.83969 0.0
H465 H 0.31178 0.49218 0.81189 0.0
H466 H 0.31294 0.52141 0.82061 0.0
H467 H 0.31296 0.49753 0.83753 0.0
C468 C 0.35542 0.57934 0.85015 0.0
C469 C 0.33779 0.57336 0.86789 0.0
C470 C 0.371 0.56231 0.83859 0.0
C471 C 0.36866 0.53902 0.84442 0.0
C472 C 0.35031 0.53294 0.86184 0.0
H473 H 0.48886 0.4168 0.81292 0.0
H474 H 0.45772 0.44827 0.82965 0.0
C475 C 0.33508 0.54993 0.87348 0.0
C476 C 0.38719 0.5211 0.83292 0.0
H477 H 0.36936 0.47295 0.80635 0.0
C478 C 0.42678 0.5209 0.83229 0.0
C479 C 0.36614 0.50383 0.82329 0.0
C480 C 0.32357 0.50371 0.82317 0.0
C481 C 0.4459 0.50347 0.82261 0.0
C482 C 0.42485 0.48593 0.81338 0.0
C483 C 0.3853 0.4864 0.81362 0.0
C484 C 0.4436 0.46698 0.80331 0.0
C485 C 0.48848 0.50377 0.82231 0.0
C486 C 0.44576 0.46719 0.78301 0.0
C487 C 0.46383 0.44944 0.77344 0.0
C488 C 0.47967 0.43101 0.784 0.0
C489 C 0.47712 0.43079 0.80438 0.0
C490 C 0.45932 0.44869 0.81395 0.0
H491 H 0.50063 0.51994 0.82828 0.0
H492 H 0.49893 0.48897 0.83108 0.0
H493 H 0.4989 0.50177 0.80724 0.0
H494 H 0.43377 0.48122 0.7746 0.0
H495 H 0.46554 0.45023 0.75774 0.0
H496 H 0.67855 0.59691 0.65283 0.0
H497 H 0.65175 0.5658 0.67326 0.0
H498 H 0.7259 0.51731 0.64664 0.0
H499 H 0.75241 0.54813 0.62596 0.0
H500 H 0.6516 0.50319 0.64622 0.0
H501 H 0.69277 0.5305 0.72018 0.0
H502 H 0.66895 0.55223 0.70619 0.0
H503 H 0.71449 0.54264 0.6985 0.0
C504 C 0.6896 0.5797 0.65154 0.0
C505 C 0.71754 0.575 0.6377 0.0
C506 C 0.67437 0.56196 0.66331 0.0
C507 C 0.68709 0.53928 0.66159 0.0
C508 C 0.71575 0.5347 0.64822 0.0
H509 H 0.62168 0.40588 0.71144 0.0
H510 H 0.65356 0.43803 0.69414 0.0
C511 C 0.73087 0.55236 0.63642 0.0
C512 C 0.66855 0.51999 0.67254 0.0
H513 H 0.6482 0.49941 0.71819 0.0
C514 C 0.65108 0.5023 0.66195 0.0
C515 C 0.66777 0.51893 0.69307 0.0
C516 C 0.68728 0.53697 0.70519 0.0
C517 C 0.63244 0.48371 0.67133 0.0
C518 C 0.6316 0.4827 0.69181 0.0
C519 C 0.64896 0.50034 0.70246 0.0
C520 C 0.61268 0.46339 0.70239 0.0
C521 C 0.61315 0.46547 0.65931 0.0
C522 C 0.57941 0.46714 0.71281 0.0
C523 C 0.56117 0.44884 0.72262 0.0
C524 C 0.57631 0.42662 0.72235 0.0
C525 C 0.60961 0.4229 0.7119 0.0
C526 C 0.62771 0.44118 0.702 0.0
H527 H 0.61041 0.47096 0.64385 0.0
H528 H 0.6299 0.44948 0.65992 0.0
H529 H 0.5846 0.46126 0.66518 0.0
H530 H 0.56748 0.4842 0.71326 0.0
H531 H 0.53567 0.45216 0.73072 0.0
H532 H 0.78673 0.92336 0.15009 0.0
H533 H 0.80831 0.95622 0.16937 0.0
H534 H 0.922 0.94704 0.14895 0.0
H535 H 0.90096 0.91436 0.12968 0.0
H536 H 0.86842 0.95935 0.19881 0.0
H537 H 0.89451 0.01485 0.13354 0.0
H538 H 0.8653 0.98902 0.13303 0.0
H539 H 0.91585 0.98699 0.13269 0.0
C540 C 0.81639 0.92821 0.14983 0.0
C541 C 0.84206 0.91634 0.1382 0.0
C542 C 0.82862 0.94697 0.16085 0.0
C543 C 0.86658 0.95421 0.16029 0.0
C544 C 0.89246 0.9419 0.1493 0.0
H545 H 1.00816 0.04121 0.2288 0.0
H546 H 0.97303 0.00961 0.21365 0.0
C547 C 0.88036 0.92316 0.13836 0.0
C548 C 0.87937 0.97498 0.17075 0.0
H549 H 0.91999 0.02818 0.16337 0.0
C550 C 0.87935 0.97452 0.19111 0.0
C551 C 0.893 0.99484 0.16063 0.0
C552 C 0.89192 0.99665 0.13876 0.0
C553 C 0.89427 0.9931 0.20163 0.0
C554 C 0.90988 0.01241 0.19146 0.0
C555 C 0.90829 0.01326 0.17112 0.0
C556 C 0.92972 0.03142 0.20151 0.0
C557 C 0.89342 0.99188 0.22351 0.0
C558 C 0.91745 0.05421 0.19935 0.0
C559 C 0.93774 0.07231 0.2078 0.0
C560 C 0.97061 0.06788 0.2185 0.0
C561 C 0.98291 0.04508 0.22059 0.0
C562 C 0.96263 0.02701 0.21217 0.0
H563 H 0.87124 0.9796 0.22893 0.0
H564 H 0.92108 0.9858 0.22892 0.0
H565 H 0.88833 0.0091 0.22968 0.0
H566 H 0.89234 0.05799 0.191 0.0
H567 H 0.92801 0.08978 0.20575 0.0
H568 H 0.81356 0.0729 0.63897 0.0
H569 H 0.83638 0.04072 0.65885 0.0
H570 H 0.94795 0.07181 0.65913 0.0
H571 H 0.92568 0.10332 0.63834 0.0
H572 H 0.95376 0.02893 0.65203 0.0
H573 H 0.85785 0.03512 0.71495 0.0
H574 H 0.83184 0.0317 0.69288 0.0
H575 H 0.86068 0.05723 0.69627 0.0
C576 C 0.84284 0.07299 0.64349 0.0
C577 C 0.86783 0.09063 0.63715 0.0
C578 C 0.85583 0.05465 0.65498 0.0
C579 C 0.89379 0.05398 0.66086 0.0
C580 C 0.91854 0.0719 0.65484 0.0
H581 H 0.97551 0.95755 0.74882 0.0
H582 H 0.95354 0.99139 0.73073 0.0
C583 C 0.90578 0.08994 0.64299 0.0
C584 C 0.90832 0.03399 0.67226 0.0
H585 H 0.89169 -7e-05 0.71239 0.0
C586 C 0.94035 0.02275 0.66534 0.0
C587 C 0.89127 0.02603 0.68979 0.0
C588 C 0.85878 0.03833 0.69901 0.0
C589 C 0.95553 0.00372 0.67528 0.0
C590 C 0.9372 0.99497 0.6922 0.0
C591 C 0.90546 0.00638 0.69927 0.0
C592 C 0.95085 0.97434 0.70303 0.0
C593 C 0.99163 0.99367 0.66775 0.0
C594 C 0.95636 0.95337 0.69357 0.0
C595 C 0.96971 0.93415 0.70383 0.0
C596 C 0.97668 0.93538 0.72384 0.0
C597 C 0.97021 0.95613 0.7334 0.0
C598 C 0.95766 0.97547 0.72307 0.0
H599 H 1.00817 0.00658 0.65902 0.0
H600 H 1.0097 0.98731 0.67979 0.0
H601 H 0.98467 0.97901 0.65817 0.0
H602 H 0.95013 0.95178 0.67827 0.0
H603 H 0.97398 0.91824 0.69618 0.0
H604 H 0.70219 0.48459 0.09801 0.0
H605 H 0.67235 0.5091 0.1218 0.0
H606 H 0.6902 0.45745 0.16647 0.0
H607 H 0.72045 0.43273 0.14273 0.0
H608 H 0.607 0.49641 0.14394 0.0
H609 H 0.73008 0.51816 0.19073 0.0
H610 H 0.7354 0.50716 0.16653 0.0
H611 H 0.72194 0.48803 0.1862 0.0
C612 C 0.70015 0.47847 0.11292 0.0
C613 C 0.71369 0.45668 0.11847 0.0
C614 C 0.68304 0.49252 0.12649 0.0
C615 C 0.67934 0.48516 0.14589 0.0
C616 C 0.6933 0.46358 0.15161 0.0
H617 H 0.57155 0.55204 0.24366 0.0
H618 H 0.60496 0.52493 0.22312 0.0
C619 C 0.71043 0.44945 0.13801 0.0
C620 C 0.6591 0.4997 0.1598 0.0
H621 H 0.67076 0.53208 0.20035 0.0
C622 C 0.6209 0.5042 0.15629 0.0
C623 C 0.6773 0.50964 0.17595 0.0
C624 C 0.71852 0.50571 0.1801 0.0
C625 C 0.60039 0.51852 0.16847 0.0
C626 C 0.61882 0.52897 0.18433 0.0
C627 C 0.65681 0.52409 0.18811 0.0
C628 C 0.59931 0.54552 0.19683 0.0
C629 C 0.55905 0.52215 0.16437 0.0
C630 C 0.58569 0.5662 0.18888 0.0
C631 C 0.56671 0.58168 0.20054 0.0
C632 C 0.56126 0.5768 0.22039 0.0
C633 C 0.57549 0.55626 0.2284 0.0
C634 C 0.59449 0.54077 0.21671 0.0
H635 H 0.54696 0.50829 0.15521 0.0
H636 H 0.54256 0.52278 0.17806 0.0
H637 H 0.55568 0.53882 0.15646 0.0
H638 H 0.58982 0.5704 0.17364 0.0
H639 H 0.55642 0.59751 0.19405 0.0
H640 H 0.30584 0.41596 0.35562 0.0
H641 H 0.3286 0.44865 0.33566 0.0
H642 H 0.44259 0.43597 0.3544 0.0
H643 H 0.42017 0.40352 0.37456 0.0
H644 H 0.42114 0.48129 0.35876 0.0
H645 H 0.38811 0.45089 0.28457 0.0
H646 H 0.34906 0.44944 0.30122 0.0
H647 H 0.38935 0.43163 0.30544 0.0
C648 C 0.33583 0.41992 0.35529 0.0
C649 C 0.36117 0.40714 0.36673 0.0
C650 C 0.34879 0.43854 0.3438 0.0
C651 C 0.38732 0.44459 0.34342 0.0
C652 C 0.41275 0.43155 0.35446 0.0
H653 H 0.51176 0.54428 0.27214 0.0
H654 H 0.48738 0.5094 0.28888 0.0
C655 C 0.39985 0.41298 0.36596 0.0
C656 C 0.40095 0.46542 0.33262 0.0
H657 H 0.4079 0.4901 0.28733 0.0
C658 C 0.41833 0.48319 0.34314 0.0
C659 C 0.3974 0.46777 0.31223 0.0
C660 C 0.38028 0.44886 0.30013 0.0
C661 C 0.432 0.50335 0.33384 0.0
C662 C 0.4278 0.50587 0.31354 0.0
C663 C 0.41075 0.48808 0.30294 0.0
C664 C 0.44169 0.52677 0.30308 0.0
C665 C 0.45133 0.52172 0.34571 0.0
C666 C 0.42388 0.54793 0.30554 0.0
C667 C 0.43775 0.5678 0.29604 0.0
C668 C 0.46949 0.56672 0.28392 0.0
C669 C 0.48731 0.54552 0.28149 0.0
C670 C 0.47331 0.52563 0.29091 0.0
H671 H 0.45811 0.51543 0.3606 0.0
H672 H 0.47784 0.5278 0.33851 0.0
H673 H 0.43251 0.53674 0.34689 0.0
H674 H 0.39932 0.54906 0.31482 0.0
H675 H 0.42381 0.58402 0.29826 0.0
H676 H 0.25569 0.04619 0.87582 0.0
H677 H 0.22968 0.01625 0.85486 0.0
H678 H 0.13381 0.05874 0.84217 0.0
H679 H 0.15965 0.08885 0.86297 0.0
H680 H 0.15937 0.99428 0.86133 0.0
H681 H 0.16538 0.03618 0.78835 0.0
H682 H 0.19285 0.04648 0.80861 0.0
H683 H 0.14366 0.05322 0.80665 0.0
C684 C 0.22938 0.04935 0.86832 0.0
C685 C 0.20969 0.0699 0.87112 0.0
C686 C 0.21456 0.0322 0.85637 0.0
C687 C 0.18002 0.03537 0.84683 0.0
C688 C 0.16085 0.05612 0.84912 0.0
H689 H 0.02266 0.95159 0.78203 0.0
H690 H 0.05674 0.98216 0.7992 0.0
C691 C 0.17557 0.07326 0.86111 0.0
C692 C 0.16246 0.01625 0.83586 0.0
H693 H 0.1283 0.00162 0.79133 0.0
C694 C 0.15289 0.99577 0.84598 0.0
C695 C 0.15389 0.01835 0.81587 0.0
C696 C 0.16475 0.03966 0.80415 0.0
C697 C 0.13398 0.97753 0.83679 0.0
C698 C 0.12511 0.97969 0.81684 0.0
C699 C 0.13509 6e-05 0.80664 0.0
C700 C 0.1048 0.96113 0.8064 0.0
C701 C 0.12261 0.95643 0.84868 0.0
C702 C 0.12061 0.93924 0.80472 0.0
C703 C 0.101 0.9217 0.79517 0.0
C704 C 0.06553 0.92587 0.78684 0.0
C705 C 0.0498 0.94783 0.78847 0.0
C706 C 0.06936 0.96534 0.79811 0.0
H707 H 0.12301 0.95986 0.8645 0.0
H708 H 0.0939 0.9502 0.84465 0.0
H709 H 0.14274 0.94242 0.84588 0.0
H710 H 0.14818 0.93573 0.81075 0.0
H711 H 0.11356 0.90486 0.79433 0.0
H712 H 0.21246 0.16779 0.97466 0.0
H713 H 0.1959 0.16904 0.00916 0.0
H714 H 0.25827 0.10689 0.01982 0.0
H715 H 0.27524 0.10561 0.98559 0.0
H716 H 0.15416 0.13547 0.02839 0.0
H717 H 0.2921 0.14684 0.06467 0.0
H718 H 0.28551 0.15284 0.03909 0.0
H719 H 0.29273 0.12375 0.04769 0.0
C720 C 0.22334 0.15467 0.98443 0.0
C721 C 0.24512 0.13657 0.97734 0.0
C722 C 0.21378 0.1554 0.00413 0.0
C723 C 0.22621 0.13822 0.01711 0.0
C724 C 0.24903 0.12061 0.01017 0.0
H725 H 0.13488 0.06793 0.11389 0.0
H726 H 0.15062 0.08542 0.08237 0.0
C727 C 0.25849 0.11983 0.99053 0.0
C728 C 0.21235 0.1371 0.03743 0.0
H729 H 0.2421 0.12927 0.08415 0.0
C730 C 0.17334 0.1346 0.04063 0.0
C731 C 0.23727 0.1363 0.05345 0.0
C732 C 0.27921 0.14032 0.05109 0.0
C733 C 0.15883 0.12974 0.05925 0.0
C734 C 0.18404 0.12701 0.07499 0.0
C735 C 0.2228 0.1311 0.07203 0.0
C736 C 0.17131 0.11764 0.09409 0.0
C737 C 0.1167 0.12696 0.0618 0.0
C738 C 0.17787 0.1299 0.1112 0.0
C739 C 0.16897 0.11986 0.12931 0.0
C740 C 0.15396 0.09727 0.13056 0.0
C741 C 0.14663 0.08531 0.11337 0.0
C742 C 0.15528 0.09537 0.09534 0.0
H743 H 0.10119 0.13673 0.05042 0.0
H744 H 0.1087 0.10846 0.06054 0.0
H745 H 0.10757 0.1329 0.07628 0.0
H746 H 0.19052 0.14703 0.11054 0.0
H747 H 0.17523 0.12938 0.14234 0.0
H748 H 0.29889 0.38639 0.48592 0.0
H749 H 0.31571 0.39104 0.52005 0.0
H750 H 0.40782 0.34419 0.51333 0.0
H751 H 0.39095 0.33915 0.47923 0.0
H752 H 0.36793 0.33808 0.54872 0.0
H753 H 0.40959 0.42968 0.53468 0.0
H754 H 0.36209 0.42233 0.52775 0.0
H755 H 0.40106 0.4096 0.51539 0.0
C756 C 0.32246 0.37684 0.49173 0.0
C757 C 0.34387 0.36262 0.47978 0.0
C758 C 0.33212 0.37961 0.51122 0.0
C759 C 0.36347 0.36833 0.51908 0.0
C760 C 0.38366 0.35316 0.50749 0.0
H761 H 0.4944 0.4083 0.61919 0.0
H762 H 0.47153 0.39812 0.58692 0.0
C763 C 0.37397 0.35032 0.488 0.0
C764 C 0.37647 0.37328 0.53903 0.0
H765 H 0.4111 0.4165 0.56731 0.0
C766 C 0.37734 0.35521 0.55283 0.0
C767 C 0.38928 0.39558 0.54422 0.0
C768 C 0.39086 0.4154 0.52972 0.0
C769 C 0.39034 0.35893 0.57181 0.0
C770 C 0.40228 0.38137 0.5771 0.0
C771 C 0.40167 0.39936 0.56324 0.0
C772 C 0.41628 0.38659 0.59684 0.0
C773 C 0.39197 0.33874 0.58587 0.0
C774 C 0.39272 0.38359 0.6131 0.0
C775 C 0.40569 0.38944 0.63156 0.0
C776 C 0.44237 0.3986 0.63406 0.0
C777 C 0.46588 0.40154 0.61772 0.0
C778 C 0.45292 0.39563 0.5993 0.0
H779 H 0.39104 0.322 0.57827 0.0
H780 H 0.41802 0.33959 0.5948 0.0
H781 H 0.36732 0.33918 0.59579 0.0
H782 H 0.36405 0.37714 0.61147 0.0
H783 H 0.38671 0.38731 0.64381 0.0
H784 H 0.73916 0.40076 0.01863 0.0
H785 H 0.71916 0.39375 0.98535 0.0
H786 H 0.72197 0.32037 0.9963 0.0
H787 H 0.7425 0.32717 0.02971 0.0
H788 H 0.75367 0.33452 0.96017 0.0
H789 H 0.61198 0.37144 0.97144 0.0
H790 H 0.65041 0.39042 0.97782 0.0
H791 H 0.64283 0.36393 0.99132 0.0
C792 C 0.73573 0.3831 0.01399 0.0
C793 C 0.74212 0.36451 0.02692 0.0
C794 C 0.72411 0.37915 0.99497 0.0
C795 C 0.71838 0.35657 0.9885 0.0
C796 C 0.72599 0.33794 1.00109 0.0
H797 H 0.59056 0.31887 0.88598 0.0
H798 H 0.61496 0.32295 0.91896 0.0
C799 C 0.73771 0.34186 0.02016 0.0
C800 C 0.70381 0.35249 0.96869 0.0
H801 H 0.62883 0.36312 0.93897 0.0
C802 C 0.72633 0.34067 0.95552 0.0
C803 C 0.66791 0.36028 0.96279 0.0
C804 C 0.64167 0.37203 0.97661 0.0
C805 C 0.7142 0.33687 0.93642 0.0
C806 C 0.67888 0.34541 0.93032 0.0
C807 C 0.65606 0.35679 0.94363 0.0
C808 C 0.66482 0.34257 0.91025 0.0
C809 C 0.73905 0.3235 0.92302 0.0
C810 C 0.68455 0.35249 0.89444 0.0
C811 C 0.6708 0.35008 0.87556 0.0
C812 C 0.63691 0.3378 0.87215 0.0
C813 C 0.61703 0.32812 0.88807 0.0
C814 C 0.6308 0.33054 0.90693 0.0
H815 H 0.76 0.31312 0.9312 0.0
H816 H 0.72195 0.31177 0.91382 0.0
H817 H 0.75479 0.33575 0.91333 0.0
H818 H 0.71048 0.36223 0.89671 0.0
H819 H 0.68694 0.3576 0.86361 0.0
H820 H 0.87366 0.17 0.5231 0.0
H821 H 0.88225 0.17382 0.48788 0.0
H822 H 0.88598 0.09982 0.4835 0.0
H823 H 0.87713 0.09579 0.51856 0.0
H824 H 0.94338 0.1572 0.46515 0.0
H825 H 0.80561 0.11851 0.44326 0.0
H826 H 0.81461 0.12841 0.46755 0.0
H827 H 0.83266 0.10126 0.4599 0.0
C828 C 0.87606 0.15453 0.51463 0.0
C829 C 0.87455 0.13258 0.52365 0.0
C830 C 0.88107 0.15675 0.49452 0.0
C831 C 0.88432 0.13709 0.48307 0.0
C832 C 0.8829 0.11519 0.49202 0.0
H833 H 0.90578 0.11981 0.35773 0.0
H834 H 0.90549 0.11279 0.39297 0.0
C835 C 0.87799 0.11295 0.5121 0.0
C836 C 0.88996 0.13947 0.4618 0.0
H837 H 0.84946 0.12709 0.41817 0.0
C838 C 0.92285 0.15066 0.45486 0.0
C839 C 0.86325 0.13075 0.44843 0.0
C840 C 0.82687 0.11922 0.45509 0.0
C841 C 0.92984 0.15328 0.43486 0.0
C842 C 0.90285 0.14487 0.42149 0.0
C843 C 0.8702 0.13342 0.42845 0.0
C844 C 0.90675 0.14895 0.40026 0.0
C845 C 0.96623 0.16481 0.42824 0.0
C846 C 0.90785 0.17157 0.3927 0.0
C847 C 0.90817 0.17559 0.37267 0.0
C848 C 0.90706 0.15708 0.35974 0.0
C849 C 0.907 0.13441 0.36732 0.0
C850 C 0.9066 0.13038 0.38742 0.0
H851 H 0.98832 0.16383 0.43965 0.0
H852 H 0.97711 0.15683 0.41486 0.0
H853 H 0.96109 0.18331 0.42504 0.0
H854 H 0.9073 0.18615 0.40229 0.0
H855 H 0.90856 0.19325 0.36728 0.0
H856 H 0.8225 0.84037 0.02633 0.0
H857 H 0.82552 0.83943 0.99083 0.0
H858 H 0.9239 0.88427 0.99146 0.0
H859 H 0.92162 0.88491 0.02677 0.0
H860 H 0.81811 0.8758 0.96658 0.0
H861 H 0.95655 0.83646 0.95341 0.0
H862 H 0.93366 0.83511 0.97684 0.0
H863 H 0.96064 0.86038 0.96946 0.0
C864 C 0.84514 0.84972 0.01891 0.0
C865 C 0.87182 0.86272 0.02939 0.0
C866 C 0.84683 0.84915 0.99864 0.0
C867 C 0.87531 0.86146 0.98849 0.0
C868 C 0.9023 0.87412 0.99896 0.0
H869 H 0.87101 0.92835 0.87801 0.0
H870 H 0.87073 0.91597 0.91205 0.0
C871 C 0.90073 0.87463 0.01919 0.0
C872 C 0.87486 0.86302 0.96699 0.0
H873 H 0.93102 0.85915 0.92689 0.0
C874 C 0.84259 0.87179 0.95788 0.0
C875 C 0.90661 0.85751 0.95558 0.0
C876 C 0.94115 0.84661 0.96432 0.0
C877 C 0.84192 0.87633 0.93784 0.0
C878 C 0.87464 0.87242 0.92668 0.0
C879 C 0.90619 0.86247 0.93555 0.0
C880 C 0.8771 0.87975 0.90602 0.0
C881 C 0.80632 0.88559 0.92883 0.0
C882 C 0.88237 0.86358 0.89139 0.0
C883 C 0.88262 0.87063 0.87184 0.0
C884 C 0.8777 0.89397 0.8667 0.0
C885 C 0.87402 0.91019 0.88149 0.0
C886 C 0.87383 0.90315 0.90094 0.0
H887 H 0.78111 0.88121 0.93786 0.0
H888 H 0.80868 0.90467 0.92763 0.0
H889 H 0.80186 0.87871 0.91406 0.0
H890 H 0.88525 0.84545 0.89506 0.0
H891 H 0.88541 0.85774 0.86076 0.0
H892 H 0.7691 0.61044 0.51711 0.0
H893 H 0.75141 0.60669 0.48296 0.0
H894 H 0.63875 0.6286 0.49625 0.0
H895 H 0.65615 0.63255 0.53035 0.0
H896 H 0.69383 0.57696 0.46957 0.0
H897 H 0.6675 0.6679 0.44795 0.0
H898 H 0.69413 0.66012 0.46935 0.0
H899 H 0.64343 0.65851 0.46972 0.0
C900 C 0.74072 0.61483 0.51272 0.0
C901 C 0.71401 0.62177 0.52647 0.0
C902 C 0.73066 0.61262 0.49322 0.0
C903 C 0.69389 0.61755 0.48707 0.0
C904 C 0.66747 0.62508 0.50064 0.0
H905 H 0.57051 0.56819 0.38757 0.0
H906 H 0.5957 0.57596 0.4199 0.0
C907 C 0.67744 0.62722 0.52015 0.0
C908 C 0.68231 0.61321 0.46679 0.0
H909 H 0.64573 0.63901 0.42622 0.0
C910 C 0.68358 0.59054 0.46003 0.0
C911 C 0.66922 0.631 0.45435 0.0
C912 C 0.66875 0.6558 0.4606 0.0
C913 C 0.6712 0.58507 0.4413 0.0
C914 C 0.6568 0.60271 0.42912 0.0
C915 C 0.65646 0.62549 0.43568 0.0
C916 C 0.6418 0.59783 0.40954 0.0
C917 C 0.6738 0.56049 0.43466 0.0
C918 C 0.65904 0.60785 0.39304 0.0
C919 C 0.64482 0.60338 0.37455 0.0
C920 C 0.61286 0.58894 0.37221 0.0
C921 C 0.59554 0.57905 0.38882 0.0
C922 C 0.60984 0.5835 0.40731 0.0
H923 H 0.69385 0.55041 0.44367 0.0
H924 H 0.64558 0.55199 0.43587 0.0
H925 H 0.6829 0.5599 0.41925 0.0
H926 H 0.68372 0.61898 0.39448 0.0
H927 H 0.65911 0.61106 0.36206 0.0
H928 H 0.3084 0.64588 0.98258 0.0
H929 H 0.31683 0.65398 0.0171 0.0
H930 H 0.33788 0.58203 0.02872 0.0
H931 H 0.33011 0.57382 0.99432 0.0
H932 H 0.27705 0.63613 0.04892 0.0
H933 H 0.42845 0.61378 0.05396 0.0
H934 H 0.40479 0.61817 0.03103 0.0
H935 H 0.399 0.59131 0.04421 0.0
C936 C 0.31493 0.63179 0.99248 0.0
C937 C 0.31881 0.60923 0.98567 0.0
C938 C 0.31973 0.63645 0.01219 0.0
C939 C 0.32866 0.61867 0.02541 0.0
C940 C 0.3319 0.59609 0.01871 0.0
H941 H 0.35807 0.61105 0.15074 0.0
H942 H 0.3519 0.60246 0.11616 0.0
C943 C 0.32719 0.59142 0.99903 0.0
C944 C 0.33365 0.62362 0.0463 0.0
H945 H 0.39666 0.62026 0.08371 0.0
C946 C 0.30325 0.63278 0.05651 0.0
C947 C 0.36786 0.61916 0.05616 0.0
C948 C 0.40203 0.61026 0.04577 0.0
C949 C 0.30594 0.6373 0.07641 0.0
C950 C 0.34011 0.63281 0.08627 0.0
C951 C 0.37049 0.62359 0.07609 0.0
C952 C 0.34502 0.63803 0.10707 0.0
C953 C 0.27202 0.64647 0.08683 0.0
C954 C 0.34404 0.6609 0.11329 0.0
C955 C 0.34785 0.66588 0.13295 0.0
C956 C 0.35273 0.64807 0.14681 0.0
C957 C 0.35459 0.62518 0.14045 0.0
C958 C 0.35088 0.62022 0.12073 0.0
H959 H 0.24561 0.64382 0.07841 0.0
H960 H 0.26857 0.63803 0.10133 0.0
H961 H 0.27607 0.66527 0.089 0.0
H962 H 0.34036 0.67492 0.10291 0.0
H963 H 0.34715 0.68373 0.13727 0.0
H964 H 0.26272 0.87551 0.49456 0.0
H965 H 0.24419 0.86627 0.52806 0.0
H966 H 0.13648 0.84042 0.50805 0.0
H967 H 0.15481 0.84935 0.47455 0.0
H968 H 0.18192 0.88523 0.54671 0.0
H969 H 0.17035 0.78968 0.54605 0.0
H970 H 0.1955 0.80619 0.52755 0.0
H971 H 0.14486 0.80389 0.5269 0.0
C972 C 0.23532 0.86751 0.49724 0.0
C973 C 0.21021 0.86319 0.48188 0.0
C974 C 0.22478 0.86228 0.51639 0.0
C975 C 0.18913 0.85246 0.5205 0.0
C976 C 0.16439 0.84759 0.50517 0.0
H977 H 0.05627 0.82312 0.62361 0.0
H978 H 0.08079 0.82783 0.59052 0.0
C979 C 0.17487 0.85284 0.48603 0.0
C980 C 0.17665 0.84896 0.54086 0.0
H981 H 0.14439 0.80822 0.57347 0.0
C982 C 0.17404 0.86837 0.55264 0.0
C983 C 0.16615 0.82697 0.54847 0.0
C984 C 0.16963 0.80544 0.53666 0.0
C985 C 0.16036 0.86648 0.57172 0.0
C986 C 0.14971 0.8445 0.57931 0.0
C987 C 0.15255 0.82505 0.56758 0.0
C988 C 0.13527 0.84137 0.59937 0.0
C989 C 0.1564 0.8881 0.58338 0.0
C990 C 0.15799 0.84714 0.61529 0.0
C991 C 0.14409 0.84447 0.63419 0.0
C992 C 0.1073 0.83579 0.63752 0.0
C993 C 0.08482 0.82969 0.62153 0.0
C994 C 0.09873 0.83242 0.60263 0.0
H995 H 0.15651 0.90385 0.57395 0.0
H996 H 0.1299 0.88754 0.59201 0.0
H997 H 0.18049 0.88958 0.59358 0.0
H998 H 0.18657 0.85359 0.6131 0.0
H999 H 0.16234 0.84891 0.64621 0.0
H1000 H 0.27962 0.27802 0.36888 0.0
H1001 H 0.24863 0.24861 0.34904 0.0
H1002 H 0.14798 0.28929 0.34654 0.0
H1003 H 0.17866 0.3188 0.36631 0.0
H1004 H 0.17851 0.22387 0.35732 0.0
H1005 H 0.17306 0.27581 0.28887 0.0
H1006 H 0.20406 0.28312 0.30871 0.0
H1007 H 0.15475 0.28962 0.30996 0.0
C1008 C 0.25091 0.28074 0.36408 0.0
C1009 C 0.23165 0.3008 0.36911 0.0
C1010 C 0.23327 0.26391 0.35277 0.0
C1011 C 0.19625 0.26696 0.34614 0.0
C1012 C 0.17681 0.28682 0.35127 0.0
H1013 H 0.03779 0.18979 0.27619 0.0
H1014 H 0.07112 0.21825 0.29592 0.0
C1015 C 0.19433 0.3036 0.36265 0.0
C1016 C 0.17764 0.24917 0.33412 0.0
H1017 H 0.13971 0.24004 0.28933 0.0
C1018 C 0.17018 0.22731 0.34242 0.0
C1019 C 0.1668 0.25381 0.31472 0.0
C1020 C 0.17529 0.27678 0.30491 0.0
C1021 C 0.15125 0.21006 0.33196 0.0
C1022 C 0.14031 0.2147 0.31255 0.0
C1023 C 0.14808 0.23654 0.30421 0.0
C1024 C 0.1203 0.19727 0.30069 0.0
C1025 C 0.14219 0.18728 0.34198 0.0
C1026 C 0.13702 0.1761 0.29671 0.0
C1027 C 0.11784 0.1597 0.28564 0.0
C1028 C 0.08191 0.16435 0.27801 0.0
C1029 C 0.06538 0.18565 0.28189 0.0
C1030 C 0.08446 0.20197 0.29309 0.0
H1031 H 0.14329 0.18868 0.35804 0.0
H1032 H 0.11375 0.18074 0.33782 0.0
H1033 H 0.16325 0.1744 0.33763 0.0
H1034 H 0.16493 0.17226 0.30213 0.0
H1035 H 0.13104 0.14331 0.28324 0.0
H1036 H 0.27113 0.2218 0.87841 0.0
H1037 H 0.30968 0.25005 0.86021 0.0
H1038 H 0.40279 0.20311 0.86069 0.0
H1039 H 0.36463 0.17486 0.87927 0.0
H1040 H 0.42492 0.24767 0.86892 0.0
H1041 H 0.33554 0.24655 0.80294 0.0
H1042 H 0.30966 0.25296 0.82452 0.0
H1043 H 0.33073 0.22513 0.82214 0.0
C1044 C 0.29982 0.21746 0.87467 0.0
C1045 C 0.31472 0.196 0.88018 0.0
C1046 C 0.32174 0.23358 0.86415 0.0
C1047 C 0.35883 0.22849 0.85873 0.0
C1048 C 0.37412 0.20732 0.8646 0.0
H1049 H 0.52749 0.30697 0.79048 0.0
H1050 H 0.49512 0.27698 0.81008 0.0
C1051 C 0.35226 0.1912 0.87521 0.0
C1052 C 0.38168 0.24535 0.84706 0.0
H1053 H 0.38204 0.27661 0.80458 0.0
C1054 C 0.41575 0.25386 0.85478 0.0
C1055 C 0.36975 0.2533 0.82855 0.0
C1056 C 0.33462 0.24385 0.81894 0.0
C1057 C 0.43754 0.2707 0.84478 0.0
C1058 C 0.42503 0.27903 0.82653 0.0
C1059 C 0.39137 0.27024 0.81865 0.0
C1060 C 0.44579 0.29739 0.81556 0.0
C1061 C 0.47317 0.27998 0.85401 0.0
C1062 C 0.42869 0.31869 0.81212 0.0
C1063 C 0.44724 0.33587 0.80115 0.0
C1064 C 0.48305 0.33195 0.79319 0.0
C1065 C 0.50029 0.31065 0.79676 0.0
C1066 C 0.48177 0.29348 0.80787 0.0
H1067 H 0.47508 0.27502 0.86962 0.0
H1068 H 0.49803 0.27298 0.84643 0.0
H1069 H 0.47471 0.29908 0.85261 0.0
H1070 H 0.40086 0.322 0.81787 0.0
H1071 H 0.43334 0.35216 0.79874 0.0
H1072 H 0.68229 0.18061 0.63243 0.0
H1073 H 0.64911 0.2088 0.65186 0.0
H1074 H 0.75538 0.24146 0.6664 0.0
H1075 H 0.78874 0.21366 0.64668 0.0
H1076 H 0.65412 0.21828 0.69052 0.0
H1077 H 0.69487 0.29566 0.64638 0.0
H1078 H 0.70165 0.2667 0.63804 0.0
H1079 H 0.73441 0.2794 0.65486 0.0
C1080 C 0.69863 0.19384 0.6397 0.0
C1081 C 0.73817 0.19498 0.63788 0.0
C1082 C 0.6796 0.20992 0.65083 0.0
C1083 C 0.69969 0.22747 0.66034 0.0
C1084 C 0.73921 0.22841 0.65884 0.0
H1085 H 0.61129 0.31247 0.75279 0.0
H1086 H 0.6448 0.28385 0.734 0.0
C1087 C 0.75826 0.2124 0.64763 0.0
C1088 C 0.67926 0.24461 0.672 0.0
H1089 H 0.66439 0.30233 0.67642 0.0
C1090 C 0.65629 0.23666 0.68742 0.0
C1091 C 0.68171 0.26857 0.66778 0.0
C1092 C 0.70418 0.27812 0.65075 0.0
C1093 C 0.63604 0.25201 0.69887 0.0
C1094 C 0.63944 0.27601 0.69502 0.0
C1095 C 0.6621 0.28394 0.67948 0.0
C1096 C 0.61898 0.29322 0.70658 0.0
C1097 C 0.61055 0.24235 0.71469 0.0
C1098 C 0.59397 0.30837 0.69737 0.0
C1099 C 0.57514 0.32494 0.708 0.0
C1100 C 0.581 0.32679 0.72812 0.0
C1101 C 0.60606 0.31155 0.73733 0.0
C1102 C 0.62505 0.29503 0.72664 0.0
H1103 H 0.60329 0.22388 0.71237 0.0
H1104 H 0.62522 0.24364 0.72886 0.0
H1105 H 0.58398 0.25218 0.71553 0.0
H1106 H 0.58895 0.30733 0.6819 0.0
H1107 H 0.55613 0.33638 0.70039 0.0
H1108 H 0.88927 0.31331 0.10794 0.0
H1109 H 0.92399 0.28245 0.12423 0.0
H1110 H 0.82025 0.25609 0.14961 0.0
H1111 H 0.78524 0.28652 0.13302 0.0
H1112 H 0.93148 0.27437 0.16246 0.0
H1113 H 0.86482 0.19787 0.12884 0.0
H1114 H 0.85888 0.22674 0.11924 0.0
H1115 H 0.83074 0.2164 0.13945 0.0
C1116 C 0.87378 0.3008 0.11682 0.0
C1117 C 0.83446 0.30234 0.11913 0.0
C1118 C 0.89367 0.28317 0.12613 0.0
C1119 C 0.87466 0.26672 0.13789 0.0
C1120 C 0.83541 0.26821 0.14021 0.0
H1121 H 0.96275 0.1869 0.23309 0.0
H1122 H 0.93386 0.2151 0.21137 0.0
C1123 C 0.81546 0.28574 0.13082 0.0
C1124 C 0.89613 0.24887 0.14869 0.0
H1125 H 0.90025 0.19091 0.15795 0.0
C1126 C 0.9249 0.25611 0.16132 0.0
C1127 C 0.88799 0.22501 0.14698 0.0
C1128 C 0.8592 0.21601 0.13274 0.0
C1129 C 0.94481 0.24021 0.17278 0.0
C1130 C 0.93509 0.21648 0.17192 0.0
C1131 C 0.90732 0.20914 0.15878 0.0
C1132 C 0.95261 0.19913 0.18498 0.0
C1133 C 0.97615 0.24901 0.18565 0.0
C1134 C 0.97179 0.18034 0.17736 0.0
C1135 C 0.98805 0.16394 0.18977 0.0
C1136 C 0.9853 0.16604 0.21004 0.0
C1137 C 0.96568 0.18478 0.21757 0.0
C1138 C 0.94933 0.20106 0.20518 0.0
H1139 H 0.98763 0.26591 0.18031 0.0
H1140 H 0.96491 0.25147 0.2005 0.0
H1141 H 0.9996 0.23658 0.18657 0.0
H1142 H 0.97438 0.17844 0.16181 0.0
H1143 H 1.00274 0.14964 0.18348 0.0
H1144 H 0.8528 0.67746 0.63769 0.0
H1145 H 0.88668 0.70718 0.65583 0.0
H1146 H 0.79131 0.75203 0.65003 0.0
H1147 H 0.75679 0.72211 0.63244 0.0
H1148 H 0.90888 0.74998 0.64551 0.0
H1149 H 0.80944 0.75456 0.70746 0.0
H1150 H 0.80664 0.73191 0.68987 0.0
H1151 H 0.78715 0.75977 0.68448 0.0
C1152 C 0.83896 0.69361 0.64035 0.0
C1153 C 0.80199 0.69736 0.63376 0.0
C1154 C 0.85838 0.7106 0.65071 0.0
C1155 C 0.8413 0.73169 0.65463 0.0
C1156 C 0.80468 0.73566 0.64769 0.0
H1157 H 0.92315 0.85852 0.70658 0.0
H1158 H 0.88868 0.82937 0.68787 0.0
C1159 C 0.78508 0.71859 0.63751 0.0
C1160 C 0.86219 0.74966 0.6656 0.0
H1161 H 0.85746 0.78371 0.70551 0.0
C1162 C 0.89769 0.75725 0.65868 0.0
C1163 C 0.84764 0.75911 0.68284 0.0
C1164 C 0.81081 0.75077 0.69172 0.0
C1165 C 0.91876 0.77422 0.66838 0.0
C1166 C 0.90391 0.78381 0.6854 0.0
C1167 C 0.8685 0.77634 0.69234 0.0
C1168 C 0.92507 0.8014 0.69639 0.0
C1169 C 0.95662 0.78199 0.66036 0.0
C1170 C 0.95669 0.79518 0.7074 0.0
C1171 C 0.97601 0.81168 0.71828 0.0
C1172 C 0.96404 0.83464 0.71825 0.0
C1173 C 0.93269 0.84088 0.70699 0.0
C1174 C 0.91312 0.82432 0.69627 0.0
H1175 H 0.96147 0.77557 0.64548 0.0
H1176 H 0.95896 0.80112 0.66005 0.0
H1177 H 0.97931 0.7754 0.66995 0.0
H1178 H 0.96604 0.77748 0.70777 0.0
H1179 H 0.9998 0.80636 0.72704 0.0
H1180 H 0.65633 0.82637 0.13322 0.0
H1181 H 0.62263 0.79592 0.15152 0.0
H1182 H 0.72459 0.75651 0.15491 0.0
H1183 H 0.75872 0.78702 0.13687 0.0
H1184 H 0.61153 0.74981 0.14256 0.0
H1185 H 0.69079 0.75886 0.2116 0.0
H1186 H 0.69321 0.78035 0.19234 0.0
H1187 H 0.7199 0.75437 0.19069 0.0
C1188 C 0.67165 0.81126 0.1379 0.0
C1189 C 0.71028 0.80918 0.13368 0.0
C1190 C 0.65232 0.79387 0.14833 0.0
C1191 C 0.67124 0.77412 0.15481 0.0
C1192 C 0.70965 0.77182 0.15039 0.0
H1193 H 0.56395 0.64621 0.1973 0.0
H1194 H 0.59866 0.67556 0.178 0.0
C1195 C 0.72905 0.78923 0.13999 0.0
C1196 C 0.65053 0.75583 0.16596 0.0
H1197 H 0.64771 0.7273 0.20971 0.0
C1198 C 0.61941 0.74487 0.15725 0.0
C1199 C 0.66067 0.74961 0.18518 0.0
C1200 C 0.69274 0.76153 0.19561 0.0
C1201 C 0.59824 0.72773 0.16721 0.0
C1202 C 0.60889 0.72118 0.18627 0.0
C1203 C 0.63986 0.73223 0.19502 0.0
C1204 C 0.58757 0.70339 0.19765 0.0
C1205 C 0.56417 0.71717 0.15742 0.0
C1206 C 0.57036 0.70926 0.21519 0.0
C1207 C 0.55072 0.69256 0.2262 0.0
C1208 C 0.54825 0.66969 0.21993 0.0
C1209 C 0.56519 0.66382 0.20231 0.0
C1210 C 0.58497 0.68053 0.19131 0.0
H1211 H 0.55453 0.72792 0.14493 0.0
H1212 H 0.57155 0.69997 0.15188 0.0
H1213 H 0.5404 0.71482 0.16782 0.0
H1214 H 0.5721 0.72678 0.22035 0.0
H1215 H 0.53751 0.69751 0.23964 0.0
H1216 H 0.27117 0.78573 0.38162 0.0
H1217 H 0.30018 0.75391 0.36455 0.0
H1218 H 0.38701 0.80046 0.34252 0.0
H1219 H 0.35904 0.83211 0.36019 0.0
H1220 H 0.31159 0.74668 0.32756 0.0
H1221 H 0.45057 0.74995 0.364 0.0
H1222 H 0.41085 0.76605 0.37243 0.0
H1223 H 0.43958 0.77705 0.35263 0.0
C1224 C 0.29655 0.78916 0.37321 0.0
C1225 C 0.31301 0.81139 0.37238 0.0
C1226 C 0.3131 0.77095 0.36345 0.0
C1227 C 0.34627 0.77465 0.35257 0.0
C1228 C 0.36215 0.79699 0.35131 0.0
H1229 H 0.42623 0.68613 0.26182 0.0
H1230 H 0.3959 0.71553 0.28102 0.0
C1231 C 0.34594 0.81512 0.3613 0.0
C1232 C 0.36362 0.75527 0.34213 0.0
H1233 H 0.44678 0.72768 0.33517 0.0
C1234 C 0.34109 0.74241 0.32935 0.0
C1235 C 0.40192 0.74936 0.34472 0.0
C1236 C 0.427 0.76117 0.35935 0.0
C1237 C 0.35598 0.7242 0.31876 0.0
C1238 C 0.39482 0.7192 0.3205 0.0
C1239 C 0.41713 0.73169 0.33362 0.0
C1240 C 0.41301 0.70118 0.30881 0.0
C1241 C 0.32968 0.71028 0.30612 0.0
C1242 C 0.43393 0.68374 0.31796 0.0
C1243 C 0.45204 0.66717 0.30697 0.0
C1244 C 0.44936 0.66762 0.28662 0.0
C1245 C 0.42843 0.6851 0.27749 0.0
C1246 C 0.41082 0.70185 0.28846 0.0
H1247 H 0.30001 0.71112 0.31126 0.0
H1248 H 0.33064 0.71744 0.29108 0.0
H1249 H 0.33789 0.69189 0.30578 0.0
H1250 H 0.43621 0.68294 0.33363 0.0
H1251 H 0.46793 0.65393 0.31445 0.0
H1252 H 0.17972 0.6813 0.88102 0.0
H1253 H 0.14005 0.71011 0.86513 0.0
H1254 H 0.23705 0.73747 0.834 0.0
H1255 H 0.27709 0.70923 0.85032 0.0
H1256 H 0.19584 0.77144 0.84797 0.0
H1257 H 0.10118 0.70954 0.81045 0.0
H1258 H 0.10188 0.7052 0.83628 0.0
H1259 H 0.14405 0.70076 0.82234 0.0
C1260 C 0.19258 0.6934 0.87073 0.0
C1261 C 0.23154 0.69289 0.86686 0.0
C1262 C 0.1698 0.70978 0.86156 0.0
C1263 C 0.18538 0.7257 0.84807 0.0
C1264 C 0.22433 0.72531 0.8443 0.0
H1265 H 0.0711 0.80656 0.76102 0.0
H1266 H 0.10532 0.77796 0.7801 0.0
C1267 C 0.24719 0.70912 0.85361 0.0
C1268 C 0.16138 0.74303 0.83808 0.0
H1269 H 0.08401 0.74888 0.80896 0.0
C1270 C 0.17138 0.7665 0.83944 0.0
C1271 C 0.12971 0.73659 0.82676 0.0
C1272 C 0.11874 0.71165 0.82368 0.0
C1273 C 0.15073 0.78367 0.82975 0.0
C1274 C 0.1185 0.77725 0.81884 0.0
C1275 C 0.10842 0.7538 0.81754 0.0
C1276 C 0.0963 0.79442 0.80763 0.0
C1277 C 0.16445 0.80842 0.83073 0.0
C1278 C 0.07908 0.81299 0.81679 0.0
C1279 C 0.05979 0.8296 0.80584 0.0
C1280 C 0.05713 0.82779 0.78556 0.0
C1281 C 0.07307 0.80866 0.77658 0.0
C1282 C 0.09254 0.79222 0.78748 0.0
H1283 H 0.19441 0.80966 0.83542 0.0
H1284 H 0.16171 0.81735 0.81643 0.0
H1285 H 0.14716 0.81767 0.84143 0.0
H1286 H 0.08077 0.81473 0.83239 0.0
H1287 H 0.04755 0.84403 0.81321 0.0
loop_
_geom_bond_atom_site_label_1
_geom_bond_atom_site_label_2
_geom_bond_distance
_geom_bond_site_symmetry_2
_ccdc_geom_bond_type
O0 Cd1 2.300 . S
O0 C7 1.275 . S
Cd1 O0 2.300 . S
Cd1 O9 2.381 . S
Cd1 O10 2.378 . S
O2 Cd3 2.385 . S
O2 C7 1.255 . S
Cd3 O2 2.385 . S
Cd3 O4 2.317 . S
O4 Cd3 2.317 . S
O4 C5 1.232 . S
C5 O4 1.232 . S
C5 O6 1.218 . S
O6 C5 1.218 . S
C7 O0 1.275 . S
C7 O2 1.255 . S
C8 O9 1.258 . S
C8 O10 1.256 . S
O9 Cd1 2.381 . S
O9 C8 1.258 . S
O10 Cd1 2.378 . S
O10 C8 1.256 . S
O11 Cd12 2.300 . S
O11 C18 1.275 . S
Cd12 O11 2.300 . S
Cd12 O20 2.381 . S
Cd12 O21 2.378 . S
O13 Cd14 2.385 . S
O13 C18 1.255 . S
Cd14 O13 2.385 . S
Cd14 O15 2.317 . S
O15 Cd14 2.317 . S
O15 C16 1.232 . S
C16 O15 1.232 . S
C16 O17 1.218 . S
O17 C16 1.218 . S
C18 O11 1.275 . S
C18 O13 1.255 . S
C19 O20 1.258 . S
C19 O21 1.256 . S
O20 Cd12 2.381 . S
O20 C19 1.258 . S
O21 Cd12 2.378 . S
O21 C19 1.256 . S
O22 Cd23 2.300 . S
O22 C29 1.275 . S
Cd23 O22 2.300 . S
Cd23 O31 2.381 . S
Cd23 O32 2.378 . S
O24 Cd25 2.385 . S
O24 C29 1.255 . S
Cd25 O24 2.385 . S
Cd25 O26 2.317 . S
O26 Cd25 2.317 . S
O26 C27 1.232 . S
C27 O26 1.232 . S
C27 O28 1.218 . S
O28 C27 1.218 . S
C29 O22 1.275 . S
C29 O24 1.255 . S
C30 O31 1.258 . S
C30 O32 1.256 . S
O31 Cd23 2.381 . S
O31 C30 1.258 . S
O32 Cd23 2.378 . S
O32 C30 1.256 . S
O33 Cd34 2.300 . S
O33 C40 1.275 . S
Cd34 O33 2.300 . S
Cd34 O42 2.381 . S
Cd34 O43 2.378 . S
O35 Cd36 2.385 . S
O35 C40 1.255 . S
Cd36 O35 2.385 . S
Cd36 O37 2.317 . S
O37 Cd36 2.317 . S
O37 C38 1.232 . S
C38 O37 1.232 . S
C38 O39 1.218 . S
O39 C38 1.218 . S
C40 O33 1.275 . S
C40 O35 1.255 . S
C41 O42 1.258 . S
C41 O43 1.256 . S
O42 Cd34 2.381 . S
O42 C41 1.258 . S
O43 Cd34 2.378 . S
O43 C41 1.256 . S
O44 Cd45 2.300 . S
O44 C51 1.275 . S
Cd45 O44 2.300 . S
Cd45 O53 2.381 . S
Cd45 O54 2.378 . S
O46 Cd47 2.385 . S
O46 C51 1.255 . S
Cd47 O46 2.385 . S
Cd47 O48 2.317 . S
O48 Cd47 2.317 . S
O48 C49 1.232 . S
C49 O48 1.232 . S
C49 O50 1.218 . S
O50 C49 1.218 . S
C51 O44 1.275 . S
C51 O46 1.255 . S
C52 O53 1.258 . S
C52 O54 1.256 . S
O53 Cd45 2.381 . S
O53 C52 1.258 . S
O54 Cd45 2.378 . S
O54 C52 1.256 . S
O55 Cd56 2.300 . S
O55 C62 1.275 . S
Cd56 O55 2.300 . S
Cd56 O64 2.381 . S
Cd56 O65 2.378 . S
O57 Cd58 2.385 . S
O57 C62 1.255 . S
Cd58 O57 2.385 . S
Cd58 O59 2.317 . S
O59 Cd58 2.317 . S
O59 C60 1.232 . S
C60 O59 1.232 . S
C60 O61 1.218 . S
O61 C60 1.218 . S
C62 O55 1.275 . S
C62 O57 1.255 . S
C63 O64 1.258 . S
C63 O65 1.256 . S
O64 Cd56 2.381 . S
O64 C63 1.258 . S
O65 Cd56 2.378 . S
O65 C63 1.256 . S
O66 Cd67 2.300 . S
O66 C73 1.275 . S
Cd67 O66 2.300 . S
Cd67 O75 2.381 . S
Cd67 O76 2.378 . S
O68 Cd69 2.385 . S
O68 C73 1.255 . S
Cd69 O68 2.385 . S
Cd69 O70 2.317 . S
O70 Cd69 2.317 . S
O70 C71 1.232 . S
C71 O70 1.232 . S
C71 O72 1.218 . S
O72 C71 1.218 . S
C73 O66 1.275 . S
C73 O68 1.255 . S
C74 O75 1.258 . S
C74 O76 1.256 . S
O75 Cd67 2.381 . S
O75 C74 1.258 . S
O76 Cd67 2.378 . S
O76 C74 1.256 . S
O77 Cd78 2.300 . S
O77 C84 1.275 . S
Cd78 O77 2.300 . S
Cd78 O86 2.381 . S
Cd78 O87 2.378 . S
O79 Cd80 2.385 . S
O79 C84 1.255 . S
Cd80 O79 2.385 . S
Cd80 O81 2.317 . S
O81 Cd80 2.317 . S
O81 C82 1.232 . S
C82 O81 1.232 . S
C82 O83 1.218 . S
O83 C82 1.218 . S
C84 O77 1.275 . S
C84 O79 1.255 . S
C85 O86 1.258 . S
C85 O87 1.256 . S
O86 Cd78 2.381 . S
O86 C85 1.258 . S
O87 Cd78 2.378 . S
O87 C85 1.256 . S
Eu88 N117 2.600 . S
Eu88 N123 2.562 . S
Eu88 O132 2.462 . S
Eu88 O133 2.373 . S
Eu88 O135 2.432 . S
Eu88 O136 2.291 . S
Eu88 O140 2.335 . S
Eu88 O143 2.372 . S
Eu88 C152 2.787 . S
C89 N90 1.365 . S
C89 C92 1.405 . S
C89 C96 1.448 . S
N90 C89 1.365 . S
N90 C93 1.319 . S
N90 Eu99 2.600 . S
C91 C93 1.397 . S
C91 C94 1.367 . S
C91 H111 0.931 . S
C92 C89 1.405 . S
C92 C94 1.403 . S
C92 C98 1.439 . S
C93 N90 1.319 . S
C93 C91 1.397 . S
C93 H104 0.930 . S
C94 C91 1.367 . S
C94 C92 1.403 . S
C94 H115 0.929 . S
C95 C96 1.430 . S
C95 C97 1.387 . S
C95 C101 1.404 . S
C96 C89 1.448 . S
C96 C95 1.430 . S
C96 N100 1.351 . S
C97 C95 1.387 . S
C97 C98 1.374 . S
C97 H112 0.931 . S
C98 C92 1.439 . S
C98 C97 1.374 . S
C98 H113 0.931 . S
Eu99 N90 2.600 . S
Eu99 N100 2.562 . S
Eu99 O134 2.335 1_655 S
Eu99 O137 2.372 . S
Eu99 O138 2.462 . S
Eu99 O139 2.373 . S
Eu99 O141 2.432 . S
Eu99 O142 2.291 1_655 S
Eu99 C163 2.787 . S
N100 C96 1.351 . S
N100 Eu99 2.562 . S
N100 C102 1.325 . S
C101 C95 1.404 . S
C101 C103 1.366 . S
C101 H109 0.930 . S
C102 N100 1.325 . S
C102 C103 1.416 . S
C102 H108 0.929 . S
C103 C101 1.366 . S
C103 C102 1.416 . S
C103 H105 0.930 . S
H104 C93 0.930 . S
H105 C103 0.930 . S
H106 C121 0.930 . S
H107 C128 0.930 . S
H108 C102 0.929 . S
H109 C101 0.930 . S
H110 C124 0.929 . S
H111 C91 0.931 . S
H112 C97 0.931 . S
H113 C98 0.931 . S
H114 C119 0.931 . S
H115 C94 0.929 . S
H116 C127 0.930 . S
N117 Eu88 2.600 . S
N117 C118 1.365 . S
N117 C121 1.319 . S
C118 N117 1.365 . S
C118 C120 1.405 . S
C118 C126 1.448 . S
C119 H114 0.931 . S
C119 C121 1.397 . S
C119 C122 1.367 . S
C120 C118 1.405 . S
C120 C122 1.403 . S
C120 C153 1.439 . S
C121 H106 0.930 . S
C121 N117 1.319 . S
C121 C119 1.397 . S
C122 C119 1.367 . S
C122 C120 1.403 . S
C122 H129 0.929 . S
N123 Eu88 2.562 . S
N123 C124 1.325 . S
N123 C126 1.351 . S
C124 H110 0.929 . S
C124 N123 1.325 . S
C124 C128 1.416 . S
C125 C126 1.430 . S
C125 C127 1.404 . S
C125 C154 1.387 . S
C126 C118 1.448 . S
C126 N123 1.351 . S
C126 C125 1.430 . S
C127 H116 0.930 . S
C127 C125 1.404 . S
C127 C128 1.366 . S
C128 H107 0.930 . S
C128 C124 1.416 . S
C128 C127 1.366 . S
H129 C122 0.929 . S
H130 C153 0.931 . S
H131 C154 0.931 . S
O132 Eu88 2.462 . S
O132 C152 1.252 . S
O133 Eu88 2.373 . S
O133 C144 1.249 . S
O134 Eu99 2.335 1_455 S
O134 C144 1.264 . S
O135 Eu88 2.432 . S
O135 C152 1.268 . S
O136 Eu88 2.291 . S
O136 C151 1.255 1_455 S
O137 Eu99 2.372 . S
O137 C151 1.257 . S
O138 Eu99 2.462 . S
O138 C163 1.252 . S
O139 Eu99 2.373 . S
O139 C155 1.249 . S
O140 Eu88 2.335 . S
O140 C155 1.264 1_455 S
O141 Eu99 2.432 . S
O141 C163 1.268 . S
O142 Eu99 2.291 1_455 S
O142 C162 1.255 . S
O143 Eu88 2.372 . S
O143 C162 1.257 . S
C144 O133 1.249 . S
C144 O134 1.264 . S
C145 C148 1.382 . S
C145 C150 1.390 . S
C145 C152 1.506 . S
C146 C147 1.398 . S
C146 C150 1.392 . S
C147 C146 1.398 . S
C147 C149 1.372 . S
C147 H164 0.931 . S
C148 C145 1.382 . S
C148 C149 1.390 . S
C148 H165 0.931 . S
C149 C147 1.372 . S
C149 C148 1.390 . S
C149 H166 0.929 . S
C150 C145 1.390 . S
C150 C146 1.392 . S
C150 H167 0.930 . S
C151 O136 1.255 1_655 S
C151 O137 1.257 . S
C152 Eu88 2.787 . S
C152 O132 1.252 . S
C152 O135 1.268 . S
C152 C145 1.506 . S
C153 C120 1.439 . S
C153 H130 0.931 . S
C153 C154 1.374 . S
C154 C125 1.387 . S
C154 H131 0.931 . S
C154 C153 1.374 . S
C155 O139 1.249 . S
C155 O140 1.264 1_655 S
C156 C159 1.382 . S
C156 C160 1.390 . S
C156 C163 1.506 . S
C157 C158 1.398 . S
C157 C160 1.392 . S
C158 C157 1.398 . S
C158 C161 1.372 . S
C158 H168 0.931 . S
C159 C156 1.382 . S
C159 C161 1.390 . S
C159 H169 0.931 . S
C160 C156 1.390 . S
C160 C157 1.392 . S
C160 H170 0.930 . S
C161 C158 1.372 . S
C161 C159 1.390 . S
C161 H171 0.929 . S
C162 O142 1.255 . S
C162 O143 1.257 . S
C163 Eu99 2.787 . S
C163 O138 1.252 . S
C163 O141 1.268 . S
C163 C156 1.506 . S
H164 C147 0.931 . S
H165 C148 0.931 . S
H166 C149 0.929 . S
H167 C150 0.930 . S
H168 C158 0.931 . S
H169 C159 0.931 . S
H170 C160 0.930 . S
H171 C161 0.929 . S
Eu172 N201 2.600 . S
Eu172 N207 2.562 . S
Eu172 O216 2.462 . S
Eu172 O217 2.373 . S
Eu172 O219 2.432 . S
Eu172 O220 2.291 . S
Eu172 O224 2.335 . S
Eu172 O227 2.372 . S
Eu172 C236 2.787 . S
C173 N174 1.365 . S
C173 C176 1.405 . S
C173 C180 1.448 . S
N174 C173 1.365 . S
N174 C177 1.319 . S
N174 Eu183 2.600 . S
C175 C177 1.397 . S
C175 C178 1.367 . S
C175 H195 0.931 . S
C176 C173 1.405 . S
C176 C178 1.403 . S
C176 C182 1.439 . S
C177 N174 1.319 . S
C177 C175 1.397 . S
C177 H188 0.930 . S
C178 C175 1.367 . S
C178 C176 1.403 . S
C178 H199 0.929 . S
C179 C180 1.430 . S
C179 C181 1.387 . S
C179 C185 1.404 . S
C180 C173 1.448 . S
C180 C179 1.430 . S
C180 N184 1.351 . S
C181 C179 1.387 . S
C181 C182 1.374 . S
C181 H196 0.931 . S
C182 C176 1.439 . S
C182 C181 1.374 . S
C182 H197 0.931 . S
Eu183 N174 2.600 . S
Eu183 N184 2.562 . S
Eu183 O218 2.335 . S
Eu183 O221 2.372 . S
Eu183 O222 2.462 . S
Eu183 O223 2.373 . S
Eu183 O225 2.432 . S
Eu183 O226 2.291 . S
Eu183 C247 2.787 . S
N184 C180 1.351 . S
N184 Eu183 2.562 . S
N184 C186 1.325 . S
C185 C179 1.404 . S
C185 C187 1.366 . S
C185 H193 0.930 . S
C186 N184 1.325 . S
C186 C187 1.416 . S
C186 H192 0.929 . S
C187 C185 1.366 . S
C187 C186 1.416 . S
C187 H189 0.930 . S
H188 C177 0.930 . S
H189 C187 0.930 . S
H190 C205 0.930 . S
H191 C212 0.930 . S
H192 C186 0.929 . S
H193 C185 0.930 . S
H194 C208 0.929 . S
H195 C175 0.931 . S
H196 C181 0.931 . S
H197 C182 0.931 . S
H198 C203 0.931 . S
H199 C178 0.929 . S
H200 C211 0.930 . S
N201 Eu172 2.600 . S
N201 C202 1.365 . S
N201 C205 1.319 . S
C202 N201 1.365 . S
C202 C204 1.405 . S
C202 C210 1.448 . S
C203 H198 0.931 . S
C203 C205 1.397 . S
C203 C206 1.367 . S
C204 C202 1.405 . S
C204 C206 1.403 . S
C204 C237 1.439 . S
C205 H190 0.930 . S
C205 N201 1.319 . S
C205 C203 1.397 . S
C206 C203 1.367 . S
C206 C204 1.403 . S
C206 H213 0.929 . S
N207 Eu172 2.562 . S
N207 C208 1.325 . S
N207 C210 1.351 . S
C208 H194 0.929 . S
C208 N207 1.325 . S
C208 C212 1.416 . S
C209 C210 1.430 . S
C209 C211 1.404 . S
C209 C238 1.387 . S
C210 C202 1.448 . S
C210 N207 1.351 . S
C210 C209 1.430 . S
C211 H200 0.930 . S
C211 C209 1.404 . S
C211 C212 1.366 . S
C212 H191 0.930 . S
C212 C208 1.416 . S
C212 C211 1.366 . S
H213 C206 0.929 . S
H214 C237 0.931 . S
H215 C238 0.931 . S
O216 Eu172 2.462 . S
O216 C236 1.252 . S
O217 Eu172 2.373 . S
O217 C228 1.249 . S
O218 Eu183 2.335 . S
O218 C228 1.264 . S
O219 Eu172 2.432 . S
O219 C236 1.268 . S
O220 Eu172 2.291 . S
O220 C235 1.255 . S
O221 Eu183 2.372 . S
O221 C235 1.257 . S
O222 Eu183 2.462 . S
O222 C247 1.252 . S
O223 Eu183 2.373 . S
O223 C239 1.249 . S
O224 Eu172 2.335 . S
O224 C239 1.264 . S
O225 Eu183 2.432 . S
O225 C247 1.268 . S
O226 Eu183 2.291 . S
O226 C246 1.255 . S
O227 Eu172 2.372 . S
O227 C246 1.257 . S
C228 O217 1.249 . S
C228 O218 1.264 . S
C229 C232 1.382 . S
C229 C234 1.390 . S
C229 C236 1.506 . S
C230 C231 1.398 . S
C230 C234 1.392 . S
C231 C230 1.398 . S
C231 C233 1.372 . S
C231 H248 0.931 . S
C232 C229 1.382 . S
C232 C233 1.390 . S
C232 H249 0.931 . S
C233 C231 1.372 . S
C233 C232 1.390 . S
C233 H250 0.929 . S
C234 C229 1.390 . S
C234 C230 1.392 . S
C234 H251 0.930 . S
C235 O220 1.255 . S
C235 O221 1.257 . S
C236 Eu172 2.787 . S
C236 O216 1.252 . S
C236 O219 1.268 . S
C236 C229 1.506 . S
C237 C204 1.439 . S
C237 H214 0.931 . S
C237 C238 1.374 . S
C238 C209 1.387 . S
C238 H215 0.931 . S
C238 C237 1.374 . S
C239 O223 1.249 . S
C239 O224 1.264 . S
C240 C243 1.382 . S
C240 C244 1.390 . S
C240 C247 1.506 . S
C241 C242 1.398 . S
C241 C244 1.392 . S
C242 C241 1.398 . S
C242 C245 1.372 . S
C242 H252 0.931 . S
C243 C240 1.382 . S
C243 C245 1.390 . S
C243 H253 0.931 . S
C244 C240 1.390 . S
C244 C241 1.392 . S
C244 H254 0.930 . S
C245 C242 1.372 . S
C245 C243 1.390 . S
C245 H255 0.929 . S
C246 O226 1.255 . S
C246 O227 1.257 . S
C247 Eu183 2.787 . S
C247 O222 1.252 . S
C247 O225 1.268 . S
C247 C240 1.506 . S
H248 C231 0.931 . S
H249 C232 0.931 . S
H250 C233 0.929 . S
H251 C234 0.930 . S
H252 C242 0.931 . S
H253 C243 0.931 . S
H254 C244 0.930 . S
H255 C245 0.929 . S
Eu256 N285 2.600 . S
Eu256 N291 2.562 . S
Eu256 O300 2.462 . S
Eu256 O301 2.373 . S
Eu256 O303 2.432 . S
Eu256 O304 2.291 . S
Eu256 O308 2.322 1_455 S
Eu256 O311 2.372 . S
Eu256 C320 2.787 . S
C257 N258 1.365 . S
C257 C260 1.405 . S
C257 C264 1.448 . S
N258 C257 1.365 . S
N258 C261 1.319 . S
N258 Eu267 2.600 . S
C259 C261 1.397 . S
C259 C262 1.367 . S
C259 H279 0.931 . S
C260 C257 1.405 . S
C260 C262 1.403 . S
C260 C266 1.439 . S
C261 N258 1.319 . S
C261 C259 1.397 . S
C261 H272 0.930 . S
C262 C259 1.367 . S
C262 C260 1.403 . S
C262 H283 0.929 . S
C263 C264 1.430 . S
C263 C265 1.387 . S
C263 C269 1.404 . S
C264 C257 1.448 . S
C264 C263 1.430 . S
C264 N268 1.351 . S
C265 C263 1.387 . S
C265 C266 1.374 . S
C265 H280 0.931 . S
C266 C260 1.439 . S
C266 C265 1.374 . S
C266 H281 0.931 . S
Eu267 N258 2.600 . S
Eu267 N268 2.562 . S
Eu267 O302 2.335 1_655 S
Eu267 O305 2.372 . S
Eu267 O306 2.462 . S
Eu267 O307 2.373 . S
Eu267 O309 2.432 . S
Eu267 O310 2.304 . S
Eu267 C331 2.787 . S
N268 C264 1.351 . S
N268 Eu267 2.562 . S
N268 C270 1.325 . S
C269 C263 1.404 . S
C269 C271 1.366 . S
C269 H277 0.930 . S
C270 N268 1.325 . S
C270 C271 1.416 . S
C270 H276 0.929 . S
C271 C269 1.366 . S
C271 C270 1.416 . S
C271 H273 0.930 . S
H272 C261 0.930 . S
H273 C271 0.930 . S
H274 C289 0.930 . S
H275 C296 0.930 . S
H276 C270 0.929 . S
H277 C269 0.930 . S
H278 C292 0.929 . S
H279 C259 0.931 . S
H280 C265 0.931 . S
H281 C266 0.931 . S
H282 C287 0.931 . S
H283 C262 0.929 . S
H284 C295 0.930 . S
N285 Eu256 2.600 . S
N285 C286 1.365 . S
N285 C289 1.319 . S
C286 N285 1.365 . S
C286 C288 1.405 . S
C286 C294 1.448 . S
C287 H282 0.931 . S
C287 C289 1.397 . S
C287 C290 1.367 . S
C288 C286 1.405 . S
C288 C290 1.403 . S
C288 C321 1.439 . S
C289 H274 0.930 . S
C289 N285 1.319 . S
C289 C287 1.397 . S
C290 C287 1.367 . S
C290 C288 1.403 . S
C290 H297 0.929 . S
N291 Eu256 2.562 . S
N291 C292 1.325 . S
N291 C294 1.351 . S
C292 H278 0.929 . S
C292 N291 1.325 . S
C292 C296 1.416 . S
C293 C294 1.430 . S
C293 C295 1.404 . S
C293 C322 1.387 . S
C294 C286 1.448 . S
C294 N291 1.351 . S
C294 C293 1.430 . S
C295 H284 0.930 . S
C295 C293 1.404 . S
C295 C296 1.366 . S
C296 H275 0.930 . S
C296 C292 1.416 . S
C296 C295 1.366 . S
H297 C290 0.929 . S
H298 C321 0.931 . S
H299 C322 0.931 . S
O300 Eu256 2.462 . S
O300 C320 1.252 . S
O301 Eu256 2.373 . S
O301 C312 1.249 . S
O302 Eu267 2.335 1_455 S
O302 C312 1.264 . S
O303 Eu256 2.432 . S
O303 C320 1.268 . S
O304 Eu256 2.291 . S
O304 C319 1.255 1_455 S
O305 Eu267 2.372 . S
O305 C319 1.257 . S
O306 Eu267 2.462 . S
O306 C331 1.252 . S
O307 Eu267 2.373 . S
O307 C323 1.249 . S
O308 Eu256 2.322 1_655 S
O308 C323 1.280 . S
O309 Eu267 2.432 . S
O309 C331 1.268 . S
O310 Eu267 2.304 . S
O310 C330 1.240 1_655 S
O311 Eu256 2.372 . S
O311 C330 1.257 . S
C312 O301 1.249 . S
C312 O302 1.264 . S
C313 C316 1.382 . S
C313 C318 1.390 . S
C313 C320 1.506 . S
C314 C315 1.398 . S
C314 C318 1.392 . S
C315 C314 1.398 . S
C315 C317 1.372 . S
C315 H332 0.931 . S
C316 C313 1.382 . S
C316 C317 1.390 . S
C316 H333 0.931 . S
C317 C315 1.372 . S
C317 C316 1.390 . S
C317 H334 0.929 . S
C318 C313 1.390 . S
C318 C314 1.392 . S
C318 H335 0.930 . S
C319 O304 1.255 1_655 S
C319 O305 1.257 . S
C320 Eu256 2.787 . S
C320 O300 1.252 . S
C320 O303 1.268 . S
C320 C313 1.506 . S
C321 C288 1.439 . S
C321 H298 0.931 . S
C321 C322 1.374 . S
C322 C293 1.387 . S
C322 H299 0.931 . S
C322 C321 1.374 . S
C323 O307 1.249 . S
C323 O308 1.280 . S
C324 C327 1.382 . S
C324 C328 1.390 . S
C324 C331 1.506 . S
C325 C326 1.398 . S
C325 C328 1.392 . S
C326 C325 1.398 . S
C326 C329 1.372 . S
C326 H336 0.931 . S
C327 C324 1.382 . S
C327 C329 1.390 . S
C327 H337 0.931 . S
C328 C324 1.390 . S
C328 C325 1.392 . S
C328 H338 0.930 . S
C329 C326 1.372 . S
C329 C327 1.390 . S
C329 H339 0.929 . S
C330 O310 1.240 1_455 S
C330 O311 1.257 . S
C331 Eu267 2.787 . S
C331 O306 1.252 . S
C331 O309 1.268 . S
C331 C324 1.506 . S
H332 C315 0.931 . S
H333 C316 0.931 . S
H334 C317 0.929 . S
H335 C318 0.930 . S
H336 C326 0.931 . S
H337 C327 0.931 . S
H338 C328 0.930 . S
H339 C329 0.929 . S
Eu340 N369 2.600 . S
Eu340 N375 2.562 . S
Eu340 O384 2.462 . S
Eu340 O385 2.373 . S
Eu340 O387 2.432 . S
Eu340 O388 2.291 . S
Eu340 O392 2.335 . S
Eu340 O395 2.372 . S
Eu340 C404 2.787 . S
C341 N342 1.365 . S
C341 C344 1.405 . S
C341 C348 1.448 . S
N342 C341 1.365 . S
N342 C345 1.319 . S
N342 Eu351 2.600 . S
C343 C345 1.397 . S
C343 C346 1.367 . S
C343 H363 0.931 . S
C344 C341 1.405 . S
C344 C346 1.403 . S
C344 C350 1.439 . S
C345 N342 1.319 . S
C345 C343 1.397 . S
C345 H356 0.930 . S
C346 C343 1.367 . S
C346 C344 1.403 . S
C346 H367 0.929 . S
C347 C348 1.430 . S
C347 C349 1.387 . S
C347 C353 1.404 . S
C348 C341 1.448 . S
C348 C347 1.430 . S
C348 N352 1.351 . S
C349 C347 1.387 . S
C349 C350 1.374 . S
C349 H364 0.931 . S
C350 C344 1.439 . S
C350 C349 1.374 . S
C350 H365 0.931 . S
Eu351 N342 2.600 . S
Eu351 N352 2.562 . S
Eu351 O386 2.335 . S
Eu351 O389 2.372 . S
Eu351 O390 2.462 . S
Eu351 O391 2.373 . S
Eu351 O393 2.432 . S
Eu351 O394 2.291 . S
Eu351 C415 2.787 . S
N352 C348 1.351 . S
N352 Eu351 2.562 . S
N352 C354 1.325 . S
C353 C347 1.404 . S
C353 C355 1.366 . S
C353 H361 0.930 . S
C354 N352 1.325 . S
C354 C355 1.416 . S
C354 H360 0.929 . S
C355 C353 1.366 . S
C355 C354 1.416 . S
C355 H357 0.930 . S
H356 C345 0.930 . S
H357 C355 0.930 . S
H358 C373 0.930 . S
H359 C380 0.930 . S
H360 C354 0.929 . S
H361 C353 0.930 . S
H362 C376 0.929 . S
H363 C343 0.931 . S
H364 C349 0.931 . S
H365 C350 0.931 . S
H366 C371 0.931 . S
H367 C346 0.929 . S
H368 C379 0.930 . S
N369 Eu340 2.600 . S
N369 C370 1.365 . S
N369 C373 1.319 . S
C370 N369 1.365 . S
C370 C372 1.405 . S
C370 C378 1.448 . S
C371 H366 0.931 . S
C371 C373 1.397 . S
C371 C374 1.367 . S
C372 C370 1.405 . S
C372 C374 1.403 . S
C372 C405 1.439 . S
C373 H358 0.930 . S
C373 N369 1.319 . S
C373 C371 1.397 . S
C374 C371 1.367 . S
C374 C372 1.403 . S
C374 H381 0.929 . S
N375 Eu340 2.562 . S
N375 C376 1.325 . S
N375 C378 1.351 . S
C376 H362 0.929 . S
C376 N375 1.325 . S
C376 C380 1.416 . S
C377 C378 1.430 . S
C377 C379 1.404 . S
C377 C406 1.387 . S
C378 C370 1.448 . S
C378 N375 1.351 . S
C378 C377 1.430 . S
C379 H368 0.930 . S
C379 C377 1.404 . S
C379 C380 1.366 . S
C380 H359 0.930 . S
C380 C376 1.416 . S
C380 C379 1.366 . S
H381 C374 0.929 . S
H382 C405 0.931 . S
H383 C406 0.931 . S
O384 Eu340 2.462 . S
O384 C404 1.252 . S
O385 Eu340 2.373 . S
O385 C396 1.249 . S
O386 Eu351 2.335 . S
O386 C396 1.264 . S
O387 Eu340 2.432 . S
O387 C404 1.268 . S
O388 Eu340 2.291 . S
O388 C403 1.255 . S
O389 Eu351 2.372 . S
O389 C403 1.257 . S
O390 Eu351 2.462 . S
O390 C415 1.252 . S
O391 Eu351 2.373 . S
O391 C407 1.249 . S
O392 Eu340 2.335 . S
O392 C407 1.264 . S
O393 Eu351 2.432 . S
O393 C415 1.268 . S
O394 Eu351 2.291 . S
O394 C414 1.255 . S
O395 Eu340 2.372 . S
O395 C414 1.257 . S
C396 O385 1.249 . S
C396 O386 1.264 . S
C397 C400 1.382 . S
C397 C402 1.390 . S
C397 C404 1.506 . S
C398 C399 1.398 . S
C398 C402 1.392 . S
C399 C398 1.398 . S
C399 C401 1.372 . S
C399 H416 0.931 . S
C400 C397 1.382 . S
C400 C401 1.390 . S
C400 H417 0.931 . S
C401 C399 1.372 . S
C401 C400 1.390 . S
C401 H418 0.929 . S
C402 C397 1.390 . S
C402 C398 1.392 . S
C402 H419 0.930 . S
C403 O388 1.255 . S
C403 O389 1.257 . S
C404 Eu340 2.787 . S
C404 O384 1.252 . S
C404 O387 1.268 . S
C404 C397 1.506 . S
C405 C372 1.439 . S
C405 H382 0.931 . S
C405 C406 1.374 . S
C406 C377 1.387 . S
C406 H383 0.931 . S
C406 C405 1.374 . S
C407 O391 1.249 . S
C407 O392 1.264 . S
C408 C411 1.382 . S
C408 C412 1.390 . S
C408 C415 1.506 . S
C409 C410 1.398 . S
C409 C412 1.392 . S
C410 C409 1.398 . S
C410 C413 1.372 . S
C410 H420 0.931 . S
C411 C408 1.382 . S
C411 C413 1.390 . S
C411 H421 0.931 . S
C412 C408 1.390 . S
C412 C409 1.392 . S
C412 H422 0.930 . S
C413 C410 1.372 . S
C413 C411 1.390 . S
C413 H423 0.929 . S
C414 O394 1.255 . S
C414 O395 1.257 . S
C415 Eu351 2.787 . S
C415 O390 1.252 . S
C415 O393 1.268 . S
C415 C408 1.506 . S
H416 C399 0.931 . S
H417 C400 0.931 . S
H418 C401 0.929 . S
H419 C402 0.930 . S
H420 C410 0.931 . S
H421 C411 0.931 . S
H422 C412 0.930 . S
H423 C413 0.929 . S
H424 C432 0.929 . S
H425 C434 0.930 . S
H426 C436 0.930 . S
H427 C439 0.929 . S
H428 C442 0.930 . S
H429 C444 0.960 1_545 S
H430 C444 0.960 . S
H431 C444 0.960 . S
C432 H424 0.929 . S
C432 C433 1.377 . S
C432 C434 1.384 . S
C433 C432 1.377 . S
C433 C439 1.390 . S
C434 H425 0.930 . S
C434 C432 1.384 . S
C434 C435 1.372 . S
C435 C434 1.372 . S
C435 C436 1.400 . S
C435 C440 1.490 . S
C436 H426 0.930 . S
C436 C435 1.400 . S
C436 C439 1.386 . S
H437 C453 0.930 . S
H438 C454 0.931 . S
C439 H427 0.929 . S
C439 C433 1.390 . S
C439 C436 1.386 . S
C440 C435 1.490 . S
C440 C442 1.395 . S
C440 C443 1.403 . S
H441 C447 0.930 . S
C442 H428 0.930 . S
C442 C440 1.395 . S
C442 C445 1.403 . S
C443 C440 1.403 . S
C443 C444 1.524 . S
C443 C447 1.400 1_565 S
C444 H429 0.960 1_565 S
C444 H430 0.960 . S
C444 H431 0.960 . S
C444 C443 1.524 . S
C445 C442 1.403 . S
C445 C446 1.392 . S
C445 C449 1.495 . S
C446 C445 1.392 . S
C446 C447 1.385 1_565 S
C446 C448 1.478 1_565 S
C447 H441 0.930 . S
C447 C443 1.400 1_545 S
C447 C446 1.385 1_545 S
C448 C446 1.478 1_545 S
C448 C450 1.381 . S
C448 C454 1.383 . S
C449 C445 1.495 . S
C449 H455 0.959 . S
C449 H456 0.961 . S
C449 H457 0.960 . S
C450 C448 1.381 . S
C450 C451 1.394 . S
C450 H458 0.971 . S
C451 C450 1.394 . S
C451 C452 1.383 . S
C451 H459 0.929 . S
C452 C451 1.383 . S
C452 C453 1.377 . S
C453 H437 0.930 . S
C453 C452 1.377 . S
C453 C454 1.379 . S
C454 H438 0.931 . S
C454 C448 1.383 . S
C454 C453 1.379 . S
H455 C449 0.959 . S
H456 C449 0.961 . S
H457 C449 0.960 . S
H458 C450 0.971 . S
H459 C451 0.929 . S
H460 C468 0.929 . S
H461 C470 0.930 . S
H462 C472 0.930 . S
H463 C475 0.929 . S
H464 C478 0.930 . S
H465 C480 0.960 . S
H466 C480 0.960 . S
H467 C480 0.960 . S
C468 H460 0.929 . S
C468 C469 1.377 . S
C468 C470 1.384 . S
C469 C468 1.377 . S
C469 C475 1.390 . S
C470 H461 0.930 . S
C470 C468 1.384 . S
C470 C471 1.372 . S
C471 C470 1.372 . S
C471 C472 1.400 . S
C471 C476 1.490 . S
C472 H462 0.930 . S
C472 C471 1.400 . S
C472 C475 1.386 . S
H473 C489 0.930 . S
H474 C490 0.931 . S
C475 H463 0.929 . S
C475 C469 1.390 . S
C475 C472 1.386 . S
C476 C471 1.490 . S
C476 C478 1.395 . S
C476 C479 1.403 . S
H477 C483 0.930 . S
C478 H464 0.930 . S
C478 C476 1.395 . S
C478 C481 1.403 . S
C479 C476 1.403 . S
C479 C480 1.524 . S
C479 C483 1.400 . S
C480 H465 0.960 . S
C480 H466 0.960 . S
C480 H467 0.960 . S
C480 C479 1.524 . S
C481 C478 1.403 . S
C481 C482 1.392 . S
C481 C485 1.495 . S
C482 C481 1.392 . S
C482 C483 1.385 . S
C482 C484 1.478 . S
C483 H477 0.930 . S
C483 C479 1.400 . S
C483 C482 1.385 . S
C484 C482 1.478 . S
C484 C486 1.381 . S
C484 C490 1.383 . S
C485 C481 1.495 . S
C485 H491 0.959 . S
C485 H492 0.961 . S
C485 H493 0.960 . S
C486 C484 1.381 . S
C486 C487 1.394 . S
C486 H494 0.930 . S
C487 C486 1.394 . S
C487 C488 1.383 . S
C487 H495 0.929 . S
C488 C487 1.383 . S
C488 C489 1.377 . S
C489 H473 0.930 . S
C489 C488 1.377 . S
C489 C490 1.379 . S
C490 H474 0.931 . S
C490 C484 1.383 . S
C490 C489 1.379 . S
H491 C485 0.959 . S
H492 C485 0.961 . S
H493 C485 0.960 . S
H494 C486 0.930 . S
H495 C487 0.929 . S
H496 C504 0.929 . S
H497 C506 0.930 . S
H498 C508 0.930 . S
H499 C511 0.929 . S
H500 C514 0.930 . S
H501 C516 0.960 . S
H502 C516 0.960 . S
H503 C516 0.960 . S
C504 H496 0.929 . S
C504 C505 1.377 . S
C504 C506 1.384 . S
C505 C504 1.377 . S
C505 C511 1.390 . S
C506 H497 0.930 . S
C506 C504 1.384 . S
C506 C507 1.372 . S
C507 C506 1.372 . S
C507 C508 1.400 . S
C507 C512 1.490 . S
C508 H498 0.930 . S
C508 C507 1.400 . S
C508 C511 1.386 . S
H509 C525 0.930 . S
H510 C526 0.931 . S
C511 H499 0.929 . S
C511 C505 1.390 . S
C511 C508 1.386 . S
C512 C507 1.490 . S
C512 C514 1.395 . S
C512 C515 1.403 . S
H513 C519 0.930 . S
C514 H500 0.930 . S
C514 C512 1.395 . S
C514 C517 1.403 . S
C515 C512 1.403 . S
C515 C516 1.524 . S
C515 C519 1.400 . S
C516 H501 0.960 . S
C516 H502 0.960 . S
C516 H503 0.960 . S
C516 C515 1.524 . S
C517 C514 1.403 . S
C517 C518 1.392 . S
C517 C521 1.495 . S
C518 C517 1.392 . S
C518 C519 1.385 . S
C518 C520 1.478 . S
C519 H513 0.930 . S
C519 C515 1.400 . S
C519 C518 1.385 . S
C520 C518 1.478 . S
C520 C522 1.381 . S
C520 C526 1.383 . S
C521 C517 1.495 . S
C521 H527 0.959 . S
C521 H528 0.961 . S
C521 H529 0.960 . S
C522 C520 1.381 . S
C522 C523 1.394 . S
C522 H530 0.930 . S
C523 C522 1.394 . S
C523 C524 1.383 . S
C523 H531 0.929 . S
C524 C523 1.383 . S
C524 C525 1.377 . S
C525 H509 0.930 . S
C525 C524 1.377 . S
C525 C526 1.379 . S
C526 H510 0.931 . S
C526 C520 1.383 . S
C526 C525 1.379 . S
H527 C521 0.959 . S
H528 C521 0.961 . S
H529 C521 0.960 . S
H530 C522 0.930 . S
H531 C523 0.929 . S
H532 C540 0.929 . S
H533 C542 0.930 . S
H534 C544 0.930 . S
H535 C547 0.929 . S
H536 C550 0.930 . S
H537 C552 1.006 . S
H538 C552 0.964 . S
H539 C552 0.928 1_565 S
C540 H532 0.929 . S
C540 C541 1.377 . S
C540 C542 1.384 . S
C541 C540 1.377 . S
C541 C547 1.390 . S
C542 H533 0.930 . S
C542 C540 1.384 . S
C542 C543 1.372 . S
C543 C542 1.372 . S
C543 C544 1.400 . S
C543 C548 1.490 . S
C544 H534 0.930 . S
C544 C543 1.400 . S
C544 C547 1.386 . S
H545 C561 0.930 1_455 S
H546 C562 0.931 . S
C547 H535 0.929 . S
C547 C541 1.390 . S
C547 C544 1.386 . S
C548 C543 1.490 . S
C548 C550 1.395 . S
C548 C551 1.403 . S
H549 C555 0.930 . S
C550 H536 0.930 . S
C550 C548 1.395 . S
C550 C553 1.403 . S
C551 C548 1.403 . S
C551 C552 1.509 1_565 S
C551 C555 1.400 1_565 S
C552 H537 1.006 . S
C552 H538 0.964 . S
C552 H539 0.928 1_545 S
C552 C551 1.509 1_545 S
C553 C550 1.403 . S
C553 C554 1.385 1_565 S
C553 C557 1.495 . S
C554 C553 1.385 1_545 S
C554 C555 1.387 . S
C554 C556 1.483 . S
C555 H549 0.930 . S
C555 C551 1.400 1_545 S
C555 C554 1.387 . S
C556 C554 1.483 . S
C556 C558 1.381 . S
C556 C562 1.383 . S
C557 C553 1.495 . S
C557 H563 0.959 . S
C557 H564 0.961 . S
C557 H565 0.960 . S
C558 C556 1.381 . S
C558 C559 1.394 . S
C558 H566 0.930 . S
C559 C558 1.394 . S
C559 C560 1.383 . S
C559 H567 0.929 . S
C560 C559 1.383 . S
C560 C561 1.377 . S
C561 H545 0.930 1_655 S
C561 C560 1.377 . S
C561 C562 1.379 . S
C562 H546 0.931 . S
C562 C556 1.383 . S
C562 C561 1.379 . S
H563 C557 0.959 . S
H564 C557 0.961 . S
H565 C557 0.960 . S
H566 C558 0.930 . S
H567 C559 0.929 . S
H568 C576 0.929 . S
H569 C578 0.930 . S
H570 C580 0.930 . S
H571 C583 0.929 . S
H572 C586 0.930 . S
H573 C588 0.960 . S
H574 C588 0.960 . S
H575 C588 0.960 . S
C576 H568 0.929 . S
C576 C577 1.377 . S
C576 C578 1.384 . S
C577 C576 1.377 . S
C577 C583 1.390 . S
C578 H569 0.930 . S
C578 C576 1.384 . S
C578 C579 1.372 . S
C579 C578 1.372 . S
C579 C580 1.400 . S
C579 C584 1.490 . S
C580 H570 0.930 . S
C580 C579 1.400 . S
C580 C583 1.386 . S
H581 C597 0.930 . S
H582 C598 0.899 1_545 S
C583 H571 0.929 . S
C583 C577 1.390 . S
C583 C580 1.386 . S
C584 C579 1.490 . S
C584 C586 1.395 . S
C584 C587 1.403 . S
H585 C591 0.930 . S
C586 H572 0.930 . S
C586 C584 1.395 . S
C586 C589 1.403 . S
C587 C584 1.403 . S
C587 C588 1.524 . S
C587 C591 1.400 . S
C588 H573 0.960 . S
C588 H574 0.960 . S
C588 H575 0.960 . S
C588 C587 1.524 . S
C589 C586 1.403 . S
C589 C590 1.392 1_545 S
C589 C593 1.495 1_545 S
C590 C589 1.392 1_565 S
C590 C591 1.385 1_565 S
C590 C592 1.478 . S
C591 H585 0.930 . S
C591 C587 1.400 . S
C591 C590 1.385 1_545 S
C592 C590 1.478 . S
C592 C594 1.381 . S
C592 C598 1.383 . S
C593 C589 1.495 1_565 S
C593 H599 0.959 . S
C593 H600 0.961 . S
C593 H601 0.960 . S
C594 C592 1.381 . S
C594 C595 1.394 . S
C594 H602 0.930 . S
C595 C594 1.394 . S
C595 C596 1.383 . S
C595 H603 0.929 . S
C596 C595 1.383 . S
C596 C597 1.377 . S
C597 H581 0.930 . S
C597 C596 1.377 . S
C597 C598 1.379 . S
C598 H582 0.899 1_565 S
C598 C592 1.383 . S
C598 C597 1.379 . S
H599 C593 0.959 . S
H600 C593 0.961 . S
H601 C593 0.960 . S
H602 C594 0.930 . S
H603 C595 0.929 . S
H604 C612 0.929 . S
H605 C614 0.930 . S
H606 C616 0.930 . S
H607 C619 0.929 . S
H608 C622 0.930 . S
H609 C624 0.960 . S
H610 C624 0.960 . S
H611 C624 0.960 . S
C612 H604 0.929 . S
C612 C613 1.377 . S
C612 C614 1.384 . S
C613 C612 1.377 . S
C613 C619 1.390 . S
C614 H605 0.930 . S
C614 C612 1.384 . S
C614 C615 1.372 . S
C615 C614 1.372 . S
C615 C616 1.400 . S
C615 C620 1.490 . S
C616 H606 0.930 . S
C616 C615 1.400 . S
C616 C619 1.386 . S
H617 C633 0.930 . S
H618 C634 0.931 . S
C619 H607 0.929 . S
C619 C613 1.390 . S
C619 C616 1.386 . S
C620 C615 1.490 . S
C620 C622 1.395 . S
C620 C623 1.403 . S
H621 C627 0.930 . S
C622 H608 0.930 . S
C622 C620 1.395 . S
C622 C625 1.403 . S
C623 C620 1.403 . S
C623 C624 1.524 . S
C623 C627 1.400 . S
C624 H609 0.960 . S
C624 H610 0.960 . S
C624 H611 0.960 . S
C624 C623 1.524 . S
C625 C622 1.403 . S
C625 C626 1.392 . S
C625 C629 1.495 . S
C626 C625 1.392 . S
C626 C627 1.385 . S
C626 C628 1.478 . S
C627 H621 0.930 . S
C627 C623 1.400 . S
C627 C626 1.385 . S
C628 C626 1.478 . S
C628 C630 1.381 . S
C628 C634 1.383 . S
C629 C625 1.495 . S
C629 H635 0.959 . S
C629 H636 0.961 . S
C629 H637 0.960 . S
C630 C628 1.381 . S
C630 C631 1.394 . S
C630 H638 0.930 . S
C631 C630 1.394 . S
C631 C632 1.383 . S
C631 H639 0.929 . S
C632 C631 1.383 . S
C632 C633 1.377 . S
C633 H617 0.930 . S
C633 C632 1.377 . S
C633 C634 1.379 . S
C634 H618 0.931 . S
C634 C628 1.383 . S
C634 C633 1.379 . S
H635 C629 0.959 . S
H636 C629 0.961 . S
H637 C629 0.960 . S
H638 C630 0.930 . S
H639 C631 0.929 . S
H640 C648 0.929 . S
H641 C650 0.930 . S
H642 C652 0.930 . S
H643 C655 0.929 . S
H644 C658 0.930 . S
H645 C660 0.960 . S
H646 C660 0.960 . S
H647 C660 0.960 . S
C648 H640 0.929 . S
C648 C649 1.377 . S
C648 C650 1.384 . S
C649 C648 1.377 . S
C649 C655 1.390 . S
C650 H641 0.930 . S
C650 C648 1.384 . S
C650 C651 1.372 . S
C651 C650 1.372 . S
C651 C652 1.400 . S
C651 C656 1.490 . S
C652 H642 0.930 . S
C652 C651 1.400 . S
C652 C655 1.386 . S
H653 C669 0.930 . S
H654 C670 0.931 . S
C655 H643 0.929 . S
C655 C649 1.390 . S
C655 C652 1.386 . S
C656 C651 1.490 . S
C656 C658 1.395 . S
C656 C659 1.403 . S
H657 C663 0.930 . S
C658 H644 0.930 . S
C658 C656 1.395 . S
C658 C661 1.403 . S
C659 C656 1.403 . S
C659 C660 1.524 . S
C659 C663 1.400 . S
C660 H645 0.960 . S
C660 H646 0.960 . S
C660 H647 0.960 . S
C660 C659 1.524 . S
C661 C658 1.403 . S
C661 C662 1.392 . S
C661 C665 1.495 . S
C662 C661 1.392 . S
C662 C663 1.385 . S
C662 C664 1.478 . S
C663 H657 0.930 . S
C663 C659 1.400 . S
C663 C662 1.385 . S
C664 C662 1.478 . S
C664 C666 1.381 . S
C664 C670 1.383 . S
C665 C661 1.495 . S
C665 H671 0.959 . S
C665 H672 0.961 . S
C665 H673 0.960 . S
C666 C664 1.381 . S
C666 C667 1.394 . S
C666 H674 0.930 . S
C667 C666 1.394 . S
C667 C668 1.383 . S
C667 H675 0.929 . S
C668 C667 1.383 . S
C668 C669 1.377 . S
C669 H653 0.930 . S
C669 C668 1.377 . S
C669 C670 1.379 . S
C670 H654 0.931 . S
C670 C664 1.383 . S
C670 C669 1.379 . S
H671 C665 0.959 . S
H672 C665 0.961 . S
H673 C665 0.960 . S
H674 C666 0.930 . S
H675 C667 0.929 . S
H676 C684 0.929 . S
H677 C686 0.930 . S
H678 C688 0.930 . S
H679 C691 0.929 . S
H680 C694 0.930 . S
H681 C696 0.960 . S
H682 C696 0.960 . S
H683 C696 0.960 . S
C684 H676 0.929 . S
C684 C685 1.377 . S
C684 C686 1.384 . S
C685 C684 1.377 . S
C685 C691 1.390 . S
C686 H677 0.930 . S
C686 C684 1.384 . S
C686 C687 1.372 . S
C687 C686 1.372 . S
C687 C688 1.400 . S
C687 C692 1.490 . S
C688 H678 0.930 . S
C688 C687 1.400 . S
C688 C691 1.386 . S
H689 C705 0.930 . S
H690 C706 0.931 . S
C691 H679 0.929 . S
C691 C685 1.390 . S
C691 C688 1.386 . S
C692 C687 1.490 . S
C692 C694 1.395 1_545 S
C692 C695 1.403 . S
H693 C699 0.930 . S
C694 H680 0.930 . S
C694 C692 1.395 1_565 S
C694 C697 1.403 . S
C695 C692 1.403 . S
C695 C696 1.524 . S
C695 C699 1.400 . S
C696 H681 0.960 . S
C696 H682 0.960 . S
C696 H683 0.960 . S
C696 C695 1.524 . S
C697 C694 1.403 . S
C697 C698 1.392 . S
C697 C701 1.495 . S
C698 C697 1.392 . S
C698 C699 1.385 1_565 S
C698 C700 1.478 . S
C699 H693 0.930 . S
C699 C695 1.400 . S
C699 C698 1.385 1_545 S
C700 C698 1.478 . S
C700 C702 1.381 . S
C700 C706 1.383 . S
C701 C697 1.495 . S
C701 H707 0.959 . S
C701 H708 0.961 . S
C701 H709 0.960 . S
C702 C700 1.381 . S
C702 C703 1.394 . S
C702 H710 0.930 . S
C703 C702 1.394 . S
C703 C704 1.383 . S
C703 H711 0.929 . S
C704 C703 1.383 . S
C704 C705 1.377 . S
C705 H689 0.930 . S
C705 C704 1.377 . S
C705 C706 1.379 . S
C706 H690 0.931 . S
C706 C700 1.383 . S
C706 C705 1.379 . S
H707 C701 0.959 . S
H708 C701 0.961 . S
H709 C701 0.960 . S
H710 C702 0.930 . S
H711 C703 0.929 . S
H712 C720 0.929 . S
H713 C722 0.900 1_554 S
H714 C724 0.930 . S
H715 C727 0.929 . S
H716 C730 0.930 . S
H717 C732 0.960 . S
H718 C732 0.960 . S
H719 C732 0.960 . S
C720 H712 0.929 . S
C720 C721 1.377 . S
C720 C722 1.384 . S
C721 C720 1.377 . S
C721 C727 1.390 . S
C722 H713 0.900 1_556 S
C722 C720 1.384 . S
C722 C723 1.366 1_556 S
C723 C722 1.366 1_554 S
C723 C724 1.390 1_554 S
C723 C728 1.505 . S
C724 H714 0.930 . S
C724 C723 1.390 1_556 S
C724 C727 1.386 . S
H725 C741 0.930 . S
H726 C742 0.931 . S
C727 H715 0.929 . S
C727 C721 1.390 . S
C727 C724 1.386 . S
C728 C723 1.505 . S
C728 C730 1.395 . S
C728 C731 1.403 . S
H729 C735 0.930 . S
C730 H716 0.930 . S
C730 C728 1.395 . S
C730 C733 1.403 . S
C731 C728 1.403 . S
C731 C732 1.524 . S
C731 C735 1.400 . S
C732 H717 0.960 . S
C732 H718 0.960 . S
C732 H719 0.960 . S
C732 C731 1.524 . S
C733 C730 1.403 . S
C733 C734 1.392 . S
C733 C737 1.495 . S
C734 C733 1.392 . S
C734 C735 1.385 . S
C734 C736 1.478 . S
C735 H729 0.930 . S
C735 C731 1.400 . S
C735 C734 1.385 . S
C736 C734 1.478 . S
C736 C738 1.381 . S
C736 C742 1.383 . S
C737 C733 1.495 . S
C737 H743 0.959 . S
C737 H744 0.961 . S
C737 H745 0.960 . S
C738 C736 1.381 . S
C738 C739 1.394 . S
C738 H746 0.930 . S
C739 C738 1.394 . S
C739 C740 1.383 . S
C739 H747 0.929 . S
C740 C739 1.383 . S
C740 C741 1.377 . S
C741 H725 0.930 . S
C741 C740 1.377 . S
C741 C742 1.379 . S
C742 H726 0.931 . S
C742 C736 1.383 . S
C742 C741 1.379 . S
H743 C737 0.959 . S
H744 C737 0.961 . S
H745 C737 0.960 . S
H746 C738 0.930 . S
H747 C739 0.929 . S
H748 C756 0.929 . S
H749 C758 0.930 . S
H750 C760 0.930 . S
H751 C763 0.929 . S
H752 C766 0.930 . S
H753 C768 0.960 . S
H754 C768 0.960 . S
H755 C768 0.960 . S
C756 H748 0.929 . S
C756 C757 1.377 . S
C756 C758 1.384 . S
C757 C756 1.377 . S
C757 C763 1.390 . S
C758 H749 0.930 . S
C758 C756 1.384 . S
C758 C759 1.372 . S
C759 C758 1.372 . S
C759 C760 1.400 . S
C759 C764 1.490 . S
C760 H750 0.930 . S
C760 C759 1.400 . S
C760 C763 1.386 . S
H761 C777 0.930 . S
H762 C778 0.931 . S
C763 H751 0.929 . S
C763 C757 1.390 . S
C763 C760 1.386 . S
C764 C759 1.490 . S
C764 C766 1.395 . S
C764 C767 1.403 . S
H765 C771 0.930 . S
C766 H752 0.930 . S
C766 C764 1.395 . S
C766 C769 1.403 . S
C767 C764 1.403 . S
C767 C768 1.524 . S
C767 C771 1.400 . S
C768 H753 0.960 . S
C768 H754 0.960 . S
C768 H755 0.960 . S
C768 C767 1.524 . S
C769 C766 1.403 . S
C769 C770 1.392 . S
C769 C773 1.495 . S
C770 C769 1.392 . S
C770 C771 1.385 . S
C770 C772 1.478 . S
C771 H765 0.930 . S
C771 C767 1.400 . S
C771 C770 1.385 . S
C772 C770 1.478 . S
C772 C774 1.381 . S
C772 C778 1.383 . S
C773 C769 1.495 . S
C773 H779 0.959 . S
C773 H780 0.961 . S
C773 H781 0.960 . S
C774 C772 1.381 . S
C774 C775 1.394 . S
C774 H782 0.930 . S
C775 C774 1.394 . S
C775 C776 1.383 . S
C775 H783 0.929 . S
C776 C775 1.383 . S
C776 C777 1.377 . S
C777 H761 0.930 . S
C777 C776 1.377 . S
C777 C778 1.379 . S
C778 H762 0.931 . S
C778 C772 1.383 . S
C778 C777 1.379 . S
H779 C773 0.959 . S
H780 C773 0.961 . S
H781 C773 0.960 . S
H782 C774 0.930 . S
H783 C775 0.929 . S
H784 C792 0.929 . S
H785 C794 0.930 1_556 S
H786 C796 0.930 . S
H787 C799 0.929 . S
H788 C802 0.930 . S
H789 C804 0.960 . S
H790 C804 0.960 . S
H791 C804 0.960 1_554 S
C792 H784 0.929 . S
C792 C793 1.377 . S
C792 C794 1.384 . S
C793 C792 1.377 . S
C793 C799 1.390 . S
C794 H785 0.930 1_554 S
C794 C792 1.384 . S
C794 C795 1.372 . S
C795 C794 1.372 . S
C795 C796 1.400 . S
C795 C800 1.490 1_554 S
C796 H786 0.930 . S
C796 C795 1.400 . S
C796 C799 1.386 . S
H797 C813 0.930 . S
H798 C814 0.931 . S
C799 H787 0.929 . S
C799 C793 1.390 . S
C799 C796 1.386 . S
C800 C795 1.490 1_556 S
C800 C802 1.395 . S
C800 C803 1.403 . S
H801 C807 0.930 . S
C802 H788 0.930 . S
C802 C800 1.395 . S
C802 C805 1.403 . S
C803 C800 1.403 . S
C803 C804 1.524 . S
C803 C807 1.400 . S
C804 H789 0.960 . S
C804 H790 0.960 . S
C804 H791 0.960 1_556 S
C804 C803 1.524 . S
C805 C802 1.403 . S
C805 C806 1.392 . S
C805 C809 1.495 . S
C806 C805 1.392 . S
C806 C807 1.385 . S
C806 C808 1.478 . S
C807 H801 0.930 . S
C807 C803 1.400 . S
C807 C806 1.385 . S
C808 C806 1.478 . S
C808 C810 1.381 . S
C808 C814 1.383 . S
C809 C805 1.495 . S
C809 H815 0.959 . S
C809 H816 0.961 . S
C809 H817 0.960 . S
C810 C808 1.381 . S
C810 C811 1.394 . S
C810 H818 0.930 . S
C811 C810 1.394 . S
C811 C812 1.383 . S
C811 H819 0.929 . S
C812 C811 1.383 . S
C812 C813 1.377 . S
C813 H797 0.930 . S
C813 C812 1.377 . S
C813 C814 1.379 . S
C814 H798 0.931 . S
C814 C808 1.383 . S
C814 C813 1.379 . S
H815 C809 0.959 . S
H816 C809 0.961 . S
H817 C809 0.960 . S
H818 C810 0.930 . S
H819 C811 0.929 . S
H820 C828 0.929 . S
H821 C830 0.930 . S
H822 C832 0.930 . S
H823 C835 0.929 . S
H824 C838 0.930 . S
H825 C840 0.960 . S
H826 C840 0.960 . S
H827 C840 0.960 . S
C828 H820 0.929 . S
C828 C829 1.377 . S
C828 C830 1.384 . S
C829 C828 1.377 . S
C829 C835 1.390 . S
C830 H821 0.930 . S
C830 C828 1.384 . S
C830 C831 1.372 . S
C831 C830 1.372 . S
C831 C832 1.400 . S
C831 C836 1.490 . S
C832 H822 0.930 . S
C832 C831 1.400 . S
C832 C835 1.386 . S
H833 C849 0.930 . S
H834 C850 0.931 . S
C835 H823 0.929 . S
C835 C829 1.390 . S
C835 C832 1.386 . S
C836 C831 1.490 . S
C836 C838 1.395 . S
C836 C839 1.403 . S
H837 C843 0.930 . S
C838 H824 0.930 . S
C838 C836 1.395 . S
C838 C841 1.403 . S
C839 C836 1.403 . S
C839 C840 1.524 . S
C839 C843 1.400 . S
C840 H825 0.960 . S
C840 H826 0.960 . S
C840 H827 0.960 . S
C840 C839 1.524 . S
C841 C838 1.403 . S
C841 C842 1.392 . S
C841 C845 1.495 . S
C842 C841 1.392 . S
C842 C843 1.385 . S
C842 C844 1.478 . S
C843 H837 0.930 . S
C843 C839 1.400 . S
C843 C842 1.385 . S
C844 C842 1.478 . S
C844 C846 1.381 . S
C844 C850 1.383 . S
C845 C841 1.495 . S
C845 H851 0.959 . S
C845 H852 0.961 . S
C845 H853 0.960 . S
C846 C844 1.381 . S
C846 C847 1.394 . S
C846 H854 0.930 . S
C847 C846 1.394 . S
C847 C848 1.383 . S
C847 H855 0.929 . S
C848 C847 1.383 . S
C848 C849 1.377 . S
C849 H833 0.930 . S
C849 C848 1.377 . S
C849 C850 1.379 . S
C850 H834 0.931 . S
C850 C844 1.383 . S
C850 C849 1.379 . S
H851 C845 0.959 . S
H852 C845 0.961 . S
H853 C845 0.960 . S
H854 C846 0.930 . S
H855 C847 0.929 . S
H856 C864 0.929 . S
H857 C866 0.930 . S
H858 C868 0.930 1_556 S
H859 C871 0.929 . S
H860 C874 0.930 . S
H861 C876 0.960 . S
H862 C876 0.960 . S
H863 C876 0.960 . S
C864 H856 0.929 . S
C864 C865 1.377 . S
C864 C866 1.384 1_554 S
C865 C864 1.377 . S
C865 C871 1.390 . S
C866 H857 0.930 . S
C866 C864 1.384 1_556 S
C866 C867 1.372 . S
C867 C866 1.372 . S
C867 C868 1.400 1_556 S
C867 C872 1.490 . S
C868 H858 0.930 1_554 S
C868 C867 1.400 1_554 S
C868 C871 1.386 . S
H869 C885 0.930 . S
H870 C886 0.931 . S
C871 H859 0.929 . S
C871 C865 1.390 . S
C871 C868 1.386 . S
C872 C867 1.490 . S
C872 C874 1.395 . S
C872 C875 1.403 . S
H873 C879 0.930 . S
C874 H860 0.930 . S
C874 C872 1.395 . S
C874 C877 1.403 . S
C875 C872 1.403 . S
C875 C876 1.524 . S
C875 C879 1.400 . S
C876 H861 0.960 . S
C876 H862 0.960 . S
C876 H863 0.960 . S
C876 C875 1.524 . S
C877 C874 1.403 . S
C877 C878 1.392 . S
C877 C881 1.495 . S
C878 C877 1.392 . S
C878 C879 1.385 . S
C878 C880 1.478 . S
C879 H873 0.930 . S
C879 C875 1.400 . S
C879 C878 1.385 . S
C880 C878 1.478 . S
C880 C882 1.381 . S
C880 C886 1.383 . S
C881 C877 1.495 . S
C881 H887 0.959 . S
C881 H888 0.961 . S
C881 H889 0.960 . S
C882 C880 1.381 . S
C882 C883 1.394 . S
C882 H890 0.930 . S
C883 C882 1.394 . S
C883 C884 1.383 . S
C883 H891 0.929 . S
C884 C883 1.383 . S
C884 C885 1.377 . S
C885 H869 0.930 . S
C885 C884 1.377 . S
C885 C886 1.379 . S
C886 H870 0.931 . S
C886 C880 1.383 . S
C886 C885 1.379 . S
H887 C881 0.959 . S
H888 C881 0.961 . S
H889 C881 0.960 . S
H890 C882 0.930 . S
H891 C883 0.929 . S
H892 C900 0.929 . S
H893 C902 0.930 . S
H894 C904 0.930 . S
H895 C907 0.929 . S
H896 C910 0.930 . S
H897 C912 0.960 . S
H898 C912 0.960 . S
H899 C912 0.960 . S
C900 H892 0.929 . S
C900 C901 1.377 . S
C900 C902 1.384 . S
C901 C900 1.377 . S
C901 C907 1.390 . S
C902 H893 0.930 . S
C902 C900 1.384 . S
C902 C903 1.372 . S
C903 C902 1.372 . S
C903 C904 1.400 . S
C903 C908 1.490 . S
C904 H894 0.930 . S
C904 C903 1.400 . S
C904 C907 1.386 . S
H905 C921 0.930 . S
H906 C922 0.931 . S
C907 H895 0.929 . S
C907 C901 1.390 . S
C907 C904 1.386 . S
C908 C903 1.490 . S
C908 C910 1.395 . S
C908 C911 1.403 . S
H909 C915 0.930 . S
C910 H896 0.930 . S
C910 C908 1.395 . S
C910 C913 1.403 . S
C911 C908 1.403 . S
C911 C912 1.524 . S
C911 C915 1.400 . S
C912 H897 0.960 . S
C912 H898 0.960 . S
C912 H899 0.960 . S
C912 C911 1.524 . S
C913 C910 1.403 . S
C913 C914 1.392 . S
C913 C917 1.495 . S
C914 C913 1.392 . S
C914 C915 1.385 . S
C914 C916 1.478 . S
C915 H909 0.930 . S
C915 C911 1.400 . S
C915 C914 1.385 . S
C916 C914 1.478 . S
C916 C918 1.381 . S
C916 C922 1.383 . S
C917 C913 1.495 . S
C917 H923 0.959 . S
C917 H924 0.961 . S
C917 H925 0.960 . S
C918 C916 1.381 . S
C918 C919 1.394 . S
C918 H926 0.930 . S
C919 C918 1.394 . S
C919 C920 1.383 . S
C919 H927 0.929 . S
C920 C919 1.383 . S
C920 C921 1.377 . S
C921 H905 0.930 . S
C921 C920 1.377 . S
C921 C922 1.379 . S
C922 H906 0.931 . S
C922 C916 1.383 . S
C922 C921 1.379 . S
H923 C917 0.959 . S
H924 C917 0.961 . S
H925 C917 0.960 . S
H926 C918 0.930 . S
H927 C919 0.929 . S
H928 C936 0.929 . S
H929 C938 0.930 1_554 S
H930 C940 0.930 1_554 S
H931 C943 0.929 . S
H932 C946 0.930 . S
H933 C948 0.960 . S
H934 C948 0.960 . S
H935 C948 0.960 . S
C936 H928 0.929 . S
C936 C937 1.377 . S
C936 C938 1.384 . S
C937 C936 1.377 . S
C937 C943 1.390 . S
C938 H929 0.930 1_556 S
C938 C936 1.384 . S
C938 C939 1.372 1_556 S
C939 C938 1.372 1_554 S
C939 C940 1.400 1_554 S
C939 C944 1.490 . S
C940 H930 0.930 1_556 S
C940 C939 1.400 1_556 S
C940 C943 1.386 . S
H941 C957 0.930 . S
H942 C958 0.931 . S
C943 H931 0.929 . S
C943 C937 1.390 . S
C943 C940 1.386 . S
C944 C939 1.490 . S
C944 C946 1.395 . S
C944 C947 1.403 . S
H945 C951 0.930 . S
C946 H932 0.930 . S
C946 C944 1.395 . S
C946 C949 1.403 . S
C947 C944 1.403 . S
C947 C948 1.524 . S
C947 C951 1.400 . S
C948 H933 0.960 . S
C948 H934 0.960 . S
C948 H935 0.960 . S
C948 C947 1.524 . S
C949 C946 1.403 . S
C949 C950 1.392 . S
C949 C953 1.495 . S
C950 C949 1.392 . S
C950 C951 1.385 . S
C950 C952 1.478 . S
C951 H945 0.930 . S
C951 C947 1.400 . S
C951 C950 1.385 . S
C952 C950 1.478 . S
C952 C954 1.381 . S
C952 C958 1.383 . S
C953 C949 1.495 . S
C953 H959 0.959 . S
C953 H960 0.961 . S
C953 H961 0.960 . S
C954 C952 1.381 . S
C954 C955 1.394 . S
C954 H962 0.930 . S
C955 C954 1.394 . S
C955 C956 1.383 . S
C955 H963 0.929 . S
C956 C955 1.383 . S
C956 C957 1.377 . S
C957 H941 0.930 . S
C957 C956 1.377 . S
C957 C958 1.379 . S
C958 H942 0.931 . S
C958 C952 1.383 . S
C958 C957 1.379 . S
H959 C953 0.959 . S
H960 C953 0.961 . S
H961 C953 0.960 . S
H962 C954 0.930 . S
H963 C955 0.929 . S
H964 C972 0.929 . S
H965 C974 0.930 . S
H966 C976 0.930 . S
H967 C979 0.929 . S
H968 C982 0.930 . S
H969 C984 0.960 . S
H970 C984 0.960 . S
H971 C984 0.960 . S
C972 H964 0.929 . S
C972 C973 1.377 . S
C972 C974 1.384 . S
C973 C972 1.377 . S
C973 C979 1.390 . S
C974 H965 0.930 . S
C974 C972 1.384 . S
C974 C975 1.372 . S
C975 C974 1.372 . S
C975 C976 1.400 . S
C975 C980 1.490 . S
C976 H966 0.930 . S
C976 C975 1.400 . S
C976 C979 1.386 . S
H977 C993 0.930 . S
H978 C994 0.931 . S
C979 H967 0.929 . S
C979 C973 1.390 . S
C979 C976 1.386 . S
C980 C975 1.490 . S
C980 C982 1.395 . S
C980 C983 1.403 . S
H981 C987 0.930 . S
C982 H968 0.930 . S
C982 C980 1.395 . S
C982 C985 1.403 . S
C983 C980 1.403 . S
C983 C984 1.524 . S
C983 C987 1.400 . S
C984 H969 0.960 . S
C984 H970 0.960 . S
C984 H971 0.960 . S
C984 C983 1.524 . S
C985 C982 1.403 . S
C985 C986 1.392 . S
C985 C989 1.495 . S
C986 C985 1.392 . S
C986 C987 1.385 . S
C986 C988 1.478 . S
C987 H981 0.930 . S
C987 C983 1.400 . S
C987 C986 1.385 . S
C988 C986 1.478 . S
C988 C990 1.381 . S
C988 C994 1.383 . S
C989 C985 1.495 . S
C989 H995 0.959 . S
C989 H996 0.961 . S
C989 H997 0.960 . S
C990 C988 1.381 . S
C990 C991 1.394 . S
C990 H998 0.930 . S
C991 C990 1.394 . S
C991 C992 1.383 . S
C991 H999 0.929 . S
C992 C991 1.383 . S
C992 C993 1.377 . S
C993 H977 0.930 . S
C993 C992 1.377 . S
C993 C994 1.379 . S
C994 H978 0.931 . S
C994 C988 1.383 . S
C994 C993 1.379 . S
H995 C989 0.959 . S
H996 C989 0.961 . S
H997 C989 0.960 . S
H998 C990 0.930 . S
H999 C991 0.929 . S
H1000 C1008 0.929 . S
H1001 C1010 0.930 . S
H1002 C1012 0.930 . S
H1003 C1015 0.929 . S
H1004 C1018 0.930 . S
H1005 C1020 0.960 . S
H1006 C1020 0.960 . S
H1007 C1020 0.960 . S
C1008 H1000 0.929 . S
C1008 C1009 1.377 . S
C1008 C1010 1.384 . S
C1009 C1008 1.377 . S
C1009 C1015 1.390 . S
C1010 H1001 0.930 . S
C1010 C1008 1.384 . S
C1010 C1011 1.372 . S
C1011 C1010 1.372 . S
C1011 C1012 1.400 . S
C1011 C1016 1.490 . S
C1012 H1002 0.930 . S
C1012 C1011 1.400 . S
C1012 C1015 1.386 . S
H1013 C1029 0.930 . S
H1014 C1030 0.931 . S
C1015 H1003 0.929 . S
C1015 C1009 1.390 . S
C1015 C1012 1.386 . S
C1016 C1011 1.490 . S
C1016 C1018 1.395 . S
C1016 C1019 1.403 . S
H1017 C1023 0.930 . S
C1018 H1004 0.930 . S
C1018 C1016 1.395 . S
C1018 C1021 1.403 . S
C1019 C1016 1.403 . S
C1019 C1020 1.524 . S
C1019 C1023 1.400 . S
C1020 H1005 0.960 . S
C1020 H1006 0.960 . S
C1020 H1007 0.960 . S
C1020 C1019 1.524 . S
C1021 C1018 1.403 . S
C1021 C1022 1.392 . S
C1021 C1025 1.495 . S
C1022 C1021 1.392 . S
C1022 C1023 1.385 . S
C1022 C1024 1.478 . S
C1023 H1017 0.930 . S
C1023 C1019 1.400 . S
C1023 C1022 1.385 . S
C1024 C1022 1.478 . S
C1024 C1026 1.381 . S
C1024 C1030 1.383 . S
C1025 C1021 1.495 . S
C1025 H1031 0.959 . S
C1025 H1032 0.961 . S
C1025 H1033 0.960 . S
C1026 C1024 1.381 . S
C1026 C1027 1.394 . S
C1026 H1034 0.930 . S
C1027 C1026 1.394 . S
C1027 C1028 1.383 . S
C1027 H1035 0.929 . S
C1028 C1027 1.383 . S
C1028 C1029 1.377 . S
C1029 H1013 0.930 . S
C1029 C1028 1.377 . S
C1029 C1030 1.379 . S
C1030 H1014 0.931 . S
C1030 C1024 1.383 . S
C1030 C1029 1.379 . S
H1031 C1025 0.959 . S
H1032 C1025 0.961 . S
H1033 C1025 0.960 . S
H1034 C1026 0.930 . S
H1035 C1027 0.929 . S
H1036 C1044 0.929 . S
H1037 C1046 0.930 . S
H1038 C1048 0.930 . S
H1039 C1051 0.929 . S
H1040 C1054 0.930 . S
H1041 C1056 0.960 . S
H1042 C1056 0.960 . S
H1043 C1056 0.960 . S
C1044 H1036 0.929 . S
C1044 C1045 1.377 . S
C1044 C1046 1.384 . S
C1045 C1044 1.377 . S
C1045 C1051 1.390 . S
C1046 H1037 0.930 . S
C1046 C1044 1.384 . S
C1046 C1047 1.372 . S
C1047 C1046 1.372 . S
C1047 C1048 1.400 . S
C1047 C1052 1.490 . S
C1048 H1038 0.930 . S
C1048 C1047 1.400 . S
C1048 C1051 1.386 . S
H1049 C1065 0.930 . S
H1050 C1066 0.931 . S
C1051 H1039 0.929 . S
C1051 C1045 1.390 . S
C1051 C1048 1.386 . S
C1052 C1047 1.490 . S
C1052 C1054 1.395 . S
C1052 C1055 1.403 . S
H1053 C1059 0.930 . S
C1054 H1040 0.930 . S
C1054 C1052 1.395 . S
C1054 C1057 1.403 . S
C1055 C1052 1.403 . S
C1055 C1056 1.524 . S
C1055 C1059 1.400 . S
C1056 H1041 0.960 . S
C1056 H1042 0.960 . S
C1056 H1043 0.960 . S
C1056 C1055 1.524 . S
C1057 C1054 1.403 . S
C1057 C1058 1.392 . S
C1057 C1061 1.495 . S
C1058 C1057 1.392 . S
C1058 C1059 1.385 . S
C1058 C1060 1.478 . S
C1059 H1053 0.930 . S
C1059 C1055 1.400 . S
C1059 C1058 1.385 . S
C1060 C1058 1.478 . S
C1060 C1062 1.381 . S
C1060 C1066 1.383 . S
C1061 C1057 1.495 . S
C1061 H1067 0.959 . S
C1061 H1068 0.961 . S
C1061 H1069 0.960 . S
C1062 C1060 1.381 . S
C1062 C1063 1.394 . S
C1062 H1070 0.930 . S
C1063 C1062 1.394 . S
C1063 C1064 1.383 . S
C1063 H1071 0.929 . S
C1064 C1063 1.383 . S
C1064 C1065 1.377 . S
C1065 H1049 0.930 . S
C1065 C1064 1.377 . S
C1065 C1066 1.379 . S
C1066 H1050 0.931 . S
C1066 C1060 1.383 . S
C1066 C1065 1.379 . S
H1067 C1061 0.959 . S
H1068 C1061 0.961 . S
H1069 C1061 0.960 . S
H1070 C1062 0.930 . S
H1071 C1063 0.929 . S
H1072 C1080 0.929 . S
H1073 C1082 0.930 . S
H1074 C1084 0.930 . S
H1075 C1087 0.929 . S
H1076 C1090 0.930 . S
H1077 C1092 0.960 . S
H1078 C1092 0.960 . S
H1079 C1092 0.960 . S
C1080 H1072 0.929 . S
C1080 C1081 1.377 . S
C1080 C1082 1.384 . S
C1081 C1080 1.377 . S
C1081 C1087 1.390 . S
C1082 H1073 0.930 . S
C1082 C1080 1.384 . S
C1082 C1083 1.372 . S
C1083 C1082 1.372 . S
C1083 C1084 1.400 . S
C1083 C1088 1.490 . S
C1084 H1074 0.930 . S
C1084 C1083 1.400 . S
C1084 C1087 1.386 . S
H1085 C1101 0.930 . S
H1086 C1102 0.931 . S
C1087 H1075 0.929 . S
C1087 C1081 1.390 . S
C1087 C1084 1.386 . S
C1088 C1083 1.490 . S
C1088 C1090 1.395 . S
C1088 C1091 1.403 . S
H1089 C1095 0.930 . S
C1090 H1076 0.930 . S
C1090 C1088 1.395 . S
C1090 C1093 1.403 . S
C1091 C1088 1.403 . S
C1091 C1092 1.524 . S
C1091 C1095 1.400 . S
C1092 H1077 0.960 . S
C1092 H1078 0.960 . S
C1092 H1079 0.960 . S
C1092 C1091 1.524 . S
C1093 C1090 1.403 . S
C1093 C1094 1.392 . S
C1093 C1097 1.495 . S
C1094 C1093 1.392 . S
C1094 C1095 1.385 . S
C1094 C1096 1.478 . S
C1095 H1089 0.930 . S
C1095 C1091 1.400 . S
C1095 C1094 1.385 . S
C1096 C1094 1.478 . S
C1096 C1098 1.381 . S
C1096 C1102 1.383 . S
C1097 C1093 1.495 . S
C1097 H1103 0.959 . S
C1097 H1104 0.961 . S
C1097 H1105 0.960 . S
C1098 C1096 1.381 . S
C1098 C1099 1.394 . S
C1098 H1106 0.930 . S
C1099 C1098 1.394 . S
C1099 C1100 1.383 . S
C1099 H1107 0.929 . S
C1100 C1099 1.383 . S
C1100 C1101 1.377 . S
C1101 H1085 0.930 . S
C1101 C1100 1.377 . S
C1101 C1102 1.379 . S
C1102 H1086 0.931 . S
C1102 C1096 1.383 . S
C1102 C1101 1.379 . S
H1103 C1097 0.959 . S
H1104 C1097 0.961 . S
H1105 C1097 0.960 . S
H1106 C1098 0.930 . S
H1107 C1099 0.929 . S
H1108 C1116 0.929 . S
H1109 C1118 0.930 . S
H1110 C1120 0.930 . S
H1111 C1123 0.929 . S
H1112 C1126 0.930 . S
H1113 C1128 0.960 . S
H1114 C1128 0.960 . S
H1115 C1128 0.960 . S
C1116 H1108 0.929 . S
C1116 C1117 1.377 . S
C1116 C1118 1.384 . S
C1117 C1116 1.377 . S
C1117 C1123 1.390 . S
C1118 H1109 0.930 . S
C1118 C1116 1.384 . S
C1118 C1119 1.372 . S
C1119 C1118 1.372 . S
C1119 C1120 1.400 . S
C1119 C1124 1.490 . S
C1120 H1110 0.930 . S
C1120 C1119 1.400 . S
C1120 C1123 1.386 . S
H1121 C1137 0.930 . S
H1122 C1138 0.931 . S
C1123 H1111 0.929 . S
C1123 C1117 1.390 . S
C1123 C1120 1.386 . S
C1124 C1119 1.490 . S
C1124 C1126 1.395 . S
C1124 C1127 1.403 . S
H1125 C1131 0.930 . S
C1126 H1112 0.930 . S
C1126 C1124 1.395 . S
C1126 C1129 1.403 . S
C1127 C1124 1.403 . S
C1127 C1128 1.524 . S
C1127 C1131 1.400 . S
C1128 H1113 0.960 . S
C1128 H1114 0.960 . S
C1128 H1115 0.960 . S
C1128 C1127 1.524 . S
C1129 C1126 1.403 . S
C1129 C1130 1.392 . S
C1129 C1133 1.495 . S
C1130 C1129 1.392 . S
C1130 C1131 1.385 . S
C1130 C1132 1.478 . S
C1131 H1125 0.930 . S
C1131 C1127 1.400 . S
C1131 C1130 1.385 . S
C1132 C1130 1.478 . S
C1132 C1134 1.381 . S
C1132 C1138 1.383 . S
C1133 C1129 1.495 . S
C1133 H1139 0.959 . S
C1133 H1140 0.961 . S
C1133 H1141 0.960 1_655 S
C1134 C1132 1.381 . S
C1134 C1135 1.394 . S
C1134 H1142 0.930 . S
C1135 C1134 1.394 . S
C1135 C1136 1.383 . S
C1135 H1143 0.929 1_655 S
C1136 C1135 1.383 . S
C1136 C1137 1.377 . S
C1137 H1121 0.930 . S
C1137 C1136 1.377 . S
C1137 C1138 1.379 . S
C1138 H1122 0.931 . S
C1138 C1132 1.383 . S
C1138 C1137 1.379 . S
H1139 C1133 0.959 . S
H1140 C1133 0.961 . S
H1141 C1133 0.960 1_455 S
H1142 C1134 0.930 . S
H1143 C1135 0.929 1_455 S
H1144 C1152 0.929 . S
H1145 C1154 0.930 . S
H1146 C1156 0.930 . S
H1147 C1159 0.929 . S
H1148 C1162 0.930 . S
H1149 C1164 0.960 . S
H1150 C1164 0.960 . S
H1151 C1164 0.960 . S
C1152 H1144 0.929 . S
C1152 C1153 1.377 . S
C1152 C1154 1.384 . S
C1153 C1152 1.377 . S
C1153 C1159 1.390 . S
C1154 H1145 0.930 . S
C1154 C1152 1.384 . S
C1154 C1155 1.372 . S
C1155 C1154 1.372 . S
C1155 C1156 1.400 . S
C1155 C1160 1.490 . S
C1156 H1146 0.930 . S
C1156 C1155 1.400 . S
C1156 C1159 1.386 . S
H1157 C1173 0.930 . S
H1158 C1174 0.931 . S
C1159 H1147 0.929 . S
C1159 C1153 1.390 . S
C1159 C1156 1.386 . S
C1160 C1155 1.490 . S
C1160 C1162 1.395 . S
C1160 C1163 1.403 . S
H1161 C1167 0.930 . S
C1162 H1148 0.930 . S
C1162 C1160 1.395 . S
C1162 C1165 1.403 . S
C1163 C1160 1.403 . S
C1163 C1164 1.524 . S
C1163 C1167 1.400 . S
C1164 H1149 0.960 . S
C1164 H1150 0.960 . S
C1164 H1151 0.960 . S
C1164 C1163 1.524 . S
C1165 C1162 1.403 . S
C1165 C1166 1.392 . S
C1165 C1169 1.495 . S
C1166 C1165 1.392 . S
C1166 C1167 1.385 . S
C1166 C1168 1.478 . S
C1167 H1161 0.930 . S
C1167 C1163 1.400 . S
C1167 C1166 1.385 . S
C1168 C1166 1.478 . S
C1168 C1170 1.381 . S
C1168 C1174 1.383 . S
C1169 C1165 1.495 . S
C1169 H1175 0.959 . S
C1169 H1176 0.961 . S
C1169 H1177 0.960 . S
C1170 C1168 1.381 . S
C1170 C1171 1.394 . S
C1170 H1178 0.930 . S
C1171 C1170 1.394 . S
C1171 C1172 1.383 . S
C1171 H1179 0.929 . S
C1172 C1171 1.383 . S
C1172 C1173 1.377 . S
C1173 H1157 0.930 . S
C1173 C1172 1.377 . S
C1173 C1174 1.379 . S
C1174 H1158 0.931 . S
C1174 C1168 1.383 . S
C1174 C1173 1.379 . S
H1175 C1169 0.959 . S
H1176 C1169 0.961 . S
H1177 C1169 0.960 . S
H1178 C1170 0.930 . S
H1179 C1171 0.929 . S
H1180 C1188 0.929 . S
H1181 C1190 0.930 . S
H1182 C1192 0.930 . S
H1183 C1195 0.929 . S
H1184 C1198 0.930 . S
H1185 C1200 0.960 . S
H1186 C1200 0.960 . S
H1187 C1200 0.960 . S
C1188 H1180 0.929 . S
C1188 C1189 1.377 . S
C1188 C1190 1.384 . S
C1189 C1188 1.377 . S
C1189 C1195 1.390 . S
C1190 H1181 0.930 . S
C1190 C1188 1.384 . S
C1190 C1191 1.372 . S
C1191 C1190 1.372 . S
C1191 C1192 1.400 . S
C1191 C1196 1.490 . S
C1192 H1182 0.930 . S
C1192 C1191 1.400 . S
C1192 C1195 1.386 . S
H1193 C1209 0.930 . S
H1194 C1210 0.931 . S
C1195 H1183 0.929 . S
C1195 C1189 1.390 . S
C1195 C1192 1.386 . S
C1196 C1191 1.490 . S
C1196 C1198 1.395 . S
C1196 C1199 1.403 . S
H1197 C1203 0.930 . S
C1198 H1184 0.930 . S
C1198 C1196 1.395 . S
C1198 C1201 1.403 . S
C1199 C1196 1.403 . S
C1199 C1200 1.524 . S
C1199 C1203 1.400 . S
C1200 H1185 0.960 . S
C1200 H1186 0.960 . S
C1200 H1187 0.960 . S
C1200 C1199 1.524 . S
C1201 C1198 1.403 . S
C1201 C1202 1.392 . S
C1201 C1205 1.495 . S
C1202 C1201 1.392 . S
C1202 C1203 1.385 . S
C1202 C1204 1.478 . S
C1203 H1197 0.930 . S
C1203 C1199 1.400 . S
C1203 C1202 1.385 . S
C1204 C1202 1.478 . S
C1204 C1206 1.381 . S
C1204 C1210 1.383 . S
C1205 C1201 1.495 . S
C1205 H1211 0.959 . S
C1205 H1212 0.961 . S
C1205 H1213 0.960 . S
C1206 C1204 1.381 . S
C1206 C1207 1.394 . S
C1206 H1214 0.930 . S
C1207 C1206 1.394 . S
C1207 C1208 1.383 . S
C1207 H1215 0.929 . S
C1208 C1207 1.383 . S
C1208 C1209 1.377 . S
C1209 H1193 0.930 . S
C1209 C1208 1.377 . S
C1209 C1210 1.379 . S
C1210 H1194 0.931 . S
C1210 C1204 1.383 . S
C1210 C1209 1.379 . S
H1211 C1205 0.959 . S
H1212 C1205 0.961 . S
H1213 C1205 0.960 . S
H1214 C1206 0.930 . S
H1215 C1207 0.929 . S
H1216 C1224 0.929 . S
H1217 C1226 0.930 . S
H1218 C1228 0.930 . S
H1219 C1231 0.929 . S
H1220 C1234 0.930 . S
H1221 C1236 0.960 . S
H1222 C1236 0.960 . S
H1223 C1236 0.960 . S
C1224 H1216 0.929 . S
C1224 C1225 1.377 . S
C1224 C1226 1.384 . S
C1225 C1224 1.377 . S
C1225 C1231 1.390 . S
C1226 H1217 0.930 . S
C1226 C1224 1.384 . S
C1226 C1227 1.372 . S
C1227 C1226 1.372 . S
C1227 C1228 1.400 . S
C1227 C1232 1.490 . S
C1228 H1218 0.930 . S
C1228 C1227 1.400 . S
C1228 C1231 1.386 . S
H1229 C1245 0.930 . S
H1230 C1246 0.931 . S
C1231 H1219 0.929 . S
C1231 C1225 1.390 . S
C1231 C1228 1.386 . S
C1232 C1227 1.490 . S
C1232 C1234 1.395 . S
C1232 C1235 1.403 . S
H1233 C1239 0.930 . S
C1234 H1220 0.930 . S
C1234 C1232 1.395 . S
C1234 C1237 1.403 . S
C1235 C1232 1.403 . S
C1235 C1236 1.524 . S
C1235 C1239 1.400 . S
C1236 H1221 0.960 . S
C1236 H1222 0.960 . S
C1236 H1223 0.960 . S
C1236 C1235 1.524 . S
C1237 C1234 1.403 . S
C1237 C1238 1.392 . S
C1237 C1241 1.495 . S
C1238 C1237 1.392 . S
C1238 C1239 1.385 . S
C1238 C1240 1.478 . S
C1239 H1233 0.930 . S
C1239 C1235 1.400 . S
C1239 C1238 1.385 . S
C1240 C1238 1.478 . S
C1240 C1242 1.381 . S
C1240 C1246 1.383 . S
C1241 C1237 1.495 . S
C1241 H1247 0.959 . S
C1241 H1248 0.961 . S
C1241 H1249 0.960 . S
C1242 C1240 1.381 . S
C1242 C1243 1.394 . S
C1242 H1250 0.930 . S
C1243 C1242 1.394 . S
C1243 C1244 1.383 . S
C1243 H1251 0.929 . S
C1244 C1243 1.383 . S
C1244 C1245 1.377 . S
C1245 H1229 0.930 . S
C1245 C1244 1.377 . S
C1245 C1246 1.379 . S
C1246 H1230 0.931 . S
C1246 C1240 1.383 . S
C1246 C1245 1.379 . S
H1247 C1241 0.959 . S
H1248 C1241 0.961 . S
H1249 C1241 0.960 . S
H1250 C1242 0.930 . S
H1251 C1243 0.929 . S
H1252 C1260 0.929 . S
H1253 C1262 0.930 . S
H1254 C1264 0.930 . S
H1255 C1267 0.929 . S
H1256 C1270 0.930 . S
H1257 C1272 0.960 . S
H1258 C1272 0.960 . S
H1259 C1272 0.960 . S
C1260 H1252 0.929 . S
C1260 C1261 1.377 . S
C1260 C1262 1.384 . S
C1261 C1260 1.377 . S
C1261 C1267 1.390 . S
C1262 H1253 0.930 . S
C1262 C1260 1.384 . S
C1262 C1263 1.372 . S
C1263 C1262 1.372 . S
C1263 C1264 1.400 . S
C1263 C1268 1.490 . S
C1264 H1254 0.930 . S
C1264 C1263 1.400 . S
C1264 C1267 1.386 . S
H1265 C1281 0.930 . S
H1266 C1282 0.931 . S
C1267 H1255 0.929 . S
C1267 C1261 1.390 . S
C1267 C1264 1.386 . S
C1268 C1263 1.490 . S
C1268 C1270 1.395 . S
C1268 C1271 1.403 . S
H1269 C1275 0.930 . S
C1270 H1256 0.930 . S
C1270 C1268 1.395 . S
C1270 C1273 1.403 . S
C1271 C1268 1.403 . S
C1271 C1272 1.524 . S
C1271 C1275 1.400 . S
C1272 H1257 0.960 . S
C1272 H1258 0.960 . S
C1272 H1259 0.960 . S
C1272 C1271 1.524 . S
C1273 C1270 1.403 . S
C1273 C1274 1.392 . S
C1273 C1277 1.495 . S
C1274 C1273 1.392 . S
C1274 C1275 1.385 . S
C1274 C1276 1.478 . S
C1275 H1269 0.930 . S
C1275 C1271 1.400 . S
C1275 C1274 1.385 . S
C1276 C1274 1.478 . S
C1276 C1278 1.381 . S
C1276 C1282 1.383 . S
C1277 C1273 1.495 . S
C1277 H1283 0.959 . S
C1277 H1284 0.961 . S
C1277 H1285 0.960 . S
C1278 C1276 1.381 . S
C1278 C1279 1.394 . S
C1278 H1286 0.930 . S
C1279 C1278 1.394 . S
C1279 C1280 1.383 . S
C1279 H1287 0.929 . S
C1280 C1279 1.383 . S
C1280 C1281 1.377 . S
C1281 H1265 0.930 . S
C1281 C1280 1.377 . S
C1281 C1282 1.379 . S
C1282 H1266 0.931 . S
C1282 C1276 1.383 . S
C1282 C1281 1.379 . S
H1283 C1277 0.959 . S
H1284 C1277 0.961 . S
H1285 C1277 0.960 . S
H1286 C1278 0.930 . S
H1287 C1279 0.929 . S
C433 C73 1.613 . S
C452 C162 1.643 . S
C488 C246 1.779 . S
C469 C84 1.754 . S
C524 C239 1.642 . S
C505 C51 1.610 . S
C541 C62 1.747 . S
C560 C155 1.786 . S
C596 C319 1.666 . S
C577 C29 1.606 . S
C632 C403 1.589 . S
C613 C38 1.453 . S
C649 C7 1.590 . S
C668 C396 1.656 . S
C685 C16 1.456 . S
C704 C312 1.571 . S
C740 C146 1.552 . S
C721 C18 1.662 . S
C776 C230 1.537 . S
C757 C5 1.460 . S
C812 C241 1.441 . S
C793 C40 1.676 . S
C848 C157 1.552 . S
C829 C27 1.469 . S
C884 C325 1.308 . S
C865 C60 1.364 . S
C901 C49 1.363 . S
C920 C409 1.351 . S
C956 C398 1.288 . S
C937 C82 1.372 . S
C973 C71 1.377 . S
C992 C314 1.360 . S
C1028 C144 1.691 . S
C1009 C8 1.674 . S
C1064 C228 1.565 . S
C1045 C19 1.565 . S
C1081 C30 1.678 . S
C1100 C235 1.677 . S
C1136 C151 1.535 . S
C1117 C41 1.558 . S
C1172 C323 1.417 . S
C1153 C52 1.415 . S
C1189 C63 1.571 . S
C1208 C407 1.570 . S
C1225 C74 1.412 . S
C1244 C414 1.366 . S
C1261 C85 1.563 . S
C1280 C330 1.546 . S
