# Generated by pormake.
# Topology scu, (8,4)-cn, num edge types: 1
# Building blocks:
#     Node 0, Type 0, BuildingBlock: VETTIZ_charged_sbu_0, # of connection points: 8
#     Node 1, Type 1, BuildingBlock: KOZSID_clean_sbu_0, # of connection points: 4
#     Node 2, Type 1, BuildingBlock: KOZSID_clean_sbu_0, # of connection points: 4
#     Edge 3, Type (0, 1), BuildingBlock: FUNLAD_clean_linker_0, # of connection points: 2
#     Edge 4, Type (0, 1), BuildingBlock: FUNLAD_clean_linker_0, # of connection points: 2
#     Edge 5, Type (0, 1), BuildingBlock: FUNLAD_clean_linker_0, # of connection points: 2
#     Edge 6, Type (0, 1), BuildingBlock: FUNLAD_clean_linker_0, # of connection points: 2
#     Edge 7, Type (0, 1), BuildingBlock: FUNLAD_clean_linker_0, # of connection points: 2
#     Edge 8, Type (0, 1), BuildingBlock: FUNLAD_clean_linker_0, # of connection points: 2
#     Edge 9, Type (0, 1), BuildingBlock: FUNLAD_clean_linker_0, # of connection points: 2
#     Edge 10, Type (0, 1), BuildingBlock: FUNLAD_clean_linker_0, # of connection points: 2
# Relax obj value: 0.002
# Max RMSD: 0.025
# Mean RMSD: 0.014
data_MOF--net-scu--node1-VETTIZ_charged_sbu_0--node2-KOZSID_clean_sbu_0--edge1-FUNLAD_clean_linker_0
_symmetry_space_group_name_H-M    P1
_symmetry_Int_Tables_number       1
_symmetry_cell_setting            triclinic
loop_
_symmetry_equiv_pos_as_xyz
'x, y, z'
_cell_length_a     32.500632
_cell_length_b     32.75098
_cell_length_c     23.488372
_cell_angle_alpha  86.920382
_cell_angle_beta   86.931341
_cell_angle_gamma 91.482833
loop_
_atom_site_label
_atom_site_type_symbol
_atom_site_fract_x
_atom_site_fract_y
_atom_site_fract_z
_atom_type_partial_charge
Fe0 Fe 0.98133 0.98105 0.13183 0.0
O1 O 0.98332 0.98446 0.04781 0.0
Fe2 Fe 0.03906 0.96928 1.00482 0.0
Fe3 Fe 0.97264 0.03629 1.00257 0.0
O4 O 0.9864 0.9814 0.04793 0.0
O5 O 0.02769 0.02049 0.95912 0.0
O6 O 0.02493 0.02348 0.95917 0.0
Fe7 Fe 0.03128 0.02494 0.87564 0.0
C8 C 0.90075 0.01577 0.09431 0.0
O9 O 0.98133 0.04351 0.13971 0.0
O10 O 1.00586 0.07095 0.0558 0.0
O11 O 0.09353 0.01953 0.88828 0.0
O12 O 0.09388 0.96434 0.95367 0.0
O13 O 0.07334 0.00309 0.05749 0.0
O14 O 0.04429 0.98206 0.14218 0.0
O15 O 0.96979 0.08991 0.94906 0.0
O16 O 0.02659 0.08686 0.88588 0.0
C17 C 0.075 0.997 0.1112 0.0
O18 O 0.03005 0.96241 0.86702 0.0
O19 O 0.00706 0.93367 0.95136 0.0
O20 O 0.91914 0.98583 0.12014 0.0
O21 O 0.91833 0.04163 0.05546 0.0
C22 C 0.99792 0.07335 0.1091 0.0
C23 C 0.99698 0.10635 0.91101 0.0
C24 C 0.93695 0.01071 0.89435 0.0
O25 O 0.93716 0.00442 0.94838 0.0
O26 O 0.96861 0.02488 0.86456 0.0
C27 C 0.11197 0.99024 0.91549 0.0
O28 O 0.04337 0.91645 0.05956 0.0
O29 O 0.98706 0.91922 0.12356 0.0
C30 C 0.01381 0.93224 0.89758 0.0
C31 C 0.01778 0.90051 0.09997 0.0
C32 C 0.05684 0.55666 0.41042 0.0
C33 C 0.09635 0.56902 0.39017 0.0
C34 C 0.12292 0.54886 0.42402 0.0
C35 C 0.09826 0.52553 0.46295 0.0
N36 N 0.05746 0.52913 0.45561 0.0
Co37 Co 0.01066 0.50208 0.5042 0.0
N38 N 0.04971 0.47528 0.55692 0.0
C39 C 0.09133 0.47929 0.55404 0.0
C40 C 0.10972 0.45655 0.59572 0.0
C41 C 0.07802 0.43628 0.6266 0.0
C42 C 0.04203 0.44779 0.60165 0.0
N43 N 0.96388 0.47489 0.55261 0.0
C44 C 0.96449 0.44721 0.5976 0.0
C45 C 0.92498 0.43466 0.61765 0.0
C46 C 0.89842 0.45484 0.58382 0.0
C47 C 0.9231 0.47834 0.54512 0.0
N48 N 0.97162 0.52897 0.45163 0.0
C49 C 0.92999 0.52523 0.45481 0.0
C50 C 0.91158 0.54776 0.41294 0.0
C51 C 0.94329 0.56763 0.38162 0.0
C52 C 0.97931 0.55613 0.40654 0.0
N53 N 0.0128 0.45374 0.4562 0.0
C54 C 0.01612 0.38373 0.39087 0.0
C55 C 0.97868 0.40215 0.40373 0.0
C56 C 0.9777 0.43671 0.43636 0.0
C57 C 0.05187 0.40131 0.41071 0.0
C58 C 0.04955 0.43599 0.44276 0.0
N59 N 0.00861 0.55049 0.55217 0.0
C60 C 0.97032 0.60289 0.5993 0.0
C61 C 0.00671 0.6214 0.61592 0.0
C62 C 0.04389 0.6032 0.60105 0.0
C63 C 0.04413 0.56819 0.56962 0.0
C64 C 0.97197 0.56781 0.56764 0.0
H65 H 0.07357 0.55628 0.55956 0.0
H66 H 0.94323 0.55558 0.55554 0.0
H67 H 0.94814 0.44881 0.44549 0.0
H68 H 0.07797 0.44769 0.45646 0.0
C69 C 0.11235 0.50247 0.50941 0.0
C70 C 0.01972 0.57382 0.38787 0.0
C71 C 1.0016 0.43007 0.62018 0.0
C72 C 0.90904 0.50175 0.49908 0.0
H73 H 0.10512 0.59115 0.35552 0.0
H74 H 0.15622 0.55193 0.42175 0.0
H75 H 0.14235 0.45406 0.60188 0.0
H76 H 0.08104 0.41467 0.66255 0.0
H77 H 0.91621 0.41242 0.65216 0.0
H78 H 0.86513 0.45173 0.58601 0.0
H79 H 0.87895 0.5502 0.40676 0.0
H80 H 0.94028 0.58898 0.34537 0.0
H81 H 0.95003 0.38942 0.38987 0.0
H82 H 0.08172 0.38851 0.4013 0.0
H83 H 0.94071 0.61595 0.60936 0.0
H84 H 0.07293 0.61584 0.6137 0.0
C85 C 0.4343 0.96089 0.58611 0.0
C86 C 0.41175 0.92422 0.58761 0.0
C87 C 0.43573 0.89695 0.56025 0.0
C88 C 0.4702 0.91913 0.5401 0.0
N89 N 0.46901 0.95906 0.55157 0.0
Co90 Co 0.50311 0.00462 0.51076 0.0
N91 N 0.53879 0.96517 0.46991 0.0
C92 C 0.5363 0.92387 0.47649 0.0
C93 C 0.56622 0.90478 0.44536 0.0
C94 C 0.58918 0.9357 0.41702 0.0
C95 C 0.57152 0.97207 0.43198 0.0
N96 N 0.5364 0.05034 0.46865 0.0
C97 C 0.56811 0.04932 0.4287 0.0
C98 C 0.581 0.08845 0.40844 0.0
C99 C 0.55694 0.11507 0.43685 0.0
C100 C 0.53059 0.09087 0.47237 0.0
N101 N 0.46799 0.04388 0.55291 0.0
C102 C 0.46942 0.08511 0.54534 0.0
C103 C 0.43629 0.10339 0.57062 0.0
C104 C 0.41307 0.07203 0.59742 0.0
C105 C 0.43457 0.03646 0.58962 0.0
N106 N 0.54213 0.00382 0.573 0.0
C107 C 0.6052 1.00202 0.65129 0.0
C108 C 0.59076 0.03915 0.62896 0.0
C109 C 0.55919 0.03936 0.59064 0.0
C110 C 0.58574 0.9659 0.63602 0.0
C111 C 0.55441 0.96749 0.59736 0.0
N112 N 0.4637 0.00514 0.448 0.0
C113 C 0.41094 0.03945 0.39573 0.0
C114 C 0.39766 0.00269 0.37424 0.0
C115 C 0.42037 0.96793 0.38639 0.0
C116 C 0.45326 0.96996 0.42233 0.0
C117 C 0.444 0.04005 0.43151 0.0
H118 H 0.46933 0.94243 0.4291 0.0
H119 H 0.45245 0.06911 0.44581 0.0
H120 H 0.54935 0.06858 0.57512 0.0
H121 H 0.54099 0.93892 0.58684 0.0
C122 C 0.50315 0.904 0.50775 0.0
C123 C 0.42349 0.9965 0.61917 0.0
C124 C 0.5862 0.0122 0.40763 0.0
C125 C 0.49938 0.10525 0.50849 0.0
H126 H 0.38064 0.91782 0.60493 0.0
H127 H 0.42818 0.8652 0.55381 0.0
H128 H 0.57026 0.87224 0.44251 0.0
H129 H 0.61555 0.93182 0.38789 0.0
H130 H 0.60493 0.09704 0.3759 0.0
H131 H 0.55807 0.14812 0.43155 0.0
H132 H 0.42905 0.13549 0.56803 0.0
H133 H 0.38368 0.07518 0.62041 0.0
H134 H 0.60386 0.06803 0.64077 0.0
H135 H 0.59551 0.93634 0.65226 0.0
H136 H 0.39503 0.06754 0.38686 0.0
H137 H 0.41261 0.93902 0.36873 0.0
C138 C 1.00032 0.11446 0.19588 0.0
C139 C 1.00483 0.11278 0.13615 0.0
C140 C 1.00351 0.15173 0.22185 0.0
C141 C 0.0115 0.18847 0.18878 0.0
C142 C 0.01639 0.18681 0.1291 0.0
C143 C 0.01339 0.14939 0.10304 0.0
C144 C 0.01247 0.22897 0.21502 0.0
C145 C 0.022 0.23365 0.26959 0.0
C146 C 0.02111 0.27335 0.29782 0.0
C147 C 0.04428 0.2778 0.346 0.0
C148 C 0.04294 0.31367 0.37565 0.0
C149 C 0.01794 0.34593 0.35831 0.0
H150 H 0.9769 0.30306 0.24429 0.0
C151 C 0.99449 0.34149 0.31026 0.0
C152 C 0.99607 0.30564 0.28025 0.0
H153 H 0.97499 0.36581 0.29571 0.0
H154 H 0.99351 0.08697 0.22281 0.0
H155 H 0.99828 0.15158 0.26773 0.0
H156 H 0.02221 0.21462 0.10247 0.0
H157 H 0.01671 0.14932 0.0569 0.0
H158 H 1.00608 0.25572 0.18794 0.0
H159 H 0.03219 0.20741 0.29476 0.0
H160 H 0.06343 0.25331 0.36101 0.0
H161 H 0.0609 0.31578 0.41298 0.0
C162 C 0.83292 0.9886 0.13684 0.0
C163 C 0.85782 0.0223 0.11548 0.0
C164 C 0.79541 0.99425 0.16681 0.0
C165 C 0.78194 0.03389 0.17653 0.0
C166 C 0.80602 0.06762 0.15311 0.0
C167 C 0.84341 0.06191 0.12226 0.0
C168 C 0.74566 0.04062 0.21608 0.0
C169 C 0.71379 0.01344 0.22524 0.0
C170 C 0.68058 0.01674 0.27075 0.0
C171 C 0.64153 0.99897 0.2636 0.0
C172 C 0.61064 0.99848 0.30748 0.0
C173 C 0.61848 0.01497 0.35989 0.0
H174 H 0.71826 0.04676 0.33072 0.0
C175 C 0.65746 0.03276 0.36728 0.0
C176 C 0.68819 0.03388 0.32304 0.0
H177 H 0.66429 0.04519 0.40765 0.0
H178 H 0.84329 0.95769 0.1324 0.0
H179 H 0.77838 0.96745 0.18512 0.0
H180 H 0.79653 0.09848 0.16027 0.0
H181 H 0.86217 0.08846 0.10689 0.0
H182 H 0.74565 0.06856 0.23902 0.0
H183 H 0.71172 0.98754 0.1984 0.0
H184 H 0.635 0.98513 0.22406 0.0
H185 H 0.5808 0.98453 0.30094 0.0
C186 C 0.01828 0.85294 0.18536 0.0
C187 C 0.02594 0.85976 0.12621 0.0
C188 C 0.02387 0.81469 0.21193 0.0
C189 C 0.03625 0.78165 0.17984 0.0
C190 C 0.0457 0.78881 0.12087 0.0
C191 C 0.04072 0.82768 0.09418 0.0
C192 C 0.03985 0.73994 0.2075 0.0
C193 C 0.01729 0.72764 0.25559 0.0
C194 C 0.02087 0.68788 0.28817 0.0
C195 C 0.0064 0.68519 0.34573 0.0
C196 C 0.00716 0.64835 0.37816 0.0
C197 C 0.02206 0.61326 0.35357 0.0
H198 H 0.04692 0.6533 0.21911 0.0
C199 C 0.03674 0.61556 0.29615 0.0
C200 C 0.03632 0.65269 0.26359 0.0
H201 H 0.04781 0.58851 0.27637 0.0
H202 H 0.00817 0.87746 0.2115 0.0
H203 H 0.01863 0.81145 0.25783 0.0
H204 H 0.0561 0.76413 0.09529 0.0
H205 H 0.04727 0.83234 0.04855 0.0
H206 H 0.06129 0.71937 0.18777 0.0
H207 H 0.99507 0.74822 0.27362 0.0
H208 H 0.99423 0.71172 0.36575 0.0
H209 H 0.9955 0.64704 0.42235 0.0
C210 C 0.11806 0.99615 0.19702 0.0
C211 C 0.11476 0.00447 0.13806 0.0
C212 C 0.15599 1.00043 0.22189 0.0
C213 C 0.19177 0.01296 0.18836 0.0
C214 C 0.18821 0.02265 0.12986 0.0
C215 C 0.15026 0.01827 0.10489 0.0
C216 C 0.23296 0.0168 0.21315 0.0
C217 C 0.24335 0.99439 0.25989 0.0
C218 C 0.28431 0.99688 0.28567 0.0
C219 C 0.29485 0.96495 0.32404 0.0
C220 C 0.3319 0.9665 0.35154 0.0
C221 C 0.3595 1.00023 0.34174 0.0
H222 H 0.30495 0.0563 0.24709 0.0
C223 C 0.3492 0.03216 0.30299 0.0
C224 C 0.31205 0.03058 0.27532 0.0
H225 H 0.36978 0.05854 0.29418 0.0
H226 H 0.09137 0.98588 0.2241 0.0
H227 H 0.15699 0.99412 0.26748 0.0
H228 H 0.21508 0.03287 0.10307 0.0
H229 H 0.14896 0.02512 0.0594 0.0
H230 H 0.25585 0.03701 0.19012 0.0
H231 H 0.2213 0.97166 0.27944 0.0
H232 H 0.27407 0.93874 0.33333 0.0
H233 H 0.33832 0.94168 0.38183 0.0
C234 C 0.0076 0.89301 0.80946 0.0
C235 C 1.00511 0.89355 0.86941 0.0
C236 C 1.00222 0.85647 0.78229 0.0
C237 C 0.99463 0.81922 0.81435 0.0
C238 C 0.99055 0.81993 0.8742 0.0
C239 C 0.99584 0.85663 0.9015 0.0
C240 C 0.99064 0.77938 0.78664 0.0
C241 C 0.00896 0.77278 0.73506 0.0
C242 C 0.00723 0.73321 0.70637 0.0
C243 C 0.03663 0.72714 0.66181 0.0
C244 C 0.03632 0.69104 0.63273 0.0
C245 C 0.00637 0.65993 0.64709 0.0
H246 H 0.95301 0.70603 0.7536 0.0
C247 C 0.97646 0.6661 0.69115 0.0
C248 C 0.97686 0.70231 0.72054 0.0
H249 H 0.95297 0.64274 0.70337 0.0
H250 H 0.01396 0.92091 0.78323 0.0
H251 H 1.00388 0.85773 0.73611 0.0
H252 H 0.98417 0.79185 0.90005 0.0
H253 H 0.99354 0.85586 0.94772 0.0
H254 H 0.97431 0.75436 0.81109 0.0
H255 H 0.02822 0.79704 0.71343 0.0
H256 H 0.06013 0.75046 0.64936 0.0
H257 H 0.05936 0.68776 0.59834 0.0
C258 C 0.17965 0.01826 0.87202 0.0
C259 C 0.15636 0.98538 0.89945 0.0
C260 C 0.22027 0.01316 0.8516 0.0
C261 C 0.23874 0.97491 0.85796 0.0
C262 C 0.21586 0.94229 0.88669 0.0
C263 C 0.17526 0.94755 0.90781 0.0
C264 C 0.27956 0.96711 0.8291 0.0
C265 C 0.30902 0.99664 0.81692 0.0
C266 C 0.34542 0.99283 0.77601 0.0
C267 C 0.36911 0.02809 0.75854 0.0
C268 C 0.39803 0.02787 0.71223 0.0
C269 C 0.4021 0.99322 0.67916 0.0
H270 H 0.34207 0.92707 0.76734 0.0
C271 C 0.38499 0.95617 0.70514 0.0
C272 C 0.35608 0.95606 0.7516 0.0
H273 H 0.39346 0.92675 0.69125 0.0
H274 H 0.16617 0.04789 0.86499 0.0
H275 H 0.23625 0.0388 0.82837 0.0
H276 H 0.22911 0.91238 0.89166 0.0
H277 H 0.15817 0.92153 0.92853 0.0
H278 H 0.28389 0.93649 0.81495 0.0
H279 H 0.30449 0.02653 0.8338 0.0
H280 H 0.36426 0.05645 0.77935 0.0
H281 H 0.41634 0.05552 0.70229 0.0
C282 C 0.02764 0.17088 0.86368 0.0
C283 C 0.99346 0.14991 0.89187 0.0
C284 C 0.02388 0.21002 0.83864 0.0
C285 C 0.98567 0.22916 0.84056 0.0
C286 C 0.95211 0.20952 0.872 0.0
C287 C 0.9559 0.17012 0.89739 0.0
C288 C 0.98038 0.26905 0.80885 0.0
C289 C 1.00113 0.27854 0.75838 0.0
C290 C 0.99807 0.31761 0.72386 0.0
C291 C 0.01186 0.31876 0.66604 0.0
C292 C 0.0122 0.35518 0.63237 0.0
C293 C 0.99894 0.39127 0.65592 0.0
H294 H 0.97453 0.35454 0.79199 0.0
C295 C 0.98493 0.39048 0.71352 0.0
C296 C 0.98442 0.3539 0.74736 0.0
H297 H 0.97505 0.41829 0.73244 0.0
H298 H 0.05735 0.15671 0.85986 0.0
H299 H 0.05091 0.22498 0.81707 0.0
H300 H 0.92251 0.22396 0.87495 0.0
H301 H 0.92906 0.1549 0.91916 0.0
H302 H 0.95749 0.28946 0.8256 0.0
H303 H 0.02077 0.25575 0.73996 0.0
H304 H 0.02281 0.29141 0.64688 0.0
H305 H 0.02329 0.35534 0.58801 0.0
C306 C 0.85948 0.99995 0.89503 0.0
C307 C 0.89802 0.00465 0.86469 0.0
C308 C 0.82281 0.99858 0.86589 0.0
C309 C 0.82397 1.00161 0.80566 0.0
C310 C 0.86259 0.00506 0.77574 0.0
C311 C 0.899 0.00649 0.80467 0.0
C312 C 0.7863 0.00374 0.7718 0.0
C313 C 0.74752 0.99352 0.7921 0.0
C314 C 0.71103 0.99672 0.75605 0.0
C315 C 0.67632 0.9708 0.76927 0.0
C316 C 0.6419 0.97262 0.73576 0.0
C317 C 0.64107 1.00091 0.68857 0.0
H318 H 0.7353 0.04711 0.69889 0.0
C319 C 0.6754 0.0276 0.67627 0.0
C320 C 0.70985 0.02562 0.70954 0.0
H321 H 0.67601 0.04965 0.64016 0.0
H322 H 0.85751 0.99871 0.94128 0.0
H323 H 0.79384 0.99652 0.89086 0.0
H324 H 0.8647 0.0074 0.72947 0.0
H325 H 0.92799 0.00987 0.77968 0.0
H326 H 0.79125 0.01335 0.72692 0.0
H327 H 0.74223 0.98059 0.83545 0.0
H328 H 0.67602 0.94862 0.80523 0.0
H329 H 0.61581 0.952 0.74707 0.0
loop_
_geom_bond_atom_site_label_1
_geom_bond_atom_site_label_2
_geom_bond_distance
_geom_bond_site_symmetry_2
_ccdc_geom_bond_type
Fe0 O1 1.886 1_565 S
Fe0 O4 1.715 1_655 S
Fe0 O9 2.077 1_565 S
Fe0 O14 1.935 1_665 S
Fe0 O20 2.077 . S
Fe0 O29 1.935 . S
O1 Fe0 1.886 1_545 S
O1 Fe3 1.715 1_554 S
Fe2 O4 1.886 . S
Fe2 O5 1.715 1_554 S
Fe2 O12 1.935 1_554 S
Fe2 O13 2.077 . S
Fe2 O19 1.935 1_554 S
Fe2 O28 2.077 . S
Fe3 O1 1.715 1_556 S
Fe3 O6 1.886 . S
Fe3 O10 1.935 1_556 S
Fe3 O15 2.077 . S
Fe3 O21 1.935 1_556 S
Fe3 O25 2.077 . S
O4 Fe0 1.715 1_455 S
O4 Fe2 1.886 . S
O5 Fe2 1.715 1_556 S
O5 Fe7 1.886 1_565 S
O6 Fe3 1.886 . S
O6 Fe7 1.715 1_655 S
Fe7 O5 1.886 1_545 S
Fe7 O6 1.715 1_455 S
Fe7 O11 2.077 . S
Fe7 O16 1.935 . S
Fe7 O18 2.077 1_545 S
Fe7 O26 1.935 1_445 S
C8 O20 1.381 1_545 S
C8 O21 1.421 . S
O9 Fe0 2.077 1_545 S
O9 C22 1.381 . S
O10 Fe3 1.935 1_554 S
O10 C22 1.421 . S
O11 Fe7 2.077 . S
O11 C27 1.381 1_545 S
O12 Fe2 1.935 1_556 S
O12 C27 1.421 . S
O13 Fe2 2.077 . S
O13 C17 1.381 . S
O14 Fe0 1.935 1_445 S
O14 C17 1.421 1_545 S
O15 Fe3 2.077 . S
O15 C23 1.381 . S
O16 Fe7 1.935 . S
O16 C23 1.421 1_455 S
C17 O13 1.381 . S
C17 O14 1.421 1_565 S
O18 Fe7 2.077 1_565 S
O18 C30 1.381 . S
O19 Fe2 1.935 1_556 S
O19 C30 1.421 . S
O20 Fe0 2.077 . S
O20 C8 1.381 1_565 S
O21 Fe3 1.935 1_554 S
O21 C8 1.421 . S
C22 O9 1.381 . S
C22 O10 1.421 . S
C23 O15 1.381 . S
C23 O16 1.421 1_655 S
C24 O25 1.381 . S
C24 O26 1.421 1_545 S
O25 Fe3 2.077 . S
O25 C24 1.381 . S
O26 Fe7 1.935 1_665 S
O26 C24 1.421 1_565 S
C27 O11 1.381 1_565 S
C27 O12 1.421 . S
O28 Fe2 2.077 . S
O28 C31 1.381 . S
O29 Fe0 1.935 . S
O29 C31 1.421 1_655 S
C30 O18 1.381 . S
C30 O19 1.421 . S
C31 O28 1.381 . S
C31 O29 1.421 1_455 S
C32 C33 1.443 . S
C32 N36 1.376 . S
C32 C70 1.404 . S
C33 C32 1.443 . S
C33 C34 1.340 . S
C33 H73 0.951 . S
C34 C33 1.340 . S
C34 C35 1.439 . S
C34 H74 0.950 . S
C35 C34 1.439 . S
C35 N36 1.374 . S
C35 C69 1.395 . S
N36 C32 1.376 . S
N36 C35 1.374 . S
N36 Co37 2.008 . S
Co37 N36 2.008 . S
Co37 N38 1.995 . S
Co37 N43 2.008 1_455 S
Co37 N48 1.995 1_455 S
Co37 N53 2.282 . S
Co37 N59 2.282 1_455 S
N38 Co37 1.995 . S
N38 C39 1.376 . S
N38 C42 1.383 . S
C39 N38 1.376 . S
C39 C40 1.446 . S
C39 C69 1.391 . S
C40 C39 1.446 . S
C40 C41 1.339 . S
C40 H75 0.949 . S
C41 C40 1.339 . S
C41 C42 1.439 . S
C41 H76 0.950 . S
C42 N38 1.383 . S
C42 C41 1.439 . S
C42 C71 1.384 1_455 S
N43 Co37 2.008 1_655 S
N43 C44 1.376 . S
N43 C47 1.374 . S
C44 N43 1.376 . S
C44 C45 1.443 . S
C44 C71 1.398 . S
C45 C44 1.443 . S
C45 C46 1.340 . S
C45 H77 0.951 . S
C46 C45 1.340 . S
C46 C47 1.439 . S
C46 H78 0.950 . S
C47 N43 1.374 . S
C47 C46 1.439 . S
C47 C72 1.395 . S
N48 Co37 1.995 1_655 S
N48 C49 1.376 . S
N48 C52 1.383 . S
C49 N48 1.376 . S
C49 C50 1.446 . S
C49 C72 1.391 . S
C50 C49 1.446 . S
C50 C51 1.339 . S
C50 H79 0.949 . S
C51 C50 1.339 . S
C51 C52 1.439 . S
C51 H80 0.950 . S
C52 N48 1.383 . S
C52 C51 1.439 . S
C52 C70 1.378 1_655 S
N53 Co37 2.282 . S
N53 C56 1.332 1_455 S
N53 C58 1.332 . S
C54 C55 1.375 1_455 S
C54 C57 1.400 . S
C55 C54 1.375 1_655 S
C55 C56 1.382 . S
C55 H81 0.950 . S
C56 N53 1.332 1_655 S
C56 C55 1.382 . S
C56 H67 0.952 . S
C57 C54 1.400 . S
C57 C58 1.382 . S
C57 H82 0.950 . S
C58 N53 1.332 . S
C58 C57 1.382 . S
C58 H68 0.948 . S
N59 Co37 2.282 1_655 S
N59 C63 1.332 1_655 S
N59 C64 1.332 . S
C60 C61 1.394 . S
C60 C64 1.382 . S
C60 H83 0.950 . S
C61 C60 1.394 . S
C61 C62 1.380 1_655 S
C62 C61 1.380 1_455 S
C62 C63 1.382 . S
C62 H84 0.950 . S
C63 N59 1.332 1_455 S
C63 C62 1.382 . S
C63 H65 0.952 . S
C64 N59 1.332 . S
C64 C60 1.382 . S
C64 H66 0.948 . S
H65 C63 0.952 . S
H66 C64 0.948 . S
H67 C56 0.952 . S
H68 C58 0.948 . S
C69 C35 1.395 . S
C69 C39 1.391 . S
C70 C32 1.404 . S
C70 C52 1.378 1_455 S
C71 C42 1.384 1_655 S
C71 C44 1.398 . S
C72 C47 1.395 . S
C72 C49 1.391 . S
H73 C33 0.951 . S
H74 C34 0.950 . S
H75 C40 0.949 . S
H76 C41 0.950 . S
H77 C45 0.951 . S
H78 C46 0.950 . S
H79 C50 0.949 . S
H80 C51 0.950 . S
H81 C55 0.950 . S
H82 C57 0.950 . S
H83 C60 0.950 . S
H84 C62 0.950 . S
C85 C86 1.443 . S
C85 N89 1.376 . S
C85 C123 1.398 . S
C86 C85 1.443 . S
C86 C87 1.340 . S
C86 H126 0.951 . S
C87 C86 1.340 . S
C87 C88 1.439 . S
C87 H127 0.950 . S
C88 C87 1.439 . S
C88 N89 1.374 . S
C88 C122 1.395 . S
N89 C85 1.376 . S
N89 C88 1.374 . S
N89 Co90 2.008 1_565 S
Co90 N89 2.008 1_545 S
Co90 N91 1.995 1_545 S
Co90 N96 2.008 . S
Co90 N101 1.995 . S
Co90 N106 2.282 1_545 S
Co90 N112 2.282 . S
N91 Co90 1.995 1_565 S
N91 C92 1.376 . S
N91 C95 1.383 . S
C92 N91 1.376 . S
C92 C93 1.446 . S
C92 C122 1.391 . S
C93 C92 1.446 . S
C93 C94 1.339 . S
C93 H128 0.949 . S
C94 C93 1.339 . S
C94 C95 1.439 . S
C94 H129 0.950 . S
C95 N91 1.383 . S
C95 C94 1.439 . S
C95 C124 1.378 1_565 S
N96 Co90 2.008 . S
N96 C97 1.376 . S
N96 C100 1.374 . S
C97 N96 1.376 . S
C97 C98 1.443 . S
C97 C124 1.404 . S
C98 C97 1.443 . S
C98 C99 1.340 . S
C98 H130 0.951 . S
C99 C98 1.340 . S
C99 C100 1.439 . S
C99 H131 0.950 . S
C100 N96 1.374 . S
C100 C99 1.439 . S
C100 C125 1.395 . S
N101 Co90 1.995 . S
N101 C102 1.376 . S
N101 C105 1.383 . S
C102 N101 1.376 . S
C102 C103 1.446 . S
C102 C125 1.391 . S
C103 C102 1.446 . S
C103 C104 1.339 . S
C103 H132 0.949 . S
C104 C103 1.339 . S
C104 C105 1.439 . S
C104 H133 0.950 . S
C105 N101 1.383 . S
C105 C104 1.439 . S
C105 C123 1.384 1_545 S
N106 Co90 2.282 1_565 S
N106 C109 1.332 1_565 S
N106 C111 1.332 . S
C107 C108 1.380 1_565 S
C107 C110 1.394 . S
C108 C107 1.380 1_545 S
C108 C109 1.382 . S
C108 H134 0.950 . S
C109 N106 1.332 1_545 S
C109 C108 1.382 . S
C109 H120 0.952 . S
C110 C107 1.394 . S
C110 C111 1.382 . S
C110 H135 0.950 . S
C111 N106 1.332 . S
C111 C110 1.382 . S
C111 H121 0.948 . S
N112 Co90 2.282 . S
N112 C116 1.332 1_545 S
N112 C117 1.332 . S
C113 C114 1.400 . S
C113 C117 1.382 . S
C113 H136 0.950 . S
C114 C113 1.400 . S
C114 C115 1.375 1_545 S
C115 C114 1.375 1_565 S
C115 C116 1.382 . S
C115 H137 0.950 . S
C116 N112 1.332 1_565 S
C116 C115 1.382 . S
C116 H118 0.952 . S
C117 N112 1.332 . S
C117 C113 1.382 . S
C117 H119 0.948 . S
H118 C116 0.952 . S
H119 C117 0.948 . S
H120 C109 0.952 . S
H121 C111 0.948 . S
C122 C88 1.395 . S
C122 C92 1.391 . S
C123 C85 1.398 . S
C123 C105 1.384 1_565 S
C124 C95 1.378 1_545 S
C124 C97 1.404 . S
C125 C100 1.395 . S
C125 C102 1.391 . S
H126 C86 0.951 . S
H127 C87 0.950 . S
H128 C93 0.949 . S
H129 C94 0.950 . S
H130 C98 0.951 . S
H131 C99 0.950 . S
H132 C103 0.949 . S
H133 C104 0.950 . S
H134 C108 0.950 . S
H135 C110 0.950 . S
H136 C113 0.950 . S
H137 C115 0.950 . S
C138 C139 1.386 1_455 S
C138 C140 1.383 . S
C138 H154 0.951 . S
C139 C138 1.386 1_655 S
C139 C143 1.383 . S
C140 C138 1.383 . S
C140 C141 1.402 1_455 S
C140 H155 0.951 . S
C141 C140 1.402 1_655 S
C141 C142 1.375 . S
C141 C144 1.481 . S
C142 C141 1.375 . S
C142 C143 1.367 . S
C142 H156 0.951 . S
C143 C139 1.383 . S
C143 C142 1.367 . S
C143 H157 0.950 . S
C144 C141 1.481 . S
C144 C145 1.297 1_655 S
C144 H158 0.950 . S
C145 C144 1.297 1_455 S
C145 C146 1.479 . S
C145 H159 0.950 . S
C146 C145 1.479 . S
C146 C147 1.375 . S
C146 C152 1.404 1_455 S
C147 C146 1.375 . S
C147 C148 1.369 . S
C147 H160 0.950 . S
C148 C147 1.369 . S
C148 C149 1.392 . S
C148 H161 0.951 . S
C149 C148 1.392 . S
C149 C151 1.384 1_455 S
H150 C152 0.949 . S
C151 C149 1.384 1_655 S
C151 C152 1.385 . S
C151 H153 0.950 . S
C152 C146 1.404 1_655 S
C152 H150 0.949 . S
C152 C151 1.385 . S
H153 C151 0.950 . S
H154 C138 0.951 . S
H155 C140 0.951 . S
H156 C142 0.951 . S
H157 C143 0.950 . S
H158 C144 0.950 . S
H159 C145 0.950 . S
H160 C147 0.950 . S
H161 C148 0.951 . S
C162 C163 1.406 . S
C162 C164 1.383 . S
C162 H178 0.951 . S
C163 C162 1.406 . S
C163 C167 1.359 1_565 S
C164 C162 1.383 . S
C164 C165 1.402 1_565 S
C164 H179 0.951 . S
C165 C164 1.402 1_545 S
C165 C166 1.375 . S
C165 C168 1.481 . S
C166 C165 1.375 . S
C166 C167 1.367 . S
C166 H180 0.951 . S
C167 C163 1.359 1_545 S
C167 C166 1.367 . S
C167 H181 0.950 . S
C168 C165 1.481 . S
C168 C169 1.297 1_545 S
C168 H182 0.950 . S
C169 C168 1.297 1_565 S
C169 C170 1.479 . S
C169 H183 0.950 . S
C170 C169 1.479 . S
C170 C171 1.375 . S
C170 C176 1.404 1_565 S
C171 C170 1.375 . S
C171 C172 1.369 . S
C171 H184 0.950 . S
C172 C171 1.369 . S
C172 C173 1.392 . S
C172 H185 0.951 . S
C173 C172 1.392 . S
C173 C175 1.384 1_565 S
H174 C176 0.949 . S
C175 C173 1.384 1_545 S
C175 C176 1.385 . S
C175 H177 0.950 . S
C176 C170 1.404 1_545 S
C176 H174 0.949 . S
C176 C175 1.385 . S
H177 C175 0.950 . S
H178 C162 0.951 . S
H179 C164 0.951 . S
H180 C166 0.951 . S
H181 C167 0.950 . S
H182 C168 0.950 . S
H183 C169 0.950 . S
H184 C171 0.950 . S
H185 C172 0.951 . S
C186 C187 1.386 1_455 S
C186 C188 1.383 . S
C186 H202 0.951 . S
C187 C186 1.386 1_655 S
C187 C191 1.383 . S
C188 C186 1.383 . S
C188 C189 1.402 1_455 S
C188 H203 0.951 . S
C189 C188 1.402 1_655 S
C189 C190 1.375 . S
C189 C192 1.481 . S
C190 C189 1.375 . S
C190 C191 1.367 . S
C190 H204 0.951 . S
C191 C187 1.383 . S
C191 C190 1.367 . S
C191 H205 0.950 . S
C192 C189 1.481 . S
C192 C193 1.297 . S
C192 H206 0.950 . S
C193 C192 1.297 . S
C193 C194 1.479 . S
C193 H207 0.950 1_655 S
C194 C193 1.479 . S
C194 C195 1.375 1_655 S
C194 C200 1.404 . S
C195 C194 1.375 1_455 S
C195 C196 1.369 . S
C195 H208 0.950 . S
C196 C195 1.369 . S
C196 C197 1.392 1_455 S
C196 H209 0.951 . S
C197 C196 1.392 1_655 S
C197 C199 1.384 . S
H198 C200 0.949 . S
C199 C197 1.384 . S
C199 C200 1.385 . S
C199 H201 0.950 . S
C200 C194 1.404 . S
C200 H198 0.949 . S
C200 C199 1.385 . S
H201 C199 0.950 . S
H202 C186 0.951 . S
H203 C188 0.951 . S
H204 C190 0.951 . S
H205 C191 0.950 . S
H206 C192 0.950 . S
H207 C193 0.950 1_455 S
H208 C195 0.950 . S
H209 C196 0.951 . S
C210 C211 1.392 . S
C210 C212 1.383 . S
C210 H226 0.951 . S
C211 C210 1.392 . S
C211 C215 1.375 1_565 S
C212 C210 1.383 . S
C212 C213 1.402 1_565 S
C212 H227 0.951 . S
C213 C212 1.402 1_545 S
C213 C214 1.375 . S
C213 C216 1.481 . S
C214 C213 1.375 . S
C214 C215 1.367 . S
C214 H228 0.951 . S
C215 C211 1.375 1_545 S
C215 C214 1.367 . S
C215 H229 0.950 . S
C216 C213 1.481 . S
C216 C217 1.297 1_545 S
C216 H230 0.950 . S
C217 C216 1.297 1_565 S
C217 C218 1.479 . S
C217 H231 0.950 . S
C218 C217 1.479 . S
C218 C219 1.375 . S
C218 C224 1.404 1_565 S
C219 C218 1.375 . S
C219 C220 1.369 . S
C219 H232 0.950 . S
C220 C219 1.369 . S
C220 C221 1.392 . S
C220 H233 0.951 . S
C221 C220 1.392 . S
C221 C223 1.384 1_565 S
H222 C224 0.949 . S
C223 C221 1.384 1_545 S
C223 C224 1.385 . S
C223 H225 0.950 . S
C224 C218 1.404 1_545 S
C224 H222 0.949 . S
C224 C223 1.385 . S
H225 C223 0.950 . S
H226 C210 0.951 . S
H227 C212 0.951 . S
H228 C214 0.951 . S
H229 C215 0.950 . S
H230 C216 0.950 . S
H231 C217 0.950 . S
H232 C219 0.950 . S
H233 C220 0.951 . S
C234 C235 1.386 . S
C234 C236 1.383 . S
C234 H250 0.951 . S
C235 C234 1.386 . S
C235 C239 1.383 1_455 S
C236 C234 1.383 . S
C236 C237 1.402 . S
C236 H251 0.951 . S
C237 C236 1.402 . S
C237 C238 1.375 1_455 S
C237 C240 1.481 1_455 S
C238 C237 1.375 1_655 S
C238 C239 1.367 . S
C238 H252 0.951 . S
C239 C235 1.383 1_655 S
C239 C238 1.367 . S
C239 H253 0.950 . S
C240 C237 1.481 1_655 S
C240 C241 1.297 1_655 S
C240 H254 0.950 . S
C241 C240 1.297 1_455 S
C241 C242 1.479 . S
C241 H255 0.950 . S
C242 C241 1.479 . S
C242 C243 1.375 . S
C242 C248 1.404 1_455 S
C243 C242 1.375 . S
C243 C244 1.369 . S
C243 H256 0.950 . S
C244 C243 1.369 . S
C244 C245 1.392 . S
C244 H257 0.951 . S
C245 C244 1.392 . S
C245 C247 1.384 1_455 S
H246 C248 0.949 . S
C247 C245 1.384 1_655 S
C247 C248 1.385 . S
C247 H249 0.950 . S
C248 C242 1.404 1_655 S
C248 H246 0.949 . S
C248 C247 1.385 . S
H249 C247 0.950 . S
H250 C234 0.951 . S
H251 C236 0.951 . S
H252 C238 0.951 . S
H253 C239 0.950 . S
H254 C240 0.950 . S
H255 C241 0.950 . S
H256 C243 0.950 . S
H257 C244 0.951 . S
C258 C259 1.384 . S
C258 C260 1.383 . S
C258 H274 0.951 . S
C259 C258 1.384 . S
C259 C263 1.385 1_545 S
C260 C258 1.383 . S
C260 C261 1.402 1_545 S
C260 H275 0.951 . S
C261 C260 1.402 1_565 S
C261 C262 1.375 . S
C261 C264 1.481 . S
C262 C261 1.375 . S
C262 C263 1.367 . S
C262 H276 0.951 . S
C263 C259 1.385 1_565 S
C263 C262 1.367 . S
C263 H277 0.950 . S
C264 C261 1.481 . S
C264 C265 1.297 1_565 S
C264 H278 0.950 . S
C265 C264 1.297 1_545 S
C265 C266 1.479 . S
C265 H279 0.950 . S
C266 C265 1.479 . S
C266 C267 1.375 . S
C266 C272 1.404 1_545 S
C267 C266 1.375 . S
C267 C268 1.369 . S
C267 H280 0.950 . S
C268 C267 1.369 . S
C268 C269 1.390 . S
C268 H281 0.951 . S
C269 C268 1.390 . S
C269 C271 1.386 1_545 S
H270 C272 0.949 . S
C271 C269 1.386 1_565 S
C271 C272 1.385 . S
C271 H273 0.950 . S
C272 C266 1.404 1_565 S
C272 H270 0.949 . S
C272 C271 1.385 . S
H273 C271 0.950 . S
H274 C258 0.951 . S
H275 C260 0.951 . S
H276 C262 0.951 . S
H277 C263 0.950 . S
H278 C264 0.950 . S
H279 C265 0.950 . S
H280 C267 0.950 . S
H281 C268 0.951 . S
C282 C283 1.386 1_655 S
C282 C284 1.383 . S
C282 H298 0.951 . S
C283 C282 1.386 1_455 S
C283 C287 1.383 . S
C284 C282 1.383 . S
C284 C285 1.402 . S
C284 H299 0.951 . S
C285 C284 1.402 . S
C285 C286 1.375 1_655 S
C285 C288 1.481 . S
C286 C285 1.375 1_455 S
C286 C287 1.367 . S
C286 H300 0.951 . S
C287 C283 1.383 . S
C287 C286 1.367 . S
C287 H301 0.950 . S
C288 C285 1.481 . S
C288 C289 1.297 . S
C288 H302 0.950 1_655 S
C289 C288 1.297 . S
C289 C290 1.479 . S
C289 H303 0.950 . S
C290 C289 1.479 . S
C290 C291 1.375 . S
C290 C296 1.404 . S
C291 C290 1.375 . S
C291 C292 1.369 . S
C291 H304 0.950 . S
C292 C291 1.369 . S
C292 C293 1.392 . S
C292 H305 0.951 . S
C293 C292 1.392 . S
C293 C295 1.384 1_655 S
H294 C296 0.949 . S
C295 C293 1.384 1_455 S
C295 C296 1.385 1_455 S
C295 H297 0.950 . S
C296 C290 1.404 . S
C296 H294 0.949 . S
C296 C295 1.385 1_655 S
H297 C295 0.950 . S
H298 C282 0.951 . S
H299 C284 0.951 . S
H300 C286 0.951 . S
H301 C287 0.950 . S
H302 C288 0.950 1_455 S
H303 C289 0.950 . S
H304 C291 0.950 . S
H305 C292 0.951 . S
C306 C307 1.386 . S
C306 C308 1.383 . S
C306 H322 0.951 . S
C307 C306 1.386 . S
C307 C311 1.383 . S
C308 C306 1.383 . S
C308 C309 1.402 . S
C308 H323 0.951 . S
C309 C308 1.402 . S
C309 C310 1.375 . S
C309 C312 1.481 . S
C310 C309 1.375 . S
C310 C311 1.367 . S
C310 H324 0.951 . S
C311 C307 1.383 . S
C311 C310 1.367 . S
C311 H325 0.950 . S
C312 C309 1.481 . S
C312 C313 1.297 . S
C312 H326 0.950 . S
C313 C312 1.297 . S
C313 C314 1.479 . S
C313 H327 0.950 . S
C314 C313 1.479 . S
C314 C315 1.375 . S
C314 C320 1.404 . S
C315 C314 1.375 . S
C315 C316 1.369 . S
C315 H328 0.950 . S
C316 C315 1.369 . S
C316 C317 1.392 . S
C316 H329 0.951 . S
C317 C316 1.392 . S
C317 C319 1.384 . S
H318 C320 0.949 . S
C319 C317 1.384 . S
C319 C320 1.385 . S
C319 H321 0.950 . S
C320 C314 1.404 . S
C320 H318 0.949 . S
C320 C319 1.385 . S
H321 C319 0.950 . S
H322 C306 0.951 . S
H323 C308 0.951 . S
H324 C310 0.951 . S
H325 C311 0.950 . S
H326 C312 0.950 . S
H327 C313 0.950 . S
H328 C315 0.950 . S
H329 C316 0.951 . S
C139 C22 1.382 . S
C149 C54 1.407 . S
C163 C8 1.478 1_565 S
C173 C124 1.555 1_565 S
C187 C31 1.530 1_655 S
C197 C70 1.554 1_655 S
C211 C17 1.405 . S
C221 C114 1.405 1_565 S
C235 C30 1.389 . S
C245 C61 1.413 1_455 S
C259 C27 1.485 1_545 S
C269 C123 1.546 1_545 S
C293 C71 1.550 . S
C283 C23 1.513 1_455 S
C307 C24 1.346 . S
C317 C107 1.415 1_545 S
