# Generated by pormake.
# Topology pyr, (3,6)-cn, num edge types: 1
# Building blocks:
#     Node 0, Type 0, BuildingBlock: OLANEW_clean_sbu_2, # of connection points: 3
#     Node 1, Type 0, BuildingBlock: OLANEW_clean_sbu_2, # of connection points: 3
#     Node 2, Type 0, BuildingBlock: OLANEW_clean_sbu_2, # of connection points: 3
#     Node 3, Type 0, BuildingBlock: OLANEW_clean_sbu_2, # of connection points: 3
#     Node 4, Type 0, BuildingBlock: OLANEW_clean_sbu_2, # of connection points: 3
#     Node 5, Type 0, BuildingBlock: OLANEW_clean_sbu_2, # of connection points: 3
#     Node 6, Type 0, BuildingBlock: OLANEW_clean_sbu_2, # of connection points: 3
#     Node 7, Type 0, BuildingBlock: OLANEW_clean_sbu_2, # of connection points: 3
#     Node 8, Type 1, BuildingBlock: JUFBIX_clean_sbu_0, # of connection points: 6
#     Node 9, Type 1, BuildingBlock: JUFBIX_clean_sbu_0, # of connection points: 6
#     Node 10, Type 1, BuildingBlock: JUFBIX_clean_sbu_0, # of connection points: 6
#     Node 11, Type 1, BuildingBlock: JUFBIX_clean_sbu_0, # of connection points: 6
#     Edge 12, Type (0, 1), BuildingBlock: EZIPEK_clean_linker_0, # of connection points: 2
#     Edge 13, Type (0, 1), BuildingBlock: EZIPEK_clean_linker_0, # of connection points: 2
#     Edge 14, Type (0, 1), BuildingBlock: EZIPEK_clean_linker_0, # of connection points: 2
#     Edge 15, Type (0, 1), BuildingBlock: EZIPEK_clean_linker_0, # of connection points: 2
#     Edge 16, Type (0, 1), BuildingBlock: EZIPEK_clean_linker_0, # of connection points: 2
#     Edge 17, Type (0, 1), BuildingBlock: EZIPEK_clean_linker_0, # of connection points: 2
#     Edge 18, Type (0, 1), BuildingBlock: EZIPEK_clean_linker_0, # of connection points: 2
#     Edge 19, Type (0, 1), BuildingBlock: EZIPEK_clean_linker_0, # of connection points: 2
#     Edge 20, Type (0, 1), BuildingBlock: EZIPEK_clean_linker_0, # of connection points: 2
#     Edge 21, Type (0, 1), BuildingBlock: EZIPEK_clean_linker_0, # of connection points: 2
#     Edge 22, Type (0, 1), BuildingBlock: EZIPEK_clean_linker_0, # of connection points: 2
#     Edge 23, Type (0, 1), BuildingBlock: EZIPEK_clean_linker_0, # of connection points: 2
#     Edge 24, Type (0, 1), BuildingBlock: EZIPEK_clean_linker_0, # of connection points: 2
#     Edge 25, Type (0, 1), BuildingBlock: EZIPEK_clean_linker_0, # of connection points: 2
#     Edge 26, Type (0, 1), BuildingBlock: EZIPEK_clean_linker_0, # of connection points: 2
#     Edge 27, Type (0, 1), BuildingBlock: EZIPEK_clean_linker_0, # of connection points: 2
#     Edge 28, Type (0, 1), BuildingBlock: EZIPEK_clean_linker_0, # of connection points: 2
#     Edge 29, Type (0, 1), BuildingBlock: EZIPEK_clean_linker_0, # of connection points: 2
#     Edge 30, Type (0, 1), BuildingBlock: EZIPEK_clean_linker_0, # of connection points: 2
#     Edge 31, Type (0, 1), BuildingBlock: EZIPEK_clean_linker_0, # of connection points: 2
#     Edge 32, Type (0, 1), BuildingBlock: EZIPEK_clean_linker_0, # of connection points: 2
#     Edge 33, Type (0, 1), BuildingBlock: EZIPEK_clean_linker_0, # of connection points: 2
#     Edge 34, Type (0, 1), BuildingBlock: EZIPEK_clean_linker_0, # of connection points: 2
#     Edge 35, Type (0, 1), BuildingBlock: EZIPEK_clean_linker_0, # of connection points: 2
# Relax obj value: 0.163
# Max RMSD: 0.176
# Mean RMSD: 0.120
data_MOF--net-pry--node1-OLANEW_clean_sbu_2--node2-JUFBIX_clean_sbu_0--edge1-EZIPEK_clean_linker_0
_symmetry_space_group_name_H-M    P1
_symmetry_Int_Tables_number       1
_symmetry_cell_setting            triclinic
loop_
_symmetry_equiv_pos_as_xyz
'x, y, z'
_cell_length_a     30.910603
_cell_length_b     28.575053
_cell_length_c     30.037592
_cell_angle_alpha  89.938535
_cell_angle_beta   90.210226
_cell_angle_gamma 97.467186
loop_
_atom_site_label
_atom_site_type_symbol
_atom_site_fract_x
_atom_site_fract_y
_atom_site_fract_z
_atom_type_partial_charge
O0 O 0.24992 0.16032 0.14781 0.0
Cd1 Cd 0.18371 0.20375 0.16488 0.0
O2 O 0.25402 0.11364 0.20723 0.0
Cd3 Cd 0.19907 0.11662 0.25621 0.0
O4 O 0.15492 0.10455 0.31649 0.0
C5 C 0.1466 0.06439 0.33572 0.0
O6 O 0.16346 0.0282 0.31938 0.0
C7 C 0.269 0.12987 0.16964 0.0
C8 C 0.14282 0.273 0.11474 0.0
O9 O 0.17739 0.28483 0.13807 0.0
O10 O 0.12901 0.22874 0.11221 0.0
O11 O 0.43134 0.92314 0.71612 0.0
Cd12 Cd 0.42674 0.89635 0.63903 0.0
O13 O 0.45649 0.99678 0.69939 0.0
Cd14 Cd 0.43503 0.98481 0.63072 0.0
O15 O 0.36807 0.98018 0.60636 0.0
C16 C 0.34673 0.01025 0.6243 0.0
O17 O 0.36711 0.04256 0.65066 0.0
C18 C 0.44632 0.96472 0.72829 0.0
C19 C 0.45526 0.80847 0.62919 0.0
O20 O 0.48218 0.84641 0.62614 0.0
O21 O 0.4151 0.81194 0.63715 0.0
O22 O 0.75976 0.47326 0.91496 0.0
Cd23 Cd 0.68225 0.46897 0.89195 0.0
O24 O 0.73543 0.40362 0.9406 0.0
Cd25 Cd 0.7246 0.3362 0.97557 0.0
O26 O 0.68098 0.2713 0.99066 0.0
C27 C 0.64185 0.27306 0.00306 0.0
O28 O 0.62808 0.31433 0.00808 0.0
C29 C 0.76673 0.43702 0.93721 0.0
C30 C 0.65411 0.49462 0.80774 0.0
O31 O 0.66137 0.52532 0.83891 0.0
O32 O 0.66263 0.45259 0.81535 0.0
O33 O 0.9626 0.72912 0.46245 0.0
Cd34 Cd 0.91931 0.66155 0.42674 0.0
O35 O 1.00419 0.68964 0.50455 0.0
Cd36 Cd 0.9675 0.62288 0.48388 0.0
O37 O 0.89927 0.59308 0.49027 0.0
C38 C 0.87716 0.62278 0.50766 0.0
O39 O 0.89737 0.66367 0.521 0.0
C40 C 0.99254 0.72853 0.49159 0.0
C41 C 0.93668 0.63658 0.33995 0.0
O42 O 0.95585 0.61968 0.37306 0.0
O43 O 0.91028 0.66672 0.34744 0.0
O44 O 0.88967 0.86954 0.83376 0.0
Cd45 Cd 0.8736 0.82594 0.90638 0.0
O46 O 0.84719 0.92719 0.83112 0.0
Cd47 Cd 0.79611 0.91979 0.88623 0.0
O48 O 0.73217 0.92431 0.92325 0.0
C49 C 0.72666 0.95373 0.95426 0.0
O50 O 0.76018 0.98341 0.96766 0.0
C51 C 0.87784 0.9061 0.81467 0.0
C52 C 0.91518 0.74596 0.93341 0.0
O53 O 0.93541 0.78806 0.93507 0.0
O54 O 0.87642 0.74119 0.91718 0.0
O55 O 0.57697 0.09078 0.44571 0.0
Cd56 Cd 0.61244 0.11695 0.51552 0.0
O57 O 0.60794 0.1531 0.40886 0.0
Cd58 Cd 0.62607 0.19825 0.46619 0.0
O59 O 0.62341 0.26742 0.49631 0.0
C60 C 0.60124 0.29447 0.47481 0.0
O61 O 0.5827 0.27971 0.43705 0.0
C62 C 0.58586 0.11234 0.40922 0.0
C63 C 0.69121 0.07915 0.5183 0.0
O64 O 0.65597 0.05554 0.53273 0.0
O65 O 0.68957 0.12112 0.50386 0.0
O66 O 0.42116 0.74768 0.21777 0.0
Cd67 Cd 0.39125 0.67175 0.25279 0.0
O68 O 0.37362 0.72406 0.16595 0.0
Cd69 Cd 0.33595 0.72229 0.10409 0.0
O70 O 0.28484 0.68068 0.06481 0.0
C71 C 0.24792 0.67164 0.08358 0.0
O72 O 0.24235 0.68915 0.12326 0.0
C73 C 0.40301 0.75545 0.18085 0.0
C74 C 0.43161 0.63904 0.32826 0.0
O75 O 0.44191 0.62641 0.28918 0.0
O76 O 0.40365 0.66827 0.33174 0.0
O77 O 0.0974 0.39308 0.67884 0.0
Cd78 Cd 0.11244 0.38473 0.5998 0.0
O79 O 0.1024 0.31941 0.69743 0.0
Cd80 Cd 0.08403 0.30214 0.62885 0.0
O81 O 0.02637 0.31976 0.59358 0.0
C82 C 0.99513 0.28969 0.58023 0.0
O83 O 0.96043 0.30459 0.5626 0.0
C84 C 0.09946 0.36176 0.7086 0.0
C85 C 0.20021 0.41874 0.58944 0.0
O86 O 0.17106 0.44657 0.58584 0.0
O87 O 0.18793 0.37471 0.59594 0.0
Co88 Co 0.97524 0.99586 0.55643 0.0
C89 C 0.01431 0.91476 0.56006 0.0
Co90 Co 0.03839 0.0055 0.5916 0.0
C91 C 0.88725 0.01176 0.5386 0.0
C92 C 0.90699 0.96011 0.49409 0.0
N93 N 0.92132 0.98871 0.52828 0.0
N94 N 0.85239 0.99881 0.51233 0.0
C95 C 0.86439 0.96611 0.48434 0.0
H96 H 0.88776 0.0376 0.56498 0.0
H97 H 0.92627 0.93657 0.47726 0.0
C98 C 1.00063 0.08786 0.58497 0.0
N99 N 0.09181 0.01346 0.61996 0.0
C100 C 0.12948 1.00012 0.60507 0.0
C101 C 0.10257 0.03741 0.65796 0.0
N102 N 0.16325 0.01534 0.632 0.0
C103 C 0.14671 0.03871 0.66541 0.0
C104 C 0.04575 0.02191 0.49929 0.0
O105 O 0.97007 0.06054 0.56676 0.0
O106 O 0.03402 0.07103 0.59946 0.0
O107 O 0.06705 0.01993 0.53543 0.0
O108 O 1.00421 0.01321 0.50055 0.0
O109 O 0.04316 0.94014 0.58275 0.0
H110 H 0.08001 0.05405 0.67816 0.0
H111 H 0.13243 0.98103 0.57434 0.0
O112 O 0.98126 0.93214 0.54557 0.0
O113 O 0.94677 0.97752 0.61256 0.0
O114 O 0.00899 0.99074 0.64794 0.0
C115 C 0.96796 0.97754 0.64909 0.0
H116 H 0.844 0.94844 0.45844 0.0
H117 H 0.16543 0.05622 0.69255 0.0
Co118 Co 0.47824 0.0137 0.04197 0.0
C119 C 0.46153 0.93686 0.10017 0.0
Co120 Co 0.51102 0.02481 0.10684 0.0
C121 C 0.46613 0.00801 0.94717 0.0
C122 C 0.40687 0.98627 0.98262 0.0
N123 N 0.44921 0.00374 0.98851 0.0
N124 N 0.43616 0.99317 0.91595 0.0
C125 C 0.39874 0.97969 0.93784 0.0
H126 H 0.50001 0.02014 0.94006 0.0
H127 H 0.38378 0.9775 0.00926 0.0
C128 C 0.52984 0.10045 0.04882 0.0
N129 N 0.54126 0.03498 0.16006 0.0
C130 C 0.52628 0.03636 0.20219 0.0
C131 C 0.58486 0.04722 0.16357 0.0
N132 N 0.55893 0.04953 0.23132 0.0
C133 C 0.59576 0.0561 0.2073 0.0
C134 C 0.56204 0.98618 0.04056 0.0
O135 O 0.50493 0.07481 0.02215 0.0
O136 O 0.53479 0.08587 0.08818 0.0
O137 O 0.56145 1.0001 0.08081 0.0
O138 O 0.52735 0.9865 0.01768 0.0
O139 O 0.48738 0.96289 0.12564 0.0
H140 H 0.60732 0.05119 0.13595 0.0
H141 H 0.49214 0.02979 0.21117 0.0
O142 O 0.45275 0.95219 0.06185 0.0
O143 O 0.42895 0.04165 0.06624 0.0
O144 O 0.46049 0.05047 0.13166 0.0
C145 C 0.42785 0.05511 0.10663 0.0
H146 H 0.36819 0.96508 0.92253 0.0
H147 H 0.62797 0.06809 0.22041 0.0
Co148 Co 0.57033 0.5718 0.55464 0.0
C149 C 0.50619 0.57036 0.48969 0.0
Co150 Co 0.5073 0.53289 0.57533 0.0
C151 C 0.66214 0.58994 0.54096 0.0
C152 C 0.62982 0.64672 0.51626 0.0
N153 N 0.62258 0.60458 0.53715 0.0
N154 N 0.69361 0.62116 0.52322 0.0
C155 C 0.67377 0.65701 0.50755 0.0
H156 H 0.66779 0.55677 0.55593 0.0
H157 H 0.60472 0.66814 0.50737 0.0
C158 C 0.57278 0.53649 0.64014 0.0
N159 N 0.45515 0.49854 0.59276 0.0
C160 C 0.41384 0.5044 0.58146 0.0
C161 C 0.45117 0.45924 0.61824 0.0
N162 N 0.38462 0.47028 0.59901 0.0
C163 C 0.40778 0.44186 0.62221 0.0
C164 C 0.5625 0.47645 0.5354 0.0
O165 O 0.59491 0.5611 0.61099 0.0
O166 O 0.53326 0.52039 0.63173 0.0
O167 O 0.52488 0.47695 0.5519 0.0
O168 O 0.58848 0.51463 0.53307 0.0
O169 O 0.48245 0.5466 0.51854 0.0
H170 H 0.47819 0.4435 0.63219 0.0
H171 H 0.40533 0.53247 0.56023 0.0
O172 O 0.54619 0.58309 0.49826 0.0
O173 O 0.55126 0.62846 0.57629 0.0
O174 O 0.48947 0.58876 0.59875 0.0
C175 C 0.51387 0.62778 0.59408 0.0
H176 H 0.68988 0.68793 0.49068 0.0
H177 H 0.39421 0.41031 0.63987 0.0
Co178 Co 0.02765 0.49585 0.98637 0.0
C179 C 0.9412 0.46244 0.01146 0.0
Co180 Co 0.01161 0.50889 0.05644 0.0
C181 C 0.06496 0.458 0.90783 0.0
C182 C 0.01295 0.49827 0.8926 0.0
N183 N 0.0371 0.48481 0.92674 0.0
N184 N 0.05868 0.45428 0.8635 0.0
C185 C 0.02614 0.47948 0.85373 0.0
H186 H 0.0878 0.43965 0.92621 0.0
H187 H 0.98596 0.5185 0.89589 0.0
C188 C 0.09573 0.54684 0.03018 0.0
N189 N 1.00312 0.52008 0.11662 0.0
C190 C 0.97578 0.54622 0.13744 0.0
C191 C 0.02882 0.50646 0.14945 0.0
N192 N 0.98369 0.54894 0.18169 0.0
C193 C 0.01681 0.52393 0.18936 0.0
C194 C 0.05028 0.42476 0.04295 0.0
O195 O 0.08542 0.52792 0.99267 0.0
O196 O 0.06847 0.54217 0.06185 0.0
O197 O 0.03433 0.4503 0.07173 0.0
O198 O 0.04868 0.43673 1.0022 0.0
O199 O 0.95374 0.47627 0.0503 0.0
H200 H 0.05599 0.48672 0.14461 0.0
H201 H 0.95168 0.56416 0.12053 0.0
O202 O 0.969 0.46516 0.98009 0.0
O203 O 0.00728 0.5547 0.97116 0.0
O204 O 0.98954 0.5673 0.04017 0.0
C205 C 0.9908 0.58022 0.99949 0.0
H206 H 0.01164 0.4821 0.8211 0.0
H207 H 0.03211 0.52007 0.22141 0.0
C208 C 0.08164 0.02151 0.37651 0.0
C209 C 0.11813 0.05739 0.37642 0.0
C210 C 0.10225 0.07507 0.45466 0.0
C211 C 0.06948 0.03506 0.45639 0.0
N212 N 0.03376 0.96511 0.41984 0.0
N213 N 0.16735 0.11347 0.41829 0.0
C214 C 0.06053 0.00705 0.41745 0.0
C215 C 0.12942 0.08306 0.41623 0.0
N216 N 0.06622 1.00196 0.33711 0.0
N217 N 0.10664 0.10658 0.48911 0.0
H218 H 0.18835 0.1202 0.39131 0.0
H219 H 0.17995 0.12877 0.44785 0.0
H220 H 0.08719 0.10294 0.51747 0.0
H221 H 0.12655 0.13888 0.48761 0.0
H222 H 0.0371 0.97926 0.33441 0.0
H223 H 0.08009 0.01228 0.30644 0.0
H224 H 0.03008 0.94078 0.39387 0.0
H225 H 0.01859 0.95218 0.44908 0.0
C226 C 0.4727 0.9507 0.80546 0.0
C227 C 0.44819 0.97629 0.7763 0.0
C228 C 0.42348 0.01945 0.83978 0.0
C229 C 0.44295 0.98947 0.86892 0.0
N230 N 0.48186 0.92288 0.88077 0.0
N231 N 0.39458 0.03011 0.76619 0.0
C232 C 0.46677 0.95427 0.85214 0.0
C233 C 0.42236 0.00981 0.79347 0.0
N234 N 0.50219 0.9238 0.78849 0.0
N235 N 0.40638 0.05741 0.85665 0.0
H236 H 0.39145 0.02293 0.73229 0.0
H237 H 0.37164 0.05076 0.77787 0.0
H238 H 0.40696 0.06509 0.89063 0.0
H239 H 0.39547 0.08345 0.83682 0.0
H240 H 0.52398 0.90791 0.80815 0.0
H241 H 0.5077 0.92098 0.7544 0.0
H242 H 0.4955 0.89333 0.8703 0.0
H243 H 0.47747 0.92422 0.91512 0.0
C244 C 0.59267 0.52361 0.76474 0.0
C245 C 0.6339 0.50658 0.76484 0.0
C246 C 0.63258 0.50445 0.68314 0.0
C247 C 0.59355 0.52591 0.68309 0.0
N248 N 0.5414 0.56484 0.72394 0.0
N249 N 0.69699 0.48923 0.72414 0.0
C250 C 0.57494 0.53799 0.72393 0.0
C251 C 0.65496 0.49934 0.724 0.0
N252 N 0.56932 0.52402 0.80328 0.0
N253 N 0.64739 0.48709 0.64446 0.0
H254 H 0.7147 0.48595 0.75335 0.0
H255 H 0.71566 0.48862 0.6954 0.0
H256 H 0.63171 0.48918 0.6139 0.0
H257 H 0.67285 0.46655 0.64334 0.0
H258 H 0.53713 0.53115 0.8042 0.0
H259 H 0.58038 0.51273 0.83379 0.0
H260 H 0.52981 0.57906 0.75278 0.0
H261 H 0.52792 0.57683 0.69487 0.0
C262 C 0.92047 0.57328 0.28265 0.0
C263 C 0.94235 0.61838 0.29455 0.0
C264 C 0.98459 0.62177 0.22553 0.0
C265 C 0.96438 0.57582 0.21484 0.0
N266 N 0.90835 0.51111 0.2268 0.0
N267 N 0.9879 0.69002 0.27433 0.0
C268 C 0.93044 0.55282 0.24137 0.0
C269 C 0.9719 0.64426 0.26477 0.0
N270 N 0.89118 0.54967 0.31151 0.0
N271 N 0.01747 0.64256 0.19906 0.0
H272 H 0.97977 0.70695 0.30329 0.0
H273 H 0.00676 0.71232 0.25247 0.0
H274 H 0.02617 0.62721 0.16945 0.0
H275 H 0.03721 0.67377 0.20695 0.0
H276 H 0.87713 0.51487 0.3073 0.0
H277 H 0.88162 0.56465 0.34097 0.0
H278 H 0.88113 0.49324 0.24247 0.0
H279 H 0.9158 0.49577 0.19672 0.0
C280 C 0.31272 0.06209 0.15244 0.0
C281 C 0.30959 0.11149 0.15139 0.0
C282 C 0.38399 0.12402 0.11879 0.0
C283 C 0.38827 0.07534 0.12417 0.0
N284 N 0.36 1.00066 0.1565 0.0
N285 N 0.34711 0.19033 0.14114 0.0
C286 C 0.35361 0.04525 0.14417 0.0
C287 C 0.3465 0.14272 0.1363 0.0
N288 N 0.27605 0.0307 0.15914 0.0
N289 N 0.41593 0.15263 0.09701 0.0
H290 H 0.3215 0.20552 0.15519 0.0
H291 H 0.37463 0.21462 0.13522 0.0
H292 H 0.44479 0.14094 0.08646 0.0
H293 H 0.41263 0.18692 0.08706 0.0
H294 H 0.27554 0.99431 0.15602 0.0
H295 H 0.24511 0.04103 0.16263 0.0
H296 H 0.33748 0.97846 0.17507 0.0
H297 H 0.38981 0.98785 0.15227 0.0
C298 C 0.2719 0.97063 0.64291 0.0
C299 C 0.29876 0.00682 0.61975 0.0
C300 C 0.2344 0.04389 0.59857 0.0
C301 C 0.20839 0.01047 0.6252 0.0
N302 N 0.19997 0.94251 0.67263 0.0
N303 N 0.30705 0.07754 0.57518 0.0
C304 C 0.22646 0.97359 0.64694 0.0
C305 C 0.28032 0.04318 0.5971 0.0
N306 N 0.29002 0.93395 0.66149 0.0
N307 N 0.21477 0.07614 0.57479 0.0
H308 H 0.34044 0.07641 0.57132 0.0
H309 H 0.29683 0.10788 0.56187 0.0
H310 H 0.18138 0.07822 0.57663 0.0
H311 H 0.23064 0.09916 0.55149 0.0
H312 H 0.27211 0.90429 0.67551 0.0
H313 H 0.32338 0.93165 0.66104 0.0
H314 H 0.21091 0.91722 0.69323 0.0
H315 H 0.16637 0.94328 0.67468 0.0
C316 C 0.8196 0.47249 0.99492 0.0
C317 C 0.80852 0.43711 0.96237 0.0
C318 C 0.87999 0.4096 0.9739 0.0
C319 C 0.89375 0.45017 1.00029 0.0
N320 N 0.87683 0.52442 0.03072 0.0
N321 N 0.82845 0.37228 0.91923 0.0
C322 C 0.86347 0.4824 0.01004 0.0
C323 C 0.83859 0.40527 0.95179 0.0
N324 N 0.78787 0.49638 0.01201 0.0
N325 N 0.9063 0.37486 0.97065 0.0
H326 H 0.7983 0.36767 0.90302 0.0
H327 H 0.85078 0.35164 0.90628 0.0
H328 H 0.93619 0.37663 0.98728 0.0
H329 H 0.89679 0.34252 0.95525 0.0
H330 H 0.793 0.519 0.03925 0.0
H331 H 0.75525 0.48969 1.00214 0.0
H332 H 0.85743 0.55155 0.03282 0.0
H333 H 0.90829 0.53449 0.04237 0.0
C334 C 0.80198 0.60497 0.47417 0.0
C335 C 0.82924 0.61325 0.51236 0.0
C336 C 0.76606 0.62486 0.55802 0.0
C337 C 0.73903 0.61617 0.52015 0.0
N338 N 0.7281 0.58753 0.44542 0.0
N339 N 0.83626 0.6189 0.5922 0.0
C340 C 0.75609 0.60282 0.4792 0.0
C341 C 0.81089 0.61939 0.55487 0.0
N342 N 0.8198 0.60191 0.43285 0.0
N343 N 0.74899 0.64008 0.59646 0.0
H344 H 0.86902 0.61362 0.59097 0.0
H345 H 0.82401 0.61904 0.62443 0.0
H346 H 0.71607 0.64412 0.59959 0.0
H347 H 0.76781 0.65194 0.62401 0.0
H348 H 0.80186 0.60187 0.40345 0.0
H349 H 0.85306 0.60229 0.4274 0.0
H350 H 0.73791 0.57262 0.41612 0.0
H351 H 0.69433 0.58605 0.44841 0.0
C352 C 0.07477 0.31436 0.10733 0.0
C353 C 0.1181 0.30977 0.09358 0.0
C354 C 0.11713 0.38026 0.04573 0.0
C355 C 0.07284 0.38322 0.05758 0.0
N356 N 0.00696 0.34608 0.09204 0.0
N357 N 0.17711 0.33294 0.04292 0.0
C358 C 0.051 0.34818 0.0862 0.0
C359 C 0.13822 0.3412 0.06079 0.0
N360 N 0.05682 0.28794 0.1422 0.0
N361 N 0.14011 0.41594 0.02194 0.0
H362 H 0.19336 0.30492 0.053 0.0
H363 H 0.19123 0.35103 0.01539 0.0
H364 H 0.12663 0.44512 0.01014 0.0
H365 H 0.17369 0.41883 0.01714 0.0
H366 H 0.02761 0.29348 0.15723 0.0
H367 H 0.0729 0.26317 0.15884 0.0
H368 H 0.98821 0.31856 0.10859 0.0
H369 H 0.98834 0.36929 0.07637 0.0
C370 C 0.62811 0.1942 0.04081 0.0
C371 C 0.61256 0.22888 0.01352 0.0
C372 C 0.54072 0.1803 0.00991 0.0
C373 C 0.55801 0.14376 0.03344 0.0
N374 N 0.62294 0.11126 0.05686 0.0
N375 N 0.55664 0.24983 0.96354 0.0
C376 C 0.60312 0.14932 0.04466 0.0
C377 C 0.56951 0.22059 0.99562 0.0
N378 N 0.66585 0.20441 0.06473 0.0
N379 N 0.49686 0.17754 1.00236 0.0
H380 H 0.57717 0.27853 0.95084 0.0
H381 H 0.52723 0.24275 0.94628 0.0
H382 H 0.47472 0.1487 0.01195 0.0
H383 H 0.4821 0.2056 0.98984 0.0
H384 H 0.67608 0.1813 0.08827 0.0
H385 H 0.68418 0.23772 0.06507 0.0
H386 H 0.65655 0.11304 0.06157 0.0
H387 H 0.60683 0.07699 0.05643 0.0
C388 C 0.03512 0.80937 0.49206 0.0
C389 C 0.00848 0.77303 0.51494 0.0
C390 C 0.99367 0.82865 0.57333 0.0
C391 C 0.01878 0.86526 0.54945 0.0
N392 N 0.07214 0.88981 0.49313 0.0
N393 N 0.97105 0.74472 0.58217 0.0
C394 C 0.04263 0.85527 0.51117 0.0
C395 C 0.99092 0.78154 0.55742 0.0
N396 N 0.05187 0.8002 0.45141 0.0
N397 N 0.97083 0.83943 0.61004 0.0
H398 H 0.96721 0.70985 0.57126 0.0
H399 H 0.9614 0.74795 0.61506 0.0
H400 H 0.97381 0.87327 0.62365 0.0
H401 H 0.94744 0.81569 0.62584 0.0
H402 H 0.0672 0.82612 0.43036 0.0
H403 H 0.04882 0.76631 0.43785 0.0
H404 H 0.09316 0.88414 0.46729 0.0
H405 H 0.0781 0.92372 0.50651 0.0
C406 C 0.45101 0.73327 0.58588 0.0
C407 C 0.46973 0.76171 0.62141 0.0
C408 C 0.51833 0.70259 0.63885 0.0
C409 C 0.49732 0.67273 0.60533 0.0
N410 N 0.43843 0.65615 0.55188 0.0
N411 N 0.51589 0.77078 0.68651 0.0
C412 C 0.46184 0.68684 0.58063 0.0
C413 C 0.5021 0.74574 0.64918 0.0
N414 N 0.4249 0.75165 0.55532 0.0
N415 N 0.55372 0.68965 0.66087 0.0
H416 H 0.50432 0.80216 0.69542 0.0
H417 H 0.53595 0.75867 0.71068 0.0
H418 H 0.56464 0.65692 0.65656 0.0
H419 H 0.57373 0.71224 0.68168 0.0
H420 H 0.41466 0.73471 0.52571 0.0
H421 H 0.41688 0.78593 0.55714 0.0
H422 H 0.40896 0.66247 0.53764 0.0
H423 H 0.44655 0.6229 0.54425 0.0
C424 C 0.87779 0.94384 0.73677 0.0
C425 C 0.90099 0.92522 0.77242 0.0
C426 C 0.96659 0.93505 0.72471 0.0
C427 C 0.94522 0.96043 0.69213 0.0
N428 N 0.88209 0.99966 0.67577 0.0
N429 N 0.97231 0.91761 0.8031 0.0
C430 C 0.90127 0.96797 0.70066 0.0
C431 C 0.94681 0.92509 0.76723 0.0
N432 N 0.83326 0.9368 0.73579 0.0
N433 N 1.00468 0.9179 0.7149 0.0
H434 H 0.96032 0.91409 0.83547 0.0
H435 H 0.00627 0.92113 0.80137 0.0
H436 H 0.01877 0.92014 0.68343 0.0
H437 H 0.01912 0.89591 0.73656 0.0
H438 H 0.81524 0.94621 0.70854 0.0
H439 H 0.81458 0.91643 0.75929 0.0
H440 H 0.85135 0.00887 0.68306 0.0
H441 H 0.89884 0.02118 0.65175 0.0
C442 C 0.54547 0.11529 0.33744 0.0
C443 C 0.57084 0.09042 0.36634 0.0
C444 C 0.57465 0.03054 0.30875 0.0
C445 C 0.55622 0.05971 0.27794 0.0
N446 N 0.52701 0.13178 0.26109 0.0
N447 N 0.61264 0.02566 0.37889 0.0
C448 C 0.54174 0.10232 0.29186 0.0
C449 C 0.58565 0.04781 0.35221 0.0
N450 N 0.52463 0.15096 0.35376 0.0
N451 N 0.58197 0.98646 0.29585 0.0
H452 H 0.62216 0.03742 0.4107 0.0
H453 H 0.62833 0.99757 0.36828 0.0
H454 H 0.57416 0.97356 0.26391 0.0
H455 H 0.59179 0.96147 0.31764 0.0
H456 H 0.50248 0.16756 0.33523 0.0
H457 H 0.5262 0.16075 0.38725 0.0
H458 H 0.52076 0.16587 0.26843 0.0
H459 H 0.52405 0.12346 0.22735 0.0
C460 C 0.47752 0.65266 0.39709 0.0
C461 C 0.45172 0.62075 0.36865 0.0
C462 C 0.46504 0.55472 0.41732 0.0
C463 C 0.48699 0.58731 0.44807 0.0
N464 N 0.50729 0.66849 0.47077 0.0
N465 N 0.41528 0.54225 0.35453 0.0
C466 C 0.49147 0.63662 0.43888 0.0
C467 C 0.444 0.57192 0.37945 0.0
N468 N 0.49007 0.69808 0.38351 0.0
N469 N 0.46574 0.50739 0.42329 0.0
H470 H 0.39925 0.55342 0.32663 0.0
H471 H 0.40457 0.50749 0.36359 0.0
H472 H 0.48125 0.49353 0.45025 0.0
H473 H 0.45441 0.48213 0.39958 0.0
H474 H 0.51299 0.72148 0.40052 0.0
H475 H 0.48084 0.71115 0.35295 0.0
H476 H 0.50623 0.70466 0.4679 0.0
H477 H 0.51757 0.65879 0.50205 0.0
C478 C 0.05983 0.35719 0.78176 0.0
C479 C 0.09655 0.37558 0.75583 0.0
C480 C 0.11457 0.4401 0.809 0.0
C481 C 0.07661 0.42335 0.83312 0.0
N482 N 0.02016 0.36068 0.85114 0.0
N483 N 0.16551 0.42523 0.75092 0.0
C484 C 0.05189 0.3797 0.82249 0.0
C485 C 0.12629 0.41398 0.77173 0.0
N486 N 0.03073 0.32085 0.76595 0.0
N487 N 0.13784 0.48226 0.82056 0.0
H488 H 0.17492 0.40579 0.72403 0.0
H489 H 0.19007 0.45071 0.76253 0.0
H490 H 0.13019 0.50111 0.84857 0.0
H491 H 0.16321 0.49946 0.8016 0.0
H492 H 1.00063 0.30996 0.78059 0.0
H493 H 0.0354 0.30287 0.73663 0.0
H494 H 1.0033 0.32689 0.84772 0.0
H495 H 0.01347 0.37739 0.88074 0.0
C496 C 0.65128 0.97951 0.95176 0.0
C497 C 0.6826 0.95648 0.97485 0.0
C498 C 0.63374 0.94871 0.04048 0.0
C499 C 0.60412 0.97576 0.01865 0.0
N500 N 0.59416 0.02931 0.95808 0.0
N501 N 0.70609 0.92373 0.04326 0.0
C502 C 0.61524 0.99415 0.97532 0.0
C503 C 0.67445 0.94244 0.01982 0.0
N504 N 0.65629 0.98848 0.90727 0.0
N505 N 0.62286 0.92776 0.08049 0.0
H506 H 0.73485 0.91579 0.02869 0.0
H507 H 0.70511 0.91866 0.0776 0.0
H508 H 0.59507 0.9329 0.09816 0.0
H509 H 0.64 0.90263 0.09504 0.0
H510 H 0.63205 1.00038 0.88766 0.0
H511 H 0.68291 0.97999 0.88916 0.0
H512 H 0.60355 0.04712 0.92869 0.0
H513 H 0.57133 0.0454 0.97588 0.0
C514 C 0.75617 0.05814 0.47626 0.0
C515 C 0.73253 0.05783 0.51679 0.0
C516 C 0.78532 0.01233 0.55218 0.0
C517 C 0.81141 0.01773 0.5134 0.0
N518 N 0.82639 0.05443 0.44201 0.0
N519 N 0.72917 0.04208 0.59586 0.0
C520 C 0.79815 0.04305 0.47635 0.0
C521 C 0.74826 0.03684 0.55552 0.0
N522 N 0.73787 0.07075 0.43727 0.0
N523 N 0.79536 0.98269 0.58525 0.0
H524 H 0.70293 0.06116 0.60007 0.0
H525 H 0.74204 0.03154 0.62579 0.0
H526 H 0.8217 0.96339 0.58314 0.0
H527 H 0.77531 0.97379 0.61258 0.0
H528 H 0.75209 0.06707 0.40628 0.0
H529 H 0.70642 0.08009 0.43521 0.0
H530 H 0.82006 0.07693 0.41615 0.0
H531 H 0.85798 0.04533 0.44175 0.0
C532 C 0.20279 0.59238 0.08651 0.0
C533 C 0.21344 0.63636 0.06449 0.0
C534 C 0.14964 0.61894 0.0156 0.0
C535 C 0.13878 0.57508 0.03784 0.0
N536 N 0.15835 0.5158 0.08847 0.0
N537 N 0.20318 0.68762 0.00269 0.0
C538 C 0.16649 0.56052 0.07148 0.0
C539 C 0.189 0.64818 0.02702 0.0
N540 N 0.22704 0.58153 0.12237 0.0
N541 N 0.12089 0.63418 0.98585 0.0
H542 H 0.23088 0.71078 0.01114 0.0
H543 H 0.18957 0.69554 0.97228 0.0
H544 H 0.09177 0.61399 0.97647 0.0
H545 H 0.12418 0.66817 0.97272 0.0
H546 H 0.21793 0.55326 0.14368 0.0
H547 H 0.25592 0.60204 0.13208 0.0
H548 H 0.17955 0.50087 0.10957 0.0
H549 H 0.13157 0.49191 0.07885 0.0
C550 C 0.27387 0.42321 0.55401 0.0
C551 C 0.24721 0.43718 0.58864 0.0
C552 C 0.31127 0.48172 0.62426 0.0
C553 C 0.33818 0.46317 0.59269 0.0
N554 N 0.34717 0.41518 0.52878 0.0
N555 N 0.24013 0.47642 0.65897 0.0
C556 C 0.31999 0.43387 0.55764 0.0
C557 C 0.26568 0.46614 0.62414 0.0
N558 N 0.25493 0.40077 0.51729 0.0
N559 N 0.32973 0.51418 0.65438 0.0
H560 H 0.20662 0.46568 0.66028 0.0
H561 H 0.25241 0.49279 0.68815 0.0
H562 H 0.36327 0.52514 0.65552 0.0
H563 H 0.31185 0.53287 0.67577 0.0
H564 H 0.27215 0.39339 0.489 0.0
H565 H 0.22119 0.39281 0.51359 0.0
H566 H 0.33664 0.38934 0.50535 0.0
H567 H 0.381 0.42389 0.52994 0.0
C568 C 0.92984 0.66063 0.92665 0.0
C569 C 0.93544 0.70397 0.95054 0.0
C570 C 0.98118 0.66745 0.005 0.0
C571 C 0.97085 0.62283 0.98402 0.0
N572 N 0.92439 0.57563 0.93166 0.0
N573 N 0.95813 0.74376 0.01954 0.0
C574 C 0.94202 0.61905 0.94678 0.0
C575 C 0.9589 0.70611 0.9917 0.0
N576 N 0.91472 0.65921 0.88382 0.0
N577 N 0.0133 0.67369 0.0366 0.0
H578 H 0.9402 0.77142 0.01287 0.0
H579 H 0.97116 0.74479 0.05163 0.0
H580 H 0.03115 0.64689 0.04648 0.0
H581 H 0.02516 0.70668 0.04963 0.0
H582 H 0.91389 0.62934 0.86377 0.0
H583 H 0.90804 0.68914 0.86659 0.0
H584 H 0.90004 0.57105 0.90736 0.0
H585 H 0.93017 0.54427 0.94694 0.0
C586 C 0.38635 0.83231 0.14745 0.0
C587 C 0.41661 0.79977 0.15551 0.0
C588 C 0.47485 0.85467 0.12119 0.0
C589 C 0.44483 0.88762 0.1141 0.0
N590 N 0.36997 0.90223 0.10821 0.0
N591 N 0.4869 0.77502 0.14166 0.0
C592 C 0.39987 0.87461 0.12322 0.0
C593 C 0.46019 0.80961 0.14006 0.0
N594 N 0.34534 0.82413 0.1651 0.0
N595 N 0.51738 0.86643 0.10899 0.0
H596 H 0.47688 0.74135 0.15428 0.0
H597 H 0.51779 0.77802 0.12749 0.0
H598 H 0.52737 0.89592 0.0894 0.0
H599 H 0.54261 0.84766 0.11839 0.0
H600 H 0.32354 0.84901 0.16501 0.0
H601 H 0.33412 0.79382 0.18315 0.0
H602 H 0.33639 0.89229 0.10977 0.0
H603 H 0.3786 0.93332 0.09039 0.0
C604 C 0.99977 0.21497 0.62377 0.0
C605 C 0.99827 0.23837 0.58209 0.0
C606 C 1.00062 0.16358 0.54274 0.0
C607 C 0.99951 0.13961 0.58434 0.0
N608 N 0.99328 0.14049 0.66416 0.0
N609 N 0.99471 0.23556 0.50183 0.0
C610 C 0.9982 0.16484 0.62486 0.0
C611 C 0.99785 0.21277 0.54161 0.0
N612 N 1.00232 0.24068 0.66227 0.0
N613 N 0.00651 0.13972 0.50424 0.0
H614 H 0.99753 0.27218 0.49882 0.0
H615 H 0.98736 0.21827 0.47174 0.0
H616 H 0.00746 0.10356 0.50307 0.0
H617 H 0.01375 0.15592 0.47365 0.0
H618 H 0.00862 0.22696 0.69337 0.0
H619 H 1.00035 0.27681 0.66302 0.0
H620 H 0.98761 0.15576 0.69465 0.0
H621 H 0.99177 0.10385 0.66603 0.0
C622 C 0.57713 0.34663 0.5349 0.0
C623 C 0.59524 0.34184 0.49205 0.0
C624 C 0.59114 0.42556 0.47687 0.0
C625 C 0.57617 0.43105 0.52091 0.0
N626 N 0.56547 0.39942 0.59529 0.0
N627 N 0.6292 0.37902 0.42652 0.0
C628 C 0.57239 0.39236 0.55101 0.0
C629 C 0.6052 0.38204 0.4643 0.0
N630 N 0.56213 0.30752 0.55935 0.0
N631 N 0.58988 0.46086 0.44632 0.0
H632 H 0.64108 0.34806 0.41683 0.0
H633 H 0.6411 0.40829 0.4074 0.0
H634 H 0.5788 0.49289 0.45373 0.0
H635 H 0.59593 0.45669 0.41255 0.0
H636 H 0.54424 0.30902 0.58853 0.0
H637 H 0.56371 0.27316 0.5485 0.0
H638 H 0.56705 0.37338 0.61933 0.0
H639 H 0.56265 0.43249 0.60873 0.0
loop_
_geom_bond_atom_site_label_1
_geom_bond_atom_site_label_2
_geom_bond_distance
_geom_bond_site_symmetry_2
_ccdc_geom_bond_type
O0 Cd1 2.300 . S
O0 C7 1.275 . S
Cd1 O0 2.300 . S
Cd1 O9 2.381 . S
Cd1 O10 2.378 . S
O2 Cd3 2.385 . S
O2 C7 1.255 . S
Cd3 O2 2.385 . S
Cd3 O4 2.317 . S
O4 Cd3 2.317 . S
O4 C5 1.232 . S
C5 O4 1.232 . S
C5 O6 1.218 . S
O6 C5 1.218 . S
C7 O0 1.275 . S
C7 O2 1.255 . S
C8 O9 1.258 . S
C8 O10 1.256 . S
O9 Cd1 2.381 . S
O9 C8 1.258 . S
O10 Cd1 2.378 . S
O10 C8 1.256 . S
O11 Cd12 2.300 . S
O11 C18 1.275 . S
Cd12 O11 2.300 . S
Cd12 O20 2.381 . S
Cd12 O21 2.378 . S
O13 Cd14 2.385 . S
O13 C18 1.255 . S
Cd14 O13 2.385 . S
Cd14 O15 2.317 . S
O15 Cd14 2.317 . S
O15 C16 1.232 . S
C16 O15 1.232 . S
C16 O17 1.218 . S
O17 C16 1.218 . S
C18 O11 1.275 . S
C18 O13 1.255 . S
C19 O20 1.258 . S
C19 O21 1.256 . S
O20 Cd12 2.381 . S
O20 C19 1.258 . S
O21 Cd12 2.378 . S
O21 C19 1.256 . S
O22 Cd23 2.300 . S
O22 C29 1.275 . S
Cd23 O22 2.300 . S
Cd23 O31 2.381 . S
Cd23 O32 2.378 . S
O24 Cd25 2.385 . S
O24 C29 1.255 . S
Cd25 O24 2.385 . S
Cd25 O26 2.317 . S
O26 Cd25 2.317 . S
O26 C27 1.232 . S
C27 O26 1.232 . S
C27 O28 1.218 . S
O28 C27 1.218 . S
C29 O22 1.275 . S
C29 O24 1.255 . S
C30 O31 1.258 . S
C30 O32 1.256 . S
O31 Cd23 2.381 . S
O31 C30 1.258 . S
O32 Cd23 2.378 . S
O32 C30 1.256 . S
O33 Cd34 2.300 . S
O33 C40 1.275 . S
Cd34 O33 2.300 . S
Cd34 O42 2.381 . S
Cd34 O43 2.378 . S
O35 Cd36 2.385 . S
O35 C40 1.255 . S
Cd36 O35 2.385 . S
Cd36 O37 2.317 . S
O37 Cd36 2.317 . S
O37 C38 1.232 . S
C38 O37 1.232 . S
C38 O39 1.218 . S
O39 C38 1.218 . S
C40 O33 1.275 . S
C40 O35 1.255 . S
C41 O42 1.258 . S
C41 O43 1.256 . S
O42 Cd34 2.381 . S
O42 C41 1.258 . S
O43 Cd34 2.378 . S
O43 C41 1.256 . S
O44 Cd45 2.300 . S
O44 C51 1.275 . S
Cd45 O44 2.300 . S
Cd45 O53 2.381 . S
Cd45 O54 2.378 1_556 S
O46 Cd47 2.385 1_565 S
O46 C51 1.255 . S
Cd47 O46 2.385 1_545 S
Cd47 O48 2.317 1_545 S
O48 Cd47 2.317 1_565 S
O48 C49 1.232 . S
C49 O48 1.232 . S
C49 O50 1.218 1_565 S
O50 C49 1.218 1_545 S
C51 O44 1.275 . S
C51 O46 1.255 . S
C52 O53 1.258 . S
C52 O54 1.256 1_556 S
O53 Cd45 2.381 . S
O53 C52 1.258 . S
O54 Cd45 2.378 1_554 S
O54 C52 1.256 1_554 S
O55 Cd56 2.300 . S
O55 C62 1.275 . S
Cd56 O55 2.300 . S
Cd56 O64 2.381 . S
Cd56 O65 2.378 . S
O57 Cd58 2.385 . S
O57 C62 1.255 . S
Cd58 O57 2.385 . S
Cd58 O59 2.317 . S
O59 Cd58 2.317 . S
O59 C60 1.232 . S
C60 O59 1.232 . S
C60 O61 1.218 . S
O61 C60 1.218 . S
C62 O55 1.275 . S
C62 O57 1.255 . S
C63 O64 1.258 . S
C63 O65 1.256 . S
O64 Cd56 2.381 . S
O64 C63 1.258 . S
O65 Cd56 2.378 . S
O65 C63 1.256 . S
O66 Cd67 2.300 . S
O66 C73 1.275 . S
Cd67 O66 2.300 . S
Cd67 O75 2.381 . S
Cd67 O76 2.378 . S
O68 Cd69 2.385 . S
O68 C73 1.255 . S
Cd69 O68 2.385 . S
Cd69 O70 2.317 . S
O70 Cd69 2.317 . S
O70 C71 1.232 . S
C71 O70 1.232 . S
C71 O72 1.218 . S
O72 C71 1.218 . S
C73 O66 1.275 . S
C73 O68 1.255 . S
C74 O75 1.258 . S
C74 O76 1.256 . S
O75 Cd67 2.381 . S
O75 C74 1.258 . S
O76 Cd67 2.378 . S
O76 C74 1.256 . S
O77 Cd78 2.300 . S
O77 C84 1.275 . S
Cd78 O77 2.300 . S
Cd78 O86 2.381 . S
Cd78 O87 2.378 . S
O79 Cd80 2.385 . S
O79 C84 1.255 . S
Cd80 O79 2.385 . S
Cd80 O81 2.317 . S
O81 Cd80 2.317 . S
O81 C82 1.232 . S
C82 O81 1.232 . S
C82 O83 1.218 . S
O83 C82 1.218 . S
C84 O77 1.275 . S
C84 O79 1.255 . S
C85 O86 1.258 . S
C85 O87 1.256 . S
O86 Cd78 2.381 . S
O86 C85 1.258 . S
O87 Cd78 2.378 . S
O87 C85 1.256 . S
Co88 N93 2.057 . S
Co88 O105 2.021 . S
Co88 O108 2.062 . S
Co88 O112 2.117 1_545 S
Co88 O113 2.020 1_545 S
C89 O109 1.259 1_655 S
C89 O112 1.258 . S
Co90 N99 2.057 . S
Co90 O106 2.117 1_565 S
Co90 O107 2.020 1_565 S
Co90 O109 2.021 . S
Co90 O114 2.062 . S
C91 N93 1.316 . S
C91 N94 1.347 . S
C91 H96 0.931 . S
C92 N93 1.375 1_565 S
C92 C95 1.350 . S
C92 H97 0.930 . S
N93 Co88 2.057 . S
N93 C91 1.316 . S
N93 C92 1.375 1_545 S
N94 C91 1.347 . S
N94 C95 1.373 1_545 S
C95 C92 1.350 . S
C95 N94 1.373 1_565 S
C95 H116 0.931 . S
H96 C91 0.931 . S
H97 C92 0.930 . S
C98 O105 1.259 1_455 S
C98 O106 1.258 . S
N99 Co90 2.057 . S
N99 C100 1.316 . S
N99 C101 1.375 1_565 S
C100 N99 1.316 . S
C100 N102 1.347 . S
C100 H111 0.931 . S
C101 N99 1.375 1_545 S
C101 C103 1.350 . S
C101 H110 0.930 . S
N102 C100 1.347 . S
N102 C103 1.373 1_565 S
C103 C101 1.350 . S
C103 N102 1.373 1_545 S
C103 H117 0.931 . S
C104 O107 1.256 . S
C104 O108 1.255 1_455 S
O105 Co88 2.021 . S
O105 C98 1.259 1_655 S
O106 Co90 2.117 1_545 S
O106 C98 1.258 . S
O107 Co90 2.020 1_545 S
O107 C104 1.256 . S
O108 Co88 2.062 . S
O108 C104 1.255 1_655 S
O109 C89 1.259 1_455 S
O109 Co90 2.021 . S
H110 C101 0.930 . S
H111 C100 0.931 . S
O112 Co88 2.117 1_565 S
O112 C89 1.258 . S
O113 Co88 2.020 1_565 S
O113 C115 1.256 . S
O114 Co90 2.062 . S
O114 C115 1.255 1_455 S
C115 O113 1.256 . S
C115 O114 1.255 1_655 S
H116 C95 0.931 . S
H117 C103 0.931 . S
Co118 N123 2.057 1_544 S
Co118 O135 2.021 1_554 S
Co118 O138 2.062 . S
Co118 O142 2.117 1_545 S
Co118 O143 2.020 . S
C119 O139 1.259 . S
C119 O142 1.258 . S
Co120 N129 2.057 . S
Co120 O136 2.117 . S
Co120 O137 2.020 . S
Co120 O139 2.021 1_545 S
Co120 O144 2.062 . S
C121 N123 1.316 . S
C121 N124 1.347 . S
C121 H126 0.931 1_565 S
C122 N123 1.375 . S
C122 C125 1.350 . S
C122 H127 0.930 . S
N123 Co118 2.057 1_566 S
N123 C121 1.316 . S
N123 C122 1.375 . S
N124 C121 1.347 . S
N124 C125 1.373 . S
C125 C122 1.350 . S
C125 N124 1.373 . S
C125 H146 0.931 . S
H126 C121 0.931 1_545 S
H127 C122 0.930 . S
C128 O135 1.259 1_554 S
C128 O136 1.258 . S
N129 Co120 2.057 . S
N129 C130 1.316 . S
N129 C131 1.375 . S
C130 N129 1.316 . S
C130 N132 1.347 . S
C130 H141 0.931 . S
C131 N129 1.375 . S
C131 C133 1.350 . S
C131 H140 0.930 . S
N132 C130 1.347 . S
N132 C133 1.373 . S
C133 C131 1.350 . S
C133 N132 1.373 . S
C133 H147 0.931 . S
C134 O137 1.256 . S
C134 O138 1.255 . S
O135 Co118 2.021 1_556 S
O135 C128 1.259 1_556 S
O136 Co120 2.117 . S
O136 C128 1.258 . S
O137 Co120 2.020 . S
O137 C134 1.256 . S
O138 Co118 2.062 . S
O138 C134 1.255 . S
O139 C119 1.259 . S
O139 Co120 2.021 1_565 S
H140 C131 0.930 . S
H141 C130 0.931 . S
O142 Co118 2.117 1_565 S
O142 C119 1.258 . S
O143 Co118 2.020 . S
O143 C145 1.256 . S
O144 Co120 2.062 . S
O144 C145 1.255 . S
C145 O143 1.256 . S
C145 O144 1.255 . S
H146 C125 0.931 . S
H147 C133 0.931 . S
Co148 N153 2.057 . S
Co148 O165 2.021 . S
Co148 O168 2.062 . S
Co148 O172 2.117 . S
Co148 O173 2.020 . S
C149 O169 1.259 . S
C149 O172 1.258 . S
Co150 N159 2.057 . S
Co150 O166 2.117 . S
Co150 O167 2.020 . S
Co150 O169 2.021 . S
Co150 O174 2.062 . S
C151 N153 1.316 . S
C151 N154 1.347 . S
C151 H156 0.931 . S
C152 N153 1.375 . S
C152 C155 1.350 . S
C152 H157 0.930 . S
N153 Co148 2.057 . S
N153 C151 1.316 . S
N153 C152 1.375 . S
N154 C151 1.347 . S
N154 C155 1.373 . S
C155 C152 1.350 . S
C155 N154 1.373 . S
C155 H176 0.931 . S
H156 C151 0.931 . S
H157 C152 0.930 . S
C158 O165 1.259 . S
C158 O166 1.258 . S
N159 Co150 2.057 . S
N159 C160 1.316 . S
N159 C161 1.375 . S
C160 N159 1.316 . S
C160 N162 1.347 . S
C160 H171 0.931 . S
C161 N159 1.375 . S
C161 C163 1.350 . S
C161 H170 0.930 . S
N162 C160 1.347 . S
N162 C163 1.373 . S
C163 C161 1.350 . S
C163 N162 1.373 . S
C163 H177 0.931 . S
C164 O167 1.256 . S
C164 O168 1.255 . S
O165 Co148 2.021 . S
O165 C158 1.259 . S
O166 Co150 2.117 . S
O166 C158 1.258 . S
O167 Co150 2.020 . S
O167 C164 1.256 . S
O168 Co148 2.062 . S
O168 C164 1.255 . S
O169 C149 1.259 . S
O169 Co150 2.021 . S
H170 C161 0.930 . S
H171 C160 0.931 . S
O172 Co148 2.117 . S
O172 C149 1.258 . S
O173 Co148 2.020 . S
O173 C175 1.256 . S
O174 Co150 2.062 . S
O174 C175 1.255 . S
C175 O173 1.256 . S
C175 O174 1.255 . S
H176 C155 0.931 . S
H177 C163 0.931 . S
Co178 N183 2.057 . S
Co178 O195 2.021 . S
Co178 O198 2.062 1_556 S
Co178 O202 2.117 1_455 S
Co178 O203 2.020 . S
C179 O199 1.259 . S
C179 O202 1.258 1_554 S
Co180 N189 2.058 . S
Co180 O196 2.117 . S
Co180 O197 2.020 . S
Co180 O199 2.021 1_455 S
Co180 O204 2.062 1_455 S
C181 N183 1.316 . S
C181 N184 1.347 . S
C181 H186 0.931 . S
C182 N183 1.375 . S
C182 C185 1.350 . S
C182 H187 0.930 1_455 S
N183 Co178 2.057 . S
N183 C181 1.316 . S
N183 C182 1.375 . S
N184 C181 1.347 . S
N184 C185 1.373 . S
C185 C182 1.350 . S
C185 N184 1.373 . S
C185 H206 0.931 . S
H186 C181 0.931 . S
H187 C182 0.930 1_655 S
C188 O195 1.259 1_554 S
C188 O196 1.258 . S
N189 Co180 2.058 . S
N189 C190 1.309 1_455 S
N189 C191 1.381 . S
C190 N189 1.309 1_655 S
C190 N192 1.347 . S
C190 H201 0.931 . S
C191 N189 1.381 . S
C191 C193 1.350 . S
C191 H200 0.930 . S
N192 C190 1.347 . S
N192 C193 1.373 1_655 S
C193 C191 1.350 . S
C193 N192 1.373 1_455 S
C193 H207 0.931 . S
C194 O197 1.256 . S
C194 O198 1.255 . S
O195 Co178 2.021 . S
O195 C188 1.259 1_556 S
O196 Co180 2.117 . S
O196 C188 1.258 . S
O197 Co180 2.020 . S
O197 C194 1.256 . S
O198 Co178 2.062 1_554 S
O198 C194 1.255 . S
O199 C179 1.259 . S
O199 Co180 2.021 1_655 S
H200 C191 0.930 . S
H201 C190 0.931 . S
O202 Co178 2.117 1_655 S
O202 C179 1.258 1_556 S
O203 Co178 2.020 . S
O203 C205 1.236 1_456 S
O204 Co180 2.062 1_655 S
O204 C205 1.276 . S
C205 O203 1.236 1_654 S
C205 O204 1.276 . S
H206 C185 0.931 . S
H207 C193 0.931 . S
C208 C209 1.363 . S
C208 C214 1.379 . S
C208 N216 1.356 1_545 S
C209 C208 1.363 . S
C209 C215 1.363 . S
C210 C211 1.363 . S
C210 C215 1.379 . S
C210 N217 1.356 . S
C211 C210 1.363 . S
C211 C214 1.363 . S
N212 C214 1.356 1_565 S
N212 H224 0.984 1_455 S
N212 H225 0.985 1_455 S
N213 C215 1.356 . S
N213 H218 0.984 . S
N213 H219 0.985 . S
C214 C208 1.379 . S
C214 C211 1.363 . S
C214 N212 1.356 1_545 S
C215 C209 1.363 . S
C215 C210 1.379 . S
C215 N213 1.356 . S
N216 C208 1.356 1_565 S
N216 H222 0.984 . S
N216 H223 0.986 . S
N217 C210 1.356 . S
N217 H220 0.984 . S
N217 H221 0.985 . S
H218 N213 0.984 . S
H219 N213 0.985 . S
H220 N217 0.984 . S
H221 N217 0.985 . S
H222 N216 0.984 . S
H223 N216 0.986 . S
H224 N212 0.984 1_655 S
H225 N212 0.985 1_655 S
C226 C227 1.363 . S
C226 C232 1.379 . S
C226 N234 1.356 . S
C227 C226 1.363 . S
C227 C233 1.363 . S
C228 C229 1.363 . S
C228 C233 1.379 . S
C228 N235 1.356 . S
C229 C228 1.363 . S
C229 C232 1.363 . S
N230 C232 1.356 1_545 S
N230 H242 0.984 . S
N230 H243 0.985 . S
N231 C233 1.356 . S
N231 H236 0.984 . S
N231 H237 0.985 . S
C232 C226 1.379 . S
C232 C229 1.363 . S
C232 N230 1.356 1_565 S
C233 C227 1.363 . S
C233 C228 1.379 . S
C233 N231 1.356 . S
N234 C226 1.356 . S
N234 H240 0.984 1_565 S
N234 H241 0.984 . S
N235 C228 1.356 . S
N235 H238 0.984 . S
N235 H239 0.985 . S
H236 N231 0.984 . S
H237 N231 0.985 . S
H238 N235 0.984 . S
H239 N235 0.985 . S
H240 N234 0.984 1_545 S
H241 N234 0.984 . S
H242 N230 0.984 . S
H243 N230 0.985 . S
C244 C245 1.363 . S
C244 C250 1.379 . S
C244 N252 1.356 . S
C245 C244 1.363 . S
C245 C251 1.363 . S
C246 C247 1.363 . S
C246 C251 1.379 . S
C246 N253 1.356 . S
C247 C246 1.363 . S
C247 C250 1.363 . S
N248 C250 1.356 . S
N248 H260 0.984 . S
N248 H261 0.985 . S
N249 C251 1.356 . S
N249 H254 0.984 . S
N249 H255 0.985 . S
C250 C244 1.379 . S
C250 C247 1.363 . S
C250 N248 1.356 . S
C251 C245 1.363 . S
C251 C246 1.379 . S
C251 N249 1.356 . S
N252 C244 1.356 . S
N252 H258 0.984 . S
N252 H259 0.984 . S
N253 C246 1.356 . S
N253 H256 0.984 . S
N253 H257 0.985 . S
H254 N249 0.984 . S
H255 N249 0.985 . S
H256 N253 0.984 . S
H257 N253 0.985 . S
H258 N252 0.984 . S
H259 N252 0.984 . S
H260 N248 0.984 . S
H261 N248 0.985 . S
C262 C263 1.363 1_455 S
C262 C268 1.379 1_455 S
C262 N270 1.356 . S
C263 C262 1.363 1_655 S
C263 C269 1.363 . S
C264 C265 1.363 . S
C264 C269 1.379 . S
C264 N271 1.356 . S
C265 C264 1.363 . S
C265 C268 1.363 . S
N266 C268 1.356 . S
N266 H278 0.984 1_655 S
N266 H279 0.985 . S
N267 C269 1.356 . S
N267 H272 0.984 . S
N267 H273 0.985 . S
C268 C262 1.379 1_655 S
C268 C265 1.363 . S
C268 N266 1.356 . S
C269 C263 1.363 . S
C269 C264 1.379 . S
C269 N267 1.356 . S
N270 C262 1.356 . S
N270 H276 0.984 . S
N270 H277 0.984 . S
N271 C264 1.356 . S
N271 H274 0.984 . S
N271 H275 0.985 . S
H272 N267 0.984 . S
H273 N267 0.985 . S
H274 N271 0.984 . S
H275 N271 0.985 . S
H276 N270 0.984 . S
H277 N270 0.984 . S
H278 N266 0.984 1_455 S
H279 N266 0.985 . S
C280 C281 1.363 . S
C280 C286 1.379 . S
C280 N288 1.356 . S
C281 C280 1.363 . S
C281 C287 1.363 . S
C282 C283 1.363 . S
C282 C287 1.379 . S
C282 N289 1.356 . S
C283 C282 1.363 . S
C283 C286 1.363 . S
N284 C286 1.356 . S
N284 H296 0.984 1_545 S
N284 H297 0.985 . S
N285 C287 1.356 . S
N285 H290 0.984 . S
N285 H291 0.985 . S
C286 C280 1.379 . S
C286 C283 1.363 . S
C286 N284 1.356 . S
C287 C281 1.363 . S
C287 C282 1.379 . S
C287 N285 1.356 . S
N288 C280 1.356 . S
N288 H294 0.984 . S
N288 H295 0.984 . S
N289 C282 1.356 . S
N289 H292 0.984 . S
N289 H293 0.985 . S
H290 N285 0.984 . S
H291 N285 0.985 . S
H292 N289 0.984 . S
H293 N289 0.985 . S
H294 N288 0.984 . S
H295 N288 0.984 . S
H296 N284 0.984 1_565 S
H297 N284 0.985 . S
C298 C299 1.363 . S
C298 C304 1.379 . S
C298 N306 1.356 . S
C299 C298 1.363 . S
C299 C305 1.363 . S
C300 C301 1.363 . S
C300 C305 1.379 . S
C300 N307 1.356 . S
C301 C300 1.363 . S
C301 C304 1.363 . S
N302 C304 1.356 . S
N302 H314 0.984 . S
N302 H315 0.985 . S
N303 C305 1.356 . S
N303 H308 0.984 . S
N303 H309 0.985 . S
C304 C298 1.379 . S
C304 C301 1.363 . S
C304 N302 1.356 . S
C305 C299 1.363 . S
C305 C300 1.379 . S
C305 N303 1.356 . S
N306 C298 1.356 . S
N306 H312 0.984 . S
N306 H313 0.984 . S
N307 C300 1.356 . S
N307 H310 0.984 . S
N307 H311 0.985 . S
H308 N303 0.984 . S
H309 N303 0.985 . S
H310 N307 0.984 . S
H311 N307 0.985 . S
H312 N306 0.984 . S
H313 N306 0.984 . S
H314 N302 0.984 . S
H315 N302 0.985 . S
C316 C317 1.363 1_554 S
C316 C322 1.379 . S
C316 N324 1.356 . S
C317 C316 1.363 1_556 S
C317 C323 1.363 . S
C318 C319 1.363 . S
C318 C323 1.379 . S
C318 N325 1.356 . S
C319 C318 1.363 . S
C319 C322 1.363 1_556 S
N320 C322 1.356 . S
N320 H332 0.984 . S
N320 H333 0.985 . S
N321 C323 1.356 . S
N321 H326 0.984 . S
N321 H327 0.985 . S
C322 C316 1.379 . S
C322 C319 1.363 1_554 S
C322 N320 1.356 . S
C323 C317 1.363 . S
C323 C318 1.379 . S
C323 N321 1.356 . S
N324 C316 1.356 . S
N324 H330 0.984 . S
N324 H331 0.984 . S
N325 C318 1.356 . S
N325 H328 0.984 . S
N325 H329 0.985 . S
H326 N321 0.984 . S
H327 N321 0.985 . S
H328 N325 0.984 . S
H329 N325 0.985 . S
H330 N324 0.984 . S
H331 N324 0.984 . S
H332 N320 0.984 . S
H333 N320 0.985 . S
C334 C335 1.363 . S
C334 C340 1.379 . S
C334 N342 1.356 . S
C335 C334 1.363 . S
C335 C341 1.363 . S
C336 C337 1.363 . S
C336 C341 1.379 . S
C336 N343 1.356 . S
C337 C336 1.363 . S
C337 C340 1.363 . S
N338 C340 1.356 . S
N338 H350 0.984 . S
N338 H351 0.985 . S
N339 C341 1.356 . S
N339 H344 0.984 . S
N339 H345 0.985 . S
C340 C334 1.379 . S
C340 C337 1.363 . S
C340 N338 1.356 . S
C341 C335 1.363 . S
C341 C336 1.379 . S
C341 N339 1.356 . S
N342 C334 1.356 . S
N342 H348 0.984 . S
N342 H349 0.984 . S
N343 C336 1.356 . S
N343 H346 0.984 . S
N343 H347 0.985 . S
H344 N339 0.984 . S
H345 N339 0.985 . S
H346 N343 0.984 . S
H347 N343 0.985 . S
H348 N342 0.984 . S
H349 N342 0.984 . S
H350 N338 0.984 . S
H351 N338 0.985 . S
C352 C353 1.363 . S
C352 C358 1.379 . S
C352 N360 1.356 . S
C353 C352 1.363 . S
C353 C359 1.363 . S
C354 C355 1.363 . S
C354 C359 1.379 . S
C354 N361 1.356 1_554 S
C355 C354 1.363 . S
C355 C358 1.363 . S
N356 C358 1.356 . S
N356 H368 0.984 . S
N356 H369 0.985 . S
N357 C359 1.356 . S
N357 H362 0.984 . S
N357 H363 0.985 1_554 S
C358 C352 1.379 . S
C358 C355 1.363 . S
C358 N356 1.356 . S
C359 C353 1.363 . S
C359 C354 1.379 . S
C359 N357 1.356 . S
N360 C352 1.356 . S
N360 H366 0.984 . S
N360 H367 0.984 . S
N361 C354 1.356 1_556 S
N361 H364 0.984 . S
N361 H365 0.985 . S
H362 N357 0.984 . S
H363 N357 0.985 1_556 S
H364 N361 0.984 . S
H365 N361 0.985 . S
H366 N360 0.984 . S
H367 N360 0.984 . S
H368 N356 0.984 . S
H369 N356 0.985 . S
C370 C371 1.363 . S
C370 C376 1.379 . S
C370 N378 1.356 . S
C371 C370 1.363 . S
C371 C377 1.363 1_554 S
C372 C373 1.363 1_556 S
C372 C377 1.379 . S
C372 N379 1.356 . S
C373 C372 1.363 1_554 S
C373 C376 1.363 . S
N374 C376 1.356 . S
N374 H386 0.984 . S
N374 H387 0.985 . S
N375 C377 1.356 . S
N375 H380 0.984 . S
N375 H381 0.985 . S
C376 C370 1.379 . S
C376 C373 1.363 . S
C376 N374 1.356 . S
C377 C371 1.363 1_556 S
C377 C372 1.379 . S
C377 N375 1.356 . S
N378 C370 1.356 . S
N378 H384 0.984 . S
N378 H385 0.984 . S
N379 C372 1.356 . S
N379 H382 0.984 . S
N379 H383 0.985 . S
H380 N375 0.984 . S
H381 N375 0.985 . S
H382 N379 0.984 . S
H383 N379 0.985 . S
H384 N378 0.984 . S
H385 N378 0.984 . S
H386 N374 0.984 . S
H387 N374 0.985 . S
C388 C389 1.363 . S
C388 C394 1.379 . S
C388 N396 1.356 1_655 S
C389 C388 1.363 . S
C389 C395 1.363 . S
C390 C391 1.363 . S
C390 C395 1.379 . S
C390 N397 1.356 . S
C391 C390 1.363 . S
C391 C394 1.363 . S
N392 C394 1.356 1_455 S
N392 H404 0.984 . S
N392 H405 0.985 . S
N393 C395 1.356 . S
N393 H398 0.984 . S
N393 H399 0.985 . S
C394 C388 1.379 . S
C394 C391 1.363 . S
C394 N392 1.356 1_655 S
C395 C389 1.363 . S
C395 C390 1.379 . S
C395 N393 1.356 . S
N396 C388 1.356 1_455 S
N396 H402 0.984 . S
N396 H403 0.984 . S
N397 C390 1.356 . S
N397 H400 0.984 . S
N397 H401 0.985 . S
H398 N393 0.984 . S
H399 N393 0.985 . S
H400 N397 0.984 . S
H401 N397 0.985 . S
H402 N396 0.984 . S
H403 N396 0.984 . S
H404 N392 0.984 . S
H405 N392 0.985 . S
C406 C407 1.363 . S
C406 C412 1.379 . S
C406 N414 1.356 . S
C407 C406 1.363 . S
C407 C413 1.363 . S
C408 C409 1.363 . S
C408 C413 1.379 . S
C408 N415 1.356 . S
C409 C408 1.363 . S
C409 C412 1.363 . S
N410 C412 1.356 . S
N410 H422 0.984 . S
N410 H423 0.985 . S
N411 C413 1.356 . S
N411 H416 0.984 . S
N411 H417 0.985 . S
C412 C406 1.379 . S
C412 C409 1.363 . S
C412 N410 1.356 . S
C413 C407 1.363 . S
C413 C408 1.379 . S
C413 N411 1.356 . S
N414 C406 1.356 . S
N414 H420 0.984 . S
N414 H421 0.984 . S
N415 C408 1.356 . S
N415 H418 0.984 . S
N415 H419 0.985 . S
H416 N411 0.984 . S
H417 N411 0.985 . S
H418 N415 0.984 . S
H419 N415 0.985 . S
H420 N414 0.984 . S
H421 N414 0.984 . S
H422 N410 0.984 . S
H423 N410 0.985 . S
C424 C425 1.363 . S
C424 C430 1.379 . S
C424 N432 1.356 1_565 S
C425 C424 1.363 . S
C425 C431 1.363 . S
C426 C427 1.363 . S
C426 C431 1.379 . S
C426 N433 1.356 . S
C427 C426 1.363 . S
C427 C430 1.363 . S
N428 C430 1.356 1_545 S
N428 H440 0.984 . S
N428 H441 0.985 . S
N429 C431 1.356 . S
N429 H434 0.984 . S
N429 H435 0.985 . S
C430 C424 1.379 . S
C430 C427 1.363 . S
C430 N428 1.356 1_565 S
C431 C425 1.363 . S
C431 C426 1.379 . S
C431 N429 1.356 . S
N432 C424 1.356 1_545 S
N432 H438 0.984 . S
N432 H439 0.984 1_545 S
N433 C426 1.356 . S
N433 H436 0.984 . S
N433 H437 0.985 1_655 S
H434 N429 0.984 . S
H435 N429 0.985 . S
H436 N433 0.984 . S
H437 N433 0.985 1_455 S
H438 N432 0.984 . S
H439 N432 0.984 1_565 S
H440 N428 0.984 . S
H441 N428 0.985 . S
C442 C443 1.363 . S
C442 C448 1.379 . S
C442 N450 1.356 . S
C443 C442 1.363 . S
C443 C449 1.363 . S
C444 C445 1.363 . S
C444 C449 1.379 . S
C444 N451 1.356 . S
C445 C444 1.363 . S
C445 C448 1.363 . S
N446 C448 1.356 . S
N446 H458 0.984 . S
N446 H459 0.985 . S
N447 C449 1.356 . S
N447 H452 0.984 . S
N447 H453 0.985 . S
C448 C442 1.379 . S
C448 C445 1.363 . S
C448 N446 1.356 . S
C449 C443 1.363 . S
C449 C444 1.379 . S
C449 N447 1.356 . S
N450 C442 1.356 . S
N450 H456 0.984 . S
N450 H457 0.984 . S
N451 C444 1.356 . S
N451 H454 0.984 . S
N451 H455 0.985 . S
H452 N447 0.984 . S
H453 N447 0.985 . S
H454 N451 0.984 . S
H455 N451 0.985 . S
H456 N450 0.984 . S
H457 N450 0.984 . S
H458 N446 0.984 . S
H459 N446 0.985 . S
C460 C461 1.363 . S
C460 C466 1.379 . S
C460 N468 1.356 . S
C461 C460 1.363 . S
C461 C467 1.363 . S
C462 C463 1.363 . S
C462 C467 1.379 . S
C462 N469 1.356 . S
C463 C462 1.363 . S
C463 C466 1.363 . S
N464 C466 1.356 . S
N464 H476 0.984 . S
N464 H477 0.985 . S
N465 C467 1.356 . S
N465 H470 0.984 . S
N465 H471 0.985 . S
C466 C460 1.379 . S
C466 C463 1.363 . S
C466 N464 1.356 . S
C467 C461 1.363 . S
C467 C462 1.379 . S
C467 N465 1.356 . S
N468 C460 1.356 . S
N468 H474 0.984 . S
N468 H475 0.984 . S
N469 C462 1.356 . S
N469 H472 0.984 . S
N469 H473 0.985 . S
H470 N465 0.984 . S
H471 N465 0.985 . S
H472 N469 0.984 . S
H473 N469 0.985 . S
H474 N468 0.984 . S
H475 N468 0.984 . S
H476 N464 0.984 . S
H477 N464 0.985 . S
C478 C479 1.363 . S
C478 C484 1.379 . S
C478 N486 1.356 . S
C479 C478 1.363 . S
C479 C485 1.363 . S
C480 C481 1.363 . S
C480 C485 1.379 . S
C480 N487 1.356 . S
C481 C480 1.363 . S
C481 C484 1.363 . S
N482 C484 1.356 . S
N482 H494 0.984 . S
N482 H495 0.985 . S
N483 C485 1.356 . S
N483 H488 0.984 . S
N483 H489 0.985 . S
C484 C478 1.379 . S
C484 C481 1.363 . S
C484 N482 1.356 . S
C485 C479 1.363 . S
C485 C480 1.379 . S
C485 N483 1.356 . S
N486 C478 1.356 . S
N486 H492 0.984 1_455 S
N486 H493 0.984 . S
N487 C480 1.356 . S
N487 H490 0.984 . S
N487 H491 0.985 . S
H488 N483 0.984 . S
H489 N483 0.985 . S
H490 N487 0.984 . S
H491 N487 0.985 . S
H492 N486 0.984 1_655 S
H493 N486 0.984 . S
H494 N482 0.984 . S
H495 N482 0.985 . S
C496 C497 1.363 1_545 S
C496 C502 1.379 . S
C496 N504 1.356 . S
C497 C496 1.363 1_565 S
C497 C503 1.363 1_556 S
C498 C499 1.363 . S
C498 C503 1.379 . S
C498 N505 1.356 . S
C499 C498 1.363 . S
C499 C502 1.363 1_564 S
N500 C502 1.356 . S
N500 H512 0.984 . S
N500 H513 0.985 . S
N501 C503 1.356 . S
N501 H506 0.984 . S
N501 H507 0.985 . S
C502 C496 1.379 . S
C502 C499 1.363 1_546 S
C502 N500 1.356 . S
C503 C497 1.363 1_554 S
C503 C498 1.379 . S
C503 N501 1.356 . S
N504 C496 1.356 . S
N504 H510 0.984 . S
N504 H511 0.984 . S
N505 C498 1.356 . S
N505 H508 0.984 . S
N505 H509 0.985 . S
H506 N501 0.984 . S
H507 N501 0.985 . S
H508 N505 0.984 . S
H509 N505 0.985 . S
H510 N504 0.984 . S
H511 N504 0.984 . S
H512 N500 0.984 . S
H513 N500 0.985 . S
C514 C515 1.363 . S
C514 C520 1.379 . S
C514 N522 1.356 . S
C515 C514 1.363 . S
C515 C521 1.363 . S
C516 C517 1.363 . S
C516 C521 1.379 . S
C516 N523 1.356 . S
C517 C516 1.363 . S
C517 C520 1.363 . S
N518 C520 1.356 . S
N518 H530 0.984 1_545 S
N518 H531 0.985 . S
N519 C521 1.356 . S
N519 H524 0.984 . S
N519 H525 0.985 . S
C520 C514 1.379 . S
C520 C517 1.363 . S
C520 N518 1.356 . S
C521 C515 1.363 . S
C521 C516 1.379 . S
C521 N519 1.356 . S
N522 C514 1.356 . S
N522 H528 0.984 . S
N522 H529 0.984 . S
N523 C516 1.356 . S
N523 H526 0.984 . S
N523 H527 0.985 . S
H524 N519 0.984 . S
H525 N519 0.985 . S
H526 N523 0.984 . S
H527 N523 0.985 . S
H528 N522 0.984 . S
H529 N522 0.984 . S
H530 N518 0.984 1_565 S
H531 N518 0.985 . S
C532 C533 1.363 . S
C532 C538 1.379 . S
C532 N540 1.356 . S
C533 C532 1.363 . S
C533 C539 1.363 . S
C534 C535 1.363 . S
C534 C539 1.379 . S
C534 N541 1.356 . S
C535 C534 1.363 . S
C535 C538 1.363 . S
N536 C538 1.356 . S
N536 H548 0.984 . S
N536 H549 0.985 . S
N537 C539 1.356 . S
N537 H542 0.984 . S
N537 H543 0.985 . S
C538 C532 1.379 . S
C538 C535 1.363 . S
C538 N536 1.356 . S
C539 C533 1.363 . S
C539 C534 1.379 . S
C539 N537 1.356 . S
N540 C532 1.356 . S
N540 H546 0.984 . S
N540 H547 0.984 . S
N541 C534 1.356 . S
N541 H544 0.984 . S
N541 H545 0.985 1_554 S
H542 N537 0.984 . S
H543 N537 0.985 . S
H544 N541 0.984 . S
H545 N541 0.985 1_556 S
H546 N540 0.984 . S
H547 N540 0.984 . S
H548 N536 0.984 . S
H549 N536 0.985 . S
C550 C551 1.363 . S
C550 C556 1.379 . S
C550 N558 1.356 . S
C551 C550 1.363 . S
C551 C557 1.363 . S
C552 C553 1.363 . S
C552 C557 1.379 . S
C552 N559 1.356 . S
C553 C552 1.363 . S
C553 C556 1.363 . S
N554 C556 1.356 . S
N554 H566 0.984 . S
N554 H567 0.985 . S
N555 C557 1.356 . S
N555 H560 0.984 . S
N555 H561 0.985 . S
C556 C550 1.379 . S
C556 C553 1.363 . S
C556 N554 1.356 . S
C557 C551 1.363 . S
C557 C552 1.379 . S
C557 N555 1.356 . S
N558 C550 1.356 . S
N558 H564 0.984 . S
N558 H565 0.984 . S
N559 C552 1.356 . S
N559 H562 0.984 . S
N559 H563 0.985 . S
H560 N555 0.984 . S
H561 N555 0.985 . S
H562 N559 0.984 . S
H563 N559 0.985 . S
H564 N558 0.984 . S
H565 N558 0.984 . S
H566 N554 0.984 . S
H567 N554 0.985 . S
C568 C569 1.363 . S
C568 C574 1.379 . S
C568 N576 1.356 . S
C569 C568 1.363 . S
C569 C575 1.363 1_556 S
C570 C571 1.363 1_554 S
C570 C575 1.379 . S
C570 N577 1.356 1_655 S
C571 C570 1.363 1_556 S
C571 C574 1.363 . S
N572 C574 1.356 . S
N572 H584 0.984 . S
N572 H585 0.985 . S
N573 C575 1.356 . S
N573 H578 0.984 . S
N573 H579 0.985 1_655 S
C574 C568 1.379 . S
C574 C571 1.363 . S
C574 N572 1.356 . S
C575 C569 1.363 1_554 S
C575 C570 1.379 . S
C575 N573 1.356 . S
N576 C568 1.356 . S
N576 H582 0.984 . S
N576 H583 0.984 . S
N577 C570 1.356 1_455 S
N577 H580 0.984 . S
N577 H581 0.985 . S
H578 N573 0.984 . S
H579 N573 0.985 1_455 S
H580 N577 0.984 . S
H581 N577 0.985 . S
H582 N576 0.984 . S
H583 N576 0.984 . S
H584 N572 0.984 . S
H585 N572 0.985 . S
C586 C587 1.363 . S
C586 C592 1.379 . S
C586 N594 1.356 . S
C587 C586 1.363 . S
C587 C593 1.363 . S
C588 C589 1.363 . S
C588 C593 1.379 . S
C588 N595 1.356 . S
C589 C588 1.363 . S
C589 C592 1.363 . S
N590 C592 1.356 . S
N590 H602 0.984 . S
N590 H603 0.985 . S
N591 C593 1.356 . S
N591 H596 0.984 . S
N591 H597 0.985 . S
C592 C586 1.379 . S
C592 C589 1.363 . S
C592 N590 1.356 . S
C593 C587 1.363 . S
C593 C588 1.379 . S
C593 N591 1.356 . S
N594 C586 1.356 . S
N594 H600 0.984 . S
N594 H601 0.984 . S
N595 C588 1.356 . S
N595 H598 0.984 . S
N595 H599 0.985 . S
H596 N591 0.984 . S
H597 N591 0.985 . S
H598 N595 0.984 . S
H599 N595 0.985 . S
H600 N594 0.984 . S
H601 N594 0.984 . S
H602 N590 0.984 . S
H603 N590 0.985 . S
C604 C605 1.363 . S
C604 C610 1.379 . S
C604 N612 1.356 . S
C605 C604 1.363 . S
C605 C611 1.363 . S
C606 C607 1.363 . S
C606 C611 1.379 . S
C606 N613 1.356 1_455 S
C607 C606 1.363 . S
C607 C610 1.363 . S
N608 C610 1.356 . S
N608 H620 0.984 . S
N608 H621 0.985 . S
N609 C611 1.356 1_655 S
N609 H614 0.984 . S
N609 H615 0.985 . S
C610 C604 1.379 . S
C610 C607 1.363 . S
C610 N608 1.356 . S
C611 C605 1.363 . S
C611 C606 1.379 . S
C611 N609 1.356 1_455 S
N612 C604 1.356 . S
N612 H618 0.984 . S
N612 H619 0.984 . S
N613 C606 1.356 1_655 S
N613 H616 0.978 1_655 S
N613 H617 0.985 . S
H614 N609 0.984 . S
H615 N609 0.985 . S
H616 N613 0.978 1_455 S
H617 N613 0.985 . S
H618 N612 0.984 . S
H619 N612 0.984 . S
H620 N608 0.984 . S
H621 N608 0.985 . S
C622 C623 1.363 . S
C622 C628 1.379 . S
C622 N630 1.356 . S
C623 C622 1.363 . S
C623 C629 1.363 . S
C624 C625 1.363 . S
C624 C629 1.379 . S
C624 N631 1.356 . S
C625 C624 1.363 . S
C625 C628 1.363 . S
N626 C628 1.356 . S
N626 H638 0.984 . S
N626 H639 0.985 . S
N627 C629 1.356 . S
N627 H632 0.984 . S
N627 H633 0.985 . S
C628 C622 1.379 . S
C628 C625 1.363 . S
C628 N626 1.356 . S
C629 C623 1.363 . S
C629 C624 1.379 . S
C629 N627 1.356 . S
N630 C622 1.356 . S
N630 H636 0.984 . S
N630 H637 0.984 . S
N631 C624 1.356 . S
N631 H634 0.984 . S
N631 H635 0.985 . S
H632 N627 0.984 . S
H633 N627 0.985 . S
H634 N631 0.984 . S
H635 N631 0.985 . S
H636 N630 0.984 . S
H637 N630 0.984 . S
H638 N626 0.984 . S
H639 N626 0.985 . S
C209 C5 2.347 . S
C211 C104 2.455 . S
C227 C18 1.115 . S
C229 N124 1.159 . S
C247 C158 1.812 . S
C245 C30 1.766 . S
C263 C41 1.298 . S
C265 N192 1.178 . S
C283 C145 2.573 . S
C281 C7 2.507 . S
C301 N102 1.293 . S
C299 C16 1.046 . S
C319 C179 2.119 1_556 S
C317 C29 1.994 . S
C337 N154 0.934 . S
C335 C38 0.925 . S
C353 C8 1.902 . S
C355 C194 1.904 . S
C373 C128 1.877 . S
C371 C27 1.560 1_554 S
C389 C40 1.417 . S
C391 C89 1.389 . S
C407 C19 1.072 . S
C409 C175 1.120 . S
C427 C115 2.241 . S
C425 C51 2.140 . S
C443 C62 1.167 . S
C445 N132 1.249 . S
C461 C74 1.845 . S
C463 C149 1.900 . S
C479 C84 1.117 . S
C481 N184 1.203 . S
C497 C49 2.426 . S
C499 C134 2.557 1_565 S
C517 N94 1.102 . S
C515 C63 1.096 . S
C535 C188 1.944 . S
C533 C71 1.618 . S
C553 N162 0.941 . S
C551 C85 0.902 . S
C569 C52 1.835 . S
C571 C205 1.835 1_556 S
C589 C119 1.940 . S
C587 C73 1.782 . S
C607 C98 1.331 . S
C605 C82 0.968 . S
C623 C60 1.255 . S
C625 C164 1.618 . S
