# Generated by pormake.
# Topology gar, (4,6)-cn, num edge types: 1
# Building blocks:
#     Node 0, Type 0, BuildingBlock: UXUYUI_clean_sbu_0, # of connection points: 4
#     Node 1, Type 0, BuildingBlock: UXUYUI_clean_sbu_0, # of connection points: 4
#     Node 2, Type 0, BuildingBlock: UXUYUI_clean_sbu_0, # of connection points: 4
#     Node 3, Type 0, BuildingBlock: UXUYUI_clean_sbu_0, # of connection points: 4
#     Node 4, Type 0, BuildingBlock: UXUYUI_clean_sbu_0, # of connection points: 4
#     Node 5, Type 0, BuildingBlock: UXUYUI_clean_sbu_0, # of connection points: 4
#     Node 6, Type 0, BuildingBlock: UXUYUI_clean_sbu_0, # of connection points: 4
#     Node 7, Type 0, BuildingBlock: UXUYUI_clean_sbu_0, # of connection points: 4
#     Node 8, Type 0, BuildingBlock: UXUYUI_clean_sbu_0, # of connection points: 4
#     Node 9, Type 0, BuildingBlock: UXUYUI_clean_sbu_0, # of connection points: 4
#     Node 10, Type 0, BuildingBlock: UXUYUI_clean_sbu_0, # of connection points: 4
#     Node 11, Type 0, BuildingBlock: UXUYUI_clean_sbu_0, # of connection points: 4
#     Node 12, Type 0, BuildingBlock: UXUYUI_clean_sbu_0, # of connection points: 4
#     Node 13, Type 0, BuildingBlock: UXUYUI_clean_sbu_0, # of connection points: 4
#     Node 14, Type 0, BuildingBlock: UXUYUI_clean_sbu_0, # of connection points: 4
#     Node 15, Type 0, BuildingBlock: UXUYUI_clean_sbu_0, # of connection points: 4
#     Node 16, Type 0, BuildingBlock: UXUYUI_clean_sbu_0, # of connection points: 4
#     Node 17, Type 0, BuildingBlock: UXUYUI_clean_sbu_0, # of connection points: 4
#     Node 18, Type 0, BuildingBlock: UXUYUI_clean_sbu_0, # of connection points: 4
#     Node 19, Type 0, BuildingBlock: UXUYUI_clean_sbu_0, # of connection points: 4
#     Node 20, Type 0, BuildingBlock: UXUYUI_clean_sbu_0, # of connection points: 4
#     Node 21, Type 0, BuildingBlock: UXUYUI_clean_sbu_0, # of connection points: 4
#     Node 22, Type 0, BuildingBlock: UXUYUI_clean_sbu_0, # of connection points: 4
#     Node 23, Type 0, BuildingBlock: UXUYUI_clean_sbu_0, # of connection points: 4
#     Node 24, Type 1, BuildingBlock: GEDQOX_clean_sbu_0, # of connection points: 6
#     Node 25, Type 1, BuildingBlock: GEDQOX_clean_sbu_0, # of connection points: 6
#     Node 26, Type 1, BuildingBlock: GEDQOX_clean_sbu_0, # of connection points: 6
#     Node 27, Type 1, BuildingBlock: GEDQOX_clean_sbu_0, # of connection points: 6
#     Node 28, Type 1, BuildingBlock: GEDQOX_clean_sbu_0, # of connection points: 6
#     Node 29, Type 1, BuildingBlock: GEDQOX_clean_sbu_0, # of connection points: 6
#     Node 30, Type 1, BuildingBlock: GEDQOX_clean_sbu_0, # of connection points: 6
#     Node 31, Type 1, BuildingBlock: GEDQOX_clean_sbu_0, # of connection points: 6
#     Node 32, Type 1, BuildingBlock: GEDQOX_clean_sbu_0, # of connection points: 6
#     Node 33, Type 1, BuildingBlock: GEDQOX_clean_sbu_0, # of connection points: 6
#     Node 34, Type 1, BuildingBlock: GEDQOX_clean_sbu_0, # of connection points: 6
#     Node 35, Type 1, BuildingBlock: GEDQOX_clean_sbu_0, # of connection points: 6
#     Node 36, Type 1, BuildingBlock: GEDQOX_clean_sbu_0, # of connection points: 6
#     Node 37, Type 1, BuildingBlock: GEDQOX_clean_sbu_0, # of connection points: 6
#     Node 38, Type 1, BuildingBlock: GEDQOX_clean_sbu_0, # of connection points: 6
#     Node 39, Type 1, BuildingBlock: GEDQOX_clean_sbu_0, # of connection points: 6
#     Edge 40, Type (0, 1), BuildingBlock: OJICUG_clean_linker_0, # of connection points: 2
#     Edge 41, Type (0, 1), BuildingBlock: OJICUG_clean_linker_0, # of connection points: 2
#     Edge 42, Type (0, 1), BuildingBlock: OJICUG_clean_linker_0, # of connection points: 2
#     Edge 43, Type (0, 1), BuildingBlock: OJICUG_clean_linker_0, # of connection points: 2
#     Edge 44, Type (0, 1), BuildingBlock: OJICUG_clean_linker_0, # of connection points: 2
#     Edge 45, Type (0, 1), BuildingBlock: OJICUG_clean_linker_0, # of connection points: 2
#     Edge 46, Type (0, 1), BuildingBlock: OJICUG_clean_linker_0, # of connection points: 2
#     Edge 47, Type (0, 1), BuildingBlock: OJICUG_clean_linker_0, # of connection points: 2
#     Edge 48, Type (0, 1), BuildingBlock: OJICUG_clean_linker_0, # of connection points: 2
#     Edge 49, Type (0, 1), BuildingBlock: OJICUG_clean_linker_0, # of connection points: 2
#     Edge 50, Type (0, 1), BuildingBlock: OJICUG_clean_linker_0, # of connection points: 2
#     Edge 51, Type (0, 1), BuildingBlock: OJICUG_clean_linker_0, # of connection points: 2
#     Edge 52, Type (0, 1), BuildingBlock: OJICUG_clean_linker_0, # of connection points: 2
#     Edge 53, Type (0, 1), BuildingBlock: OJICUG_clean_linker_0, # of connection points: 2
#     Edge 54, Type (0, 1), BuildingBlock: OJICUG_clean_linker_0, # of connection points: 2
#     Edge 55, Type (0, 1), BuildingBlock: OJICUG_clean_linker_0, # of connection points: 2
#     Edge 56, Type (0, 1), BuildingBlock: OJICUG_clean_linker_0, # of connection points: 2
#     Edge 57, Type (0, 1), BuildingBlock: OJICUG_clean_linker_0, # of connection points: 2
#     Edge 58, Type (0, 1), BuildingBlock: OJICUG_clean_linker_0, # of connection points: 2
#     Edge 59, Type (0, 1), BuildingBlock: OJICUG_clean_linker_0, # of connection points: 2
#     Edge 60, Type (0, 1), BuildingBlock: OJICUG_clean_linker_0, # of connection points: 2
#     Edge 61, Type (0, 1), BuildingBlock: OJICUG_clean_linker_0, # of connection points: 2
#     Edge 62, Type (0, 1), BuildingBlock: OJICUG_clean_linker_0, # of connection points: 2
#     Edge 63, Type (0, 1), BuildingBlock: OJICUG_clean_linker_0, # of connection points: 2
#     Edge 64, Type (0, 1), BuildingBlock: OJICUG_clean_linker_0, # of connection points: 2
#     Edge 65, Type (0, 1), BuildingBlock: OJICUG_clean_linker_0, # of connection points: 2
#     Edge 66, Type (0, 1), BuildingBlock: OJICUG_clean_linker_0, # of connection points: 2
#     Edge 67, Type (0, 1), BuildingBlock: OJICUG_clean_linker_0, # of connection points: 2
#     Edge 68, Type (0, 1), BuildingBlock: OJICUG_clean_linker_0, # of connection points: 2
#     Edge 69, Type (0, 1), BuildingBlock: OJICUG_clean_linker_0, # of connection points: 2
#     Edge 70, Type (0, 1), BuildingBlock: OJICUG_clean_linker_0, # of connection points: 2
#     Edge 71, Type (0, 1), BuildingBlock: OJICUG_clean_linker_0, # of connection points: 2
#     Edge 72, Type (0, 1), BuildingBlock: OJICUG_clean_linker_0, # of connection points: 2
#     Edge 73, Type (0, 1), BuildingBlock: OJICUG_clean_linker_0, # of connection points: 2
#     Edge 74, Type (0, 1), BuildingBlock: OJICUG_clean_linker_0, # of connection points: 2
#     Edge 75, Type (0, 1), BuildingBlock: OJICUG_clean_linker_0, # of connection points: 2
#     Edge 76, Type (0, 1), BuildingBlock: OJICUG_clean_linker_0, # of connection points: 2
#     Edge 77, Type (0, 1), BuildingBlock: OJICUG_clean_linker_0, # of connection points: 2
#     Edge 78, Type (0, 1), BuildingBlock: OJICUG_clean_linker_0, # of connection points: 2
#     Edge 79, Type (0, 1), BuildingBlock: OJICUG_clean_linker_0, # of connection points: 2
#     Edge 80, Type (0, 1), BuildingBlock: OJICUG_clean_linker_0, # of connection points: 2
#     Edge 81, Type (0, 1), BuildingBlock: OJICUG_clean_linker_0, # of connection points: 2
#     Edge 82, Type (0, 1), BuildingBlock: OJICUG_clean_linker_0, # of connection points: 2
#     Edge 83, Type (0, 1), BuildingBlock: OJICUG_clean_linker_0, # of connection points: 2
#     Edge 84, Type (0, 1), BuildingBlock: OJICUG_clean_linker_0, # of connection points: 2
#     Edge 85, Type (0, 1), BuildingBlock: OJICUG_clean_linker_0, # of connection points: 2
#     Edge 86, Type (0, 1), BuildingBlock: OJICUG_clean_linker_0, # of connection points: 2
#     Edge 87, Type (0, 1), BuildingBlock: OJICUG_clean_linker_0, # of connection points: 2
#     Edge 88, Type (0, 1), BuildingBlock: OJICUG_clean_linker_0, # of connection points: 2
#     Edge 89, Type (0, 1), BuildingBlock: OJICUG_clean_linker_0, # of connection points: 2
#     Edge 90, Type (0, 1), BuildingBlock: OJICUG_clean_linker_0, # of connection points: 2
#     Edge 91, Type (0, 1), BuildingBlock: OJICUG_clean_linker_0, # of connection points: 2
#     Edge 92, Type (0, 1), BuildingBlock: OJICUG_clean_linker_0, # of connection points: 2
#     Edge 93, Type (0, 1), BuildingBlock: OJICUG_clean_linker_0, # of connection points: 2
#     Edge 94, Type (0, 1), BuildingBlock: OJICUG_clean_linker_0, # of connection points: 2
#     Edge 95, Type (0, 1), BuildingBlock: OJICUG_clean_linker_0, # of connection points: 2
#     Edge 96, Type (0, 1), BuildingBlock: OJICUG_clean_linker_0, # of connection points: 2
#     Edge 97, Type (0, 1), BuildingBlock: OJICUG_clean_linker_0, # of connection points: 2
#     Edge 98, Type (0, 1), BuildingBlock: OJICUG_clean_linker_0, # of connection points: 2
#     Edge 99, Type (0, 1), BuildingBlock: OJICUG_clean_linker_0, # of connection points: 2
#     Edge 100, Type (0, 1), BuildingBlock: OJICUG_clean_linker_0, # of connection points: 2
#     Edge 101, Type (0, 1), BuildingBlock: OJICUG_clean_linker_0, # of connection points: 2
#     Edge 102, Type (0, 1), BuildingBlock: OJICUG_clean_linker_0, # of connection points: 2
#     Edge 103, Type (0, 1), BuildingBlock: OJICUG_clean_linker_0, # of connection points: 2
#     Edge 104, Type (0, 1), BuildingBlock: OJICUG_clean_linker_0, # of connection points: 2
#     Edge 105, Type (0, 1), BuildingBlock: OJICUG_clean_linker_0, # of connection points: 2
#     Edge 106, Type (0, 1), BuildingBlock: OJICUG_clean_linker_0, # of connection points: 2
#     Edge 107, Type (0, 1), BuildingBlock: OJICUG_clean_linker_0, # of connection points: 2
#     Edge 108, Type (0, 1), BuildingBlock: OJICUG_clean_linker_0, # of connection points: 2
#     Edge 109, Type (0, 1), BuildingBlock: OJICUG_clean_linker_0, # of connection points: 2
#     Edge 110, Type (0, 1), BuildingBlock: OJICUG_clean_linker_0, # of connection points: 2
#     Edge 111, Type (0, 1), BuildingBlock: OJICUG_clean_linker_0, # of connection points: 2
#     Edge 112, Type (0, 1), BuildingBlock: OJICUG_clean_linker_0, # of connection points: 2
#     Edge 113, Type (0, 1), BuildingBlock: OJICUG_clean_linker_0, # of connection points: 2
#     Edge 114, Type (0, 1), BuildingBlock: OJICUG_clean_linker_0, # of connection points: 2
#     Edge 115, Type (0, 1), BuildingBlock: OJICUG_clean_linker_0, # of connection points: 2
#     Edge 116, Type (0, 1), BuildingBlock: OJICUG_clean_linker_0, # of connection points: 2
#     Edge 117, Type (0, 1), BuildingBlock: OJICUG_clean_linker_0, # of connection points: 2
#     Edge 118, Type (0, 1), BuildingBlock: OJICUG_clean_linker_0, # of connection points: 2
#     Edge 119, Type (0, 1), BuildingBlock: OJICUG_clean_linker_0, # of connection points: 2
#     Edge 120, Type (0, 1), BuildingBlock: OJICUG_clean_linker_0, # of connection points: 2
#     Edge 121, Type (0, 1), BuildingBlock: OJICUG_clean_linker_0, # of connection points: 2
#     Edge 122, Type (0, 1), BuildingBlock: OJICUG_clean_linker_0, # of connection points: 2
#     Edge 123, Type (0, 1), BuildingBlock: OJICUG_clean_linker_0, # of connection points: 2
#     Edge 124, Type (0, 1), BuildingBlock: OJICUG_clean_linker_0, # of connection points: 2
#     Edge 125, Type (0, 1), BuildingBlock: OJICUG_clean_linker_0, # of connection points: 2
#     Edge 126, Type (0, 1), BuildingBlock: OJICUG_clean_linker_0, # of connection points: 2
#     Edge 127, Type (0, 1), BuildingBlock: OJICUG_clean_linker_0, # of connection points: 2
#     Edge 128, Type (0, 1), BuildingBlock: OJICUG_clean_linker_0, # of connection points: 2
#     Edge 129, Type (0, 1), BuildingBlock: OJICUG_clean_linker_0, # of connection points: 2
#     Edge 130, Type (0, 1), BuildingBlock: OJICUG_clean_linker_0, # of connection points: 2
#     Edge 131, Type (0, 1), BuildingBlock: OJICUG_clean_linker_0, # of connection points: 2
#     Edge 132, Type (0, 1), BuildingBlock: OJICUG_clean_linker_0, # of connection points: 2
#     Edge 133, Type (0, 1), BuildingBlock: OJICUG_clean_linker_0, # of connection points: 2
#     Edge 134, Type (0, 1), BuildingBlock: OJICUG_clean_linker_0, # of connection points: 2
#     Edge 135, Type (0, 1), BuildingBlock: OJICUG_clean_linker_0, # of connection points: 2
# Relax obj value: 0.312
# Max RMSD: 0.458
# Mean RMSD: 0.218
data_MOF--net-gar--node1-UXUYUI_clean_sbu_0--node2-GEDQOX_clean_sbu_0--edge1-OJICUG_clean_linker_0
_symmetry_space_group_name_H-M    P1
_symmetry_Int_Tables_number       1
_symmetry_cell_setting            triclinic
loop_
_symmetry_equiv_pos_as_xyz
'x, y, z'
_cell_length_a     58.859476
_cell_length_b     57.239739
_cell_length_c     51.752985
_cell_angle_alpha  98.787253
_cell_angle_beta   97.492032
_cell_angle_gamma 99.659059
loop_
_atom_site_label
_atom_site_type_symbol
_atom_site_fract_x
_atom_site_fract_y
_atom_site_fract_z
_atom_type_partial_charge
Li0 Li 0.10316 0.37931 0.46862 0.0
Li1 Li 0.13045 0.40289 0.50473 0.0
Li2 Li 0.14371 0.37462 0.47296 0.0
Li3 Li 0.11749 0.36086 0.50638 0.0
C4 C 0.12432 0.42307 0.45733 0.0
N5 N 0.1111 0.46317 0.44051 0.0
C6 C 0.10432 0.43078 0.46437 0.0
C7 C 0.13754 0.43575 0.44154 0.0
C8 C 0.09793 0.45108 0.45575 0.0
C9 C 0.1306 0.45599 0.43329 0.0
C10 C 0.08722 0.3944 0.52557 0.0
C11 C 0.08036 0.39755 0.57089 0.0
N12 N 0.06496 0.41221 0.56609 0.0
C13 C 0.07096 0.40918 0.52103 0.0
C14 C 0.0917 0.3883 0.55067 0.0
C15 C 0.06007 0.41815 0.5418 0.0
C16 C 0.05543 0.37359 0.45076 0.0
N17 N 0.07671 0.37713 0.44302 0.0
C18 C 0.05957 0.37708 0.39859 0.0
C19 C 0.07922 0.37888 0.41759 0.0
C20 C 0.03748 0.37388 0.40624 0.0
C21 C 0.03541 0.37211 0.43257 0.0
H22 H 0.05406 0.37196 0.47106 0.0
H23 H 0.09647 0.38166 0.41213 0.0
C24 C 0.14027 0.45457 0.51702 0.0
N25 N 0.13705 0.43431 0.52784 0.0
C26 C 0.13183 0.47468 0.52772 0.0
C27 C 0.12242 0.45486 0.56395 0.0
C28 C 0.13114 0.4352 0.55248 0.0
C29 C 0.12073 0.47389 0.55011 0.0
H30 H 0.14694 0.45437 0.49859 0.0
H31 H 0.13052 0.41958 0.56182 0.0
C32 C 0.10092 0.33404 0.44688 0.0
N33 N 0.07088 0.30496 0.40425 0.0
C34 C 0.07994 0.3205 0.45069 0.0
C35 C 0.10665 0.33273 0.42138 0.0
C36 C 0.06498 0.30593 0.42888 0.0
C37 C 0.09124 0.31792 0.40009 0.0
C38 C 0.1665 0.39349 0.53275 0.0
C39 C 0.18358 0.41114 0.52694 0.0
C40 C 0.16543 0.39115 0.55906 0.0
C41 C 0.19923 0.42641 0.5477 0.0
C42 C 0.18142 0.40676 0.57926 0.0
N43 N 0.19783 0.42393 0.57321 0.0
C44 C 0.17052 0.37726 0.4322 0.0
C45 C 0.16794 0.34106 0.4495 0.0
C46 C 0.17925 0.36689 0.41033 0.0
N47 N 0.16453 0.36409 0.45082 0.0
C48 C 0.1767 0.32996 0.42797 0.0
C49 C 0.18176 0.34267 0.40754 0.0
H50 H 0.16694 0.3952 0.43333 0.0
H51 H 0.16231 0.33078 0.46419 0.0
C52 C 0.08575 0.32975 0.52695 0.0
N53 N 0.10884 0.33628 0.52586 0.0
C54 C 0.07803 0.31131 0.54029 0.0
C55 C 0.11802 0.30654 0.55111 0.0
C56 C 0.125 0.32525 0.53767 0.0
C57 C 0.0942 0.29921 0.55236 0.0
H58 H 0.0733 0.33889 0.51735 0.0
H59 H 0.14324 0.33075 0.53629 0.0
O60 O 0.1308 0.40312 0.46559 0.0
O61 O 0.09809 0.38533 0.50542 0.0
O62 O 0.11548 0.34893 0.46789 0.0
O63 O 0.15083 0.37864 0.51274 0.0
H64 H 0.09399 0.42127 0.47654 0.0
H65 H 0.15314 0.43028 0.43587 0.0
H66 H 0.08253 0.45725 0.46124 0.0
H67 H 0.14072 0.46597 0.42114 0.0
H68 H 0.08395 0.39321 0.59045 0.0
H69 H 0.06655 0.41363 0.5017 0.0
H70 H 0.10438 0.37719 0.55482 0.0
H71 H 0.04764 0.42976 0.53856 0.0
H72 H 0.06159 0.37859 0.37837 0.0
H73 H 1.01847 0.36956 0.43892 0.0
H74 H 0.1318 0.48958 0.51709 0.0
H75 H 0.11464 0.45382 0.58169 0.0
H76 H 0.07514 0.32142 0.47022 0.0
H77 H 0.12263 0.34331 0.41795 0.0
H78 H 0.04863 0.29545 0.43154 0.0
H79 H 0.0954 0.31684 0.38025 0.0
H80 H 0.18456 0.41314 0.50662 0.0
H81 H 0.15225 0.37758 0.56383 0.0
H82 H 0.21247 0.44025 0.54355 0.0
H83 H 0.18074 0.40527 0.59974 0.0
H84 H 0.1826 0.37735 0.39499 0.0
H85 H 0.17868 0.31139 0.42687 0.0
H86 H 0.05956 0.30656 0.54106 0.0
H87 H 0.13106 0.29751 0.55979 0.0
Li88 Li 0.9992 0.79067 0.64916 0.0
Li89 Li 1.0172 0.77016 0.68544 0.0
Li90 Li 0.98965 0.74772 0.64743 0.0
Li91 Li 0.97601 0.77252 0.68091 0.0
C92 C 0.03367 0.7628 0.62809 0.0
N93 N 0.06004 0.75319 0.58856 0.0
C94 C 0.05167 0.74989 0.63194 0.0
C95 C 0.02951 0.77125 0.60426 0.0
C96 C 0.06466 0.74508 0.61168 0.0
C97 C 0.04291 0.7661 0.5845 0.0
C98 C 1.00064 0.8169 0.70754 0.0
C99 C 0.99979 0.83201 0.75345 0.0
N100 N 0.99237 0.85177 0.74645 0.0
C101 C 0.99314 0.83741 0.70079 0.0
C102 C 1.00418 0.81423 0.73407 0.0
C103 C 0.98904 0.85483 0.72077 0.0
C104 C 0.99193 0.82142 0.61141 0.0
N105 N 1.00648 0.81725 0.63211 0.0
C106 C 0.03528 0.85104 0.62918 0.0
C107 C 0.02773 0.83156 0.64118 0.0
C108 C 1.02089 0.8557 0.60741 0.0
C109 C 0.99889 0.84059 0.59859 0.0
H110 H 0.97512 0.8097 0.60463 0.0
H111 H 0.03886 0.82772 0.65773 0.0
C112 C 0.0437 0.76487 0.73316 0.0
N113 N 0.04448 0.77181 0.70924 0.0
C114 C 0.0644 0.76463 0.74964 0.0
C115 C 0.08598 0.77894 0.71652 0.0
C116 C 0.06498 0.77925 0.70095 0.0
C117 C 0.08574 0.7713 0.74098 0.0
H118 H 0.02704 0.75907 0.73914 0.0
H119 H 0.06494 0.78499 0.68199 0.0
C120 C 0.95106 0.75408 0.62371 0.0
N121 N 0.9194 0.71993 0.587 0.0
C122 C 0.93495 0.73721 0.63214 0.0
C123 C 0.95107 0.75365 0.59664 0.0
C124 C 0.91908 0.72006 0.61326 0.0
C125 C 0.93492 0.73622 0.57838 0.0
C126 C 0.99808 0.72426 0.69203 0.0
C127 C 1.01769 0.71779 0.68247 0.0
C128 C 0.98683 0.71039 0.70835 0.0
C129 C 0.02567 0.69751 0.68916 0.0
C130 C 0.99536 0.69024 0.71465 0.0
N131 N 1.01443 0.68427 0.705 0.0
C132 C 0.99261 0.7188 0.59889 0.0
C133 C 0.98059 0.69639 0.63107 0.0
C134 C 1.00137 0.69963 0.58637 0.0
N135 N 0.98493 0.71771 0.62242 0.0
C136 C 0.98902 0.67669 0.61922 0.0
C137 C 1.00143 0.67906 0.59801 0.0
H138 H 0.99424 0.73538 0.59125 0.0
H139 H 0.97301 0.69534 0.64884 0.0
C140 C 0.9439 0.79864 0.70154 0.0
N141 N 0.95473 0.77978 0.70416 0.0
C142 C 0.93517 0.80993 0.72297 0.0
C143 C 0.94691 0.78065 0.7484 0.0
C144 C 0.95574 0.77019 0.72664 0.0
C145 C 0.93742 0.80151 0.74719 0.0
H146 H 0.94401 0.80633 0.6837 0.0
H147 H 0.96505 0.75564 0.72844 0.0
O148 O 1.02075 0.76787 0.64778 0.0
O149 O 1.00418 0.79939 0.68819 0.0
O150 O 0.96704 0.77059 0.64194 0.0
O151 O 0.99022 0.74432 0.68599 0.0
H152 H 0.05582 0.74374 0.65039 0.0
H153 H 1.01562 0.78105 0.60065 0.0
H154 H 0.0785 0.73498 0.61439 0.0
H155 H 0.03961 0.77227 0.56587 0.0
H156 H 1.00218 0.83005 0.77404 0.0
H157 H 0.99029 0.83971 0.68032 0.0
H158 H 1.00986 0.7984 0.73958 0.0
H159 H 0.98309 0.87073 0.71584 0.0
H160 H 0.05214 0.86242 0.63708 0.0
H161 H 0.98728 0.84328 0.58173 0.0
H162 H 0.06375 0.75861 0.76843 0.0
H163 H 0.10226 0.78439 0.70948 0.0
H164 H 0.93485 0.73726 0.65306 0.0
H165 H 0.96363 0.76641 0.58981 0.0
H166 H 0.90655 0.70683 0.61947 0.0
H167 H 0.93479 0.73559 0.55736 0.0
H168 H 0.02645 0.7282 0.66979 0.0
H169 H 0.97164 0.71508 0.71603 0.0
H170 H 0.04078 0.6923 0.68174 0.0
H171 H 0.98689 0.67938 0.72727 0.0
H172 H 1.01025 0.70202 0.56964 0.0
H173 H 0.98791 0.6607 0.62817 0.0
H174 H 0.92831 0.82609 0.72107 0.0
H175 H 0.94857 0.77315 0.76639 0.0
Li176 Li 0.60211 0.88659 0.96789 0.0
Li177 Li 0.63091 0.90475 1.00645 0.0
Li178 Li 0.64147 0.87805 0.97189 0.0
Li179 Li 0.61569 0.8623 1.00298 0.0
C180 C 0.62833 0.93059 0.96239 0.0
N181 N 0.62121 0.97437 0.94983 0.0
C182 C 0.60914 0.94007 0.9693 0.0
C183 C 0.64388 0.94338 0.94894 0.0
C184 C 0.60582 0.96221 0.96282 0.0
C185 C 0.63999 0.96548 0.94283 0.0
C186 C 0.58666 0.8967 0.02567 0.0
C187 C 0.57691 0.89545 0.06943 0.0
N188 N 0.56392 0.91269 0.06657 0.0
C189 C 0.57285 0.91414 0.02306 0.0
C190 C 0.58844 0.88708 0.04899 0.0
C191 C 0.56167 0.92211 0.044 0.0
C192 C 0.55531 0.88617 0.95224 0.0
N193 N 0.57634 0.88914 0.9439 0.0
C194 C 0.55932 0.89604 0.90196 0.0
C195 C 0.57881 0.894 0.91938 0.0
C196 C 0.53747 0.89345 0.91032 0.0
C197 C 0.53553 0.88848 0.93573 0.0
H198 H 0.55395 0.882 0.97172 0.0
H199 H 0.59588 0.89635 0.91345 0.0
C200 C 0.64382 0.95566 0.0247 0.0
N201 N 0.63885 0.93416 0.03283 0.0
C202 C 0.63568 0.97544 0.03679 0.0
C203 C 0.62287 0.95227 0.06923 0.0
C204 C 0.6314 0.93301 0.05649 0.0
C205 C 0.62294 0.97291 0.05769 0.0
H206 H 0.65154 0.95683 1.00706 0.0
H207 H 0.62915 0.91618 0.06363 0.0
C208 C 0.61299 0.83628 0.94479 0.0
N209 N 0.61906 0.79943 0.90669 0.0
C210 C 0.61837 0.81507 0.95205 0.0
C211 C 0.61045 0.83867 0.91814 0.0
C212 C 0.62139 0.79665 0.93248 0.0
C213 C 0.6137 0.81987 0.89918 0.0
C214 C 0.66597 0.89145 0.03071 0.0
C215 C 0.68382 0.90841 0.02511 0.0
C216 C 0.66499 0.88853 0.05687 0.0
C217 C 0.70038 0.92236 0.04595 0.0
C218 C 0.68189 0.90282 0.07714 0.0
N219 N 0.69908 0.9193 0.07131 0.0
C220 C 0.66179 0.87852 0.92611 0.0
C221 C 0.67071 0.84829 0.95019 0.0
C222 C 0.67041 0.8678 0.90432 0.0
N223 N 0.66162 0.86836 0.94817 0.0
C224 C 0.67916 0.83673 0.92868 0.0
C225 C 0.67847 0.84609 0.905 0.0
H226 H 0.65376 0.89401 0.92471 0.0
H227 H 0.66966 0.84019 0.96767 0.0
C228 C 0.58142 0.82824 0.0157 0.0
N229 N 0.6049 0.83597 0.01917 0.0
C230 C 0.57198 0.80901 0.02706 0.0
C231 C 0.61114 0.80589 0.04517 0.0
C232 C 0.61983 0.82531 0.03353 0.0
C233 C 0.58688 0.79744 0.04194 0.0
H234 H 0.57003 0.83718 1.00419 0.0
H235 H 0.63846 0.83177 0.03575 0.0
O236 O 0.63181 0.90883 0.96843 0.0
O237 O 0.59789 0.88863 1.0054 0.0
O238 O 0.61059 0.85476 0.96374 0.0
O239 O 0.64938 0.87799 0.01063 0.0
H240 H 0.59706 0.93047 0.9797 0.0
H241 H 0.65893 0.93645 0.94349 0.0
H242 H 0.59105 0.96974 0.96818 0.0
H243 H 0.65193 0.97559 0.93259 0.0
H244 H 0.57842 0.88835 0.08766 0.0
H245 H 0.57057 0.92146 1.00509 0.0
H246 H 0.59919 0.87382 0.05167 0.0
H247 H 0.55114 0.93575 0.04228 0.0
H248 H 0.56127 0.89985 0.88241 0.0
H249 H 0.5188 0.88604 0.94257 0.0
H250 H 0.63705 0.99156 0.02804 0.0
H251 H 0.61378 0.94979 0.08579 0.0
H252 H 0.62045 0.81296 0.9726 0.0
H253 H 0.6064 0.85502 0.91222 0.0
H254 H 0.6257 0.78018 0.93782 0.0
H255 H 0.61206 0.82158 0.87853 0.0
H256 H 0.68471 0.91089 1.00492 0.0
H257 H 0.65117 0.87557 0.06149 0.0
H258 H 0.71424 0.93564 0.04196 0.0
H259 H 0.68131 0.90087 0.09752 0.0
H260 H 0.66997 0.87602 0.8868 0.0
H261 H 0.68486 0.81989 0.93014 0.0
H262 H 0.55319 0.80335 0.02432 0.0
H263 H 0.6233 0.79729 0.0561 0.0
Li264 Li 0.50362 0.29766 0.1558 0.0
Li265 Li 0.5222 0.27929 0.19226 0.0
Li266 Li 0.4972 0.25557 0.15173 0.0
Li267 Li 0.48006 0.27693 0.18516 0.0
C268 C 0.54464 0.28905 0.14323 0.0
N269 N 0.57834 0.31409 0.11987 0.0
C270 C 0.5673 0.29747 0.15704 0.0
C271 C 0.53931 0.29288 0.11725 0.0
C272 C 0.58405 0.31019 0.14496 0.0
C273 C 0.55651 0.30575 0.10588 0.0
C274 C 0.50149 0.32177 0.21442 0.0
C275 C 0.50057 0.33415 0.2609 0.0
N276 N 0.49194 0.35375 0.25538 0.0
C277 C 0.49272 0.34209 0.20921 0.0
C278 C 0.50556 0.31779 0.24047 0.0
C279 C 0.48798 0.35803 0.2302 0.0
C280 C 0.49873 0.3274 0.11607 0.0
N281 N 0.50972 0.32564 0.14028 0.0
C282 C 0.53573 0.36303 0.14299 0.0
C283 C 0.52765 0.34306 0.15395 0.0
C284 C 0.52529 0.36505 0.11765 0.0
C285 C 0.50638 0.34706 0.10422 0.0
H286 H 0.48459 0.31319 0.1056 0.0
H287 H 0.53623 0.34095 0.17301 0.0
C288 C 0.55331 0.2694 0.2353 0.0
N289 N 0.54793 0.28572 0.22012 0.0
C290 C 0.57268 0.27553 0.25528 0.0
C291 C 0.57947 0.31573 0.24518 0.0
C292 C 0.56016 0.30871 0.22515 0.0
C293 C 0.58633 0.29885 0.26014 0.0
H294 H 0.54281 0.25159 0.23197 0.0
H295 H 0.55503 0.32153 0.21328 0.0
C296 C 0.45821 0.2584 0.1272 0.0
N297 N 0.43037 0.222 0.08942 0.0
C298 C 0.44108 0.24182 0.13456 0.0
C299 C 0.46118 0.25654 0.10066 0.0
C300 C 0.42717 0.22353 0.11515 0.0
C301 C 0.44693 0.23799 0.08185 0.0
C302 C 0.5059 0.23054 0.19387 0.0
C303 C 0.52574 0.22581 0.18334 0.0
C304 C 0.49498 0.21448 0.20834 0.0
C305 C 0.53432 0.20514 0.18757 0.0
C306 C 0.50415 0.19405 0.21218 0.0
N307 N 0.52344 0.18983 0.20178 0.0
C308 C 0.50908 0.22796 0.10773 0.0
C309 C 0.48601 0.20465 0.13234 0.0
C310 C 0.51595 0.20752 0.09529 0.0
N311 N 0.49553 0.22638 0.12698 0.0
C312 C 0.49277 0.18374 0.12072 0.0
C313 C 0.50904 0.18538 0.10312 0.0
H314 H 0.51637 0.24532 0.10374 0.0
H315 H 0.47517 0.20382 0.14764 0.0
C316 C 0.44546 0.29884 0.20564 0.0
N317 N 0.45778 0.28103 0.20795 0.0
C318 C 0.43665 0.3093 0.22743 0.0
C319 C 0.45143 0.28127 0.25265 0.0
C320 C 0.46017 0.27153 0.23045 0.0
C321 C 0.44047 0.3012 0.25172 0.0
H322 H 0.44464 0.30664 0.18784 0.0
H323 H 0.47075 0.25794 0.232 0.0
O324 O 0.52794 0.27675 0.15492 0.0
O325 O 0.50574 0.30568 0.19405 0.0
O326 O 0.47235 0.276 0.14605 0.0
O327 O 0.49669 0.2503 0.18942 0.0
H328 H 0.57203 0.29399 0.17677 0.0
H329 H 0.5219 0.28651 0.10616 0.0
H330 H 0.60162 0.31688 0.15551 0.0
H331 H 0.55247 0.30918 0.08597 0.0
H332 H 0.50344 0.33118 0.28112 0.0
H333 H 0.48938 0.34536 0.18914 0.0
H334 H 0.51213 0.30202 0.24482 0.0
H335 H 0.48106 0.37377 0.22646 0.0
H336 H 0.55051 0.37633 0.15387 0.0
H337 H 0.49774 0.3481 0.08475 0.0
H338 H 0.57731 0.26182 0.26614 0.0
H339 H 0.58913 0.33406 0.24858 0.0
H340 H 0.4387 0.24297 0.15508 0.0
H341 H 0.47456 0.26907 0.09472 0.0
H342 H 0.41389 0.2105 0.12054 0.0
H343 H 0.4491 0.23623 0.06125 0.0
H344 H 0.53444 0.23789 0.17202 0.0
H345 H 0.47949 0.21768 0.2164 0.0
H346 H 0.54961 0.20126 0.1795 0.0
H347 H 0.49588 0.1815 0.22337 0.0
H348 H 0.52857 0.20955 0.08192 0.0
H349 H 0.48699 0.1669 0.12714 0.0
H350 H 0.42863 0.32481 0.22577 0.0
H351 H 0.4544 0.27414 0.27075 0.0
Li352 Li 0.05162 0.82947 0.22976 0.0
Li353 Li 0.07852 0.81523 0.26422 0.0
Li354 Li 0.04811 0.78701 0.22861 0.0
Li355 Li 0.02915 0.8109 0.26263 0.0
C356 C 0.08907 0.82064 0.20857 0.0
N357 N 0.11475 0.8424 0.17465 0.0
C358 C 0.11142 0.83436 0.2181 0.0
C359 C 0.07983 0.81798 0.18176 0.0
C360 C 0.12412 0.8452 0.20064 0.0
C361 C 0.09306 0.82913 0.16494 0.0
C362 C 0.05946 0.86462 0.27054 0.0
C363 C 0.04263 0.90007 0.26891 0.0
N364 N 0.06428 0.91335 0.26992 0.0
C365 C 0.08155 0.87859 0.27158 0.0
C366 C 0.03983 0.87539 0.26924 0.0
C367 C 0.08362 0.90322 0.27127 0.0
C368 C 0.02727 0.85534 0.19585 0.0
N369 N 0.04908 0.85475 0.20801 0.0
C370 C 0.06509 0.88802 0.18836 0.0
C371 C 0.0678 0.87102 0.20485 0.0
C372 C 0.04279 0.88883 0.17514 0.0
C373 C 0.02372 0.87221 0.17944 0.0
H374 H 1.01248 0.84266 0.19891 0.0
H375 H 0.08498 0.87078 0.21495 0.0
C376 C 0.12306 0.7988 0.27315 0.0
N377 N 0.11289 0.81768 0.28193 0.0
C378 C 0.14703 0.79894 0.28117 0.0
C379 C 0.15085 0.83842 0.30669 0.0
C380 C 0.12656 0.83735 0.29859 0.0
C381 C 0.16169 0.81899 0.29809 0.0
H382 H 0.11274 0.7837 0.25902 0.0
H383 H 0.11887 0.85262 0.30525 0.0
C384 C 1.00638 0.7891 0.20525 0.0
N385 N 0.97446 0.75546 0.16823 0.0
C386 C 0.98889 0.77353 0.2134 0.0
C387 C 1.00758 0.78767 0.17828 0.0
C388 C 0.97292 0.75663 0.19438 0.0
C389 C 0.9913 0.7705 0.15987 0.0
C390 C 0.04674 0.76346 0.27014 0.0
C391 C 0.02439 0.75315 0.2738 0.0
C392 C 0.06376 0.74922 0.26819 0.0
C393 C 1.0194 0.72871 0.27533 0.0
C394 C 0.05807 0.72483 0.26973 0.0
N395 N 0.03619 0.71516 0.27325 0.0
C396 C 0.06075 0.75474 0.18804 0.0
C397 C 0.02918 0.73551 0.20568 0.0
C398 C 0.0608 0.73348 0.17069 0.0
N399 N 0.04514 0.7556 0.20518 0.0
C400 C 0.02906 0.71353 0.18916 0.0
C401 C 0.04516 0.71211 0.17127 0.0
H402 H 0.07346 0.77058 0.18784 0.0
H403 H 1.01668 0.73631 0.21916 0.0
C404 C 0.98282 0.82273 0.26313 0.0
N405 N 0.99834 0.81267 0.27778 0.0
C406 C 0.96015 0.82348 0.2692 0.0
C407 C 0.969 0.8037 0.30581 0.0
C408 C 0.99167 0.80339 0.29908 0.0
C409 C 0.95241 0.81367 0.29071 0.0
H410 H 0.98788 0.82998 0.24616 0.0
H411 H 1.00369 0.7952 0.31072 0.0
O412 O 0.07637 0.80983 0.22537 0.0
O413 O 0.057 0.84038 0.2701 0.0
O414 O 0.02247 0.80543 0.2236 0.0
O415 O 0.05185 0.78736 0.26856 0.0
H416 H 0.11885 0.83683 0.23877 0.0
H417 H 0.06256 0.80751 0.17404 0.0
H418 H 0.1414 0.85591 0.20777 0.0
H419 H 0.08607 0.82727 0.14418 0.0
H420 H 0.02758 0.90865 0.26779 0.0
H421 H 0.09686 0.87042 0.27216 0.0
H422 H 0.02261 0.86478 0.26828 0.0
H423 H 0.10059 0.91424 0.27191 0.0
H424 H 0.08049 0.90012 0.18572 0.0
H425 H 1.00608 0.87228 0.17046 0.0
H426 H 0.15417 0.78359 0.27335 0.0
H427 H 0.16104 0.85438 0.31973 0.0
H428 H 0.9878 0.77427 0.2342 0.0
H429 H 1.02094 0.79967 0.17165 0.0
H430 H 0.95935 0.74438 0.20041 0.0
H431 H 0.99206 0.76913 0.13893 0.0
H432 H 1.01096 0.76383 0.27514 0.0
H433 H 0.0811 0.75684 0.26533 0.0
H434 H 1.00213 0.72048 0.27804 0.0
H435 H 0.07104 0.71358 0.26811 0.0
H436 H 0.07314 0.73408 0.15694 0.0
H437 H 1.0167 0.69781 0.1909 0.0
H438 H 0.94886 0.83192 0.25694 0.0
H439 H 0.96445 0.79559 0.32244 0.0
Li440 Li 0.57073 0.86803 0.42508 0.0
Li441 Li 0.54156 0.8399 0.38976 0.0
Li442 Li 0.56954 0.82563 0.42442 0.0
Li443 Li 0.59108 0.84428 0.39148 0.0
C444 C 0.53409 0.8531 0.44934 0.0
N445 N 0.51533 0.87403 0.49132 0.0
C446 C 0.51261 0.86039 0.44484 0.0
C447 C 0.5459 0.85632 0.47525 0.0
C448 C 0.50345 0.87096 0.46631 0.0
C449 C 0.53618 0.86697 0.49619 0.0
C450 C 0.5712 0.89177 0.38536 0.0
C451 C 0.59729 0.9301 0.39099 0.0
N452 N 0.57857 0.941 0.38734 0.0
C453 C 0.55223 0.90331 0.38158 0.0
C454 C 0.59392 0.90521 0.39002 0.0
C455 C 0.55632 0.92823 0.38267 0.0
C456 C 0.59316 0.91164 0.46319 0.0
N457 N 0.57298 0.89981 0.44719 0.0
C458 C 0.55311 0.93104 0.46342 0.0
C459 C 0.55338 0.90954 0.44657 0.0
C460 C 0.5734 0.94323 0.48083 0.0
C461 C 0.59379 0.9335 0.48015 0.0
H462 H 0.60876 0.904 0.46305 0.0
H463 H 0.53774 0.90049 0.43306 0.0
C464 C 0.4905 0.82159 0.38211 0.0
N465 N 0.50704 0.83543 0.37172 0.0
C466 C 0.46628 0.82052 0.37428 0.0
C467 C 0.47565 0.84714 0.3441 0.0
C468 C 0.49977 0.84785 0.35264 0.0
C469 C 0.45808 0.83365 0.35514 0.0
H470 H 0.49605 0.81211 0.39762 0.0
H471 H 0.51265 0.85894 0.34433 0.0
C472 C 0.6133 0.84672 0.44991 0.0
N473 N 0.64472 0.83585 0.48875 0.0
C474 C 0.62947 0.83252 0.44298 0.0
C475 C 0.61333 0.85563 0.47662 0.0
C476 C 0.64515 0.82716 0.46289 0.0
C477 C 0.62929 0.84986 0.49595 0.0
C478 C 0.56082 0.79047 0.38208 0.0
C479 C 0.57868 0.77853 0.37545 0.0
C480 C 0.54007 0.77737 0.38701 0.0
C481 C 0.57551 0.7536 0.37407 0.0
C482 C 0.53759 0.75247 0.38546 0.0
N483 N 0.55522 0.7412 0.37908 0.0
C484 C 0.55706 0.79662 0.46402 0.0
C485 C 0.58855 0.7866 0.44353 0.0
C486 C 0.55969 0.77994 0.48097 0.0
N487 N 0.57174 0.80013 0.44608 0.0
C488 C 0.59173 0.76968 0.45996 0.0
C489 C 0.57746 0.76631 0.47942 0.0
H490 H 0.54336 0.80692 0.46546 0.0
H491 H 0.59975 0.78902 0.42884 0.0
C492 C 0.64134 0.85967 0.39075 0.0
N493 N 0.62197 0.84466 0.37584 0.0
C494 C 0.66401 0.85936 0.38442 0.0
C495 C 0.64715 0.82899 0.34643 0.0
C496 C 0.62471 0.82958 0.35373 0.0
C497 C 0.66756 0.84373 0.36205 0.0
H498 H 0.6394 0.87156 0.40836 0.0
H499 H 0.60958 0.81745 0.34191 0.0
O500 O 0.54358 0.84304 0.42854 0.0
O501 O 0.56761 0.86751 0.38511 0.0
O502 O 0.59774 0.85209 0.43065 0.0
O503 O 0.56373 0.8149 0.38403 0.0
H504 H 0.50335 0.85846 0.42496 0.0
H505 H 0.56237 0.85057 0.47914 0.0
H506 H 0.48694 0.87685 0.46306 0.0
H507 H 0.5452 0.86961 0.51631 0.0
H508 H 0.61477 0.94076 0.39471 0.0
H509 H 0.53453 0.89321 0.37829 0.0
H510 H 0.60878 0.89654 0.39313 0.0
H511 H 0.5418 0.93744 0.37996 0.0
H512 H 0.53713 0.93811 0.46277 0.0
H513 H 0.60988 0.94234 0.49312 0.0
H514 H 0.45417 0.81004 0.38409 0.0
H515 H 0.47098 0.85734 0.32894 0.0
H516 H 0.62958 0.82522 0.42246 0.0
H517 H 0.60129 0.86699 0.48242 0.0
H518 H 0.65759 0.816 0.45777 0.0
H519 H 0.62943 0.85659 0.51669 0.0
H520 H 0.59491 0.78845 0.37176 0.0
H521 H 0.52614 0.7864 0.39228 0.0
H522 H 0.58923 0.74412 0.36911 0.0
H523 H 0.52168 0.74211 0.38939 0.0
H524 H 0.54819 0.77822 0.49555 0.0
H525 H 0.60527 0.75927 0.45727 0.0
H526 H 0.67872 0.87143 0.39714 0.0
H527 H 0.64849 0.81642 0.32907 0.0
Li528 Li 0.5525 0.32971 0.72856 0.0
Li529 Li 0.5789 0.31489 0.76325 0.0
Li530 Li 0.54865 0.28691 0.72766 0.0
Li531 Li 0.52986 0.31121 0.76119 0.0
C532 C 0.58839 0.31578 0.70478 0.0
N533 N 0.61217 0.32813 0.66471 0.0
C534 C 0.61061 0.33038 0.7109 0.0
C535 C 0.57834 0.3073 0.6783 0.0
C536 C 0.62233 0.33646 0.69036 0.0
C537 C 0.59061 0.3138 0.65833 0.0
C538 C 0.5626 0.36481 0.76898 0.0
C539 C 0.5495 0.40219 0.76628 0.0
N540 N 0.57194 0.41337 0.7671 0.0
C541 C 0.58554 0.37664 0.76985 0.0
C542 C 0.54441 0.37763 0.76725 0.0
C543 C 0.58991 0.40123 0.76888 0.0
C544 C 0.52866 0.35735 0.69672 0.0
N545 N 0.55051 0.35475 0.7066 0.0
C546 C 0.56715 0.38607 0.68467 0.0
C547 C 0.56962 0.36904 0.70119 0.0
C548 C 0.54476 0.38887 0.67372 0.0
C549 C 0.52538 0.37427 0.6803 0.0
H550 H 0.51363 0.34628 0.70164 0.0
H551 H 0.58687 0.36733 0.70968 0.0
C552 C 0.62438 0.30212 0.76505 0.0
N553 N 0.61312 0.31666 0.78014 0.0
C554 C 0.64838 0.30204 0.77191 0.0
C555 C 0.6497 0.33146 0.81062 0.0
C556 C 0.62552 0.33126 0.80274 0.0
C557 C 0.66191 0.31671 0.79516 0.0
H558 H 0.61478 0.29076 0.74698 0.0
H559 H 0.61684 0.34305 0.81471 0.0
C560 C 0.50609 0.29262 0.70291 0.0
N561 N 0.47084 0.26638 0.66355 0.0
C562 C 0.48636 0.27902 0.70953 0.0
C563 C 0.5078 0.29307 0.67631 0.0
C564 C 0.46874 0.26583 0.68932 0.0
C565 C 0.48983 0.27961 0.65669 0.0
C566 C 0.54858 0.263 0.76653 0.0
C567 C 0.52597 0.2499 0.76464 0.0
C568 C 0.56739 0.25101 0.7664 0.0
C569 C 0.52252 0.22489 0.76253 0.0
C570 C 0.56322 0.22597 0.76422 0.0
N571 N 0.54106 0.21354 0.76233 0.0
C572 C 0.56701 0.25089 0.69798 0.0
C573 C 0.5265 0.23856 0.69718 0.0
C574 C 0.56789 0.2292 0.68184 0.0
N575 N 0.54649 0.25544 0.70509 0.0
C576 C 0.5266 0.21651 0.68099 0.0
C577 C 0.54749 0.2116 0.67283 0.0
H578 H 0.58287 0.26412 0.70502 0.0
H579 H 0.51045 0.24201 0.70353 0.0
C580 C 0.48499 0.326 0.76377 0.0
N581 N 0.49919 0.31306 0.77611 0.0
C582 C 0.4623 0.32681 0.76969 0.0
C583 C 0.46853 0.30118 0.80145 0.0
C584 C 0.49119 0.30077 0.79482 0.0
C585 C 0.4533 0.31416 0.78869 0.0
H586 H 0.49106 0.33542 0.74861 0.0
H587 H 0.50211 0.29008 0.80432 0.0
O588 O 0.57663 0.30963 0.72461 0.0
O589 O 0.55795 0.3406 0.76894 0.0
O590 O 0.52346 0.30576 0.72241 0.0
O591 O 0.55218 0.28736 0.76763 0.0
H592 H 0.61858 0.33725 0.7313 0.0
H593 H 0.5613 0.29573 0.67324 0.0
H594 H 0.63948 0.34787 0.6948 0.0
H595 H 0.58303 0.3074 0.63774 0.0
H596 H 0.53559 0.41233 0.76479 0.0
H597 H 0.59977 0.36687 0.77095 0.0
H598 H 0.52655 0.36866 0.7664 0.0
H599 H 0.60756 0.41062 0.76941 0.0
H600 H 0.58274 0.39665 0.68026 0.0
H601 H 0.50774 0.37599 0.6731 0.0
H602 H 0.65619 0.29073 0.75837 0.0
H603 H 0.65862 0.34314 0.8288 0.0
H604 H 0.48477 0.2784 0.73001 0.0
H605 H 0.52277 0.30381 0.67088 0.0
H606 H 0.45343 0.25512 0.69414 0.0
H607 H 0.49094 0.27974 0.63601 0.0
H608 H 0.51122 0.25894 0.76444 0.0
H609 H 0.58498 0.26091 0.76768 0.0
H610 H 0.50511 0.21449 0.76091 0.0
H611 H 0.57758 0.21642 0.76393 0.0
H612 H 0.58456 0.22615 0.67677 0.0
H613 H 0.51039 0.20359 0.67466 0.0
H614 H 0.45193 0.33746 0.75933 0.0
H615 H 0.46283 0.29077 0.81599 0.0
Li616 Li 0.07276 0.36974 0.92255 0.0
Li617 Li 0.04326 0.34051 0.88838 0.0
Li618 Li 0.07028 0.32716 0.92497 0.0
Li619 Li 0.09222 0.34483 0.89031 0.0
C620 C 0.03109 0.35712 0.94153 0.0
N621 N 1.00249 0.38029 0.97043 0.0
C622 C 1.01971 0.37404 0.93124 0.0
C623 C 0.02789 0.35191 0.96647 0.0
C624 C 1.00533 0.38558 0.94616 0.0
C625 C 1.01337 0.36384 0.98079 0.0
C626 C 0.07141 0.38931 0.87468 0.0
C627 C 0.09527 0.42323 0.86262 0.0
N628 N 0.07603 0.43313 0.85781 0.0
C629 C 0.05186 0.39976 0.86953 0.0
C630 C 0.09329 0.40107 0.87114 0.0
C631 C 0.05456 0.42196 0.86105 0.0
C632 C 0.07913 0.42287 0.93745 0.0
N633 N 0.07599 0.40139 0.94607 0.0
C634 C 0.07367 0.42191 0.98959 0.0
C635 C 0.07384 0.4008 0.97188 0.0
C636 C 0.07599 0.4442 0.98094 0.0
C637 C 0.07912 0.44443 0.95448 0.0
H638 H 0.08133 0.42355 0.9173 0.0
H639 H 0.07187 0.38378 0.97875 0.0
C640 C 0.99309 0.32365 0.88438 0.0
N641 N 1.00859 0.33559 0.87114 0.0
C642 C 0.96875 0.32225 0.87787 0.0
C643 C 0.97571 0.34464 0.84322 0.0
C644 C 1.00011 0.34572 0.85048 0.0
C645 C 0.95936 0.33324 0.85734 0.0
H646 H 0.99964 0.3158 0.90089 0.0
H647 H 1.01222 0.35544 0.84003 0.0
C648 C 0.11474 0.36785 0.94792 0.0
N649 N 0.14646 0.40101 0.98559 0.0
C650 C 0.12998 0.386 0.9402 0.0
C651 C 0.11568 0.36643 0.97474 0.0
C652 C 0.14588 0.40263 0.95956 0.0
C653 C 0.13184 0.38341 0.9935 0.0
C654 C 0.06262 0.29101 0.88524 0.0
C655 C 0.0822 0.28015 0.88595 0.0
C656 C 0.04081 0.27743 0.88633 0.0
C657 C 0.07964 0.2558 0.88792 0.0
C658 C 0.03898 0.25313 0.88827 0.0
N659 N 0.05827 0.24292 0.88905 0.0
C660 C 0.05372 0.29172 0.95662 0.0
C661 C 0.09413 0.29795 0.95443 0.0
C662 C 0.05613 0.27452 0.97299 0.0
N663 N 0.07261 0.30311 0.94774 0.0
C664 C 0.0973 0.28083 0.97059 0.0
C665 C 0.07818 0.26878 0.98023 0.0
H666 H 0.03672 0.29588 0.95089 0.0
H667 H 0.10892 0.30718 0.94716 0.0
C668 C 0.12983 0.35235 0.85441 0.0
N669 N 0.12311 0.34308 0.87567 0.0
C670 C 0.15254 0.3521 0.84784 0.0
C671 C 0.16131 0.33244 0.88457 0.0
C672 C 0.13861 0.33318 0.89052 0.0
C673 C 0.1691 0.34219 0.86304 0.0
H674 H 0.11781 0.36045 0.84266 0.0
H675 H 0.13349 0.32599 0.90751 0.0
O676 O 0.04543 0.34583 0.92733 0.0
O677 O 0.06912 0.36747 0.88263 0.0
O678 O 0.09872 0.35175 0.92933 0.0
O679 O 0.06493 0.31505 0.88451 0.0
H680 H 1.02209 0.37834 0.91202 0.0
H681 H 0.03669 0.33895 0.97477 0.0
H682 H 0.99646 0.39876 0.93848 0.0
H683 H 1.01079 0.36006 1.00016 0.0
H684 H 0.1121 0.43259 0.85989 0.0
H685 H 0.03481 0.39093 0.8722 0.0
H686 H 0.10861 0.39328 0.87516 0.0
H687 H 0.0396 0.43031 0.85708 0.0
H688 H 0.07172 0.42071 1.00988 0.0
H689 H 0.08088 0.46103 0.94668 0.0
H690 H 0.95739 0.31275 0.88929 0.0
H691 H 0.96984 0.35359 0.82733 0.0
H692 H 0.1294 0.38731 0.91949 0.0
H693 H 0.10391 0.35251 0.98099 0.0
H694 H 0.15773 0.41685 0.9539 0.0
H695 H 0.13271 0.38263 0.01435 0.0
H696 H 0.09921 0.29048 0.8853 0.0
H697 H 0.02554 0.28566 0.88599 0.0
H698 H 0.09466 0.24718 0.88865 0.0
H699 H 0.02224 0.24242 0.88928 0.0
H700 H 0.04079 0.26556 0.97956 0.0
H701 H 0.11468 0.27734 0.97578 0.0
H702 H 0.15713 0.36022 0.83122 0.0
H703 H 0.17258 0.32405 0.89693 0.0
Li704 Li 0.48062 0.14211 0.35539 0.0
Li705 Li 0.44327 0.12033 0.3245 0.0
Li706 Li 0.47628 0.13918 0.30543 0.0
Li707 Li 0.45221 0.1638 0.32745 0.0
C708 C 0.48785 0.09827 0.31619 0.0
N709 N 0.5141 0.06855 0.29173 0.0
C710 C 0.47721 0.07999 0.29487 0.0
C711 C 0.51178 0.10139 0.3252 0.0
C712 C 0.49081 0.06517 0.28272 0.0
C713 C 0.52476 0.08616 0.31254 0.0
C714 C 0.43109 0.13586 0.3716 0.0
C715 C 0.39142 0.1196 0.37583 0.0
N716 N 0.39908 0.11523 0.40025 0.0
C717 C 0.43851 0.1314 0.39687 0.0
C718 C 0.40729 0.13013 0.36113 0.0
C719 C 0.42209 0.12091 0.41099 0.0
C720 C 0.51232 0.15361 0.40852 0.0
N721 N 0.49834 0.13696 0.38863 0.0
C722 C 0.50296 0.1057 0.414 0.0
C723 C 0.49386 0.11337 0.3911 0.0
C724 C 0.51752 0.12222 0.43504 0.0
C725 C 0.52219 0.14659 0.43187 0.0
H726 H 0.51567 0.17236 0.40649 0.0
H727 H 0.4826 0.10037 0.37539 0.0
C728 C 0.39935 0.0857 0.30808 0.0
N729 N 0.42085 0.09187 0.32327 0.0
C730 C 0.3835 0.06566 0.31153 0.0
C731 C 0.41264 0.05851 0.34535 0.0
C732 C 0.42777 0.07852 0.34128 0.0
C733 C 0.39 0.05206 0.33076 0.0
H734 H 0.39426 0.09665 0.29391 0.0
H735 H 0.44494 0.08388 0.35305 0.0
C736 C 0.5084 0.17873 0.32664 0.0
N737 N 0.54976 0.19816 0.31151 0.0
C738 C 0.50809 0.19108 0.30533 0.0
C739 C 0.52973 0.17642 0.34041 0.0
C740 C 0.52919 0.20069 0.2979 0.0
C741 C 0.55047 0.18638 0.33244 0.0
C742 C 0.43057 0.15053 0.27887 0.0
C743 C 0.44253 0.16512 0.26372 0.0
C744 C 0.40658 0.14929 0.27821 0.0
C745 C 0.43031 0.1784 0.2483 0.0
C746 C 0.39498 0.16289 0.26257 0.0
N747 N 0.40699 0.17705 0.24808 0.0
C748 C 0.47775 0.12156 0.25149 0.0
C749 C 0.51585 0.13478 0.27568 0.0
C750 C 0.48668 0.11393 0.22851 0.0
N751 N 0.49224 0.13201 0.27454 0.0
C752 C 0.52557 0.12739 0.25306 0.0
C753 C 0.51096 0.11678 0.22888 0.0
H754 H 0.45907 0.11859 0.25101 0.0
H755 H 0.52724 0.14221 0.29423 0.0
C756 C 0.41423 0.18874 0.33283 0.0
N757 N 0.43617 0.19166 0.32652 0.0
C758 C 0.40008 0.20573 0.32912 0.0
C759 C 0.43156 0.2296 0.31376 0.0
C760 C 0.44503 0.21182 0.3173 0.0
C761 C 0.40853 0.22647 0.31925 0.0
H762 H 0.40732 0.17279 0.34003 0.0
H763 H 0.46235 0.21388 0.31204 0.0
O764 O 0.47502 0.1135 0.32771 0.0
O765 O 0.44707 0.14575 0.35731 0.0
O766 O 0.48798 0.1692 0.33426 0.0
O767 O 0.44241 0.13807 0.29485 0.0
H768 H 0.45871 0.07749 0.28762 0.0
H769 H 0.52027 0.11561 0.34157 0.0
H770 H 0.48286 0.05104 0.26608 0.0
H771 H 0.54333 0.08843 0.31919 0.0
H772 H 0.37302 0.11476 0.36775 0.0
H773 H 0.45672 0.13615 0.40563 0.0
H774 H 0.40117 0.13301 0.34147 0.0
H775 H 0.42763 0.11732 0.43052 0.0
H776 H 0.49797 0.08689 0.41525 0.0
H777 H 0.53337 0.16018 0.44719 0.0
H778 H 0.3662 0.06128 0.29984 0.0
H779 H 0.41865 0.04823 0.35989 0.0
H780 H 0.49175 0.19316 0.29457 0.0
H781 H 0.53025 0.16694 0.35698 0.0
H782 H 0.5292 0.21016 0.28134 0.0
H783 H 0.56711 0.18467 0.34285 0.0
H784 H 0.46109 0.16634 0.26401 0.0
H785 H 0.3971 0.13836 0.29008 0.0
H786 H 0.43938 0.18985 0.23659 0.0
H787 H 0.37647 0.1623 0.26209 0.0
H788 H 0.47453 0.1053 0.21075 0.0
H789 H 0.54437 0.13006 0.25454 0.0
H790 H 0.38262 0.20266 0.33404 0.0
H791 H 0.43886 0.24532 0.30613 0.0
Li792 Li 0.28557 0.16174 0.50596 0.0
Li793 Li 0.28928 0.12632 0.47806 0.0
Li794 Li 0.27507 0.15856 0.45891 0.0
Li795 Li 0.24982 0.13305 0.48466 0.0
C796 C 0.32654 0.17437 0.49091 0.0
N797 N 0.36768 0.20535 0.51484 0.0
C798 C 0.34623 0.16523 0.49955 0.0
C799 C 0.32784 0.19931 0.49447 0.0
C800 C 0.36685 0.18118 0.51158 0.0
C801 C 0.34877 0.21466 0.50662 0.0
C802 C 0.28466 0.12914 0.53653 0.0
C803 C 0.28035 0.13281 0.58261 0.0
N804 N 0.30354 0.13304 0.58914 0.0
C805 C 0.30845 0.12937 0.54371 0.0
C806 C 0.27047 0.1308 0.55612 0.0
C807 C 0.31766 0.13134 0.5704 0.0
C808 C 0.27926 0.19612 0.54606 0.0
N809 N 0.29607 0.18438 0.53815 0.0
C810 C 0.32361 0.20635 0.5756 0.0
C811 C 0.31783 0.18875 0.5527 0.0
C812 C 0.30672 0.21929 0.58356 0.0
C813 C 0.28422 0.21375 0.56867 0.0
H814 H 0.26184 0.1917 0.53489 0.0
H815 H 0.33073 0.17864 0.54668 0.0
C816 C 0.32608 0.10658 0.45958 0.0
N817 N 0.30863 0.10296 0.47415 0.0
C818 C 0.345 0.09495 0.46309 0.0
C819 C 0.32634 0.07431 0.49442 0.0
C820 C 0.30772 0.08622 0.49017 0.0
C821 C 0.3459 0.07966 0.48189 0.0
H822 H 0.32636 0.12012 0.44709 0.0
H823 H 0.2936 0.08377 0.50153 0.0
C824 C 0.24538 0.18535 0.47979 0.0
N825 N 0.2216 0.21981 0.46405 0.0
C826 C 0.22189 0.17885 0.46814 0.0
C827 C 0.25671 0.20941 0.48363 0.0
C828 C 0.21018 0.19654 0.46031 0.0
C829 C 0.24441 0.22654 0.47544 0.0
C830 C 0.26453 0.1038 0.43377 0.0
C831 C 0.27717 0.1069 0.41309 0.0
C832 C 0.25699 0.08068 0.43873 0.0
C833 C 0.28217 0.08669 0.3977 0.0
C834 C 0.26235 0.06093 0.4229 0.0
N835 N 0.27473 0.06433 0.4029 0.0
C836 C 0.29732 0.19056 0.43114 0.0
C837 C 0.25629 0.18378 0.41899 0.0
C838 C 0.30004 0.21033 0.41845 0.0
N839 N 0.27571 0.17849 0.43237 0.0
C840 C 0.25821 0.20322 0.40537 0.0
C841 C 0.28033 0.21736 0.40569 0.0
H842 H 0.31253 0.1856 0.44116 0.0
H843 H 0.23926 0.17365 0.41984 0.0
C844 C 0.21595 0.13825 0.51356 0.0
N845 N 0.21962 0.12272 0.49264 0.0
C846 C 0.19516 0.13443 0.52358 0.0
C847 C 0.18189 0.09837 0.4904 0.0
C848 C 0.20324 0.10292 0.48094 0.0
C849 C 0.17763 0.11445 0.51189 0.0
H850 H 0.22941 0.15368 0.52261 0.0
H851 H 0.20668 0.09076 0.46439 0.0
O852 O 0.30626 0.15904 0.47862 0.0
O853 O 0.27541 0.12759 0.51051 0.0
O854 O 0.25721 0.16827 0.48746 0.0
O855 O 0.26011 0.1234 0.44952 0.0
H856 H 0.34562 0.14606 0.49728 0.0
H857 H 0.3128 0.20675 0.48804 0.0
H858 H 0.38218 0.17433 0.5184 0.0
H859 H 0.34996 0.23398 0.50954 0.0
H860 H 0.26957 0.13418 0.59798 0.0
H861 H 0.31979 0.12849 0.5289 0.0
H862 H 0.25203 0.13055 0.55099 0.0
H863 H 0.33606 0.1317 0.57622 0.0
H864 H 0.34109 0.20991 0.58678 0.0
H865 H 0.27042 0.22268 0.57466 0.0
H866 H 0.35949 0.09922 0.45261 0.0
H867 H 0.32627 0.06275 0.50914 0.0
H868 H 0.21287 0.1603 0.46488 0.0
H869 H 0.27483 0.21477 0.49275 0.0
H870 H 0.19204 0.19175 0.45115 0.0
H871 H 0.253 0.2452 0.47815 0.0
H872 H 0.28324 0.12475 0.40916 0.0
H873 H 0.24733 0.07806 0.45483 0.0
H874 H 0.29203 0.08879 0.38169 0.0
H875 H 0.25673 0.04292 0.42657 0.0
H876 H 0.3175 0.2205 0.41974 0.0
H877 H 0.24251 0.20733 0.39521 0.0
H878 H 0.19294 0.147 0.54054 0.0
H879 H 0.1688 0.08275 0.48083 0.0
Li880 Li 0.21738 0.09445 0.84402 0.0
Li881 Li 0.18412 0.06715 0.86582 0.0
Li882 Li 0.21406 0.04208 0.8408 0.0
Li883 Li 0.18377 0.06311 0.81573 0.0
C884 C 0.22534 0.07495 0.90014 0.0
N885 N 0.23237 0.08077 0.95471 0.0
C886 C 0.22702 0.09769 0.91542 0.0
C887 C 0.22719 0.05516 0.91252 0.0
C888 C 0.2306 0.10026 0.94302 0.0
C889 C 0.23077 0.05848 0.94017 0.0
C890 C 0.16472 0.10376 0.83874 0.0
C891 C 0.12358 0.10265 0.82626 0.0
N892 N 0.12765 0.12714 0.83101 0.0
C893 C 0.1685 0.12891 0.84359 0.0
C894 C 0.14209 0.0905 0.8301 0.0
C895 C 0.14953 0.1404 0.83953 0.0
C896 C 0.22547 0.14065 0.8227 0.0
N897 N 0.23535 0.13001 0.84217 0.0
C898 C 0.26492 0.1672 0.85591 0.0
C899 C 0.25499 0.14319 0.85865 0.0
C900 C 0.25486 0.17876 0.83608 0.0
C901 C 0.23475 0.16444 0.81935 0.0
H902 H 0.20993 0.13071 0.80952 0.0
H903 H 0.26309 0.13532 0.87431 0.0
C904 C 0.16365 0.05178 0.91392 0.0
N905 N 0.16379 0.06835 0.89741 0.0
C906 C 0.14998 0.05195 0.93479 0.0
C907 C 0.13596 0.08597 0.92201 0.0
C908 C 0.15004 0.0853 0.90148 0.0
C909 C 0.13557 0.06922 0.93956 0.0
H910 H 0.17416 0.03809 0.91099 0.0
H911 H 0.14985 0.09865 0.88882 0.0
C912 C 0.21784 0.06076 0.7874 0.0
N913 N 0.21422 0.0502 0.73296 0.0
C914 C 0.21368 0.03682 0.77443 0.0
C915 C 0.22036 0.07935 0.77274 0.0
C916 C 0.21187 0.03184 0.74688 0.0
C917 C 0.21841 0.07363 0.74521 0.0
C918 C 0.16001 0.01892 0.82624 0.0
C919 C 0.1632 0.99913 0.80861 0.0
C920 C 0.13773 0.02037 0.83212 0.0
C921 C 0.1439 0.98123 0.79675 0.0
C922 C 0.11887 1.00212 0.81984 0.0
N923 N 0.12231 0.98311 0.80254 0.0
C924 C 0.25174 1.00938 0.83083 0.0
C925 C 0.21865 0.98888 0.84409 0.0
C926 C 0.26162 0.98796 0.82839 0.0
N927 N 0.23037 1.00999 0.83864 0.0
C928 C 0.22784 0.96707 0.84168 0.0
C929 C 0.24986 0.96575 0.83363 0.0
H930 H 0.26138 0.02557 0.82609 0.0
H931 H 0.20176 0.98863 0.85026 0.0
C932 C 0.16324 0.08401 0.77253 0.0
N933 N 0.16401 0.0622 0.7799 0.0
C934 C 0.15081 0.08583 0.74794 0.0
C935 C 0.14038 0.04269 0.73778 0.0
C936 C 0.15288 0.04168 0.76277 0.0
C937 C 0.13899 0.06504 0.72987 0.0
H938 H 0.17261 0.10026 0.78566 0.0
H939 H 0.15384 0.02436 0.76818 0.0
O940 O 0.22111 0.07194 0.87314 0.0
O941 O 0.18309 0.09219 0.84247 0.0
O942 O 0.21867 0.06587 0.81422 0.0
O943 O 0.1787 0.03651 0.83819 0.0
H944 H 0.22543 0.11313 0.90605 0.0
H945 H 0.22572 0.0374 0.90088 0.0
H946 H 0.2319 0.11774 0.95514 0.0
H947 H 0.23219 0.04333 0.95006 0.0
H948 H 0.10598 0.09261 0.81945 0.0
H949 H 0.18588 0.13944 0.85057 0.0
H950 H 0.13891 0.07104 0.82613 0.0
H951 H 0.15219 0.15986 0.8432 0.0
H952 H 0.28021 0.17676 0.86976 0.0
H953 H 0.22603 0.17136 0.80329 0.0
H954 H 0.15058 0.03817 0.94689 0.0
H955 H 0.12574 0.09998 0.92432 0.0
H956 H 0.21166 0.02224 0.78553 0.0
H957 H 0.22356 0.09796 0.78248 0.0
H958 H 0.20852 1.01339 0.73656 0.0
H959 H 0.22017 0.08783 0.73359 0.0
H960 H 0.18036 0.99768 0.80397 0.0
H961 H 0.13507 0.03534 0.84616 0.0
H962 H 0.14607 0.96587 0.78294 0.0
H963 H 0.1015 1.00304 0.82412 0.0
H964 H 0.27841 0.9889 0.82182 0.0
H965 H 0.21755 0.95129 0.8465 0.0
H966 H 0.15095 0.10354 0.74296 0.0
H967 H 0.13165 0.02601 0.7249 0.0
Li968 Li 0.22832 0.94333 0.08329 0.0
Li969 Li 0.2528 0.91728 0.10482 0.0
Li970 Li 0.27127 0.95112 0.08656 0.0
Li971 Li 0.25088 0.91342 0.0546 0.0
C972 C 0.25034 0.9718 0.13258 0.0
N973 N 0.24408 1.0116 0.16656 0.0
C974 C 0.24945 0.9708 0.15927 0.0
C975 C 0.24763 0.99292 0.12314 0.0
C976 C 0.24641 0.99115 0.17616 0.0
C977 C 0.24458 1.01288 0.14062 0.0
C978 C 0.2111 0.8879 0.08478 0.0
C979 C 0.19614 0.84559 0.08209 0.0
N980 N 0.18517 0.85095 0.10319 0.0
C981 C 0.19962 0.89303 0.10635 0.0
C982 C 0.20935 0.86403 0.07247 0.0
C983 C 0.18663 0.87407 0.1154 0.0
C984 C 0.1924 0.96924 0.06375 0.0
N985 N 0.20126 0.96057 0.08523 0.0
C986 C 0.17694 0.98104 0.11155 0.0
C987 C 0.19341 0.96589 0.10875 0.0
C988 C 0.16775 0.99055 0.0898 0.0
C989 C 0.17562 0.98408 0.06556 0.0
H990 H 0.19873 0.96509 0.0452 0.0
H991 H 0.20041 0.95893 0.12574 0.0
C992 C 0.27529 0.91569 0.15597 0.0
N993 N 0.25964 0.90124 0.13577 0.0
C994 C 0.28334 0.90699 0.17868 0.0
C995 C 0.2595 0.86821 0.1597 0.0
C996 C 0.25189 0.8777 0.1372 0.0
C997 C 0.27545 0.88291 0.18107 0.0
H998 H 0.28208 0.93403 0.15417 0.0
H999 H 0.24012 0.86606 0.12079 0.0
C1000 C 0.2583 0.96599 0.04224 0.0
N1001 N 0.28138 1.00212 0.01998 0.0
C1002 C 0.27618 0.96168 0.02789 0.0
C1003 C 0.25203 0.98863 0.04506 0.0
C1004 C 0.28768 0.98019 0.01687 0.0
C1005 C 0.26392 1.00667 0.03369 0.0
C1006 C 0.28924 0.90095 0.09095 0.0
C1007 C 0.30909 0.9075 0.11044 0.0
C1008 C 0.28025 0.8766 0.08085 0.0
C1009 C 0.31966 0.88952 0.1195 0.0
C1010 C 0.29134 0.85917 0.09039 0.0
N1011 N 0.31064 0.86594 0.10937 0.0
C1012 C 0.30081 0.99887 0.09543 0.0
C1013 C 0.31786 0.96495 0.08343 0.0
C1014 C 0.32179 1.01444 0.09521 0.0
N1015 N 0.29925 0.97458 0.08963 0.0
C1016 C 0.33912 0.97975 0.08322 0.0
C1017 C 0.34128 1.00483 0.08911 0.0
H1018 H 0.28577 1.0063 0.09959 0.0
H1019 H 0.31607 0.94569 0.0779 0.0
C1020 C 0.23938 0.88432 0.99881 0.0
N1021 N 0.256 0.89467 0.0203 0.0
C1022 C 0.24565 0.87306 0.97513 0.0
C1023 C 0.28585 0.88306 0.99591 0.0
C1024 C 0.2789 0.89411 0.01896 0.0
C1025 C 0.26928 0.87223 0.97329 0.0
H1026 H 0.22126 0.88501 0.9998 0.0
H1027 H 0.29209 0.90283 0.03574 0.0
O1028 O 0.25262 0.95181 0.11559 0.0
O1029 O 0.22388 0.90618 0.07565 0.0
O1030 O 0.24739 0.94827 0.05389 0.0
O1031 O 0.27807 0.91821 0.08255 0.0
H1032 H 0.25082 0.95443 0.16686 0.0
H1033 H 0.24726 0.99367 0.10239 0.0
H1034 H 0.24575 0.99063 0.19686 0.0
H1035 H 0.24241 0.02931 0.1335 0.0
H1036 H 0.19464 0.82701 0.07281 0.0
H1037 H 0.20086 0.91145 0.11606 0.0
H1038 H 0.21813 0.85983 0.0557 0.0
H1039 H 0.17771 0.87774 0.13215 0.0
H1040 H 0.17129 0.98508 0.13055 0.0
H1041 H 0.16925 0.9909 0.04816 0.0
H1042 H 0.29608 0.91904 0.19402 0.0
H1043 H 0.25277 0.84955 0.16037 0.0
H1044 H 0.2814 0.94436 0.02568 0.0
H1045 H 0.23823 0.99234 0.05601 0.0
H1046 H 0.30169 0.97715 1.00593 0.0
H1047 H 0.25931 0.0243 0.03582 0.0
H1048 H 0.31606 0.92626 0.11878 0.0
H1049 H 0.2647 0.87123 0.06603 0.0
H1050 H 0.33496 0.89432 0.13468 0.0
H1051 H 0.28453 0.84026 0.08282 0.0
H1052 H 0.32276 0.03373 0.09969 0.0
H1053 H 0.35354 0.97161 0.07773 0.0
H1054 H 0.23204 0.86498 0.95849 0.0
H1055 H 0.3043 0.88365 0.99573 0.0
Li1056 Li 0.33357 0.51998 0.16931 0.0
Li1057 Li 0.35349 0.49289 0.19269 0.0
Li1058 Li 0.37381 0.51901 0.16477 0.0
Li1059 Li 0.34292 0.48445 0.1451 0.0
C1060 C 0.35779 0.54663 0.2169 0.0
N1061 N 0.34952 0.58235 0.25483 0.0
C1062 C 0.34285 0.54082 0.23481 0.0
C1063 C 0.36866 0.57056 0.21836 0.0
C1064 C 0.33886 0.55915 0.25383 0.0
C1065 C 0.36421 0.58838 0.23765 0.0
C1066 C 0.30635 0.46505 0.16722 0.0
C1067 C 0.29754 0.42213 0.16602 0.0
N1068 N 0.27469 0.42193 0.15724 0.0
C1069 C 0.28276 0.46442 0.15829 0.0
C1070 C 0.31379 0.44373 0.17118 0.0
C1071 C 0.26704 0.44244 0.15331 0.0
C1072 C 0.29344 0.52654 0.1445 0.0
N1073 N 0.30888 0.53736 0.1666 0.0
C1074 C 0.28593 0.5675 0.17561 0.0
C1075 C 0.30574 0.55766 0.18208 0.0
C1076 C 0.26944 0.55616 0.15317 0.0
C1077 C 0.27352 0.53557 0.13744 0.0
H1078 H 0.29675 0.51077 0.13225 0.0
H1079 H 0.31847 0.56631 0.19923 0.0
C1080 C 0.37323 0.4635 0.22346 0.0
N1081 N 0.35527 0.4755 0.22086 0.0
C1082 C 0.37137 0.44353 0.23603 0.0
C1083 C 0.33341 0.45005 0.24505 0.0
C1084 C 0.33593 0.46977 0.23209 0.0
C1085 C 0.35084 0.436 0.24615 0.0
H1086 H 0.38817 0.46825 0.21392 0.0
H1087 H 0.32157 0.47911 0.22894 0.0
C1088 C 0.34622 0.53622 0.12396 0.0
N1089 N 0.34361 0.5753 0.09906 0.0
C1090 C 0.34139 0.53291 0.09635 0.0
C1091 C 0.34966 0.55939 0.13892 0.0
C1092 C 0.34019 0.55291 0.08412 0.0
C1093 C 0.34826 0.57891 0.12596 0.0
C1094 C 0.38792 0.47594 0.14911 0.0
C1095 C 0.38784 0.48286 0.1243 0.0
C1096 C 0.40312 0.46104 0.15688 0.0
C1097 C 0.40312 0.47499 0.10788 0.0
C1098 C 0.41811 0.45353 0.13987 0.0
N1099 N 0.41782 0.46063 0.11594 0.0
C1100 C 0.42259 0.52829 0.17364 0.0
C1101 C 0.40688 0.54811 0.14052 0.0
C1102 C 0.44478 0.53364 0.16666 0.0
N1103 N 0.40404 0.53482 0.15995 0.0
C1104 C 0.42882 0.55424 0.13326 0.0
C1105 C 0.4479 0.54618 0.1457 0.0
H1106 H 0.41984 0.51742 0.18872 0.0
H1107 H 0.39207 0.55269 0.12934 0.0
C1108 C 0.31847 0.4615 0.09472 0.0
N1109 N 0.33216 0.45863 0.11677 0.0
C1110 C 0.31157 0.44254 0.07322 0.0
C1111 C 0.33184 0.41778 0.09842 0.0
C1112 C 0.33863 0.43728 0.11916 0.0
C1113 C 0.3187 0.42047 0.07477 0.0
H1114 H 0.3134 0.47867 0.09364 0.0
H1115 H 0.34934 0.43549 0.13711 0.0
O1116 O 0.36213 0.52895 0.19833 0.0
O1117 O 0.32204 0.48643 0.17206 0.0
O1118 O 0.34696 0.51677 0.13624 0.0
O1119 O 0.37334 0.48369 0.16578 0.0
H1120 H 0.33433 0.52239 0.23393 0.0
H1121 H 0.38043 0.57529 0.20474 0.0
H1122 H 0.32726 0.55495 0.26776 0.0
H1123 H 0.37245 0.60699 0.23898 0.0
H1124 H 0.30312 0.40551 0.16892 0.0
H1125 H 0.27655 0.4807 0.15538 0.0
H1126 H 0.33198 0.44375 0.17782 0.0
H1127 H 0.24874 0.44171 0.14638 0.0
H1128 H 0.28338 0.58352 0.18812 0.0
H1129 H 0.26153 0.52663 0.11965 0.0
H1130 H 0.38522 0.43326 0.23624 0.0
H1131 H 0.31752 0.44525 0.25307 0.0
H1132 H 0.33868 0.5151 0.08448 0.0
H1133 H 0.35342 0.56225 0.1603 0.0
H1134 H 0.33652 0.55063 0.06276 0.0
H1135 H 0.35089 0.59694 0.13729 0.0
H1136 H 0.37623 0.49425 0.11772 0.0
H1137 H 0.40341 0.45532 0.17586 0.0
H1138 H 0.40329 0.48033 0.08873 0.0
H1139 H 0.42998 0.44206 0.1457 0.0
H1140 H 0.45912 0.52712 0.17672 0.0
H1141 H 0.43045 0.56364 0.11674 0.0
H1142 H 0.30168 0.44551 0.05526 0.0
H1143 H 0.33735 0.40097 0.10065 0.0
Li1144 Li 0.86898 0.24062 0.0988 0.0
Li1145 Li 0.8918 0.21112 0.06884 0.0
Li1146 Li 0.86539 0.23681 0.04867 0.0
Li1147 Li 0.84921 0.20345 0.06722 0.0
C1148 C 0.90337 0.26816 0.06622 0.0
N1149 N 0.91825 0.30742 0.04347 0.0
C1150 C 0.91549 0.26551 0.0448 0.0
C1151 C 0.89884 0.29073 0.07614 0.0
C1152 C 0.92286 0.2856 0.03355 0.0
C1153 C 0.90652 0.31038 0.06435 0.0
C1154 C 0.86663 0.18558 0.10843 0.0
C1155 C 0.8667 0.14358 0.10937 0.0
N1156 N 0.85162 0.14388 0.12717 0.0
C1157 C 0.85125 0.18551 0.12685 0.0
C1158 C 0.87449 0.16447 0.09966 0.0
C1159 C 0.8438 0.16423 0.13602 0.0
C1160 C 0.84146 0.25049 0.13765 0.0
N1161 N 0.86366 0.25811 0.13347 0.0
C1162 C 0.87122 0.28556 0.17548 0.0
C1163 C 0.87851 0.27562 0.15181 0.0
C1164 C 0.84849 0.27734 0.18053 0.0
C1165 C 0.83359 0.25975 0.1608 0.0
H1166 H 0.82967 0.23693 0.12284 0.0
H1167 H 0.89605 0.2818 0.1483 0.0
C1168 C 0.92176 0.18377 0.04123 0.0
N1169 N 0.91901 0.19447 0.06578 0.0
C1170 C 0.93855 0.16908 0.03802 0.0
C1171 C 0.95062 0.17756 0.08526 0.0
C1172 C 0.93325 0.19166 0.08763 0.0
C1173 C 0.95334 0.16565 0.0602 0.0
H1174 H 0.91052 0.18618 0.02396 0.0
H1175 H 0.93081 0.19992 0.10706 0.0
C1176 C 0.82644 0.25053 0.0655 0.0
N1177 N 0.79646 0.28091 0.05289 0.0
C1178 C 0.80789 0.24271 0.04445 0.0
C1179 C 0.82961 0.27376 0.08026 0.0
C1180 C 0.79298 0.25836 0.03834 0.0
C1181 C 0.81428 0.28885 0.07356 0.0
C1182 C 0.85354 0.18356 0.0195 0.0
C1183 C 0.83299 0.18663 1.00468 0.0
C1184 C 0.85991 0.16096 0.01632 0.0
C1185 C 0.8191 0.16702 0.98697 0.0
C1186 C 0.84557 0.1418 0.99837 0.0
N1187 N 0.82563 0.14519 0.9842 0.0
C1188 C 0.8609 0.24219 0.99364 0.0
C1189 C 0.85248 0.27547 0.02103 0.0
C1190 C 0.85363 0.2513 0.97086 0.0
N1191 N 0.85961 0.25388 0.01824 0.0
C1192 C 0.8446 0.285 0.99877 0.0
C1193 C 0.84458 0.27273 0.97294 0.0
H1194 H 0.86711 0.22538 0.99156 0.0
H1195 H 0.85224 0.28513 0.04054 0.0
C1196 C 0.80303 0.18753 0.07168 0.0
N1197 N 0.82215 0.17892 0.06546 0.0
C1198 C 0.78245 0.17184 0.07237 0.0
C1199 C 0.80158 0.13835 0.06117 0.0
C1200 C 0.82184 0.15479 0.06036 0.0
C1201 C 0.78154 0.14692 0.06711 0.0
H1202 H 0.80384 0.20665 0.07678 0.0
H1203 H 0.83739 0.14825 0.05627 0.0
O1204 O 0.89532 0.24859 0.07689 0.0
O1205 O 0.87386 0.2061 0.09885 0.0
O1206 O 0.84116 0.23539 0.07188 0.0
O1207 O 0.86727 0.20258 0.03705 0.0
H1208 H 0.91893 0.24807 0.0368 0.0
H1209 H 0.88932 0.29297 0.09261 0.0
H1210 H 0.93216 0.28383 0.01687 0.0
H1211 H 0.90308 0.32795 0.07173 0.0
H1212 H 0.87254 0.12709 0.10264 0.0
H1213 H 0.845 0.20163 0.13389 0.0
H1214 H 0.88617 0.16408 0.08519 0.0
H1215 H 0.8318 0.16389 0.15016 0.0
H1216 H 0.88345 0.29903 0.18998 0.0
H1217 H 0.81581 0.25303 0.16321 0.0
H1218 H 0.94008 0.16065 0.01828 0.0
H1219 H 0.96145 0.17548 0.10303 0.0
H1220 H 0.80498 0.22472 0.03301 0.0
H1221 H 0.84398 0.28027 0.09642 0.0
H1222 H 0.77862 0.25256 0.02205 0.0
H1223 H 0.81662 0.30691 0.08471 0.0
H1224 H 0.8278 0.20396 1.00686 0.0
H1225 H 0.87548 0.15806 0.02797 0.0
H1226 H 0.80312 0.16915 0.97542 0.0
H1227 H 0.85023 0.12419 0.99583 0.0
H1228 H 0.85503 0.24138 0.95178 0.0
H1229 H 0.83794 0.30152 1.002 0.0
H1230 H 0.76756 0.17919 0.07777 0.0
H1231 H 0.80159 0.11921 0.05726 0.0
Li1232 Li 0.17846 0.53343 0.32876 0.0
Li1233 Li 0.14576 0.51568 0.34685 0.0
Li1234 Li 0.171 0.48939 0.32559 0.0
Li1235 Li 0.14265 0.51221 0.29711 0.0
C1236 C 0.19722 0.52619 0.37686 0.0
N1237 N 0.23406 0.55013 0.41561 0.0
C1238 C 0.19495 0.54676 0.39396 0.0
C1239 C 0.21813 0.51764 0.37964 0.0
C1240 C 0.2138 0.55866 0.41336 0.0
C1241 C 0.23658 0.53003 0.39932 0.0
C1242 C 0.1354 0.55847 0.3323 0.0
C1243 C 0.10151 0.57685 0.32685 0.0
N1244 N 0.11158 0.59451 0.34785 0.0
C1245 C 0.14553 0.57693 0.35364 0.0
C1246 C 0.1133 0.5585 0.31862 0.0
C1247 C 0.13316 0.59494 0.36128 0.0
C1248 C 0.1932 0.57788 0.31667 0.0
N1249 N 0.20172 0.56161 0.32984 0.0
C1250 C 0.24048 0.58479 0.33565 0.0
C1251 C 0.22489 0.56474 0.33952 0.0
C1252 C 0.23208 0.60145 0.32141 0.0
C1253 C 0.20805 0.59797 0.3123 0.0
H1254 H 0.17487 0.57491 0.30876 0.0
H1255 H 0.23149 0.55128 0.34919 0.0
C1256 C 0.13877 0.51626 0.40087 0.0
N1257 N 0.1289 0.52077 0.37731 0.0
C1258 C 0.12954 0.5224 0.42412 0.0
C1259 C 0.09951 0.53702 0.39859 0.0
C1260 C 0.10913 0.53024 0.37576 0.0
C1261 C 0.10995 0.53364 0.42351 0.0
H1262 H 0.15423 0.50834 0.4018 0.0
H1263 H 0.101 0.53315 0.3569 0.0
C1264 C 0.19659 0.51611 0.28744 0.0
N1265 N 0.23779 0.53307 0.27034 0.0
C1266 C 0.19631 0.52848 0.26615 0.0
C1267 C 0.21782 0.51223 0.29991 0.0
C1268 C 0.21733 0.53698 0.25785 0.0
C1269 C 0.23846 0.52094 0.29098 0.0
C1270 C 0.11679 0.47574 0.33 0.0
C1271 C 0.12056 0.46176 0.34948 0.0
C1272 C 0.09468 0.48104 0.32337 0.0
C1273 C 0.10203 0.45324 0.36203 0.0
C1274 C 0.07662 0.47223 0.33642 0.0
N1275 N 0.08064 0.45864 0.35531 0.0
C1276 C 0.19234 0.45416 0.35004 0.0
C1277 C 0.19528 0.45257 0.30473 0.0
C1278 C 0.20662 0.43687 0.352 0.0
N1279 N 0.18712 0.46189 0.32671 0.0
C1280 C 0.20962 0.43533 0.30582 0.0
C1281 C 0.21576 0.42725 0.32974 0.0
H1282 H 0.18596 0.46193 0.36743 0.0
H1283 H 0.19132 0.45913 0.28646 0.0
C1284 C 0.13432 0.5391 0.2579 0.0
N1285 N 0.12588 0.517 0.26314 0.0
C1286 C 0.12503 0.54681 0.2351 0.0
C1287 C 0.09793 0.50898 0.22281 0.0
C1288 C 0.10794 0.50186 0.24605 0.0
C1289 C 0.10633 0.53194 0.21707 0.0
H1290 H 0.14849 0.55093 0.27159 0.0
H1291 H 0.10123 0.48437 0.25045 0.0
O1292 O 0.1789 0.51421 0.35786 0.0
O1293 O 0.14722 0.54068 0.32447 0.0
O1294 O 0.17629 0.50823 0.29642 0.0
O1295 O 0.13487 0.48487 0.3181 0.0
H1296 H 0.17876 0.55338 0.39234 0.0
H1297 H 0.2202 0.50174 0.36659 0.0
H1298 H 0.21231 0.57465 0.42669 0.0
H1299 H 0.25291 0.5237 0.4016 0.0
H1300 H 0.08433 0.57701 0.31657 0.0
H1301 H 0.16279 0.57741 0.3641 0.0
H1302 H 0.10523 0.54434 0.30204 0.0
H1303 H 0.14074 0.60929 0.37783 0.0
H1304 H 0.25894 0.58676 0.34283 0.0
H1305 H 0.20076 0.61057 0.30161 0.0
H1306 H 0.13793 0.51851 0.44243 0.0
H1307 H 0.08447 0.54557 0.39667 0.0
H1308 H 0.18008 0.53153 0.25613 0.0
H1309 H 0.21841 0.50297 0.31664 0.0
H1310 H 0.21737 0.54668 0.24147 0.0
H1311 H 0.25502 0.51821 0.30058 0.0
H1312 H 0.13767 0.4577 0.35497 0.0
H1313 H 0.0916 0.49206 0.3085 0.0
H1314 H 0.10465 0.44239 0.37713 0.0
H1315 H 0.05942 0.47627 0.3316 0.0
H1316 H 0.21048 0.43116 0.37082 0.0
H1317 H 0.21639 0.42898 0.28813 0.0
H1318 H 0.13273 0.56437 0.23163 0.0
H1319 H 0.08349 0.49679 0.20978 0.0
Li1320 Li 0.83766 0.02488 0.67686 0.0
Li1321 Li 0.85686 0.99688 0.69609 0.0
Li1322 Li 0.87767 0.02775 0.67299 0.0
Li1323 Li 0.84721 0.99319 0.64804 0.0
C1324 C 0.85906 0.05046 0.72367 0.0
N1325 N 0.84719 0.08655 0.75815 0.0
C1326 C 0.84084 0.04509 0.73791 0.0
C1327 C 0.87143 0.07408 0.72714 0.0
C1328 C 0.83503 0.06363 0.75517 0.0
C1329 C 0.86513 0.0921 0.74465 0.0
C1330 C 0.81589 0.96643 0.67184 0.0
C1331 C 0.8191 0.92453 0.66687 0.0
N1332 N 0.79609 0.9185 0.66869 0.0
C1333 C 0.79227 0.95978 0.67376 0.0
C1334 C 0.82941 0.94863 0.66844 0.0
C1335 C 0.7826 0.93547 0.67207 0.0
C1336 C 0.79164 0.0275 0.66528 0.0
N1337 N 0.8121 0.04179 0.67787 0.0
C1338 C 0.79398 0.07634 0.68143 0.0
C1339 C 0.81358 0.06582 0.68623 0.0
C1340 C 0.77276 0.0619 0.66809 0.0
C1341 C 0.77169 0.03714 0.6604 0.0
H1342 H 0.79108 1.00876 0.6577 0.0
H1343 H 0.83013 0.0771 0.69533 0.0
C1344 C 0.87516 0.96448 0.72626 0.0
N1345 N 0.85781 0.97711 0.7224 0.0
C1346 C 0.87215 0.94503 0.7397 0.0
C1347 C 0.83373 0.95247 0.74534 0.0
C1348 C 0.83777 0.97211 0.73255 0.0
C1349 C 0.85081 0.93817 0.74862 0.0
H1350 H 0.89081 0.96867 0.71773 0.0
H1351 H 0.82406 0.98215 0.7287 0.0
C1352 C 0.84377 0.04666 0.63667 0.0
N1353 N 0.82649 0.08565 0.62225 0.0
C1354 C 0.82466 0.04312 0.61644 0.0
C1355 C 0.85416 0.07007 0.64946 0.0
C1356 C 0.81613 0.06305 0.60951 0.0
C1357 C 0.8452 0.08954 0.64185 0.0
C1358 C 0.89539 0.98815 0.65505 0.0
C1359 C 0.89526 0.99454 0.62999 0.0
C1360 C 0.91427 0.97909 0.6662 0.0
C1361 C 0.91393 0.99162 0.61648 0.0
C1362 C 0.93261 0.97643 0.65204 0.0
N1363 N 0.93207 0.98271 0.6277 0.0
C1364 C 0.92682 0.04312 0.68557 0.0
C1365 C 0.9088 0.05387 0.64656 0.0
C1366 C 0.94883 0.04893 0.67819 0.0
N1367 N 0.90736 0.04503 0.66935 0.0
C1368 C 0.93037 0.06005 0.63856 0.0
C1369 C 0.95068 0.05675 0.65392 0.0
H1370 H 0.9251 0.03529 0.70313 0.0
H1371 H 0.89311 0.05408 0.63332 0.0
C1372 C 0.81605 0.97096 0.60196 0.0
N1373 N 0.83665 0.97008 0.61672 0.0
C1374 C 0.80719 0.95396 0.579 0.0
C1375 C 0.84039 0.93489 0.5877 0.0
C1376 C 0.84852 0.95215 0.61044 0.0
C1377 C 0.81957 0.93578 0.57151 0.0
H1378 H 0.8064 0.98469 0.60823 0.0
H1379 H 0.86422 0.95105 0.62315 0.0
O1380 O 0.8652 0.03258 0.70691 0.0
O1381 O 0.82562 0.99029 0.67384 0.0
O1382 O 0.8521 0.02737 0.64421 0.0
O1383 O 0.87783 0.99205 0.6692 0.0
H1384 H 0.83117 0.02687 0.73548 0.0
H1385 H 0.88572 0.07843 0.71639 0.0
H1386 H 0.82086 0.0598 0.76619 0.0
H1387 H 0.87447 0.11049 0.74748 0.0
H1388 H 0.82941 0.91064 0.6643 0.0
H1389 H 0.78155 0.97325 0.67673 0.0
H1390 H 0.84778 0.95332 0.6673 0.0
H1391 H 0.76434 0.93011 0.67355 0.0
H1392 H 0.79552 0.09558 0.68748 0.0
H1393 H 0.75585 0.02546 0.64943 0.0
H1394 H 0.88615 0.93512 0.74231 0.0
H1395 H 0.81678 0.94791 0.75118 0.0
H1396 H 0.81643 0.02521 0.60624 0.0
H1397 H 0.86878 0.07316 0.66538 0.0
H1398 H 0.80126 0.06054 0.594 0.0
H1399 H 0.853 0.10772 0.65169 0.0
H1400 H 0.88101 1.00193 0.62116 0.0
H1401 H 0.91493 0.9744 0.68569 0.0
H1402 H 0.91407 0.99658 0.59715 0.0
H1403 H 0.94735 0.96949 0.66048 0.0
H1404 H 0.96407 0.04618 0.69064 0.0
H1405 H 0.93084 0.06545 0.61944 0.0
H1406 H 0.79084 0.95499 0.5673 0.0
H1407 H 0.85062 0.92131 0.5826 0.0
Li1408 Li 0.93861 0.09193 0.3365 0.0
Li1409 Li 0.90436 0.06141 0.30829 0.0
Li1410 Li 0.93694 0.0892 0.287 0.0
Li1411 Li 0.90808 0.11379 0.31131 0.0
C1412 C 0.95771 0.05355 0.31628 0.0
N1413 N 0.99633 0.03466 0.33232 0.0
C1414 C 0.95511 0.02936 0.31895 0.0
C1415 C 0.97996 0.06806 0.32149 0.0
C1416 C 0.97485 0.02016 0.32715 0.0
C1417 C 0.99926 0.05821 0.32966 0.0
C1418 C 0.90458 0.09547 0.36496 0.0
C1419 C 0.91376 0.12467 0.40548 0.0
N1420 N 0.90823 0.10673 0.41936 0.0
C1421 C 0.89885 0.07734 0.37957 0.0
C1422 C 0.91199 0.11935 0.37795 0.0
C1423 C 0.90085 0.0834 0.40708 0.0
C1424 C 0.97252 0.11288 0.38686 0.0
N1425 N 0.95838 0.09264 0.37196 0.0
C1426 C 0.96924 0.06992 0.40583 0.0
C1427 C 0.95657 0.07146 0.38129 0.0
C1428 C 0.98405 0.09041 0.42173 0.0
C1429 C 0.98538 0.11217 0.41176 0.0
H1430 H 0.9738 0.1297 0.37955 0.0
H1431 H 0.94503 0.05556 0.36972 0.0
C1432 C 0.86763 1.01216 0.29193 0.0
N1433 N 0.88587 0.02602 0.31007 0.0
C1434 C 0.85745 0.98818 0.2945 0.0
C1435 C 0.8845 0.99235 0.33427 0.0
C1436 C 0.89403 0.01612 0.33108 0.0
C1437 C 0.86587 0.97734 0.31584 0.0
H1438 H 0.86093 0.01944 0.27502 0.0
H1439 H 0.90846 0.02658 0.34558 0.0
C1440 C 0.95869 0.13623 0.30754 0.0
N1441 N 0.9891 0.16986 0.28939 0.0
C1442 C 0.95015 0.14967 0.28942 0.0
C1443 C 0.98267 0.13998 0.3166 0.0
C1444 C 0.96581 0.16657 0.28044 0.0
C1445 C 0.99777 0.15705 0.30714 0.0
C1446 C 0.89696 0.08236 0.25246 0.0
C1447 C 0.89378 0.10241 0.24103 0.0
C1448 C 0.89762 0.06063 0.23635 0.0
C1449 C 0.89131 0.10036 0.21351 0.0
C1450 C 0.89512 0.05933 0.20891 0.0
N1451 N 0.89205 0.07905 0.19817 0.0
C1452 C 0.97178 0.07223 0.25181 0.0
C1453 C 0.95633 0.10422 0.23786 0.0
C1454 C 0.98581 0.07164 0.23123 0.0
N1455 N 0.95718 0.08843 0.25522 0.0
C1456 C 0.96997 0.10414 0.21699 0.0
C1457 C 0.98528 0.08767 0.21293 0.0
H1458 H 0.97264 0.05938 0.265 0.0
H1459 H 0.94498 0.11717 0.24001 0.0
C1460 C 0.90555 0.16808 0.32591 0.0
N1461 N 0.892 0.146 0.31461 0.0
C1462 C 0.89637 0.18988 0.32877 0.0
C1463 C 0.8589 0.16703 0.30878 0.0
C1464 C 0.8688 0.14562 0.30611 0.0
C1465 C 0.87247 0.19019 0.32028 0.0
H1466 H 0.92387 0.16909 0.333 0.0
H1467 H 0.85757 0.12858 0.29707 0.0
O1468 O 0.9386 0.06309 0.30877 0.0
O1469 O 0.90369 0.08991 0.33816 0.0
O1470 O 0.94362 0.11942 0.31626 0.0
O1471 O 0.90018 0.08423 0.27936 0.0
H1472 H 0.93807 0.01778 0.31462 0.0
H1473 H 0.98224 0.08676 0.31933 0.0
H1474 H 0.97309 1.00149 0.32937 0.0
H1475 H 1.01657 0.06928 0.33388 0.0
H1476 H 0.91963 0.14305 0.41583 0.0
H1477 H 0.89301 0.0588 0.36982 0.0
H1478 H 0.91665 0.13356 0.3669 0.0
H1479 H 0.89658 0.06954 0.41867 0.0
H1480 H 0.96703 0.05276 0.41247 0.0
H1481 H 0.99653 0.12855 0.42291 0.0
H1482 H 0.84336 0.97803 0.27933 0.0
H1483 H 0.89186 0.98595 0.35151 0.0
H1484 H 0.93163 0.14691 0.28218 0.0
H1485 H 0.98953 0.12992 0.33086 0.0
H1486 H 0.95946 0.17702 0.2663 0.0
H1487 H 1.01638 0.16013 0.31393 0.0
H1488 H 0.89339 0.11939 0.25331 0.0
H1489 H 0.90025 0.04502 0.24499 0.0
H1490 H 0.8889 0.11573 0.20437 0.0
H1491 H 0.89568 0.04266 0.19617 0.0
H1492 H 0.99671 0.0582 0.22949 0.0
H1493 H 0.96857 0.11735 0.20428 0.0
H1494 H 0.9082 0.20645 0.33813 0.0
H1495 H 0.84053 0.16524 0.30136 0.0
Li1496 Li 0.37626 0.74513 0.60063 0.0
Li1497 Li 0.39676 0.71527 0.57037 0.0
Li1498 Li 0.36966 0.7395 0.55025 0.0
Li1499 Li 0.35417 0.70573 0.57054 0.0
C1500 C 0.41374 0.76817 0.56497 0.0
N1501 N 0.44065 0.80059 0.54157 0.0
C1502 C 0.42311 0.76002 0.54259 0.0
C1503 C 0.41811 0.79275 0.57558 0.0
C1504 C 0.43664 0.77672 0.531 0.0
C1505 C 0.43176 0.80887 0.56343 0.0
C1506 C 0.39269 0.7018 0.61988 0.0
C1507 C 0.40295 0.66878 0.63982 0.0
N1508 N 0.41922 0.68463 0.65817 0.0
C1509 C 0.40944 0.71777 0.639 0.0
C1510 C 0.3893 0.67711 0.62035 0.0
C1511 C 0.42269 0.70874 0.65818 0.0
C1512 C 0.36719 0.75079 0.65447 0.0
N1513 N 0.37275 0.76395 0.63551 0.0
C1514 C 0.36491 0.79919 0.66248 0.0
C1515 C 0.37188 0.7879 0.63934 0.0
C1516 C 0.35899 0.78594 0.6823 0.0
C1517 C 0.36067 0.76145 0.67804 0.0
H1518 H 0.36688 0.73164 0.65093 0.0
H1519 H 0.37582 0.79819 0.62408 0.0
C1520 C 0.42433 0.68487 0.54204 0.0
N1521 N 0.42388 0.69817 0.56621 0.0
C1522 C 0.44076 0.66981 0.53861 0.0
C1523 C 0.45757 0.68351 0.58442 0.0
C1524 C 0.44055 0.69799 0.5871 0.0
C1525 C 0.45769 0.66872 0.56 0.0
H1526 H 0.41172 0.68559 0.52522 0.0
H1527 H 0.44063 0.70887 0.60607 0.0
C1528 C 0.33097 0.75087 0.565 0.0
N1529 N 0.30015 0.77633 0.54247 0.0
C1530 C 0.30975 0.73867 0.54976 0.0
C1531 C 0.33652 0.77599 0.56885 0.0
C1532 C 0.29439 0.75188 0.53853 0.0
C1533 C 0.32071 0.78854 0.55727 0.0
C1534 C 0.36557 0.68181 0.52581 0.0
C1535 C 0.35758 0.67723 0.49855 0.0
C1536 C 0.36824 0.66263 0.53897 0.0
C1537 C 0.35222 0.65346 0.48493 0.0
C1538 C 0.36271 0.63912 0.52466 0.0
N1539 N 0.35486 0.63506 0.49816 0.0
C1540 C 0.36936 0.77783 0.51666 0.0
C1541 C 0.34342 0.74075 0.50054 0.0
C1542 C 0.36126 0.78701 0.49414 0.0
N1543 N 0.3606 0.75487 0.51939 0.0
C1544 C 0.33488 0.74915 0.47778 0.0
C1545 C 0.34385 0.77257 0.47404 0.0
H1546 H 0.38252 0.7892 0.53195 0.0
H1547 H 0.33598 0.72291 0.50337 0.0
C1548 C 0.32534 0.67768 0.5959 0.0
N1549 N 0.32849 0.68147 0.57125 0.0
C1550 C 0.30515 0.66293 0.59958 0.0
C1551 C 0.29217 0.6554 0.55221 0.0
C1552 C 0.31268 0.67045 0.54945 0.0
C1553 C 0.28799 0.65211 0.57765 0.0
H1554 H 0.33809 0.687 0.61287 0.0
H1555 H 0.31547 0.67421 0.53013 0.0
O1556 O 0.40041 0.75213 0.57651 0.0
O1557 O 0.3794 0.71036 0.60111 0.0
O1558 O 0.34657 0.73825 0.57542 0.0
O1559 O 0.37072 0.70493 0.53962 0.0
H1560 H 0.41985 0.74101 0.5342 0.0
H1561 H 0.41094 0.79927 0.59292 0.0
H1562 H 0.44395 0.77072 0.5136 0.0
H1563 H 0.43526 0.82796 0.57134 0.0
H1564 H 0.40055 0.64973 0.6404 0.0
H1565 H 0.41229 0.73693 0.63888 0.0
H1566 H 0.37618 0.66452 0.60596 0.0
H1567 H 0.43578 0.72088 0.67304 0.0
H1568 H 0.36398 0.81811 0.66472 0.0
H1569 H 0.35595 0.75025 0.69232 0.0
H1570 H 0.44034 0.65929 0.51924 0.0
H1571 H 0.47024 0.68351 0.60159 0.0
H1572 H 0.30527 0.71923 0.54645 0.0
H1573 H 0.35306 0.78565 0.58019 0.0
H1574 H 0.27793 0.74268 0.52661 0.0
H1575 H 0.32484 0.80798 0.55992 0.0
H1576 H 0.35571 0.69184 0.48793 0.0
H1577 H 0.37455 0.6659 0.56 0.0
H1578 H 0.34602 0.64965 0.46383 0.0
H1579 H 0.36467 0.62411 0.53462 0.0
H1580 H 0.36886 0.80516 0.49235 0.0
H1581 H 0.32108 0.7374 0.4634 0.0
H1582 H 0.30259 0.66066 0.61947 0.0
H1583 H 0.27919 0.64755 0.53488 0.0
Li1584 Li 0.40565 0.56183 0.80768 0.0
Li1585 Li 0.43924 0.59233 0.83661 0.0
Li1586 Li 0.40909 0.61429 0.81093 0.0
Li1587 Li 0.43849 0.58983 0.78721 0.0
C1588 C 0.4039 0.59398 0.86404 0.0
N1589 N 0.40478 0.60209 0.91818 0.0
C1590 C 0.39877 0.5746 0.87715 0.0
C1591 C 0.40939 0.61748 0.8784 0.0
C1592 C 0.39932 0.57908 0.90455 0.0
C1593 C 0.40977 0.6212 0.90578 0.0
C1594 C 0.45976 0.55573 0.81839 0.0
C1595 C 0.50169 0.56173 0.82918 0.0
N1596 N 0.49956 0.54063 0.8385 0.0
C1597 C 0.45799 0.53408 0.82803 0.0
C1598 C 0.48178 0.56966 0.81895 0.0
C1599 C 0.47831 0.52677 0.83814 0.0
C1600 C 0.3961 0.50689 0.79775 0.0
N1601 N 0.38688 0.52615 0.80781 0.0
C1602 C 0.35735 0.4974 0.82221 0.0
C1603 C 0.3675 0.52138 0.81973 0.0
C1604 C 0.36707 0.47725 0.81286 0.0
C1605 C 0.38676 0.48279 0.80022 0.0
H1606 H 0.41132 0.51012 0.78818 0.0
H1607 H 0.35998 0.53625 0.82808 0.0
C1608 C 0.47411 0.61281 0.88653 0.0
N1609 N 0.45859 0.59311 0.87246 0.0
C1610 C 0.48693 0.61199 0.91143 0.0
C1611 C 0.46794 0.57072 0.90719 0.0
C1612 C 0.4553 0.57242 0.88271 0.0
C1613 C 0.48418 0.59061 0.92218 0.0
H1614 H 0.4766 0.62928 0.87852 0.0
H1615 H 0.4426 0.55701 0.87191 0.0
C1616 C 0.39955 0.58348 0.75202 0.0
N1617 N 0.3969 0.58132 0.69803 0.0
C1618 C 0.39719 0.6039 0.74094 0.0
C1619 C 0.40056 0.56197 0.73572 0.0
C1620 C 0.39585 0.60243 0.71357 0.0
C1621 C 0.3992 0.56125 0.70844 0.0
C1622 C 0.45999 0.63703 0.80865 0.0
C1623 C 0.45178 0.65167 0.79174 0.0
C1624 C 0.48394 0.6399 0.81736 0.0
C1625 C 0.46775 0.66886 0.78358 0.0
C1626 C 0.49936 0.65729 0.80874 0.0
N1627 N 0.49102 0.67128 0.79215 0.0
C1628 C 0.4056 0.668 0.82863 0.0
C1629 C 0.371 0.64707 0.80161 0.0
C1630 C 0.39654 0.68988 0.83136 0.0
N1631 N 0.39305 0.64662 0.81388 0.0
C1632 C 0.36126 0.66861 0.80392 0.0
C1633 C 0.3738 0.69107 0.81902 0.0
H1634 H 0.42303 0.66835 0.8386 0.0
H1635 H 0.3606 0.63065 0.7897 0.0
C1636 C 0.47181 0.57157 0.75074 0.0
N1637 N 0.45885 0.58914 0.75554 0.0
C1638 C 0.48589 0.57089 0.73021 0.0
C1639 C 0.47323 0.60599 0.71867 0.0
C1640 C 0.45957 0.60616 0.73953 0.0
C1641 C 0.48698 0.58819 0.71331 0.0
H1642 H 0.47129 0.55768 0.76275 0.0
H1643 H 0.44942 0.62012 0.74271 0.0
O1644 O 0.40417 0.58999 0.83737 0.0
O1645 O 0.44011 0.5636 0.80894 0.0
O1646 O 0.40183 0.58483 0.77884 0.0
O1647 O 0.4446 0.61996 0.8166 0.0
H1648 H 0.39473 0.55629 0.86633 0.0
H1649 H 0.41356 0.63264 0.86852 0.0
H1650 H 0.39552 0.56426 0.915 0.0
H1651 H 0.41409 0.63929 0.91719 0.0
H1652 H 0.51883 0.57236 0.82974 0.0
H1653 H 0.44112 0.52326 0.82821 0.0
H1654 H 0.48344 0.58642 0.81153 0.0
H1655 H 0.47719 0.51014 0.84582 0.0
H1656 H 0.34236 0.49487 0.83228 0.0
H1657 H 0.39512 0.46851 0.79208 0.0
H1658 H 0.4992 0.6279 0.92194 0.0
H1659 H 0.46465 0.55394 0.91452 0.0
H1660 H 0.3966 0.62073 0.75339 0.0
H1661 H 0.40263 0.5461 0.74411 0.0
H1662 H 0.3941 0.6181 0.70469 0.0
H1663 H 0.40005 0.54476 0.69556 0.0
H1664 H 0.43327 0.64961 0.78479 0.0
H1665 H 0.49055 0.62888 0.8307 0.0
H1666 H 0.46166 0.68024 0.77037 0.0
H1667 H 0.51796 0.65969 0.81526 0.0
H1668 H 0.40753 0.7058 0.84359 0.0
H1669 H 0.34388 0.66748 0.7934 0.0
H1670 H 0.4955 0.55641 0.72734 0.0
H1671 H 0.47312 0.62012 0.70699 0.0
Li1672 Li 0.64563 1.01447 0.85365 0.0
Li1673 Li 0.67724 0.03311 0.83242 0.0
Li1674 Li 0.63948 1.0107 0.80359 0.0
Li1675 Li 0.66926 0.9893 0.83079 0.0
C1676 C 0.63691 0.05684 0.84681 0.0
N1677 N 0.61981 0.08957 0.88038 0.0
C1678 C 0.65229 0.07492 0.86516 0.0
C1679 C 0.61283 0.05538 0.84556 0.0
C1680 C 0.6433 0.09131 0.88194 0.0
C1681 C 0.60453 0.07211 0.8627 0.0
C1682 C 0.69545 1.00777 0.87889 0.0
C1683 C 0.7342 1.00039 0.8914 0.0
N1684 N 0.72702 0.99072 0.91208 0.0
C1685 C 0.68851 0.99786 0.90032 0.0
C1686 C 0.71852 1.00916 0.87445 0.0
C1687 C 0.7047 0.98932 0.91687 0.0
C1688 C 0.60739 0.01558 0.88594 0.0
N1689 N 0.6308 0.02116 0.8856 0.0
C1690 C 0.63706 0.04071 0.9312 0.0
C1691 C 0.6455 0.03378 0.90767 0.0
C1692 C 0.61305 0.03507 0.93228 0.0
C1693 C 0.59815 0.02234 0.90909 0.0
H1694 H 0.59572 1.00636 0.86812 0.0
H1695 H 0.66389 0.03894 0.9069 0.0
C1696 C 0.69373 0.07319 0.81243 0.0
N1697 N 0.69964 0.06117 0.8322 0.0
C1698 C 0.70876 0.09355 0.80891 0.0
C1699 C 0.73519 0.08989 0.84734 0.0
C1700 C 0.71974 0.06919 0.84982 0.0
C1701 C 0.72984 0.10205 0.8264 0.0
H1702 H 0.67729 0.06677 0.79921 0.0
H1703 H 0.72377 0.05963 0.86577 0.0
C1704 C 0.61646 0.97176 0.83668 0.0
N1705 N 0.58182 0.94693 0.85888 0.0
C1706 C 0.62221 0.96264 0.85973 0.0
C1707 C 0.59312 0.9682 0.82485 0.0
C1708 C 0.60444 0.95017 0.87068 0.0
C1709 C 0.57585 0.95559 0.8364 0.0
C1710 C 0.68965 0.01563 0.78653 0.0
C1711 C 0.68375 0.02571 0.76418 0.0
C1712 C 0.71301 1.01481 0.79492 0.0
C1713 C 0.70135 0.03496 0.75076 0.0
C1714 C 0.73011 0.02427 0.78098 0.0
N1715 N 0.72398 0.03408 0.75938 0.0
C1716 C 0.61203 0.03483 0.77119 0.0
C1717 C 0.61991 0.99993 0.74604 0.0
C1718 C 0.60274 0.04224 0.74813 0.0
N1719 N 0.62079 1.0142 0.76998 0.0
C1720 C 0.61082 1.00681 0.72228 0.0
C1721 C 0.60263 0.02868 0.72299 0.0
H1722 H 0.61328 0.04635 0.79006 0.0
H1723 H 0.62749 0.98393 0.74517 0.0
C1724 C 0.68652 0.94961 0.8521 0.0
N1725 N 0.68532 0.96133 0.83102 0.0
C1726 C 0.70073 0.93228 0.85394 0.0
C1727 C 0.7111 0.93787 0.81151 0.0
C1728 C 0.697 0.95535 0.81068 0.0
C1729 C 0.7135 0.92628 0.83358 0.0
H1730 H 0.67686 0.954 0.86792 0.0
H1731 H 0.69576 0.96448 0.7939 0.0
O1732 O 0.64537 0.04007 0.83092 0.0
O1733 O 0.6797 0.01597 0.86236 0.0
O1734 O 0.63359 0.98399 0.82562 0.0
O1735 O 0.67271 1.00698 0.80033 0.0
H1736 H 0.67096 0.07611 0.8667 0.0
H1737 H 0.60066 0.04117 0.83189 0.0
H1738 H 0.655 0.10534 0.8963 0.0
H1739 H 0.58594 0.07109 0.86207 0.0
H1740 H 0.75207 1.00124 0.8881 0.0
H1741 H 0.67069 0.9964 0.9038 0.0
H1742 H 0.72426 0.01681 0.85804 0.0
H1743 H 0.69948 0.98145 0.93341 0.0
H1744 H 0.64925 0.05095 0.94824 0.0
H1745 H 0.57952 0.01755 0.90883 0.0
H1746 H 0.70382 0.10276 0.79287 0.0
H1747 H 0.75124 0.09612 0.86133 0.0
H1748 H 0.64016 0.96543 0.86924 0.0
H1749 H 0.58841 0.97516 0.807 0.0
H1750 H 0.60861 0.94309 0.88858 0.0
H1751 H 0.5577 0.95273 0.8275 0.0
H1752 H 0.66585 0.02676 0.75751 0.0
H1753 H 0.71792 1.00704 0.81207 0.0
H1754 H 0.69704 0.04295 0.73356 0.0
H1755 H 0.74826 0.02382 0.78735 0.0
H1756 H 0.59629 0.05895 0.75008 0.0
H1757 H 0.61139 0.99573 0.70354 0.0
H1758 H 0.70161 0.92356 0.87111 0.0
H1759 H 0.72055 0.93394 0.79527 0.0
Li1760 Li 0.78641 0.66279 0.01141 0.0
Li1761 Li 0.78622 0.62577 0.98102 0.0
Li1762 Li 0.77715 0.66124 0.96439 0.0
Li1763 Li 0.75 0.63742 0.98749 0.0
C1764 C 0.82789 0.66845 0.99958 0.0
N1765 N 0.86965 0.69019 0.03194 0.0
C1766 C 0.84306 0.65443 1.00961 0.0
C1767 C 0.834 0.69358 1.00619 0.0
C1768 C 0.86409 0.66574 0.02585 0.0
C1769 C 0.85515 0.70421 0.02255 0.0
C1770 C 0.75989 0.61917 0.03032 0.0
C1771 C 0.73325 0.58544 0.03898 0.0
N1772 N 0.73046 0.59905 0.06188 0.0
C1773 C 0.75681 0.63281 0.05398 0.0
C1774 C 0.74808 0.59526 0.02278 0.0
C1775 C 0.74185 0.62231 0.06966 0.0
C1776 C 0.7949 0.70468 0.04926 0.0
N1777 N 0.80023 0.68245 0.04423 0.0
C1778 C 0.82333 0.68862 0.08707 0.0
C1779 C 0.81429 0.67422 0.06235 0.0
C1780 C 0.81791 0.71163 0.09278 0.0
C1781 C 0.80379 0.71974 0.0734 0.0
H1782 H 0.78319 0.71046 0.03485 0.0
H1783 H 0.81798 0.6563 0.05782 0.0
C1784 C 0.81898 0.60139 0.95924 0.0
N1785 N 0.80358 0.60074 0.97666 0.0
C1786 C 0.83747 0.58905 0.9619 0.0
C1787 C 0.82269 0.5741 0.99892 0.0
C1788 C 0.80455 0.58674 0.99559 0.0
C1789 C 0.84013 0.5762 0.98283 0.0
H1790 H 0.81825 0.61331 0.94495 0.0
H1791 H 0.79259 0.58717 1.00971 0.0
C1792 C 0.74992 0.69031 0.98254 0.0
N1793 N 0.73026 0.72494 0.96076 0.0
C1794 C 0.72659 0.68504 0.97025 0.0
C1795 C 0.76328 0.7132 0.98355 0.0
C1796 C 0.71696 0.70281 0.95945 0.0
C1797 C 0.75302 0.73044 0.97246 0.0
C1798 C 0.76241 0.60871 0.93441 0.0
C1799 C 0.77353 0.61339 0.91298 0.0
C1800 C 0.75475 0.58493 0.93731 0.0
C1801 C 0.77701 0.59409 0.89484 0.0
C1802 C 0.75859 0.56614 0.91877 0.0
N1803 N 0.76956 0.57107 0.89811 0.0
C1804 C 0.80162 0.69588 0.94085 0.0
C1805 C 0.76169 0.68455 0.9218 0.0
C1806 C 0.80431 0.71563 0.92808 0.0
N1807 N 0.78037 0.6815 0.9385 0.0
C1808 C 0.76367 0.70396 0.90821 0.0
C1809 C 0.78505 0.72034 0.91198 0.0
H1810 H 0.81629 0.69274 0.9537 0.0
H1811 H 0.74497 0.67277 0.92021 0.0
C1812 C 0.71335 0.64408 0.0129 0.0
N1813 N 0.7187 0.62818 0.99342 0.0
C1814 C 0.69202 0.63956 0.02168 0.0
C1815 C 0.68173 0.60211 0.9903 0.0
C1816 C 0.70349 0.60743 0.98197 0.0
C1817 C 0.6758 0.61842 0.01036 0.0
H1818 H 0.72601 0.66014 0.02206 0.0
H1819 H 0.70839 0.59488 0.96684 0.0
O1820 O 0.80701 0.65769 0.9839 0.0
O1821 O 0.77396 0.62931 0.01432 0.0
O1822 O 0.75974 0.67306 0.99309 0.0
O1823 O 0.75918 0.62734 0.95257 0.0
H1824 H 0.83863 0.63502 1.00523 0.0
H1825 H 0.82227 0.7048 0.99934 0.0
H1826 H 0.87594 0.65507 0.03372 0.0
H1827 H 0.85997 0.72361 0.02794 0.0
H1828 H 0.72386 0.56703 0.03329 0.0
H1829 H 0.76557 0.6514 0.06002 0.0
H1830 H 0.75003 0.58453 1.00438 0.0
H1831 H 0.7392 0.63269 0.08793 0.0
H1832 H 0.83395 0.68171 0.10172 0.0
H1833 H 0.79863 0.73708 0.07735 0.0
H1834 H 0.85046 0.591 0.94897 0.0
H1835 H 0.82421 0.56472 0.01553 0.0
H1836 H 0.71606 0.66735 0.96871 0.0
H1837 H 0.78155 0.71745 0.99218 0.0
H1838 H 0.69894 0.69895 0.94987 0.0
H1839 H 0.76322 0.74812 0.97292 0.0
H1840 H 0.77957 0.63173 0.91051 0.0
H1841 H 0.74615 0.58106 0.95384 0.0
H1842 H 0.7857 0.59742 0.87821 0.0
H1843 H 0.7529 0.54764 0.92083 0.0
H1844 H 0.82114 0.72761 0.93184 0.0
H1845 H 0.74847 0.7064 0.89546 0.0
H1846 H 0.68846 0.65236 0.03763 0.0
H1847 H 0.6697 0.58557 0.98113 0.0
Li1848 Li 0.94403 0.62166 0.81798 0.0
Li1849 Li 0.98099 0.64295 0.84888 0.0
Li1850 Li 0.95297 0.6655 0.82116 0.0
Li1851 Li 0.97696 0.64033 0.79884 0.0
C1852 C 0.92877 0.63727 0.8613 0.0
N1853 N 0.89078 0.6166 0.88183 0.0
C1854 C 0.93203 0.62518 0.88261 0.0
C1855 C 0.90618 0.639 0.85059 0.0
C1856 C 0.91261 0.6148 0.89266 0.0
C1857 C 0.8872 0.62841 0.86121 0.0
C1858 C 0.99125 0.60143 0.81159 0.0
C1859 C 0.03072 0.59537 0.81096 0.0
N1860 N 0.02273 0.57589 0.79131 0.0
C1861 C 0.98338 0.58133 0.79148 0.0
C1862 C 1.01507 0.60853 0.82149 0.0
C1863 C 0.99959 0.56867 0.78145 0.0
C1864 C 0.89871 0.58899 0.80514 0.0
N1865 N 0.92161 0.59301 0.81622 0.0
C1866 C 0.91644 0.55487 0.83017 0.0
C1867 C 0.93055 0.57648 0.82855 0.0
C1868 C 0.89274 0.55013 0.81907 0.0
C1869 C 0.88379 0.56753 0.80651 0.0
H1870 H 0.89196 0.60246 0.79559 0.0
H1871 H 0.94871 0.5802 0.83745 0.0
C1872 C 1.01221 0.65423 0.90236 0.0
N1873 N 0.99802 0.6377 0.88252 0.0
C1874 C 1.02154 0.64722 0.92597 0.0
C1875 C 1.00147 0.60656 0.90839 0.0
C1876 C 0.9929 0.61421 0.88524 0.0
C1877 C 1.01617 0.62296 0.92943 0.0
H1878 H 1.01612 0.67289 0.9001 0.0
H1879 H 0.98141 0.60132 0.86958 0.0
C1880 C 0.93045 0.64987 0.77084 0.0
N1881 N 0.90497 0.67054 0.73493 0.0
C1882 C 0.94105 0.6602 0.75156 0.0
C1883 C 0.90685 0.64998 0.77179 0.0
C1884 C 0.92789 0.67054 0.73357 0.0
C1885 C 0.89428 0.66058 0.75351 0.0
C1886 C 1.00721 0.682 0.81876 0.0
C1887 C 1.00356 0.69332 0.79689 0.0
C1888 C 0.02993 0.68307 0.83141 0.0
C1889 C 0.0228 0.70543 0.78789 0.0
C1890 C 0.04871 0.6954 0.82183 0.0
N1891 N 0.04478 0.70621 0.80044 0.0
C1892 C 0.92554 0.69938 0.84147 0.0
C1893 C 0.93764 0.7068 0.80124 0.0
C1894 C 0.91188 0.71725 0.84106 0.0
N1895 N 0.93775 0.69401 0.82145 0.0
C1896 C 0.92388 0.72458 0.79982 0.0
C1897 C 0.91051 0.72991 0.81979 0.0
H1898 H 0.92599 0.68945 0.85762 0.0
H1899 H 0.9478 0.70293 0.78577 0.0
C1900 C 0.97815 0.61924 0.74609 0.0
N1901 N 0.99264 0.63296 0.76772 0.0
C1902 C 0.9867 0.61165 0.72284 0.0
C1903 C 0.02537 0.63156 0.74436 0.0
C1904 C 1.01601 0.63889 0.7673 0.0
C1905 C 1.01064 0.6178 0.72154 0.0
H1906 H 0.9598 0.6139 0.74696 0.0
H1907 H 0.02756 0.64896 0.78481 0.0
O1908 O 0.94751 0.64693 0.85062 0.0
O1909 O 0.97577 0.61459 0.82097 0.0
O1910 O 0.94311 0.63968 0.78865 0.0
O1911 O 0.98863 0.67016 0.82797 0.0
H1912 H 0.94934 0.62378 0.8913 0.0
H1913 H 0.9033 0.64817 0.83403 0.0
H1914 H 0.91489 0.60532 0.90908 0.0
H1915 H 0.86962 0.62949 0.85298 0.0
H1916 H 0.04924 0.6007 0.81831 0.0
H1917 H 0.96498 0.57576 0.78352 0.0
H1918 H 1.02142 0.62421 0.83689 0.0
H1919 H 0.99379 0.55314 0.76577 0.0
H1920 H 0.92396 0.54216 0.84045 0.0
H1921 H 0.86558 0.56449 0.79768 0.0
H1922 H 0.03289 0.66071 0.94125 0.0
H1923 H 0.99596 0.58786 0.90983 0.0
H1924 H 0.95934 0.6606 0.75079 0.0
H1925 H 0.89835 0.64221 0.7866 0.0
H1926 H 0.93593 0.67869 0.71864 0.0
H1927 H 0.87604 0.66092 0.75413 0.0
H1928 H 0.98609 0.69263 0.78689 0.0
H1929 H 0.033 0.67442 0.8484 0.0
H1930 H 1.02027 0.71423 0.77095 0.0
H1931 H 0.0664 0.69634 0.83136 0.0
H1932 H 0.90193 0.72063 0.85696 0.0
H1933 H 0.9238 0.73413 0.78329 0.0
H1934 H 0.97463 0.60061 0.70616 0.0
H1935 H 0.04393 0.63677 0.74449 0.0
Li1936 Li 0.75322 0.41626 0.60508 0.0
Li1937 Li 0.72877 0.44181 0.58371 0.0
Li1938 Li 0.74994 0.41082 0.55464 0.0
Li1939 Li 0.77138 0.44918 0.58506 0.0
C1940 C 0.71166 0.38668 0.58714 0.0
N1941 N 0.68721 0.35016 0.60758 0.0
C1942 C 0.70141 0.39214 0.60964 0.0
C1943 C 0.70945 0.3627 0.57496 0.0
C1944 C 0.68916 0.3734 0.61971 0.0
C1945 C 0.69699 0.34448 0.5856 0.0
C1946 C 0.74686 0.46695 0.63339 0.0
C1947 C 0.73854 0.50621 0.64827 0.0
N1948 N 0.73148 0.49855 0.67007 0.0
C1949 C 0.73937 0.45943 0.65587 0.0
C1950 C 0.74635 0.49051 0.62951 0.0
C1951 C 0.73174 0.4757 0.67422 0.0
C1952 C 0.77552 0.41573 0.65695 0.0
N1953 N 0.76055 0.40082 0.63646 0.0
C1954 C 0.76201 0.36769 0.65998 0.0
C1955 C 0.75385 0.37705 0.63762 0.0
C1956 C 0.77735 0.38281 0.68154 0.0
C1957 C 0.78401 0.40718 0.6796 0.0
H1958 H 0.78138 0.43435 0.65548 0.0
H1959 H 0.74267 0.36508 0.62098 0.0
C1960 C 0.69522 0.47058 0.56498 0.0
N1961 N 0.7018 0.45945 0.58545 0.0
C1962 C 0.67866 0.48567 0.56675 0.0
C1963 C 0.67536 0.47775 0.61054 0.0
C1964 C 0.69161 0.46235 0.60771 0.0
C1965 C 0.66866 0.48986 0.58995 0.0
H1966 H 0.70315 0.46813 0.5473 0.0
H1967 H 0.69642 0.45317 0.62371 0.0
C1968 C 0.79341 0.40539 0.59554 0.0
N1969 N 0.82364 0.38369 0.625 0.0
C1970 C 0.81278 0.41941 0.61289 0.0
C1971 C 0.78932 0.38034 0.5934 0.0
C1972 C 0.82789 0.40809 0.62753 0.0
C1973 C 0.80482 0.36971 0.6084 0.0
C1974 C 0.75698 0.46366 0.54162 0.0
C1975 C 0.77122 0.45869 0.52267 0.0
C1976 C 0.75412 0.48733 0.54938 0.0
C1977 C 0.78231 0.47749 0.51173 0.0
C1978 C 0.7655 0.50564 0.53797 0.0
N1979 N 0.77924 0.50039 0.51955 0.0
C1980 C 0.74335 0.39698 0.49646 0.0
C1981 C 0.76869 0.37641 0.51931 0.0
C1982 C 0.74976 0.38774 0.47213 0.0
N1983 N 0.7532 0.3917 0.5197 0.0
C1984 C 0.7753 0.3665 0.49541 0.0
C1985 C 0.76637 0.37258 0.47128 0.0
H1986 H 0.73147 0.4095 0.49686 0.0
H1987 H 0.77699 0.37277 0.53769 0.0
C1988 C 0.80337 0.49531 0.59924 0.0
N1989 N 0.79895 0.47213 0.58613 0.0
C1990 C 0.82421 0.51072 0.59814 0.0
C1991 C 0.83548 0.47795 0.5705 0.0
C1992 C 0.81442 0.46337 0.57182 0.0
C1993 C 0.84059 0.5019 0.58382 0.0
H1994 H 0.79085 0.50185 0.61052 0.0
H1995 H 0.81031 0.44495 0.56135 0.0
O1996 O 0.72368 0.40474 0.57698 0.0
O1997 O 0.75438 0.45126 0.61517 0.0
O1998 O 0.778 0.41619 0.58165 0.0
O1999 O 0.74659 0.44559 0.5532 0.0
H2000 H 0.70308 0.41063 0.61931 0.0
H2001 H 0.71732 0.35825 0.55752 0.0
H2002 H 0.68121 0.37732 0.63718 0.0
H2003 H 0.69515 0.32583 0.57643 0.0
H2004 H 0.73794 0.52445 0.64542 0.0
H2005 H 0.7391 0.44113 0.65897 0.0
H2006 H 0.75145 0.49648 0.61194 0.0
H2007 H 0.72588 0.4701 0.69167 0.0
H2008 H 0.75625 0.34878 0.66037 0.0
H2009 H 0.79615 0.41958 0.69523 0.0
H2010 H 0.67408 0.49443 0.55021 0.0
H2011 H 0.66789 0.47991 0.6286 0.0
H2012 H 0.81596 0.43884 0.61539 0.0
H2013 H 0.77393 0.36924 0.58091 0.0
H2014 H 0.84291 0.41873 0.64105 0.0
H2015 H 0.80176 0.35036 0.60706 0.0
H2016 H 0.77412 0.44061 0.51686 0.0
H2017 H 0.74345 0.4916 0.56427 0.0
H2018 H 0.79348 0.47391 0.49716 0.0
H2019 H 0.76349 0.52405 0.54386 0.0
H2020 H 0.74216 0.39295 0.45419 0.0
H2021 H 0.78834 0.35524 0.49611 0.0
H2022 H 0.82767 0.52914 0.60867 0.0
H2023 H 0.84758 0.47064 0.55895 0.0
Li2024 Li 0.68443 0.56587 0.36522 0.0
Li2025 Li 0.71712 0.59274 0.34443 0.0
Li2026 Li 0.68282 0.56162 0.3158 0.0
Li2027 Li 0.71329 0.54036 0.34023 0.0
C2028 C 0.66886 0.60548 0.35185 0.0
N2029 N 0.64054 0.63454 0.37326 0.0
C2030 C 0.67874 0.62674 0.3697 0.0
C2031 C 0.64462 0.599 0.34479 0.0
C2032 C 0.66411 0.64119 0.38033 0.0
C2033 C 0.63059 0.61393 0.35586 0.0
C2034 C 0.72507 0.57366 0.3998 0.0
C2035 C 0.72544 0.55809 0.44054 0.0
N2036 N 0.73178 0.58098 0.45444 0.0
C2037 C 0.73161 0.59702 0.41444 0.0
C2038 C 0.72197 0.55401 0.41286 0.0
C2039 C 0.73493 0.60034 0.44208 0.0
C2040 C 0.64599 0.54999 0.39791 0.0
N2041 N 0.66444 0.56786 0.39695 0.0
C2042 C 0.65612 0.58987 0.43789 0.0
C2043 C 0.66931 0.58767 0.41673 0.0
C2044 C 0.63704 0.5717 0.43964 0.0
C2045 C 0.63221 0.55158 0.41871 0.0
H2046 H 0.64174 0.5342 0.38248 0.0
H2047 H 0.68353 0.60216 0.41623 0.0
C2048 C 0.72359 0.64003 0.32589 0.0
N2049 N 0.73507 0.62822 0.34298 0.0
C2050 C 0.73273 0.66393 0.32284 0.0
C2051 C 0.76592 0.66442 0.35496 0.0
C2052 C 0.75612 0.64031 0.35742 0.0
C2053 C 0.75431 0.67717 0.33752 0.0
H2054 H 0.70694 0.63088 0.31435 0.0
H2055 H 0.76549 0.63146 0.37119 0.0
C2056 C 0.6596 0.51877 0.3225 0.0
N2057 N 0.62264 0.48656 0.29078 0.0
C2058 C 0.66351 0.4979 0.30727 0.0
C2059 C 0.63693 0.52326 0.32166 0.0
C2060 C 0.64457 0.48182 0.29136 0.0
C2061 C 0.61847 0.50677 0.30546 0.0
C2062 C 0.7167 0.56011 0.28707 0.0
C2063 C 0.71384 0.53652 0.2734 0.0
C2064 C 0.7176 0.57918 0.27306 0.0
C2065 C 0.71185 0.53239 0.24581 0.0
C2066 C 0.71549 0.5743 0.24548 0.0
N2067 N 0.71268 0.5512 0.23254 0.0
C2068 C 0.65792 0.58267 0.27581 0.0
C2069 C 0.65504 0.54109 0.26116 0.0
C2070 C 0.64543 0.58494 0.25141 0.0
N2071 N 0.66258 0.561 0.28053 0.0
C2072 C 0.6424 0.54255 0.23643 0.0
C2073 C 0.63733 0.56476 0.23094 0.0
H2074 H 0.66436 0.59855 0.29089 0.0
H2075 H 0.65912 0.524 0.26456 0.0
C2076 C 0.72013 0.48858 0.34764 0.0
N2077 N 0.72962 0.50834 0.33779 0.0
C2078 C 0.72934 0.46678 0.3453 0.0
C2079 C 0.75852 0.48492 0.32285 0.0
C2080 C 0.74872 0.50638 0.32548 0.0
C2081 C 0.74904 0.46407 0.33265 0.0
H2082 H 0.70499 0.4894 0.35733 0.0
H2083 H 0.7565 0.52146 0.3172 0.0
O2084 O 0.68286 0.59085 0.34171 0.0
O2085 O 0.7211 0.57009 0.37277 0.0
O2086 O 0.67791 0.5348 0.33802 0.0
O2087 O 0.71777 0.56436 0.31395 0.0
H2088 H 0.69748 0.63189 0.37548 0.0
H2089 H 0.63675 0.58261 0.33095 0.0
H2090 H 0.67148 0.65766 0.39426 0.0
H2091 H 0.61179 0.60914 0.35063 0.0
H2092 H 0.72303 0.54308 0.45095 0.0
H2093 H 0.73389 0.6124 0.40453 0.0
H2094 H 0.71675 0.53583 0.40173 0.0
H2095 H 0.73992 0.61832 0.4537 0.0
H2096 H 0.66086 0.60613 0.45269 0.0
H2097 H 0.61808 0.53675 0.41855 0.0
H2098 H 0.72273 0.67176 0.30859 0.0
H2099 H 0.78241 0.67309 0.36717 0.0
H2100 H 0.68098 0.49426 0.30757 0.0
H2101 H 0.63366 0.53935 0.33334 0.0
H2102 H 0.64732 0.46562 0.27941 0.0
H2103 H 0.60083 0.51003 0.30455 0.0
H2104 H 0.71287 0.52156 0.28397 0.0
H2105 H 0.71965 0.59752 0.28336 0.0
H2106 H 0.70951 0.51422 0.23495 0.0
H2107 H 0.71601 0.58886 0.23434 0.0
H2108 H 0.64271 0.60265 0.24852 0.0
H2109 H 0.6366 0.52625 0.2218 0.0
H2110 H 0.72092 0.45214 0.35377 0.0
H2111 H 0.77336 0.48474 0.31256 0.0
Nd2112 Nd 0.07609 0.09636 0.08423 0.0
Nd2113 Nd 0.0445 0.06004 0.06839 0.0
C2114 C 0.09748 0.14232 0.09635 0.0
C2115 C 0.09646 0.16148 0.07994 0.0
C2116 C 0.09487 0.18491 0.0914 0.0
C2117 C 0.09211 0.20248 0.07556 0.0
C2118 C 0.0909 0.19704 0.04783 0.0
C2119 C 0.09258 0.17352 0.03649 0.0
C2120 C 0.09518 0.15598 0.05227 0.0
C2121 C 0.08556 0.07664 0.03435 0.0
C2122 C 0.02491 0.10508 0.05686 0.0
C2123 C 0.02234 1.01411 0.05766 0.0
C2124 C 0.025 0.99377 0.07212 0.0
C2125 C 0.04716 0.9889 0.08061 0.0
C2126 C 0.04977 0.97158 0.09669 0.0
C2127 C 0.03026 0.95835 0.10453 0.0
C2128 C 1.00798 0.96263 0.09531 0.0
C2129 C 1.00542 0.98022 0.07946 0.0
C2130 C 0.03538 0.08078 0.11809 0.0
C2131 C 0.09619 0.0514 0.09358 0.0
O2132 O 0.07816 0.13422 0.10447 0.0
O2133 O 0.10779 0.12487 0.08796 0.0
O2134 O 0.10005 0.08298 0.05619 0.0
O2135 O 0.06493 0.07902 0.03906 0.0
O2136 O 0.04419 0.11384 0.07372 0.0
O2137 O 1.02123 0.08206 0.04636 0.0
O2138 O 0.03956 0.02244 0.0461 0.0
O2139 O 1.01396 0.03149 0.06985 0.0
O2140 O 1.02113 0.07553 0.09603 0.0
O2141 O 0.05574 0.07734 0.11341 0.0
O2142 O 0.07725 0.04326 0.07607 0.0
O2143 O 0.09918 0.07384 0.10583 0.0
H2144 H 0.09549 0.18957 0.1126 0.0
H2145 H 0.09106 0.22039 0.08509 0.0
H2146 H 0.09131 0.16844 0.01524 0.0
H2147 H 0.09581 0.13794 0.0427 0.0
H2148 H 0.06265 0.99867 0.07521 0.0
H2149 H 0.06715 0.96855 0.103 0.0
H2150 H 0.99256 0.95289 0.10102 0.0
H2151 H 0.98812 0.98359 0.07338 0.0
Nd2152 Nd 0.31474 0.85023 0.34129 0.0
Nd2153 Nd 0.30491 0.80398 0.31312 0.0
C2154 C 0.31808 0.89372 0.3696 0.0
C2155 C 0.32328 0.91767 0.36244 0.0
C2156 C 0.32074 0.93821 0.37949 0.0
C2157 C 0.32761 0.9611 0.37341 0.0
C2158 C 0.33726 0.96376 0.35024 0.0
C2159 C 0.33889 0.94293 0.33278 0.0
C2160 C 0.33191 0.92014 0.33879 0.0
C2161 C 0.35654 0.83694 0.32959 0.0
C2162 C 0.30515 0.84711 0.27819 0.0
C2163 C 0.3019 0.76071 0.28431 0.0
C2164 C 0.29787 0.73639 0.29072 0.0
C2165 C 0.2975 0.71629 0.27139 0.0
C2166 C 0.29087 0.69305 0.27662 0.0
C2167 C 0.2844 0.68961 0.30125 0.0
C2168 C 0.28589 0.70992 0.32094 0.0
C2169 C 0.29255 0.73308 0.3157 0.0
C2170 C 0.26312 0.81712 0.32493 0.0
C2171 C 0.31417 0.80729 0.37629 0.0
O2172 O 0.29822 0.88017 0.35799 0.0
O2173 O 0.3352 0.88196 0.36974 0.0
O2174 O 0.3499 0.85673 0.32534 0.0
O2175 O 0.3401 0.82381 0.3375 0.0
O2176 O 0.30528 0.86092 0.30095 0.0
O2177 O 0.30829 0.82477 0.27794 0.0
O2178 O 0.32172 0.77471 0.29532 0.0
O2179 O 0.28435 0.77176 0.28553 0.0
O2180 O 0.26982 0.79732 0.329 0.0
O2181 O 0.27951 0.83034 0.317 0.0
O2182 O 0.31444 0.79349 0.35364 0.0
O2183 O 0.31078 0.82952 0.37637 0.0
H2184 H 0.31395 0.93658 0.39775 0.0
H2185 H 0.32577 0.97672 0.38711 0.0
H2186 H 0.34656 0.94418 0.315 0.0
H2187 H 0.33399 0.90444 0.32536 0.0
H2188 H 0.3016 0.71856 0.25201 0.0
H2189 H 0.2902 0.67778 0.26114 0.0
H2190 H 0.28072 0.70802 0.33996 0.0
H2191 H 0.29259 0.74843 0.33082 0.0
Nd2192 Nd 0.58335 0.0869 0.5806 0.0
Nd2193 Nd 0.53924 0.06615 0.57751 0.0
C2194 C 0.62782 0.10289 0.57769 0.0
C2195 C 0.6498 0.10091 0.5935 0.0
C2196 C 0.67034 0.10232 0.58238 0.0
C2197 C 0.6909 0.09883 0.59688 0.0
C2198 C 0.6912 0.09383 0.62273 0.0
C2199 C 0.67067 0.09309 0.63399 0.0
C2200 C 0.65016 0.09649 0.61948 0.0
C2201 C 0.57838 0.06892 0.62736 0.0
C2202 C 0.56825 0.03142 0.55122 0.0
C2203 C 0.4945 0.05072 0.57985 0.0
C2204 C 0.47289 0.0528 0.56342 0.0
C2205 C 0.4511 0.04409 0.57 0.0
C2206 C 0.43059 0.0466 0.55453 0.0
C2207 C 0.43161 0.05786 0.53222 0.0
C2208 C 0.45358 0.06614 0.5255 0.0
C2209 C 0.474 0.06371 0.54101 0.0
C2210 C 0.54498 0.08433 0.531 0.0
C2211 C 0.55412 0.12145 0.60659 0.0
O2212 O 0.61559 0.08285 0.56355 0.0
O2213 O 0.61491 0.11581 0.5899 0.0
O2214 O 0.58891 0.09018 0.62592 0.0
O2215 O 0.56955 0.05761 0.60433 0.0
O2216 O 0.58038 0.05239 0.54914 0.0
O2217 O 0.55268 0.03129 0.56717 0.0
O2218 O 0.50682 0.0708 0.59379 0.0
O2219 O 0.50741 0.0375 0.56811 0.0
O2220 O 0.53454 0.06293 0.53201 0.0
O2221 O 0.55302 0.09554 0.5542 0.0
O2222 O 0.54261 0.10044 0.60942 0.0
O2223 O 0.56922 0.1215 0.5901 0.0
H2224 H 0.67033 0.10559 0.56231 0.0
H2225 H 0.70633 0.09918 0.58749 0.0
H2226 H 0.67035 0.08957 0.65393 0.0
H2227 H 0.6345 0.09529 0.62845 0.0
H2228 H 0.44996 0.03563 0.58726 0.0
H2229 H 0.41399 0.04033 0.56048 0.0
H2230 H 0.45501 0.07461 0.50829 0.0
H2231 H 0.4907 0.07053 0.53561 0.0
Nd2232 Nd 0.32043 0.33226 0.84948 0.0
Nd2233 Nd 0.30196 0.32477 0.80201 0.0
C2234 C 0.33123 0.3339 0.90114 0.0
C2235 C 0.32218 0.3407 0.9256 0.0
C2236 C 0.32719 0.32894 0.94684 0.0
C2237 C 0.32162 0.33725 0.97152 0.0
C2238 C 0.31116 0.3576 0.97528 0.0
C2239 C 0.30448 0.36813 0.95335 0.0
C2240 C 0.30991 0.35967 0.9286 0.0
C2241 C 0.3328 0.37571 0.82995 0.0
C2242 C 0.26519 0.33858 0.83833 0.0
C2243 C 0.29283 0.32257 0.75015 0.0
C2244 C 0.29955 0.30913 0.72685 0.0
C2245 C 0.30598 0.32118 0.70656 0.0
C2246 C 0.31191 0.30857 0.68394 0.0
C2247 C 0.31129 0.28363 0.68122 0.0
C2248 C 0.30562 0.27181 0.7021 0.0
C2249 C 0.29995 0.28449 0.7248 0.0
C2250 C 0.28955 0.28093 0.82073 0.0
C2251 C 0.35744 0.31845 0.8133 0.0
O2252 O 0.31931 0.31488 0.88494 0.0
O2253 O 0.3388 0.35127 0.88902 0.0
O2254 O 0.34716 0.36439 0.84176 0.0
O2255 O 0.31219 0.36299 0.82688 0.0
O2256 O 0.28161 0.33395 0.85571 0.0
O2257 O 0.27014 0.33979 0.81452 0.0
O2258 O 0.30952 0.33837 0.76552 0.0
O2259 O 0.27928 0.31027 0.76334 0.0
O2260 O 0.27547 0.29177 0.80782 0.0
O2261 O 0.31008 0.29397 0.82458 0.0
O2262 O 0.34053 0.32172 0.79557 0.0
O2263 O 0.3531 0.31878 0.83754 0.0
H2264 H 0.33634 0.314 0.94464 0.0
H2265 H 0.32659 0.32855 0.98799 0.0
H2266 H 0.29653 0.38392 0.95566 0.0
H2267 H 0.30559 0.3687 0.9122 0.0
H2268 H 0.30614 0.34031 0.70807 0.0
H2269 H 0.31657 0.31827 0.6684 0.0
H2270 H 0.30464 0.25258 0.70053 0.0
H2271 H 0.29541 0.2749 0.74047 0.0
Nd2272 Nd 0.05739 0.10388 0.58861 0.0
Nd2273 Nd 0.06206 0.0511 0.56539 0.0
C2274 C 0.04496 0.14305 0.61162 0.0
C2275 C 0.05219 0.16859 0.60984 0.0
C2276 C 0.03522 0.18251 0.60473 0.0
C2277 C 0.04159 0.20546 0.59868 0.0
C2278 C 0.06508 0.21486 0.5977 0.0
C2279 C 0.08216 0.20134 0.60413 0.0
C2280 C 0.07578 0.17839 0.61002 0.0
C2281 C 0.09625 0.10592 0.56358 0.0
C2282 C 0.0354 0.08312 0.52581 0.0
C2283 C 0.06655 1.00898 0.54003 0.0
C2284 C 0.06354 0.98443 0.54624 0.0
C2285 C 0.07626 0.97939 0.56899 0.0
C2286 C 0.07061 0.957 0.57662 0.0
C2287 C 0.05198 0.93944 0.56184 0.0
C2288 C 0.03998 0.94411 0.53849 0.0
C2289 C 0.04583 0.96635 0.53067 0.0
C2290 C 0.02915 0.05507 0.5982 0.0
C2291 C 0.08721 0.07304 0.62622 0.0
O2292 O 0.0329 0.12939 0.58994 0.0
O2293 O 0.06079 0.13287 0.62331 0.0
O2294 O 0.08959 0.12477 0.57503 0.0
O2295 O 0.0825 0.08741 0.56596 0.0
O2296 O 0.03592 0.09989 0.54675 0.0
O2297 O 0.04571 0.06435 0.52787 0.0
O2298 O 0.08442 0.02504 0.55349 0.0
O2299 O 0.04729 0.01754 0.53681 0.0
O2300 O 0.04099 0.0379 0.59681 0.0
O2301 O 0.03353 0.06792 0.58117 0.0
O2302 O 0.08854 0.05811 0.60437 0.0
O2303 O 0.07376 0.08952 0.62538 0.0
H2304 H 1.01693 0.17524 0.60436 0.0
H2305 H 0.02808 0.21559 0.59404 0.0
H2306 H 0.10035 0.20795 0.60323 0.0
H2307 H 0.08924 0.16795 0.61359 0.0
H2308 H 0.08993 0.99301 0.5815 0.0
H2309 H 0.08003 0.95388 0.5948 0.0
H2310 H 0.02571 0.93076 0.52662 0.0
H2311 H 0.03581 0.9698 0.51302 0.0
Nd2312 Nd 0.33295 0.84215 0.83836 0.0
Nd2313 Nd 0.29129 0.81519 0.81422 0.0
C2314 C 0.37207 0.87455 0.84965 0.0
C2315 C 0.39701 0.8779 0.84824 0.0
C2316 C 0.40882 0.85856 0.84786 0.0
C2317 C 0.43317 0.86288 0.85119 0.0
C2318 C 0.44591 0.88659 0.85497 0.0
C2319 C 0.43383 0.90561 0.85314 0.0
C2320 C 0.40952 0.90127 0.84985 0.0
C2321 C 0.30501 0.83509 0.87695 0.0
C2322 C 0.33393 0.7839 0.82885 0.0
C2323 C 0.25198 0.78305 0.80178 0.0
C2324 C 0.22694 0.78037 0.80221 0.0
C2325 C 0.21618 0.80049 0.8048 0.0
C2326 C 0.19185 0.79732 0.80046 0.0
C2327 C 0.17813 0.77401 0.79341 0.0
C2328 C 0.18906 0.75398 0.7929 0.0
C2329 C 0.21334 0.75716 0.79724 0.0
C2330 C 0.31996 0.82235 0.77621 0.0
C2331 C 0.29007 0.87325 0.82394 0.0
O2332 O 0.35778 0.87118 0.82728 0.0
O2333 O 0.36458 0.86106 0.8662 0.0
O2334 O 0.32655 0.83224 0.87876 0.0
O2335 O 0.29841 0.83995 0.85441 0.0
O2336 O 0.34753 0.80565 0.83419 0.0
O2337 O 0.31105 0.78323 0.82333 0.0
O2338 O 0.26565 0.78641 0.82458 0.0
O2339 O 0.26024 0.79635 0.78545 0.0
O2340 O 0.29853 0.82559 0.774 0.0
O2341 O 0.32587 0.81711 0.79867 0.0
O2342 O 0.27654 0.8515 0.81869 0.0
O2343 O 0.31297 0.87398 0.82931 0.0
H2344 H 0.39931 0.84036 0.84645 0.0
H2345 H 0.44201 0.84789 0.85276 0.0
H2346 H 0.44323 0.92399 0.85571 0.0
H2347 H 0.40055 0.91634 0.84995 0.0
H2348 H 0.22655 0.81855 0.80874 0.0
H2349 H 0.18386 0.81307 0.80077 0.0
H2350 H 0.17885 0.73584 0.78776 0.0
H2351 H 0.22148 0.74148 0.79535 0.0
Nd2352 Nd 0.53762 0.07188 0.06548 0.0
Nd2353 Nd 0.58804 0.07881 0.09711 0.0
C2354 C 0.49477 0.07616 0.04685 0.0
C2355 C 0.47213 0.07186 0.056 0.0
C2356 C 0.45149 0.06786 0.03778 0.0
C2357 C 0.42994 0.06074 0.04565 0.0
C2358 C 0.42876 0.05745 0.07188 0.0
C2359 C 0.44949 0.06261 0.09035 0.0
C2360 C 0.471 0.06964 0.08244 0.0
C2361 C 0.55246 0.03028 0.07434 0.0
C2362 C 0.54658 0.08399 0.1317 0.0
C2363 C 0.63129 0.07569 0.11578 0.0
C2364 C 0.65365 0.0795 0.10594 0.0
C2365 C 0.67461 0.08488 0.12381 0.0
C2366 C 0.69583 0.09162 0.11502 0.0
C2367 C 0.69633 0.09312 0.08819 0.0
C2368 C 0.67532 0.08651 0.07016 0.0
C2369 C 0.65416 0.07989 0.079 0.0
C2370 C 0.57282 0.12024 0.08839 0.0
C2371 C 0.57888 0.06642 0.03082 0.0
O2372 O 0.51044 0.0941 0.06084 0.0
O2373 O 0.50336 0.05689 0.04019 0.0
O2374 O 0.53742 0.03158 0.05417 0.0
O2375 O 0.5564 0.04984 0.09065 0.0
O2376 O 0.53325 0.08405 0.10901 0.0
O2377 O 0.56761 0.0784 0.13231 0.0
O2378 O 0.6156 0.05722 0.10298 0.0
O2379 O 0.62255 0.09503 0.12138 0.0
O2380 O 0.58738 0.11886 0.10893 0.0
O2381 O 0.56927 0.10081 0.07195 0.0
O2382 O 0.59225 0.06623 0.05346 0.0
O2383 O 0.55798 0.07224 0.03036 0.0
H2384 H 0.45211 0.06935 0.01725 0.0
H2385 H 0.41434 0.05662 0.03087 0.0
H2386 H 0.44914 0.06052 0.11076 0.0
H2387 H 0.48678 0.07255 0.09676 0.0
H2388 H 0.67449 0.0848 0.14471 0.0
H2389 H 0.71165 0.09689 0.12947 0.0
H2390 H 0.67515 0.08721 0.04934 0.0
H2391 H 0.63815 0.07594 0.06494 0.0
Nd2392 Nd 0.29589 0.31062 0.30487 0.0
Nd2393 Nd 0.33018 0.34314 0.3447 0.0
C2394 C 0.26204 0.28317 0.27025 0.0
C2395 C 0.23782 0.28221 0.27597 0.0
C2396 C 0.22698 0.30198 0.27292 0.0
C2397 C 0.21228 0.30911 0.29048 0.0
C2398 C 0.20781 0.29634 0.31099 0.0
C2399 C 0.21504 0.27416 0.31081 0.0
C2400 C 0.22972 0.26699 0.29318 0.0
C2401 C 0.29254 0.30147 0.35541 0.0
C2402 C 0.27957 0.35852 0.33125 0.0
C2403 C 0.36278 0.37011 0.3815 0.0
C2404 C 0.38766 0.37202 0.37792 0.0
C2405 C 0.39942 0.35338 0.38341 0.0
C2406 C 0.41523 0.34611 0.3673 0.0
C2407 C 0.41921 0.35732 0.34556 0.0
C2408 C 0.41144 0.37899 0.34384 0.0
C2409 C 0.39608 0.38657 0.36028 0.0
C2410 C 0.3355 0.35172 0.2947 0.0
C2411 C 0.34684 0.29599 0.31531 0.0
O2412 O 0.27262 0.30387 0.26585 0.0
O2413 O 0.27559 0.27417 0.28655 0.0
O2414 O 0.27514 0.3043 0.33897 0.0
O2415 O 0.31096 0.30635 0.34594 0.0
O2416 O 0.27712 0.34243 0.30957 0.0
O2417 O 0.29706 0.35979 0.35068 0.0
O2418 O 0.35215 0.34888 0.38443 0.0
O2419 O 0.34994 0.37932 0.36466 0.0
O2420 O 0.35216 0.34913 0.31227 0.0
O2421 O 0.31626 0.34735 0.30295 0.0
O2422 O 0.35036 0.3123 0.33711 0.0
O2423 O 0.32827 0.29399 0.29711 0.0
H2424 H 0.23224 0.31381 0.25942 0.0
H2425 H 0.20624 0.32589 0.2896 0.0
H2426 H 0.2116 0.26371 0.32612 0.0
H2427 H 0.23727 0.25131 0.29569 0.0
H2428 H 0.39396 0.34223 0.39746 0.0
H2429 H 0.42168 0.32978 0.36964 0.0
H2430 H 0.41503 0.3885 0.32782 0.0
H2431 H 0.38812 0.40164 0.35618 0.0
Nd2432 Nd 0.55717 0.6055 0.08924 0.0
Nd2433 Nd 0.56495 0.5512 0.06375 0.0
C2434 C 0.54184 0.64377 0.10906 0.0
C2435 C 0.54326 0.66692 0.09975 0.0
C2436 C 0.54662 0.68859 0.1178 0.0
C2437 C 0.55145 0.71068 0.10918 0.0
C2438 C 0.55302 0.71137 0.08238 0.0
C2439 C 0.54898 0.68956 0.06431 0.0
C2440 C 0.54424 0.6676 0.07291 0.0
C2441 C 0.59461 0.60764 0.06171 0.0
C2442 C 0.53583 0.58246 0.02567 0.0
C2443 C 0.57934 0.51255 0.04326 0.0
C2444 C 0.57672 0.48855 0.0511 0.0
C2445 C 0.58725 0.48574 0.07614 0.0
C2446 C 0.58073 0.46449 0.08573 0.0
C2447 C 0.56343 0.44564 0.07062 0.0
C2448 C 0.55414 0.4478 0.04484 0.0
C2449 C 0.56079 0.46901 0.03515 0.0
C2450 C 0.52747 0.54956 0.09135 0.0
C2451 C 0.58655 0.57434 0.12717 0.0
O2452 O 0.52815 0.62519 0.0932 0.0
O2453 O 0.56206 0.63913 0.11857 0.0
O2454 O 0.58818 0.62655 0.07348 0.0
O2455 O 0.58148 0.58933 0.0656 0.0
O2456 O 0.53515 0.59848 0.04701 0.0
O2457 O 0.54762 0.56457 0.02692 0.0
O2458 O 0.5933 0.53049 0.05985 0.0
O2459 O 0.55978 0.51833 0.03335 0.0
O2460 O 0.53375 0.53038 0.08 0.0
O2461 O 0.54084 0.56747 0.08712 0.0
O2462 O 0.58764 0.55871 0.10565 0.0
O2463 O 0.57425 0.59187 0.1261 0.0
H2464 H 0.54624 0.68841 0.13865 0.0
H2465 H 0.55434 0.72719 0.12354 0.0
H2466 H 0.55049 0.68938 0.04365 0.0
H2467 H 0.54223 0.65111 0.05869 0.0
H2468 H 0.5997 0.50034 0.08895 0.0
H2469 H 0.5887 0.46317 0.10541 0.0
H2470 H 0.54075 0.43368 0.03266 0.0
H2471 H 0.55243 0.47066 0.01576 0.0
Nd2472 Nd 0.832 0.34183 0.33274 0.0
Nd2473 Nd 0.78889 0.31223 0.32254 0.0
C2474 C 0.87526 0.36567 0.33731 0.0
C2475 C 0.89941 0.36353 0.33532 0.0
C2476 C 0.90812 0.34332 0.34139 0.0
C2477 C 0.9322 0.34421 0.34591 0.0
C2478 C 0.94773 0.36535 0.34448 0.0
C2479 C 0.93878 0.38457 0.33581 0.0
C2480 C 0.91475 0.38366 0.33132 0.0
C2481 C 0.80882 0.3477 0.3763 0.0
C2482 C 0.83153 0.28221 0.33105 0.0
C2483 C 0.74535 0.28974 0.31987 0.0
C2484 C 0.72253 0.29542 0.32335 0.0
C2485 C 0.71885 0.31913 0.32498 0.0
C2486 C 0.69617 0.32366 0.32237 0.0
C2487 C 0.67697 0.30449 0.31817 0.0
C2488 C 0.68092 0.28104 0.31904 0.0
C2489 C 0.70359 0.27654 0.32151 0.0
C2490 C 0.81145 0.30551 0.27875 0.0
C2491 C 0.78966 0.37184 0.3231 0.0
O2492 O 0.86029 0.36191 0.31542 0.0
O2493 O 0.8665 0.35716 0.35667 0.0
O2494 O 0.82013 0.36493 0.36688 0.0
O2495 O 0.81005 0.32748 0.36297 0.0
O2496 O 0.84419 0.30366 0.33025 0.0
O2497 O 0.80889 0.28116 0.33159 0.0
O2498 O 0.76101 0.29322 0.34114 0.0
O2499 O 0.75386 0.29694 0.29972 0.0
O2500 O 0.79927 0.28873 0.28803 0.0
O2501 O 0.81104 0.32608 0.29208 0.0
O2502 O 0.77704 0.35055 0.32442 0.0
O2503 O 0.81226 0.37275 0.32254 0.0
H2504 H 0.89646 0.32756 0.34445 0.0
H2505 H 0.93863 0.32918 0.35269 0.0
H2506 H 0.9504 0.40094 0.33426 0.0
H2507 H 0.90825 0.39936 0.32651 0.0
H2508 H 0.73335 0.33391 0.32659 0.0
H2509 H 0.69358 0.34191 0.32197 0.0
H2510 H 0.66647 0.26588 0.31557 0.0
H2511 H 0.70622 0.25814 0.32025 0.0
Nd2512 Nd 0.03513 0.57263 0.5572 0.0
Nd2513 Nd 0.08581 0.58003 0.58805 0.0
C2514 C 0.99188 0.5762 0.53943 0.0
C2515 C 0.96989 0.5711 0.54969 0.0
C2516 C 0.94866 0.57077 0.53378 0.0
C2517 C 0.92758 0.56308 0.54243 0.0
C2518 C 0.92756 0.55552 0.56706 0.0
C2519 C 0.94896 0.55706 0.58345 0.0
C2520 C 0.96995 0.56472 0.5748 0.0
C2521 C 0.05033 0.53134 0.56668 0.0
C2522 C 0.04469 0.58539 0.62318 0.0
C2523 C 0.12878 0.57611 0.60625 0.0
C2524 C 0.1521 0.58655 0.6016 0.0
C2525 C 0.16922 0.57229 0.59995 0.0
C2526 C 0.19141 0.58209 0.59529 0.0
C2527 C 0.19674 0.60633 0.59244 0.0
C2528 C 0.17941 0.62042 0.59368 0.0
C2529 C 0.15724 0.61059 0.59805 0.0
C2530 C 0.07119 0.62154 0.57826 0.0
C2531 C 0.07604 0.56696 0.52184 0.0
O2532 O 1.00742 0.59428 0.55329 0.0
O2533 O 1.00086 0.55733 0.5321 0.0
O2534 O 0.03494 0.53223 0.54667 0.0
O2535 O 0.05435 0.55109 0.58262 0.0
O2536 O 0.03123 0.58566 0.60069 0.0
O2537 O 0.06548 0.57935 0.62334 0.0
O2538 O 0.11561 0.56102 0.5863 0.0
O2539 O 0.11742 0.591 0.61851 0.0
O2540 O 0.08716 0.62078 0.59775 0.0
O2541 O 0.06676 0.60157 0.56269 0.0
O2542 O 0.08984 0.5674 0.54439 0.0
O2543 O 0.05489 0.57215 0.52153 0.0
H2544 H 0.94837 0.57559 0.51431 0.0
H2545 H 0.91135 0.56183 0.52928 0.0
H2546 H 0.94946 0.55158 0.60262 0.0
H2547 H 0.98622 0.56481 0.5873 0.0
H2548 H 0.16543 0.55363 0.60235 0.0
H2549 H 0.20452 0.57091 0.59448 0.0
H2550 H 0.18301 0.63906 0.59116 0.0
H2551 H 0.14414 0.6218 0.59872 0.0
Nd2552 Nd 0.81843 0.83146 0.34972 0.0
Nd2553 Nd 0.80075 0.82272 0.30291 0.0
C2554 C 0.82657 0.83478 0.4018 0.0
C2555 C 0.82001 0.84883 0.4249 0.0
C2556 C 0.80848 0.83677 0.44252 0.0
C2557 C 0.80292 0.84974 0.46515 0.0
C2558 C 0.80904 0.87501 0.47065 0.0
C2559 C 0.81989 0.88705 0.45244 0.0
C2560 C 0.82523 0.8741 0.42972 0.0
C2561 C 0.83091 0.87507 0.33054 0.0
C2562 C 0.76318 0.83796 0.33723 0.0
C2563 C 0.79213 0.81644 0.25057 0.0
C2564 C 0.80009 0.80122 0.22926 0.0
C2565 C 0.8227 0.80709 0.22306 0.0
C2566 C 0.83019 0.79194 0.20346 0.0
C2567 C 0.81526 0.77064 0.18994 0.0
C2568 C 0.79269 0.76484 0.19613 0.0
C2569 C 0.78514 0.78004 0.21548 0.0
C2570 C 0.78872 0.77956 0.32304 0.0
C2571 C 0.85617 0.81727 0.31514 0.0
O2572 O 0.80975 0.81911 0.38646 0.0
O2573 O 0.84069 0.8463 0.38857 0.0
O2574 O 0.8448 0.86452 0.34413 0.0
O2575 O 0.81043 0.86181 0.326 0.0
O2576 O 0.77975 0.83464 0.35533 0.0
O2577 O 0.7681 0.83752 0.31318 0.0
O2578 O 0.80761 0.83408 0.26512 0.0
O2579 O 0.77868 0.80514 0.2646 0.0
O2580 O 0.77439 0.79049 0.31068 0.0
O2581 O 0.8092 0.79257 0.32637 0.0
O2582 O 0.8397 0.82112 0.29733 0.0
O2583 O 0.85104 0.81681 0.33899 0.0
H2584 H 0.80408 0.81727 0.43897 0.0
H2585 H 0.79429 0.83996 0.47861 0.0
H2586 H 0.82522 0.90647 0.45625 0.0
H2587 H 0.83391 0.88389 0.4163 0.0
H2588 H 0.83466 0.82333 0.23333 0.0
H2589 H 0.84761 0.79684 0.19887 0.0
H2590 H 0.78062 0.74881 0.18551 0.0
H2591 H 0.76759 0.77517 0.21971 0.0
Nd2592 Nd 0.81359 0.34929 0.84226 0.0
Nd2593 Nd 0.80869 0.3061 0.81216 0.0
C2594 C 0.81356 0.39506 0.86176 0.0
C2595 C 0.82114 0.4177 0.85254 0.0
C2596 C 0.82057 0.43986 0.868 0.0
C2597 C 0.82972 0.46142 0.86021 0.0
C2598 C 0.83958 0.46107 0.8368 0.0
C2599 C 0.83924 0.43873 0.82091 0.0
C2600 C 0.83028 0.41728 0.82881 0.0
C2601 C 0.85777 0.337 0.84184 0.0
C2602 C 0.80843 0.34659 0.7777 0.0
C2603 C 0.81028 0.26094 0.79215 0.0
C2604 C 0.80138 0.23676 0.79762 0.0
C2605 C 0.80889 0.22975 0.82171 0.0
C2606 C 0.79943 0.2071 0.82676 0.0
C2607 C 0.78221 0.19104 0.8079 0.0
C2608 C 0.77498 0.19807 0.78371 0.0
C2609 C 0.78456 0.22059 0.77861 0.0
C2610 C 0.76417 0.31754 0.81329 0.0
C2611 C 0.81242 0.3086 0.8768 0.0
O2612 O 0.79548 0.38043 0.84727 0.0
O2613 O 0.83019 0.38384 0.86878 0.0
O2614 O 0.84928 0.34485 0.86254 0.0
O2615 O 0.84241 0.33464 0.82118 0.0
O2616 O 0.80492 0.35821 0.8003 0.0
O2617 O 0.8147 0.32562 0.77731 0.0
O2618 O 0.82689 0.27503 0.80955 0.0
O2619 O 0.79464 0.27247 0.78293 0.0
O2620 O 0.77194 0.3083 0.79264 0.0
O2621 O 0.78004 0.32074 0.83361 0.0
O2622 O 0.81504 0.29622 0.85412 0.0
O2623 O 0.80758 0.33023 0.87731 0.0
H2624 H 0.81367 0.44049 0.88646 0.0
H2625 H 0.82996 0.4783 0.87305 0.0
H2626 H 0.84638 0.43779 0.8026 0.0
H2627 H 0.83109 0.40036 0.81672 0.0
H2628 H 0.82191 0.24179 0.83677 0.0
H2629 H 0.80563 0.2022 0.84545 0.0
H2630 H 0.76146 0.18644 0.76889 0.0
H2631 H 0.77847 0.22555 0.75989 0.0
Nd2632 Nd 0.79547 0.81117 0.808 0.0
Nd2633 Nd 0.82907 0.84532 0.84712 0.0
C2634 C 0.76211 0.78335 0.77306 0.0
C2635 C 0.73764 0.78281 0.77776 0.0
C2636 C 0.7275 0.80314 0.7752 0.0
C2637 C 0.71208 0.80988 0.79208 0.0
C2638 C 0.70638 0.79624 0.81149 0.0
C2639 C 0.71314 0.77378 0.81072 0.0
C2640 C 0.72838 0.76693 0.79368 0.0
C2641 C 0.7934 0.80252 0.85894 0.0
C2642 C 0.77738 0.858 0.83514 0.0
C2643 C 0.86247 0.87323 0.88177 0.0
C2644 C 0.88676 0.87339 0.8766 0.0
C2645 C 0.89689 0.85323 0.88014 0.0
C2646 C 0.91091 0.84479 0.86236 0.0
C2647 C 0.9152 0.8566 0.84114 0.0
C2648 C 0.90892 0.87917 0.84083 0.0
C2649 C 0.89521 0.88778 0.85883 0.0
C2650 C 0.83214 0.85331 0.79626 0.0
C2651 C 0.8471 0.79854 0.81966 0.0
O2652 O 0.77314 0.80372 0.76832 0.0
O2653 O 0.77505 0.77465 0.7903 0.0
O2654 O 0.77544 0.80397 0.8424 0.0
O2655 O 0.81154 0.80799 0.84915 0.0
O2656 O 0.7752 0.84188 0.81349 0.0
O2657 O 0.79536 0.86023 0.85424 0.0
O2658 O 0.8514 0.853 0.88682 0.0
O2659 O 0.84942 0.88191 0.8646 0.0
O2660 O 0.84957 0.85108 0.81302 0.0
O2661 O 0.81362 0.84846 0.80571 0.0
O2662 O 0.84916 0.81441 0.84154 0.0
O2663 O 0.82916 0.79646 0.80054 0.0
H2664 H 0.73375 0.81558 0.76273 0.0
H2665 H 0.7068 0.8271 0.79189 0.0
H2666 H 0.70842 0.76255 0.82498 0.0
H2667 H 0.73536 0.75083 0.79574 0.0
H2668 H 0.89135 0.842 0.89409 0.0
H2669 H 0.91602 0.8276 0.86343 0.0
H2670 H 0.91267 0.88902 0.8251 0.0
H2671 H 0.88836 0.90381 0.85605 0.0
Nd2672 Nd 0.57805 0.59695 0.58542 0.0
Nd2673 Nd 0.54645 0.56086 0.56888 0.0
C2674 C 0.59952 0.64281 0.59888 0.0
C2675 C 0.59842 0.663 0.5837 0.0
C2676 C 0.58276 0.67871 0.58822 0.0
C2677 C 0.57971 0.69591 0.57203 0.0
C2678 C 0.5925 0.69818 0.55105 0.0
C2679 C 0.60876 0.68303 0.54713 0.0
C2680 C 0.61164 0.66568 0.56315 0.0
C2681 C 0.58818 0.57843 0.5355 0.0
C2682 C 0.52744 0.60618 0.55707 0.0
C2683 C 0.52402 0.51506 0.55763 0.0
C2684 C 0.52671 0.49449 0.57168 0.0
C2685 C 0.54875 0.48861 0.57854 0.0
C2686 C 0.55152 0.47111 0.59435 0.0
C2687 C 0.5323 0.45875 0.60357 0.0
C2688 C 0.51013 0.46408 0.59598 0.0
C2689 C 0.50741 0.48179 0.58036 0.0
C2690 C 0.5372 0.58131 0.61866 0.0
C2691 C 0.59784 0.55149 0.59374 0.0
O2692 O 0.58055 0.63423 0.60746 0.0
O2693 O 0.60971 0.62561 0.58943 0.0
O2694 O 0.6024 0.58469 0.55758 0.0
O2695 O 0.5673 0.58005 0.54001 0.0
O2696 O 0.54667 0.61486 0.57404 0.0
O2697 O 0.52349 0.58309 0.54682 0.0
O2698 O 0.54109 0.52347 0.5459 0.0
O2699 O 0.51584 0.53238 0.57024 0.0
O2700 O 0.5231 0.57662 0.5965 0.0
O2701 O 0.55745 0.57754 0.61404 0.0
O2702 O 0.57899 0.54366 0.57606 0.0
O2703 O 0.60086 0.5738 0.60641 0.0
H2704 H 0.5724 0.67735 0.60395 0.0
H2705 H 0.56729 0.70746 0.57599 0.0
H2706 H 0.61882 0.68405 0.53111 0.0
H2707 H 0.62388 0.65398 0.55896 0.0
H2708 H 0.56402 0.49776 0.5721 0.0
H2709 H 0.56879 0.46726 0.59936 0.0
H2710 H 0.49494 0.45508 0.6028 0.0
H2711 H 0.49024 0.48596 0.57556 0.0
Nd2712 Nd 0.08012 0.58883 0.07607 0.0
Nd2713 Nd 0.0363 0.56708 0.07277 0.0
C2714 C 0.12441 0.60519 0.07303 0.0
C2715 C 0.14584 0.60013 0.08697 0.0
C2716 C 0.16774 0.60986 0.08141 0.0
C2717 C 0.18798 0.60436 0.09455 0.0
C2718 C 0.18647 0.58905 0.11338 0.0
C2719 C 0.16442 0.57986 0.11925 0.0
C2720 C 0.1443 0.58528 0.10609 0.0
C2721 C 0.07541 0.5704 0.1226 0.0
C2722 C 0.06658 0.53296 0.0478 0.0
C2723 C 0.99188 0.55014 0.07511 0.0
C2724 C 0.96974 0.55157 0.05928 0.0
C2725 C 0.94857 0.5447 0.06817 0.0
C2726 C 0.92753 0.54655 0.05331 0.0
C2727 C 0.92737 0.55527 0.02927 0.0
C2728 C 0.9487 0.56175 0.02029 0.0
C2729 C 0.96969 0.56001 0.03522 0.0
C2730 C 0.04179 0.58553 0.02636 0.0
C2731 C 0.05043 0.62259 0.10235 0.0
O2732 O 0.11131 0.58707 0.05636 0.0
O2733 O 0.11234 0.61677 0.08806 0.0
O2734 O 0.08554 0.59187 0.12141 0.0
O2735 O 0.06698 0.55911 0.09947 0.0
O2736 O 0.07822 0.55405 0.04543 0.0
O2737 O 0.05083 0.53266 0.06351 0.0
O2738 O 1.00371 0.57031 0.08935 0.0
O2739 O 1.0051 0.53776 0.06276 0.0
O2740 O 0.03186 0.56392 0.02728 0.0
O2741 O 0.0495 0.59685 0.0496 0.0
O2742 O 0.03853 0.60147 0.10431 0.0
O2743 O 0.06594 0.62312 0.08635 0.0
H2744 H 0.16916 0.6214 0.0667 0.0
H2745 H 0.2047 0.6115 0.08941 0.0
H2746 H 0.16269 0.56829 0.13389 0.0
H2747 H 0.12748 0.57769 0.11068 0.0
H2748 H 0.94834 0.53821 0.08675 0.0
H2749 H 0.91147 0.54178 0.06102 0.0
H2750 H 0.94922 0.56826 1.00176 0.0
H2751 H 0.9859 0.56539 0.02804 0.0
C2752 C 0.09658 0.23428 0.99274 0.0
C2753 C 0.08131 0.25037 0.99758 0.0
H2754 H 0.11172 0.20527 1.00462 0.0
C2755 C 0.06927 0.24878 0.01926 0.0
H2756 H 0.106 0.23468 0.97613 0.0
C2757 C 0.0725 0.23175 0.03563 0.0
C2758 C 0.08773 0.21562 0.03071 0.0
H2759 H 0.05753 0.26095 0.02384 0.0
H2760 H 0.06278 0.231 0.05196 0.0
C2761 C 0.09969 0.21717 1.00898 0.0
C2762 C 0.19575 0.79848 0.31218 0.0
C2763 C 0.18782 0.81933 0.30624 0.0
H2764 H 0.22473 0.7816 0.32307 0.0
C2765 C 0.20526 0.83999 0.30747 0.0
H2766 H 0.18325 0.78219 0.31184 0.0
C2767 C 0.22948 0.83955 0.31365 0.0
C2768 C 0.23728 0.81858 0.31943 0.0
H2769 H 0.20023 0.85644 0.30293 0.0
H2770 H 0.24213 0.85566 0.31374 0.0
C2771 C 0.21981 0.79818 0.31884 0.0
C2772 C 0.59045 0.98637 0.50298 0.0
C2773 C 0.57293 0.96565 0.49975 0.0
H2774 H 0.60265 0.02345 0.52147 0.0
C2775 C 0.55446 0.96658 0.51439 0.0
H2776 H 0.60486 0.9863 0.49193 0.0
C2777 C 0.55335 0.98769 0.53153 0.0
C2778 C 0.5705 1.00863 0.53427 0.0
H2779 H 0.54081 0.9509 0.51261 0.0
H2780 H 0.53873 0.9877 0.54224 0.0
C2781 C 0.58913 1.00768 0.51985 0.0
C2782 C 0.41004 0.3169 0.77538 0.0
C2783 C 0.42842 0.31447 0.79482 0.0
H2784 H 0.37397 0.3198 0.7655 0.0
C2785 C 0.42262 0.31259 0.82022 0.0
H2786 H 0.41314 0.318 0.75541 0.0
C2787 C 0.39982 0.31349 0.82597 0.0
C2788 C 0.3816 0.31618 0.80659 0.0
H2789 H 0.43588 0.31095 0.83606 0.0
H2790 H 0.39656 0.31234 0.84589 0.0
C2791 C 0.38722 0.31773 0.78112 0.0
C2792 C 1.01273 0.89002 0.58484 0.0
C2793 C 0.02872 0.8764 0.59433 0.0
H2794 H 1.00761 0.92055 0.56708 0.0
C2795 C 0.05238 0.88314 0.59188 0.0
H2796 H 0.99447 0.88567 0.58675 0.0
C2797 C 0.05993 0.90339 0.58096 0.0
C2798 C 0.04395 0.9171 0.57187 0.0
H2799 H 0.06513 0.8728 0.59844 0.0
H2800 H 0.07828 0.90834 0.57963 0.0
C2801 C 1.02025 0.91006 0.57361 0.0
C2802 C 0.50855 0.87874 0.86896 0.0
C2803 C 0.51634 0.89519 0.89276 0.0
H2804 H 0.47975 0.86316 0.83786 0.0
C2805 C 0.50219 0.9111 0.90167 0.0
H2806 H 0.51926 0.86626 0.86188 0.0
C2807 C 0.47984 0.90946 0.88801 0.0
C2808 C 0.47118 0.89171 0.86534 0.0
H2809 H 0.50798 0.92392 0.92002 0.0
H2810 H 0.46878 0.92095 0.89637 0.0
C2811 C 0.486 0.8769 0.85538 0.0
C2812 C 0.53358 0.1579 0.11959 0.0
C2813 C 0.52275 0.1662 0.09793 0.0
H2814 H 0.55835 0.13766 0.13356 0.0
C2815 C 0.52799 0.1587 0.07254 0.0
H2816 H 0.53026 0.1637 0.13944 0.0
C2817 C 0.544 0.1433 0.06906 0.0
C2818 C 0.55542 0.13587 0.09103 0.0
H2819 H 0.52002 0.16508 0.05557 0.0
H2820 H 0.54789 0.13771 0.04942 0.0
C2821 C 0.54994 0.14322 0.11624 0.0
C2822 C 0.17781 0.30652 0.37144 0.0
C2823 C 0.18833 0.3305 0.38281 0.0
H2824 H 0.17537 0.27691 0.33955 0.0
C2825 C 0.20462 0.3431 0.36986 0.0
H2826 H 0.16486 0.29638 0.38061 0.0
C2827 C 0.21021 0.33207 0.34621 0.0
C2828 C 0.19978 0.30815 0.33483 0.0
H2829 H 0.21341 0.3614 0.37818 0.0
H2830 H 0.22331 0.34207 0.33723 0.0
C2831 C 0.18359 0.29541 0.34777 0.0
C2832 C 0.99179 0.09444 0.1658 0.0
C2833 C 0.99969 0.0869 0.18962 0.0
H2834 H 0.99652 0.09878 0.12622 0.0
C2835 C 1.02119 0.0784 0.19019 0.0
H2836 H 0.97545 0.10075 0.16345 0.0
C2837 C 0.03375 0.07734 0.16812 0.0
C2838 C 0.02531 0.08453 0.14425 0.0
H2839 H 0.02846 0.07246 0.2078 0.0
H2840 H 0.04966 0.07016 0.16953 0.0
C2841 C 1.0041 0.09321 0.14396 0.0
C2842 C 0.32981 0.76591 0.42449 0.0
C2843 C 0.33529 0.78153 0.44923 0.0
H2844 H 0.31882 0.76154 0.38261 0.0
C2845 C 0.33263 0.80565 0.44982 0.0
H2846 H 0.33185 0.74733 0.42294 0.0
C2847 C 0.32502 0.81388 0.42643 0.0
C2848 C 0.31998 0.79829 0.40169 0.0
H2849 H 0.33635 0.81823 0.4684 0.0
H2850 H 0.32356 0.83261 0.4277 0.0
C2851 C 0.32236 0.77414 0.40118 0.0
C2852 C 0.60125 0.06331 0.69803 0.0
C2853 C 0.59561 0.0384 0.69813 0.0
H2854 H 0.60015 0.09211 0.67622 0.0
C2855 C 0.58364 0.02335 0.67436 0.0
H2856 H 0.61088 0.07561 0.71549 0.0
C2857 C 0.57748 0.03301 0.6514 0.0
C2858 C 0.58329 0.05794 0.65156 0.0
H2859 H 0.57886 1.00411 0.67351 0.0
H2860 H 0.56843 0.02093 0.63349 0.0
C2861 C 0.59519 0.07285 0.67526 0.0
C2862 C 0.33289 0.38918 0.04548 0.0
C2863 C 0.31479 0.40139 0.05099 0.0
H2864 H 0.34583 0.36583 0.01732 0.0
C2865 C 0.29411 0.39677 0.0325 0.0
H2866 H 0.34925 0.39264 0.05899 0.0
C2867 C 0.29219 0.38131 1.00832 0.0
C2868 C 0.31087 0.37017 1.00235 0.0
H2869 H 0.27972 0.40563 0.03639 0.0
H2870 H 0.27644 0.37869 0.99396 0.0
C2871 C 0.33093 0.37373 0.0215 0.0
C2872 C 1.00707 0.06828 0.45222 0.0
C2873 C 0.99773 0.08891 0.44835 0.0
H2874 H 0.0261 0.05031 0.47883 0.0
C2875 C 1.00133 0.1078 0.47037 0.0
H2876 H 1.00511 0.05339 0.43594 0.0
C2877 C 1.01344 0.10597 0.49524 0.0
C2878 C 0.02267 0.08529 0.49908 0.0
H2879 H 0.99435 0.12392 0.4686 0.0
H2880 H 1.01552 0.12088 0.51154 0.0
C2881 C 1.01934 0.06655 0.477 0.0
C2882 C 0.33341 0.8118 0.70505 0.0
C2883 C 0.35029 0.79702 0.70673 0.0
H2884 H 0.3105 0.83112 0.72526 0.0
C2885 C 0.35794 0.79192 0.73188 0.0
H2886 H 0.32689 0.81602 0.6861 0.0
C2887 C 0.34881 0.80093 0.75442 0.0
C2888 C 0.33134 0.81499 0.75258 0.0
H2889 H 0.37099 0.7808 0.73416 0.0
H2890 H 0.355 0.79623 0.77324 0.0
C2891 C 0.32392 0.82044 0.72755 0.0
C2892 C 0.61623 0.04161 0.98217 0.0
C2893 C 0.60383 0.04276 0.95737 0.0
H2894 H 0.61818 0.04782 0.02427 0.0
C2895 C 0.58293 0.05175 0.95694 0.0
H2896 H 0.63212 0.03437 0.9834 0.0
C2897 C 0.57488 0.05965 0.98062 0.0
C2898 C 0.58748 0.05875 1.00541 0.0
H2899 H 0.57295 0.0531 0.93829 0.0
H2900 H 0.55878 0.06652 0.97946 0.0
C2901 C 0.60819 0.04941 1.00574 0.0
C2902 C 0.36594 0.40601 0.27117 0.0
C2903 C 0.34721 0.41309 0.25664 0.0
H2904 H 0.37703 0.38085 0.29403 0.0
C2905 C 0.325 0.39806 0.25215 0.0
H2906 H 0.38323 0.41715 0.27522 0.0
C2907 C 0.3214 0.37713 0.26313 0.0
C2908 C 0.33998 0.37067 0.27856 0.0
H2909 H 0.31029 0.40258 0.24041 0.0
H2910 H 0.30393 0.36647 0.26033 0.0
C2911 C 0.36239 0.38501 0.28187 0.0
C2912 C 0.13039 1.00275 0.07156 0.0
C2913 C 0.1496 1.00636 0.09189 0.0
H2914 H 0.09915 1.01359 0.05632 0.0
C2915 C 0.15114 0.02518 0.11366 0.0
H2916 H 0.12827 0.98844 0.05462 0.0
C2917 C 0.13416 0.0401 0.11466 0.0
C2918 C 0.11489 0.03623 0.09421 0.0
H2919 H 0.16574 0.02868 0.12969 0.0
H2920 H 0.13606 0.05452 0.13144 0.0
C2921 C 0.11342 0.01722 0.07276 0.0
C2922 C 0.64135 0.63316 0.02535 0.0
C2923 C 0.65305 0.61394 0.02001 0.0
H2924 H 0.61388 0.64605 0.04274 0.0
C2925 C 0.64393 0.59149 0.02624 0.0
H2926 H 0.6476 0.65051 0.02025 0.0
C2927 C 0.62421 0.58883 0.03897 0.0
C2928 C 0.61358 0.60863 0.04571 0.0
H2929 H 0.65263 0.57638 0.02241 0.0
H2930 H 0.61792 0.57169 0.04449 0.0
C2931 C 0.62199 0.63058 0.03819 0.0
C2932 C 0.74609 0.41724 0.33096 0.0
C2933 C 0.75936 0.4402 0.32975 0.0
H2934 H 0.74428 0.37892 0.32974 0.0
C2935 C 0.78279 0.43972 0.32576 0.0
H2936 H 0.72802 0.41573 0.33363 0.0
C2937 C 0.79224 0.41806 0.32337 0.0
C2938 C 0.77895 0.39522 0.3246 0.0
H2939 H 0.79432 0.45631 0.32491 0.0
H2940 H 0.81032 0.41936 0.32071 0.0
C2941 C 0.75553 0.39557 0.32844 0.0
C2942 C 0.8638 0.53966 0.57445 0.0
C2943 C 0.86306 0.51726 0.58256 0.0
H2944 H 0.88503 0.56952 0.56312 0.0
C2945 C 0.88383 0.5086 0.58755 0.0
H2946 H 0.84794 0.54661 0.57038 0.0
C2947 C 0.90488 0.52161 0.58352 0.0
C2948 C 0.90558 0.5435 0.57426 0.0
H2949 H 0.88368 0.49142 0.59396 0.0
H2950 H 0.92045 0.51397 0.58657 0.0
C2951 C 0.88492 0.55262 0.57014 0.0
C2952 C 0.3699 0.23749 0.30286 0.0
C2953 C 0.39338 0.2447 0.31533 0.0
H2954 H 0.33696 0.24803 0.29231 0.0
C2955 C 0.40177 0.26931 0.32548 0.0
H2956 H 0.36289 0.2187 0.29462 0.0
C2957 C 0.38676 0.28594 0.32455 0.0
C2958 C 0.36318 0.2787 0.3128 0.0
H2959 H 0.41967 0.27557 0.33526 0.0
H2960 H 0.39346 0.3045 0.33353 0.0
C2961 C 0.35507 0.25432 0.30132 0.0
C2962 C 0.38922 0.08946 0.4959 0.0
C2963 C 0.36821 0.07251 0.49148 0.0
H2964 H 0.42538 0.09832 0.51252 0.0
C2965 C 0.36852 0.04999 0.49909 0.0
H2966 H 0.38958 0.10721 0.49091 0.0
C2967 C 0.3892 0.0449 0.51166 0.0
C2968 C 0.41 0.06222 0.5169 0.0
H2969 H 0.35268 0.03648 0.49578 0.0
H2970 H 0.38884 0.0275 0.51756 0.0
C2971 C 0.40981 0.08439 0.50844 0.0
C2972 C 0.74886 0.71866 0.32571 0.0
C2973 C 0.76396 0.70368 0.33468 0.0
H2974 H 0.7444 0.75279 0.31534 0.0
C2975 C 0.7881 0.71468 0.34056 0.0
H2976 H 0.7302 0.7121 0.32144 0.0
C2977 C 0.79645 0.73893 0.33721 0.0
C2978 C 0.78112 0.75352 0.32782 0.0
H2979 H 0.80079 0.70443 0.3474 0.0
H2980 H 0.81502 0.74615 0.34178 0.0
C2981 C 0.75715 0.74263 0.32235 0.0
C2982 C 0.88613 0.50552 0.81639 0.0
C2983 C 0.87776 0.5271 0.82104 0.0
H2984 H 0.88088 0.46802 0.81801 0.0
C2985 C 0.85591 0.52665 0.82934 0.0
H2986 H 0.9028 0.50527 0.80973 0.0
C2987 C 0.84314 0.50513 0.83393 0.0
C2988 C 0.85193 0.48367 0.83008 0.0
H2989 H 0.8491 0.54306 0.83322 0.0
H2990 H 0.82654 0.50534 0.84077 0.0
C2991 C 0.87341 0.4841 0.82088 0.0
C2992 C 1.02159 0.90115 0.13479 0.0
C2993 C 0.03944 0.90675 0.15707 0.0
H2994 H 1.00472 0.91275 0.10095 0.0
C2995 C 0.05408 0.92966 0.1618 0.0
H2996 H 1.01017 0.88366 0.12995 0.0
C2997 C 0.05114 0.9462 0.14479 0.0
C2998 C 0.03329 0.94057 0.12263 0.0
H2999 H 0.0677 0.93508 0.17891 0.0
H3000 H 0.06267 0.96366 0.14927 0.0
C3001 C 1.01848 0.91785 0.11797 0.0
C3002 C 0.92048 0.33301 0.82653 0.0
C3003 C 0.93311 0.33372 0.85209 0.0
H3004 H 0.88722 0.33297 0.80268 0.0
C3005 C 0.92021 0.33511 0.87325 0.0
H3006 H 0.9294 0.33185 0.80949 0.0
C3007 C 0.89619 0.33577 0.8693 0.0
C3008 C 0.88348 0.33502 0.84396 0.0
H3009 H 0.92879 0.33622 0.89334 0.0
H3010 H 0.8875 0.33704 0.88652 0.0
C3011 C 0.89608 0.33347 0.8225 0.0
C3012 C 0.56266 0.18821 0.63547 0.0
C3013 C 0.54823 0.18844 0.65515 0.0
H3014 H 0.5757 0.16726 0.60483 0.0
C3015 C 0.535 0.16632 0.658 0.0
H3016 H 0.57279 0.20483 0.63224 0.0
C3017 C 0.53657 0.14463 0.64203 0.0
C3018 C 0.55137 0.14446 0.62274 0.0
H3019 H 0.52384 0.16566 0.67304 0.0
H3020 H 0.52644 0.12794 0.64509 0.0
C3021 C 0.56421 0.16659 0.61955 0.0
C3022 C 0.71166 0.84531 0.37576 0.0
C3023 C 0.6922 0.84263 0.35556 0.0
H3024 H 0.74849 0.84582 0.38619 0.0
C3025 C 0.69673 0.83887 0.3292 0.0
H3026 H 0.70931 0.84795 0.39633 0.0
C3027 C 0.71955 0.83796 0.32336 0.0
C3028 C 0.73889 0.84037 0.34357 0.0
H3029 H 0.68263 0.83688 0.31288 0.0
H3030 H 0.72193 0.83498 0.3028 0.0
C3031 C 0.73438 0.84401 0.3699 0.0
C3032 C 0.06551 0.26185 0.55363 0.0
C3033 C 0.08609 0.27846 0.56514 0.0
H3034 H 0.04282 0.22885 0.55488 0.0
C3035 C 0.09906 0.27465 0.58842 0.0
H3036 H 0.0553 0.26394 0.53544 0.0
C3037 C 0.09191 0.25439 0.59953 0.0
C3038 C 0.07158 0.23758 0.58766 0.0
H3039 H 0.11479 0.28728 0.59803 0.0
H3040 H 0.10237 0.25176 0.6173 0.0
C3041 C 0.05831 0.2417 0.56479 0.0
C3042 C 0.62849 0.31839 0.27193 0.0
C3043 C 0.60875 0.30464 0.27871 0.0
H3044 H 0.66554 0.3293 0.27944 0.0
C3045 C 0.61137 0.29426 0.30162 0.0
H3046 H 0.62726 0.32641 0.25429 0.0
C3047 C 0.63353 0.29574 0.31597 0.0
C3048 C 0.65337 0.30789 0.30784 0.0
H3049 H 0.59643 0.28405 0.30778 0.0
H3050 H 0.63527 0.28639 0.3326 0.0
C3051 C 0.65054 0.32008 0.28642 0.0
C3052 C 0.59138 0.9934 0.04139 0.0
C3053 C 0.60577 0.98857 0.06301 0.0
H3054 H 0.56313 1.00972 0.02809 0.0
C3055 C 0.60179 0.99665 0.08882 0.0
H3056 H 0.59344 0.9868 0.02123 0.0
C3057 C 0.5841 1.00991 0.0928 0.0
C3058 C 0.57 1.01487 0.07102 0.0
H3059 H 0.61241 0.99286 0.10582 0.0
H3060 H 0.58158 0.01643 0.1128 0.0
C3061 C 0.57366 1.0062 0.04533 0.0
C3062 C 0.94538 0.81723 0.79642 0.0
C3063 C 0.93166 0.81545 0.77146 0.0
H3064 H 0.95109 0.83177 0.83804 0.0
C3065 C 0.91301 0.82789 0.7698 0.0
H3066 H 0.96021 0.80837 0.79847 0.0
C3067 C 0.90831 0.84182 0.79235 0.0
C3068 C 0.92195 0.84349 0.81721 0.0
H3069 H 0.90179 0.82665 0.75112 0.0
H3070 H 0.89352 0.85077 0.79045 0.0
C3071 C 0.94041 0.8309 0.81908 0.0
C3072 C 0.1 0.07927 0.96247 0.0
C3073 C 0.12109 0.07002 0.96281 0.0
H3074 H 0.07187 0.08823 0.98332 0.0
C3075 C 0.12852 0.06176 0.98632 0.0
H3076 H 0.09312 0.0858 0.94509 0.0
C3077 C 0.11619 0.0631 1.00817 0.0
C3078 C 0.09539 0.07251 1.00809 0.0
H3079 H 0.14454 0.05483 0.98845 0.0
H3080 H 0.12344 0.05705 0.02574 0.0
C3081 C 0.0874 0.08039 0.98449 0.0
C3082 C 0.792 0.35043 0.70444 0.0
C3083 C 0.78626 0.37353 0.70596 0.0
H3084 H 0.80387 0.32394 0.72551 0.0
C3085 C 0.78912 0.38788 0.73127 0.0
H3086 H 0.79035 0.33889 0.68539 0.0
C3087 C 0.797 0.37936 0.75421 0.0
C3088 C 0.80244 0.35619 0.75276 0.0
H3089 H 0.78468 0.40561 0.73353 0.0
H3090 H 0.79841 0.39091 0.77321 0.0
C3091 C 0.80004 0.34192 0.72748 0.0
C3092 C 0.53087 0.08988 0.45871 0.0
C3093 C 0.52706 0.11372 0.45991 0.0
H3094 H 0.53918 0.06219 0.47987 0.0
C3095 C 0.53139 0.12859 0.48519 0.0
H3096 H 0.5287 0.07788 0.43989 0.0
C3097 C 0.53834 0.1196 0.50833 0.0
C3098 C 0.54077 0.0954 0.50688 0.0
H3099 H 0.52862 0.14696 0.48731 0.0
H3100 H 0.54079 0.13129 0.52742 0.0
C3101 C 0.53723 0.08084 0.48174 0.0
C3102 C 0.8178 0.71558 0.14125 0.0
C3103 C 0.82391 0.72607 0.11972 0.0
H3104 H 0.81048 0.72176 0.1809 0.0
C3105 C 0.8315 0.75113 0.1233 0.0
H3106 H 0.8118 0.69631 0.13896 0.0
C3107 C 0.83065 0.76568 0.14723 0.0
C3108 C 0.82208 0.75532 0.16778 0.0
H3109 H 0.83647 0.75956 0.10698 0.0
H3110 H 0.83484 0.78506 0.14881 0.0
C3111 C 0.81682 0.73013 0.16512 0.0
C3112 C 0.11342 0.08584 0.70044 0.0
C3113 C 0.12556 0.06683 0.70319 0.0
H3114 H 0.09205 0.10266 0.67485 0.0
C3115 C 0.12484 0.04981 0.68008 0.0
H3116 H 0.11309 0.09922 0.71753 0.0
C3117 C 0.11268 0.05186 0.6553 0.0
C3118 C 0.10056 0.07089 0.65264 0.0
H3119 H 0.13403 0.03501 0.68097 0.0
H3120 H 0.11275 0.03839 0.63818 0.0
C3121 C 0.10113 0.08777 0.67575 0.0
C3122 C 0.78101 0.34177 0.43911 0.0
C3123 C 0.77577 0.36496 0.44601 0.0
H3124 H 0.79495 0.31769 0.41159 0.0
C3125 C 0.7807 0.38151 0.42903 0.0
H3126 H 0.77742 0.32842 0.45151 0.0
C3127 C 0.79098 0.37545 0.40652 0.0
C3128 C 0.79649 0.35248 0.39973 0.0
H3129 H 0.77731 0.39958 0.43358 0.0
H3130 H 0.79481 0.38902 0.39441 0.0
C3131 C 0.79098 0.33553 0.41611 0.0
C3132 C 0.50935 0.11061 0.17918 0.0
C3133 C 0.52063 0.10855 0.20422 0.0
H3134 H 0.50844 0.10459 0.13727 0.0
C3135 C 0.54084 0.09825 0.20521 0.0
H3136 H 0.49414 0.11892 0.17741 0.0
C3137 C 0.5493 0.09008 0.18186 0.0
C3138 C 0.53771 0.09186 0.15686 0.0
H3139 H 0.54997 0.09611 0.224 0.0
H3140 H 0.56484 0.08227 0.18341 0.0
C3141 C 0.51767 0.10235 0.15597 0.0
C3142 C 0.80852 0.75158 0.89178 0.0
C3143 C 0.78735 0.7424 0.89973 0.0
H3144 H 0.82726 0.77819 0.87378 0.0
C3145 C 0.76867 0.75472 0.89623 0.0
H3146 H 0.82323 0.74252 0.89367 0.0
C3147 C 0.77087 0.77509 0.88412 0.0
C3148 C 0.79188 0.78378 0.87569 0.0
H3149 H 0.75228 0.74862 0.90272 0.0
H3150 H 0.75604 0.78375 0.88091 0.0
C3151 C 0.81085 0.77215 0.88027 0.0
C3152 C 0.96688 0.12714 0.04123 0.0
C3153 C 0.97173 0.15025 0.05739 0.0
H3154 H 0.97941 0.09455 0.0283 0.0
C3155 C 0.99447 0.15853 0.07146 0.0
H3156 H 0.94955 0.12007 0.03009 0.0
C3157 C 1.01159 0.14421 0.06996 0.0
C3158 C 1.00669 0.12073 0.05471 0.0
H3159 H 0.9991 0.17625 0.08378 0.0
H3160 H 0.02871 0.15153 0.08153 0.0
C3161 C 0.98404 0.11248 0.04012 0.0
C3162 C 0.47932 0.52736 0.12814 0.0
C3163 C 0.46989 0.54808 0.13446 0.0
H3164 H 0.5048 0.51167 0.10926 0.0
C3165 C 0.48032 0.56978 0.12765 0.0
H3166 H 0.47142 0.51031 0.13277 0.0
C3167 C 0.49959 0.57058 0.11432 0.0
C3168 C 0.5084 0.54961 0.10717 0.0
H3169 H 0.47333 0.58599 0.13228 0.0
H3170 H 0.50714 0.58736 0.10895 0.0
C3171 C 0.49829 0.52809 0.11448 0.0
C3172 C 0.33915 0.71513 0.81711 0.0
C3173 C 0.36354 0.71502 0.82183 0.0
H3174 H 0.31108 0.73532 0.81562 0.0
C3175 C 0.37784 0.73847 0.82931 0.0
H3176 H 0.32685 0.69823 0.81162 0.0
C3177 C 0.36851 0.76022 0.83176 0.0
C3178 C 0.34418 0.7602 0.82704 0.0
H3179 H 0.39661 0.7403 0.83297 0.0
H3180 H 0.38063 0.77728 0.83728 0.0
C3181 C 0.32984 0.73689 0.81964 0.0
C3182 C 0.25361 0.65049 0.60114 0.0
C3183 C 0.26501 0.63958 0.58175 0.0
H3184 H 0.22313 0.6484 0.6197 0.0
C3185 C 0.254 0.6173 0.56607 0.0
H3186 H 0.26155 0.66782 0.61327 0.0
C3187 C 0.23194 0.60613 0.56983 0.0
C3188 C 0.22046 0.61731 0.58898 0.0
H3189 H 0.26248 0.60855 0.55102 0.0
H3190 H 0.22364 0.58904 0.55742 0.0
C3191 C 0.23155 0.63951 0.60466 0.0
C3192 C 0.72918 0.89085 0.81255 0.0
C3193 C 0.72909 0.90804 0.83502 0.0
H3194 H 0.74394 0.86185 0.79511 0.0
C3195 C 0.74446 0.90797 0.85836 0.0
H3196 H 0.71745 0.89004 0.79435 0.0
C3197 C 0.76 0.89165 0.85885 0.0
C3198 C 0.76028 0.87475 0.83611 0.0
H3199 H 0.74496 0.921 0.87605 0.0
H3200 H 0.77192 0.89247 0.8769 0.0
C3201 C 0.74438 0.87447 0.81312 0.0
C3202 C 0.72976 0.06083 0.66233 0.0
C3203 C 0.75221 0.07246 0.66005 0.0
H3204 H 0.693 0.05828 0.65213 0.0
C3205 C 0.75458 0.09254 0.64734 0.0
H3206 H 0.72745 0.0454 0.67217 0.0
C3207 C 0.73479 0.10006 0.63593 0.0
C3208 C 0.71229 0.0877 0.63714 0.0
H3209 H 0.77168 0.1017 0.6451 0.0
H3210 H 0.73709 0.11522 0.62568 0.0
C3211 C 0.71004 0.06835 0.651 0.0
C3212 C 0.33344 0.44185 0.81649 0.0
C3213 C 0.35752 0.4511 0.81679 0.0
H3214 H 0.30658 0.41171 0.81956 0.0
C3215 C 0.37265 0.43476 0.82109 0.0
H3216 H 0.32082 0.45325 0.81318 0.0
C3217 C 0.36442 0.41093 0.82509 0.0
C3218 C 0.34046 0.40159 0.82463 0.0
H3219 H 0.39126 0.44052 0.82195 0.0
H3220 H 0.37714 0.39965 0.8286 0.0
C3221 C 0.3251 0.41767 0.82004 0.0
C3222 C 0.26522 0.63701 0.33533 0.0
C3223 C 0.24795 0.62228 0.31552 0.0
H3224 H 0.29067 0.66978 0.34629 0.0
C3225 C 0.24472 0.62853 0.29025 0.0
H3226 H 0.26812 0.63261 0.35497 0.0
C3227 C 0.25741 0.64979 0.28532 0.0
C3228 C 0.27375 0.66532 0.30552 0.0
H3229 H 0.23182 0.61729 0.27443 0.0
H3230 H 0.25353 0.6546 0.266 0.0
C3231 C 0.27797 0.65837 0.3304 0.0
C3232 C 0.56238 0.73577 0.50708 0.0
C3233 C 0.58126 0.74894 0.49798 0.0
H3234 H 0.551 0.70953 0.53052 0.0
C3235 C 0.6039 0.74539 0.5069 0.0
H3236 H 0.54464 0.73757 0.50047 0.0
C3237 C 0.60752 0.72912 0.52406 0.0
C3238 C 0.58865 0.71593 0.53307 0.0
H3239 H 0.619 0.75547 0.50094 0.0
H3240 H 0.62522 0.72712 0.53057 0.0
C3241 C 0.56603 0.71958 0.52438 0.0
C3242 C 0.70424 0.33606 0.81921 0.0
C3243 C 0.6882 0.31655 0.80252 0.0
H3244 H 0.74025 0.35175 0.83631 0.0
C3245 C 0.69791 0.29678 0.79211 0.0
H3246 H 0.69818 0.35187 0.82776 0.0
C3247 C 0.72214 0.29704 0.7967 0.0
C3248 C 0.73811 0.31666 0.81267 0.0
H3249 H 0.68689 0.28081 0.78005 0.0
H3250 H 0.72849 0.2817 0.7873 0.0
C3251 C 0.72866 0.33605 0.82429 0.0
C3252 C 0.08827 0.4892 0.99776 0.0
C3253 C 0.07448 0.46688 0.99904 0.0
H3254 H 0.09679 0.52734 0.0121 0.0
C3255 C 0.05869 0.46654 0.0173 0.0
H3256 H 0.10087 0.49024 0.98429 0.0
C3257 C 0.05648 0.48785 0.0334 0.0
C3258 C 0.06997 0.51017 0.03176 0.0
H3259 H 0.04752 0.44986 0.0187 0.0
H3260 H 0.04385 0.48683 0.04685 0.0
C3261 C 0.08605 0.51052 0.01388 0.0
C3262 C 0.92207 0.81378 0.3229 0.0
C3263 C 0.92748 0.81382 0.29699 0.0
H3264 H 0.89623 0.81473 0.34887 0.0
C3265 C 0.90857 0.8142 0.27712 0.0
H3266 H 0.93565 0.81378 0.33913 0.0
C3267 C 0.88574 0.81497 0.28288 0.0
C3268 C 0.88051 0.81519 0.30878 0.0
H3269 H 0.91119 0.81371 0.25676 0.0
H3270 H 0.87212 0.81544 0.26685 0.0
C3271 C 0.89918 0.81443 0.32862 0.0
C3272 C 0.53804 0.38198 0.07869 0.0
C3273 C 0.53455 0.38562 0.10525 0.0
H3274 H 0.55046 0.39791 0.04704 0.0
C3275 C 0.54066 0.40901 0.12025 0.0
H3276 H 0.53379 0.36409 0.06676 0.0
C3277 C 0.55013 0.42832 0.109 0.0
C3278 C 0.55389 0.42474 0.08251 0.0
H3279 H 0.53787 0.41243 0.14065 0.0
H3280 H 0.55414 0.44617 0.12102 0.0
C3281 C 0.54765 0.40134 0.06744 0.0
C3282 C 1.00394 0.3918 0.39086 0.0
C3283 C 1.01644 0.37312 0.3873 0.0
H3284 H 0.97242 0.40401 0.37967 0.0
C3285 C 1.00752 0.35285 0.36748 0.0
H3286 H 1.01061 0.40751 0.40619 0.0
C3287 C 0.98554 0.35069 0.35232 0.0
C3288 C 0.9725 0.36896 0.35665 0.0
H3289 H 1.01701 0.33823 0.36467 0.0
H3290 H 0.97839 0.33444 0.3379 0.0
C3291 C 0.98222 0.38982 0.37555 0.0
C3292 C 0.03286 0.65786 0.61311 0.0
C3293 C 1.01816 0.66306 0.59198 0.0
H3294 H 0.06131 0.64133 0.62526 0.0
C3295 C 1.02148 0.65507 0.56588 0.0
H3296 H 0.03122 0.66428 0.63346 0.0
C3297 C 0.03897 0.64176 0.56112 0.0
C3298 C 0.05358 0.63668 0.58241 0.0
H3299 H 1.01055 0.65905 0.54923 0.0
H3300 H 0.04105 0.63538 0.54091 0.0
C3301 C 0.05043 0.64505 0.6084 0.0
C3302 C 0.70309 0.81958 0.88306 0.0
C3303 C 0.68503 0.83274 0.88086 0.0
H3304 H 0.72362 0.79767 0.86291 0.0
C3305 C 0.67311 0.83277 0.85537 0.0
H3306 H 0.71298 0.81941 0.90218 0.0
C3307 C 0.67948 0.82043 0.83274 0.0
C3308 C 0.69759 0.80738 0.83511 0.0
H3309 H 0.65875 0.84223 0.85284 0.0
H3310 H 0.6703 0.82111 0.81341 0.0
C3311 C 0.70918 0.807 0.86051 0.0
C3312 C 0.52222 0.57766 0.69017 0.0
C3313 C 0.50142 0.58738 0.69006 0.0
H3314 H 0.55019 0.56848 0.66918 0.0
C3315 C 0.49425 0.59615 0.6668 0.0
H3316 H 0.52889 0.57074 0.70736 0.0
C3317 C 0.50657 0.59485 0.64495 0.0
C3318 C 0.52712 0.585 0.6448 0.0
H3319 H 0.47844 0.60347 0.66489 0.0
H3320 H 0.49955 0.60133 0.62758 0.0
C3321 C 0.53484 0.57661 0.66816 0.0
C3322 C 0.83513 0.30671 0.94894 0.0
C3323 C 0.83511 0.28195 0.94853 0.0
H3324 H 0.82763 0.33438 0.92717 0.0
C3325 C 0.82589 0.26605 0.92435 0.0
H3326 H 0.8423 0.31984 0.96671 0.0
C3327 C 0.81791 0.2746 0.90142 0.0
C3328 C 0.81828 0.2993 0.9019 0.0
H3329 H 0.82475 0.24682 0.92292 0.0
H3330 H 0.81155 0.26179 0.88317 0.0
C3331 C 0.82667 0.31518 0.9261 0.0
C3332 C 0.08774 0.52539 0.16819 0.0
C3333 C 0.09601 0.54082 0.19289 0.0
H3334 H 0.07456 0.52235 0.12661 0.0
C3335 C 0.09534 0.56548 0.19412 0.0
H3336 H 0.08796 0.50633 0.16621 0.0
C3337 C 0.08797 0.57459 0.17146 0.0
C3338 C 0.08058 0.55942 0.14668 0.0
H3339 H 0.10077 0.57801 0.21268 0.0
H3340 H 0.08839 0.59378 0.17332 0.0
C3341 C 0.08006 0.53457 0.1454 0.0
C3342 C 0.80416 0.92685 0.52297 0.0
C3343 C 0.81192 0.91865 0.54618 0.0
H3344 H 0.79641 0.91909 0.48067 0.0
C3345 C 0.81491 0.89467 0.54448 0.0
H3346 H 0.80165 0.94523 0.52363 0.0
C3347 C 0.81243 0.87989 0.51987 0.0
C3348 C 0.80663 0.88874 0.4965 0.0
H3349 H 0.82035 0.88768 0.56211 0.0
H3350 H 0.8166 0.86211 0.51923 0.0
C3351 C 0.80144 0.91197 0.49834 0.0
C3352 C 0.50224 0.60791 0.97057 0.0
C3353 C 0.49789 0.58887 0.94865 0.0
H3354 H 0.51702 0.62088 0.0116 0.0
C3355 C 0.50646 0.56781 0.95246 0.0
H3356 H 0.49588 0.62437 0.96876 0.0
C3357 C 0.51883 0.56586 0.97709 0.0
C3358 C 0.52286 0.58474 0.99912 0.0
H3359 H 0.50384 0.55277 0.93621 0.0
H3360 H 0.52504 0.54932 0.9789 0.0
C3361 C 0.51432 0.60582 0.99535 0.0
C3362 C 0.84469 0.30998 0.21923 0.0
C3363 C 0.84023 0.28562 0.20635 0.0
H3364 H 0.83902 0.33581 0.25189 0.0
C3365 C 0.82688 0.26862 0.21804 0.0
H3366 H 0.8549 0.32367 0.21092 0.0
C3367 C 0.8179 0.27551 0.24119 0.0
C3368 C 0.82172 0.29978 0.25385 0.0
H3369 H 0.82337 0.24967 0.20933 0.0
H3370 H 0.80777 0.26152 0.24918 0.0
C3371 C 0.83545 0.317 0.24264 0.0
C3372 C 0.07723 0.54344 0.44877 0.0
C3373 C 0.10103 0.54238 0.44865 0.0
H3374 H 0.05075 0.55216 0.47151 0.0
C3375 C 0.11641 0.55021 0.47289 0.0
H3376 H 0.06461 0.5373 0.43083 0.0
C3377 C 0.10831 0.5584 0.49633 0.0
C3378 C 0.0846 0.55945 0.4964 0.0
H3379 H 0.13491 0.55035 0.47388 0.0
H3380 H 0.12079 0.56402 0.51448 0.0
C3381 C 0.06918 0.55196 0.47224 0.0
C3382 C 0.83043 0.91437 0.77885 0.0
C3383 C 0.84589 0.91589 0.76033 0.0
H3384 H 0.8134 0.89311 0.80376 0.0
C3385 C 0.85603 0.89573 0.75275 0.0
H3386 H 0.82274 0.92952 0.78596 0.0
C3387 C 0.85117 0.87493 0.76383 0.0
C3388 C 0.83548 0.87359 0.78193 0.0
H3389 H 0.86766 0.89586 0.73819 0.0
H3390 H 0.85966 0.85994 0.75829 0.0
C3391 C 0.82504 0.8934 0.78916 0.0
C3392 C 0.63254 0.50363 0.57075 0.0
C3393 C 0.65073 0.5059 0.59196 0.0
H3394 H 0.60215 0.51566 0.5549 0.0
C3395 C 0.65149 0.52361 0.61456 0.0
H3396 H 0.63111 0.49021 0.55312 0.0
C3397 C 0.63474 0.5388 0.61555 0.0
C3398 C 0.61643 0.53621 0.59424 0.0
H3399 H 0.6653 0.52601 0.6313 0.0
H3400 H 0.636 0.55233 0.63303 0.0
C3401 C 0.61571 0.51828 0.57194 0.0
C3402 C 0.14534 0.13128 0.53006 0.0
C3403 C 0.1552 0.11108 0.52241 0.0
H3404 H 0.11927 0.14535 0.54919 0.0
C3405 C 0.14441 0.08845 0.52677 0.0
H3406 H 0.15284 0.14886 0.52643 0.0
C3407 C 0.12477 0.08638 0.53966 0.0
C3408 C 0.11582 0.10694 0.54842 0.0
H3409 H 0.15164 0.07258 0.52116 0.0
H3410 H 0.11705 0.06894 0.54345 0.0
C3411 C 0.12604 0.12926 0.54306 0.0
C3412 C 0.28457 0.9419 0.83255 0.0
C3413 C 0.2602 0.9419 0.83077 0.0
H3414 H 0.31273 0.92185 0.83213 0.0
C3415 C 0.24598 0.91844 0.82624 0.0
H3416 H 0.29677 0.95888 0.83627 0.0
C3417 C 0.25539 0.89674 0.82371 0.0
C3418 C 0.27972 0.89686 0.82568 0.0
H3419 H 0.22722 0.9166 0.82429 0.0
H3420 H 0.24335 0.87966 0.82034 0.0
C3421 C 0.29397 0.92021 0.83023 0.0
C3422 C 0.36397 0.03985 0.07379 0.0
C3423 C 0.36361 0.02056 0.08768 0.0
H3424 H 0.38499 0.06691 0.05807 0.0
C3425 C 0.38484 0.01507 0.09838 0.0
H3426 H 0.34784 0.04438 0.06523 0.0
C3427 C 0.40599 0.0278 0.09418 0.0
C3428 C 0.4064 0.04632 0.07916 0.0
H3429 H 0.38506 1.00045 0.1094 0.0
H3430 H 0.42196 0.02234 0.10168 0.0
C3431 C 0.3852 0.05257 0.06949 0.0
C3432 C 0.88064 0.7496 0.79524 0.0
C3433 C 0.89526 0.74847 0.81875 0.0
H3434 H 0.8538 0.76598 0.7769 0.0
C3435 C 0.89456 0.76472 0.84177 0.0
H3436 H 0.88064 0.73732 0.77712 0.0
C3437 C 0.87941 0.78114 0.84159 0.0
C3438 C 0.8642 0.78185 0.81841 0.0
H3439 H 0.90573 0.7647 0.86014 0.0
H3440 H 0.8793 0.79297 0.86 0.0
C3441 C 0.86516 0.76597 0.79512 0.0
C3442 C 0.88373 0.58465 0.9917 0.0
C3443 C 0.86258 0.56871 0.99084 0.0
H3444 H 0.92054 0.59315 1.00487 0.0
C3445 C 0.8631 0.54729 1.00086 0.0
H3446 H 0.88393 0.60158 0.98473 0.0
C3447 C 0.88422 0.54244 0.01251 0.0
C3448 C 0.90523 0.55896 0.01446 0.0
H3449 H 0.84711 0.53459 1.0003 0.0
H3450 H 0.88403 0.52597 0.02043 0.0
C3451 C 0.90478 0.57985 1.00338 0.0
C3452 C 0.28834 0.21692 0.84099 0.0
C3453 C 0.26454 0.20517 0.83286 0.0
H3454 H 0.31508 0.24891 0.84378 0.0
C3455 C 0.24982 0.21928 0.82126 0.0
H3456 H 0.30074 0.20735 0.84992 0.0
C3457 C 0.25817 0.24318 0.81769 0.0
C3458 C 0.28184 0.25484 0.82543 0.0
H3459 H 0.23138 0.21207 0.8151 0.0
H3460 H 0.2457 0.25269 0.80871 0.0
C3461 C 0.29677 0.24107 0.83732 0.0
C3462 C 0.37326 0.02686 0.36179 0.0
C3463 C 0.37367 0.03107 0.33577 0.0
H3464 H 0.36177 1.00238 0.38673 0.0
C3465 C 0.35971 1.01422 0.31471 0.0
H3466 H 0.38341 0.03976 0.37852 0.0
C3467 C 0.3468 0.99289 0.31948 0.0
C3468 C 0.34767 0.98795 0.3454 0.0
H3469 H 0.3596 0.01696 0.29445 0.0
H3470 H 0.33671 0.97995 0.30277 0.0
C3471 C 0.36052 1.00553 0.36654 0.0
C3472 C 0.52252 0.40217 0.6348 0.0
C3473 C 0.54159 0.4068 0.65565 0.0
H3474 H 0.5047 0.41456 0.60216 0.0
C3475 C 0.55757 0.42876 0.65901 0.0
H3476 H 0.51003 0.38537 0.63105 0.0
C3477 C 0.55462 0.44541 0.64211 0.0
C3478 C 0.53551 0.44078 0.62141 0.0
H3479 H 0.57223 0.43339 0.67502 0.0
H3480 H 0.56716 0.46218 0.64561 0.0
C3481 C 0.51947 0.41893 0.61806 0.0
C3482 C 0.41403 0.81471 0.35034 0.0
C3483 C 0.43183 0.83381 0.34751 0.0
H3484 H 0.37712 0.80044 0.34707 0.0
C3485 C 0.42402 0.85341 0.33778 0.0
H3486 H 0.4186 0.79895 0.35724 0.0
C3487 C 0.39996 0.854 0.33153 0.0
C3488 C 0.38232 0.83513 0.33477 0.0
H3489 H 0.4365 0.86883 0.33551 0.0
H3490 H 0.39517 0.86968 0.32453 0.0
C3491 C 0.38989 0.8154 0.34421 0.0
C3492 C 0.02638 0.66994 0.14555 0.0
C3493 C 0.04613 0.68874 0.15369 0.0
H3494 H 1.01222 0.63428 0.12333 0.0
C3495 C 0.06712 0.68497 0.14475 0.0
H3496 H 1.00975 0.67191 0.15148 0.0
C3497 C 0.06816 0.66378 0.1278 0.0
C3498 C 0.04853 0.64517 0.11981 0.0
H3499 H 0.08308 0.6982 0.15105 0.0
H3500 H 0.08466 0.66175 0.12142 0.0
C3501 C 0.02767 0.64833 0.12914 0.0
C3502 C 0.2129 0.34128 0.87658 0.0
C3503 C 0.19403 0.342 0.85679 0.0
H3504 H 0.24931 0.33975 0.8867 0.0
C3505 C 0.19946 0.34234 0.83094 0.0
H3506 H 0.21026 0.34153 0.8969 0.0
C3507 C 0.22232 0.34173 0.8252 0.0
C3508 C 0.24094 0.34063 0.84492 0.0
H3509 H 0.18592 0.34255 0.81475 0.0
H3510 H 0.22527 0.34169 0.80497 0.0
C3511 C 0.2357 0.3405 0.87076 0.0
C3512 C 0.55831 0.75884 0.03867 0.0
C3513 C 0.5772 0.77624 0.05326 0.0
H3514 H 0.53553 0.7251 0.03666 0.0
C3515 C 0.58706 0.77285 0.07835 0.0
H3516 H 0.5504 0.76073 0.01919 0.0
C3517 C 0.57867 0.75222 0.08825 0.0
C3518 C 0.56024 0.7345 0.07327 0.0
H3519 H 0.60141 0.78606 0.09027 0.0
H3520 H 0.58716 0.74977 0.10724 0.0
C3521 C 0.54991 0.73827 0.04858 0.0
C3522 C 0.11582 0.78372 0.78174 0.0
C3523 C 0.10788 0.76951 0.75657 0.0
H3524 H 0.14472 0.79632 0.81348 0.0
C3525 C 0.12213 0.75501 0.74505 0.0
H3526 H 0.10499 0.79507 0.79083 0.0
C3527 C 0.1445 0.7555 0.75794 0.0
C3528 C 0.15312 0.77071 0.78247 0.0
H3529 H 0.11621 0.74391 0.72562 0.0
H3530 H 0.15552 0.74496 0.74797 0.0
C3531 C 0.13845 0.78448 0.79456 0.0
C3532 C 0.10154 0.50019 0.581 0.0
C3533 C 0.10348 0.48947 0.55524 0.0
H3534 H 0.08302 0.52213 0.60496 0.0
C3535 C 0.08716 0.49173 0.53386 0.0
H3536 H 0.11373 0.49845 0.59786 0.0
C3537 C 0.06951 0.5046 0.53795 0.0
C3538 C 0.06782 0.51585 0.56351 0.0
H3539 H 0.08773 0.48309 0.51386 0.0
H3540 H 0.05747 0.50612 0.52085 0.0
C3541 C 0.08393 0.5135 0.58508 0.0
C3542 C 0.41511 0.3256 0.27509 0.0
C3543 C 0.43485 0.31482 0.27625 0.0
H3544 H 0.39501 0.34737 0.29597 0.0
C3545 C 0.4498 0.31828 0.30074 0.0
H3546 H 0.40288 0.32289 0.25686 0.0
C3547 C 0.44515 0.33238 0.32337 0.0
C3548 C 0.42574 0.34365 0.32181 0.0
H3549 H 0.46536 0.31051 0.30236 0.0
H3550 H 0.45678 0.33464 0.34198 0.0
C3551 C 0.41069 0.33985 0.29751 0.0
C3552 C 0.63426 0.5862 0.48871 0.0
C3553 C 0.6232 0.57362 0.46335 0.0
H3554 H 0.63243 0.59757 0.52964 0.0
C3555 C 0.59917 0.56304 0.46161 0.0
H3556 H 0.65258 0.59439 0.49188 0.0
C3557 C 0.58708 0.56503 0.48407 0.0
C3558 C 0.59857 0.57742 0.50944 0.0
H3559 H 0.58952 0.55321 0.44277 0.0
H3560 H 0.56894 0.55633 0.48162 0.0
C3561 C 0.62243 0.58792 0.51087 0.0
C3562 C 0.28744 0.8497 0.2047 0.0
C3563 C 0.28376 0.87356 0.20573 0.0
H3564 H 0.29733 0.8227 0.22632 0.0
C3565 C 0.28818 0.88863 0.23079 0.0
H3566 H 0.28458 0.83754 0.18589 0.0
C3567 C 0.29574 0.88019 0.2539 0.0
C3568 C 0.29916 0.85632 0.25295 0.0
H3569 H 0.28529 0.90696 0.23276 0.0
H3570 H 0.29851 0.89242 0.27268 0.0
C3571 C 0.29504 0.84122 0.22794 0.0
C3572 C 0.02832 0.5905 0.95375 0.0
C3573 C 0.02513 0.6145 0.95457 0.0
H3574 H 0.03577 0.56283 0.97539 0.0
C3575 C 0.02955 0.62961 0.97971 0.0
H3576 H 0.02605 0.57827 0.93507 0.0
C3577 C 0.03601 0.62073 1.00309 0.0
C3578 C 0.03787 0.5964 1.00201 0.0
H3579 H 0.02724 0.64812 0.98155 0.0
H3580 H 0.03858 0.63264 0.02205 0.0
C3581 C 0.03423 0.58158 0.97701 0.0
C3582 C 0.32366 0.23354 0.63146 0.0
C3583 C 0.31179 0.23784 0.60783 0.0
H3584 H 0.33339 0.24511 0.67335 0.0
C3585 C 0.30269 0.25902 0.60807 0.0
H3586 H 0.33087 0.21736 0.63183 0.0
C3587 C 0.30372 0.27461 0.63179 0.0
C3588 C 0.31409 0.26948 0.65577 0.0
H3589 H 0.29385 0.26301 0.59002 0.0
H3590 H 0.29513 0.2899 0.63143 0.0
C3591 C 0.32485 0.24928 0.65524 0.0
C3592 C 0.60991 0.58453 0.20213 0.0
C3593 C 0.62409 0.56703 0.20426 0.0
H3594 H 0.5873 0.6006 0.17703 0.0
C3595 C 0.62558 0.55194 0.18045 0.0
H3596 H 0.60771 0.59635 0.21966 0.0
C3597 C 0.61354 0.55428 0.15576 0.0
C3598 C 0.59951 0.57187 0.1537 0.0
H3599 H 0.63642 0.53843 0.18069 0.0
H3600 H 0.61539 0.54227 0.13817 0.0
C3601 C 0.59794 0.58692 0.17743 0.0
C3602 C 0.26584 0.86218 0.9227 0.0
C3603 C 0.27698 0.86082 0.94818 0.0
H3604 H 0.26567 0.85524 0.88053 0.0
C3605 C 0.2964 0.84925 0.94947 0.0
H3606 H 0.25099 0.87101 0.92057 0.0
C3607 C 0.30487 0.84027 0.92644 0.0
C3608 C 0.29424 0.84238 0.90112 0.0
H3609 H 0.30531 0.84721 0.96841 0.0
H3610 H 0.32012 0.83203 0.92856 0.0
C3611 C 0.27434 0.85315 0.89959 0.0
C3612 C 1.00682 0.60938 0.67161 0.0
C3613 C 1.01986 0.60974 0.69654 0.0
H3614 H 1.00418 0.60153 0.62948 0.0
C3615 C 0.04138 0.60191 0.69714 0.0
H3616 H 0.99043 0.61568 0.67016 0.0
C3617 C 0.04942 0.59372 0.67351 0.0
C3618 C 0.03618 0.59316 0.64863 0.0
H3619 H 0.05188 0.60173 0.71588 0.0
H3620 H 0.06602 0.58785 0.67479 0.0
C3621 C 1.01481 0.60124 0.64812 0.0
C3622 C 0.26584 0.25373 0.39194 0.0
C3623 C 0.28316 0.23941 0.39329 0.0
H3624 H 0.25514 0.28475 0.37883 0.0
C3625 C 0.30376 0.24671 0.38321 0.0
H3626 H 0.24988 0.24904 0.39984 0.0
C3627 C 0.30718 0.26769 0.37259 0.0
C3628 C 0.28974 0.28163 0.37066 0.0
H3629 H 0.31727 0.23602 0.3829 0.0
H3630 H 0.32323 0.27234 0.36478 0.0
C3631 C 0.26898 0.27446 0.38038 0.0
C3632 C 0.49901 0.66136 0.56868 0.0
C3633 C 0.47559 0.65275 0.55694 0.0
H3634 H 0.5333 0.65403 0.57711 0.0
C3635 C 0.46959 0.62874 0.54292 0.0
H3636 H 0.50455 0.67974 0.5792 0.0
C3637 C 0.48633 0.61361 0.54178 0.0
C3638 C 0.50964 0.62219 0.55429 0.0
H3639 H 0.45173 0.62137 0.53361 0.0
H3640 H 0.48086 0.59506 0.5318 0.0
C3641 C 0.51565 0.64648 0.56724 0.0
C3642 C 0.98624 0.04041 0.64438 0.0
C3643 C 0.97282 0.05845 0.64281 0.0
H3644 H 1.01461 0.02525 0.63145 0.0
C3645 C 0.97929 0.07644 0.62799 0.0
H3646 H 0.98153 0.02605 0.65524 0.0
C3647 C 0.99806 0.07575 0.61406 0.0
C3648 C 1.01074 0.0571 0.61473 0.0
H3649 H 0.96946 0.09071 0.6266 0.0
H3650 H 1.00224 0.08946 0.60222 0.0
C3651 C 1.00504 0.03979 0.63052 0.0
C3652 C 0.83791 0.21393 0.32411 0.0
C3653 C 0.86203 0.21398 0.32341 0.0
H3654 H 0.80985 0.23385 0.3272 0.0
C3655 C 0.8759 0.23741 0.32579 0.0
H3656 H 0.82604 0.19702 0.32275 0.0
C3657 C 0.86634 0.25902 0.32846 0.0
C3658 C 0.84227 0.25884 0.32917 0.0
H3659 H 0.89439 0.23926 0.32513 0.0
H3660 H 0.87805 0.27607 0.32982 0.0
C3661 C 0.82841 0.23554 0.32694 0.0
C3662 C 0.76063 0.11222 0.08452 0.0
C3663 C 0.75991 0.13039 0.06916 0.0
H3664 H 0.74094 0.0859 0.10247 0.0
C3665 C 0.73818 0.13434 0.05792 0.0
H3666 H 0.77718 0.1089 0.09351 0.0
C3667 C 0.71755 0.12136 0.06311 0.0
C3668 C 0.71818 0.10412 0.0797 0.0
H3669 H 0.73715 0.14812 0.04582 0.0
H3670 H 0.70115 0.12577 0.05519 0.0
C3671 C 0.73992 0.09925 0.08984 0.0
C3672 C 0.24823 0.41009 0.35393 0.0
C3673 C 0.23164 0.40913 0.33121 0.0
H3674 H 0.27636 0.39519 0.37202 0.0
C3675 C 0.23074 0.3909 0.30932 0.0
H3676 H 0.2497 0.42391 0.37119 0.0
C3677 C 0.24613 0.37472 0.30974 0.0
C3678 C 0.26296 0.37582 0.33218 0.0
H3679 H 0.21801 0.38898 0.29166 0.0
H3680 H 0.24476 0.36125 0.29218 0.0
C3681 C 0.26369 0.39368 0.35439 0.0
C3682 C 0.22655 0.54922 0.13785 0.0
C3683 C 0.24796 0.5654 0.14568 0.0
H3684 H 0.19057 0.54394 0.12122 0.0
C3685 C 0.24886 0.58986 0.14433 0.0
H3686 H 0.22533 0.5303 0.13891 0.0
C3687 C 0.22881 0.59776 0.13427 0.0
C3688 C 0.20754 0.58136 0.12564 0.0
H3689 H 0.2652 0.60266 0.15014 0.0
H3690 H 0.22998 0.61663 0.13299 0.0
C3691 C 0.20659 0.55709 0.12792 0.0
C3692 C 0.87037 0.93737 0.33218 0.0
C3693 C 0.85611 0.95092 0.31889 0.0
H3694 H 0.87407 0.90436 0.34587 0.0
C3695 C 0.83273 0.93863 0.30895 0.0
H3696 H 0.88851 0.94507 0.33982 0.0
C3697 C 0.8242 0.91446 0.31251 0.0
C3698 C 0.83866 0.90121 0.32601 0.0
H3699 H 0.82072 0.94779 0.29866 0.0
H3700 H 0.80621 0.90618 0.30462 0.0
C3701 C 0.86195 0.91343 0.33556 0.0
C3702 C 0.75171 0.12566 0.79765 0.0
C3703 C 0.74569 0.12382 0.82272 0.0
H3704 H 0.76866 0.14793 0.77354 0.0
C3705 C 0.75339 0.14354 0.84354 0.0
H3706 H 0.74621 0.11056 0.78136 0.0
C3707 C 0.76587 0.16518 0.83898 0.0
C3708 C 0.7711 0.16739 0.81357 0.0
H3709 H 0.74881 0.14258 0.86301 0.0
H3710 H 0.77052 0.18043 0.85512 0.0
C3711 C 0.76442 0.14712 0.79317 0.0
loop_
_geom_bond_atom_site_label_1
_geom_bond_atom_site_label_2
_geom_bond_distance
_geom_bond_site_symmetry_2
_ccdc_geom_bond_type
Li0 N17 1.990 . S
Li0 O60 1.956 . S
Li0 O61 1.970 . S
Li0 O62 1.961 . S
Li1 N25 1.990 . S
Li1 O60 1.970 . S
Li1 O61 1.956 . S
Li1 O63 1.961 . S
Li2 N47 1.990 . S
Li2 O60 1.961 . S
Li2 O62 1.956 . S
Li2 O63 1.970 . S
Li3 N53 1.990 . S
Li3 O61 1.961 . S
Li3 O62 1.970 . S
Li3 O63 1.956 . S
C4 C6 1.348 . S
C4 C7 1.356 . S
C4 O60 1.325 . S
N5 C8 1.314 . S
N5 C9 1.279 . S
C6 C4 1.348 . S
C6 C8 1.353 . S
C6 H64 0.929 . S
C7 C4 1.356 . S
C7 C9 1.358 . S
C7 H65 0.930 . S
C8 N5 1.314 . S
C8 C6 1.353 . S
C8 H66 0.930 . S
C9 N5 1.279 . S
C9 C7 1.358 . S
C9 H67 0.930 . S
C10 C13 1.348 . S
C10 C14 1.356 . S
C10 O61 1.325 . S
C11 N12 1.279 . S
C11 C14 1.358 . S
C11 H68 0.930 . S
N12 C11 1.279 . S
N12 C15 1.314 . S
C13 C10 1.348 . S
C13 C15 1.353 . S
C13 H69 0.929 . S
C14 C10 1.356 . S
C14 C11 1.358 . S
C14 H70 0.930 . S
C15 N12 1.314 . S
C15 C13 1.353 . S
C15 H71 0.930 1_455 S
C16 N17 1.314 . S
C16 C21 1.353 1_455 S
C16 H22 0.930 . S
N17 Li0 1.990 . S
N17 C16 1.314 . S
N17 C19 1.279 . S
C18 C19 1.358 1_655 S
C18 C20 1.356 . S
C18 H72 0.930 . S
C19 N17 1.279 . S
C19 C18 1.358 1_455 S
C19 H23 0.930 . S
C20 C18 1.356 . S
C20 C21 1.348 . S
C21 C16 1.353 1_655 S
C21 C20 1.348 . S
C21 H73 0.929 . S
H22 C16 0.930 . S
H23 C19 0.930 . S
C24 N25 1.314 . S
C24 C26 1.353 . S
C24 H30 0.930 . S
N25 Li1 1.990 . S
N25 C24 1.314 . S
N25 C28 1.279 . S
C26 C24 1.353 . S
C26 C29 1.348 . S
C26 H74 0.929 . S
C27 C28 1.358 . S
C27 C29 1.356 . S
C27 H75 0.930 . S
C28 N25 1.279 . S
C28 C27 1.358 . S
C28 H31 0.930 . S
C29 C26 1.348 . S
C29 C27 1.356 . S
H30 C24 0.930 . S
H31 C28 0.930 . S
C32 C34 1.348 . S
C32 C35 1.356 . S
C32 O62 1.325 . S
N33 C36 1.314 . S
N33 C37 1.279 . S
C34 C32 1.348 . S
C34 C36 1.353 . S
C34 H76 0.929 . S
C35 C32 1.356 . S
C35 C37 1.358 . S
C35 H77 0.930 . S
C36 N33 1.314 . S
C36 C34 1.353 . S
C36 H78 0.930 . S
C37 N33 1.279 . S
C37 C35 1.358 . S
C37 H79 0.930 . S
C38 C39 1.348 . S
C38 C40 1.356 . S
C38 O63 1.325 . S
C39 C38 1.348 . S
C39 C41 1.353 . S
C39 H80 0.929 . S
C40 C38 1.356 . S
C40 C42 1.358 . S
C40 H81 0.930 . S
C41 C39 1.353 . S
C41 N43 1.314 . S
C41 H82 0.930 . S
C42 C40 1.358 . S
C42 N43 1.279 . S
C42 H83 0.930 . S
N43 C41 1.314 . S
N43 C42 1.279 . S
C44 C46 1.353 . S
C44 N47 1.314 . S
C44 H50 0.930 . S
C45 N47 1.279 . S
C45 C48 1.358 . S
C45 H51 0.930 . S
C46 C44 1.353 . S
C46 C49 1.348 . S
C46 H84 0.929 . S
N47 Li2 1.990 . S
N47 C44 1.314 . S
N47 C45 1.279 . S
C48 C45 1.358 . S
C48 C49 1.356 . S
C48 H85 0.930 . S
C49 C46 1.348 . S
C49 C48 1.356 . S
H50 C44 0.930 . S
H51 C45 0.930 . S
C52 N53 1.314 . S
C52 C54 1.353 . S
C52 H58 0.930 . S
N53 Li3 1.990 . S
N53 C52 1.314 . S
N53 C56 1.279 . S
C54 C52 1.353 . S
C54 C57 1.348 . S
C54 H86 0.929 . S
C55 C56 1.358 . S
C55 C57 1.356 . S
C55 H87 0.930 . S
C56 N53 1.279 . S
C56 C55 1.358 . S
C56 H59 0.930 . S
C57 C54 1.348 . S
C57 C55 1.356 . S
H58 C52 0.930 . S
H59 C56 0.930 . S
O60 Li0 1.956 . S
O60 Li1 1.970 . S
O60 Li2 1.961 . S
O60 C4 1.325 . S
O61 Li0 1.970 . S
O61 Li1 1.956 . S
O61 Li3 1.961 . S
O61 C10 1.325 . S
O62 Li0 1.961 . S
O62 Li2 1.956 . S
O62 Li3 1.970 . S
O62 C32 1.325 . S
O63 Li1 1.961 . S
O63 Li2 1.970 . S
O63 Li3 1.956 . S
O63 C38 1.325 . S
H64 C6 0.929 . S
H65 C7 0.930 . S
H66 C8 0.930 . S
H67 C9 0.930 . S
H68 C11 0.930 . S
H69 C13 0.929 . S
H70 C14 0.930 . S
H71 C15 0.930 1_655 S
H72 C18 0.930 . S
H73 C21 0.929 . S
H74 C26 0.929 . S
H75 C27 0.930 . S
H76 C34 0.929 . S
H77 C35 0.930 . S
H78 C36 0.930 . S
H79 C37 0.930 . S
H80 C39 0.929 . S
H81 C40 0.930 . S
H82 C41 0.930 . S
H83 C42 0.930 . S
H84 C46 0.929 . S
H85 C48 0.930 . S
H86 C54 0.929 . S
H87 C55 0.930 . S
Li88 N105 1.990 . S
Li88 O148 1.956 . S
Li88 O149 1.970 . S
Li88 O150 1.961 1_455 S
Li89 N113 1.990 . S
Li89 O148 1.970 . S
Li89 O149 1.956 . S
Li89 O151 1.959 . S
Li90 N135 1.990 . S
Li90 O148 1.961 1_655 S
Li90 O150 1.956 . S
Li90 O151 1.970 1_655 S
Li91 N141 1.990 . S
Li91 O149 1.961 1_655 S
Li91 O150 1.970 . S
Li91 O151 1.959 1_655 S
C92 C94 1.348 . S
C92 C95 1.356 . S
C92 O148 1.325 . S
N93 C96 1.314 . S
N93 C97 1.279 . S
C94 C92 1.348 . S
C94 C96 1.353 . S
C94 H152 0.929 . S
C95 C92 1.356 . S
C95 C97 1.358 . S
C95 H153 0.930 . S
C96 N93 1.314 . S
C96 C94 1.353 . S
C96 H154 0.930 . S
C97 N93 1.279 . S
C97 C95 1.358 . S
C97 H155 0.930 . S
C98 C101 1.348 . S
C98 C102 1.356 . S
C98 O149 1.325 . S
C99 N100 1.279 . S
C99 C102 1.358 . S
C99 H156 0.930 . S
N100 C99 1.279 . S
N100 C103 1.314 . S
C101 C98 1.348 . S
C101 C103 1.353 . S
C101 H157 0.929 . S
C102 C98 1.356 . S
C102 C99 1.358 . S
C102 H158 0.930 . S
C103 N100 1.314 . S
C103 C101 1.353 . S
C103 H159 0.930 . S
C104 N105 1.314 1_655 S
C104 C109 1.353 . S
C104 H110 0.930 . S
N105 Li88 1.990 . S
N105 C104 1.314 1_455 S
N105 C107 1.279 . S
C106 C107 1.358 . S
C106 C108 1.356 . S
C106 H160 0.930 . S
C107 N105 1.279 . S
C107 C106 1.358 . S
C107 H111 0.930 . S
C108 C106 1.356 . S
C108 C109 1.348 1_455 S
C109 C104 1.353 . S
C109 C108 1.348 1_655 S
C109 H161 0.929 . S
H110 C104 0.930 . S
H111 C107 0.930 . S
C112 N113 1.314 . S
C112 C114 1.353 . S
C112 H118 0.930 . S
N113 Li89 1.990 . S
N113 C112 1.314 . S
N113 C116 1.279 . S
C114 C112 1.353 . S
C114 C117 1.348 . S
C114 H162 0.929 . S
C115 C116 1.358 . S
C115 C117 1.356 . S
C115 H163 0.930 . S
C116 N113 1.279 . S
C116 C115 1.358 . S
C116 H119 0.930 . S
C117 C114 1.348 . S
C117 C115 1.356 . S
H118 C112 0.930 . S
H119 C116 0.930 . S
C120 C122 1.348 . S
C120 C123 1.356 . S
C120 O150 1.325 . S
N121 C124 1.314 . S
N121 C125 1.279 . S
C122 C120 1.348 . S
C122 C124 1.353 . S
C122 H164 0.929 . S
C123 C120 1.356 . S
C123 C125 1.358 . S
C123 H165 0.930 . S
C124 N121 1.314 . S
C124 C122 1.353 . S
C124 H166 0.930 . S
C125 N121 1.279 . S
C125 C123 1.358 . S
C125 H167 0.930 . S
C126 C127 1.357 . S
C126 C128 1.351 1_655 S
C126 O151 1.326 1_655 S
C127 C126 1.357 . S
C127 C129 1.353 . S
C127 H168 0.929 . S
C128 C126 1.351 1_455 S
C128 C130 1.358 . S
C128 H169 0.930 . S
C129 C127 1.353 . S
C129 N131 1.314 . S
C129 H170 0.930 . S
C130 C128 1.358 . S
C130 N131 1.279 1_455 S
C130 H171 0.930 . S
N131 C129 1.314 . S
N131 C130 1.279 1_655 S
C132 C134 1.353 . S
C132 N135 1.314 1_455 S
C132 H138 0.930 . S
C133 N135 1.279 . S
C133 C136 1.358 . S
C133 H139 0.930 . S
C134 C132 1.353 . S
C134 C137 1.348 1_455 S
C134 H172 0.929 . S
N135 Li90 1.990 . S
N135 C132 1.314 1_655 S
N135 C133 1.279 . S
C136 C133 1.358 . S
C136 C137 1.356 . S
C136 H173 0.930 . S
C137 C134 1.348 1_655 S
C137 C136 1.356 . S
H138 C132 0.930 . S
H139 C133 0.930 . S
C140 N141 1.314 . S
C140 C142 1.353 . S
C140 H146 0.930 . S
N141 Li91 1.990 . S
N141 C140 1.314 . S
N141 C144 1.279 . S
C142 C140 1.353 . S
C142 C145 1.348 . S
C142 H174 0.929 . S
C143 C144 1.358 . S
C143 C145 1.356 . S
C143 H175 0.930 . S
C144 N141 1.279 . S
C144 C143 1.358 . S
C144 H147 0.930 . S
C145 C142 1.348 . S
C145 C143 1.356 . S
H146 C140 0.930 . S
H147 C144 0.930 . S
O148 Li88 1.956 . S
O148 Li89 1.970 . S
O148 Li90 1.961 1_455 S
O148 C92 1.325 . S
O149 Li88 1.970 . S
O149 Li89 1.956 . S
O149 Li91 1.961 1_455 S
O149 C98 1.325 . S
O150 Li88 1.961 1_655 S
O150 Li90 1.956 . S
O150 Li91 1.970 . S
O150 C120 1.325 . S
O151 Li89 1.959 . S
O151 Li90 1.970 1_455 S
O151 Li91 1.959 1_455 S
O151 C126 1.326 1_455 S
H152 C94 0.929 . S
H153 C95 0.930 . S
H154 C96 0.930 . S
H155 C97 0.930 . S
H156 C99 0.930 . S
H157 C101 0.929 . S
H158 C102 0.930 . S
H159 C103 0.930 . S
H160 C106 0.930 . S
H161 C109 0.929 . S
H162 C114 0.929 . S
H163 C115 0.930 . S
H164 C122 0.929 . S
H165 C123 0.930 . S
H166 C124 0.930 . S
H167 C125 0.930 . S
H168 C127 0.929 . S
H169 C128 0.930 . S
H170 C129 0.930 . S
H171 C130 0.930 . S
H172 C134 0.929 . S
H173 C136 0.930 . S
H174 C142 0.929 . S
H175 C143 0.930 . S
Li176 N193 1.990 . S
Li176 O236 1.956 . S
Li176 O237 1.970 1_556 S
Li176 O238 1.961 . S
Li177 N201 1.990 . S
Li177 O236 1.970 1_554 S
Li177 O237 1.956 . S
Li177 O239 1.961 . S
Li178 N223 1.990 . S
Li178 O236 1.961 . S
Li178 O238 1.956 . S
Li178 O239 1.970 1_556 S
Li179 N229 1.990 . S
Li179 O237 1.961 . S
Li179 O238 1.970 1_554 S
Li179 O239 1.956 . S
C180 C182 1.348 . S
C180 C183 1.356 . S
C180 O236 1.325 . S
N181 C184 1.314 . S
N181 C185 1.279 . S
C182 C180 1.348 . S
C182 C184 1.353 . S
C182 H240 0.929 . S
C183 C180 1.356 . S
C183 C185 1.358 . S
C183 H241 0.930 . S
C184 N181 1.314 . S
C184 C182 1.353 . S
C184 H242 0.930 . S
C185 N181 1.279 . S
C185 C183 1.358 . S
C185 H243 0.930 . S
C186 C189 1.348 . S
C186 C190 1.356 . S
C186 O237 1.325 . S
C187 N188 1.279 . S
C187 C190 1.358 . S
C187 H244 0.930 . S
N188 C187 1.279 . S
N188 C191 1.314 . S
C189 C186 1.348 . S
C189 C191 1.353 . S
C189 H245 0.929 . S
C190 C186 1.356 . S
C190 C187 1.358 . S
C190 H246 0.930 . S
C191 N188 1.314 . S
C191 C189 1.353 . S
C191 H247 0.930 . S
C192 N193 1.314 . S
C192 C197 1.353 . S
C192 H198 0.930 . S
N193 Li176 1.990 . S
N193 C192 1.314 . S
N193 C195 1.279 . S
C194 C195 1.358 . S
C194 C196 1.356 . S
C194 H248 0.930 . S
C195 N193 1.279 . S
C195 C194 1.358 . S
C195 H199 0.930 . S
C196 C194 1.356 . S
C196 C197 1.348 . S
C197 C192 1.353 . S
C197 C196 1.348 . S
C197 H249 0.929 . S
H198 C192 0.930 . S
H199 C195 0.930 . S
C200 N201 1.314 . S
C200 C202 1.353 . S
C200 H206 0.930 . S
N201 Li177 1.990 . S
N201 C200 1.314 . S
N201 C204 1.279 . S
C202 C200 1.353 . S
C202 C205 1.348 . S
C202 H250 0.929 . S
C203 C204 1.358 . S
C203 C205 1.356 . S
C203 H251 0.930 . S
C204 N201 1.279 . S
C204 C203 1.358 . S
C204 H207 0.930 . S
C205 C202 1.348 . S
C205 C203 1.356 . S
H206 C200 0.930 . S
H207 C204 0.930 . S
C208 C210 1.348 . S
C208 C211 1.356 . S
C208 O238 1.325 . S
N209 C212 1.314 . S
N209 C213 1.279 . S
C210 C208 1.348 . S
C210 C212 1.353 . S
C210 H252 0.929 . S
C211 C208 1.356 . S
C211 C213 1.358 . S
C211 H253 0.930 . S
C212 N209 1.314 . S
C212 C210 1.353 . S
C212 H254 0.930 . S
C213 N209 1.279 . S
C213 C211 1.358 . S
C213 H255 0.930 . S
C214 C215 1.348 . S
C214 C216 1.356 . S
C214 O239 1.325 . S
C215 C214 1.348 . S
C215 C217 1.353 . S
C215 H256 0.929 . S
C216 C214 1.356 . S
C216 C218 1.358 . S
C216 H257 0.930 . S
C217 C215 1.353 . S
C217 N219 1.314 . S
C217 H258 0.930 . S
C218 C216 1.358 . S
C218 N219 1.279 . S
C218 H259 0.930 . S
N219 C217 1.314 . S
N219 C218 1.279 . S
C220 C222 1.353 . S
C220 N223 1.314 . S
C220 H226 0.930 . S
C221 N223 1.279 . S
C221 C224 1.358 . S
C221 H227 0.930 . S
C222 C220 1.353 . S
C222 C225 1.348 . S
C222 H260 0.929 . S
N223 Li178 1.990 . S
N223 C220 1.314 . S
N223 C221 1.279 . S
C224 C221 1.358 . S
C224 C225 1.356 . S
C224 H261 0.930 . S
C225 C222 1.348 . S
C225 C224 1.356 . S
H226 C220 0.930 . S
H227 C221 0.930 . S
C228 N229 1.314 . S
C228 C230 1.353 . S
C228 H234 0.930 . S
N229 Li179 1.990 . S
N229 C228 1.314 . S
N229 C232 1.279 . S
C230 C228 1.353 . S
C230 C233 1.348 . S
C230 H262 0.929 . S
C231 C232 1.358 . S
C231 C233 1.356 . S
C231 H263 0.930 . S
C232 N229 1.279 . S
C232 C231 1.358 . S
C232 H235 0.930 . S
C233 C230 1.348 . S
C233 C231 1.356 . S
H234 C228 0.930 . S
H235 C232 0.930 . S
O236 Li176 1.956 . S
O236 Li177 1.970 1_556 S
O236 Li178 1.961 . S
O236 C180 1.325 . S
O237 Li176 1.970 1_554 S
O237 Li177 1.956 . S
O237 Li179 1.961 . S
O237 C186 1.325 . S
O238 Li176 1.961 . S
O238 Li178 1.956 . S
O238 Li179 1.970 1_556 S
O238 C208 1.325 . S
O239 Li177 1.961 . S
O239 Li178 1.970 1_554 S
O239 Li179 1.956 . S
O239 C214 1.325 . S
H240 C182 0.929 . S
H241 C183 0.930 . S
H242 C184 0.930 . S
H243 C185 0.930 . S
H244 C187 0.930 . S
H245 C189 0.929 . S
H246 C190 0.930 . S
H247 C191 0.930 . S
H248 C194 0.930 . S
H249 C197 0.929 . S
H250 C202 0.929 . S
H251 C203 0.930 . S
H252 C210 0.929 . S
H253 C211 0.930 . S
H254 C212 0.930 . S
H255 C213 0.930 . S
H256 C215 0.929 . S
H257 C216 0.930 . S
H258 C217 0.930 . S
H259 C218 0.930 . S
H260 C222 0.929 . S
H261 C224 0.930 . S
H262 C230 0.929 . S
H263 C231 0.930 . S
Li264 N281 1.990 . S
Li264 O324 1.956 . S
Li264 O325 1.970 . S
Li264 O326 1.961 . S
Li265 N289 1.990 . S
Li265 O324 1.970 . S
Li265 O325 1.956 . S
Li265 O327 1.961 . S
Li266 N311 1.990 . S
Li266 O324 1.961 . S
Li266 O326 1.956 . S
Li266 O327 1.970 . S
Li267 N317 1.990 . S
Li267 O325 1.961 . S
Li267 O326 1.970 . S
Li267 O327 1.956 . S
C268 C270 1.348 . S
C268 C271 1.356 . S
C268 O324 1.325 . S
N269 C272 1.314 . S
N269 C273 1.279 . S
C270 C268 1.348 . S
C270 C272 1.353 . S
C270 H328 0.929 . S
C271 C268 1.356 . S
C271 C273 1.358 . S
C271 H329 0.930 . S
C272 N269 1.314 . S
C272 C270 1.353 . S
C272 H330 0.930 . S
C273 N269 1.279 . S
C273 C271 1.358 . S
C273 H331 0.930 . S
C274 C277 1.348 . S
C274 C278 1.356 . S
C274 O325 1.325 . S
C275 N276 1.279 . S
C275 C278 1.358 . S
C275 H332 0.930 . S
N276 C275 1.279 . S
N276 C279 1.314 . S
C277 C274 1.348 . S
C277 C279 1.353 . S
C277 H333 0.929 . S
C278 C274 1.356 . S
C278 C275 1.358 . S
C278 H334 0.930 . S
C279 N276 1.314 . S
C279 C277 1.353 . S
C279 H335 0.930 . S
C280 N281 1.314 . S
C280 C285 1.353 . S
C280 H286 0.930 . S
N281 Li264 1.990 . S
N281 C280 1.314 . S
N281 C283 1.279 . S
C282 C283 1.358 . S
C282 C284 1.356 . S
C282 H336 0.930 . S
C283 N281 1.279 . S
C283 C282 1.358 . S
C283 H287 0.930 . S
C284 C282 1.356 . S
C284 C285 1.348 . S
C285 C280 1.353 . S
C285 C284 1.348 . S
C285 H337 0.929 . S
H286 C280 0.930 . S
H287 C283 0.930 . S
C288 N289 1.314 . S
C288 C290 1.353 . S
C288 H294 0.930 . S
N289 Li265 1.990 . S
N289 C288 1.314 . S
N289 C292 1.279 . S
C290 C288 1.353 . S
C290 C293 1.348 . S
C290 H338 0.929 . S
C291 C292 1.358 . S
C291 C293 1.356 . S
C291 H339 0.930 . S
C292 N289 1.279 . S
C292 C291 1.358 . S
C292 H295 0.930 . S
C293 C290 1.348 . S
C293 C291 1.356 . S
H294 C288 0.930 . S
H295 C292 0.930 . S
C296 C298 1.348 . S
C296 C299 1.356 . S
C296 O326 1.325 . S
N297 C300 1.314 . S
N297 C301 1.279 . S
C298 C296 1.348 . S
C298 C300 1.353 . S
C298 H340 0.929 . S
C299 C296 1.356 . S
C299 C301 1.358 . S
C299 H341 0.930 . S
C300 N297 1.314 . S
C300 C298 1.353 . S
C300 H342 0.930 . S
C301 N297 1.279 . S
C301 C299 1.358 . S
C301 H343 0.930 . S
C302 C303 1.348 . S
C302 C304 1.356 . S
C302 O327 1.325 . S
C303 C302 1.348 . S
C303 C305 1.353 . S
C303 H344 0.929 . S
C304 C302 1.356 . S
C304 C306 1.358 . S
C304 H345 0.930 . S
C305 C303 1.353 . S
C305 N307 1.314 . S
C305 H346 0.930 . S
C306 C304 1.358 . S
C306 N307 1.279 . S
C306 H347 0.930 . S
N307 C305 1.314 . S
N307 C306 1.279 . S
C308 C310 1.353 . S
C308 N311 1.314 . S
C308 H314 0.930 . S
C309 N311 1.279 . S
C309 C312 1.358 . S
C309 H315 0.930 . S
C310 C308 1.353 . S
C310 C313 1.348 . S
C310 H348 0.929 . S
N311 Li266 1.990 . S
N311 C308 1.314 . S
N311 C309 1.279 . S
C312 C309 1.358 . S
C312 C313 1.356 . S
C312 H349 0.930 . S
C313 C310 1.348 . S
C313 C312 1.356 . S
H314 C308 0.930 . S
H315 C309 0.930 . S
C316 N317 1.314 . S
C316 C318 1.353 . S
C316 H322 0.930 . S
N317 Li267 1.990 . S
N317 C316 1.314 . S
N317 C320 1.279 . S
C318 C316 1.353 . S
C318 C321 1.348 . S
C318 H350 0.929 . S
C319 C320 1.358 . S
C319 C321 1.356 . S
C319 H351 0.930 . S
C320 N317 1.279 . S
C320 C319 1.358 . S
C320 H323 0.930 . S
C321 C318 1.348 . S
C321 C319 1.356 . S
H322 C316 0.930 . S
H323 C320 0.930 . S
O324 Li264 1.956 . S
O324 Li265 1.970 . S
O324 Li266 1.961 . S
O324 C268 1.325 . S
O325 Li264 1.970 . S
O325 Li265 1.956 . S
O325 Li267 1.961 . S
O325 C274 1.325 . S
O326 Li264 1.961 . S
O326 Li266 1.956 . S
O326 Li267 1.970 . S
O326 C296 1.325 . S
O327 Li265 1.961 . S
O327 Li266 1.970 . S
O327 Li267 1.956 . S
O327 C302 1.325 . S
H328 C270 0.929 . S
H329 C271 0.930 . S
H330 C272 0.930 . S
H331 C273 0.930 . S
H332 C275 0.930 . S
H333 C277 0.929 . S
H334 C278 0.930 . S
H335 C279 0.930 . S
H336 C282 0.930 . S
H337 C285 0.929 . S
H338 C290 0.929 . S
H339 C291 0.930 . S
H340 C298 0.929 . S
H341 C299 0.930 . S
H342 C300 0.930 . S
H343 C301 0.930 . S
H344 C303 0.929 . S
H345 C304 0.930 . S
H346 C305 0.930 . S
H347 C306 0.930 . S
H348 C310 0.929 . S
H349 C312 0.930 . S
H350 C318 0.929 . S
H351 C319 0.930 . S
Li352 N369 1.990 . S
Li352 O412 1.956 . S
Li352 O413 1.970 . S
Li352 O414 1.961 . S
Li353 N377 1.990 . S
Li353 O412 1.970 . S
Li353 O413 1.956 . S
Li353 O415 1.961 . S
Li354 N399 1.990 . S
Li354 O412 1.961 . S
Li354 O414 1.956 . S
Li354 O415 1.970 . S
Li355 N405 1.990 1_455 S
Li355 O413 1.961 . S
Li355 O414 1.970 . S
Li355 O415 1.956 . S
C356 C358 1.348 . S
C356 C359 1.356 . S
C356 O412 1.325 . S
N357 C360 1.314 . S
N357 C361 1.279 . S
C358 C356 1.348 . S
C358 C360 1.353 . S
C358 H416 0.929 . S
C359 C356 1.356 . S
C359 C361 1.358 . S
C359 H417 0.930 . S
C360 N357 1.314 . S
C360 C358 1.353 . S
C360 H418 0.930 . S
C361 N357 1.279 . S
C361 C359 1.358 . S
C361 H419 0.930 . S
C362 C365 1.348 . S
C362 C366 1.356 . S
C362 O413 1.325 . S
C363 N364 1.279 . S
C363 C366 1.358 . S
C363 H420 0.930 . S
N364 C363 1.279 . S
N364 C367 1.314 . S
C365 C362 1.348 . S
C365 C367 1.353 . S
C365 H421 0.929 . S
C366 C362 1.356 . S
C366 C363 1.358 . S
C366 H422 0.930 . S
C367 N364 1.314 . S
C367 C365 1.353 . S
C367 H423 0.930 . S
C368 N369 1.314 . S
C368 C373 1.353 . S
C368 H374 0.930 . S
N369 Li352 1.990 . S
N369 C368 1.314 . S
N369 C371 1.279 . S
C370 C371 1.358 . S
C370 C372 1.356 . S
C370 H424 0.930 . S
C371 N369 1.279 . S
C371 C370 1.358 . S
C371 H375 0.930 . S
C372 C370 1.356 . S
C372 C373 1.348 . S
C373 C368 1.353 . S
C373 C372 1.348 . S
C373 H425 0.929 . S
H374 C368 0.930 . S
H375 C371 0.930 . S
C376 N377 1.314 . S
C376 C378 1.353 . S
C376 H382 0.930 . S
N377 Li353 1.990 . S
N377 C376 1.314 . S
N377 C380 1.279 . S
C378 C376 1.353 . S
C378 C381 1.348 . S
C378 H426 0.929 . S
C379 C380 1.358 . S
C379 C381 1.356 . S
C379 H427 0.930 . S
C380 N377 1.279 . S
C380 C379 1.358 . S
C380 H383 0.930 . S
C381 C378 1.348 . S
C381 C379 1.356 . S
H382 C376 0.930 . S
H383 C380 0.930 . S
C384 C386 1.348 . S
C384 C387 1.356 . S
C384 O414 1.325 1_655 S
N385 C388 1.314 . S
N385 C389 1.279 . S
C386 C384 1.348 . S
C386 C388 1.353 . S
C386 H428 0.929 . S
C387 C384 1.356 . S
C387 C389 1.358 . S
C387 H429 0.922 1_655 S
C388 N385 1.314 . S
C388 C386 1.353 . S
C388 H430 0.930 . S
C389 N385 1.279 . S
C389 C387 1.358 . S
C389 H431 0.930 . S
C390 C391 1.348 . S
C390 C392 1.356 . S
C390 O415 1.325 . S
C391 C390 1.348 . S
C391 C393 1.353 . S
C391 H432 0.929 . S
C392 C390 1.356 . S
C392 C394 1.358 . S
C392 H433 0.930 . S
C393 C391 1.353 . S
C393 N395 1.314 . S
C393 H434 0.930 . S
C394 C392 1.358 . S
C394 N395 1.279 . S
C394 H435 0.930 . S
N395 C393 1.314 . S
N395 C394 1.279 . S
C396 C398 1.353 . S
C396 N399 1.314 . S
C396 H402 0.930 . S
C397 N399 1.279 . S
C397 C400 1.360 1_455 S
C397 H403 0.930 1_455 S
C398 C396 1.353 . S
C398 C401 1.348 . S
C398 H436 0.929 . S
N399 Li354 1.990 . S
N399 C396 1.314 . S
N399 C397 1.279 . S
C400 C397 1.360 1_655 S
C400 C401 1.342 1_655 S
C400 H437 0.942 . S
C401 C398 1.348 . S
C401 C400 1.342 1_455 S
H402 C396 0.930 . S
H403 C397 0.930 1_655 S
C404 N405 1.314 . S
C404 C406 1.353 . S
C404 H410 0.930 . S
N405 Li355 1.990 1_655 S
N405 C404 1.314 . S
N405 C408 1.279 . S
C406 C404 1.353 . S
C406 C409 1.348 . S
C406 H438 0.929 . S
C407 C408 1.358 . S
C407 C409 1.356 . S
C407 H439 0.930 . S
C408 N405 1.279 . S
C408 C407 1.358 . S
C408 H411 0.930 . S
C409 C406 1.348 . S
C409 C407 1.356 . S
H410 C404 0.930 . S
H411 C408 0.930 . S
O412 Li352 1.956 . S
O412 Li353 1.970 . S
O412 Li354 1.961 . S
O412 C356 1.325 . S
O413 Li352 1.970 . S
O413 Li353 1.956 . S
O413 Li355 1.961 . S
O413 C362 1.325 . S
O414 Li352 1.961 . S
O414 Li354 1.956 . S
O414 Li355 1.970 . S
O414 C384 1.325 1_455 S
O415 Li353 1.961 . S
O415 Li354 1.970 . S
O415 Li355 1.956 . S
O415 C390 1.325 . S
H416 C358 0.929 . S
H417 C359 0.930 . S
H418 C360 0.930 . S
H419 C361 0.930 . S
H420 C363 0.930 . S
H421 C365 0.929 . S
H422 C366 0.930 . S
H423 C367 0.930 . S
H424 C370 0.930 . S
H425 C373 0.929 . S
H426 C378 0.929 . S
H427 C379 0.930 . S
H428 C386 0.929 . S
H429 C387 0.922 1_455 S
H430 C388 0.930 . S
H431 C389 0.930 . S
H432 C391 0.929 . S
H433 C392 0.930 . S
H434 C393 0.930 . S
H435 C394 0.930 . S
H436 C398 0.929 . S
H437 C400 0.942 . S
H438 C406 0.929 . S
H439 C407 0.930 . S
Li440 N457 1.990 . S
Li440 O500 1.956 . S
Li440 O501 1.970 . S
Li440 O502 1.961 . S
Li441 N465 1.990 . S
Li441 O500 1.970 . S
Li441 O501 1.956 . S
Li441 O503 1.961 . S
Li442 N487 1.990 . S
Li442 O500 1.961 . S
Li442 O502 1.956 . S
Li442 O503 1.970 . S
Li443 N493 1.990 . S
Li443 O501 1.961 . S
Li443 O502 1.970 . S
Li443 O503 1.956 . S
C444 C446 1.348 . S
C444 C447 1.356 . S
C444 O500 1.325 . S
N445 C448 1.314 . S
N445 C449 1.279 . S
C446 C444 1.348 . S
C446 C448 1.353 . S
C446 H504 0.929 . S
C447 C444 1.356 . S
C447 C449 1.358 . S
C447 H505 0.930 . S
C448 N445 1.314 . S
C448 C446 1.353 . S
C448 H506 0.930 . S
C449 N445 1.279 . S
C449 C447 1.358 . S
C449 H507 0.930 . S
C450 C453 1.348 . S
C450 C454 1.356 . S
C450 O501 1.325 . S
C451 N452 1.279 . S
C451 C454 1.358 . S
C451 H508 0.930 . S
N452 C451 1.279 . S
N452 C455 1.314 . S
C453 C450 1.348 . S
C453 C455 1.353 . S
C453 H509 0.929 . S
C454 C450 1.356 . S
C454 C451 1.358 . S
C454 H510 0.930 . S
C455 N452 1.314 . S
C455 C453 1.353 . S
C455 H511 0.930 . S
C456 N457 1.314 . S
C456 C461 1.353 . S
C456 H462 0.930 . S
N457 Li440 1.990 . S
N457 C456 1.314 . S
N457 C459 1.279 . S
C458 C459 1.358 . S
C458 C460 1.356 . S
C458 H512 0.930 . S
C459 N457 1.279 . S
C459 C458 1.358 . S
C459 H463 0.930 . S
C460 C458 1.356 . S
C460 C461 1.348 . S
C461 C456 1.353 . S
C461 C460 1.348 . S
C461 H513 0.929 . S
H462 C456 0.930 . S
H463 C459 0.930 . S
C464 N465 1.314 . S
C464 C466 1.353 . S
C464 H470 0.930 . S
N465 Li441 1.990 . S
N465 C464 1.314 . S
N465 C468 1.279 . S
C466 C464 1.353 . S
C466 C469 1.348 . S
C466 H514 0.929 . S
C467 C468 1.358 . S
C467 C469 1.356 . S
C467 H515 0.930 . S
C468 N465 1.279 . S
C468 C467 1.358 . S
C468 H471 0.930 . S
C469 C466 1.348 . S
C469 C467 1.356 . S
H470 C464 0.930 . S
H471 C468 0.930 . S
C472 C474 1.348 . S
C472 C475 1.356 . S
C472 O502 1.325 . S
N473 C476 1.314 . S
N473 C477 1.279 . S
C474 C472 1.348 . S
C474 C476 1.353 . S
C474 H516 0.929 . S
C475 C472 1.356 . S
C475 C477 1.358 . S
C475 H517 0.930 . S
C476 N473 1.314 . S
C476 C474 1.353 . S
C476 H518 0.930 . S
C477 N473 1.279 . S
C477 C475 1.358 . S
C477 H519 0.930 . S
C478 C479 1.348 . S
C478 C480 1.356 . S
C478 O503 1.325 . S
C479 C478 1.348 . S
C479 C481 1.353 . S
C479 H520 0.929 . S
C480 C478 1.356 . S
C480 C482 1.358 . S
C480 H521 0.930 . S
C481 C479 1.353 . S
C481 N483 1.314 . S
C481 H522 0.930 . S
C482 C480 1.358 . S
C482 N483 1.279 . S
C482 H523 0.930 . S
N483 C481 1.314 . S
N483 C482 1.279 . S
C484 C486 1.353 . S
C484 N487 1.314 . S
C484 H490 0.930 . S
C485 N487 1.279 . S
C485 C488 1.358 . S
C485 H491 0.930 . S
C486 C484 1.353 . S
C486 C489 1.348 . S
C486 H524 0.929 . S
N487 Li442 1.990 . S
N487 C484 1.314 . S
N487 C485 1.279 . S
C488 C485 1.358 . S
C488 C489 1.356 . S
C488 H525 0.930 . S
C489 C486 1.348 . S
C489 C488 1.356 . S
H490 C484 0.930 . S
H491 C485 0.930 . S
C492 N493 1.314 . S
C492 C494 1.353 . S
C492 H498 0.930 . S
N493 Li443 1.990 . S
N493 C492 1.314 . S
N493 C496 1.279 . S
C494 C492 1.353 . S
C494 C497 1.348 . S
C494 H526 0.929 . S
C495 C496 1.358 . S
C495 C497 1.356 . S
C495 H527 0.930 . S
C496 N493 1.279 . S
C496 C495 1.358 . S
C496 H499 0.930 . S
C497 C494 1.348 . S
C497 C495 1.356 . S
H498 C492 0.930 . S
H499 C496 0.930 . S
O500 Li440 1.956 . S
O500 Li441 1.970 . S
O500 Li442 1.961 . S
O500 C444 1.325 . S
O501 Li440 1.970 . S
O501 Li441 1.956 . S
O501 Li443 1.961 . S
O501 C450 1.325 . S
O502 Li440 1.961 . S
O502 Li442 1.956 . S
O502 Li443 1.970 . S
O502 C472 1.325 . S
O503 Li441 1.961 . S
O503 Li442 1.970 . S
O503 Li443 1.956 . S
O503 C478 1.325 . S
H504 C446 0.929 . S
H505 C447 0.930 . S
H506 C448 0.930 . S
H507 C449 0.930 . S
H508 C451 0.930 . S
H509 C453 0.929 . S
H510 C454 0.930 . S
H511 C455 0.930 . S
H512 C458 0.930 . S
H513 C461 0.929 . S
H514 C466 0.929 . S
H515 C467 0.930 . S
H516 C474 0.929 . S
H517 C475 0.930 . S
H518 C476 0.930 . S
H519 C477 0.930 . S
H520 C479 0.929 . S
H521 C480 0.930 . S
H522 C481 0.930 . S
H523 C482 0.930 . S
H524 C486 0.929 . S
H525 C488 0.930 . S
H526 C494 0.929 . S
H527 C495 0.930 . S
Li528 N545 1.990 . S
Li528 O588 1.956 . S
Li528 O589 1.970 . S
Li528 O590 1.961 . S
Li529 N553 1.990 . S
Li529 O588 1.970 . S
Li529 O589 1.956 . S
Li529 O591 1.961 . S
Li530 N575 1.990 . S
Li530 O588 1.961 . S
Li530 O590 1.956 . S
Li530 O591 1.970 . S
Li531 N581 1.990 . S
Li531 O589 1.961 . S
Li531 O590 1.970 . S
Li531 O591 1.956 . S
C532 C534 1.348 . S
C532 C535 1.356 . S
C532 O588 1.325 . S
N533 C536 1.314 . S
N533 C537 1.279 . S
C534 C532 1.348 . S
C534 C536 1.353 . S
C534 H592 0.929 . S
C535 C532 1.356 . S
C535 C537 1.358 . S
C535 H593 0.930 . S
C536 N533 1.314 . S
C536 C534 1.353 . S
C536 H594 0.930 . S
C537 N533 1.279 . S
C537 C535 1.358 . S
C537 H595 0.930 . S
C538 C541 1.348 . S
C538 C542 1.356 . S
C538 O589 1.325 . S
C539 N540 1.279 . S
C539 C542 1.358 . S
C539 H596 0.930 . S
N540 C539 1.279 . S
N540 C543 1.314 . S
C541 C538 1.348 . S
C541 C543 1.353 . S
C541 H597 0.929 . S
C542 C538 1.356 . S
C542 C539 1.358 . S
C542 H598 0.930 . S
C543 N540 1.314 . S
C543 C541 1.353 . S
C543 H599 0.930 . S
C544 N545 1.314 . S
C544 C549 1.353 . S
C544 H550 0.930 . S
N545 Li528 1.990 . S
N545 C544 1.314 . S
N545 C547 1.279 . S
C546 C547 1.358 . S
C546 C548 1.356 . S
C546 H600 0.930 . S
C547 N545 1.279 . S
C547 C546 1.358 . S
C547 H551 0.930 . S
C548 C546 1.356 . S
C548 C549 1.348 . S
C549 C544 1.353 . S
C549 C548 1.348 . S
C549 H601 0.929 . S
H550 C544 0.930 . S
H551 C547 0.930 . S
C552 N553 1.314 . S
C552 C554 1.353 . S
C552 H558 0.930 . S
N553 Li529 1.990 . S
N553 C552 1.314 . S
N553 C556 1.279 . S
C554 C552 1.353 . S
C554 C557 1.348 . S
C554 H602 0.929 . S
C555 C556 1.358 . S
C555 C557 1.356 . S
C555 H603 0.930 . S
C556 N553 1.279 . S
C556 C555 1.358 . S
C556 H559 0.930 . S
C557 C554 1.348 . S
C557 C555 1.356 . S
H558 C552 0.930 . S
H559 C556 0.930 . S
C560 C562 1.348 . S
C560 C563 1.356 . S
C560 O590 1.325 . S
N561 C564 1.314 . S
N561 C565 1.279 . S
C562 C560 1.348 . S
C562 C564 1.353 . S
C562 H604 0.929 . S
C563 C560 1.356 . S
C563 C565 1.358 . S
C563 H605 0.930 . S
C564 N561 1.314 . S
C564 C562 1.353 . S
C564 H606 0.930 . S
C565 N561 1.279 . S
C565 C563 1.358 . S
C565 H607 0.930 . S
C566 C567 1.348 . S
C566 C568 1.356 . S
C566 O591 1.325 . S
C567 C566 1.348 . S
C567 C569 1.353 . S
C567 H608 0.929 . S
C568 C566 1.356 . S
C568 C570 1.358 . S
C568 H609 0.930 . S
C569 C567 1.353 . S
C569 N571 1.314 . S
C569 H610 0.930 . S
C570 C568 1.358 . S
C570 N571 1.279 . S
C570 H611 0.930 . S
N571 C569 1.314 . S
N571 C570 1.279 . S
C572 C574 1.353 . S
C572 N575 1.314 . S
C572 H578 0.930 . S
C573 N575 1.279 . S
C573 C576 1.358 . S
C573 H579 0.930 . S
C574 C572 1.353 . S
C574 C577 1.348 . S
C574 H612 0.929 . S
N575 Li530 1.990 . S
N575 C572 1.314 . S
N575 C573 1.279 . S
C576 C573 1.358 . S
C576 C577 1.356 . S
C576 H613 0.930 . S
C577 C574 1.348 . S
C577 C576 1.356 . S
H578 C572 0.930 . S
H579 C573 0.930 . S
C580 N581 1.314 . S
C580 C582 1.353 . S
C580 H586 0.930 . S
N581 Li531 1.990 . S
N581 C580 1.314 . S
N581 C584 1.279 . S
C582 C580 1.353 . S
C582 C585 1.348 . S
C582 H614 0.929 . S
C583 C584 1.358 . S
C583 C585 1.356 . S
C583 H615 0.930 . S
C584 N581 1.279 . S
C584 C583 1.358 . S
C584 H587 0.930 . S
C585 C582 1.348 . S
C585 C583 1.356 . S
H586 C580 0.930 . S
H587 C584 0.930 . S
O588 Li528 1.956 . S
O588 Li529 1.970 . S
O588 Li530 1.961 . S
O588 C532 1.325 . S
O589 Li528 1.970 . S
O589 Li529 1.956 . S
O589 Li531 1.961 . S
O589 C538 1.325 . S
O590 Li528 1.961 . S
O590 Li530 1.956 . S
O590 Li531 1.970 . S
O590 C560 1.325 . S
O591 Li529 1.961 . S
O591 Li530 1.970 . S
O591 Li531 1.956 . S
O591 C566 1.325 . S
H592 C534 0.929 . S
H593 C535 0.930 . S
H594 C536 0.930 . S
H595 C537 0.930 . S
H596 C539 0.930 . S
H597 C541 0.929 . S
H598 C542 0.930 . S
H599 C543 0.930 . S
H600 C546 0.930 . S
H601 C549 0.929 . S
H602 C554 0.929 . S
H603 C555 0.930 . S
H604 C562 0.929 . S
H605 C563 0.930 . S
H606 C564 0.930 . S
H607 C565 0.930 . S
H608 C567 0.929 . S
H609 C568 0.930 . S
H610 C569 0.930 . S
H611 C570 0.930 . S
H612 C574 0.929 . S
H613 C576 0.930 . S
H614 C582 0.929 . S
H615 C583 0.930 . S
Li616 N633 1.990 . S
Li616 O676 1.956 . S
Li616 O677 1.970 . S
Li616 O678 1.961 . S
Li617 N641 1.990 1_455 S
Li617 O676 1.970 . S
Li617 O677 1.956 . S
Li617 O679 1.961 . S
Li618 N663 1.990 . S
Li618 O676 1.961 . S
Li618 O678 1.956 . S
Li618 O679 1.970 . S
Li619 N669 1.990 . S
Li619 O677 1.961 . S
Li619 O678 1.970 . S
Li619 O679 1.956 . S
C620 C622 1.348 1_455 S
C620 C623 1.356 . S
C620 O676 1.325 . S
N621 C624 1.314 . S
N621 C625 1.279 . S
C622 C620 1.348 1_655 S
C622 C624 1.353 . S
C622 H680 0.929 . S
C623 C620 1.356 . S
C623 C625 1.358 1_455 S
C623 H681 0.930 . S
C624 N621 1.314 . S
C624 C622 1.353 . S
C624 H682 0.930 . S
C625 N621 1.279 . S
C625 C623 1.358 1_655 S
C625 H683 0.891 1_556 S
C626 C629 1.348 . S
C626 C630 1.356 . S
C626 O677 1.325 . S
C627 N628 1.279 . S
C627 C630 1.358 . S
C627 H684 0.930 . S
N628 C627 1.279 . S
N628 C631 1.314 . S
C629 C626 1.348 . S
C629 C631 1.353 . S
C629 H685 0.929 . S
C630 C626 1.356 . S
C630 C627 1.358 . S
C630 H686 0.930 . S
C631 N628 1.314 . S
C631 C629 1.353 . S
C631 H687 0.930 . S
C632 N633 1.314 . S
C632 C637 1.353 . S
C632 H638 0.930 . S
N633 Li616 1.990 . S
N633 C632 1.314 . S
N633 C635 1.279 . S
C634 C635 1.358 . S
C634 C636 1.356 . S
C634 H688 0.930 . S
C635 N633 1.279 . S
C635 C634 1.358 . S
C635 H639 0.930 . S
C636 C634 1.356 . S
C636 C637 1.348 . S
C637 C632 1.353 . S
C637 C636 1.348 . S
C637 H689 0.929 . S
H638 C632 0.930 . S
H639 C635 0.930 . S
C640 N641 1.314 . S
C640 C642 1.353 . S
C640 H646 0.930 . S
N641 Li617 1.990 1_655 S
N641 C640 1.314 . S
N641 C644 1.279 . S
C642 C640 1.353 . S
C642 C645 1.348 . S
C642 H690 0.929 . S
C643 C644 1.358 . S
C643 C645 1.356 . S
C643 H691 0.930 . S
C644 N641 1.279 . S
C644 C643 1.358 . S
C644 H647 0.930 . S
C645 C642 1.348 . S
C645 C643 1.356 . S
H646 C640 0.930 . S
H647 C644 0.930 . S
C648 C650 1.348 . S
C648 C651 1.356 . S
C648 O678 1.325 . S
N649 C652 1.314 . S
N649 C653 1.279 . S
C650 C648 1.348 . S
C650 C652 1.353 . S
C650 H692 0.929 . S
C651 C648 1.356 . S
C651 C653 1.358 . S
C651 H693 0.930 . S
C652 N649 1.314 . S
C652 C650 1.353 . S
C652 H694 0.930 . S
C653 N649 1.279 . S
C653 C651 1.358 . S
C653 H695 0.930 1_556 S
C654 C655 1.348 . S
C654 C656 1.356 . S
C654 O679 1.325 . S
C655 C654 1.348 . S
C655 C657 1.353 . S
C655 H696 0.929 . S
C656 C654 1.356 . S
C656 C658 1.358 . S
C656 H697 0.930 . S
C657 C655 1.353 . S
C657 N659 1.314 . S
C657 H698 0.930 . S
C658 C656 1.358 . S
C658 N659 1.279 . S
C658 H699 0.930 . S
N659 C657 1.314 . S
N659 C658 1.279 . S
C660 C662 1.353 . S
C660 N663 1.314 . S
C660 H666 0.930 . S
C661 N663 1.279 . S
C661 C664 1.358 . S
C661 H667 0.930 . S
C662 C660 1.353 . S
C662 C665 1.348 . S
C662 H700 0.929 . S
N663 Li618 1.990 . S
N663 C660 1.314 . S
N663 C661 1.279 . S
C664 C661 1.358 . S
C664 C665 1.356 . S
C664 H701 0.930 . S
C665 C662 1.348 . S
C665 C664 1.356 . S
H666 C660 0.930 . S
H667 C661 0.930 . S
C668 N669 1.314 . S
C668 C670 1.353 . S
C668 H674 0.930 . S
N669 Li619 1.990 . S
N669 C668 1.314 . S
N669 C672 1.279 . S
C670 C668 1.353 . S
C670 C673 1.348 . S
C670 H702 0.929 . S
C671 C672 1.358 . S
C671 C673 1.356 . S
C671 H703 0.930 . S
C672 N669 1.279 . S
C672 C671 1.358 . S
C672 H675 0.930 . S
C673 C670 1.348 . S
C673 C671 1.356 . S
H674 C668 0.930 . S
H675 C672 0.930 . S
O676 Li616 1.956 . S
O676 Li617 1.970 . S
O676 Li618 1.961 . S
O676 C620 1.325 . S
O677 Li616 1.970 . S
O677 Li617 1.956 . S
O677 Li619 1.961 . S
O677 C626 1.325 . S
O678 Li616 1.961 . S
O678 Li618 1.956 . S
O678 Li619 1.970 . S
O678 C648 1.325 . S
O679 Li617 1.961 . S
O679 Li618 1.970 . S
O679 Li619 1.956 . S
O679 C654 1.325 . S
H680 C622 0.929 . S
H681 C623 0.930 . S
H682 C624 0.930 . S
H683 C625 0.891 1_554 S
H684 C627 0.930 . S
H685 C629 0.929 . S
H686 C630 0.930 . S
H687 C631 0.930 . S
H688 C634 0.930 . S
H689 C637 0.929 . S
H690 C642 0.929 . S
H691 C643 0.930 . S
H692 C650 0.929 . S
H693 C651 0.930 . S
H694 C652 0.930 . S
H695 C653 0.930 1_554 S
H696 C655 0.929 . S
H697 C656 0.930 . S
H698 C657 0.930 . S
H699 C658 0.930 . S
H700 C662 0.929 . S
H701 C664 0.930 . S
H702 C670 0.929 . S
H703 C671 0.930 . S
Li704 N721 1.990 . S
Li704 O764 1.956 . S
Li704 O765 1.970 . S
Li704 O766 1.961 . S
Li705 N729 1.990 . S
Li705 O764 1.970 . S
Li705 O765 1.956 . S
Li705 O767 1.961 . S
Li706 N751 1.990 . S
Li706 O764 1.961 . S
Li706 O766 1.956 . S
Li706 O767 1.970 . S
Li707 N757 1.990 . S
Li707 O765 1.961 . S
Li707 O766 1.970 . S
Li707 O767 1.956 . S
C708 C710 1.348 . S
C708 C711 1.356 . S
C708 O764 1.325 . S
N709 C712 1.314 . S
N709 C713 1.279 . S
C710 C708 1.348 . S
C710 C712 1.353 . S
C710 H768 0.929 . S
C711 C708 1.356 . S
C711 C713 1.358 . S
C711 H769 0.930 . S
C712 N709 1.314 . S
C712 C710 1.353 . S
C712 H770 0.930 . S
C713 N709 1.279 . S
C713 C711 1.358 . S
C713 H771 0.930 . S
C714 C717 1.348 . S
C714 C718 1.356 . S
C714 O765 1.325 . S
C715 N716 1.279 . S
C715 C718 1.358 . S
C715 H772 0.930 . S
N716 C715 1.279 . S
N716 C719 1.314 . S
C717 C714 1.348 . S
C717 C719 1.353 . S
C717 H773 0.929 . S
C718 C714 1.356 . S
C718 C715 1.358 . S
C718 H774 0.930 . S
C719 N716 1.314 . S
C719 C717 1.353 . S
C719 H775 0.930 . S
C720 N721 1.314 . S
C720 C725 1.353 . S
C720 H726 0.930 . S
N721 Li704 1.990 . S
N721 C720 1.314 . S
N721 C723 1.279 . S
C722 C723 1.358 . S
C722 C724 1.356 . S
C722 H776 0.930 . S
C723 N721 1.279 . S
C723 C722 1.358 . S
C723 H727 0.930 . S
C724 C722 1.356 . S
C724 C725 1.348 . S
C725 C720 1.353 . S
C725 C724 1.348 . S
C725 H777 0.929 . S
H726 C720 0.930 . S
H727 C723 0.930 . S
C728 N729 1.314 . S
C728 C730 1.353 . S
C728 H734 0.930 . S
N729 Li705 1.990 . S
N729 C728 1.314 . S
N729 C732 1.279 . S
C730 C728 1.353 . S
C730 C733 1.348 . S
C730 H778 0.929 . S
C731 C732 1.358 . S
C731 C733 1.356 . S
C731 H779 0.930 . S
C732 N729 1.279 . S
C732 C731 1.358 . S
C732 H735 0.930 . S
C733 C730 1.348 . S
C733 C731 1.356 . S
H734 C728 0.930 . S
H735 C732 0.930 . S
C736 C738 1.348 . S
C736 C739 1.356 . S
C736 O766 1.325 . S
N737 C740 1.314 . S
N737 C741 1.279 . S
C738 C736 1.348 . S
C738 C740 1.353 . S
C738 H780 0.929 . S
C739 C736 1.356 . S
C739 C741 1.358 . S
C739 H781 0.930 . S
C740 N737 1.314 . S
C740 C738 1.353 . S
C740 H782 0.930 . S
C741 N737 1.279 . S
C741 C739 1.358 . S
C741 H783 0.930 . S
C742 C743 1.348 . S
C742 C744 1.356 . S
C742 O767 1.325 . S
C743 C742 1.348 . S
C743 C745 1.353 . S
C743 H784 0.929 . S
C744 C742 1.356 . S
C744 C746 1.358 . S
C744 H785 0.930 . S
C745 C743 1.353 . S
C745 N747 1.314 . S
C745 H786 0.930 . S
C746 C744 1.358 . S
C746 N747 1.279 . S
C746 H787 0.930 . S
N747 C745 1.314 . S
N747 C746 1.279 . S
C748 C750 1.353 . S
C748 N751 1.314 . S
C748 H754 0.930 . S
C749 N751 1.279 . S
C749 C752 1.358 . S
C749 H755 0.930 . S
C750 C748 1.353 . S
C750 C753 1.348 . S
C750 H788 0.929 . S
N751 Li706 1.990 . S
N751 C748 1.314 . S
N751 C749 1.279 . S
C752 C749 1.358 . S
C752 C753 1.356 . S
C752 H789 0.930 . S
C753 C750 1.348 . S
C753 C752 1.356 . S
H754 C748 0.930 . S
H755 C749 0.930 . S
C756 N757 1.314 . S
C756 C758 1.353 . S
C756 H762 0.930 . S
N757 Li707 1.990 . S
N757 C756 1.314 . S
N757 C760 1.279 . S
C758 C756 1.353 . S
C758 C761 1.348 . S
C758 H790 0.929 . S
C759 C760 1.358 . S
C759 C761 1.356 . S
C759 H791 0.930 . S
C760 N757 1.279 . S
C760 C759 1.358 . S
C760 H763 0.930 . S
C761 C758 1.348 . S
C761 C759 1.356 . S
H762 C756 0.930 . S
H763 C760 0.930 . S
O764 Li704 1.956 . S
O764 Li705 1.970 . S
O764 Li706 1.961 . S
O764 C708 1.325 . S
O765 Li704 1.970 . S
O765 Li705 1.956 . S
O765 Li707 1.961 . S
O765 C714 1.325 . S
O766 Li704 1.961 . S
O766 Li706 1.956 . S
O766 Li707 1.970 . S
O766 C736 1.325 . S
O767 Li705 1.961 . S
O767 Li706 1.970 . S
O767 Li707 1.956 . S
O767 C742 1.325 . S
H768 C710 0.929 . S
H769 C711 0.930 . S
H770 C712 0.930 . S
H771 C713 0.930 . S
H772 C715 0.930 . S
H773 C717 0.929 . S
H774 C718 0.930 . S
H775 C719 0.930 . S
H776 C722 0.930 . S
H777 C725 0.929 . S
H778 C730 0.929 . S
H779 C731 0.930 . S
H780 C738 0.929 . S
H781 C739 0.930 . S
H782 C740 0.930 . S
H783 C741 0.930 . S
H784 C743 0.929 . S
H785 C744 0.930 . S
H786 C745 0.930 . S
H787 C746 0.930 . S
H788 C750 0.929 . S
H789 C752 0.930 . S
H790 C758 0.929 . S
H791 C759 0.930 . S
Li792 N809 1.990 . S
Li792 O852 1.956 . S
Li792 O853 1.970 . S
Li792 O854 1.961 . S
Li793 N817 1.990 . S
Li793 O852 1.970 . S
Li793 O853 1.956 . S
Li793 O855 1.961 . S
Li794 N839 1.990 . S
Li794 O852 1.961 . S
Li794 O854 1.956 . S
Li794 O855 1.970 . S
Li795 N845 1.990 . S
Li795 O853 1.961 . S
Li795 O854 1.970 . S
Li795 O855 1.956 . S
C796 C798 1.348 . S
C796 C799 1.356 . S
C796 O852 1.325 . S
N797 C800 1.314 . S
N797 C801 1.279 . S
C798 C796 1.348 . S
C798 C800 1.353 . S
C798 H856 0.929 . S
C799 C796 1.356 . S
C799 C801 1.358 . S
C799 H857 0.930 . S
C800 N797 1.314 . S
C800 C798 1.353 . S
C800 H858 0.930 . S
C801 N797 1.279 . S
C801 C799 1.358 . S
C801 H859 0.930 . S
C802 C805 1.348 . S
C802 C806 1.356 . S
C802 O853 1.325 . S
C803 N804 1.279 . S
C803 C806 1.358 . S
C803 H860 0.930 . S
N804 C803 1.279 . S
N804 C807 1.314 . S
C805 C802 1.348 . S
C805 C807 1.353 . S
C805 H861 0.929 . S
C806 C802 1.356 . S
C806 C803 1.358 . S
C806 H862 0.930 . S
C807 N804 1.314 . S
C807 C805 1.353 . S
C807 H863 0.930 . S
C808 N809 1.314 . S
C808 C813 1.353 . S
C808 H814 0.930 . S
N809 Li792 1.990 . S
N809 C808 1.314 . S
N809 C811 1.279 . S
C810 C811 1.358 . S
C810 C812 1.356 . S
C810 H864 0.930 . S
C811 N809 1.279 . S
C811 C810 1.358 . S
C811 H815 0.930 . S
C812 C810 1.356 . S
C812 C813 1.348 . S
C813 C808 1.353 . S
C813 C812 1.348 . S
C813 H865 0.929 . S
H814 C808 0.930 . S
H815 C811 0.930 . S
C816 N817 1.314 . S
C816 C818 1.353 . S
C816 H822 0.930 . S
N817 Li793 1.990 . S
N817 C816 1.314 . S
N817 C820 1.279 . S
C818 C816 1.353 . S
C818 C821 1.348 . S
C818 H866 0.929 . S
C819 C820 1.358 . S
C819 C821 1.356 . S
C819 H867 0.930 . S
C820 N817 1.279 . S
C820 C819 1.358 . S
C820 H823 0.930 . S
C821 C818 1.348 . S
C821 C819 1.356 . S
H822 C816 0.930 . S
H823 C820 0.930 . S
C824 C826 1.348 . S
C824 C827 1.356 . S
C824 O854 1.325 . S
N825 C828 1.314 . S
N825 C829 1.279 . S
C826 C824 1.348 . S
C826 C828 1.353 . S
C826 H868 0.929 . S
C827 C824 1.356 . S
C827 C829 1.358 . S
C827 H869 0.930 . S
C828 N825 1.314 . S
C828 C826 1.353 . S
C828 H870 0.930 . S
C829 N825 1.279 . S
C829 C827 1.358 . S
C829 H871 0.930 . S
C830 C831 1.348 . S
C830 C832 1.356 . S
C830 O855 1.325 . S
C831 C830 1.348 . S
C831 C833 1.353 . S
C831 H872 0.929 . S
C832 C830 1.356 . S
C832 C834 1.358 . S
C832 H873 0.930 . S
C833 C831 1.353 . S
C833 N835 1.314 . S
C833 H874 0.930 . S
C834 C832 1.358 . S
C834 N835 1.279 . S
C834 H875 0.930 . S
N835 C833 1.314 . S
N835 C834 1.279 . S
C836 C838 1.353 . S
C836 N839 1.314 . S
C836 H842 0.930 . S
C837 N839 1.279 . S
C837 C840 1.358 . S
C837 H843 0.930 . S
C838 C836 1.353 . S
C838 C841 1.348 . S
C838 H876 0.929 . S
N839 Li794 1.990 . S
N839 C836 1.314 . S
N839 C837 1.279 . S
C840 C837 1.358 . S
C840 C841 1.356 . S
C840 H877 0.930 . S
C841 C838 1.348 . S
C841 C840 1.356 . S
H842 C836 0.930 . S
H843 C837 0.930 . S
C844 N845 1.314 . S
C844 C846 1.353 . S
C844 H850 0.930 . S
N845 Li795 1.990 . S
N845 C844 1.314 . S
N845 C848 1.279 . S
C846 C844 1.353 . S
C846 C849 1.348 . S
C846 H878 0.929 . S
C847 C848 1.358 . S
C847 C849 1.356 . S
C847 H879 0.930 . S
C848 N845 1.279 . S
C848 C847 1.358 . S
C848 H851 0.930 . S
C849 C846 1.348 . S
C849 C847 1.356 . S
H850 C844 0.930 . S
H851 C848 0.930 . S
O852 Li792 1.956 . S
O852 Li793 1.970 . S
O852 Li794 1.961 . S
O852 C796 1.325 . S
O853 Li792 1.970 . S
O853 Li793 1.956 . S
O853 Li795 1.961 . S
O853 C802 1.325 . S
O854 Li792 1.961 . S
O854 Li794 1.956 . S
O854 Li795 1.970 . S
O854 C824 1.325 . S
O855 Li793 1.961 . S
O855 Li794 1.970 . S
O855 Li795 1.956 . S
O855 C830 1.325 . S
H856 C798 0.929 . S
H857 C799 0.930 . S
H858 C800 0.930 . S
H859 C801 0.930 . S
H860 C803 0.930 . S
H861 C805 0.929 . S
H862 C806 0.930 . S
H863 C807 0.930 . S
H864 C810 0.930 . S
H865 C813 0.929 . S
H866 C818 0.929 . S
H867 C819 0.930 . S
H868 C826 0.929 . S
H869 C827 0.930 . S
H870 C828 0.930 . S
H871 C829 0.930 . S
H872 C831 0.929 . S
H873 C832 0.930 . S
H874 C833 0.930 . S
H875 C834 0.930 . S
H876 C838 0.929 . S
H877 C840 0.930 . S
H878 C846 0.929 . S
H879 C847 0.930 . S
Li880 N897 1.990 . S
Li880 O940 1.956 . S
Li880 O941 1.970 . S
Li880 O942 1.961 . S
Li881 N905 1.990 . S
Li881 O940 1.970 . S
Li881 O941 1.956 . S
Li881 O943 1.961 . S
Li882 N927 1.990 1_545 S
Li882 O940 1.961 . S
Li882 O942 1.956 . S
Li882 O943 1.970 . S
Li883 N933 1.990 . S
Li883 O941 1.961 . S
Li883 O942 1.970 . S
Li883 O943 1.956 . S
C884 C886 1.348 . S
C884 C887 1.356 . S
C884 O940 1.325 . S
N885 C888 1.314 . S
N885 C889 1.279 . S
C886 C884 1.348 . S
C886 C888 1.353 . S
C886 H944 0.929 . S
C887 C884 1.356 . S
C887 C889 1.358 . S
C887 H945 0.930 . S
C888 N885 1.314 . S
C888 C886 1.353 . S
C888 H946 0.930 . S
C889 N885 1.279 . S
C889 C887 1.358 . S
C889 H947 0.930 . S
C890 C893 1.348 . S
C890 C894 1.356 . S
C890 O941 1.325 . S
C891 N892 1.279 . S
C891 C894 1.358 . S
C891 H948 0.930 . S
N892 C891 1.279 . S
N892 C895 1.314 . S
C893 C890 1.348 . S
C893 C895 1.353 . S
C893 H949 0.929 . S
C894 C890 1.356 . S
C894 C891 1.358 . S
C894 H950 0.930 . S
C895 N892 1.314 . S
C895 C893 1.353 . S
C895 H951 0.930 . S
C896 N897 1.314 . S
C896 C901 1.353 . S
C896 H902 0.930 . S
N897 Li880 1.990 . S
N897 C896 1.314 . S
N897 C899 1.279 . S
C898 C899 1.358 . S
C898 C900 1.356 . S
C898 H952 0.930 . S
C899 N897 1.279 . S
C899 C898 1.358 . S
C899 H903 0.930 . S
C900 C898 1.356 . S
C900 C901 1.348 . S
C901 C896 1.353 . S
C901 C900 1.348 . S
C901 H953 0.929 . S
H902 C896 0.930 . S
H903 C899 0.930 . S
C904 N905 1.314 . S
C904 C906 1.353 . S
C904 H910 0.930 . S
N905 Li881 1.990 . S
N905 C904 1.314 . S
N905 C908 1.279 . S
C906 C904 1.353 . S
C906 C909 1.348 . S
C906 H954 0.929 . S
C907 C908 1.358 . S
C907 C909 1.356 . S
C907 H955 0.930 . S
C908 N905 1.279 . S
C908 C907 1.358 . S
C908 H911 0.930 . S
C909 C906 1.348 . S
C909 C907 1.356 . S
H910 C904 0.930 . S
H911 C908 0.930 . S
C912 C914 1.348 . S
C912 C915 1.356 . S
C912 O942 1.325 . S
N913 C916 1.314 . S
N913 C917 1.279 . S
C914 C912 1.348 . S
C914 C916 1.353 . S
C914 H956 0.929 . S
C915 C912 1.356 . S
C915 C917 1.358 . S
C915 H957 0.930 . S
C916 N913 1.314 . S
C916 C914 1.353 . S
C916 H958 0.930 . S
C917 N913 1.279 . S
C917 C915 1.358 . S
C917 H959 0.930 . S
C918 C919 1.348 . S
C918 C920 1.356 . S
C918 O943 1.325 1_565 S
C919 C918 1.348 . S
C919 C921 1.353 . S
C919 H960 0.929 . S
C920 C918 1.356 . S
C920 C922 1.358 . S
C920 H961 0.930 1_565 S
C921 C919 1.353 . S
C921 N923 1.314 . S
C921 H962 0.930 . S
C922 C920 1.358 . S
C922 N923 1.279 . S
C922 H963 0.930 . S
N923 C921 1.314 . S
N923 C922 1.279 . S
C924 C926 1.353 . S
C924 N927 1.314 . S
C924 H930 0.930 . S
C925 N927 1.279 . S
C925 C928 1.358 . S
C925 H931 0.930 . S
C926 C924 1.353 . S
C926 C929 1.348 . S
C926 H964 0.929 . S
N927 Li882 1.990 1_565 S
N927 C924 1.314 . S
N927 C925 1.279 . S
C928 C925 1.358 . S
C928 C929 1.356 . S
C928 H965 0.930 . S
C929 C926 1.348 . S
C929 C928 1.356 . S
H930 C924 0.930 . S
H931 C925 0.930 . S
C932 N933 1.314 . S
C932 C934 1.353 . S
C932 H938 0.930 . S
N933 Li883 1.990 . S
N933 C932 1.314 . S
N933 C936 1.279 . S
C934 C932 1.353 . S
C934 C937 1.348 . S
C934 H966 0.929 . S
C935 C936 1.358 . S
C935 C937 1.356 . S
C935 H967 0.930 1_545 S
C936 N933 1.279 . S
C936 C935 1.358 . S
C936 H939 0.930 1_545 S
C937 C934 1.348 . S
C937 C935 1.356 . S
H938 C932 0.930 . S
H939 C936 0.930 1_565 S
O940 Li880 1.956 . S
O940 Li881 1.970 . S
O940 Li882 1.961 . S
O940 C884 1.325 . S
O941 Li880 1.970 . S
O941 Li881 1.956 . S
O941 Li883 1.961 . S
O941 C890 1.325 . S
O942 Li880 1.961 . S
O942 Li882 1.956 . S
O942 Li883 1.970 . S
O942 C912 1.325 . S
O943 Li881 1.961 . S
O943 Li882 1.970 . S
O943 Li883 1.956 . S
O943 C918 1.325 1_545 S
H944 C886 0.929 . S
H945 C887 0.930 . S
H946 C888 0.930 . S
H947 C889 0.930 . S
H948 C891 0.930 . S
H949 C893 0.929 . S
H950 C894 0.930 . S
H951 C895 0.930 . S
H952 C898 0.930 . S
H953 C901 0.929 . S
H954 C906 0.929 . S
H955 C907 0.930 . S
H956 C914 0.929 . S
H957 C915 0.930 . S
H958 C916 0.930 . S
H959 C917 0.930 . S
H960 C919 0.929 . S
H961 C920 0.930 1_545 S
H962 C921 0.930 . S
H963 C922 0.930 . S
H964 C926 0.929 . S
H965 C928 0.930 . S
H966 C934 0.929 . S
H967 C935 0.930 1_565 S
Li968 N985 1.990 . S
Li968 O1028 1.956 . S
Li968 O1029 1.970 . S
Li968 O1030 1.961 . S
Li969 N993 1.990 . S
Li969 O1028 1.970 . S
Li969 O1029 1.956 . S
Li969 O1031 1.961 . S
Li970 N1015 1.990 . S
Li970 O1028 1.961 . S
Li970 O1030 1.956 . S
Li970 O1031 1.970 . S
Li971 N1021 1.990 . S
Li971 O1029 1.961 . S
Li971 O1030 1.970 . S
Li971 O1031 1.956 . S
C972 C974 1.348 . S
C972 C975 1.356 . S
C972 O1028 1.325 . S
N973 C976 1.314 . S
N973 C977 1.279 . S
C974 C972 1.348 . S
C974 C976 1.353 . S
C974 H1032 0.929 . S
C975 C972 1.356 . S
C975 C977 1.358 . S
C975 H1033 0.930 . S
C976 N973 1.314 . S
C976 C974 1.353 . S
C976 H1034 0.930 . S
C977 N973 1.279 . S
C977 C975 1.358 . S
C977 H1035 0.930 . S
C978 C981 1.348 . S
C978 C982 1.356 . S
C978 O1029 1.325 . S
C979 N980 1.279 . S
C979 C982 1.358 . S
C979 H1036 0.930 . S
N980 C979 1.279 . S
N980 C983 1.314 . S
C981 C978 1.348 . S
C981 C983 1.353 . S
C981 H1037 0.929 . S
C982 C978 1.356 . S
C982 C979 1.358 . S
C982 H1038 0.930 . S
C983 N980 1.314 . S
C983 C981 1.353 . S
C983 H1039 0.930 . S
C984 N985 1.314 . S
C984 C989 1.353 . S
C984 H990 0.930 . S
N985 Li968 1.990 . S
N985 C984 1.314 . S
N985 C987 1.279 . S
C986 C987 1.358 . S
C986 C988 1.356 . S
C986 H1040 0.930 . S
C987 N985 1.279 . S
C987 C986 1.358 . S
C987 H991 0.930 . S
C988 C986 1.356 . S
C988 C989 1.348 . S
C989 C984 1.353 . S
C989 C988 1.348 . S
C989 H1041 0.929 . S
H990 C984 0.930 . S
H991 C987 0.930 . S
C992 N993 1.314 . S
C992 C994 1.353 . S
C992 H998 0.930 . S
N993 Li969 1.990 . S
N993 C992 1.314 . S
N993 C996 1.279 . S
C994 C992 1.353 . S
C994 C997 1.348 . S
C994 H1042 0.929 . S
C995 C996 1.358 . S
C995 C997 1.356 . S
C995 H1043 0.930 . S
C996 N993 1.279 . S
C996 C995 1.358 . S
C996 H999 0.930 . S
C997 C994 1.348 . S
C997 C995 1.356 . S
H998 C992 0.930 . S
H999 C996 0.930 . S
C1000 C1002 1.348 . S
C1000 C1003 1.356 . S
C1000 O1030 1.325 . S
N1001 C1004 1.314 . S
N1001 C1005 1.279 1_556 S
C1002 C1000 1.348 . S
C1002 C1004 1.353 1_554 S
C1002 H1044 0.929 . S
C1003 C1000 1.356 . S
C1003 C1005 1.358 . S
C1003 H1045 0.930 . S
C1004 N1001 1.314 . S
C1004 C1002 1.353 1_556 S
C1004 H1046 0.930 . S
C1005 N1001 1.279 1_554 S
C1005 C1003 1.358 . S
C1005 H1047 0.930 . S
C1006 C1007 1.348 . S
C1006 C1008 1.356 . S
C1006 O1031 1.325 . S
C1007 C1006 1.348 . S
C1007 C1009 1.353 . S
C1007 H1048 0.929 . S
C1008 C1006 1.356 . S
C1008 C1010 1.358 . S
C1008 H1049 0.930 . S
C1009 C1007 1.353 . S
C1009 N1011 1.314 . S
C1009 H1050 0.930 . S
C1010 C1008 1.358 . S
C1010 N1011 1.279 . S
C1010 H1051 0.930 . S
N1011 C1009 1.314 . S
N1011 C1010 1.279 . S
C1012 C1014 1.353 . S
C1012 N1015 1.314 . S
C1012 H1018 0.930 . S
C1013 N1015 1.279 . S
C1013 C1016 1.358 . S
C1013 H1019 0.930 . S
C1014 C1012 1.353 . S
C1014 C1017 1.348 . S
C1014 H1052 0.929 . S
N1015 Li970 1.990 . S
N1015 C1012 1.314 . S
N1015 C1013 1.279 . S
C1016 C1013 1.358 . S
C1016 C1017 1.356 . S
C1016 H1053 0.930 . S
C1017 C1014 1.348 . S
C1017 C1016 1.356 . S
H1018 C1012 0.930 . S
H1019 C1013 0.930 . S
C1020 N1021 1.314 1_556 S
C1020 C1022 1.353 . S
C1020 H1026 0.930 1_556 S
N1021 Li971 1.990 . S
N1021 C1020 1.314 1_554 S
N1021 C1024 1.279 . S
C1022 C1020 1.353 . S
C1022 C1025 1.348 . S
C1022 H1054 0.929 . S
C1023 C1024 1.358 1_556 S
C1023 C1025 1.356 . S
C1023 H1055 0.930 . S
C1024 N1021 1.279 . S
C1024 C1023 1.358 1_554 S
C1024 H1027 0.930 . S
C1025 C1022 1.348 . S
C1025 C1023 1.356 . S
H1026 C1020 0.930 1_554 S
H1027 C1024 0.930 . S
O1028 Li968 1.956 . S
O1028 Li969 1.970 . S
O1028 Li970 1.961 . S
O1028 C972 1.325 . S
O1029 Li968 1.970 . S
O1029 Li969 1.956 . S
O1029 Li971 1.961 . S
O1029 C978 1.325 . S
O1030 Li968 1.961 . S
O1030 Li970 1.956 . S
O1030 Li971 1.970 . S
O1030 C1000 1.325 . S
O1031 Li969 1.961 . S
O1031 Li970 1.970 . S
O1031 Li971 1.956 . S
O1031 C1006 1.325 . S
H1032 C974 0.929 . S
H1033 C975 0.930 . S
H1034 C976 0.930 . S
H1035 C977 0.930 . S
H1036 C979 0.930 . S
H1037 C981 0.929 . S
H1038 C982 0.930 . S
H1039 C983 0.930 . S
H1040 C986 0.930 . S
H1041 C989 0.929 . S
H1042 C994 0.929 . S
H1043 C995 0.930 . S
H1044 C1002 0.929 . S
H1045 C1003 0.930 . S
H1046 C1004 0.930 . S
H1047 C1005 0.930 . S
H1048 C1007 0.929 . S
H1049 C1008 0.930 . S
H1050 C1009 0.930 . S
H1051 C1010 0.930 . S
H1052 C1014 0.929 . S
H1053 C1016 0.930 . S
H1054 C1022 0.929 . S
H1055 C1023 0.930 . S
Li1056 N1073 1.990 . S
Li1056 O1116 1.956 . S
Li1056 O1117 1.970 . S
Li1056 O1118 1.961 . S
Li1057 N1081 1.990 . S
Li1057 O1116 1.970 . S
Li1057 O1117 1.956 . S
Li1057 O1119 1.961 . S
Li1058 N1103 1.990 . S
Li1058 O1116 1.961 . S
Li1058 O1118 1.956 . S
Li1058 O1119 1.970 . S
Li1059 N1109 1.990 . S
Li1059 O1117 1.961 . S
Li1059 O1118 1.970 . S
Li1059 O1119 1.956 . S
C1060 C1062 1.348 . S
C1060 C1063 1.356 . S
C1060 O1116 1.325 . S
N1061 C1064 1.314 . S
N1061 C1065 1.279 . S
C1062 C1060 1.348 . S
C1062 C1064 1.353 . S
C1062 H1120 0.929 . S
C1063 C1060 1.356 . S
C1063 C1065 1.358 . S
C1063 H1121 0.930 . S
C1064 N1061 1.314 . S
C1064 C1062 1.353 . S
C1064 H1122 0.930 . S
C1065 N1061 1.279 . S
C1065 C1063 1.358 . S
C1065 H1123 0.930 . S
C1066 C1069 1.348 . S
C1066 C1070 1.356 . S
C1066 O1117 1.325 . S
C1067 N1068 1.279 . S
C1067 C1070 1.358 . S
C1067 H1124 0.930 . S
N1068 C1067 1.279 . S
N1068 C1071 1.314 . S
C1069 C1066 1.348 . S
C1069 C1071 1.353 . S
C1069 H1125 0.929 . S
C1070 C1066 1.356 . S
C1070 C1067 1.358 . S
C1070 H1126 0.930 . S
C1071 N1068 1.314 . S
C1071 C1069 1.353 . S
C1071 H1127 0.930 . S
C1072 N1073 1.314 . S
C1072 C1077 1.353 . S
C1072 H1078 0.930 . S
N1073 Li1056 1.990 . S
N1073 C1072 1.314 . S
N1073 C1075 1.279 . S
C1074 C1075 1.358 . S
C1074 C1076 1.356 . S
C1074 H1128 0.930 . S
C1075 N1073 1.279 . S
C1075 C1074 1.358 . S
C1075 H1079 0.930 . S
C1076 C1074 1.356 . S
C1076 C1077 1.348 . S
C1077 C1072 1.353 . S
C1077 C1076 1.348 . S
C1077 H1129 0.929 . S
H1078 C1072 0.930 . S
H1079 C1075 0.930 . S
C1080 N1081 1.314 . S
C1080 C1082 1.353 . S
C1080 H1086 0.930 . S
N1081 Li1057 1.990 . S
N1081 C1080 1.314 . S
N1081 C1084 1.279 . S
C1082 C1080 1.353 . S
C1082 C1085 1.348 . S
C1082 H1130 0.929 . S
C1083 C1084 1.358 . S
C1083 C1085 1.356 . S
C1083 H1131 0.930 . S
C1084 N1081 1.279 . S
C1084 C1083 1.358 . S
C1084 H1087 0.930 . S
C1085 C1082 1.348 . S
C1085 C1083 1.356 . S
H1086 C1080 0.930 . S
H1087 C1084 0.930 . S
C1088 C1090 1.348 . S
C1088 C1091 1.356 . S
C1088 O1118 1.325 . S
N1089 C1092 1.314 . S
N1089 C1093 1.279 . S
C1090 C1088 1.348 . S
C1090 C1092 1.353 . S
C1090 H1132 0.929 . S
C1091 C1088 1.356 . S
C1091 C1093 1.358 . S
C1091 H1133 0.930 . S
C1092 N1089 1.314 . S
C1092 C1090 1.353 . S
C1092 H1134 0.930 . S
C1093 N1089 1.279 . S
C1093 C1091 1.358 . S
C1093 H1135 0.930 . S
C1094 C1095 1.348 . S
C1094 C1096 1.356 . S
C1094 O1119 1.325 . S
C1095 C1094 1.348 . S
C1095 C1097 1.353 . S
C1095 H1136 0.929 . S
C1096 C1094 1.356 . S
C1096 C1098 1.358 . S
C1096 H1137 0.930 . S
C1097 C1095 1.353 . S
C1097 N1099 1.314 . S
C1097 H1138 0.930 . S
C1098 C1096 1.358 . S
C1098 N1099 1.279 . S
C1098 H1139 0.930 . S
N1099 C1097 1.314 . S
N1099 C1098 1.279 . S
C1100 C1102 1.353 . S
C1100 N1103 1.314 . S
C1100 H1106 0.930 . S
C1101 N1103 1.279 . S
C1101 C1104 1.358 . S
C1101 H1107 0.930 . S
C1102 C1100 1.353 . S
C1102 C1105 1.348 . S
C1102 H1140 0.929 . S
N1103 Li1058 1.990 . S
N1103 C1100 1.314 . S
N1103 C1101 1.279 . S
C1104 C1101 1.358 . S
C1104 C1105 1.356 . S
C1104 H1141 0.930 . S
C1105 C1102 1.348 . S
C1105 C1104 1.356 . S
H1106 C1100 0.930 . S
H1107 C1101 0.930 . S
C1108 N1109 1.314 . S
C1108 C1110 1.353 . S
C1108 H1114 0.930 . S
N1109 Li1059 1.990 . S
N1109 C1108 1.314 . S
N1109 C1112 1.279 . S
C1110 C1108 1.353 . S
C1110 C1113 1.348 . S
C1110 H1142 0.929 . S
C1111 C1112 1.358 . S
C1111 C1113 1.356 . S
C1111 H1143 0.930 . S
C1112 N1109 1.279 . S
C1112 C1111 1.358 . S
C1112 H1115 0.930 . S
C1113 C1110 1.348 . S
C1113 C1111 1.356 . S
H1114 C1108 0.930 . S
H1115 C1112 0.930 . S
O1116 Li1056 1.956 . S
O1116 Li1057 1.970 . S
O1116 Li1058 1.961 . S
O1116 C1060 1.325 . S
O1117 Li1056 1.970 . S
O1117 Li1057 1.956 . S
O1117 Li1059 1.961 . S
O1117 C1066 1.325 . S
O1118 Li1056 1.961 . S
O1118 Li1058 1.956 . S
O1118 Li1059 1.970 . S
O1118 C1088 1.325 . S
O1119 Li1057 1.961 . S
O1119 Li1058 1.970 . S
O1119 Li1059 1.956 . S
O1119 C1094 1.325 . S
H1120 C1062 0.929 . S
H1121 C1063 0.930 . S
H1122 C1064 0.930 . S
H1123 C1065 0.930 . S
H1124 C1067 0.930 . S
H1125 C1069 0.929 . S
H1126 C1070 0.930 . S
H1127 C1071 0.930 . S
H1128 C1074 0.930 . S
H1129 C1077 0.929 . S
H1130 C1082 0.929 . S
H1131 C1083 0.930 . S
H1132 C1090 0.929 . S
H1133 C1091 0.930 . S
H1134 C1092 0.930 . S
H1135 C1093 0.930 . S
H1136 C1095 0.929 . S
H1137 C1096 0.930 . S
H1138 C1097 0.930 . S
H1139 C1098 0.930 . S
H1140 C1102 0.929 . S
H1141 C1104 0.930 . S
H1142 C1110 0.929 . S
H1143 C1111 0.930 . S
Li1144 N1161 1.990 . S
Li1144 O1204 1.956 . S
Li1144 O1205 1.970 . S
Li1144 O1206 1.961 . S
Li1145 N1169 1.990 . S
Li1145 O1204 1.970 . S
Li1145 O1205 1.956 . S
Li1145 O1207 1.961 . S
Li1146 N1191 1.990 . S
Li1146 O1204 1.961 . S
Li1146 O1206 1.956 . S
Li1146 O1207 1.970 . S
Li1147 N1197 1.990 . S
Li1147 O1205 1.961 . S
Li1147 O1206 1.970 . S
Li1147 O1207 1.956 . S
C1148 C1150 1.348 . S
C1148 C1151 1.356 . S
C1148 O1204 1.325 . S
N1149 C1152 1.314 . S
N1149 C1153 1.279 . S
C1150 C1148 1.348 . S
C1150 C1152 1.353 . S
C1150 H1208 0.929 . S
C1151 C1148 1.356 . S
C1151 C1153 1.358 . S
C1151 H1209 0.930 . S
C1152 N1149 1.314 . S
C1152 C1150 1.353 . S
C1152 H1210 0.930 . S
C1153 N1149 1.279 . S
C1153 C1151 1.358 . S
C1153 H1211 0.930 . S
C1154 C1157 1.348 . S
C1154 C1158 1.356 . S
C1154 O1205 1.325 . S
C1155 N1156 1.279 . S
C1155 C1158 1.358 . S
C1155 H1212 0.930 . S
N1156 C1155 1.279 . S
N1156 C1159 1.314 . S
C1157 C1154 1.348 . S
C1157 C1159 1.353 . S
C1157 H1213 0.929 . S
C1158 C1154 1.356 . S
C1158 C1155 1.358 . S
C1158 H1214 0.930 . S
C1159 N1156 1.314 . S
C1159 C1157 1.353 . S
C1159 H1215 0.930 . S
C1160 N1161 1.314 . S
C1160 C1165 1.353 . S
C1160 H1166 0.930 . S
N1161 Li1144 1.990 . S
N1161 C1160 1.314 . S
N1161 C1163 1.279 . S
C1162 C1163 1.358 . S
C1162 C1164 1.356 . S
C1162 H1216 0.930 . S
C1163 N1161 1.279 . S
C1163 C1162 1.358 . S
C1163 H1167 0.930 . S
C1164 C1162 1.356 . S
C1164 C1165 1.348 . S
C1165 C1160 1.353 . S
C1165 C1164 1.348 . S
C1165 H1217 0.929 . S
H1166 C1160 0.930 . S
H1167 C1163 0.930 . S
C1168 N1169 1.314 . S
C1168 C1170 1.353 . S
C1168 H1174 0.930 . S
N1169 Li1145 1.990 . S
N1169 C1168 1.314 . S
N1169 C1172 1.279 . S
C1170 C1168 1.353 . S
C1170 C1173 1.348 . S
C1170 H1218 0.929 . S
C1171 C1172 1.358 . S
C1171 C1173 1.356 . S
C1171 H1219 0.930 . S
C1172 N1169 1.279 . S
C1172 C1171 1.358 . S
C1172 H1175 0.930 . S
C1173 C1170 1.348 . S
C1173 C1171 1.356 . S
H1174 C1168 0.930 . S
H1175 C1172 0.930 . S
C1176 C1178 1.348 . S
C1176 C1179 1.356 . S
C1176 O1206 1.325 . S
N1177 C1180 1.314 . S
N1177 C1181 1.279 . S
C1178 C1176 1.348 . S
C1178 C1180 1.353 . S
C1178 H1220 0.929 . S
C1179 C1176 1.356 . S
C1179 C1181 1.358 . S
C1179 H1221 0.930 . S
C1180 N1177 1.314 . S
C1180 C1178 1.353 . S
C1180 H1222 0.930 . S
C1181 N1177 1.279 . S
C1181 C1179 1.358 . S
C1181 H1223 0.930 . S
C1182 C1183 1.348 1_554 S
C1182 C1184 1.356 . S
C1182 O1207 1.325 . S
C1183 C1182 1.348 1_556 S
C1183 C1185 1.353 . S
C1183 H1224 0.929 . S
C1184 C1182 1.356 . S
C1184 C1186 1.358 1_554 S
C1184 H1225 0.930 . S
C1185 C1183 1.353 . S
C1185 N1187 1.314 . S
C1185 H1226 0.930 . S
C1186 C1184 1.358 1_556 S
C1186 N1187 1.279 . S
C1186 H1227 0.930 . S
N1187 C1185 1.314 . S
N1187 C1186 1.279 . S
C1188 C1190 1.353 . S
C1188 N1191 1.314 1_556 S
C1188 H1194 0.923 1_556 S
C1189 N1191 1.279 1_556 S
C1189 C1192 1.358 . S
C1189 H1195 0.930 1_556 S
C1190 C1188 1.353 . S
C1190 C1193 1.348 . S
C1190 H1228 0.929 . S
N1191 Li1146 1.990 . S
N1191 C1188 1.314 1_554 S
N1191 C1189 1.279 1_554 S
C1192 C1189 1.358 . S
C1192 C1193 1.356 . S
C1192 H1229 0.930 . S
C1193 C1190 1.348 . S
C1193 C1192 1.356 . S
H1194 C1188 0.923 1_554 S
H1195 C1189 0.930 1_554 S
C1196 N1197 1.314 . S
C1196 C1198 1.353 . S
C1196 H1202 0.930 . S
N1197 Li1147 1.990 . S
N1197 C1196 1.314 . S
N1197 C1200 1.279 . S
C1198 C1196 1.353 . S
C1198 C1201 1.348 . S
C1198 H1230 0.929 . S
C1199 C1200 1.358 . S
C1199 C1201 1.356 . S
C1199 H1231 0.930 . S
C1200 N1197 1.279 . S
C1200 C1199 1.358 . S
C1200 H1203 0.930 . S
C1201 C1198 1.348 . S
C1201 C1199 1.356 . S
H1202 C1196 0.930 . S
H1203 C1200 0.930 . S
O1204 Li1144 1.956 . S
O1204 Li1145 1.970 . S
O1204 Li1146 1.961 . S
O1204 C1148 1.325 . S
O1205 Li1144 1.970 . S
O1205 Li1145 1.956 . S
O1205 Li1147 1.961 . S
O1205 C1154 1.325 . S
O1206 Li1144 1.961 . S
O1206 Li1146 1.956 . S
O1206 Li1147 1.970 . S
O1206 C1176 1.325 . S
O1207 Li1145 1.961 . S
O1207 Li1146 1.970 . S
O1207 Li1147 1.956 . S
O1207 C1182 1.325 . S
H1208 C1150 0.929 . S
H1209 C1151 0.930 . S
H1210 C1152 0.930 . S
H1211 C1153 0.930 . S
H1212 C1155 0.930 . S
H1213 C1157 0.929 . S
H1214 C1158 0.930 . S
H1215 C1159 0.930 . S
H1216 C1162 0.930 . S
H1217 C1165 0.929 . S
H1218 C1170 0.929 . S
H1219 C1171 0.930 . S
H1220 C1178 0.929 . S
H1221 C1179 0.930 . S
H1222 C1180 0.930 . S
H1223 C1181 0.930 . S
H1224 C1183 0.929 . S
H1225 C1184 0.930 . S
H1226 C1185 0.930 . S
H1227 C1186 0.930 . S
H1228 C1190 0.929 . S
H1229 C1192 0.930 . S
H1230 C1198 0.929 . S
H1231 C1199 0.930 . S
Li1232 N1249 1.990 . S
Li1232 O1292 1.956 . S
Li1232 O1293 1.970 . S
Li1232 O1294 1.961 . S
Li1233 N1257 1.990 . S
Li1233 O1292 1.970 . S
Li1233 O1293 1.956 . S
Li1233 O1295 1.961 . S
Li1234 N1279 1.990 . S
Li1234 O1292 1.961 . S
Li1234 O1294 1.956 . S
Li1234 O1295 1.970 . S
Li1235 N1285 1.990 . S
Li1235 O1293 1.961 . S
Li1235 O1294 1.970 . S
Li1235 O1295 1.956 . S
C1236 C1238 1.348 . S
C1236 C1239 1.356 . S
C1236 O1292 1.325 . S
N1237 C1240 1.314 . S
N1237 C1241 1.279 . S
C1238 C1236 1.348 . S
C1238 C1240 1.353 . S
C1238 H1296 0.929 . S
C1239 C1236 1.356 . S
C1239 C1241 1.358 . S
C1239 H1297 0.930 . S
C1240 N1237 1.314 . S
C1240 C1238 1.353 . S
C1240 H1298 0.930 . S
C1241 N1237 1.279 . S
C1241 C1239 1.358 . S
C1241 H1299 0.930 . S
C1242 C1245 1.348 . S
C1242 C1246 1.356 . S
C1242 O1293 1.325 . S
C1243 N1244 1.279 . S
C1243 C1246 1.358 . S
C1243 H1300 0.930 . S
N1244 C1243 1.279 . S
N1244 C1247 1.314 . S
C1245 C1242 1.348 . S
C1245 C1247 1.353 . S
C1245 H1301 0.929 . S
C1246 C1242 1.356 . S
C1246 C1243 1.358 . S
C1246 H1302 0.930 . S
C1247 N1244 1.314 . S
C1247 C1245 1.353 . S
C1247 H1303 0.930 . S
C1248 N1249 1.314 . S
C1248 C1253 1.353 . S
C1248 H1254 0.930 . S
N1249 Li1232 1.990 . S
N1249 C1248 1.314 . S
N1249 C1251 1.279 . S
C1250 C1251 1.358 . S
C1250 C1252 1.356 . S
C1250 H1304 0.930 . S
C1251 N1249 1.279 . S
C1251 C1250 1.358 . S
C1251 H1255 0.930 . S
C1252 C1250 1.356 . S
C1252 C1253 1.348 . S
C1253 C1248 1.353 . S
C1253 C1252 1.348 . S
C1253 H1305 0.929 . S
H1254 C1248 0.930 . S
H1255 C1251 0.930 . S
C1256 N1257 1.314 . S
C1256 C1258 1.353 . S
C1256 H1262 0.930 . S
N1257 Li1233 1.990 . S
N1257 C1256 1.314 . S
N1257 C1260 1.279 . S
C1258 C1256 1.353 . S
C1258 C1261 1.348 . S
C1258 H1306 0.929 . S
C1259 C1260 1.358 . S
C1259 C1261 1.356 . S
C1259 H1307 0.930 . S
C1260 N1257 1.279 . S
C1260 C1259 1.358 . S
C1260 H1263 0.930 . S
C1261 C1258 1.348 . S
C1261 C1259 1.356 . S
H1262 C1256 0.930 . S
H1263 C1260 0.930 . S
C1264 C1266 1.348 . S
C1264 C1267 1.356 . S
C1264 O1294 1.325 . S
N1265 C1268 1.314 . S
N1265 C1269 1.279 . S
C1266 C1264 1.348 . S
C1266 C1268 1.353 . S
C1266 H1308 0.929 . S
C1267 C1264 1.356 . S
C1267 C1269 1.358 . S
C1267 H1309 0.930 . S
C1268 N1265 1.314 . S
C1268 C1266 1.353 . S
C1268 H1310 0.930 . S
C1269 N1265 1.279 . S
C1269 C1267 1.358 . S
C1269 H1311 0.930 . S
C1270 C1271 1.348 . S
C1270 C1272 1.356 . S
C1270 O1295 1.325 . S
C1271 C1270 1.348 . S
C1271 C1273 1.353 . S
C1271 H1312 0.929 . S
C1272 C1270 1.356 . S
C1272 C1274 1.358 . S
C1272 H1313 0.930 . S
C1273 C1271 1.353 . S
C1273 N1275 1.314 . S
C1273 H1314 0.930 . S
C1274 C1272 1.358 . S
C1274 N1275 1.279 . S
C1274 H1315 0.930 . S
N1275 C1273 1.314 . S
N1275 C1274 1.279 . S
C1276 C1278 1.353 . S
C1276 N1279 1.314 . S
C1276 H1282 0.930 . S
C1277 N1279 1.279 . S
C1277 C1280 1.358 . S
C1277 H1283 0.930 . S
C1278 C1276 1.353 . S
C1278 C1281 1.348 . S
C1278 H1316 0.929 . S
N1279 Li1234 1.990 . S
N1279 C1276 1.314 . S
N1279 C1277 1.279 . S
C1280 C1277 1.358 . S
C1280 C1281 1.356 . S
C1280 H1317 0.930 . S
C1281 C1278 1.348 . S
C1281 C1280 1.356 . S
H1282 C1276 0.930 . S
H1283 C1277 0.930 . S
C1284 N1285 1.314 . S
C1284 C1286 1.353 . S
C1284 H1290 0.930 . S
N1285 Li1235 1.990 . S
N1285 C1284 1.314 . S
N1285 C1288 1.279 . S
C1286 C1284 1.353 . S
C1286 C1289 1.348 . S
C1286 H1318 0.929 . S
C1287 C1288 1.358 . S
C1287 C1289 1.356 . S
C1287 H1319 0.930 . S
C1288 N1285 1.279 . S
C1288 C1287 1.358 . S
C1288 H1291 0.930 . S
C1289 C1286 1.348 . S
C1289 C1287 1.356 . S
H1290 C1284 0.930 . S
H1291 C1288 0.930 . S
O1292 Li1232 1.956 . S
O1292 Li1233 1.970 . S
O1292 Li1234 1.961 . S
O1292 C1236 1.325 . S
O1293 Li1232 1.970 . S
O1293 Li1233 1.956 . S
O1293 Li1235 1.961 . S
O1293 C1242 1.325 . S
O1294 Li1232 1.961 . S
O1294 Li1234 1.956 . S
O1294 Li1235 1.970 . S
O1294 C1264 1.325 . S
O1295 Li1233 1.961 . S
O1295 Li1234 1.970 . S
O1295 Li1235 1.956 . S
O1295 C1270 1.325 . S
H1296 C1238 0.929 . S
H1297 C1239 0.930 . S
H1298 C1240 0.930 . S
H1299 C1241 0.930 . S
H1300 C1243 0.930 . S
H1301 C1245 0.929 . S
H1302 C1246 0.930 . S
H1303 C1247 0.930 . S
H1304 C1250 0.930 . S
H1305 C1253 0.929 . S
H1306 C1258 0.929 . S
H1307 C1259 0.930 . S
H1308 C1266 0.929 . S
H1309 C1267 0.930 . S
H1310 C1268 0.930 . S
H1311 C1269 0.930 . S
H1312 C1271 0.929 . S
H1313 C1272 0.930 . S
H1314 C1273 0.930 . S
H1315 C1274 0.930 . S
H1316 C1278 0.929 . S
H1317 C1280 0.930 . S
H1318 C1286 0.929 . S
H1319 C1287 0.930 . S
Li1320 N1337 1.990 . S
Li1320 O1380 1.956 . S
Li1320 O1381 1.970 1_545 S
Li1320 O1382 1.961 . S
Li1321 N1345 1.990 . S
Li1321 O1380 1.970 1_565 S
Li1321 O1381 1.956 . S
Li1321 O1383 1.961 . S
Li1322 N1367 1.990 . S
Li1322 O1380 1.961 . S
Li1322 O1382 1.956 . S
Li1322 O1383 1.970 1_545 S
Li1323 N1373 1.990 . S
Li1323 O1381 1.961 . S
Li1323 O1382 1.970 1_565 S
Li1323 O1383 1.956 . S
C1324 C1326 1.348 . S
C1324 C1327 1.356 . S
C1324 O1380 1.325 . S
N1325 C1328 1.314 . S
N1325 C1329 1.279 . S
C1326 C1324 1.348 . S
C1326 C1328 1.353 . S
C1326 H1384 0.908 1_545 S
C1327 C1324 1.356 . S
C1327 C1329 1.358 . S
C1327 H1385 0.930 . S
C1328 N1325 1.314 . S
C1328 C1326 1.353 . S
C1328 H1386 0.930 . S
C1329 N1325 1.279 . S
C1329 C1327 1.358 . S
C1329 H1387 0.930 . S
C1330 C1333 1.348 . S
C1330 C1334 1.356 . S
C1330 O1381 1.325 . S
C1331 N1332 1.279 . S
C1331 C1334 1.358 . S
C1331 H1388 0.930 . S
N1332 C1331 1.279 . S
N1332 C1335 1.314 . S
C1333 C1330 1.348 . S
C1333 C1335 1.353 . S
C1333 H1389 0.929 . S
C1334 C1330 1.356 . S
C1334 C1331 1.358 . S
C1334 H1390 0.930 . S
C1335 N1332 1.314 . S
C1335 C1333 1.353 . S
C1335 H1391 0.930 . S
C1336 N1337 1.314 . S
C1336 C1341 1.353 . S
C1336 H1342 0.930 . S
N1337 Li1320 1.990 . S
N1337 C1336 1.314 . S
N1337 C1339 1.279 . S
C1338 C1339 1.358 . S
C1338 C1340 1.356 . S
C1338 H1392 0.930 . S
C1339 N1337 1.279 . S
C1339 C1338 1.358 . S
C1339 H1343 0.930 . S
C1340 C1338 1.356 . S
C1340 C1341 1.348 . S
C1341 C1336 1.353 . S
C1341 C1340 1.348 . S
C1341 H1393 0.929 . S
H1342 C1336 0.930 . S
H1343 C1339 0.930 . S
C1344 N1345 1.314 . S
C1344 C1346 1.353 . S
C1344 H1350 0.930 . S
N1345 Li1321 1.990 . S
N1345 C1344 1.314 . S
N1345 C1348 1.279 . S
C1346 C1344 1.353 . S
C1346 C1349 1.348 . S
C1346 H1394 0.929 . S
C1347 C1348 1.358 . S
C1347 C1349 1.356 . S
C1347 H1395 0.930 . S
C1348 N1345 1.279 . S
C1348 C1347 1.358 . S
C1348 H1351 0.930 . S
C1349 C1346 1.348 . S
C1349 C1347 1.356 . S
H1350 C1344 0.930 . S
H1351 C1348 0.930 . S
C1352 C1354 1.348 . S
C1352 C1355 1.356 . S
C1352 O1382 1.325 . S
N1353 C1356 1.314 . S
N1353 C1357 1.279 . S
C1354 C1352 1.348 . S
C1354 C1356 1.353 . S
C1354 H1396 0.929 1_545 S
C1355 C1352 1.356 . S
C1355 C1357 1.358 . S
C1355 H1397 0.930 . S
C1356 N1353 1.314 . S
C1356 C1354 1.353 . S
C1356 H1398 0.930 . S
C1357 N1353 1.279 . S
C1357 C1355 1.358 . S
C1357 H1399 0.930 . S
C1358 C1359 1.348 . S
C1358 C1360 1.356 . S
C1358 O1383 1.325 . S
C1359 C1358 1.348 . S
C1359 C1361 1.353 . S
C1359 H1400 0.929 . S
C1360 C1358 1.356 . S
C1360 C1362 1.358 . S
C1360 H1401 0.930 . S
C1361 C1359 1.353 . S
C1361 N1363 1.314 . S
C1361 H1402 0.930 . S
C1362 C1360 1.358 . S
C1362 N1363 1.279 . S
C1362 H1403 0.930 . S
N1363 C1361 1.314 . S
N1363 C1362 1.279 . S
C1364 C1366 1.353 . S
C1364 N1367 1.314 . S
C1364 H1370 0.930 . S
C1365 N1367 1.279 . S
C1365 C1368 1.358 . S
C1365 H1371 0.930 . S
C1366 C1364 1.353 . S
C1366 C1369 1.348 . S
C1366 H1404 0.929 . S
N1367 Li1322 1.990 . S
N1367 C1364 1.314 . S
N1367 C1365 1.279 . S
C1368 C1365 1.358 . S
C1368 C1369 1.356 . S
C1368 H1405 0.930 . S
C1369 C1366 1.348 . S
C1369 C1368 1.356 . S
H1370 C1364 0.930 . S
H1371 C1365 0.930 . S
C1372 N1373 1.314 . S
C1372 C1374 1.353 . S
C1372 H1378 0.930 . S
N1373 Li1323 1.990 . S
N1373 C1372 1.314 . S
N1373 C1376 1.279 . S
C1374 C1372 1.353 . S
C1374 C1377 1.348 . S
C1374 H1406 0.929 . S
C1375 C1376 1.358 . S
C1375 C1377 1.356 . S
C1375 H1407 0.930 . S
C1376 N1373 1.279 . S
C1376 C1375 1.358 . S
C1376 H1379 0.930 . S
C1377 C1374 1.348 . S
C1377 C1375 1.356 . S
H1378 C1372 0.930 . S
H1379 C1376 0.930 . S
O1380 Li1320 1.956 . S
O1380 Li1321 1.970 1_545 S
O1380 Li1322 1.961 . S
O1380 C1324 1.325 . S
O1381 Li1320 1.970 1_565 S
O1381 Li1321 1.956 . S
O1381 Li1323 1.961 . S
O1381 C1330 1.325 . S
O1382 Li1320 1.961 . S
O1382 Li1322 1.956 . S
O1382 Li1323 1.970 1_545 S
O1382 C1352 1.325 . S
O1383 Li1321 1.961 . S
O1383 Li1322 1.970 1_565 S
O1383 Li1323 1.956 . S
O1383 C1358 1.325 . S
H1384 C1326 0.908 1_565 S
H1385 C1327 0.930 . S
H1386 C1328 0.930 . S
H1387 C1329 0.930 . S
H1388 C1331 0.930 . S
H1389 C1333 0.929 . S
H1390 C1334 0.930 . S
H1391 C1335 0.930 . S
H1392 C1338 0.930 . S
H1393 C1341 0.929 . S
H1394 C1346 0.929 . S
H1395 C1347 0.930 . S
H1396 C1354 0.929 1_565 S
H1397 C1355 0.930 . S
H1398 C1356 0.930 . S
H1399 C1357 0.930 . S
H1400 C1359 0.929 . S
H1401 C1360 0.930 . S
H1402 C1361 0.930 . S
H1403 C1362 0.930 . S
H1404 C1366 0.929 . S
H1405 C1368 0.930 . S
H1406 C1374 0.929 . S
H1407 C1375 0.930 . S
Li1408 N1425 1.990 . S
Li1408 O1468 1.956 . S
Li1408 O1469 1.970 . S
Li1408 O1470 1.961 . S
Li1409 N1433 1.990 . S
Li1409 O1468 1.970 . S
Li1409 O1469 1.956 . S
Li1409 O1471 1.961 . S
Li1410 N1455 1.990 . S
Li1410 O1468 1.961 . S
Li1410 O1470 1.956 . S
Li1410 O1471 1.970 . S
Li1411 N1461 1.990 . S
Li1411 O1469 1.961 . S
Li1411 O1470 1.970 . S
Li1411 O1471 1.956 . S
C1412 C1414 1.348 . S
C1412 C1415 1.356 . S
C1412 O1468 1.325 . S
N1413 C1416 1.314 . S
N1413 C1417 1.279 . S
C1414 C1412 1.348 . S
C1414 C1416 1.353 . S
C1414 H1472 0.929 . S
C1415 C1412 1.356 . S
C1415 C1417 1.358 . S
C1415 H1473 0.930 . S
C1416 N1413 1.314 . S
C1416 C1414 1.353 . S
C1416 H1474 0.930 1_545 S
C1417 N1413 1.279 . S
C1417 C1415 1.358 . S
C1417 H1475 0.930 . S
C1418 C1421 1.348 . S
C1418 C1422 1.356 . S
C1418 O1469 1.325 . S
C1419 N1420 1.279 . S
C1419 C1422 1.358 . S
C1419 H1476 0.930 . S
N1420 C1419 1.279 . S
N1420 C1423 1.314 . S
C1421 C1418 1.348 . S
C1421 C1423 1.353 . S
C1421 H1477 0.929 . S
C1422 C1418 1.356 . S
C1422 C1419 1.358 . S
C1422 H1478 0.930 . S
C1423 N1420 1.314 . S
C1423 C1421 1.353 . S
C1423 H1479 0.930 . S
C1424 N1425 1.314 . S
C1424 C1429 1.353 . S
C1424 H1430 0.930 . S
N1425 Li1408 1.990 . S
N1425 C1424 1.314 . S
N1425 C1427 1.279 . S
C1426 C1427 1.358 . S
C1426 C1428 1.356 . S
C1426 H1480 0.930 . S
C1427 N1425 1.279 . S
C1427 C1426 1.358 . S
C1427 H1431 0.930 . S
C1428 C1426 1.356 . S
C1428 C1429 1.348 . S
C1429 C1424 1.353 . S
C1429 C1428 1.348 . S
C1429 H1481 0.929 . S
H1430 C1424 0.930 . S
H1431 C1427 0.930 . S
C1432 N1433 1.314 . S
C1432 C1434 1.353 1_545 S
C1432 H1438 0.930 . S
N1433 Li1409 1.990 . S
N1433 C1432 1.314 . S
N1433 C1436 1.279 . S
C1434 C1432 1.353 1_565 S
C1434 C1437 1.348 . S
C1434 H1482 0.929 . S
C1435 C1436 1.358 . S
C1435 C1437 1.356 1_545 S
C1435 H1483 0.929 1_545 S
C1436 N1433 1.279 . S
C1436 C1435 1.358 . S
C1436 H1439 0.930 . S
C1437 C1434 1.348 . S
C1437 C1435 1.356 1_565 S
H1438 C1432 0.930 . S
H1439 C1436 0.930 . S
C1440 C1442 1.348 . S
C1440 C1443 1.356 . S
C1440 O1470 1.325 . S
N1441 C1444 1.314 . S
N1441 C1445 1.279 . S
C1442 C1440 1.348 . S
C1442 C1444 1.353 . S
C1442 H1484 0.929 . S
C1443 C1440 1.356 . S
C1443 C1445 1.358 . S
C1443 H1485 0.930 . S
C1444 N1441 1.314 . S
C1444 C1442 1.353 . S
C1444 H1486 0.930 . S
C1445 N1441 1.279 . S
C1445 C1443 1.358 . S
C1445 H1487 0.960 . S
C1446 C1447 1.348 . S
C1446 C1448 1.356 . S
C1446 O1471 1.325 . S
C1447 C1446 1.348 . S
C1447 C1449 1.353 . S
C1447 H1488 0.929 . S
C1448 C1446 1.356 . S
C1448 C1450 1.358 . S
C1448 H1489 0.930 . S
C1449 C1447 1.353 . S
C1449 N1451 1.314 . S
C1449 H1490 0.930 . S
C1450 C1448 1.358 . S
C1450 N1451 1.279 . S
C1450 H1491 0.930 . S
N1451 C1449 1.314 . S
N1451 C1450 1.279 . S
C1452 C1454 1.353 . S
C1452 N1455 1.314 . S
C1452 H1458 0.930 . S
C1453 N1455 1.279 . S
C1453 C1456 1.358 . S
C1453 H1459 0.930 . S
C1454 C1452 1.353 . S
C1454 C1457 1.348 . S
C1454 H1492 0.929 . S
N1455 Li1410 1.990 . S
N1455 C1452 1.314 . S
N1455 C1453 1.279 . S
C1456 C1453 1.358 . S
C1456 C1457 1.356 . S
C1456 H1493 0.930 . S
C1457 C1454 1.348 . S
C1457 C1456 1.356 . S
H1458 C1452 0.930 . S
H1459 C1453 0.930 . S
C1460 N1461 1.314 . S
C1460 C1462 1.353 . S
C1460 H1466 0.930 . S
N1461 Li1411 1.990 . S
N1461 C1460 1.314 . S
N1461 C1464 1.279 . S
C1462 C1460 1.353 . S
C1462 C1465 1.348 . S
C1462 H1494 0.929 . S
C1463 C1464 1.358 . S
C1463 C1465 1.356 . S
C1463 H1495 0.930 . S
C1464 N1461 1.279 . S
C1464 C1463 1.358 . S
C1464 H1467 0.930 . S
C1465 C1462 1.348 . S
C1465 C1463 1.356 . S
H1466 C1460 0.930 . S
H1467 C1464 0.930 . S
O1468 Li1408 1.956 . S
O1468 Li1409 1.970 . S
O1468 Li1410 1.961 . S
O1468 C1412 1.325 . S
O1469 Li1408 1.970 . S
O1469 Li1409 1.956 . S
O1469 Li1411 1.961 . S
O1469 C1418 1.325 . S
O1470 Li1408 1.961 . S
O1470 Li1410 1.956 . S
O1470 Li1411 1.970 . S
O1470 C1440 1.325 . S
O1471 Li1409 1.961 . S
O1471 Li1410 1.970 . S
O1471 Li1411 1.956 . S
O1471 C1446 1.325 . S
H1472 C1414 0.929 . S
H1473 C1415 0.930 . S
H1474 C1416 0.930 1_565 S
H1475 C1417 0.930 . S
H1476 C1419 0.930 . S
H1477 C1421 0.929 . S
H1478 C1422 0.930 . S
H1479 C1423 0.930 . S
H1480 C1426 0.930 . S
H1481 C1429 0.929 . S
H1482 C1434 0.929 . S
H1483 C1435 0.929 1_565 S
H1484 C1442 0.929 . S
H1485 C1443 0.930 . S
H1486 C1444 0.930 . S
H1487 C1445 0.960 . S
H1488 C1447 0.929 . S
H1489 C1448 0.930 . S
H1490 C1449 0.930 . S
H1491 C1450 0.930 . S
H1492 C1454 0.929 . S
H1493 C1456 0.930 . S
H1494 C1462 0.929 . S
H1495 C1463 0.930 . S
Li1496 N1513 1.990 . S
Li1496 O1556 1.956 . S
Li1496 O1557 1.970 . S
Li1496 O1558 1.961 . S
Li1497 N1521 1.990 . S
Li1497 O1556 1.970 . S
Li1497 O1557 1.956 . S
Li1497 O1559 1.961 . S
Li1498 N1543 1.990 . S
Li1498 O1556 1.961 . S
Li1498 O1558 1.956 . S
Li1498 O1559 1.970 . S
Li1499 N1549 1.990 . S
Li1499 O1557 1.961 . S
Li1499 O1558 1.970 . S
Li1499 O1559 1.956 . S
C1500 C1502 1.348 . S
C1500 C1503 1.356 . S
C1500 O1556 1.325 . S
N1501 C1504 1.314 . S
N1501 C1505 1.279 . S
C1502 C1500 1.348 . S
C1502 C1504 1.353 . S
C1502 H1560 0.929 . S
C1503 C1500 1.356 . S
C1503 C1505 1.358 . S
C1503 H1561 0.930 . S
C1504 N1501 1.314 . S
C1504 C1502 1.353 . S
C1504 H1562 0.930 . S
C1505 N1501 1.279 . S
C1505 C1503 1.358 . S
C1505 H1563 0.930 . S
C1506 C1509 1.348 . S
C1506 C1510 1.356 . S
C1506 O1557 1.325 . S
C1507 N1508 1.279 . S
C1507 C1510 1.358 . S
C1507 H1564 0.930 . S
N1508 C1507 1.279 . S
N1508 C1511 1.314 . S
C1509 C1506 1.348 . S
C1509 C1511 1.353 . S
C1509 H1565 0.929 . S
C1510 C1506 1.356 . S
C1510 C1507 1.358 . S
C1510 H1566 0.930 . S
C1511 N1508 1.314 . S
C1511 C1509 1.353 . S
C1511 H1567 0.930 . S
C1512 N1513 1.314 . S
C1512 C1517 1.353 . S
C1512 H1518 0.930 . S
N1513 Li1496 1.990 . S
N1513 C1512 1.314 . S
N1513 C1515 1.279 . S
C1514 C1515 1.358 . S
C1514 C1516 1.356 . S
C1514 H1568 0.930 . S
C1515 N1513 1.279 . S
C1515 C1514 1.358 . S
C1515 H1519 0.930 . S
C1516 C1514 1.356 . S
C1516 C1517 1.348 . S
C1517 C1512 1.353 . S
C1517 C1516 1.348 . S
C1517 H1569 0.929 . S
H1518 C1512 0.930 . S
H1519 C1515 0.930 . S
C1520 N1521 1.314 . S
C1520 C1522 1.353 . S
C1520 H1526 0.930 . S
N1521 Li1497 1.990 . S
N1521 C1520 1.314 . S
N1521 C1524 1.279 . S
C1522 C1520 1.353 . S
C1522 C1525 1.348 . S
C1522 H1570 0.929 . S
C1523 C1524 1.358 . S
C1523 C1525 1.356 . S
C1523 H1571 0.930 . S
C1524 N1521 1.279 . S
C1524 C1523 1.358 . S
C1524 H1527 0.930 . S
C1525 C1522 1.348 . S
C1525 C1523 1.356 . S
H1526 C1520 0.930 . S
H1527 C1524 0.930 . S
C1528 C1530 1.348 . S
C1528 C1531 1.356 . S
C1528 O1558 1.325 . S
N1529 C1532 1.314 . S
N1529 C1533 1.279 . S
C1530 C1528 1.348 . S
C1530 C1532 1.353 . S
C1530 H1572 0.929 . S
C1531 C1528 1.356 . S
C1531 C1533 1.358 . S
C1531 H1573 0.930 . S
C1532 N1529 1.314 . S
C1532 C1530 1.353 . S
C1532 H1574 0.930 . S
C1533 N1529 1.279 . S
C1533 C1531 1.358 . S
C1533 H1575 0.930 . S
C1534 C1535 1.348 . S
C1534 C1536 1.356 . S
C1534 O1559 1.325 . S
C1535 C1534 1.348 . S
C1535 C1537 1.353 . S
C1535 H1576 0.929 . S
C1536 C1534 1.356 . S
C1536 C1538 1.358 . S
C1536 H1577 0.930 . S
C1537 C1535 1.353 . S
C1537 N1539 1.314 . S
C1537 H1578 0.930 . S
C1538 C1536 1.358 . S
C1538 N1539 1.279 . S
C1538 H1579 0.930 . S
N1539 C1537 1.314 . S
N1539 C1538 1.279 . S
C1540 C1542 1.353 . S
C1540 N1543 1.314 . S
C1540 H1546 0.930 . S
C1541 N1543 1.279 . S
C1541 C1544 1.358 . S
C1541 H1547 0.930 . S
C1542 C1540 1.353 . S
C1542 C1545 1.348 . S
C1542 H1580 0.929 . S
N1543 Li1498 1.990 . S
N1543 C1540 1.314 . S
N1543 C1541 1.279 . S
C1544 C1541 1.358 . S
C1544 C1545 1.356 . S
C1544 H1581 0.930 . S
C1545 C1542 1.348 . S
C1545 C1544 1.356 . S
H1546 C1540 0.930 . S
H1547 C1541 0.930 . S
C1548 N1549 1.314 . S
C1548 C1550 1.353 . S
C1548 H1554 0.930 . S
N1549 Li1499 1.990 . S
N1549 C1548 1.314 . S
N1549 C1552 1.279 . S
C1550 C1548 1.353 . S
C1550 C1553 1.348 . S
C1550 H1582 0.929 . S
C1551 C1552 1.358 . S
C1551 C1553 1.356 . S
C1551 H1583 0.930 . S
C1552 N1549 1.279 . S
C1552 C1551 1.358 . S
C1552 H1555 0.930 . S
C1553 C1550 1.348 . S
C1553 C1551 1.356 . S
H1554 C1548 0.930 . S
H1555 C1552 0.930 . S
O1556 Li1496 1.956 . S
O1556 Li1497 1.970 . S
O1556 Li1498 1.961 . S
O1556 C1500 1.325 . S
O1557 Li1496 1.970 . S
O1557 Li1497 1.956 . S
O1557 Li1499 1.961 . S
O1557 C1506 1.325 . S
O1558 Li1496 1.961 . S
O1558 Li1498 1.956 . S
O1558 Li1499 1.970 . S
O1558 C1528 1.325 . S
O1559 Li1497 1.961 . S
O1559 Li1498 1.970 . S
O1559 Li1499 1.956 . S
O1559 C1534 1.325 . S
H1560 C1502 0.929 . S
H1561 C1503 0.930 . S
H1562 C1504 0.930 . S
H1563 C1505 0.930 . S
H1564 C1507 0.930 . S
H1565 C1509 0.929 . S
H1566 C1510 0.930 . S
H1567 C1511 0.930 . S
H1568 C1514 0.930 . S
H1569 C1517 0.929 . S
H1570 C1522 0.929 . S
H1571 C1523 0.930 . S
H1572 C1530 0.929 . S
H1573 C1531 0.930 . S
H1574 C1532 0.930 . S
H1575 C1533 0.930 . S
H1576 C1535 0.929 . S
H1577 C1536 0.930 . S
H1578 C1537 0.930 . S
H1579 C1538 0.930 . S
H1580 C1542 0.929 . S
H1581 C1544 0.930 . S
H1582 C1550 0.929 . S
H1583 C1551 0.930 . S
Li1584 N1601 1.990 . S
Li1584 O1644 1.956 . S
Li1584 O1645 1.970 . S
Li1584 O1646 1.961 . S
Li1585 N1609 1.990 . S
Li1585 O1644 1.970 . S
Li1585 O1645 1.956 . S
Li1585 O1647 1.961 . S
Li1586 N1631 1.990 . S
Li1586 O1644 1.961 . S
Li1586 O1646 1.956 . S
Li1586 O1647 1.970 . S
Li1587 N1637 1.990 . S
Li1587 O1645 1.961 . S
Li1587 O1646 1.970 . S
Li1587 O1647 1.956 . S
C1588 C1590 1.348 . S
C1588 C1591 1.356 . S
C1588 O1644 1.325 . S
N1589 C1592 1.314 . S
N1589 C1593 1.279 . S
C1590 C1588 1.348 . S
C1590 C1592 1.353 . S
C1590 H1648 0.929 . S
C1591 C1588 1.356 . S
C1591 C1593 1.358 . S
C1591 H1649 0.930 . S
C1592 N1589 1.314 . S
C1592 C1590 1.353 . S
C1592 H1650 0.930 . S
C1593 N1589 1.279 . S
C1593 C1591 1.358 . S
C1593 H1651 0.930 . S
C1594 C1597 1.348 . S
C1594 C1598 1.356 . S
C1594 O1645 1.325 . S
C1595 N1596 1.279 . S
C1595 C1598 1.358 . S
C1595 H1652 0.930 . S
N1596 C1595 1.279 . S
N1596 C1599 1.314 . S
C1597 C1594 1.348 . S
C1597 C1599 1.353 . S
C1597 H1653 0.929 . S
C1598 C1594 1.356 . S
C1598 C1595 1.358 . S
C1598 H1654 0.930 . S
C1599 N1596 1.314 . S
C1599 C1597 1.353 . S
C1599 H1655 0.930 . S
C1600 N1601 1.314 . S
C1600 C1605 1.353 . S
C1600 H1606 0.930 . S
N1601 Li1584 1.990 . S
N1601 C1600 1.314 . S
N1601 C1603 1.279 . S
C1602 C1603 1.358 . S
C1602 C1604 1.356 . S
C1602 H1656 0.930 . S
C1603 N1601 1.279 . S
C1603 C1602 1.358 . S
C1603 H1607 0.930 . S
C1604 C1602 1.356 . S
C1604 C1605 1.348 . S
C1605 C1600 1.353 . S
C1605 C1604 1.348 . S
C1605 H1657 0.929 . S
H1606 C1600 0.930 . S
H1607 C1603 0.930 . S
C1608 N1609 1.314 . S
C1608 C1610 1.353 . S
C1608 H1614 0.930 . S
N1609 Li1585 1.990 . S
N1609 C1608 1.314 . S
N1609 C1612 1.279 . S
C1610 C1608 1.353 . S
C1610 C1613 1.348 . S
C1610 H1658 0.929 . S
C1611 C1612 1.358 . S
C1611 C1613 1.356 . S
C1611 H1659 0.930 . S
C1612 N1609 1.279 . S
C1612 C1611 1.358 . S
C1612 H1615 0.930 . S
C1613 C1610 1.348 . S
C1613 C1611 1.356 . S
H1614 C1608 0.930 . S
H1615 C1612 0.930 . S
C1616 C1618 1.348 . S
C1616 C1619 1.356 . S
C1616 O1646 1.325 . S
N1617 C1620 1.314 . S
N1617 C1621 1.279 . S
C1618 C1616 1.348 . S
C1618 C1620 1.353 . S
C1618 H1660 0.929 . S
C1619 C1616 1.356 . S
C1619 C1621 1.358 . S
C1619 H1661 0.930 . S
C1620 N1617 1.314 . S
C1620 C1618 1.353 . S
C1620 H1662 0.930 . S
C1621 N1617 1.279 . S
C1621 C1619 1.358 . S
C1621 H1663 0.930 . S
C1622 C1623 1.348 . S
C1622 C1624 1.356 . S
C1622 O1647 1.325 . S
C1623 C1622 1.348 . S
C1623 C1625 1.353 . S
C1623 H1664 0.929 . S
C1624 C1622 1.356 . S
C1624 C1626 1.358 . S
C1624 H1665 0.930 . S
C1625 C1623 1.353 . S
C1625 N1627 1.314 . S
C1625 H1666 0.930 . S
C1626 C1624 1.358 . S
C1626 N1627 1.279 . S
C1626 H1667 0.930 . S
N1627 C1625 1.314 . S
N1627 C1626 1.279 . S
C1628 C1630 1.353 . S
C1628 N1631 1.314 . S
C1628 H1634 0.930 . S
C1629 N1631 1.279 . S
C1629 C1632 1.358 . S
C1629 H1635 0.930 . S
C1630 C1628 1.353 . S
C1630 C1633 1.348 . S
C1630 H1668 0.929 . S
N1631 Li1586 1.990 . S
N1631 C1628 1.314 . S
N1631 C1629 1.279 . S
C1632 C1629 1.358 . S
C1632 C1633 1.356 . S
C1632 H1669 0.930 . S
C1633 C1630 1.348 . S
C1633 C1632 1.356 . S
H1634 C1628 0.930 . S
H1635 C1629 0.930 . S
C1636 N1637 1.314 . S
C1636 C1638 1.353 . S
C1636 H1642 0.930 . S
N1637 Li1587 1.990 . S
N1637 C1636 1.314 . S
N1637 C1640 1.279 . S
C1638 C1636 1.353 . S
C1638 C1641 1.348 . S
C1638 H1670 0.929 . S
C1639 C1640 1.358 . S
C1639 C1641 1.356 . S
C1639 H1671 0.930 . S
C1640 N1637 1.279 . S
C1640 C1639 1.358 . S
C1640 H1643 0.930 . S
C1641 C1638 1.348 . S
C1641 C1639 1.356 . S
H1642 C1636 0.930 . S
H1643 C1640 0.930 . S
O1644 Li1584 1.956 . S
O1644 Li1585 1.970 . S
O1644 Li1586 1.961 . S
O1644 C1588 1.325 . S
O1645 Li1584 1.970 . S
O1645 Li1585 1.956 . S
O1645 Li1587 1.961 . S
O1645 C1594 1.325 . S
O1646 Li1584 1.961 . S
O1646 Li1586 1.956 . S
O1646 Li1587 1.970 . S
O1646 C1616 1.325 . S
O1647 Li1585 1.961 . S
O1647 Li1586 1.970 . S
O1647 Li1587 1.956 . S
O1647 C1622 1.325 . S
H1648 C1590 0.929 . S
H1649 C1591 0.930 . S
H1650 C1592 0.930 . S
H1651 C1593 0.930 . S
H1652 C1595 0.930 . S
H1653 C1597 0.929 . S
H1654 C1598 0.930 . S
H1655 C1599 0.930 . S
H1656 C1602 0.930 . S
H1657 C1605 0.929 . S
H1658 C1610 0.929 . S
H1659 C1611 0.930 . S
H1660 C1618 0.929 . S
H1661 C1619 0.930 . S
H1662 C1620 0.930 . S
H1663 C1621 0.930 . S
H1664 C1623 0.929 . S
H1665 C1624 0.930 . S
H1666 C1625 0.930 . S
H1667 C1626 0.930 . S
H1668 C1630 0.929 . S
H1669 C1632 0.930 . S
H1670 C1638 0.929 . S
H1671 C1639 0.930 . S
Li1672 N1689 1.990 . S
Li1672 O1732 1.990 . S
Li1672 O1733 1.965 . S
Li1672 O1734 1.931 1_545 S
Li1673 N1697 1.990 . S
Li1673 O1732 1.970 . S
Li1673 O1733 1.956 . S
Li1673 O1735 1.961 . S
Li1674 N1719 1.990 . S
Li1674 O1732 1.961 1_565 S
Li1674 O1734 1.956 . S
Li1674 O1735 1.970 1_565 S
Li1675 N1725 1.990 . S
Li1675 O1733 1.961 1_565 S
Li1675 O1734 1.970 . S
Li1675 O1735 1.956 1_565 S
C1676 C1678 1.348 . S
C1676 C1679 1.356 . S
C1676 O1732 1.325 . S
N1677 C1680 1.314 . S
N1677 C1681 1.279 . S
C1678 C1676 1.348 . S
C1678 C1680 1.353 . S
C1678 H1736 0.929 . S
C1679 C1676 1.356 . S
C1679 C1681 1.358 . S
C1679 H1737 0.930 . S
C1680 N1677 1.314 . S
C1680 C1678 1.353 . S
C1680 H1738 0.930 . S
C1681 N1677 1.279 . S
C1681 C1679 1.358 . S
C1681 H1739 0.930 . S
C1682 C1685 1.348 . S
C1682 C1686 1.356 . S
C1682 O1733 1.325 . S
C1683 N1684 1.279 . S
C1683 C1686 1.358 . S
C1683 H1740 0.930 . S
N1684 C1683 1.279 . S
N1684 C1687 1.314 . S
C1685 C1682 1.348 . S
C1685 C1687 1.353 . S
C1685 H1741 0.929 . S
C1686 C1682 1.356 . S
C1686 C1683 1.358 . S
C1686 H1742 0.930 . S
C1687 N1684 1.314 . S
C1687 C1685 1.353 . S
C1687 H1743 0.930 . S
C1688 N1689 1.278 1_565 S
C1688 C1693 1.353 . S
C1688 H1694 0.930 . S
N1689 Li1672 1.990 . S
N1689 C1688 1.278 1_545 S
N1689 C1691 1.314 . S
C1690 C1691 1.358 . S
C1690 C1692 1.360 . S
C1690 H1744 0.930 . S
C1691 N1689 1.314 . S
C1691 C1690 1.358 . S
C1691 H1695 0.930 . S
C1692 C1690 1.360 . S
C1692 C1693 1.344 1_545 S
C1693 C1688 1.353 . S
C1693 C1692 1.344 1_565 S
C1693 H1745 0.929 . S
H1694 C1688 0.930 . S
H1695 C1691 0.930 . S
C1696 N1697 1.314 . S
C1696 C1698 1.353 . S
C1696 H1702 0.930 . S
N1697 Li1673 1.990 . S
N1697 C1696 1.314 . S
N1697 C1700 1.279 . S
C1698 C1696 1.353 . S
C1698 C1701 1.348 . S
C1698 H1746 0.929 . S
C1699 C1700 1.358 . S
C1699 C1701 1.356 . S
C1699 H1747 0.930 . S
C1700 N1697 1.279 . S
C1700 C1699 1.358 . S
C1700 H1703 0.930 . S
C1701 C1698 1.348 . S
C1701 C1699 1.356 . S
H1702 C1696 0.930 . S
H1703 C1700 0.930 . S
C1704 C1706 1.348 . S
C1704 C1707 1.356 . S
C1704 O1734 1.325 . S
N1705 C1708 1.314 . S
N1705 C1709 1.279 . S
C1706 C1704 1.348 . S
C1706 C1708 1.353 . S
C1706 H1748 0.929 . S
C1707 C1704 1.356 . S
C1707 C1709 1.358 . S
C1707 H1749 0.930 . S
C1708 N1705 1.314 . S
C1708 C1706 1.353 . S
C1708 H1750 0.930 . S
C1709 N1705 1.279 . S
C1709 C1707 1.358 . S
C1709 H1751 0.930 . S
C1710 C1711 1.343 1_545 S
C1710 C1712 1.359 . S
C1710 O1735 1.325 . S
C1711 C1710 1.343 1_565 S
C1711 C1713 1.353 . S
C1711 H1752 0.929 . S
C1712 C1710 1.359 . S
C1712 C1714 1.358 . S
C1712 H1753 0.930 . S
C1713 C1711 1.353 . S
C1713 N1715 1.320 . S
C1713 H1754 0.930 . S
C1714 C1712 1.358 . S
C1714 N1715 1.275 1_545 S
C1714 H1755 0.930 . S
N1715 C1713 1.320 . S
N1715 C1714 1.275 1_565 S
C1716 C1718 1.353 . S
C1716 N1719 1.314 1_545 S
C1716 H1722 0.930 . S
C1717 N1719 1.279 . S
C1717 C1720 1.358 . S
C1717 H1723 0.930 . S
C1718 C1716 1.353 . S
C1718 C1721 1.348 1_545 S
C1718 H1756 0.929 . S
N1719 Li1674 1.990 . S
N1719 C1716 1.314 1_565 S
N1719 C1717 1.279 . S
C1720 C1717 1.358 . S
C1720 C1721 1.356 . S
C1720 H1757 0.930 . S
C1721 C1718 1.348 1_565 S
C1721 C1720 1.356 . S
H1722 C1716 0.930 . S
H1723 C1717 0.930 . S
C1724 N1725 1.314 . S
C1724 C1726 1.353 . S
C1724 H1730 0.930 . S
N1725 Li1675 1.990 . S
N1725 C1724 1.314 . S
N1725 C1728 1.279 . S
C1726 C1724 1.353 . S
C1726 C1729 1.348 . S
C1726 H1758 0.929 . S
C1727 C1728 1.358 . S
C1727 C1729 1.356 . S
C1727 H1759 0.930 . S
C1728 N1725 1.279 . S
C1728 C1727 1.358 . S
C1728 H1731 0.930 . S
C1729 C1726 1.348 . S
C1729 C1727 1.356 . S
H1730 C1724 0.930 . S
H1731 C1728 0.930 . S
O1732 Li1672 1.990 . S
O1732 Li1673 1.970 . S
O1732 Li1674 1.961 1_545 S
O1732 C1676 1.325 . S
O1733 Li1672 1.965 . S
O1733 Li1673 1.956 . S
O1733 Li1675 1.961 1_545 S
O1733 C1682 1.325 . S
O1734 Li1672 1.931 1_565 S
O1734 Li1674 1.956 . S
O1734 Li1675 1.970 . S
O1734 C1704 1.325 . S
O1735 Li1673 1.961 . S
O1735 Li1674 1.970 1_545 S
O1735 Li1675 1.956 1_545 S
O1735 C1710 1.325 . S
H1736 C1678 0.929 . S
H1737 C1679 0.930 . S
H1738 C1680 0.930 . S
H1739 C1681 0.930 . S
H1740 C1683 0.930 . S
H1741 C1685 0.929 . S
H1742 C1686 0.930 . S
H1743 C1687 0.930 . S
H1744 C1690 0.930 . S
H1745 C1693 0.929 . S
H1746 C1698 0.929 . S
H1747 C1699 0.930 . S
H1748 C1706 0.929 . S
H1749 C1707 0.930 . S
H1750 C1708 0.930 . S
H1751 C1709 0.930 . S
H1752 C1711 0.929 . S
H1753 C1712 0.930 . S
H1754 C1713 0.930 . S
H1755 C1714 0.930 . S
H1756 C1718 0.929 . S
H1757 C1720 0.930 . S
H1758 C1726 0.929 . S
H1759 C1727 0.930 . S
Li1760 N1777 1.990 . S
Li1760 O1820 1.956 . S
Li1760 O1821 1.970 . S
Li1760 O1822 1.975 . S
Li1761 N1785 1.990 . S
Li1761 O1820 1.966 . S
Li1761 O1821 1.987 . S
Li1761 O1823 1.933 1_554 S
Li1762 N1807 1.990 . S
Li1762 O1820 1.961 1_556 S
Li1762 O1822 1.938 1_556 S
Li1762 O1823 1.970 . S
Li1763 N1813 1.990 . S
Li1763 O1821 1.961 1_556 S
Li1763 O1822 1.971 1_556 S
Li1763 O1823 1.956 . S
C1764 C1766 1.348 . S
C1764 C1767 1.356 . S
C1764 O1820 1.325 . S
N1765 C1768 1.314 . S
N1765 C1769 1.279 . S
C1766 C1764 1.348 . S
C1766 C1768 1.353 . S
C1766 H1824 0.929 . S
C1767 C1764 1.356 . S
C1767 C1769 1.358 . S
C1767 H1825 0.930 . S
C1768 N1765 1.314 . S
C1768 C1766 1.353 . S
C1768 H1826 0.930 . S
C1769 N1765 1.279 . S
C1769 C1767 1.358 . S
C1769 H1827 0.930 . S
C1770 C1773 1.348 . S
C1770 C1774 1.356 . S
C1770 O1821 1.325 . S
C1771 N1772 1.279 . S
C1771 C1774 1.358 . S
C1771 H1828 0.930 . S
N1772 C1771 1.279 . S
N1772 C1775 1.314 . S
C1773 C1770 1.348 . S
C1773 C1775 1.353 . S
C1773 H1829 0.929 . S
C1774 C1770 1.356 . S
C1774 C1771 1.358 . S
C1774 H1830 0.930 . S
C1775 N1772 1.314 . S
C1775 C1773 1.353 . S
C1775 H1831 0.930 . S
C1776 N1777 1.314 . S
C1776 C1781 1.353 . S
C1776 H1782 0.930 . S
N1777 Li1760 1.990 . S
N1777 C1776 1.314 . S
N1777 C1779 1.279 . S
C1778 C1779 1.358 . S
C1778 C1780 1.356 . S
C1778 H1832 0.930 . S
C1779 N1777 1.279 . S
C1779 C1778 1.358 . S
C1779 H1783 0.930 . S
C1780 C1778 1.356 . S
C1780 C1781 1.348 . S
C1781 C1776 1.353 . S
C1781 C1780 1.348 . S
C1781 H1833 0.929 . S
H1782 C1776 0.930 . S
H1783 C1779 0.930 . S
C1784 N1785 1.314 1_556 S
C1784 C1786 1.353 . S
C1784 H1790 0.930 . S
N1785 Li1761 1.990 . S
N1785 C1784 1.314 1_554 S
N1785 C1788 1.279 . S
C1786 C1784 1.353 . S
C1786 C1789 1.318 1_556 S
C1786 H1834 0.929 . S
C1787 C1788 1.358 . S
C1787 C1789 1.387 . S
C1787 H1835 0.930 . S
C1788 N1785 1.279 . S
C1788 C1787 1.358 . S
C1788 H1791 0.930 . S
C1789 C1786 1.318 1_554 S
C1789 C1787 1.387 . S
H1790 C1784 0.930 . S
H1791 C1788 0.930 . S
C1792 C1794 1.348 . S
C1792 C1795 1.356 1_556 S
C1792 O1822 1.325 1_556 S
N1793 C1796 1.314 . S
N1793 C1797 1.279 1_556 S
C1794 C1792 1.348 . S
C1794 C1796 1.353 . S
C1794 H1836 0.929 . S
C1795 C1792 1.356 1_554 S
C1795 C1797 1.358 . S
C1795 H1837 0.930 . S
C1796 N1793 1.314 . S
C1796 C1794 1.353 . S
C1796 H1838 0.930 . S
C1797 N1793 1.279 1_554 S
C1797 C1795 1.358 . S
C1797 H1839 0.930 . S
C1798 C1799 1.348 . S
C1798 C1800 1.356 . S
C1798 O1823 1.325 . S
C1799 C1798 1.348 . S
C1799 C1801 1.353 . S
C1799 H1840 0.929 . S
C1800 C1798 1.356 . S
C1800 C1802 1.358 . S
C1800 H1841 0.930 . S
C1801 C1799 1.353 . S
C1801 N1803 1.314 . S
C1801 H1842 0.930 . S
C1802 C1800 1.358 . S
C1802 N1803 1.279 . S
C1802 H1843 0.930 . S
N1803 C1801 1.314 . S
N1803 C1802 1.279 . S
C1804 C1806 1.353 . S
C1804 N1807 1.314 . S
C1804 H1810 0.930 . S
C1805 N1807 1.279 . S
C1805 C1808 1.358 . S
C1805 H1811 0.930 . S
C1806 C1804 1.353 . S
C1806 C1809 1.348 . S
C1806 H1844 0.929 . S
N1807 Li1762 1.990 . S
N1807 C1804 1.314 . S
N1807 C1805 1.279 . S
C1808 C1805 1.358 . S
C1808 C1809 1.356 . S
C1808 H1845 0.930 . S
C1809 C1806 1.348 . S
C1809 C1808 1.356 . S
H1810 C1804 0.930 . S
H1811 C1805 0.930 . S
C1812 N1813 1.314 1_554 S
C1812 C1814 1.353 . S
C1812 H1818 0.930 . S
N1813 Li1763 1.990 . S
N1813 C1812 1.314 1_556 S
N1813 C1816 1.279 . S
C1814 C1812 1.353 . S
C1814 C1817 1.348 1_554 S
C1814 H1846 0.929 . S
C1815 C1816 1.358 . S
C1815 C1817 1.356 . S
C1815 H1847 0.930 . S
C1816 N1813 1.279 . S
C1816 C1815 1.358 . S
C1816 H1819 0.930 . S
C1817 C1814 1.348 1_556 S
C1817 C1815 1.356 . S
H1818 C1812 0.930 . S
H1819 C1816 0.930 . S
O1820 Li1760 1.956 . S
O1820 Li1761 1.966 . S
O1820 Li1762 1.961 1_554 S
O1820 C1764 1.325 . S
O1821 Li1760 1.970 . S
O1821 Li1761 1.987 . S
O1821 Li1763 1.961 1_554 S
O1821 C1770 1.325 . S
O1822 Li1760 1.975 . S
O1822 Li1762 1.938 1_554 S
O1822 Li1763 1.971 1_554 S
O1822 C1792 1.325 1_554 S
O1823 Li1761 1.933 1_556 S
O1823 Li1762 1.970 . S
O1823 Li1763 1.956 . S
O1823 C1798 1.325 . S
H1824 C1766 0.929 . S
H1825 C1767 0.930 . S
H1826 C1768 0.930 . S
H1827 C1769 0.930 . S
H1828 C1771 0.930 . S
H1829 C1773 0.929 . S
H1830 C1774 0.930 . S
H1831 C1775 0.930 . S
H1832 C1778 0.930 . S
H1833 C1781 0.929 . S
H1834 C1786 0.929 . S
H1835 C1787 0.930 . S
H1836 C1794 0.929 . S
H1837 C1795 0.930 . S
H1838 C1796 0.930 . S
H1839 C1797 0.930 . S
H1840 C1799 0.929 . S
H1841 C1800 0.930 . S
H1842 C1801 0.930 . S
H1843 C1802 0.930 . S
H1844 C1806 0.929 . S
H1845 C1808 0.930 . S
H1846 C1814 0.929 . S
H1847 C1815 0.930 . S
Li1848 N1865 1.990 . S
Li1848 O1908 1.956 . S
Li1848 O1909 1.970 . S
Li1848 O1910 1.961 . S
Li1849 N1873 1.990 . S
Li1849 O1908 1.970 . S
Li1849 O1909 1.956 . S
Li1849 O1911 1.961 . S
Li1850 N1895 1.990 . S
Li1850 O1908 1.961 . S
Li1850 O1910 1.956 . S
Li1850 O1911 1.970 . S
Li1851 N1901 1.990 . S
Li1851 O1909 1.961 . S
Li1851 O1910 1.970 . S
Li1851 O1911 1.956 . S
C1852 C1854 1.348 . S
C1852 C1855 1.356 . S
C1852 O1908 1.325 . S
N1853 C1856 1.314 . S
N1853 C1857 1.279 . S
C1854 C1852 1.348 . S
C1854 C1856 1.353 . S
C1854 H1912 0.929 . S
C1855 C1852 1.356 . S
C1855 C1857 1.358 . S
C1855 H1913 0.930 . S
C1856 N1853 1.314 . S
C1856 C1854 1.353 . S
C1856 H1914 0.930 . S
C1857 N1853 1.279 . S
C1857 C1855 1.358 . S
C1857 H1915 0.930 . S
C1858 C1861 1.348 . S
C1858 C1862 1.356 1_655 S
C1858 O1909 1.325 . S
C1859 N1860 1.279 . S
C1859 C1862 1.358 . S
C1859 H1916 0.930 . S
N1860 C1859 1.279 . S
N1860 C1863 1.314 1_455 S
C1861 C1858 1.348 . S
C1861 C1863 1.353 . S
C1861 H1917 0.929 . S
C1862 C1858 1.356 1_455 S
C1862 C1859 1.358 . S
C1862 H1918 0.930 . S
C1863 N1860 1.314 1_655 S
C1863 C1861 1.353 . S
C1863 H1919 0.930 . S
C1864 N1865 1.314 . S
C1864 C1869 1.353 . S
C1864 H1870 0.930 . S
N1865 Li1848 1.990 . S
N1865 C1864 1.314 . S
N1865 C1867 1.279 . S
C1866 C1867 1.358 . S
C1866 C1868 1.356 . S
C1866 H1920 0.930 . S
C1867 N1865 1.279 . S
C1867 C1866 1.358 . S
C1867 H1871 0.930 . S
C1868 C1866 1.356 . S
C1868 C1869 1.348 . S
C1869 C1864 1.353 . S
C1869 C1868 1.348 . S
C1869 H1921 0.929 . S
H1870 C1864 0.930 . S
H1871 C1867 0.930 . S
C1872 N1873 1.314 . S
C1872 C1874 1.341 1_655 S
C1872 H1878 0.945 . S
N1873 Li1849 1.990 . S
N1873 C1872 1.314 . S
N1873 C1876 1.279 1_655 S
C1874 C1872 1.341 1_455 S
C1874 C1877 1.348 . S
C1874 H1922 0.929 . S
C1875 C1876 1.358 . S
C1875 C1877 1.356 . S
C1875 H1923 0.930 . S
C1876 N1873 1.279 1_455 S
C1876 C1875 1.358 . S
C1876 H1879 0.930 . S
C1877 C1874 1.348 . S
C1877 C1875 1.356 . S
H1878 C1872 0.945 . S
H1879 C1876 0.930 . S
C1880 C1882 1.348 . S
C1880 C1883 1.356 . S
C1880 O1910 1.325 . S
N1881 C1884 1.314 . S
N1881 C1885 1.279 . S
C1882 C1880 1.348 . S
C1882 C1884 1.353 . S
C1882 H1924 0.929 . S
C1883 C1880 1.356 . S
C1883 C1885 1.358 . S
C1883 H1925 0.930 . S
C1884 N1881 1.314 . S
C1884 C1882 1.353 . S
C1884 H1926 0.930 . S
C1885 N1881 1.279 . S
C1885 C1883 1.358 . S
C1885 H1927 0.930 . S
C1886 C1887 1.348 . S
C1886 C1888 1.356 1_655 S
C1886 O1911 1.325 . S
C1887 C1886 1.348 . S
C1887 C1889 1.353 . S
C1887 H1928 0.929 . S
C1888 C1886 1.356 1_455 S
C1888 C1890 1.358 . S
C1888 H1929 0.930 . S
C1889 C1887 1.353 . S
C1889 N1891 1.314 1_655 S
C1889 H1930 0.930 . S
C1890 C1888 1.358 . S
C1890 N1891 1.279 . S
C1890 H1931 0.930 . S
N1891 C1889 1.314 1_455 S
N1891 C1890 1.279 . S
C1892 C1894 1.353 . S
C1892 N1895 1.314 . S
C1892 H1898 0.930 . S
C1893 N1895 1.279 . S
C1893 C1896 1.358 . S
C1893 H1899 0.930 . S
C1894 C1892 1.353 . S
C1894 C1897 1.348 . S
C1894 H1932 0.929 . S
N1895 Li1850 1.990 . S
N1895 C1892 1.314 . S
N1895 C1893 1.279 . S
C1896 C1893 1.358 . S
C1896 C1897 1.356 . S
C1896 H1933 0.930 . S
C1897 C1894 1.348 . S
C1897 C1896 1.356 . S
H1898 C1892 0.930 . S
H1899 C1893 0.930 . S
C1900 N1901 1.314 . S
C1900 C1902 1.353 . S
C1900 H1906 0.930 . S
N1901 Li1851 1.990 . S
N1901 C1900 1.314 . S
N1901 C1904 1.279 . S
C1902 C1900 1.353 . S
C1902 C1905 1.348 1_655 S
C1902 H1934 0.929 . S
C1903 C1904 1.358 1_455 S
C1903 C1905 1.356 . S
C1903 H1935 0.930 . S
C1904 N1901 1.279 . S
C1904 C1903 1.358 1_655 S
C1904 H1907 0.930 . S
C1905 C1902 1.348 1_455 S
C1905 C1903 1.356 . S
H1906 C1900 0.930 . S
H1907 C1904 0.930 . S
O1908 Li1848 1.956 . S
O1908 Li1849 1.970 . S
O1908 Li1850 1.961 . S
O1908 C1852 1.325 . S
O1909 Li1848 1.970 . S
O1909 Li1849 1.956 . S
O1909 Li1851 1.961 . S
O1909 C1858 1.325 . S
O1910 Li1848 1.961 . S
O1910 Li1850 1.956 . S
O1910 Li1851 1.970 . S
O1910 C1880 1.325 . S
O1911 Li1849 1.961 . S
O1911 Li1850 1.970 . S
O1911 Li1851 1.956 . S
O1911 C1886 1.325 . S
H1912 C1854 0.929 . S
H1913 C1855 0.930 . S
H1914 C1856 0.930 . S
H1915 C1857 0.930 . S
H1916 C1859 0.930 . S
H1917 C1861 0.929 . S
H1918 C1862 0.930 . S
H1919 C1863 0.930 . S
H1920 C1866 0.930 . S
H1921 C1869 0.929 . S
H1922 C1874 0.929 . S
H1923 C1875 0.930 . S
H1924 C1882 0.929 . S
H1925 C1883 0.930 . S
H1926 C1884 0.930 . S
H1927 C1885 0.930 . S
H1928 C1887 0.929 . S
H1929 C1888 0.930 . S
H1930 C1889 0.930 . S
H1931 C1890 0.930 . S
H1932 C1894 0.929 . S
H1933 C1896 0.930 . S
H1934 C1902 0.929 . S
H1935 C1903 0.930 . S
Li1936 N1953 1.990 . S
Li1936 O1996 1.956 . S
Li1936 O1997 1.970 . S
Li1936 O1998 1.961 . S
Li1937 N1961 1.990 . S
Li1937 O1996 1.970 . S
Li1937 O1997 1.956 . S
Li1937 O1999 1.961 . S
Li1938 N1983 1.990 . S
Li1938 O1996 1.961 . S
Li1938 O1998 1.956 . S
Li1938 O1999 1.970 . S
Li1939 N1989 1.990 . S
Li1939 O1997 1.961 . S
Li1939 O1998 1.970 . S
Li1939 O1999 1.956 . S
C1940 C1942 1.348 . S
C1940 C1943 1.356 . S
C1940 O1996 1.325 . S
N1941 C1944 1.314 . S
N1941 C1945 1.279 . S
C1942 C1940 1.348 . S
C1942 C1944 1.353 . S
C1942 H2000 0.929 . S
C1943 C1940 1.356 . S
C1943 C1945 1.358 . S
C1943 H2001 0.930 . S
C1944 N1941 1.314 . S
C1944 C1942 1.353 . S
C1944 H2002 0.930 . S
C1945 N1941 1.279 . S
C1945 C1943 1.358 . S
C1945 H2003 0.930 . S
C1946 C1949 1.348 . S
C1946 C1950 1.356 . S
C1946 O1997 1.325 . S
C1947 N1948 1.279 . S
C1947 C1950 1.358 . S
C1947 H2004 0.930 . S
N1948 C1947 1.279 . S
N1948 C1951 1.314 . S
C1949 C1946 1.348 . S
C1949 C1951 1.353 . S
C1949 H2005 0.929 . S
C1950 C1946 1.356 . S
C1950 C1947 1.358 . S
C1950 H2006 0.930 . S
C1951 N1948 1.314 . S
C1951 C1949 1.353 . S
C1951 H2007 0.930 . S
C1952 N1953 1.314 . S
C1952 C1957 1.353 . S
C1952 H1958 0.930 . S
N1953 Li1936 1.990 . S
N1953 C1952 1.314 . S
N1953 C1955 1.279 . S
C1954 C1955 1.358 . S
C1954 C1956 1.356 . S
C1954 H2008 0.930 . S
C1955 N1953 1.279 . S
C1955 C1954 1.358 . S
C1955 H1959 0.930 . S
C1956 C1954 1.356 . S
C1956 C1957 1.348 . S
C1957 C1952 1.353 . S
C1957 C1956 1.348 . S
C1957 H2009 0.929 . S
H1958 C1952 0.930 . S
H1959 C1955 0.930 . S
C1960 N1961 1.314 . S
C1960 C1962 1.353 . S
C1960 H1966 0.930 . S
N1961 Li1937 1.990 . S
N1961 C1960 1.314 . S
N1961 C1964 1.279 . S
C1962 C1960 1.353 . S
C1962 C1965 1.348 . S
C1962 H2010 0.929 . S
C1963 C1964 1.358 . S
C1963 C1965 1.356 . S
C1963 H2011 0.930 . S
C1964 N1961 1.279 . S
C1964 C1963 1.358 . S
C1964 H1967 0.930 . S
C1965 C1962 1.348 . S
C1965 C1963 1.356 . S
H1966 C1960 0.930 . S
H1967 C1964 0.930 . S
C1968 C1970 1.348 . S
C1968 C1971 1.356 . S
C1968 O1998 1.325 . S
N1969 C1972 1.314 . S
N1969 C1973 1.279 . S
C1970 C1968 1.348 . S
C1970 C1972 1.353 . S
C1970 H2012 0.929 . S
C1971 C1968 1.356 . S
C1971 C1973 1.358 . S
C1971 H2013 0.930 . S
C1972 N1969 1.314 . S
C1972 C1970 1.353 . S
C1972 H2014 0.930 . S
C1973 N1969 1.279 . S
C1973 C1971 1.358 . S
C1973 H2015 0.930 . S
C1974 C1975 1.348 . S
C1974 C1976 1.356 . S
C1974 O1999 1.325 . S
C1975 C1974 1.348 . S
C1975 C1977 1.353 . S
C1975 H2016 0.929 . S
C1976 C1974 1.356 . S
C1976 C1978 1.358 . S
C1976 H2017 0.930 . S
C1977 C1975 1.353 . S
C1977 N1979 1.314 . S
C1977 H2018 0.930 . S
C1978 C1976 1.358 . S
C1978 N1979 1.279 . S
C1978 H2019 0.930 . S
N1979 C1977 1.314 . S
N1979 C1978 1.279 . S
C1980 C1982 1.353 . S
C1980 N1983 1.314 . S
C1980 H1986 0.930 . S
C1981 N1983 1.279 . S
C1981 C1984 1.358 . S
C1981 H1987 0.930 . S
C1982 C1980 1.353 . S
C1982 C1985 1.348 . S
C1982 H2020 0.929 . S
N1983 Li1938 1.990 . S
N1983 C1980 1.314 . S
N1983 C1981 1.279 . S
C1984 C1981 1.358 . S
C1984 C1985 1.356 . S
C1984 H2021 0.930 . S
C1985 C1982 1.348 . S
C1985 C1984 1.356 . S
H1986 C1980 0.930 . S
H1987 C1981 0.930 . S
C1988 N1989 1.314 . S
C1988 C1990 1.353 . S
C1988 H1994 0.930 . S
N1989 Li1939 1.990 . S
N1989 C1988 1.314 . S
N1989 C1992 1.279 . S
C1990 C1988 1.353 . S
C1990 C1993 1.348 . S
C1990 H2022 0.929 . S
C1991 C1992 1.358 . S
C1991 C1993 1.356 . S
C1991 H2023 0.930 . S
C1992 N1989 1.279 . S
C1992 C1991 1.358 . S
C1992 H1995 0.930 . S
C1993 C1990 1.348 . S
C1993 C1991 1.356 . S
H1994 C1988 0.930 . S
H1995 C1992 0.930 . S
O1996 Li1936 1.956 . S
O1996 Li1937 1.970 . S
O1996 Li1938 1.961 . S
O1996 C1940 1.325 . S
O1997 Li1936 1.970 . S
O1997 Li1937 1.956 . S
O1997 Li1939 1.961 . S
O1997 C1946 1.325 . S
O1998 Li1936 1.961 . S
O1998 Li1938 1.956 . S
O1998 Li1939 1.970 . S
O1998 C1968 1.325 . S
O1999 Li1937 1.961 . S
O1999 Li1938 1.970 . S
O1999 Li1939 1.956 . S
O1999 C1974 1.325 . S
H2000 C1942 0.929 . S
H2001 C1943 0.930 . S
H2002 C1944 0.930 . S
H2003 C1945 0.930 . S
H2004 C1947 0.930 . S
H2005 C1949 0.929 . S
H2006 C1950 0.930 . S
H2007 C1951 0.930 . S
H2008 C1954 0.930 . S
H2009 C1957 0.929 . S
H2010 C1962 0.929 . S
H2011 C1963 0.930 . S
H2012 C1970 0.929 . S
H2013 C1971 0.930 . S
H2014 C1972 0.930 . S
H2015 C1973 0.930 . S
H2016 C1975 0.929 . S
H2017 C1976 0.930 . S
H2018 C1977 0.930 . S
H2019 C1978 0.930 . S
H2020 C1982 0.929 . S
H2021 C1984 0.930 . S
H2022 C1990 0.929 . S
H2023 C1991 0.930 . S
Li2024 N2041 1.990 . S
Li2024 O2084 1.956 . S
Li2024 O2085 1.970 . S
Li2024 O2086 1.961 . S
Li2025 N2049 1.990 . S
Li2025 O2084 1.970 . S
Li2025 O2085 1.956 . S
Li2025 O2087 1.961 . S
Li2026 N2071 1.990 . S
Li2026 O2084 1.961 . S
Li2026 O2086 1.956 . S
Li2026 O2087 1.970 . S
Li2027 N2077 1.990 . S
Li2027 O2085 1.961 . S
Li2027 O2086 1.970 . S
Li2027 O2087 1.956 . S
C2028 C2030 1.348 . S
C2028 C2031 1.356 . S
C2028 O2084 1.325 . S
N2029 C2032 1.314 . S
N2029 C2033 1.279 . S
C2030 C2028 1.348 . S
C2030 C2032 1.353 . S
C2030 H2088 0.929 . S
C2031 C2028 1.356 . S
C2031 C2033 1.358 . S
C2031 H2089 0.930 . S
C2032 N2029 1.314 . S
C2032 C2030 1.353 . S
C2032 H2090 0.930 . S
C2033 N2029 1.279 . S
C2033 C2031 1.358 . S
C2033 H2091 0.930 . S
C2034 C2037 1.348 . S
C2034 C2038 1.356 . S
C2034 O2085 1.325 . S
C2035 N2036 1.279 . S
C2035 C2038 1.358 . S
C2035 H2092 0.930 . S
N2036 C2035 1.279 . S
N2036 C2039 1.314 . S
C2037 C2034 1.348 . S
C2037 C2039 1.353 . S
C2037 H2093 0.929 . S
C2038 C2034 1.356 . S
C2038 C2035 1.358 . S
C2038 H2094 0.930 . S
C2039 N2036 1.314 . S
C2039 C2037 1.353 . S
C2039 H2095 0.930 . S
C2040 N2041 1.314 . S
C2040 C2045 1.353 . S
C2040 H2046 0.930 . S
N2041 Li2024 1.990 . S
N2041 C2040 1.314 . S
N2041 C2043 1.279 . S
C2042 C2043 1.358 . S
C2042 C2044 1.356 . S
C2042 H2096 0.930 . S
C2043 N2041 1.279 . S
C2043 C2042 1.358 . S
C2043 H2047 0.930 . S
C2044 C2042 1.356 . S
C2044 C2045 1.348 . S
C2045 C2040 1.353 . S
C2045 C2044 1.348 . S
C2045 H2097 0.929 . S
H2046 C2040 0.930 . S
H2047 C2043 0.930 . S
C2048 N2049 1.314 . S
C2048 C2050 1.353 . S
C2048 H2054 0.930 . S
N2049 Li2025 1.990 . S
N2049 C2048 1.314 . S
N2049 C2052 1.279 . S
C2050 C2048 1.353 . S
C2050 C2053 1.348 . S
C2050 H2098 0.929 . S
C2051 C2052 1.358 . S
C2051 C2053 1.356 . S
C2051 H2099 0.930 . S
C2052 N2049 1.279 . S
C2052 C2051 1.358 . S
C2052 H2055 0.930 . S
C2053 C2050 1.348 . S
C2053 C2051 1.356 . S
H2054 C2048 0.930 . S
H2055 C2052 0.930 . S
C2056 C2058 1.348 . S
C2056 C2059 1.356 . S
C2056 O2086 1.325 . S
N2057 C2060 1.314 . S
N2057 C2061 1.279 . S
C2058 C2056 1.348 . S
C2058 C2060 1.353 . S
C2058 H2100 0.929 . S
C2059 C2056 1.356 . S
C2059 C2061 1.358 . S
C2059 H2101 0.930 . S
C2060 N2057 1.314 . S
C2060 C2058 1.353 . S
C2060 H2102 0.930 . S
C2061 N2057 1.279 . S
C2061 C2059 1.358 . S
C2061 H2103 0.930 . S
C2062 C2063 1.348 . S
C2062 C2064 1.356 . S
C2062 O2087 1.325 . S
C2063 C2062 1.348 . S
C2063 C2065 1.353 . S
C2063 H2104 0.929 . S
C2064 C2062 1.356 . S
C2064 C2066 1.358 . S
C2064 H2105 0.930 . S
C2065 C2063 1.353 . S
C2065 N2067 1.314 . S
C2065 H2106 0.930 . S
C2066 C2064 1.358 . S
C2066 N2067 1.279 . S
C2066 H2107 0.930 . S
N2067 C2065 1.314 . S
N2067 C2066 1.279 . S
C2068 C2070 1.353 . S
C2068 N2071 1.314 . S
C2068 H2074 0.930 . S
C2069 N2071 1.279 . S
C2069 C2072 1.358 . S
C2069 H2075 0.930 . S
C2070 C2068 1.353 . S
C2070 C2073 1.348 . S
C2070 H2108 0.929 . S
N2071 Li2026 1.990 . S
N2071 C2068 1.314 . S
N2071 C2069 1.279 . S
C2072 C2069 1.358 . S
C2072 C2073 1.356 . S
C2072 H2109 0.930 . S
C2073 C2070 1.348 . S
C2073 C2072 1.356 . S
H2074 C2068 0.930 . S
H2075 C2069 0.930 . S
C2076 N2077 1.314 . S
C2076 C2078 1.353 . S
C2076 H2082 0.930 . S
N2077 Li2027 1.990 . S
N2077 C2076 1.314 . S
N2077 C2080 1.279 . S
C2078 C2076 1.353 . S
C2078 C2081 1.348 . S
C2078 H2110 0.929 . S
C2079 C2080 1.358 . S
C2079 C2081 1.356 . S
C2079 H2111 0.930 . S
C2080 N2077 1.279 . S
C2080 C2079 1.358 . S
C2080 H2083 0.930 . S
C2081 C2078 1.348 . S
C2081 C2079 1.356 . S
H2082 C2076 0.930 . S
H2083 C2080 0.930 . S
O2084 Li2024 1.956 . S
O2084 Li2025 1.970 . S
O2084 Li2026 1.961 . S
O2084 C2028 1.325 . S
O2085 Li2024 1.970 . S
O2085 Li2025 1.956 . S
O2085 Li2027 1.961 . S
O2085 C2034 1.325 . S
O2086 Li2024 1.961 . S
O2086 Li2026 1.956 . S
O2086 Li2027 1.970 . S
O2086 C2056 1.325 . S
O2087 Li2025 1.961 . S
O2087 Li2026 1.970 . S
O2087 Li2027 1.956 . S
O2087 C2062 1.325 . S
H2088 C2030 0.929 . S
H2089 C2031 0.930 . S
H2090 C2032 0.930 . S
H2091 C2033 0.930 . S
H2092 C2035 0.930 . S
H2093 C2037 0.929 . S
H2094 C2038 0.930 . S
H2095 C2039 0.930 . S
H2096 C2042 0.930 . S
H2097 C2045 0.929 . S
H2098 C2050 0.929 . S
H2099 C2051 0.930 . S
H2100 C2058 0.929 . S
H2101 C2059 0.930 . S
H2102 C2060 0.930 . S
H2103 C2061 0.930 . S
H2104 C2063 0.929 . S
H2105 C2064 0.930 . S
H2106 C2065 0.930 . S
H2107 C2066 0.930 . S
H2108 C2070 0.929 . S
H2109 C2072 0.930 . S
H2110 C2078 0.929 . S
H2111 C2079 0.930 . S
Nd2112 C2114 2.836 . S
Nd2112 O2132 2.500 . S
Nd2112 O2133 2.492 . S
Nd2112 O2134 2.487 . S
Nd2112 O2135 2.682 . S
Nd2112 O2136 2.410 . S
Nd2112 O2141 2.414 . S
Nd2112 O2143 2.424 . S
Nd2113 C2123 2.836 1_545 S
Nd2113 O2135 2.414 . S
Nd2113 O2137 2.424 1_455 S
Nd2113 O2138 2.500 1_545 S
Nd2113 O2139 2.492 1_545 S
Nd2113 O2140 2.487 . S
Nd2113 O2141 2.682 . S
Nd2113 O2142 2.410 . S
C2114 Nd2112 2.836 . S
C2114 C2115 1.498 . S
C2114 O2132 1.258 . S
C2114 O2133 1.239 . S
C2115 C2114 1.498 . S
C2115 C2116 1.366 . S
C2115 C2120 1.407 . S
C2116 C2115 1.366 . S
C2116 C2117 1.392 . S
C2116 H2144 0.930 . S
C2117 C2116 1.392 . S
C2117 C2118 1.398 . S
C2117 H2145 0.929 . S
C2118 C2117 1.398 . S
C2118 C2119 1.352 . S
C2119 C2118 1.352 . S
C2119 C2120 1.384 . S
C2119 H2146 0.930 . S
C2120 C2115 1.407 . S
C2120 C2119 1.384 . S
C2120 H2147 0.929 . S
C2121 O2134 1.241 . S
C2121 O2135 1.273 . S
C2122 O2136 1.251 . S
C2122 O2137 1.268 1_455 S
C2123 Nd2113 2.836 1_565 S
C2123 C2124 1.498 . S
C2123 O2138 1.258 . S
C2123 O2139 1.239 . S
C2124 C2123 1.498 . S
C2124 C2125 1.366 . S
C2124 C2129 1.407 . S
C2125 C2124 1.366 . S
C2125 C2126 1.392 . S
C2125 H2148 0.930 . S
C2126 C2125 1.392 . S
C2126 C2127 1.398 . S
C2126 H2149 0.929 . S
C2127 C2126 1.398 . S
C2127 C2128 1.352 . S
C2128 C2127 1.352 . S
C2128 C2129 1.384 . S
C2128 H2150 0.930 . S
C2129 C2124 1.407 . S
C2129 C2128 1.384 . S
C2129 H2151 0.929 . S
C2130 O2140 1.241 . S
C2130 O2141 1.273 . S
C2131 O2142 1.251 . S
C2131 O2143 1.268 . S
O2132 Nd2112 2.500 . S
O2132 C2114 1.258 . S
O2133 Nd2112 2.492 . S
O2133 C2114 1.239 . S
O2134 Nd2112 2.487 . S
O2134 C2121 1.241 . S
O2135 Nd2112 2.682 . S
O2135 Nd2113 2.414 . S
O2135 C2121 1.273 . S
O2136 Nd2112 2.410 . S
O2136 C2122 1.251 . S
O2137 Nd2113 2.424 1_655 S
O2137 C2122 1.268 1_655 S
O2138 Nd2113 2.500 1_565 S
O2138 C2123 1.258 . S
O2139 Nd2113 2.492 1_565 S
O2139 C2123 1.239 . S
O2140 Nd2113 2.487 . S
O2140 C2130 1.241 . S
O2141 Nd2112 2.414 . S
O2141 Nd2113 2.682 . S
O2141 C2130 1.273 . S
O2142 Nd2113 2.410 . S
O2142 C2131 1.251 . S
O2143 Nd2112 2.424 . S
O2143 C2131 1.268 . S
H2144 C2116 0.930 . S
H2145 C2117 0.929 . S
H2146 C2119 0.930 . S
H2147 C2120 0.929 . S
H2148 C2125 0.930 . S
H2149 C2126 0.929 . S
H2150 C2128 0.930 . S
H2151 C2129 0.929 . S
Nd2152 C2154 2.836 . S
Nd2152 O2172 2.500 . S
Nd2152 O2173 2.492 . S
Nd2152 O2174 2.487 . S
Nd2152 O2175 2.682 . S
Nd2152 O2176 2.410 . S
Nd2152 O2181 2.414 . S
Nd2152 O2183 2.424 . S
Nd2153 C2163 2.836 . S
Nd2153 O2175 2.414 . S
Nd2153 O2177 2.424 . S
Nd2153 O2178 2.500 . S
Nd2153 O2179 2.492 . S
Nd2153 O2180 2.487 . S
Nd2153 O2181 2.682 . S
Nd2153 O2182 2.410 . S
C2154 Nd2152 2.836 . S
C2154 C2155 1.498 . S
C2154 O2172 1.258 . S
C2154 O2173 1.239 . S
C2155 C2154 1.498 . S
C2155 C2156 1.366 . S
C2155 C2160 1.407 . S
C2156 C2155 1.366 . S
C2156 C2157 1.392 . S
C2156 H2184 0.930 . S
C2157 C2156 1.392 . S
C2157 C2158 1.398 . S
C2157 H2185 0.929 . S
C2158 C2157 1.398 . S
C2158 C2159 1.352 . S
C2159 C2158 1.352 . S
C2159 C2160 1.384 . S
C2159 H2186 0.930 . S
C2160 C2155 1.407 . S
C2160 C2159 1.384 . S
C2160 H2187 0.929 . S
C2161 O2174 1.241 . S
C2161 O2175 1.273 . S
C2162 O2176 1.251 . S
C2162 O2177 1.268 . S
C2163 Nd2153 2.836 . S
C2163 C2164 1.498 . S
C2163 O2178 1.258 . S
C2163 O2179 1.239 . S
C2164 C2163 1.498 . S
C2164 C2165 1.366 . S
C2164 C2169 1.407 . S
C2165 C2164 1.366 . S
C2165 C2166 1.392 . S
C2165 H2188 0.930 . S
C2166 C2165 1.392 . S
C2166 C2167 1.398 . S
C2166 H2189 0.929 . S
C2167 C2166 1.398 . S
C2167 C2168 1.352 . S
C2168 C2167 1.352 . S
C2168 C2169 1.384 . S
C2168 H2190 0.930 . S
C2169 C2164 1.407 . S
C2169 C2168 1.384 . S
C2169 H2191 0.929 . S
C2170 O2180 1.241 . S
C2170 O2181 1.273 . S
C2171 O2182 1.251 . S
C2171 O2183 1.268 . S
O2172 Nd2152 2.500 . S
O2172 C2154 1.258 . S
O2173 Nd2152 2.492 . S
O2173 C2154 1.239 . S
O2174 Nd2152 2.487 . S
O2174 C2161 1.241 . S
O2175 Nd2152 2.682 . S
O2175 Nd2153 2.414 . S
O2175 C2161 1.273 . S
O2176 Nd2152 2.410 . S
O2176 C2162 1.251 . S
O2177 Nd2153 2.424 . S
O2177 C2162 1.268 . S
O2178 Nd2153 2.500 . S
O2178 C2163 1.258 . S
O2179 Nd2153 2.492 . S
O2179 C2163 1.239 . S
O2180 Nd2153 2.487 . S
O2180 C2170 1.241 . S
O2181 Nd2152 2.414 . S
O2181 Nd2153 2.682 . S
O2181 C2170 1.273 . S
O2182 Nd2153 2.410 . S
O2182 C2171 1.251 . S
O2183 Nd2152 2.424 . S
O2183 C2171 1.268 . S
H2184 C2156 0.930 . S
H2185 C2157 0.929 . S
H2186 C2159 0.930 . S
H2187 C2160 0.929 . S
H2188 C2165 0.930 . S
H2189 C2166 0.929 . S
H2190 C2168 0.930 . S
H2191 C2169 0.929 . S
Nd2192 C2194 2.836 . S
Nd2192 O2212 2.500 . S
Nd2192 O2213 2.492 . S
Nd2192 O2214 2.487 . S
Nd2192 O2215 2.682 . S
Nd2192 O2216 2.410 . S
Nd2192 O2221 2.414 . S
Nd2192 O2223 2.424 . S
Nd2193 C2203 2.836 . S
Nd2193 O2215 2.414 . S
Nd2193 O2217 2.424 . S
Nd2193 O2218 2.500 . S
Nd2193 O2219 2.492 . S
Nd2193 O2220 2.487 . S
Nd2193 O2221 2.682 . S
Nd2193 O2222 2.410 . S
C2194 Nd2192 2.836 . S
C2194 C2195 1.498 . S
C2194 O2212 1.258 . S
C2194 O2213 1.239 . S
C2195 C2194 1.498 . S
C2195 C2196 1.366 . S
C2195 C2200 1.407 . S
C2196 C2195 1.366 . S
C2196 C2197 1.392 . S
C2196 H2224 0.930 . S
C2197 C2196 1.392 . S
C2197 C2198 1.398 . S
C2197 H2225 0.929 . S
C2198 C2197 1.398 . S
C2198 C2199 1.352 . S
C2199 C2198 1.352 . S
C2199 C2200 1.384 . S
C2199 H2226 0.930 . S
C2200 C2195 1.407 . S
C2200 C2199 1.384 . S
C2200 H2227 0.929 . S
C2201 O2214 1.241 . S
C2201 O2215 1.273 . S
C2202 O2216 1.251 . S
C2202 O2217 1.268 . S
C2203 Nd2193 2.836 . S
C2203 C2204 1.498 . S
C2203 O2218 1.258 . S
C2203 O2219 1.239 . S
C2204 C2203 1.498 . S
C2204 C2205 1.366 . S
C2204 C2209 1.407 . S
C2205 C2204 1.366 . S
C2205 C2206 1.392 . S
C2205 H2228 0.930 . S
C2206 C2205 1.392 . S
C2206 C2207 1.398 . S
C2206 H2229 0.929 . S
C2207 C2206 1.398 . S
C2207 C2208 1.352 . S
C2208 C2207 1.352 . S
C2208 C2209 1.384 . S
C2208 H2230 0.930 . S
C2209 C2204 1.407 . S
C2209 C2208 1.384 . S
C2209 H2231 0.929 . S
C2210 O2220 1.241 . S
C2210 O2221 1.273 . S
C2211 O2222 1.251 . S
C2211 O2223 1.268 . S
O2212 Nd2192 2.500 . S
O2212 C2194 1.258 . S
O2213 Nd2192 2.492 . S
O2213 C2194 1.239 . S
O2214 Nd2192 2.487 . S
O2214 C2201 1.241 . S
O2215 Nd2192 2.682 . S
O2215 Nd2193 2.414 . S
O2215 C2201 1.273 . S
O2216 Nd2192 2.410 . S
O2216 C2202 1.251 . S
O2217 Nd2193 2.424 . S
O2217 C2202 1.268 . S
O2218 Nd2193 2.500 . S
O2218 C2203 1.258 . S
O2219 Nd2193 2.492 . S
O2219 C2203 1.239 . S
O2220 Nd2193 2.487 . S
O2220 C2210 1.241 . S
O2221 Nd2192 2.414 . S
O2221 Nd2193 2.682 . S
O2221 C2210 1.273 . S
O2222 Nd2193 2.410 . S
O2222 C2211 1.251 . S
O2223 Nd2192 2.424 . S
O2223 C2211 1.268 . S
H2224 C2196 0.930 . S
H2225 C2197 0.929 . S
H2226 C2199 0.930 . S
H2227 C2200 0.929 . S
H2228 C2205 0.930 . S
H2229 C2206 0.929 . S
H2230 C2208 0.930 . S
H2231 C2209 0.929 . S
Nd2232 C2234 2.836 . S
Nd2232 O2252 2.500 . S
Nd2232 O2253 2.492 . S
Nd2232 O2254 2.487 . S
Nd2232 O2255 2.682 . S
Nd2232 O2256 2.410 . S
Nd2232 O2261 2.414 . S
Nd2232 O2263 2.424 . S
Nd2233 C2243 2.836 . S
Nd2233 O2255 2.414 . S
Nd2233 O2257 2.424 . S
Nd2233 O2258 2.500 . S
Nd2233 O2259 2.492 . S
Nd2233 O2260 2.487 . S
Nd2233 O2261 2.682 . S
Nd2233 O2262 2.410 . S
C2234 Nd2232 2.836 . S
C2234 C2235 1.498 . S
C2234 O2252 1.258 . S
C2234 O2253 1.239 . S
C2235 C2234 1.498 . S
C2235 C2236 1.366 . S
C2235 C2240 1.407 . S
C2236 C2235 1.366 . S
C2236 C2237 1.392 . S
C2236 H2264 0.930 . S
C2237 C2236 1.392 . S
C2237 C2238 1.398 . S
C2237 H2265 0.929 . S
C2238 C2237 1.398 . S
C2238 C2239 1.352 . S
C2239 C2238 1.352 . S
C2239 C2240 1.384 . S
C2239 H2266 0.930 . S
C2240 C2235 1.407 . S
C2240 C2239 1.384 . S
C2240 H2267 0.929 . S
C2241 O2254 1.241 . S
C2241 O2255 1.273 . S
C2242 O2256 1.251 . S
C2242 O2257 1.268 . S
C2243 Nd2233 2.836 . S
C2243 C2244 1.498 . S
C2243 O2258 1.258 . S
C2243 O2259 1.239 . S
C2244 C2243 1.498 . S
C2244 C2245 1.366 . S
C2244 C2249 1.407 . S
C2245 C2244 1.366 . S
C2245 C2246 1.392 . S
C2245 H2268 0.930 . S
C2246 C2245 1.392 . S
C2246 C2247 1.398 . S
C2246 H2269 0.929 . S
C2247 C2246 1.398 . S
C2247 C2248 1.352 . S
C2248 C2247 1.352 . S
C2248 C2249 1.384 . S
C2248 H2270 0.930 . S
C2249 C2244 1.407 . S
C2249 C2248 1.384 . S
C2249 H2271 0.929 . S
C2250 O2260 1.241 . S
C2250 O2261 1.273 . S
C2251 O2262 1.251 . S
C2251 O2263 1.268 . S
O2252 Nd2232 2.500 . S
O2252 C2234 1.258 . S
O2253 Nd2232 2.492 . S
O2253 C2234 1.239 . S
O2254 Nd2232 2.487 . S
O2254 C2241 1.241 . S
O2255 Nd2232 2.682 . S
O2255 Nd2233 2.414 . S
O2255 C2241 1.273 . S
O2256 Nd2232 2.410 . S
O2256 C2242 1.251 . S
O2257 Nd2233 2.424 . S
O2257 C2242 1.268 . S
O2258 Nd2233 2.500 . S
O2258 C2243 1.258 . S
O2259 Nd2233 2.492 . S
O2259 C2243 1.239 . S
O2260 Nd2233 2.487 . S
O2260 C2250 1.241 . S
O2261 Nd2232 2.414 . S
O2261 Nd2233 2.682 . S
O2261 C2250 1.273 . S
O2262 Nd2233 2.410 . S
O2262 C2251 1.251 . S
O2263 Nd2232 2.424 . S
O2263 C2251 1.268 . S
H2264 C2236 0.930 . S
H2265 C2237 0.929 . S
H2266 C2239 0.930 . S
H2267 C2240 0.929 . S
H2268 C2245 0.930 . S
H2269 C2246 0.929 . S
H2270 C2248 0.930 . S
H2271 C2249 0.929 . S
Nd2272 C2274 2.836 . S
Nd2272 O2292 2.500 . S
Nd2272 O2293 2.492 . S
Nd2272 O2294 2.487 . S
Nd2272 O2295 2.682 . S
Nd2272 O2296 2.410 . S
Nd2272 O2301 2.414 . S
Nd2272 O2303 2.424 . S
Nd2273 C2283 2.836 1_545 S
Nd2273 O2295 2.414 . S
Nd2273 O2297 2.424 . S
Nd2273 O2298 2.500 . S
Nd2273 O2299 2.492 1_545 S
Nd2273 O2300 2.487 1_455 S
Nd2273 O2301 2.682 . S
Nd2273 O2302 2.410 . S
C2274 Nd2272 2.836 . S
C2274 C2275 1.498 . S
C2274 O2292 1.258 . S
C2274 O2293 1.239 . S
C2275 C2274 1.498 . S
C2275 C2276 1.366 . S
C2275 C2280 1.407 . S
C2276 C2275 1.366 . S
C2276 C2277 1.392 . S
C2276 H2304 0.930 1_455 S
C2277 C2276 1.392 . S
C2277 C2278 1.398 . S
C2277 H2305 0.929 1_455 S
C2278 C2277 1.398 . S
C2278 C2279 1.352 . S
C2279 C2278 1.352 . S
C2279 C2280 1.384 . S
C2279 H2306 0.930 . S
C2280 C2275 1.407 . S
C2280 C2279 1.384 . S
C2280 H2307 0.929 . S
C2281 O2294 1.241 . S
C2281 O2295 1.273 . S
C2282 O2296 1.251 . S
C2282 O2297 1.268 . S
C2283 Nd2273 2.836 1_565 S
C2283 C2284 1.498 . S
C2283 O2298 1.258 1_565 S
C2283 O2299 1.239 . S
C2284 C2283 1.498 . S
C2284 C2285 1.366 . S
C2284 C2289 1.407 . S
C2285 C2284 1.366 . S
C2285 C2286 1.392 . S
C2285 H2308 0.930 . S
C2286 C2285 1.392 . S
C2286 C2287 1.398 . S
C2286 H2309 0.929 . S
C2287 C2286 1.398 . S
C2287 C2288 1.352 . S
C2288 C2287 1.352 . S
C2288 C2289 1.384 . S
C2288 H2310 0.930 . S
C2289 C2284 1.407 . S
C2289 C2288 1.384 . S
C2289 H2311 0.929 . S
C2290 O2300 1.241 . S
C2290 O2301 1.273 1_655 S
C2291 O2302 1.251 . S
C2291 O2303 1.268 . S
O2292 Nd2272 2.500 . S
O2292 C2274 1.258 . S
O2293 Nd2272 2.492 . S
O2293 C2274 1.239 . S
O2294 Nd2272 2.487 . S
O2294 C2281 1.241 . S
O2295 Nd2272 2.682 . S
O2295 Nd2273 2.414 . S
O2295 C2281 1.273 . S
O2296 Nd2272 2.410 . S
O2296 C2282 1.251 . S
O2297 Nd2273 2.424 . S
O2297 C2282 1.268 . S
O2298 Nd2273 2.500 . S
O2298 C2283 1.258 1_545 S
O2299 Nd2273 2.492 1_565 S
O2299 C2283 1.239 . S
O2300 Nd2273 2.487 1_655 S
O2300 C2290 1.241 . S
O2301 Nd2272 2.414 . S
O2301 Nd2273 2.682 . S
O2301 C2290 1.273 1_455 S
O2302 Nd2273 2.410 . S
O2302 C2291 1.251 . S
O2303 Nd2272 2.424 . S
O2303 C2291 1.268 . S
H2304 C2276 0.930 1_655 S
H2305 C2277 0.929 1_655 S
H2306 C2279 0.930 . S
H2307 C2280 0.929 . S
H2308 C2285 0.930 . S
H2309 C2286 0.929 . S
H2310 C2288 0.930 . S
H2311 C2289 0.929 . S
Nd2312 C2314 2.836 . S
Nd2312 O2332 2.500 . S
Nd2312 O2333 2.492 . S
Nd2312 O2334 2.487 . S
Nd2312 O2335 2.682 . S
Nd2312 O2336 2.410 . S
Nd2312 O2341 2.414 . S
Nd2312 O2343 2.424 . S
Nd2313 C2323 2.836 . S
Nd2313 O2335 2.414 . S
Nd2313 O2337 2.424 . S
Nd2313 O2338 2.500 . S
Nd2313 O2339 2.492 . S
Nd2313 O2340 2.487 . S
Nd2313 O2341 2.682 . S
Nd2313 O2342 2.410 . S
C2314 Nd2312 2.836 . S
C2314 C2315 1.498 . S
C2314 O2332 1.258 . S
C2314 O2333 1.239 . S
C2315 C2314 1.498 . S
C2315 C2316 1.366 . S
C2315 C2320 1.407 . S
C2316 C2315 1.366 . S
C2316 C2317 1.392 . S
C2316 H2344 0.930 . S
C2317 C2316 1.392 . S
C2317 C2318 1.398 . S
C2317 H2345 0.929 . S
C2318 C2317 1.398 . S
C2318 C2319 1.352 . S
C2319 C2318 1.352 . S
C2319 C2320 1.384 . S
C2319 H2346 0.930 . S
C2320 C2315 1.407 . S
C2320 C2319 1.384 . S
C2320 H2347 0.929 . S
C2321 O2334 1.241 . S
C2321 O2335 1.273 . S
C2322 O2336 1.251 . S
C2322 O2337 1.268 . S
C2323 Nd2313 2.836 . S
C2323 C2324 1.498 . S
C2323 O2338 1.258 . S
C2323 O2339 1.239 . S
C2324 C2323 1.498 . S
C2324 C2325 1.366 . S
C2324 C2329 1.407 . S
C2325 C2324 1.366 . S
C2325 C2326 1.392 . S
C2325 H2348 0.930 . S
C2326 C2325 1.392 . S
C2326 C2327 1.398 . S
C2326 H2349 0.929 . S
C2327 C2326 1.398 . S
C2327 C2328 1.352 . S
C2328 C2327 1.352 . S
C2328 C2329 1.384 . S
C2328 H2350 0.930 . S
C2329 C2324 1.407 . S
C2329 C2328 1.384 . S
C2329 H2351 0.929 . S
C2330 O2340 1.241 . S
C2330 O2341 1.273 . S
C2331 O2342 1.251 . S
C2331 O2343 1.268 . S
O2332 Nd2312 2.500 . S
O2332 C2314 1.258 . S
O2333 Nd2312 2.492 . S
O2333 C2314 1.239 . S
O2334 Nd2312 2.487 . S
O2334 C2321 1.241 . S
O2335 Nd2312 2.682 . S
O2335 Nd2313 2.414 . S
O2335 C2321 1.273 . S
O2336 Nd2312 2.410 . S
O2336 C2322 1.251 . S
O2337 Nd2313 2.424 . S
O2337 C2322 1.268 . S
O2338 Nd2313 2.500 . S
O2338 C2323 1.258 . S
O2339 Nd2313 2.492 . S
O2339 C2323 1.239 . S
O2340 Nd2313 2.487 . S
O2340 C2330 1.241 . S
O2341 Nd2312 2.414 . S
O2341 Nd2313 2.682 . S
O2341 C2330 1.273 . S
O2342 Nd2313 2.410 . S
O2342 C2331 1.251 . S
O2343 Nd2312 2.424 . S
O2343 C2331 1.268 . S
H2344 C2316 0.930 . S
H2345 C2317 0.929 . S
H2346 C2319 0.930 . S
H2347 C2320 0.929 . S
H2348 C2325 0.930 . S
H2349 C2326 0.929 . S
H2350 C2328 0.930 . S
H2351 C2329 0.929 . S
Nd2352 C2354 2.836 . S
Nd2352 O2372 2.500 . S
Nd2352 O2373 2.492 . S
Nd2352 O2374 2.487 . S
Nd2352 O2375 2.682 . S
Nd2352 O2376 2.410 . S
Nd2352 O2381 2.414 . S
Nd2352 O2383 2.424 . S
Nd2353 C2363 2.836 . S
Nd2353 O2375 2.414 . S
Nd2353 O2377 2.424 . S
Nd2353 O2378 2.500 . S
Nd2353 O2379 2.492 . S
Nd2353 O2380 2.487 . S
Nd2353 O2381 2.682 . S
Nd2353 O2382 2.410 . S
C2354 Nd2352 2.836 . S
C2354 C2355 1.498 . S
C2354 O2372 1.258 . S
C2354 O2373 1.239 . S
C2355 C2354 1.498 . S
C2355 C2356 1.366 . S
C2355 C2360 1.407 . S
C2356 C2355 1.366 . S
C2356 C2357 1.392 . S
C2356 H2384 0.930 . S
C2357 C2356 1.392 . S
C2357 C2358 1.398 . S
C2357 H2385 0.929 . S
C2358 C2357 1.398 . S
C2358 C2359 1.352 1_545 S
C2359 C2358 1.352 1_565 S
C2359 C2360 1.384 1_565 S
C2359 H2386 0.930 . S
C2360 C2355 1.407 . S
C2360 C2359 1.384 1_545 S
C2360 H2387 0.929 1_545 S
C2361 O2374 1.241 . S
C2361 O2375 1.273 . S
C2362 O2376 1.251 . S
C2362 O2377 1.268 . S
C2363 Nd2353 2.836 . S
C2363 C2364 1.498 . S
C2363 O2378 1.258 . S
C2363 O2379 1.239 . S
C2364 C2363 1.498 . S
C2364 C2365 1.366 . S
C2364 C2369 1.407 . S
C2365 C2364 1.366 . S
C2365 C2366 1.392 . S
C2365 H2388 0.930 . S
C2366 C2365 1.392 . S
C2366 C2367 1.398 . S
C2366 H2389 0.929 . S
C2367 C2366 1.398 . S
C2367 C2368 1.352 . S
C2368 C2367 1.352 . S
C2368 C2369 1.384 . S
C2368 H2390 0.930 . S
C2369 C2364 1.407 . S
C2369 C2368 1.384 . S
C2369 H2391 0.929 . S
C2370 O2380 1.241 . S
C2370 O2381 1.273 . S
C2371 O2382 1.251 . S
C2371 O2383 1.268 . S
O2372 Nd2352 2.500 . S
O2372 C2354 1.258 . S
O2373 Nd2352 2.492 . S
O2373 C2354 1.239 . S
O2374 Nd2352 2.487 . S
O2374 C2361 1.241 . S
O2375 Nd2352 2.682 . S
O2375 Nd2353 2.414 . S
O2375 C2361 1.273 . S
O2376 Nd2352 2.410 . S
O2376 C2362 1.251 . S
O2377 Nd2353 2.424 . S
O2377 C2362 1.268 . S
O2378 Nd2353 2.500 . S
O2378 C2363 1.258 . S
O2379 Nd2353 2.492 . S
O2379 C2363 1.239 . S
O2380 Nd2353 2.487 . S
O2380 C2370 1.241 . S
O2381 Nd2352 2.414 . S
O2381 Nd2353 2.682 . S
O2381 C2370 1.273 . S
O2382 Nd2353 2.410 . S
O2382 C2371 1.251 . S
O2383 Nd2352 2.424 . S
O2383 C2371 1.268 . S
H2384 C2356 0.930 . S
H2385 C2357 0.929 . S
H2386 C2359 0.930 . S
H2387 C2360 0.929 1_565 S
H2388 C2365 0.930 . S
H2389 C2366 0.929 . S
H2390 C2368 0.930 . S
H2391 C2369 0.929 . S
Nd2392 C2394 2.836 . S
Nd2392 O2412 2.500 . S
Nd2392 O2413 2.492 . S
Nd2392 O2414 2.487 . S
Nd2392 O2415 2.682 . S
Nd2392 O2416 2.410 . S
Nd2392 O2421 2.414 . S
Nd2392 O2423 2.424 . S
Nd2393 C2403 2.836 . S
Nd2393 O2415 2.414 . S
Nd2393 O2417 2.424 . S
Nd2393 O2418 2.500 . S
Nd2393 O2419 2.492 . S
Nd2393 O2420 2.487 . S
Nd2393 O2421 2.682 . S
Nd2393 O2422 2.410 . S
C2394 Nd2392 2.836 . S
C2394 C2395 1.498 . S
C2394 O2412 1.258 . S
C2394 O2413 1.239 . S
C2395 C2394 1.498 . S
C2395 C2396 1.366 . S
C2395 C2400 1.407 . S
C2396 C2395 1.366 . S
C2396 C2397 1.392 . S
C2396 H2424 0.930 . S
C2397 C2396 1.392 . S
C2397 C2398 1.398 . S
C2397 H2425 0.929 . S
C2398 C2397 1.398 . S
C2398 C2399 1.352 . S
C2399 C2398 1.352 . S
C2399 C2400 1.384 . S
C2399 H2426 0.930 . S
C2400 C2395 1.407 . S
C2400 C2399 1.384 . S
C2400 H2427 0.929 . S
C2401 O2414 1.241 . S
C2401 O2415 1.273 . S
C2402 O2416 1.251 . S
C2402 O2417 1.268 . S
C2403 Nd2393 2.836 . S
C2403 C2404 1.498 . S
C2403 O2418 1.258 . S
C2403 O2419 1.239 . S
C2404 C2403 1.498 . S
C2404 C2405 1.366 . S
C2404 C2409 1.407 . S
C2405 C2404 1.366 . S
C2405 C2406 1.392 . S
C2405 H2428 0.930 . S
C2406 C2405 1.392 . S
C2406 C2407 1.398 . S
C2406 H2429 0.929 . S
C2407 C2406 1.398 . S
C2407 C2408 1.352 . S
C2408 C2407 1.352 . S
C2408 C2409 1.384 . S
C2408 H2430 0.930 . S
C2409 C2404 1.407 . S
C2409 C2408 1.384 . S
C2409 H2431 0.929 . S
C2410 O2420 1.241 . S
C2410 O2421 1.273 . S
C2411 O2422 1.251 . S
C2411 O2423 1.268 . S
O2412 Nd2392 2.500 . S
O2412 C2394 1.258 . S
O2413 Nd2392 2.492 . S
O2413 C2394 1.239 . S
O2414 Nd2392 2.487 . S
O2414 C2401 1.241 . S
O2415 Nd2392 2.682 . S
O2415 Nd2393 2.414 . S
O2415 C2401 1.273 . S
O2416 Nd2392 2.410 . S
O2416 C2402 1.251 . S
O2417 Nd2393 2.424 . S
O2417 C2402 1.268 . S
O2418 Nd2393 2.500 . S
O2418 C2403 1.258 . S
O2419 Nd2393 2.492 . S
O2419 C2403 1.239 . S
O2420 Nd2393 2.487 . S
O2420 C2410 1.241 . S
O2421 Nd2392 2.414 . S
O2421 Nd2393 2.682 . S
O2421 C2410 1.273 . S
O2422 Nd2393 2.410 . S
O2422 C2411 1.251 . S
O2423 Nd2392 2.424 . S
O2423 C2411 1.268 . S
H2424 C2396 0.930 . S
H2425 C2397 0.929 . S
H2426 C2399 0.930 . S
H2427 C2400 0.929 . S
H2428 C2405 0.930 . S
H2429 C2406 0.929 . S
H2430 C2408 0.930 . S
H2431 C2409 0.929 . S
Nd2432 C2434 2.836 . S
Nd2432 O2452 2.500 . S
Nd2432 O2453 2.492 . S
Nd2432 O2454 2.487 . S
Nd2432 O2455 2.682 . S
Nd2432 O2456 2.410 . S
Nd2432 O2461 2.414 . S
Nd2432 O2463 2.424 . S
Nd2433 C2443 2.836 . S
Nd2433 O2455 2.414 . S
Nd2433 O2457 2.424 . S
Nd2433 O2458 2.500 . S
Nd2433 O2459 2.492 . S
Nd2433 O2460 2.487 . S
Nd2433 O2461 2.682 . S
Nd2433 O2462 2.410 . S
C2434 Nd2432 2.836 . S
C2434 C2435 1.498 . S
C2434 O2452 1.258 . S
C2434 O2453 1.239 . S
C2435 C2434 1.498 . S
C2435 C2436 1.366 . S
C2435 C2440 1.407 . S
C2436 C2435 1.366 . S
C2436 C2437 1.392 . S
C2436 H2464 0.930 . S
C2437 C2436 1.392 . S
C2437 C2438 1.398 . S
C2437 H2465 0.929 . S
C2438 C2437 1.398 . S
C2438 C2439 1.352 . S
C2439 C2438 1.352 . S
C2439 C2440 1.384 . S
C2439 H2466 0.930 . S
C2440 C2435 1.407 . S
C2440 C2439 1.384 . S
C2440 H2467 0.929 . S
C2441 O2454 1.241 . S
C2441 O2455 1.273 . S
C2442 O2456 1.251 . S
C2442 O2457 1.268 . S
C2443 Nd2433 2.836 . S
C2443 C2444 1.498 . S
C2443 O2458 1.258 . S
C2443 O2459 1.239 . S
C2444 C2443 1.498 . S
C2444 C2445 1.366 . S
C2444 C2449 1.407 . S
C2445 C2444 1.366 . S
C2445 C2446 1.392 . S
C2445 H2468 0.930 . S
C2446 C2445 1.392 . S
C2446 C2447 1.398 . S
C2446 H2469 0.929 . S
C2447 C2446 1.398 . S
C2447 C2448 1.352 . S
C2448 C2447 1.352 . S
C2448 C2449 1.384 . S
C2448 H2470 0.930 . S
C2449 C2444 1.407 . S
C2449 C2448 1.384 . S
C2449 H2471 0.929 . S
C2450 O2460 1.241 . S
C2450 O2461 1.273 . S
C2451 O2462 1.251 . S
C2451 O2463 1.268 . S
O2452 Nd2432 2.500 . S
O2452 C2434 1.258 . S
O2453 Nd2432 2.492 . S
O2453 C2434 1.239 . S
O2454 Nd2432 2.487 . S
O2454 C2441 1.241 . S
O2455 Nd2432 2.682 . S
O2455 Nd2433 2.414 . S
O2455 C2441 1.273 . S
O2456 Nd2432 2.410 . S
O2456 C2442 1.251 . S
O2457 Nd2433 2.424 . S
O2457 C2442 1.268 . S
O2458 Nd2433 2.500 . S
O2458 C2443 1.258 . S
O2459 Nd2433 2.492 . S
O2459 C2443 1.239 . S
O2460 Nd2433 2.487 . S
O2460 C2450 1.241 . S
O2461 Nd2432 2.414 . S
O2461 Nd2433 2.682 . S
O2461 C2450 1.273 . S
O2462 Nd2433 2.410 . S
O2462 C2451 1.251 . S
O2463 Nd2432 2.424 . S
O2463 C2451 1.268 . S
H2464 C2436 0.930 . S
H2465 C2437 0.929 . S
H2466 C2439 0.930 . S
H2467 C2440 0.929 . S
H2468 C2445 0.930 . S
H2469 C2446 0.929 . S
H2470 C2448 0.930 . S
H2471 C2449 0.929 . S
Nd2472 C2474 2.836 . S
Nd2472 O2492 2.500 . S
Nd2472 O2493 2.492 . S
Nd2472 O2494 2.487 . S
Nd2472 O2495 2.682 . S
Nd2472 O2496 2.410 . S
Nd2472 O2501 2.414 . S
Nd2472 O2503 2.424 . S
Nd2473 C2483 2.836 . S
Nd2473 O2495 2.414 . S
Nd2473 O2497 2.424 . S
Nd2473 O2498 2.500 . S
Nd2473 O2499 2.492 . S
Nd2473 O2500 2.487 . S
Nd2473 O2501 2.682 . S
Nd2473 O2502 2.410 . S
C2474 Nd2472 2.836 . S
C2474 C2475 1.498 . S
C2474 O2492 1.258 . S
C2474 O2493 1.239 . S
C2475 C2474 1.498 . S
C2475 C2476 1.366 . S
C2475 C2480 1.407 . S
C2476 C2475 1.366 . S
C2476 C2477 1.392 . S
C2476 H2504 0.930 . S
C2477 C2476 1.392 . S
C2477 C2478 1.398 . S
C2477 H2505 0.929 . S
C2478 C2477 1.398 . S
C2478 C2479 1.352 . S
C2479 C2478 1.352 . S
C2479 C2480 1.384 . S
C2479 H2506 0.930 . S
C2480 C2475 1.407 . S
C2480 C2479 1.384 . S
C2480 H2507 0.929 . S
C2481 O2494 1.241 . S
C2481 O2495 1.273 . S
C2482 O2496 1.251 . S
C2482 O2497 1.268 . S
C2483 Nd2473 2.836 . S
C2483 C2484 1.498 . S
C2483 O2498 1.258 . S
C2483 O2499 1.239 . S
C2484 C2483 1.498 . S
C2484 C2485 1.366 . S
C2484 C2489 1.407 . S
C2485 C2484 1.366 . S
C2485 C2486 1.392 . S
C2485 H2508 0.930 . S
C2486 C2485 1.392 . S
C2486 C2487 1.398 . S
C2486 H2509 0.929 . S
C2487 C2486 1.398 . S
C2487 C2488 1.352 . S
C2488 C2487 1.352 . S
C2488 C2489 1.384 . S
C2488 H2510 0.930 . S
C2489 C2484 1.407 . S
C2489 C2488 1.384 . S
C2489 H2511 0.929 . S
C2490 O2500 1.241 . S
C2490 O2501 1.273 . S
C2491 O2502 1.251 . S
C2491 O2503 1.268 . S
O2492 Nd2472 2.500 . S
O2492 C2474 1.258 . S
O2493 Nd2472 2.492 . S
O2493 C2474 1.239 . S
O2494 Nd2472 2.487 . S
O2494 C2481 1.241 . S
O2495 Nd2472 2.682 . S
O2495 Nd2473 2.414 . S
O2495 C2481 1.273 . S
O2496 Nd2472 2.410 . S
O2496 C2482 1.251 . S
O2497 Nd2473 2.424 . S
O2497 C2482 1.268 . S
O2498 Nd2473 2.500 . S
O2498 C2483 1.258 . S
O2499 Nd2473 2.492 . S
O2499 C2483 1.239 . S
O2500 Nd2473 2.487 . S
O2500 C2490 1.241 . S
O2501 Nd2472 2.414 . S
O2501 Nd2473 2.682 . S
O2501 C2490 1.273 . S
O2502 Nd2473 2.410 . S
O2502 C2491 1.251 . S
O2503 Nd2472 2.424 . S
O2503 C2491 1.268 . S
H2504 C2476 0.930 . S
H2505 C2477 0.929 . S
H2506 C2479 0.930 . S
H2507 C2480 0.929 . S
H2508 C2485 0.930 . S
H2509 C2486 0.929 . S
H2510 C2488 0.930 . S
H2511 C2489 0.929 . S
Nd2512 C2514 2.836 1_455 S
Nd2512 O2532 2.500 1_455 S
Nd2512 O2533 2.492 1_455 S
Nd2512 O2534 2.487 . S
Nd2512 O2535 2.682 . S
Nd2512 O2536 2.410 . S
Nd2512 O2541 2.414 . S
Nd2512 O2543 2.424 . S
Nd2513 C2523 2.836 . S
Nd2513 O2535 2.414 . S
Nd2513 O2537 2.424 . S
Nd2513 O2538 2.500 . S
Nd2513 O2539 2.492 . S
Nd2513 O2540 2.487 . S
Nd2513 O2541 2.682 . S
Nd2513 O2542 2.410 . S
C2514 Nd2512 2.836 1_655 S
C2514 C2515 1.498 . S
C2514 O2532 1.258 . S
C2514 O2533 1.239 . S
C2515 C2514 1.498 . S
C2515 C2516 1.366 . S
C2515 C2520 1.407 . S
C2516 C2515 1.366 . S
C2516 C2517 1.392 . S
C2516 H2544 0.930 . S
C2517 C2516 1.392 . S
C2517 C2518 1.398 . S
C2517 H2545 0.929 . S
C2518 C2517 1.398 . S
C2518 C2519 1.352 . S
C2519 C2518 1.352 . S
C2519 C2520 1.384 . S
C2519 H2546 0.930 . S
C2520 C2515 1.407 . S
C2520 C2519 1.384 . S
C2520 H2547 0.929 . S
C2521 O2534 1.241 . S
C2521 O2535 1.273 . S
C2522 O2536 1.251 . S
C2522 O2537 1.268 . S
C2523 Nd2513 2.836 . S
C2523 C2524 1.498 . S
C2523 O2538 1.258 . S
C2523 O2539 1.239 . S
C2524 C2523 1.498 . S
C2524 C2525 1.366 . S
C2524 C2529 1.407 . S
C2525 C2524 1.366 . S
C2525 C2526 1.392 . S
C2525 H2548 0.930 . S
C2526 C2525 1.392 . S
C2526 C2527 1.398 . S
C2526 H2549 0.929 . S
C2527 C2526 1.398 . S
C2527 C2528 1.352 . S
C2528 C2527 1.352 . S
C2528 C2529 1.384 . S
C2528 H2550 0.930 . S
C2529 C2524 1.407 . S
C2529 C2528 1.384 . S
C2529 H2551 0.929 . S
C2530 O2540 1.241 . S
C2530 O2541 1.273 . S
C2531 O2542 1.251 . S
C2531 O2543 1.268 . S
O2532 Nd2512 2.500 1_655 S
O2532 C2514 1.258 . S
O2533 Nd2512 2.492 1_655 S
O2533 C2514 1.239 . S
O2534 Nd2512 2.487 . S
O2534 C2521 1.241 . S
O2535 Nd2512 2.682 . S
O2535 Nd2513 2.414 . S
O2535 C2521 1.273 . S
O2536 Nd2512 2.410 . S
O2536 C2522 1.251 . S
O2537 Nd2513 2.424 . S
O2537 C2522 1.268 . S
O2538 Nd2513 2.500 . S
O2538 C2523 1.258 . S
O2539 Nd2513 2.492 . S
O2539 C2523 1.239 . S
O2540 Nd2513 2.487 . S
O2540 C2530 1.241 . S
O2541 Nd2512 2.414 . S
O2541 Nd2513 2.682 . S
O2541 C2530 1.273 . S
O2542 Nd2513 2.410 . S
O2542 C2531 1.251 . S
O2543 Nd2512 2.424 . S
O2543 C2531 1.268 . S
H2544 C2516 0.930 . S
H2545 C2517 0.929 . S
H2546 C2519 0.930 . S
H2547 C2520 0.929 . S
H2548 C2525 0.930 . S
H2549 C2526 0.929 . S
H2550 C2528 0.930 . S
H2551 C2529 0.929 . S
Nd2552 C2554 2.836 . S
Nd2552 O2572 2.500 . S
Nd2552 O2573 2.492 . S
Nd2552 O2574 2.487 . S
Nd2552 O2575 2.682 . S
Nd2552 O2576 2.410 . S
Nd2552 O2581 2.414 . S
Nd2552 O2583 2.424 . S
Nd2553 C2563 2.836 . S
Nd2553 O2575 2.414 . S
Nd2553 O2577 2.424 . S
Nd2553 O2578 2.500 . S
Nd2553 O2579 2.492 . S
Nd2553 O2580 2.487 . S
Nd2553 O2581 2.682 . S
Nd2553 O2582 2.410 . S
C2554 Nd2552 2.836 . S
C2554 C2555 1.498 . S
C2554 O2572 1.258 . S
C2554 O2573 1.239 . S
C2555 C2554 1.498 . S
C2555 C2556 1.366 . S
C2555 C2560 1.407 . S
C2556 C2555 1.366 . S
C2556 C2557 1.392 . S
C2556 H2584 0.930 . S
C2557 C2556 1.392 . S
C2557 C2558 1.398 . S
C2557 H2585 0.929 . S
C2558 C2557 1.398 . S
C2558 C2559 1.352 . S
C2559 C2558 1.352 . S
C2559 C2560 1.384 . S
C2559 H2586 0.930 . S
C2560 C2555 1.407 . S
C2560 C2559 1.384 . S
C2560 H2587 0.929 . S
C2561 O2574 1.241 . S
C2561 O2575 1.273 . S
C2562 O2576 1.251 . S
C2562 O2577 1.268 . S
C2563 Nd2553 2.836 . S
C2563 C2564 1.498 . S
C2563 O2578 1.258 . S
C2563 O2579 1.239 . S
C2564 C2563 1.498 . S
C2564 C2565 1.366 . S
C2564 C2569 1.407 . S
C2565 C2564 1.366 . S
C2565 C2566 1.392 . S
C2565 H2588 0.930 . S
C2566 C2565 1.392 . S
C2566 C2567 1.398 . S
C2566 H2589 0.929 . S
C2567 C2566 1.398 . S
C2567 C2568 1.352 . S
C2568 C2567 1.352 . S
C2568 C2569 1.384 . S
C2568 H2590 0.930 . S
C2569 C2564 1.407 . S
C2569 C2568 1.384 . S
C2569 H2591 0.929 . S
C2570 O2580 1.241 . S
C2570 O2581 1.273 . S
C2571 O2582 1.251 . S
C2571 O2583 1.268 . S
O2572 Nd2552 2.500 . S
O2572 C2554 1.258 . S
O2573 Nd2552 2.492 . S
O2573 C2554 1.239 . S
O2574 Nd2552 2.487 . S
O2574 C2561 1.241 . S
O2575 Nd2552 2.682 . S
O2575 Nd2553 2.414 . S
O2575 C2561 1.273 . S
O2576 Nd2552 2.410 . S
O2576 C2562 1.251 . S
O2577 Nd2553 2.424 . S
O2577 C2562 1.268 . S
O2578 Nd2553 2.500 . S
O2578 C2563 1.258 . S
O2579 Nd2553 2.492 . S
O2579 C2563 1.239 . S
O2580 Nd2553 2.487 . S
O2580 C2570 1.241 . S
O2581 Nd2552 2.414 . S
O2581 Nd2553 2.682 . S
O2581 C2570 1.273 . S
O2582 Nd2553 2.410 . S
O2582 C2571 1.251 . S
O2583 Nd2552 2.424 . S
O2583 C2571 1.268 . S
H2584 C2556 0.930 . S
H2585 C2557 0.929 . S
H2586 C2559 0.930 . S
H2587 C2560 0.929 . S
H2588 C2565 0.930 . S
H2589 C2566 0.929 . S
H2590 C2568 0.930 . S
H2591 C2569 0.929 . S
Nd2592 C2594 2.836 . S
Nd2592 O2612 2.500 . S
Nd2592 O2613 2.492 . S
Nd2592 O2614 2.487 . S
Nd2592 O2615 2.682 . S
Nd2592 O2616 2.410 . S
Nd2592 O2621 2.414 . S
Nd2592 O2623 2.424 . S
Nd2593 C2603 2.836 . S
Nd2593 O2615 2.414 . S
Nd2593 O2617 2.424 . S
Nd2593 O2618 2.500 . S
Nd2593 O2619 2.492 . S
Nd2593 O2620 2.487 . S
Nd2593 O2621 2.682 . S
Nd2593 O2622 2.410 . S
C2594 Nd2592 2.836 . S
C2594 C2595 1.498 . S
C2594 O2612 1.258 . S
C2594 O2613 1.239 . S
C2595 C2594 1.498 . S
C2595 C2596 1.366 . S
C2595 C2600 1.407 . S
C2596 C2595 1.366 . S
C2596 C2597 1.392 . S
C2596 H2624 0.930 . S
C2597 C2596 1.392 . S
C2597 C2598 1.398 . S
C2597 H2625 0.929 . S
C2598 C2597 1.398 . S
C2598 C2599 1.352 . S
C2599 C2598 1.352 . S
C2599 C2600 1.384 . S
C2599 H2626 0.930 . S
C2600 C2595 1.407 . S
C2600 C2599 1.384 . S
C2600 H2627 0.929 . S
C2601 O2614 1.241 . S
C2601 O2615 1.273 . S
C2602 O2616 1.251 . S
C2602 O2617 1.268 . S
C2603 Nd2593 2.836 . S
C2603 C2604 1.498 . S
C2603 O2618 1.258 . S
C2603 O2619 1.239 . S
C2604 C2603 1.498 . S
C2604 C2605 1.366 . S
C2604 C2609 1.407 . S
C2605 C2604 1.366 . S
C2605 C2606 1.392 . S
C2605 H2628 0.930 . S
C2606 C2605 1.392 . S
C2606 C2607 1.398 . S
C2606 H2629 0.929 . S
C2607 C2606 1.398 . S
C2607 C2608 1.352 . S
C2608 C2607 1.352 . S
C2608 C2609 1.384 . S
C2608 H2630 0.930 . S
C2609 C2604 1.407 . S
C2609 C2608 1.384 . S
C2609 H2631 0.929 . S
C2610 O2620 1.241 . S
C2610 O2621 1.273 . S
C2611 O2622 1.251 . S
C2611 O2623 1.268 . S
O2612 Nd2592 2.500 . S
O2612 C2594 1.258 . S
O2613 Nd2592 2.492 . S
O2613 C2594 1.239 . S
O2614 Nd2592 2.487 . S
O2614 C2601 1.241 . S
O2615 Nd2592 2.682 . S
O2615 Nd2593 2.414 . S
O2615 C2601 1.273 . S
O2616 Nd2592 2.410 . S
O2616 C2602 1.251 . S
O2617 Nd2593 2.424 . S
O2617 C2602 1.268 . S
O2618 Nd2593 2.500 . S
O2618 C2603 1.258 . S
O2619 Nd2593 2.492 . S
O2619 C2603 1.239 . S
O2620 Nd2593 2.487 . S
O2620 C2610 1.241 . S
O2621 Nd2592 2.414 . S
O2621 Nd2593 2.682 . S
O2621 C2610 1.273 . S
O2622 Nd2593 2.410 . S
O2622 C2611 1.251 . S
O2623 Nd2592 2.424 . S
O2623 C2611 1.268 . S
H2624 C2596 0.930 . S
H2625 C2597 0.929 . S
H2626 C2599 0.930 . S
H2627 C2600 0.929 . S
H2628 C2605 0.930 . S
H2629 C2606 0.929 . S
H2630 C2608 0.930 . S
H2631 C2609 0.929 . S
Nd2632 C2634 2.836 . S
Nd2632 O2652 2.500 . S
Nd2632 O2653 2.492 . S
Nd2632 O2654 2.487 . S
Nd2632 O2655 2.682 . S
Nd2632 O2656 2.410 . S
Nd2632 O2661 2.414 . S
Nd2632 O2663 2.424 . S
Nd2633 C2643 2.836 . S
Nd2633 O2655 2.414 . S
Nd2633 O2657 2.424 . S
Nd2633 O2658 2.500 . S
Nd2633 O2659 2.492 . S
Nd2633 O2660 2.487 . S
Nd2633 O2661 2.682 . S
Nd2633 O2662 2.410 . S
C2634 Nd2632 2.836 . S
C2634 C2635 1.498 . S
C2634 O2652 1.258 . S
C2634 O2653 1.239 . S
C2635 C2634 1.498 . S
C2635 C2636 1.366 . S
C2635 C2640 1.407 . S
C2636 C2635 1.366 . S
C2636 C2637 1.392 . S
C2636 H2664 0.930 . S
C2637 C2636 1.392 . S
C2637 C2638 1.398 . S
C2637 H2665 0.929 . S
C2638 C2637 1.398 . S
C2638 C2639 1.352 . S
C2639 C2638 1.352 . S
C2639 C2640 1.384 . S
C2639 H2666 0.930 . S
C2640 C2635 1.407 . S
C2640 C2639 1.384 . S
C2640 H2667 0.929 . S
C2641 O2654 1.241 . S
C2641 O2655 1.273 . S
C2642 O2656 1.251 . S
C2642 O2657 1.268 . S
C2643 Nd2633 2.836 . S
C2643 C2644 1.498 . S
C2643 O2658 1.258 . S
C2643 O2659 1.239 . S
C2644 C2643 1.498 . S
C2644 C2645 1.366 . S
C2644 C2649 1.407 . S
C2645 C2644 1.366 . S
C2645 C2646 1.392 . S
C2645 H2668 0.930 . S
C2646 C2645 1.392 . S
C2646 C2647 1.398 . S
C2646 H2669 0.929 . S
C2647 C2646 1.398 . S
C2647 C2648 1.352 . S
C2648 C2647 1.352 . S
C2648 C2649 1.384 . S
C2648 H2670 0.930 . S
C2649 C2644 1.407 . S
C2649 C2648 1.384 . S
C2649 H2671 0.929 . S
C2650 O2660 1.241 . S
C2650 O2661 1.273 . S
C2651 O2662 1.251 . S
C2651 O2663 1.268 . S
O2652 Nd2632 2.500 . S
O2652 C2634 1.258 . S
O2653 Nd2632 2.492 . S
O2653 C2634 1.239 . S
O2654 Nd2632 2.487 . S
O2654 C2641 1.241 . S
O2655 Nd2632 2.682 . S
O2655 Nd2633 2.414 . S
O2655 C2641 1.273 . S
O2656 Nd2632 2.410 . S
O2656 C2642 1.251 . S
O2657 Nd2633 2.424 . S
O2657 C2642 1.268 . S
O2658 Nd2633 2.500 . S
O2658 C2643 1.258 . S
O2659 Nd2633 2.492 . S
O2659 C2643 1.239 . S
O2660 Nd2633 2.487 . S
O2660 C2650 1.241 . S
O2661 Nd2632 2.414 . S
O2661 Nd2633 2.682 . S
O2661 C2650 1.273 . S
O2662 Nd2633 2.410 . S
O2662 C2651 1.251 . S
O2663 Nd2632 2.424 . S
O2663 C2651 1.268 . S
H2664 C2636 0.930 . S
H2665 C2637 0.929 . S
H2666 C2639 0.930 . S
H2667 C2640 0.929 . S
H2668 C2645 0.930 . S
H2669 C2646 0.929 . S
H2670 C2648 0.930 . S
H2671 C2649 0.929 . S
Nd2672 C2674 2.836 . S
Nd2672 O2692 2.500 . S
Nd2672 O2693 2.492 . S
Nd2672 O2694 2.487 . S
Nd2672 O2695 2.682 . S
Nd2672 O2696 2.410 . S
Nd2672 O2701 2.414 . S
Nd2672 O2703 2.424 . S
Nd2673 C2683 2.836 . S
Nd2673 O2695 2.414 . S
Nd2673 O2697 2.424 . S
Nd2673 O2698 2.500 . S
Nd2673 O2699 2.492 . S
Nd2673 O2700 2.487 . S
Nd2673 O2701 2.682 . S
Nd2673 O2702 2.410 . S
C2674 Nd2672 2.836 . S
C2674 C2675 1.498 . S
C2674 O2692 1.258 . S
C2674 O2693 1.239 . S
C2675 C2674 1.498 . S
C2675 C2676 1.366 . S
C2675 C2680 1.407 . S
C2676 C2675 1.366 . S
C2676 C2677 1.392 . S
C2676 H2704 0.930 . S
C2677 C2676 1.392 . S
C2677 C2678 1.398 . S
C2677 H2705 0.929 . S
C2678 C2677 1.398 . S
C2678 C2679 1.352 . S
C2679 C2678 1.352 . S
C2679 C2680 1.384 . S
C2679 H2706 0.930 . S
C2680 C2675 1.407 . S
C2680 C2679 1.384 . S
C2680 H2707 0.929 . S
C2681 O2694 1.241 . S
C2681 O2695 1.273 . S
C2682 O2696 1.251 . S
C2682 O2697 1.268 . S
C2683 Nd2673 2.836 . S
C2683 C2684 1.498 . S
C2683 O2698 1.258 . S
C2683 O2699 1.239 . S
C2684 C2683 1.498 . S
C2684 C2685 1.366 . S
C2684 C2689 1.407 . S
C2685 C2684 1.366 . S
C2685 C2686 1.392 . S
C2685 H2708 0.930 . S
C2686 C2685 1.392 . S
C2686 C2687 1.398 . S
C2686 H2709 0.929 . S
C2687 C2686 1.398 . S
C2687 C2688 1.352 . S
C2688 C2687 1.352 . S
C2688 C2689 1.384 . S
C2688 H2710 0.930 . S
C2689 C2684 1.407 . S
C2689 C2688 1.384 . S
C2689 H2711 0.929 . S
C2690 O2700 1.241 . S
C2690 O2701 1.273 . S
C2691 O2702 1.251 . S
C2691 O2703 1.268 . S
O2692 Nd2672 2.500 . S
O2692 C2674 1.258 . S
O2693 Nd2672 2.492 . S
O2693 C2674 1.239 . S
O2694 Nd2672 2.487 . S
O2694 C2681 1.241 . S
O2695 Nd2672 2.682 . S
O2695 Nd2673 2.414 . S
O2695 C2681 1.273 . S
O2696 Nd2672 2.410 . S
O2696 C2682 1.251 . S
O2697 Nd2673 2.424 . S
O2697 C2682 1.268 . S
O2698 Nd2673 2.500 . S
O2698 C2683 1.258 . S
O2699 Nd2673 2.492 . S
O2699 C2683 1.239 . S
O2700 Nd2673 2.487 . S
O2700 C2690 1.241 . S
O2701 Nd2672 2.414 . S
O2701 Nd2673 2.682 . S
O2701 C2690 1.273 . S
O2702 Nd2673 2.410 . S
O2702 C2691 1.251 . S
O2703 Nd2672 2.424 . S
O2703 C2691 1.268 . S
H2704 C2676 0.930 . S
H2705 C2677 0.929 . S
H2706 C2679 0.930 . S
H2707 C2680 0.929 . S
H2708 C2685 0.930 . S
H2709 C2686 0.929 . S
H2710 C2688 0.930 . S
H2711 C2689 0.929 . S
Nd2712 C2714 2.836 . S
Nd2712 O2732 2.500 . S
Nd2712 O2733 2.492 . S
Nd2712 O2734 2.487 . S
Nd2712 O2735 2.682 . S
Nd2712 O2736 2.410 . S
Nd2712 O2741 2.414 . S
Nd2712 O2743 2.424 . S
Nd2713 C2723 2.836 1_455 S
Nd2713 O2735 2.414 . S
Nd2713 O2737 2.424 . S
Nd2713 O2738 2.500 1_455 S
Nd2713 O2739 2.492 1_455 S
Nd2713 O2740 2.487 . S
Nd2713 O2741 2.682 . S
Nd2713 O2742 2.410 . S
C2714 Nd2712 2.836 . S
C2714 C2715 1.498 . S
C2714 O2732 1.258 . S
C2714 O2733 1.239 . S
C2715 C2714 1.498 . S
C2715 C2716 1.366 . S
C2715 C2720 1.407 . S
C2716 C2715 1.366 . S
C2716 C2717 1.392 . S
C2716 H2744 0.930 . S
C2717 C2716 1.392 . S
C2717 C2718 1.398 . S
C2717 H2745 0.929 . S
C2718 C2717 1.398 . S
C2718 C2719 1.352 . S
C2719 C2718 1.352 . S
C2719 C2720 1.384 . S
C2719 H2746 0.930 . S
C2720 C2715 1.407 . S
C2720 C2719 1.384 . S
C2720 H2747 0.929 . S
C2721 O2734 1.241 . S
C2721 O2735 1.273 . S
C2722 O2736 1.251 . S
C2722 O2737 1.268 . S
C2723 Nd2713 2.836 1_655 S
C2723 C2724 1.498 . S
C2723 O2738 1.258 . S
C2723 O2739 1.239 . S
C2724 C2723 1.498 . S
C2724 C2725 1.366 . S
C2724 C2729 1.407 . S
C2725 C2724 1.366 . S
C2725 C2726 1.392 . S
C2725 H2748 0.930 . S
C2726 C2725 1.392 . S
C2726 C2727 1.398 . S
C2726 H2749 0.929 . S
C2727 C2726 1.398 . S
C2727 C2728 1.352 . S
C2728 C2727 1.352 . S
C2728 C2729 1.384 . S
C2728 H2750 0.930 . S
C2729 C2724 1.407 . S
C2729 C2728 1.384 . S
C2729 H2751 0.929 . S
C2730 O2740 1.241 . S
C2730 O2741 1.273 . S
C2731 O2742 1.251 . S
C2731 O2743 1.268 . S
O2732 Nd2712 2.500 . S
O2732 C2714 1.258 . S
O2733 Nd2712 2.492 . S
O2733 C2714 1.239 . S
O2734 Nd2712 2.487 . S
O2734 C2721 1.241 . S
O2735 Nd2712 2.682 . S
O2735 Nd2713 2.414 . S
O2735 C2721 1.273 . S
O2736 Nd2712 2.410 . S
O2736 C2722 1.251 . S
O2737 Nd2713 2.424 . S
O2737 C2722 1.268 . S
O2738 Nd2713 2.500 1_655 S
O2738 C2723 1.258 . S
O2739 Nd2713 2.492 1_655 S
O2739 C2723 1.239 . S
O2740 Nd2713 2.487 . S
O2740 C2730 1.241 . S
O2741 Nd2712 2.414 . S
O2741 Nd2713 2.682 . S
O2741 C2730 1.273 . S
O2742 Nd2713 2.410 . S
O2742 C2731 1.251 . S
O2743 Nd2712 2.424 . S
O2743 C2731 1.268 . S
H2744 C2716 0.930 . S
H2745 C2717 0.929 . S
H2746 C2719 0.930 . S
H2747 C2720 0.929 . S
H2748 C2725 0.930 . S
H2749 C2726 0.929 . S
H2750 C2728 0.930 . S
H2751 C2729 0.929 . S
C2752 C2753 1.387 1_554 S
C2752 H2756 0.950 1_554 S
C2752 C2761 1.390 . S
C2753 C2752 1.387 1_556 S
C2753 C2755 1.387 1_556 S
H2754 C2761 0.950 . S
C2755 C2753 1.387 1_554 S
C2755 C2757 1.390 . S
C2755 H2759 0.950 1_554 S
H2756 C2752 0.950 1_556 S
C2757 C2755 1.390 . S
C2757 C2758 1.387 . S
C2757 H2760 0.950 . S
C2758 C2757 1.387 . S
C2758 C2761 1.387 . S
H2759 C2755 0.950 1_556 S
H2760 C2757 0.950 . S
C2761 C2752 1.390 . S
C2761 H2754 0.950 . S
C2761 C2758 1.387 . S
C2762 C2763 1.387 . S
C2762 H2766 0.950 . S
C2762 C2771 1.390 . S
C2763 C2762 1.387 . S
C2763 C2765 1.387 . S
H2764 C2771 0.950 . S
C2765 C2763 1.387 . S
C2765 C2767 1.390 . S
C2765 H2769 0.950 . S
H2766 C2762 0.950 . S
C2767 C2765 1.390 . S
C2767 C2768 1.387 . S
C2767 H2770 0.950 . S
C2768 C2767 1.387 . S
C2768 C2771 1.387 . S
H2769 C2765 0.950 . S
H2770 C2767 0.950 . S
C2771 C2762 1.390 . S
C2771 H2764 0.950 . S
C2771 C2768 1.387 . S
C2772 C2773 1.387 . S
C2772 H2776 0.950 . S
C2772 C2781 1.381 1_565 S
C2773 C2772 1.387 . S
C2773 C2775 1.387 . S
H2774 C2781 0.960 . S
C2775 C2773 1.387 . S
C2775 C2777 1.390 . S
C2775 H2779 0.950 . S
H2776 C2772 0.950 . S
C2777 C2775 1.390 . S
C2777 C2778 1.387 . S
C2777 H2780 0.950 . S
C2778 C2777 1.387 . S
C2778 C2781 1.387 1_565 S
H2779 C2775 0.950 . S
H2780 C2777 0.950 . S
C2781 C2772 1.381 1_545 S
C2781 H2774 0.960 . S
C2781 C2778 1.387 1_545 S
C2782 C2783 1.387 . S
C2782 H2786 0.950 . S
C2782 C2791 1.390 . S
C2783 C2782 1.387 . S
C2783 C2785 1.387 . S
H2784 C2791 0.950 . S
C2785 C2783 1.387 . S
C2785 C2787 1.390 . S
C2785 H2789 0.950 . S
H2786 C2782 0.950 . S
C2787 C2785 1.390 . S
C2787 C2788 1.387 . S
C2787 H2790 0.950 . S
C2788 C2787 1.387 . S
C2788 C2791 1.387 . S
H2789 C2785 0.950 . S
H2790 C2787 0.950 . S
C2791 C2782 1.390 . S
C2791 H2784 0.950 . S
C2791 C2788 1.387 . S
C2792 C2793 1.387 . S
C2792 H2796 0.950 . S
C2792 C2801 1.390 . S
C2793 C2792 1.387 . S
C2793 C2795 1.387 . S
H2794 C2801 0.950 . S
C2795 C2793 1.387 . S
C2795 C2797 1.390 . S
C2795 H2799 0.950 . S
H2796 C2792 0.950 . S
C2797 C2795 1.390 . S
C2797 C2798 1.387 . S
C2797 H2800 0.950 . S
C2798 C2797 1.387 . S
C2798 C2801 1.387 . S
H2799 C2795 0.950 . S
H2800 C2797 0.950 . S
C2801 C2792 1.390 . S
C2801 H2794 0.950 . S
C2801 C2798 1.387 . S
C2802 C2803 1.387 . S
C2802 H2806 0.950 . S
C2802 C2811 1.390 . S
C2803 C2802 1.387 . S
C2803 C2805 1.387 . S
H2804 C2811 0.950 . S
C2805 C2803 1.387 . S
C2805 C2807 1.390 . S
C2805 H2809 0.950 . S
H2806 C2802 0.950 . S
C2807 C2805 1.390 . S
C2807 C2808 1.387 . S
C2807 H2810 0.950 . S
C2808 C2807 1.387 . S
C2808 C2811 1.387 . S
H2809 C2805 0.950 . S
H2810 C2807 0.950 . S
C2811 C2802 1.390 . S
C2811 H2804 0.950 . S
C2811 C2808 1.387 . S
C2812 C2813 1.387 . S
C2812 H2816 0.950 . S
C2812 C2821 1.390 . S
C2813 C2812 1.387 . S
C2813 C2815 1.387 . S
H2814 C2821 0.950 . S
C2815 C2813 1.387 . S
C2815 C2817 1.390 . S
C2815 H2819 0.950 . S
H2816 C2812 0.950 . S
C2817 C2815 1.390 . S
C2817 C2818 1.387 . S
C2817 H2820 0.950 . S
C2818 C2817 1.387 . S
C2818 C2821 1.387 . S
H2819 C2815 0.950 . S
H2820 C2817 0.950 . S
C2821 C2812 1.390 . S
C2821 H2814 0.950 . S
C2821 C2818 1.387 . S
C2822 C2823 1.387 . S
C2822 H2826 0.950 . S
C2822 C2831 1.390 . S
C2823 C2822 1.387 . S
C2823 C2825 1.387 . S
H2824 C2831 0.950 . S
C2825 C2823 1.387 . S
C2825 C2827 1.390 . S
C2825 H2829 0.950 . S
H2826 C2822 0.950 . S
C2827 C2825 1.390 . S
C2827 C2828 1.387 . S
C2827 H2830 0.950 . S
C2828 C2827 1.387 . S
C2828 C2831 1.387 . S
H2829 C2825 0.950 . S
H2830 C2827 0.950 . S
C2831 C2822 1.390 . S
C2831 H2824 0.950 . S
C2831 C2828 1.387 . S
C2832 C2833 1.387 . S
C2832 H2836 0.950 . S
C2832 C2841 1.390 1_655 S
C2833 C2832 1.387 . S
C2833 C2835 1.387 . S
H2834 C2841 0.950 . S
C2835 C2833 1.387 . S
C2835 C2837 1.390 1_655 S
C2835 H2839 0.950 . S
H2836 C2832 0.950 . S
C2837 C2835 1.390 1_455 S
C2837 C2838 1.387 . S
C2837 H2840 0.950 . S
C2838 C2837 1.387 . S
C2838 C2841 1.387 . S
H2839 C2835 0.950 . S
H2840 C2837 0.950 . S
C2841 C2832 1.390 1_455 S
C2841 H2834 0.950 . S
C2841 C2838 1.387 . S
C2842 C2843 1.387 . S
C2842 H2846 0.950 . S
C2842 C2851 1.390 . S
C2843 C2842 1.387 . S
C2843 C2845 1.387 . S
H2844 C2851 0.950 . S
C2845 C2843 1.387 . S
C2845 C2847 1.390 . S
C2845 H2849 0.950 . S
H2846 C2842 0.950 . S
C2847 C2845 1.390 . S
C2847 C2848 1.387 . S
C2847 H2850 0.950 . S
C2848 C2847 1.387 . S
C2848 C2851 1.387 . S
H2849 C2845 0.950 . S
H2850 C2847 0.950 . S
C2851 C2842 1.390 . S
C2851 H2844 0.950 . S
C2851 C2848 1.387 . S
C2852 C2853 1.391 . S
C2852 H2856 0.950 . S
C2852 C2861 1.390 . S
C2853 C2852 1.391 . S
C2853 C2855 1.393 . S
H2854 C2861 0.950 . S
C2855 C2853 1.393 . S
C2855 C2857 1.390 . S
C2855 H2859 0.953 . S
H2856 C2852 0.950 . S
C2857 C2855 1.390 . S
C2857 C2858 1.387 . S
C2857 H2860 0.950 . S
C2858 C2857 1.387 . S
C2858 C2861 1.387 . S
H2859 C2855 0.953 . S
H2860 C2857 0.950 . S
C2861 C2852 1.390 . S
C2861 H2854 0.950 . S
C2861 C2858 1.387 . S
C2862 C2863 1.387 . S
C2862 H2866 0.950 . S
C2862 C2871 1.390 1_554 S
C2863 C2862 1.387 . S
C2863 C2865 1.387 . S
H2864 C2871 0.950 . S
C2865 C2863 1.387 . S
C2865 C2867 1.390 . S
C2865 H2869 0.950 . S
H2866 C2862 0.950 . S
C2867 C2865 1.390 . S
C2867 C2868 1.387 1_554 S
C2867 H2870 0.949 1_554 S
C2868 C2867 1.387 1_556 S
C2868 C2871 1.387 . S
H2869 C2865 0.950 . S
H2870 C2867 0.949 1_556 S
C2871 C2862 1.390 1_556 S
C2871 H2864 0.950 . S
C2871 C2868 1.387 . S
C2872 C2873 1.387 . S
C2872 H2876 0.950 . S
C2872 C2881 1.390 . S
C2873 C2872 1.387 . S
C2873 C2875 1.387 1_655 S
H2874 C2881 0.950 . S
C2875 C2873 1.387 1_455 S
C2875 C2877 1.390 . S
C2875 H2879 0.950 . S
H2876 C2872 0.950 . S
C2877 C2875 1.390 . S
C2877 C2878 1.387 . S
C2877 H2880 0.950 . S
C2878 C2877 1.387 . S
C2878 C2881 1.387 1_455 S
H2879 C2875 0.950 . S
H2880 C2877 0.950 . S
C2881 C2872 1.390 . S
C2881 H2874 0.950 . S
C2881 C2878 1.387 1_655 S
C2882 C2883 1.387 . S
C2882 H2886 0.950 . S
C2882 C2891 1.390 . S
C2883 C2882 1.387 . S
C2883 C2885 1.387 . S
H2884 C2891 0.950 . S
C2885 C2883 1.387 . S
C2885 C2887 1.390 . S
C2885 H2889 0.950 . S
H2886 C2882 0.950 . S
C2887 C2885 1.390 . S
C2887 C2888 1.387 . S
C2887 H2890 0.950 . S
C2888 C2887 1.387 . S
C2888 C2891 1.387 . S
H2889 C2885 0.950 . S
H2890 C2887 0.950 . S
C2891 C2882 1.390 . S
C2891 H2884 0.950 . S
C2891 C2888 1.387 . S
C2892 C2893 1.387 . S
C2892 H2896 0.950 . S
C2892 C2901 1.390 . S
C2893 C2892 1.387 . S
C2893 C2895 1.387 . S
H2894 C2901 0.950 . S
C2895 C2893 1.387 . S
C2895 C2897 1.390 . S
C2895 H2899 0.950 . S
H2896 C2892 0.950 . S
C2897 C2895 1.390 . S
C2897 C2898 1.387 . S
C2897 H2900 0.950 . S
C2898 C2897 1.387 . S
C2898 C2901 1.387 . S
H2899 C2895 0.950 . S
H2900 C2897 0.950 . S
C2901 C2892 1.390 . S
C2901 H2894 0.950 . S
C2901 C2898 1.387 . S
C2902 C2903 1.387 . S
C2902 H2906 0.950 . S
C2902 C2911 1.390 . S
C2903 C2902 1.387 . S
C2903 C2905 1.387 . S
H2904 C2911 0.950 . S
C2905 C2903 1.387 . S
C2905 C2907 1.390 . S
C2905 H2909 0.950 . S
H2906 C2902 0.950 . S
C2907 C2905 1.390 . S
C2907 C2908 1.387 . S
C2907 H2910 0.950 . S
C2908 C2907 1.387 . S
C2908 C2911 1.387 . S
H2909 C2905 0.950 . S
H2910 C2907 0.950 . S
C2911 C2902 1.390 . S
C2911 H2904 0.950 . S
C2911 C2908 1.387 . S
C2912 C2913 1.387 . S
C2912 H2916 0.950 . S
C2912 C2921 1.390 1_565 S
C2913 C2912 1.387 . S
C2913 C2915 1.389 1_565 S
H2914 C2921 0.950 . S
C2915 C2913 1.389 1_545 S
C2915 C2917 1.388 . S
C2915 H2919 0.951 1_545 S
H2916 C2912 0.950 . S
C2917 C2915 1.388 . S
C2917 C2918 1.387 . S
C2917 H2920 0.950 . S
C2918 C2917 1.387 . S
C2918 C2921 1.387 . S
H2919 C2915 0.951 1_565 S
H2920 C2917 0.950 . S
C2921 C2912 1.390 1_545 S
C2921 H2914 0.950 . S
C2921 C2918 1.387 . S
C2922 C2923 1.386 1_554 S
C2922 H2926 0.950 . S
C2922 C2931 1.390 . S
C2923 C2922 1.386 1_556 S
C2923 C2925 1.383 1_556 S
H2924 C2931 0.950 . S
C2925 C2923 1.383 1_554 S
C2925 C2927 1.402 . S
C2925 H2929 0.942 1_554 S
H2926 C2922 0.950 . S
C2927 C2925 1.402 . S
C2927 C2928 1.387 . S
C2927 H2930 0.950 . S
C2928 C2927 1.387 . S
C2928 C2931 1.387 . S
H2929 C2925 0.942 1_556 S
H2930 C2927 0.950 . S
C2931 C2922 1.390 . S
C2931 H2924 0.950 . S
C2931 C2928 1.387 . S
C2932 C2933 1.387 . S
C2932 H2936 0.950 . S
C2932 C2941 1.390 . S
C2933 C2932 1.387 . S
C2933 C2935 1.387 . S
H2934 C2941 0.950 . S
C2935 C2933 1.387 . S
C2935 C2937 1.390 . S
C2935 H2939 0.950 . S
H2936 C2932 0.950 . S
C2937 C2935 1.390 . S
C2937 C2938 1.387 . S
C2937 H2940 0.950 . S
C2938 C2937 1.387 . S
C2938 C2941 1.387 . S
H2939 C2935 0.950 . S
H2940 C2937 0.950 . S
C2941 C2932 1.390 . S
C2941 H2934 0.950 . S
C2941 C2938 1.387 . S
C2942 C2943 1.387 . S
C2942 H2946 0.950 . S
C2942 C2951 1.390 . S
C2943 C2942 1.387 . S
C2943 C2945 1.387 . S
H2944 C2951 0.950 . S
C2945 C2943 1.387 . S
C2945 C2947 1.390 . S
C2945 H2949 0.950 . S
H2946 C2942 0.950 . S
C2947 C2945 1.390 . S
C2947 C2948 1.387 . S
C2947 H2950 0.950 . S
C2948 C2947 1.387 . S
C2948 C2951 1.387 . S
H2949 C2945 0.950 . S
H2950 C2947 0.950 . S
C2951 C2942 1.390 . S
C2951 H2944 0.950 . S
C2951 C2948 1.387 . S
C2952 C2953 1.387 . S
C2952 H2956 0.950 . S
C2952 C2961 1.390 . S
C2953 C2952 1.387 . S
C2953 C2955 1.387 . S
H2954 C2961 0.950 . S
C2955 C2953 1.387 . S
C2955 C2957 1.390 . S
C2955 H2959 0.950 . S
H2956 C2952 0.950 . S
C2957 C2955 1.390 . S
C2957 C2958 1.387 . S
C2957 H2960 0.950 . S
C2958 C2957 1.387 . S
C2958 C2961 1.387 . S
H2959 C2955 0.950 . S
H2960 C2957 0.950 . S
C2961 C2952 1.390 . S
C2961 H2954 0.950 . S
C2961 C2958 1.387 . S
C2962 C2963 1.387 . S
C2962 H2966 0.950 . S
C2962 C2971 1.390 . S
C2963 C2962 1.387 . S
C2963 C2965 1.387 . S
H2964 C2971 0.950 . S
C2965 C2963 1.387 . S
C2965 C2967 1.390 . S
C2965 H2969 0.950 . S
H2966 C2962 0.950 . S
C2967 C2965 1.390 . S
C2967 C2968 1.387 . S
C2967 H2970 0.950 . S
C2968 C2967 1.387 . S
C2968 C2971 1.387 . S
H2969 C2965 0.950 . S
H2970 C2967 0.950 . S
C2971 C2962 1.390 . S
C2971 H2964 0.950 . S
C2971 C2968 1.387 . S
C2972 C2973 1.387 . S
C2972 H2976 0.950 . S
C2972 C2981 1.390 . S
C2973 C2972 1.387 . S
C2973 C2975 1.387 . S
H2974 C2981 0.950 . S
C2975 C2973 1.387 . S
C2975 C2977 1.390 . S
C2975 H2979 0.950 . S
H2976 C2972 0.950 . S
C2977 C2975 1.390 . S
C2977 C2978 1.387 . S
C2977 H2980 0.950 . S
C2978 C2977 1.387 . S
C2978 C2981 1.387 . S
H2979 C2975 0.950 . S
H2980 C2977 0.950 . S
C2981 C2972 1.390 . S
C2981 H2974 0.950 . S
C2981 C2978 1.387 . S
C2982 C2983 1.387 . S
C2982 H2986 0.950 . S
C2982 C2991 1.390 . S
C2983 C2982 1.387 . S
C2983 C2985 1.387 . S
H2984 C2991 0.950 . S
C2985 C2983 1.387 . S
C2985 C2987 1.390 . S
C2985 H2989 0.950 . S
H2986 C2982 0.950 . S
C2987 C2985 1.390 . S
C2987 C2988 1.387 . S
C2987 H2990 0.950 . S
C2988 C2987 1.387 . S
C2988 C2991 1.387 . S
H2989 C2985 0.950 . S
H2990 C2987 0.950 . S
C2991 C2982 1.390 . S
C2991 H2984 0.950 . S
C2991 C2988 1.387 . S
C2992 C2993 1.387 . S
C2992 H2996 0.950 . S
C2992 C3001 1.390 . S
C2993 C2992 1.387 . S
C2993 C2995 1.387 . S
H2994 C3001 0.939 1_655 S
C2995 C2993 1.387 . S
C2995 C2997 1.390 . S
C2995 H2999 0.950 . S
H2996 C2992 0.950 . S
C2997 C2995 1.390 . S
C2997 C2998 1.387 . S
C2997 H3000 0.950 . S
C2998 C2997 1.387 . S
C2998 C3001 1.387 . S
H2999 C2995 0.950 . S
H3000 C2997 0.950 . S
C3001 C2992 1.390 . S
C3001 H2994 0.939 1_455 S
C3001 C2998 1.387 . S
C3002 C3003 1.387 . S
C3002 H3006 0.950 . S
C3002 C3011 1.390 . S
C3003 C3002 1.387 . S
C3003 C3005 1.387 . S
H3004 C3011 0.950 . S
C3005 C3003 1.387 . S
C3005 C3007 1.390 . S
C3005 H3009 0.950 . S
H3006 C3002 0.950 . S
C3007 C3005 1.390 . S
C3007 C3008 1.387 . S
C3007 H3010 0.950 . S
C3008 C3007 1.387 . S
C3008 C3011 1.387 . S
H3009 C3005 0.950 . S
H3010 C3007 0.950 . S
C3011 C3002 1.390 . S
C3011 H3004 0.950 . S
C3011 C3008 1.387 . S
C3012 C3013 1.387 . S
C3012 H3016 0.950 . S
C3012 C3021 1.390 . S
C3013 C3012 1.387 . S
C3013 C3015 1.387 . S
H3014 C3021 0.950 . S
C3015 C3013 1.387 . S
C3015 C3017 1.390 . S
C3015 H3019 0.950 . S
H3016 C3012 0.950 . S
C3017 C3015 1.390 . S
C3017 C3018 1.387 . S
C3017 H3020 0.950 . S
C3018 C3017 1.387 . S
C3018 C3021 1.387 . S
H3019 C3015 0.950 . S
H3020 C3017 0.950 . S
C3021 C3012 1.390 . S
C3021 H3014 0.950 . S
C3021 C3018 1.387 . S
C3022 C3023 1.387 . S
C3022 H3026 0.950 . S
C3022 C3031 1.390 . S
C3023 C3022 1.387 . S
C3023 C3025 1.387 . S
H3024 C3031 0.950 . S
C3025 C3023 1.387 . S
C3025 C3027 1.390 . S
C3025 H3029 0.950 . S
H3026 C3022 0.950 . S
C3027 C3025 1.390 . S
C3027 C3028 1.387 . S
C3027 H3030 0.950 . S
C3028 C3027 1.387 . S
C3028 C3031 1.387 . S
H3029 C3025 0.950 . S
H3030 C3027 0.950 . S
C3031 C3022 1.390 . S
C3031 H3024 0.950 . S
C3031 C3028 1.387 . S
C3032 C3033 1.387 . S
C3032 H3036 0.950 . S
C3032 C3041 1.390 . S
C3033 C3032 1.387 . S
C3033 C3035 1.387 . S
H3034 C3041 0.950 . S
C3035 C3033 1.387 . S
C3035 C3037 1.390 . S
C3035 H3039 0.950 . S
H3036 C3032 0.950 . S
C3037 C3035 1.390 . S
C3037 C3038 1.387 . S
C3037 H3040 0.950 . S
C3038 C3037 1.387 . S
C3038 C3041 1.387 . S
H3039 C3035 0.950 . S
H3040 C3037 0.950 . S
C3041 C3032 1.390 . S
C3041 H3034 0.950 . S
C3041 C3038 1.387 . S
C3042 C3043 1.387 . S
C3042 H3046 0.950 . S
C3042 C3051 1.390 . S
C3043 C3042 1.387 . S
C3043 C3045 1.387 . S
H3044 C3051 0.950 . S
C3045 C3043 1.387 . S
C3045 C3047 1.390 . S
C3045 H3049 0.950 . S
H3046 C3042 0.950 . S
C3047 C3045 1.390 . S
C3047 C3048 1.387 . S
C3047 H3050 0.950 . S
C3048 C3047 1.387 . S
C3048 C3051 1.387 . S
H3049 C3045 0.950 . S
H3050 C3047 0.950 . S
C3051 C3042 1.390 . S
C3051 H3044 0.950 . S
C3051 C3048 1.387 . S
C3052 C3053 1.387 . S
C3052 H3056 0.950 . S
C3052 C3061 1.390 . S
C3053 C3052 1.387 . S
C3053 C3055 1.387 1_565 S
H3054 C3061 0.950 . S
C3055 C3053 1.387 1_545 S
C3055 C3057 1.390 . S
C3055 H3059 0.950 . S
H3056 C3052 0.950 . S
C3057 C3055 1.390 . S
C3057 C3058 1.387 . S
C3057 H3060 0.950 . S
C3058 C3057 1.387 . S
C3058 C3061 1.387 1_545 S
H3059 C3055 0.950 . S
H3060 C3057 0.950 . S
C3061 C3052 1.390 . S
C3061 H3054 0.950 . S
C3061 C3058 1.387 1_565 S
C3062 C3063 1.387 . S
C3062 H3066 0.950 . S
C3062 C3071 1.390 . S
C3063 C3062 1.387 . S
C3063 C3065 1.387 . S
H3064 C3071 0.950 . S
C3065 C3063 1.387 . S
C3065 C3067 1.390 . S
C3065 H3069 0.950 . S
H3066 C3062 0.950 . S
C3067 C3065 1.390 . S
C3067 C3068 1.387 . S
C3067 H3070 0.950 . S
C3068 C3067 1.387 . S
C3068 C3071 1.387 . S
H3069 C3065 0.950 . S
H3070 C3067 0.950 . S
C3071 C3062 1.390 . S
C3071 H3064 0.950 . S
C3071 C3068 1.387 . S
C3072 C3073 1.387 . S
C3072 H3076 0.950 . S
C3072 C3081 1.390 . S
C3073 C3072 1.387 . S
C3073 C3075 1.387 . S
H3074 C3081 0.950 . S
C3075 C3073 1.387 . S
C3075 C3077 1.390 . S
C3075 H3079 0.950 . S
H3076 C3072 0.950 . S
C3077 C3075 1.390 . S
C3077 C3078 1.387 . S
C3077 H3080 0.950 . S
C3078 C3077 1.387 . S
C3078 C3081 1.387 . S
H3079 C3075 0.950 . S
H3080 C3077 0.950 . S
C3081 C3072 1.390 . S
C3081 H3074 0.950 . S
C3081 C3078 1.387 . S
C3082 C3083 1.387 . S
C3082 H3086 0.950 . S
C3082 C3091 1.390 . S
C3083 C3082 1.387 . S
C3083 C3085 1.387 . S
H3084 C3091 0.950 . S
C3085 C3083 1.387 . S
C3085 C3087 1.390 . S
C3085 H3089 0.950 . S
H3086 C3082 0.950 . S
C3087 C3085 1.390 . S
C3087 C3088 1.387 . S
C3087 H3090 0.950 . S
C3088 C3087 1.387 . S
C3088 C3091 1.387 . S
H3089 C3085 0.950 . S
H3090 C3087 0.950 . S
C3091 C3082 1.390 . S
C3091 H3084 0.950 . S
C3091 C3088 1.387 . S
C3092 C3093 1.387 . S
C3092 H3096 0.950 . S
C3092 C3101 1.390 . S
C3093 C3092 1.387 . S
C3093 C3095 1.387 . S
H3094 C3101 0.950 . S
C3095 C3093 1.387 . S
C3095 C3097 1.390 . S
C3095 H3099 0.950 . S
H3096 C3092 0.950 . S
C3097 C3095 1.390 . S
C3097 C3098 1.387 . S
C3097 H3100 0.950 . S
C3098 C3097 1.387 . S
C3098 C3101 1.387 . S
H3099 C3095 0.950 . S
H3100 C3097 0.950 . S
C3101 C3092 1.390 . S
C3101 H3094 0.950 . S
C3101 C3098 1.387 . S
C3102 C3103 1.387 . S
C3102 H3106 0.950 . S
C3102 C3111 1.390 . S
C3103 C3102 1.387 . S
C3103 C3105 1.387 . S
H3104 C3111 0.950 . S
C3105 C3103 1.387 . S
C3105 C3107 1.390 . S
C3105 H3109 0.950 . S
H3106 C3102 0.950 . S
C3107 C3105 1.390 . S
C3107 C3108 1.387 . S
C3107 H3110 0.950 . S
C3108 C3107 1.387 . S
C3108 C3111 1.387 . S
H3109 C3105 0.950 . S
H3110 C3107 0.950 . S
C3111 C3102 1.390 . S
C3111 H3104 0.950 . S
C3111 C3108 1.387 . S
C3112 C3113 1.387 . S
C3112 H3116 0.950 . S
C3112 C3121 1.390 . S
C3113 C3112 1.387 . S
C3113 C3115 1.387 . S
H3114 C3121 0.950 . S
C3115 C3113 1.387 . S
C3115 C3117 1.390 . S
C3115 H3119 0.950 . S
H3116 C3112 0.950 . S
C3117 C3115 1.390 . S
C3117 C3118 1.387 . S
C3117 H3120 0.950 . S
C3118 C3117 1.387 . S
C3118 C3121 1.387 . S
H3119 C3115 0.950 . S
H3120 C3117 0.950 . S
C3121 C3112 1.390 . S
C3121 H3114 0.950 . S
C3121 C3118 1.387 . S
C3122 C3123 1.387 . S
C3122 H3126 0.950 . S
C3122 C3131 1.390 . S
C3123 C3122 1.387 . S
C3123 C3125 1.387 . S
H3124 C3131 0.950 . S
C3125 C3123 1.387 . S
C3125 C3127 1.390 . S
C3125 H3129 0.950 . S
H3126 C3122 0.950 . S
C3127 C3125 1.390 . S
C3127 C3128 1.387 . S
C3127 H3130 0.950 . S
C3128 C3127 1.387 . S
C3128 C3131 1.387 . S
H3129 C3125 0.950 . S
H3130 C3127 0.950 . S
C3131 C3122 1.390 . S
C3131 H3124 0.950 . S
C3131 C3128 1.387 . S
C3132 C3133 1.387 . S
C3132 H3136 0.950 . S
C3132 C3141 1.390 . S
C3133 C3132 1.387 . S
C3133 C3135 1.387 . S
H3134 C3141 0.950 . S
C3135 C3133 1.387 . S
C3135 C3137 1.390 . S
C3135 H3139 0.950 . S
H3136 C3132 0.950 . S
C3137 C3135 1.390 . S
C3137 C3138 1.387 . S
C3137 H3140 0.950 . S
C3138 C3137 1.387 . S
C3138 C3141 1.387 . S
H3139 C3135 0.950 . S
H3140 C3137 0.950 . S
C3141 C3132 1.390 . S
C3141 H3134 0.950 . S
C3141 C3138 1.387 . S
C3142 C3143 1.387 . S
C3142 H3146 0.950 . S
C3142 C3151 1.390 . S
C3143 C3142 1.387 . S
C3143 C3145 1.387 . S
H3144 C3151 0.950 . S
C3145 C3143 1.387 . S
C3145 C3147 1.390 . S
C3145 H3149 0.950 . S
H3146 C3142 0.950 . S
C3147 C3145 1.390 . S
C3147 C3148 1.387 . S
C3147 H3150 0.950 . S
C3148 C3147 1.387 . S
C3148 C3151 1.387 . S
H3149 C3145 0.950 . S
H3150 C3147 0.950 . S
C3151 C3142 1.390 . S
C3151 H3144 0.950 . S
C3151 C3148 1.387 . S
C3152 C3153 1.387 . S
C3152 H3156 0.950 . S
C3152 C3161 1.390 . S
C3153 C3152 1.387 . S
C3153 C3155 1.387 . S
H3154 C3161 0.950 . S
C3155 C3153 1.387 . S
C3155 C3157 1.390 . S
C3155 H3159 0.950 . S
H3156 C3152 0.950 . S
C3157 C3155 1.390 . S
C3157 C3158 1.387 . S
C3157 H3160 0.950 . S
C3158 C3157 1.387 . S
C3158 C3161 1.387 . S
H3159 C3155 0.950 . S
H3160 C3157 0.950 . S
C3161 C3152 1.390 . S
C3161 H3154 0.950 . S
C3161 C3158 1.387 . S
C3162 C3163 1.387 . S
C3162 H3166 0.950 . S
C3162 C3171 1.390 . S
C3163 C3162 1.387 . S
C3163 C3165 1.387 . S
H3164 C3171 0.950 . S
C3165 C3163 1.387 . S
C3165 C3167 1.390 . S
C3165 H3169 0.950 . S
H3166 C3162 0.950 . S
C3167 C3165 1.390 . S
C3167 C3168 1.387 . S
C3167 H3170 0.950 . S
C3168 C3167 1.387 . S
C3168 C3171 1.387 . S
H3169 C3165 0.950 . S
H3170 C3167 0.950 . S
C3171 C3162 1.390 . S
C3171 H3164 0.950 . S
C3171 C3168 1.387 . S
C3172 C3173 1.387 . S
C3172 H3176 0.950 . S
C3172 C3181 1.390 . S
C3173 C3172 1.387 . S
C3173 C3175 1.387 . S
H3174 C3181 0.950 . S
C3175 C3173 1.387 . S
C3175 C3177 1.390 . S
C3175 H3179 0.950 . S
H3176 C3172 0.950 . S
C3177 C3175 1.390 . S
C3177 C3178 1.387 . S
C3177 H3180 0.950 . S
C3178 C3177 1.387 . S
C3178 C3181 1.387 . S
H3179 C3175 0.950 . S
H3180 C3177 0.950 . S
C3181 C3172 1.390 . S
C3181 H3174 0.950 . S
C3181 C3178 1.387 . S
C3182 C3183 1.387 . S
C3182 H3186 0.950 . S
C3182 C3191 1.390 . S
C3183 C3182 1.387 . S
C3183 C3185 1.387 . S
H3184 C3191 0.950 . S
C3185 C3183 1.387 . S
C3185 C3187 1.390 . S
C3185 H3189 0.950 . S
H3186 C3182 0.950 . S
C3187 C3185 1.390 . S
C3187 C3188 1.387 . S
C3187 H3190 0.950 . S
C3188 C3187 1.387 . S
C3188 C3191 1.387 . S
H3189 C3185 0.950 . S
H3190 C3187 0.950 . S
C3191 C3182 1.390 . S
C3191 H3184 0.950 . S
C3191 C3188 1.387 . S
C3192 C3193 1.387 . S
C3192 H3196 0.950 . S
C3192 C3201 1.390 . S
C3193 C3192 1.387 . S
C3193 C3195 1.387 . S
H3194 C3201 0.950 . S
C3195 C3193 1.387 . S
C3195 C3197 1.390 . S
C3195 H3199 0.950 . S
H3196 C3192 0.950 . S
C3197 C3195 1.390 . S
C3197 C3198 1.387 . S
C3197 H3200 0.950 . S
C3198 C3197 1.387 . S
C3198 C3201 1.387 . S
H3199 C3195 0.950 . S
H3200 C3197 0.950 . S
C3201 C3192 1.390 . S
C3201 H3194 0.950 . S
C3201 C3198 1.387 . S
C3202 C3203 1.387 . S
C3202 H3206 0.950 . S
C3202 C3211 1.390 . S
C3203 C3202 1.387 . S
C3203 C3205 1.387 . S
H3204 C3211 0.950 1_565 S
C3205 C3203 1.387 . S
C3205 C3207 1.390 . S
C3205 H3209 0.950 . S
H3206 C3202 0.950 . S
C3207 C3205 1.390 . S
C3207 C3208 1.387 . S
C3207 H3210 0.950 . S
C3208 C3207 1.387 . S
C3208 C3211 1.387 . S
H3209 C3205 0.950 . S
H3210 C3207 0.950 . S
C3211 C3202 1.390 . S
C3211 H3204 0.950 1_545 S
C3211 C3208 1.387 . S
C3212 C3213 1.387 . S
C3212 H3216 0.950 . S
C3212 C3221 1.390 . S
C3213 C3212 1.387 . S
C3213 C3215 1.387 . S
H3214 C3221 0.950 . S
C3215 C3213 1.387 . S
C3215 C3217 1.390 . S
C3215 H3219 0.950 . S
H3216 C3212 0.950 . S
C3217 C3215 1.390 . S
C3217 C3218 1.387 . S
C3217 H3220 0.950 . S
C3218 C3217 1.387 . S
C3218 C3221 1.387 . S
H3219 C3215 0.950 . S
H3220 C3217 0.950 . S
C3221 C3212 1.390 . S
C3221 H3214 0.950 . S
C3221 C3218 1.387 . S
C3222 C3223 1.387 . S
C3222 H3226 0.950 . S
C3222 C3231 1.390 . S
C3223 C3222 1.387 . S
C3223 C3225 1.387 . S
H3224 C3231 0.950 . S
C3225 C3223 1.387 . S
C3225 C3227 1.390 . S
C3225 H3229 0.950 . S
H3226 C3222 0.950 . S
C3227 C3225 1.390 . S
C3227 C3228 1.387 . S
C3227 H3230 0.950 . S
C3228 C3227 1.387 . S
C3228 C3231 1.387 . S
H3229 C3225 0.950 . S
H3230 C3227 0.950 . S
C3231 C3222 1.390 . S
C3231 H3224 0.950 . S
C3231 C3228 1.387 . S
C3232 C3233 1.387 . S
C3232 H3236 0.950 . S
C3232 C3241 1.390 . S
C3233 C3232 1.387 . S
C3233 C3235 1.387 . S
H3234 C3241 0.950 . S
C3235 C3233 1.387 . S
C3235 C3237 1.390 . S
C3235 H3239 0.950 . S
H3236 C3232 0.950 . S
C3237 C3235 1.390 . S
C3237 C3238 1.387 . S
C3237 H3240 0.950 . S
C3238 C3237 1.387 . S
C3238 C3241 1.387 . S
H3239 C3235 0.950 . S
H3240 C3237 0.950 . S
C3241 C3232 1.390 . S
C3241 H3234 0.950 . S
C3241 C3238 1.387 . S
C3242 C3243 1.387 . S
C3242 H3246 0.950 . S
C3242 C3251 1.390 . S
C3243 C3242 1.387 . S
C3243 C3245 1.387 . S
H3244 C3251 0.950 . S
C3245 C3243 1.387 . S
C3245 C3247 1.390 . S
C3245 H3249 0.950 . S
H3246 C3242 0.950 . S
C3247 C3245 1.390 . S
C3247 C3248 1.387 . S
C3247 H3250 0.950 . S
C3248 C3247 1.387 . S
C3248 C3251 1.387 . S
H3249 C3245 0.950 . S
H3250 C3247 0.950 . S
C3251 C3242 1.390 . S
C3251 H3244 0.950 . S
C3251 C3248 1.387 . S
C3252 C3253 1.387 . S
C3252 H3256 0.950 . S
C3252 C3261 1.390 . S
C3253 C3252 1.387 . S
C3253 C3255 1.387 1_554 S
H3254 C3261 0.950 . S
C3255 C3253 1.387 1_556 S
C3255 C3257 1.390 1_556 S
C3255 H3259 0.950 . S
H3256 C3252 0.950 . S
C3257 C3255 1.390 1_554 S
C3257 C3258 1.387 . S
C3257 H3260 0.950 1_554 S
C3258 C3257 1.387 . S
C3258 C3261 1.387 . S
H3259 C3255 0.950 . S
H3260 C3257 0.950 1_556 S
C3261 C3252 1.390 . S
C3261 H3254 0.950 . S
C3261 C3258 1.387 . S
C3262 C3263 1.387 . S
C3262 H3266 0.950 . S
C3262 C3271 1.390 . S
C3263 C3262 1.387 . S
C3263 C3265 1.387 . S
H3264 C3271 0.950 . S
C3265 C3263 1.387 . S
C3265 C3267 1.390 . S
C3265 H3269 0.950 . S
H3266 C3262 0.950 . S
C3267 C3265 1.390 . S
C3267 C3268 1.387 . S
C3267 H3270 0.950 . S
C3268 C3267 1.387 . S
C3268 C3271 1.387 . S
H3269 C3265 0.950 . S
H3270 C3267 0.950 . S
C3271 C3262 1.390 . S
C3271 H3264 0.950 . S
C3271 C3268 1.387 . S
C3272 C3273 1.387 . S
C3272 H3276 0.950 . S
C3272 C3281 1.390 . S
C3273 C3272 1.387 . S
C3273 C3275 1.387 . S
H3274 C3281 0.950 . S
C3275 C3273 1.387 . S
C3275 C3277 1.390 . S
C3275 H3279 0.950 . S
H3276 C3272 0.950 . S
C3277 C3275 1.390 . S
C3277 C3278 1.387 . S
C3277 H3280 0.950 . S
C3278 C3277 1.387 . S
C3278 C3281 1.387 . S
H3279 C3275 0.950 . S
H3280 C3277 0.950 . S
C3281 C3272 1.390 . S
C3281 H3274 0.950 . S
C3281 C3278 1.387 . S
C3282 C3283 1.387 . S
C3282 H3286 0.950 . S
C3282 C3291 1.390 . S
C3283 C3282 1.387 . S
C3283 C3285 1.387 . S
H3284 C3291 0.950 . S
C3285 C3283 1.387 . S
C3285 C3287 1.390 . S
C3285 H3289 0.950 . S
H3286 C3282 0.950 . S
C3287 C3285 1.390 . S
C3287 C3288 1.387 . S
C3287 H3290 0.950 . S
C3288 C3287 1.387 . S
C3288 C3291 1.387 . S
H3289 C3285 0.950 . S
H3290 C3287 0.950 . S
C3291 C3282 1.390 . S
C3291 H3284 0.950 . S
C3291 C3288 1.387 . S
C3292 C3293 1.387 . S
C3292 H3296 0.950 . S
C3292 C3301 1.390 1_655 S
C3293 C3292 1.387 . S
C3293 C3295 1.387 . S
H3294 C3301 0.950 . S
C3295 C3293 1.387 . S
C3295 C3297 1.390 1_655 S
C3295 H3299 0.950 . S
H3296 C3292 0.950 . S
C3297 C3295 1.390 1_455 S
C3297 C3298 1.387 . S
C3297 H3300 0.950 . S
C3298 C3297 1.387 . S
C3298 C3301 1.387 . S
H3299 C3295 0.950 . S
H3300 C3297 0.950 . S
C3301 C3292 1.390 1_455 S
C3301 H3294 0.950 . S
C3301 C3298 1.387 . S
C3302 C3303 1.387 . S
C3302 H3306 0.950 . S
C3302 C3311 1.390 . S
C3303 C3302 1.387 . S
C3303 C3305 1.387 . S
H3304 C3311 0.950 . S
C3305 C3303 1.387 . S
C3305 C3307 1.390 . S
C3305 H3309 0.950 . S
H3306 C3302 0.950 . S
C3307 C3305 1.390 . S
C3307 C3308 1.387 . S
C3307 H3310 0.950 . S
C3308 C3307 1.387 . S
C3308 C3311 1.387 . S
H3309 C3305 0.950 . S
H3310 C3307 0.950 . S
C3311 C3302 1.390 . S
C3311 H3304 0.950 . S
C3311 C3308 1.387 . S
C3312 C3313 1.387 . S
C3312 H3316 0.950 . S
C3312 C3321 1.390 . S
C3313 C3312 1.387 . S
C3313 C3315 1.387 . S
H3314 C3321 0.950 . S
C3315 C3313 1.387 . S
C3315 C3317 1.390 . S
C3315 H3319 0.950 . S
H3316 C3312 0.950 . S
C3317 C3315 1.390 . S
C3317 C3318 1.387 . S
C3317 H3320 0.950 . S
C3318 C3317 1.387 . S
C3318 C3321 1.387 . S
H3319 C3315 0.950 . S
H3320 C3317 0.950 . S
C3321 C3312 1.390 . S
C3321 H3314 0.950 . S
C3321 C3318 1.387 . S
C3322 C3323 1.387 . S
C3322 H3326 0.950 . S
C3322 C3331 1.390 . S
C3323 C3322 1.387 . S
C3323 C3325 1.387 . S
H3324 C3331 0.950 . S
C3325 C3323 1.387 . S
C3325 C3327 1.390 . S
C3325 H3329 0.950 . S
H3326 C3322 0.950 . S
C3327 C3325 1.390 . S
C3327 C3328 1.387 . S
C3327 H3330 0.950 . S
C3328 C3327 1.387 . S
C3328 C3331 1.387 . S
H3329 C3325 0.950 . S
H3330 C3327 0.950 . S
C3331 C3322 1.390 . S
C3331 H3324 0.950 . S
C3331 C3328 1.387 . S
C3332 C3333 1.387 . S
C3332 H3336 0.950 . S
C3332 C3341 1.390 . S
C3333 C3332 1.387 . S
C3333 C3335 1.387 . S
H3334 C3341 0.950 . S
C3335 C3333 1.387 . S
C3335 C3337 1.390 . S
C3335 H3339 0.950 . S
H3336 C3332 0.950 . S
C3337 C3335 1.390 . S
C3337 C3338 1.387 . S
C3337 H3340 0.950 . S
C3338 C3337 1.387 . S
C3338 C3341 1.387 . S
H3339 C3335 0.950 . S
H3340 C3337 0.950 . S
C3341 C3332 1.390 . S
C3341 H3334 0.950 . S
C3341 C3338 1.387 . S
C3342 C3343 1.387 . S
C3342 H3346 0.950 . S
C3342 C3351 1.390 . S
C3343 C3342 1.387 . S
C3343 C3345 1.387 . S
H3344 C3351 0.950 . S
C3345 C3343 1.387 . S
C3345 C3347 1.390 . S
C3345 H3349 0.950 . S
H3346 C3342 0.950 . S
C3347 C3345 1.390 . S
C3347 C3348 1.387 . S
C3347 H3350 0.950 . S
C3348 C3347 1.387 . S
C3348 C3351 1.387 . S
H3349 C3345 0.950 . S
H3350 C3347 0.950 . S
C3351 C3342 1.390 . S
C3351 H3344 0.950 . S
C3351 C3348 1.387 . S
C3352 C3353 1.387 . S
C3352 H3356 0.950 . S
C3352 C3361 1.390 . S
C3353 C3352 1.387 . S
C3353 C3355 1.387 . S
H3354 C3361 0.950 1_554 S
C3355 C3353 1.387 . S
C3355 C3357 1.390 . S
C3355 H3359 0.950 . S
H3356 C3352 0.950 . S
C3357 C3355 1.390 . S
C3357 C3358 1.387 . S
C3357 H3360 0.950 . S
C3358 C3357 1.387 . S
C3358 C3361 1.387 . S
H3359 C3355 0.950 . S
H3360 C3357 0.950 . S
C3361 C3352 1.390 . S
C3361 H3354 0.950 1_556 S
C3361 C3358 1.387 . S
C3362 C3363 1.387 . S
C3362 H3366 0.950 . S
C3362 C3371 1.390 . S
C3363 C3362 1.387 . S
C3363 C3365 1.387 . S
H3364 C3371 0.950 . S
C3365 C3363 1.387 . S
C3365 C3367 1.390 . S
C3365 H3369 0.950 . S
H3366 C3362 0.950 . S
C3367 C3365 1.390 . S
C3367 C3368 1.387 . S
C3367 H3370 0.950 . S
C3368 C3367 1.387 . S
C3368 C3371 1.387 . S
H3369 C3365 0.950 . S
H3370 C3367 0.950 . S
C3371 C3362 1.390 . S
C3371 H3364 0.950 . S
C3371 C3368 1.387 . S
C3372 C3373 1.387 . S
C3372 H3376 0.950 . S
C3372 C3381 1.390 . S
C3373 C3372 1.387 . S
C3373 C3375 1.387 . S
H3374 C3381 0.950 . S
C3375 C3373 1.387 . S
C3375 C3377 1.390 . S
C3375 H3379 0.950 . S
H3376 C3372 0.950 . S
C3377 C3375 1.390 . S
C3377 C3378 1.387 . S
C3377 H3380 0.950 . S
C3378 C3377 1.387 . S
C3378 C3381 1.387 . S
H3379 C3375 0.950 . S
H3380 C3377 0.950 . S
C3381 C3372 1.390 . S
C3381 H3374 0.950 . S
C3381 C3378 1.387 . S
C3382 C3383 1.387 . S
C3382 H3386 0.950 . S
C3382 C3391 1.390 . S
C3383 C3382 1.387 . S
C3383 C3385 1.387 . S
H3384 C3391 0.950 . S
C3385 C3383 1.387 . S
C3385 C3387 1.390 . S
C3385 H3389 0.950 . S
H3386 C3382 0.950 . S
C3387 C3385 1.390 . S
C3387 C3388 1.387 . S
C3387 H3390 0.950 . S
C3388 C3387 1.387 . S
C3388 C3391 1.387 . S
H3389 C3385 0.950 . S
H3390 C3387 0.950 . S
C3391 C3382 1.390 . S
C3391 H3384 0.950 . S
C3391 C3388 1.387 . S
C3392 C3393 1.387 . S
C3392 H3396 0.950 . S
C3392 C3401 1.390 . S
C3393 C3392 1.387 . S
C3393 C3395 1.387 . S
H3394 C3401 0.950 . S
C3395 C3393 1.387 . S
C3395 C3397 1.390 . S
C3395 H3399 0.950 . S
H3396 C3392 0.950 . S
C3397 C3395 1.390 . S
C3397 C3398 1.387 . S
C3397 H3400 0.950 . S
C3398 C3397 1.387 . S
C3398 C3401 1.387 . S
H3399 C3395 0.950 . S
H3400 C3397 0.950 . S
C3401 C3392 1.390 . S
C3401 H3394 0.950 . S
C3401 C3398 1.387 . S
C3402 C3403 1.387 . S
C3402 H3406 0.950 . S
C3402 C3411 1.390 . S
C3403 C3402 1.387 . S
C3403 C3405 1.387 . S
H3404 C3411 0.950 . S
C3405 C3403 1.387 . S
C3405 C3407 1.390 . S
C3405 H3409 0.950 . S
H3406 C3402 0.950 . S
C3407 C3405 1.390 . S
C3407 C3408 1.387 . S
C3407 H3410 0.950 . S
C3408 C3407 1.387 . S
C3408 C3411 1.387 . S
H3409 C3405 0.950 . S
H3410 C3407 0.950 . S
C3411 C3402 1.390 . S
C3411 H3404 0.950 . S
C3411 C3408 1.387 . S
C3412 C3413 1.387 . S
C3412 H3416 0.950 . S
C3412 C3421 1.390 . S
C3413 C3412 1.387 . S
C3413 C3415 1.387 . S
H3414 C3421 0.950 . S
C3415 C3413 1.387 . S
C3415 C3417 1.390 . S
C3415 H3419 0.950 . S
H3416 C3412 0.950 . S
C3417 C3415 1.390 . S
C3417 C3418 1.387 . S
C3417 H3420 0.950 . S
C3418 C3417 1.387 . S
C3418 C3421 1.387 . S
H3419 C3415 0.950 . S
H3420 C3417 0.950 . S
C3421 C3412 1.390 . S
C3421 H3414 0.950 . S
C3421 C3418 1.387 . S
C3422 C3423 1.387 1_545 S
C3422 H3426 0.950 . S
C3422 C3431 1.390 . S
C3423 C3422 1.387 1_565 S
C3423 C3425 1.387 . S
H3424 C3431 0.950 . S
C3425 C3423 1.387 . S
C3425 C3427 1.390 . S
C3425 H3429 0.950 . S
H3426 C3422 0.950 . S
C3427 C3425 1.390 . S
C3427 C3428 1.387 1_565 S
C3427 H3430 0.950 . S
C3428 C3427 1.387 1_545 S
C3428 C3431 1.387 . S
H3429 C3425 0.950 . S
H3430 C3427 0.950 . S
C3431 C3422 1.390 . S
C3431 H3424 0.950 . S
C3431 C3428 1.387 . S
C3432 C3433 1.387 . S
C3432 H3436 0.950 . S
C3432 C3441 1.390 . S
C3433 C3432 1.387 . S
C3433 C3435 1.387 . S
H3434 C3441 0.950 . S
C3435 C3433 1.387 . S
C3435 C3437 1.390 . S
C3435 H3439 0.950 . S
H3436 C3432 0.950 . S
C3437 C3435 1.390 . S
C3437 C3438 1.387 . S
C3437 H3440 0.950 . S
C3438 C3437 1.387 . S
C3438 C3441 1.387 . S
H3439 C3435 0.950 . S
H3440 C3437 0.950 . S
C3441 C3432 1.390 . S
C3441 H3434 0.950 . S
C3441 C3438 1.387 . S
C3442 C3443 1.387 . S
C3442 H3446 0.950 . S
C3442 C3451 1.390 . S
C3443 C3442 1.387 . S
C3443 C3445 1.387 . S
H3444 C3451 0.950 . S
C3445 C3443 1.387 . S
C3445 C3447 1.390 . S
C3445 H3449 0.950 . S
H3446 C3442 0.950 . S
C3447 C3445 1.390 . S
C3447 C3448 1.387 . S
C3447 H3450 0.950 . S
C3448 C3447 1.387 . S
C3448 C3451 1.387 . S
H3449 C3445 0.950 . S
H3450 C3447 0.950 . S
C3451 C3442 1.390 . S
C3451 H3444 0.950 . S
C3451 C3448 1.387 . S
C3452 C3453 1.387 . S
C3452 H3456 0.950 . S
C3452 C3461 1.390 . S
C3453 C3452 1.387 . S
C3453 C3455 1.387 . S
H3454 C3461 0.950 . S
C3455 C3453 1.387 . S
C3455 C3457 1.390 . S
C3455 H3459 0.950 . S
H3456 C3452 0.950 . S
C3457 C3455 1.390 . S
C3457 C3458 1.387 . S
C3457 H3460 0.950 . S
C3458 C3457 1.387 . S
C3458 C3461 1.387 . S
H3459 C3455 0.950 . S
H3460 C3457 0.950 . S
C3461 C3452 1.390 . S
C3461 H3454 0.950 . S
C3461 C3458 1.387 . S
C3462 C3463 1.387 . S
C3462 H3466 0.950 . S
C3462 C3471 1.390 . S
C3463 C3462 1.387 . S
C3463 C3465 1.387 1_545 S
H3464 C3471 0.950 . S
C3465 C3463 1.387 1_565 S
C3465 C3467 1.390 . S
C3465 H3469 0.950 . S
H3466 C3462 0.950 . S
C3467 C3465 1.390 . S
C3467 C3468 1.387 . S
C3467 H3470 0.950 . S
C3468 C3467 1.387 . S
C3468 C3471 1.387 1_565 S
H3469 C3465 0.950 . S
H3470 C3467 0.950 . S
C3471 C3462 1.390 . S
C3471 H3464 0.950 . S
C3471 C3468 1.387 1_545 S
C3472 C3473 1.387 . S
C3472 H3476 0.950 . S
C3472 C3481 1.390 . S
C3473 C3472 1.387 . S
C3473 C3475 1.387 . S
H3474 C3481 0.950 . S
C3475 C3473 1.387 . S
C3475 C3477 1.390 . S
C3475 H3479 0.950 . S
H3476 C3472 0.950 . S
C3477 C3475 1.390 . S
C3477 C3478 1.387 . S
C3477 H3480 0.950 . S
C3478 C3477 1.387 . S
C3478 C3481 1.387 . S
H3479 C3475 0.950 . S
H3480 C3477 0.950 . S
C3481 C3472 1.390 . S
C3481 H3474 0.950 . S
C3481 C3478 1.387 . S
C3482 C3483 1.387 . S
C3482 H3486 0.950 . S
C3482 C3491 1.390 . S
C3483 C3482 1.387 . S
C3483 C3485 1.387 . S
H3484 C3491 0.950 . S
C3485 C3483 1.387 . S
C3485 C3487 1.390 . S
C3485 H3489 0.950 . S
H3486 C3482 0.950 . S
C3487 C3485 1.390 . S
C3487 C3488 1.387 . S
C3487 H3490 0.950 . S
C3488 C3487 1.387 . S
C3488 C3491 1.387 . S
H3489 C3485 0.950 . S
H3490 C3487 0.950 . S
C3491 C3482 1.390 . S
C3491 H3484 0.950 . S
C3491 C3488 1.387 . S
C3492 C3493 1.387 . S
C3492 H3496 0.950 1_455 S
C3492 C3501 1.390 . S
C3493 C3492 1.387 . S
C3493 C3495 1.387 . S
H3494 C3501 0.950 . S
C3495 C3493 1.387 . S
C3495 C3497 1.390 . S
C3495 H3499 0.950 . S
H3496 C3492 0.950 1_655 S
C3497 C3495 1.390 . S
C3497 C3498 1.387 . S
C3497 H3500 0.950 . S
C3498 C3497 1.387 . S
C3498 C3501 1.387 . S
H3499 C3495 0.950 . S
H3500 C3497 0.950 . S
C3501 C3492 1.390 . S
C3501 H3494 0.950 . S
C3501 C3498 1.387 . S
C3502 C3503 1.387 . S
C3502 H3506 0.950 . S
C3502 C3511 1.390 . S
C3503 C3502 1.387 . S
C3503 C3505 1.387 . S
H3504 C3511 0.950 . S
C3505 C3503 1.387 . S
C3505 C3507 1.390 . S
C3505 H3509 0.950 . S
H3506 C3502 0.950 . S
C3507 C3505 1.390 . S
C3507 C3508 1.387 . S
C3507 H3510 0.950 . S
C3508 C3507 1.387 . S
C3508 C3511 1.387 . S
H3509 C3505 0.950 . S
H3510 C3507 0.950 . S
C3511 C3502 1.390 . S
C3511 H3504 0.950 . S
C3511 C3508 1.387 . S
C3512 C3513 1.387 . S
C3512 H3516 0.950 . S
C3512 C3521 1.390 . S
C3513 C3512 1.387 . S
C3513 C3515 1.387 . S
H3514 C3521 0.950 . S
C3515 C3513 1.387 . S
C3515 C3517 1.390 . S
C3515 H3519 0.950 . S
H3516 C3512 0.950 . S
C3517 C3515 1.390 . S
C3517 C3518 1.387 . S
C3517 H3520 0.950 . S
C3518 C3517 1.387 . S
C3518 C3521 1.387 . S
H3519 C3515 0.950 . S
H3520 C3517 0.950 . S
C3521 C3512 1.390 . S
C3521 H3514 0.950 . S
C3521 C3518 1.387 . S
C3522 C3523 1.387 . S
C3522 H3526 0.950 . S
C3522 C3531 1.390 . S
C3523 C3522 1.387 . S
C3523 C3525 1.387 . S
H3524 C3531 0.950 . S
C3525 C3523 1.387 . S
C3525 C3527 1.390 . S
C3525 H3529 0.950 . S
H3526 C3522 0.950 . S
C3527 C3525 1.390 . S
C3527 C3528 1.387 . S
C3527 H3530 0.950 . S
C3528 C3527 1.387 . S
C3528 C3531 1.387 . S
H3529 C3525 0.950 . S
H3530 C3527 0.950 . S
C3531 C3522 1.390 . S
C3531 H3524 0.950 . S
C3531 C3528 1.387 . S
C3532 C3533 1.387 . S
C3532 H3536 0.950 . S
C3532 C3541 1.390 . S
C3533 C3532 1.387 . S
C3533 C3535 1.387 . S
H3534 C3541 0.950 . S
C3535 C3533 1.387 . S
C3535 C3537 1.390 . S
C3535 H3539 0.950 . S
H3536 C3532 0.950 . S
C3537 C3535 1.390 . S
C3537 C3538 1.387 . S
C3537 H3540 0.950 . S
C3538 C3537 1.387 . S
C3538 C3541 1.387 . S
H3539 C3535 0.950 . S
H3540 C3537 0.950 . S
C3541 C3532 1.390 . S
C3541 H3534 0.950 . S
C3541 C3538 1.387 . S
C3542 C3543 1.387 . S
C3542 H3546 0.950 . S
C3542 C3551 1.390 . S
C3543 C3542 1.387 . S
C3543 C3545 1.387 . S
H3544 C3551 0.950 . S
C3545 C3543 1.387 . S
C3545 C3547 1.390 . S
C3545 H3549 0.950 . S
H3546 C3542 0.950 . S
C3547 C3545 1.390 . S
C3547 C3548 1.387 . S
C3547 H3550 0.950 . S
C3548 C3547 1.387 . S
C3548 C3551 1.387 . S
H3549 C3545 0.950 . S
H3550 C3547 0.950 . S
C3551 C3542 1.390 . S
C3551 H3544 0.950 . S
C3551 C3548 1.387 . S
C3552 C3553 1.387 . S
C3552 H3556 0.950 . S
C3552 C3561 1.390 . S
C3553 C3552 1.387 . S
C3553 C3555 1.387 . S
H3554 C3561 0.950 . S
C3555 C3553 1.387 . S
C3555 C3557 1.390 . S
C3555 H3559 0.950 . S
H3556 C3552 0.950 . S
C3557 C3555 1.390 . S
C3557 C3558 1.387 . S
C3557 H3560 0.950 . S
C3558 C3557 1.387 . S
C3558 C3561 1.387 . S
H3559 C3555 0.950 . S
H3560 C3557 0.950 . S
C3561 C3552 1.390 . S
C3561 H3554 0.950 . S
C3561 C3558 1.387 . S
C3562 C3563 1.387 . S
C3562 H3566 0.950 . S
C3562 C3571 1.390 . S
C3563 C3562 1.387 . S
C3563 C3565 1.387 . S
H3564 C3571 0.950 . S
C3565 C3563 1.387 . S
C3565 C3567 1.390 . S
C3565 H3569 0.950 . S
H3566 C3562 0.950 . S
C3567 C3565 1.390 . S
C3567 C3568 1.387 . S
C3567 H3570 0.950 . S
C3568 C3567 1.387 . S
C3568 C3571 1.387 . S
H3569 C3565 0.950 . S
H3570 C3567 0.950 . S
C3571 C3562 1.390 . S
C3571 H3564 0.950 . S
C3571 C3568 1.387 . S
C3572 C3573 1.387 . S
C3572 H3576 0.950 . S
C3572 C3581 1.390 . S
C3573 C3572 1.387 . S
C3573 C3575 1.387 . S
H3574 C3581 0.950 . S
C3575 C3573 1.387 . S
C3575 C3577 1.390 . S
C3575 H3579 0.950 1_455 S
H3576 C3572 0.950 . S
C3577 C3575 1.390 . S
C3577 C3578 1.387 . S
C3577 H3580 0.950 . S
C3578 C3577 1.387 . S
C3578 C3581 1.387 . S
H3579 C3575 0.950 1_655 S
H3580 C3577 0.950 . S
C3581 C3572 1.390 . S
C3581 H3574 0.950 . S
C3581 C3578 1.387 . S
C3582 C3583 1.387 . S
C3582 H3586 0.950 . S
C3582 C3591 1.390 . S
C3583 C3582 1.387 . S
C3583 C3585 1.387 . S
H3584 C3591 0.950 . S
C3585 C3583 1.387 . S
C3585 C3587 1.390 . S
C3585 H3589 0.950 . S
H3586 C3582 0.950 . S
C3587 C3585 1.390 . S
C3587 C3588 1.387 . S
C3587 H3590 0.950 . S
C3588 C3587 1.387 . S
C3588 C3591 1.387 . S
H3589 C3585 0.950 . S
H3590 C3587 0.950 . S
C3591 C3582 1.390 . S
C3591 H3584 0.950 . S
C3591 C3588 1.387 . S
C3592 C3593 1.387 . S
C3592 H3596 0.950 . S
C3592 C3601 1.390 . S
C3593 C3592 1.387 . S
C3593 C3595 1.387 . S
H3594 C3601 0.950 . S
C3595 C3593 1.387 . S
C3595 C3597 1.390 . S
C3595 H3599 0.950 . S
H3596 C3592 0.950 . S
C3597 C3595 1.390 . S
C3597 C3598 1.387 . S
C3597 H3600 0.950 . S
C3598 C3597 1.387 . S
C3598 C3601 1.387 . S
H3599 C3595 0.950 . S
H3600 C3597 0.950 . S
C3601 C3592 1.390 . S
C3601 H3594 0.950 . S
C3601 C3598 1.387 . S
C3602 C3603 1.387 . S
C3602 H3606 0.950 . S
C3602 C3611 1.390 . S
C3603 C3602 1.387 . S
C3603 C3605 1.387 . S
H3604 C3611 0.950 . S
C3605 C3603 1.387 . S
C3605 C3607 1.390 . S
C3605 H3609 0.950 . S
H3606 C3602 0.950 . S
C3607 C3605 1.390 . S
C3607 C3608 1.387 . S
C3607 H3610 0.950 . S
C3608 C3607 1.387 . S
C3608 C3611 1.387 . S
H3609 C3605 0.950 . S
H3610 C3607 0.950 . S
C3611 C3602 1.390 . S
C3611 H3604 0.950 . S
C3611 C3608 1.387 . S
C3612 C3613 1.387 1_655 S
C3612 H3616 0.950 . S
C3612 C3621 1.390 . S
C3613 C3612 1.387 1_455 S
C3613 C3615 1.387 . S
H3614 C3621 0.950 . S
C3615 C3613 1.387 . S
C3615 C3617 1.390 . S
C3615 H3619 0.950 . S
H3616 C3612 0.950 . S
C3617 C3615 1.390 . S
C3617 C3618 1.387 . S
C3617 H3620 0.950 . S
C3618 C3617 1.387 . S
C3618 C3621 1.387 1_455 S
H3619 C3615 0.950 . S
H3620 C3617 0.950 . S
C3621 C3612 1.390 . S
C3621 H3614 0.950 . S
C3621 C3618 1.387 1_655 S
C3622 C3623 1.387 . S
C3622 H3626 0.950 . S
C3622 C3631 1.390 . S
C3623 C3622 1.387 . S
C3623 C3625 1.387 . S
H3624 C3631 0.950 . S
C3625 C3623 1.387 . S
C3625 C3627 1.390 . S
C3625 H3629 0.950 . S
H3626 C3622 0.950 . S
C3627 C3625 1.390 . S
C3627 C3628 1.387 . S
C3627 H3630 0.950 . S
C3628 C3627 1.387 . S
C3628 C3631 1.387 . S
H3629 C3625 0.950 . S
H3630 C3627 0.950 . S
C3631 C3622 1.390 . S
C3631 H3624 0.950 . S
C3631 C3628 1.387 . S
C3632 C3633 1.387 . S
C3632 H3636 0.950 . S
C3632 C3641 1.390 . S
C3633 C3632 1.387 . S
C3633 C3635 1.387 . S
H3634 C3641 0.950 . S
C3635 C3633 1.387 . S
C3635 C3637 1.390 . S
C3635 H3639 0.950 . S
H3636 C3632 0.950 . S
C3637 C3635 1.390 . S
C3637 C3638 1.387 . S
C3637 H3640 0.950 . S
C3638 C3637 1.387 . S
C3638 C3641 1.387 . S
H3639 C3635 0.950 . S
H3640 C3637 0.950 . S
C3641 C3632 1.390 . S
C3641 H3634 0.950 . S
C3641 C3638 1.387 . S
C3642 C3643 1.387 . S
C3642 H3646 0.950 . S
C3642 C3651 1.390 . S
C3643 C3642 1.387 . S
C3643 C3645 1.387 . S
H3644 C3651 0.950 . S
C3645 C3643 1.387 . S
C3645 C3647 1.390 . S
C3645 H3649 0.950 . S
H3646 C3642 0.950 . S
C3647 C3645 1.390 . S
C3647 C3648 1.387 . S
C3647 H3650 0.950 . S
C3648 C3647 1.387 . S
C3648 C3651 1.387 . S
H3649 C3645 0.950 . S
H3650 C3647 0.950 . S
C3651 C3642 1.390 . S
C3651 H3644 0.950 . S
C3651 C3648 1.387 . S
C3652 C3653 1.387 . S
C3652 H3656 0.950 . S
C3652 C3661 1.390 . S
C3653 C3652 1.387 . S
C3653 C3655 1.387 . S
H3654 C3661 0.950 . S
C3655 C3653 1.387 . S
C3655 C3657 1.390 . S
C3655 H3659 0.950 . S
H3656 C3652 0.950 . S
C3657 C3655 1.390 . S
C3657 C3658 1.387 . S
C3657 H3660 0.950 . S
C3658 C3657 1.387 . S
C3658 C3661 1.387 . S
H3659 C3655 0.950 . S
H3660 C3657 0.950 . S
C3661 C3652 1.390 . S
C3661 H3654 0.950 . S
C3661 C3658 1.387 . S
C3662 C3663 1.387 . S
C3662 H3666 0.950 . S
C3662 C3671 1.390 . S
C3663 C3662 1.387 . S
C3663 C3665 1.387 . S
H3664 C3671 0.950 . S
C3665 C3663 1.387 . S
C3665 C3667 1.390 . S
C3665 H3669 0.950 . S
H3666 C3662 0.950 . S
C3667 C3665 1.390 . S
C3667 C3668 1.387 . S
C3667 H3670 0.950 . S
C3668 C3667 1.387 . S
C3668 C3671 1.387 . S
H3669 C3665 0.950 . S
H3670 C3667 0.950 . S
C3671 C3662 1.390 . S
C3671 H3664 0.950 . S
C3671 C3668 1.387 . S
C3672 C3673 1.387 . S
C3672 H3676 0.950 . S
C3672 C3681 1.390 . S
C3673 C3672 1.387 . S
C3673 C3675 1.387 . S
H3674 C3681 0.950 . S
C3675 C3673 1.387 . S
C3675 C3677 1.390 . S
C3675 H3679 0.950 . S
H3676 C3672 0.950 . S
C3677 C3675 1.390 . S
C3677 C3678 1.387 . S
C3677 H3680 0.950 . S
C3678 C3677 1.387 . S
C3678 C3681 1.387 . S
H3679 C3675 0.950 . S
H3680 C3677 0.950 . S
C3681 C3672 1.390 . S
C3681 H3674 0.950 . S
C3681 C3678 1.387 . S
C3682 C3683 1.387 . S
C3682 H3686 0.950 . S
C3682 C3691 1.390 . S
C3683 C3682 1.387 . S
C3683 C3685 1.387 . S
H3684 C3691 0.950 . S
C3685 C3683 1.387 . S
C3685 C3687 1.390 . S
C3685 H3689 0.950 . S
H3686 C3682 0.950 . S
C3687 C3685 1.390 . S
C3687 C3688 1.387 . S
C3687 H3690 0.950 . S
C3688 C3687 1.387 . S
C3688 C3691 1.387 . S
H3689 C3685 0.950 . S
H3690 C3687 0.950 . S
C3691 C3682 1.390 . S
C3691 H3684 0.950 . S
C3691 C3688 1.387 . S
C3692 C3693 1.387 . S
C3692 H3696 0.950 . S
C3692 C3701 1.390 . S
C3693 C3692 1.387 . S
C3693 C3695 1.387 . S
H3694 C3701 0.950 . S
C3695 C3693 1.387 . S
C3695 C3697 1.390 . S
C3695 H3699 0.950 . S
H3696 C3692 0.950 . S
C3697 C3695 1.390 . S
C3697 C3698 1.387 . S
C3697 H3700 0.950 . S
C3698 C3697 1.387 . S
C3698 C3701 1.387 . S
H3699 C3695 0.950 . S
H3700 C3697 0.950 . S
C3701 C3692 1.390 . S
C3701 H3694 0.950 . S
C3701 C3698 1.387 . S
C3702 C3703 1.387 . S
C3702 H3706 0.950 . S
C3702 C3711 1.390 . S
C3703 C3702 1.387 . S
C3703 C3705 1.387 . S
H3704 C3711 0.950 . S
C3705 C3703 1.387 . S
C3705 C3707 1.390 . S
C3705 H3709 0.950 . S
H3706 C3702 0.950 . S
C3707 C3705 1.390 . S
C3707 C3708 1.387 . S
C3707 H3710 0.950 . S
C3708 C3707 1.387 . S
C3708 C3711 1.387 . S
H3709 C3705 0.950 . S
H3710 C3707 0.950 . S
C3711 C3702 1.390 . S
C3711 H3704 0.950 . S
C3711 C3708 1.387 . S
C2753 C665 1.342 . S
C2758 C2118 1.242 . S
C2763 C381 2.123 . S
C2768 C2170 2.107 . S
C2773 C460 1.350 . S
C2778 C2202 1.379 1_565 S
C2788 C2251 2.652 . S
C2783 C585 2.633 . S
C2793 C108 1.674 . S
C2798 C2287 1.697 . S
C2808 C2318 0.621 . S
C2803 C196 0.542 . S
C2818 C2370 1.166 . S
C2813 C313 0.919 . S
C2823 C49 2.131 . S
C2828 C2398 1.963 . S
C2838 C2130 1.898 . S
C2833 C1457 2.048 . S
C2843 C1545 1.886 . S
C2848 C2171 1.933 . S
C2858 C2201 2.359 . S
C2853 C1721 2.278 1_545 S
C2868 C2238 0.641 . S
C2863 C1113 0.579 . S
C2873 C1428 1.969 . S
C2878 C2282 2.014 . S
C2888 C2330 2.472 . S
C2883 C1516 2.277 . S
C2898 C2371 1.881 1_556 S
C2893 C1692 1.845 . S
C2908 C2410 1.655 . S
C2903 C1085 1.895 . S
C2918 C2131 2.220 . S
C2913 C988 2.226 . S
C2923 C1817 2.023 . S
C2928 C2441 2.176 . S
C2938 C2491 2.416 . S
C2933 C2081 2.433 . S
C2948 C2518 1.038 . S
C2943 C1993 1.020 . S
C2953 C761 2.564 . S
C2958 C2411 2.510 . S
C2963 C821 1.904 . S
C2968 C2207 1.805 . S
C2973 C2053 2.641 . S
C2978 C2570 2.621 . S
C2988 C2598 1.136 . S
C2983 C1868 1.189 . S
C2998 C2127 1.254 . S
C2993 C372 1.363 . S
C3008 C2601 2.108 . S
C3003 C645 2.130 . S
C3013 C577 1.370 . S
C3018 C2211 1.395 . S
C3023 C497 2.626 . S
C3028 C2562 2.647 . S
C3038 C2278 1.649 . S
C3033 C57 1.636 . S
C3043 C293 0.646 . S
C3048 C2487 0.678 . S
C3058 C2361 0.957 . S
C3053 C205 0.830 . S
C3068 C2647 2.017 . S
C3063 C145 2.206 . S
C3078 C2121 1.883 1_556 S
C3073 C909 2.033 . S
C3088 C2602 1.970 . S
C3083 C1956 1.931 . S
C3093 C724 2.284 . S
C3098 C2210 2.370 . S
C3103 C1780 0.502 . S
C3108 C2567 0.610 . S
C3113 C937 1.968 . S
C3118 C2291 2.004 . S
C3128 C2481 2.476 . S
C3123 C1985 2.276 . S
C3133 C753 1.878 . S
C3138 C2362 1.907 . S
C3143 C1809 1.921 . S
C3148 C2641 1.686 . S
C3153 C1173 2.213 . S
C3158 C2122 2.207 1_655 S
C3163 C1105 2.098 . S
C3168 C2450 2.286 . S
C3173 C1633 2.408 . S
C3178 C2322 2.390 . S
C3183 C1553 1.014 . S
C3188 C2527 1.031 . S
C3198 C2642 2.505 . S
C3193 C1729 2.558 . S
C3203 C1340 1.935 . S
C3208 C2198 1.819 . S
C3218 C2241 2.623 . S
C3213 C1604 2.628 . S
C3228 C2167 1.139 . S
C3223 C1252 1.192 . S
C3233 C489 1.327 . S
C3238 C2678 1.224 . S
C3248 C2610 2.125 . S
C3243 C557 2.146 . S
C3253 C636 1.403 1_554 S
C3258 C2722 1.435 . S
C3263 C409 2.639 . S
C3268 C2571 2.660 . S
C3273 C284 1.667 . S
C3278 C2447 1.679 . S
C3288 C2478 0.673 . S
C3283 C20 0.644 . S
C3298 C2530 1.241 . S
C3293 C137 0.944 . S
C3308 C2638 1.639 . S
C3303 C225 1.784 . S
C3318 C2690 1.856 . S
C3313 C1641 2.010 . S
C3323 C1193 1.932 . S
C3328 C2611 1.981 . S
C3338 C2721 2.361 . S
C3333 C1289 2.286 . S
C3348 C2558 0.621 . S
C3343 C1377 0.545 . S
C3358 C2442 2.042 1_556 S
C3353 C1613 2.000 . S
C3363 C1164 2.307 . S
C3368 C2490 2.480 . S
C3378 C2531 1.877 . S
C3373 C1261 1.837 . S
C3383 C1349 1.928 . S
C3388 C2650 1.679 . S
C3398 C2691 2.217 . S
C3393 C1965 2.223 . S
C3403 C849 2.133 . S
C3408 C2281 2.329 . S
C3418 C2331 2.401 . S
C3413 C929 2.420 . S
C3428 C2358 1.039 . S
C3423 C1017 1.026 . S
C3438 C2651 2.486 . S
C3433 C1897 2.536 . S
C3443 C1789 1.775 . S
C3448 C2727 1.647 . S
C3458 C2250 2.648 . S
C3453 C900 2.656 . S
C3468 C2158 1.128 . S
C3463 C733 1.180 . S
C3473 C548 1.361 . S
C3478 C2687 1.252 . S
C3488 C2161 2.125 . S
C3483 C469 2.154 . S
C3493 C401 1.401 . S
C3498 C2731 1.427 . S
C3503 C673 2.632 . S
C3508 C2242 2.655 . S
C3513 C233 1.530 . S
C3518 C2438 1.521 . S
C3528 C2327 0.668 . S
C3523 C117 0.632 . S
C3533 C29 0.918 . S
C3538 C2521 1.192 . S
C3543 C321 2.078 . S
C3548 C2407 1.903 . S
C3558 C2681 1.857 . S
C3553 C2044 2.010 . S
C3563 C997 1.948 . S
C3568 C2162 1.985 . S
C3578 C2730 2.390 1_556 S
C3573 C1877 2.308 . S
C3583 C812 0.570 . S
C3588 C2247 0.634 . S
C3593 C2073 1.998 . S
C3598 C2451 2.033 . S
C3608 C2321 2.492 . S
C3603 C1025 2.314 . S
C3613 C1905 1.854 . S
C3618 C2522 1.885 . S
C3628 C2401 1.671 . S
C3623 C841 1.922 . S
C3638 C2682 2.215 . S
C3633 C1525 2.222 . S
C3648 C2290 2.342 . S
C3643 C1369 2.128 . S
C3653 C1465 2.398 . S
C3658 C2482 2.378 . S
C3668 C2367 1.031 . S
C3663 C1201 1.019 . S
C3673 C1281 2.553 . S
C3678 C2402 2.497 . S
C3683 C1076 1.884 . S
C3688 C2718 1.764 . S
C3698 C2561 2.642 . S
C3693 C1437 2.637 . S
C3708 C2607 1.122 . S
C3703 C1701 1.178 . S
