# Generated by pormake.
# Topology gar, (4,6)-cn, num edge types: 1
# Building blocks:
#     Node 0, Type 0, BuildingBlock: QUQFOY_clean_sbu_1, # of connection points: 4
#     Node 1, Type 0, BuildingBlock: QUQFOY_clean_sbu_1, # of connection points: 4
#     Node 2, Type 0, BuildingBlock: QUQFOY_clean_sbu_1, # of connection points: 4
#     Node 3, Type 0, BuildingBlock: QUQFOY_clean_sbu_1, # of connection points: 4
#     Node 4, Type 0, BuildingBlock: QUQFOY_clean_sbu_1, # of connection points: 4
#     Node 5, Type 0, BuildingBlock: QUQFOY_clean_sbu_1, # of connection points: 4
#     Node 6, Type 0, BuildingBlock: QUQFOY_clean_sbu_1, # of connection points: 4
#     Node 7, Type 0, BuildingBlock: QUQFOY_clean_sbu_1, # of connection points: 4
#     Node 8, Type 0, BuildingBlock: QUQFOY_clean_sbu_1, # of connection points: 4
#     Node 9, Type 0, BuildingBlock: QUQFOY_clean_sbu_1, # of connection points: 4
#     Node 10, Type 0, BuildingBlock: QUQFOY_clean_sbu_1, # of connection points: 4
#     Node 11, Type 0, BuildingBlock: QUQFOY_clean_sbu_1, # of connection points: 4
#     Node 12, Type 0, BuildingBlock: QUQFOY_clean_sbu_1, # of connection points: 4
#     Node 13, Type 0, BuildingBlock: QUQFOY_clean_sbu_1, # of connection points: 4
#     Node 14, Type 0, BuildingBlock: QUQFOY_clean_sbu_1, # of connection points: 4
#     Node 15, Type 0, BuildingBlock: QUQFOY_clean_sbu_1, # of connection points: 4
#     Node 16, Type 0, BuildingBlock: QUQFOY_clean_sbu_1, # of connection points: 4
#     Node 17, Type 0, BuildingBlock: QUQFOY_clean_sbu_1, # of connection points: 4
#     Node 18, Type 0, BuildingBlock: QUQFOY_clean_sbu_1, # of connection points: 4
#     Node 19, Type 0, BuildingBlock: QUQFOY_clean_sbu_1, # of connection points: 4
#     Node 20, Type 0, BuildingBlock: QUQFOY_clean_sbu_1, # of connection points: 4
#     Node 21, Type 0, BuildingBlock: QUQFOY_clean_sbu_1, # of connection points: 4
#     Node 22, Type 0, BuildingBlock: QUQFOY_clean_sbu_1, # of connection points: 4
#     Node 23, Type 0, BuildingBlock: QUQFOY_clean_sbu_1, # of connection points: 4
#     Node 24, Type 1, BuildingBlock: INOVEN_clean_sbu_0, # of connection points: 6
#     Node 25, Type 1, BuildingBlock: INOVEN_clean_sbu_0, # of connection points: 6
#     Node 26, Type 1, BuildingBlock: INOVEN_clean_sbu_0, # of connection points: 6
#     Node 27, Type 1, BuildingBlock: INOVEN_clean_sbu_0, # of connection points: 6
#     Node 28, Type 1, BuildingBlock: INOVEN_clean_sbu_0, # of connection points: 6
#     Node 29, Type 1, BuildingBlock: INOVEN_clean_sbu_0, # of connection points: 6
#     Node 30, Type 1, BuildingBlock: INOVEN_clean_sbu_0, # of connection points: 6
#     Node 31, Type 1, BuildingBlock: INOVEN_clean_sbu_0, # of connection points: 6
#     Node 32, Type 1, BuildingBlock: INOVEN_clean_sbu_0, # of connection points: 6
#     Node 33, Type 1, BuildingBlock: INOVEN_clean_sbu_0, # of connection points: 6
#     Node 34, Type 1, BuildingBlock: INOVEN_clean_sbu_0, # of connection points: 6
#     Node 35, Type 1, BuildingBlock: INOVEN_clean_sbu_0, # of connection points: 6
#     Node 36, Type 1, BuildingBlock: INOVEN_clean_sbu_0, # of connection points: 6
#     Node 37, Type 1, BuildingBlock: INOVEN_clean_sbu_0, # of connection points: 6
#     Node 38, Type 1, BuildingBlock: INOVEN_clean_sbu_0, # of connection points: 6
#     Node 39, Type 1, BuildingBlock: INOVEN_clean_sbu_0, # of connection points: 6
#     Edge 40, Type (0, 1), BuildingBlock: MIFKUJ_clean_linker_0, # of connection points: 2
#     Edge 41, Type (0, 1), BuildingBlock: MIFKUJ_clean_linker_0, # of connection points: 2
#     Edge 42, Type (0, 1), BuildingBlock: MIFKUJ_clean_linker_0, # of connection points: 2
#     Edge 43, Type (0, 1), BuildingBlock: MIFKUJ_clean_linker_0, # of connection points: 2
#     Edge 44, Type (0, 1), BuildingBlock: MIFKUJ_clean_linker_0, # of connection points: 2
#     Edge 45, Type (0, 1), BuildingBlock: MIFKUJ_clean_linker_0, # of connection points: 2
#     Edge 46, Type (0, 1), BuildingBlock: MIFKUJ_clean_linker_0, # of connection points: 2
#     Edge 47, Type (0, 1), BuildingBlock: MIFKUJ_clean_linker_0, # of connection points: 2
#     Edge 48, Type (0, 1), BuildingBlock: MIFKUJ_clean_linker_0, # of connection points: 2
#     Edge 49, Type (0, 1), BuildingBlock: MIFKUJ_clean_linker_0, # of connection points: 2
#     Edge 50, Type (0, 1), BuildingBlock: MIFKUJ_clean_linker_0, # of connection points: 2
#     Edge 51, Type (0, 1), BuildingBlock: MIFKUJ_clean_linker_0, # of connection points: 2
#     Edge 52, Type (0, 1), BuildingBlock: MIFKUJ_clean_linker_0, # of connection points: 2
#     Edge 53, Type (0, 1), BuildingBlock: MIFKUJ_clean_linker_0, # of connection points: 2
#     Edge 54, Type (0, 1), BuildingBlock: MIFKUJ_clean_linker_0, # of connection points: 2
#     Edge 55, Type (0, 1), BuildingBlock: MIFKUJ_clean_linker_0, # of connection points: 2
#     Edge 56, Type (0, 1), BuildingBlock: MIFKUJ_clean_linker_0, # of connection points: 2
#     Edge 57, Type (0, 1), BuildingBlock: MIFKUJ_clean_linker_0, # of connection points: 2
#     Edge 58, Type (0, 1), BuildingBlock: MIFKUJ_clean_linker_0, # of connection points: 2
#     Edge 59, Type (0, 1), BuildingBlock: MIFKUJ_clean_linker_0, # of connection points: 2
#     Edge 60, Type (0, 1), BuildingBlock: MIFKUJ_clean_linker_0, # of connection points: 2
#     Edge 61, Type (0, 1), BuildingBlock: MIFKUJ_clean_linker_0, # of connection points: 2
#     Edge 62, Type (0, 1), BuildingBlock: MIFKUJ_clean_linker_0, # of connection points: 2
#     Edge 63, Type (0, 1), BuildingBlock: MIFKUJ_clean_linker_0, # of connection points: 2
#     Edge 64, Type (0, 1), BuildingBlock: MIFKUJ_clean_linker_0, # of connection points: 2
#     Edge 65, Type (0, 1), BuildingBlock: MIFKUJ_clean_linker_0, # of connection points: 2
#     Edge 66, Type (0, 1), BuildingBlock: MIFKUJ_clean_linker_0, # of connection points: 2
#     Edge 67, Type (0, 1), BuildingBlock: MIFKUJ_clean_linker_0, # of connection points: 2
#     Edge 68, Type (0, 1), BuildingBlock: MIFKUJ_clean_linker_0, # of connection points: 2
#     Edge 69, Type (0, 1), BuildingBlock: MIFKUJ_clean_linker_0, # of connection points: 2
#     Edge 70, Type (0, 1), BuildingBlock: MIFKUJ_clean_linker_0, # of connection points: 2
#     Edge 71, Type (0, 1), BuildingBlock: MIFKUJ_clean_linker_0, # of connection points: 2
#     Edge 72, Type (0, 1), BuildingBlock: MIFKUJ_clean_linker_0, # of connection points: 2
#     Edge 73, Type (0, 1), BuildingBlock: MIFKUJ_clean_linker_0, # of connection points: 2
#     Edge 74, Type (0, 1), BuildingBlock: MIFKUJ_clean_linker_0, # of connection points: 2
#     Edge 75, Type (0, 1), BuildingBlock: MIFKUJ_clean_linker_0, # of connection points: 2
#     Edge 76, Type (0, 1), BuildingBlock: MIFKUJ_clean_linker_0, # of connection points: 2
#     Edge 77, Type (0, 1), BuildingBlock: MIFKUJ_clean_linker_0, # of connection points: 2
#     Edge 78, Type (0, 1), BuildingBlock: MIFKUJ_clean_linker_0, # of connection points: 2
#     Edge 79, Type (0, 1), BuildingBlock: MIFKUJ_clean_linker_0, # of connection points: 2
#     Edge 80, Type (0, 1), BuildingBlock: MIFKUJ_clean_linker_0, # of connection points: 2
#     Edge 81, Type (0, 1), BuildingBlock: MIFKUJ_clean_linker_0, # of connection points: 2
#     Edge 82, Type (0, 1), BuildingBlock: MIFKUJ_clean_linker_0, # of connection points: 2
#     Edge 83, Type (0, 1), BuildingBlock: MIFKUJ_clean_linker_0, # of connection points: 2
#     Edge 84, Type (0, 1), BuildingBlock: MIFKUJ_clean_linker_0, # of connection points: 2
#     Edge 85, Type (0, 1), BuildingBlock: MIFKUJ_clean_linker_0, # of connection points: 2
#     Edge 86, Type (0, 1), BuildingBlock: MIFKUJ_clean_linker_0, # of connection points: 2
#     Edge 87, Type (0, 1), BuildingBlock: MIFKUJ_clean_linker_0, # of connection points: 2
#     Edge 88, Type (0, 1), BuildingBlock: MIFKUJ_clean_linker_0, # of connection points: 2
#     Edge 89, Type (0, 1), BuildingBlock: MIFKUJ_clean_linker_0, # of connection points: 2
#     Edge 90, Type (0, 1), BuildingBlock: MIFKUJ_clean_linker_0, # of connection points: 2
#     Edge 91, Type (0, 1), BuildingBlock: MIFKUJ_clean_linker_0, # of connection points: 2
#     Edge 92, Type (0, 1), BuildingBlock: MIFKUJ_clean_linker_0, # of connection points: 2
#     Edge 93, Type (0, 1), BuildingBlock: MIFKUJ_clean_linker_0, # of connection points: 2
#     Edge 94, Type (0, 1), BuildingBlock: MIFKUJ_clean_linker_0, # of connection points: 2
#     Edge 95, Type (0, 1), BuildingBlock: MIFKUJ_clean_linker_0, # of connection points: 2
#     Edge 96, Type (0, 1), BuildingBlock: MIFKUJ_clean_linker_0, # of connection points: 2
#     Edge 97, Type (0, 1), BuildingBlock: MIFKUJ_clean_linker_0, # of connection points: 2
#     Edge 98, Type (0, 1), BuildingBlock: MIFKUJ_clean_linker_0, # of connection points: 2
#     Edge 99, Type (0, 1), BuildingBlock: MIFKUJ_clean_linker_0, # of connection points: 2
#     Edge 100, Type (0, 1), BuildingBlock: MIFKUJ_clean_linker_0, # of connection points: 2
#     Edge 101, Type (0, 1), BuildingBlock: MIFKUJ_clean_linker_0, # of connection points: 2
#     Edge 102, Type (0, 1), BuildingBlock: MIFKUJ_clean_linker_0, # of connection points: 2
#     Edge 103, Type (0, 1), BuildingBlock: MIFKUJ_clean_linker_0, # of connection points: 2
#     Edge 104, Type (0, 1), BuildingBlock: MIFKUJ_clean_linker_0, # of connection points: 2
#     Edge 105, Type (0, 1), BuildingBlock: MIFKUJ_clean_linker_0, # of connection points: 2
#     Edge 106, Type (0, 1), BuildingBlock: MIFKUJ_clean_linker_0, # of connection points: 2
#     Edge 107, Type (0, 1), BuildingBlock: MIFKUJ_clean_linker_0, # of connection points: 2
#     Edge 108, Type (0, 1), BuildingBlock: MIFKUJ_clean_linker_0, # of connection points: 2
#     Edge 109, Type (0, 1), BuildingBlock: MIFKUJ_clean_linker_0, # of connection points: 2
#     Edge 110, Type (0, 1), BuildingBlock: MIFKUJ_clean_linker_0, # of connection points: 2
#     Edge 111, Type (0, 1), BuildingBlock: MIFKUJ_clean_linker_0, # of connection points: 2
#     Edge 112, Type (0, 1), BuildingBlock: MIFKUJ_clean_linker_0, # of connection points: 2
#     Edge 113, Type (0, 1), BuildingBlock: MIFKUJ_clean_linker_0, # of connection points: 2
#     Edge 114, Type (0, 1), BuildingBlock: MIFKUJ_clean_linker_0, # of connection points: 2
#     Edge 115, Type (0, 1), BuildingBlock: MIFKUJ_clean_linker_0, # of connection points: 2
#     Edge 116, Type (0, 1), BuildingBlock: MIFKUJ_clean_linker_0, # of connection points: 2
#     Edge 117, Type (0, 1), BuildingBlock: MIFKUJ_clean_linker_0, # of connection points: 2
#     Edge 118, Type (0, 1), BuildingBlock: MIFKUJ_clean_linker_0, # of connection points: 2
#     Edge 119, Type (0, 1), BuildingBlock: MIFKUJ_clean_linker_0, # of connection points: 2
#     Edge 120, Type (0, 1), BuildingBlock: MIFKUJ_clean_linker_0, # of connection points: 2
#     Edge 121, Type (0, 1), BuildingBlock: MIFKUJ_clean_linker_0, # of connection points: 2
#     Edge 122, Type (0, 1), BuildingBlock: MIFKUJ_clean_linker_0, # of connection points: 2
#     Edge 123, Type (0, 1), BuildingBlock: MIFKUJ_clean_linker_0, # of connection points: 2
#     Edge 124, Type (0, 1), BuildingBlock: MIFKUJ_clean_linker_0, # of connection points: 2
#     Edge 125, Type (0, 1), BuildingBlock: MIFKUJ_clean_linker_0, # of connection points: 2
#     Edge 126, Type (0, 1), BuildingBlock: MIFKUJ_clean_linker_0, # of connection points: 2
#     Edge 127, Type (0, 1), BuildingBlock: MIFKUJ_clean_linker_0, # of connection points: 2
#     Edge 128, Type (0, 1), BuildingBlock: MIFKUJ_clean_linker_0, # of connection points: 2
#     Edge 129, Type (0, 1), BuildingBlock: MIFKUJ_clean_linker_0, # of connection points: 2
#     Edge 130, Type (0, 1), BuildingBlock: MIFKUJ_clean_linker_0, # of connection points: 2
#     Edge 131, Type (0, 1), BuildingBlock: MIFKUJ_clean_linker_0, # of connection points: 2
#     Edge 132, Type (0, 1), BuildingBlock: MIFKUJ_clean_linker_0, # of connection points: 2
#     Edge 133, Type (0, 1), BuildingBlock: MIFKUJ_clean_linker_0, # of connection points: 2
#     Edge 134, Type (0, 1), BuildingBlock: MIFKUJ_clean_linker_0, # of connection points: 2
#     Edge 135, Type (0, 1), BuildingBlock: MIFKUJ_clean_linker_0, # of connection points: 2
# Relax obj value: 0.167
# Max RMSD: 0.296
# Mean RMSD: 0.178
data_MOF--net-gar--node1-QUQFOY_clean_sbu_1--node2-INOVEN_clean_sbu_0--edge1-MIFKUJ_clean_linker_0
_symmetry_space_group_name_H-M    P1
_symmetry_Int_Tables_number       1
_symmetry_cell_setting            triclinic
loop_
_symmetry_equiv_pos_as_xyz
'x, y, z'
_cell_length_a     79.926182
_cell_length_b     74.531233
_cell_length_c     74.652867
_cell_angle_alpha  98.968729
_cell_angle_beta   95.35537
_cell_angle_gamma 105.16824
loop_
_atom_site_label
_atom_site_type_symbol
_atom_site_fract_x
_atom_site_fract_y
_atom_site_fract_z
_atom_type_partial_charge
O0 O 0.09103 0.29704 0.39238 0.0
Cd1 Cd 0.09861 0.31953 0.37949 0.0
Cd2 Cd 0.09057 0.33503 0.40949 0.0
O3 O 0.09722 0.31381 0.4203 0.0
O4 O 0.10675 0.30799 0.35767 0.0
O5 O 0.12401 0.33158 0.37858 0.0
C6 C 0.12197 0.31964 0.36347 0.0
C7 C 0.09668 0.36567 0.42531 0.0
C8 C 0.09313 0.29793 0.40955 0.0
C9 C 0.06544 0.32687 0.37593 0.0
O10 O 0.06686 0.32706 0.39302 0.0
O11 O 0.07868 0.32771 0.36769 0.0
O12 O 0.0865 0.35176 0.4308 0.0
O13 O 0.10452 0.36207 0.41137 0.0
O14 O 0.99057 0.72573 0.65052 0.0
Cd15 Cd 0.99344 0.75106 0.66657 0.0
Cd16 Cd 1.00037 0.76196 0.63725 0.0
O17 O 0.98397 0.736 0.62566 0.0
O18 O 0.97965 0.7467 0.68636 0.0
O19 O 0.97409 0.76247 0.66437 0.0
C20 C 0.96985 0.75546 0.67868 0.0
C21 C 1.00188 0.78822 0.62449 0.0
C22 C 0.98543 0.72247 0.63349 0.0
C23 C 0.02956 0.76593 0.66607 0.0
O24 O 0.0246 0.76237 0.64895 0.0
O25 O 0.01843 0.76554 0.67712 0.0
O26 O 0.00588 0.77386 0.616 0.0
O27 O 0.99571 0.78717 0.6398 0.0
O28 O 0.62657 0.8243 0.89056 0.0
Cd29 Cd 0.60628 0.82242 0.90576 0.0
Cd30 Cd 0.5901 0.82781 0.87599 0.0
O31 O 0.60908 0.81867 0.86446 0.0
O32 O 0.60883 0.80575 0.9234 0.0
O33 O 0.58681 0.7983 0.9006 0.0
C34 C 0.59473 0.79373 0.91435 0.0
C35 C 0.56265 0.81992 0.85983 0.0
C36 C 0.6239 0.82038 0.87322 0.0
C37 C 0.59802 0.85844 0.90862 0.0
O38 O 0.5952 0.85419 0.89132 0.0
O39 O 0.60169 0.84689 0.91808 0.0
O40 O 0.57575 0.83103 0.85463 0.0
O41 O 0.56543 0.81206 0.87364 0.0
O42 O 0.49508 0.21915 0.14712 0.0
Cd43 Cd 0.4964 0.24376 0.16354 0.0
Cd44 Cd 0.50722 0.25652 0.13613 0.0
O45 O 0.49562 0.2299 0.12137 0.0
O46 O 0.47949 0.23707 0.18031 0.0
O47 O 0.47846 0.25729 0.1613 0.0
C48 C 0.47185 0.24833 0.17364 0.0
C49 C 0.5081 0.28342 0.12458 0.0
C50 C 0.4944 0.21628 0.12989 0.0
C51 C 0.53302 0.26005 0.16894 0.0
O52 O 0.53039 0.25937 0.15182 0.0
O53 O 0.5203 0.25638 0.17797 0.0
O54 O 0.51519 0.27103 0.11717 0.0
O55 O 0.4993 0.27997 0.1379 0.0
O56 O 0.06414 0.7783 0.11418 0.0
Cd57 Cd 0.06796 0.80214 0.13354 0.0
Cd58 Cd 0.08538 0.81818 0.10611 0.0
O59 O 0.07601 0.79034 0.09148 0.0
O60 O 0.05258 0.79265 0.15193 0.0
O61 O 0.04695 0.81263 0.13492 0.0
C62 C 0.04222 0.80205 0.14673 0.0
C63 C 0.07991 0.8448 0.09474 0.0
C64 C 0.0682 0.77615 0.09812 0.0
C65 C 0.10762 0.81673 0.14118 0.0
O66 O 0.10721 0.82078 0.12517 0.0
O67 O 0.09342 0.8111 0.14783 0.0
O68 O 0.09166 0.83711 0.0891 0.0
O69 O 0.07115 0.83739 0.10678 0.0
O70 O 0.54849 0.77257 0.40691 0.0
Cd71 Cd 0.53196 0.76809 0.42658 0.0
Cd72 Cd 0.51033 0.78042 0.39294 0.0
O73 O 0.53287 0.77609 0.3819 0.0
O74 O 0.54499 0.75809 0.44592 0.0
O75 O 0.51997 0.74101 0.42976 0.0
C76 C 0.53294 0.74218 0.44201 0.0
C77 C 0.48251 0.77824 0.37532 0.0
C78 C 0.54722 0.77501 0.39035 0.0
C79 C 0.52299 0.80568 0.43227 0.0
O80 O 0.51668 0.80225 0.41537 0.0
O81 O 0.52819 0.79338 0.43971 0.0
O82 O 0.49684 0.79038 0.37376 0.0
O83 O 0.48391 0.76646 0.38596 0.0
O84 O 0.57508 0.27556 0.61958 0.0
Cd85 Cd 0.57775 0.29904 0.63878 0.0
Cd86 Cd 0.59451 0.3149 0.61031 0.0
O87 O 0.58372 0.28702 0.59541 0.0
O88 O 0.56148 0.2878 0.65591 0.0
O89 O 0.55603 0.30856 0.63994 0.0
C90 C 0.55077 0.29684 0.65067 0.0
C91 C 0.58863 0.34179 0.59923 0.0
C92 C 0.57755 0.27292 0.60297 0.0
C93 C 0.61745 0.31342 0.64586 0.0
O94 O 0.6167 0.31668 0.62946 0.0
O95 O 0.60337 0.30866 0.65303 0.0
O96 O 0.59927 0.33321 0.59222 0.0
O97 O 0.5814 0.33536 0.61261 0.0
O98 O 0.02431 0.24028 0.91283 0.0
Cd99 Cd 0.02473 0.26193 0.8972 0.0
Cd100 Cd 0.01161 0.27647 0.92827 0.0
O101 O 0.01723 0.25368 0.93848 0.0
O102 O 0.03945 0.25727 0.87712 0.0
O103 O 0.04886 0.28139 0.9001 0.0
C104 C 0.05194 0.2718 0.88543 0.0
C105 C 0.02312 0.30794 0.94375 0.0
C106 C 0.02174 0.24015 0.92946 0.0
C107 C 0.98805 0.2699 0.89259 0.0
O108 O 0.98904 0.27228 0.90996 0.0
O109 O 1.00101 0.26672 0.88496 0.0
O110 O 0.01097 0.29614 0.94965 0.0
O111 O 0.02944 0.30168 0.92952 0.0
O112 O 0.43646 0.04737 0.26939 0.0
Cd113 Cd 0.42688 0.05212 0.29348 0.0
Cd114 Cd 0.45528 0.04538 0.29998 0.0
O115 O 0.46432 0.05859 0.27996 0.0
O116 O 0.40411 0.05208 0.28153 0.0
O117 O 0.42207 0.07701 0.30042 0.0
C118 C 0.40804 0.06969 0.28875 0.0
C119 C 0.46685 0.04827 0.32891 0.0
C120 C 0.45218 0.05253 0.2665 0.0
C121 C 0.42422 0.01558 0.29753 0.0
O122 O 0.43857 0.01925 0.29116 0.0
O123 O 0.41874 0.02902 0.30493 0.0
O124 O 0.47378 0.04095 0.31568 0.0
O125 O 0.45477 0.05642 0.32534 0.0
O126 O 0.30364 0.19194 0.52947 0.0
Cd127 Cd 0.30004 0.17066 0.5075 0.0
Cd128 Cd 0.28599 0.19886 0.49045 0.0
O129 O 0.29537 0.21433 0.51772 0.0
O130 O 0.31171 0.15277 0.51819 0.0
O131 O 0.32239 0.16825 0.49715 0.0
C132 C 0.32413 0.15724 0.5085 0.0
C133 C 0.29127 0.21107 0.46265 0.0
C134 C 0.30117 0.20824 0.5315 0.0
C135 C 0.26035 0.16123 0.49442 0.0
O136 O 0.26278 0.17727 0.48943 0.0
O137 O 0.27332 0.15573 0.50051 0.0
O138 O 0.28151 0.21701 0.47363 0.0
O139 O 0.29859 0.19871 0.46754 0.0
O140 O 0.1574 1.0047 0.73538 0.0
Cd141 Cd 0.17923 1.00461 0.75498 0.0
Cd142 Cd 0.14957 0.0247 0.77952 0.0
O143 O 0.13739 0.01488 0.75058 0.0
O144 O 0.19666 0.98932 0.74359 0.0
O145 O 0.18161 0.97912 0.76427 0.0
C146 C 0.19278 0.97635 0.75342 0.0
C147 C 0.13507 0.0242 0.80892 0.0
C148 C 0.14286 0.00933 0.73536 0.0
C149 C 0.18719 0.04973 0.77214 0.0
O150 O 0.17241 0.04737 0.77849 0.0
O151 O 0.19218 0.03528 0.76483 0.0
O152 O 0.13205 0.03395 0.79672 0.0
O153 O 0.14574 0.01436 0.80463 0.0
O154 O 0.30402 0.92839 0.02405 0.0
Cd155 Cd 0.2996 0.94124 1.0029 0.0
Cd156 Cd 0.30063 0.90925 0.98702 0.0
O157 O 0.29106 0.8996 0.00892 0.0
O158 O 0.29106 0.96235 0.01351 0.0
O159 O 0.2748 0.93736 0.99299 0.0
C160 C 0.2761 0.95294 0.00415 0.0
C161 C 0.29751 0.89141 0.95857 0.0
C162 C 0.29815 0.91085 0.02385 0.0
C163 C 0.33209 0.94198 0.99313 0.0
O164 O 0.32598 0.92454 0.993 0.0
O165 O 0.32202 0.95258 0.99317 0.0
O166 O 0.30464 0.88682 0.97268 0.0
O167 O 0.29004 0.90485 0.96101 0.0
O168 O 0.30305 0.38996 0.06304 0.0
Cd169 Cd 0.30578 0.4073 0.04305 0.0
Cd170 Cd 0.31582 0.37606 0.02452 0.0
O171 O 0.30867 0.36472 0.04778 0.0
O172 O 0.29201 0.42657 0.0488 0.0
O173 O 0.28321 0.40301 0.02521 0.0
C174 C 0.28029 0.41747 0.03503 0.0
C175 C 0.30799 0.35946 0.99394 0.0
C176 C 0.30442 0.37314 0.06218 0.0
C177 C 0.34365 0.41417 0.0331 0.0
O178 O 0.33966 0.39638 0.02749 0.0
O179 O 0.33206 0.4217 0.03917 0.0
O180 O 0.31926 0.35579 0.00529 0.0
O181 O 0.29993 0.37148 1.00031 0.0
O182 O 0.79048 0.14989 0.05231 0.0
Cd183 Cd 0.78935 0.1369 0.02585 0.0
Cd184 Cd 0.79053 0.16904 0.02146 0.0
O185 O 0.80585 0.17664 0.04608 0.0
O186 O 0.80008 0.11592 0.02295 0.0
O187 O 0.81173 0.14454 0.01659 0.0
C188 C 0.81267 0.12769 0.0175 0.0
C189 C 0.79465 0.17861 0.99457 0.0
C190 C 0.79969 0.16691 0.05771 0.0
C191 C 0.75702 0.14249 0.01354 0.0
O192 O 0.76465 0.15897 0.02246 0.0
O193 O 0.76589 0.13099 0.00942 0.0
O194 O 0.79286 0.19028 0.00851 0.0
O195 O 0.79624 0.16225 0.99666 0.0
O196 O 0.16933 0.54203 0.23158 0.0
Cd197 Cd 0.17845 0.5428 0.2581 0.0
Cd198 Cd 0.14934 0.54646 0.26005 0.0
O199 O 0.1428 0.52795 0.23598 0.0
O200 O 0.19975 0.53501 0.25882 0.0
O201 O 0.1744 0.5187 0.26638 0.0
C202 C 0.19059 0.52042 0.26435 0.0
C203 C 0.1416 0.54652 0.28789 0.0
C204 C 0.15361 0.53314 0.22511 0.0
C205 C 0.17701 0.57939 0.27028 0.0
O206 O 0.16289 0.57333 0.25925 0.0
O207 O 0.18431 0.56771 0.27574 0.0
O208 O 0.13116 0.54924 0.27487 0.0
O209 O 0.15467 0.54015 0.28395 0.0
O210 O 0.80678 0.89198 0.56789 0.0
Cd211 Cd 0.80805 0.90724 0.54625 0.0
Cd212 Cd 0.81671 0.87656 0.52912 0.0
O213 O 0.80823 0.86497 0.55195 0.0
O214 O 0.79398 0.92622 0.55048 0.0
O215 O 0.7853 0.90108 0.52841 0.0
C216 C 0.78232 0.91609 0.53705 0.0
C217 C 0.80686 0.8621 0.49822 0.0
C218 C 0.80611 0.87453 0.56692 0.0
C219 C 0.84518 0.91385 0.53601 0.0
O220 O 0.84146 0.89587 0.53233 0.0
O221 O 0.83334 0.92162 0.5407 0.0
O222 O 0.81761 0.85631 0.50829 0.0
O223 O 0.80067 0.87525 0.50592 0.0
O224 O 0.9355 0.06346 0.22597 0.0
Cd225 Cd 0.91534 0.06328 0.24501 0.0
Cd226 Cd 0.94753 0.04813 0.26597 0.0
O227 O 0.95724 0.05502 0.24053 0.0
O228 O 0.89653 0.07762 0.23668 0.0
O229 O 0.9151 0.09002 0.26115 0.0
C230 C 0.90229 0.09176 0.25024 0.0
C231 C 0.96392 0.05391 0.29718 0.0
C232 C 0.9506 0.05988 0.22614 0.0
C233 C 0.90878 0.02085 0.25629 0.0
O234 O 0.92524 0.02444 0.2615 0.0
O235 O 0.90258 0.034 0.25091 0.0
O236 O 0.9661 0.04185 0.28383 0.0
O237 O 0.95346 0.06366 0.29288 0.0
O238 O 0.28906 0.65067 0.54461 0.0
Cd239 Cd 0.28995 0.63323 0.52084 0.0
Cd240 Cd 0.288 0.66153 0.51011 0.0
O241 O 0.30134 0.67642 0.53454 0.0
O242 O 0.30324 0.61557 0.52527 0.0
O243 O 0.31133 0.63866 0.50929 0.0
C244 C 0.3143 0.62455 0.51588 0.0
C245 C 0.28616 0.67113 0.48324 0.0
C246 C 0.29583 0.66846 0.54752 0.0
C247 C 0.25665 0.63004 0.5057 0.0
O248 O 0.26286 0.64765 0.51117 0.0
O249 O 0.26666 0.61945 0.50542 0.0
O250 O 0.28238 0.68043 0.49758 0.0
O251 O 0.29428 0.65847 0.48494 0.0
O252 O 0.43621 0.56537 0.72907 0.0
Cd253 Cd 0.41506 0.56529 0.7469 0.0
Cd254 Cd 0.44813 0.54893 0.76939 0.0
O255 O 0.45732 0.55578 0.7437 0.0
O256 O 0.39587 0.57886 0.73705 0.0
O257 O 0.41368 0.59243 0.76173 0.0
C258 C 0.40101 0.5935 0.75017 0.0
C259 C 0.4653 0.553 0.80032 0.0
C260 C 0.45107 0.56118 0.72945 0.0
C261 C 0.40889 0.52241 0.75825 0.0
O262 O 0.42522 0.52592 0.76414 0.0
O263 O 0.40281 0.53562 0.75267 0.0
O264 O 0.46691 0.54145 0.7862 0.0
O265 O 0.45491 0.56315 0.79697 0.0
O266 O 0.6716 0.04586 0.72551 0.0
Cd267 Cd 0.68263 0.04734 0.7515 0.0
Cd268 Cd 0.6532 0.04832 0.75609 0.0
O269 O 0.64657 0.02979 0.73215 0.0
O270 O 0.70302 0.03784 0.75225 0.0
O271 O 0.67712 0.02346 0.76009 0.0
C272 C 0.69308 0.02388 0.75804 0.0
C273 C 0.64574 0.0478 0.7841 0.0
C274 C 0.65589 0.03598 0.72038 0.0
C275 C 0.67855 0.08279 0.76518 0.0
O276 O 0.6642 0.07562 0.75467 0.0
O277 O 0.68771 0.07216 0.7694 0.0
O278 O 0.63477 0.04966 0.77109 0.0
O279 O 0.65955 0.04292 0.7802 0.0
O280 O 0.80207 0.6963 0.03543 0.0
Cd281 Cd 0.79952 0.67531 0.01358 0.0
Cd282 Cd 0.78531 0.70417 0.99783 0.0
O283 O 0.79519 0.71993 0.02481 0.0
O284 O 0.81088 0.65831 0.0261 0.0
O285 O 0.82211 0.67205 0.00432 0.0
C286 C 0.82359 0.66197 0.01664 0.0
C287 C 0.79027 0.71613 0.96988 0.0
C288 C 0.80011 0.7128 0.03821 0.0
C289 C 0.76001 0.66576 1.00132 0.0
O290 O 0.76229 0.68237 0.99761 0.0
O291 O 0.77315 0.6598 0.00592 0.0
O292 O 0.78053 0.72207 0.9809 0.0
O293 O 0.79766 0.70382 0.97476 0.0
O294 O 0.92951 0.5467 0.77475 0.0
Cd295 Cd 0.91891 0.55043 0.79829 0.0
Cd296 Cd 0.9476 0.54667 0.80835 0.0
O297 O 0.95679 0.55888 0.78768 0.0
O298 O 0.89764 0.55665 0.78973 0.0
O299 O 0.91998 0.57683 0.80902 0.0
C300 C 0.90505 0.57341 0.79895 0.0
C301 C 0.95982 0.55133 0.83756 0.0
C302 C 0.9456 0.5526 0.77336 0.0
C303 C 0.91733 0.51401 0.80199 0.0
O304 O 0.93312 0.51957 0.79956 0.0
O305 O 0.9092 0.52598 0.80702 0.0
O306 O 0.96658 0.5435 0.82451 0.0
O307 O 0.94721 0.55864 0.83372 0.0
O308 O 0.80207 0.4196 0.53138 0.0
Cd309 Cd 0.79885 0.43252 0.50989 0.0
Cd310 Cd 0.80307 0.40153 0.49653 0.0
O311 O 0.79234 0.39015 0.51709 0.0
O312 O 0.79241 0.45371 0.52349 0.0
O313 O 0.7751 0.43319 0.49991 0.0
C314 C 0.77748 0.44727 0.51328 0.0
C315 C 0.79846 0.38672 0.46701 0.0
C316 C 0.7972 0.40216 0.53185 0.0
C317 C 0.83302 0.43589 0.50372 0.0
O318 O 0.82808 0.41837 0.50398 0.0
O319 O 0.82181 0.44499 0.50188 0.0
O320 O 0.80679 0.38086 0.47945 0.0
O321 O 0.79139 0.40019 0.47157 0.0
O322 O 0.65932 0.50109 0.24116 0.0
Cd323 Cd 0.68187 0.50193 0.26045 0.0
Cd324 Cd 0.65184 0.52242 0.28441 0.0
O325 O 0.63941 0.51238 0.25551 0.0
O326 O 0.69743 0.48466 0.24811 0.0
O327 O 0.68597 0.47822 0.27217 0.0
C328 C 0.69524 0.4735 0.25989 0.0
C329 C 0.63724 0.52244 0.31384 0.0
C330 C 0.64484 0.5059 0.24058 0.0
C331 C 0.68979 0.54727 0.27641 0.0
O332 O 0.67509 0.54458 0.28294 0.0
O333 O 0.695 0.53293 0.26912 0.0
O334 O 0.63724 0.53468 0.30332 0.0
O335 O 0.64488 0.50985 0.30784 0.0
Gd336 Gd 0.03033 0.03579 0.01048 0.0
Gd337 Gd 0.0667 0.05518 0.03075 0.0
C338 C 0.04654 0.08131 0.01198 0.0
C339 C 0.99673 0.02632 1.00317 0.0
C340 C 0.9843 0.03767 1.00201 0.0
C341 C 0.97368 0.03542 0.98534 0.0
C342 C 0.98357 0.05145 0.01687 0.0
C343 C 0.96089 0.05967 0.99862 0.0
C344 C 0.97187 0.06228 0.01522 0.0
C345 C 0.96221 0.04642 0.9836 0.0
C346 C 0.05263 0.03372 0.98409 0.0
C347 C 0.05075 0.00952 0.02761 0.0
C348 C 0.10035 0.06445 0.03925 0.0
C349 C 0.11305 0.05329 0.0393 0.0
C350 C 0.12825 0.05976 0.05216 0.0
C351 C 0.10967 0.03569 0.0275 0.0
C352 C 0.13709 0.03174 0.04087 0.0
C353 C 0.12161 0.02496 0.02831 0.0
C354 C 0.14023 0.04913 0.05287 0.0
C355 C 0.04357 0.05618 0.0569 0.0
O356 O 0.03263 0.06639 0.00875 0.0
O357 O 0.06176 0.08059 0.02013 0.0
O358 O 0.00697 0.02707 0.99053 0.0
O359 O 1.00489 0.02702 0.01939 0.0
O360 O 0.03588 0.02604 0.9819 0.0
O361 O 0.05719 0.04134 1.00123 0.0
O362 O 0.06479 0.02422 0.03023 0.0
O363 O 0.03523 0.01063 0.021 0.0
O364 O 0.08954 0.06169 0.05121 0.0
O365 O 0.09267 0.06533 0.02328 0.0
O366 O 0.06038 0.06353 0.05982 0.0
O367 O 0.03995 0.04919 0.03967 0.0
H368 H 0.9743 0.02515 0.97361 0.0
H369 H 0.9919 0.05376 0.02981 0.0
H370 H 0.97106 0.07223 0.02711 0.0
H371 H 0.95422 0.04438 0.9705 0.0
H372 H 0.13086 0.07307 0.06163 0.0
H373 H 0.09786 0.0303 0.01764 0.0
H374 H 0.11901 0.01164 0.01884 0.0
H375 H 0.15202 0.05452 0.06277 0.0
Gd376 Gd 0.3002 0.79222 0.24259 0.0
Gd377 Gd 0.28495 0.80188 0.27941 0.0
C378 C 0.30599 0.83497 0.2618 0.0
C379 C 0.30658 0.7871 0.20949 0.0
C380 C 0.30972 0.79914 0.19596 0.0
C381 C 0.32261 0.79739 0.18492 0.0
C382 C 0.30192 0.81391 0.19568 0.0
C383 C 0.31936 0.82455 0.17256 0.0
C384 C 0.30665 0.82654 0.1839 0.0
C385 C 0.32744 0.81006 0.17329 0.0
C386 C 0.3237 0.79133 0.27162 0.0
C387 C 0.27858 0.75885 0.25911 0.0
C388 C 0.27895 0.80808 0.31267 0.0
C389 C 0.27657 0.79589 0.32604 0.0
C390 C 0.26618 0.79855 0.33975 0.0
C391 C 0.28242 0.77974 0.32322 0.0
C392 C 0.26787 0.76888 0.34813 0.0
C393 C 0.27808 0.76641 0.33417 0.0
C394 C 0.2619 0.78511 0.35089 0.0
C395 C 0.2616 0.80291 0.25063 0.0
O396 O 0.30508 0.82322 0.24644 0.0
O397 O 0.30091 0.82997 0.27693 0.0
O398 O 0.31879 0.79251 0.22367 0.0
O399 O 0.29065 0.78211 0.21369 0.0
O400 O 0.32549 0.78798 0.25455 0.0
O401 O 0.30899 0.79479 0.27244 0.0
O402 O 0.27886 0.77046 0.27449 0.0
O403 O 0.28448 0.76396 0.24436 0.0
O404 O 0.2666 0.80212 0.29863 0.0
O405 O 0.29474 0.81312 0.30809 0.0
O406 O 0.25994 0.80661 0.2677 0.0
O407 O 0.27623 0.79934 0.2497 0.0
H408 H 0.32914 0.78642 0.18554 0.0
H409 H 0.29234 0.81578 0.20464 0.0
H410 H 0.30018 0.83758 0.18339 0.0
H411 H 0.33745 0.80851 0.16482 0.0
H412 H 0.26116 0.81079 0.34161 0.0
H413 H 0.28998 0.7772 0.31226 0.0
H414 H 0.28276 0.75412 0.33166 0.0
H415 H 0.25413 0.78752 0.36167 0.0
Gd416 Gd 0.573 0.03887 0.525 0.0
Gd417 Gd 0.53314 0.03631 0.52877 0.0
C418 C 0.54329 0.99801 0.51787 0.0
C419 C 0.60423 0.03453 0.52486 0.0
C420 C 0.61394 0.01998 0.52208 0.0
C421 C 0.62423 0.01991 0.50781 0.0
C422 C 0.61438 0.00727 0.53412 0.0
C423 C 0.63628 0.99588 0.51845 0.0
C424 C 0.62539 0.99533 0.53229 0.0
C425 C 0.63521 0.00804 0.506 0.0
C426 C 0.55304 0.04256 0.49608 0.0
C427 C 0.56312 0.07733 0.53605 0.0
C428 C 0.50174 0.04044 0.52718 0.0
C429 C 0.49199 0.05489 0.5308 0.0
C430 C 0.48238 0.05506 0.54567 0.0
C431 C 0.49061 0.06723 0.51861 0.0
C432 C 0.46948 0.0787 0.53548 0.0
C433 C 0.47952 0.07899 0.52093 0.0
C434 C 0.47128 0.0668 0.54798 0.0
C435 C 0.55296 0.03269 0.558 0.0
O436 O 0.5598 0.00781 0.52387 0.0
O437 O 0.53053 0.00619 0.51585 0.0
O438 O 0.59484 0.03663 0.51043 0.0
O439 O 0.59694 0.03663 0.53976 0.0
O440 O 0.5696 0.05132 0.49978 0.0
O441 O 0.54829 0.03131 0.50663 0.0
O442 O 0.54642 0.06762 0.53118 0.0
O443 O 0.57601 0.06923 0.53731 0.0
O444 O 0.50961 0.036 0.54132 0.0
O445 O 0.51061 0.04065 0.51328 0.0
O446 O 0.53623 0.02468 0.55455 0.0
O447 O 0.55782 0.04372 0.54723 0.0
H448 H 0.62419 0.0295 0.4983 0.0
H449 H 0.60662 0.00693 0.54527 0.0
H450 H 0.6259 0.98624 0.54219 0.0
H451 H 0.64311 0.00865 0.49497 0.0
H452 H 0.48303 0.04567 0.55526 0.0
H453 H 0.49767 0.06742 0.50691 0.0
H454 H 0.47832 0.0878 0.51092 0.0
H455 H 0.4639 0.06634 0.55943 0.0
Gd456 Gd 0.28045 0.28809 0.75998 0.0
Gd457 Gd 0.31798 0.28021 0.76352 0.0
C458 C 0.30319 0.2939 0.8004 0.0
C459 C 0.24765 0.28372 0.76395 0.0
C460 C 0.23639 0.28782 0.77815 0.0
C461 C 0.22531 0.2993 0.77535 0.0
C462 C 0.23509 0.27885 0.7935 0.0
C463 C 0.21099 0.29156 0.80188 0.0
C464 C 0.22263 0.28081 0.80527 0.0
C465 C 0.21276 0.30108 0.78699 0.0
C466 C 0.3067 0.32213 0.76161 0.0
C467 C 0.29461 0.27244 0.72308 0.0
C468 C 0.35086 0.28485 0.76022 0.0
C469 C 0.36228 0.28 0.74655 0.0
C470 C 0.3687 0.2641 0.74638 0.0
C471 C 0.36822 0.29236 0.73456 0.0
C472 C 0.38731 0.27363 0.72322 0.0
C473 C 0.38049 0.28923 0.72311 0.0
C474 C 0.381 0.26092 0.73484 0.0
C475 C 0.29196 0.24644 0.76265 0.0
O476 O 0.28829 0.2924 0.79021 0.0
O477 O 0.31718 0.29116 0.79337 0.0
O478 O 0.25685 0.29775 0.75722 0.0
O479 O 0.256 0.27112 0.76609 0.0
O480 O 0.28993 0.32005 0.76027 0.0
O481 O 0.30833 0.30549 0.76212 0.0
O482 O 0.30948 0.27349 0.73316 0.0
O483 O 0.28118 0.27689 0.73006 0.0
O484 O 0.34186 0.27147 0.76789 0.0
O485 O 0.34217 0.29682 0.75666 0.0
O486 O 0.30874 0.24856 0.76417 0.0
O487 O 0.29019 0.26294 0.76173 0.0
H488 H 0.2259 0.30638 0.76371 0.0
H489 H 0.24331 0.26981 0.79613 0.0
H490 H 0.22156 0.27318 0.81653 0.0
H491 H 0.20411 0.30961 0.78409 0.0
H492 H 0.36454 0.25431 0.75547 0.0
H493 H 0.3638 0.3049 0.73441 0.0
H494 H 0.38515 0.29958 0.7147 0.0
H495 H 0.38571 0.2486 0.7352 0.0
Gd496 Gd 0.05063 0.06294 0.52725 0.0
Gd497 Gd 0.05558 0.02197 0.51205 0.0
C498 C 0.03996 0.04389 0.48278 0.0
C499 C 0.05465 0.09883 0.53199 0.0
C500 C 0.0547 0.11213 0.51924 0.0
C501 C 0.04159 0.12151 0.51864 0.0
C502 C 0.06733 0.11526 0.50731 0.0
C503 C 0.05449 0.13803 0.49549 0.0
C504 C 0.06724 0.12813 0.49559 0.0
C505 C 0.04143 0.1343 0.50683 0.0
C506 C 0.02079 0.03464 0.52854 0.0
C507 C 0.06607 0.04071 0.55669 0.0
C508 C 0.05268 0.98633 0.50445 0.0
C509 C 0.05164 0.97114 0.51508 0.0
C510 C 0.06588 0.9635 0.51706 0.0
C511 C 0.03693 0.96445 0.52362 0.0
C512 C 0.05055 0.94232 0.53547 0.0
C513 C 0.03641 0.95017 0.53374 0.0
C514 C 0.06538 0.94927 0.52725 0.0
C515 C 0.08451 0.05094 0.50995 0.0
O516 O 0.04409 0.05928 0.49595 0.0
O517 O 0.04191 0.0274 0.48599 0.0
O518 O 0.03955 0.08651 0.53173 0.0
O519 O 0.0679 0.09155 0.53328 0.0
O520 O 0.0231 0.05256 0.53441 0.0
O521 O 0.035 0.033 0.52313 0.0
O522 O 0.0617 0.02528 0.54345 0.0
O523 O 0.06427 0.05733 0.55348 0.0
O524 O 0.06772 0.99937 0.50752 0.0
O525 O 0.03919 0.99319 0.50277 0.0
O526 O 0.08312 0.03323 0.50432 0.0
O527 O 0.07031 0.05158 0.51563 0.0
H528 H 0.03155 0.11912 0.5275 0.0
H529 H 0.07739 0.10794 0.50712 0.0
H530 H 0.07728 0.13051 0.48673 0.0
H531 H 0.03148 0.14176 0.50706 0.0
H532 H 0.07742 0.96855 0.51069 0.0
H533 H 0.02585 0.97022 0.52256 0.0
H534 H 0.02497 0.94535 0.54033 0.0
H535 H 0.07644 0.94347 0.5284 0.0
Gd536 Gd 0.31446 0.80065 0.74968 0.0
Gd537 Gd 0.28126 0.77153 0.75059 0.0
C538 C 0.31591 0.75589 0.7532 0.0
C539 C 0.34525 0.82387 0.75852 0.0
C540 C 0.3627 0.82207 0.76426 0.0
C541 C 0.37307 0.81682 0.75131 0.0
C542 C 0.36887 0.82503 0.78301 0.0
C543 C 0.39496 0.81641 0.77584 0.0
C544 C 0.38481 0.82214 0.78874 0.0
C545 C 0.38913 0.81401 0.75708 0.0
C546 C 0.29777 0.78255 0.71671 0.0
C547 C 0.27955 0.81603 0.74702 0.0
C548 C 0.24968 0.75007 0.74242 0.0
C549 C 0.2329 0.75406 0.73781 0.0
C550 C 0.22456 0.76208 0.75139 0.0
C551 C 0.22565 0.75087 0.71934 0.0
C552 C 0.2021 0.76374 0.72798 0.0
C553 C 0.21045 0.75573 0.71446 0.0
C554 C 0.20925 0.76688 0.74649 0.0
C555 C 0.29805 0.79119 0.78319 0.0
O556 O 0.32466 0.77433 0.75479 0.0
O557 O 0.29846 0.75103 0.7504 0.0
O558 O 0.3383 0.81659 0.74148 0.0
O559 O 0.33406 0.82049 0.77019 0.0
O560 O 0.30623 0.80042 0.72015 0.0
O561 O 0.29944 0.77511 0.73054 0.0
O562 O 0.27093 0.79774 0.74611 0.0
O563 O 0.297 0.82092 0.74915 0.0
O564 O 0.25746 0.75594 0.75937 0.0
O565 O 0.26046 0.75318 0.73041 0.0
O566 O 0.29041 0.77311 0.78055 0.0
O567 O 0.29576 0.79749 0.76886 0.0
H568 H 0.36871 0.81462 0.73675 0.0
H569 H 0.36129 0.82937 0.79331 0.0
H570 H 0.38927 0.82454 0.8033 0.0
H571 H 0.39685 0.80969 0.74693 0.0
H572 H 0.2299 0.76483 0.76574 0.0
H573 H 0.23182 0.74473 0.70859 0.0
H574 H 0.20504 0.75284 0.70011 0.0
H575 H 0.20307 0.77312 0.75716 0.0
Gd576 Gd 0.55026 0.03675 0.04263 0.0
Gd577 Gd 0.54161 0.03568 1.00257 0.0
C578 C 0.5104 0.02098 0.02257 0.0
C579 C 0.55007 0.03858 0.07708 0.0
C580 C 0.53644 0.02881 0.08688 0.0
C581 C 0.53575 0.01059 0.09017 0.0
C582 C 0.5234 0.03719 0.09211 0.0
C583 C 0.50999 0.00991 0.10496 0.0
C584 C 0.51027 0.02781 0.10105 0.0
C585 C 0.52256 1.00117 0.09904 0.0
C586 C 0.55348 0.00613 0.02058 0.0
C587 C 0.58157 0.05214 0.023 0.0
C588 C 0.54167 0.03342 0.96808 0.0
C589 C 0.55494 0.04415 0.95853 0.0
C590 C 0.55747 0.06368 0.95915 0.0
C591 C 0.56651 0.03525 0.95046 0.0
C592 C 0.58309 0.06514 0.94399 0.0
C593 C 0.58049 0.04565 0.94329 0.0
C594 C 0.57144 0.07408 0.95184 0.0
C595 C 0.53913 0.06678 0.02436 0.0
O596 O 0.52095 0.02996 0.03776 0.0
O597 O 0.51626 0.01784 0.00687 0.0
O598 O 0.55787 0.02782 0.0675 0.0
O599 O 0.54622 0.05131 0.06848 0.0
O600 O 0.56422 0.01478 0.03529 0.0
O601 O 0.54115 0.01351 0.01858 0.0
O602 O 0.57101 0.0434 0.0077 0.0
O603 O 0.57577 0.05474 0.03882 0.0
O604 O 0.5327 0.04307 0.97726 0.0
O605 O 0.54678 0.02158 0.97706 0.0
O606 O 0.52834 0.0584 0.00962 0.0
O607 O 0.55106 0.05892 0.02647 0.0
H608 H 0.5455 1.00365 0.08608 0.0
H609 H 0.52348 0.05114 0.08958 0.0
H610 H 0.50094 0.03506 0.10578 0.0
H611 H 0.52255 0.98734 0.10188 0.0
H612 H 0.54885 0.071 0.96547 0.0
H613 H 0.56489 0.02026 0.94992 0.0
H614 H 0.58901 0.03831 0.93678 0.0
H615 H 0.57314 0.08906 0.95228 0.0
Gd616 Gd 0.30122 0.30564 0.26496 0.0
Gd617 Gd 0.2824 0.2607 0.2488 0.0
C618 C 0.25989 0.28635 0.26717 0.0
C619 C 0.30931 0.34141 0.26625 0.0
C620 C 0.29871 0.35479 0.26801 0.0
C621 C 0.29906 0.36572 0.2852 0.0
C622 C 0.28749 0.35603 0.25289 0.0
C623 C 0.27724 0.37904 0.27214 0.0
C624 C 0.27689 0.3681 0.25494 0.0
C625 C 0.28832 0.37762 0.28728 0.0
C626 C 0.30236 0.28477 0.29197 0.0
C627 C 0.3244 0.27962 0.25039 0.0
C628 C 0.27491 0.22454 0.24373 0.0
C629 C 0.28727 0.21311 0.24359 0.0
C630 C 0.28348 0.19579 0.23144 0.0
C631 C 0.30381 0.22055 0.25419 0.0
C632 C 0.31238 0.19292 0.24135 0.0
C633 C 0.31633 0.21072 0.25287 0.0
C634 C 0.29589 0.18564 0.23045 0.0
C635 C 0.28377 0.28293 0.2224 0.0
O636 O 0.27314 0.30183 0.26873 0.0
O637 O 0.26003 0.269 0.25994 0.0
O638 O 0.31176 0.33393 0.28069 0.0
O639 O 0.30595 0.32919 0.25079 0.0
O640 O 0.30939 0.30292 0.29406 0.0
O641 O 0.29595 0.27878 0.27518 0.0
O642 O 0.31126 0.26443 0.25014 0.0
O643 O 0.32333 0.29711 0.25423 0.0
O644 O 0.27505 0.23374 0.23018 0.0
O645 O 0.27467 0.23489 0.25956 0.0
O646 O 0.27786 0.26464 0.21892 0.0
O647 O 0.28739 0.28747 0.23956 0.0
H648 H 0.30749 0.36492 0.2971 0.0
H649 H 0.28686 0.34771 0.23946 0.0
H650 H 0.2687 0.36911 0.24295 0.0
H651 H 0.2887 0.38564 0.30079 0.0
H652 H 0.27092 0.19011 0.22282 0.0
H653 H 0.30717 0.23407 0.26344 0.0
H654 H 0.32905 0.21702 0.26106 0.0
H655 H 0.29235 0.17189 0.22156 0.0
Gd656 Gd 0.55321 0.55694 0.03039 0.0
Gd657 Gd 0.5575 0.51562 0.0146 0.0
C658 C 0.54194 0.53808 0.98556 0.0
C659 C 0.55844 0.59311 0.03519 0.0
C660 C 0.55821 0.60664 0.02267 0.0
C661 C 0.54611 0.61732 0.02361 0.0
C662 C 0.5698 0.60894 0.00962 0.0
C663 C 0.55791 0.63313 0.99946 0.0
C664 C 0.56962 0.62197 0.99812 0.0
C665 C 0.54593 0.63043 0.01211 0.0
C666 C 0.52333 0.52874 0.03151 0.0
C667 C 0.56867 0.53377 0.05933 0.0
C668 C 0.55236 0.47969 0.00791 0.0
C669 C 0.55466 0.46657 0.02009 0.0
C670 C 0.56656 0.45594 0.01682 0.0
C671 C 0.54581 0.46522 0.03548 0.0
C672 C 0.55991 0.44193 0.04335 0.0
C673 C 0.54841 0.45291 0.04702 0.0
C674 C 0.56911 0.4436 0.02835 0.0
C675 C 0.5876 0.54401 0.01486 0.0
O676 O 0.54429 0.55272 0.99933 0.0
O677 O 0.54579 0.5222 0.98807 0.0
O678 O 0.5433 0.58137 0.03601 0.0
O679 O 0.57123 0.58508 0.03519 0.0
O680 O 0.52592 0.54654 0.03843 0.0
O681 O 0.53735 0.52738 0.02547 0.0
O682 O 0.56461 0.51863 0.04581 0.0
O683 O 0.56653 0.55043 0.05652 0.0
O684 O 0.56684 0.49151 0.00538 0.0
O685 O 0.53963 0.48753 0.0102 0.0
O686 O 0.58616 0.52612 0.01006 0.0
O687 O 0.57288 0.54509 0.01903 0.0
H688 H 0.53692 0.61571 0.03344 0.0
H689 H 0.57913 0.60083 0.00835 0.0
H690 H 0.57877 0.6234 0.98825 0.0
H691 H 0.53679 0.63884 0.01352 0.0
H692 H 0.57373 0.45705 0.00523 0.0
H693 H 0.53675 0.47346 0.03851 0.0
H694 H 0.54101 0.45145 0.05842 0.0
H695 H 0.5779 0.43502 0.02534 0.0
Gd696 Gd 0.8175 0.29851 0.25886 0.0
Gd697 Gd 0.78425 0.26918 0.25887 0.0
C698 C 0.81888 0.25396 0.26188 0.0
C699 C 0.84911 0.32003 0.26533 0.0
C700 C 0.86544 0.31619 0.27174 0.0
C701 C 0.88072 0.32378 0.26452 0.0
C702 C 0.86573 0.30441 0.28466 0.0
C703 C 0.89676 0.30896 0.28407 0.0
C704 C 0.88129 0.30085 0.2908 0.0
C705 C 0.89632 0.32018 0.27065 0.0
C706 C 0.80065 0.27981 0.22595 0.0
C707 C 0.78273 0.31397 0.25713 0.0
C708 C 0.75341 0.24643 0.24895 0.0
C709 C 0.7361 0.24909 0.24423 0.0
C710 C 0.72527 0.251 0.25775 0.0
C711 C 0.73048 0.2503 0.22617 0.0
C712 C 0.70368 0.25565 0.2353 0.0
C713 C 0.71443 0.25361 0.22176 0.0
C714 C 0.70918 0.25432 0.25332 0.0
C715 C 0.80092 0.28611 0.29236 0.0
O716 O 0.8275 0.27249 0.26487 0.0
O717 O 0.80153 0.24891 0.25781 0.0
O718 O 0.84167 0.3111 0.24888 0.0
O719 O 0.83804 0.31991 0.27716 0.0
O720 O 0.80781 0.29798 0.22919 0.0
O721 O 0.80305 0.27301 0.2399 0.0
O722 O 0.77404 0.2955 0.25473 0.0
O723 O 0.80018 0.31894 0.2601 0.0
O724 O 0.7605 0.25204 0.26616 0.0
O725 O 0.76456 0.25088 0.23747 0.0
O726 O 0.79207 0.26835 0.28825 0.0
O727 O 0.7994 0.29415 0.27893 0.0
H728 H 0.8806 0.33265 0.25434 0.0
H729 H 0.85397 0.29809 0.29017 0.0
H730 H 0.88127 0.29193 0.30096 0.0
H731 H 0.90814 0.32669 0.26535 0.0
H732 H 0.72925 0.25006 0.27177 0.0
H733 H 0.73847 0.24874 0.2154 0.0
H734 H 0.71028 0.2542 0.20767 0.0
H735 H 0.70109 0.25592 0.26398 0.0
Gd736 Gd 0.05033 0.54925 0.54709 0.0
Gd737 Gd 0.03962 0.54814 0.50709 0.0
C738 C 0.01033 0.53024 0.52834 0.0
C739 C 0.05155 0.55204 0.5818 0.0
C740 C 0.03869 0.54271 0.59266 0.0
C741 C 0.0393 0.52539 0.5975 0.0
C742 C 0.02517 0.55051 0.59746 0.0
C743 C 0.01364 0.52435 0.61257 0.0
C744 C 0.01274 0.5414 0.60734 0.0
C745 C 0.02679 0.51622 0.60728 0.0
C746 C 0.05472 0.51966 0.52455 0.0
C747 C 0.07983 0.56694 0.52632 0.0
C748 C 0.03864 0.5479 0.47268 0.0
C749 C 0.0526 0.55719 0.4629 0.0
C750 C 0.05494 0.57611 0.46088 0.0
C751 C 0.06473 0.54773 0.45704 0.0
C752 C 0.08133 0.57589 0.44745 0.0
C753 C 0.07894 0.55699 0.44941 0.0
C754 C 0.06923 0.5854 0.45321 0.0
C755 C 0.03554 0.57725 0.53018 0.0
O756 O 0.02101 0.53978 0.54327 0.0
O757 O 0.01539 0.52838 0.51205 0.0
O758 O 0.05896 0.541 0.572 0.0
O759 O 0.04711 0.56438 0.57303 0.0
O760 O 0.06537 0.5284 0.53933 0.0
O761 O 0.04182 0.52623 0.52282 0.0
O762 O 0.06912 0.55763 0.51126 0.0
O763 O 0.07457 0.56864 0.54245 0.0
O764 O 0.03218 0.55919 0.4834 0.0
O765 O 0.04145 0.53401 0.48014 0.0
O766 O 0.02385 0.56786 0.5164 0.0
O767 O 0.04856 0.57092 0.53105 0.0
H768 H 0.04949 0.51895 0.59385 0.0
H769 H 0.02428 0.56378 0.59383 0.0
H770 H 1.00295 0.54819 0.6116 0.0
H771 H 0.02769 0.50305 0.61115 0.0
H772 H 0.04586 0.58382 0.46538 0.0
H773 H 0.06333 0.53317 0.45843 0.0
H774 H 0.08779 0.54913 0.44455 0.0
H775 H 0.07076 0.59994 0.45169 0.0
Gd776 Gd 0.77676 0.78964 0.26623 0.0
Gd777 Gd 0.81375 0.78149 0.26778 0.0
C778 C 0.80039 0.79475 0.30556 0.0
C779 C 0.74399 0.78692 0.26947 0.0
C780 C 0.73209 0.78855 0.28363 0.0
C781 C 0.72751 0.80548 0.28872 0.0
C782 C 0.72372 0.77266 0.29077 0.0
C783 C 0.70563 0.79016 0.30654 0.0
C784 C 0.71072 0.77347 0.30205 0.0
C785 C 0.71455 0.80631 0.30009 0.0
C786 C 0.80286 0.82354 0.26636 0.0
C787 C 0.78958 0.77472 0.2283 0.0
C788 C 0.84639 0.78642 0.26362 0.0
C789 C 0.85756 0.78075 0.25015 0.0
C790 C 0.86835 0.76938 0.25431 0.0
C791 C 0.85908 0.78839 0.23405 0.0
C792 C 0.88297 0.77479 0.22754 0.0
C793 C 0.87159 0.78538 0.22286 0.0
C794 C 0.88091 0.76644 0.24315 0.0
C795 C 0.78846 0.74744 0.2679 0.0
O796 O 0.78474 0.79188 0.29625 0.0
O797 O 0.81429 0.79356 0.29758 0.0
O798 O 0.75519 0.80238 0.26722 0.0
O799 O 0.75049 0.77245 0.26769 0.0
O800 O 0.78618 0.82149 0.26583 0.0
O801 O 0.80447 0.80692 0.26688 0.0
O802 O 0.80442 0.77464 0.23762 0.0
O803 O 0.77672 0.77962 0.23601 0.0
O804 O 0.83817 0.77386 0.27265 0.0
O805 O 0.83708 0.79745 0.259 0.0
O806 O 0.80526 0.75 0.26862 0.0
O807 O 0.78603 0.76381 0.2673 0.0
H808 H 0.73353 0.81797 0.2834 0.0
H809 H 0.72681 0.75936 0.28718 0.0
H810 H 0.7044 0.76083 0.30699 0.0
H811 H 0.71095 0.81938 0.30313 0.0
H812 H 0.86753 0.76333 0.2666 0.0
H813 H 0.85109 0.79733 0.2304 0.0
H814 H 0.87293 0.79216 0.21104 0.0
H815 H 0.88936 0.75802 0.24699 0.0
Gd816 Gd 0.81296 0.29152 0.74967 0.0
Gd817 Gd 0.79624 0.29544 0.78574 0.0
C818 C 0.81485 0.3317 0.7719 0.0
C819 C 0.82137 0.28974 0.71734 0.0
C820 C 0.82199 0.30163 0.70384 0.0
C821 C 0.83272 0.29997 0.69033 0.0
C822 C 0.81455 0.31672 0.70637 0.0
C823 C 0.82884 0.32874 0.68184 0.0
C824 C 0.81799 0.33027 0.6954 0.0
C825 C 0.83607 0.31344 0.67926 0.0
C826 C 0.83695 0.29056 0.77843 0.0
C827 C 0.79238 0.25455 0.76212 0.0
C828 C 0.78979 0.29647 0.81874 0.0
C829 C 0.7789 0.28201 0.82705 0.0
C830 C 0.76686 0.28673 0.83803 0.0
C831 C 0.78032 0.26341 0.82397 0.0
C832 C 0.75998 0.25536 0.84533 0.0
C833 C 0.77093 0.25014 0.83315 0.0
C834 C 0.75741 0.27342 0.84716 0.0
C835 C 0.77183 0.29618 0.75724 0.0
O836 O 0.81278 0.32156 0.75537 0.0
O837 O 0.81252 0.32437 0.78662 0.0
O838 O 0.83247 0.29802 0.73214 0.0
O839 O 0.8058 0.2808 0.72054 0.0
O840 O 0.83921 0.28909 0.76149 0.0
O841 O 0.82163 0.2923 0.7791 0.0
O842 O 0.79101 0.26437 0.77791 0.0
O843 O 0.79867 0.26184 0.74846 0.0
O844 O 0.78133 0.30328 0.8069 0.0
O845 O 0.80396 0.29301 0.81346 0.0
O846 O 0.76958 0.29696 0.77423 0.0
O847 O 0.7872 0.29449 0.75608 0.0
H848 H 0.83888 0.28859 0.6887 0.0
H849 H 0.80663 0.31834 0.7172 0.0
H850 H 0.81243 0.34209 0.69771 0.0
H851 H 0.84426 0.31186 0.66868 0.0
H852 H 0.76531 0.30089 0.84012 0.0
H853 H 0.78924 0.25931 0.81515 0.0
H854 H 0.77328 0.23634 0.83182 0.0
H855 H 0.74901 0.27759 0.8566 0.0
Gd856 Gd 0.79974 0.81117 0.77209 0.0
Gd857 Gd 0.78281 0.76607 0.75643 0.0
C858 C 0.758 0.79076 0.77081 0.0
C859 C 0.8062 0.84702 0.77516 0.0
C860 C 0.7944 0.85886 0.7785 0.0
C861 C 0.79708 0.87139 0.79525 0.0
C862 C 0.77968 0.85675 0.76564 0.0
C863 C 0.77117 0.88051 0.78578 0.0
C864 C 0.76823 0.86758 0.76921 0.0
C865 C 0.78547 0.88204 0.79893 0.0
C866 C 0.79957 0.79085 0.79985 0.0
C867 C 0.82433 0.78697 0.75798 0.0
C868 C 0.77712 0.7301 0.75283 0.0
C869 C 0.78913 0.71824 0.75071 0.0
C870 C 0.78578 0.70358 0.73543 0.0
C871 C 0.80432 0.72185 0.76342 0.0
C872 C 0.81179 0.69543 0.74629 0.0
C873 C 0.81555 0.71043 0.76124 0.0
C874 C 0.79703 0.69215 0.73327 0.0
C875 C 0.78408 0.78667 0.7287 0.0
O876 O 0.77091 0.80639 0.77185 0.0
O877 O 0.75949 0.77343 0.76608 0.0
O878 O 0.81017 0.83912 0.78881 0.0
O879 O 0.80274 0.83555 0.7593 0.0
O880 O 0.80625 0.80899 0.80183 0.0
O881 O 0.79405 0.78475 0.78292 0.0
O882 O 0.81182 0.77111 0.75722 0.0
O883 O 0.82259 0.80414 0.76192 0.0
O884 O 0.77445 0.73831 0.73901 0.0
O885 O 0.7791 0.74122 0.76874 0.0
O886 O 0.77692 0.76858 0.7265 0.0
O887 O 0.78912 0.7924 0.7457 0.0
H888 H 0.80814 0.87291 0.80549 0.0
H889 H 0.77704 0.8469 0.75273 0.0
H890 H 0.75748 0.86631 0.75867 0.0
H891 H 0.78787 0.89175 0.81191 0.0
H892 H 0.77433 0.70081 0.72532 0.0
H893 H 0.80742 0.73329 0.77518 0.0
H894 H 0.82683 0.71289 0.77151 0.0
H895 H 0.79399 0.68046 0.72175 0.0
Gd896 Gd 0.53369 0.53131 0.51516 0.0
Gd897 Gd 0.56856 0.55128 0.53695 0.0
C898 C 0.55019 0.57701 0.51655 0.0
C899 C 0.50004 0.52166 0.50608 0.0
C900 C 0.48651 0.53184 0.5049 0.0
C901 C 0.47746 0.53134 0.48766 0.0
C902 C 0.48249 0.54209 0.52059 0.0
C903 C 0.46004 0.5502 0.50184 0.0
C904 C 0.46927 0.55109 0.51906 0.0
C905 C 0.46442 0.54057 0.48612 0.0
C906 C 0.55678 0.52962 0.48987 0.0
C907 C 0.5537 0.50534 0.53357 0.0
C908 C 0.60198 0.56062 0.54679 0.0
C909 C 0.61482 0.54968 0.54534 0.0
C910 C 0.62752 0.5519 0.5604 0.0
C911 C 0.61366 0.53591 0.52973 0.0
C912 C 0.63832 0.52736 0.54407 0.0
C913 C 0.62536 0.52489 0.52908 0.0
C914 C 0.63918 0.54084 0.55979 0.0
C915 C 0.54477 0.55308 0.56183 0.0
O916 O 0.53654 0.56179 0.51198 0.0
O917 O 0.56462 0.57672 0.52645 0.0
O918 O 0.5111 0.52422 0.49432 0.0
O919 O 0.50754 0.52139 0.52235 0.0
O920 O 0.54017 0.52116 0.48728 0.0
O921 O 0.56105 0.5375 0.50702 0.0
O922 O 0.56685 0.52085 0.53864 0.0
O923 O 0.53881 0.50547 0.52436 0.0
O924 O 0.59064 0.55556 0.55781 0.0
O925 O 0.59488 0.5639 0.53155 0.0
O926 O 0.56133 0.56183 0.56477 0.0
O927 O 0.54122 0.54531 0.54472 0.0
H928 H 0.48037 0.52363 0.47536 0.0
H929 H 0.48939 0.54301 0.53405 0.0
H930 H 0.46616 0.55868 0.53132 0.0
H931 H 0.45741 0.53974 0.47274 0.0
H932 H 0.62837 0.56217 0.57269 0.0
H933 H 0.60364 0.53357 0.51811 0.0
H934 H 0.62425 0.51441 0.51689 0.0
H935 H 0.64911 0.54317 0.57148 0.0
Gd936 Gd 0.06911 0.54141 0.03513 0.0
Gd937 Gd 0.029 0.53767 0.03792 0.0
C938 C 0.03929 0.49979 0.0263 0.0
C939 C 0.10036 0.53667 0.03756 0.0
C940 C 0.11035 0.5224 0.03333 0.0
C941 C 0.12005 0.52292 0.01852 0.0
C942 C 0.11197 0.50963 0.04501 0.0
C943 C 0.13356 0.49918 0.02783 0.0
C944 C 0.12334 0.49816 0.04227 0.0
C945 C 0.1314 0.51147 0.01578 0.0
C946 C 0.04917 0.54351 0.00533 0.0
C947 C 0.05826 0.57947 0.046 0.0
C948 C 0.998 0.54274 0.03529 0.0
C949 C 0.98905 0.55791 0.03924 0.0
C950 C 0.98193 0.5608 0.05566 0.0
C951 C 0.98605 0.56843 0.02581 0.0
C952 C 0.96833 0.58367 0.04467 0.0
C953 C 0.97586 0.58105 0.02846 0.0
C954 C 0.97178 0.57356 0.05837 0.0
C955 C 0.04886 0.53529 0.06761 0.0
O956 O 0.05585 0.50977 0.03198 0.0
O957 O 0.02635 0.50776 0.02482 0.0
O958 O 0.09342 0.5426 0.02384 0.0
O959 O 0.0906 0.53518 0.05075 0.0
O960 O 0.0655 0.55328 0.00944 0.0
O961 O 0.04474 0.53266 0.01627 0.0
O962 O 0.04183 0.569 0.04072 0.0
O963 O 0.07157 0.57191 0.04715 0.0
O964 O 1.00475 0.53689 0.0492 0.0
O965 O 0.00761 0.54348 0.02195 0.0
O966 O 0.0323 0.52633 0.06393 0.0
O967 O 0.0534 0.54625 0.05677 0.0
H968 H 0.11928 0.53262 0.00928 0.0
H969 H 0.10487 0.50889 0.05667 0.0
H970 H 0.12465 0.48908 0.05199 0.0
H971 H 0.13869 0.5125 0.00428 0.0
H972 H 0.98385 0.55288 0.0663 0.0
H973 H 0.9911 0.56647 0.0129 0.0
H974 H 0.97332 0.58817 0.01736 0.0
H975 H 0.96648 0.57529 0.07115 0.0
H976 H 0.05276 0.23608 0.94445 0.0
H977 H 0.05768 0.21097 0.96014 0.0
H978 H 1.00214 0.18331 0.95048 0.0
H979 H 0.99726 0.20914 0.93575 0.0
H980 H 0.0127 0.17852 0.98158 0.0
H981 H 0.03565 0.16843 0.92494 0.0
H982 H 0.05399 0.178 0.90136 0.0
H983 H 0.10033 0.19113 0.94061 0.0
H984 H 0.08222 0.18185 0.96449 0.0
H985 H 0.01663 0.08806 0.997 0.0
H986 H 0.01331 0.1152 0.98421 0.0
H987 H 0.06868 0.14224 0.9988 0.0
H988 H 0.07221 0.11456 0.01124 0.0
H989 H 0.0591 0.14809 0.9663 0.0
H990 H 0.03485 0.15646 0.02273 0.0
H991 H 0.01552 0.1467 0.04548 0.0
H992 H 0.97033 0.13548 0.00508 0.0
H993 H 0.98941 0.14506 0.98206 0.0
C994 C 0.04162 0.2246 0.94566 0.0
C995 C 0.02464 0.2245 0.93863 0.0
C996 C 0.04443 0.21007 0.95455 0.0
C997 C 0.03038 0.19463 0.95623 0.0
C998 C 0.01334 0.19479 0.94942 0.0
C999 C 0.01051 0.20954 0.94085 0.0
C1000 C 0.03336 0.17845 0.96504 0.0
C1001 C 0.02273 0.17178 0.97798 0.0
C1002 C 0.04665 0.16957 0.96092 0.0
C1003 C 0.05759 0.1746 0.94651 0.0
C1004 C 0.04975 0.1734 0.92853 0.0
C1005 C 0.0601 0.17879 0.91513 0.0
C1006 C 0.07831 0.18522 0.91949 0.0
C1007 C 0.08622 0.18617 0.93726 0.0
C1008 C 0.07592 0.18082 0.95073 0.0
C1009 C 0.02818 0.09978 0.99768 0.0
C1010 C 0.04471 0.09896 0.0054 0.0
C1011 C 0.02621 0.11552 0.99039 0.0
C1012 C 0.04064 0.13126 0.99073 0.0
C1013 C 0.05722 0.1305 0.99838 0.0
C1014 C 0.05923 0.11463 0.00565 0.0
C1015 C 0.03836 0.14813 0.98273 0.0
C1016 C 0.04912 0.15489 0.96993 0.0
C1017 C 0.02504 0.15694 0.98681 0.0
C1018 C 0.01356 0.15136 1.00067 0.0
C1019 C 0.02079 0.15184 0.01869 0.0
C1020 C 0.00988 0.14636 0.03163 0.0
C1021 C 0.99171 0.14045 0.02672 0.0
C1022 C 0.9844 0.14007 0.00886 0.0
C1023 C 0.99526 0.14556 0.99588 0.0
H1024 H 0.98328 0.13618 0.03675 0.0
H1025 H 0.0863 0.18943 0.9091 0.0
H1026 H 0.13758 0.81423 0.12691 0.0
H1027 H 0.16424 0.80985 0.14244 0.0
H1028 H 0.14258 0.81223 0.19322 0.0
H1029 H 0.11577 0.81628 0.17771 0.0
H1030 H 0.17593 0.83509 0.19732 0.0
H1031 H 0.14526 0.77137 0.17028 0.0
H1032 H 0.13035 0.7436 0.14627 0.0
H1033 H 0.17721 0.74973 0.12117 0.0
H1034 H 0.19232 0.77782 0.14481 0.0
H1035 H 0.22936 0.80433 0.25615 0.0
H1036 H 0.20528 0.80578 0.23497 0.0
H1037 H 0.2358 0.80206 0.19059 0.0
H1038 H 0.26057 0.80023 0.21228 0.0
H1039 H 0.2 0.78079 0.18046 0.0
H1040 H 0.2306 0.84473 0.20944 0.0
H1041 H 0.24461 0.87133 0.23498 0.0
H1042 H 0.19633 0.86329 0.25765 0.0
H1043 H 0.18211 0.83645 0.23242 0.0
C1044 C 0.13854 0.81404 0.14144 0.0
C1045 C 0.12454 0.81594 0.15109 0.0
C1046 C 0.15375 0.81126 0.15026 0.0
C1047 C 0.15549 0.81055 0.16903 0.0
C1048 C 0.14162 0.81267 0.17873 0.0
C1049 C 0.12629 0.81511 0.16986 0.0
C1050 C 0.17207 0.80873 0.17887 0.0
C1051 C 0.18108 0.82312 0.19366 0.0
C1052 C 0.17917 0.79336 0.17387 0.0
C1053 C 0.16986 0.77694 0.15918 0.0
C1054 C 0.15231 0.76703 0.15947 0.0
C1055 C 0.14384 0.75117 0.14596 0.0
C1056 C 0.1528 0.74495 0.13216 0.0
C1057 C 0.17026 0.75461 0.13183 0.0
C1058 C 0.17878 0.77052 0.14527 0.0
C1059 C 0.23118 0.80376 0.2419 0.0
C1060 C 0.24717 0.80242 0.23607 0.0
C1061 C 0.21723 0.80466 0.22973 0.0
C1062 C 0.21868 0.80453 0.21117 0.0
C1063 C 0.23436 0.8024 0.20491 0.0
C1064 C 0.24854 0.80139 0.21729 0.0
C1065 C 0.20375 0.80714 0.19896 0.0
C1066 C 0.195 0.7929 0.18384 0.0
C1067 C 0.19669 0.82258 0.20369 0.0
C1068 C 0.20532 0.83851 0.21907 0.0
C1069 C 0.22302 0.84853 0.21996 0.0
C1070 C 0.23099 0.86367 0.23437 0.0
C1071 C 0.22137 0.86899 0.24793 0.0
C1072 C 0.20377 0.85916 0.24714 0.0
C1073 C 0.19574 0.84399 0.23278 0.0
H1074 H 0.22755 0.88075 0.25905 0.0
H1075 H 0.14624 0.73261 0.12177 0.0
H1076 H 0.54054 0.82185 0.46712 0.0
H1077 H 0.54591 0.85472 0.48288 0.0
H1078 H 0.51668 0.86636 0.43668 0.0
H1079 H 0.51142 0.83391 0.42087 0.0
H1080 H 0.54604 0.89493 0.44889 0.0
H1081 H 0.49848 0.85832 0.47579 0.0
H1082 H 0.48493 0.83288 0.49186 0.0
H1083 H 0.52584 0.85609 0.53758 0.0
H1084 H 0.53973 0.88153 0.52165 0.0
H1085 H 0.52154 0.97631 0.48749 0.0
H1086 H 0.5197 0.94348 0.47401 0.0
H1087 H 0.55579 0.94108 0.5197 0.0
H1088 H 0.55803 0.974 0.53294 0.0
H1089 H 0.52586 0.90861 0.50911 0.0
H1090 H 0.57218 0.94658 0.4845 0.0
H1091 H 0.58645 0.97258 0.4695 0.0
H1092 H 0.54977 0.94763 0.42053 0.0
H1093 H 0.53503 0.92164 0.4354 0.0
C1094 C 0.53512 0.83136 0.4604 0.0
C1095 C 0.52538 0.82509 0.44278 0.0
C1096 C 0.53826 0.85018 0.46939 0.0
C1097 C 0.53162 0.86302 0.46099 0.0
C1098 C 0.52201 0.85679 0.44342 0.0
C1099 C 0.51889 0.8381 0.43446 0.0
C1100 C 0.53405 0.8828 0.47059 0.0
C1101 C 0.54149 0.89789 0.46198 0.0
C1102 C 0.52861 0.88681 0.48791 0.0
C1103 C 0.52021 0.87165 0.49749 0.0
C1104 C 0.50462 0.8579 0.48922 0.0
C1105 C 0.49688 0.84351 0.4983 0.0
C1106 C 0.50454 0.84284 0.51571 0.0
C1107 C 0.51994 0.8566 0.52409 0.0
C1108 C 0.52774 0.87101 0.51505 0.0
C1109 C 0.52878 0.96861 0.4948 0.0
C1110 C 0.53984 0.97754 0.51128 0.0
C1111 C 0.52787 0.94998 0.48703 0.0
C1112 C 0.53774 0.93997 0.49582 0.0
C1113 C 0.54813 0.94861 0.51271 0.0
C1114 C 0.54935 0.96734 0.52025 0.0
C1115 C 0.53746 0.92058 0.48725 0.0
C1116 C 0.53048 0.90562 0.49606 0.0
C1117 C 0.54348 0.91676 0.47023 0.0
C1118 C 0.55236 0.93227 0.46115 0.0
C1119 C 0.56703 0.94673 0.4706 0.0
C1120 C 0.57523 0.96145 0.46211 0.0
C1121 C 0.56899 0.96179 0.44409 0.0
C1122 C 0.55457 0.94737 0.43451 0.0
C1123 C 0.54628 0.93263 0.44296 0.0
H1124 H 0.57536 0.97319 0.43753 0.0
H1125 H 0.49853 0.83167 0.52272 0.0
H1126 H 0.53716 0.27501 0.67509 0.0
H1127 H 0.50741 0.26742 0.68283 0.0
H1128 H 0.49308 0.30065 0.64473 0.0
H1129 H 0.52305 0.30874 0.63734 0.0
H1130 H 0.48041 0.30885 0.67346 0.0
H1131 H 0.47655 0.24978 0.63716 0.0
H1132 H 0.48408 0.22052 0.62536 0.0
H1133 H 0.48088 0.20398 0.6778 0.0
H1134 H 0.47346 0.23322 0.68996 0.0
H1135 H 0.39174 0.28182 0.68885 0.0
H1136 H 0.41705 0.28231 0.67274 0.0
H1137 H 0.44073 0.26067 0.71573 0.0
H1138 H 0.41568 0.26053 0.7322 0.0
H1139 H 0.44637 0.24506 0.6807 0.0
H1140 H 0.4521 0.30792 0.716 0.0
H1141 H 0.44187 0.33618 0.72443 0.0
H1142 H 0.43898 0.344 0.66854 0.0
H1143 H 0.44902 0.31564 0.65977 0.0
C1144 C 0.52772 0.28078 0.66838 0.0
C1145 C 0.53267 0.29275 0.65577 0.0
C1146 C 0.51055 0.27619 0.67265 0.0
C1147 C 0.49772 0.28319 0.66424 0.0
C1148 C 0.50261 0.29502 0.6515 0.0
C1149 C 0.51984 0.29974 0.64733 0.0
C1150 C 0.47969 0.27939 0.66979 0.0
C1151 C 0.47292 0.29478 0.67465 0.0
C1152 C 0.46966 0.26111 0.67155 0.0
C1153 C 0.47467 0.24381 0.66453 0.0
C1154 C 0.47766 0.24001 0.64623 0.0
C1155 C 0.48184 0.2234 0.63946 0.0
C1156 C 0.48302 0.21043 0.65084 0.0
C1157 C 0.48 0.21405 0.66901 0.0
C1158 C 0.47578 0.23063 0.67584 0.0
C1159 C 0.4023 0.27715 0.69496 0.0
C1160 C 0.40166 0.27146 0.7121 0.0
C1161 C 0.41676 0.27734 0.68562 0.0
C1162 C 0.431 0.27182 0.69312 0.0
C1163 C 0.42996 0.26504 0.70964 0.0
C1164 C 0.41553 0.26492 0.71905 0.0
C1165 C 0.44751 0.27457 0.68462 0.0
C1166 C 0.45394 0.25902 0.67927 0.0
C1167 C 0.45706 0.2926 0.68193 0.0
C1168 C 0.45116 0.30964 0.68723 0.0
C1169 C 0.44919 0.31563 0.70551 0.0
C1170 C 0.44344 0.33166 0.71035 0.0
C1171 C 0.43975 0.34186 0.69702 0.0
C1172 C 0.44183 0.33608 0.67884 0.0
C1173 C 0.44756 0.32005 0.67393 0.0
H1174 H 0.4353 0.35428 0.70079 0.0
H1175 H 0.48624 0.19757 0.64557 0.0
H1176 H 0.99519 0.79396 0.59003 0.0
H1177 H 0.00857 0.82228 0.57811 0.0
H1178 H 0.03554 0.84979 0.63227 0.0
H1179 H 0.02101 0.82194 0.64439 0.0
H1180 H 0.02628 0.87407 0.61711 0.0
H1181 H 0.05728 0.83013 0.59755 0.0
H1182 H 0.0607 0.79906 0.5843 0.0
H1183 H 0.03393 0.80145 0.53247 0.0
H1184 H 0.03021 0.83245 0.54547 0.0
H1185 H 0.07626 0.93797 0.56005 0.0
H1186 H 0.07319 0.91391 0.57949 0.0
H1187 H 0.02023 0.88747 0.55291 0.0
H1188 H 0.02291 0.91162 0.53389 0.0
H1189 H 0.05145 0.86562 0.55911 0.0
H1190 H 0.01389 0.90528 0.58452 0.0
H1191 H 0.00808 0.93386 0.60106 0.0
H1192 H 0.04952 0.93888 0.64417 0.0
H1193 H 0.05568 0.91042 0.62772 0.0
C1194 C 1.00359 0.80631 0.59939 0.0
C1195 C 0.00694 0.80608 0.61807 0.0
C1196 C 0.01152 0.82229 0.59257 0.0
C1197 C 0.02357 0.83785 0.6042 0.0
C1198 C 0.0264 0.83787 0.62304 0.0
C1199 C 0.01799 0.8221 0.62997 0.0
C1200 C 0.03286 0.85422 0.59665 0.0
C1201 C 0.03221 0.87225 0.60471 0.0
C1202 C 0.0408 0.85194 0.58058 0.0
C1203 C 0.04344 0.83357 0.57251 0.0
C1204 C 0.0521 0.824 0.58334 0.0
C1205 C 0.05409 0.80641 0.57587 0.0
C1206 C 0.04752 0.79828 0.55756 0.0
C1207 C 0.03904 0.80778 0.54665 0.0
C1208 C 0.03703 0.82539 0.55404 0.0
C1209 C 0.064 0.92696 0.55832 0.0
C1210 C 0.04964 0.92688 0.54582 0.0
C1211 C 0.06227 0.9134 0.56948 0.0
C1212 C 0.04638 0.89938 0.56776 0.0
C1213 C 0.03245 0.89856 0.55457 0.0
C1214 C 0.03399 0.91231 0.54377 0.0
C1215 C 0.04407 0.885 0.57923 0.0
C1216 C 0.04613 0.86739 0.57192 0.0
C1217 C 0.03772 0.88771 0.59614 0.0
C1218 C 0.03548 0.90602 0.60473 0.0
C1219 C 0.02204 0.91275 0.5973 0.0
C1220 C 0.01853 0.92878 0.60677 0.0
C1221 C 0.02831 0.93807 0.62375 0.0
C1222 C 0.04188 0.93161 0.63108 0.0
C1223 C 0.04542 0.91559 0.62166 0.0
H1224 H 0.02553 0.95042 0.6311 0.0
H1225 H 0.04902 0.78462 0.55182 0.0
H1226 H 0.55344 0.83097 0.82833 0.0
H1227 H 0.52421 0.8307 0.81549 0.0
H1228 H 0.50264 0.80514 0.85939 0.0
H1229 H 0.53197 0.80521 0.87236 0.0
H1230 H 0.48565 0.78702 0.82479 0.0
H1231 H 0.50428 0.85072 0.85979 0.0
H1232 H 0.52448 0.88278 0.87035 0.0
H1233 H 0.52212 0.89239 0.81505 0.0
H1234 H 0.502 0.86037 0.80416 0.0
H1235 H 0.4015 0.79717 0.8024 0.0
H1236 H 0.43008 0.79689 0.81663 0.0
H1237 H 0.4549 0.82822 0.7776 0.0
H1238 H 0.42626 0.8294 0.76386 0.0
H1239 H 0.46987 0.84425 0.81165 0.0
H1240 H 0.45912 0.7808 0.7758 0.0
H1241 H 0.44128 0.74817 0.76252 0.0
H1242 H 0.43025 0.73883 0.81609 0.0
H1243 H 0.44839 0.77117 0.82964 0.0
C1244 C 0.54248 0.8252 0.83522 0.0
C1245 C 0.54489 0.81795 0.85124 0.0
C1246 C 0.52586 0.82528 0.828 0.0
C1247 C 0.51148 0.81825 0.83677 0.0
C1248 C 0.51374 0.81075 0.85261 0.0
C1249 C 0.5304 0.81062 0.85985 0.0
C1250 C 0.49392 0.81746 0.82845 0.0
C1251 C 0.48205 0.79956 0.82226 0.0
C1252 C 0.48963 0.83382 0.8246 0.0
C1253 C 0.5017 0.85311 0.83115 0.0
C1254 C 0.50815 0.85964 0.84987 0.0
C1255 C 0.51955 0.87782 0.85592 0.0
C1256 C 0.52459 0.88961 0.84338 0.0
C1257 C 0.5182 0.88326 0.82476 0.0
C1258 C 0.50676 0.86512 0.81865 0.0
C1259 C 0.41306 0.80386 0.79678 0.0
C1260 C 0.41181 0.81351 0.78223 0.0
C1261 C 0.42933 0.80351 0.80477 0.0
C1262 C 0.44452 0.81245 0.79806 0.0
C1263 C 0.44324 0.82127 0.78292 0.0
C1264 C 0.42694 0.82179 0.77501 0.0
C1265 C 0.46174 0.81378 0.80781 0.0
C1266 C 0.47347 0.83176 0.81433 0.0
C1267 C 0.46613 0.79754 0.81169 0.0
C1268 C 0.45501 0.77827 0.80367 0.0
C1269 C 0.45284 0.77172 0.78469 0.0
C1270 C 0.44278 0.75327 0.77713 0.0
C1271 C 0.43472 0.74137 0.78845 0.0
C1272 C 0.43663 0.74793 0.80733 0.0
C1273 C 0.4469 0.76627 0.81498 0.0
H1274 H 0.42706 0.72707 0.78254 0.0
H1275 H 0.53344 0.90366 0.84809 0.0
H1276 H 0.51365 0.19692 0.14577 0.0
H1277 H 0.52413 0.17139 0.1308 0.0
H1278 H 0.49465 0.17161 0.07943 0.0
H1279 H 0.48447 0.19792 0.09426 0.0
H1280 H 0.49137 0.13471 0.09422 0.0
H1281 H 0.5331 0.19132 0.08279 0.0
H1282 H 0.55557 0.22201 0.0925 0.0
H1283 H 0.5879 0.19595 0.12268 0.0
H1284 H 0.56544 0.16514 0.11347 0.0
H1285 H 0.51388 0.0843 0.02081 0.0
H1286 H 0.5087 0.10911 0.043 0.0
H1287 H 0.55346 0.10868 0.07994 0.0
H1288 H 0.55924 0.08425 0.05721 0.0
H1289 H 0.55184 0.14423 0.07894 0.0
H1290 H 0.51351 0.08745 0.08785 0.0
H1291 H 0.49152 0.05626 0.08017 0.0
H1292 H 0.45351 0.0818 0.0589 0.0
H1293 H 0.47535 0.11278 0.06557 0.0
C1294 C 0.50908 0.1913 0.13134 0.0
C1295 C 0.49797 0.19905 0.12112 0.0
C1296 C 0.51531 0.17696 0.12284 0.0
C1297 C 0.51025 0.16999 0.10414 0.0
C1298 C 0.4987 0.17715 0.09394 0.0
C1299 C 0.4928 0.19192 0.10237 0.0
C1300 C 0.5165 0.15462 0.09534 0.0
C1301 C 0.50452 0.1367 0.09068 0.0
C1302 C 0.53402 0.15735 0.09203 0.0
C1303 C 0.54743 0.17596 0.09768 0.0
C1304 C 0.54487 0.19216 0.09173 0.0
C1305 C 0.55764 0.20958 0.09709 0.0
C1306 C 0.57312 0.21095 0.10826 0.0
C1307 C 0.57588 0.19489 0.11407 0.0
C1308 C 0.56312 0.17745 0.10879 0.0
C1309 C 0.52268 0.08956 0.0336 0.0
C1310 C 0.53679 0.08229 0.03749 0.0
C1311 C 0.51965 0.10361 0.04629 0.0
C1312 C 0.53045 0.11028 0.06322 0.0
C1313 C 0.54492 0.10348 0.06698 0.0
C1314 C 0.54812 0.08954 0.05409 0.0
C1315 C 0.52632 0.12441 0.07673 0.0
C1316 C 0.53874 0.14206 0.08264 0.0
C1317 C 0.50927 0.12138 0.08161 0.0
C1318 C 0.49615 0.10249 0.07716 0.0
C1319 C 0.50053 0.08634 0.08127 0.0
C1320 C 0.48807 0.06864 0.07703 0.0
C1321 C 0.47113 0.06694 0.06888 0.0
C1322 C 0.46663 0.08295 0.06497 0.0
C1323 C 0.47906 0.10061 0.06896 0.0
H1324 H 0.46148 0.05324 0.06568 0.0
H1325 H 0.58301 0.22444 0.11237 0.0
H1326 H 0.11973 0.30355 0.32792 0.0
H1327 H 0.14356 0.29858 0.31151 0.0
H1328 H 0.18089 0.32757 0.35953 0.0
H1329 H 0.15701 0.33317 0.37595 0.0
H1330 H 0.19283 0.33675 0.32913 0.0
H1331 H 0.16752 0.27913 0.34941 0.0
H1332 H 0.14313 0.25262 0.3535 0.0
H1333 H 0.13 0.23503 0.29515 0.0
H1334 H 0.15422 0.26159 0.29072 0.0
H1335 H 0.26248 0.30443 0.30149 0.0
H1336 H 0.23889 0.30954 0.31823 0.0
H1337 H 0.20099 0.27882 0.27108 0.0
H1338 H 0.22481 0.27266 0.25461 0.0
H1339 H 0.18931 0.27063 0.3013 0.0
H1340 H 0.21689 0.32862 0.28198 0.0
H1341 H 0.24129 0.3556 0.27938 0.0
H1342 H 0.25047 0.37347 0.33784 0.0
H1343 H 0.2266 0.34594 0.34087 0.0
C1344 C 0.13303 0.30903 0.33495 0.0
C1345 C 0.13658 0.31856 0.35325 0.0
C1346 C 0.14659 0.30609 0.32559 0.0
C1347 C 0.16386 0.31225 0.33451 0.0
C1348 C 0.16757 0.32256 0.35251 0.0
C1349 C 0.15398 0.32577 0.36184 0.0
C1350 C 0.17794 0.30752 0.32507 0.0
C1351 C 0.19224 0.32229 0.32327 0.0
C1352 C 0.17687 0.28866 0.31717 0.0
C1353 C 0.16259 0.2724 0.31975 0.0
C1354 C 0.15938 0.26964 0.33746 0.0
C1355 C 0.1456 0.25461 0.33984 0.0
C1356 C 0.135 0.24217 0.3246 0.0
C1357 C 0.13822 0.24468 0.30694 0.0
C1358 C 0.15199 0.2597 0.30449 0.0
C1359 C 0.24908 0.2988 0.29473 0.0
C1360 C 0.24529 0.28861 0.2767 0.0
C1361 C 0.23566 0.30175 0.30425 0.0
C1362 C 0.21828 0.29515 0.29565 0.0
C1363 C 0.21439 0.28426 0.27783 0.0
C1364 C 0.22788 0.28081 0.26843 0.0
C1365 C 0.20428 0.2999 0.30528 0.0
C1366 C 0.18996 0.28511 0.30714 0.0
C1367 C 0.20546 0.31876 0.31345 0.0
C1368 C 0.21999 0.33517 0.31164 0.0
C1369 C 0.22421 0.3382 0.29429 0.0
C1370 C 0.23795 0.35364 0.29275 0.0
C1371 C 0.24731 0.36644 0.30842 0.0
C1372 C 0.24315 0.36361 0.32571 0.0
C1373 C 0.22957 0.34803 0.32735 0.0
H1374 H 0.25778 0.37855 0.30723 0.0
H1375 H 0.12431 0.23056 0.32647 0.0
H1376 H 0.97983 0.04722 0.21849 0.0
H1377 H 0.99431 0.04616 0.19109 0.0
H1378 H 0.95906 0.07296 0.16613 0.0
H1379 H 0.94394 0.07307 0.19333 0.0
H1380 H 0.96411 0.05269 0.13929 0.0
H1381 H 0.01081 0.09315 0.1854 0.0
H1382 H 0.03117 0.10189 0.21435 0.0
H1383 H 0.05017 0.05375 0.19855 0.0
H1384 H 0.02983 0.04465 0.16959 0.0
H1385 H 0.0117 0.06553 0.06119 0.0
H1386 H 0.99698 0.06782 0.08848 0.0
H1387 H 0.03452 0.04602 0.11686 0.0
H1388 H 0.05004 0.04562 0.09016 0.0
H1389 H 0.02823 0.06453 0.14229 0.0
H1390 H 0.9807 0.02319 0.09667 0.0
H1391 H 0.9607 0.01482 0.06748 0.0
H1392 H 0.94341 0.06435 0.08234 0.0
H1393 H 0.96342 0.07309 0.11152 0.0
C1394 C 0.97509 0.05308 0.20731 0.0
C1395 C 0.96042 0.06038 0.20888 0.0
C1396 C 0.98371 0.05266 0.19129 0.0
C1397 C 0.9786 0.05992 0.17574 0.0
C1398 C 0.96387 0.06718 0.17733 0.0
C1399 C 0.95507 0.06736 0.19328 0.0
C1400 C 0.98799 0.05952 0.15799 0.0
C1401 C 0.9782 0.05554 0.14025 0.0
C1402 C 0.00651 0.06269 0.15802 0.0
C1403 C 0.01868 0.06813 0.17543 0.0
C1404 C 0.01926 0.08438 0.18816 0.0
C1405 C 0.03081 0.08941 0.20456 0.0
C1406 C 0.04192 0.07836 0.20831 0.0
C1407 C 0.04154 0.06228 0.19565 0.0
C1408 C 0.03003 0.0572 0.17923 0.0
C1409 C 0.01667 0.06083 0.07307 0.0
C1410 C 0.03208 0.05483 0.07271 0.0
C1411 C 0.00799 0.06199 0.08909 0.0
C1412 C 0.0137 0.0565 0.10563 0.0
C1413 C 0.02914 0.05044 0.10501 0.0
C1414 C 0.03811 0.04993 0.08928 0.0
C1415 C 1.00432 0.0574 0.12345 0.0
C1416 C 0.01413 0.06153 0.14125 0.0
C1417 C 0.98582 0.05427 0.12349 0.0
C1418 C 0.97363 0.04885 0.10616 0.0
C1419 C 0.97263 0.03229 0.09367 0.0
C1420 C 0.96132 0.0275 0.07713 0.0
C1421 C 0.95082 0.03907 0.07304 0.0
C1422 C 0.95156 0.05542 0.08551 0.0
C1423 C 0.96287 0.06028 0.10205 0.0
H1424 H 0.94209 0.03536 0.06021 0.0
H1425 H 0.05084 0.08227 0.22101 0.0
H1426 H 0.25488 0.67719 0.4757 0.0
H1427 H 0.2427 0.68384 0.4472 0.0
H1428 H 0.28675 0.67403 0.42202 0.0
H1429 H 0.29903 0.66708 0.45068 0.0
H1430 H 0.28431 0.71292 0.43424 0.0
H1431 H 0.24906 0.65105 0.40105 0.0
H1432 H 0.22516 0.62146 0.39681 0.0
H1433 H 0.18755 0.65325 0.40143 0.0
H1434 H 0.21126 0.68307 0.40608 0.0
H1435 H 0.28985 0.74949 0.35976 0.0
H1436 H 0.28447 0.72603 0.37877 0.0
H1437 H 0.23372 0.73429 0.38515 0.0
H1438 H 0.238 0.75641 0.36367 0.0
H1439 H 0.23419 0.697 0.38446 0.0
H1440 H 0.26627 0.75763 0.41798 0.0
H1441 H 0.28846 0.7887 0.42435 0.0
H1442 H 0.32949 0.7613 0.42315 0.0
H1443 H 0.30757 0.73008 0.41655 0.0
C1444 C 0.26181 0.67611 0.46394 0.0
C1445 C 0.27828 0.6726 0.46538 0.0
C1446 C 0.25455 0.67934 0.44759 0.0
C1447 C 0.26385 0.67934 0.43269 0.0
C1448 C 0.27935 0.67376 0.43347 0.0
C1449 C 0.28654 0.67025 0.44984 0.0
C1450 C 0.2612 0.69155 0.41993 0.0
C1451 C 0.27351 0.70932 0.42313 0.0
C1452 C 0.2462 0.6873 0.40674 0.0
C1453 C 0.232 0.66933 0.40414 0.0
C1454 C 0.23573 0.65176 0.40142 0.0
C1455 C 0.2222 0.63494 0.39889 0.0
C1456 C 0.20486 0.63548 0.39894 0.0
C1457 C 0.201 0.65285 0.40147 0.0
C1458 C 0.21448 0.66972 0.40403 0.0
C1459 C 0.2772 0.74591 0.36447 0.0
C1460 C 0.2643 0.75481 0.36008 0.0
C1461 C 0.27426 0.73265 0.37559 0.0
C1462 C 0.25893 0.72896 0.38364 0.0
C1463 C 0.2457 0.73725 0.37908 0.0
C1464 C 0.24832 0.75007 0.36715 0.0
C1465 C 0.258 0.71772 0.39803 0.0
C1466 C 0.2449 0.70051 0.39562 0.0
C1467 C 0.27193 0.72267 0.4126 0.0
C1468 C 0.28524 0.74149 0.41676 0.0
C1469 C 0.28002 0.75823 0.419 0.0
C1470 C 0.29256 0.77587 0.42266 0.0
C1471 C 0.31037 0.77697 0.42416 0.0
C1472 C 0.31569 0.76043 0.42202 0.0
C1473 C 0.30321 0.74275 0.41837 0.0
H1474 H 0.32005 0.79064 0.42698 0.0
H1475 H 0.19441 0.62244 0.39696 0.0
H1476 H 0.66543 0.03257 0.68624 0.0
H1477 H 0.65035 0.03961 0.65905 0.0
H1478 H 0.61353 0.05687 0.69191 0.0
H1479 H 0.62781 0.04888 0.71851 0.0
H1480 H 0.59801 0.029 0.66499 0.0
H1481 H 0.64057 0.08894 0.67201 0.0
H1482 H 0.67026 0.11096 0.67652 0.0
H1483 H 0.68071 0.08226 0.62613 0.0
H1484 H 0.6511 0.05996 0.62137 0.0
H1485 H 0.54709 0.04731 0.59129 0.0
H1486 H 0.5671 0.05384 0.62006 0.0
H1487 H 0.60257 0.029 0.5915 0.0
H1488 H 0.58214 0.02168 0.56304 0.0
H1489 H 0.61911 0.06449 0.6167 0.0
H1490 H 0.57777 1.00272 0.6125 0.0
H1491 H 0.54857 0.97993 0.60919 0.0
H1492 H 0.53662 0.01266 0.65638 0.0
H1493 H 0.56567 0.03581 0.65978 0.0
C1494 C 0.65399 0.03766 0.6874 0.0
C1495 C 0.64705 0.03923 0.70392 0.0
C1496 C 0.64571 0.04211 0.67213 0.0
C1497 C 0.6309 0.04873 0.67365 0.0
C1498 C 0.62488 0.05164 0.69057 0.0
C1499 C 0.63277 0.04669 0.70556 0.0
C1500 C 0.61965 0.04906 0.65725 0.0
C1501 C 0.60252 0.03718 0.65466 0.0
C1502 C 0.62584 0.05927 0.64367 0.0
C1503 C 0.64363 0.07271 0.64638 0.0
C1504 C 0.64923 0.08725 0.66194 0.0
C1505 C 0.66604 0.09981 0.66452 0.0
C1506 C 0.67737 0.098 0.65163 0.0
C1507 C 0.6719 0.08366 0.63609 0.0
C1508 C 0.65509 0.07108 0.63342 0.0
C1509 C 0.55907 0.04308 0.59136 0.0
C1510 C 0.56344 0.03424 0.57525 0.0
C1511 C 0.57053 0.04707 0.60756 0.0
C1512 C 0.58632 0.04218 0.60759 0.0
C1513 C 0.59058 0.03322 0.59147 0.0
C1514 C 0.57904 0.02909 0.57535 0.0
C1515 C 0.59757 0.04466 0.62479 0.0
C1516 C 0.61464 0.05679 0.62735 0.0
C1517 C 0.59139 0.03478 0.63855 0.0
C1518 C 0.57377 0.02113 0.63622 0.0
C1519 C 0.56882 1.00519 0.62201 0.0
C1520 C 0.55232 0.99217 0.62016 0.0
C1521 C 0.54072 0.99488 0.63253 0.0
C1522 C 0.54559 0.01061 0.64678 0.0
C1523 C 0.56206 0.02368 0.64866 0.0
H1524 H 0.52798 0.98475 0.63111 0.0
H1525 H 0.69038 0.10773 0.65366 0.0
H1526 H 0.33118 0.34579 0.97552 0.0
H1527 H 0.32936 0.33503 0.9426 0.0
H1528 H 0.27852 0.34448 0.93395 0.0
H1529 H 0.28049 0.35591 0.96709 0.0
H1530 H 0.28043 0.30883 0.91451 0.0
H1531 H 0.30839 0.37383 0.9207 0.0
H1532 H 0.32912 0.40544 0.93177 0.0
H1533 H 0.37189 0.38356 0.91809 0.0
H1534 H 0.35142 0.35173 0.90713 0.0
H1535 H 0.27637 0.29976 0.81835 0.0
H1536 H 0.2765 0.30968 0.85076 0.0
H1537 H 0.33041 0.30942 0.86136 0.0
H1538 H 0.33064 0.29998 0.82833 0.0
H1539 H 0.32559 0.34069 0.87968 0.0
H1540 H 0.29417 0.27405 0.87249 0.0
H1541 H 0.27086 0.24515 0.85785 0.0
H1542 H 0.23173 0.27324 0.87062 0.0
H1543 H 0.25481 0.30232 0.88529 0.0
C1544 C 0.31952 0.34547 0.96668 0.0
C1545 C 0.30591 0.35159 0.97399 0.0
C1546 C 0.31857 0.33943 0.94781 0.0
C1547 C 0.30386 0.33902 0.93576 0.0
C1548 C 0.29002 0.3447 0.94299 0.0
C1549 C 0.29115 0.3512 0.96192 0.0
C1550 C 0.30309 0.33243 0.91571 0.0
C1551 C 0.2902 0.3159 0.90684 0.0
C1552 C 0.31586 0.34156 0.90567 0.0
C1553 C 0.32839 0.36032 0.91338 0.0
C1554 C 0.32225 0.37567 0.92037 0.0
C1555 C 0.33394 0.39366 0.92653 0.0
C1556 C 0.35182 0.39649 0.92571 0.0
C1557 C 0.35804 0.38133 0.91878 0.0
C1558 C 0.3464 0.36331 0.91259 0.0
C1559 C 0.28835 0.30169 0.82744 0.0
C1560 C 0.30357 0.29908 0.82057 0.0
C1561 C 0.28829 0.30721 0.84614 0.0
C1562 C 0.30333 0.30996 0.85867 0.0
C1563 C 0.31857 0.30726 0.85197 0.0
C1564 C 0.3187 0.30183 0.83309 0.0
C1565 C 0.3033 0.31676 0.87857 0.0
C1566 C 0.31598 0.33343 0.8874 0.0
C1567 C 0.2901 0.30797 0.88841 0.0
C1568 C 0.27622 0.29036 0.87994 0.0
C1569 C 0.28059 0.27406 0.87215 0.0
C1570 C 0.26742 0.25765 0.86386 0.0
C1571 C 0.24983 0.25736 0.8633 0.0
C1572 C 0.24536 0.27347 0.87109 0.0
C1573 C 0.25848 0.28989 0.87946 0.0
H1574 H 0.23965 0.24466 0.85684 0.0
H1575 H 0.36084 0.41045 0.93039 0.0
H1576 H 0.99801 0.07147 0.31421 0.0
H1577 H 0.01093 0.07249 0.34565 0.0
H1578 H 0.96122 0.03934 0.35625 0.0
H1579 H 0.94811 0.03945 0.32514 0.0
H1580 H 0.97543 0.06133 0.38687 0.0
H1581 H 1.00039 0.02195 0.34523 0.0
H1582 H 0.01598 0.01655 0.31878 0.0
H1583 H 0.06068 0.06213 0.34523 0.0
H1584 H 0.04524 0.06798 0.37171 0.0
H1585 H 0.00915 0.02239 0.46101 0.0
H1586 H 0.9969 0.02592 0.43063 0.0
H1587 H 0.04257 0.07176 0.43019 0.0
H1588 H 0.05441 0.06887 0.46097 0.0
H1589 H 0.03148 0.04479 0.39532 0.0
H1590 H 0.00917 0.08379 0.43682 0.0
H1591 H 0.99503 0.09176 0.46371 0.0
H1592 H 0.94712 0.05016 0.43849 0.0
H1593 H 0.96114 0.0416 0.41157 0.0
C1594 C 0.98978 0.06449 0.32326 0.0
C1595 C 0.97195 0.05527 0.31686 0.0
C1596 C 0.99727 0.06488 0.34139 0.0
C1597 C 0.98743 0.05542 0.35375 0.0
C1598 C 0.96945 0.04668 0.34741 0.0
C1599 C 0.96188 0.04667 0.32941 0.0
C1600 C 0.99582 0.05412 0.3728 0.0
C1601 C 0.98754 0.05741 0.38847 0.0
C1602 C 0.01205 0.04964 0.37576 0.0
C1603 C 0.02164 0.04546 0.36035 0.0
C1604 C 0.01356 0.03078 0.3454 0.0
C1605 C 0.02234 0.02768 0.33039 0.0
C1606 C 0.0393 0.03901 0.33031 0.0
C1607 C 0.04755 0.05338 0.3453 0.0
C1608 C 0.0388 0.05658 0.36032 0.0
C1609 C 0.01663 0.03321 0.45445 0.0
C1610 C 0.03284 0.04534 0.46363 0.0
C1611 C 0.00957 0.03526 0.43698 0.0
C1612 C 0.01868 0.04913 0.42774 0.0
C1613 C 0.03512 0.06091 0.43672 0.0
C1614 C 0.04191 0.05927 0.45445 0.0
C1615 C 0.01089 0.0516 0.40907 0.0
C1616 C 0.0193 0.04856 0.39358 0.0
C1617 C 0.99495 0.05655 0.40636 0.0
C1618 C 0.98627 0.06187 0.42227 0.0
C1619 C 0.99567 0.0762 0.43707 0.0
C1620 C 0.98767 0.08084 0.45231 0.0
C1621 C 0.9702 0.07143 0.45284 0.0
C1622 C 0.96067 0.0574 0.43807 0.0
C1623 C 0.96864 0.05264 0.42281 0.0
H1624 H 0.96402 0.07503 0.46465 0.0
H1625 H 0.04605 0.03664 0.31864 0.0
H1626 H 0.27331 0.65756 0.57143 0.0
H1627 H 0.26839 0.67725 0.59869 0.0
H1628 H 0.3078 0.72502 0.58845 0.0
H1629 H 0.31275 0.70551 0.56104 0.0
H1630 H 0.31291 0.71362 0.62289 0.0
H1631 H 0.26829 0.72599 0.58231 0.0
H1632 H 0.24104 0.71945 0.56098 0.0
H1633 H 0.2111 0.69569 0.60076 0.0
H1634 H 0.23821 0.70172 0.62221 0.0
H1635 H 0.30792 0.7931 0.68531 0.0
H1636 H 0.30376 0.77227 0.65545 0.0
H1637 H 0.27235 0.72608 0.6767 0.0
H1638 H 0.27786 0.74615 0.70685 0.0
H1639 H 0.26079 0.73427 0.63769 0.0
H1640 H 0.30492 0.72196 0.67833 0.0
H1641 H 0.33171 0.72996 0.70054 0.0
H1642 H 0.36247 0.75166 0.66043 0.0
H1643 H 0.33569 0.74505 0.63837 0.0
C1644 C 0.28102 0.67224 0.57506 0.0
C1645 C 0.29376 0.67998 0.56446 0.0
C1646 C 0.27793 0.68348 0.59038 0.0
C1647 C 0.28763 0.70248 0.59529 0.0
C1648 C 0.30013 0.71033 0.58461 0.0
C1649 C 0.30309 0.69918 0.56917 0.0
C1650 C 0.2867 0.7135 0.61294 0.0
C1651 C 0.30159 0.71835 0.62608 0.0
C1652 C 0.27154 0.71873 0.61714 0.0
C1653 C 0.25536 0.714 0.60376 0.0
C1654 C 0.25595 0.71901 0.58638 0.0
C1655 C 0.24051 0.71549 0.5743 0.0
C1656 C 0.22436 0.70708 0.57947 0.0
C1657 C 0.22362 0.70212 0.59673 0.0
C1658 C 0.23903 0.70556 0.60884 0.0
C1659 C 0.29985 0.77862 0.6835 0.0
C1660 C 0.29288 0.77127 0.69825 0.0
C1661 C 0.29751 0.76681 0.66653 0.0
C1662 C 0.28774 0.74784 0.66415 0.0
C1663 C 0.27979 0.74081 0.67846 0.0
C1664 C 0.28278 0.75234 0.69559 0.0
C1665 C 0.28722 0.73492 0.6472 0.0
C1666 C 0.27204 0.72948 0.6344 0.0
C1667 C 0.30206 0.72894 0.64331 0.0
C1668 C 0.31816 0.7335 0.65683 0.0
C1669 C 0.31729 0.72903 0.67441 0.0
C1670 C 0.33251 0.73328 0.68698 0.0
C1671 C 0.34878 0.74137 0.68193 0.0
C1672 C 0.34984 0.74547 0.66437 0.0
C1673 C 0.33462 0.74165 0.65188 0.0
H1674 H 0.36058 0.74438 0.69159 0.0
H1675 H 0.21241 0.70449 0.57014 0.0
H1676 H 0.62784 0.07231 0.79646 0.0
H1677 H 0.62699 0.08552 0.82827 0.0
H1678 H 0.66069 0.05323 0.84642 0.0
H1679 H 0.66179 0.04003 0.81454 0.0
H1680 H 0.6261 0.04464 0.85534 0.0
H1681 H 0.67614 0.09998 0.86057 0.0
H1682 H 0.69421 0.12999 0.85404 0.0
H1683 H 0.65086 0.15376 0.85729 0.0
H1684 H 0.63255 0.12396 0.86372 0.0
H1685 H 0.61706 0.06455 0.94632 0.0
H1686 H 0.6352 0.07022 0.92206 0.0
H1687 H 0.59796 0.09403 0.89584 0.0
H1688 H 0.57938 0.08772 0.9196 0.0
H1689 H 0.63781 0.10889 0.89285 0.0
H1690 H 0.58636 0.05571 0.88079 0.0
H1691 H 0.56483 0.02689 0.88516 0.0
H1692 H 0.60531 0.99898 0.88942 0.0
H1693 H 0.6272 0.02788 0.88559 0.0
C1694 C 0.63503 0.06797 0.80724 0.0
C1695 C 0.64436 0.05463 0.80317 0.0
C1696 C 0.63495 0.07597 0.82532 0.0
C1697 C 0.64407 0.07058 0.83951 0.0
C1698 C 0.65391 0.05779 0.8355 0.0
C1699 C 0.65418 0.04995 0.81739 0.0
C1700 C 0.6395 0.07424 0.85795 0.0
C1701 C 0.62913 0.05863 0.86383 0.0
C1702 C 0.64251 0.09264 0.86823 0.0
C1703 C 0.65297 0.10973 0.8625 0.0
C1704 C 0.67039 0.1115 0.85956 0.0
C1705 C 0.6807 0.12851 0.85599 0.0
C1706 C 0.67364 0.14374 0.8553 0.0
C1707 C 0.65627 0.14195 0.85787 0.0
C1708 C 0.64595 0.12503 0.86148 0.0
C1709 C 0.6131 0.07164 0.93574 0.0
C1710 C 0.59669 0.07522 0.9344 0.0
C1711 C 0.62346 0.07491 0.92201 0.0
C1712 C 0.61755 0.08211 0.9072 0.0
C1713 C 0.60254 0.08842 0.90731 0.0
C1714 C 0.59201 0.08486 0.92089 0.0
C1715 C 0.62483 0.07928 0.89018 0.0
C1716 C 0.63532 0.0949 0.88453 0.0
C1717 C 0.62133 0.06096 0.87956 0.0
C1718 C 0.60852 0.04418 0.88354 0.0
C1719 C 0.59078 0.04365 0.88325 0.0
C1720 C 0.57848 0.02724 0.88546 0.0
C1721 C 0.58373 0.01116 0.88773 0.0
C1722 C 0.6013 0.0115 0.88784 0.0
C1723 C 0.61366 0.02791 0.88572 0.0
H1724 H 0.57416 0.99841 0.88926 0.0
H1725 H 0.6816 0.15701 0.85292 0.0
H1726 H 0.28539 0.38028 0.09002 0.0
H1727 H 0.28132 0.36524 0.11675 0.0
H1728 H 0.31383 0.32996 0.09863 0.0
H1729 H 0.31688 0.34412 0.07123 0.0
H1730 H 0.29046 0.30968 0.11231 0.0
H1731 H 0.32691 0.37355 0.13666 0.0
H1732 H 0.33388 0.40839 0.14161 0.0
H1733 H 0.28727 0.40632 0.16655 0.0
H1734 H 0.27996 0.37148 0.16158 0.0
H1735 H 0.30315 0.27701 0.19528 0.0
H1736 H 0.30732 0.29266 0.16897 0.0
H1737 H 0.27653 0.32917 0.18915 0.0
H1738 H 0.27369 0.31439 0.21635 0.0
H1739 H 0.29848 0.34884 0.17422 0.0
H1740 H 0.26189 0.28504 0.14998 0.0
H1741 H 0.254 0.25013 0.14376 0.0
H1742 H 0.3001 0.25176 0.11801 0.0
H1743 H 0.3083 0.28666 0.12418 0.0
C1744 C 0.29165 0.36928 0.09169 0.0
C1745 C 0.30158 0.36357 0.07841 0.0
C1746 C 0.28947 0.36075 0.10719 0.0
C1747 C 0.2977 0.34671 0.11035 0.0
C1748 C 0.30736 0.34077 0.09686 0.0
C1749 C 0.30915 0.34895 0.0811 0.0
C1750 C 0.29621 0.3381 0.12747 0.0
C1751 C 0.29248 0.31835 0.12585 0.0
C1752 C 0.29825 0.34905 0.14534 0.0
C1753 C 0.30284 0.36996 0.14862 0.0
C1754 C 0.31814 0.38055 0.14315 0.0
C1755 C 0.32214 0.40028 0.14595 0.0
C1756 C 0.31101 0.40955 0.15435 0.0
C1757 C 0.29588 0.39912 0.16003 0.0
C1758 C 0.29182 0.3794 0.15725 0.0
C1759 C 0.29758 0.28867 0.19428 0.0
C1760 C 0.28828 0.29461 0.20805 0.0
C1761 C 0.29965 0.29742 0.17893 0.0
C1762 C 0.2917 0.3118 0.17633 0.0
C1763 C 0.28279 0.3181 0.19047 0.0
C1764 C 0.28121 0.30971 0.20617 0.0
C1765 C 0.29278 0.32035 0.15912 0.0
C1766 C 0.29644 0.34011 0.16072 0.0
C1767 C 0.29062 0.30938 0.1412 0.0
C1768 C 0.28578 0.28843 0.13771 0.0
C1769 C 0.27039 0.27794 0.1431 0.0
C1770 C 0.26585 0.25816 0.13955 0.0
C1771 C 0.27657 0.24874 0.13054 0.0
C1772 C 0.29182 0.25907 0.12501 0.0
C1773 C 0.2964 0.27884 0.12851 0.0
H1774 H 0.27303 0.23343 0.12781 0.0
H1775 H 0.31411 0.42483 0.15648 0.0
H1776 H 0.27293 0.98852 0.00825 0.0
H1777 H 0.24816 0.99902 0.01806 0.0
H1778 H 0.22085 0.94142 0.02083 0.0
H1779 H 0.24505 0.9308 0.00946 0.0
H1780 H 0.19899 0.95585 0.00822 0.0
H1781 H 0.24186 0.97721 0.06098 0.0
H1782 H 0.27152 0.99243 0.07785 0.0
H1783 H 0.26947 0.04571 0.06408 0.0
H1784 H 0.23983 0.03078 0.04701 0.0
H1785 H 0.13344 0.99472 0.04373 0.0
H1786 H 0.15621 0.97809 0.0426 0.0
H1787 H 0.19341 0.02911 0.03507 0.0
H1788 H 0.17109 0.04586 0.03739 0.0
H1789 H 0.20931 0.0134 0.05588 0.0
H1790 H 0.16687 0.98735 0.99839 0.0
H1791 H 0.13829 0.96896 0.98047 0.0
H1792 H 0.1402 0.92111 0.00523 0.0
H1793 H 0.16866 0.93927 0.02339 0.0
C1794 C 0.26144 0.97815 0.01062 0.0
C1795 C 0.26061 0.95891 0.0079 0.0
C1796 C 0.24746 0.98414 0.01656 0.0
C1797 C 0.23286 0.97109 0.02076 0.0
C1798 C 0.23199 0.95177 0.01775 0.0
C1799 C 0.24571 0.94569 0.01115 0.0
C1800 C 0.21826 0.97755 0.02764 0.0
C1801 C 0.20122 0.96821 0.01893 0.0
C1802 C 0.22112 0.99356 0.04172 0.0
C1803 C 0.23861 1.00285 0.05269 0.0
C1804 C 0.24772 0.99218 0.06157 0.0
C1805 C 0.26454 1.00075 0.07115 0.0
C1806 C 0.27237 0.02002 0.07203 0.0
C1807 C 0.26336 0.03079 0.06342 0.0
C1808 C 0.24652 0.0223 0.05385 0.0
C1809 C 0.14656 1.0023 0.04197 0.0
C1810 C 0.15059 0.02151 0.04059 0.0
C1811 C 0.15952 0.99281 0.04122 0.0
C1812 C 0.17649 1.00222 0.03838 0.0
C1813 C 0.18047 0.0215 0.03732 0.0
C1814 C 0.16771 0.03107 0.03857 0.0
C1815 C 0.19013 0.99223 0.03575 0.0
C1816 C 0.20705 1.00082 0.04543 0.0
C1817 C 0.18711 0.97524 0.02283 0.0
C1818 C 0.16971 0.96475 0.01242 0.0
C1819 C 0.16107 0.97298 1.00014 0.0
C1820 C 0.14493 0.96258 0.98991 0.0
C1821 C 0.1374 0.94391 0.99177 0.0
C1822 C 0.146 0.93559 0.00386 0.0
C1823 C 0.16211 0.94593 0.01412 0.0
H1824 H 0.12494 0.93587 0.9838 0.0
H1825 H 0.28543 0.02661 0.07938 0.0
H1826 H 0.72823 0.67199 0.9906 0.0
H1827 H 0.69885 0.65374 0.99428 0.0
H1828 H 0.72116 0.61539 0.01947 0.0
H1829 H 0.75034 0.63312 0.01524 0.0
H1830 H 0.69474 0.59559 0.99768 0.0
H1831 H 0.70293 0.65115 0.04333 0.0
H1832 H 0.7087 0.6852 0.05568 0.0
H1833 H 0.66394 0.68699 0.02014 0.0
H1834 H 0.65805 0.653 0.0074 0.0
H1835 H 0.61997 0.54285 0.02821 0.0
H1836 H 0.64834 0.565 0.02753 0.0
H1837 H 0.62239 0.60103 1.00299 0.0
H1838 H 0.5938 0.57884 0.00435 0.0
H1839 H 0.65014 0.62302 0.02379 0.0
H1840 H 0.64322 0.56692 0.97777 0.0
H1841 H 0.63907 0.53315 0.9652 0.0
H1842 H 0.68316 0.53293 1.00268 0.0
H1843 H 0.68745 0.56661 0.01556 0.0
C1844 C 0.72689 0.65956 0.99678 0.0
C1845 C 0.74182 0.65399 1.00237 0.0
C1846 C 0.70999 0.64922 0.99912 0.0
C1847 C 0.7075 0.63314 0.00742 0.0
C1848 C 0.72245 0.62761 0.01298 0.0
C1849 C 0.73927 0.6378 0.01047 0.0
C1850 C 0.68947 0.62138 0.00949 0.0
C1851 C 0.68516 0.60169 0.0037 0.0
C1852 C 0.67648 0.62908 0.0168 0.0
C1853 C 0.68016 0.64957 0.02427 0.0
C1854 C 0.69442 0.65884 0.03802 0.0
C1855 C 0.69769 0.67813 0.04512 0.0
C1856 C 0.68672 0.68826 0.03867 0.0
C1857 C 0.67245 0.67913 0.02511 0.0
C1858 C 0.66913 0.65986 0.01795 0.0
C1859 C 0.62027 0.55569 0.02298 0.0
C1860 C 0.60452 0.55925 0.01667 0.0
C1861 C 0.63662 0.56831 0.02233 0.0
C1862 C 0.63788 0.58466 0.01466 0.0
C1863 C 0.62207 0.58861 0.00894 0.0
C1864 C 0.60562 0.57605 0.00991 0.0
C1865 C 0.65556 0.59715 0.01224 0.0
C1866 C 0.65977 0.61696 0.01785 0.0
C1867 C 0.66864 0.58961 0.00492 0.0
C1868 C 0.66552 0.56918 0.99773 0.0
C1869 C 0.65189 0.55959 0.98345 0.0
C1870 C 0.64955 0.54049 0.97624 0.0
C1871 C 0.66081 0.53089 0.98316 0.0
C1872 C 0.67442 0.54036 0.99735 0.0
C1873 C 0.67681 0.55944 0.0046 0.0
H1874 H 0.65902 0.51612 0.97751 0.0
H1875 H 0.68925 0.70318 0.0442 0.0
H1876 H 0.68275 0.43615 0.23949 0.0
H1877 H 0.69538 0.40923 0.23865 0.0
H1878 H 0.73877 0.44385 0.2784 0.0
H1879 H 0.72608 0.47066 0.2792 0.0
H1880 H 0.75256 0.42432 0.25608 0.0
H1881 H 0.70003 0.40131 0.28358 0.0
H1882 H 0.66846 0.38988 0.28541 0.0
H1883 H 0.6619 0.34765 0.23709 0.0
H1884 H 0.69335 0.35901 0.2348 0.0
H1885 H 0.79483 0.35286 0.27132 0.0
H1886 H 0.77991 0.37755 0.27232 0.0
H1887 H 0.73296 0.33669 0.24302 0.0
H1888 H 0.7477 0.31159 0.24341 0.0
H1889 H 0.71989 0.35871 0.25858 0.0
H1890 H 0.76726 0.38004 0.22674 0.0
H1891 H 0.79753 0.38954 0.21973 0.0
H1892 H 0.81206 0.43288 0.26812 0.0
H1893 H 0.7819 0.42349 0.27551 0.0
C1894 C 0.69497 0.43816 0.24818 0.0
C1895 C 0.70312 0.45621 0.25945 0.0
C1896 C 0.70229 0.42239 0.24781 0.0
C1897 C 0.71835 0.42357 0.25863 0.0
C1898 C 0.72649 0.44171 0.26976 0.0
C1899 C 0.71908 0.45738 0.27027 0.0
C1900 C 0.72708 0.40673 0.25801 0.0
C1901 C 0.74524 0.4101 0.25696 0.0
C1902 C 0.71808 0.38731 0.25803 0.0
C1903 C 0.69902 0.38122 0.25889 0.0
C1904 C 0.69181 0.38978 0.27319 0.0
C1905 C 0.67394 0.38326 0.27434 0.0
C1906 C 0.66317 0.3681 0.26134 0.0
C1907 C 0.67023 0.35944 0.24712 0.0
C1908 C 0.68807 0.36594 0.24588 0.0
C1909 C 0.78133 0.34892 0.26494 0.0
C1910 C 0.77291 0.32965 0.25709 0.0
C1911 C 0.7726 0.36349 0.26527 0.0
C1912 C 0.75494 0.3601 0.2571 0.0
C1913 C 0.74644 0.34068 0.24944 0.0
C1914 C 0.75507 0.32597 0.24956 0.0
C1915 C 0.7455 0.37637 0.25687 0.0
C1916 C 0.72726 0.37292 0.25774 0.0
C1917 C 0.75419 0.39558 0.25582 0.0
C1918 C 0.77241 0.40092 0.25178 0.0
C1919 C 0.77696 0.39148 0.23596 0.0
C1920 C 0.79408 0.39687 0.23191 0.0
C1921 C 0.80672 0.41177 0.2435 0.0
C1922 C 0.80226 0.42131 0.25918 0.0
C1923 C 0.78517 0.41597 0.26331 0.0
H1924 H 0.81996 0.41596 0.24031 0.0
H1925 H 0.64936 0.36301 0.26231 0.0
H1926 H 0.84662 0.47246 0.52056 0.0
H1927 H 0.87725 0.48843 0.53257 0.0
H1928 H 0.89143 0.43774 0.51227 0.0
H1929 H 0.86065 0.42142 0.50062 0.0
H1930 H 0.91149 0.4579 0.54612 0.0
H1931 H 0.8951 0.46648 0.48586 0.0
H1932 H 0.87619 0.4731 0.46118 0.0
H1933 H 0.88371 0.5293 0.49129 0.0
H1934 H 0.90246 0.52285 0.51632 0.0
H1935 H 0.99137 0.49518 0.51184 0.0
H1936 H 0.96106 0.47972 0.51524 0.0
H1937 H 0.95929 0.52982 0.552 0.0
H1938 H 0.98987 0.5451 0.54921 0.0
H1939 H 0.93338 0.51188 0.51486 0.0
H1940 H 0.95732 0.50094 0.57276 0.0
H1941 H 0.98021 0.49127 0.59007 0.0
H1942 H 0.96195 0.43537 0.55746 0.0
H1943 H 0.93931 0.44485 0.53948 0.0
C1944 C 0.85628 0.46477 0.51855 0.0
C1945 C 0.85147 0.44593 0.50927 0.0
C1946 C 0.87363 0.47374 0.52573 0.0
C1947 C 0.88638 0.46413 0.52328 0.0
C1948 C 0.88161 0.44518 0.51445 0.0
C1949 C 0.86418 0.43608 0.5075 0.0
C1950 C 0.90482 0.47486 0.52713 0.0
C1951 C 0.91632 0.46979 0.53946 0.0
C1952 C 0.911 0.49005 0.51806 0.0
C1953 C 0.89994 0.49412 0.50302 0.0
C1954 C 0.89258 0.48019 0.48727 0.0
C1955 C 0.88192 0.48391 0.47322 0.0
C1956 C 0.8787 0.50159 0.4747 0.0
C1957 C 0.88619 0.5156 0.4902 0.0
C1958 C 0.89683 0.51192 0.50432 0.0
C1959 C 0.98446 0.50274 0.5207 0.0
C1960 C 0.99253 0.52116 0.53023 0.0
C1961 C 0.9674 0.49394 0.52277 0.0
C1962 C 0.95839 0.50374 0.53404 0.0
C1963 C 0.96641 0.52217 0.54352 0.0
C1964 C 0.98364 0.5308 0.54184 0.0
C1965 C 0.93993 0.49525 0.53411 0.0
C1966 C 0.92842 0.50053 0.52217 0.0
C1967 C 0.93407 0.47984 0.54293 0.0
C1968 C 0.94658 0.4736 0.55478 0.0
C1969 C 0.95815 0.48657 0.56929 0.0
C1970 C 0.97112 0.48115 0.57919 0.0
C1971 C 0.97248 0.46271 0.57493 0.0
C1972 C 0.96084 0.44963 0.56078 0.0
C1973 C 0.94792 0.45502 0.55073 0.0
H1974 H 0.98258 0.45857 0.58258 0.0
H1975 H 0.87043 0.50445 0.4638 0.0
H1976 H 0.40638 0.10434 0.30517 0.0
H1977 H 0.39067 0.1244 0.29181 0.0
H1978 H 0.37268 0.08185 0.24259 0.0
H1979 H 0.38794 0.06161 0.25586 0.0
H1980 H 0.3866 0.12263 0.23855 0.0
H1981 H 0.34414 0.07971 0.26483 0.0
H1982 H 0.33571 0.06239 0.28965 0.0
H1983 H 0.34427 0.11501 0.32697 0.0
H1984 H 0.35306 0.13265 0.3024 0.0
H1985 H 0.31937 0.16831 0.21332 0.0
H1986 H 0.33656 0.14584 0.21647 0.0
H1987 H 0.35113 0.16973 0.2741 0.0
H1988 H 0.33314 0.19088 0.27151 0.0
H1989 H 0.33621 0.13302 0.26857 0.0
H1990 H 0.37947 0.17607 0.24119 0.0
H1991 H 0.39166 0.19235 0.21697 0.0
H1992 H 0.38304 0.13879 0.18118 0.0
H1993 H 0.37048 0.12222 0.20504 0.0
C1994 C 0.39899 0.0993 0.29157 0.0
C1995 C 0.39802 0.08142 0.28166 0.0
C1996 C 0.39024 0.11074 0.28393 0.0
C1997 C 0.38075 0.10443 0.26628 0.0
C1998 C 0.3801 0.08681 0.25619 0.0
C1999 C 0.38856 0.07524 0.26392 0.0
C2000 C 0.37017 0.11557 0.2591 0.0
C2001 C 0.3754 0.12483 0.24481 0.0
C2002 C 0.35559 0.11796 0.26732 0.0
C2003 C 0.34929 0.10747 0.28182 0.0
C2004 C 0.34424 0.08757 0.27834 0.0
C2005 C 0.33943 0.0777 0.29236 0.0
C2006 C 0.33947 0.08759 0.30989 0.0
C2007 C 0.34423 0.10737 0.31339 0.0
C2008 C 0.3491 0.11731 0.29941 0.0
C2009 C 0.32628 0.16876 0.22663 0.0
C2010 C 0.32476 0.18131 0.24218 0.0
C2011 C 0.33625 0.15612 0.22833 0.0
C2012 C 0.345 0.1562 0.24551 0.0
C2013 C 0.3444 0.16949 0.26072 0.0
C2014 C 0.33422 0.18175 0.25915 0.0
C2015 C 0.35318 0.14127 0.24855 0.0
C2016 C 0.34725 0.13084 0.26198 0.0
C2017 C 0.36704 0.1378 0.23937 0.0
C2018 C 0.37372 0.14793 0.22478 0.0
C2019 C 0.37986 0.16778 0.22804 0.0
C2020 C 0.38692 0.17706 0.2144 0.0
C2021 C 0.38805 0.16662 0.19752 0.0
C2022 C 0.38209 0.14688 0.19422 0.0
C2023 C 0.37497 0.13754 0.20778 0.0
H2024 H 0.39361 0.17383 0.18703 0.0
H2025 H 0.33581 0.07993 0.32075 0.0
H2026 H 0.35793 0.17617 0.50568 0.0
H2027 H 0.38466 0.16726 0.51368 0.0
H2028 H 0.35351 0.1148 0.52545 0.0
H2029 H 0.327 0.12451 0.51894 0.0
H2030 H 0.3793 0.12632 0.54967 0.0
H2031 H 0.37728 0.12455 0.48257 0.0
H2032 H 0.37868 0.1391 0.45499 0.0
H2033 H 0.42766 0.17912 0.47969 0.0
H2034 H 0.42641 0.16498 0.50745 0.0
H2035 H 0.43575 0.06722 0.54288 0.0
H2036 H 0.41347 0.08415 0.54199 0.0
H2037 H 0.45135 0.13269 0.5308 0.0
H2038 H 0.47349 0.11546 0.53105 0.0
H2039 H 0.42506 0.12796 0.50912 0.0
H2040 H 0.43128 0.13136 0.57286 0.0
H2041 H 0.43291 0.12216 0.60316 0.0
H2042 H 0.38035 0.08571 0.58929 0.0
H2043 H 0.37849 0.09444 0.5588 0.0
C2044 C 0.3568 0.16263 0.50976 0.0
C2045 C 0.34028 0.15092 0.5114 0.0
C2046 C 0.37216 0.15744 0.51426 0.0
C2047 C 0.37135 0.14002 0.51979 0.0
C2048 C 0.35473 0.12829 0.52123 0.0
C2049 C 0.33948 0.13378 0.51735 0.0
C2050 C 0.38753 0.13394 0.52456 0.0
C2051 C 0.38914 0.1264 0.54059 0.0
C2052 C 0.40127 0.13522 0.51363 0.0
C2053 C 0.40162 0.14388 0.49711 0.0
C2054 C 0.38824 0.13656 0.48215 0.0
C2055 C 0.38903 0.14472 0.46649 0.0
C2056 C 0.40322 0.16006 0.46562 0.0
C2057 C 0.41665 0.16729 0.48039 0.0
C2058 C 0.4159 0.15923 0.49608 0.0
C2059 C 0.43944 0.08162 0.54055 0.0
C2060 C 0.45644 0.0899 0.53691 0.0
C2061 C 0.42664 0.0914 0.54014 0.0
C2062 C 0.43057 0.10989 0.53645 0.0
C2063 C 0.44779 0.11844 0.53355 0.0
C2064 C 0.4605 0.10855 0.53367 0.0
C2065 C 0.4164 0.11949 0.53377 0.0
C2066 C 0.41524 0.12781 0.51823 0.0
C2067 C 0.40343 0.1195 0.5455 0.0
C2068 C 0.40482 0.11342 0.56345 0.0
C2069 C 0.42016 0.12117 0.57616 0.0
C2070 C 0.4211 0.11609 0.5934 0.0
C2071 C 0.40676 0.10333 0.59813 0.0
C2072 C 0.39146 0.09557 0.5856 0.0
C2073 C 0.39046 0.10057 0.56833 0.0
H2074 H 0.40748 0.09949 0.61152 0.0
H2075 H 0.40382 0.16632 0.45346 0.0
H2076 H 0.67782 0.57927 0.28064 0.0
H2077 H 0.69214 0.61187 0.27814 0.0
H2078 H 0.73887 0.59629 0.26727 0.0
H2079 H 0.72435 0.56327 0.26944 0.0
H2080 H 0.7482 0.6299 0.29063 0.0
H2081 H 0.70925 0.60743 0.23377 0.0
H2082 H 0.6809 0.59386 0.21381 0.0
H2083 H 0.66201 0.63906 0.2392 0.0
H2084 H 0.69015 0.65276 0.25954 0.0
H2085 H 0.79695 0.71427 0.26689 0.0
H2086 H 0.77971 0.68246 0.26754 0.0
H2087 H 0.73356 0.70166 0.27036 0.0
H2088 H 0.75114 0.73421 0.26917 0.0
H2089 H 0.72227 0.66661 0.25167 0.0
H2090 H 0.75781 0.68824 0.30916 0.0
H2091 H 0.78408 0.70193 0.33227 0.0
H2092 H 0.80681 0.65884 0.30945 0.0
H2093 H 0.78075 0.64503 0.28605 0.0
C2094 C 0.69121 0.58256 0.27779 0.0
C2095 C 0.69972 0.56799 0.27553 0.0
C2096 C 0.69946 0.60155 0.27615 0.0
C2097 C 0.71687 0.60731 0.27231 0.0
C2098 C 0.72552 0.59283 0.27021 0.0
C2099 C 0.71711 0.57366 0.27152 0.0
C2100 C 0.72613 0.62823 0.27114 0.0
C2101 C 0.74253 0.63765 0.28177 0.0
C2102 C 0.71881 0.63941 0.2604 0.0
C2103 C 0.70179 0.63103 0.24832 0.0
C2104 C 0.699 0.61438 0.23524 0.0
C2105 C 0.68297 0.60668 0.22382 0.0
C2106 C 0.66965 0.61557 0.22526 0.0
C2107 C 0.67233 0.63218 0.23812 0.0
C2108 C 0.68832 0.63992 0.24959 0.0
C2109 C 0.78313 0.71207 0.26769 0.0
C2110 C 0.7759 0.7276 0.2681 0.0
C2111 C 0.77308 0.69343 0.26824 0.0
C2112 C 0.75498 0.68881 0.26956 0.0
C2113 C 0.74741 0.70418 0.26953 0.0
C2114 C 0.7576 0.72311 0.26888 0.0
C2115 C 0.7446 0.6682 0.27099 0.0
C2116 C 0.72799 0.65885 0.26046 0.0
C2117 C 0.75146 0.6571 0.28219 0.0
C2118 C 0.76742 0.66574 0.29574 0.0
C2119 C 0.7685 0.68182 0.30895 0.0
C2120 C 0.78333 0.68957 0.32213 0.0
C2121 C 0.79712 0.68129 0.3223 0.0
C2122 C 0.79613 0.66526 0.30927 0.0
C2123 C 0.78133 0.65746 0.29605 0.0
H2124 H 0.80856 0.68726 0.33256 0.0
H2125 H 0.65727 0.60961 0.21638 0.0
H2126 H 0.92626 0.48184 0.80446 0.0
H2127 H 0.90961 0.44978 0.78898 0.0
H2128 H 0.87181 0.47246 0.76191 0.0
H2129 H 0.88786 0.50426 0.77813 0.0
H2130 H 0.85968 0.45239 0.78716 0.0
H2131 H 0.88727 0.43685 0.73124 0.0
H2132 H 0.91089 0.43247 0.71332 0.0
H2133 H 0.93092 0.40619 0.7544 0.0
H2134 H 0.90699 0.4096 0.77212 0.0
H2135 H 0.80443 0.35636 0.75394 0.0
H2136 H 0.82201 0.38885 0.75401 0.0
H2137 H 0.86201 0.3824 0.79359 0.0
H2138 H 0.8442 0.35043 0.7942 0.0
H2139 H 0.87095 0.39349 0.75676 0.0
H2140 H 0.8468 0.40722 0.81208 0.0
H2141 H 0.82273 0.40581 0.83064 0.0
H2142 H 0.79924 0.43556 0.79538 0.0
H2143 H 0.82301 0.43669 0.7763 0.0
C2144 C 0.91437 0.4798 0.79519 0.0
C2145 C 0.90759 0.49499 0.79317 0.0
C2146 C 0.90525 0.4617 0.78591 0.0
C2147 C 0.88962 0.45895 0.77426 0.0
C2148 C 0.88393 0.47448 0.77081 0.0
C2149 C 0.89272 0.49242 0.78049 0.0
C2150 C 0.87674 0.44054 0.77102 0.0
C2151 C 0.86187 0.43959 0.77991 0.0
C2152 C 0.88019 0.42386 0.76259 0.0
C2153 C 0.89561 0.42384 0.75313 0.0
C2154 C 0.89691 0.43045 0.73657 0.0
C2155 C 0.91023 0.42797 0.72638 0.0
C2156 C 0.92255 0.41937 0.73286 0.0
C2157 C 0.92147 0.413 0.74946 0.0
C2158 C 0.90797 0.41506 0.75951 0.0
C2159 C 0.81677 0.36226 0.76296 0.0
C2160 C 0.82316 0.3515 0.77419 0.0
C2161 C 0.82672 0.38048 0.76288 0.0
C2162 C 0.84312 0.38746 0.77366 0.0
C2163 C 0.84928 0.37687 0.78523 0.0
C2164 C 0.83913 0.35892 0.78573 0.0
C2165 C 0.85418 0.40577 0.7726 0.0
C2166 C 0.8686 0.40652 0.76326 0.0
C2167 C 0.85072 0.42227 0.78115 0.0
C2168 C 0.83646 0.42171 0.79257 0.0
C2169 C 0.83635 0.41319 0.80811 0.0
C2170 C 0.8228 0.41249 0.81876 0.0
C2171 C 0.80941 0.4205 0.81414 0.0
C2172 C 0.80958 0.42928 0.79889 0.0
C2173 C 0.82307 0.42993 0.78814 0.0
H2174 H 0.79894 0.41998 0.82242 0.0
H2175 H 0.93284 0.41749 0.72494 0.0
H2176 H 0.09927 0.8666 0.07318 0.0
H2177 H 0.09406 0.89399 0.06169 0.0
H2178 H 0.04803 0.88865 0.08854 0.0
H2179 H 0.05317 0.86122 0.10008 0.0
H2180 H 0.04142 0.89499 0.05443 0.0
H2181 H 0.08747 0.92375 0.10543 0.0
H2182 H 0.11656 0.93008 0.12345 0.0
H2183 H 0.14125 0.94786 0.078 0.0
H2184 H 0.11231 0.94137 0.05962 0.0
H2185 H 0.02667 0.98267 0.04046 0.0
H2186 H 0.03097 0.95499 0.05194 0.0
H2187 H 0.08326 0.96748 0.0373 0.0
H2188 H 0.07942 0.99601 0.0274 0.0
H2189 H 0.0864 0.95704 0.06576 0.0
H2190 H 0.04238 0.92745 0.0136 0.0
H2191 H 0.0141 0.92038 0.99376 0.0
H2192 H 0.98674 0.90304 0.03778 0.0
H2193 H 0.01484 0.91021 0.05794 0.0
C2194 C 0.08803 0.87123 0.0767 0.0
C2195 C 0.07669 0.8616 0.08767 0.0
C2196 C 0.08511 0.88704 0.07016 0.0
C2197 C 0.07074 0.89371 0.07436 0.0
C2198 C 0.05926 0.88396 0.08511 0.0
C2199 C 0.06225 0.86824 0.09177 0.0
C2200 C 0.06747 0.91057 0.06733 0.0
C2201 C 0.05121 0.90863 0.05706 0.0
C2202 C 0.08034 0.92832 0.07015 0.0
C2203 C 0.09772 0.93184 0.08109 0.0
C2204 C 0.0991 0.9288 0.09922 0.0
C2205 C 0.11557 0.93247 0.10951 0.0
C2206 C 0.13074 0.9393 0.10186 0.0
C2207 C 0.12949 0.94251 0.0839 0.0
C2208 C 0.11306 0.93884 0.07354 0.0
C2209 C 0.03902 0.97938 0.03954 0.0
C2210 C 0.05265 0.99153 0.03287 0.0
C2211 C 0.04147 0.96335 0.046 0.0
C2212 C 0.05737 0.95851 0.04524 0.0
C2213 C 0.07084 0.9706 0.03822 0.0
C2214 C 0.06861 0.98695 0.03238 0.0
C2215 C 0.06039 0.94152 0.0524 0.0
C2216 C 0.07659 0.94342 0.06285 0.0
C2217 C 0.04761 0.9236 0.04933 0.0
C2218 C 0.03071 0.91956 0.03732 0.0
C2219 C 0.03033 0.92228 0.01908 0.0
C2220 C 0.01433 0.91822 0.00778 0.0
C2221 C 0.99863 0.91132 0.01452 0.0
C2222 C 0.9989 0.90842 0.03258 0.0
C2223 C 0.01486 0.91247 0.04395 0.0
H2224 H 0.98627 0.90816 0.00574 0.0
H2225 H 0.14347 0.94216 0.10986 0.0
H2226 H 0.98211 0.27193 0.85572 0.0
H2227 H 0.95611 0.27629 0.83867 0.0
H2228 H 0.93111 0.27679 0.88736 0.0
H2229 H 0.95692 0.27235 0.90437 0.0
H2230 H 0.90722 0.2572 0.85935 0.0
H2231 H 0.94839 0.31857 0.87063 0.0
H2232 H 0.97644 0.34234 0.87068 0.0
H2233 H 0.97106 0.32774 0.81206 0.0
H2234 H 0.94303 0.30376 0.81168 0.0
H2235 H 0.83655 0.28824 0.81607 0.0
H2236 H 0.86096 0.2859 0.83771 0.0
H2237 H 0.89358 0.28817 0.79478 0.0
H2238 H 0.86995 0.29104 0.77381 0.0
H2239 H 0.91304 0.30817 0.82299 0.0
H2240 H 0.87195 0.24555 0.81212 0.0
H2241 H 0.84346 0.22271 0.81257 0.0
H2242 H 0.84837 0.24023 0.87086 0.0
H2243 H 0.8768 0.26336 0.87071 0.0
C2244 C 0.97107 0.27284 0.86281 0.0
C2245 C 0.97184 0.2717 0.88155 0.0
C2246 C 0.95613 0.2755 0.85303 0.0
C2247 C 0.9414 0.2771 0.8616 0.0
C2248 C 0.94207 0.27562 0.88022 0.0
C2249 C 0.95701 0.2731 0.89001 0.0
C2250 C 0.92545 0.2804 0.85131 0.0
C2251 C 0.90855 0.26851 0.85157 0.0
C2252 C 0.92677 0.29505 0.84097 0.0
C2253 C 0.9437 0.30927 0.84114 0.0
C2254 C 0.95326 0.32033 0.85776 0.0
C2255 C 0.96914 0.33387 0.85785 0.0
C2256 C 0.97555 0.33652 0.84139 0.0
C2257 C 0.96609 0.32566 0.8248 0.0
C2258 C 0.95019 0.31212 0.82464 0.0
C2259 C 0.84897 0.2884 0.81135 0.0
C2260 C 0.85107 0.28983 0.79303 0.0
C2261 C 0.86299 0.28688 0.82372 0.0
C2262 C 0.87942 0.28664 0.81806 0.0
C2263 C 0.88135 0.28836 0.79985 0.0
C2264 C 0.86758 0.28992 0.7877 0.0
C2265 C 0.8948 0.28461 0.83049 0.0
C2266 C 0.91165 0.29683 0.83073 0.0
C2267 C 0.89338 0.27028 0.84127 0.0
C2268 C 0.8764 0.2563 0.84138 0.0
C2269 C 0.86689 0.2446 0.82501 0.0
C2270 C 0.85077 0.2316 0.82522 0.0
C2271 C 0.84409 0.23005 0.84173 0.0
C2272 C 0.85355 0.24147 0.85808 0.0
C2273 C 0.86967 0.25452 0.85795 0.0
H2274 H 0.8316 0.21998 0.84186 0.0
H2275 H 0.98783 0.34702 0.84148 0.0
H2276 H 0.5694 0.24154 0.61825 0.0
H2277 H 0.56759 0.20922 0.6049 0.0
H2278 H 0.57757 0.22582 0.55326 0.0
H2279 H 0.57971 0.25889 0.56673 0.0
H2280 H 0.54874 0.19009 0.55249 0.0
H2281 H 0.61031 0.22009 0.57811 0.0
H2282 H 0.63419 0.23798 0.60291 0.0
H2283 H 0.6165 0.19702 0.63659 0.0
H2284 H 0.5924 0.17901 0.61208 0.0
H2285 H 0.56155 0.10279 0.51422 0.0
H2286 H 0.56458 0.1366 0.52392 0.0
H2287 H 0.57416 0.13108 0.58047 0.0
H2288 H 0.57225 0.09758 0.57055 0.0
H2289 H 0.59363 0.16218 0.57775 0.0
H2290 H 0.53336 0.13325 0.55874 0.0
H2291 H 0.50655 0.1135 0.5387 0.0
H2292 H 0.51643 0.14956 0.499 0.0
H2293 H 0.54349 0.16944 0.51875 0.0
C2294 C 0.57107 0.2385 0.60397 0.0
C2295 C 0.57477 0.253 0.59359 0.0
C2296 C 0.57008 0.21991 0.5964 0.0
C2297 C 0.57264 0.21516 0.57819 0.0
C2298 C 0.57564 0.22928 0.56742 0.0
C2299 C 0.57685 0.24814 0.57511 0.0
C2300 C 0.57261 0.19545 0.57087 0.0
C2301 C 0.55874 0.18403 0.55765 0.0
C2302 C 0.58507 0.1873 0.57851 0.0
C2303 C 0.59949 0.19827 0.59328 0.0
C2304 C 0.61143 0.21499 0.59085 0.0
C2305 C 0.62502 0.22513 0.60485 0.0
C2306 C 0.62685 0.21866 0.62132 0.0
C2307 C 0.61508 0.20202 0.62383 0.0
C2308 C 0.60147 0.19184 0.60988 0.0
C2309 C 0.56468 0.10901 0.52867 0.0
C2310 C 0.56696 0.09788 0.54168 0.0
C2311 C 0.56616 0.12823 0.53425 0.0
C2312 C 0.56926 0.13643 0.55298 0.0
C2313 C 0.57182 0.12521 0.56594 0.0
C2314 C 0.57078 0.10611 0.56032 0.0
C2315 C 0.56982 0.15663 0.5591 0.0
C2316 C 0.58369 0.16815 0.57227 0.0
C2317 C 0.55686 0.16459 0.55208 0.0
C2318 C 0.54058 0.15272 0.54014 0.0
C2319 C 0.5299 0.13689 0.54567 0.0
C2320 C 0.51464 0.12567 0.53436 0.0
C2321 C 0.50981 0.13021 0.51754 0.0
C2322 C 0.52021 0.14603 0.51202 0.0
C2323 C 0.53551 0.1573 0.52327 0.0
H2324 H 0.49799 0.12152 0.5088 0.0
H2325 H 0.6374 0.22651 0.63212 0.0
H2326 H 0.57913 0.79828 0.40573 0.0
H2327 H 0.60682 0.80358 0.39298 0.0
H2328 H 0.58046 0.76467 0.34335 0.0
H2329 H 0.55246 0.75982 0.35588 0.0
H2330 H 0.61294 0.75848 0.36216 0.0
H2331 H 0.59165 0.80951 0.34261 0.0
H2332 H 0.58229 0.83858 0.34924 0.0
H2333 H 0.63161 0.86708 0.3828 0.0
H2334 H 0.64113 0.83807 0.37666 0.0
H2335 H 0.67431 0.76291 0.30185 0.0
H2336 H 0.64904 0.76279 0.31764 0.0
H2337 H 0.67659 0.81738 0.35052 0.0
H2338 H 0.70191 0.81782 0.33412 0.0
H2339 H 0.64543 0.81796 0.34441 0.0
H2340 H 0.66857 0.77446 0.3682 0.0
H2341 H 0.68144 0.74805 0.37007 0.0
H2342 H 0.63419 0.70874 0.34008 0.0
H2343 H 0.62113 0.73498 0.33776 0.0
C2344 C 0.57919 0.79097 0.39201 0.0
C2345 C 0.56359 0.77861 0.38178 0.0
C2346 C 0.59504 0.79407 0.38473 0.0
C2347 C 0.59577 0.78459 0.36717 0.0
C2348 C 0.58021 0.77224 0.3569 0.0
C2349 C 0.56421 0.7695 0.36401 0.0
C2350 C 0.61287 0.78681 0.35988 0.0
C2351 C 0.61988 0.77135 0.35792 0.0
C2352 C 0.62274 0.80412 0.35584 0.0
C2353 C 0.61702 0.82156 0.35931 0.0
C2354 C 0.60043 0.82192 0.35154 0.0
C2355 C 0.59511 0.8384 0.35519 0.0
C2356 C 0.60633 0.85465 0.36648 0.0
C2357 C 0.62292 0.85448 0.37409 0.0
C2358 C 0.62828 0.83802 0.37052 0.0
C2359 C 0.67514 0.77483 0.31258 0.0
C2360 C 0.69034 0.79025 0.31682 0.0
C2361 C 0.6606 0.77474 0.32171 0.0
C2362 C 0.66083 0.78984 0.33573 0.0
C2363 C 0.67592 0.80545 0.33986 0.0
C2364 C 0.69046 0.80568 0.33048 0.0
C2365 C 0.64515 0.78917 0.34567 0.0
C2366 C 0.63852 0.80497 0.34844 0.0
C2367 C 0.63612 0.77254 0.35159 0.0
C2368 C 0.64395 0.7567 0.35263 0.0
C2369 C 0.66099 0.7602 0.36183 0.0
C2370 C 0.66831 0.74526 0.36301 0.0
C2371 C 0.65866 0.72673 0.35516 0.0
C2372 C 0.64166 0.72311 0.34613 0.0
C2373 C 0.63429 0.73801 0.34488 0.0
H2374 H 0.66433 0.71517 0.35611 0.0
H2375 H 0.60218 0.86739 0.36928 0.0
H2376 H 0.10971 0.28699 0.43774 0.0
H2377 H 0.09938 0.2573 0.44913 0.0
H2378 H 0.05278 0.24098 0.40932 0.0
H2379 H 0.06335 0.27014 0.39745 0.0
H2380 H 0.04876 0.2379 0.44873 0.0
H2381 H 0.07493 0.21798 0.39761 0.0
H2382 H 0.09792 0.221 0.37755 0.0
H2383 H 0.13484 0.2177 0.4217 0.0
H2384 H 0.11209 0.21501 0.44215 0.0
H2385 H 0.02801 0.14521 0.47398 0.0
H2386 H 0.03061 0.17075 0.45631 0.0
H2387 H 0.08607 0.19084 0.47572 0.0
H2388 H 0.0836 0.16538 0.49293 0.0
H2389 H 0.08093 0.18924 0.44073 0.0
H2390 H 0.05281 0.2115 0.49246 0.0
H2391 H 0.02914 0.2118 0.51139 0.0
H2392 H 0.99403 0.21109 0.46392 0.0
H2393 H 0.01741 0.21051 0.44469 0.0
C2394 C 0.09734 0.27697 0.43146 0.0
C2395 C 0.08739 0.28051 0.41666 0.0
C2396 C 0.09145 0.26016 0.43792 0.0
C2397 C 0.07538 0.24713 0.42995 0.0
C2398 C 0.06522 0.25094 0.41552 0.0
C2399 C 0.07132 0.26743 0.40873 0.0
C2400 C 0.06941 0.22931 0.43652 0.0
C2401 C 0.05554 0.22703 0.44683 0.0
C2402 C 0.07821 0.21528 0.43369 0.0
C2403 C 0.09187 0.21648 0.42144 0.0
C2404 C 0.088 0.21806 0.40309 0.0
C2405 C 0.10097 0.21969 0.39164 0.0
C2406 C 0.11785 0.21959 0.39836 0.0
C2407 C 0.12176 0.2178 0.41653 0.0
C2408 C 0.10883 0.2162 0.42805 0.0
C2409 C 0.04072 0.15514 0.47444 0.0
C2410 C 0.05566 0.15321 0.48464 0.0
C2411 C 0.04217 0.16974 0.46442 0.0
C2412 C 0.05853 0.18273 0.46475 0.0
C2413 C 0.07334 0.18088 0.47512 0.0
C2414 C 0.07194 0.16627 0.4849 0.0
C2415 C 0.06076 0.19809 0.45403 0.0
C2416 C 0.0739 0.19988 0.4426 0.0
C2417 C 0.05103 0.21152 0.45566 0.0
C2418 C 0.03677 0.21062 0.4671 0.0
C2419 C 0.03996 0.21107 0.48602 0.0
C2420 C 0.02661 0.21139 0.49681 0.0
C2421 C 0.01007 0.21138 0.48885 0.0
C2422 C 0.00682 0.21101 0.47007 0.0
C2423 C 0.0201 0.21065 0.45922 0.0
H2424 H 0.9998 0.21175 0.49726 0.0
H2425 H 0.12788 0.22087 0.38948 0.0
H2426 H 0.54208 0.24327 0.19637 0.0
H2427 H 0.57154 0.24263 0.20754 0.0
H2428 H 0.59297 0.28035 0.17173 0.0
H2429 H 0.56335 0.28021 0.15977 0.0
H2430 H 0.60768 0.25192 0.17095 0.0
H2431 H 0.59473 0.29709 0.21784 0.0
H2432 H 0.57496 0.30607 0.23881 0.0
H2433 H 0.57767 0.26032 0.26649 0.0
H2434 H 0.59732 0.25095 0.24554 0.0
H2435 H 0.69557 0.27927 0.21367 0.0
H2436 H 0.66628 0.281 0.20288 0.0
H2437 H 0.64378 0.23974 0.23496 0.0
H2438 H 0.67294 0.23767 0.24555 0.0
H2439 H 0.62972 0.27002 0.23755 0.0
H2440 H 0.64343 0.22546 0.19173 0.0
H2441 H 0.66088 0.21414 0.16929 0.0
H2442 H 0.6555 0.25694 0.13856 0.0
H2443 H 0.63832 0.26878 0.16105 0.0
C2444 C 0.55313 0.2517 0.19116 0.0
C2445 C 0.55066 0.26209 0.17753 0.0
C2446 C 0.56987 0.25123 0.19744 0.0
C2447 C 0.58432 0.2617 0.19062 0.0
C2448 C 0.58189 0.27224 0.17712 0.0
C2449 C 0.56509 0.27233 0.1705 0.0
C2450 C 0.60204 0.26184 0.19779 0.0
C2451 C 0.61267 0.25618 0.18546 0.0
C2452 C 0.60818 0.2669 0.21674 0.0
C2453 C 0.59746 0.27334 0.23016 0.0
C2454 C 0.59116 0.28901 0.22847 0.0
C2455 C 0.57994 0.29413 0.2403 0.0
C2456 C 0.57506 0.28377 0.25397 0.0
C2457 C 0.58149 0.26835 0.25592 0.0
C2458 C 0.59271 0.26316 0.24411 0.0
C2459 C 0.68435 0.27061 0.21841 0.0
C2460 C 0.6864 0.25824 0.23031 0.0
C2461 C 0.66773 0.27164 0.21229 0.0
C2462 C 0.65306 0.26031 0.21802 0.0
C2463 C 0.65508 0.24854 0.23046 0.0
C2464 C 0.67168 0.24745 0.23654 0.0
C2465 C 0.63548 0.26035 0.21069 0.0
C2466 C 0.62484 0.26596 0.22301 0.0
C2467 C 0.62936 0.25521 0.1917 0.0
C2468 C 0.63979 0.24818 0.17822 0.0
C2469 C 0.64615 0.23261 0.18032 0.0
C2470 C 0.65596 0.22607 0.16756 0.0
C2471 C 0.65936 0.23486 0.15254 0.0
C2472 C 0.65291 0.25018 0.15023 0.0
C2473 C 0.64314 0.25682 0.16298 0.0
H2474 H 0.66693 0.22976 0.14267 0.0
H2475 H 0.56628 0.28769 0.26305 0.0
H2476 H 0.57138 0.8719 0.89787 0.0
H2477 H 0.5627 0.89815 0.91424 0.0
H2478 H 0.60819 0.9104 0.95513 0.0
H2479 H 0.61599 0.88295 0.93948 0.0
H2480 H 0.58206 0.90973 0.97103 0.0
H2481 H 0.60111 0.93911 0.91964 0.0
H2482 H 0.60089 0.9411 0.88694 0.0
H2483 H 0.54602 0.93718 0.88168 0.0
H2484 H 0.54589 0.93503 0.91431 0.0
H2485 H 0.58374 0.99671 0.0197 0.0
H2486 H 0.59017 0.97288 0.99731 0.0
H2487 H 0.53824 0.96026 0.96754 0.0
H2488 H 0.53182 0.98465 0.98988 0.0
H2489 H 0.56403 0.9601 0.94474 0.0
H2490 H 0.54512 0.93196 0.99553 0.0
H2491 H 0.54474 0.93028 0.02823 0.0
H2492 H 0.59902 0.93152 0.03408 0.0
H2493 H 0.59977 0.93346 1.00146 0.0
C2494 C 0.57963 0.88042 0.91023 0.0
C2495 C 0.59437 0.87562 0.9175 0.0
C2496 C 0.57475 0.89552 0.91948 0.0
C2497 C 0.58496 0.90652 0.93573 0.0
C2498 C 0.60011 0.9021 0.94259 0.0
C2499 C 0.60461 0.88653 0.9337 0.0
C2500 C 0.57903 0.92141 0.94663 0.0
C2501 C 0.57846 0.92092 0.96526 0.0
C2502 C 0.57333 0.93542 0.93895 0.0
C2503 C 0.57348 0.93678 0.91937 0.0
C2504 C 0.58899 0.93858 0.91148 0.0
C2505 C 0.58892 0.93976 0.89297 0.0
C2506 C 0.57345 0.93925 0.88224 0.0
C2507 C 0.558 0.93759 0.89 0.0
C2508 C 0.558 0.93642 0.90851 0.0
C2509 C 0.5737 0.9889 0.00837 0.0
C2510 C 0.55719 0.99216 0.00663 0.0
C2511 C 0.5774 0.97537 0.99558 0.0
C2512 C 0.56455 0.96464 0.98106 0.0
C2513 C 0.54825 0.96838 0.97879 0.0
C2514 C 0.54457 0.98214 0.99156 0.0
C2515 C 0.56801 0.94877 0.96909 0.0
C2516 C 0.56779 0.94891 0.95034 0.0
C2517 C 0.57298 0.93435 0.97656 0.0
C2518 C 0.57251 0.93294 0.9961 0.0
C2519 C 0.55699 0.93196 0.00382 0.0
C2520 C 0.55671 0.93096 0.02234 0.0
C2521 C 0.57185 0.93081 0.03323 0.0
C2522 C 0.5873 0.93163 0.02563 0.0
C2523 C 0.58765 0.93265 0.00713 0.0
H2524 H 0.57161 0.93004 0.04756 0.0
H2525 H 0.57343 0.94016 0.86791 0.0
H2526 H 0.96252 0.75284 0.713 0.0
H2527 H 0.93596 0.75576 0.72526 0.0
H2528 H 0.91423 0.76285 0.67248 0.0
H2529 H 0.94114 0.76075 0.66035 0.0
H2530 H 0.91222 0.78945 0.69775 0.0
H2531 H 0.89779 0.7221 0.6907 0.0
H2532 H 0.90108 0.6907 0.69383 0.0
H2533 H 0.90699 0.70633 0.7524 0.0
H2534 H 0.90404 0.73793 0.74965 0.0
H2535 H 0.82916 0.78754 0.72344 0.0
H2536 H 0.85382 0.7814 0.70903 0.0
H2537 H 0.87867 0.77669 0.76142 0.0
H2538 H 0.8534 0.78201 0.77566 0.0
H2539 H 0.87788 0.74787 0.73513 0.0
H2540 H 0.89379 0.81626 0.74132 0.0
H2541 H 0.88835 0.84658 0.73726 0.0
H2542 H 0.87785 0.82742 0.67895 0.0
H2543 H 0.88308 0.79694 0.68269 0.0
C2544 C 0.95202 0.75492 0.70402 0.0
C2545 C 0.95383 0.75683 0.68586 0.0
C2546 C 0.93681 0.75633 0.71095 0.0
C2547 C 0.92312 0.75921 0.69966 0.0
C2548 C 0.92472 0.76056 0.68134 0.0
C2549 C 0.94007 0.75952 0.67449 0.0
C2550 C 0.90807 0.76309 0.70756 0.0
C2551 C 0.90451 0.78017 0.70565 0.0
C2552 C 0.89841 0.7512 0.71826 0.0
C2553 C 0.90088 0.73246 0.71995 0.0
C2554 C 0.90003 0.71893 0.70425 0.0
C2555 C 0.90178 0.70107 0.70596 0.0
C2556 C 0.90428 0.69654 0.7233 0.0
C2557 C 0.90508 0.70987 0.73898 0.0
C2558 C 0.90338 0.72775 0.73735 0.0
C2559 C 0.84005 0.78537 0.73179 0.0
C2560 C 0.8398 0.78519 0.75045 0.0
C2561 C 0.85407 0.78201 0.72366 0.0
C2562 C 0.86806 0.77892 0.7343 0.0
C2563 C 0.86792 0.77916 0.75312 0.0
C2564 C 0.8537 0.78222 0.76121 0.0
C2565 C 0.88232 0.77426 0.72549 0.0
C2566 C 0.88567 0.75706 0.7272 0.0
C2567 C 0.89172 0.78594 0.71451 0.0
C2568 C 0.88872 0.80432 0.71229 0.0
C2569 C 0.89024 0.8185 0.72765 0.0
C2570 C 0.88721 0.83571 0.7254 0.0
C2571 C 0.88273 0.83891 0.70786 0.0
C2572 C 0.88132 0.82493 0.69252 0.0
C2573 C 0.88435 0.80771 0.69469 0.0
H2574 H 0.88038 0.85224 0.70616 0.0
H2575 H 0.90557 0.68268 0.7246 0.0
H2576 H 0.15046 0.02487 0.84438 0.0
H2577 H 0.13876 0.02757 0.87342 0.0
H2578 H 0.0887 0.02546 0.8447 0.0
H2579 H 0.10127 0.02505 0.81597 0.0
H2580 H 0.08596 0.04215 0.87237 0.0
H2581 H 0.10636 0.98725 0.87257 0.0
H2582 H 0.12704 0.96777 0.87141 0.0
H2583 H 0.16059 0.00626 0.91753 0.0
H2584 H 0.1402 0.02607 0.91882 0.0
H2585 H 0.03933 0.02157 0.94781 0.0
H2586 H 0.05332 0.01994 0.92031 0.0
H2587 H 0.10388 0.04333 0.95311 0.0
H2588 H 0.08961 0.04491 0.98125 0.0
H2589 H 0.10659 0.01631 0.9247 0.0
H2590 H 0.08195 0.06914 0.92392 0.0
H2591 H 0.05816 0.0846 0.92459 0.0
H2592 H 0.0285 0.04364 0.87788 0.0
H2593 H 0.05204 0.02784 0.87706 0.0
C2594 C 0.13691 0.02495 0.84413 0.0
C2595 C 0.12707 0.02467 0.82722 0.0
C2596 C 0.12989 0.02618 0.86113 0.0
C2597 C 0.11217 0.02614 0.86235 0.0
C2598 C 0.10232 0.02565 0.84523 0.0
C2599 C 0.10959 0.02526 0.82835 0.0
C2600 C 0.10413 0.02723 0.88096 0.0
C2601 C 0.09054 0.03605 0.88344 0.0
C2602 C 0.10952 0.01989 0.89658 0.0
C2603 C 0.1219 0.00824 0.89563 0.0
C2604 C 0.11822 0.99161 0.88236 0.0
C2605 C 0.12988 0.98051 0.8817 0.0
C2606 C 0.14515 0.98581 0.89434 0.0
C2607 C 0.14878 1.0022 0.90771 0.0
C2608 C 0.13719 0.01337 0.90841 0.0
C2609 C 0.05348 0.02652 0.9495 0.0
C2610 C 0.06301 0.03351 0.9674 0.0
C2611 C 0.06163 0.02567 0.93334 0.0
C2612 C 0.08 0.0318 0.93379 0.0
C2613 C 0.08973 0.03852 0.95171 0.0
C2614 C 0.08148 0.03952 0.96808 0.0
C2615 C 0.08859 0.03101 0.91571 0.0
C2616 C 0.10218 0.02228 0.91342 0.0
C2617 C 0.08278 0.03779 0.90002 0.0
C2618 C 0.06869 0.04728 0.9005 0.0
C2619 C 0.07031 0.06339 0.91386 0.0
C2620 C 0.05688 0.07221 0.91425 0.0
C2621 C 0.04182 0.06509 0.9013 0.0
C2622 C 0.04017 0.04914 0.88791 0.0
C2623 C 0.05355 0.04027 0.88745 0.0
H2624 H 0.03145 0.07195 0.90162 0.0
H2625 H 0.15415 0.97719 0.89382 0.0
H2626 H 0.78081 0.38912 0.55951 0.0
H2627 H 0.79558 0.38472 0.58829 0.0
H2628 H 0.84551 0.40055 0.56857 0.0
H2629 H 0.83081 0.40478 0.53992 0.0
H2630 H 0.83726 0.36591 0.58199 0.0
H2631 H 0.84298 0.4317 0.60226 0.0
H2632 H 0.83318 0.46066 0.60617 0.0
H2633 H 0.7922 0.43452 0.63503 0.0
H2634 H 0.80177 0.40542 0.63126 0.0
H2635 H 0.85968 0.34524 0.67046 0.0
H2636 H 0.86352 0.36512 0.64704 0.0
H2637 H 0.80875 0.36294 0.64299 0.0
H2638 H 0.80468 0.34275 0.66572 0.0
H2639 H 0.83144 0.39895 0.64319 0.0
H2640 H 0.81976 0.33182 0.6158 0.0
H2641 H 0.82613 0.30097 0.60961 0.0
H2642 H 0.87472 0.32731 0.59196 0.0
H2643 H 0.86874 0.35837 0.59836 0.0
C2644 C 0.79485 0.39131 0.56137 0.0
C2645 C 0.80478 0.3968 0.54774 0.0
C2646 C 0.80327 0.38917 0.57774 0.0
C2647 C 0.82157 0.39271 0.5804 0.0
C2648 C 0.83141 0.39797 0.56663 0.0
C2649 C 0.82303 0.4001 0.55035 0.0
C2650 C 0.83013 0.38924 0.59703 0.0
C2651 C 0.83662 0.37347 0.59546 0.0
C2652 C 0.82906 0.39916 0.61434 0.0
C2653 C 0.82307 0.41644 0.61645 0.0
C2654 C 0.83182 0.43212 0.60935 0.0
C2655 C 0.82634 0.44857 0.61158 0.0
C2656 C 0.81207 0.44943 0.62084 0.0
C2657 C 0.80327 0.43385 0.6279 0.0
C2658 C 0.80875 0.41741 0.62578 0.0
C2659 C 0.84855 0.34918 0.66461 0.0
C2660 C 0.83188 0.3425 0.66972 0.0
C2661 C 0.8508 0.36056 0.65145 0.0
C2662 C 0.83643 0.36538 0.64357 0.0
C2663 C 0.82 0.35947 0.64926 0.0
C2664 C 0.8177 0.348 0.66222 0.0
C2665 C 0.83764 0.37501 0.62807 0.0
C2666 C 0.83303 0.39198 0.62982 0.0
C2667 C 0.84006 0.36592 0.61085 0.0
C2668 C 0.84403 0.34745 0.608 0.0
C2669 C 0.83196 0.33108 0.61095 0.0
C2670 C 0.83545 0.31355 0.60731 0.0
C2671 C 0.85088 0.3122 0.60052 0.0
C2672 C 0.86284 0.32839 0.59735 0.0
C2673 C 0.85943 0.34596 0.60102 0.0
H2674 H 0.85352 0.2986 0.59762 0.0
H2675 H 0.80785 0.46217 0.62255 0.0
H2676 H 0.48837 0.02795 0.33947 0.0
H2677 H 0.4946 0.02149 0.36992 0.0
H2678 H 0.46025 0.05358 0.3902 0.0
H2679 H 0.45391 0.06025 0.35965 0.0
H2680 H 0.49448 0.06709 0.40604 0.0
H2681 H 0.45023 0.00804 0.39248 0.0
H2682 H 0.43347 0.97656 0.37502 0.0
H2683 H 0.47948 0.9572 0.38001 0.0
H2684 H 0.49662 0.98865 0.39723 0.0
H2685 H 0.52904 0.06166 0.4939 0.0
H2686 H 0.50708 0.05804 0.46743 0.0
H2687 H 0.53072 0.02024 0.43556 0.0
H2688 H 0.55186 0.02286 0.46254 0.0
H2689 H 0.49582 0.00805 0.42823 0.0
H2690 H 0.54104 0.06637 0.43373 0.0
H2691 H 0.56022 0.0977 0.44907 0.0
H2692 H 0.51524 0.11814 0.45557 0.0
H2693 H 0.49577 0.08679 0.44056 0.0
C2694 C 0.4821 0.03363 0.35038 0.0
C2695 C 0.47106 0.04508 0.34738 0.0
C2696 C 0.48535 0.02953 0.36763 0.0
C2697 C 0.47761 0.03682 0.38206 0.0
C2698 C 0.46609 0.04767 0.37901 0.0
C2699 C 0.46277 0.05174 0.36172 0.0
C2700 C 0.48464 0.03666 0.40074 0.0
C2701 C 0.49429 0.05421 0.4112 0.0
C2702 C 0.48495 0.01971 0.40681 0.0
C2703 C 0.47475 1.0008 0.39613 0.0
C2704 C 0.45684 0.99715 0.38971 0.0
C2705 C 0.44725 0.97928 0.37988 0.0
C2706 C 0.4554 0.96489 0.37641 0.0
C2707 C 0.47317 0.96835 0.38273 0.0
C2708 C 0.48283 0.9862 0.39255 0.0
C2709 C 0.52933 0.05251 0.48122 0.0
C2710 C 0.54192 0.04263 0.47984 0.0
C2711 C 0.51689 0.05043 0.46623 0.0
C2712 C 0.51743 0.03894 0.44965 0.0
C2713 C 0.53011 0.02905 0.44834 0.0
C2714 C 0.5423 0.03083 0.46349 0.0
C2715 C 0.50573 0.03846 0.43325 0.0
C2716 C 0.49545 0.02088 0.42325 0.0
C2717 C 0.50522 0.05534 0.42717 0.0
C2718 C 0.51694 0.07417 0.43626 0.0
C2719 C 0.53523 0.07749 0.4386 0.0
C2720 C 0.54616 0.09525 0.44721 0.0
C2721 C 0.53895 0.10988 0.45335 0.0
C2722 C 0.5208 0.10678 0.45086 0.0
C2723 C 0.50981 0.08901 0.44232 0.0
H2724 H 0.54743 0.12364 0.45998 0.0
H2725 H 0.44795 0.95105 0.36884 0.0
H2726 H 0.80283 0.75036 0.05358 0.0
H2727 H 0.80214 0.76302 0.08608 0.0
H2728 H 0.7981 0.70785 0.0991 0.0
H2729 H 0.79928 0.6954 0.0675 0.0
H2730 H 0.77224 0.72337 0.11146 0.0
H2731 H 0.83302 0.73654 0.11394 0.0
H2732 H 0.86279 0.7489 0.10664 0.0
H2733 H 0.85988 0.80581 0.12226 0.0
H2734 H 0.82987 0.79376 0.12933 0.0
H2735 H 0.78779 0.74008 0.20948 0.0
H2736 H 0.78998 0.73137 0.17688 0.0
H2737 H 0.79166 0.7881 0.16972 0.0
H2738 H 0.78916 0.79672 0.2024 0.0
H2739 H 0.81865 0.77303 0.15433 0.0
H2740 H 0.75497 0.75405 0.15357 0.0
H2741 H 0.7285 0.73672 0.16481 0.0
H2742 H 0.74129 0.68448 0.14933 0.0
H2743 H 0.76793 0.70154 0.13817 0.0
C2744 C 0.80204 0.74105 0.06344 0.0
C2745 C 0.80117 0.72186 0.05778 0.0
C2746 C 0.80166 0.74828 0.082 0.0
C2747 C 0.79999 0.73632 0.09502 0.0
C2748 C 0.79936 0.71734 0.08937 0.0
C2749 C 0.80012 0.71028 0.07115 0.0
C2750 C 0.79792 0.74298 0.11437 0.0
C2751 C 0.78239 0.73431 0.12077 0.0
C2752 C 0.81129 0.75686 0.12672 0.0
C2753 C 0.82901 0.76424 0.12174 0.0
C2754 C 0.83856 0.75169 0.11546 0.0
C2755 C 0.85553 0.75863 0.11146 0.0
C2756 C 0.86318 0.77813 0.11387 0.0
C2757 C 0.85388 0.79071 0.1203 0.0
C2758 C 0.83688 0.78383 0.12428 0.0
C2759 C 0.78818 0.75052 0.20081 0.0
C2760 C 0.78783 0.76889 0.20825 0.0
C2761 C 0.78957 0.7456 0.18224 0.0
C2762 C 0.79093 0.75907 0.17082 0.0
C2763 C 0.79056 0.77747 0.17826 0.0
C2764 C 0.78888 0.78231 0.19682 0.0
C2765 C 0.79276 0.75386 0.15114 0.0
C2766 C 0.80833 0.76254 0.14479 0.0
C2767 C 0.77975 0.73938 0.13899 0.0
C2768 C 0.76344 0.72907 0.1451 0.0
C2769 C 0.75214 0.73887 0.1526 0.0
C2770 C 0.73711 0.7291 0.15895 0.0
C2771 C 0.73322 0.70951 0.1578 0.0
C2772 C 0.74431 0.69964 0.1502 0.0
C2773 C 0.75935 0.70935 0.14382 0.0
H2774 H 0.72161 0.70198 0.16278 0.0
H2775 H 0.87635 0.78349 0.11084 0.0
H2776 H 0.15798 0.02694 0.70878 0.0
H2777 H 0.14456 0.0326 0.68003 0.0
H2778 H 0.09379 1.00229 0.69038 0.0
H2779 H 0.10719 0.9974 0.71983 0.0
H2780 H 0.10031 0.99269 0.65132 0.0
H2781 H 0.10166 0.04703 0.69581 0.0
H2782 H 0.115 0.07461 0.72055 0.0
H2783 H 0.15061 0.09945 0.68567 0.0
H2784 H 0.13766 0.07184 0.66079 0.0
H2785 H 0.05133 0.01526 0.57788 0.0
H2786 H 0.06234 0.01159 0.60834 0.0
H2787 H 0.10875 0.05719 0.60954 0.0
H2788 H 0.0966 0.06222 0.57975 0.0
H2789 H 0.10463 0.05842 0.64293 0.0
H2790 H 0.10536 1.00375 0.59925 0.0
H2791 H 0.08825 0.98117 0.57182 0.0
H2792 H 0.04872 0.95884 0.60371 0.0
H2793 H 0.06557 0.98105 0.63151 0.0
C2794 C 0.14393 0.02132 0.70501 0.0
C2795 C 0.13387 0.01152 0.71697 0.0
C2796 C 0.13618 0.02466 0.68838 0.0
C2797 C 0.11795 0.01791 0.68248 0.0
C2798 C 0.10784 0.00773 0.6942 0.0
C2799 C 0.11557 1.00493 0.71123 0.0
C2800 C 0.10969 0.022 0.66454 0.0
C2801 C 0.1012 0.00711 0.64971 0.0
C2802 C 0.11089 0.04072 0.66159 0.0
C2803 C 0.11883 0.05725 0.67652 0.0
C2804 C 0.11247 0.05827 0.69348 0.0
C2805 C 0.11993 0.07393 0.70752 0.0
C2806 C 0.13368 0.08875 0.70471 0.0
C2807 C 0.13998 0.08794 0.68784 0.0
C2808 C 0.13258 0.07229 0.67377 0.0
C2809 C 0.06384 0.02464 0.58463 0.0
C2810 C 0.07301 0.03895 0.57596 0.0
C2811 C 0.07042 0.02232 0.60219 0.0
C2812 C 0.0871 0.03334 0.61155 0.0
C2813 C 0.09605 0.04808 0.60304 0.0
C2814 C 0.08907 0.05096 0.58576 0.0
C2815 C 0.09521 0.02916 0.62965 0.0
C2816 C 0.10383 0.04401 0.64447 0.0
C2817 C 0.0944 0.01044 0.63252 0.0
C2818 C 0.08666 0.99412 0.61739 0.0
C2819 C 0.09327 0.99359 0.60055 0.0
C2820 C 0.08355 0.98096 0.58495 0.0
C2821 C 0.06735 0.96873 0.58615 0.0
C2822 C 0.06129 0.96829 0.60303 0.0
C2823 C 0.07096 0.98081 0.61872 0.0
H2824 H 0.05926 0.95987 0.57397 0.0
H2825 H 0.13942 0.10088 0.71558 0.0
H2826 H 0.77387 0.36062 0.44188 0.0
H2827 H 0.77867 0.3462 0.41153 0.0
H2828 H 0.83127 0.38349 0.42014 0.0
H2829 H 0.82653 0.39774 0.45049 0.0
H2830 H 0.81037 0.3771 0.38308 0.0
H2831 H 0.8325 0.34488 0.42677 0.0
H2832 H 0.83159 0.32912 0.45352 0.0
H2833 H 0.78404 0.28759 0.42712 0.0
H2834 H 0.78465 0.30321 0.40026 0.0
H2835 H 0.82741 0.31771 0.30643 0.0
H2836 H 0.83139 0.33778 0.33651 0.0
H2837 H 0.78547 0.29935 0.34964 0.0
H2838 H 0.78214 0.27883 0.31994 0.0
H2839 H 0.80948 0.30958 0.37732 0.0
H2840 H 0.78631 0.34387 0.33425 0.0
H2841 H 0.78727 0.36056 0.30811 0.0
H2842 H 0.83689 0.39893 0.33334 0.0
H2843 H 0.83625 0.38238 0.35956 0.0
C2844 C 0.78623 0.36595 0.43698 0.0
C2845 C 0.79981 0.38024 0.44806 0.0
C2846 C 0.78899 0.35775 0.41985 0.0
C2847 C 0.80532 0.36388 0.41387 0.0
C2848 C 0.8186 0.37878 0.42464 0.0
C2849 C 0.81589 0.38684 0.4418 0.0
C2850 C 0.80882 0.35363 0.39697 0.0
C2851 C 0.81045 0.36241 0.38175 0.0
C2852 C 0.80903 0.33463 0.39554 0.0
C2853 C 0.80856 0.32526 0.41163 0.0
C2854 C 0.82179 0.33246 0.42675 0.0
C2855 C 0.82135 0.32353 0.4419 0.0
C2856 C 0.80775 0.30738 0.44203 0.0
C2857 C 0.79457 0.3001 0.427 0.0
C2858 C 0.79497 0.30895 0.4118 0.0
C2859 C 0.81838 0.31349 0.31586 0.0
C2860 C 0.80459 0.29679 0.31104 0.0
C2861 C 0.82054 0.32502 0.33294 0.0
C2862 C 0.80853 0.32022 0.34512 0.0
C2863 C 0.79491 0.30328 0.34041 0.0
C2864 C 0.79306 0.29153 0.32353 0.0
C2865 C 0.80996 0.3326 0.36289 0.0
C2866 C 0.80956 0.3243 0.37849 0.0
C2867 C 0.81089 0.35205 0.36458 0.0
C2868 C 0.81133 0.36176 0.3487 0.0
C2869 C 0.79748 0.35577 0.33412 0.0
C2870 C 0.79795 0.36522 0.31933 0.0
C2871 C 0.81216 0.38074 0.31903 0.0
C2872 C 0.82591 0.38688 0.33356 0.0
C2873 C 0.8255 0.37748 0.34839 0.0
H2874 H 0.81249 0.38805 0.30756 0.0
H2875 H 0.80743 0.30048 0.45377 0.0
H2876 H 0.47688 0.03453 0.26124 0.0
H2877 H 0.48008 0.01573 0.23267 0.0
H2878 H 0.43783 0.03101 0.20423 0.0
H2879 H 0.43393 0.04916 0.23318 0.0
H2880 H 0.44088 0.99339 0.18969 0.0
H2881 H 0.4744 0.05936 0.20569 0.0
H2882 H 0.49203 0.08626 0.22936 0.0
H2883 H 0.53141 0.05735 0.23659 0.0
H2884 H 0.51378 0.03006 0.21322 0.0
H2885 H 0.4755 0.00823 0.10594 0.0
H2886 H 0.46079 0.00585 0.13311 0.0
H2887 H 0.50455 0.9923 0.16059 0.0
H2888 H 0.51955 0.99528 0.13394 0.0
H2889 H 0.49939 0.02645 0.17578 0.0
H2890 H 0.46602 0.96154 0.15482 0.0
H2891 H 0.44694 0.93561 0.13115 0.0
H2892 H 0.40655 0.96394 0.13171 0.0
H2893 H 0.42552 0.9902 0.15515 0.0
C2894 C 0.46844 0.03409 0.24885 0.0
C2895 C 0.45583 0.04408 0.24899 0.0
C2896 C 0.46989 0.02289 0.23275 0.0
C2897 C 0.45924 0.02222 0.21652 0.0
C2898 C 0.44605 0.0314 0.21675 0.0
C2899 C 0.44426 0.0422 0.23303 0.0
C2900 C 0.46471 0.01592 0.1991 0.0
C2901 C 0.45361 1.00052 0.18651 0.0
C2902 C 0.48127 0.02551 0.19518 0.0
C2903 C 0.49278 0.04268 0.20773 0.0
C2904 C 0.48687 0.0588 0.21226 0.0
C2905 C 0.49681 0.07406 0.22568 0.0
C2906 C 0.51283 0.07351 0.23448 0.0
C2907 C 0.51901 0.05776 0.22974 0.0
C2908 C 0.50906 0.04239 0.21639 0.0
C2909 C 0.48166 1.00408 0.11756 0.0
C2910 C 0.49873 1.00223 0.11801 0.0
C2911 C 0.47322 1.00259 0.13296 0.0
C2912 C 0.48175 0.99903 0.14872 0.0
C2913 C 0.49786 0.995 0.14842 0.0
C2914 C 0.50633 0.99659 0.13313 0.0
C2915 C 0.4758 1.00346 0.16636 0.0
C2916 C 0.48677 0.01894 0.17897 0.0
C2917 C 0.45905 0.99413 0.16999 0.0
C2918 C 0.44721 0.97787 0.1567 0.0
C2919 C 0.45307 0.96225 0.14987 0.0
C2920 C 0.44229 0.9475 0.13648 0.0
C2921 C 0.42554 0.94812 0.1299 0.0
C2922 C 0.41951 0.96345 0.13681 0.0
C2923 C 0.43026 0.97826 0.15019 0.0
H2924 H 0.41726 0.9367 0.11947 0.0
H2925 H 0.52046 0.08529 0.24496 0.0
H2926 H 0.784 0.69466 0.93532 0.0
H2927 H 0.7848 0.70528 0.90596 0.0
H2928 H 0.80332 0.76335 0.93456 0.0
H2929 H 0.80057 0.75257 0.96378 0.0
H2930 H 0.78477 0.76536 0.90884 0.0
H2931 H 0.82889 0.73203 0.90707 0.0
H2932 H 0.84136 0.70512 0.90786 0.0
H2933 H 0.80304 0.67187 0.86254 0.0
H2934 H 0.79024 0.69851 0.86163 0.0
H2935 H 0.81572 0.80553 0.8344 0.0
H2936 H 0.81402 0.79151 0.86171 0.0
H2937 H 0.78014 0.73927 0.82978 0.0
H2938 H 0.78162 0.75355 0.8021 0.0
H2939 H 0.80526 0.73327 0.8555 0.0
H2940 H 0.76309 0.7693 0.85738 0.0
H2941 H 0.7532 0.79789 0.85654 0.0
H2942 H 0.79209 0.82833 0.90245 0.0
H2943 H 0.80231 0.79996 0.90343 0.0
C2944 C 0.78832 0.7097 0.93531 0.0
C2945 C 0.79231 0.72273 0.95197 0.0
C2946 C 0.78902 0.71586 0.91837 0.0
C2947 C 0.7946 0.7353 0.91751 0.0
C2948 C 0.79888 0.74828 0.93436 0.0
C2949 C 0.79744 0.74212 0.95123 0.0
C2950 C 0.79523 0.74225 0.89933 0.0
C2951 C 0.78961 0.75837 0.89744 0.0
C2952 C 0.80096 0.73319 0.88374 0.0
C2953 C 0.8085 0.71715 0.88444 0.0
C2954 C 0.82305 0.71892 0.89738 0.0
C2955 C 0.83019 0.70373 0.89783 0.0
C2956 C 0.82295 0.68677 0.88531 0.0
C2957 C 0.8086 0.68499 0.87227 0.0
C2958 C 0.80141 0.70012 0.87177 0.0
C2959 C 0.80793 0.79098 0.833 0.0
C2960 C 0.79892 0.78068 0.81578 0.0
C2961 C 0.80692 0.78298 0.8488 0.0
C2962 C 0.79676 0.76433 0.84809 0.0
C2963 C 0.78807 0.7537 0.83084 0.0
C2964 C 0.78902 0.76183 0.81489 0.0
C2965 C 0.79518 0.75635 0.86548 0.0
C2966 C 0.80054 0.74012 0.8671 0.0
C2967 C 0.78965 0.76554 0.88099 0.0
C2968 C 0.78352 0.78257 0.8804 0.0
C2969 C 0.76959 0.78213 0.86722 0.0
C2970 C 0.76392 0.79829 0.86673 0.0
C2971 C 0.77203 0.81493 0.87941 0.0
C2972 C 0.78582 0.81544 0.89263 0.0
C2973 C 0.79154 0.79932 0.89318 0.0
H2974 H 0.76761 0.82742 0.87902 0.0
H2975 H 0.8285 0.67504 0.88567 0.0
H2976 H 0.84596 0.14947 0.02662 0.0
H2977 H 0.87241 0.14002 0.02157 0.0
H2978 H 0.84059 0.08504 0.99257 0.0
H2979 H 0.81413 0.09406 0.99901 0.0
H2980 H 0.86402 0.08104 0.01546 0.0
H2981 H 0.86521 0.12203 0.97112 0.0
H2982 H 0.86418 0.1523 0.96228 0.0
H2983 H 0.91086 0.18137 0.99998 0.0
H2984 H 0.91202 0.1513 0.00923 0.0
H2985 H 0.92762 0.04496 0.98079 0.0
H2986 H 0.90383 0.05952 0.98119 0.0
H2987 H 0.93825 0.11038 0.01518 0.0
H2988 H 0.9627 0.09633 0.01384 0.0
H2989 H 0.91471 0.11807 0.99058 0.0
H2990 H 0.91314 0.07707 0.0347 0.0
H2991 H 0.91251 0.04748 0.04587 0.0
H2992 H 0.86514 0.01861 0.00911 0.0
H2993 H 0.86566 0.04795 0.99753 0.0
C2994 C 0.84472 0.13543 0.01906 0.0
C2995 C 0.82825 0.12239 0.01317 0.0
C2996 C 0.85978 0.13012 0.01603 0.0
C2997 C 0.85844 0.11198 0.00636 0.0
C2998 C 0.84187 0.09913 1.00003 0.0
C2999 C 0.82683 0.10422 0.00367 0.0
C3000 C 0.87426 0.10581 0.00402 0.0
C3001 C 0.87493 0.08894 0.00964 0.0
C3002 C 0.88878 0.1166 0.99721 0.0
C3003 C 0.88865 0.13445 0.99091 0.0
C3004 C 0.87525 0.13489 0.9775 0.0
C3005 C 0.87463 0.15201 0.97245 0.0
C3006 C 0.88744 0.16875 0.98058 0.0
C3007 C 0.90096 0.16839 0.99369 0.0
C3008 C 0.90162 0.15131 0.99882 0.0
C3009 C 0.93037 0.05946 0.98788 0.0
C3010 C 0.94705 0.06944 0.99741 0.0
C3011 C 0.91668 0.06767 0.98826 0.0
C3012 C 0.91926 0.08577 0.99858 0.0
C3013 C 0.93605 0.09627 0.00729 0.0
C3014 C 0.94991 0.08816 0.00668 0.0
C3015 C 0.90407 0.09295 1.00138 0.0
C3016 C 0.90365 0.11008 0.99612 0.0
C3017 C 0.88963 0.08237 0.00845 0.0
C3018 C 0.88956 0.06464 0.01512 0.0
C3019 C 0.90271 0.06435 0.02887 0.0
C3020 C 0.90234 0.04764 0.03529 0.0
C3021 C 0.88882 0.03116 0.02817 0.0
C3022 C 0.87563 0.03136 0.01459 0.0
C3023 C 0.87595 0.04802 0.00809 0.0
H3024 H 0.88853 0.01825 0.0332 0.0
H3025 H 0.88689 0.18201 0.97671 0.0
H3026 H 0.36305 0.44884 0.05413 0.0
H3027 H 0.39373 0.46581 0.05372 0.0
H3028 H 0.39686 0.42269 0.00941 0.0
H3029 H 0.36663 0.40523 0.01058 0.0
H3030 H 0.42647 0.43246 0.02878 0.0
H3031 H 0.39341 0.47022 0.00435 0.0
H3032 H 0.37066 0.48709 0.0045 0.0
H3033 H 0.39775 0.52396 0.0547 0.0
H3034 H 0.42057 0.50716 0.05494 0.0
H3035 H 0.50813 0.49331 0.0085 0.0
H3036 H 0.47843 0.47219 0.00746 0.0
H3037 H 0.47026 0.50997 0.05363 0.0
H3038 H 0.49941 0.53093 0.0544 0.0
H3039 H 0.44292 0.50164 0.03053 0.0
H3040 H 0.47716 0.46273 0.0532 0.0
H3041 H 0.49883 0.44449 0.05148 0.0
H3042 H 0.46896 0.40871 1.00193 0.0
H3043 H 0.44731 0.427 1.00313 0.0
C3044 C 0.37022 0.44303 0.04422 0.0
C3045 C 0.36211 0.42566 0.03231 0.0
C3046 C 0.3879 0.45283 0.0439 0.0
C3047 C 0.39795 0.44596 0.03123 0.0
C3048 C 0.38977 0.42856 0.01937 0.0
C3049 C 0.37228 0.41857 0.01998 0.0
C3050 C 0.41673 0.45693 0.03013 0.0
C3051 C 0.42995 0.44757 0.02897 0.0
C3052 C 0.42177 0.4767 0.03029 0.0
C3053 C 0.40861 0.48741 0.0297 0.0
C3054 C 0.39451 0.48195 0.01539 0.0
C3055 C 0.38159 0.49147 0.01543 0.0
C3056 C 0.38275 0.50657 0.02961 0.0
C3057 C 0.39688 0.51227 0.04372 0.0
C3058 C 0.40983 0.50279 0.04376 0.0
C3059 C 0.50016 0.49683 0.0187 0.0
C3060 C 0.50644 0.51382 0.03171 0.0
C3061 C 0.48301 0.48474 0.01807 0.0
C3062 C 0.47171 0.48921 0.03053 0.0
C3063 C 0.47832 0.50596 0.04371 0.0
C3064 C 0.49522 0.51799 0.04423 0.0
C3065 C 0.45285 0.47734 0.02975 0.0
C3066 C 0.43952 0.48654 0.03038 0.0
C3067 C 0.44776 0.45739 0.02878 0.0
C3068 C 0.46074 0.44638 0.02814 0.0
C3069 C 0.47529 0.45107 0.04185 0.0
C3070 C 0.48757 0.44072 0.04098 0.0
C3071 C 0.4853 0.42548 0.02658 0.0
C3072 C 0.47073 0.42054 0.01304 0.0
C3073 C 0.45847 0.43091 0.01381 0.0
H3074 H 0.49481 0.41748 0.02594 0.0
H3075 H 0.37269 0.51387 0.02966 0.0
H3076 H 0.41515 0.6317 0.76836 0.0
H3077 H 0.40293 0.65868 0.76952 0.0
H3078 H 0.35495 0.62207 0.73788 0.0
H3079 H 0.36793 0.59562 0.73536 0.0
H3080 H 0.35286 0.64965 0.72874 0.0
H3081 H 0.36844 0.65123 0.79271 0.0
H3082 H 0.38778 0.65286 0.82105 0.0
H3083 H 0.42101 0.70599 0.81412 0.0
H3084 H 0.40168 0.70478 0.78581 0.0
H3085 H 0.3021 0.71639 0.74588 0.0
H3086 H 0.31625 0.69107 0.74663 0.0
H3087 H 0.36632 0.73245 0.76308 0.0
H3088 H 0.35202 0.75804 0.76239 0.0
H3089 H 0.3679 0.70388 0.78058 0.0
H3090 H 0.3509 0.69951 0.71513 0.0
H3091 H 0.33068 0.69544 0.68673 0.0
H3092 H 0.29715 0.6453 0.69952 0.0
H3093 H 0.31743 0.64871 0.72769 0.0
C3094 C 0.40194 0.62921 0.7616 0.0
C3095 C 0.39284 0.61073 0.75175 0.0
C3096 C 0.3946 0.64502 0.76251 0.0
C3097 C 0.37726 0.64346 0.75429 0.0
C3098 C 0.36822 0.62483 0.74454 0.0
C3099 C 0.37577 0.6092 0.74314 0.0
C3100 C 0.36872 0.66065 0.7551 0.0
C3101 C 0.35618 0.6611 0.74049 0.0
C3102 C 0.3725 0.6768 0.76982 0.0
C3103 C 0.38386 0.67775 0.78698 0.0
C3104 C 0.3799 0.66324 0.79721 0.0
C3105 C 0.39081 0.66413 0.8133 0.0
C3106 C 0.40563 0.67953 0.81936 0.0
C3107 C 0.4095 0.69414 0.80942 0.0
C3108 C 0.39858 0.69337 0.79338 0.0
C3109 C 0.31616 0.7204 0.74965 0.0
C3110 C 0.32552 0.73996 0.75396 0.0
C3111 C 0.32449 0.70552 0.74992 0.0
C3112 C 0.34288 0.70896 0.75456 0.0
C3113 C 0.35226 0.72856 0.75928 0.0
C3114 C 0.34391 0.74352 0.75883 0.0
C3115 C 0.35198 0.69238 0.75439 0.0
C3116 C 0.36461 0.69218 0.76904 0.0
C3117 C 0.34795 0.67612 0.74002 0.0
C3118 C 0.33553 0.67448 0.72354 0.0
C3119 C 0.33913 0.68772 0.71193 0.0
C3120 C 0.3277 0.68551 0.69588 0.0
C3121 C 0.31253 0.67031 0.69147 0.0
C3122 C 0.30885 0.65713 0.703 0.0
C3123 C 0.32036 0.65911 0.71893 0.0
H3124 H 0.3037 0.66867 0.67904 0.0
H3125 H 0.4141 0.68016 0.83176 0.0
H3126 H 0.24328 0.61884 0.53437 0.0
H3127 H 0.21256 0.61183 0.5387 0.0
H3128 H 0.19857 0.61807 0.48312 0.0
H3129 H 0.2298 0.62635 0.47921 0.0
H3130 H 0.18062 0.63444 0.50821 0.0
H3131 H 0.19267 0.57457 0.4911 0.0
H3132 H 0.2103 0.55209 0.49289 0.0
H3133 H 0.20368 0.55267 0.5494 0.0
H3134 H 0.18615 0.57532 0.54796 0.0
H3135 H 0.09361 0.57491 0.49577 0.0
H3136 H 0.12442 0.58896 0.49378 0.0
H3137 H 0.13742 0.59281 0.55197 0.0
H3138 H 0.10664 0.57885 0.55422 0.0
H3139 H 0.15553 0.5726 0.52637 0.0
H3140 H 0.14205 0.63182 0.54256 0.0
H3141 H 0.12193 0.65151 0.53912 0.0
H3142 H 0.12908 0.64981 0.48263 0.0
H3143 H 0.1491 0.6299 0.48571 0.0
C3144 C 0.23353 0.61826 0.523 0.0
C3145 C 0.23837 0.62221 0.50625 0.0
C3146 C 0.21617 0.61457 0.52554 0.0
C3147 C 0.20351 0.61418 0.5111 0.0
C3148 C 0.20834 0.61827 0.4943 0.0
C3149 C 0.22591 0.62253 0.49194 0.0
C3150 C 0.18518 0.6083 0.51349 0.0
C3151 C 0.17503 0.62087 0.51198 0.0
C3152 C 0.17818 0.59073 0.51868 0.0
C3153 C 0.18819 0.57665 0.51944 0.0
C3154 C 0.19501 0.56991 0.5039 0.0
C3155 C 0.20499 0.55715 0.50486 0.0
C3156 C 0.20812 0.55096 0.52125 0.0
C3157 C 0.20122 0.55746 0.53671 0.0
C3158 C 0.19124 0.57022 0.53582 0.0
C3159 C 0.10302 0.57886 0.50813 0.0
C3160 C 0.09795 0.57585 0.52512 0.0
C3161 C 0.12046 0.58695 0.50699 0.0
C3162 C 0.13277 0.59191 0.52279 0.0
C3163 C 0.12779 0.58909 0.53979 0.0
C3164 C 0.11034 0.58118 0.54099 0.0
C3165 C 0.15109 0.59871 0.52115 0.0
C3166 C 0.1612 0.58624 0.52275 0.0
C3167 C 0.15788 0.6162 0.51589 0.0
C3168 C 0.14709 0.62945 0.51437 0.0
C3169 C 0.13939 0.63574 0.52943 0.0
C3170 C 0.12797 0.64688 0.52754 0.0
C3171 C 0.12424 0.65192 0.51067 0.0
C3172 C 0.13203 0.64595 0.4957 0.0
C3173 C 0.14346 0.63479 0.49752 0.0
H3174 H 0.1153 0.66045 0.50919 0.0
H3175 H 0.21589 0.54112 0.52198 0.0
H3176 H 0.726 0.02662 0.77249 0.0
H3177 H 0.73739 1.00069 0.77923 0.0
H3178 H 0.68676 0.96089 0.75838 0.0
H3179 H 0.67505 0.98703 0.75279 0.0
H3180 H 0.69971 0.9527 0.78785 0.0
H3181 H 0.72124 0.96623 0.73229 0.0
H3182 H 0.73556 0.98711 0.71224 0.0
H3183 H 0.7834 1.00398 0.74979 0.0
H3184 H 0.76931 0.98333 0.77014 0.0
H3185 H 0.73585 0.87355 0.77619 0.0
H3186 H 0.72031 0.89747 0.77359 0.0
H3187 H 0.76714 0.94147 0.79859 0.0
H3188 H 0.78306 0.91802 0.80008 0.0
H3189 H 0.75457 0.94581 0.76527 0.0
H3190 H 0.73139 0.93172 0.821 0.0
H3191 H 0.71566 0.91119 0.84055 0.0
H3192 H 0.66951 0.89418 0.80055 0.0
H3193 H 0.68504 0.91448 0.7807 0.0
C3194 C 0.71737 0.01231 0.76942 0.0
C3195 C 0.6998 0.00854 0.76209 0.0
C3196 C 0.72385 0.99758 0.77315 0.0
C3197 C 0.71296 0.97895 0.76883 0.0
C3198 C 0.69531 0.97523 0.76168 0.0
C3199 C 0.68868 0.99005 0.75849 0.0
C3200 C 0.72001 0.96336 0.77195 0.0
C3201 C 0.71155 0.95096 0.78269 0.0
C3202 C 0.73549 0.96136 0.76526 0.0
C3203 C 0.7442 0.9733 0.75276 0.0
C3204 C 0.73481 0.97442 0.73627 0.0
C3205 C 0.74288 0.98621 0.72486 0.0
C3206 C 0.76037 0.99688 0.72975 0.0
C3207 C 0.76986 0.9957 0.74601 0.0
C3208 C 0.76185 0.98391 0.75747 0.0
C3209 C 0.74272 0.88831 0.78139 0.0
C3210 C 0.76067 0.89397 0.7882 0.0
C3211 C 0.73379 0.90185 0.7801 0.0
C3212 C 0.74266 0.92104 0.78599 0.0
C3213 C 0.76017 0.92662 0.79405 0.0
C3214 C 0.76917 0.91318 0.79507 0.0
C3215 C 0.7345 0.93546 0.78159 0.0
C3216 C 0.74269 0.94751 0.77038 0.0
C3217 C 0.71862 0.9369 0.78756 0.0
C3218 C 0.70942 0.92444 0.79932 0.0
C3219 C 0.71795 0.92344 0.81631 0.0
C3220 C 0.70905 0.91189 0.82746 0.0
C3221 C 0.69161 0.90134 0.82177 0.0
C3222 C 0.68302 0.90233 0.80493 0.0
C3223 C 0.69186 0.91387 0.79374 0.0
H3224 H 0.68474 0.89243 0.83044 0.0
H3225 H 0.76658 0.00606 0.72093 0.0
H3226 H 0.7483 0.89349 0.52769 0.0
H3227 H 0.72165 0.90359 0.52265 0.0
H3228 H 0.75345 0.96134 0.52843 0.0
H3229 H 0.77969 0.95141 0.53523 0.0
H3230 H 0.73028 0.96372 0.54567 0.0
H3231 H 0.72588 0.92553 0.48513 0.0
H3232 H 0.72244 0.89666 0.4622 0.0
H3233 H 0.67448 0.86973 0.48064 0.0
H3234 H 0.67779 0.89828 0.50389 0.0
H3235 H 0.6701 0.00771 0.51157 0.0
H3236 H 0.69246 0.99088 0.51198 0.0
H3237 H 0.65554 0.94249 0.52443 0.0
H3238 H 0.63281 0.95923 0.52375 0.0
H3239 H 0.67826 0.93279 0.49892 0.0
H3240 H 0.68229 0.97058 0.55806 0.0
H3241 H 0.68404 0.99994 0.57952 0.0
H3242 H 0.73232 0.0276 0.5621 0.0
H3243 H 0.73066 0.9985 0.54025 0.0
C3244 C 0.74952 0.90832 0.52775 0.0
C3245 C 0.76613 0.92167 0.53193 0.0
C3246 C 0.73422 0.91412 0.52467 0.0
C3247 C 0.7352 0.93335 0.52489 0.0
C3248 C 0.75198 0.94646 0.52833 0.0
C3249 C 0.76712 0.94078 0.53214 0.0
C3250 C 0.71911 0.94038 0.52304 0.0
C3251 C 0.71918 0.95698 0.53509 0.0
C3252 C 0.70383 0.93133 0.51 0.0
C3253 C 0.70226 0.91395 0.49645 0.0
C3254 C 0.71473 0.91336 0.48446 0.0
C3255 C 0.71277 0.89707 0.47137 0.0
C3256 C 0.69829 0.88135 0.47002 0.0
C3257 C 0.68573 0.88188 0.48175 0.0
C3258 C 0.68766 0.8981 0.4949 0.0
C3259 C 0.66654 0.99336 0.51406 0.0
C3260 C 0.64957 0.98491 0.51768 0.0
C3261 C 0.67943 0.98376 0.51438 0.0
C3262 C 0.67578 0.96544 0.51837 0.0
C3263 C 0.6587 0.95661 0.52133 0.0
C3264 C 0.64576 0.96629 0.52112 0.0
C3265 C 0.69024 0.95633 0.52084 0.0
C3266 C 0.68964 0.93939 0.50921 0.0
C3267 C 0.70513 0.965 0.53414 0.0
C3268 C 0.70628 0.98242 0.54743 0.0
C3269 C 0.69321 0.98297 0.55871 0.0
C3270 C 0.69419 0.99956 0.57094 0.0
C3271 C 0.70827 0.01564 0.57215 0.0
C3272 C 0.72141 0.01515 0.56113 0.0
C3273 C 0.72046 0.99861 0.54883 0.0
H3274 H 0.70901 0.02847 0.58164 0.0
H3275 H 0.69678 0.86878 0.45983 0.0
H3276 H 0.41811 0.48948 0.74861 0.0
H3277 H 0.40283 0.45657 0.7492 0.0
H3278 H 0.35913 0.47399 0.76761 0.0
H3279 H 0.37441 0.50727 0.76662 0.0
H3280 H 0.36734 0.44656 0.78745 0.0
H3281 H 0.35821 0.44929 0.72254 0.0
H3282 H 0.36881 0.45573 0.69356 0.0
H3283 H 0.39912 0.41612 0.69601 0.0
H3284 H 0.38891 0.40967 0.72516 0.0
H3285 H 0.30361 0.35691 0.77603 0.0
H3286 H 0.32158 0.38876 0.77562 0.0
H3287 H 0.35824 0.36546 0.74808 0.0
H3288 H 0.34009 0.33305 0.74875 0.0
H3289 H 0.35594 0.39533 0.73302 0.0
H3290 H 0.36919 0.39134 0.79334 0.0
H3291 H 0.36635 0.38505 0.8245 0.0
H3292 H 0.33764 0.42614 0.8338 0.0
H3293 H 0.34006 0.43247 0.80252 0.0
C3294 C 0.40511 0.48649 0.75257 0.0
C3295 C 0.39769 0.50167 0.75726 0.0
C3296 C 0.39624 0.46729 0.75291 0.0
C3297 C 0.37941 0.46193 0.75832 0.0
C3298 C 0.37195 0.47708 0.76324 0.0
C3299 C 0.38073 0.49639 0.7625 0.0
C3300 C 0.36992 0.44085 0.75892 0.0
C3301 C 0.36451 0.43556 0.77533 0.0
C3302 C 0.36708 0.42552 0.74375 0.0
C3303 C 0.37288 0.4291 0.72607 0.0
C3304 C 0.3672 0.44203 0.71693 0.0
C3305 C 0.37314 0.44568 0.70048 0.0
C3306 C 0.38466 0.43637 0.69296 0.0
C3307 C 0.39021 0.42334 0.70185 0.0
C3308 C 0.38434 0.41966 0.71833 0.0
C3309 C 0.31565 0.35832 0.7701 0.0
C3310 C 0.32014 0.34175 0.76272 0.0
C3311 C 0.32612 0.37693 0.76987 0.0
C3312 C 0.34178 0.38042 0.76192 0.0
C3313 C 0.34643 0.36387 0.75442 0.0
C3314 C 0.336 0.34503 0.75498 0.0
C3315 C 0.35261 0.40113 0.7614 0.0
C3316 C 0.35844 0.40633 0.74509 0.0
C3317 C 0.35666 0.41628 0.7769 0.0
C3318 C 0.35455 0.41216 0.79547 0.0
C3319 C 0.36204 0.39884 0.80192 0.0
C3320 C 0.36056 0.39531 0.81963 0.0
C3321 C 0.35175 0.40513 0.83109 0.0
C3322 C 0.34441 0.4185 0.82487 0.0
C3323 C 0.34582 0.42206 0.80715 0.0
H3324 H 0.35066 0.40242 0.84483 0.0
H3325 H 0.38926 0.43923 0.68023 0.0
H3326 H 0.16412 0.60937 0.26799 0.0
H3327 H 0.18144 0.64132 0.26631 0.0
H3328 H 0.22894 0.62456 0.27555 0.0
H3329 H 0.21197 0.59345 0.27846 0.0
H3330 H 0.23417 0.65786 0.29169 0.0
H3331 H 0.20621 0.62275 0.23016 0.0
H3332 H 0.18176 0.60668 0.20529 0.0
H3333 H 0.16262 0.65571 0.21199 0.0
H3334 H 0.18689 0.67199 0.23691 0.0
H3335 H 0.29093 0.72829 0.25375 0.0
H3336 H 0.27366 0.69536 0.25274 0.0
H3337 H 0.22733 0.71432 0.25817 0.0
H3338 H 0.24452 0.74688 0.25954 0.0
H3339 H 0.22208 0.68001 0.23382 0.0
H3340 H 0.2566 0.71627 0.29177 0.0
H3341 H 0.28447 0.73098 0.3118 0.0
H3342 H 0.29282 0.67672 0.31273 0.0
H3343 H 0.26645 0.6617 0.29007 0.0
C3344 C 0.17829 0.61284 0.2702 0.0
C3345 C 0.18681 0.59914 0.27319 0.0
C3346 C 0.18809 0.63088 0.26904 0.0
C3347 C 0.20633 0.63494 0.27031 0.0
C3348 C 0.21482 0.6216 0.27451 0.0
C3349 C 0.20512 0.60386 0.27621 0.0
C3350 C 0.21684 0.6526 0.26636 0.0
C3351 C 0.23171 0.66261 0.27893 0.0
C3352 C 0.2133 0.65869 0.24978 0.0
C3353 C 0.1982 0.64846 0.23553 0.0
C3354 C 0.19665 0.62998 0.22646 0.0
C3355 C 0.18288 0.62088 0.21231 0.0
C3356 C 0.17062 0.63014 0.20711 0.0
C3357 C 0.17208 0.64852 0.21606 0.0
C3358 C 0.18584 0.65769 0.23018 0.0
C3359 C 0.27702 0.72511 0.25454 0.0
C3360 C 0.26883 0.73956 0.25734 0.0
C3361 C 0.26726 0.70655 0.25374 0.0
C3362 C 0.24946 0.70282 0.25554 0.0
C3363 C 0.24113 0.71721 0.25681 0.0
C3364 C 0.25088 0.73564 0.2579 0.0
C3365 C 0.23969 0.6847 0.25881 0.0
C3366 C 0.22476 0.67491 0.24634 0.0
C3367 C 0.24349 0.6785 0.27527 0.0
C3368 C 0.25956 0.68783 0.28876 0.0
C3369 C 0.26456 0.70742 0.29566 0.0
C3370 C 0.2801 0.71586 0.30762 0.0
C3371 C 0.29008 0.70482 0.31406 0.0
C3372 C 0.28501 0.68529 0.30781 0.0
C3373 C 0.26996 0.67684 0.29505 0.0
H3374 H 0.30169 0.71145 0.32391 0.0
H3375 H 0.16001 0.6231 0.1961 0.0
H3376 H 0.55518 0.74223 0.47245 0.0
H3377 H 0.55833 0.71535 0.48615 0.0
H3378 H 0.51774 0.67764 0.44483 0.0
H3379 H 0.51398 0.70468 0.4316 0.0
H3380 H 0.51389 0.66632 0.47579 0.0
H3381 H 0.56504 0.68352 0.44464 0.0
H3382 H 0.59099 0.70692 0.43849 0.0
H3383 H 0.6128 0.71825 0.49526 0.0
H3384 H 0.5869 0.69499 0.50174 0.0
H3385 H 0.52792 0.58 0.48783 0.0
H3386 H 0.52657 0.60808 0.47557 0.0
H3387 H 0.56889 0.64234 0.51702 0.0
H3388 H 0.57095 0.61384 0.52876 0.0
H3389 H 0.57263 0.65629 0.48743 0.0
H3390 H 0.52425 0.64201 0.52008 0.0
H3391 H 0.4988 0.62079 0.52957 0.0
H3392 H 0.47246 0.60666 0.47426 0.0
H3393 H 0.49789 0.62763 0.46441 0.0
C3394 C 0.54685 0.72823 0.46629 0.0
C3395 C 0.53437 0.72572 0.4508 0.0
C3396 C 0.54878 0.71275 0.47408 0.0
C3397 C 0.53863 0.69415 0.46634 0.0
C3398 C 0.52587 0.69169 0.45111 0.0
C3399 C 0.52373 0.70723 0.4435 0.0
C3400 C 0.5413 0.67732 0.47399 0.0
C3401 C 0.52673 0.66407 0.47801 0.0
C3402 C 0.55808 0.67444 0.47773 0.0
C3403 C 0.57404 0.68759 0.47367 0.0
C3404 C 0.5754 0.69098 0.45578 0.0
C3405 C 0.59008 0.70423 0.45225 0.0
C3406 C 0.60352 0.71408 0.46648 0.0
C3407 C 0.60238 0.71059 0.48425 0.0
C3408 C 0.58774 0.69734 0.48785 0.0
C3409 C 0.53693 0.59349 0.49446 0.0
C3410 C 0.54933 0.59459 0.50956 0.0
C3411 C 0.53611 0.60967 0.48742 0.0
C3412 C 0.54727 0.62768 0.4956 0.0
C3413 C 0.56 0.62878 0.51044 0.0
C3414 C 0.56108 0.61244 0.51726 0.0
C3415 C 0.54515 0.64517 0.48888 0.0
C3416 C 0.55979 0.65853 0.4851 0.0
C3417 C 0.5285 0.64843 0.48572 0.0
C3418 C 0.51291 0.63636 0.49153 0.0
C3419 C 0.51301 0.63436 0.50996 0.0
C3420 C 0.49864 0.62236 0.51539 0.0
C3421 C 0.48404 0.61239 0.50256 0.0
C3422 C 0.48378 0.61439 0.48421 0.0
C3423 C 0.49815 0.62638 0.47869 0.0
H3424 H 0.47295 0.60325 0.50695 0.0
H3425 H 0.61483 0.72442 0.46373 0.0
H3426 H 0.62589 0.31371 0.68264 0.0
H3427 H 0.65276 0.31019 0.69856 0.0
H3428 H 0.67461 0.3069 0.64797 0.0
H3429 H 0.6478 0.3107 0.63196 0.0
H3430 H 0.68074 0.2791 0.66977 0.0
H3431 H 0.69075 0.34653 0.67704 0.0
H3432 H 0.68061 0.37508 0.68388 0.0
H3433 H 0.67383 0.36467 0.73811 0.0
H3434 H 0.6838 0.33595 0.73149 0.0
H3435 H 0.76837 0.28998 0.71827 0.0
H3436 H 0.74363 0.2924 0.69699 0.0
H3437 H 0.71848 0.30848 0.74304 0.0
H3438 H 0.74259 0.30615 0.76385 0.0
H3439 H 0.71509 0.33037 0.72059 0.0
H3440 H 0.70461 0.26331 0.71419 0.0
H3441 H 0.71001 0.23207 0.70692 0.0
H3442 H 0.71464 0.23927 0.65145 0.0
H3443 H 0.70951 0.2707 0.65849 0.0
C3444 C 0.63644 0.31245 0.67486 0.0
C3445 C 0.63458 0.31285 0.65596 0.0
C3446 C 0.65186 0.31031 0.68402 0.0
C3447 C 0.66595 0.30824 0.67461 0.0
C3448 C 0.66407 0.3084 0.65568 0.0
C3449 C 0.64873 0.31083 0.64655 0.0
C3450 C 0.68278 0.3068 0.68478 0.0
C3451 C 0.68846 0.29046 0.68065 0.0
C3452 C 0.69282 0.3213 0.6993 0.0
C3453 C 0.68801 0.33917 0.7038 0.0
C3454 C 0.68716 0.35041 0.69045 0.0
C3455 C 0.68141 0.36657 0.69427 0.0
C3456 C 0.67658 0.37169 0.71142 0.0
C3457 C 0.67762 0.36071 0.72484 0.0
C3458 C 0.68337 0.34452 0.72109 0.0
C3459 C 0.75758 0.29407 0.72381 0.0
C3460 C 0.75771 0.29784 0.74297 0.0
C3461 C 0.74328 0.29536 0.71159 0.0
C3462 C 0.72881 0.30061 0.71819 0.0
C3463 C 0.72923 0.3045 0.73728 0.0
C3464 C 0.74322 0.30307 0.7493 0.0
C3465 C 0.71327 0.30249 0.7058 0.0
C3466 C 0.70769 0.319 0.70956 0.0
C3467 C 0.70328 0.288 0.69104 0.0
C3468 C 0.70703 0.26949 0.68696 0.0
C3469 C 0.70706 0.25836 0.70052 0.0
C3470 C 0.70999 0.24058 0.69642 0.0
C3471 C 0.71276 0.23373 0.67876 0.0
C3472 C 0.71258 0.24463 0.66515 0.0
C3473 C 0.70967 0.26243 0.66919 0.0
H3474 H 0.71499 0.21994 0.6756 0.0
H3475 H 0.67203 0.38415 0.71432 0.0
H3476 H 0.02999 0.33825 0.92657 0.0
H3477 H 0.03368 0.37136 0.94007 0.0
H3478 H 0.03264 0.35663 0.99377 0.0
H3479 H 0.0274 0.32335 0.97998 0.0
H3480 H 0.01348 0.37685 0.99235 0.0
H3481 H 0.0713 0.38535 0.9748 0.0
H3482 H 0.09442 0.38537 0.95507 0.0
H3483 H 0.07359 0.41928 0.92248 0.0
H3484 H 0.05022 0.41922 0.94181 0.0
H3485 H 0.04874 0.473 0.04235 0.0
H3486 H 0.04623 0.44027 0.02775 0.0
H3487 H 0.02147 0.44947 0.97747 0.0
H3488 H 0.02321 0.48186 0.99229 0.0
H3489 H 0.05338 0.43353 0.97671 0.0
H3490 H 0.99569 0.42432 0.99465 0.0
H3491 H 0.97564 0.42816 0.01721 0.0
H3492 H 0.99944 0.39757 0.05125 0.0
H3493 H 0.01985 0.39385 0.029 0.0
C3494 C 0.03086 0.3422 0.94129 0.0
C3495 C 0.02844 0.32827 0.95225 0.0
C3496 C 0.0331 0.36121 0.94907 0.0
C3497 C 0.03364 0.36679 0.96808 0.0
C3498 C 0.03212 0.35286 0.97907 0.0
C3499 C 0.02925 0.33381 0.97123 0.0
C3500 C 0.03417 0.38661 0.97643 0.0
C3501 C 0.02251 0.3891 0.98903 0.0
C3502 C 0.04541 0.40295 0.97185 0.0
C3503 C 0.05886 0.40203 0.9596 0.0
C3504 C 0.07149 0.39256 0.96325 0.0
C3505 C 0.08468 0.39264 0.95218 0.0
C3506 C 0.08543 0.40225 0.93749 0.0
C3507 C 0.07297 0.41177 0.93381 0.0
C3508 C 0.05974 0.4117 0.94481 0.0
C3509 C 0.04246 0.46783 0.0283 0.0
C3510 C 0.03595 0.47969 0.01845 0.0
C3511 C 0.04113 0.44928 0.01998 0.0
C3512 C 0.03375 0.44259 1.00155 0.0
C3513 C 0.02719 0.45444 0.99171 0.0
C3514 C 0.02804 0.4728 1.0002 0.0
C3515 C 0.03309 0.42326 0.99252 0.0
C3516 C 0.04455 0.42101 0.97985 0.0
C3517 C 0.02189 0.40717 0.99712 0.0
C3518 C 0.00936 0.40894 0.01026 0.0
C3519 C 0.99672 0.41853 0.00701 0.0
C3520 C 0.98529 0.42067 0.01973 0.0
C3521 C 0.98629 0.41315 0.03568 0.0
C3522 C 0.99869 0.4034 0.0389 0.0
C3523 C 0.01018 0.40126 0.02623 0.0
H3524 H 0.97744 0.41483 0.04552 0.0
H3525 H 0.09571 0.40238 0.929 0.0
H3526 H 0.01029 0.79318 0.12592 0.0
H3527 H 0.98148 0.78454 0.1361 0.0
H3528 H 0.00642 0.79684 0.19224 0.0
H3529 H 0.03514 0.80367 0.18177 0.0
H3530 H 0.98218 0.76725 0.18865 0.0
H3531 H 0.98275 0.82657 0.16626 0.0
H3532 H 0.98398 0.84545 0.14177 0.0
H3533 H 0.93962 0.80326 0.10958 0.0
H3534 H 0.93831 0.78404 0.13376 0.0
H3535 H 0.91711 0.7808 0.24144 0.0
H3536 H 0.94214 0.78241 0.22491 0.0
H3537 H 0.9078 0.76833 0.17349 0.0
H3538 H 0.88269 0.76761 0.19019 0.0
H3539 H 0.93399 0.79391 0.17019 0.0
H3540 H 0.93003 0.73636 0.19082 0.0
H3541 H 0.92739 0.7141 0.21232 0.0
H3542 H 0.97597 0.74823 0.24425 0.0
H3543 H 0.97878 0.77083 0.2231 0.0
C3544 C 0.00953 0.79427 0.14045 0.0
C3545 C 0.0249 0.79941 0.15312 0.0
C3546 C 0.99302 0.78941 0.14631 0.0
C3547 C 0.99152 0.79043 0.16508 0.0
C3548 C 0.00702 0.7959 0.1777 0.0
C3549 C 0.02348 0.80001 0.17176 0.0
C3550 C 0.97407 0.78529 0.17182 0.0
C3551 C 0.97179 0.77337 0.18478 0.0
C3552 C 0.95983 0.79206 0.16598 0.0
C3553 C 0.96055 0.80383 0.15171 0.0
C3554 C 0.97332 0.82132 0.15392 0.0
C3555 C 0.97403 0.83206 0.1401 0.0
C3556 C 0.96192 0.82554 0.12411 0.0
C3557 C 0.94902 0.80829 0.12194 0.0
C3558 C 0.94829 0.79747 0.13569 0.0
C3559 C 0.91484 0.77774 0.22661 0.0
C3560 C 0.89788 0.77393 0.21715 0.0
C3561 C 0.92921 0.77857 0.21711 0.0
C3562 C 0.92699 0.7751 0.19784 0.0
C3563 C 0.90998 0.77104 0.18833 0.0
C3564 C 0.89559 0.77057 0.19787 0.0
C3565 C 0.94258 0.77681 0.18783 0.0
C3566 C 0.9444 0.78783 0.17411 0.0
C3567 C 0.95625 0.76884 0.19263 0.0
C3568 C 0.95456 0.75534 0.20544 0.0
C3569 C 0.94009 0.73918 0.2025 0.0
C3570 C 0.93857 0.7265 0.21462 0.0
C3571 C 0.95149 0.72976 0.22965 0.0
C3572 C 0.96597 0.74571 0.2326 0.0
C3573 C 0.96755 0.75845 0.22054 0.0
H3574 H 0.9503 0.71991 0.23901 0.0
H3575 H 0.9625 0.83387 0.11342 0.0
H3576 H 0.52726 0.3159 0.1463 0.0
H3577 H 0.54157 0.3451 0.13614 0.0
H3578 H 0.51368 0.32153 0.08156 0.0
H3579 H 0.50049 0.29186 0.0915 0.0
H3580 H 0.54661 0.33484 0.08018 0.0
H3581 H 0.50507 0.35821 0.11565 0.0
H3582 H 0.49327 0.36532 0.14448 0.0
H3583 H 0.54384 0.40158 0.16961 0.0
H3584 H 0.556 0.39439 0.14105 0.0
H3585 H 0.54432 0.40515 0.03125 0.0
H3586 H 0.54095 0.37985 0.0488 0.0
H3587 H 0.57305 0.41939 0.09576 0.0
H3588 H 0.5754 0.44513 0.07826 0.0
H3589 H 0.54623 0.40009 0.10625 0.0
H3590 H 0.58713 0.38154 0.0711 0.0
H3591 H 0.60113 0.37438 0.04383 0.0
H3592 H 0.55488 0.32978 0.01958 0.0
H3593 H 0.54051 0.33681 0.04658 0.0
C3594 C 0.52382 0.31731 0.1323 0.0
C3595 C 0.51254 0.30204 0.11968 0.0
C3596 C 0.53203 0.33391 0.1265 0.0
C3597 C 0.52855 0.33557 0.10814 0.0
C3598 C 0.51655 0.32053 0.09579 0.0
C3599 C 0.50883 0.30374 0.10146 0.0
C3600 C 0.53815 0.35228 0.10125 0.0
C3601 C 0.54639 0.34911 0.08576 0.0
C3602 C 0.53899 0.37102 0.10935 0.0
C3603 C 0.53148 0.37557 0.12631 0.0
C3604 C 0.51368 0.3676 0.12736 0.0
C3605 C 0.50693 0.37164 0.14366 0.0
C3606 C 0.51781 0.38383 0.15889 0.0
C3607 C 0.53544 0.39208 0.15783 0.0
C3608 C 0.54227 0.38802 0.1416 0.0
C3609 C 0.55091 0.40827 0.04521 0.0
C3610 C 0.56022 0.42679 0.0535 0.0
C3611 C 0.54915 0.39383 0.05519 0.0
C3612 C 0.55717 0.3976 0.07346 0.0
C3613 C 0.56693 0.41616 0.08162 0.0
C3614 C 0.56832 0.43076 0.0717 0.0
C3615 C 0.55354 0.38245 0.08434 0.0
C3616 C 0.54669 0.38589 0.10075 0.0
C3617 C 0.55421 0.36395 0.07725 0.0
C3618 C 0.56276 0.35971 0.0609 0.0
C3619 C 0.57991 0.37027 0.05991 0.0
C3620 C 0.58792 0.36622 0.0445 0.0
C3621 C 0.57891 0.35163 0.02999 0.0
C3622 C 0.56186 0.34106 0.03084 0.0
C3623 C 0.5538 0.34503 0.04622 0.0
H3624 H 0.58514 0.34851 0.01808 0.0
H3625 H 0.51256 0.38692 0.17149 0.0
H3626 H 0.03511 0.32803 0.38929 0.0
H3627 H 0.00608 0.32097 0.37172 0.0
H3628 H 0.02769 0.31076 0.32147 0.0
H3629 H 0.05681 0.31822 0.33886 0.0
H3630 H 0.00698 0.33307 0.3195 0.0
H3631 H 1.00347 0.27399 0.33906 0.0
H3632 H 0.00553 0.25322 0.36136 0.0
H3633 H 0.96645 0.27162 0.38894 0.0
H3634 H 0.96435 0.29274 0.36699 0.0
H3635 H 0.92296 0.30107 0.26604 0.0
H3636 H 0.95186 0.30058 0.27984 0.0
H3637 H 0.93712 0.31204 0.33373 0.0
H3638 H 0.90839 0.31258 0.3201 0.0
H3639 H 0.9547 0.28588 0.33144 0.0
H3640 H 0.96037 0.34703 0.31544 0.0
H3641 H 0.95941 0.37041 0.29564 0.0
H3642 H 0.99513 0.35039 0.26371 0.0
H3643 H 0.99601 0.32664 0.28312 0.0
C3644 C 0.03367 0.32434 0.3745 0.0
C3645 C 0.04818 0.32374 0.36541 0.0
C3646 C 0.01709 0.32012 0.36452 0.0
C3647 C 0.01479 0.31499 0.34538 0.0
C3648 C 0.02927 0.31457 0.33627 0.0
C3649 C 0.04587 0.31894 0.34621 0.0
C3650 C 0.99742 0.31119 0.33476 0.0
C3651 C 0.9956 0.32245 0.32178 0.0
C3652 C 0.9826 0.29772 0.33825 0.0
C3653 C 0.98386 0.28505 0.35147 0.0
C3654 C 0.99542 0.27372 0.34998 0.0
C3655 C 0.99658 0.26187 0.36254 0.0
C3656 C 0.98616 0.26113 0.37658 0.0
C3657 C 0.97453 0.27222 0.37807 0.0
C3658 C 0.97334 0.28412 0.36557 0.0
C3659 C 0.92592 0.30338 0.28082 0.0
C3660 C 0.91354 0.30691 0.29204 0.0
C3661 C 0.94234 0.30307 0.28864 0.0
C3662 C 0.94656 0.30644 0.30775 0.0
C3663 C 0.93401 0.30932 0.31894 0.0
C3664 C 0.91763 0.30958 0.31114 0.0
C3665 C 0.96428 0.30788 0.31629 0.0
C3666 C 0.96616 0.29622 0.3289 0.0
C3667 C 0.97916 0.32117 0.31266 0.0
C3668 C 0.97799 0.33484 0.3005 0.0
C3669 C 0.96777 0.3474 0.304 0.0
C3670 C 0.9673 0.36077 0.2929 0.0
C3671 C 0.97714 0.36183 0.27837 0.0
C3672 C 0.98745 0.3495 0.27491 0.0
C3673 C 0.98791 0.33606 0.28593 0.0
H3674 H 0.97682 0.37225 0.26985 0.0
H3675 H 0.98707 0.25193 0.38628 0.0
H3676 H 0.96881 0.68458 0.62618 0.0
H3677 H 0.98143 0.65968 0.61274 0.0
H3678 H 0.02823 0.70254 0.60777 0.0
H3679 H 0.01507 0.72708 0.61964 0.0
H3680 H 0.0192 0.67943 0.57844 0.0
H3681 H 0.02717 0.67309 0.64081 0.0
H3682 H 0.01961 0.66892 0.67147 0.0
H3683 H 0.98296 0.61502 0.64826 0.0
H3684 H 0.99014 0.61897 0.61744 0.0
H3685 H 0.06051 0.60741 0.54995 0.0
H3686 H 0.05582 0.63299 0.57222 0.0
H3687 H 1.00061 0.60389 0.56486 0.0
H3688 H 0.00512 0.57879 0.5421 0.0
H3689 H 0.01905 0.62148 0.60339 0.0
H3690 H 0.00976 0.63222 0.5403 0.0
H3691 H 0.01885 0.63764 0.51048 0.0
H3692 H 0.06094 0.68587 0.53748 0.0
H3693 H 0.05232 0.68043 0.56752 0.0
C3694 C 0.98153 0.68845 0.62163 0.0
C3695 C 0.99078 0.70744 0.62309 0.0
C3696 C 0.98891 0.67437 0.61444 0.0
C3697 C 0.00585 0.67935 0.60952 0.0
C3698 C 0.0151 0.69843 0.61136 0.0
C3699 C 0.00752 0.71238 0.61787 0.0
C3700 C 0.01346 0.66485 0.60094 0.0
C3701 C 0.01956 0.66701 0.5842 0.0
C3702 C 0.01379 0.64861 0.60837 0.0
C3703 C 0.00909 0.6464 0.62681 0.0
C3704 C 0.01736 0.66044 0.64222 0.0
C3705 C 0.01318 0.65809 0.65964 0.0
C3706 C 1.00079 0.64173 0.66181 0.0
C3707 C 0.99254 0.62769 0.64656 0.0
C3708 C 0.99668 0.62997 0.62912 0.0
C3709 C 0.04744 0.60652 0.55328 0.0
C3710 C 0.03305 0.59159 0.5443 0.0
C3711 C 0.04483 0.62095 0.56597 0.0
C3712 C 0.02792 0.62007 0.56999 0.0
C3713 C 0.01374 0.60456 0.56182 0.0
C3714 C 0.01626 0.59046 0.54878 0.0
C3715 C 0.02446 0.6362 0.58107 0.0
C3716 C 0.0191 0.63426 0.59812 0.0
C3717 C 0.02512 0.65288 0.57416 0.0
C3718 C 0.03065 0.65565 0.55615 0.0
C3719 C 0.02117 0.64374 0.53991 0.0
C3720 C 0.02618 0.64687 0.52296 0.0
C3721 C 0.04053 0.66202 0.52209 0.0
C3722 C 0.04989 0.67407 0.53818 0.0
C3723 C 0.04498 0.67094 0.55516 0.0
H3724 H 0.04433 0.66448 0.50895 0.0
H3725 H 0.9976 0.63992 0.67531 0.0
H3726 H 0.62448 0.78811 0.85196 0.0
H3727 H 0.6471 0.78349 0.83312 0.0
H3728 H 0.67637 0.84209 0.85184 0.0
H3729 H 0.65391 0.84657 0.87117 0.0
H3730 H 0.67066 0.82755 0.81202 0.0
H3731 H 0.69297 0.81568 0.86918 0.0
H3732 H 0.69 0.80151 0.89684 0.0
H3733 H 0.6757 0.74586 0.86361 0.0
H3734 H 0.67833 0.75975 0.8357 0.0
H3735 H 0.75055 0.82398 0.78168 0.0
H3736 H 0.72672 0.82867 0.79774 0.0
H3737 H 0.7044 0.76817 0.79044 0.0
H3738 H 0.72903 0.76323 0.77513 0.0
H3739 H 0.70607 0.78405 0.82455 0.0
H3740 H 0.68661 0.79832 0.76655 0.0
H3741 H 0.68959 0.81463 0.74022 0.0
H3742 H 0.69908 0.86821 0.77624 0.0
H3743 H 0.69675 0.85233 0.80281 0.0
C3744 C 0.63587 0.79987 0.85213 0.0
C3745 C 0.63784 0.81756 0.86301 0.0
C3746 C 0.64865 0.79727 0.8414 0.0
C3747 C 0.66326 0.81247 0.84125 0.0
C3748 C 0.66511 0.83027 0.85194 0.0
C3749 C 0.65249 0.83276 0.863 0.0
C3750 C 0.67669 0.80953 0.83001 0.0
C3751 C 0.6786 0.81823 0.81476 0.0
C3752 C 0.68667 0.79716 0.83366 0.0
C3753 C 0.68571 0.78873 0.85038 0.0
C3754 C 0.68911 0.80042 0.86778 0.0
C3755 C 0.68749 0.79245 0.88349 0.0
C3756 C 0.68263 0.77279 0.88198 0.0
C3757 C 0.67946 0.76108 0.86475 0.0
C3758 C 0.68104 0.76899 0.84898 0.0
C3759 C 0.74049 0.81158 0.78319 0.0
C3760 C 0.74174 0.7932 0.77719 0.0
C3761 C 0.72676 0.81433 0.7923 0.0
C3762 C 0.71368 0.79878 0.79505 0.0
C3763 C 0.7144 0.78036 0.78836 0.0
C3764 C 0.72838 0.77756 0.7795 0.0
C3765 C 0.70004 0.80189 0.80615 0.0
C3766 C 0.6981 0.79326 0.82154 0.0
C3767 C 0.6902 0.81458 0.80272 0.0
C3768 C 0.6916 0.82412 0.78668 0.0
C3769 C 0.6895 0.81359 0.76886 0.0
C3770 C 0.69112 0.82278 0.75389 0.0
C3771 C 0.69464 0.84246 0.75655 0.0
C3772 C 0.6965 0.853 0.77418 0.0
C3773 C 0.69504 0.84391 0.78921 0.0
H3774 H 0.69585 0.84955 0.74494 0.0
H3775 H 0.68134 0.76664 0.89417 0.0
H3776 H 0.46731 0.591 0.71221 0.0
H3777 H 0.48336 0.59039 0.68584 0.0
H3778 H 0.47223 0.5298 0.67958 0.0
H3779 H 0.45775 0.53088 0.70713 0.0
H3780 H 0.49894 0.5363 0.66681 0.0
H3781 H 0.45287 0.5644 0.64922 0.0
H3782 H 0.43635 0.58817 0.65278 0.0
H3783 H 0.48353 0.63251 0.65415 0.0
H3784 H 0.50033 0.60901 0.6508 0.0
H3785 H 0.51817 0.52406 0.57161 0.0
H3786 H 0.50326 0.52519 0.59922 0.0
H3787 H 0.53003 0.58446 0.61584 0.0
H3788 H 0.54535 0.58314 0.58887 0.0
H3789 H 0.49599 0.57896 0.62275 0.0
H3790 H 0.54143 0.55189 0.63827 0.0
H3791 H 0.55931 0.52946 0.63591 0.0
H3792 H 0.51431 0.48401 0.63873 0.0
H3793 H 0.49608 0.50615 0.64083 0.0
C3794 C 0.46819 0.57747 0.70525 0.0
C3795 C 0.46076 0.56099 0.71224 0.0
C3796 C 0.47732 0.577 0.68958 0.0
C3797 C 0.47893 0.55987 0.67921 0.0
C3798 C 0.47158 0.54344 0.68646 0.0
C3799 C 0.463 0.54402 0.7025 0.0
C3800 C 0.48818 0.55889 0.66135 0.0
C3801 C 0.49775 0.54549 0.65716 0.0
C3802 C 0.48791 0.57099 0.64817 0.0
C3803 C 0.47783 0.58501 0.64993 0.0
C3804 C 0.45969 0.57923 0.65032 0.0
C3805 C 0.45029 0.59265 0.65232 0.0
C3806 C 0.45889 0.61184 0.65373 0.0
C3807 C 0.47689 0.61765 0.65308 0.0
C3808 C 0.48635 0.6043 0.65113 0.0
C3809 C 0.52069 0.53747 0.58089 0.0
C3810 C 0.53291 0.55362 0.57721 0.0
C3811 C 0.5122 0.5381 0.59707 0.0
C3812 C 0.51514 0.55499 0.61033 0.0
C3813 C 0.52706 0.57113 0.60634 0.0
C3814 C 0.53588 0.57036 0.59055 0.0
C3815 C 0.50609 0.55604 0.62811 0.0
C3816 C 0.49679 0.56956 0.63232 0.0
C3817 C 0.5066 0.54406 0.64124 0.0
C3818 C 0.51734 0.53061 0.63943 0.0
C3819 C 0.53529 0.53706 0.63813 0.0
C3820 C 0.5455 0.52442 0.63691 0.0
C3821 C 0.53794 0.5053 0.6371 0.0
C3822 C 0.52014 0.49881 0.63852 0.0
C3823 C 0.50986 0.5114 0.63973 0.0
H3824 H 0.54588 0.49554 0.6362 0.0
H3825 H 0.4516 0.62221 0.65529 0.0
H3826 H 0.80275 0.21245 0.98367 0.0
H3827 H 0.78968 0.21923 0.95545 0.0
H3828 H 0.76311 0.15983 0.9371 0.0
H3829 H 0.77671 0.15287 0.96496 0.0
H3830 H 0.77705 0.17807 0.90984 0.0
H3831 H 0.73648 0.18736 0.9536 0.0
H3832 H 0.72978 0.19972 0.98395 0.0
H3833 H 0.75927 0.25588 0.98034 0.0
H3834 H 0.76594 0.24384 0.9499 0.0
H3835 H 0.74151 0.21795 0.84012 0.0
H3836 H 0.73919 0.19824 0.86396 0.0
H3837 H 0.76726 0.2473 0.90449 0.0
H3838 H 0.76869 0.26703 0.88144 0.0
H3839 H 0.74307 0.22503 0.91831 0.0
H3840 H 0.78671 0.21851 0.87827 0.0
H3841 H 0.79767 0.20888 0.84956 0.0
H3842 H 0.7692 0.15098 0.84775 0.0
H3843 H 0.7577 0.16035 0.87621 0.0
C3844 C 0.79456 0.20084 0.97333 0.0
C3845 C 0.79082 0.18221 0.97625 0.0
C3846 C 0.7869 0.20471 0.95745 0.0
C3847 C 0.77505 0.19003 0.94467 0.0
C3848 C 0.77211 0.17126 0.94701 0.0
C3849 C 0.78005 0.16734 0.96275 0.0
C3850 C 0.76578 0.19455 0.92893 0.0
C3851 C 0.76918 0.18793 0.91147 0.0
C3852 C 0.75571 0.20747 0.93136 0.0
C3853 C 0.75166 0.21471 0.94956 0.0
C3854 C 0.74152 0.20233 0.95933 0.0
C3855 C 0.7377 0.20928 0.9765 0.0
C3856 C 0.74409 0.22857 0.98407 0.0
C3857 C 0.75427 0.24096 0.97444 0.0
C3858 C 0.75798 0.2341 0.9572 0.0
C3859 C 0.74656 0.22448 0.85428 0.0
C3860 C 0.75505 0.24392 0.85918 0.0
C3861 C 0.7454 0.21325 0.86766 0.0
C3862 C 0.75328 0.22129 0.88566 0.0
C3863 C 0.76095 0.24086 0.89064 0.0
C3864 C 0.76172 0.25212 0.8775 0.0
C3865 C 0.75526 0.20953 0.89925 0.0
C3866 C 0.75028 0.21456 0.91637 0.0
C3867 C 0.76444 0.19564 0.89654 0.0
C3868 C 0.77092 0.19021 0.87909 0.0
C3869 C 0.7825 0.20378 0.87157 0.0
C3870 C 0.78887 0.19836 0.85537 0.0
C3871 C 0.78403 0.17935 0.84675 0.0
C3872 C 0.7729 0.16571 0.85439 0.0
C3873 C 0.7664 0.17108 0.87052 0.0
H3874 H 0.78897 0.17518 0.83422 0.0
H3875 H 0.74117 0.23392 0.99739 0.0
H3876 H 0.15151 0.51539 0.18985 0.0
H3877 H 0.13782 0.52386 0.16265 0.0
H3878 H 0.12782 0.57116 0.19698 0.0
H3879 H 0.14116 0.56255 0.22396 0.0
H3880 H 0.09846 0.54585 0.17717 0.0
H3881 H 0.15334 0.5822 0.16696 0.0
H3882 H 0.18497 0.5891 0.16523 0.0
H3883 H 0.17517 0.54238 0.12026 0.0
H3884 H 0.14345 0.53509 0.12182 0.0
H3885 H 0.05265 0.56167 0.09757 0.0
H3886 H 0.07441 0.56806 0.12491 0.0
H3887 H 0.09201 0.5204 0.10208 0.0
H3888 H 0.07023 0.5141 0.07471 0.0
H3889 H 0.11942 0.55326 0.11749 0.0
H3890 H 0.06468 0.51493 0.1321 0.0
H3891 H 0.03342 0.50782 0.13581 0.0
H3892 H 0.04381 0.55967 0.17476 0.0
H3893 H 0.07511 0.56722 0.17105 0.0
C3894 C 0.14649 0.52763 0.19135 0.0
C3895 C 0.14677 0.5381 0.20863 0.0
C3896 C 0.13897 0.53262 0.17598 0.0
C3897 C 0.13196 0.54814 0.17803 0.0
C3898 C 0.13322 0.55919 0.19529 0.0
C3899 C 0.14062 0.55417 0.21056 0.0
C3900 C 0.12085 0.55087 0.16267 0.0
C3901 C 0.10308 0.54802 0.16423 0.0
C3902 C 0.12705 0.55348 0.14596 0.0
C3903 C 0.14602 0.55808 0.14451 0.0
C3904 C 0.15793 0.57337 0.15671 0.0
C3905 C 0.17588 0.57736 0.15577 0.0
C3906 C 0.18208 0.56619 0.14264 0.0
C3907 C 0.17034 0.55105 0.13039 0.0
C3908 C 0.15236 0.54701 0.13126 0.0
C3909 C 0.06097 0.55241 0.09871 0.0
C3910 C 0.05965 0.53708 0.08469 0.0
C3911 C 0.07346 0.55619 0.11406 0.0
C3912 C 0.08465 0.54465 0.11533 0.0
C3913 C 0.08341 0.52941 0.10116 0.0
C3914 C 0.07088 0.52562 0.08583 0.0
C3915 C 0.09699 0.54772 0.13193 0.0
C3916 C 0.11493 0.55165 0.13057 0.0
C3917 C 0.09099 0.54628 0.14898 0.0
C3918 C 0.07216 0.54176 0.1511 0.0
C3919 C 0.06026 0.5249 0.14131 0.0
C3920 C 0.04254 0.52078 0.14344 0.0
C3921 C 0.03662 0.53332 0.15546 0.0
C3922 C 0.04841 0.55 0.16541 0.0
C3923 C 0.06613 0.55421 0.16329 0.0
H3924 H 0.0229 0.53008 0.15711 0.0
H3925 H 0.19598 0.56926 0.14195 0.0
H3926 H 0.82947 0.87403 0.47517 0.0
H3927 H 0.82686 0.86299 0.44211 0.0
H3928 H 0.77587 0.8252 0.44278 0.0
H3929 H 0.77853 0.83643 0.47608 0.0
H3930 H 0.7948 0.80678 0.42421 0.0
H3931 H 0.78007 0.86352 0.42166 0.0
H3932 H 0.7811 0.89729 0.42705 0.0
H3933 H 0.83016 0.9109 0.40601 0.0
H3934 H 0.82956 0.87722 0.40073 0.0
H3935 H 0.77504 0.78426 0.32666 0.0
H3936 H 0.77576 0.79528 0.35932 0.0
H3937 H 0.8295 0.82821 0.36298 0.0
H3938 H 0.82887 0.81708 0.33002 0.0
H3939 H 0.80763 0.84867 0.37872 0.0
H3940 H 0.82057 0.78928 0.38173 0.0
H3941 H 0.81499 0.75476 0.37253 0.0
H3942 H 0.76428 0.74589 0.39009 0.0
H3943 H 0.7695 0.78039 0.39921 0.0
C3944 C 0.81762 0.86352 0.46819 0.0
C3945 C 0.8042 0.85606 0.47808 0.0
C3946 C 0.81609 0.85728 0.44927 0.0
C3947 C 0.80112 0.84332 0.43982 0.0
C3948 C 0.78754 0.836 0.44972 0.0
C3949 C 0.78902 0.84242 0.4687 0.0
C3950 C 0.80034 0.83558 0.41993 0.0
C3951 C 0.79738 0.81598 0.41427 0.0
C3952 C 0.80386 0.84746 0.40682 0.0
C3953 C 0.80489 0.86786 0.41106 0.0
C3954 C 0.79123 0.87374 0.41848 0.0
C3955 C 0.7917 0.89286 0.42143 0.0
C3956 C 0.80572 0.90624 0.41694 0.0
C3957 C 0.81934 0.90053 0.40954 0.0
C3958 C 0.81894 0.88143 0.40657 0.0
C3959 C 0.78711 0.79369 0.33443 0.0
C3960 C 0.80191 0.79983 0.32576 0.0
C3961 C 0.7875 0.79993 0.35314 0.0
C3962 C 0.80269 0.81253 0.36364 0.0
C3963 C 0.81765 0.81844 0.35513 0.0
C3964 C 0.81733 0.81199 0.33636 0.0
C3965 C 0.80256 0.8201 0.38328 0.0
C3966 C 0.80523 0.8396 0.38881 0.0
C3967 C 0.79839 0.80812 0.39614 0.0
C3968 C 0.7954 0.78739 0.39107 0.0
C3969 C 0.80821 0.77996 0.38356 0.0
C3970 C 0.80511 0.7604 0.37837 0.0
C3971 C 0.78928 0.74814 0.3807 0.0
C3972 C 0.77654 0.7554 0.3883 0.0
C3973 C 0.77957 0.77496 0.39352 0.0
H3974 H 0.7869 0.733 0.37664 0.0
H3975 H 0.80601 0.92102 0.41914 0.0
H3976 H 0.49674 0.54565 0.81089 0.0
H3977 H 0.5106 0.54569 0.84153 0.0
H3978 H 0.46769 0.56065 0.86488 0.0
H3979 H 0.45457 0.56221 0.83422 0.0
H3980 H 0.49377 0.57566 0.88972 0.0
H3981 H 0.47519 0.51102 0.85626 0.0
H3982 H 0.47402 0.48696 0.82906 0.0
H3983 H 0.53007 0.49937 0.83782 0.0
H3984 H 0.53155 0.5236 0.865 0.0
H3985 H 0.51274 0.54934 0.97579 0.0
H3986 H 0.49976 0.55143 0.94552 0.0
H3987 H 0.54129 0.53379 0.92159 0.0
H3988 H 0.55318 0.52978 0.95185 0.0
H3989 H 0.51625 0.52087 0.89719 0.0
H3990 H 0.53504 0.58517 0.93138 0.0
H3991 H 0.53605 0.60857 0.95909 0.0
H3992 H 0.4801 0.59693 0.9495 0.0
H3993 H 0.47876 0.57338 0.92182 0.0
C3994 C 0.49022 0.54908 0.82251 0.0
C3995 C 0.4743 0.55379 0.81965 0.0
C3996 C 0.49814 0.54884 0.8403 0.0
C3997 C 0.49012 0.55236 0.85616 0.0
C3998 C 0.47441 0.55762 0.85333 0.0
C3999 C 0.46678 0.55847 0.83556 0.0
C4000 C 0.49775 0.55005 0.87528 0.0
C4001 C 0.4985 0.56353 0.89119 0.0
C4002 C 0.50442 0.53454 0.87802 0.0
C4003 C 0.50347 0.5191 0.86258 0.0
C4004 C 0.48724 0.5085 0.85243 0.0
C4005 C 0.48653 0.49489 0.83699 0.0
C4006 C 0.50196 0.49165 0.83171 0.0
C4007 C 0.51813 0.50188 0.84194 0.0
C4008 C 0.51891 0.51551 0.85739 0.0
C4009 C 0.51915 0.54589 0.96409 0.0
C4010 C 0.53421 0.53957 0.96657 0.0
C4011 C 0.5118 0.54738 0.94654 0.0
C4012 C 0.5197 0.54367 0.93065 0.0
C4013 C 0.53469 0.53703 0.93318 0.0
C4014 C 0.54164 0.53479 0.95068 0.0
C4015 C 0.51239 0.5465 0.91166 0.0
C4016 C 0.51165 0.53309 0.89576 0.0
C4017 C 0.50583 0.56213 0.90898 0.0
C4018 C 0.5068 0.57753 0.92454 0.0
C4019 C 0.52298 0.58776 0.93509 0.0
C4020 C 0.52361 0.60098 0.95083 0.0
C4021 C 0.50814 0.6042 0.95605 0.0
C4022 C 0.49206 0.59443 0.94541 0.0
C4023 C 0.49136 0.5812 0.92966 0.0
H4024 H 0.50858 0.61422 0.96836 0.0
H4025 H 0.50139 0.4812 0.81968 0.0
H4026 H 0.81039 0.16416 0.09268 0.0
H4027 H 0.80359 0.1813 0.12071 0.0
H4028 H 0.77288 0.20739 0.08785 0.0
H4029 H 0.78054 0.19122 0.06013 0.0
H4030 H 0.79466 0.23274 0.11239 0.0
H4031 H 0.75248 0.17373 0.11391 0.0
H4032 H 0.74255 0.13919 0.11241 0.0
H4033 H 0.78114 0.14409 0.15834 0.0
H4034 H 0.79124 0.17865 0.16011 0.0
H4035 H 0.78172 0.28456 0.19555 0.0
H4036 H 0.77384 0.26286 0.1657 0.0
H4037 H 0.80269 0.22706 0.18651 0.0
H4038 H 0.80948 0.24781 0.21625 0.0
H4039 H 0.77485 0.20583 0.16603 0.0
H4040 H 0.82059 0.26256 0.16044 0.0
H4041 H 0.83239 0.29688 0.16154 0.0
H4042 H 0.78878 0.29572 0.12267 0.0
H4043 H 0.7767 0.26142 0.12147 0.0
C4044 C 0.80233 0.1737 0.09165 0.0
C4045 C 0.79641 0.17702 0.07461 0.0
C4046 C 0.79818 0.18317 0.10751 0.0
C4047 C 0.78756 0.19542 0.10626 0.0
C4048 C 0.78112 0.19806 0.08907 0.0
C4049 C 0.78564 0.18902 0.07335 0.0
C4050 C 0.7848 0.20716 0.12283 0.0
C4051 C 0.78989 0.22682 0.12396 0.0
C4052 C 0.77886 0.19943 0.13794 0.0
C4053 C 0.77261 0.17873 0.13712 0.0
C4054 C 0.75884 0.16741 0.12367 0.0
C4055 C 0.75317 0.14785 0.12278 0.0
C4056 C 0.76121 0.13945 0.13527 0.0
C4057 C 0.77489 0.15061 0.14871 0.0
C4058 C 0.78054 0.17019 0.14971 0.0
C4059 C 0.78626 0.272 0.19357 0.0
C4060 C 0.79628 0.26782 0.20788 0.0
C4061 C 0.78176 0.25964 0.17667 0.0
C4062 C 0.78784 0.24346 0.17389 0.0
C4063 C 0.79771 0.23933 0.18838 0.0
C4064 C 0.80174 0.2513 0.20528 0.0
C4065 C 0.78521 0.23138 0.15571 0.0
C4066 C 0.7791 0.21168 0.15424 0.0
C4067 C 0.79039 0.23903 0.14028 0.0
C4068 C 0.79768 0.25956 0.14102 0.0
C4069 C 0.8135 0.26968 0.15222 0.0
C4070 C 0.82024 0.2891 0.15284 0.0
C4071 C 0.81131 0.29848 0.14222 0.0
C4072 C 0.79566 0.28845 0.13091 0.0
C4073 C 0.78888 0.26903 0.13024 0.0
H4074 H 0.81655 0.31352 0.14273 0.0
H4075 H 0.75684 0.1243 0.13453 0.0
H4076 H 0.12372 0.57124 0.29998 0.0
H4077 H 0.12443 0.58644 0.3315 0.0
H4078 H 0.15952 0.55587 0.3502 0.0
H4079 H 0.15902 0.5406 0.31858 0.0
H4080 H 0.12684 0.54836 0.36211 0.0
H4081 H 0.17484 0.6027 0.36183 0.0
H4082 H 0.1924 0.63084 0.35172 0.0
H4083 H 0.14945 0.65539 0.35338 0.0
H4084 H 0.13165 0.62741 0.36349 0.0
H4085 H 0.11525 0.57476 0.45128 0.0
H4086 H 0.13424 0.57851 0.42751 0.0
H4087 H 0.09794 0.60033 0.39714 0.0
H4088 H 0.07851 0.59588 0.42037 0.0
H4089 H 0.13681 0.6147 0.39387 0.0
H4090 H 0.08711 0.5596 0.3867 0.0
H4091 H 0.06719 0.5313 0.39419 0.0
H4092 H 0.11006 0.5073 0.40201 0.0
H4093 H 0.13033 0.53577 0.39508 0.0
C4094 C 0.13154 0.56767 0.3108 0.0
C4095 C 0.14084 0.55425 0.30696 0.0
C4096 C 0.13234 0.5768 0.3287 0.0
C4097 C 0.14233 0.57254 0.343 0.0
C4098 C 0.15204 0.55957 0.33919 0.0
C4099 C 0.15139 0.55055 0.32124 0.0
C4100 C 0.13893 0.57772 0.36174 0.0
C4101 C 0.12958 0.56286 0.36937 0.0
C4102 C 0.14169 0.59667 0.37054 0.0
C4103 C 0.15188 0.61289 0.36325 0.0
C4104 C 0.16906 0.61398 0.35976 0.0
C4105 C 0.17909 0.62995 0.35414 0.0
C4106 C 0.17203 0.64487 0.35186 0.0
C4107 C 0.15491 0.64383 0.35515 0.0
C4108 C 0.14486 0.62794 0.36086 0.0
C4109 C 0.11163 0.58096 0.43983 0.0
C4110 C 0.09525 0.58455 0.43732 0.0
C4111 C 0.12252 0.58323 0.42641 0.0
C4112 C 0.11722 0.58941 0.41064 0.0
C4113 C 0.10214 0.5956 0.40936 0.0
C4114 C 0.09108 0.59306 0.42265 0.0
C4115 C 0.12498 0.58531 0.39409 0.0
C4116 C 0.13473 0.60025 0.38683 0.0
C4117 C 0.12218 0.5664 0.38519 0.0
C4118 C 0.11032 0.55005 0.39091 0.0
C4119 C 0.09238 0.54854 0.39053 0.0
C4120 C 0.081 0.5324 0.39452 0.0
C4121 C 0.08737 0.51754 0.39862 0.0
C4122 C 0.10516 0.51885 0.39888 0.0
C4123 C 0.11661 0.53503 0.39503 0.0
H4124 H 0.07852 0.50499 0.40159 0.0
H4125 H 0.17985 0.65726 0.3476 0.0
H4126 H 0.81335 0.89185 0.60316 0.0
H4127 H 0.80963 0.87734 0.63037 0.0
H4128 H 0.78847 0.82235 0.59589 0.0
H4129 H 0.79264 0.83675 0.56854 0.0
H4130 H 0.76878 0.82941 0.6253 0.0
H4131 H 0.82775 0.83198 0.61665 0.0
H4132 H 0.85794 0.8472 0.61199 0.0
H4133 H 0.86579 0.88534 0.66345 0.0
H4134 H 0.83552 0.87053 0.66827 0.0
H4135 H 0.76868 0.77335 0.69358 0.0
H4136 H 0.77229 0.78811 0.66687 0.0
H4137 H 0.80703 0.83878 0.70076 0.0
H4138 H 0.80449 0.8232 0.72744 0.0
H4139 H 0.81957 0.83457 0.67132 0.0
H4140 H 0.7605 0.83224 0.68025 0.0
H4141 H 0.72983 0.81819 0.68424 0.0
H4142 H 0.72148 0.7808 0.63226 0.0
H4143 H 0.75216 0.79446 0.62807 0.0
C4144 C 0.80789 0.87665 0.6013 0.0
C4145 C 0.80335 0.86553 0.58353 0.0
C4146 C 0.80582 0.86834 0.61695 0.0
C4147 C 0.79882 0.84867 0.61535 0.0
C4148 C 0.79392 0.83754 0.59761 0.0
C4149 C 0.79637 0.84581 0.58194 0.0
C4150 C 0.79672 0.83982 0.63216 0.0
C4151 C 0.7799 0.83033 0.63526 0.0
C4152 C 0.81111 0.84138 0.64552 0.0
C4153 C 0.82931 0.85029 0.64272 0.0
C4154 C 0.83586 0.84374 0.62689 0.0
C4155 C 0.85299 0.85227 0.62423 0.0
C4156 C 0.86376 0.86727 0.63739 0.0
C4157 C 0.85742 0.87374 0.65325 0.0
C4158 C 0.84028 0.86528 0.65596 0.0
C4159 C 0.77699 0.78774 0.6955 0.0
C4160 C 0.78582 0.79725 0.71303 0.0
C4161 C 0.77893 0.79632 0.68006 0.0
C4162 C 0.78948 0.815 0.68152 0.0
C4163 C 0.79853 0.82451 0.69903 0.0
C4164 C 0.79682 0.81571 0.71451 0.0
C4165 C 0.79148 0.82414 0.66473 0.0
C4166 C 0.80833 0.83367 0.66153 0.0
C4167 C 0.77705 0.82273 0.65131 0.0
C4168 C 0.75868 0.81427 0.65394 0.0
C4169 C 0.75216 0.82091 0.66975 0.0
C4170 C 0.73477 0.81304 0.67203 0.0
C4171 C 0.72372 0.79859 0.65853 0.0
C4172 C 0.73005 0.79198 0.64271 0.0
C4173 C 0.74744 0.79979 0.64038 0.0
H4174 H 0.71025 0.79254 0.6603 0.0
H4175 H 0.87702 0.87385 0.63531 0.0
H4176 H 0.75334 0.4562 0.49085 0.0
H4177 H 0.72957 0.46919 0.50041 0.0
H4178 H 0.74522 0.46624 0.55655 0.0
H4179 H 0.76933 0.45403 0.5472 0.0
H4180 H 0.70664 0.45155 0.54108 0.0
H4181 H 0.75662 0.50492 0.55313 0.0
H4182 H 0.78421 0.52421 0.54557 0.0
H4183 H 0.75606 0.53575 0.49888 0.0
H4184 H 0.7283 0.51615 0.50595 0.0
H4185 H 0.65136 0.5108 0.57045 0.0
H4186 H 0.67541 0.49607 0.56915 0.0
H4187 H 0.67892 0.50512 0.51376 0.0
H4188 H 0.65546 0.52035 0.51514 0.0
H4189 H 0.71044 0.51786 0.53513 0.0
H4190 H 0.65959 0.46148 0.52483 0.0
H4191 H 0.63418 0.43873 0.53278 0.0
H4192 H 0.66598 0.43243 0.57964 0.0
H4193 H 0.69158 0.45518 0.57209 0.0
C4194 C 0.75159 0.45834 0.50517 0.0
C4195 C 0.76305 0.45446 0.51838 0.0
C4196 C 0.73812 0.46564 0.51059 0.0
C4197 C 0.73585 0.46855 0.52913 0.0
C4198 C 0.74691 0.46401 0.54222 0.0
C4199 C 0.76065 0.45724 0.53689 0.0
C4200 C 0.72242 0.47734 0.53489 0.0
C4201 C 0.70744 0.46613 0.54013 0.0
C4202 C 0.72392 0.49637 0.53384 0.0
C4203 C 0.74039 0.50896 0.52999 0.0
C4204 C 0.75632 0.51149 0.54119 0.0
C4205 C 0.77199 0.52247 0.537 0.0
C4206 C 0.77189 0.53117 0.52173 0.0
C4207 C 0.7561 0.52899 0.51069 0.0
C4208 C 0.74039 0.51796 0.5148 0.0
C4209 C 0.65728 0.5096 0.558 0.0
C4210 C 0.65158 0.51677 0.5429 0.0
C4211 C 0.67088 0.50108 0.55725 0.0
C4212 C 0.67887 0.49954 0.54136 0.0
C4213 C 0.6729 0.50623 0.52615 0.0
C4214 C 0.65938 0.51476 0.5269 0.0
C4215 C 0.69399 0.49179 0.54055 0.0
C4216 C 0.70955 0.50334 0.5364 0.0
C4217 C 0.69313 0.47316 0.5431 0.0
C4218 C 0.67743 0.46031 0.54807 0.0
C4219 C 0.6611 0.45551 0.537 0.0
C4220 C 0.64667 0.44256 0.5414 0.0
C4221 C 0.64841 0.4343 0.55678 0.0
C4222 C 0.6646 0.43892 0.5678 0.0
C4223 C 0.67908 0.45183 0.56347 0.0
H4224 H 0.63722 0.42423 0.56009 0.0
H4225 H 0.78404 0.53963 0.51847 0.0
H4226 H 0.22988 0.15675 0.47137 0.0
H4227 H 0.19994 0.1399 0.47468 0.0
H4228 H 0.21937 0.12581 0.52506 0.0
H4229 H 0.24927 0.14113 0.52076 0.0
H4230 H 0.19619 0.09828 0.51144 0.0
H4231 H 0.19433 0.16251 0.5195 0.0
H4232 H 0.19745 0.19421 0.51201 0.0
H4233 H 0.16064 0.16972 0.46305 0.0
H4234 H 0.15744 0.13786 0.47017 0.0
H4235 H 0.11159 0.06545 0.538 0.0
H4236 H 0.14093 0.08587 0.53679 0.0
H4237 H 0.12436 0.09042 0.48143 0.0
H4238 H 0.09497 0.0702 0.48283 0.0
H4239 H 0.14572 0.12356 0.49871 0.0
H4240 H 0.14926 0.05846 0.49326 0.0
H4241 H 0.14755 0.02812 0.50338 0.0
H4242 H 0.18261 0.05751 0.55248 0.0
H4243 H 0.18437 0.088 0.54271 0.0
C4244 C 0.22774 0.1498 0.483 0.0
C4245 C 0.24207 0.15006 0.49561 0.0
C4246 C 0.21048 0.14039 0.48512 0.0
C4247 C 0.20692 0.1317 0.50041 0.0
C4248 C 0.22137 0.13211 0.51302 0.0
C4249 C 0.23862 0.14091 0.51054 0.0
C4250 C 0.18841 0.12163 0.50305 0.0
C4251 C 0.18532 0.10417 0.50896 0.0
C4252 C 0.17376 0.12873 0.49965 0.0
C4253 C 0.17578 0.14782 0.49527 0.0
C4254 C 0.187 0.16389 0.50707 0.0
C4255 C 0.18877 0.18188 0.50291 0.0
C4256 C 0.17929 0.18397 0.48704 0.0
C4257 C 0.168 0.16808 0.47532 0.0
C4258 C 0.16619 0.15006 0.47942 0.0
C4259 C 0.11409 0.07128 0.52578 0.0
C4260 C 0.10081 0.06657 0.51066 0.0
C4261 C 0.131 0.08274 0.52495 0.0
C4262 C 0.13522 0.08957 0.50886 0.0
C4263 C 0.12167 0.08544 0.49403 0.0
C4264 C 0.10477 0.07395 0.49486 0.0
C4265 C 0.15371 0.10041 0.50717 0.0
C4266 C 0.15673 0.11792 0.50136 0.0
C4267 C 0.16843 0.0937 0.51123 0.0
C4268 C 0.16677 0.07546 0.51736 0.0
C4269 C 0.15643 0.05843 0.5063 0.0
C4270 C 0.1555 0.04122 0.51195 0.0
C4271 C 0.16492 0.04089 0.52859 0.0
C4272 C 0.17528 0.05778 0.53962 0.0
C4273 C 0.17625 0.07501 0.53404 0.0
H4274 H 0.16423 0.02755 0.53291 0.0
H4275 H 0.18066 0.19791 0.48384 0.0
H4276 H 0.1787 0.93953 0.76011 0.0
H4277 H 0.19054 0.91231 0.75731 0.0
H4278 H 0.23798 0.94621 0.74273 0.0
H4279 H 0.22516 0.97277 0.7436 0.0
H4280 H 0.23862 0.91648 0.72737 0.0
H4281 H 0.22335 0.92194 0.79077 0.0
H4282 H 0.20259 0.92091 0.81338 0.0
H4283 H 0.17164 0.86607 0.78446 0.0
H4284 H 0.19209 0.86689 0.76162 0.0
H4285 H 0.29227 0.85422 0.74405 0.0
H4286 H 0.27737 0.87912 0.74417 0.0
H4287 H 0.22903 0.8394 0.7494 0.0
H4288 H 0.24399 0.81439 0.74922 0.0
H4289 H 0.2274 0.86997 0.7685 0.0
H4290 H 0.23941 0.86057 0.70836 0.0
H4291 H 0.25482 0.85779 0.68142 0.0
H4292 H 0.28641 0.91532 0.69895 0.0
H4293 H 0.27139 0.91834 0.7262 0.0
C4294 C 0.19172 0.94136 0.75633 0.0
C4295 C 0.20073 0.95908 0.7523 0.0
C4296 C 0.19888 0.92546 0.75504 0.0
C4297 C 0.21602 0.92633 0.75053 0.0
C4298 C 0.22491 0.94413 0.74638 0.0
C4299 C 0.21747 0.95979 0.74699 0.0
C4300 C 0.22458 0.90923 0.74966 0.0
C4301 C 0.23635 0.90683 0.73691 0.0
C4302 C 0.22137 0.89486 0.76079 0.0
C4303 C 0.20912 0.89459 0.77443 0.0
C4304 C 0.21207 0.90972 0.78923 0.0
C4305 C 0.20036 0.90917 0.80206 0.0
C4306 C 0.18579 0.89346 0.80033 0.0
C4307 C 0.1829 0.87824 0.78577 0.0
C4308 C 0.19452 0.87876 0.77288 0.0
C4309 C 0.27842 0.85053 0.74511 0.0
C4310 C 0.26968 0.83165 0.74652 0.0
C4311 C 0.26968 0.86508 0.74508 0.0
C4312 C 0.25156 0.86189 0.74659 0.0
C4313 C 0.24285 0.84302 0.74817 0.0
C4314 C 0.25156 0.82838 0.74799 0.0
C4315 C 0.24202 0.878 0.74691 0.0
C4316 C 0.22999 0.88002 0.75936 0.0
C4317 C 0.24458 0.89166 0.73514 0.0
C4318 C 0.25446 0.88958 0.71949 0.0
C4319 C 0.24985 0.87253 0.70665 0.0
C4320 C 0.25847 0.87093 0.69128 0.0
C4321 C 0.27163 0.88635 0.68851 0.0
C4322 C 0.27626 0.90337 0.70115 0.0
C4323 C 0.26772 0.90502 0.71658 0.0
H4324 H 0.27821 0.88513 0.67653 0.0
H4325 H 0.17675 0.89305 0.8103 0.0
H4326 H 0.35909 0.93515 0.97681 0.0
H4327 H 0.38985 0.94495 0.99064 0.0
H4328 H 0.376 0.97272 0.04004 0.0
H4329 H 0.34553 0.96404 0.02566 0.0
H4330 H 0.39845 0.99597 0.02599 0.0
H4331 H 0.40044 0.93415 0.0432 0.0
H4332 H 0.39791 0.8998 0.03871 0.0
H4333 H 0.42137 0.9028 0.98956 0.0
H4334 H 0.42473 0.93711 0.99406 0.0
H4335 H 0.49282 0.02971 0.05065 0.0
H4336 H 0.46177 0.01597 0.05231 0.0
H4337 H 0.45542 0.98311 0.99784 0.0
H4338 H 0.48621 0.9966 0.99599 0.0
H4339 H 0.44412 0.96208 0.02435 0.0
H4340 H 0.44091 0.01759 1.0017 0.0
H4341 H 0.44587 0.0514 1.00056 0.0
H4342 H 0.42291 0.05954 0.04988 0.0
H4343 H 0.41851 0.02593 0.05175 0.0
C4344 C 0.36285 0.94371 0.99045 0.0
C4345 C 0.35049 0.94993 0.99988 0.0
C4346 C 0.38019 0.94865 0.9986 0.0
C4347 C 0.38507 0.95921 0.0165 0.0
C4348 C 0.3724 0.96447 0.02625 0.0
C4349 C 0.35522 0.96005 0.01789 0.0
C4350 C 0.40356 0.96866 0.02309 0.0
C4351 C 0.40844 0.98853 0.02634 0.0
C4352 C 0.41652 0.95893 0.02261 0.0
C4353 C 0.41254 0.93807 0.01882 0.0
C4354 C 0.40474 0.92738 0.03128 0.0
C4355 C 0.40327 0.90799 0.02881 0.0
C4356 C 0.40917 0.89913 0.01375 0.0
C4357 C 0.41668 0.90964 1.00115 0.0
C4358 C 0.41848 0.92905 0.00371 0.0
C4359 C 0.48475 0.01957 0.03905 0.0
C4360 C 0.49182 0.01388 0.02331 0.0
C4361 C 0.46713 0.01188 0.04001 0.0
C4362 C 0.45669 0.99849 0.0253 0.0
C4363 C 0.46357 0.99333 0.00936 0.0
C4364 C 0.48107 1.00105 0.00832 0.0
C4365 C 0.43863 0.98903 0.02649 0.0
C4366 C 0.43401 0.96939 0.02487 0.0
C4367 C 0.42584 0.99885 0.02742 0.0
C4368 C 0.42978 0.01935 0.02712 0.0
C4369 C 0.43737 0.0267 0.01259 0.0
C4370 C 0.44001 0.04581 0.01175 0.0
C4371 C 0.4348 0.05764 0.02518 0.0
C4372 C 0.42703 0.05039 0.03953 0.0
C4373 C 0.42459 0.03135 0.04057 0.0
H4374 H 0.43673 0.07242 0.02444 0.0
H4375 H 0.40807 0.88415 0.01195 0.0
H4376 H 0.92109 0.60175 0.78325 0.0
H4377 H 0.90709 0.62213 0.76843 0.0
H4378 H 0.85936 0.59903 0.79002 0.0
H4379 H 0.87301 0.57742 0.8034 0.0
H4380 H 0.85256 0.59947 0.75563 0.0
H4381 H 0.89121 0.64542 0.80738 0.0
H4382 H 0.92076 0.661 0.82442 0.0
H4383 H 0.93788 0.68106 0.77645 0.0
H4384 H 0.9085 0.66536 0.75906 0.0
H4385 H 0.80303 0.6627 0.75816 0.0
H4386 H 0.82106 0.64137 0.76159 0.0
H4387 H 0.86123 0.67604 0.73671 0.0
H4388 H 0.84333 0.69808 0.73427 0.0
H4389 H 0.87537 0.66938 0.76555 0.0
H4390 H 0.83677 0.62844 0.71495 0.0
H4391 H 0.80912 0.61044 0.69521 0.0
H4392 H 0.79307 0.57982 0.73776 0.0
H4393 H 0.82054 0.59775 0.75783 0.0
C4394 C 0.90779 0.60156 0.78526 0.0
C4395 C 0.89816 0.58866 0.79485 0.0
C4396 C 0.89979 0.61308 0.77674 0.0
C4397 C 0.88231 0.61233 0.77842 0.0
C4398 C 0.8729 0.59984 0.78863 0.0
C4399 C 0.88071 0.58779 0.79652 0.0
C4400 C 0.87344 0.62395 0.76902 0.0
C4401 C 0.8574 0.61479 0.75792 0.0
C4402 C 0.88042 0.64376 0.77107 0.0
C4403 C 0.89771 0.65412 0.78191 0.0
C4404 C 0.90128 0.65318 0.80049 0.0
C4405 C 0.91801 0.66199 0.81019 0.0
C4406 C 0.9312 0.67198 0.80151 0.0
C4407 C 0.92766 0.6733 0.78315 0.0
C4408 C 0.91097 0.66447 0.77337 0.0
C4409 C 0.81557 0.66546 0.75312 0.0
C4410 C 0.82189 0.68171 0.74583 0.0
C4411 C 0.82579 0.65322 0.75488 0.0
C4412 C 0.84231 0.65683 0.74895 0.0
C4413 C 0.84843 0.6729 0.74116 0.0
C4414 C 0.83828 0.6854 0.73973 0.0
C4415 C 0.85382 0.64501 0.75307 0.0
C4416 C 0.8705 0.65406 0.76301 0.0
C4417 C 0.84751 0.62503 0.74977 0.0
C4418 C 0.83073 0.6145 0.73791 0.0
C4419 C 0.82729 0.61798 0.72016 0.0
C4420 C 0.81166 0.60776 0.70889 0.0
C4421 C 0.79935 0.594 0.71522 0.0
C4422 C 0.80263 0.59046 0.73286 0.0
C4423 C 0.81825 0.60062 0.74417 0.0
H4424 H 0.78727 0.58608 0.70646 0.0
H4425 H 0.94416 0.67872 0.80902 0.0
H4426 H 0.85477 0.67158 1.00273 0.0
H4427 H 0.88144 0.66252 0.01068 0.0
H4428 H 0.85567 0.62946 0.04794 0.0
H4429 H 0.82921 0.63899 0.04051 0.0
H4430 H 0.88803 0.64669 0.06295 0.0
H4431 H 0.86158 0.61022 1.00267 0.0
H4432 H 0.85019 0.60576 0.96994 0.0
H4433 H 0.90017 0.63817 0.95983 0.0
H4434 H 0.91175 0.6431 0.99257 0.0
H4435 H 0.93875 0.57893 0.06203 0.0
H4436 H 0.91711 0.59682 0.06148 0.0
H4437 H 0.94806 0.63387 0.03054 0.0
H4438 H 0.97013 0.6167 0.03168 0.0
H4439 H 0.91483 0.61718 0.01331 0.0
H4440 H 0.94268 0.65085 0.07198 0.0
H4441 H 0.95485 0.65753 0.10465 0.0
H4442 H 0.90401 0.63244 0.11826 0.0
H4443 H 0.89157 0.62515 0.08561 0.0
C4444 C 0.85472 0.66228 0.01252 0.0
C4445 C 0.83966 0.65577 0.0207 0.0
C4446 C 0.87004 0.65709 0.01709 0.0
C4447 C 0.87061 0.64496 0.02971 0.0
C4448 C 0.85567 0.63874 0.03812 0.0
C4449 C 0.84043 0.64409 0.03371 0.0
C4450 C 0.88648 0.63827 0.03377 0.0
C4451 C 0.89374 0.63999 0.0521 0.0
C4452 C 0.89446 0.63013 0.01969 0.0
C4453 C 0.88745 0.62721 1.00007 0.0
C4454 C 0.87008 0.61652 0.99348 0.0
C4455 C 0.8636 0.6139 0.97493 0.0
C4456 C 0.87443 0.62173 0.96282 0.0
C4457 C 0.89178 0.63216 0.96923 0.0
C4458 C 0.8983 0.63489 0.98777 0.0
C4459 C 0.9413 0.59121 0.05556 0.0
C4460 C 0.95619 0.59605 0.0466 0.0
C4461 C 0.92882 0.60144 0.05524 0.0
C4462 C 0.93086 0.61666 0.04588 0.0
C4463 C 0.9461 0.62212 0.03776 0.0
C4464 C 0.95866 0.61209 0.03827 0.0
C4465 C 0.91624 0.6253 0.04247 0.0
C4466 C 0.90917 0.62389 0.02422 0.0
C4467 C 0.90859 0.63377 0.05666 0.0
C4468 C 0.91622 0.63718 0.07624 0.0
C4469 C 0.93413 0.6464 0.08187 0.0
C4470 C 0.94107 0.65038 0.10041 0.0
C4471 C 0.93022 0.64535 0.11351 0.0
C4472 C 0.91241 0.63627 0.10809 0.0
C4473 C 0.90541 0.63219 0.08955 0.0
H4474 H 0.9356 0.64856 0.12787 0.0
H4475 H 0.8694 0.61966 0.94846 0.0
H4476 H 0.22004 0.0635 0.76079 0.0
H4477 H 0.23547 0.09604 0.75838 0.0
H4478 H 0.19348 0.11566 0.7786 0.0
H4479 H 0.17808 0.08329 0.7811 0.0
H4480 H 0.20471 0.13527 0.75195 0.0
H4481 H 0.23387 0.12499 0.80653 0.0
H4482 H 0.24755 0.10558 0.82373 0.0
H4483 H 0.28698 0.10884 0.78805 0.0
H4484 H 0.27338 0.12814 0.77053 0.0
H4485 H 0.25535 0.23574 0.76685 0.0
H4486 H 0.2366 0.20405 0.76836 0.0
H4487 H 0.27971 0.18069 0.75944 0.0
H4488 H 0.29826 0.21196 0.75859 0.0
H4489 H 0.26623 0.16293 0.78138 0.0
H4490 H 0.23649 0.17452 0.72673 0.0
H4491 H 0.22012 0.19058 0.70807 0.0
H4492 H 0.18008 0.18363 0.74305 0.0
H4493 H 0.19634 0.16775 0.76205 0.0
C4494 C 0.21408 0.07467 0.76497 0.0
C4495 C 0.19772 0.07021 0.77154 0.0
C4496 C 0.22301 0.09357 0.76353 0.0
C4497 C 0.21603 0.10904 0.76844 0.0
C4498 C 0.19953 0.10451 0.77465 0.0
C4499 C 0.1907 0.08569 0.77627 0.0
C4500 C 0.22608 0.12975 0.76771 0.0
C4501 C 0.21813 0.14131 0.75857 0.0
C4502 C 0.2437 0.13828 0.77607 0.0
C4503 C 0.25263 0.12793 0.78725 0.0
C4504 C 0.24551 0.12162 0.80243 0.0
C4505 C 0.25321 0.11061 0.81219 0.0
C4506 C 0.26812 0.10597 0.80698 0.0
C4507 C 0.27544 0.11247 0.79208 0.0
C4508 C 0.26778 0.12349 0.78226 0.0
C4509 C 0.26085 0.22389 0.76504 0.0
C4510 C 0.27868 0.22703 0.76251 0.0
C4511 C 0.24994 0.20539 0.76582 0.0
C4512 C 0.25624 0.18904 0.76389 0.0
C4513 C 0.27398 0.1924 0.76119 0.0
C4514 C 0.28478 0.21068 0.76057 0.0
C4515 C 0.24514 0.16871 0.76512 0.0
C4516 C 0.25287 0.1571 0.77457 0.0
C4517 C 0.22726 0.16024 0.75704 0.0
C4518 C 0.21777 0.17024 0.74597 0.0
C4519 C 0.2243 0.17662 0.73056 0.0
C4520 C 0.21502 0.18565 0.71989 0.0
C4521 C 0.19912 0.1882 0.72442 0.0
C4522 C 0.19244 0.18171 0.7396 0.0
C4523 C 0.20168 0.17272 0.75033 0.0
H4524 H 0.19194 0.19516 0.71612 0.0
H4525 H 0.27401 0.09733 0.81448 0.0
H4526 H 0.3889 0.00564 0.29384 0.0
H4527 H 0.36917 0.97399 0.2831 0.0
H4528 H 0.41334 0.95118 0.27872 0.0
H4529 H 0.43334 0.98307 0.28904 0.0
H4530 H 0.38394 0.93406 0.24983 0.0
H4531 H 0.39867 0.94711 0.31447 0.0
H4532 H 0.40452 0.96623 0.34564 0.0
H4533 H 0.35134 0.96906 0.34127 0.0
H4534 H 0.34528 0.9502 0.30992 0.0
H4535 H 0.34002 0.84304 0.26193 0.0
H4536 H 0.36052 0.87452 0.26635 0.0
H4537 H 0.31753 0.8995 0.26993 0.0
H4538 H 0.29693 0.86769 0.26628 0.0
H4539 H 0.34716 0.91482 0.29757 0.0
H4540 H 0.33345 0.89339 0.23232 0.0
H4541 H 0.33014 0.8665 0.20759 0.0
H4542 H 0.38575 0.87479 0.21484 0.0
H4543 H 0.38918 0.90045 0.2413 0.0
C4544 C 0.39441 0.99389 0.2907 0.0
C4545 C 0.41254 0.99654 0.29265 0.0
C4546 C 0.38319 0.97598 0.28427 0.0
C4547 C 0.39 0.96057 0.28021 0.0
C4548 C 0.40806 0.96314 0.28166 0.0
C4549 C 0.41934 0.98116 0.28785 0.0
C4550 C 0.37812 0.94167 0.27718 0.0
C4551 C 0.37592 0.92968 0.26019 0.0
C4552 C 0.36807 0.93617 0.29098 0.0
C4553 C 0.37158 0.94745 0.30982 0.0
C4554 C 0.38828 0.95198 0.3201 0.0
C4555 C 0.39163 0.96273 0.3378 0.0
C4556 C 0.37832 0.9689 0.34541 0.0
C4557 C 0.36164 0.96429 0.33534 0.0
C4558 C 0.35824 0.95357 0.31762 0.0
C4559 C 0.33506 0.85535 0.26351 0.0
C4560 C 0.31723 0.85354 0.26343 0.0
C4561 C 0.34664 0.8731 0.26607 0.0
C4562 C 0.34026 0.88893 0.26802 0.0
C4563 C 0.32239 0.88715 0.26823 0.0
C4564 C 0.31077 0.86927 0.26606 0.0
C4565 C 0.35251 0.90741 0.27008 0.0
C4566 C 0.35493 0.91928 0.28703 0.0
C4567 C 0.36316 0.91225 0.25648 0.0
C4568 C 0.36156 0.89887 0.23894 0.0
C4569 C 0.34502 0.88955 0.22869 0.0
C4570 C 0.3431 0.87438 0.21438 0.0
C4571 C 0.35777 0.86911 0.20928 0.0
C4572 C 0.37439 0.87893 0.21872 0.0
C4573 C 0.37631 0.89366 0.23358 0.0
H4574 H 0.35623 0.85736 0.19814 0.0
H4575 H 0.38093 0.97721 0.35913 0.0
H4576 H 0.58336 0.3738 0.61874 0.0
H4577 H 0.57821 0.40125 0.60755 0.0
H4578 H 0.57865 0.3743 0.55212 0.0
H4579 H 0.58569 0.34772 0.56369 0.0
H4580 H 0.59159 0.40768 0.5522 0.0
H4581 H 0.53804 0.38042 0.57645 0.0
H4582 H 0.52069 0.36917 0.60025 0.0
H4583 H 0.54146 0.42369 0.63527 0.0
H4584 H 0.559 0.43518 0.61174 0.0
H4585 H 0.54643 0.46914 0.51318 0.0
H4586 H 0.55249 0.44117 0.52331 0.0
H4587 H 0.57175 0.47394 0.57766 0.0
H4588 H 0.56639 0.50189 0.56743 0.0
H4589 H 0.54808 0.43782 0.57704 0.0
H4590 H 0.60064 0.46534 0.55373 0.0
H4591 H 0.61833 0.47789 0.53074 0.0
H4592 H 0.5994 0.42397 0.49442 0.0
H4593 H 0.58141 0.41117 0.51713 0.0
C4594 C 0.58236 0.37372 0.60416 0.0
C4595 C 0.58485 0.3584 0.59217 0.0
C4596 C 0.57912 0.38944 0.59763 0.0
C4597 C 0.57726 0.38998 0.57871 0.0
C4598 C 0.57985 0.37459 0.56674 0.0
C4599 C 0.58382 0.35922 0.57337 0.0
C4600 C 0.57294 0.40651 0.57146 0.0
C4601 C 0.58176 0.41387 0.55748 0.0
C4602 C 0.56054 0.41547 0.57841 0.0
C4603 C 0.54991 0.40857 0.59243 0.0
C4604 C 0.53893 0.38995 0.58926 0.0
C4605 C 0.52907 0.38355 0.60269 0.0
C4606 C 0.53001 0.39569 0.61927 0.0
C4607 C 0.54075 0.41429 0.62243 0.0
C4608 C 0.55063 0.42076 0.60905 0.0
C4609 C 0.55187 0.47029 0.52729 0.0
C4610 C 0.55591 0.48774 0.53951 0.0
C4611 C 0.55544 0.45434 0.53306 0.0
C4612 C 0.56269 0.45536 0.55129 0.0
C4613 C 0.56623 0.47268 0.56355 0.0
C4614 C 0.56316 0.48868 0.55767 0.0
C4615 C 0.56648 0.43849 0.55781 0.0
C4616 C 0.55765 0.43126 0.57165 0.0
C4617 C 0.57881 0.4297 0.55075 0.0
C4618 C 0.58949 0.43738 0.53701 0.0
C4619 C 0.60008 0.45623 0.54074 0.0
C4620 C 0.61018 0.46338 0.52778 0.0
C4621 C 0.60987 0.45178 0.51106 0.0
C4622 C 0.59954 0.43297 0.50733 0.0
C4623 C 0.5894 0.42575 0.52025 0.0
H4624 H 0.61777 0.45731 0.50108 0.0
H4625 H 0.52238 0.3907 0.62966 0.0
H4626 H 0.47541 0.78912 0.34263 0.0
H4627 H 0.44752 0.79116 0.32795 0.0
H4628 H 0.42228 0.77201 0.37287 0.0
H4629 H 0.45004 0.76849 0.38684 0.0
H4630 H 0.3996 0.75848 0.34495 0.0
H4631 H 0.43492 0.82266 0.36573 0.0
H4632 H 0.46198 0.84888 0.36914 0.0
H4633 H 0.45779 0.84386 0.31069 0.0
H4634 H 0.43074 0.81757 0.30695 0.0
H4635 H 0.32345 0.78606 0.30841 0.0
H4636 H 0.3487 0.78436 0.32944 0.0
H4637 H 0.38214 0.79629 0.28814 0.0
H4638 H 0.3576 0.79817 0.26771 0.0
H4639 H 0.39934 0.81565 0.31894 0.0
H4640 H 0.36535 0.75 0.29847 0.0
H4641 H 0.34073 0.72114 0.29518 0.0
H4642 H 0.34276 0.72878 0.35363 0.0
H4643 H 0.36731 0.75778 0.35726 0.0
C4644 C 0.4639 0.78519 0.34934 0.0
C4645 C 0.4651 0.77863 0.36597 0.0
C4646 C 0.44786 0.78662 0.34102 0.0
C4647 C 0.43254 0.78244 0.34944 0.0
C4648 C 0.43368 0.7755 0.36593 0.0
C4649 C 0.44966 0.77348 0.37398 0.0
C4650 C 0.41555 0.78538 0.34108 0.0
C4651 C 0.39958 0.7712 0.33961 0.0
C4652 C 0.41508 0.80182 0.33386 0.0
C4653 C 0.43085 0.81816 0.33608 0.0
C4654 C 0.43976 0.8272 0.35362 0.0
C4655 C 0.4551 0.84205 0.35561 0.0
C4656 C 0.4616 0.84802 0.34014 0.0
C4657 C 0.45272 0.83925 0.32266 0.0
C4658 C 0.43734 0.82443 0.3206 0.0
C4659 C 0.33626 0.78861 0.30402 0.0
C4660 C 0.33837 0.79232 0.28629 0.0
C4661 C 0.35073 0.78743 0.31597 0.0
C4662 C 0.3676 0.79006 0.31049 0.0
C4663 C 0.36954 0.79425 0.29299 0.0
C4664 C 0.3553 0.79529 0.28119 0.0
C4665 C 0.38347 0.78854 0.32238 0.0
C4666 C 0.39929 0.80307 0.32456 0.0
C4667 C 0.38372 0.7725 0.33036 0.0
C4668 C 0.36806 0.75609 0.32813 0.0
C4669 C 0.36036 0.74568 0.3106 0.0
C4670 C 0.34648 0.72926 0.30868 0.0
C4671 C 0.34029 0.72308 0.32419 0.0
C4672 C 0.34764 0.73355 0.34164 0.0
C4673 C 0.36152 0.74997 0.34364 0.0
H4674 H 0.32997 0.71003 0.32267 0.0
H4675 H 0.47352 0.85946 0.3417 0.0
H4676 H 0.09186 0.76279 0.08024 0.0
H4677 H 0.09158 0.72966 0.07187 0.0
H4678 H 0.03979 0.7121 0.08712 0.0
H4679 H 0.04064 0.74529 0.09664 0.0
H4680 H 0.05697 0.69225 0.10001 0.0
H4681 H 0.04904 0.70665 0.0405 0.0
H4682 H 0.05539 0.72522 0.01611 0.0
H4683 H 0.1062 0.71578 0.01708 0.0
H4684 H 0.10022 0.69736 0.04167 0.0
H4685 H 0.03352 0.59699 0.05467 0.0
H4686 H 0.03684 0.63056 0.06367 0.0
H4687 H 0.09212 0.64275 0.06027 0.0
H4688 H 0.08891 0.60866 0.05103 0.0
H4689 H 0.07494 0.66518 0.04237 0.0
H4690 H 0.0785 0.64662 0.10155 0.0
H4691 H 0.06806 0.62653 0.12381 0.0
H4692 H 0.01982 0.64183 0.12047 0.0
H4693 H 0.02986 0.66179 0.09798 0.0
C4694 C 0.08022 0.75183 0.08125 0.0
C4695 C 0.06613 0.75657 0.08873 0.0
C4696 C 0.08007 0.73284 0.07655 0.0
C4697 C 0.06557 0.7182 0.07863 0.0
C4698 C 0.05118 0.72302 0.08541 0.0
C4699 C 0.05154 0.74199 0.0906 0.0
C4700 C 0.06563 0.69795 0.07442 0.0
C4701 C 0.06073 0.68635 0.08729 0.0
C4702 C 0.07073 0.6901 0.05799 0.0
C4703 C 0.07425 0.70081 0.043 0.0
C4704 C 0.06159 0.70863 0.03556 0.0
C4705 C 0.06512 0.71911 0.02171 0.0
C4706 C 0.08121 0.72173 0.01508 0.0
C4707 C 0.09376 0.71377 0.02224 0.0
C4708 C 0.0903 0.70329 0.03612 0.0
C4709 C 0.04646 0.6067 0.05579 0.0
C4710 C 0.06097 0.60009 0.052 0.0
C4711 C 0.04832 0.62595 0.06111 0.0
C4712 C 0.06474 0.63915 0.06283 0.0
C4713 C 0.07934 0.63273 0.05909 0.0
C4714 C 0.07751 0.61329 0.05387 0.0
C4715 C 0.06627 0.65965 0.06789 0.0
C4716 C 0.07139 0.67123 0.05515 0.0
C4717 C 0.06079 0.66729 0.08416 0.0
C4718 C 0.05491 0.65563 0.09801 0.0
C4719 C 0.06563 0.64563 0.1055 0.0
C4720 C 0.05979 0.63427 0.11816 0.0
C4721 C 0.04328 0.63288 0.12354 0.0
C4722 C 0.03261 0.64292 0.1163 0.0
C4723 C 0.03838 0.65428 0.10362 0.0
H4724 H 0.03877 0.62406 0.13332 0.0
H4725 H 0.08393 0.72988 0.00437 0.0
H4726 H 0.05925 0.26107 0.85102 0.0
H4727 H 0.08755 0.26703 0.83993 0.0
H4728 H 0.1129 0.29856 0.89334 0.0
H4729 H 0.08421 0.29345 0.90425 0.0
H4730 H 0.13033 0.31448 0.8699 0.0
H4731 H 0.11412 0.25123 0.87755 0.0
H4732 H 0.09474 0.21905 0.8756 0.0
H4733 H 0.08987 0.20996 0.81688 0.0
H4734 H 0.10911 0.24219 0.81848 0.0
H4735 H 0.21195 0.29981 0.83949 0.0
H4736 H 0.18701 0.29907 0.8568 0.0
H4737 H 0.15158 0.28195 0.8061 0.0
H4738 H 0.17632 0.28311 0.78888 0.0
H4739 H 0.14215 0.25895 0.83293 0.0
H4740 H 0.16101 0.32602 0.82904 0.0
H4741 H 0.18239 0.35759 0.83522 0.0
H4742 H 0.18584 0.35796 0.89303 0.0
H4743 H 0.16466 0.32624 0.88718 0.0
C4744 C 0.0708 0.26941 0.86042 0.0
C4745 C 0.06935 0.27665 0.87859 0.0
C4746 C 0.08712 0.27271 0.85409 0.0
C4747 C 0.1027 0.28281 0.86584 0.0
C4748 C 0.10125 0.29062 0.8839 0.0
C4749 C 0.08478 0.28765 0.89016 0.0
C4750 C 0.12026 0.28453 0.85921 0.0
C4751 C 0.13295 0.30224 0.86205 0.0
C4752 C 0.12421 0.26866 0.84925 0.0
C4753 C 0.11295 0.24914 0.84813 0.0
C4754 C 0.10887 0.24238 0.86422 0.0
C4755 C 0.09791 0.22414 0.86318 0.0
C4756 C 0.09105 0.21248 0.84613 0.0
C4757 C 0.0952 0.21901 0.83008 0.0
C4758 C 0.10617 0.23725 0.83104 0.0
C4759 C 0.19883 0.29601 0.83208 0.0
C4760 C 0.19614 0.29162 0.81277 0.0
C4761 C 0.18458 0.29566 0.84198 0.0
C4762 C 0.16732 0.29052 0.83279 0.0
C4763 C 0.1647 0.28603 0.81355 0.0
C4764 C 0.17889 0.28677 0.8037 0.0
C4765 C 0.15176 0.28895 0.84292 0.0
C4766 C 0.13952 0.27115 0.84086 0.0
C4767 C 0.14868 0.3046 0.85419 0.0
C4768 C 0.16139 0.32366 0.85765 0.0
C4769 C 0.16645 0.33274 0.84306 0.0
C4770 C 0.17851 0.35069 0.84651 0.0
C4771 C 0.18551 0.35975 0.8645 0.0
C4772 C 0.18043 0.35091 0.87909 0.0
C4773 C 0.16839 0.33295 0.87572 0.0
H4774 H 0.19482 0.37365 0.86714 0.0
H4775 H 0.08254 0.19837 0.84535 0.0
H4776 H 0.61352 0.77558 0.93328 0.0
H4777 H 0.60308 0.74504 0.94249 0.0
H4778 H 0.55093 0.73911 0.91646 0.0
H4779 H 0.56141 0.76973 0.90683 0.0
H4780 H 0.55298 0.73328 0.95312 0.0
H4781 H 0.57024 0.71008 0.89716 0.0
H4782 H 0.5891 0.70847 0.87299 0.0
H4783 H 0.62858 0.69981 0.91113 0.0
H4784 H 0.61003 0.7016 0.93559 0.0
H4785 H 0.53083 0.64315 0.982 0.0
H4786 H 0.53292 0.66781 0.96345 0.0
H4787 H 0.58931 0.68208 0.97397 0.0
H4788 H 0.5873 0.65737 0.9921 0.0
H4789 H 0.57953 0.68042 0.93945 0.0
H4790 H 0.56351 0.70838 0.99643 0.0
H4791 H 0.54485 0.7116 0.02058 0.0
H4792 H 0.503 0.71217 0.98036 0.0
H4793 H 0.52134 0.70869 0.95595 0.0
C4794 C 0.59984 0.76776 0.92944 0.0
C4795 C 0.58824 0.77506 0.91945 0.0
C4796 C 0.59393 0.75026 0.93458 0.0
C4797 C 0.57629 0.7398 0.93001 0.0
C4798 C 0.56463 0.74697 0.91999 0.0
C4799 C 0.57061 0.76441 0.91453 0.0
C4800 C 0.57006 0.72204 0.9369 0.0
C4801 C 0.55842 0.72147 0.94985 0.0
C4802 C 0.5774 0.70685 0.93275 0.0
C4803 C 0.58879 0.70611 0.91823 0.0
C4804 C 0.58301 0.70802 0.90043 0.0
C4805 C 0.59363 0.70702 0.88667 0.0
C4806 C 0.61004 0.70407 0.89053 0.0
C4807 C 0.61587 0.7021 0.90816 0.0
C4808 C 0.6053 0.70308 0.92198 0.0
C4809 C 0.54365 0.65154 0.98031 0.0
C4810 C 0.55889 0.64812 0.98832 0.0
C4811 C 0.54483 0.66567 0.96977 0.0
C4812 C 0.56128 0.67685 0.96737 0.0
C4813 C 0.57647 0.67353 0.97548 0.0
C4814 C 0.5753 0.65934 0.98581 0.0
C4815 C 0.563 0.69198 0.95634 0.0
C4816 C 0.57378 0.69202 0.94253 0.0
C4817 C 0.55489 0.70671 0.95976 0.0
C4818 C 0.54369 0.70798 0.97435 0.0
C4819 C 0.55025 0.70892 0.99272 0.0
C4820 C 0.53975 0.71086 0.00646 0.0
C4821 C 0.52273 0.71201 1.002 0.0
C4822 C 0.51616 0.7112 0.98379 0.0
C4823 C 0.52659 0.70923 0.97 0.0
H4824 H 0.51465 0.7136 0.01267 0.0
H4825 H 0.61823 0.70327 0.87984 0.0
H4826 H 0.05748 0.77509 0.64779 0.0
H4827 H 0.08761 0.77583 0.65807 0.0
H4828 H 0.07261 0.76126 0.7092 0.0
H4829 H 0.04261 0.76108 0.69928 0.0
H4830 H 0.10142 0.78903 0.71476 0.0
H4831 H 0.07916 0.72865 0.67498 0.0
H4832 H 0.06501 0.70641 0.64627 0.0
H4833 H 0.1062 0.73323 0.61806 0.0
H4834 H 0.12044 0.75588 0.64652 0.0
H4835 H 0.17277 0.75587 0.74443 0.0
H4836 H 0.14411 0.75911 0.7337 0.0
H4837 H 0.1648 0.78279 0.68849 0.0
H4838 H 0.19374 0.7801 0.69942 0.0
H4839 H 0.13387 0.7512 0.67887 0.0
H4840 H 0.15545 0.8118 0.71975 0.0
H4841 H 0.16837 0.8339 0.74889 0.0
H4842 H 0.12721 0.80448 0.77566 0.0
H4843 H 0.11415 0.78209 0.74672 0.0
C4844 C 0.06069 0.77223 0.66129 0.0
C4845 C 0.04785 0.76814 0.67283 0.0
C4846 C 0.0778 0.77246 0.66703 0.0
C4847 C 0.08214 0.76829 0.68422 0.0
C4848 C 0.0694 0.76448 0.69586 0.0
C4849 C 0.05235 0.76451 0.69024 0.0
C4850 C 0.10017 0.76861 0.69045 0.0
C4851 C 0.10845 0.78057 0.70703 0.0
C4852 C 0.10931 0.75785 0.68003 0.0
C4853 C 0.10079 0.74413 0.66288 0.0
C4854 C 0.08514 0.72993 0.66263 0.0
C4855 C 0.0771 0.71723 0.64639 0.0
C4856 C 0.08468 0.71844 0.63034 0.0
C4857 C 0.10033 0.73233 0.6305 0.0
C4858 C 0.10839 0.7451 0.64668 0.0
C4859 C 0.17134 0.76221 0.73248 0.0
C4860 C 0.18541 0.76769 0.7227 0.0
C4861 C 0.15498 0.76394 0.72633 0.0
C4862 C 0.15251 0.77114 0.71036 0.0
C4863 C 0.16659 0.77711 0.70082 0.0
C4864 C 0.18301 0.77553 0.70704 0.0
C4865 C 0.13496 0.77152 0.70321 0.0
C4866 C 0.12679 0.75967 0.68649 0.0
C4867 C 0.12576 0.78214 0.71359 0.0
C4868 C 0.13393 0.79519 0.73112 0.0
C4869 C 0.14928 0.80992 0.7319 0.0
C4870 C 0.15659 0.82254 0.74837 0.0
C4871 C 0.14863 0.82057 0.76412 0.0
C4872 C 0.13337 0.80597 0.76345 0.0
C4873 C 0.126 0.79334 0.74702 0.0
H4874 H 0.15428 0.83038 0.77685 0.0
H4875 H 0.07844 0.70859 0.61779 0.0
H4876 H 0.09685 0.37944 0.46099 0.0
H4877 H 0.08965 0.40836 0.47331 0.0
H4878 H 0.08834 0.42358 0.41984 0.0
H4879 H 0.09628 0.39483 0.40756 0.0
H4880 H 0.10077 0.45509 0.44778 0.0
H4881 H 0.05 0.40232 0.43127 0.0
H4882 H 0.03196 0.36947 0.42914 0.0
H4883 H 0.03637 0.37756 0.4878 0.0
H4884 H 0.05453 0.41041 0.49027 0.0
H4885 H 0.03656 0.50316 0.49051 0.0
H4886 H 0.04372 0.47946 0.46806 0.0
H4887 H 0.08422 0.47549 0.50837 0.0
H4888 H 0.07836 0.5004 0.53014 0.0
H4889 H 0.04798 0.44 0.47909 0.0
H4890 H 0.10654 0.49193 0.49195 0.0
H4891 H 0.12079 0.5256 0.49223 0.0
H4892 H 0.09796 0.51915 0.43646 0.0
H4893 H 0.08302 0.48554 0.43603 0.0
C4894 C 0.09564 0.38929 0.45203 0.0
C4895 C 0.09713 0.38503 0.4334 0.0
C4896 C 0.09137 0.40568 0.459 0.0
C4897 C 0.088 0.41775 0.44733 0.0
C4898 C 0.09081 0.41433 0.429 0.0
C4899 C 0.09544 0.39802 0.42206 0.0
C4900 C 0.08014 0.43284 0.4542 0.0
C4901 C 0.0891 0.45178 0.45438 0.0
C4902 C 0.0646 0.42852 0.46233 0.0
C4903 C 0.05367 0.40878 0.46094 0.0
C4904 C 0.04719 0.39705 0.44371 0.0
C4905 C 0.03693 0.37844 0.44244 0.0
C4906 C 0.03304 0.37143 0.45832 0.0
C4907 C 0.03938 0.38302 0.47551 0.0
C4908 C 0.04961 0.40165 0.47685 0.0
C4909 C 0.04734 0.49764 0.49431 0.0
C4910 C 0.05745 0.50412 0.51168 0.0
C4911 C 0.05127 0.48405 0.4816 0.0
C4912 C 0.06491 0.47644 0.48649 0.0
C4913 C 0.07413 0.4819 0.50424 0.0
C4914 C 0.07068 0.49595 0.51666 0.0
C4915 C 0.0692 0.462 0.47357 0.0
C4916 C 0.05944 0.44321 0.47214 0.0
C4917 C 0.08376 0.46648 0.46408 0.0
C4918 C 0.0934 0.48635 0.46409 0.0
C4919 C 0.10435 0.49774 0.47983 0.0
C4920 C 0.11257 0.51681 0.47999 0.0
C4921 C 0.11022 0.52452 0.46436 0.0
C4922 C 0.09971 0.51315 0.44853 0.0
C4923 C 0.09131 0.49412 0.44834 0.0
H4924 H 0.11658 0.53928 0.4645 0.0
H4925 H 0.0251 0.35701 0.45731 0.0
H4926 H 0.46294 0.28106 0.18013 0.0
H4927 H 0.43732 0.28587 0.19379 0.0
H4928 H 0.41957 0.22628 0.19516 0.0
H4929 H 0.4455 0.2215 0.18218 0.0
H4930 H 0.39368 0.24666 0.18009 0.0
H4931 H 0.43373 0.24502 0.23142 0.0
H4932 H 0.46226 0.25326 0.25097 0.0
H4933 H 0.46303 0.31182 0.26079 0.0
H4934 H 0.4346 0.30393 0.24098 0.0
H4935 H 0.33095 0.24596 0.23938 0.0
H4936 H 0.35644 0.24088 0.22646 0.0
H4937 H 0.3799 0.30124 0.23501 0.0
H4938 H 0.35445 0.3066 0.24834 0.0
H4939 H 0.4028 0.28021 0.24472 0.0
H4940 H 0.36056 0.28013 0.19397 0.0
H4941 H 0.33137 0.27005 0.17539 0.0
H4942 H 0.33388 0.21255 0.16551 0.0
H4943 H 0.363 0.22226 0.18423 0.0
C4944 C 0.45345 0.26903 0.18322 0.0
C4945 C 0.456 0.25098 0.18028 0.0
C4946 C 0.43897 0.27177 0.19099 0.0
C4947 C 0.42683 0.25639 0.1954 0.0
C4948 C 0.42896 0.23821 0.19178 0.0
C4949 C 0.44369 0.23555 0.18449 0.0
C4950 C 0.41223 0.25952 0.20447 0.0
C4951 C 0.39554 0.25381 0.19426 0.0
C4952 C 0.415 0.26902 0.22283 0.0
C4953 C 0.43221 0.27394 0.23446 0.0
C4954 C 0.44012 0.25969 0.23751 0.0
C4955 C 0.45623 0.26429 0.24869 0.0
C4956 C 0.4645 0.28307 0.25704 0.0
C4957 C 0.45664 0.29729 0.25425 0.0
C4958 C 0.44053 0.29277 0.24304 0.0
C4959 C 0.34161 0.25819 0.23886 0.0
C4960 C 0.34067 0.27667 0.24482 0.0
C4961 C 0.35608 0.25524 0.23134 0.0
C4962 C 0.3697 0.27072 0.22957 0.0
C4963 C 0.3693 0.28919 0.23625 0.0
C4964 C 0.3548 0.29219 0.24383 0.0
C4965 C 0.38421 0.2675 0.22033 0.0
C4966 C 0.40091 0.27317 0.23051 0.0
C4967 C 0.38138 0.25776 0.20199 0.0
C4968 C 0.36391 0.25191 0.1906 0.0
C4969 C 0.35483 0.26532 0.18794 0.0
C4970 C 0.33831 0.25967 0.17736 0.0
C4971 C 0.33076 0.24067 0.16929 0.0
C4972 C 0.33974 0.22727 0.17176 0.0
C4973 C 0.35626 0.23284 0.18233 0.0
H4974 H 0.31798 0.23633 0.1611 0.0
H4975 H 0.47696 0.2866 0.26574 0.0
H4976 H 0.61672 0.49311 0.32883 0.0
H4977 H 0.60406 0.4945 0.35779 0.0
H4978 H 0.62758 0.55465 0.37089 0.0
H4979 H 0.6394 0.55343 0.3415 0.0
H4980 H 0.63169 0.53535 0.40285 0.0
H4981 H 0.58504 0.5386 0.35814 0.0
H4982 H 0.56352 0.5271 0.33008 0.0
H4983 H 0.54085 0.47607 0.34945 0.0
H4984 H 0.56243 0.48713 0.37751 0.0
H4985 H 0.5896 0.5538 0.48415 0.0
H4986 H 0.60334 0.55347 0.45588 0.0
H4987 H 0.56221 0.50368 0.42963 0.0
H4988 H 0.54826 0.50473 0.45717 0.0
H4989 H 0.56768 0.51787 0.40388 0.0
H4990 H 0.61177 0.50967 0.44575 0.0
H4991 H 0.63292 0.5163 0.47385 0.0
H4992 H 0.66057 0.56897 0.46027 0.0
H4993 H 0.63935 0.56283 0.43226 0.0
C4994 C 0.61922 0.50673 0.33775 0.0
C4995 C 0.62928 0.52315 0.33221 0.0
C4996 C 0.61186 0.50754 0.35459 0.0
C4997 C 0.61463 0.52472 0.36729 0.0
C4998 C 0.62496 0.54106 0.3619 0.0
C4999 C 0.63178 0.54035 0.34476 0.0
C5000 C 0.60672 0.52573 0.38575 0.0
C5001 C 0.61765 0.53173 0.40293 0.0
C5002 C 0.58836 0.52032 0.38675 0.0
C5003 C 0.57551 0.5136 0.36982 0.0
C5004 C 0.5756 0.52483 0.35632 0.0
C5005 C 0.56336 0.51841 0.34044 0.0
C5006 C 0.55086 0.50084 0.33795 0.0
C5007 C 0.55056 0.48966 0.35137 0.0
C5008 C 0.5628 0.496 0.36726 0.0
C5009 C 0.58357 0.5426 0.47248 0.0
C5010 C 0.56764 0.52915 0.47362 0.0
C5011 C 0.59158 0.5423 0.45595 0.0
C5012 C 0.58436 0.52831 0.43972 0.0
C5013 C 0.56856 0.51489 0.44119 0.0
C5014 C 0.5605 0.51538 0.45743 0.0
C5015 C 0.59261 0.52751 0.42131 0.0
C5016 C 0.58174 0.5215 0.40404 0.0
C5017 C 0.61103 0.53212 0.42027 0.0
C5018 C 0.62384 0.53591 0.43703 0.0
C5019 C 0.62229 0.52274 0.44883 0.0
C5020 C 0.63428 0.5264 0.46474 0.0
C5021 C 0.64805 0.54307 0.46887 0.0
C5022 C 0.64986 0.55609 0.45707 0.0
C5023 C 0.63784 0.55254 0.44119 0.0
H5024 H 0.65734 0.54588 0.48118 0.0
H5025 H 0.54138 0.4959 0.32565 0.0
H5026 H 0.31371 0.93134 0.05734 0.0
H5027 H 0.32506 0.91957 0.08319 0.0
H5028 H 0.30732 0.86264 0.05187 0.0
H5029 H 0.2958 0.87416 0.02589 0.0
H5030 H 0.29291 0.86951 0.08384 0.0
H5031 H 0.34933 0.88268 0.06291 0.0
H5032 H 0.37531 0.90291 0.05368 0.0
H5033 H 0.38753 0.93838 0.10697 0.0
H5034 H 0.36115 0.91869 0.11639 0.0
H5035 H 0.32053 0.81283 0.1368 0.0
H5036 H 0.32332 0.83199 0.11303 0.0
H5037 H 0.32927 0.88213 0.15351 0.0
H5038 H 0.32601 0.86297 0.17734 0.0
H5039 H 0.35178 0.88236 0.11952 0.0
H5040 H 0.29481 0.87263 0.13952 0.0
H5041 H 0.2673 0.85504 0.1487 0.0
H5042 H 0.25561 0.81601 0.09739 0.0
H5043 H 0.2833 0.83313 0.08811 0.0
C5044 C 0.31218 0.91629 0.05596 0.0
C5045 C 0.30346 0.90355 0.03981 0.0
C5046 C 0.31901 0.90973 0.07056 0.0
C5047 C 0.31719 0.8904 0.06912 0.0
C5048 C 0.30894 0.87768 0.05293 0.0
C5049 C 0.30206 0.88421 0.03832 0.0
C5050 C 0.32053 0.88299 0.08555 0.0
C5051 C 0.30583 0.8721 0.0915 0.0
C5052 C 0.33728 0.88744 0.09591 0.0
C5053 C 0.35314 0.89931 0.09028 0.0
C5054 C 0.35745 0.8949 0.07263 0.0
C5055 C 0.37236 0.90623 0.0674 0.0
C5056 C 0.38328 0.92182 0.07979 0.0
C5057 C 0.37918 0.92621 0.09743 0.0
C5058 C 0.3642 0.91501 0.1027 0.0
C5059 C 0.32296 0.82801 0.14071 0.0
C5060 C 0.32321 0.83653 0.15889 0.0
C5061 C 0.32459 0.83886 0.1272 0.0
C5062 C 0.3266 0.85828 0.13181 0.0
C5063 C 0.32795 0.86711 0.15 0.0
C5064 C 0.32599 0.85617 0.16351 0.0
C5065 C 0.32422 0.86844 0.11721 0.0
C5066 C 0.33895 0.87991 0.11177 0.0
C5067 C 0.30743 0.8649 0.10736 0.0
C5068 C 0.29131 0.8539 0.11332 0.0
C5069 C 0.28658 0.86004 0.13039 0.0
C5070 C 0.2709 0.85022 0.13556 0.0
C5071 C 0.25976 0.83435 0.12368 0.0
C5072 C 0.2643 0.82824 0.10662 0.0
C5073 C 0.28 0.83796 0.10142 0.0
H5074 H 0.24757 0.82685 0.12765 0.0
H5075 H 0.39487 0.93053 0.07573 0.0
H5076 H 0.96767 0.52134 0.84808 0.0
H5077 H 0.97712 0.51806 0.8792 0.0
H5078 H 0.97275 0.57376 0.9 0.0
H5079 H 0.96269 0.57692 0.86879 0.0
H5080 H 0.00818 0.56338 0.90309 0.0
H5081 H 0.94689 0.54362 0.91259 0.0
H5082 H 0.91676 0.52259 0.9049 0.0
H5083 H 0.93534 0.47494 0.91291 0.0
H5084 H 0.96565 0.49562 0.92028 0.0
H5085 H 0.04567 0.57443 0.99243 0.0
H5086 H 0.02527 0.5748 0.96597 0.0
H5087 H 0.0065 0.5137 0.95653 0.0
H5088 H 0.02569 0.51361 0.98393 0.0
H5089 H 0.98109 0.5253 0.9472 0.0
H5090 H 0.03915 0.53813 0.93371 0.0
H5091 H 0.07089 0.55361 0.93765 0.0
H5092 H 0.06098 0.60639 0.93152 0.0
H5093 H 0.02916 0.5913 0.92787 0.0
C5094 C 0.96861 0.53281 0.85935 0.0
C5095 C 0.96493 0.54958 0.85625 0.0
C5096 C 0.97368 0.53077 0.87702 0.0
C5097 C 0.97536 0.54559 0.89164 0.0
C5098 C 0.97118 0.56213 0.88869 0.0
C5099 C 0.96567 0.564 0.87101 0.0
C5100 C 0.98456 0.54523 0.90927 0.0
C5101 C 1.00224 0.55542 0.913 0.0
C5102 C 0.97688 0.5336 0.92121 0.0
C5103 C 0.9586 0.52119 0.91683 0.0
C5104 C 0.9446 0.52864 0.91251 0.0
C5105 C 0.92747 0.51677 0.90825 0.0
C5106 C 0.92414 0.49743 0.90838 0.0
C5107 C 0.93793 0.48992 0.9128 0.0
C5108 C 0.95509 0.50171 0.91703 0.0
C5109 C 0.03709 0.56119 0.98464 0.0
C5110 C 0.03735 0.54397 0.98963 0.0
C5111 C 0.02548 0.56135 0.96965 0.0
C5112 C 0.0148 0.54422 0.959 0.0
C5113 C 0.01468 0.52706 0.96449 0.0
C5114 C 0.02574 0.52698 0.97994 0.0
C5115 C 1.00471 0.54416 0.94149 0.0
C5116 C 0.98703 0.53354 0.93751 0.0
C5117 C 0.01262 0.55452 0.92867 0.0
C5118 C 0.03177 0.56363 0.9307 0.0
C5119 C 0.04374 0.55307 0.93332 0.0
C5120 C 0.06175 0.56177 0.9355 0.0
C5121 C 0.06795 0.58098 0.93488 0.0
C5122 C 0.05616 0.59152 0.93203 0.0
C5123 C 0.03813 0.5829 0.9299 0.0
H5124 H 0.0819 0.5877 0.93657 0.0
H5125 H 0.91086 0.48828 0.9051 0.0
H5126 H 0.31939 0.20258 0.56183 0.0
H5127 H 0.31811 0.21429 0.59384 0.0
H5128 H 0.28556 0.24845 0.57752 0.0
H5129 H 0.28684 0.23674 0.54513 0.0
H5130 H 0.31002 0.26714 0.60799 0.0
H5131 H 0.26803 0.20435 0.58959 0.0
H5132 H 0.25896 0.16989 0.57794 0.0
H5133 H 0.29575 0.1625 0.61992 0.0
H5134 H 0.30518 0.19692 0.63168 0.0
H5135 H 0.27771 0.28287 0.69405 0.0
H5136 H 0.2792 0.27337 0.66122 0.0
H5137 H 0.31079 0.23708 0.67438 0.0
H5138 H 0.30954 0.24662 0.70688 0.0
H5139 H 0.28638 0.21946 0.64548 0.0
H5140 H 0.33026 0.27708 0.66354 0.0
H5141 H 0.34416 0.31066 0.67713 0.0
H5142 H 0.31079 0.32716 0.63824 0.0
H5143 H 0.29647 0.2936 0.62459 0.0
C5144 C 0.31214 0.21282 0.56495 0.0
C5145 C 0.30313 0.21862 0.55075 0.0
C5146 C 0.31131 0.21939 0.58336 0.0
C5147 C 0.30135 0.23188 0.5882 0.0
C5148 C 0.2932 0.23866 0.57417 0.0
C5149 C 0.29404 0.23206 0.55562 0.0
C5150 C 0.29918 0.23746 0.60783 0.0
C5151 C 0.30449 0.25673 0.61605 0.0
C5152 C 0.29286 0.22387 0.61878 0.0
C5153 C 0.2874 0.20323 0.61141 0.0
C5154 C 0.27429 0.19539 0.59622 0.0
C5155 C 0.26906 0.17586 0.58963 0.0
C5156 C 0.27679 0.16402 0.59816 0.0
C5157 C 0.28978 0.17168 0.61331 0.0
C5158 C 0.29506 0.19119 0.61995 0.0
C5159 C 0.28477 0.2727 0.68987 0.0
C5160 C 0.29352 0.26554 0.70307 0.0
C5161 C 0.28575 0.26739 0.67113 0.0
C5162 C 0.29524 0.25458 0.66528 0.0
C5163 C 0.30342 0.24696 0.67846 0.0
C5164 C 0.30271 0.25249 0.69708 0.0
C5165 C 0.29685 0.24914 0.64549 0.0
C5166 C 0.29161 0.22991 0.63732 0.0
C5167 C 0.30389 0.26267 0.63482 0.0
C5168 C 0.31209 0.28283 0.64323 0.0
C5169 C 0.32571 0.28785 0.65805 0.0
C5170 C 0.33371 0.30688 0.66573 0.0
C5171 C 0.32831 0.32103 0.6586 0.0
C5172 C 0.31491 0.31617 0.64378 0.0
C5173 C 0.30684 0.29715 0.63607 0.0
H5174 H 0.33456 0.33577 0.66453 0.0
H5175 H 0.2727 0.1489 0.59306 0.0
H5176 H 0.60893 0.49841 0.2268 0.0
H5177 H 0.59571 0.5015 0.19649 0.0
H5178 H 0.64707 0.52017 0.18115 0.0
H5179 H 0.66017 0.51617 0.21077 0.0
H5180 H 0.62482 0.54433 0.17381 0.0
H5181 H 0.62415 0.47972 0.16059 0.0
H5182 H 0.61728 0.44565 0.16131 0.0
H5183 H 0.56234 0.44018 0.14973 0.0
H5184 H 0.56887 0.47434 0.14931 0.0
H5185 H 0.60098 0.55242 0.08029 0.0
H5186 H 0.61363 0.54691 0.10938 0.0
H5187 H 0.56536 0.50514 0.11164 0.0
H5188 H 0.55352 0.50945 0.0816 0.0
H5189 H 0.58616 0.49245 0.12632 0.0
H5190 H 0.58708 0.55841 0.14122 0.0
H5191 H 0.59488 0.59191 0.13789 0.0
H5192 H 0.64947 0.5946 0.14545 0.0
H5193 H 0.64198 0.56108 0.14861 0.0
C5194 C 0.61746 0.50293 0.21693 0.0
C5195 C 0.63582 0.50679 0.22163 0.0
C5196 C 0.60981 0.50471 0.1994 0.0
C5197 C 0.62019 0.51109 0.18598 0.0
C5198 C 0.63848 0.51513 0.1908 0.0
C5199 C 0.64604 0.51273 0.20796 0.0
C5200 C 0.61233 0.51444 0.16745 0.0
C5201 C 0.61639 0.53287 0.16347 0.0
C5202 C 0.60104 0.49985 0.15354 0.0
C5203 C 0.597 0.4797 0.15534 0.0
C5204 C 0.61059 0.47137 0.15865 0.0
C5205 C 0.60675 0.452 0.15887 0.0
C5206 C 0.58938 0.44078 0.15568 0.0
C5207 C 0.57579 0.44891 0.15231 0.0
C5208 C 0.57955 0.46828 0.15212 0.0
C5209 C 0.59296 0.54217 0.08705 0.0
C5210 C 0.57598 0.53165 0.07839 0.0
C5211 C 0.60021 0.53909 0.10411 0.0
C5212 C 0.59058 0.52592 0.11389 0.0
C5213 C 0.57352 0.51546 0.10508 0.0
C5214 C 0.56653 0.51806 0.08771 0.0
C5215 C 0.59816 0.52255 0.13271 0.0
C5216 C 0.59422 0.50406 0.13675 0.0
C5217 C 0.60947 0.53711 0.14676 0.0
C5218 C 0.61396 0.55723 0.14496 0.0
C5219 C 0.60073 0.56615 0.14208 0.0
C5220 C 0.6051 0.58513 0.14023 0.0
C5221 C 0.62266 0.59536 0.1414 0.0
C5222 C 0.63589 0.58666 0.14451 0.0
C5223 C 0.63159 0.56768 0.14634 0.0
H5224 H 0.62601 0.61005 0.13995 0.0
H5225 H 0.58645 0.42576 0.15572 0.0
H5226 H 0.28495 0.89823 0.92585 0.0
H5227 H 0.29069 0.88557 0.89551 0.0
H5228 H 0.32247 0.85457 0.91981 0.0
H5229 H 0.31687 0.86706 0.95015 0.0
H5230 H 0.33505 0.87134 0.88789 0.0
H5231 H 0.28472 0.83037 0.90776 0.0
H5232 H 0.25749 0.82606 0.9217 0.0
H5233 H 0.23451 0.8484 0.87904 0.0
H5234 H 0.26175 0.85308 0.86501 0.0
H5235 H 0.31498 0.78672 0.81494 0.0
H5236 H 0.32002 0.80799 0.84498 0.0
H5237 H 0.294 0.84427 0.82094 0.0
H5238 H 0.28949 0.8237 0.79112 0.0
H5239 H 0.28045 0.82619 0.85268 0.0
H5240 H 0.32993 0.86414 0.83081 0.0
H5241 H 0.35739 0.8692 0.81731 0.0
H5242 H 0.38235 0.85322 0.86333 0.0
H5243 H 0.35486 0.84765 0.87691 0.0
C5244 C 0.29314 0.88872 0.92472 0.0
C5245 C 0.30006 0.88321 0.94025 0.0
C5246 C 0.29665 0.8818 0.90749 0.0
C5247 C 0.30706 0.86931 0.90564 0.0
C5248 C 0.31458 0.86439 0.92114 0.0
C5249 C 0.31104 0.87122 0.93835 0.0
C5250 C 0.30743 0.85877 0.88753 0.0
C5251 C 0.32321 0.86137 0.88017 0.0
C5252 C 0.29192 0.84591 0.87764 0.0
C5253 C 0.27523 0.84213 0.88541 0.0
C5254 C 0.27384 0.83436 0.90138 0.0
C5255 C 0.25844 0.83188 0.9093 0.0
C5256 C 0.24428 0.83698 0.90127 0.0
C5257 C 0.24548 0.84445 0.88524 0.0
C5258 C 0.26088 0.84699 0.87727 0.0
C5259 C 0.31057 0.79936 0.81618 0.0
C5260 C 0.30183 0.80366 0.80099 0.0
C5261 C 0.31356 0.81148 0.83313 0.0
C5262 C 0.30747 0.82761 0.83486 0.0
C5263 C 0.29894 0.83196 0.81963 0.0
C5264 C 0.29635 0.82019 0.80272 0.0
C5265 C 0.30803 0.83878 0.85288 0.0
C5266 C 0.29235 0.83618 0.86031 0.0
C5267 C 0.32364 0.85157 0.86268 0.0
C5268 C 0.34026 0.85518 0.85474 0.0
C5269 C 0.3412 0.86147 0.83794 0.0
C5270 C 0.35678 0.86448 0.83029 0.0
C5271 C 0.37158 0.86145 0.83941 0.0
C5272 C 0.37085 0.8555 0.85625 0.0
C5273 C 0.35527 0.85241 0.86393 0.0
H5274 H 0.38363 0.86377 0.83346 0.0
H5275 H 0.23238 0.83511 0.90747 0.0
H5276 H 0.92693 0.54564 0.73953 0.0
H5277 H 0.93456 0.53102 0.71088 0.0
H5278 H 0.98302 0.52879 0.74004 0.0
H5279 H 0.97582 0.5439 0.76845 0.0
H5280 H 0.98726 0.54809 0.71311 0.0
H5281 H 0.95003 0.48977 0.7223 0.0
H5282 H 0.92266 0.4679 0.72709 0.0
H5283 H 0.89815 0.4706 0.67426 0.0
H5284 H 0.92512 0.49342 0.66957 0.0
H5285 H 0.02416 0.51231 0.64291 0.0
H5286 H 0.0085 0.50845 0.66905 0.0
H5287 H 0.96314 0.51682 0.63921 0.0
H5288 H 0.97864 0.52037 0.61264 0.0
H5289 H 0.95588 0.49176 0.66577 0.0
H5290 H 0.98965 0.55415 0.65997 0.0
H5291 H 0.01496 0.5802 0.65693 0.0
H5292 H 0.04415 0.57097 0.70424 0.0
H5293 H 0.0191 0.54465 0.70734 0.0
C5294 C 0.93932 0.54225 0.73969 0.0
C5295 C 0.95111 0.54647 0.75595 0.0
C5296 C 0.94341 0.5335 0.72349 0.0
C5297 C 0.95917 0.52864 0.72356 0.0
C5298 C 0.97072 0.53239 0.73989 0.0
C5299 C 0.96681 0.54142 0.75596 0.0
C5300 C 0.9653 0.5231 0.70629 0.0
C5301 C 0.9806 0.53548 0.70297 0.0
C5302 C 0.95595 0.50718 0.69281 0.0
C5303 C 0.93961 0.49359 0.69571 0.0
C5304 C 0.93874 0.48601 0.71182 0.0
C5305 C 0.92327 0.47338 0.7145 0.0
C5306 C 0.90866 0.4678 0.70097 0.0
C5307 C 0.90947 0.47495 0.68476 0.0
C5308 C 0.92483 0.48784 0.68213 0.0
C5309 C 0.01057 0.5124 0.64153 0.0
C5310 C 1.00262 0.51683 0.62587 0.0
C5311 C 1.0017 0.51026 0.65649 0.0
C5312 C 0.98489 0.51265 0.65595 0.0
C5313 C 0.97616 0.51496 0.6397 0.0
C5314 C 0.98505 0.51714 0.62468 0.0
C5315 C 0.97804 0.51648 0.67312 0.0
C5316 C 0.96257 0.50406 0.67621 0.0
C5317 C 0.98704 0.53253 0.68652 0.0
C5318 C 1.00264 0.54715 0.68362 0.0
C5319 C 1.0016 0.55738 0.66944 0.0
C5320 C 0.01587 0.57228 0.66779 0.0
C5321 C 0.03119 0.57717 0.68032 0.0
C5322 C 0.03232 0.5671 0.69447 0.0
C5323 C 0.01811 0.55217 0.69615 0.0
H5324 H 0.04216 0.58881 0.67911 0.0
H5325 H 0.89672 0.45792 0.70303 0.0
H5326 H 0.28386 0.1895 0.42811 0.0
H5327 H 0.28465 0.19999 0.39869 0.0
H5328 H 0.30528 0.25798 0.42707 0.0
H5329 H 0.30258 0.24741 0.45641 0.0
H5330 H 0.2868 0.26061 0.40144 0.0
H5331 H 0.32925 0.22514 0.39924 0.0
H5332 H 0.34056 0.19744 0.40009 0.0
H5333 H 0.30117 0.16501 0.35535 0.0
H5334 H 0.28953 0.19246 0.35438 0.0
H5335 H 0.31819 0.29943 0.32664 0.0
H5336 H 0.31596 0.2856 0.354 0.0
H5337 H 0.28181 0.23351 0.32203 0.0
H5338 H 0.28412 0.24752 0.29415 0.0
H5339 H 0.30567 0.22687 0.34789 0.0
H5340 H 0.2655 0.26521 0.34985 0.0
H5341 H 0.25688 0.29455 0.34894 0.0
H5342 H 0.2961 0.32372 0.39496 0.0
H5343 H 0.3051 0.29461 0.39597 0.0
C5344 C 0.28865 0.20448 0.42804 0.0
C5345 C 0.29328 0.21757 0.44468 0.0
C5346 C 0.28933 0.21057 0.41106 0.0
C5347 C 0.29552 0.22994 0.41011 0.0
C5348 C 0.30038 0.24297 0.42693 0.0
C5349 C 0.29898 0.23692 0.44387 0.0
C5350 C 0.29626 0.23676 0.39186 0.0
C5351 C 0.29127 0.25325 0.38998 0.0
C5352 C 0.30153 0.22725 0.37621 0.0
C5353 C 0.30841 0.21075 0.3769 0.0
C5354 C 0.32294 0.21205 0.38969 0.0
C5355 C 0.32942 0.19641 0.39017 0.0
C5356 C 0.32155 0.17946 0.37782 0.0
C5357 C 0.30722 0.17813 0.36493 0.0
C5358 C 0.30069 0.19372 0.3644 0.0
C5359 C 0.31022 0.28496 0.32524 0.0
C5360 C 0.30134 0.27465 0.30797 0.0
C5361 C 0.30887 0.27706 0.34109 0.0
C5362 C 0.29844 0.25854 0.34042 0.0
C5363 C 0.28989 0.24788 0.3231 0.0
C5364 C 0.29124 0.25588 0.30707 0.0
C5365 C 0.29656 0.25069 0.35788 0.0
C5366 C 0.30128 0.23409 0.35952 0.0
C5367 C 0.29147 0.26033 0.37347 0.0
C5368 C 0.28602 0.27778 0.37291 0.0
C5369 C 0.27234 0.27792 0.3597 0.0
C5370 C 0.26738 0.2945 0.35917 0.0
C5371 C 0.27595 0.31099 0.37187 0.0
C5372 C 0.28948 0.31093 0.38513 0.0
C5373 C 0.29449 0.2944 0.3857 0.0
H5374 H 0.27209 0.32381 0.37145 0.0
H5375 H 0.32658 0.16736 0.37822 0.0
H5376 H 0.32061 0.5917 0.52127 0.0
H5377 H 0.34724 0.58237 0.5175 0.0
H5378 H 0.37038 0.63508 0.50054 0.0
H5379 H 0.34344 0.64437 0.5038 0.0
H5380 H 0.37625 0.60497 0.47943 0.0
H5381 H 0.3827 0.63019 0.54351 0.0
H5382 H 0.3717 0.63342 0.57329 0.0
H5383 H 0.36511 0.57436 0.57326 0.0
H5384 H 0.37591 0.57074 0.54337 0.0
H5385 H 0.45606 0.57719 0.4824 0.0
H5386 H 0.43374 0.59422 0.48405 0.0
H5387 H 0.40694 0.55607 0.51709 0.0
H5388 H 0.43078 0.54142 0.51779 0.0
H5389 H 0.40622 0.58638 0.53169 0.0
H5390 H 0.39464 0.56022 0.46443 0.0
H5391 H 0.40052 0.5571 0.43234 0.0
H5392 H 0.41413 0.6175 0.43704 0.0
H5393 H 0.40846 0.62095 0.46911 0.0
C5394 C 0.33135 0.60131 0.51672 0.0
C5395 C 0.33011 0.61881 0.51297 0.0
C5396 C 0.34654 0.59599 0.51464 0.0
C5397 C 0.3608 0.60827 0.50915 0.0
C5398 C 0.35947 0.62555 0.50493 0.0
C5399 C 0.34415 0.63081 0.5068 0.0
C5400 C 0.37707 0.60284 0.50782 0.0
C5401 C 0.38303 0.60104 0.49084 0.0
C5402 C 0.38571 0.59786 0.52279 0.0
C5403 C 0.38014 0.60022 0.54123 0.0
C5404 C 0.37895 0.61791 0.54988 0.0
C5405 C 0.37272 0.6198 0.56676 0.0
C5406 C 0.36772 0.60411 0.57517 0.0
C5407 C 0.36903 0.58651 0.56675 0.0
C5408 C 0.37526 0.58454 0.54988 0.0
C5409 C 0.44545 0.57279 0.49018 0.0
C5410 C 0.44533 0.55857 0.50048 0.0
C5411 C 0.43245 0.5822 0.4908 0.0
C5412 C 0.4184 0.57649 0.50063 0.0
C5413 C 0.41774 0.56118 0.50974 0.0
C5414 C 0.43127 0.55266 0.51005 0.0
C5415 C 0.40486 0.5868 0.50264 0.0
C5416 C 0.39958 0.59008 0.52006 0.0
C5417 C 0.39677 0.59302 0.48796 0.0
C5418 C 0.40143 0.59083 0.4692 0.0
C5419 C 0.39915 0.57282 0.45867 0.0
C5420 C 0.40237 0.571 0.44047 0.0
C5421 C 0.40778 0.58709 0.43268 0.0
C5422 C 0.41003 0.60505 0.44309 0.0
C5423 C 0.40684 0.60694 0.46126 0.0
H5424 H 0.41015 0.58564 0.41857 0.0
H5425 H 0.36283 0.60558 0.5882 0.0
H5426 H 0.85963 0.95283 0.54455 0.0
H5427 H 0.88931 0.97125 0.542 0.0
H5428 H 0.90187 0.91983 0.52102 0.0
H5429 H 0.87244 0.90139 0.52399 0.0
H5430 H 0.92929 0.94149 0.54266 0.0
H5431 H 0.89411 0.95193 0.49261 0.0
H5432 H 0.86893 0.95993 0.47757 0.0
H5433 H 0.88596 0.01572 0.51063 0.0
H5434 H 0.91117 0.00797 0.526 0.0
H5435 H 0.01071 0.99503 0.5166 0.0
H5436 H 0.98158 0.97278 0.51577 0.0
H5437 H 0.96251 0.01926 0.53832 0.0
H5438 H 0.99109 0.04116 0.53889 0.0
H5439 H 0.93838 0.99764 0.51295 0.0
H5440 H 0.97401 0.98498 0.56343 0.0
H5441 H 0.99875 0.97518 0.57705 0.0
H5442 H 0.98061 0.92136 0.54051 0.0
H5443 H 0.95589 0.93096 0.52651 0.0
C5444 C 0.86868 0.9454 0.5394 0.0
C5445 C 0.8634 0.92549 0.53449 0.0
C5446 C 0.88575 0.95601 0.53782 0.0
C5447 C 0.89811 0.94714 0.53105 0.0
C5448 C 0.89286 0.92725 0.52631 0.0
C5449 C 0.87585 0.91664 0.52797 0.0
C5450 C 0.91635 0.95852 0.52885 0.0
C5451 C 0.93119 0.95362 0.53594 0.0
C5452 C 0.91925 0.97442 0.52006 0.0
C5453 C 0.90444 0.97934 0.51052 0.0
C5454 C 0.89245 0.96589 0.49669 0.0
C5455 C 0.87818 0.97038 0.48812 0.0
C5456 C 0.87583 0.98832 0.49316 0.0
C5457 C 0.8878 1.00183 0.50674 0.0
C5458 C 0.90211 0.99742 0.51536 0.0
C5459 C 1.00033 1.00045 0.52141 0.0
C5460 C 1.0035 0.02001 0.52791 0.0
C5461 C 0.98356 0.98768 0.521 0.0
C5462 C 0.96951 0.99411 0.52714 0.0
C5463 C 0.9728 0.01365 0.53344 0.0
C5464 C 0.98938 0.02627 0.53385 0.0
C5465 C 0.9514 0.98098 0.52723 0.0
C5466 C 0.93652 0.98549 0.51964 0.0
C5467 C 0.9485 0.96455 0.53529 0.0
C5468 C 0.96323 0.95876 0.54382 0.0
C5469 C 0.97537 0.97111 0.55824 0.0
C5470 C 0.98938 0.96558 0.56602 0.0
C5471 C 0.99127 0.94767 0.55962 0.0
C5472 C 0.97914 0.93524 0.54544 0.0
C5473 C 0.96513 0.94071 0.53758 0.0
H5474 H 1.00212 0.94342 0.56568 0.0
H5475 H 0.86475 0.99175 0.48654 0.0
H5476 H 0.91636 0.12839 0.27195 0.0
H5477 H 0.90474 0.15589 0.27498 0.0
H5478 H 0.85809 0.12264 0.23873 0.0
H5479 H 0.87043 0.09575 0.23464 0.0
H5480 H 0.85957 0.15229 0.23111 0.0
H5481 H 0.86927 0.14579 0.29529 0.0
H5482 H 0.88623 0.146 0.32475 0.0
H5483 H 0.91852 0.2019 0.32437 0.0
H5484 H 0.90196 0.20188 0.29479 0.0
H5485 H 0.80586 0.21494 0.2496 0.0
H5486 H 0.82036 0.18977 0.24903 0.0
H5487 H 0.86875 0.23079 0.27417 0.0
H5488 H 0.85416 0.25624 0.27464 0.0
H5489 H 0.868 0.19956 0.28803 0.0
H5490 H 0.86013 0.20781 0.22691 0.0
H5491 H 0.84493 0.21053 0.19761 0.0
H5492 H 0.81177 0.15383 0.19204 0.0
H5493 H 0.82656 0.1509 0.22154 0.0
C5494 C 0.90357 0.12678 0.26458 0.0
C5495 C 0.89459 0.10917 0.25298 0.0
C5496 C 0.8966 0.14283 0.26655 0.0
C5497 C 0.87986 0.14224 0.25756 0.0
C5498 C 0.87094 0.1245 0.24606 0.0
C5499 C 0.87809 0.10866 0.24373 0.0
C5500 C 0.87178 0.15962 0.25924 0.0
C5501 C 0.86126 0.16212 0.2439 0.0
C5502 C 0.87419 0.17406 0.2753 0.0
C5503 C 0.88454 0.17368 0.29268 0.0
C5504 C 0.88012 0.15802 0.30139 0.0
C5505 C 0.88965 0.15813 0.31812 0.0
C5506 C 0.90349 0.17392 0.32638 0.0
C5507 C 0.90785 0.18964 0.31792 0.0
C5508 C 0.89843 0.18956 0.30116 0.0
C5509 C 0.81962 0.21887 0.25507 0.0
C5510 C 0.82852 0.23822 0.26211 0.0
C5511 C 0.8281 0.20415 0.25463 0.0
C5512 C 0.84611 0.20768 0.2613 0.0
C5513 C 0.85499 0.22699 0.26877 0.0
C5514 C 0.84651 0.24183 0.26899 0.0
C5515 C 0.85538 0.19141 0.26018 0.0
C5516 C 0.86616 0.18933 0.27545 0.0
C5517 C 0.85346 0.17747 0.24407 0.0
C5518 C 0.8443 0.17923 0.22654 0.0
C5519 C 0.84946 0.196 0.21954 0.0
C5520 C 0.84094 0.19756 0.20289 0.0
C5521 C 0.82735 0.18238 0.193 0.0
C5522 C 0.82226 0.16559 0.19975 0.0
C5523 C 0.8307 0.16398 0.21644 0.0
H5524 H 0.82082 0.1836 0.18007 0.0
H5525 H 0.9108 0.174 0.33936 0.0
H5526 H 0.73595 0.11384 0.98741 0.0
H5527 H 0.7045 0.09946 0.98688 0.0
H5528 H 0.70448 0.14108 0.03404 0.0
H5529 H 0.73558 0.15585 0.03436 0.0
H5530 H 0.69463 0.0993 0.0361 0.0
H5531 H 0.68445 0.14615 1.00284 0.0
H5532 H 0.68546 0.16453 0.97809 0.0
H5533 H 0.65828 0.11398 0.93927 0.0
H5534 H 0.65766 0.09516 0.96369 0.0
H5535 H 0.60542 0.07847 0.04873 0.0
H5536 H 0.63578 0.09348 0.04574 0.0
H5537 H 0.62943 0.0583 0.9924 0.0
H5538 H 0.59901 0.04336 0.99512 0.0
H5539 H 0.64244 0.09644 0.99296 0.0
H5540 H 0.65307 0.04944 0.02637 0.0
H5541 H 0.64893 0.03192 0.05179 0.0
H5542 H 0.67294 0.08338 0.09063 0.0
H5543 H 0.67699 0.10126 0.06543 0.0
C5544 C 0.72907 0.12016 0.99731 0.0
C5545 C 0.73801 0.13581 0.01095 0.0
C5546 C 0.71124 0.11203 0.99696 0.0
C5547 C 0.70251 0.11937 0.01043 0.0
C5548 C 0.71122 0.13547 0.02352 0.0
C5549 C 0.72887 0.14385 0.02362 0.0
C5550 C 0.68494 0.10883 0.01239 0.0
C5551 C 0.68316 0.09873 0.02676 0.0
C5552 C 0.67029 0.10801 0.99992 0.0
C5553 C 0.67142 0.11916 0.98505 0.0
C5554 C 0.6791 0.13885 0.98896 0.0
C5555 C 0.67951 0.14938 0.97499 0.0
C5556 C 0.67205 0.14042 0.95709 0.0
C5557 C 0.66418 0.12089 0.95311 0.0
C5558 C 0.66385 0.11028 0.96701 0.0
C5559 C 0.61058 0.07379 0.03649 0.0
C5560 C 0.59999 0.05997 0.02205 0.0
C5561 C 0.62784 0.0823 0.03484 0.0
C5562 C 0.63458 0.07681 0.01889 0.0
C5563 C 0.62422 0.0626 0.00474 0.0
C5564 C 0.60695 0.05418 0.00632 0.0
C5565 C 0.65218 0.08679 0.01648 0.0
C5566 C 0.65397 0.09682 1.0021 0.0
C5567 C 0.66682 0.08753 0.02891 0.0
C5568 C 0.66527 0.07669 0.04403 0.0
C5569 C 0.65746 0.05702 0.04034 0.0
C5570 C 0.6551 0.04703 0.0547 0.0
C5571 C 0.66065 0.05653 0.07281 0.0
C5572 C 0.66866 0.07604 0.07659 0.0
C5573 C 0.67102 0.0861 0.06227 0.0
H5574 H 0.65876 0.04879 0.08392 0.0
H5575 H 0.67229 0.14862 0.94632 0.0
H5576 H 0.222 0.52482 0.28362 0.0
H5577 H 0.23582 0.49977 0.28755 0.0
H5578 H 0.19093 0.45838 0.25427 0.0
H5579 H 0.17658 0.48325 0.25169 0.0
H5580 H 0.20078 0.44493 0.2811 0.0
H5581 H 0.23093 0.47688 0.23695 0.0
H5582 H 0.24738 0.5047 0.22552 0.0
H5583 H 0.28843 0.51656 0.27079 0.0
H5584 H 0.27215 0.48888 0.28253 0.0
H5585 H 0.24404 0.37435 0.25521 0.0
H5586 H 0.22763 0.39774 0.25702 0.0
H5587 H 0.26972 0.43708 0.29567 0.0
H5588 H 0.28659 0.41425 0.29335 0.0
H5589 H 0.26119 0.4514 0.26675 0.0
H5590 H 0.23032 0.41656 0.30901 0.0
H5591 H 0.21232 0.38906 0.31969 0.0
H5592 H 0.17121 0.38183 0.27554 0.0
H5593 H 0.18909 0.40906 0.26442 0.0
C5594 C 0.21512 0.51028 0.27741 0.0
C5595 C 0.19838 0.50562 0.26746 0.0
C5596 C 0.22302 0.4961 0.27946 0.0
C5597 C 0.21451 0.47739 0.27081 0.0
C5598 C 0.19764 0.47279 0.26102 0.0
C5599 C 0.18949 0.48687 0.25956 0.0
C5600 C 0.22313 0.46251 0.27201 0.0
C5601 C 0.21391 0.44617 0.27772 0.0
C5602 C 0.24033 0.46447 0.2679 0.0
C5603 C 0.25028 0.48091 0.26067 0.0
C5604 C 0.24344 0.48547 0.24448 0.0
C5605 C 0.25274 0.5012 0.23795 0.0
C5606 C 0.26892 0.51242 0.24745 0.0
C5607 C 0.27589 0.50787 0.26345 0.0
C5608 C 0.26666 0.49213 0.27002 0.0
C5609 C 0.24979 0.38796 0.26414 0.0
C5610 C 0.26662 0.39246 0.27416 0.0
C5611 C 0.24028 0.40114 0.26536 0.0
C5612 C 0.24748 0.41891 0.27664 0.0
C5613 C 0.26399 0.42327 0.28704 0.0
C5614 C 0.27354 0.41018 0.28575 0.0
C5615 C 0.23884 0.4338 0.27589 0.0
C5616 C 0.24806 0.45014 0.27015 0.0
C5617 C 0.22151 0.43163 0.27959 0.0
C5618 C 0.21113 0.41472 0.28579 0.0
C5619 C 0.21755 0.40893 0.30143 0.0
C5620 C 0.20734 0.39344 0.3076 0.0
C5621 C 0.19065 0.38369 0.29828 0.0
C5622 C 0.18415 0.38937 0.28273 0.0
C5623 C 0.19432 0.40482 0.27649 0.0
H5624 H 0.18273 0.37176 0.30314 0.0
H5625 H 0.27608 0.52461 0.24239 0.0
H5626 H 0.24588 0.39611 0.03087 0.0
H5627 H 0.21948 0.40696 0.02793 0.0
H5628 H 0.25157 0.46288 0.02578 0.0
H5629 H 0.27782 0.45238 0.03069 0.0
H5630 H 0.23106 0.46893 0.04494 0.0
H5631 H 0.21831 0.42354 0.98743 0.0
H5632 H 0.21175 0.39239 0.96705 0.0
H5633 H 0.16805 0.37081 0.99457 0.0
H5634 H 0.17452 0.40169 0.0153 0.0
H5635 H 0.16615 0.51059 0.01707 0.0
H5636 H 0.18871 0.49407 0.01555 0.0
H5637 H 0.15498 0.44689 0.03334 0.0
H5638 H 0.13195 0.46313 0.03434 0.0
H5639 H 0.17403 0.43472 0.00711 0.0
H5640 H 0.18648 0.47933 0.06358 0.0
H5641 H 0.19133 0.51073 0.08292 0.0
H5642 H 0.23505 0.53349 0.05588 0.0
H5643 H 0.23025 0.50229 0.03615 0.0
C5644 C 0.24721 0.41069 0.02963 0.0
C5645 C 0.264 0.42338 0.031 0.0
C5646 C 0.232 0.41692 0.02773 0.0
C5647 C 0.23308 0.43587 0.02632 0.0
C5648 C 0.24998 0.44826 0.02701 0.0
C5649 C 0.26513 0.44223 0.02968 0.0
C5650 C 0.21716 0.44347 0.0256 0.0
C5651 C 0.21883 0.46141 0.03622 0.0
C5652 C 0.20049 0.43363 0.01513 0.0
C5653 C 0.19709 0.41486 1.00311 0.0
C5654 C 0.20745 0.41208 0.98929 0.0
C5655 C 0.20371 0.39448 0.97764 0.0
C5656 C 0.18954 0.37961 0.97956 0.0
C5657 C 0.17907 0.3823 0.99314 0.0
C5658 C 0.18278 0.39984 0.00485 0.0
C5659 C 0.16327 0.49656 0.02035 0.0
C5660 C 0.14707 0.48837 0.02594 0.0
C5661 C 0.17635 0.48714 0.01962 0.0
C5662 C 0.17379 0.46926 0.02459 0.0
C5663 C 0.15742 0.46068 0.02951 0.0
C5664 C 0.14428 0.47012 0.03026 0.0
C5665 C 0.18857 0.46023 0.02566 0.0
C5666 C 0.18652 0.44209 0.01546 0.0
C5667 C 0.20496 0.46981 0.03637 0.0
C5668 C 0.20792 0.48853 0.0483 0.0
C5669 C 0.19705 0.49107 0.06167 0.0
C5670 C 0.19979 0.50883 0.07271 0.0
C5671 C 0.21346 0.52411 0.07061 0.0
C5672 C 0.22444 0.52165 0.05748 0.0
C5673 C 0.22172 0.50394 0.04637 0.0
H5674 H 0.21558 0.53784 0.07918 0.0
H5675 H 0.18664 0.36603 0.97049 0.0
H5676 H 0.91913 0.98809 0.25381 0.0
H5677 H 0.90312 0.9558 0.25553 0.0
H5678 H 0.8565 0.97337 0.26165 0.0
H5679 H 0.87263 0.00608 0.25965 0.0
H5680 H 0.86006 0.94855 0.28573 0.0
H5681 H 0.86336 0.94521 0.22061 0.0
H5682 H 0.87948 0.94927 0.19424 0.0
H5683 H 0.90872 0.91186 0.20954 0.0
H5684 H 0.89296 0.90782 0.23617 0.0
H5685 H 0.7976 0.8585 0.27384 0.0
H5686 H 0.81582 0.8898 0.27233 0.0
H5687 H 0.85695 0.86589 0.25655 0.0
H5688 H 0.83835 0.83395 0.25803 0.0
H5689 H 0.8583 0.89358 0.23796 0.0
H5690 H 0.85958 0.89579 0.30041 0.0
H5691 H 0.85017 0.89255 0.33053 0.0
H5692 H 0.82019 0.93204 0.32519 0.0
H5693 H 0.8292 0.93528 0.29486 0.0
C5694 C 0.9054 0.98531 0.25537 0.0
C5695 C 0.89748 1.00038 0.25639 0.0
C5696 C 0.89608 0.96643 0.25631 0.0
C5697 C 0.87817 0.96127 0.25857 0.0
C5698 C 0.87017 0.97632 0.25982 0.0
C5699 C 0.87949 0.9953 0.25853 0.0
C5700 C 0.86814 0.94053 0.25977 0.0
C5701 C 0.85941 0.93669 0.27497 0.0
C5702 C 0.8679 0.92422 0.24665 0.0
C5703 C 0.87707 0.92632 0.23044 0.0
C5704 C 0.87329 0.93792 0.21839 0.0
C5705 C 0.88236 0.94022 0.2034 0.0
C5706 C 0.89514 0.93086 0.20023 0.0
C5707 C 0.89883 0.91912 0.21201 0.0
C5708 C 0.88982 0.91681 0.22705 0.0
C5709 C 0.81059 0.85963 0.27018 0.0
C5710 C 0.81613 0.84301 0.26628 0.0
C5711 C 0.82125 0.87798 0.26939 0.0
C5712 C 0.83833 0.88117 0.26453 0.0
C5713 C 0.84403 0.86455 0.26044 0.0
C5714 C 0.83329 0.84598 0.26144 0.0
C5715 C 0.84958 0.90162 0.26364 0.0
C5716 C 0.85867 0.90541 0.24861 0.0
C5717 C 0.85084 0.91787 0.27733 0.0
C5718 C 0.84485 0.91556 0.29523 0.0
C5719 C 0.85079 0.90359 0.30554 0.0
C5720 C 0.84557 0.9018 0.32268 0.0
C5721 C 0.83453 0.91203 0.32974 0.0
C5722 C 0.82869 0.92408 0.31967 0.0
C5723 C 0.83385 0.92589 0.3025 0.0
H5724 H 0.83055 0.91066 0.34304 0.0
H5725 H 0.90216 0.93267 0.18863 0.0
H5726 H 0.70777 0.10202 0.78886 0.0
H5727 H 0.72454 0.13438 0.7895 0.0
H5728 H 0.68299 0.14193 0.75268 0.0
H5729 H 0.66613 0.10927 0.75165 0.0
H5730 H 0.71463 0.1454 0.73897 0.0
H5731 H 0.69467 0.17128 0.79412 0.0
H5732 H 0.68757 0.17005 0.82542 0.0
H5733 H 0.74028 0.17076 0.8436 0.0
H5734 H 0.74791 0.17265 0.81267 0.0
H5735 H 0.76554 0.23749 0.73613 0.0
H5736 H 0.74392 0.20794 0.73682 0.0
H5737 H 0.77753 0.19818 0.78099 0.0
H5738 H 0.79852 0.22879 0.78129 0.0
H5739 H 0.74707 0.19743 0.79015 0.0
H5740 H 0.76784 0.17 0.73716 0.0
H5741 H 0.77721 0.17136 0.70674 0.0
H5742 H 0.72543 0.17043 0.68436 0.0
H5743 H 0.71583 0.1694 0.71475 0.0
C5744 C 0.70195 0.11075 0.78138 0.0
C5745 C 0.68595 0.10316 0.76981 0.0
C5746 C 0.71145 0.12925 0.78189 0.0
C5747 C 0.70486 0.14028 0.77108 0.0
C5748 C 0.68809 0.13341 0.76107 0.0
C5749 C 0.67856 0.11485 0.76052 0.0
C5750 C 0.71686 0.15734 0.76769 0.0
C5751 C 0.72148 0.15707 0.75001 0.0
C5752 C 0.72608 0.17193 0.78228 0.0
C5753 C 0.72184 0.17218 0.80115 0.0
C5754 C 0.70478 0.17137 0.80489 0.0
C5755 C 0.7007 0.1706 0.82259 0.0
C5756 C 0.71356 0.17044 0.83656 0.0
C5757 C 0.73047 0.1711 0.83285 0.0
C5758 C 0.73472 0.17224 0.81531 0.0
C5759 C 0.76853 0.22856 0.74541 0.0
C5760 C 0.78342 0.23486 0.75858 0.0
C5761 C 0.75626 0.21178 0.74582 0.0
C5762 C 0.75932 0.20097 0.75886 0.0
C5763 C 0.77509 0.20649 0.77087 0.0
C5764 C 0.78706 0.22368 0.77093 0.0
C5765 C 0.74515 0.18531 0.76152 0.0
C5766 C 0.7401 0.18592 0.77901 0.0
C5767 C 0.73582 0.17082 0.7468 0.0
C5768 C 0.74112 0.16966 0.72822 0.0
C5769 C 0.75843 0.17 0.72572 0.0
C5770 C 0.7638 0.17079 0.70851 0.0
C5771 C 0.75193 0.171 0.69363 0.0
C5772 C 0.73461 0.17024 0.6959 0.0
C5773 C 0.72918 0.16951 0.71311 0.0
H5774 H 0.75614 0.17175 0.68034 0.0
H5775 H 0.71054 0.16988 0.85031 0.0
loop_
_geom_bond_atom_site_label_1
_geom_bond_atom_site_label_2
_geom_bond_distance
_geom_bond_site_symmetry_2
_ccdc_geom_bond_type
O0 Cd1 2.223 . S
O0 C8 1.315 . S
Cd1 O0 2.223 . S
Cd1 O4 2.297 . S
Cd1 O5 2.439 . S
Cd1 O11 2.240 . S
Cd2 O3 2.240 . S
Cd2 O10 2.223 . S
Cd2 O12 2.297 . S
Cd2 O13 2.439 . S
O3 Cd2 2.240 . S
O3 C8 1.279 . S
O4 Cd1 2.297 . S
O4 C6 1.247 . S
O5 Cd1 2.439 . S
O5 C6 1.208 . S
C6 O4 1.247 . S
C6 O5 1.208 . S
C7 O12 1.247 . S
C7 O13 1.208 . S
C8 O0 1.315 . S
C8 O3 1.279 . S
C9 O10 1.315 . S
C9 O11 1.279 . S
O10 Cd2 2.223 . S
O10 C9 1.315 . S
O11 Cd1 2.240 . S
O11 C9 1.279 . S
O12 Cd2 2.297 . S
O12 C7 1.247 . S
O13 Cd2 2.439 . S
O13 C7 1.208 . S
O14 Cd15 2.251 . S
O14 C22 1.323 . S
Cd15 O14 2.251 . S
Cd15 O18 2.297 . S
Cd15 O19 2.439 . S
Cd15 O25 2.240 1_655 S
Cd16 O17 2.240 1_455 S
Cd16 O24 2.223 . S
Cd16 O26 2.297 . S
Cd16 O27 2.447 . S
O17 Cd16 2.240 1_655 S
O17 C22 1.279 . S
O18 Cd15 2.297 . S
O18 C20 1.247 . S
O19 Cd15 2.439 . S
O19 C20 1.208 . S
C20 O18 1.247 . S
C20 O19 1.208 . S
C21 O26 1.247 . S
C21 O27 1.218 . S
C22 O14 1.323 . S
C22 O17 1.279 . S
C23 O24 1.315 . S
C23 O25 1.279 . S
O24 Cd16 2.223 . S
O24 C23 1.315 . S
O25 Cd15 2.240 1_455 S
O25 C23 1.279 . S
O26 Cd16 2.297 . S
O26 C21 1.247 . S
O27 Cd16 2.447 . S
O27 C21 1.218 . S
O28 Cd29 2.223 . S
O28 C36 1.315 . S
Cd29 O28 2.223 . S
Cd29 O32 2.297 . S
Cd29 O33 2.439 . S
Cd29 O39 2.240 . S
Cd30 O31 2.240 . S
Cd30 O38 2.223 . S
Cd30 O40 2.297 . S
Cd30 O41 2.439 . S
O31 Cd30 2.240 . S
O31 C36 1.279 . S
O32 Cd29 2.297 . S
O32 C34 1.247 . S
O33 Cd29 2.439 . S
O33 C34 1.208 . S
C34 O32 1.247 . S
C34 O33 1.208 . S
C35 O40 1.247 . S
C35 O41 1.208 . S
C36 O28 1.315 . S
C36 O31 1.279 . S
C37 O38 1.315 . S
C37 O39 1.279 . S
O38 Cd30 2.223 . S
O38 C37 1.315 . S
O39 Cd29 2.240 . S
O39 C37 1.279 . S
O40 Cd30 2.297 . S
O40 C35 1.247 . S
O41 Cd30 2.439 . S
O41 C35 1.208 . S
O42 Cd43 2.223 . S
O42 C50 1.315 . S
Cd43 O42 2.223 . S
Cd43 O46 2.297 . S
Cd43 O47 2.439 . S
Cd43 O53 2.240 . S
Cd44 O45 2.240 . S
Cd44 O52 2.223 . S
Cd44 O54 2.297 . S
Cd44 O55 2.439 . S
O45 Cd44 2.240 . S
O45 C50 1.279 . S
O46 Cd43 2.297 . S
O46 C48 1.247 . S
O47 Cd43 2.439 . S
O47 C48 1.208 . S
C48 O46 1.247 . S
C48 O47 1.208 . S
C49 O54 1.247 . S
C49 O55 1.208 . S
C50 O42 1.315 . S
C50 O45 1.279 . S
C51 O52 1.315 . S
C51 O53 1.279 . S
O52 Cd44 2.223 . S
O52 C51 1.315 . S
O53 Cd43 2.240 . S
O53 C51 1.279 . S
O54 Cd44 2.297 . S
O54 C49 1.247 . S
O55 Cd44 2.439 . S
O55 C49 1.208 . S
O56 Cd57 2.223 . S
O56 C64 1.315 . S
Cd57 O56 2.223 . S
Cd57 O60 2.297 . S
Cd57 O61 2.439 . S
Cd57 O67 2.240 . S
Cd58 O59 2.240 . S
Cd58 O66 2.223 . S
Cd58 O68 2.297 . S
Cd58 O69 2.439 . S
O59 Cd58 2.240 . S
O59 C64 1.279 . S
O60 Cd57 2.297 . S
O60 C62 1.247 . S
O61 Cd57 2.439 . S
O61 C62 1.208 . S
C62 O60 1.247 . S
C62 O61 1.208 . S
C63 O68 1.247 . S
C63 O69 1.208 . S
C64 O56 1.315 . S
C64 O59 1.279 . S
C65 O66 1.315 . S
C65 O67 1.279 . S
O66 Cd58 2.223 . S
O66 C65 1.315 . S
O67 Cd57 2.240 . S
O67 C65 1.279 . S
O68 Cd58 2.297 . S
O68 C63 1.247 . S
O69 Cd58 2.439 . S
O69 C63 1.208 . S
O70 Cd71 2.223 . S
O70 C78 1.315 . S
Cd71 O70 2.223 . S
Cd71 O74 2.297 . S
Cd71 O75 2.439 . S
Cd71 O81 2.240 . S
Cd72 O73 2.240 . S
Cd72 O80 2.223 . S
Cd72 O82 2.297 . S
Cd72 O83 2.439 . S
O73 Cd72 2.240 . S
O73 C78 1.279 . S
O74 Cd71 2.297 . S
O74 C76 1.247 . S
O75 Cd71 2.439 . S
O75 C76 1.208 . S
C76 O74 1.247 . S
C76 O75 1.208 . S
C77 O82 1.247 . S
C77 O83 1.208 . S
C78 O70 1.315 . S
C78 O73 1.279 . S
C79 O80 1.315 . S
C79 O81 1.279 . S
O80 Cd72 2.223 . S
O80 C79 1.315 . S
O81 Cd71 2.240 . S
O81 C79 1.279 . S
O82 Cd72 2.297 . S
O82 C77 1.247 . S
O83 Cd72 2.439 . S
O83 C77 1.208 . S
O84 Cd85 2.223 . S
O84 C92 1.315 . S
Cd85 O84 2.223 . S
Cd85 O88 2.297 . S
Cd85 O89 2.439 . S
Cd85 O95 2.240 . S
Cd86 O87 2.240 . S
Cd86 O94 2.223 . S
Cd86 O96 2.297 . S
Cd86 O97 2.439 . S
O87 Cd86 2.240 . S
O87 C92 1.279 . S
O88 Cd85 2.297 . S
O88 C90 1.247 . S
O89 Cd85 2.439 . S
O89 C90 1.208 . S
C90 O88 1.247 . S
C90 O89 1.208 . S
C91 O96 1.247 . S
C91 O97 1.208 . S
C92 O84 1.315 . S
C92 O87 1.279 . S
C93 O94 1.315 . S
C93 O95 1.279 . S
O94 Cd86 2.223 . S
O94 C93 1.315 . S
O95 Cd85 2.240 . S
O95 C93 1.279 . S
O96 Cd86 2.297 . S
O96 C91 1.247 . S
O97 Cd86 2.439 . S
O97 C91 1.208 . S
O98 Cd99 2.223 . S
O98 C106 1.315 . S
Cd99 O98 2.223 . S
Cd99 O102 2.297 . S
Cd99 O103 2.439 . S
Cd99 O109 2.240 . S
Cd100 O101 2.240 . S
Cd100 O108 2.223 1_455 S
Cd100 O110 2.297 . S
Cd100 O111 2.439 . S
O101 Cd100 2.240 . S
O101 C106 1.279 . S
O102 Cd99 2.297 . S
O102 C104 1.247 . S
O103 Cd99 2.439 . S
O103 C104 1.208 . S
C104 O102 1.247 . S
C104 O103 1.208 . S
C105 O110 1.247 . S
C105 O111 1.208 . S
C106 O98 1.315 . S
C106 O101 1.279 . S
C107 O108 1.315 . S
C107 O109 1.279 1_655 S
O108 Cd100 2.223 1_655 S
O108 C107 1.315 . S
O109 Cd99 2.240 . S
O109 C107 1.279 1_455 S
O110 Cd100 2.297 . S
O110 C105 1.247 . S
O111 Cd100 2.439 . S
O111 C105 1.208 . S
O112 Cd113 2.223 . S
O112 C120 1.315 . S
Cd113 O112 2.223 . S
Cd113 O116 2.297 . S
Cd113 O117 2.439 . S
Cd113 O123 2.246 1_545 S
Cd114 O115 2.240 . S
Cd114 O122 2.223 1_545 S
Cd114 O124 2.297 . S
Cd114 O125 2.439 . S
O115 Cd114 2.240 . S
O115 C120 1.279 . S
O116 Cd113 2.297 . S
O116 C118 1.247 . S
O117 Cd113 2.439 . S
O117 C118 1.208 . S
C118 O116 1.247 . S
C118 O117 1.208 . S
C119 O124 1.247 . S
C119 O125 1.208 . S
C120 O112 1.315 . S
C120 O115 1.279 . S
C121 O122 1.315 . S
C121 O123 1.273 . S
O122 Cd114 2.223 1_565 S
O122 C121 1.315 . S
O123 Cd113 2.246 1_565 S
O123 C121 1.273 . S
O124 Cd114 2.297 . S
O124 C119 1.247 . S
O125 Cd114 2.439 . S
O125 C119 1.208 . S
O126 Cd127 2.223 . S
O126 C134 1.315 . S
Cd127 O126 2.223 . S
Cd127 O130 2.297 . S
Cd127 O131 2.439 . S
Cd127 O137 2.240 . S
Cd128 O129 2.240 . S
Cd128 O136 2.223 . S
Cd128 O138 2.297 . S
Cd128 O139 2.439 . S
O129 Cd128 2.240 . S
O129 C134 1.279 . S
O130 Cd127 2.297 . S
O130 C132 1.247 . S
O131 Cd127 2.439 . S
O131 C132 1.208 . S
C132 O130 1.247 . S
C132 O131 1.208 . S
C133 O138 1.247 . S
C133 O139 1.208 . S
C134 O126 1.315 . S
C134 O129 1.279 . S
C135 O136 1.315 . S
C135 O137 1.279 . S
O136 Cd128 2.223 . S
O136 C135 1.315 . S
O137 Cd127 2.240 . S
O137 C135 1.279 . S
O138 Cd128 2.297 . S
O138 C133 1.247 . S
O139 Cd128 2.439 . S
O139 C133 1.208 . S
O140 Cd141 2.223 1_545 S
O140 C148 1.315 1_545 S
Cd141 O140 2.223 1_565 S
Cd141 O144 2.297 . S
Cd141 O145 2.439 . S
Cd141 O151 2.240 1_565 S
Cd142 O143 2.240 1_545 S
Cd142 O150 2.223 . S
Cd142 O152 2.297 . S
Cd142 O153 2.439 1_545 S
O143 Cd142 2.240 1_565 S
O143 C148 1.279 . S
O144 Cd141 2.297 . S
O144 C146 1.247 . S
O145 Cd141 2.439 . S
O145 C146 1.208 . S
C146 O144 1.247 . S
C146 O145 1.208 . S
C147 O152 1.247 . S
C147 O153 1.208 1_545 S
C148 O140 1.315 1_565 S
C148 O143 1.279 . S
C149 O150 1.315 . S
C149 O151 1.279 . S
O150 Cd142 2.223 . S
O150 C149 1.315 . S
O151 Cd141 2.240 1_545 S
O151 C149 1.279 . S
O152 Cd142 2.297 . S
O152 C147 1.247 . S
O153 Cd142 2.439 1_565 S
O153 C147 1.208 1_565 S
O154 Cd155 2.223 . S
O154 C162 1.315 . S
Cd155 O154 2.223 . S
Cd155 O158 2.297 . S
Cd155 O159 2.415 1_554 S
Cd155 O165 2.240 . S
Cd156 O157 2.240 1_556 S
Cd156 O164 2.223 1_556 S
Cd156 O166 2.297 . S
Cd156 O167 2.439 . S
O157 Cd156 2.240 1_554 S
O157 C162 1.279 . S
O158 Cd155 2.297 . S
O158 C160 1.247 . S
O159 Cd155 2.415 1_556 S
O159 C160 1.166 1_556 S
C160 O158 1.247 . S
C160 O159 1.166 1_554 S
C161 O166 1.247 . S
C161 O167 1.208 . S
C162 O154 1.315 . S
C162 O157 1.279 . S
C163 O164 1.315 . S
C163 O165 1.279 . S
O164 Cd156 2.223 1_554 S
O164 C163 1.315 . S
O165 Cd155 2.240 . S
O165 C163 1.279 . S
O166 Cd156 2.297 . S
O166 C161 1.247 . S
O167 Cd156 2.439 . S
O167 C161 1.208 . S
O168 Cd169 2.223 . S
O168 C176 1.315 . S
Cd169 O168 2.223 . S
Cd169 O172 2.297 . S
Cd169 O173 2.439 . S
Cd169 O179 2.240 . S
Cd170 O171 2.240 . S
Cd170 O178 2.223 . S
Cd170 O180 2.297 1_554 S
Cd170 O181 2.439 1_554 S
O171 Cd170 2.240 . S
O171 C176 1.279 . S
O172 Cd169 2.297 . S
O172 C174 1.247 . S
O173 Cd169 2.439 . S
O173 C174 1.208 . S
C174 O172 1.247 . S
C174 O173 1.208 . S
C175 O180 1.247 . S
C175 O181 1.208 . S
C176 O168 1.315 . S
C176 O171 1.279 . S
C177 O178 1.315 . S
C177 O179 1.279 . S
O178 Cd170 2.223 . S
O178 C177 1.315 . S
O179 Cd169 2.240 . S
O179 C177 1.279 . S
O180 Cd170 2.297 1_556 S
O180 C175 1.247 . S
O181 Cd170 2.439 1_556 S
O181 C175 1.208 . S
O182 Cd183 2.223 . S
O182 C190 1.315 . S
Cd183 O182 2.223 . S
Cd183 O186 2.297 . S
Cd183 O187 2.439 . S
Cd183 O193 2.240 . S
Cd184 O185 2.240 . S
Cd184 O192 2.223 . S
Cd184 O194 2.297 1_554 S
Cd184 O195 2.439 1_554 S
O185 Cd184 2.240 . S
O185 C190 1.279 . S
O186 Cd183 2.297 . S
O186 C188 1.247 . S
O187 Cd183 2.439 . S
O187 C188 1.208 . S
C188 O186 1.247 . S
C188 O187 1.208 . S
C189 O194 1.247 . S
C189 O195 1.208 . S
C190 O182 1.315 . S
C190 O185 1.279 . S
C191 O192 1.315 . S
C191 O193 1.279 . S
O192 Cd184 2.223 . S
O192 C191 1.315 . S
O193 Cd183 2.240 . S
O193 C191 1.279 . S
O194 Cd184 2.297 1_556 S
O194 C189 1.247 . S
O195 Cd184 2.439 1_556 S
O195 C189 1.208 . S
O196 Cd197 2.223 . S
O196 C204 1.315 . S
Cd197 O196 2.223 . S
Cd197 O200 2.297 . S
Cd197 O201 2.439 . S
Cd197 O207 2.240 . S
Cd198 O199 2.240 . S
Cd198 O206 2.223 . S
Cd198 O208 2.297 . S
Cd198 O209 2.439 . S
O199 Cd198 2.240 . S
O199 C204 1.279 . S
O200 Cd197 2.297 . S
O200 C202 1.247 . S
O201 Cd197 2.439 . S
O201 C202 1.208 . S
C202 O200 1.247 . S
C202 O201 1.208 . S
C203 O208 1.247 . S
C203 O209 1.208 . S
C204 O196 1.315 . S
C204 O199 1.279 . S
C205 O206 1.315 . S
C205 O207 1.279 . S
O206 Cd198 2.223 . S
O206 C205 1.315 . S
O207 Cd197 2.240 . S
O207 C205 1.279 . S
O208 Cd198 2.297 . S
O208 C203 1.247 . S
O209 Cd198 2.439 . S
O209 C203 1.208 . S
O210 Cd211 2.223 . S
O210 C218 1.315 . S
Cd211 O210 2.223 . S
Cd211 O214 2.297 . S
Cd211 O215 2.439 . S
Cd211 O221 2.240 . S
Cd212 O213 2.240 . S
Cd212 O220 2.223 . S
Cd212 O222 2.297 . S
Cd212 O223 2.439 . S
O213 Cd212 2.240 . S
O213 C218 1.279 . S
O214 Cd211 2.297 . S
O214 C216 1.247 . S
O215 Cd211 2.439 . S
O215 C216 1.208 . S
C216 O214 1.247 . S
C216 O215 1.208 . S
C217 O222 1.247 . S
C217 O223 1.208 . S
C218 O210 1.315 . S
C218 O213 1.279 . S
C219 O220 1.315 . S
C219 O221 1.279 . S
O220 Cd212 2.223 . S
O220 C219 1.315 . S
O221 Cd211 2.240 . S
O221 C219 1.279 . S
O222 Cd212 2.297 . S
O222 C217 1.247 . S
O223 Cd212 2.439 . S
O223 C217 1.208 . S
O224 Cd225 2.223 . S
O224 C232 1.315 . S
Cd225 O224 2.223 . S
Cd225 O228 2.297 . S
Cd225 O229 2.439 . S
Cd225 O235 2.240 . S
Cd226 O227 2.240 . S
Cd226 O234 2.223 . S
Cd226 O236 2.297 . S
Cd226 O237 2.439 . S
O227 Cd226 2.240 . S
O227 C232 1.279 . S
O228 Cd225 2.297 . S
O228 C230 1.247 . S
O229 Cd225 2.439 . S
O229 C230 1.208 . S
C230 O228 1.247 . S
C230 O229 1.208 . S
C231 O236 1.247 . S
C231 O237 1.208 . S
C232 O224 1.315 . S
C232 O227 1.279 . S
C233 O234 1.315 . S
C233 O235 1.279 . S
O234 Cd226 2.223 . S
O234 C233 1.315 . S
O235 Cd225 2.240 . S
O235 C233 1.279 . S
O236 Cd226 2.297 . S
O236 C231 1.247 . S
O237 Cd226 2.439 . S
O237 C231 1.208 . S
O238 Cd239 2.223 . S
O238 C246 1.315 . S
Cd239 O238 2.223 . S
Cd239 O242 2.297 . S
Cd239 O243 2.439 . S
Cd239 O249 2.240 . S
Cd240 O241 2.240 . S
Cd240 O248 2.223 . S
Cd240 O250 2.297 . S
Cd240 O251 2.439 . S
O241 Cd240 2.240 . S
O241 C246 1.279 . S
O242 Cd239 2.297 . S
O242 C244 1.247 . S
O243 Cd239 2.439 . S
O243 C244 1.208 . S
C244 O242 1.247 . S
C244 O243 1.208 . S
C245 O250 1.247 . S
C245 O251 1.208 . S
C246 O238 1.315 . S
C246 O241 1.279 . S
C247 O248 1.315 . S
C247 O249 1.279 . S
O248 Cd240 2.223 . S
O248 C247 1.315 . S
O249 Cd239 2.240 . S
O249 C247 1.279 . S
O250 Cd240 2.297 . S
O250 C245 1.247 . S
O251 Cd240 2.439 . S
O251 C245 1.208 . S
O252 Cd253 2.223 . S
O252 C260 1.315 . S
Cd253 O252 2.223 . S
Cd253 O256 2.297 . S
Cd253 O257 2.439 . S
Cd253 O263 2.240 . S
Cd254 O255 2.240 . S
Cd254 O262 2.223 . S
Cd254 O264 2.297 . S
Cd254 O265 2.439 . S
O255 Cd254 2.240 . S
O255 C260 1.279 . S
O256 Cd253 2.297 . S
O256 C258 1.247 . S
O257 Cd253 2.439 . S
O257 C258 1.208 . S
C258 O256 1.247 . S
C258 O257 1.208 . S
C259 O264 1.247 . S
C259 O265 1.208 . S
C260 O252 1.315 . S
C260 O255 1.279 . S
C261 O262 1.315 . S
C261 O263 1.279 . S
O262 Cd254 2.223 . S
O262 C261 1.315 . S
O263 Cd253 2.240 . S
O263 C261 1.279 . S
O264 Cd254 2.297 . S
O264 C259 1.247 . S
O265 Cd254 2.439 . S
O265 C259 1.208 . S
O266 Cd267 2.223 . S
O266 C274 1.315 . S
Cd267 O266 2.223 . S
Cd267 O270 2.297 . S
Cd267 O271 2.439 . S
Cd267 O277 2.240 . S
Cd268 O269 2.240 . S
Cd268 O276 2.223 . S
Cd268 O278 2.297 . S
Cd268 O279 2.439 . S
O269 Cd268 2.240 . S
O269 C274 1.279 . S
O270 Cd267 2.297 . S
O270 C272 1.247 . S
O271 Cd267 2.439 . S
O271 C272 1.208 . S
C272 O270 1.247 . S
C272 O271 1.208 . S
C273 O278 1.247 . S
C273 O279 1.208 . S
C274 O266 1.315 . S
C274 O269 1.279 . S
C275 O276 1.315 . S
C275 O277 1.279 . S
O276 Cd268 2.223 . S
O276 C275 1.315 . S
O277 Cd267 2.240 . S
O277 C275 1.279 . S
O278 Cd268 2.297 . S
O278 C273 1.247 . S
O279 Cd268 2.439 . S
O279 C273 1.208 . S
O280 Cd281 2.223 . S
O280 C288 1.315 . S
Cd281 O280 2.223 . S
Cd281 O284 2.297 . S
Cd281 O285 2.439 . S
Cd281 O291 2.240 . S
Cd282 O283 2.240 . S
Cd282 O290 2.223 . S
Cd282 O292 2.297 1_554 S
Cd282 O293 2.439 1_554 S
O283 Cd282 2.240 . S
O283 C288 1.279 . S
O284 Cd281 2.297 . S
O284 C286 1.247 . S
O285 Cd281 2.439 . S
O285 C286 1.208 . S
C286 O284 1.247 . S
C286 O285 1.208 . S
C287 O292 1.247 . S
C287 O293 1.208 . S
C288 O280 1.315 . S
C288 O283 1.279 . S
C289 O290 1.315 . S
C289 O291 1.279 . S
O290 Cd282 2.223 . S
O290 C289 1.315 . S
O291 Cd281 2.240 . S
O291 C289 1.279 . S
O292 Cd282 2.297 1_556 S
O292 C287 1.247 . S
O293 Cd282 2.439 1_556 S
O293 C287 1.208 . S
O294 Cd295 2.223 . S
O294 C302 1.315 . S
Cd295 O294 2.223 . S
Cd295 O298 2.297 . S
Cd295 O299 2.439 . S
Cd295 O305 2.240 . S
Cd296 O297 2.240 . S
Cd296 O304 2.223 . S
Cd296 O306 2.297 . S
Cd296 O307 2.439 . S
O297 Cd296 2.240 . S
O297 C302 1.279 . S
O298 Cd295 2.297 . S
O298 C300 1.247 . S
O299 Cd295 2.439 . S
O299 C300 1.208 . S
C300 O298 1.247 . S
C300 O299 1.208 . S
C301 O306 1.247 . S
C301 O307 1.208 . S
C302 O294 1.315 . S
C302 O297 1.279 . S
C303 O304 1.315 . S
C303 O305 1.279 . S
O304 Cd296 2.223 . S
O304 C303 1.315 . S
O305 Cd295 2.240 . S
O305 C303 1.279 . S
O306 Cd296 2.297 . S
O306 C301 1.247 . S
O307 Cd296 2.439 . S
O307 C301 1.208 . S
O308 Cd309 2.223 . S
O308 C316 1.315 . S
Cd309 O308 2.223 . S
Cd309 O312 2.297 . S
Cd309 O313 2.439 . S
Cd309 O319 2.240 . S
Cd310 O311 2.240 . S
Cd310 O318 2.223 . S
Cd310 O320 2.297 . S
Cd310 O321 2.439 . S
O311 Cd310 2.240 . S
O311 C316 1.279 . S
O312 Cd309 2.297 . S
O312 C314 1.247 . S
O313 Cd309 2.439 . S
O313 C314 1.208 . S
C314 O312 1.247 . S
C314 O313 1.208 . S
C315 O320 1.247 . S
C315 O321 1.208 . S
C316 O308 1.315 . S
C316 O311 1.279 . S
C317 O318 1.315 . S
C317 O319 1.279 . S
O318 Cd310 2.223 . S
O318 C317 1.315 . S
O319 Cd309 2.240 . S
O319 C317 1.279 . S
O320 Cd310 2.297 . S
O320 C315 1.247 . S
O321 Cd310 2.439 . S
O321 C315 1.208 . S
O322 Cd323 2.223 . S
O322 C330 1.315 . S
Cd323 O322 2.223 . S
Cd323 O326 2.297 . S
Cd323 O327 2.439 . S
Cd323 O333 2.240 . S
Cd324 O325 2.240 . S
Cd324 O332 2.223 . S
Cd324 O334 2.297 . S
Cd324 O335 2.439 . S
O325 Cd324 2.240 . S
O325 C330 1.279 . S
O326 Cd323 2.297 . S
O326 C328 1.247 . S
O327 Cd323 2.439 . S
O327 C328 1.208 . S
C328 O326 1.247 . S
C328 O327 1.208 . S
C329 O334 1.247 . S
C329 O335 1.208 . S
C330 O322 1.315 . S
C330 O325 1.279 . S
C331 O332 1.315 . S
C331 O333 1.279 . S
O332 Cd324 2.223 . S
O332 C331 1.315 . S
O333 Cd323 2.240 . S
O333 C331 1.279 . S
O334 Cd324 2.297 . S
O334 C329 1.247 . S
O335 Cd324 2.439 . S
O335 C329 1.208 . S
Gd336 C339 2.829 1_455 S
Gd336 O356 2.377 . S
Gd336 O358 2.448 1_454 S
Gd336 O359 2.506 1_455 S
Gd336 O360 2.435 1_554 S
Gd336 O361 2.728 . S
Gd336 O363 2.395 . S
Gd336 O367 2.327 . S
Gd337 C348 2.818 . S
Gd337 O357 2.395 . S
Gd337 O361 2.352 . S
Gd337 O362 2.377 . S
Gd337 O364 2.448 . S
Gd337 O365 2.506 . S
Gd337 O366 2.435 . S
Gd337 O367 2.717 . S
C338 O356 1.240 . S
C338 O357 1.240 . S
C339 Gd336 2.829 1_655 S
C339 C340 1.500 1_554 S
C339 O358 1.206 1_554 S
C339 O359 1.307 . S
C340 C339 1.500 1_556 S
C340 C341 1.404 . S
C340 C342 1.352 1_556 S
C341 C340 1.404 . S
C341 C345 1.389 . S
C341 H368 0.930 . S
C342 C340 1.352 1_554 S
C342 C344 1.374 . S
C342 H369 0.931 . S
C343 C344 1.359 1_556 S
C343 C345 1.364 . S
C344 C342 1.374 . S
C344 C343 1.359 1_554 S
C344 H370 0.931 . S
C345 C341 1.389 . S
C345 C343 1.364 . S
C345 H371 0.931 . S
C346 O360 1.256 . S
C346 O361 1.228 1_556 S
C347 O362 1.240 . S
C347 O363 1.240 . S
C348 Gd337 2.818 . S
C348 C349 1.510 . S
C348 O364 1.249 . S
C348 O365 1.252 . S
C349 C348 1.510 . S
C349 C350 1.404 . S
C349 C351 1.352 . S
C350 C349 1.404 . S
C350 C354 1.389 . S
C350 H372 0.930 . S
C351 C349 1.352 . S
C351 C353 1.374 . S
C351 H373 0.931 . S
C352 C353 1.359 . S
C352 C354 1.364 . S
C353 C351 1.374 . S
C353 C352 1.359 . S
C353 H374 0.900 1_545 S
C354 C350 1.389 . S
C354 C352 1.364 . S
C354 H375 0.931 . S
C355 O366 1.256 . S
C355 O367 1.257 . S
O356 Gd336 2.377 . S
O356 C338 1.240 . S
O357 Gd337 2.395 . S
O357 C338 1.240 . S
O358 Gd336 2.448 1_656 S
O358 C339 1.206 1_556 S
O359 Gd336 2.506 1_655 S
O359 C339 1.307 . S
O360 Gd336 2.435 1_556 S
O360 C346 1.256 . S
O361 Gd336 2.728 . S
O361 Gd337 2.352 . S
O361 C346 1.228 1_554 S
O362 Gd337 2.377 . S
O362 C347 1.240 . S
O363 Gd336 2.395 . S
O363 C347 1.240 . S
O364 Gd337 2.448 . S
O364 C348 1.249 . S
O365 Gd337 2.506 . S
O365 C348 1.252 . S
O366 Gd337 2.435 . S
O366 C355 1.256 . S
O367 Gd336 2.327 . S
O367 Gd337 2.717 . S
O367 C355 1.257 . S
H368 C341 0.930 . S
H369 C342 0.931 . S
H370 C344 0.931 . S
H371 C345 0.931 . S
H372 C350 0.930 . S
H373 C351 0.931 . S
H374 C353 0.900 1_565 S
H375 C354 0.931 . S
Gd376 C379 2.818 . S
Gd376 O396 2.377 . S
Gd376 O398 2.448 . S
Gd376 O399 2.506 . S
Gd376 O400 2.435 . S
Gd376 O401 2.717 . S
Gd376 O403 2.395 . S
Gd376 O407 2.327 . S
Gd377 C388 2.818 . S
Gd377 O397 2.395 . S
Gd377 O401 2.327 . S
Gd377 O402 2.377 . S
Gd377 O404 2.448 . S
Gd377 O405 2.506 . S
Gd377 O406 2.435 . S
Gd377 O407 2.717 . S
C378 O396 1.240 . S
C378 O397 1.240 . S
C379 Gd376 2.818 . S
C379 C380 1.510 . S
C379 O398 1.249 . S
C379 O399 1.252 . S
C380 C379 1.510 . S
C380 C381 1.404 . S
C380 C382 1.352 . S
C381 C380 1.404 . S
C381 C385 1.389 . S
C381 H408 0.930 . S
C382 C380 1.352 . S
C382 C384 1.374 . S
C382 H409 0.931 . S
C383 C384 1.359 . S
C383 C385 1.364 . S
C384 C382 1.374 . S
C384 C383 1.359 . S
C384 H410 0.931 . S
C385 C381 1.389 . S
C385 C383 1.364 . S
C385 H411 0.931 . S
C386 O400 1.256 . S
C386 O401 1.257 . S
C387 O402 1.240 . S
C387 O403 1.240 . S
C388 Gd377 2.818 . S
C388 C389 1.510 . S
C388 O404 1.249 . S
C388 O405 1.252 . S
C389 C388 1.510 . S
C389 C390 1.404 . S
C389 C391 1.352 . S
C390 C389 1.404 . S
C390 C394 1.389 . S
C390 H412 0.930 . S
C391 C389 1.352 . S
C391 C393 1.374 . S
C391 H413 0.931 . S
C392 C393 1.359 . S
C392 C394 1.364 . S
C393 C391 1.374 . S
C393 C392 1.359 . S
C393 H414 0.931 . S
C394 C390 1.389 . S
C394 C392 1.364 . S
C394 H415 0.931 . S
C395 O406 1.256 . S
C395 O407 1.257 . S
O396 Gd376 2.377 . S
O396 C378 1.240 . S
O397 Gd377 2.395 . S
O397 C378 1.240 . S
O398 Gd376 2.448 . S
O398 C379 1.249 . S
O399 Gd376 2.506 . S
O399 C379 1.252 . S
O400 Gd376 2.435 . S
O400 C386 1.256 . S
O401 Gd376 2.717 . S
O401 Gd377 2.327 . S
O401 C386 1.257 . S
O402 Gd377 2.377 . S
O402 C387 1.240 . S
O403 Gd376 2.395 . S
O403 C387 1.240 . S
O404 Gd377 2.448 . S
O404 C388 1.249 . S
O405 Gd377 2.506 . S
O405 C388 1.252 . S
O406 Gd377 2.435 . S
O406 C395 1.256 . S
O407 Gd376 2.327 . S
O407 Gd377 2.717 . S
O407 C395 1.257 . S
H408 C381 0.930 . S
H409 C382 0.931 . S
H410 C384 0.931 . S
H411 C385 0.931 . S
H412 C390 0.930 . S
H413 C391 0.931 . S
H414 C393 0.931 . S
H415 C394 0.931 . S
Gd416 C419 2.818 . S
Gd416 O436 2.377 . S
Gd416 O438 2.448 . S
Gd416 O439 2.506 . S
Gd416 O440 2.435 . S
Gd416 O441 2.717 . S
Gd416 O443 2.395 . S
Gd416 O447 2.327 . S
Gd417 C428 2.818 . S
Gd417 O437 2.399 1_545 S
Gd417 O441 2.327 . S
Gd417 O442 2.377 . S
Gd417 O444 2.448 . S
Gd417 O445 2.506 . S
Gd417 O446 2.435 . S
Gd417 O447 2.717 . S
C418 O436 1.240 1_565 S
C418 O437 1.238 . S
C419 Gd416 2.818 . S
C419 C420 1.510 . S
C419 O438 1.249 . S
C419 O439 1.252 . S
C420 C419 1.510 . S
C420 C421 1.404 . S
C420 C422 1.352 1_545 S
C421 C420 1.404 . S
C421 C425 1.389 1_545 S
C421 H448 0.930 . S
C422 C420 1.352 1_565 S
C422 C424 1.374 . S
C422 H449 0.931 . S
C423 C424 1.359 . S
C423 C425 1.364 . S
C424 C422 1.374 . S
C424 C423 1.359 . S
C424 H450 0.931 . S
C425 C421 1.389 1_565 S
C425 C423 1.364 . S
C425 H451 0.931 . S
C426 O440 1.256 . S
C426 O441 1.257 . S
C427 O442 1.240 . S
C427 O443 1.240 . S
C428 Gd417 2.818 . S
C428 C429 1.510 . S
C428 O444 1.249 . S
C428 O445 1.252 . S
C429 C428 1.510 . S
C429 C430 1.404 . S
C429 C431 1.352 . S
C430 C429 1.404 . S
C430 C434 1.389 . S
C430 H452 0.930 . S
C431 C429 1.352 . S
C431 C433 1.374 . S
C431 H453 0.931 . S
C432 C433 1.359 . S
C432 C434 1.364 . S
C433 C431 1.374 . S
C433 C432 1.359 . S
C433 H454 0.931 . S
C434 C430 1.389 . S
C434 C432 1.364 . S
C434 H455 0.931 . S
C435 O446 1.256 . S
C435 O447 1.257 . S
O436 Gd416 2.377 . S
O436 C418 1.240 1_545 S
O437 Gd417 2.399 1_565 S
O437 C418 1.238 . S
O438 Gd416 2.448 . S
O438 C419 1.249 . S
O439 Gd416 2.506 . S
O439 C419 1.252 . S
O440 Gd416 2.435 . S
O440 C426 1.256 . S
O441 Gd416 2.717 . S
O441 Gd417 2.327 . S
O441 C426 1.257 . S
O442 Gd417 2.377 . S
O442 C427 1.240 . S
O443 Gd416 2.395 . S
O443 C427 1.240 . S
O444 Gd417 2.448 . S
O444 C428 1.249 . S
O445 Gd417 2.506 . S
O445 C428 1.252 . S
O446 Gd417 2.435 . S
O446 C435 1.256 . S
O447 Gd416 2.327 . S
O447 Gd417 2.717 . S
O447 C435 1.257 . S
H448 C421 0.930 . S
H449 C422 0.931 . S
H450 C424 0.931 . S
H451 C425 0.931 . S
H452 C430 0.930 . S
H453 C431 0.931 . S
H454 C433 0.931 . S
H455 C434 0.931 . S
Gd456 C459 2.818 . S
Gd456 O476 2.377 . S
Gd456 O478 2.448 . S
Gd456 O479 2.506 . S
Gd456 O480 2.435 . S
Gd456 O481 2.717 . S
Gd456 O483 2.395 . S
Gd456 O487 2.327 . S
Gd457 C468 2.818 . S
Gd457 O477 2.395 . S
Gd457 O481 2.327 . S
Gd457 O482 2.377 . S
Gd457 O484 2.448 . S
Gd457 O485 2.506 . S
Gd457 O486 2.435 . S
Gd457 O487 2.717 . S
C458 O476 1.240 . S
C458 O477 1.240 . S
C459 Gd456 2.818 . S
C459 C460 1.510 . S
C459 O478 1.249 . S
C459 O479 1.252 . S
C460 C459 1.510 . S
C460 C461 1.404 . S
C460 C462 1.352 . S
C461 C460 1.404 . S
C461 C465 1.389 . S
C461 H488 0.930 . S
C462 C460 1.352 . S
C462 C464 1.374 . S
C462 H489 0.931 . S
C463 C464 1.359 . S
C463 C465 1.364 . S
C464 C462 1.374 . S
C464 C463 1.359 . S
C464 H490 0.931 . S
C465 C461 1.389 . S
C465 C463 1.364 . S
C465 H491 0.931 . S
C466 O480 1.256 . S
C466 O481 1.257 . S
C467 O482 1.240 . S
C467 O483 1.240 . S
C468 Gd457 2.818 . S
C468 C469 1.510 . S
C468 O484 1.249 . S
C468 O485 1.252 . S
C469 C468 1.510 . S
C469 C470 1.404 . S
C469 C471 1.352 . S
C470 C469 1.404 . S
C470 C474 1.389 . S
C470 H492 0.930 . S
C471 C469 1.352 . S
C471 C473 1.374 . S
C471 H493 0.931 . S
C472 C473 1.359 . S
C472 C474 1.364 . S
C473 C471 1.374 . S
C473 C472 1.359 . S
C473 H494 0.931 . S
C474 C470 1.389 . S
C474 C472 1.364 . S
C474 H495 0.931 . S
C475 O486 1.256 . S
C475 O487 1.257 . S
O476 Gd456 2.377 . S
O476 C458 1.240 . S
O477 Gd457 2.395 . S
O477 C458 1.240 . S
O478 Gd456 2.448 . S
O478 C459 1.249 . S
O479 Gd456 2.506 . S
O479 C459 1.252 . S
O480 Gd456 2.435 . S
O480 C466 1.256 . S
O481 Gd456 2.717 . S
O481 Gd457 2.327 . S
O481 C466 1.257 . S
O482 Gd457 2.377 . S
O482 C467 1.240 . S
O483 Gd456 2.395 . S
O483 C467 1.240 . S
O484 Gd457 2.448 . S
O484 C468 1.249 . S
O485 Gd457 2.506 . S
O485 C468 1.252 . S
O486 Gd457 2.435 . S
O486 C475 1.256 . S
O487 Gd456 2.327 . S
O487 Gd457 2.717 . S
O487 C475 1.257 . S
H488 C461 0.930 . S
H489 C462 0.931 . S
H490 C464 0.931 . S
H491 C465 0.931 . S
H492 C470 0.930 . S
H493 C471 0.931 . S
H494 C473 0.931 . S
H495 C474 0.931 . S
Gd496 C499 2.818 . S
Gd496 O516 2.377 . S
Gd496 O518 2.448 . S
Gd496 O519 2.506 . S
Gd496 O520 2.435 . S
Gd496 O521 2.717 . S
Gd496 O523 2.395 . S
Gd496 O527 2.327 . S
Gd497 C508 2.818 1_545 S
Gd497 O517 2.395 . S
Gd497 O521 2.327 . S
Gd497 O522 2.377 . S
Gd497 O524 2.448 1_545 S
Gd497 O525 2.506 1_545 S
Gd497 O526 2.435 . S
Gd497 O527 2.717 . S
C498 O516 1.240 . S
C498 O517 1.240 . S
C499 Gd496 2.818 . S
C499 C500 1.510 . S
C499 O518 1.249 . S
C499 O519 1.252 . S
C500 C499 1.510 . S
C500 C501 1.404 . S
C500 C502 1.352 . S
C501 C500 1.404 . S
C501 C505 1.389 . S
C501 H528 0.930 . S
C502 C500 1.352 . S
C502 C504 1.374 . S
C502 H529 0.931 . S
C503 C504 1.359 . S
C503 C505 1.364 . S
C504 C502 1.374 . S
C504 C503 1.359 . S
C504 H530 0.931 . S
C505 C501 1.389 . S
C505 C503 1.364 . S
C505 H531 0.931 . S
C506 O520 1.256 . S
C506 O521 1.257 . S
C507 O522 1.240 . S
C507 O523 1.240 . S
C508 Gd497 2.818 1_565 S
C508 C509 1.510 . S
C508 O524 1.249 . S
C508 O525 1.252 . S
C509 C508 1.510 . S
C509 C510 1.404 . S
C509 C511 1.352 . S
C510 C509 1.404 . S
C510 C514 1.389 . S
C510 H532 0.930 . S
C511 C509 1.352 . S
C511 C513 1.374 . S
C511 H533 0.931 . S
C512 C513 1.359 . S
C512 C514 1.364 . S
C513 C511 1.374 . S
C513 C512 1.359 . S
C513 H534 0.931 . S
C514 C510 1.389 . S
C514 C512 1.364 . S
C514 H535 0.931 . S
C515 O526 1.256 . S
C515 O527 1.257 . S
O516 Gd496 2.377 . S
O516 C498 1.240 . S
O517 Gd497 2.395 . S
O517 C498 1.240 . S
O518 Gd496 2.448 . S
O518 C499 1.249 . S
O519 Gd496 2.506 . S
O519 C499 1.252 . S
O520 Gd496 2.435 . S
O520 C506 1.256 . S
O521 Gd496 2.717 . S
O521 Gd497 2.327 . S
O521 C506 1.257 . S
O522 Gd497 2.377 . S
O522 C507 1.240 . S
O523 Gd496 2.395 . S
O523 C507 1.240 . S
O524 Gd497 2.448 1_565 S
O524 C508 1.249 . S
O525 Gd497 2.506 1_565 S
O525 C508 1.252 . S
O526 Gd497 2.435 . S
O526 C515 1.256 . S
O527 Gd496 2.327 . S
O527 Gd497 2.717 . S
O527 C515 1.257 . S
H528 C501 0.930 . S
H529 C502 0.931 . S
H530 C504 0.931 . S
H531 C505 0.931 . S
H532 C510 0.930 . S
H533 C511 0.931 . S
H534 C513 0.931 . S
H535 C514 0.931 . S
Gd536 C539 2.818 . S
Gd536 O556 2.377 . S
Gd536 O558 2.448 . S
Gd536 O559 2.506 . S
Gd536 O560 2.435 . S
Gd536 O561 2.717 . S
Gd536 O563 2.395 . S
Gd536 O567 2.327 . S
Gd537 C548 2.818 . S
Gd537 O557 2.395 . S
Gd537 O561 2.327 . S
Gd537 O562 2.377 . S
Gd537 O564 2.448 . S
Gd537 O565 2.506 . S
Gd537 O566 2.435 . S
Gd537 O567 2.717 . S
C538 O556 1.240 . S
C538 O557 1.240 . S
C539 Gd536 2.818 . S
C539 C540 1.510 . S
C539 O558 1.249 . S
C539 O559 1.252 . S
C540 C539 1.510 . S
C540 C541 1.404 . S
C540 C542 1.352 . S
C541 C540 1.404 . S
C541 C545 1.389 . S
C541 H568 0.930 . S
C542 C540 1.352 . S
C542 C544 1.374 . S
C542 H569 0.931 . S
C543 C544 1.359 . S
C543 C545 1.364 . S
C544 C542 1.374 . S
C544 C543 1.359 . S
C544 H570 0.931 . S
C545 C541 1.389 . S
C545 C543 1.364 . S
C545 H571 0.931 . S
C546 O560 1.256 . S
C546 O561 1.257 . S
C547 O562 1.240 . S
C547 O563 1.240 . S
C548 Gd537 2.818 . S
C548 C549 1.510 . S
C548 O564 1.249 . S
C548 O565 1.252 . S
C549 C548 1.510 . S
C549 C550 1.404 . S
C549 C551 1.352 . S
C550 C549 1.404 . S
C550 C554 1.389 . S
C550 H572 0.930 . S
C551 C549 1.352 . S
C551 C553 1.374 . S
C551 H573 0.931 . S
C552 C553 1.359 . S
C552 C554 1.364 . S
C553 C551 1.374 . S
C553 C552 1.359 . S
C553 H574 0.931 . S
C554 C550 1.389 . S
C554 C552 1.364 . S
C554 H575 0.931 . S
C555 O566 1.256 . S
C555 O567 1.257 . S
O556 Gd536 2.377 . S
O556 C538 1.240 . S
O557 Gd537 2.395 . S
O557 C538 1.240 . S
O558 Gd536 2.448 . S
O558 C539 1.249 . S
O559 Gd536 2.506 . S
O559 C539 1.252 . S
O560 Gd536 2.435 . S
O560 C546 1.256 . S
O561 Gd536 2.717 . S
O561 Gd537 2.327 . S
O561 C546 1.257 . S
O562 Gd537 2.377 . S
O562 C547 1.240 . S
O563 Gd536 2.395 . S
O563 C547 1.240 . S
O564 Gd537 2.448 . S
O564 C548 1.249 . S
O565 Gd537 2.506 . S
O565 C548 1.252 . S
O566 Gd537 2.435 . S
O566 C555 1.256 . S
O567 Gd536 2.327 . S
O567 Gd537 2.717 . S
O567 C555 1.257 . S
H568 C541 0.930 . S
H569 C542 0.931 . S
H570 C544 0.931 . S
H571 C545 0.931 . S
H572 C550 0.930 . S
H573 C551 0.931 . S
H574 C553 0.931 . S
H575 C554 0.931 . S
Gd576 C579 2.818 . S
Gd576 O596 2.377 . S
Gd576 O598 2.448 . S
Gd576 O599 2.506 . S
Gd576 O600 2.417 1_545 S
Gd576 O601 2.717 . S
Gd576 O603 2.395 . S
Gd576 O607 2.327 . S
Gd577 C588 2.818 . S
Gd577 O597 2.395 1_556 S
Gd577 O601 2.327 1_556 S
Gd577 O602 2.377 1_556 S
Gd577 O604 2.448 . S
Gd577 O605 2.506 . S
Gd577 O606 2.435 1_556 S
Gd577 O607 2.717 1_556 S
C578 O596 1.240 . S
C578 O597 1.240 . S
C579 Gd576 2.818 . S
C579 C580 1.510 . S
C579 O598 1.249 . S
C579 O599 1.252 . S
C580 C579 1.510 . S
C580 C581 1.404 1_545 S
C580 C582 1.352 . S
C581 C580 1.404 1_565 S
C581 C585 1.389 . S
C581 H608 0.930 . S
C582 C580 1.352 . S
C582 C584 1.374 . S
C582 H609 0.931 . S
C583 C584 1.359 . S
C583 C585 1.364 1_545 S
C584 C582 1.374 . S
C584 C583 1.359 . S
C584 H610 0.931 . S
C585 C581 1.389 . S
C585 C583 1.364 1_565 S
C585 H611 0.931 . S
C586 O600 1.248 1_545 S
C586 O601 1.257 . S
C587 O602 1.240 . S
C587 O603 1.240 . S
C588 Gd577 2.818 . S
C588 C589 1.510 . S
C588 O604 1.249 . S
C588 O605 1.252 . S
C589 C588 1.510 . S
C589 C590 1.404 . S
C589 C591 1.352 . S
C590 C589 1.404 . S
C590 C594 1.389 . S
C590 H612 0.930 . S
C591 C589 1.352 . S
C591 C593 1.374 . S
C591 H613 0.931 . S
C592 C593 1.359 . S
C592 C594 1.364 . S
C593 C591 1.374 . S
C593 C592 1.359 . S
C593 H614 0.931 . S
C594 C590 1.389 . S
C594 C592 1.364 . S
C594 H615 0.931 . S
C595 O606 1.256 . S
C595 O607 1.257 . S
O596 Gd576 2.377 . S
O596 C578 1.240 . S
O597 Gd577 2.395 1_554 S
O597 C578 1.240 . S
O598 Gd576 2.448 . S
O598 C579 1.249 . S
O599 Gd576 2.506 . S
O599 C579 1.252 . S
O600 Gd576 2.417 1_565 S
O600 C586 1.248 1_565 S
O601 Gd576 2.717 . S
O601 Gd577 2.327 1_554 S
O601 C586 1.257 . S
O602 Gd577 2.377 1_554 S
O602 C587 1.240 . S
O603 Gd576 2.395 . S
O603 C587 1.240 . S
O604 Gd577 2.448 . S
O604 C588 1.249 . S
O605 Gd577 2.506 . S
O605 C588 1.252 . S
O606 Gd577 2.435 1_554 S
O606 C595 1.256 . S
O607 Gd576 2.327 . S
O607 Gd577 2.717 1_554 S
O607 C595 1.257 . S
H608 C581 0.930 . S
H609 C582 0.931 . S
H610 C584 0.931 . S
H611 C585 0.931 . S
H612 C590 0.930 . S
H613 C591 0.931 . S
H614 C593 0.931 . S
H615 C594 0.931 . S
Gd616 C619 2.818 . S
Gd616 O636 2.377 . S
Gd616 O638 2.448 . S
Gd616 O639 2.506 . S
Gd616 O640 2.435 . S
Gd616 O641 2.717 . S
Gd616 O643 2.395 . S
Gd616 O647 2.327 . S
Gd617 C628 2.818 . S
Gd617 O637 2.395 . S
Gd617 O641 2.327 . S
Gd617 O642 2.377 . S
Gd617 O644 2.448 . S
Gd617 O645 2.506 . S
Gd617 O646 2.435 . S
Gd617 O647 2.717 . S
C618 O636 1.240 . S
C618 O637 1.240 . S
C619 Gd616 2.818 . S
C619 C620 1.510 . S
C619 O638 1.249 . S
C619 O639 1.252 . S
C620 C619 1.510 . S
C620 C621 1.404 . S
C620 C622 1.352 . S
C621 C620 1.404 . S
C621 C625 1.389 . S
C621 H648 0.930 . S
C622 C620 1.352 . S
C622 C624 1.374 . S
C622 H649 0.931 . S
C623 C624 1.359 . S
C623 C625 1.364 . S
C624 C622 1.374 . S
C624 C623 1.359 . S
C624 H650 0.931 . S
C625 C621 1.389 . S
C625 C623 1.364 . S
C625 H651 0.931 . S
C626 O640 1.256 . S
C626 O641 1.257 . S
C627 O642 1.240 . S
C627 O643 1.240 . S
C628 Gd617 2.818 . S
C628 C629 1.510 . S
C628 O644 1.249 . S
C628 O645 1.252 . S
C629 C628 1.510 . S
C629 C630 1.404 . S
C629 C631 1.352 . S
C630 C629 1.404 . S
C630 C634 1.389 . S
C630 H652 0.930 . S
C631 C629 1.352 . S
C631 C633 1.374 . S
C631 H653 0.931 . S
C632 C633 1.359 . S
C632 C634 1.364 . S
C633 C631 1.374 . S
C633 C632 1.359 . S
C633 H654 0.931 . S
C634 C630 1.389 . S
C634 C632 1.364 . S
C634 H655 0.931 . S
C635 O646 1.256 . S
C635 O647 1.257 . S
O636 Gd616 2.377 . S
O636 C618 1.240 . S
O637 Gd617 2.395 . S
O637 C618 1.240 . S
O638 Gd616 2.448 . S
O638 C619 1.249 . S
O639 Gd616 2.506 . S
O639 C619 1.252 . S
O640 Gd616 2.435 . S
O640 C626 1.256 . S
O641 Gd616 2.717 . S
O641 Gd617 2.327 . S
O641 C626 1.257 . S
O642 Gd617 2.377 . S
O642 C627 1.240 . S
O643 Gd616 2.395 . S
O643 C627 1.240 . S
O644 Gd617 2.448 . S
O644 C628 1.249 . S
O645 Gd617 2.506 . S
O645 C628 1.252 . S
O646 Gd617 2.435 . S
O646 C635 1.256 . S
O647 Gd616 2.327 . S
O647 Gd617 2.717 . S
O647 C635 1.257 . S
H648 C621 0.930 . S
H649 C622 0.931 . S
H650 C624 0.931 . S
H651 C625 0.931 . S
H652 C630 0.930 . S
H653 C631 0.931 . S
H654 C633 0.931 . S
H655 C634 0.931 . S
Gd656 C659 2.818 . S
Gd656 O676 2.377 1_554 S
Gd656 O678 2.448 . S
Gd656 O679 2.506 . S
Gd656 O680 2.435 . S
Gd656 O681 2.717 . S
Gd656 O683 2.395 . S
Gd656 O687 2.327 . S
Gd657 C668 2.818 . S
Gd657 O677 2.395 1_554 S
Gd657 O681 2.327 . S
Gd657 O682 2.377 . S
Gd657 O684 2.448 . S
Gd657 O685 2.506 . S
Gd657 O686 2.435 . S
Gd657 O687 2.717 . S
C658 O676 1.240 . S
C658 O677 1.240 . S
C659 Gd656 2.818 . S
C659 C660 1.493 1_554 S
C659 O678 1.249 . S
C659 O679 1.252 . S
C660 C659 1.493 1_556 S
C660 C661 1.400 1_556 S
C660 C662 1.373 . S
C661 C660 1.400 1_554 S
C661 C665 1.389 1_554 S
C661 H688 0.930 . S
C662 C660 1.373 . S
C662 C664 1.374 . S
C662 H689 0.931 . S
C663 C664 1.359 . S
C663 C665 1.364 . S
C664 C662 1.374 . S
C664 C663 1.359 . S
C664 H690 0.931 . S
C665 C661 1.389 1_556 S
C665 C663 1.364 . S
C665 H691 0.931 . S
C666 O680 1.256 . S
C666 O681 1.257 . S
C667 O682 1.240 . S
C667 O683 1.240 . S
C668 Gd657 2.818 . S
C668 C669 1.510 . S
C668 O684 1.249 . S
C668 O685 1.252 . S
C669 C668 1.510 . S
C669 C670 1.404 . S
C669 C671 1.352 . S
C670 C669 1.404 . S
C670 C674 1.389 . S
C670 H692 0.930 . S
C671 C669 1.352 . S
C671 C673 1.374 . S
C671 H693 0.931 . S
C672 C673 1.359 . S
C672 C674 1.364 . S
C673 C671 1.374 . S
C673 C672 1.359 . S
C673 H694 0.931 . S
C674 C670 1.389 . S
C674 C672 1.364 . S
C674 H695 0.931 . S
C675 O686 1.256 . S
C675 O687 1.257 . S
O676 Gd656 2.377 1_556 S
O676 C658 1.240 . S
O677 Gd657 2.395 1_556 S
O677 C658 1.240 . S
O678 Gd656 2.448 . S
O678 C659 1.249 . S
O679 Gd656 2.506 . S
O679 C659 1.252 . S
O680 Gd656 2.435 . S
O680 C666 1.256 . S
O681 Gd656 2.717 . S
O681 Gd657 2.327 . S
O681 C666 1.257 . S
O682 Gd657 2.377 . S
O682 C667 1.240 . S
O683 Gd656 2.395 . S
O683 C667 1.240 . S
O684 Gd657 2.448 . S
O684 C668 1.249 . S
O685 Gd657 2.506 . S
O685 C668 1.252 . S
O686 Gd657 2.435 . S
O686 C675 1.256 . S
O687 Gd656 2.327 . S
O687 Gd657 2.717 . S
O687 C675 1.257 . S
H688 C661 0.930 . S
H689 C662 0.931 . S
H690 C664 0.931 . S
H691 C665 0.931 . S
H692 C670 0.930 . S
H693 C671 0.931 . S
H694 C673 0.931 . S
H695 C674 0.931 . S
Gd696 C699 2.818 . S
Gd696 O716 2.377 . S
Gd696 O718 2.448 . S
Gd696 O719 2.506 . S
Gd696 O720 2.435 . S
Gd696 O721 2.717 . S
Gd696 O723 2.395 . S
Gd696 O727 2.327 . S
Gd697 C708 2.818 . S
Gd697 O717 2.395 . S
Gd697 O721 2.327 . S
Gd697 O722 2.377 . S
Gd697 O724 2.448 . S
Gd697 O725 2.506 . S
Gd697 O726 2.435 . S
Gd697 O727 2.717 . S
C698 O716 1.240 . S
C698 O717 1.240 . S
C699 Gd696 2.818 . S
C699 C700 1.510 . S
C699 O718 1.249 . S
C699 O719 1.252 . S
C700 C699 1.510 . S
C700 C701 1.404 . S
C700 C702 1.352 . S
C701 C700 1.404 . S
C701 C705 1.389 . S
C701 H728 0.930 . S
C702 C700 1.352 . S
C702 C704 1.374 . S
C702 H729 0.931 . S
C703 C704 1.359 . S
C703 C705 1.364 . S
C704 C702 1.374 . S
C704 C703 1.359 . S
C704 H730 0.931 . S
C705 C701 1.389 . S
C705 C703 1.364 . S
C705 H731 0.931 . S
C706 O720 1.256 . S
C706 O721 1.257 . S
C707 O722 1.240 . S
C707 O723 1.240 . S
C708 Gd697 2.818 . S
C708 C709 1.510 . S
C708 O724 1.249 . S
C708 O725 1.252 . S
C709 C708 1.510 . S
C709 C710 1.404 . S
C709 C711 1.352 . S
C710 C709 1.404 . S
C710 C714 1.389 . S
C710 H732 0.930 . S
C711 C709 1.352 . S
C711 C713 1.374 . S
C711 H733 0.931 . S
C712 C713 1.359 . S
C712 C714 1.364 . S
C713 C711 1.374 . S
C713 C712 1.359 . S
C713 H734 0.931 . S
C714 C710 1.389 . S
C714 C712 1.364 . S
C714 H735 0.931 . S
C715 O726 1.256 . S
C715 O727 1.257 . S
O716 Gd696 2.377 . S
O716 C698 1.240 . S
O717 Gd697 2.395 . S
O717 C698 1.240 . S
O718 Gd696 2.448 . S
O718 C699 1.249 . S
O719 Gd696 2.506 . S
O719 C699 1.252 . S
O720 Gd696 2.435 . S
O720 C706 1.256 . S
O721 Gd696 2.717 . S
O721 Gd697 2.327 . S
O721 C706 1.257 . S
O722 Gd697 2.377 . S
O722 C707 1.240 . S
O723 Gd696 2.395 . S
O723 C707 1.240 . S
O724 Gd697 2.448 . S
O724 C708 1.249 . S
O725 Gd697 2.506 . S
O725 C708 1.252 . S
O726 Gd697 2.435 . S
O726 C715 1.256 . S
O727 Gd696 2.327 . S
O727 Gd697 2.717 . S
O727 C715 1.257 . S
H728 C701 0.930 . S
H729 C702 0.931 . S
H730 C704 0.931 . S
H731 C705 0.931 . S
H732 C710 0.930 . S
H733 C711 0.931 . S
H734 C713 0.931 . S
H735 C714 0.931 . S
Gd736 C739 2.818 . S
Gd736 O756 2.377 . S
Gd736 O758 2.448 . S
Gd736 O759 2.506 . S
Gd736 O760 2.435 . S
Gd736 O761 2.717 . S
Gd736 O763 2.395 . S
Gd736 O767 2.327 . S
Gd737 C748 2.818 . S
Gd737 O757 2.395 . S
Gd737 O761 2.327 . S
Gd737 O762 2.377 . S
Gd737 O764 2.448 . S
Gd737 O765 2.506 . S
Gd737 O766 2.435 . S
Gd737 O767 2.717 . S
C738 O756 1.240 . S
C738 O757 1.240 . S
C739 Gd736 2.818 . S
C739 C740 1.510 . S
C739 O758 1.249 . S
C739 O759 1.252 . S
C740 C739 1.510 . S
C740 C741 1.404 . S
C740 C742 1.352 . S
C741 C740 1.404 . S
C741 C745 1.389 . S
C741 H768 0.930 . S
C742 C740 1.352 . S
C742 C744 1.374 1_455 S
C742 H769 0.931 . S
C743 C744 1.359 . S
C743 C745 1.364 1_655 S
C744 C742 1.374 1_655 S
C744 C743 1.359 . S
C744 H770 0.931 . S
C745 C741 1.389 . S
C745 C743 1.364 1_455 S
C745 H771 0.931 . S
C746 O760 1.256 . S
C746 O761 1.257 . S
C747 O762 1.240 . S
C747 O763 1.240 . S
C748 Gd737 2.818 . S
C748 C749 1.510 . S
C748 O764 1.249 . S
C748 O765 1.252 . S
C749 C748 1.510 . S
C749 C750 1.404 . S
C749 C751 1.352 . S
C750 C749 1.404 . S
C750 C754 1.389 . S
C750 H772 0.930 . S
C751 C749 1.352 . S
C751 C753 1.374 . S
C751 H773 0.931 . S
C752 C753 1.359 . S
C752 C754 1.364 . S
C753 C751 1.374 . S
C753 C752 1.359 . S
C753 H774 0.931 . S
C754 C750 1.389 . S
C754 C752 1.364 . S
C754 H775 0.931 . S
C755 O766 1.256 . S
C755 O767 1.257 . S
O756 Gd736 2.377 . S
O756 C738 1.240 . S
O757 Gd737 2.395 . S
O757 C738 1.240 . S
O758 Gd736 2.448 . S
O758 C739 1.249 . S
O759 Gd736 2.506 . S
O759 C739 1.252 . S
O760 Gd736 2.435 . S
O760 C746 1.256 . S
O761 Gd736 2.717 . S
O761 Gd737 2.327 . S
O761 C746 1.257 . S
O762 Gd737 2.377 . S
O762 C747 1.240 . S
O763 Gd736 2.395 . S
O763 C747 1.240 . S
O764 Gd737 2.448 . S
O764 C748 1.249 . S
O765 Gd737 2.506 . S
O765 C748 1.252 . S
O766 Gd737 2.435 . S
O766 C755 1.256 . S
O767 Gd736 2.327 . S
O767 Gd737 2.717 . S
O767 C755 1.257 . S
H768 C741 0.930 . S
H769 C742 0.931 . S
H770 C744 0.931 . S
H771 C745 0.931 . S
H772 C750 0.930 . S
H773 C751 0.931 . S
H774 C753 0.931 . S
H775 C754 0.931 . S
Gd776 C779 2.818 . S
Gd776 O796 2.377 . S
Gd776 O798 2.448 . S
Gd776 O799 2.506 . S
Gd776 O800 2.435 . S
Gd776 O801 2.717 . S
Gd776 O803 2.395 . S
Gd776 O807 2.327 . S
Gd777 C788 2.818 . S
Gd777 O797 2.395 . S
Gd777 O801 2.327 . S
Gd777 O802 2.377 . S
Gd777 O804 2.448 . S
Gd777 O805 2.506 . S
Gd777 O806 2.435 . S
Gd777 O807 2.717 . S
C778 O796 1.240 . S
C778 O797 1.240 . S
C779 Gd776 2.818 . S
C779 C780 1.510 . S
C779 O798 1.249 . S
C779 O799 1.252 . S
C780 C779 1.510 . S
C780 C781 1.404 . S
C780 C782 1.352 . S
C781 C780 1.404 . S
C781 C785 1.389 . S
C781 H808 0.930 . S
C782 C780 1.352 . S
C782 C784 1.374 . S
C782 H809 0.931 . S
C783 C784 1.359 . S
C783 C785 1.364 . S
C784 C782 1.374 . S
C784 C783 1.359 . S
C784 H810 0.931 . S
C785 C781 1.389 . S
C785 C783 1.364 . S
C785 H811 0.931 . S
C786 O800 1.256 . S
C786 O801 1.257 . S
C787 O802 1.240 . S
C787 O803 1.240 . S
C788 Gd777 2.818 . S
C788 C789 1.510 . S
C788 O804 1.249 . S
C788 O805 1.252 . S
C789 C788 1.510 . S
C789 C790 1.404 . S
C789 C791 1.352 . S
C790 C789 1.404 . S
C790 C794 1.389 . S
C790 H812 0.930 . S
C791 C789 1.352 . S
C791 C793 1.374 . S
C791 H813 0.931 . S
C792 C793 1.359 . S
C792 C794 1.364 . S
C793 C791 1.374 . S
C793 C792 1.359 . S
C793 H814 0.931 . S
C794 C790 1.389 . S
C794 C792 1.364 . S
C794 H815 0.931 . S
C795 O806 1.256 . S
C795 O807 1.257 . S
O796 Gd776 2.377 . S
O796 C778 1.240 . S
O797 Gd777 2.395 . S
O797 C778 1.240 . S
O798 Gd776 2.448 . S
O798 C779 1.249 . S
O799 Gd776 2.506 . S
O799 C779 1.252 . S
O800 Gd776 2.435 . S
O800 C786 1.256 . S
O801 Gd776 2.717 . S
O801 Gd777 2.327 . S
O801 C786 1.257 . S
O802 Gd777 2.377 . S
O802 C787 1.240 . S
O803 Gd776 2.395 . S
O803 C787 1.240 . S
O804 Gd777 2.448 . S
O804 C788 1.249 . S
O805 Gd777 2.506 . S
O805 C788 1.252 . S
O806 Gd777 2.435 . S
O806 C795 1.256 . S
O807 Gd776 2.327 . S
O807 Gd777 2.717 . S
O807 C795 1.257 . S
H808 C781 0.930 . S
H809 C782 0.931 . S
H810 C784 0.931 . S
H811 C785 0.931 . S
H812 C790 0.930 . S
H813 C791 0.931 . S
H814 C793 0.931 . S
H815 C794 0.931 . S
Gd816 C819 2.818 . S
Gd816 O836 2.377 . S
Gd816 O838 2.448 . S
Gd816 O839 2.506 . S
Gd816 O840 2.435 . S
Gd816 O841 2.717 . S
Gd816 O843 2.395 . S
Gd816 O847 2.327 . S
Gd817 C828 2.818 . S
Gd817 O837 2.395 . S
Gd817 O841 2.327 . S
Gd817 O842 2.377 . S
Gd817 O844 2.448 . S
Gd817 O845 2.506 . S
Gd817 O846 2.435 . S
Gd817 O847 2.717 . S
C818 O836 1.240 . S
C818 O837 1.240 . S
C819 Gd816 2.818 . S
C819 C820 1.510 . S
C819 O838 1.249 . S
C819 O839 1.252 . S
C820 C819 1.510 . S
C820 C821 1.404 . S
C820 C822 1.352 . S
C821 C820 1.404 . S
C821 C825 1.389 . S
C821 H848 0.930 . S
C822 C820 1.352 . S
C822 C824 1.374 . S
C822 H849 0.931 . S
C823 C824 1.359 . S
C823 C825 1.364 . S
C824 C822 1.374 . S
C824 C823 1.359 . S
C824 H850 0.931 . S
C825 C821 1.389 . S
C825 C823 1.364 . S
C825 H851 0.931 . S
C826 O840 1.256 . S
C826 O841 1.257 . S
C827 O842 1.240 . S
C827 O843 1.240 . S
C828 Gd817 2.818 . S
C828 C829 1.510 . S
C828 O844 1.249 . S
C828 O845 1.252 . S
C829 C828 1.510 . S
C829 C830 1.404 . S
C829 C831 1.352 . S
C830 C829 1.404 . S
C830 C834 1.389 . S
C830 H852 0.930 . S
C831 C829 1.352 . S
C831 C833 1.374 . S
C831 H853 0.931 . S
C832 C833 1.359 . S
C832 C834 1.364 . S
C833 C831 1.374 . S
C833 C832 1.359 . S
C833 H854 0.931 . S
C834 C830 1.389 . S
C834 C832 1.364 . S
C834 H855 0.931 . S
C835 O846 1.256 . S
C835 O847 1.257 . S
O836 Gd816 2.377 . S
O836 C818 1.240 . S
O837 Gd817 2.395 . S
O837 C818 1.240 . S
O838 Gd816 2.448 . S
O838 C819 1.249 . S
O839 Gd816 2.506 . S
O839 C819 1.252 . S
O840 Gd816 2.435 . S
O840 C826 1.256 . S
O841 Gd816 2.717 . S
O841 Gd817 2.327 . S
O841 C826 1.257 . S
O842 Gd817 2.377 . S
O842 C827 1.240 . S
O843 Gd816 2.395 . S
O843 C827 1.240 . S
O844 Gd817 2.448 . S
O844 C828 1.249 . S
O845 Gd817 2.506 . S
O845 C828 1.252 . S
O846 Gd817 2.435 . S
O846 C835 1.256 . S
O847 Gd816 2.327 . S
O847 Gd817 2.717 . S
O847 C835 1.257 . S
H848 C821 0.930 . S
H849 C822 0.931 . S
H850 C824 0.931 . S
H851 C825 0.931 . S
H852 C830 0.930 . S
H853 C831 0.931 . S
H854 C833 0.931 . S
H855 C834 0.931 . S
Gd856 C859 2.818 . S
Gd856 O876 2.377 . S
Gd856 O878 2.448 . S
Gd856 O879 2.506 . S
Gd856 O880 2.435 . S
Gd856 O881 2.717 . S
Gd856 O883 2.395 . S
Gd856 O887 2.327 . S
Gd857 C868 2.818 . S
Gd857 O877 2.395 . S
Gd857 O881 2.327 . S
Gd857 O882 2.377 . S
Gd857 O884 2.448 . S
Gd857 O885 2.506 . S
Gd857 O886 2.435 . S
Gd857 O887 2.717 . S
C858 O876 1.240 . S
C858 O877 1.240 . S
C859 Gd856 2.818 . S
C859 C860 1.510 . S
C859 O878 1.249 . S
C859 O879 1.252 . S
C860 C859 1.510 . S
C860 C861 1.404 . S
C860 C862 1.352 . S
C861 C860 1.404 . S
C861 C865 1.389 . S
C861 H888 0.930 . S
C862 C860 1.352 . S
C862 C864 1.374 . S
C862 H889 0.931 . S
C863 C864 1.359 . S
C863 C865 1.364 . S
C864 C862 1.374 . S
C864 C863 1.359 . S
C864 H890 0.931 . S
C865 C861 1.389 . S
C865 C863 1.364 . S
C865 H891 0.931 . S
C866 O880 1.256 . S
C866 O881 1.257 . S
C867 O882 1.240 . S
C867 O883 1.240 . S
C868 Gd857 2.818 . S
C868 C869 1.510 . S
C868 O884 1.249 . S
C868 O885 1.252 . S
C869 C868 1.510 . S
C869 C870 1.404 . S
C869 C871 1.352 . S
C870 C869 1.404 . S
C870 C874 1.389 . S
C870 H892 0.930 . S
C871 C869 1.352 . S
C871 C873 1.374 . S
C871 H893 0.931 . S
C872 C873 1.359 . S
C872 C874 1.364 . S
C873 C871 1.374 . S
C873 C872 1.359 . S
C873 H894 0.931 . S
C874 C870 1.389 . S
C874 C872 1.364 . S
C874 H895 0.931 . S
C875 O886 1.256 . S
C875 O887 1.257 . S
O876 Gd856 2.377 . S
O876 C858 1.240 . S
O877 Gd857 2.395 . S
O877 C858 1.240 . S
O878 Gd856 2.448 . S
O878 C859 1.249 . S
O879 Gd856 2.506 . S
O879 C859 1.252 . S
O880 Gd856 2.435 . S
O880 C866 1.256 . S
O881 Gd856 2.717 . S
O881 Gd857 2.327 . S
O881 C866 1.257 . S
O882 Gd857 2.377 . S
O882 C867 1.240 . S
O883 Gd856 2.395 . S
O883 C867 1.240 . S
O884 Gd857 2.448 . S
O884 C868 1.249 . S
O885 Gd857 2.506 . S
O885 C868 1.252 . S
O886 Gd857 2.435 . S
O886 C875 1.256 . S
O887 Gd856 2.327 . S
O887 Gd857 2.717 . S
O887 C875 1.257 . S
H888 C861 0.930 . S
H889 C862 0.931 . S
H890 C864 0.931 . S
H891 C865 0.931 . S
H892 C870 0.930 . S
H893 C871 0.931 . S
H894 C873 0.931 . S
H895 C874 0.931 . S
Gd896 C899 2.818 . S
Gd896 O916 2.377 . S
Gd896 O918 2.448 . S
Gd896 O919 2.506 . S
Gd896 O920 2.435 . S
Gd896 O921 2.717 . S
Gd896 O923 2.395 . S
Gd896 O927 2.327 . S
Gd897 C908 2.818 . S
Gd897 O917 2.395 . S
Gd897 O921 2.327 . S
Gd897 O922 2.377 . S
Gd897 O924 2.448 . S
Gd897 O925 2.506 . S
Gd897 O926 2.435 . S
Gd897 O927 2.717 . S
C898 O916 1.240 . S
C898 O917 1.240 . S
C899 Gd896 2.818 . S
C899 C900 1.510 . S
C899 O918 1.249 . S
C899 O919 1.252 . S
C900 C899 1.510 . S
C900 C901 1.404 . S
C900 C902 1.352 . S
C901 C900 1.404 . S
C901 C905 1.389 . S
C901 H928 0.930 . S
C902 C900 1.352 . S
C902 C904 1.374 . S
C902 H929 0.931 . S
C903 C904 1.359 . S
C903 C905 1.364 . S
C904 C902 1.374 . S
C904 C903 1.359 . S
C904 H930 0.931 . S
C905 C901 1.389 . S
C905 C903 1.364 . S
C905 H931 0.931 . S
C906 O920 1.256 . S
C906 O921 1.257 . S
C907 O922 1.240 . S
C907 O923 1.240 . S
C908 Gd897 2.818 . S
C908 C909 1.510 . S
C908 O924 1.249 . S
C908 O925 1.252 . S
C909 C908 1.510 . S
C909 C910 1.404 . S
C909 C911 1.352 . S
C910 C909 1.404 . S
C910 C914 1.389 . S
C910 H932 0.930 . S
C911 C909 1.352 . S
C911 C913 1.374 . S
C911 H933 0.931 . S
C912 C913 1.359 . S
C912 C914 1.364 . S
C913 C911 1.374 . S
C913 C912 1.359 . S
C913 H934 0.931 . S
C914 C910 1.389 . S
C914 C912 1.364 . S
C914 H935 0.931 . S
C915 O926 1.256 . S
C915 O927 1.257 . S
O916 Gd896 2.377 . S
O916 C898 1.240 . S
O917 Gd897 2.395 . S
O917 C898 1.240 . S
O918 Gd896 2.448 . S
O918 C899 1.249 . S
O919 Gd896 2.506 . S
O919 C899 1.252 . S
O920 Gd896 2.435 . S
O920 C906 1.256 . S
O921 Gd896 2.717 . S
O921 Gd897 2.327 . S
O921 C906 1.257 . S
O922 Gd897 2.377 . S
O922 C907 1.240 . S
O923 Gd896 2.395 . S
O923 C907 1.240 . S
O924 Gd897 2.448 . S
O924 C908 1.249 . S
O925 Gd897 2.506 . S
O925 C908 1.252 . S
O926 Gd897 2.435 . S
O926 C915 1.256 . S
O927 Gd896 2.327 . S
O927 Gd897 2.717 . S
O927 C915 1.257 . S
H928 C901 0.930 . S
H929 C902 0.931 . S
H930 C904 0.931 . S
H931 C905 0.931 . S
H932 C910 0.930 . S
H933 C911 0.931 . S
H934 C913 0.931 . S
H935 C914 0.931 . S
Gd936 C939 2.818 . S
Gd936 O956 2.377 . S
Gd936 O958 2.448 . S
Gd936 O959 2.506 . S
Gd936 O960 2.435 1_554 S
Gd936 O961 2.717 . S
Gd936 O963 2.395 . S
Gd936 O967 2.327 . S
Gd937 C948 2.818 1_455 S
Gd937 O957 2.395 . S
Gd937 O961 2.327 . S
Gd937 O962 2.377 . S
Gd937 O964 2.488 . S
Gd937 O965 2.522 . S
Gd937 O966 2.435 . S
Gd937 O967 2.717 . S
C938 O956 1.240 . S
C938 O957 1.240 . S
C939 Gd936 2.818 . S
C939 C940 1.510 . S
C939 O958 1.249 . S
C939 O959 1.252 . S
C940 C939 1.510 . S
C940 C941 1.404 . S
C940 C942 1.352 . S
C941 C940 1.404 . S
C941 C945 1.388 . S
C941 H968 0.930 1_554 S
C942 C940 1.352 . S
C942 C944 1.374 . S
C942 H969 0.931 . S
C943 C944 1.359 . S
C943 C945 1.361 . S
C944 C942 1.374 . S
C944 C943 1.359 . S
C944 H970 0.931 . S
C945 C941 1.388 . S
C945 C943 1.361 . S
C945 H971 0.935 1_554 S
C946 O960 1.256 1_554 S
C946 O961 1.257 . S
C947 O962 1.240 . S
C947 O963 1.240 . S
C948 Gd937 2.818 1_655 S
C948 C949 1.510 . S
C948 O964 1.231 1_655 S
C948 O965 1.242 1_655 S
C949 C948 1.510 . S
C949 C950 1.404 . S
C949 C951 1.352 . S
C950 C949 1.404 . S
C950 C954 1.389 . S
C950 H972 0.930 . S
C951 C949 1.352 . S
C951 C953 1.374 . S
C951 H973 0.931 . S
C952 C953 1.359 . S
C952 C954 1.364 . S
C953 C951 1.374 . S
C953 C952 1.359 . S
C953 H974 0.931 . S
C954 C950 1.389 . S
C954 C952 1.364 . S
C954 H975 0.931 . S
C955 O966 1.256 . S
C955 O967 1.257 . S
O956 Gd936 2.377 . S
O956 C938 1.240 . S
O957 Gd937 2.395 . S
O957 C938 1.240 . S
O958 Gd936 2.448 . S
O958 C939 1.249 . S
O959 Gd936 2.506 . S
O959 C939 1.252 . S
O960 Gd936 2.435 1_556 S
O960 C946 1.256 1_556 S
O961 Gd936 2.717 . S
O961 Gd937 2.327 . S
O961 C946 1.257 . S
O962 Gd937 2.377 . S
O962 C947 1.240 . S
O963 Gd936 2.395 . S
O963 C947 1.240 . S
O964 Gd937 2.488 . S
O964 C948 1.231 1_455 S
O965 Gd937 2.522 . S
O965 C948 1.242 1_455 S
O966 Gd937 2.435 . S
O966 C955 1.256 . S
O967 Gd936 2.327 . S
O967 Gd937 2.717 . S
O967 C955 1.257 . S
H968 C941 0.930 1_556 S
H969 C942 0.931 . S
H970 C944 0.931 . S
H971 C945 0.935 1_556 S
H972 C950 0.930 . S
H973 C951 0.931 . S
H974 C953 0.931 . S
H975 C954 0.931 . S
H976 C994 0.951 . S
H977 C996 0.951 . S
H978 C998 0.950 1_655 S
H979 C999 0.950 1_655 S
H980 C1001 0.950 . S
H981 C1004 0.950 . S
H982 C1005 0.950 . S
H983 C1007 0.950 . S
H984 C1008 0.950 . S
H985 C1009 0.951 . S
H986 C1011 0.951 . S
H987 C1013 0.950 . S
H988 C1014 0.950 . S
H989 C1016 0.950 . S
H990 C1019 0.950 . S
H991 C1020 0.950 . S
H992 C1022 0.950 . S
H993 C1023 0.950 . S
C994 H976 0.951 . S
C994 C995 1.366 . S
C994 C996 1.388 . S
C995 C994 1.366 . S
C995 C999 1.385 . S
C996 H977 0.951 . S
C996 C994 1.388 . S
C996 C997 1.366 . S
C997 C996 1.366 . S
C997 C998 1.414 . S
C997 C1000 1.499 . S
C998 H978 0.950 1_455 S
C998 C997 1.414 . S
C998 C999 1.374 . S
C999 H979 0.950 1_455 S
C999 C995 1.385 . S
C999 C998 1.374 . S
C1000 C997 1.499 . S
C1000 C1001 1.373 . S
C1000 C1002 1.389 . S
C1001 H980 0.950 . S
C1001 C1000 1.373 . S
C1001 C1017 1.377 . S
C1002 C1000 1.389 . S
C1002 C1003 1.524 . S
C1002 C1016 1.377 . S
C1003 C1002 1.524 . S
C1003 C1004 1.397 . S
C1003 C1008 1.363 . S
C1004 H981 0.950 . S
C1004 C1003 1.397 . S
C1004 C1005 1.334 . S
C1005 H982 0.950 . S
C1005 C1004 1.334 . S
C1005 C1006 1.287 . S
C1006 C1005 1.287 . S
C1006 C1007 1.524 . S
C1006 H1025 0.913 . S
C1007 H983 0.950 . S
C1007 C1006 1.524 . S
C1007 C1008 1.415 . S
C1008 H984 0.950 . S
C1008 C1003 1.363 . S
C1008 C1007 1.415 . S
C1009 H985 0.951 . S
C1009 C1010 1.366 1_556 S
C1009 C1011 1.388 . S
C1010 C1009 1.366 1_554 S
C1010 C1014 1.385 . S
C1011 H986 0.951 . S
C1011 C1009 1.388 . S
C1011 C1012 1.366 . S
C1012 C1011 1.366 . S
C1012 C1013 1.414 . S
C1012 C1015 1.499 . S
C1013 H987 0.950 . S
C1013 C1012 1.414 . S
C1013 C1014 1.374 1_556 S
C1014 H988 0.950 . S
C1014 C1010 1.385 . S
C1014 C1013 1.374 1_554 S
C1015 C1012 1.499 . S
C1015 C1016 1.373 . S
C1015 C1017 1.389 . S
C1016 H989 0.950 . S
C1016 C1002 1.377 . S
C1016 C1015 1.373 . S
C1017 C1001 1.377 . S
C1017 C1015 1.389 . S
C1017 C1018 1.524 . S
C1018 C1017 1.524 . S
C1018 C1019 1.397 1_556 S
C1018 C1023 1.363 1_455 S
C1019 H990 0.950 . S
C1019 C1018 1.397 1_554 S
C1019 C1020 1.334 . S
C1020 H991 0.950 . S
C1020 C1019 1.334 . S
C1020 C1021 1.287 1_455 S
C1021 C1020 1.287 1_655 S
C1021 C1022 1.524 . S
C1021 H1024 0.999 . S
C1022 H992 0.950 . S
C1022 C1021 1.524 . S
C1022 C1023 1.415 1_554 S
C1023 H993 0.950 . S
C1023 C1018 1.363 1_655 S
C1023 C1022 1.415 1_556 S
H1024 C1021 0.999 . S
H1025 C1006 0.913 . S
H1026 C1044 0.951 . S
H1027 C1046 0.951 . S
H1028 C1048 0.950 . S
H1029 C1049 0.950 . S
H1030 C1051 0.950 . S
H1031 C1054 0.950 . S
H1032 C1055 0.950 . S
H1033 C1057 0.950 . S
H1034 C1058 0.950 . S
H1035 C1059 0.951 . S
H1036 C1061 0.951 . S
H1037 C1063 0.950 . S
H1038 C1064 0.950 . S
H1039 C1066 0.950 . S
H1040 C1069 0.950 . S
H1041 C1070 0.950 . S
H1042 C1072 0.950 . S
H1043 C1073 0.950 . S
C1044 H1026 0.951 . S
C1044 C1045 1.366 . S
C1044 C1046 1.388 . S
C1045 C1044 1.366 . S
C1045 C1049 1.385 . S
C1046 H1027 0.951 . S
C1046 C1044 1.388 . S
C1046 C1047 1.366 . S
C1047 C1046 1.366 . S
C1047 C1048 1.414 . S
C1047 C1050 1.499 . S
C1048 H1028 0.950 . S
C1048 C1047 1.414 . S
C1048 C1049 1.374 . S
C1049 H1029 0.950 . S
C1049 C1045 1.385 . S
C1049 C1048 1.374 . S
C1050 C1047 1.499 . S
C1050 C1051 1.373 . S
C1050 C1052 1.389 . S
C1051 H1030 0.950 . S
C1051 C1050 1.373 . S
C1051 C1067 1.377 . S
C1052 C1050 1.389 . S
C1052 C1053 1.524 . S
C1052 C1066 1.377 . S
C1053 C1052 1.524 . S
C1053 C1054 1.397 . S
C1053 C1058 1.363 . S
C1054 H1031 0.950 . S
C1054 C1053 1.397 . S
C1054 C1055 1.334 . S
C1055 H1032 0.950 . S
C1055 C1054 1.334 . S
C1055 C1056 1.287 . S
C1056 C1055 1.287 . S
C1056 C1057 1.524 . S
C1056 H1075 0.913 . S
C1057 H1033 0.950 . S
C1057 C1056 1.524 . S
C1057 C1058 1.415 . S
C1058 H1034 0.950 . S
C1058 C1053 1.363 . S
C1058 C1057 1.415 . S
C1059 H1035 0.951 . S
C1059 C1060 1.366 . S
C1059 C1061 1.388 . S
C1060 C1059 1.366 . S
C1060 C1064 1.385 . S
C1061 H1036 0.951 . S
C1061 C1059 1.388 . S
C1061 C1062 1.366 . S
C1062 C1061 1.366 . S
C1062 C1063 1.414 . S
C1062 C1065 1.499 . S
C1063 H1037 0.950 . S
C1063 C1062 1.414 . S
C1063 C1064 1.374 . S
C1064 H1038 0.950 . S
C1064 C1060 1.385 . S
C1064 C1063 1.374 . S
C1065 C1062 1.499 . S
C1065 C1066 1.373 . S
C1065 C1067 1.389 . S
C1066 H1039 0.950 . S
C1066 C1052 1.377 . S
C1066 C1065 1.373 . S
C1067 C1051 1.377 . S
C1067 C1065 1.389 . S
C1067 C1068 1.524 . S
C1068 C1067 1.524 . S
C1068 C1069 1.397 . S
C1068 C1073 1.363 . S
C1069 H1040 0.950 . S
C1069 C1068 1.397 . S
C1069 C1070 1.334 . S
C1070 H1041 0.950 . S
C1070 C1069 1.334 . S
C1070 C1071 1.287 . S
C1071 C1070 1.287 . S
C1071 C1072 1.524 . S
C1071 H1074 0.999 . S
C1072 H1042 0.950 . S
C1072 C1071 1.524 . S
C1072 C1073 1.415 . S
C1073 H1043 0.950 . S
C1073 C1068 1.363 . S
C1073 C1072 1.415 . S
H1074 C1071 0.999 . S
H1075 C1056 0.913 . S
H1076 C1094 0.951 . S
H1077 C1096 0.951 . S
H1078 C1098 0.950 . S
H1079 C1099 0.950 . S
H1080 C1101 0.950 . S
H1081 C1104 0.950 . S
H1082 C1105 0.950 . S
H1083 C1107 0.950 . S
H1084 C1108 0.950 . S
H1085 C1109 0.951 . S
H1086 C1111 0.951 . S
H1087 C1113 0.950 . S
H1088 C1114 0.950 . S
H1089 C1116 0.950 . S
H1090 C1119 0.950 . S
H1091 C1120 0.950 . S
H1092 C1122 0.950 . S
H1093 C1123 0.950 . S
C1094 H1076 0.951 . S
C1094 C1095 1.366 . S
C1094 C1096 1.388 . S
C1095 C1094 1.366 . S
C1095 C1099 1.385 . S
C1096 H1077 0.951 . S
C1096 C1094 1.388 . S
C1096 C1097 1.366 . S
C1097 C1096 1.366 . S
C1097 C1098 1.414 . S
C1097 C1100 1.499 . S
C1098 H1078 0.950 . S
C1098 C1097 1.414 . S
C1098 C1099 1.374 . S
C1099 H1079 0.950 . S
C1099 C1095 1.385 . S
C1099 C1098 1.374 . S
C1100 C1097 1.499 . S
C1100 C1101 1.373 . S
C1100 C1102 1.389 . S
C1101 H1080 0.950 . S
C1101 C1100 1.373 . S
C1101 C1117 1.377 . S
C1102 C1100 1.389 . S
C1102 C1103 1.524 . S
C1102 C1116 1.377 . S
C1103 C1102 1.524 . S
C1103 C1104 1.397 . S
C1103 C1108 1.363 . S
C1104 H1081 0.950 . S
C1104 C1103 1.397 . S
C1104 C1105 1.334 . S
C1105 H1082 0.950 . S
C1105 C1104 1.334 . S
C1105 C1106 1.287 . S
C1106 C1105 1.287 . S
C1106 C1107 1.524 . S
C1106 H1125 0.913 . S
C1107 H1083 0.950 . S
C1107 C1106 1.524 . S
C1107 C1108 1.415 . S
C1108 H1084 0.950 . S
C1108 C1103 1.363 . S
C1108 C1107 1.415 . S
C1109 H1085 0.951 . S
C1109 C1110 1.366 . S
C1109 C1111 1.388 . S
C1110 C1109 1.366 . S
C1110 C1114 1.385 . S
C1111 H1086 0.951 . S
C1111 C1109 1.388 . S
C1111 C1112 1.366 . S
C1112 C1111 1.366 . S
C1112 C1113 1.414 . S
C1112 C1115 1.499 . S
C1113 H1087 0.950 . S
C1113 C1112 1.414 . S
C1113 C1114 1.374 . S
C1114 H1088 0.950 . S
C1114 C1110 1.385 . S
C1114 C1113 1.374 . S
C1115 C1112 1.499 . S
C1115 C1116 1.373 . S
C1115 C1117 1.389 . S
C1116 H1089 0.950 . S
C1116 C1102 1.377 . S
C1116 C1115 1.373 . S
C1117 C1101 1.377 . S
C1117 C1115 1.389 . S
C1117 C1118 1.524 . S
C1118 C1117 1.524 . S
C1118 C1119 1.397 . S
C1118 C1123 1.363 . S
C1119 H1090 0.950 . S
C1119 C1118 1.397 . S
C1119 C1120 1.334 . S
C1120 H1091 0.950 . S
C1120 C1119 1.334 . S
C1120 C1121 1.287 . S
C1121 C1120 1.287 . S
C1121 C1122 1.524 . S
C1121 H1124 0.999 . S
C1122 H1092 0.950 . S
C1122 C1121 1.524 . S
C1122 C1123 1.415 . S
C1123 H1093 0.950 . S
C1123 C1118 1.363 . S
C1123 C1122 1.415 . S
H1124 C1121 0.999 . S
H1125 C1106 0.913 . S
H1126 C1144 0.951 . S
H1127 C1146 0.951 . S
H1128 C1148 0.950 . S
H1129 C1149 0.950 . S
H1130 C1151 0.950 . S
H1131 C1154 0.950 . S
H1132 C1155 0.950 . S
H1133 C1157 0.950 . S
H1134 C1158 0.950 . S
H1135 C1159 0.951 . S
H1136 C1161 0.951 . S
H1137 C1163 0.950 . S
H1138 C1164 0.950 . S
H1139 C1166 0.950 . S
H1140 C1169 0.950 . S
H1141 C1170 0.950 . S
H1142 C1172 0.950 . S
H1143 C1173 0.950 . S
C1144 H1126 0.951 . S
C1144 C1145 1.366 . S
C1144 C1146 1.388 . S
C1145 C1144 1.366 . S
C1145 C1149 1.385 . S
C1146 H1127 0.951 . S
C1146 C1144 1.388 . S
C1146 C1147 1.366 . S
C1147 C1146 1.366 . S
C1147 C1148 1.414 . S
C1147 C1150 1.499 . S
C1148 H1128 0.950 . S
C1148 C1147 1.414 . S
C1148 C1149 1.374 . S
C1149 H1129 0.950 . S
C1149 C1145 1.385 . S
C1149 C1148 1.374 . S
C1150 C1147 1.499 . S
C1150 C1151 1.373 . S
C1150 C1152 1.389 . S
C1151 H1130 0.950 . S
C1151 C1150 1.373 . S
C1151 C1167 1.377 . S
C1152 C1150 1.389 . S
C1152 C1153 1.524 . S
C1152 C1166 1.377 . S
C1153 C1152 1.524 . S
C1153 C1154 1.397 . S
C1153 C1158 1.363 . S
C1154 H1131 0.950 . S
C1154 C1153 1.397 . S
C1154 C1155 1.334 . S
C1155 H1132 0.950 . S
C1155 C1154 1.334 . S
C1155 C1156 1.287 . S
C1156 C1155 1.287 . S
C1156 C1157 1.524 . S
C1156 H1175 0.913 . S
C1157 H1133 0.950 . S
C1157 C1156 1.524 . S
C1157 C1158 1.415 . S
C1158 H1134 0.950 . S
C1158 C1153 1.363 . S
C1158 C1157 1.415 . S
C1159 H1135 0.951 . S
C1159 C1160 1.366 . S
C1159 C1161 1.388 . S
C1160 C1159 1.366 . S
C1160 C1164 1.385 . S
C1161 H1136 0.951 . S
C1161 C1159 1.388 . S
C1161 C1162 1.366 . S
C1162 C1161 1.366 . S
C1162 C1163 1.414 . S
C1162 C1165 1.499 . S
C1163 H1137 0.950 . S
C1163 C1162 1.414 . S
C1163 C1164 1.374 . S
C1164 H1138 0.950 . S
C1164 C1160 1.385 . S
C1164 C1163 1.374 . S
C1165 C1162 1.499 . S
C1165 C1166 1.373 . S
C1165 C1167 1.389 . S
C1166 H1139 0.950 . S
C1166 C1152 1.377 . S
C1166 C1165 1.373 . S
C1167 C1151 1.377 . S
C1167 C1165 1.389 . S
C1167 C1168 1.524 . S
C1168 C1167 1.524 . S
C1168 C1169 1.397 . S
C1168 C1173 1.363 . S
C1169 H1140 0.950 . S
C1169 C1168 1.397 . S
C1169 C1170 1.334 . S
C1170 H1141 0.950 . S
C1170 C1169 1.334 . S
C1170 C1171 1.287 . S
C1171 C1170 1.287 . S
C1171 C1172 1.524 . S
C1171 H1174 0.999 . S
C1172 H1142 0.950 . S
C1172 C1171 1.524 . S
C1172 C1173 1.415 . S
C1173 H1143 0.950 . S
C1173 C1168 1.363 . S
C1173 C1172 1.415 . S
H1174 C1171 0.999 . S
H1175 C1156 0.913 . S
H1176 C1194 0.951 1_655 S
H1177 C1196 0.951 . S
H1178 C1198 0.950 . S
H1179 C1199 0.950 . S
H1180 C1201 0.950 . S
H1181 C1204 0.950 . S
H1182 C1205 0.950 . S
H1183 C1207 0.950 . S
H1184 C1208 0.950 . S
H1185 C1209 0.951 . S
H1186 C1211 0.951 . S
H1187 C1213 0.950 . S
H1188 C1214 0.950 . S
H1189 C1216 0.950 . S
H1190 C1219 0.950 . S
H1191 C1220 0.950 . S
H1192 C1222 0.950 . S
H1193 C1223 0.950 . S
C1194 H1176 0.951 1_455 S
C1194 C1195 1.366 . S
C1194 C1196 1.388 . S
C1195 C1194 1.366 . S
C1195 C1199 1.385 . S
C1196 H1177 0.951 . S
C1196 C1194 1.388 . S
C1196 C1197 1.366 . S
C1197 C1196 1.366 . S
C1197 C1198 1.414 . S
C1197 C1200 1.499 . S
C1198 H1178 0.950 . S
C1198 C1197 1.414 . S
C1198 C1199 1.374 . S
C1199 H1179 0.950 . S
C1199 C1195 1.385 . S
C1199 C1198 1.374 . S
C1200 C1197 1.499 . S
C1200 C1201 1.373 . S
C1200 C1202 1.389 . S
C1201 H1180 0.950 . S
C1201 C1200 1.373 . S
C1201 C1217 1.377 . S
C1202 C1200 1.389 . S
C1202 C1203 1.524 . S
C1202 C1216 1.377 . S
C1203 C1202 1.524 . S
C1203 C1204 1.397 . S
C1203 C1208 1.363 . S
C1204 H1181 0.950 . S
C1204 C1203 1.397 . S
C1204 C1205 1.334 . S
C1205 H1182 0.950 . S
C1205 C1204 1.334 . S
C1205 C1206 1.287 . S
C1206 C1205 1.287 . S
C1206 C1207 1.524 . S
C1206 H1225 0.913 . S
C1207 H1183 0.950 . S
C1207 C1206 1.524 . S
C1207 C1208 1.415 . S
C1208 H1184 0.950 . S
C1208 C1203 1.363 . S
C1208 C1207 1.415 . S
C1209 H1185 0.951 . S
C1209 C1210 1.366 . S
C1209 C1211 1.388 . S
C1210 C1209 1.366 . S
C1210 C1214 1.385 . S
C1211 H1186 0.951 . S
C1211 C1209 1.388 . S
C1211 C1212 1.366 . S
C1212 C1211 1.366 . S
C1212 C1213 1.414 . S
C1212 C1215 1.499 . S
C1213 H1187 0.950 . S
C1213 C1212 1.414 . S
C1213 C1214 1.374 . S
C1214 H1188 0.950 . S
C1214 C1210 1.385 . S
C1214 C1213 1.374 . S
C1215 C1212 1.499 . S
C1215 C1216 1.373 . S
C1215 C1217 1.389 . S
C1216 H1189 0.950 . S
C1216 C1202 1.377 . S
C1216 C1215 1.373 . S
C1217 C1201 1.377 . S
C1217 C1215 1.389 . S
C1217 C1218 1.524 . S
C1218 C1217 1.524 . S
C1218 C1219 1.397 . S
C1218 C1223 1.363 . S
C1219 H1190 0.950 . S
C1219 C1218 1.397 . S
C1219 C1220 1.334 . S
C1220 H1191 0.950 . S
C1220 C1219 1.334 . S
C1220 C1221 1.287 . S
C1221 C1220 1.287 . S
C1221 C1222 1.524 . S
C1221 H1224 0.999 . S
C1222 H1192 0.950 . S
C1222 C1221 1.524 . S
C1222 C1223 1.415 . S
C1223 H1193 0.950 . S
C1223 C1218 1.363 . S
C1223 C1222 1.415 . S
H1224 C1221 0.999 . S
H1225 C1206 0.913 . S
H1226 C1244 0.951 . S
H1227 C1246 0.951 . S
H1228 C1248 0.950 . S
H1229 C1249 0.950 . S
H1230 C1251 0.950 . S
H1231 C1254 0.950 . S
H1232 C1255 0.950 . S
H1233 C1257 0.950 . S
H1234 C1258 0.950 . S
H1235 C1259 0.951 . S
H1236 C1261 0.951 . S
H1237 C1263 0.950 . S
H1238 C1264 0.950 . S
H1239 C1266 0.950 . S
H1240 C1269 0.950 . S
H1241 C1270 0.950 . S
H1242 C1272 0.950 . S
H1243 C1273 0.950 . S
C1244 H1226 0.951 . S
C1244 C1245 1.366 . S
C1244 C1246 1.388 . S
C1245 C1244 1.366 . S
C1245 C1249 1.385 . S
C1246 H1227 0.951 . S
C1246 C1244 1.388 . S
C1246 C1247 1.366 . S
C1247 C1246 1.366 . S
C1247 C1248 1.414 . S
C1247 C1250 1.499 . S
C1248 H1228 0.950 . S
C1248 C1247 1.414 . S
C1248 C1249 1.374 . S
C1249 H1229 0.950 . S
C1249 C1245 1.385 . S
C1249 C1248 1.374 . S
C1250 C1247 1.499 . S
C1250 C1251 1.373 . S
C1250 C1252 1.389 . S
C1251 H1230 0.950 . S
C1251 C1250 1.373 . S
C1251 C1267 1.377 . S
C1252 C1250 1.389 . S
C1252 C1253 1.524 . S
C1252 C1266 1.377 . S
C1253 C1252 1.524 . S
C1253 C1254 1.397 . S
C1253 C1258 1.363 . S
C1254 H1231 0.950 . S
C1254 C1253 1.397 . S
C1254 C1255 1.334 . S
C1255 H1232 0.950 . S
C1255 C1254 1.334 . S
C1255 C1256 1.287 . S
C1256 C1255 1.287 . S
C1256 C1257 1.524 . S
C1256 H1275 0.913 . S
C1257 H1233 0.950 . S
C1257 C1256 1.524 . S
C1257 C1258 1.415 . S
C1258 H1234 0.950 . S
C1258 C1253 1.363 . S
C1258 C1257 1.415 . S
C1259 H1235 0.951 . S
C1259 C1260 1.366 . S
C1259 C1261 1.388 . S
C1260 C1259 1.366 . S
C1260 C1264 1.385 . S
C1261 H1236 0.951 . S
C1261 C1259 1.388 . S
C1261 C1262 1.366 . S
C1262 C1261 1.366 . S
C1262 C1263 1.414 . S
C1262 C1265 1.499 . S
C1263 H1237 0.950 . S
C1263 C1262 1.414 . S
C1263 C1264 1.374 . S
C1264 H1238 0.950 . S
C1264 C1260 1.385 . S
C1264 C1263 1.374 . S
C1265 C1262 1.499 . S
C1265 C1266 1.373 . S
C1265 C1267 1.389 . S
C1266 H1239 0.950 . S
C1266 C1252 1.377 . S
C1266 C1265 1.373 . S
C1267 C1251 1.377 . S
C1267 C1265 1.389 . S
C1267 C1268 1.524 . S
C1268 C1267 1.524 . S
C1268 C1269 1.397 . S
C1268 C1273 1.363 . S
C1269 H1240 0.950 . S
C1269 C1268 1.397 . S
C1269 C1270 1.334 . S
C1270 H1241 0.950 . S
C1270 C1269 1.334 . S
C1270 C1271 1.287 . S
C1271 C1270 1.287 . S
C1271 C1272 1.524 . S
C1271 H1274 0.999 . S
C1272 H1242 0.950 . S
C1272 C1271 1.524 . S
C1272 C1273 1.415 . S
C1273 H1243 0.950 . S
C1273 C1268 1.363 . S
C1273 C1272 1.415 . S
H1274 C1271 0.999 . S
H1275 C1256 0.913 . S
H1276 C1294 0.951 . S
H1277 C1296 0.951 . S
H1278 C1298 0.950 . S
H1279 C1299 0.950 . S
H1280 C1301 0.950 . S
H1281 C1304 0.950 . S
H1282 C1305 0.950 . S
H1283 C1307 0.950 . S
H1284 C1308 0.950 . S
H1285 C1309 0.951 . S
H1286 C1311 0.951 . S
H1287 C1313 0.950 . S
H1288 C1314 0.950 . S
H1289 C1316 0.950 . S
H1290 C1319 0.950 . S
H1291 C1320 0.950 . S
H1292 C1322 0.950 . S
H1293 C1323 0.950 . S
C1294 H1276 0.951 . S
C1294 C1295 1.366 . S
C1294 C1296 1.388 . S
C1295 C1294 1.366 . S
C1295 C1299 1.385 . S
C1296 H1277 0.951 . S
C1296 C1294 1.388 . S
C1296 C1297 1.366 . S
C1297 C1296 1.366 . S
C1297 C1298 1.414 . S
C1297 C1300 1.499 . S
C1298 H1278 0.950 . S
C1298 C1297 1.414 . S
C1298 C1299 1.374 . S
C1299 H1279 0.950 . S
C1299 C1295 1.385 . S
C1299 C1298 1.374 . S
C1300 C1297 1.499 . S
C1300 C1301 1.373 . S
C1300 C1302 1.389 . S
C1301 H1280 0.950 . S
C1301 C1300 1.373 . S
C1301 C1317 1.377 . S
C1302 C1300 1.389 . S
C1302 C1303 1.524 . S
C1302 C1316 1.377 . S
C1303 C1302 1.524 . S
C1303 C1304 1.397 . S
C1303 C1308 1.363 . S
C1304 H1281 0.950 . S
C1304 C1303 1.397 . S
C1304 C1305 1.334 . S
C1305 H1282 0.950 . S
C1305 C1304 1.334 . S
C1305 C1306 1.287 . S
C1306 C1305 1.287 . S
C1306 C1307 1.524 . S
C1306 H1325 0.913 . S
C1307 H1283 0.950 . S
C1307 C1306 1.524 . S
C1307 C1308 1.415 . S
C1308 H1284 0.950 . S
C1308 C1303 1.363 . S
C1308 C1307 1.415 . S
C1309 H1285 0.951 . S
C1309 C1310 1.366 . S
C1309 C1311 1.388 . S
C1310 C1309 1.366 . S
C1310 C1314 1.385 . S
C1311 H1286 0.951 . S
C1311 C1309 1.388 . S
C1311 C1312 1.366 . S
C1312 C1311 1.366 . S
C1312 C1313 1.414 . S
C1312 C1315 1.499 . S
C1313 H1287 0.950 . S
C1313 C1312 1.414 . S
C1313 C1314 1.374 . S
C1314 H1288 0.950 . S
C1314 C1310 1.385 . S
C1314 C1313 1.374 . S
C1315 C1312 1.499 . S
C1315 C1316 1.373 . S
C1315 C1317 1.389 . S
C1316 H1289 0.950 . S
C1316 C1302 1.377 . S
C1316 C1315 1.373 . S
C1317 C1301 1.377 . S
C1317 C1315 1.389 . S
C1317 C1318 1.524 . S
C1318 C1317 1.524 . S
C1318 C1319 1.397 . S
C1318 C1323 1.363 . S
C1319 H1290 0.950 . S
C1319 C1318 1.397 . S
C1319 C1320 1.334 . S
C1320 H1291 0.950 . S
C1320 C1319 1.334 . S
C1320 C1321 1.287 . S
C1321 C1320 1.287 . S
C1321 C1322 1.524 . S
C1321 H1324 0.999 . S
C1322 H1292 0.950 . S
C1322 C1321 1.524 . S
C1322 C1323 1.415 . S
C1323 H1293 0.950 . S
C1323 C1318 1.363 . S
C1323 C1322 1.415 . S
H1324 C1321 0.999 . S
H1325 C1306 0.913 . S
H1326 C1344 0.951 . S
H1327 C1346 0.951 . S
H1328 C1348 0.950 . S
H1329 C1349 0.950 . S
H1330 C1351 0.950 . S
H1331 C1354 0.950 . S
H1332 C1355 0.950 . S
H1333 C1357 0.950 . S
H1334 C1358 0.950 . S
H1335 C1359 0.951 . S
H1336 C1361 0.951 . S
H1337 C1363 0.950 . S
H1338 C1364 0.950 . S
H1339 C1366 0.950 . S
H1340 C1369 0.950 . S
H1341 C1370 0.950 . S
H1342 C1372 0.950 . S
H1343 C1373 0.950 . S
C1344 H1326 0.951 . S
C1344 C1345 1.366 . S
C1344 C1346 1.388 . S
C1345 C1344 1.366 . S
C1345 C1349 1.385 . S
C1346 H1327 0.951 . S
C1346 C1344 1.388 . S
C1346 C1347 1.366 . S
C1347 C1346 1.366 . S
C1347 C1348 1.414 . S
C1347 C1350 1.499 . S
C1348 H1328 0.950 . S
C1348 C1347 1.414 . S
C1348 C1349 1.374 . S
C1349 H1329 0.950 . S
C1349 C1345 1.385 . S
C1349 C1348 1.374 . S
C1350 C1347 1.499 . S
C1350 C1351 1.373 . S
C1350 C1352 1.389 . S
C1351 H1330 0.950 . S
C1351 C1350 1.373 . S
C1351 C1367 1.377 . S
C1352 C1350 1.389 . S
C1352 C1353 1.524 . S
C1352 C1366 1.377 . S
C1353 C1352 1.524 . S
C1353 C1354 1.397 . S
C1353 C1358 1.363 . S
C1354 H1331 0.950 . S
C1354 C1353 1.397 . S
C1354 C1355 1.334 . S
C1355 H1332 0.950 . S
C1355 C1354 1.334 . S
C1355 C1356 1.287 . S
C1356 C1355 1.287 . S
C1356 C1357 1.524 . S
C1356 H1375 0.913 . S
C1357 H1333 0.950 . S
C1357 C1356 1.524 . S
C1357 C1358 1.415 . S
C1358 H1334 0.950 . S
C1358 C1353 1.363 . S
C1358 C1357 1.415 . S
C1359 H1335 0.951 . S
C1359 C1360 1.366 . S
C1359 C1361 1.388 . S
C1360 C1359 1.366 . S
C1360 C1364 1.385 . S
C1361 H1336 0.951 . S
C1361 C1359 1.388 . S
C1361 C1362 1.366 . S
C1362 C1361 1.366 . S
C1362 C1363 1.414 . S
C1362 C1365 1.499 . S
C1363 H1337 0.950 . S
C1363 C1362 1.414 . S
C1363 C1364 1.374 . S
C1364 H1338 0.950 . S
C1364 C1360 1.385 . S
C1364 C1363 1.374 . S
C1365 C1362 1.499 . S
C1365 C1366 1.373 . S
C1365 C1367 1.389 . S
C1366 H1339 0.950 . S
C1366 C1352 1.377 . S
C1366 C1365 1.373 . S
C1367 C1351 1.377 . S
C1367 C1365 1.389 . S
C1367 C1368 1.524 . S
C1368 C1367 1.524 . S
C1368 C1369 1.397 . S
C1368 C1373 1.363 . S
C1369 H1340 0.950 . S
C1369 C1368 1.397 . S
C1369 C1370 1.334 . S
C1370 H1341 0.950 . S
C1370 C1369 1.334 . S
C1370 C1371 1.287 . S
C1371 C1370 1.287 . S
C1371 C1372 1.524 . S
C1371 H1374 0.999 . S
C1372 H1342 0.950 . S
C1372 C1371 1.524 . S
C1372 C1373 1.415 . S
C1373 H1343 0.950 . S
C1373 C1368 1.363 . S
C1373 C1372 1.415 . S
H1374 C1371 0.999 . S
H1375 C1356 0.913 . S
H1376 C1394 0.951 . S
H1377 C1396 0.951 . S
H1378 C1398 0.950 . S
H1379 C1399 0.950 . S
H1380 C1401 0.950 . S
H1381 C1404 0.950 . S
H1382 C1405 0.950 . S
H1383 C1407 0.950 . S
H1384 C1408 0.950 . S
H1385 C1409 0.951 . S
H1386 C1411 0.951 1_655 S
H1387 C1413 0.950 . S
H1388 C1414 0.950 . S
H1389 C1416 0.950 . S
H1390 C1419 0.950 . S
H1391 C1420 0.950 . S
H1392 C1422 0.950 . S
H1393 C1423 0.950 . S
C1394 H1376 0.951 . S
C1394 C1395 1.366 . S
C1394 C1396 1.388 . S
C1395 C1394 1.366 . S
C1395 C1399 1.385 . S
C1396 H1377 0.951 . S
C1396 C1394 1.388 . S
C1396 C1397 1.366 . S
C1397 C1396 1.366 . S
C1397 C1398 1.414 . S
C1397 C1400 1.499 . S
C1398 H1378 0.950 . S
C1398 C1397 1.414 . S
C1398 C1399 1.374 . S
C1399 H1379 0.950 . S
C1399 C1395 1.385 . S
C1399 C1398 1.374 . S
C1400 C1397 1.499 . S
C1400 C1401 1.373 . S
C1400 C1402 1.389 1_655 S
C1401 H1380 0.950 . S
C1401 C1400 1.373 . S
C1401 C1417 1.377 . S
C1402 C1400 1.389 1_455 S
C1402 C1403 1.524 . S
C1402 C1416 1.377 . S
C1403 C1402 1.524 . S
C1403 C1404 1.397 . S
C1403 C1408 1.363 . S
C1404 H1381 0.950 . S
C1404 C1403 1.397 . S
C1404 C1405 1.334 . S
C1405 H1382 0.950 . S
C1405 C1404 1.334 . S
C1405 C1406 1.287 . S
C1406 C1405 1.287 . S
C1406 C1407 1.524 . S
C1406 H1425 0.913 . S
C1407 H1383 0.950 . S
C1407 C1406 1.524 . S
C1407 C1408 1.415 . S
C1408 H1384 0.950 . S
C1408 C1403 1.363 . S
C1408 C1407 1.415 . S
C1409 H1385 0.951 . S
C1409 C1410 1.366 . S
C1409 C1411 1.388 . S
C1410 C1409 1.366 . S
C1410 C1414 1.385 . S
C1411 H1386 0.951 1_455 S
C1411 C1409 1.388 . S
C1411 C1412 1.366 . S
C1412 C1411 1.366 . S
C1412 C1413 1.414 . S
C1412 C1415 1.477 1_455 S
C1413 H1387 0.950 . S
C1413 C1412 1.414 . S
C1413 C1414 1.374 . S
C1414 H1388 0.950 . S
C1414 C1410 1.385 . S
C1414 C1413 1.374 . S
C1415 C1412 1.477 1_655 S
C1415 C1416 1.356 1_655 S
C1415 C1417 1.430 . S
C1416 H1389 0.950 . S
C1416 C1402 1.377 . S
C1416 C1415 1.356 1_455 S
C1417 C1401 1.377 . S
C1417 C1415 1.430 . S
C1417 C1418 1.524 . S
C1418 C1417 1.524 . S
C1418 C1419 1.397 . S
C1418 C1423 1.363 . S
C1419 H1390 0.950 . S
C1419 C1418 1.397 . S
C1419 C1420 1.334 . S
C1420 H1391 0.950 . S
C1420 C1419 1.334 . S
C1420 C1421 1.287 . S
C1421 C1420 1.287 . S
C1421 C1422 1.524 . S
C1421 H1424 0.999 . S
C1422 H1392 0.950 . S
C1422 C1421 1.524 . S
C1422 C1423 1.415 . S
C1423 H1393 0.950 . S
C1423 C1418 1.363 . S
C1423 C1422 1.415 . S
H1424 C1421 0.999 . S
H1425 C1406 0.913 . S
H1426 C1444 0.951 . S
H1427 C1446 0.951 . S
H1428 C1448 0.950 . S
H1429 C1449 0.950 . S
H1430 C1451 0.950 . S
H1431 C1454 0.950 . S
H1432 C1455 0.950 . S
H1433 C1457 0.950 . S
H1434 C1458 0.950 . S
H1435 C1459 0.951 . S
H1436 C1461 0.951 . S
H1437 C1463 0.950 . S
H1438 C1464 0.950 . S
H1439 C1466 0.950 . S
H1440 C1469 0.950 . S
H1441 C1470 0.950 . S
H1442 C1472 0.950 . S
H1443 C1473 0.950 . S
C1444 H1426 0.951 . S
C1444 C1445 1.366 . S
C1444 C1446 1.388 . S
C1445 C1444 1.366 . S
C1445 C1449 1.385 . S
C1446 H1427 0.951 . S
C1446 C1444 1.388 . S
C1446 C1447 1.366 . S
C1447 C1446 1.366 . S
C1447 C1448 1.414 . S
C1447 C1450 1.499 . S
C1448 H1428 0.950 . S
C1448 C1447 1.414 . S
C1448 C1449 1.374 . S
C1449 H1429 0.950 . S
C1449 C1445 1.385 . S
C1449 C1448 1.374 . S
C1450 C1447 1.499 . S
C1450 C1451 1.373 . S
C1450 C1452 1.389 . S
C1451 H1430 0.950 . S
C1451 C1450 1.373 . S
C1451 C1467 1.377 . S
C1452 C1450 1.389 . S
C1452 C1453 1.524 . S
C1452 C1466 1.377 . S
C1453 C1452 1.524 . S
C1453 C1454 1.397 . S
C1453 C1458 1.363 . S
C1454 H1431 0.950 . S
C1454 C1453 1.397 . S
C1454 C1455 1.334 . S
C1455 H1432 0.950 . S
C1455 C1454 1.334 . S
C1455 C1456 1.287 . S
C1456 C1455 1.287 . S
C1456 C1457 1.524 . S
C1456 H1475 0.913 . S
C1457 H1433 0.950 . S
C1457 C1456 1.524 . S
C1457 C1458 1.415 . S
C1458 H1434 0.950 . S
C1458 C1453 1.363 . S
C1458 C1457 1.415 . S
C1459 H1435 0.951 . S
C1459 C1460 1.366 . S
C1459 C1461 1.388 . S
C1460 C1459 1.366 . S
C1460 C1464 1.385 . S
C1461 H1436 0.951 . S
C1461 C1459 1.388 . S
C1461 C1462 1.366 . S
C1462 C1461 1.366 . S
C1462 C1463 1.414 . S
C1462 C1465 1.499 . S
C1463 H1437 0.950 . S
C1463 C1462 1.414 . S
C1463 C1464 1.374 . S
C1464 H1438 0.950 . S
C1464 C1460 1.385 . S
C1464 C1463 1.374 . S
C1465 C1462 1.499 . S
C1465 C1466 1.373 . S
C1465 C1467 1.389 . S
C1466 H1439 0.950 . S
C1466 C1452 1.377 . S
C1466 C1465 1.373 . S
C1467 C1451 1.377 . S
C1467 C1465 1.389 . S
C1467 C1468 1.524 . S
C1468 C1467 1.524 . S
C1468 C1469 1.397 . S
C1468 C1473 1.363 . S
C1469 H1440 0.950 . S
C1469 C1468 1.397 . S
C1469 C1470 1.334 . S
C1470 H1441 0.950 . S
C1470 C1469 1.334 . S
C1470 C1471 1.287 . S
C1471 C1470 1.287 . S
C1471 C1472 1.524 . S
C1471 H1474 0.999 . S
C1472 H1442 0.950 . S
C1472 C1471 1.524 . S
C1472 C1473 1.415 . S
C1473 H1443 0.950 . S
C1473 C1468 1.363 . S
C1473 C1472 1.415 . S
H1474 C1471 0.999 . S
H1475 C1456 0.913 . S
H1476 C1494 0.951 . S
H1477 C1496 0.951 . S
H1478 C1498 0.950 . S
H1479 C1499 0.950 . S
H1480 C1501 0.950 . S
H1481 C1504 0.950 . S
H1482 C1505 0.950 . S
H1483 C1507 0.950 . S
H1484 C1508 0.950 . S
H1485 C1509 0.951 . S
H1486 C1511 0.951 . S
H1487 C1513 0.950 . S
H1488 C1514 0.950 . S
H1489 C1516 0.950 . S
H1490 C1519 0.958 . S
H1491 C1520 0.950 . S
H1492 C1522 0.950 . S
H1493 C1523 0.950 . S
C1494 H1476 0.951 . S
C1494 C1495 1.366 . S
C1494 C1496 1.388 . S
C1495 C1494 1.366 . S
C1495 C1499 1.385 . S
C1496 H1477 0.951 . S
C1496 C1494 1.388 . S
C1496 C1497 1.366 . S
C1497 C1496 1.366 . S
C1497 C1498 1.414 . S
C1497 C1500 1.499 . S
C1498 H1478 0.950 . S
C1498 C1497 1.414 . S
C1498 C1499 1.374 . S
C1499 H1479 0.950 . S
C1499 C1495 1.385 . S
C1499 C1498 1.374 . S
C1500 C1497 1.499 . S
C1500 C1501 1.373 . S
C1500 C1502 1.389 . S
C1501 H1480 0.950 . S
C1501 C1500 1.373 . S
C1501 C1517 1.377 . S
C1502 C1500 1.389 . S
C1502 C1503 1.524 . S
C1502 C1516 1.377 . S
C1503 C1502 1.524 . S
C1503 C1504 1.397 . S
C1503 C1508 1.363 . S
C1504 H1481 0.950 . S
C1504 C1503 1.397 . S
C1504 C1505 1.334 . S
C1505 H1482 0.950 . S
C1505 C1504 1.334 . S
C1505 C1506 1.287 . S
C1506 C1505 1.287 . S
C1506 C1507 1.524 . S
C1506 H1525 0.913 . S
C1507 H1483 0.950 . S
C1507 C1506 1.524 . S
C1507 C1508 1.415 . S
C1508 H1484 0.950 . S
C1508 C1503 1.363 . S
C1508 C1507 1.415 . S
C1509 H1485 0.951 . S
C1509 C1510 1.366 . S
C1509 C1511 1.388 . S
C1510 C1509 1.366 . S
C1510 C1514 1.385 . S
C1511 H1486 0.951 . S
C1511 C1509 1.388 . S
C1511 C1512 1.366 . S
C1512 C1511 1.366 . S
C1512 C1513 1.414 . S
C1512 C1515 1.499 . S
C1513 H1487 0.950 . S
C1513 C1512 1.414 . S
C1513 C1514 1.374 . S
C1514 H1488 0.950 . S
C1514 C1510 1.385 . S
C1514 C1513 1.374 . S
C1515 C1512 1.499 . S
C1515 C1516 1.373 . S
C1515 C1517 1.389 . S
C1516 H1489 0.950 . S
C1516 C1502 1.377 . S
C1516 C1515 1.373 . S
C1517 C1501 1.377 . S
C1517 C1515 1.389 . S
C1517 C1518 1.524 . S
C1518 C1517 1.524 . S
C1518 C1519 1.397 . S
C1518 C1523 1.363 . S
C1519 H1490 0.958 . S
C1519 C1518 1.397 . S
C1519 C1520 1.334 1_545 S
C1520 H1491 0.950 . S
C1520 C1519 1.334 1_565 S
C1520 C1521 1.287 . S
C1521 C1520 1.287 . S
C1521 C1522 1.524 1_565 S
C1521 H1524 0.999 . S
C1522 H1492 0.950 . S
C1522 C1521 1.524 1_545 S
C1522 C1523 1.415 . S
C1523 H1493 0.950 . S
C1523 C1518 1.363 . S
C1523 C1522 1.415 . S
H1524 C1521 0.999 . S
H1525 C1506 0.913 . S
H1526 C1544 0.951 . S
H1527 C1546 0.951 . S
H1528 C1548 0.950 . S
H1529 C1549 0.950 . S
H1530 C1551 0.950 . S
H1531 C1554 0.950 . S
H1532 C1555 0.950 . S
H1533 C1557 0.950 . S
H1534 C1558 0.950 . S
H1535 C1559 0.951 . S
H1536 C1561 0.951 . S
H1537 C1563 0.950 . S
H1538 C1564 0.950 . S
H1539 C1566 0.950 . S
H1540 C1569 0.950 . S
H1541 C1570 0.950 . S
H1542 C1572 0.950 . S
H1543 C1573 0.950 . S
C1544 H1526 0.951 . S
C1544 C1545 1.366 . S
C1544 C1546 1.388 . S
C1545 C1544 1.366 . S
C1545 C1549 1.385 . S
C1546 H1527 0.951 . S
C1546 C1544 1.388 . S
C1546 C1547 1.366 . S
C1547 C1546 1.366 . S
C1547 C1548 1.414 . S
C1547 C1550 1.499 . S
C1548 H1528 0.950 . S
C1548 C1547 1.414 . S
C1548 C1549 1.374 . S
C1549 H1529 0.950 . S
C1549 C1545 1.385 . S
C1549 C1548 1.374 . S
C1550 C1547 1.499 . S
C1550 C1551 1.373 . S
C1550 C1552 1.389 . S
C1551 H1530 0.950 . S
C1551 C1550 1.373 . S
C1551 C1567 1.377 . S
C1552 C1550 1.389 . S
C1552 C1553 1.524 . S
C1552 C1566 1.377 . S
C1553 C1552 1.524 . S
C1553 C1554 1.397 . S
C1553 C1558 1.363 . S
C1554 H1531 0.950 . S
C1554 C1553 1.397 . S
C1554 C1555 1.334 . S
C1555 H1532 0.950 . S
C1555 C1554 1.334 . S
C1555 C1556 1.287 . S
C1556 C1555 1.287 . S
C1556 C1557 1.524 . S
C1556 H1575 0.913 . S
C1557 H1533 0.950 . S
C1557 C1556 1.524 . S
C1557 C1558 1.415 . S
C1558 H1534 0.950 . S
C1558 C1553 1.363 . S
C1558 C1557 1.415 . S
C1559 H1535 0.951 . S
C1559 C1560 1.366 . S
C1559 C1561 1.388 . S
C1560 C1559 1.366 . S
C1560 C1564 1.385 . S
C1561 H1536 0.951 . S
C1561 C1559 1.388 . S
C1561 C1562 1.366 . S
C1562 C1561 1.366 . S
C1562 C1563 1.414 . S
C1562 C1565 1.499 . S
C1563 H1537 0.950 . S
C1563 C1562 1.414 . S
C1563 C1564 1.374 . S
C1564 H1538 0.950 . S
C1564 C1560 1.385 . S
C1564 C1563 1.374 . S
C1565 C1562 1.499 . S
C1565 C1566 1.373 . S
C1565 C1567 1.389 . S
C1566 H1539 0.950 . S
C1566 C1552 1.377 . S
C1566 C1565 1.373 . S
C1567 C1551 1.377 . S
C1567 C1565 1.389 . S
C1567 C1568 1.524 . S
C1568 C1567 1.524 . S
C1568 C1569 1.397 . S
C1568 C1573 1.363 . S
C1569 H1540 0.950 . S
C1569 C1568 1.397 . S
C1569 C1570 1.334 . S
C1570 H1541 0.950 . S
C1570 C1569 1.334 . S
C1570 C1571 1.287 . S
C1571 C1570 1.287 . S
C1571 C1572 1.524 . S
C1571 H1574 0.999 . S
C1572 H1542 0.950 . S
C1572 C1571 1.524 . S
C1572 C1573 1.415 . S
C1573 H1543 0.950 . S
C1573 C1568 1.363 . S
C1573 C1572 1.415 . S
H1574 C1571 0.999 . S
H1575 C1556 0.913 . S
H1576 C1594 0.951 . S
H1577 C1596 0.951 1_455 S
H1578 C1598 0.950 . S
H1579 C1599 0.950 . S
H1580 C1601 0.950 . S
H1581 C1604 0.950 1_655 S
H1582 C1605 0.950 . S
H1583 C1607 0.950 . S
H1584 C1608 0.950 . S
H1585 C1609 0.951 . S
H1586 C1611 0.951 1_655 S
H1587 C1613 0.950 . S
H1588 C1614 0.950 . S
H1589 C1616 0.950 . S
H1590 C1619 0.950 1_455 S
H1591 C1620 0.950 . S
H1592 C1622 0.950 . S
H1593 C1623 0.950 . S
C1594 H1576 0.951 . S
C1594 C1595 1.366 . S
C1594 C1596 1.388 . S
C1595 C1594 1.366 . S
C1595 C1599 1.385 . S
C1596 H1577 0.951 1_655 S
C1596 C1594 1.388 . S
C1596 C1597 1.366 . S
C1597 C1596 1.366 . S
C1597 C1598 1.414 . S
C1597 C1600 1.499 . S
C1598 H1578 0.950 . S
C1598 C1597 1.414 . S
C1598 C1599 1.374 . S
C1599 H1579 0.950 . S
C1599 C1595 1.385 . S
C1599 C1598 1.374 . S
C1600 C1597 1.499 . S
C1600 C1601 1.373 . S
C1600 C1602 1.389 1_655 S
C1601 H1580 0.950 . S
C1601 C1600 1.373 . S
C1601 C1617 1.377 . S
C1602 C1600 1.389 1_455 S
C1602 C1603 1.524 . S
C1602 C1616 1.377 . S
C1603 C1602 1.524 . S
C1603 C1604 1.397 . S
C1603 C1608 1.363 . S
C1604 H1581 0.950 1_455 S
C1604 C1603 1.397 . S
C1604 C1605 1.334 . S
C1605 H1582 0.950 . S
C1605 C1604 1.334 . S
C1605 C1606 1.287 . S
C1606 C1605 1.287 . S
C1606 C1607 1.524 . S
C1606 H1625 0.913 . S
C1607 H1583 0.950 . S
C1607 C1606 1.524 . S
C1607 C1608 1.415 . S
C1608 H1584 0.950 . S
C1608 C1603 1.363 . S
C1608 C1607 1.415 . S
C1609 H1585 0.951 . S
C1609 C1610 1.366 . S
C1609 C1611 1.388 . S
C1610 C1609 1.366 . S
C1610 C1614 1.385 . S
C1611 H1586 0.951 1_455 S
C1611 C1609 1.388 . S
C1611 C1612 1.366 . S
C1612 C1611 1.366 . S
C1612 C1613 1.414 . S
C1612 C1615 1.499 . S
C1613 H1587 0.950 . S
C1613 C1612 1.414 . S
C1613 C1614 1.374 . S
C1614 H1588 0.950 . S
C1614 C1610 1.385 . S
C1614 C1613 1.374 . S
C1615 C1612 1.499 . S
C1615 C1616 1.373 . S
C1615 C1617 1.389 1_455 S
C1616 H1589 0.950 . S
C1616 C1602 1.377 . S
C1616 C1615 1.373 . S
C1617 C1601 1.377 . S
C1617 C1615 1.389 1_655 S
C1617 C1618 1.524 . S
C1618 C1617 1.524 . S
C1618 C1619 1.397 . S
C1618 C1623 1.363 . S
C1619 H1590 0.950 1_655 S
C1619 C1618 1.397 . S
C1619 C1620 1.334 . S
C1620 H1591 0.950 . S
C1620 C1619 1.334 . S
C1620 C1621 1.287 . S
C1621 C1620 1.287 . S
C1621 C1622 1.524 . S
C1621 H1624 0.999 . S
C1622 H1592 0.950 . S
C1622 C1621 1.524 . S
C1622 C1623 1.415 . S
C1623 H1593 0.950 . S
C1623 C1618 1.363 . S
C1623 C1622 1.415 . S
H1624 C1621 0.999 . S
H1625 C1606 0.913 . S
H1626 C1644 0.951 . S
H1627 C1646 0.951 . S
H1628 C1648 0.950 . S
H1629 C1649 0.950 . S
H1630 C1651 0.950 . S
H1631 C1654 0.950 . S
H1632 C1655 0.950 . S
H1633 C1657 0.950 . S
H1634 C1658 0.950 . S
H1635 C1659 0.951 . S
H1636 C1661 0.951 . S
H1637 C1663 0.950 . S
H1638 C1664 0.950 . S
H1639 C1666 0.950 . S
H1640 C1669 0.950 . S
H1641 C1670 0.950 . S
H1642 C1672 0.950 . S
H1643 C1673 0.950 . S
C1644 H1626 0.951 . S
C1644 C1645 1.366 . S
C1644 C1646 1.388 . S
C1645 C1644 1.366 . S
C1645 C1649 1.385 . S
C1646 H1627 0.951 . S
C1646 C1644 1.388 . S
C1646 C1647 1.366 . S
C1647 C1646 1.366 . S
C1647 C1648 1.414 . S
C1647 C1650 1.499 . S
C1648 H1628 0.950 . S
C1648 C1647 1.414 . S
C1648 C1649 1.374 . S
C1649 H1629 0.950 . S
C1649 C1645 1.385 . S
C1649 C1648 1.374 . S
C1650 C1647 1.499 . S
C1650 C1651 1.373 . S
C1650 C1652 1.389 . S
C1651 H1630 0.950 . S
C1651 C1650 1.373 . S
C1651 C1667 1.377 . S
C1652 C1650 1.389 . S
C1652 C1653 1.524 . S
C1652 C1666 1.377 . S
C1653 C1652 1.524 . S
C1653 C1654 1.397 . S
C1653 C1658 1.363 . S
C1654 H1631 0.950 . S
C1654 C1653 1.397 . S
C1654 C1655 1.334 . S
C1655 H1632 0.950 . S
C1655 C1654 1.334 . S
C1655 C1656 1.287 . S
C1656 C1655 1.287 . S
C1656 C1657 1.524 . S
C1656 H1675 0.913 . S
C1657 H1633 0.950 . S
C1657 C1656 1.524 . S
C1657 C1658 1.415 . S
C1658 H1634 0.950 . S
C1658 C1653 1.363 . S
C1658 C1657 1.415 . S
C1659 H1635 0.951 . S
C1659 C1660 1.366 . S
C1659 C1661 1.388 . S
C1660 C1659 1.366 . S
C1660 C1664 1.385 . S
C1661 H1636 0.951 . S
C1661 C1659 1.388 . S
C1661 C1662 1.366 . S
C1662 C1661 1.366 . S
C1662 C1663 1.414 . S
C1662 C1665 1.499 . S
C1663 H1637 0.950 . S
C1663 C1662 1.414 . S
C1663 C1664 1.374 . S
C1664 H1638 0.950 . S
C1664 C1660 1.385 . S
C1664 C1663 1.374 . S
C1665 C1662 1.499 . S
C1665 C1666 1.373 . S
C1665 C1667 1.389 . S
C1666 H1639 0.950 . S
C1666 C1652 1.377 . S
C1666 C1665 1.373 . S
C1667 C1651 1.377 . S
C1667 C1665 1.389 . S
C1667 C1668 1.524 . S
C1668 C1667 1.524 . S
C1668 C1669 1.397 . S
C1668 C1673 1.363 . S
C1669 H1640 0.950 . S
C1669 C1668 1.397 . S
C1669 C1670 1.334 . S
C1670 H1641 0.950 . S
C1670 C1669 1.334 . S
C1670 C1671 1.287 . S
C1671 C1670 1.287 . S
C1671 C1672 1.524 . S
C1671 H1674 0.999 . S
C1672 H1642 0.950 . S
C1672 C1671 1.524 . S
C1672 C1673 1.415 . S
C1673 H1643 0.950 . S
C1673 C1668 1.363 . S
C1673 C1672 1.415 . S
H1674 C1671 0.999 . S
H1675 C1656 0.913 . S
H1676 C1694 0.951 . S
H1677 C1696 0.951 . S
H1678 C1698 0.950 . S
H1679 C1699 0.950 . S
H1680 C1701 0.950 . S
H1681 C1704 0.950 . S
H1682 C1705 0.950 . S
H1683 C1707 0.950 . S
H1684 C1708 0.950 . S
H1685 C1709 0.951 . S
H1686 C1711 0.951 . S
H1687 C1713 0.950 . S
H1688 C1714 0.950 . S
H1689 C1716 0.950 . S
H1690 C1719 0.950 . S
H1691 C1720 0.950 . S
H1692 C1722 0.950 . S
H1693 C1723 0.950 . S
C1694 H1676 0.951 . S
C1694 C1695 1.366 . S
C1694 C1696 1.388 . S
C1695 C1694 1.366 . S
C1695 C1699 1.385 . S
C1696 H1677 0.951 . S
C1696 C1694 1.388 . S
C1696 C1697 1.366 . S
C1697 C1696 1.366 . S
C1697 C1698 1.414 . S
C1697 C1700 1.499 . S
C1698 H1678 0.950 . S
C1698 C1697 1.414 . S
C1698 C1699 1.374 . S
C1699 H1679 0.950 . S
C1699 C1695 1.385 . S
C1699 C1698 1.374 . S
C1700 C1697 1.499 . S
C1700 C1701 1.373 . S
C1700 C1702 1.389 . S
C1701 H1680 0.950 . S
C1701 C1700 1.373 . S
C1701 C1717 1.377 . S
C1702 C1700 1.389 . S
C1702 C1703 1.524 . S
C1702 C1716 1.377 . S
C1703 C1702 1.524 . S
C1703 C1704 1.397 . S
C1703 C1708 1.363 . S
C1704 H1681 0.950 . S
C1704 C1703 1.397 . S
C1704 C1705 1.334 . S
C1705 H1682 0.950 . S
C1705 C1704 1.334 . S
C1705 C1706 1.287 . S
C1706 C1705 1.287 . S
C1706 C1707 1.524 . S
C1706 H1725 0.913 . S
C1707 H1683 0.950 . S
C1707 C1706 1.524 . S
C1707 C1708 1.415 . S
C1708 H1684 0.950 . S
C1708 C1703 1.363 . S
C1708 C1707 1.415 . S
C1709 H1685 0.951 . S
C1709 C1710 1.366 . S
C1709 C1711 1.388 . S
C1710 C1709 1.366 . S
C1710 C1714 1.385 . S
C1711 H1686 0.951 . S
C1711 C1709 1.388 . S
C1711 C1712 1.366 . S
C1712 C1711 1.366 . S
C1712 C1713 1.414 . S
C1712 C1715 1.499 . S
C1713 H1687 0.950 . S
C1713 C1712 1.414 . S
C1713 C1714 1.374 . S
C1714 H1688 0.950 . S
C1714 C1710 1.385 . S
C1714 C1713 1.374 . S
C1715 C1712 1.499 . S
C1715 C1716 1.373 . S
C1715 C1717 1.389 . S
C1716 H1689 0.950 . S
C1716 C1702 1.377 . S
C1716 C1715 1.373 . S
C1717 C1701 1.377 . S
C1717 C1715 1.389 . S
C1717 C1718 1.524 . S
C1718 C1717 1.524 . S
C1718 C1719 1.397 . S
C1718 C1723 1.363 . S
C1719 H1690 0.950 . S
C1719 C1718 1.397 . S
C1719 C1720 1.334 . S
C1720 H1691 0.950 . S
C1720 C1719 1.334 . S
C1720 C1721 1.286 1_545 S
C1721 C1720 1.286 1_565 S
C1721 C1722 1.524 . S
C1721 H1724 1.000 . S
C1722 H1692 0.950 . S
C1722 C1721 1.524 . S
C1722 C1723 1.415 1_565 S
C1723 H1693 0.950 . S
C1723 C1718 1.363 . S
C1723 C1722 1.415 1_545 S
H1724 C1721 1.000 . S
H1725 C1706 0.913 . S
H1726 C1744 0.951 . S
H1727 C1746 0.951 . S
H1728 C1748 0.950 . S
H1729 C1749 0.950 . S
H1730 C1751 0.950 . S
H1731 C1754 0.950 . S
H1732 C1755 0.950 . S
H1733 C1757 0.950 . S
H1734 C1758 0.950 . S
H1735 C1759 0.951 . S
H1736 C1761 0.951 . S
H1737 C1763 0.950 . S
H1738 C1764 0.950 . S
H1739 C1766 0.950 . S
H1740 C1769 0.950 . S
H1741 C1770 0.950 . S
H1742 C1772 0.950 . S
H1743 C1773 0.950 . S
C1744 H1726 0.951 . S
C1744 C1745 1.366 . S
C1744 C1746 1.388 . S
C1745 C1744 1.366 . S
C1745 C1749 1.385 . S
C1746 H1727 0.951 . S
C1746 C1744 1.388 . S
C1746 C1747 1.366 . S
C1747 C1746 1.366 . S
C1747 C1748 1.414 . S
C1747 C1750 1.499 . S
C1748 H1728 0.950 . S
C1748 C1747 1.414 . S
C1748 C1749 1.374 . S
C1749 H1729 0.950 . S
C1749 C1745 1.385 . S
C1749 C1748 1.374 . S
C1750 C1747 1.499 . S
C1750 C1751 1.373 . S
C1750 C1752 1.389 . S
C1751 H1730 0.950 . S
C1751 C1750 1.373 . S
C1751 C1767 1.377 . S
C1752 C1750 1.389 . S
C1752 C1753 1.524 . S
C1752 C1766 1.377 . S
C1753 C1752 1.524 . S
C1753 C1754 1.397 . S
C1753 C1758 1.363 . S
C1754 H1731 0.950 . S
C1754 C1753 1.397 . S
C1754 C1755 1.334 . S
C1755 H1732 0.950 . S
C1755 C1754 1.334 . S
C1755 C1756 1.287 . S
C1756 C1755 1.287 . S
C1756 C1757 1.524 . S
C1756 H1775 0.913 . S
C1757 H1733 0.950 . S
C1757 C1756 1.524 . S
C1757 C1758 1.415 . S
C1758 H1734 0.950 . S
C1758 C1753 1.363 . S
C1758 C1757 1.415 . S
C1759 H1735 0.951 . S
C1759 C1760 1.366 . S
C1759 C1761 1.388 . S
C1760 C1759 1.366 . S
C1760 C1764 1.385 . S
C1761 H1736 0.951 . S
C1761 C1759 1.388 . S
C1761 C1762 1.366 . S
C1762 C1761 1.366 . S
C1762 C1763 1.414 . S
C1762 C1765 1.499 . S
C1763 H1737 0.950 . S
C1763 C1762 1.414 . S
C1763 C1764 1.374 . S
C1764 H1738 0.950 . S
C1764 C1760 1.385 . S
C1764 C1763 1.374 . S
C1765 C1762 1.499 . S
C1765 C1766 1.373 . S
C1765 C1767 1.389 . S
C1766 H1739 0.950 . S
C1766 C1752 1.377 . S
C1766 C1765 1.373 . S
C1767 C1751 1.377 . S
C1767 C1765 1.389 . S
C1767 C1768 1.524 . S
C1768 C1767 1.524 . S
C1768 C1769 1.397 . S
C1768 C1773 1.363 . S
C1769 H1740 0.950 . S
C1769 C1768 1.397 . S
C1769 C1770 1.334 . S
C1770 H1741 0.950 . S
C1770 C1769 1.334 . S
C1770 C1771 1.287 . S
C1771 C1770 1.287 . S
C1771 C1772 1.524 . S
C1771 H1774 0.999 . S
C1772 H1742 0.950 . S
C1772 C1771 1.524 . S
C1772 C1773 1.415 . S
C1773 H1743 0.950 . S
C1773 C1768 1.363 . S
C1773 C1772 1.415 . S
H1774 C1771 0.999 . S
H1775 C1756 0.913 . S
H1776 C1794 0.951 . S
H1777 C1796 0.951 . S
H1778 C1798 0.950 . S
H1779 C1799 0.950 . S
H1780 C1801 0.950 . S
H1781 C1804 0.950 . S
H1782 C1805 0.950 . S
H1783 C1807 0.950 . S
H1784 C1808 0.950 . S
H1785 C1809 0.951 . S
H1786 C1811 0.951 . S
H1787 C1813 0.950 . S
H1788 C1814 0.950 . S
H1789 C1816 0.950 1_545 S
H1790 C1819 0.944 . S
H1791 C1820 0.950 . S
H1792 C1822 0.948 . S
H1793 C1823 0.950 . S
C1794 H1776 0.951 . S
C1794 C1795 1.366 . S
C1794 C1796 1.388 . S
C1795 C1794 1.366 . S
C1795 C1799 1.385 . S
C1796 H1777 0.951 . S
C1796 C1794 1.388 . S
C1796 C1797 1.366 . S
C1797 C1796 1.366 . S
C1797 C1798 1.414 . S
C1797 C1800 1.499 . S
C1798 H1778 0.950 . S
C1798 C1797 1.414 . S
C1798 C1799 1.374 . S
C1799 H1779 0.950 . S
C1799 C1795 1.385 . S
C1799 C1798 1.374 . S
C1800 C1797 1.499 . S
C1800 C1801 1.373 . S
C1800 C1802 1.389 . S
C1801 H1780 0.950 . S
C1801 C1800 1.373 . S
C1801 C1817 1.377 . S
C1802 C1800 1.389 . S
C1802 C1803 1.524 . S
C1802 C1816 1.377 . S
C1803 C1802 1.524 . S
C1803 C1804 1.397 . S
C1803 C1808 1.363 1_565 S
C1804 H1781 0.950 . S
C1804 C1803 1.397 . S
C1804 C1805 1.334 . S
C1805 H1782 0.950 . S
C1805 C1804 1.334 . S
C1805 C1806 1.287 1_565 S
C1806 C1805 1.287 1_545 S
C1806 C1807 1.524 . S
C1806 H1825 0.913 . S
C1807 H1783 0.950 . S
C1807 C1806 1.524 . S
C1807 C1808 1.415 . S
C1808 H1784 0.950 . S
C1808 C1803 1.363 1_545 S
C1808 C1807 1.415 . S
C1809 H1785 0.951 . S
C1809 C1810 1.366 1_565 S
C1809 C1811 1.388 . S
C1810 C1809 1.366 1_545 S
C1810 C1814 1.385 . S
C1811 H1786 0.951 . S
C1811 C1809 1.388 . S
C1811 C1812 1.366 . S
C1812 C1811 1.366 . S
C1812 C1813 1.414 1_565 S
C1812 C1815 1.499 . S
C1813 H1787 0.950 . S
C1813 C1812 1.414 1_545 S
C1813 C1814 1.374 . S
C1814 H1788 0.950 . S
C1814 C1810 1.385 . S
C1814 C1813 1.374 . S
C1815 C1812 1.499 . S
C1815 C1816 1.373 . S
C1815 C1817 1.389 . S
C1816 H1789 0.950 1_565 S
C1816 C1802 1.377 . S
C1816 C1815 1.373 . S
C1817 C1801 1.377 . S
C1817 C1815 1.389 . S
C1817 C1818 1.524 . S
C1818 C1817 1.524 . S
C1818 C1819 1.390 1_554 S
C1818 C1823 1.363 . S
C1819 H1790 0.944 . S
C1819 C1818 1.390 1_556 S
C1819 C1820 1.339 . S
C1820 H1791 0.950 . S
C1820 C1819 1.339 . S
C1820 C1821 1.287 . S
C1821 C1820 1.287 . S
C1821 C1822 1.493 1_556 S
C1821 H1824 0.999 . S
C1822 H1792 0.948 . S
C1822 C1821 1.493 1_554 S
C1822 C1823 1.434 . S
C1823 H1793 0.950 . S
C1823 C1818 1.363 . S
C1823 C1822 1.434 . S
H1824 C1821 0.999 . S
H1825 C1806 0.913 . S
H1826 C1844 0.932 1_556 S
H1827 C1846 0.951 1_556 S
H1828 C1848 0.950 . S
H1829 C1849 0.950 . S
H1830 C1851 0.950 . S
H1831 C1854 0.950 . S
H1832 C1855 0.950 . S
H1833 C1857 0.950 . S
H1834 C1858 0.950 . S
H1835 C1859 0.951 . S
H1836 C1861 0.951 . S
H1837 C1863 0.950 1_556 S
H1838 C1864 0.950 1_556 S
H1839 C1866 0.950 . S
H1840 C1869 0.950 . S
H1841 C1870 0.950 . S
H1842 C1872 0.930 1_554 S
H1843 C1873 0.950 . S
C1844 H1826 0.932 1_554 S
C1844 C1845 1.378 . S
C1844 C1846 1.395 . S
C1845 C1844 1.378 . S
C1845 C1849 1.385 . S
C1846 H1827 0.951 1_554 S
C1846 C1844 1.395 . S
C1846 C1847 1.366 . S
C1847 C1846 1.366 . S
C1847 C1848 1.414 . S
C1847 C1850 1.499 . S
C1848 H1828 0.950 . S
C1848 C1847 1.414 . S
C1848 C1849 1.374 . S
C1849 H1829 0.950 . S
C1849 C1845 1.385 . S
C1849 C1848 1.374 . S
C1850 C1847 1.499 . S
C1850 C1851 1.373 . S
C1850 C1852 1.389 . S
C1851 H1830 0.950 . S
C1851 C1850 1.373 . S
C1851 C1867 1.377 . S
C1852 C1850 1.389 . S
C1852 C1853 1.524 . S
C1852 C1866 1.377 . S
C1853 C1852 1.524 . S
C1853 C1854 1.397 . S
C1853 C1858 1.363 . S
C1854 H1831 0.950 . S
C1854 C1853 1.397 . S
C1854 C1855 1.334 . S
C1855 H1832 0.950 . S
C1855 C1854 1.334 . S
C1855 C1856 1.287 . S
C1856 C1855 1.287 . S
C1856 C1857 1.524 . S
C1856 H1875 0.913 . S
C1857 H1833 0.950 . S
C1857 C1856 1.524 . S
C1857 C1858 1.415 . S
C1858 H1834 0.950 . S
C1858 C1853 1.363 . S
C1858 C1857 1.415 . S
C1859 H1835 0.951 . S
C1859 C1860 1.366 . S
C1859 C1861 1.388 . S
C1860 C1859 1.366 . S
C1860 C1864 1.385 . S
C1861 H1836 0.951 . S
C1861 C1859 1.388 . S
C1861 C1862 1.366 . S
C1862 C1861 1.366 . S
C1862 C1863 1.414 . S
C1862 C1865 1.499 . S
C1863 H1837 0.950 1_554 S
C1863 C1862 1.414 . S
C1863 C1864 1.374 . S
C1864 H1838 0.950 1_554 S
C1864 C1860 1.385 . S
C1864 C1863 1.374 . S
C1865 C1862 1.499 . S
C1865 C1866 1.373 . S
C1865 C1867 1.389 . S
C1866 H1839 0.950 . S
C1866 C1852 1.377 . S
C1866 C1865 1.373 . S
C1867 C1851 1.377 . S
C1867 C1865 1.389 . S
C1867 C1868 1.524 1_554 S
C1868 C1867 1.524 1_556 S
C1868 C1869 1.397 . S
C1868 C1873 1.363 1_556 S
C1869 H1840 0.950 . S
C1869 C1868 1.397 . S
C1869 C1870 1.334 . S
C1870 H1841 0.950 . S
C1870 C1869 1.334 . S
C1870 C1871 1.287 . S
C1871 C1870 1.287 . S
C1871 C1872 1.524 . S
C1871 H1874 0.999 . S
C1872 H1842 0.930 1_556 S
C1872 C1871 1.524 . S
C1872 C1873 1.415 1_556 S
C1873 H1843 0.950 . S
C1873 C1868 1.363 1_554 S
C1873 C1872 1.415 1_554 S
H1874 C1871 0.999 . S
H1875 C1856 0.913 . S
H1876 C1894 0.951 . S
H1877 C1896 0.951 . S
H1878 C1898 0.950 . S
H1879 C1899 0.950 . S
H1880 C1901 0.950 . S
H1881 C1904 0.950 . S
H1882 C1905 0.950 . S
H1883 C1907 0.950 . S
H1884 C1908 0.950 . S
H1885 C1909 0.951 . S
H1886 C1911 0.951 . S
H1887 C1913 0.950 . S
H1888 C1914 0.950 . S
H1889 C1916 0.950 . S
H1890 C1919 0.950 . S
H1891 C1920 0.950 . S
H1892 C1922 0.950 . S
H1893 C1923 0.950 . S
C1894 H1876 0.951 . S
C1894 C1895 1.366 . S
C1894 C1896 1.388 . S
C1895 C1894 1.366 . S
C1895 C1899 1.385 . S
C1896 H1877 0.951 . S
C1896 C1894 1.388 . S
C1896 C1897 1.366 . S
C1897 C1896 1.366 . S
C1897 C1898 1.414 . S
C1897 C1900 1.499 . S
C1898 H1878 0.950 . S
C1898 C1897 1.414 . S
C1898 C1899 1.374 . S
C1899 H1879 0.950 . S
C1899 C1895 1.385 . S
C1899 C1898 1.374 . S
C1900 C1897 1.499 . S
C1900 C1901 1.373 . S
C1900 C1902 1.389 . S
C1901 H1880 0.950 . S
C1901 C1900 1.373 . S
C1901 C1917 1.377 . S
C1902 C1900 1.389 . S
C1902 C1903 1.524 . S
C1902 C1916 1.377 . S
C1903 C1902 1.524 . S
C1903 C1904 1.397 . S
C1903 C1908 1.363 . S
C1904 H1881 0.950 . S
C1904 C1903 1.397 . S
C1904 C1905 1.334 . S
C1905 H1882 0.950 . S
C1905 C1904 1.334 . S
C1905 C1906 1.287 . S
C1906 C1905 1.287 . S
C1906 C1907 1.524 . S
C1906 H1925 0.913 . S
C1907 H1883 0.950 . S
C1907 C1906 1.524 . S
C1907 C1908 1.415 . S
C1908 H1884 0.950 . S
C1908 C1903 1.363 . S
C1908 C1907 1.415 . S
C1909 H1885 0.951 . S
C1909 C1910 1.366 . S
C1909 C1911 1.388 . S
C1910 C1909 1.366 . S
C1910 C1914 1.385 . S
C1911 H1886 0.951 . S
C1911 C1909 1.388 . S
C1911 C1912 1.366 . S
C1912 C1911 1.366 . S
C1912 C1913 1.414 . S
C1912 C1915 1.499 . S
C1913 H1887 0.950 . S
C1913 C1912 1.414 . S
C1913 C1914 1.374 . S
C1914 H1888 0.950 . S
C1914 C1910 1.385 . S
C1914 C1913 1.374 . S
C1915 C1912 1.499 . S
C1915 C1916 1.373 . S
C1915 C1917 1.389 . S
C1916 H1889 0.950 . S
C1916 C1902 1.377 . S
C1916 C1915 1.373 . S
C1917 C1901 1.377 . S
C1917 C1915 1.389 . S
C1917 C1918 1.524 . S
C1918 C1917 1.524 . S
C1918 C1919 1.397 . S
C1918 C1923 1.363 . S
C1919 H1890 0.950 . S
C1919 C1918 1.397 . S
C1919 C1920 1.334 . S
C1920 H1891 0.950 . S
C1920 C1919 1.334 . S
C1920 C1921 1.287 . S
C1921 C1920 1.287 . S
C1921 C1922 1.524 . S
C1921 H1924 0.999 . S
C1922 H1892 0.950 . S
C1922 C1921 1.524 . S
C1922 C1923 1.415 . S
C1923 H1893 0.950 . S
C1923 C1918 1.363 . S
C1923 C1922 1.415 . S
H1924 C1921 0.999 . S
H1925 C1906 0.913 . S
H1926 C1944 0.951 . S
H1927 C1946 0.951 . S
H1928 C1948 0.950 . S
H1929 C1949 0.950 . S
H1930 C1951 0.950 . S
H1931 C1954 0.950 . S
H1932 C1955 0.950 . S
H1933 C1957 0.950 . S
H1934 C1958 0.950 . S
H1935 C1959 0.951 1_455 S
H1936 C1961 0.951 . S
H1937 C1963 0.950 . S
H1938 C1964 0.950 . S
H1939 C1966 0.950 . S
H1940 C1969 0.950 . S
H1941 C1970 0.950 . S
H1942 C1972 0.950 . S
H1943 C1973 0.950 . S
C1944 H1926 0.951 . S
C1944 C1945 1.366 . S
C1944 C1946 1.388 . S
C1945 C1944 1.366 . S
C1945 C1949 1.385 . S
C1946 H1927 0.951 . S
C1946 C1944 1.388 . S
C1946 C1947 1.366 . S
C1947 C1946 1.366 . S
C1947 C1948 1.414 . S
C1947 C1950 1.499 . S
C1948 H1928 0.950 . S
C1948 C1947 1.414 . S
C1948 C1949 1.374 . S
C1949 H1929 0.950 . S
C1949 C1945 1.385 . S
C1949 C1948 1.374 . S
C1950 C1947 1.499 . S
C1950 C1951 1.373 . S
C1950 C1952 1.389 . S
C1951 H1930 0.950 . S
C1951 C1950 1.373 . S
C1951 C1967 1.377 . S
C1952 C1950 1.389 . S
C1952 C1953 1.524 . S
C1952 C1966 1.377 . S
C1953 C1952 1.524 . S
C1953 C1954 1.397 . S
C1953 C1958 1.363 . S
C1954 H1931 0.950 . S
C1954 C1953 1.397 . S
C1954 C1955 1.334 . S
C1955 H1932 0.950 . S
C1955 C1954 1.334 . S
C1955 C1956 1.287 . S
C1956 C1955 1.287 . S
C1956 C1957 1.524 . S
C1956 H1975 0.913 . S
C1957 H1933 0.950 . S
C1957 C1956 1.524 . S
C1957 C1958 1.415 . S
C1958 H1934 0.950 . S
C1958 C1953 1.363 . S
C1958 C1957 1.415 . S
C1959 H1935 0.951 1_655 S
C1959 C1960 1.366 . S
C1959 C1961 1.388 . S
C1960 C1959 1.366 . S
C1960 C1964 1.385 . S
C1961 H1936 0.951 . S
C1961 C1959 1.388 . S
C1961 C1962 1.366 . S
C1962 C1961 1.366 . S
C1962 C1963 1.414 . S
C1962 C1965 1.499 . S
C1963 H1937 0.950 . S
C1963 C1962 1.414 . S
C1963 C1964 1.374 . S
C1964 H1938 0.950 . S
C1964 C1960 1.385 . S
C1964 C1963 1.374 . S
C1965 C1962 1.499 . S
C1965 C1966 1.373 . S
C1965 C1967 1.389 . S
C1966 H1939 0.950 . S
C1966 C1952 1.377 . S
C1966 C1965 1.373 . S
C1967 C1951 1.377 . S
C1967 C1965 1.389 . S
C1967 C1968 1.524 . S
C1968 C1967 1.524 . S
C1968 C1969 1.397 . S
C1968 C1973 1.363 . S
C1969 H1940 0.950 . S
C1969 C1968 1.397 . S
C1969 C1970 1.334 . S
C1970 H1941 0.950 . S
C1970 C1969 1.334 . S
C1970 C1971 1.287 . S
C1971 C1970 1.287 . S
C1971 C1972 1.524 . S
C1971 H1974 0.999 . S
C1972 H1942 0.950 . S
C1972 C1971 1.524 . S
C1972 C1973 1.415 . S
C1973 H1943 0.950 . S
C1973 C1968 1.363 . S
C1973 C1972 1.415 . S
H1974 C1971 0.999 . S
H1975 C1956 0.913 . S
H1976 C1994 0.951 . S
H1977 C1996 0.951 . S
H1978 C1998 0.950 . S
H1979 C1999 0.950 . S
H1980 C2001 0.950 . S
H1981 C2004 0.950 . S
H1982 C2005 0.950 . S
H1983 C2007 0.950 . S
H1984 C2008 0.950 . S
H1985 C2009 0.951 . S
H1986 C2011 0.951 . S
H1987 C2013 0.950 . S
H1988 C2014 0.950 . S
H1989 C2016 0.950 . S
H1990 C2019 0.950 . S
H1991 C2020 0.950 . S
H1992 C2022 0.950 . S
H1993 C2023 0.950 . S
C1994 H1976 0.951 . S
C1994 C1995 1.366 . S
C1994 C1996 1.388 . S
C1995 C1994 1.366 . S
C1995 C1999 1.385 . S
C1996 H1977 0.951 . S
C1996 C1994 1.388 . S
C1996 C1997 1.366 . S
C1997 C1996 1.366 . S
C1997 C1998 1.414 . S
C1997 C2000 1.499 . S
C1998 H1978 0.950 . S
C1998 C1997 1.414 . S
C1998 C1999 1.374 . S
C1999 H1979 0.950 . S
C1999 C1995 1.385 . S
C1999 C1998 1.374 . S
C2000 C1997 1.499 . S
C2000 C2001 1.373 . S
C2000 C2002 1.389 . S
C2001 H1980 0.950 . S
C2001 C2000 1.373 . S
C2001 C2017 1.377 . S
C2002 C2000 1.389 . S
C2002 C2003 1.524 . S
C2002 C2016 1.377 . S
C2003 C2002 1.524 . S
C2003 C2004 1.397 . S
C2003 C2008 1.363 . S
C2004 H1981 0.950 . S
C2004 C2003 1.397 . S
C2004 C2005 1.334 . S
C2005 H1982 0.950 . S
C2005 C2004 1.334 . S
C2005 C2006 1.287 . S
C2006 C2005 1.287 . S
C2006 C2007 1.524 . S
C2006 H2025 0.913 . S
C2007 H1983 0.950 . S
C2007 C2006 1.524 . S
C2007 C2008 1.415 . S
C2008 H1984 0.950 . S
C2008 C2003 1.363 . S
C2008 C2007 1.415 . S
C2009 H1985 0.951 . S
C2009 C2010 1.366 . S
C2009 C2011 1.388 . S
C2010 C2009 1.366 . S
C2010 C2014 1.385 . S
C2011 H1986 0.951 . S
C2011 C2009 1.388 . S
C2011 C2012 1.366 . S
C2012 C2011 1.366 . S
C2012 C2013 1.414 . S
C2012 C2015 1.499 . S
C2013 H1987 0.950 . S
C2013 C2012 1.414 . S
C2013 C2014 1.374 . S
C2014 H1988 0.950 . S
C2014 C2010 1.385 . S
C2014 C2013 1.374 . S
C2015 C2012 1.499 . S
C2015 C2016 1.373 . S
C2015 C2017 1.389 . S
C2016 H1989 0.950 . S
C2016 C2002 1.377 . S
C2016 C2015 1.373 . S
C2017 C2001 1.377 . S
C2017 C2015 1.389 . S
C2017 C2018 1.524 . S
C2018 C2017 1.524 . S
C2018 C2019 1.397 . S
C2018 C2023 1.363 . S
C2019 H1990 0.950 . S
C2019 C2018 1.397 . S
C2019 C2020 1.334 . S
C2020 H1991 0.950 . S
C2020 C2019 1.334 . S
C2020 C2021 1.287 . S
C2021 C2020 1.287 . S
C2021 C2022 1.524 . S
C2021 H2024 0.999 . S
C2022 H1992 0.950 . S
C2022 C2021 1.524 . S
C2022 C2023 1.415 . S
C2023 H1993 0.950 . S
C2023 C2018 1.363 . S
C2023 C2022 1.415 . S
H2024 C2021 0.999 . S
H2025 C2006 0.913 . S
H2026 C2044 0.951 . S
H2027 C2046 0.951 . S
H2028 C2048 0.950 . S
H2029 C2049 0.950 . S
H2030 C2051 0.950 . S
H2031 C2054 0.950 . S
H2032 C2055 0.950 . S
H2033 C2057 0.950 . S
H2034 C2058 0.950 . S
H2035 C2059 0.951 . S
H2036 C2061 0.951 . S
H2037 C2063 0.950 . S
H2038 C2064 0.950 . S
H2039 C2066 0.950 . S
H2040 C2069 0.950 . S
H2041 C2070 0.950 . S
H2042 C2072 0.950 . S
H2043 C2073 0.950 . S
C2044 H2026 0.951 . S
C2044 C2045 1.366 . S
C2044 C2046 1.388 . S
C2045 C2044 1.366 . S
C2045 C2049 1.385 . S
C2046 H2027 0.951 . S
C2046 C2044 1.388 . S
C2046 C2047 1.366 . S
C2047 C2046 1.366 . S
C2047 C2048 1.414 . S
C2047 C2050 1.499 . S
C2048 H2028 0.950 . S
C2048 C2047 1.414 . S
C2048 C2049 1.374 . S
C2049 H2029 0.950 . S
C2049 C2045 1.385 . S
C2049 C2048 1.374 . S
C2050 C2047 1.499 . S
C2050 C2051 1.373 . S
C2050 C2052 1.389 . S
C2051 H2030 0.950 . S
C2051 C2050 1.373 . S
C2051 C2067 1.377 . S
C2052 C2050 1.389 . S
C2052 C2053 1.524 . S
C2052 C2066 1.377 . S
C2053 C2052 1.524 . S
C2053 C2054 1.397 . S
C2053 C2058 1.363 . S
C2054 H2031 0.950 . S
C2054 C2053 1.397 . S
C2054 C2055 1.334 . S
C2055 H2032 0.950 . S
C2055 C2054 1.334 . S
C2055 C2056 1.287 . S
C2056 C2055 1.287 . S
C2056 C2057 1.524 . S
C2056 H2075 0.913 . S
C2057 H2033 0.950 . S
C2057 C2056 1.524 . S
C2057 C2058 1.415 . S
C2058 H2034 0.950 . S
C2058 C2053 1.363 . S
C2058 C2057 1.415 . S
C2059 H2035 0.951 . S
C2059 C2060 1.366 . S
C2059 C2061 1.388 . S
C2060 C2059 1.366 . S
C2060 C2064 1.385 . S
C2061 H2036 0.951 . S
C2061 C2059 1.388 . S
C2061 C2062 1.366 . S
C2062 C2061 1.366 . S
C2062 C2063 1.414 . S
C2062 C2065 1.499 . S
C2063 H2037 0.950 . S
C2063 C2062 1.414 . S
C2063 C2064 1.374 . S
C2064 H2038 0.950 . S
C2064 C2060 1.385 . S
C2064 C2063 1.374 . S
C2065 C2062 1.499 . S
C2065 C2066 1.373 . S
C2065 C2067 1.389 . S
C2066 H2039 0.950 . S
C2066 C2052 1.377 . S
C2066 C2065 1.373 . S
C2067 C2051 1.377 . S
C2067 C2065 1.389 . S
C2067 C2068 1.524 . S
C2068 C2067 1.524 . S
C2068 C2069 1.397 . S
C2068 C2073 1.363 . S
C2069 H2040 0.950 . S
C2069 C2068 1.397 . S
C2069 C2070 1.334 . S
C2070 H2041 0.950 . S
C2070 C2069 1.334 . S
C2070 C2071 1.287 . S
C2071 C2070 1.287 . S
C2071 C2072 1.524 . S
C2071 H2074 0.999 . S
C2072 H2042 0.950 . S
C2072 C2071 1.524 . S
C2072 C2073 1.415 . S
C2073 H2043 0.950 . S
C2073 C2068 1.363 . S
C2073 C2072 1.415 . S
H2074 C2071 0.999 . S
H2075 C2056 0.913 . S
H2076 C2094 0.951 . S
H2077 C2096 0.951 . S
H2078 C2098 0.950 . S
H2079 C2099 0.950 . S
H2080 C2101 0.950 . S
H2081 C2104 0.950 . S
H2082 C2105 0.950 . S
H2083 C2107 0.950 . S
H2084 C2108 0.950 . S
H2085 C2109 0.951 . S
H2086 C2111 0.951 . S
H2087 C2113 0.950 . S
H2088 C2114 0.950 . S
H2089 C2116 0.950 . S
H2090 C2119 0.950 . S
H2091 C2120 0.950 . S
H2092 C2122 0.950 . S
H2093 C2123 0.950 . S
C2094 H2076 0.951 . S
C2094 C2095 1.366 . S
C2094 C2096 1.388 . S
C2095 C2094 1.366 . S
C2095 C2099 1.385 . S
C2096 H2077 0.951 . S
C2096 C2094 1.388 . S
C2096 C2097 1.366 . S
C2097 C2096 1.366 . S
C2097 C2098 1.414 . S
C2097 C2100 1.499 . S
C2098 H2078 0.950 . S
C2098 C2097 1.414 . S
C2098 C2099 1.374 . S
C2099 H2079 0.950 . S
C2099 C2095 1.385 . S
C2099 C2098 1.374 . S
C2100 C2097 1.499 . S
C2100 C2101 1.373 . S
C2100 C2102 1.389 . S
C2101 H2080 0.950 . S
C2101 C2100 1.373 . S
C2101 C2117 1.377 . S
C2102 C2100 1.389 . S
C2102 C2103 1.524 . S
C2102 C2116 1.377 . S
C2103 C2102 1.524 . S
C2103 C2104 1.397 . S
C2103 C2108 1.363 . S
C2104 H2081 0.950 . S
C2104 C2103 1.397 . S
C2104 C2105 1.334 . S
C2105 H2082 0.950 . S
C2105 C2104 1.334 . S
C2105 C2106 1.287 . S
C2106 C2105 1.287 . S
C2106 C2107 1.524 . S
C2106 H2125 0.913 . S
C2107 H2083 0.950 . S
C2107 C2106 1.524 . S
C2107 C2108 1.415 . S
C2108 H2084 0.950 . S
C2108 C2103 1.363 . S
C2108 C2107 1.415 . S
C2109 H2085 0.951 . S
C2109 C2110 1.366 . S
C2109 C2111 1.388 . S
C2110 C2109 1.366 . S
C2110 C2114 1.385 . S
C2111 H2086 0.951 . S
C2111 C2109 1.388 . S
C2111 C2112 1.366 . S
C2112 C2111 1.366 . S
C2112 C2113 1.414 . S
C2112 C2115 1.499 . S
C2113 H2087 0.950 . S
C2113 C2112 1.414 . S
C2113 C2114 1.374 . S
C2114 H2088 0.950 . S
C2114 C2110 1.385 . S
C2114 C2113 1.374 . S
C2115 C2112 1.499 . S
C2115 C2116 1.373 . S
C2115 C2117 1.389 . S
C2116 H2089 0.950 . S
C2116 C2102 1.377 . S
C2116 C2115 1.373 . S
C2117 C2101 1.377 . S
C2117 C2115 1.389 . S
C2117 C2118 1.524 . S
C2118 C2117 1.524 . S
C2118 C2119 1.397 . S
C2118 C2123 1.363 . S
C2119 H2090 0.950 . S
C2119 C2118 1.397 . S
C2119 C2120 1.334 . S
C2120 H2091 0.950 . S
C2120 C2119 1.334 . S
C2120 C2121 1.287 . S
C2121 C2120 1.287 . S
C2121 C2122 1.524 . S
C2121 H2124 0.999 . S
C2122 H2092 0.950 . S
C2122 C2121 1.524 . S
C2122 C2123 1.415 . S
C2123 H2093 0.950 . S
C2123 C2118 1.363 . S
C2123 C2122 1.415 . S
H2124 C2121 0.999 . S
H2125 C2106 0.913 . S
H2126 C2144 0.951 . S
H2127 C2146 0.951 . S
H2128 C2148 0.950 . S
H2129 C2149 0.950 . S
H2130 C2151 0.950 . S
H2131 C2154 0.950 . S
H2132 C2155 0.950 . S
H2133 C2157 0.950 . S
H2134 C2158 0.950 . S
H2135 C2159 0.951 . S
H2136 C2161 0.951 . S
H2137 C2163 0.950 . S
H2138 C2164 0.950 . S
H2139 C2166 0.950 . S
H2140 C2169 0.950 . S
H2141 C2170 0.950 . S
H2142 C2172 0.950 . S
H2143 C2173 0.950 . S
C2144 H2126 0.951 . S
C2144 C2145 1.366 . S
C2144 C2146 1.388 . S
C2145 C2144 1.366 . S
C2145 C2149 1.385 . S
C2146 H2127 0.951 . S
C2146 C2144 1.388 . S
C2146 C2147 1.366 . S
C2147 C2146 1.366 . S
C2147 C2148 1.414 . S
C2147 C2150 1.499 . S
C2148 H2128 0.950 . S
C2148 C2147 1.414 . S
C2148 C2149 1.374 . S
C2149 H2129 0.950 . S
C2149 C2145 1.385 . S
C2149 C2148 1.374 . S
C2150 C2147 1.499 . S
C2150 C2151 1.373 . S
C2150 C2152 1.389 . S
C2151 H2130 0.950 . S
C2151 C2150 1.373 . S
C2151 C2167 1.377 . S
C2152 C2150 1.389 . S
C2152 C2153 1.524 . S
C2152 C2166 1.377 . S
C2153 C2152 1.524 . S
C2153 C2154 1.397 . S
C2153 C2158 1.363 . S
C2154 H2131 0.950 . S
C2154 C2153 1.397 . S
C2154 C2155 1.334 . S
C2155 H2132 0.950 . S
C2155 C2154 1.334 . S
C2155 C2156 1.287 . S
C2156 C2155 1.287 . S
C2156 C2157 1.524 . S
C2156 H2175 0.913 . S
C2157 H2133 0.950 . S
C2157 C2156 1.524 . S
C2157 C2158 1.415 . S
C2158 H2134 0.950 . S
C2158 C2153 1.363 . S
C2158 C2157 1.415 . S
C2159 H2135 0.951 . S
C2159 C2160 1.366 . S
C2159 C2161 1.388 . S
C2160 C2159 1.366 . S
C2160 C2164 1.385 . S
C2161 H2136 0.951 . S
C2161 C2159 1.388 . S
C2161 C2162 1.366 . S
C2162 C2161 1.366 . S
C2162 C2163 1.414 . S
C2162 C2165 1.499 . S
C2163 H2137 0.950 . S
C2163 C2162 1.414 . S
C2163 C2164 1.374 . S
C2164 H2138 0.950 . S
C2164 C2160 1.385 . S
C2164 C2163 1.374 . S
C2165 C2162 1.499 . S
C2165 C2166 1.373 . S
C2165 C2167 1.389 . S
C2166 H2139 0.950 . S
C2166 C2152 1.377 . S
C2166 C2165 1.373 . S
C2167 C2151 1.377 . S
C2167 C2165 1.389 . S
C2167 C2168 1.524 . S
C2168 C2167 1.524 . S
C2168 C2169 1.397 . S
C2168 C2173 1.363 . S
C2169 H2140 0.950 . S
C2169 C2168 1.397 . S
C2169 C2170 1.334 . S
C2170 H2141 0.950 . S
C2170 C2169 1.334 . S
C2170 C2171 1.287 . S
C2171 C2170 1.287 . S
C2171 C2172 1.524 . S
C2171 H2174 0.999 . S
C2172 H2142 0.950 . S
C2172 C2171 1.524 . S
C2172 C2173 1.415 . S
C2173 H2143 0.950 . S
C2173 C2168 1.363 . S
C2173 C2172 1.415 . S
H2174 C2171 0.999 . S
H2175 C2156 0.913 . S
H2176 C2194 0.951 . S
H2177 C2196 0.951 . S
H2178 C2198 0.950 . S
H2179 C2199 0.950 . S
H2180 C2201 0.950 . S
H2181 C2204 0.950 . S
H2182 C2205 0.950 . S
H2183 C2207 0.950 . S
H2184 C2208 0.950 . S
H2185 C2209 0.951 . S
H2186 C2211 0.951 . S
H2187 C2213 0.950 . S
H2188 C2214 0.950 . S
H2189 C2216 0.950 . S
H2190 C2219 0.950 . S
H2191 C2220 0.950 1_556 S
H2192 C2222 0.950 . S
H2193 C2223 0.950 . S
C2194 H2176 0.951 . S
C2194 C2195 1.366 . S
C2194 C2196 1.388 . S
C2195 C2194 1.366 . S
C2195 C2199 1.385 . S
C2196 H2177 0.951 . S
C2196 C2194 1.388 . S
C2196 C2197 1.366 . S
C2197 C2196 1.366 . S
C2197 C2198 1.414 . S
C2197 C2200 1.499 . S
C2198 H2178 0.950 . S
C2198 C2197 1.414 . S
C2198 C2199 1.374 . S
C2199 H2179 0.950 . S
C2199 C2195 1.385 . S
C2199 C2198 1.374 . S
C2200 C2197 1.499 . S
C2200 C2201 1.373 . S
C2200 C2202 1.389 . S
C2201 H2180 0.950 . S
C2201 C2200 1.373 . S
C2201 C2217 1.377 . S
C2202 C2200 1.389 . S
C2202 C2203 1.524 . S
C2202 C2216 1.377 . S
C2203 C2202 1.524 . S
C2203 C2204 1.397 . S
C2203 C2208 1.363 . S
C2204 H2181 0.950 . S
C2204 C2203 1.397 . S
C2204 C2205 1.334 . S
C2205 H2182 0.950 . S
C2205 C2204 1.334 . S
C2205 C2206 1.287 . S
C2206 C2205 1.287 . S
C2206 C2207 1.524 . S
C2206 H2225 0.913 . S
C2207 H2183 0.950 . S
C2207 C2206 1.524 . S
C2207 C2208 1.415 . S
C2208 H2184 0.950 . S
C2208 C2203 1.363 . S
C2208 C2207 1.415 . S
C2209 H2185 0.951 . S
C2209 C2210 1.366 . S
C2209 C2211 1.388 . S
C2210 C2209 1.366 . S
C2210 C2214 1.385 . S
C2211 H2186 0.951 . S
C2211 C2209 1.388 . S
C2211 C2212 1.366 . S
C2212 C2211 1.366 . S
C2212 C2213 1.414 . S
C2212 C2215 1.499 . S
C2213 H2187 0.950 . S
C2213 C2212 1.414 . S
C2213 C2214 1.374 . S
C2214 H2188 0.950 . S
C2214 C2210 1.385 . S
C2214 C2213 1.374 . S
C2215 C2212 1.499 . S
C2215 C2216 1.373 . S
C2215 C2217 1.389 . S
C2216 H2189 0.950 . S
C2216 C2202 1.377 . S
C2216 C2215 1.373 . S
C2217 C2201 1.377 . S
C2217 C2215 1.389 . S
C2217 C2218 1.524 . S
C2218 C2217 1.524 . S
C2218 C2219 1.397 . S
C2218 C2223 1.363 . S
C2219 H2190 0.950 . S
C2219 C2218 1.397 . S
C2219 C2220 1.334 . S
C2220 H2191 0.950 1_554 S
C2220 C2219 1.334 . S
C2220 C2221 1.231 1_455 S
C2221 C2220 1.231 1_655 S
C2221 C2222 1.537 . S
C2221 H2224 1.057 . S
C2222 H2192 0.950 . S
C2222 C2221 1.537 . S
C2222 C2223 1.415 1_655 S
C2223 H2193 0.950 . S
C2223 C2218 1.363 . S
C2223 C2222 1.415 1_455 S
H2224 C2221 1.057 . S
H2225 C2206 0.913 . S
H2226 C2244 0.951 . S
H2227 C2246 0.951 . S
H2228 C2248 0.950 . S
H2229 C2249 0.950 . S
H2230 C2251 0.950 . S
H2231 C2254 0.950 . S
H2232 C2255 0.950 . S
H2233 C2257 0.950 . S
H2234 C2258 0.950 . S
H2235 C2259 0.951 . S
H2236 C2261 0.951 . S
H2237 C2263 0.950 . S
H2238 C2264 0.950 . S
H2239 C2266 0.950 . S
H2240 C2269 0.950 . S
H2241 C2270 0.950 . S
H2242 C2272 0.950 . S
H2243 C2273 0.950 . S
C2244 H2226 0.951 . S
C2244 C2245 1.366 . S
C2244 C2246 1.388 . S
C2245 C2244 1.366 . S
C2245 C2249 1.385 . S
C2246 H2227 0.951 . S
C2246 C2244 1.388 . S
C2246 C2247 1.366 . S
C2247 C2246 1.366 . S
C2247 C2248 1.414 . S
C2247 C2250 1.499 . S
C2248 H2228 0.950 . S
C2248 C2247 1.414 . S
C2248 C2249 1.374 . S
C2249 H2229 0.950 . S
C2249 C2245 1.385 . S
C2249 C2248 1.374 . S
C2250 C2247 1.499 . S
C2250 C2251 1.373 . S
C2250 C2252 1.389 . S
C2251 H2230 0.950 . S
C2251 C2250 1.373 . S
C2251 C2267 1.377 . S
C2252 C2250 1.389 . S
C2252 C2253 1.524 . S
C2252 C2266 1.377 . S
C2253 C2252 1.524 . S
C2253 C2254 1.397 . S
C2253 C2258 1.363 . S
C2254 H2231 0.950 . S
C2254 C2253 1.397 . S
C2254 C2255 1.334 . S
C2255 H2232 0.950 . S
C2255 C2254 1.334 . S
C2255 C2256 1.287 . S
C2256 C2255 1.287 . S
C2256 C2257 1.524 . S
C2256 H2275 0.913 . S
C2257 H2233 0.950 . S
C2257 C2256 1.524 . S
C2257 C2258 1.415 . S
C2258 H2234 0.950 . S
C2258 C2253 1.363 . S
C2258 C2257 1.415 . S
C2259 H2235 0.951 . S
C2259 C2260 1.366 . S
C2259 C2261 1.388 . S
C2260 C2259 1.366 . S
C2260 C2264 1.385 . S
C2261 H2236 0.951 . S
C2261 C2259 1.388 . S
C2261 C2262 1.366 . S
C2262 C2261 1.366 . S
C2262 C2263 1.414 . S
C2262 C2265 1.499 . S
C2263 H2237 0.950 . S
C2263 C2262 1.414 . S
C2263 C2264 1.374 . S
C2264 H2238 0.950 . S
C2264 C2260 1.385 . S
C2264 C2263 1.374 . S
C2265 C2262 1.499 . S
C2265 C2266 1.373 . S
C2265 C2267 1.389 . S
C2266 H2239 0.950 . S
C2266 C2252 1.377 . S
C2266 C2265 1.373 . S
C2267 C2251 1.377 . S
C2267 C2265 1.389 . S
C2267 C2268 1.524 . S
C2268 C2267 1.524 . S
C2268 C2269 1.397 . S
C2268 C2273 1.363 . S
C2269 H2240 0.950 . S
C2269 C2268 1.397 . S
C2269 C2270 1.334 . S
C2270 H2241 0.950 . S
C2270 C2269 1.334 . S
C2270 C2271 1.287 . S
C2271 C2270 1.287 . S
C2271 C2272 1.524 . S
C2271 H2274 0.999 . S
C2272 H2242 0.950 . S
C2272 C2271 1.524 . S
C2272 C2273 1.415 . S
C2273 H2243 0.950 . S
C2273 C2268 1.363 . S
C2273 C2272 1.415 . S
H2274 C2271 0.999 . S
H2275 C2256 0.913 . S
H2276 C2294 0.951 . S
H2277 C2296 0.951 . S
H2278 C2298 0.950 . S
H2279 C2299 0.950 . S
H2280 C2301 0.950 . S
H2281 C2304 0.950 . S
H2282 C2305 0.950 . S
H2283 C2307 0.950 . S
H2284 C2308 0.950 . S
H2285 C2309 0.951 . S
H2286 C2311 0.951 . S
H2287 C2313 0.950 . S
H2288 C2314 0.950 . S
H2289 C2316 0.950 . S
H2290 C2319 0.950 . S
H2291 C2320 0.950 . S
H2292 C2322 0.950 . S
H2293 C2323 0.950 . S
C2294 H2276 0.951 . S
C2294 C2295 1.366 . S
C2294 C2296 1.388 . S
C2295 C2294 1.366 . S
C2295 C2299 1.385 . S
C2296 H2277 0.951 . S
C2296 C2294 1.388 . S
C2296 C2297 1.366 . S
C2297 C2296 1.366 . S
C2297 C2298 1.414 . S
C2297 C2300 1.499 . S
C2298 H2278 0.950 . S
C2298 C2297 1.414 . S
C2298 C2299 1.374 . S
C2299 H2279 0.950 . S
C2299 C2295 1.385 . S
C2299 C2298 1.374 . S
C2300 C2297 1.499 . S
C2300 C2301 1.373 . S
C2300 C2302 1.389 . S
C2301 H2280 0.950 . S
C2301 C2300 1.373 . S
C2301 C2317 1.377 . S
C2302 C2300 1.389 . S
C2302 C2303 1.524 . S
C2302 C2316 1.377 . S
C2303 C2302 1.524 . S
C2303 C2304 1.397 . S
C2303 C2308 1.363 . S
C2304 H2281 0.950 . S
C2304 C2303 1.397 . S
C2304 C2305 1.334 . S
C2305 H2282 0.950 . S
C2305 C2304 1.334 . S
C2305 C2306 1.287 . S
C2306 C2305 1.287 . S
C2306 C2307 1.524 . S
C2306 H2325 0.913 . S
C2307 H2283 0.950 . S
C2307 C2306 1.524 . S
C2307 C2308 1.415 . S
C2308 H2284 0.950 . S
C2308 C2303 1.363 . S
C2308 C2307 1.415 . S
C2309 H2285 0.951 . S
C2309 C2310 1.366 . S
C2309 C2311 1.388 . S
C2310 C2309 1.366 . S
C2310 C2314 1.385 . S
C2311 H2286 0.951 . S
C2311 C2309 1.388 . S
C2311 C2312 1.366 . S
C2312 C2311 1.366 . S
C2312 C2313 1.414 . S
C2312 C2315 1.499 . S
C2313 H2287 0.950 . S
C2313 C2312 1.414 . S
C2313 C2314 1.374 . S
C2314 H2288 0.950 . S
C2314 C2310 1.385 . S
C2314 C2313 1.374 . S
C2315 C2312 1.499 . S
C2315 C2316 1.373 . S
C2315 C2317 1.389 . S
C2316 H2289 0.950 . S
C2316 C2302 1.377 . S
C2316 C2315 1.373 . S
C2317 C2301 1.377 . S
C2317 C2315 1.389 . S
C2317 C2318 1.524 . S
C2318 C2317 1.524 . S
C2318 C2319 1.397 . S
C2318 C2323 1.363 . S
C2319 H2290 0.950 . S
C2319 C2318 1.397 . S
C2319 C2320 1.334 . S
C2320 H2291 0.950 . S
C2320 C2319 1.334 . S
C2320 C2321 1.287 . S
C2321 C2320 1.287 . S
C2321 C2322 1.524 . S
C2321 H2324 0.999 . S
C2322 H2292 0.950 . S
C2322 C2321 1.524 . S
C2322 C2323 1.415 . S
C2323 H2293 0.950 . S
C2323 C2318 1.363 . S
C2323 C2322 1.415 . S
H2324 C2321 0.999 . S
H2325 C2306 0.913 . S
H2326 C2344 0.951 . S
H2327 C2346 0.951 . S
H2328 C2348 0.950 . S
H2329 C2349 0.950 . S
H2330 C2351 0.950 . S
H2331 C2354 0.950 . S
H2332 C2355 0.950 . S
H2333 C2357 0.950 . S
H2334 C2358 0.950 . S
H2335 C2359 0.951 . S
H2336 C2361 0.951 . S
H2337 C2363 0.950 . S
H2338 C2364 0.950 . S
H2339 C2366 0.950 . S
H2340 C2369 0.950 . S
H2341 C2370 0.950 . S
H2342 C2372 0.950 . S
H2343 C2373 0.950 . S
C2344 H2326 0.951 . S
C2344 C2345 1.366 . S
C2344 C2346 1.388 . S
C2345 C2344 1.366 . S
C2345 C2349 1.385 . S
C2346 H2327 0.951 . S
C2346 C2344 1.388 . S
C2346 C2347 1.366 . S
C2347 C2346 1.366 . S
C2347 C2348 1.414 . S
C2347 C2350 1.499 . S
C2348 H2328 0.950 . S
C2348 C2347 1.414 . S
C2348 C2349 1.374 . S
C2349 H2329 0.950 . S
C2349 C2345 1.385 . S
C2349 C2348 1.374 . S
C2350 C2347 1.499 . S
C2350 C2351 1.373 . S
C2350 C2352 1.389 . S
C2351 H2330 0.950 . S
C2351 C2350 1.373 . S
C2351 C2367 1.377 . S
C2352 C2350 1.389 . S
C2352 C2353 1.524 . S
C2352 C2366 1.377 . S
C2353 C2352 1.524 . S
C2353 C2354 1.397 . S
C2353 C2358 1.363 . S
C2354 H2331 0.950 . S
C2354 C2353 1.397 . S
C2354 C2355 1.334 . S
C2355 H2332 0.950 . S
C2355 C2354 1.334 . S
C2355 C2356 1.287 . S
C2356 C2355 1.287 . S
C2356 C2357 1.524 . S
C2356 H2375 0.913 . S
C2357 H2333 0.950 . S
C2357 C2356 1.524 . S
C2357 C2358 1.415 . S
C2358 H2334 0.950 . S
C2358 C2353 1.363 . S
C2358 C2357 1.415 . S
C2359 H2335 0.951 . S
C2359 C2360 1.366 . S
C2359 C2361 1.388 . S
C2360 C2359 1.366 . S
C2360 C2364 1.385 . S
C2361 H2336 0.951 . S
C2361 C2359 1.388 . S
C2361 C2362 1.366 . S
C2362 C2361 1.366 . S
C2362 C2363 1.414 . S
C2362 C2365 1.499 . S
C2363 H2337 0.950 . S
C2363 C2362 1.414 . S
C2363 C2364 1.374 . S
C2364 H2338 0.950 . S
C2364 C2360 1.385 . S
C2364 C2363 1.374 . S
C2365 C2362 1.499 . S
C2365 C2366 1.373 . S
C2365 C2367 1.389 . S
C2366 H2339 0.950 . S
C2366 C2352 1.377 . S
C2366 C2365 1.373 . S
C2367 C2351 1.377 . S
C2367 C2365 1.389 . S
C2367 C2368 1.524 . S
C2368 C2367 1.524 . S
C2368 C2369 1.397 . S
C2368 C2373 1.363 . S
C2369 H2340 0.950 . S
C2369 C2368 1.397 . S
C2369 C2370 1.334 . S
C2370 H2341 0.950 . S
C2370 C2369 1.334 . S
C2370 C2371 1.287 . S
C2371 C2370 1.287 . S
C2371 C2372 1.524 . S
C2371 H2374 0.999 . S
C2372 H2342 0.950 . S
C2372 C2371 1.524 . S
C2372 C2373 1.415 . S
C2373 H2343 0.950 . S
C2373 C2368 1.363 . S
C2373 C2372 1.415 . S
H2374 C2371 0.999 . S
H2375 C2356 0.913 . S
H2376 C2394 0.951 . S
H2377 C2396 0.951 . S
H2378 C2398 0.950 . S
H2379 C2399 0.950 . S
H2380 C2401 0.950 . S
H2381 C2404 0.950 . S
H2382 C2405 0.950 . S
H2383 C2407 0.950 . S
H2384 C2408 0.950 . S
H2385 C2409 0.951 . S
H2386 C2411 0.951 . S
H2387 C2413 0.950 . S
H2388 C2414 0.950 . S
H2389 C2416 0.950 . S
H2390 C2419 0.950 . S
H2391 C2420 0.950 . S
H2392 C2422 0.915 1_655 S
H2393 C2423 0.950 . S
C2394 H2376 0.951 . S
C2394 C2395 1.366 . S
C2394 C2396 1.388 . S
C2395 C2394 1.366 . S
C2395 C2399 1.385 . S
C2396 H2377 0.951 . S
C2396 C2394 1.388 . S
C2396 C2397 1.366 . S
C2397 C2396 1.366 . S
C2397 C2398 1.414 . S
C2397 C2400 1.499 . S
C2398 H2378 0.950 . S
C2398 C2397 1.414 . S
C2398 C2399 1.374 . S
C2399 H2379 0.950 . S
C2399 C2395 1.385 . S
C2399 C2398 1.374 . S
C2400 C2397 1.499 . S
C2400 C2401 1.373 . S
C2400 C2402 1.389 . S
C2401 H2380 0.950 . S
C2401 C2400 1.373 . S
C2401 C2417 1.377 . S
C2402 C2400 1.389 . S
C2402 C2403 1.524 . S
C2402 C2416 1.377 . S
C2403 C2402 1.524 . S
C2403 C2404 1.397 . S
C2403 C2408 1.363 . S
C2404 H2381 0.950 . S
C2404 C2403 1.397 . S
C2404 C2405 1.334 . S
C2405 H2382 0.950 . S
C2405 C2404 1.334 . S
C2405 C2406 1.287 . S
C2406 C2405 1.287 . S
C2406 C2407 1.524 . S
C2406 H2425 0.913 . S
C2407 H2383 0.950 . S
C2407 C2406 1.524 . S
C2407 C2408 1.415 . S
C2408 H2384 0.950 . S
C2408 C2403 1.363 . S
C2408 C2407 1.415 . S
C2409 H2385 0.951 . S
C2409 C2410 1.366 . S
C2409 C2411 1.388 . S
C2410 C2409 1.366 . S
C2410 C2414 1.385 . S
C2411 H2386 0.951 . S
C2411 C2409 1.388 . S
C2411 C2412 1.366 . S
C2412 C2411 1.366 . S
C2412 C2413 1.414 . S
C2412 C2415 1.499 . S
C2413 H2387 0.950 . S
C2413 C2412 1.414 . S
C2413 C2414 1.374 . S
C2414 H2388 0.950 . S
C2414 C2410 1.385 . S
C2414 C2413 1.374 . S
C2415 C2412 1.499 . S
C2415 C2416 1.373 . S
C2415 C2417 1.389 . S
C2416 H2389 0.950 . S
C2416 C2402 1.377 . S
C2416 C2415 1.373 . S
C2417 C2401 1.377 . S
C2417 C2415 1.389 . S
C2417 C2418 1.524 . S
C2418 C2417 1.524 . S
C2418 C2419 1.397 . S
C2418 C2423 1.363 . S
C2419 H2390 0.950 . S
C2419 C2418 1.397 . S
C2419 C2420 1.334 . S
C2420 H2391 0.950 . S
C2420 C2419 1.334 . S
C2420 C2421 1.287 . S
C2421 C2420 1.287 . S
C2421 C2422 1.534 . S
C2421 H2424 0.999 1_455 S
C2422 H2392 0.915 1_455 S
C2422 C2421 1.534 . S
C2422 C2423 1.446 . S
C2423 H2393 0.950 . S
C2423 C2418 1.363 . S
C2423 C2422 1.446 . S
H2424 C2421 0.999 1_655 S
H2425 C2406 0.913 . S
H2426 C2444 0.951 . S
H2427 C2446 0.951 . S
H2428 C2448 0.950 . S
H2429 C2449 0.950 . S
H2430 C2451 0.950 . S
H2431 C2454 0.950 . S
H2432 C2455 0.950 . S
H2433 C2457 0.950 . S
H2434 C2458 0.950 . S
H2435 C2459 0.951 . S
H2436 C2461 0.951 . S
H2437 C2463 0.950 . S
H2438 C2464 0.950 . S
H2439 C2466 0.950 . S
H2440 C2469 0.950 . S
H2441 C2470 0.950 . S
H2442 C2472 0.950 . S
H2443 C2473 0.950 . S
C2444 H2426 0.951 . S
C2444 C2445 1.366 . S
C2444 C2446 1.388 . S
C2445 C2444 1.366 . S
C2445 C2449 1.385 . S
C2446 H2427 0.951 . S
C2446 C2444 1.388 . S
C2446 C2447 1.366 . S
C2447 C2446 1.366 . S
C2447 C2448 1.414 . S
C2447 C2450 1.499 . S
C2448 H2428 0.950 . S
C2448 C2447 1.414 . S
C2448 C2449 1.374 . S
C2449 H2429 0.950 . S
C2449 C2445 1.385 . S
C2449 C2448 1.374 . S
C2450 C2447 1.499 . S
C2450 C2451 1.373 . S
C2450 C2452 1.389 . S
C2451 H2430 0.950 . S
C2451 C2450 1.373 . S
C2451 C2467 1.377 . S
C2452 C2450 1.389 . S
C2452 C2453 1.524 . S
C2452 C2466 1.377 . S
C2453 C2452 1.524 . S
C2453 C2454 1.397 . S
C2453 C2458 1.363 . S
C2454 H2431 0.950 . S
C2454 C2453 1.397 . S
C2454 C2455 1.334 . S
C2455 H2432 0.950 . S
C2455 C2454 1.334 . S
C2455 C2456 1.287 . S
C2456 C2455 1.287 . S
C2456 C2457 1.524 . S
C2456 H2475 0.913 . S
C2457 H2433 0.950 . S
C2457 C2456 1.524 . S
C2457 C2458 1.415 . S
C2458 H2434 0.950 . S
C2458 C2453 1.363 . S
C2458 C2457 1.415 . S
C2459 H2435 0.951 . S
C2459 C2460 1.366 . S
C2459 C2461 1.388 . S
C2460 C2459 1.366 . S
C2460 C2464 1.385 . S
C2461 H2436 0.951 . S
C2461 C2459 1.388 . S
C2461 C2462 1.366 . S
C2462 C2461 1.366 . S
C2462 C2463 1.414 . S
C2462 C2465 1.499 . S
C2463 H2437 0.950 . S
C2463 C2462 1.414 . S
C2463 C2464 1.374 . S
C2464 H2438 0.950 . S
C2464 C2460 1.385 . S
C2464 C2463 1.374 . S
C2465 C2462 1.499 . S
C2465 C2466 1.373 . S
C2465 C2467 1.389 . S
C2466 H2439 0.950 . S
C2466 C2452 1.377 . S
C2466 C2465 1.373 . S
C2467 C2451 1.377 . S
C2467 C2465 1.389 . S
C2467 C2468 1.524 . S
C2468 C2467 1.524 . S
C2468 C2469 1.397 . S
C2468 C2473 1.363 . S
C2469 H2440 0.950 . S
C2469 C2468 1.397 . S
C2469 C2470 1.334 . S
C2470 H2441 0.950 . S
C2470 C2469 1.334 . S
C2470 C2471 1.287 . S
C2471 C2470 1.287 . S
C2471 C2472 1.524 . S
C2471 H2474 0.999 . S
C2472 H2442 0.950 . S
C2472 C2471 1.524 . S
C2472 C2473 1.415 . S
C2473 H2443 0.950 . S
C2473 C2468 1.363 . S
C2473 C2472 1.415 . S
H2474 C2471 0.999 . S
H2475 C2456 0.913 . S
H2476 C2494 0.951 . S
H2477 C2496 0.951 . S
H2478 C2498 0.950 . S
H2479 C2499 0.950 . S
H2480 C2501 0.950 . S
H2481 C2504 0.950 . S
H2482 C2505 0.950 . S
H2483 C2507 0.950 . S
H2484 C2508 0.950 . S
H2485 C2509 0.951 . S
H2486 C2511 0.951 . S
H2487 C2513 0.950 . S
H2488 C2514 0.950 . S
H2489 C2516 0.950 . S
H2490 C2519 0.950 . S
H2491 C2520 0.950 . S
H2492 C2522 0.950 . S
H2493 C2523 0.961 . S
C2494 H2476 0.951 . S
C2494 C2495 1.366 . S
C2494 C2496 1.388 . S
C2495 C2494 1.366 . S
C2495 C2499 1.385 . S
C2496 H2477 0.951 . S
C2496 C2494 1.388 . S
C2496 C2497 1.366 . S
C2497 C2496 1.366 . S
C2497 C2498 1.414 . S
C2497 C2500 1.499 . S
C2498 H2478 0.950 . S
C2498 C2497 1.414 . S
C2498 C2499 1.374 . S
C2499 H2479 0.950 . S
C2499 C2495 1.385 . S
C2499 C2498 1.374 . S
C2500 C2497 1.499 . S
C2500 C2501 1.373 . S
C2500 C2502 1.389 . S
C2501 H2480 0.950 . S
C2501 C2500 1.373 . S
C2501 C2517 1.377 . S
C2502 C2500 1.389 . S
C2502 C2503 1.524 . S
C2502 C2516 1.377 . S
C2503 C2502 1.524 . S
C2503 C2504 1.397 . S
C2503 C2508 1.363 . S
C2504 H2481 0.950 . S
C2504 C2503 1.397 . S
C2504 C2505 1.334 . S
C2505 H2482 0.950 . S
C2505 C2504 1.334 . S
C2505 C2506 1.287 . S
C2506 C2505 1.287 . S
C2506 C2507 1.524 . S
C2506 H2525 0.913 . S
C2507 H2483 0.950 . S
C2507 C2506 1.524 . S
C2507 C2508 1.415 . S
C2508 H2484 0.950 . S
C2508 C2503 1.363 . S
C2508 C2507 1.415 . S
C2509 H2485 0.951 . S
C2509 C2510 1.366 1_554 S
C2509 C2511 1.388 1_554 S
C2510 C2509 1.366 1_556 S
C2510 C2514 1.385 . S
C2511 H2486 0.951 . S
C2511 C2509 1.388 1_556 S
C2511 C2512 1.366 . S
C2512 C2511 1.366 . S
C2512 C2513 1.414 . S
C2512 C2515 1.499 . S
C2513 H2487 0.950 . S
C2513 C2512 1.414 . S
C2513 C2514 1.374 . S
C2514 H2488 0.950 . S
C2514 C2510 1.385 . S
C2514 C2513 1.374 . S
C2515 C2512 1.499 . S
C2515 C2516 1.373 . S
C2515 C2517 1.389 . S
C2516 H2489 0.950 . S
C2516 C2502 1.377 . S
C2516 C2515 1.373 . S
C2517 C2501 1.377 . S
C2517 C2515 1.389 . S
C2517 C2518 1.524 . S
C2518 C2517 1.524 . S
C2518 C2519 1.397 . S
C2518 C2523 1.371 . S
C2519 H2490 0.950 . S
C2519 C2518 1.397 . S
C2519 C2520 1.334 1_556 S
C2520 H2491 0.950 . S
C2520 C2519 1.334 1_554 S
C2520 C2521 1.287 . S
C2521 C2520 1.287 . S
C2521 C2522 1.524 . S
C2521 H2524 0.999 . S
C2522 H2492 0.950 . S
C2522 C2521 1.524 . S
C2522 C2523 1.396 1_554 S
C2523 H2493 0.961 . S
C2523 C2518 1.371 . S
C2523 C2522 1.396 1_556 S
H2524 C2521 0.999 . S
H2525 C2506 0.913 . S
H2526 C2544 0.951 . S
H2527 C2546 0.951 . S
H2528 C2548 0.950 . S
H2529 C2549 0.950 . S
H2530 C2551 0.950 . S
H2531 C2554 0.950 . S
H2532 C2555 0.950 . S
H2533 C2557 0.950 . S
H2534 C2558 0.950 . S
H2535 C2559 0.951 . S
H2536 C2561 0.951 . S
H2537 C2563 0.950 . S
H2538 C2564 0.950 . S
H2539 C2566 0.950 . S
H2540 C2569 0.950 . S
H2541 C2570 0.950 . S
H2542 C2572 0.950 . S
H2543 C2573 0.950 . S
C2544 H2526 0.951 . S
C2544 C2545 1.366 . S
C2544 C2546 1.388 . S
C2545 C2544 1.366 . S
C2545 C2549 1.385 . S
C2546 H2527 0.951 . S
C2546 C2544 1.388 . S
C2546 C2547 1.366 . S
C2547 C2546 1.366 . S
C2547 C2548 1.414 . S
C2547 C2550 1.499 . S
C2548 H2528 0.950 . S
C2548 C2547 1.414 . S
C2548 C2549 1.374 . S
C2549 H2529 0.950 . S
C2549 C2545 1.385 . S
C2549 C2548 1.374 . S
C2550 C2547 1.499 . S
C2550 C2551 1.373 . S
C2550 C2552 1.389 . S
C2551 H2530 0.950 . S
C2551 C2550 1.373 . S
C2551 C2567 1.377 . S
C2552 C2550 1.389 . S
C2552 C2553 1.524 . S
C2552 C2566 1.377 . S
C2553 C2552 1.524 . S
C2553 C2554 1.397 . S
C2553 C2558 1.363 . S
C2554 H2531 0.950 . S
C2554 C2553 1.397 . S
C2554 C2555 1.334 . S
C2555 H2532 0.950 . S
C2555 C2554 1.334 . S
C2555 C2556 1.287 . S
C2556 C2555 1.287 . S
C2556 C2557 1.524 . S
C2556 H2575 0.913 . S
C2557 H2533 0.950 . S
C2557 C2556 1.524 . S
C2557 C2558 1.415 . S
C2558 H2534 0.950 . S
C2558 C2553 1.363 . S
C2558 C2557 1.415 . S
C2559 H2535 0.951 . S
C2559 C2560 1.366 . S
C2559 C2561 1.388 . S
C2560 C2559 1.366 . S
C2560 C2564 1.385 . S
C2561 H2536 0.951 . S
C2561 C2559 1.388 . S
C2561 C2562 1.366 . S
C2562 C2561 1.366 . S
C2562 C2563 1.414 . S
C2562 C2565 1.499 . S
C2563 H2537 0.950 . S
C2563 C2562 1.414 . S
C2563 C2564 1.374 . S
C2564 H2538 0.950 . S
C2564 C2560 1.385 . S
C2564 C2563 1.374 . S
C2565 C2562 1.499 . S
C2565 C2566 1.373 . S
C2565 C2567 1.389 . S
C2566 H2539 0.950 . S
C2566 C2552 1.377 . S
C2566 C2565 1.373 . S
C2567 C2551 1.377 . S
C2567 C2565 1.389 . S
C2567 C2568 1.524 . S
C2568 C2567 1.524 . S
C2568 C2569 1.397 . S
C2568 C2573 1.363 . S
C2569 H2540 0.950 . S
C2569 C2568 1.397 . S
C2569 C2570 1.334 . S
C2570 H2541 0.950 . S
C2570 C2569 1.334 . S
C2570 C2571 1.287 . S
C2571 C2570 1.287 . S
C2571 C2572 1.524 . S
C2571 H2574 0.999 . S
C2572 H2542 0.950 . S
C2572 C2571 1.524 . S
C2572 C2573 1.415 . S
C2573 H2543 0.950 . S
C2573 C2568 1.363 . S
C2573 C2572 1.415 . S
H2574 C2571 0.999 . S
H2575 C2556 0.913 . S
H2576 C2594 0.951 . S
H2577 C2596 0.951 . S
H2578 C2598 0.951 . S
H2579 C2599 0.950 1_565 S
H2580 C2601 0.950 . S
H2581 C2604 0.950 . S
H2582 C2605 0.950 . S
H2583 C2607 0.950 . S
H2584 C2608 0.950 . S
H2585 C2609 0.951 . S
H2586 C2611 0.951 . S
H2587 C2613 0.950 . S
H2588 C2614 0.950 . S
H2589 C2616 0.950 . S
H2590 C2619 0.950 . S
H2591 C2620 0.950 . S
H2592 C2622 0.950 . S
H2593 C2623 0.950 . S
C2594 H2576 0.951 . S
C2594 C2595 1.366 . S
C2594 C2596 1.388 . S
C2595 C2594 1.366 . S
C2595 C2599 1.385 . S
C2596 H2577 0.951 . S
C2596 C2594 1.388 . S
C2596 C2597 1.366 . S
C2597 C2596 1.366 . S
C2597 C2598 1.414 . S
C2597 C2600 1.499 . S
C2598 H2578 0.951 . S
C2598 C2597 1.414 . S
C2598 C2599 1.374 . S
C2599 H2579 0.950 1_545 S
C2599 C2595 1.385 . S
C2599 C2598 1.374 . S
C2600 C2597 1.499 . S
C2600 C2601 1.373 . S
C2600 C2602 1.389 . S
C2601 H2580 0.950 . S
C2601 C2600 1.373 . S
C2601 C2617 1.377 . S
C2602 C2600 1.389 . S
C2602 C2603 1.483 1_545 S
C2602 C2616 1.377 . S
C2603 C2602 1.483 1_565 S
C2603 C2604 1.441 . S
C2603 C2608 1.365 1_565 S
C2604 H2581 0.950 . S
C2604 C2603 1.441 . S
C2604 C2605 1.334 . S
C2605 H2582 0.950 . S
C2605 C2604 1.334 . S
C2605 C2606 1.287 . S
C2606 C2605 1.287 . S
C2606 C2607 1.524 . S
C2606 H2625 0.913 . S
C2607 H2583 0.950 . S
C2607 C2606 1.524 . S
C2607 C2608 1.415 1_565 S
C2608 H2584 0.950 . S
C2608 C2603 1.365 1_545 S
C2608 C2607 1.415 1_545 S
C2609 H2585 0.951 . S
C2609 C2610 1.366 . S
C2609 C2611 1.388 . S
C2610 C2609 1.366 . S
C2610 C2614 1.385 . S
C2611 H2586 0.951 . S
C2611 C2609 1.388 . S
C2611 C2612 1.366 . S
C2612 C2611 1.366 . S
C2612 C2613 1.414 . S
C2612 C2615 1.499 . S
C2613 H2587 0.950 . S
C2613 C2612 1.414 . S
C2613 C2614 1.374 . S
C2614 H2588 0.950 . S
C2614 C2610 1.385 . S
C2614 C2613 1.374 . S
C2615 C2612 1.499 . S
C2615 C2616 1.373 . S
C2615 C2617 1.389 . S
C2616 H2589 0.950 . S
C2616 C2602 1.377 . S
C2616 C2615 1.373 . S
C2617 C2601 1.377 . S
C2617 C2615 1.389 . S
C2617 C2618 1.524 . S
C2618 C2617 1.524 . S
C2618 C2619 1.397 . S
C2618 C2623 1.363 . S
C2619 H2590 0.950 . S
C2619 C2618 1.397 . S
C2619 C2620 1.334 . S
C2620 H2591 0.950 . S
C2620 C2619 1.334 . S
C2620 C2621 1.287 . S
C2621 C2620 1.287 . S
C2621 C2622 1.524 . S
C2621 H2624 0.999 . S
C2622 H2592 0.950 . S
C2622 C2621 1.524 . S
C2622 C2623 1.415 . S
C2623 H2593 0.950 . S
C2623 C2618 1.363 . S
C2623 C2622 1.415 . S
H2624 C2621 0.999 . S
H2625 C2606 0.913 . S
H2626 C2644 0.951 . S
H2627 C2646 0.951 . S
H2628 C2648 0.950 . S
H2629 C2649 0.950 . S
H2630 C2651 0.950 . S
H2631 C2654 0.950 . S
H2632 C2655 0.950 . S
H2633 C2657 0.950 . S
H2634 C2658 0.950 . S
H2635 C2659 0.951 . S
H2636 C2661 0.951 . S
H2637 C2663 0.950 . S
H2638 C2664 0.950 . S
H2639 C2666 0.950 . S
H2640 C2669 0.950 . S
H2641 C2670 0.950 . S
H2642 C2672 0.950 . S
H2643 C2673 0.950 . S
C2644 H2626 0.951 . S
C2644 C2645 1.366 . S
C2644 C2646 1.388 . S
C2645 C2644 1.366 . S
C2645 C2649 1.385 . S
C2646 H2627 0.951 . S
C2646 C2644 1.388 . S
C2646 C2647 1.366 . S
C2647 C2646 1.366 . S
C2647 C2648 1.414 . S
C2647 C2650 1.499 . S
C2648 H2628 0.950 . S
C2648 C2647 1.414 . S
C2648 C2649 1.374 . S
C2649 H2629 0.950 . S
C2649 C2645 1.385 . S
C2649 C2648 1.374 . S
C2650 C2647 1.499 . S
C2650 C2651 1.373 . S
C2650 C2652 1.389 . S
C2651 H2630 0.950 . S
C2651 C2650 1.373 . S
C2651 C2667 1.377 . S
C2652 C2650 1.389 . S
C2652 C2653 1.524 . S
C2652 C2666 1.377 . S
C2653 C2652 1.524 . S
C2653 C2654 1.397 . S
C2653 C2658 1.363 . S
C2654 H2631 0.950 . S
C2654 C2653 1.397 . S
C2654 C2655 1.334 . S
C2655 H2632 0.950 . S
C2655 C2654 1.334 . S
C2655 C2656 1.287 . S
C2656 C2655 1.287 . S
C2656 C2657 1.524 . S
C2656 H2675 0.913 . S
C2657 H2633 0.950 . S
C2657 C2656 1.524 . S
C2657 C2658 1.415 . S
C2658 H2634 0.950 . S
C2658 C2653 1.363 . S
C2658 C2657 1.415 . S
C2659 H2635 0.951 . S
C2659 C2660 1.366 . S
C2659 C2661 1.388 . S
C2660 C2659 1.366 . S
C2660 C2664 1.385 . S
C2661 H2636 0.951 . S
C2661 C2659 1.388 . S
C2661 C2662 1.366 . S
C2662 C2661 1.366 . S
C2662 C2663 1.414 . S
C2662 C2665 1.499 . S
C2663 H2637 0.950 . S
C2663 C2662 1.414 . S
C2663 C2664 1.374 . S
C2664 H2638 0.950 . S
C2664 C2660 1.385 . S
C2664 C2663 1.374 . S
C2665 C2662 1.499 . S
C2665 C2666 1.373 . S
C2665 C2667 1.389 . S
C2666 H2639 0.950 . S
C2666 C2652 1.377 . S
C2666 C2665 1.373 . S
C2667 C2651 1.377 . S
C2667 C2665 1.389 . S
C2667 C2668 1.524 . S
C2668 C2667 1.524 . S
C2668 C2669 1.397 . S
C2668 C2673 1.363 . S
C2669 H2640 0.950 . S
C2669 C2668 1.397 . S
C2669 C2670 1.334 . S
C2670 H2641 0.950 . S
C2670 C2669 1.334 . S
C2670 C2671 1.287 . S
C2671 C2670 1.287 . S
C2671 C2672 1.524 . S
C2671 H2674 0.999 . S
C2672 H2642 0.950 . S
C2672 C2671 1.524 . S
C2672 C2673 1.415 . S
C2673 H2643 0.950 . S
C2673 C2668 1.363 . S
C2673 C2672 1.415 . S
H2674 C2671 0.999 . S
H2675 C2656 0.913 . S
H2676 C2694 0.951 . S
H2677 C2696 0.951 . S
H2678 C2698 0.950 . S
H2679 C2699 0.950 . S
H2680 C2701 0.950 . S
H2681 C2704 0.950 . S
H2682 C2705 0.950 . S
H2683 C2707 0.950 . S
H2684 C2708 0.950 . S
H2685 C2709 0.951 . S
H2686 C2711 0.951 . S
H2687 C2713 0.950 . S
H2688 C2714 0.950 . S
H2689 C2716 0.950 . S
H2690 C2719 0.950 . S
H2691 C2720 0.950 . S
H2692 C2722 0.950 . S
H2693 C2723 0.950 . S
C2694 H2676 0.951 . S
C2694 C2695 1.366 . S
C2694 C2696 1.388 . S
C2695 C2694 1.366 . S
C2695 C2699 1.385 . S
C2696 H2677 0.951 . S
C2696 C2694 1.388 . S
C2696 C2697 1.366 . S
C2697 C2696 1.366 . S
C2697 C2698 1.414 . S
C2697 C2700 1.499 . S
C2698 H2678 0.950 . S
C2698 C2697 1.414 . S
C2698 C2699 1.374 . S
C2699 H2679 0.950 . S
C2699 C2695 1.385 . S
C2699 C2698 1.374 . S
C2700 C2697 1.499 . S
C2700 C2701 1.373 . S
C2700 C2702 1.389 . S
C2701 H2680 0.950 . S
C2701 C2700 1.373 . S
C2701 C2717 1.377 . S
C2702 C2700 1.389 . S
C2702 C2703 1.524 1_545 S
C2702 C2716 1.377 . S
C2703 C2702 1.524 1_565 S
C2703 C2704 1.397 . S
C2703 C2708 1.363 . S
C2704 H2681 0.950 . S
C2704 C2703 1.397 . S
C2704 C2705 1.334 . S
C2705 H2682 0.950 . S
C2705 C2704 1.334 . S
C2705 C2706 1.287 . S
C2706 C2705 1.287 . S
C2706 C2707 1.524 . S
C2706 H2725 0.913 . S
C2707 H2683 0.950 . S
C2707 C2706 1.524 . S
C2707 C2708 1.415 . S
C2708 H2684 0.950 . S
C2708 C2703 1.363 . S
C2708 C2707 1.415 . S
C2709 H2685 0.951 . S
C2709 C2710 1.366 . S
C2709 C2711 1.388 . S
C2710 C2709 1.366 . S
C2710 C2714 1.385 . S
C2711 H2686 0.951 . S
C2711 C2709 1.388 . S
C2711 C2712 1.366 . S
C2712 C2711 1.366 . S
C2712 C2713 1.414 . S
C2712 C2715 1.499 . S
C2713 H2687 0.950 . S
C2713 C2712 1.414 . S
C2713 C2714 1.374 . S
C2714 H2688 0.950 . S
C2714 C2710 1.385 . S
C2714 C2713 1.374 . S
C2715 C2712 1.499 . S
C2715 C2716 1.373 . S
C2715 C2717 1.389 . S
C2716 H2689 0.950 . S
C2716 C2702 1.377 . S
C2716 C2715 1.373 . S
C2717 C2701 1.377 . S
C2717 C2715 1.389 . S
C2717 C2718 1.524 . S
C2718 C2717 1.524 . S
C2718 C2719 1.397 . S
C2718 C2723 1.363 . S
C2719 H2690 0.950 . S
C2719 C2718 1.397 . S
C2719 C2720 1.334 . S
C2720 H2691 0.950 . S
C2720 C2719 1.334 . S
C2720 C2721 1.287 . S
C2721 C2720 1.287 . S
C2721 C2722 1.524 . S
C2721 H2724 0.999 . S
C2722 H2692 0.950 . S
C2722 C2721 1.524 . S
C2722 C2723 1.415 . S
C2723 H2693 0.950 . S
C2723 C2718 1.363 . S
C2723 C2722 1.415 . S
H2724 C2721 0.999 . S
H2725 C2706 0.913 . S
H2726 C2744 0.951 . S
H2727 C2746 0.951 . S
H2728 C2748 0.950 . S
H2729 C2749 0.950 . S
H2730 C2751 0.950 . S
H2731 C2754 0.950 . S
H2732 C2755 0.950 . S
H2733 C2757 0.950 . S
H2734 C2758 0.950 . S
H2735 C2759 0.951 . S
H2736 C2761 0.951 . S
H2737 C2763 0.950 . S
H2738 C2764 0.950 . S
H2739 C2766 0.950 . S
H2740 C2769 0.950 . S
H2741 C2770 0.950 . S
H2742 C2772 0.950 . S
H2743 C2773 0.950 . S
C2744 H2726 0.951 . S
C2744 C2745 1.366 . S
C2744 C2746 1.388 . S
C2745 C2744 1.366 . S
C2745 C2749 1.385 . S
C2746 H2727 0.951 . S
C2746 C2744 1.388 . S
C2746 C2747 1.366 . S
C2747 C2746 1.366 . S
C2747 C2748 1.414 . S
C2747 C2750 1.499 . S
C2748 H2728 0.950 . S
C2748 C2747 1.414 . S
C2748 C2749 1.374 . S
C2749 H2729 0.950 . S
C2749 C2745 1.385 . S
C2749 C2748 1.374 . S
C2750 C2747 1.499 . S
C2750 C2751 1.373 . S
C2750 C2752 1.389 . S
C2751 H2730 0.950 . S
C2751 C2750 1.373 . S
C2751 C2767 1.377 . S
C2752 C2750 1.389 . S
C2752 C2753 1.524 . S
C2752 C2766 1.377 . S
C2753 C2752 1.524 . S
C2753 C2754 1.397 . S
C2753 C2758 1.363 . S
C2754 H2731 0.950 . S
C2754 C2753 1.397 . S
C2754 C2755 1.334 . S
C2755 H2732 0.950 . S
C2755 C2754 1.334 . S
C2755 C2756 1.287 . S
C2756 C2755 1.287 . S
C2756 C2757 1.524 . S
C2756 H2775 0.913 . S
C2757 H2733 0.950 . S
C2757 C2756 1.524 . S
C2757 C2758 1.415 . S
C2758 H2734 0.950 . S
C2758 C2753 1.363 . S
C2758 C2757 1.415 . S
C2759 H2735 0.951 . S
C2759 C2760 1.366 . S
C2759 C2761 1.388 . S
C2760 C2759 1.366 . S
C2760 C2764 1.385 . S
C2761 H2736 0.951 . S
C2761 C2759 1.388 . S
C2761 C2762 1.366 . S
C2762 C2761 1.366 . S
C2762 C2763 1.414 . S
C2762 C2765 1.499 . S
C2763 H2737 0.950 . S
C2763 C2762 1.414 . S
C2763 C2764 1.374 . S
C2764 H2738 0.950 . S
C2764 C2760 1.385 . S
C2764 C2763 1.374 . S
C2765 C2762 1.499 . S
C2765 C2766 1.373 . S
C2765 C2767 1.389 . S
C2766 H2739 0.950 . S
C2766 C2752 1.377 . S
C2766 C2765 1.373 . S
C2767 C2751 1.377 . S
C2767 C2765 1.389 . S
C2767 C2768 1.524 . S
C2768 C2767 1.524 . S
C2768 C2769 1.397 . S
C2768 C2773 1.363 . S
C2769 H2740 0.950 . S
C2769 C2768 1.397 . S
C2769 C2770 1.334 . S
C2770 H2741 0.950 . S
C2770 C2769 1.334 . S
C2770 C2771 1.287 . S
C2771 C2770 1.287 . S
C2771 C2772 1.524 . S
C2771 H2774 0.999 . S
C2772 H2742 0.950 . S
C2772 C2771 1.524 . S
C2772 C2773 1.415 . S
C2773 H2743 0.950 . S
C2773 C2768 1.363 . S
C2773 C2772 1.415 . S
H2774 C2771 0.999 . S
H2775 C2756 0.913 . S
H2776 C2794 0.951 . S
H2777 C2796 0.951 . S
H2778 C2798 0.950 . S
H2779 C2799 0.950 . S
H2780 C2801 0.950 . S
H2781 C2804 0.950 . S
H2782 C2805 0.950 . S
H2783 C2807 0.950 . S
H2784 C2808 0.950 . S
H2785 C2809 0.951 . S
H2786 C2811 0.951 . S
H2787 C2813 0.950 . S
H2788 C2814 0.950 . S
H2789 C2816 0.950 . S
H2790 C2819 0.950 . S
H2791 C2820 0.950 . S
H2792 C2822 0.950 . S
H2793 C2823 0.950 . S
C2794 H2776 0.951 . S
C2794 C2795 1.399 . S
C2794 C2796 1.388 . S
C2795 C2794 1.399 . S
C2795 C2799 1.375 1_545 S
C2796 H2777 0.951 . S
C2796 C2794 1.388 . S
C2796 C2797 1.366 . S
C2797 C2796 1.366 . S
C2797 C2798 1.414 1_545 S
C2797 C2800 1.499 . S
C2798 H2778 0.950 . S
C2798 C2797 1.414 1_565 S
C2798 C2799 1.374 . S
C2799 H2779 0.950 . S
C2799 C2795 1.375 1_565 S
C2799 C2798 1.374 . S
C2800 C2797 1.499 . S
C2800 C2801 1.373 1_545 S
C2800 C2802 1.389 . S
C2801 H2780 0.950 . S
C2801 C2800 1.373 1_565 S
C2801 C2817 1.378 . S
C2802 C2800 1.389 . S
C2802 C2803 1.524 . S
C2802 C2816 1.377 . S
C2803 C2802 1.524 . S
C2803 C2804 1.397 . S
C2803 C2808 1.363 . S
C2804 H2781 0.950 . S
C2804 C2803 1.397 . S
C2804 C2805 1.334 . S
C2805 H2782 0.950 . S
C2805 C2804 1.334 . S
C2805 C2806 1.287 . S
C2806 C2805 1.287 . S
C2806 C2807 1.524 . S
C2806 H2825 0.913 . S
C2807 H2783 0.950 . S
C2807 C2806 1.524 . S
C2807 C2808 1.415 . S
C2808 H2784 0.950 . S
C2808 C2803 1.363 . S
C2808 C2807 1.415 . S
C2809 H2785 0.951 . S
C2809 C2810 1.366 . S
C2809 C2811 1.388 . S
C2810 C2809 1.366 . S
C2810 C2814 1.385 . S
C2811 H2786 0.951 . S
C2811 C2809 1.388 . S
C2811 C2812 1.366 . S
C2812 C2811 1.366 . S
C2812 C2813 1.414 . S
C2812 C2815 1.499 . S
C2813 H2787 0.950 . S
C2813 C2812 1.414 . S
C2813 C2814 1.374 . S
C2814 H2788 0.950 . S
C2814 C2810 1.385 . S
C2814 C2813 1.374 . S
C2815 C2812 1.499 . S
C2815 C2816 1.373 . S
C2815 C2817 1.385 1_545 S
C2816 H2789 0.950 . S
C2816 C2802 1.377 . S
C2816 C2815 1.373 . S
C2817 C2801 1.378 . S
C2817 C2815 1.385 1_565 S
C2817 C2818 1.527 . S
C2818 C2817 1.527 . S
C2818 C2819 1.397 . S
C2818 C2823 1.363 . S
C2819 H2790 0.950 . S
C2819 C2818 1.397 . S
C2819 C2820 1.334 . S
C2820 H2791 0.950 . S
C2820 C2819 1.334 . S
C2820 C2821 1.287 . S
C2821 C2820 1.287 . S
C2821 C2822 1.524 . S
C2821 H2824 0.999 . S
C2822 H2792 0.950 . S
C2822 C2821 1.524 . S
C2822 C2823 1.415 . S
C2823 H2793 0.950 . S
C2823 C2818 1.363 . S
C2823 C2822 1.415 . S
H2824 C2821 0.999 . S
H2825 C2806 0.913 . S
H2826 C2844 0.951 . S
H2827 C2846 0.951 . S
H2828 C2848 0.950 . S
H2829 C2849 0.950 . S
H2830 C2851 0.950 . S
H2831 C2854 0.950 . S
H2832 C2855 0.950 . S
H2833 C2857 0.950 . S
H2834 C2858 0.950 . S
H2835 C2859 0.951 . S
H2836 C2861 0.951 . S
H2837 C2863 0.950 . S
H2838 C2864 0.950 . S
H2839 C2866 0.950 . S
H2840 C2869 0.950 . S
H2841 C2870 0.950 . S
H2842 C2872 0.950 . S
H2843 C2873 0.950 . S
C2844 H2826 0.951 . S
C2844 C2845 1.366 . S
C2844 C2846 1.388 . S
C2845 C2844 1.366 . S
C2845 C2849 1.385 . S
C2846 H2827 0.951 . S
C2846 C2844 1.388 . S
C2846 C2847 1.366 . S
C2847 C2846 1.366 . S
C2847 C2848 1.414 . S
C2847 C2850 1.499 . S
C2848 H2828 0.950 . S
C2848 C2847 1.414 . S
C2848 C2849 1.374 . S
C2849 H2829 0.950 . S
C2849 C2845 1.385 . S
C2849 C2848 1.374 . S
C2850 C2847 1.499 . S
C2850 C2851 1.373 . S
C2850 C2852 1.389 . S
C2851 H2830 0.950 . S
C2851 C2850 1.373 . S
C2851 C2867 1.377 . S
C2852 C2850 1.389 . S
C2852 C2853 1.524 . S
C2852 C2866 1.377 . S
C2853 C2852 1.524 . S
C2853 C2854 1.397 . S
C2853 C2858 1.363 . S
C2854 H2831 0.950 . S
C2854 C2853 1.397 . S
C2854 C2855 1.334 . S
C2855 H2832 0.950 . S
C2855 C2854 1.334 . S
C2855 C2856 1.287 . S
C2856 C2855 1.287 . S
C2856 C2857 1.524 . S
C2856 H2875 0.913 . S
C2857 H2833 0.950 . S
C2857 C2856 1.524 . S
C2857 C2858 1.415 . S
C2858 H2834 0.950 . S
C2858 C2853 1.363 . S
C2858 C2857 1.415 . S
C2859 H2835 0.951 . S
C2859 C2860 1.366 . S
C2859 C2861 1.388 . S
C2860 C2859 1.366 . S
C2860 C2864 1.385 . S
C2861 H2836 0.951 . S
C2861 C2859 1.388 . S
C2861 C2862 1.366 . S
C2862 C2861 1.366 . S
C2862 C2863 1.414 . S
C2862 C2865 1.499 . S
C2863 H2837 0.950 . S
C2863 C2862 1.414 . S
C2863 C2864 1.374 . S
C2864 H2838 0.950 . S
C2864 C2860 1.385 . S
C2864 C2863 1.374 . S
C2865 C2862 1.499 . S
C2865 C2866 1.373 . S
C2865 C2867 1.389 . S
C2866 H2839 0.950 . S
C2866 C2852 1.377 . S
C2866 C2865 1.373 . S
C2867 C2851 1.377 . S
C2867 C2865 1.389 . S
C2867 C2868 1.524 . S
C2868 C2867 1.524 . S
C2868 C2869 1.397 . S
C2868 C2873 1.363 . S
C2869 H2840 0.950 . S
C2869 C2868 1.397 . S
C2869 C2870 1.334 . S
C2870 H2841 0.950 . S
C2870 C2869 1.334 . S
C2870 C2871 1.287 . S
C2871 C2870 1.287 . S
C2871 C2872 1.524 . S
C2871 H2874 0.999 . S
C2872 H2842 0.950 . S
C2872 C2871 1.524 . S
C2872 C2873 1.415 . S
C2873 H2843 0.950 . S
C2873 C2868 1.363 . S
C2873 C2872 1.415 . S
H2874 C2871 0.999 . S
H2875 C2856 0.913 . S
H2876 C2894 0.951 . S
H2877 C2896 0.951 . S
H2878 C2898 0.950 . S
H2879 C2899 0.950 . S
H2880 C2901 0.950 . S
H2881 C2904 0.950 . S
H2882 C2905 0.950 . S
H2883 C2907 0.950 . S
H2884 C2908 0.950 . S
H2885 C2909 0.951 . S
H2886 C2911 0.951 . S
H2887 C2913 0.947 . S
H2888 C2914 0.975 . S
H2889 C2916 0.950 . S
H2890 C2919 0.950 . S
H2891 C2920 0.950 . S
H2892 C2922 0.950 . S
H2893 C2923 0.950 . S
C2894 H2876 0.951 . S
C2894 C2895 1.366 . S
C2894 C2896 1.388 . S
C2895 C2894 1.366 . S
C2895 C2899 1.385 . S
C2896 H2877 0.951 . S
C2896 C2894 1.388 . S
C2896 C2897 1.366 . S
C2897 C2896 1.366 . S
C2897 C2898 1.414 . S
C2897 C2900 1.499 . S
C2898 H2878 0.950 . S
C2898 C2897 1.414 . S
C2898 C2899 1.374 . S
C2899 H2879 0.950 . S
C2899 C2895 1.385 . S
C2899 C2898 1.374 . S
C2900 C2897 1.499 . S
C2900 C2901 1.373 1_545 S
C2900 C2902 1.389 . S
C2901 H2880 0.950 . S
C2901 C2900 1.373 1_565 S
C2901 C2917 1.377 . S
C2902 C2900 1.389 . S
C2902 C2903 1.524 . S
C2902 C2916 1.377 . S
C2903 C2902 1.524 . S
C2903 C2904 1.397 . S
C2903 C2908 1.363 . S
C2904 H2881 0.950 . S
C2904 C2903 1.397 . S
C2904 C2905 1.334 . S
C2905 H2882 0.950 . S
C2905 C2904 1.334 . S
C2905 C2906 1.287 . S
C2906 C2905 1.287 . S
C2906 C2907 1.524 . S
C2906 H2925 0.913 . S
C2907 H2883 0.950 . S
C2907 C2906 1.524 . S
C2907 C2908 1.415 . S
C2908 H2884 0.950 . S
C2908 C2903 1.363 . S
C2908 C2907 1.415 . S
C2909 H2885 0.951 . S
C2909 C2910 1.363 1_545 S
C2909 C2911 1.388 . S
C2910 C2909 1.363 1_565 S
C2910 C2914 1.368 . S
C2911 H2886 0.951 . S
C2911 C2909 1.388 . S
C2911 C2912 1.366 . S
C2912 C2911 1.366 . S
C2912 C2913 1.436 . S
C2912 C2915 1.499 . S
C2913 H2887 0.947 . S
C2913 C2912 1.436 . S
C2913 C2914 1.371 1_545 S
C2914 H2888 0.975 . S
C2914 C2910 1.368 . S
C2914 C2913 1.371 1_565 S
C2915 C2912 1.499 . S
C2915 C2916 1.373 . S
C2915 C2917 1.389 1_545 S
C2916 H2889 0.950 . S
C2916 C2902 1.377 . S
C2916 C2915 1.373 . S
C2917 C2901 1.377 . S
C2917 C2915 1.389 1_565 S
C2917 C2918 1.524 . S
C2918 C2917 1.524 . S
C2918 C2919 1.397 . S
C2918 C2923 1.363 . S
C2919 H2890 0.950 . S
C2919 C2918 1.397 . S
C2919 C2920 1.334 . S
C2920 H2891 0.950 . S
C2920 C2919 1.334 . S
C2920 C2921 1.287 . S
C2921 C2920 1.287 . S
C2921 C2922 1.524 . S
C2921 H2924 0.999 . S
C2922 H2892 0.950 . S
C2922 C2921 1.524 . S
C2922 C2923 1.415 . S
C2923 H2893 0.950 . S
C2923 C2918 1.363 . S
C2923 C2922 1.415 . S
H2924 C2921 0.999 . S
H2925 C2906 0.913 . S
H2926 C2944 0.951 . S
H2927 C2946 0.951 . S
H2928 C2948 0.950 . S
H2929 C2949 0.950 . S
H2930 C2951 0.950 . S
H2931 C2954 0.950 . S
H2932 C2955 0.950 . S
H2933 C2957 0.950 . S
H2934 C2958 0.950 . S
H2935 C2959 0.951 . S
H2936 C2961 0.951 . S
H2937 C2963 0.950 . S
H2938 C2964 0.950 . S
H2939 C2966 0.950 . S
H2940 C2969 0.950 . S
H2941 C2970 0.950 . S
H2942 C2972 0.950 . S
H2943 C2973 0.950 . S
C2944 H2926 0.951 . S
C2944 C2945 1.366 . S
C2944 C2946 1.388 . S
C2945 C2944 1.366 . S
C2945 C2949 1.385 . S
C2946 H2927 0.951 . S
C2946 C2944 1.388 . S
C2946 C2947 1.366 . S
C2947 C2946 1.366 . S
C2947 C2948 1.414 . S
C2947 C2950 1.499 . S
C2948 H2928 0.950 . S
C2948 C2947 1.414 . S
C2948 C2949 1.374 . S
C2949 H2929 0.950 . S
C2949 C2945 1.385 . S
C2949 C2948 1.374 . S
C2950 C2947 1.499 . S
C2950 C2951 1.373 . S
C2950 C2952 1.389 . S
C2951 H2930 0.950 . S
C2951 C2950 1.373 . S
C2951 C2967 1.377 . S
C2952 C2950 1.389 . S
C2952 C2953 1.524 . S
C2952 C2966 1.377 . S
C2953 C2952 1.524 . S
C2953 C2954 1.397 . S
C2953 C2958 1.363 . S
C2954 H2931 0.950 . S
C2954 C2953 1.397 . S
C2954 C2955 1.334 . S
C2955 H2932 0.950 . S
C2955 C2954 1.334 . S
C2955 C2956 1.287 . S
C2956 C2955 1.287 . S
C2956 C2957 1.524 . S
C2956 H2975 0.913 . S
C2957 H2933 0.950 . S
C2957 C2956 1.524 . S
C2957 C2958 1.415 . S
C2958 H2934 0.950 . S
C2958 C2953 1.363 . S
C2958 C2957 1.415 . S
C2959 H2935 0.951 . S
C2959 C2960 1.366 . S
C2959 C2961 1.388 . S
C2960 C2959 1.366 . S
C2960 C2964 1.385 . S
C2961 H2936 0.951 . S
C2961 C2959 1.388 . S
C2961 C2962 1.366 . S
C2962 C2961 1.366 . S
C2962 C2963 1.414 . S
C2962 C2965 1.499 . S
C2963 H2937 0.950 . S
C2963 C2962 1.414 . S
C2963 C2964 1.374 . S
C2964 H2938 0.950 . S
C2964 C2960 1.385 . S
C2964 C2963 1.374 . S
C2965 C2962 1.499 . S
C2965 C2966 1.373 . S
C2965 C2967 1.389 . S
C2966 H2939 0.950 . S
C2966 C2952 1.377 . S
C2966 C2965 1.373 . S
C2967 C2951 1.377 . S
C2967 C2965 1.389 . S
C2967 C2968 1.524 . S
C2968 C2967 1.524 . S
C2968 C2969 1.397 . S
C2968 C2973 1.363 . S
C2969 H2940 0.950 . S
C2969 C2968 1.397 . S
C2969 C2970 1.334 . S
C2970 H2941 0.950 . S
C2970 C2969 1.334 . S
C2970 C2971 1.287 . S
C2971 C2970 1.287 . S
C2971 C2972 1.524 . S
C2971 H2974 0.999 . S
C2972 H2942 0.950 . S
C2972 C2971 1.524 . S
C2972 C2973 1.415 . S
C2973 H2943 0.950 . S
C2973 C2968 1.363 . S
C2973 C2972 1.415 . S
H2974 C2971 0.999 . S
H2975 C2956 0.913 . S
H2976 C2994 0.951 . S
H2977 C2996 0.951 . S
H2978 C2998 0.944 1_556 S
H2979 C2999 0.950 1_556 S
H2980 C3001 0.950 . S
H2981 C3004 0.950 . S
H2982 C3005 0.950 . S
H2983 C3007 0.950 . S
H2984 C3008 0.950 1_554 S
H2985 C3009 0.951 . S
H2986 C3011 0.951 . S
H2987 C3013 0.950 . S
H2988 C3014 0.950 1_554 S
H2989 C3016 0.950 . S
H2990 C3019 0.950 . S
H2991 C3020 0.950 . S
H2992 C3022 0.950 . S
H2993 C3023 0.950 1_556 S
C2994 H2976 0.951 . S
C2994 C2995 1.366 . S
C2994 C2996 1.388 . S
C2995 C2994 1.366 . S
C2995 C2999 1.385 . S
C2996 H2977 0.951 . S
C2996 C2994 1.388 . S
C2996 C2997 1.366 . S
C2997 C2996 1.366 . S
C2997 C2998 1.417 . S
C2997 C3000 1.499 . S
C2998 H2978 0.944 1_554 S
C2998 C2997 1.417 . S
C2998 C2999 1.377 . S
C2999 H2979 0.950 1_554 S
C2999 C2995 1.385 . S
C2999 C2998 1.377 . S
C3000 C2997 1.499 . S
C3000 C3001 1.373 . S
C3000 C3002 1.389 1_554 S
C3001 H2980 0.950 . S
C3001 C3000 1.373 . S
C3001 C3017 1.377 . S
C3002 C3000 1.389 1_556 S
C3002 C3003 1.524 . S
C3002 C3016 1.377 . S
C3003 C3002 1.524 . S
C3003 C3004 1.397 . S
C3003 C3008 1.363 . S
C3004 H2981 0.950 . S
C3004 C3003 1.397 . S
C3004 C3005 1.334 . S
C3005 H2982 0.950 . S
C3005 C3004 1.334 . S
C3005 C3006 1.287 . S
C3006 C3005 1.287 . S
C3006 C3007 1.524 . S
C3006 H3025 0.913 . S
C3007 H2983 0.950 . S
C3007 C3006 1.524 . S
C3007 C3008 1.415 . S
C3008 H2984 0.950 1_556 S
C3008 C3003 1.363 . S
C3008 C3007 1.415 . S
C3009 H2985 0.951 . S
C3009 C3010 1.366 . S
C3009 C3011 1.388 . S
C3010 C3009 1.366 . S
C3010 C3014 1.385 . S
C3011 H2986 0.951 . S
C3011 C3009 1.388 . S
C3011 C3012 1.366 . S
C3012 C3011 1.366 . S
C3012 C3013 1.414 1_556 S
C3012 C3015 1.511 . S
C3013 H2987 0.950 . S
C3013 C3012 1.414 1_554 S
C3013 C3014 1.374 1_554 S
C3014 H2988 0.950 1_556 S
C3014 C3010 1.385 . S
C3014 C3013 1.374 1_556 S
C3015 C3012 1.511 . S
C3015 C3016 1.392 . S
C3015 C3017 1.365 1_556 S
C3016 H2989 0.950 . S
C3016 C3002 1.377 . S
C3016 C3015 1.392 . S
C3017 C3001 1.377 . S
C3017 C3015 1.365 1_554 S
C3017 C3018 1.524 . S
C3018 C3017 1.524 . S
C3018 C3019 1.397 . S
C3018 C3023 1.363 . S
C3019 H2990 0.950 . S
C3019 C3018 1.397 . S
C3019 C3020 1.334 . S
C3020 H2991 0.950 . S
C3020 C3019 1.334 . S
C3020 C3021 1.287 . S
C3021 C3020 1.287 . S
C3021 C3022 1.524 . S
C3021 H3024 0.999 . S
C3022 H2992 0.950 . S
C3022 C3021 1.524 . S
C3022 C3023 1.415 . S
C3023 H2993 0.950 1_554 S
C3023 C3018 1.363 . S
C3023 C3022 1.415 . S
H3024 C3021 0.999 . S
H3025 C3006 0.913 . S
H3026 C3044 0.951 . S
H3027 C3046 0.951 . S
H3028 C3048 0.950 . S
H3029 C3049 0.950 . S
H3030 C3051 0.950 . S
H3031 C3054 0.950 . S
H3032 C3055 0.950 . S
H3033 C3057 0.950 . S
H3034 C3058 0.950 . S
H3035 C3059 0.964 . S
H3036 C3061 0.951 . S
H3037 C3063 0.950 . S
H3038 C3064 0.950 . S
H3039 C3066 0.950 . S
H3040 C3069 0.950 . S
H3041 C3070 0.950 . S
H3042 C3072 0.950 1_556 S
H3043 C3073 0.915 1_556 S
C3044 H3026 0.951 . S
C3044 C3045 1.366 . S
C3044 C3046 1.388 . S
C3045 C3044 1.366 . S
C3045 C3049 1.385 . S
C3046 H3027 0.951 . S
C3046 C3044 1.388 . S
C3046 C3047 1.366 . S
C3047 C3046 1.366 . S
C3047 C3048 1.414 . S
C3047 C3050 1.499 . S
C3048 H3028 0.950 . S
C3048 C3047 1.414 . S
C3048 C3049 1.374 . S
C3049 H3029 0.950 . S
C3049 C3045 1.385 . S
C3049 C3048 1.374 . S
C3050 C3047 1.499 . S
C3050 C3051 1.373 . S
C3050 C3052 1.389 . S
C3051 H3030 0.950 . S
C3051 C3050 1.373 . S
C3051 C3067 1.377 . S
C3052 C3050 1.389 . S
C3052 C3053 1.524 . S
C3052 C3066 1.377 . S
C3053 C3052 1.524 . S
C3053 C3054 1.397 . S
C3053 C3058 1.363 . S
C3054 H3031 0.950 . S
C3054 C3053 1.397 . S
C3054 C3055 1.334 . S
C3055 H3032 0.950 . S
C3055 C3054 1.334 . S
C3055 C3056 1.287 . S
C3056 C3055 1.287 . S
C3056 C3057 1.524 . S
C3056 H3075 0.913 . S
C3057 H3033 0.950 . S
C3057 C3056 1.524 . S
C3057 C3058 1.415 . S
C3058 H3034 0.950 . S
C3058 C3053 1.363 . S
C3058 C3057 1.415 . S
C3059 H3035 0.964 . S
C3059 C3060 1.366 . S
C3059 C3061 1.388 . S
C3060 C3059 1.366 . S
C3060 C3064 1.385 . S
C3061 H3036 0.951 . S
C3061 C3059 1.388 . S
C3061 C3062 1.366 . S
C3062 C3061 1.366 . S
C3062 C3063 1.414 . S
C3062 C3065 1.499 . S
C3063 H3037 0.950 . S
C3063 C3062 1.414 . S
C3063 C3064 1.374 . S
C3064 H3038 0.950 . S
C3064 C3060 1.385 . S
C3064 C3063 1.374 . S
C3065 C3062 1.499 . S
C3065 C3066 1.373 . S
C3065 C3067 1.389 . S
C3066 H3039 0.950 . S
C3066 C3052 1.377 . S
C3066 C3065 1.373 . S
C3067 C3051 1.377 . S
C3067 C3065 1.389 . S
C3067 C3068 1.524 . S
C3068 C3067 1.524 . S
C3068 C3069 1.397 . S
C3068 C3073 1.363 . S
C3069 H3040 0.950 . S
C3069 C3068 1.397 . S
C3069 C3070 1.334 . S
C3070 H3041 0.950 . S
C3070 C3069 1.334 . S
C3070 C3071 1.287 . S
C3071 C3070 1.287 . S
C3071 C3072 1.524 . S
C3071 H3074 0.999 . S
C3072 H3042 0.950 1_554 S
C3072 C3071 1.524 . S
C3072 C3073 1.415 . S
C3073 H3043 0.915 1_554 S
C3073 C3068 1.363 . S
C3073 C3072 1.415 . S
H3074 C3071 0.999 . S
H3075 C3056 0.913 . S
H3076 C3094 0.951 . S
H3077 C3096 0.951 . S
H3078 C3098 0.950 . S
H3079 C3099 0.950 . S
H3080 C3101 0.950 . S
H3081 C3104 0.950 . S
H3082 C3105 0.950 . S
H3083 C3107 0.950 . S
H3084 C3108 0.950 . S
H3085 C3109 0.951 . S
H3086 C3111 0.951 . S
H3087 C3113 0.950 . S
H3088 C3114 0.950 . S
H3089 C3116 0.950 . S
H3090 C3119 0.950 . S
H3091 C3120 0.950 . S
H3092 C3122 0.950 . S
H3093 C3123 0.950 . S
C3094 H3076 0.951 . S
C3094 C3095 1.366 . S
C3094 C3096 1.388 . S
C3095 C3094 1.366 . S
C3095 C3099 1.385 . S
C3096 H3077 0.951 . S
C3096 C3094 1.388 . S
C3096 C3097 1.366 . S
C3097 C3096 1.366 . S
C3097 C3098 1.414 . S
C3097 C3100 1.499 . S
C3098 H3078 0.950 . S
C3098 C3097 1.414 . S
C3098 C3099 1.374 . S
C3099 H3079 0.950 . S
C3099 C3095 1.385 . S
C3099 C3098 1.374 . S
C3100 C3097 1.499 . S
C3100 C3101 1.373 . S
C3100 C3102 1.389 . S
C3101 H3080 0.950 . S
C3101 C3100 1.373 . S
C3101 C3117 1.377 . S
C3102 C3100 1.389 . S
C3102 C3103 1.524 . S
C3102 C3116 1.377 . S
C3103 C3102 1.524 . S
C3103 C3104 1.397 . S
C3103 C3108 1.363 . S
C3104 H3081 0.950 . S
C3104 C3103 1.397 . S
C3104 C3105 1.334 . S
C3105 H3082 0.950 . S
C3105 C3104 1.334 . S
C3105 C3106 1.287 . S
C3106 C3105 1.287 . S
C3106 C3107 1.524 . S
C3106 H3125 0.913 . S
C3107 H3083 0.950 . S
C3107 C3106 1.524 . S
C3107 C3108 1.415 . S
C3108 H3084 0.950 . S
C3108 C3103 1.363 . S
C3108 C3107 1.415 . S
C3109 H3085 0.951 . S
C3109 C3110 1.366 . S
C3109 C3111 1.388 . S
C3110 C3109 1.366 . S
C3110 C3114 1.385 . S
C3111 H3086 0.951 . S
C3111 C3109 1.388 . S
C3111 C3112 1.366 . S
C3112 C3111 1.366 . S
C3112 C3113 1.414 . S
C3112 C3115 1.499 . S
C3113 H3087 0.950 . S
C3113 C3112 1.414 . S
C3113 C3114 1.374 . S
C3114 H3088 0.950 . S
C3114 C3110 1.385 . S
C3114 C3113 1.374 . S
C3115 C3112 1.499 . S
C3115 C3116 1.373 . S
C3115 C3117 1.389 . S
C3116 H3089 0.950 . S
C3116 C3102 1.377 . S
C3116 C3115 1.373 . S
C3117 C3101 1.377 . S
C3117 C3115 1.389 . S
C3117 C3118 1.524 . S
C3118 C3117 1.524 . S
C3118 C3119 1.397 . S
C3118 C3123 1.363 . S
C3119 H3090 0.950 . S
C3119 C3118 1.397 . S
C3119 C3120 1.334 . S
C3120 H3091 0.950 . S
C3120 C3119 1.334 . S
C3120 C3121 1.287 . S
C3121 C3120 1.287 . S
C3121 C3122 1.524 . S
C3121 H3124 0.999 . S
C3122 H3092 0.950 . S
C3122 C3121 1.524 . S
C3122 C3123 1.415 . S
C3123 H3093 0.950 . S
C3123 C3118 1.363 . S
C3123 C3122 1.415 . S
H3124 C3121 0.999 . S
H3125 C3106 0.913 . S
H3126 C3144 0.951 . S
H3127 C3146 0.951 . S
H3128 C3148 0.950 . S
H3129 C3149 0.950 . S
H3130 C3151 0.950 . S
H3131 C3154 0.950 . S
H3132 C3155 0.950 . S
H3133 C3157 0.950 . S
H3134 C3158 0.950 . S
H3135 C3159 0.951 . S
H3136 C3161 0.951 . S
H3137 C3163 0.950 . S
H3138 C3164 0.950 . S
H3139 C3166 0.950 . S
H3140 C3169 0.950 . S
H3141 C3170 0.950 . S
H3142 C3172 0.950 . S
H3143 C3173 0.950 . S
C3144 H3126 0.951 . S
C3144 C3145 1.366 . S
C3144 C3146 1.388 . S
C3145 C3144 1.366 . S
C3145 C3149 1.385 . S
C3146 H3127 0.951 . S
C3146 C3144 1.388 . S
C3146 C3147 1.366 . S
C3147 C3146 1.366 . S
C3147 C3148 1.414 . S
C3147 C3150 1.499 . S
C3148 H3128 0.950 . S
C3148 C3147 1.414 . S
C3148 C3149 1.374 . S
C3149 H3129 0.950 . S
C3149 C3145 1.385 . S
C3149 C3148 1.374 . S
C3150 C3147 1.499 . S
C3150 C3151 1.373 . S
C3150 C3152 1.389 . S
C3151 H3130 0.950 . S
C3151 C3150 1.373 . S
C3151 C3167 1.377 . S
C3152 C3150 1.389 . S
C3152 C3153 1.524 . S
C3152 C3166 1.377 . S
C3153 C3152 1.524 . S
C3153 C3154 1.397 . S
C3153 C3158 1.363 . S
C3154 H3131 0.950 . S
C3154 C3153 1.397 . S
C3154 C3155 1.334 . S
C3155 H3132 0.950 . S
C3155 C3154 1.334 . S
C3155 C3156 1.287 . S
C3156 C3155 1.287 . S
C3156 C3157 1.524 . S
C3156 H3175 0.913 . S
C3157 H3133 0.950 . S
C3157 C3156 1.524 . S
C3157 C3158 1.415 . S
C3158 H3134 0.950 . S
C3158 C3153 1.363 . S
C3158 C3157 1.415 . S
C3159 H3135 0.951 . S
C3159 C3160 1.366 . S
C3159 C3161 1.388 . S
C3160 C3159 1.366 . S
C3160 C3164 1.385 . S
C3161 H3136 0.951 . S
C3161 C3159 1.388 . S
C3161 C3162 1.366 . S
C3162 C3161 1.366 . S
C3162 C3163 1.414 . S
C3162 C3165 1.499 . S
C3163 H3137 0.950 . S
C3163 C3162 1.414 . S
C3163 C3164 1.374 . S
C3164 H3138 0.950 . S
C3164 C3160 1.385 . S
C3164 C3163 1.374 . S
C3165 C3162 1.499 . S
C3165 C3166 1.373 . S
C3165 C3167 1.389 . S
C3166 H3139 0.950 . S
C3166 C3152 1.377 . S
C3166 C3165 1.373 . S
C3167 C3151 1.377 . S
C3167 C3165 1.389 . S
C3167 C3168 1.524 . S
C3168 C3167 1.524 . S
C3168 C3169 1.397 . S
C3168 C3173 1.363 . S
C3169 H3140 0.950 . S
C3169 C3168 1.397 . S
C3169 C3170 1.334 . S
C3170 H3141 0.950 . S
C3170 C3169 1.334 . S
C3170 C3171 1.287 . S
C3171 C3170 1.287 . S
C3171 C3172 1.524 . S
C3171 H3174 0.999 . S
C3172 H3142 0.950 . S
C3172 C3171 1.524 . S
C3172 C3173 1.415 . S
C3173 H3143 0.950 . S
C3173 C3168 1.363 . S
C3173 C3172 1.415 . S
H3174 C3171 0.999 . S
H3175 C3156 0.913 . S
H3176 C3194 0.951 . S
H3177 C3196 0.952 1_545 S
H3178 C3198 0.950 . S
H3179 C3199 0.950 . S
H3180 C3201 0.950 . S
H3181 C3204 0.950 . S
H3182 C3205 0.950 . S
H3183 C3207 0.950 1_545 S
H3184 C3208 0.950 . S
H3185 C3209 0.951 . S
H3186 C3211 0.951 . S
H3187 C3213 0.950 . S
H3188 C3214 0.950 . S
H3189 C3216 0.950 . S
H3190 C3219 0.950 . S
H3191 C3220 0.950 . S
H3192 C3222 0.950 . S
H3193 C3223 0.950 . S
C3194 H3176 0.951 . S
C3194 C3195 1.366 . S
C3194 C3196 1.388 1_545 S
C3195 C3194 1.366 . S
C3195 C3199 1.385 1_545 S
C3196 H3177 0.952 1_565 S
C3196 C3194 1.388 1_565 S
C3196 C3197 1.366 . S
C3197 C3196 1.366 . S
C3197 C3198 1.414 . S
C3197 C3200 1.499 . S
C3198 H3178 0.950 . S
C3198 C3197 1.414 . S
C3198 C3199 1.374 . S
C3199 H3179 0.950 . S
C3199 C3195 1.385 1_565 S
C3199 C3198 1.374 . S
C3200 C3197 1.499 . S
C3200 C3201 1.373 . S
C3200 C3202 1.389 . S
C3201 H3180 0.950 . S
C3201 C3200 1.373 . S
C3201 C3217 1.377 . S
C3202 C3200 1.389 . S
C3202 C3203 1.524 . S
C3202 C3216 1.377 . S
C3203 C3202 1.524 . S
C3203 C3204 1.397 . S
C3203 C3208 1.363 . S
C3204 H3181 0.950 . S
C3204 C3203 1.397 . S
C3204 C3205 1.334 . S
C3205 H3182 0.950 . S
C3205 C3204 1.334 . S
C3205 C3206 1.287 . S
C3206 C3205 1.287 . S
C3206 C3207 1.524 . S
C3206 H3225 0.913 1_565 S
C3207 H3183 0.950 1_565 S
C3207 C3206 1.524 . S
C3207 C3208 1.415 . S
C3208 H3184 0.950 . S
C3208 C3203 1.363 . S
C3208 C3207 1.415 . S
C3209 H3185 0.951 . S
C3209 C3210 1.366 . S
C3209 C3211 1.388 . S
C3210 C3209 1.366 . S
C3210 C3214 1.385 . S
C3211 H3186 0.951 . S
C3211 C3209 1.388 . S
C3211 C3212 1.366 . S
C3212 C3211 1.366 . S
C3212 C3213 1.414 . S
C3212 C3215 1.499 . S
C3213 H3187 0.950 . S
C3213 C3212 1.414 . S
C3213 C3214 1.374 . S
C3214 H3188 0.950 . S
C3214 C3210 1.385 . S
C3214 C3213 1.374 . S
C3215 C3212 1.499 . S
C3215 C3216 1.373 . S
C3215 C3217 1.389 . S
C3216 H3189 0.950 . S
C3216 C3202 1.377 . S
C3216 C3215 1.373 . S
C3217 C3201 1.377 . S
C3217 C3215 1.389 . S
C3217 C3218 1.524 . S
C3218 C3217 1.524 . S
C3218 C3219 1.397 . S
C3218 C3223 1.363 . S
C3219 H3190 0.950 . S
C3219 C3218 1.397 . S
C3219 C3220 1.334 . S
C3220 H3191 0.950 . S
C3220 C3219 1.334 . S
C3220 C3221 1.287 . S
C3221 C3220 1.287 . S
C3221 C3222 1.524 . S
C3221 H3224 0.999 . S
C3222 H3192 0.950 . S
C3222 C3221 1.524 . S
C3222 C3223 1.415 . S
C3223 H3193 0.950 . S
C3223 C3218 1.363 . S
C3223 C3222 1.415 . S
H3224 C3221 0.999 . S
H3225 C3206 0.913 1_545 S
H3226 C3244 0.951 . S
H3227 C3246 0.951 . S
H3228 C3248 0.950 . S
H3229 C3249 0.950 . S
H3230 C3251 0.950 . S
H3231 C3254 0.950 . S
H3232 C3255 0.950 . S
H3233 C3257 0.950 . S
H3234 C3258 0.950 . S
H3235 C3259 0.951 . S
H3236 C3261 0.951 . S
H3237 C3263 0.950 . S
H3238 C3264 0.950 . S
H3239 C3266 0.950 . S
H3240 C3269 0.950 . S
H3241 C3270 0.950 . S
H3242 C3272 0.950 . S
H3243 C3273 0.950 . S
C3244 H3226 0.951 . S
C3244 C3245 1.366 . S
C3244 C3246 1.388 . S
C3245 C3244 1.366 . S
C3245 C3249 1.385 . S
C3246 H3227 0.951 . S
C3246 C3244 1.388 . S
C3246 C3247 1.366 . S
C3247 C3246 1.366 . S
C3247 C3248 1.414 . S
C3247 C3250 1.499 . S
C3248 H3228 0.950 . S
C3248 C3247 1.414 . S
C3248 C3249 1.374 . S
C3249 H3229 0.950 . S
C3249 C3245 1.385 . S
C3249 C3248 1.374 . S
C3250 C3247 1.499 . S
C3250 C3251 1.373 . S
C3250 C3252 1.389 . S
C3251 H3230 0.950 . S
C3251 C3250 1.373 . S
C3251 C3267 1.377 . S
C3252 C3250 1.389 . S
C3252 C3253 1.524 . S
C3252 C3266 1.377 . S
C3253 C3252 1.524 . S
C3253 C3254 1.397 . S
C3253 C3258 1.363 . S
C3254 H3231 0.950 . S
C3254 C3253 1.397 . S
C3254 C3255 1.334 . S
C3255 H3232 0.950 . S
C3255 C3254 1.334 . S
C3255 C3256 1.287 . S
C3256 C3255 1.287 . S
C3256 C3257 1.524 . S
C3256 H3275 0.913 . S
C3257 H3233 0.950 . S
C3257 C3256 1.524 . S
C3257 C3258 1.415 . S
C3258 H3234 0.950 . S
C3258 C3253 1.363 . S
C3258 C3257 1.415 . S
C3259 H3235 0.951 . S
C3259 C3260 1.366 . S
C3259 C3261 1.388 . S
C3260 C3259 1.366 . S
C3260 C3264 1.385 . S
C3261 H3236 0.951 . S
C3261 C3259 1.388 . S
C3261 C3262 1.366 . S
C3262 C3261 1.366 . S
C3262 C3263 1.414 . S
C3262 C3265 1.499 . S
C3263 H3237 0.950 . S
C3263 C3262 1.414 . S
C3263 C3264 1.374 . S
C3264 H3238 0.950 . S
C3264 C3260 1.385 . S
C3264 C3263 1.374 . S
C3265 C3262 1.499 . S
C3265 C3266 1.373 . S
C3265 C3267 1.389 . S
C3266 H3239 0.950 . S
C3266 C3252 1.377 . S
C3266 C3265 1.373 . S
C3267 C3251 1.377 . S
C3267 C3265 1.389 . S
C3267 C3268 1.524 . S
C3268 C3267 1.524 . S
C3268 C3269 1.397 . S
C3268 C3273 1.363 . S
C3269 H3240 0.950 . S
C3269 C3268 1.397 . S
C3269 C3270 1.334 . S
C3270 H3241 0.950 . S
C3270 C3269 1.334 . S
C3270 C3271 1.287 1_565 S
C3271 C3270 1.287 1_545 S
C3271 C3272 1.524 . S
C3271 H3274 0.999 . S
C3272 H3242 0.950 . S
C3272 C3271 1.524 . S
C3272 C3273 1.415 1_545 S
C3273 H3243 0.950 . S
C3273 C3268 1.363 . S
C3273 C3272 1.415 1_565 S
H3274 C3271 0.999 . S
H3275 C3256 0.913 . S
H3276 C3294 0.951 . S
H3277 C3296 0.951 . S
H3278 C3298 0.950 . S
H3279 C3299 0.950 . S
H3280 C3301 0.950 . S
H3281 C3304 0.950 . S
H3282 C3305 0.950 . S
H3283 C3307 0.950 . S
H3284 C3308 0.950 . S
H3285 C3309 0.951 . S
H3286 C3311 0.951 . S
H3287 C3313 0.950 . S
H3288 C3314 0.950 . S
H3289 C3316 0.950 . S
H3290 C3319 0.950 . S
H3291 C3320 0.950 . S
H3292 C3322 0.950 . S
H3293 C3323 0.950 . S
C3294 H3276 0.951 . S
C3294 C3295 1.366 . S
C3294 C3296 1.388 . S
C3295 C3294 1.366 . S
C3295 C3299 1.385 . S
C3296 H3277 0.951 . S
C3296 C3294 1.388 . S
C3296 C3297 1.366 . S
C3297 C3296 1.366 . S
C3297 C3298 1.414 . S
C3297 C3300 1.499 . S
C3298 H3278 0.950 . S
C3298 C3297 1.414 . S
C3298 C3299 1.374 . S
C3299 H3279 0.950 . S
C3299 C3295 1.385 . S
C3299 C3298 1.374 . S
C3300 C3297 1.499 . S
C3300 C3301 1.373 . S
C3300 C3302 1.389 . S
C3301 H3280 0.950 . S
C3301 C3300 1.373 . S
C3301 C3317 1.377 . S
C3302 C3300 1.389 . S
C3302 C3303 1.524 . S
C3302 C3316 1.377 . S
C3303 C3302 1.524 . S
C3303 C3304 1.397 . S
C3303 C3308 1.363 . S
C3304 H3281 0.950 . S
C3304 C3303 1.397 . S
C3304 C3305 1.334 . S
C3305 H3282 0.950 . S
C3305 C3304 1.334 . S
C3305 C3306 1.287 . S
C3306 C3305 1.287 . S
C3306 C3307 1.524 . S
C3306 H3325 0.913 . S
C3307 H3283 0.950 . S
C3307 C3306 1.524 . S
C3307 C3308 1.415 . S
C3308 H3284 0.950 . S
C3308 C3303 1.363 . S
C3308 C3307 1.415 . S
C3309 H3285 0.951 . S
C3309 C3310 1.366 . S
C3309 C3311 1.388 . S
C3310 C3309 1.366 . S
C3310 C3314 1.385 . S
C3311 H3286 0.951 . S
C3311 C3309 1.388 . S
C3311 C3312 1.366 . S
C3312 C3311 1.366 . S
C3312 C3313 1.414 . S
C3312 C3315 1.499 . S
C3313 H3287 0.950 . S
C3313 C3312 1.414 . S
C3313 C3314 1.374 . S
C3314 H3288 0.950 . S
C3314 C3310 1.385 . S
C3314 C3313 1.374 . S
C3315 C3312 1.499 . S
C3315 C3316 1.373 . S
C3315 C3317 1.389 . S
C3316 H3289 0.950 . S
C3316 C3302 1.377 . S
C3316 C3315 1.373 . S
C3317 C3301 1.377 . S
C3317 C3315 1.389 . S
C3317 C3318 1.524 . S
C3318 C3317 1.524 . S
C3318 C3319 1.397 . S
C3318 C3323 1.363 . S
C3319 H3290 0.950 . S
C3319 C3318 1.397 . S
C3319 C3320 1.334 . S
C3320 H3291 0.950 . S
C3320 C3319 1.334 . S
C3320 C3321 1.287 . S
C3321 C3320 1.287 . S
C3321 C3322 1.524 . S
C3321 H3324 0.999 . S
C3322 H3292 0.950 . S
C3322 C3321 1.524 . S
C3322 C3323 1.415 . S
C3323 H3293 0.950 . S
C3323 C3318 1.363 . S
C3323 C3322 1.415 . S
H3324 C3321 0.999 . S
H3325 C3306 0.913 . S
H3326 C3344 0.951 . S
H3327 C3346 0.951 . S
H3328 C3348 0.950 . S
H3329 C3349 0.950 . S
H3330 C3351 0.950 . S
H3331 C3354 0.950 . S
H3332 C3355 0.950 . S
H3333 C3357 0.950 . S
H3334 C3358 0.950 . S
H3335 C3359 0.951 . S
H3336 C3361 0.951 . S
H3337 C3363 0.950 . S
H3338 C3364 0.950 . S
H3339 C3366 0.950 . S
H3340 C3369 0.950 . S
H3341 C3370 0.950 . S
H3342 C3372 0.950 . S
H3343 C3373 0.950 . S
C3344 H3326 0.951 . S
C3344 C3345 1.366 . S
C3344 C3346 1.388 . S
C3345 C3344 1.366 . S
C3345 C3349 1.385 . S
C3346 H3327 0.951 . S
C3346 C3344 1.388 . S
C3346 C3347 1.366 . S
C3347 C3346 1.366 . S
C3347 C3348 1.414 . S
C3347 C3350 1.499 . S
C3348 H3328 0.950 . S
C3348 C3347 1.414 . S
C3348 C3349 1.374 . S
C3349 H3329 0.950 . S
C3349 C3345 1.385 . S
C3349 C3348 1.374 . S
C3350 C3347 1.499 . S
C3350 C3351 1.373 . S
C3350 C3352 1.389 . S
C3351 H3330 0.950 . S
C3351 C3350 1.373 . S
C3351 C3367 1.377 . S
C3352 C3350 1.389 . S
C3352 C3353 1.524 . S
C3352 C3366 1.377 . S
C3353 C3352 1.524 . S
C3353 C3354 1.397 . S
C3353 C3358 1.363 . S
C3354 H3331 0.950 . S
C3354 C3353 1.397 . S
C3354 C3355 1.334 . S
C3355 H3332 0.950 . S
C3355 C3354 1.334 . S
C3355 C3356 1.287 . S
C3356 C3355 1.287 . S
C3356 C3357 1.524 . S
C3356 H3375 0.913 . S
C3357 H3333 0.950 . S
C3357 C3356 1.524 . S
C3357 C3358 1.415 . S
C3358 H3334 0.950 . S
C3358 C3353 1.363 . S
C3358 C3357 1.415 . S
C3359 H3335 0.951 . S
C3359 C3360 1.366 . S
C3359 C3361 1.388 . S
C3360 C3359 1.366 . S
C3360 C3364 1.385 . S
C3361 H3336 0.951 . S
C3361 C3359 1.388 . S
C3361 C3362 1.366 . S
C3362 C3361 1.366 . S
C3362 C3363 1.414 . S
C3362 C3365 1.499 . S
C3363 H3337 0.950 . S
C3363 C3362 1.414 . S
C3363 C3364 1.374 . S
C3364 H3338 0.950 . S
C3364 C3360 1.385 . S
C3364 C3363 1.374 . S
C3365 C3362 1.499 . S
C3365 C3366 1.373 . S
C3365 C3367 1.389 . S
C3366 H3339 0.950 . S
C3366 C3352 1.377 . S
C3366 C3365 1.373 . S
C3367 C3351 1.377 . S
C3367 C3365 1.389 . S
C3367 C3368 1.524 . S
C3368 C3367 1.524 . S
C3368 C3369 1.397 . S
C3368 C3373 1.363 . S
C3369 H3340 0.950 . S
C3369 C3368 1.397 . S
C3369 C3370 1.334 . S
C3370 H3341 0.950 . S
C3370 C3369 1.334 . S
C3370 C3371 1.287 . S
C3371 C3370 1.287 . S
C3371 C3372 1.524 . S
C3371 H3374 0.999 . S
C3372 H3342 0.950 . S
C3372 C3371 1.524 . S
C3372 C3373 1.415 . S
C3373 H3343 0.950 . S
C3373 C3368 1.363 . S
C3373 C3372 1.415 . S
H3374 C3371 0.999 . S
H3375 C3356 0.913 . S
H3376 C3394 0.951 . S
H3377 C3396 0.951 . S
H3378 C3398 0.950 . S
H3379 C3399 0.950 . S
H3380 C3401 0.950 . S
H3381 C3404 0.950 . S
H3382 C3405 0.950 . S
H3383 C3407 0.950 . S
H3384 C3408 0.950 . S
H3385 C3409 0.951 . S
H3386 C3411 0.951 . S
H3387 C3413 0.950 . S
H3388 C3414 0.950 . S
H3389 C3416 0.950 . S
H3390 C3419 0.950 . S
H3391 C3420 0.950 . S
H3392 C3422 0.950 . S
H3393 C3423 0.950 . S
C3394 H3376 0.951 . S
C3394 C3395 1.366 . S
C3394 C3396 1.388 . S
C3395 C3394 1.366 . S
C3395 C3399 1.385 . S
C3396 H3377 0.951 . S
C3396 C3394 1.388 . S
C3396 C3397 1.366 . S
C3397 C3396 1.366 . S
C3397 C3398 1.414 . S
C3397 C3400 1.499 . S
C3398 H3378 0.950 . S
C3398 C3397 1.414 . S
C3398 C3399 1.374 . S
C3399 H3379 0.950 . S
C3399 C3395 1.385 . S
C3399 C3398 1.374 . S
C3400 C3397 1.499 . S
C3400 C3401 1.373 . S
C3400 C3402 1.389 . S
C3401 H3380 0.950 . S
C3401 C3400 1.373 . S
C3401 C3417 1.377 . S
C3402 C3400 1.389 . S
C3402 C3403 1.524 . S
C3402 C3416 1.377 . S
C3403 C3402 1.524 . S
C3403 C3404 1.397 . S
C3403 C3408 1.363 . S
C3404 H3381 0.950 . S
C3404 C3403 1.397 . S
C3404 C3405 1.334 . S
C3405 H3382 0.950 . S
C3405 C3404 1.334 . S
C3405 C3406 1.287 . S
C3406 C3405 1.287 . S
C3406 C3407 1.524 . S
C3406 H3425 0.913 . S
C3407 H3383 0.950 . S
C3407 C3406 1.524 . S
C3407 C3408 1.415 . S
C3408 H3384 0.950 . S
C3408 C3403 1.363 . S
C3408 C3407 1.415 . S
C3409 H3385 0.951 . S
C3409 C3410 1.366 . S
C3409 C3411 1.388 . S
C3410 C3409 1.366 . S
C3410 C3414 1.385 . S
C3411 H3386 0.951 . S
C3411 C3409 1.388 . S
C3411 C3412 1.366 . S
C3412 C3411 1.366 . S
C3412 C3413 1.414 . S
C3412 C3415 1.499 . S
C3413 H3387 0.950 . S
C3413 C3412 1.414 . S
C3413 C3414 1.374 . S
C3414 H3388 0.950 . S
C3414 C3410 1.385 . S
C3414 C3413 1.374 . S
C3415 C3412 1.499 . S
C3415 C3416 1.373 . S
C3415 C3417 1.389 . S
C3416 H3389 0.950 . S
C3416 C3402 1.377 . S
C3416 C3415 1.373 . S
C3417 C3401 1.377 . S
C3417 C3415 1.389 . S
C3417 C3418 1.524 . S
C3418 C3417 1.524 . S
C3418 C3419 1.397 . S
C3418 C3423 1.363 . S
C3419 H3390 0.950 . S
C3419 C3418 1.397 . S
C3419 C3420 1.334 . S
C3420 H3391 0.950 . S
C3420 C3419 1.334 . S
C3420 C3421 1.287 . S
C3421 C3420 1.287 . S
C3421 C3422 1.524 . S
C3421 H3424 0.999 . S
C3422 H3392 0.950 . S
C3422 C3421 1.524 . S
C3422 C3423 1.415 . S
C3423 H3393 0.950 . S
C3423 C3418 1.363 . S
C3423 C3422 1.415 . S
H3424 C3421 0.999 . S
H3425 C3406 0.913 . S
H3426 C3444 0.951 . S
H3427 C3446 0.951 . S
H3428 C3448 0.950 . S
H3429 C3449 0.950 . S
H3430 C3451 0.950 . S
H3431 C3454 0.950 . S
H3432 C3455 0.950 . S
H3433 C3457 0.950 . S
H3434 C3458 0.950 . S
H3435 C3459 0.951 . S
H3436 C3461 0.951 . S
H3437 C3463 0.950 . S
H3438 C3464 0.950 . S
H3439 C3466 0.950 . S
H3440 C3469 0.950 . S
H3441 C3470 0.950 . S
H3442 C3472 0.950 . S
H3443 C3473 0.950 . S
C3444 H3426 0.951 . S
C3444 C3445 1.366 . S
C3444 C3446 1.388 . S
C3445 C3444 1.366 . S
C3445 C3449 1.385 . S
C3446 H3427 0.951 . S
C3446 C3444 1.388 . S
C3446 C3447 1.366 . S
C3447 C3446 1.366 . S
C3447 C3448 1.414 . S
C3447 C3450 1.499 . S
C3448 H3428 0.950 . S
C3448 C3447 1.414 . S
C3448 C3449 1.374 . S
C3449 H3429 0.950 . S
C3449 C3445 1.385 . S
C3449 C3448 1.374 . S
C3450 C3447 1.499 . S
C3450 C3451 1.373 . S
C3450 C3452 1.389 . S
C3451 H3430 0.950 . S
C3451 C3450 1.373 . S
C3451 C3467 1.377 . S
C3452 C3450 1.389 . S
C3452 C3453 1.524 . S
C3452 C3466 1.377 . S
C3453 C3452 1.524 . S
C3453 C3454 1.397 . S
C3453 C3458 1.363 . S
C3454 H3431 0.950 . S
C3454 C3453 1.397 . S
C3454 C3455 1.334 . S
C3455 H3432 0.950 . S
C3455 C3454 1.334 . S
C3455 C3456 1.287 . S
C3456 C3455 1.287 . S
C3456 C3457 1.524 . S
C3456 H3475 0.913 . S
C3457 H3433 0.950 . S
C3457 C3456 1.524 . S
C3457 C3458 1.415 . S
C3458 H3434 0.950 . S
C3458 C3453 1.363 . S
C3458 C3457 1.415 . S
C3459 H3435 0.951 . S
C3459 C3460 1.366 . S
C3459 C3461 1.388 . S
C3460 C3459 1.366 . S
C3460 C3464 1.385 . S
C3461 H3436 0.951 . S
C3461 C3459 1.388 . S
C3461 C3462 1.366 . S
C3462 C3461 1.366 . S
C3462 C3463 1.414 . S
C3462 C3465 1.499 . S
C3463 H3437 0.950 . S
C3463 C3462 1.414 . S
C3463 C3464 1.374 . S
C3464 H3438 0.950 . S
C3464 C3460 1.385 . S
C3464 C3463 1.374 . S
C3465 C3462 1.499 . S
C3465 C3466 1.373 . S
C3465 C3467 1.389 . S
C3466 H3439 0.950 . S
C3466 C3452 1.377 . S
C3466 C3465 1.373 . S
C3467 C3451 1.377 . S
C3467 C3465 1.389 . S
C3467 C3468 1.524 . S
C3468 C3467 1.524 . S
C3468 C3469 1.397 . S
C3468 C3473 1.363 . S
C3469 H3440 0.950 . S
C3469 C3468 1.397 . S
C3469 C3470 1.334 . S
C3470 H3441 0.950 . S
C3470 C3469 1.334 . S
C3470 C3471 1.287 . S
C3471 C3470 1.287 . S
C3471 C3472 1.524 . S
C3471 H3474 0.999 . S
C3472 H3442 0.950 . S
C3472 C3471 1.524 . S
C3472 C3473 1.415 . S
C3473 H3443 0.950 . S
C3473 C3468 1.363 . S
C3473 C3472 1.415 . S
H3474 C3471 0.999 . S
H3475 C3456 0.913 . S
H3476 C3494 0.951 . S
H3477 C3496 0.951 . S
H3478 C3498 0.950 . S
H3479 C3499 0.950 . S
H3480 C3501 0.950 . S
H3481 C3504 0.950 . S
H3482 C3505 0.950 . S
H3483 C3507 0.950 . S
H3484 C3508 0.950 . S
H3485 C3509 0.951 . S
H3486 C3511 0.951 . S
H3487 C3513 0.950 . S
H3488 C3514 0.950 1_556 S
H3489 C3516 0.950 . S
H3490 C3519 0.952 1_556 S
H3491 C3520 0.950 . S
H3492 C3522 0.950 . S
H3493 C3523 0.950 . S
C3494 H3476 0.951 . S
C3494 C3495 1.366 . S
C3494 C3496 1.388 . S
C3495 C3494 1.366 . S
C3495 C3499 1.385 . S
C3496 H3477 0.951 . S
C3496 C3494 1.388 . S
C3496 C3497 1.366 . S
C3497 C3496 1.366 . S
C3497 C3498 1.414 . S
C3497 C3500 1.499 . S
C3498 H3478 0.950 . S
C3498 C3497 1.414 . S
C3498 C3499 1.374 . S
C3499 H3479 0.950 . S
C3499 C3495 1.385 . S
C3499 C3498 1.374 . S
C3500 C3497 1.499 . S
C3500 C3501 1.373 . S
C3500 C3502 1.389 . S
C3501 H3480 0.950 . S
C3501 C3500 1.373 . S
C3501 C3517 1.377 . S
C3502 C3500 1.389 . S
C3502 C3503 1.524 . S
C3502 C3516 1.377 . S
C3503 C3502 1.524 . S
C3503 C3504 1.397 . S
C3503 C3508 1.363 . S
C3504 H3481 0.950 . S
C3504 C3503 1.397 . S
C3504 C3505 1.334 . S
C3505 H3482 0.950 . S
C3505 C3504 1.334 . S
C3505 C3506 1.287 . S
C3506 C3505 1.287 . S
C3506 C3507 1.524 . S
C3506 H3525 0.913 . S
C3507 H3483 0.950 . S
C3507 C3506 1.524 . S
C3507 C3508 1.415 . S
C3508 H3484 0.950 . S
C3508 C3503 1.363 . S
C3508 C3507 1.415 . S
C3509 H3485 0.951 . S
C3509 C3510 1.366 . S
C3509 C3511 1.388 . S
C3510 C3509 1.366 . S
C3510 C3514 1.385 . S
C3511 H3486 0.951 . S
C3511 C3509 1.388 . S
C3511 C3512 1.366 . S
C3512 C3511 1.366 . S
C3512 C3513 1.414 1_554 S
C3512 C3515 1.499 1_554 S
C3513 H3487 0.950 . S
C3513 C3512 1.414 1_556 S
C3513 C3514 1.374 1_556 S
C3514 H3488 0.950 1_554 S
C3514 C3510 1.385 . S
C3514 C3513 1.374 1_554 S
C3515 C3512 1.499 1_556 S
C3515 C3516 1.373 . S
C3515 C3517 1.389 . S
C3516 H3489 0.950 . S
C3516 C3502 1.377 . S
C3516 C3515 1.373 . S
C3517 C3501 1.377 . S
C3517 C3515 1.389 . S
C3517 C3518 1.524 1_556 S
C3518 C3517 1.524 1_554 S
C3518 C3519 1.397 1_455 S
C3518 C3523 1.363 . S
C3519 H3490 0.952 1_554 S
C3519 C3518 1.397 1_655 S
C3519 C3520 1.334 . S
C3520 H3491 0.950 . S
C3520 C3519 1.334 . S
C3520 C3521 1.287 . S
C3521 C3520 1.287 . S
C3521 C3522 1.524 . S
C3521 H3524 0.999 . S
C3522 H3492 0.950 . S
C3522 C3521 1.524 . S
C3522 C3523 1.415 1_655 S
C3523 H3493 0.950 . S
C3523 C3518 1.363 . S
C3523 C3522 1.415 1_455 S
H3524 C3521 0.999 . S
H3525 C3506 0.913 . S
H3526 C3544 0.951 . S
H3527 C3546 0.951 . S
H3528 C3548 0.950 . S
H3529 C3549 0.950 . S
H3530 C3551 0.950 . S
H3531 C3554 0.950 . S
H3532 C3555 0.950 . S
H3533 C3557 0.950 . S
H3534 C3558 0.950 . S
H3535 C3559 0.951 . S
H3536 C3561 0.951 . S
H3537 C3563 0.950 . S
H3538 C3564 0.950 . S
H3539 C3566 0.950 . S
H3540 C3569 0.950 . S
H3541 C3570 0.950 . S
H3542 C3572 0.950 . S
H3543 C3573 0.950 . S
C3544 H3526 0.951 . S
C3544 C3545 1.366 1_655 S
C3544 C3546 1.388 . S
C3545 C3544 1.366 1_455 S
C3545 C3549 1.385 . S
C3546 H3527 0.951 . S
C3546 C3544 1.388 . S
C3546 C3547 1.366 . S
C3547 C3546 1.366 . S
C3547 C3548 1.374 1_655 S
C3547 C3550 1.499 . S
C3548 H3528 0.950 . S
C3548 C3547 1.374 1_455 S
C3548 C3549 1.416 . S
C3549 H3529 0.950 . S
C3549 C3545 1.385 . S
C3549 C3548 1.416 . S
C3550 C3547 1.499 . S
C3550 C3551 1.373 . S
C3550 C3552 1.389 . S
C3551 H3530 0.950 . S
C3551 C3550 1.373 . S
C3551 C3567 1.377 . S
C3552 C3550 1.389 . S
C3552 C3553 1.524 . S
C3552 C3566 1.377 . S
C3553 C3552 1.524 . S
C3553 C3554 1.397 . S
C3553 C3558 1.363 . S
C3554 H3531 0.950 . S
C3554 C3553 1.397 . S
C3554 C3555 1.334 . S
C3555 H3532 0.950 . S
C3555 C3554 1.334 . S
C3555 C3556 1.287 . S
C3556 C3555 1.287 . S
C3556 C3557 1.524 . S
C3556 H3575 0.913 . S
C3557 H3533 0.950 . S
C3557 C3556 1.524 . S
C3557 C3558 1.415 . S
C3558 H3534 0.950 . S
C3558 C3553 1.363 . S
C3558 C3557 1.415 . S
C3559 H3535 0.951 . S
C3559 C3560 1.366 . S
C3559 C3561 1.388 . S
C3560 C3559 1.366 . S
C3560 C3564 1.385 . S
C3561 H3536 0.951 . S
C3561 C3559 1.388 . S
C3561 C3562 1.366 . S
C3562 C3561 1.366 . S
C3562 C3563 1.414 . S
C3562 C3565 1.499 . S
C3563 H3537 0.950 . S
C3563 C3562 1.414 . S
C3563 C3564 1.374 . S
C3564 H3538 0.950 . S
C3564 C3560 1.385 . S
C3564 C3563 1.374 . S
C3565 C3562 1.499 . S
C3565 C3566 1.373 . S
C3565 C3567 1.389 . S
C3566 H3539 0.950 . S
C3566 C3552 1.377 . S
C3566 C3565 1.373 . S
C3567 C3551 1.377 . S
C3567 C3565 1.389 . S
C3567 C3568 1.524 . S
C3568 C3567 1.524 . S
C3568 C3569 1.397 . S
C3568 C3573 1.363 . S
C3569 H3540 0.950 . S
C3569 C3568 1.397 . S
C3569 C3570 1.334 . S
C3570 H3541 0.950 . S
C3570 C3569 1.334 . S
C3570 C3571 1.287 . S
C3571 C3570 1.287 . S
C3571 C3572 1.524 . S
C3571 H3574 0.999 . S
C3572 H3542 0.950 . S
C3572 C3571 1.524 . S
C3572 C3573 1.415 . S
C3573 H3543 0.950 . S
C3573 C3568 1.363 . S
C3573 C3572 1.415 . S
H3574 C3571 0.999 . S
H3575 C3556 0.913 . S
H3576 C3594 0.951 . S
H3577 C3596 0.951 . S
H3578 C3598 0.950 . S
H3579 C3599 0.950 . S
H3580 C3601 0.950 . S
H3581 C3604 0.950 . S
H3582 C3605 0.950 . S
H3583 C3607 0.950 . S
H3584 C3608 0.950 . S
H3585 C3609 0.951 . S
H3586 C3611 0.951 . S
H3587 C3613 0.950 . S
H3588 C3614 0.950 . S
H3589 C3616 0.950 . S
H3590 C3619 0.950 . S
H3591 C3620 0.950 . S
H3592 C3622 0.950 . S
H3593 C3623 0.950 . S
C3594 H3576 0.951 . S
C3594 C3595 1.366 . S
C3594 C3596 1.388 . S
C3595 C3594 1.366 . S
C3595 C3599 1.385 . S
C3596 H3577 0.951 . S
C3596 C3594 1.388 . S
C3596 C3597 1.366 . S
C3597 C3596 1.366 . S
C3597 C3598 1.414 . S
C3597 C3600 1.499 . S
C3598 H3578 0.950 . S
C3598 C3597 1.414 . S
C3598 C3599 1.374 . S
C3599 H3579 0.950 . S
C3599 C3595 1.385 . S
C3599 C3598 1.374 . S
C3600 C3597 1.499 . S
C3600 C3601 1.373 . S
C3600 C3602 1.389 . S
C3601 H3580 0.950 . S
C3601 C3600 1.373 . S
C3601 C3617 1.377 . S
C3602 C3600 1.389 . S
C3602 C3603 1.524 . S
C3602 C3616 1.377 . S
C3603 C3602 1.524 . S
C3603 C3604 1.397 . S
C3603 C3608 1.363 . S
C3604 H3581 0.950 . S
C3604 C3603 1.397 . S
C3604 C3605 1.334 . S
C3605 H3582 0.950 . S
C3605 C3604 1.334 . S
C3605 C3606 1.287 . S
C3606 C3605 1.287 . S
C3606 C3607 1.524 . S
C3606 H3625 0.913 . S
C3607 H3583 0.950 . S
C3607 C3606 1.524 . S
C3607 C3608 1.415 . S
C3608 H3584 0.950 . S
C3608 C3603 1.363 . S
C3608 C3607 1.415 . S
C3609 H3585 0.951 . S
C3609 C3610 1.366 . S
C3609 C3611 1.388 . S
C3610 C3609 1.366 . S
C3610 C3614 1.385 . S
C3611 H3586 0.951 . S
C3611 C3609 1.388 . S
C3611 C3612 1.366 . S
C3612 C3611 1.366 . S
C3612 C3613 1.414 . S
C3612 C3615 1.499 . S
C3613 H3587 0.950 . S
C3613 C3612 1.414 . S
C3613 C3614 1.374 . S
C3614 H3588 0.950 . S
C3614 C3610 1.385 . S
C3614 C3613 1.374 . S
C3615 C3612 1.499 . S
C3615 C3616 1.373 . S
C3615 C3617 1.389 . S
C3616 H3589 0.950 . S
C3616 C3602 1.377 . S
C3616 C3615 1.373 . S
C3617 C3601 1.377 . S
C3617 C3615 1.389 . S
C3617 C3618 1.524 . S
C3618 C3617 1.524 . S
C3618 C3619 1.397 . S
C3618 C3623 1.363 . S
C3619 H3590 0.950 . S
C3619 C3618 1.397 . S
C3619 C3620 1.334 . S
C3620 H3591 0.950 . S
C3620 C3619 1.334 . S
C3620 C3621 1.287 . S
C3621 C3620 1.287 . S
C3621 C3622 1.524 . S
C3621 H3624 0.999 . S
C3622 H3592 0.950 . S
C3622 C3621 1.524 . S
C3622 C3623 1.415 . S
C3623 H3593 0.950 . S
C3623 C3618 1.363 . S
C3623 C3622 1.415 . S
H3624 C3621 0.999 . S
H3625 C3606 0.913 . S
H3626 C3644 0.951 . S
H3627 C3646 0.951 . S
H3628 C3648 0.950 . S
H3629 C3649 0.950 . S
H3630 C3651 0.950 1_455 S
H3631 C3654 0.950 . S
H3632 C3655 0.950 . S
H3633 C3657 0.950 . S
H3634 C3658 0.950 . S
H3635 C3659 0.951 . S
H3636 C3661 0.951 . S
H3637 C3663 0.950 . S
H3638 C3664 0.950 . S
H3639 C3666 0.950 . S
H3640 C3669 0.950 . S
H3641 C3670 0.950 . S
H3642 C3672 0.969 . S
H3643 C3673 0.950 . S
C3644 H3626 0.951 . S
C3644 C3645 1.366 . S
C3644 C3646 1.388 . S
C3645 C3644 1.366 . S
C3645 C3649 1.385 . S
C3646 H3627 0.951 . S
C3646 C3644 1.388 . S
C3646 C3647 1.366 . S
C3647 C3646 1.366 . S
C3647 C3648 1.414 . S
C3647 C3650 1.499 1_455 S
C3648 H3628 0.950 . S
C3648 C3647 1.414 . S
C3648 C3649 1.374 . S
C3649 H3629 0.950 . S
C3649 C3645 1.385 . S
C3649 C3648 1.374 . S
C3650 C3647 1.499 1_655 S
C3650 C3651 1.373 . S
C3650 C3652 1.389 . S
C3651 H3630 0.950 1_655 S
C3651 C3650 1.373 . S
C3651 C3667 1.377 . S
C3652 C3650 1.389 . S
C3652 C3653 1.524 . S
C3652 C3666 1.377 . S
C3653 C3652 1.524 . S
C3653 C3654 1.397 . S
C3653 C3658 1.363 . S
C3654 H3631 0.950 . S
C3654 C3653 1.397 . S
C3654 C3655 1.334 . S
C3655 H3632 0.950 . S
C3655 C3654 1.334 . S
C3655 C3656 1.287 . S
C3656 C3655 1.287 . S
C3656 C3657 1.524 . S
C3656 H3675 0.913 . S
C3657 H3633 0.950 . S
C3657 C3656 1.524 . S
C3657 C3658 1.415 . S
C3658 H3634 0.950 . S
C3658 C3653 1.363 . S
C3658 C3657 1.415 . S
C3659 H3635 0.951 . S
C3659 C3660 1.366 . S
C3659 C3661 1.388 . S
C3660 C3659 1.366 . S
C3660 C3664 1.385 . S
C3661 H3636 0.951 . S
C3661 C3659 1.388 . S
C3661 C3662 1.366 . S
C3662 C3661 1.366 . S
C3662 C3663 1.414 . S
C3662 C3665 1.499 . S
C3663 H3637 0.950 . S
C3663 C3662 1.414 . S
C3663 C3664 1.374 . S
C3664 H3638 0.950 . S
C3664 C3660 1.385 . S
C3664 C3663 1.374 . S
C3665 C3662 1.499 . S
C3665 C3666 1.373 . S
C3665 C3667 1.389 . S
C3666 H3639 0.950 . S
C3666 C3652 1.377 . S
C3666 C3665 1.373 . S
C3667 C3651 1.377 . S
C3667 C3665 1.389 . S
C3667 C3668 1.524 . S
C3668 C3667 1.524 . S
C3668 C3669 1.397 . S
C3668 C3673 1.363 . S
C3669 H3640 0.950 . S
C3669 C3668 1.397 . S
C3669 C3670 1.334 . S
C3670 H3641 0.950 . S
C3670 C3669 1.334 . S
C3670 C3671 1.287 . S
C3671 C3670 1.287 . S
C3671 C3672 1.524 . S
C3671 H3674 0.999 . S
C3672 H3642 0.969 . S
C3672 C3671 1.524 . S
C3672 C3673 1.415 . S
C3673 H3643 0.950 . S
C3673 C3668 1.363 . S
C3673 C3672 1.415 . S
H3674 C3671 0.999 . S
H3675 C3656 0.913 . S
H3676 C3694 0.951 . S
H3677 C3696 0.951 . S
H3678 C3698 0.950 . S
H3679 C3699 0.950 . S
H3680 C3701 0.950 . S
H3681 C3704 0.950 . S
H3682 C3705 0.950 . S
H3683 C3707 0.950 . S
H3684 C3708 0.950 . S
H3685 C3709 0.951 . S
H3686 C3711 0.951 . S
H3687 C3713 0.950 . S
H3688 C3714 0.950 . S
H3689 C3716 0.950 . S
H3690 C3719 0.950 . S
H3691 C3720 0.950 . S
H3692 C3722 0.950 . S
H3693 C3723 0.950 . S
C3694 H3676 0.951 . S
C3694 C3695 1.366 . S
C3694 C3696 1.388 . S
C3695 C3694 1.366 . S
C3695 C3699 1.385 1_655 S
C3696 H3677 0.951 . S
C3696 C3694 1.388 . S
C3696 C3697 1.366 1_655 S
C3697 C3696 1.366 1_455 S
C3697 C3698 1.414 . S
C3697 C3700 1.499 . S
C3698 H3678 0.950 . S
C3698 C3697 1.414 . S
C3698 C3699 1.374 . S
C3699 H3679 0.950 . S
C3699 C3695 1.385 1_455 S
C3699 C3698 1.374 . S
C3700 C3697 1.499 . S
C3700 C3701 1.373 . S
C3700 C3702 1.389 . S
C3701 H3680 0.950 . S
C3701 C3700 1.373 . S
C3701 C3717 1.377 . S
C3702 C3700 1.389 . S
C3702 C3703 1.524 . S
C3702 C3716 1.377 . S
C3703 C3702 1.524 . S
C3703 C3704 1.397 . S
C3703 C3708 1.363 1_455 S
C3704 H3681 0.950 . S
C3704 C3703 1.397 . S
C3704 C3705 1.334 . S
C3705 H3682 0.950 . S
C3705 C3704 1.334 . S
C3705 C3706 1.287 1_455 S
C3706 C3705 1.287 1_655 S
C3706 C3707 1.524 . S
C3706 H3725 0.913 . S
C3707 H3683 0.950 . S
C3707 C3706 1.524 . S
C3707 C3708 1.415 . S
C3708 H3684 0.950 . S
C3708 C3703 1.363 1_655 S
C3708 C3707 1.415 . S
C3709 H3685 0.951 . S
C3709 C3710 1.366 . S
C3709 C3711 1.388 . S
C3710 C3709 1.366 . S
C3710 C3714 1.385 . S
C3711 H3686 0.951 . S
C3711 C3709 1.388 . S
C3711 C3712 1.366 . S
C3712 C3711 1.366 . S
C3712 C3713 1.414 . S
C3712 C3715 1.499 . S
C3713 H3687 0.950 . S
C3713 C3712 1.414 . S
C3713 C3714 1.374 . S
C3714 H3688 0.950 . S
C3714 C3710 1.385 . S
C3714 C3713 1.374 . S
C3715 C3712 1.499 . S
C3715 C3716 1.373 . S
C3715 C3717 1.389 . S
C3716 H3689 0.950 . S
C3716 C3702 1.377 . S
C3716 C3715 1.373 . S
C3717 C3701 1.377 . S
C3717 C3715 1.389 . S
C3717 C3718 1.524 . S
C3718 C3717 1.524 . S
C3718 C3719 1.397 . S
C3718 C3723 1.363 . S
C3719 H3690 0.950 . S
C3719 C3718 1.397 . S
C3719 C3720 1.334 . S
C3720 H3691 0.950 . S
C3720 C3719 1.334 . S
C3720 C3721 1.287 . S
C3721 C3720 1.287 . S
C3721 C3722 1.524 . S
C3721 H3724 0.999 . S
C3722 H3692 0.950 . S
C3722 C3721 1.524 . S
C3722 C3723 1.415 . S
C3723 H3693 0.950 . S
C3723 C3718 1.363 . S
C3723 C3722 1.415 . S
H3724 C3721 0.999 . S
H3725 C3706 0.913 . S
H3726 C3744 0.951 . S
H3727 C3746 0.951 . S
H3728 C3748 0.950 . S
H3729 C3749 0.950 . S
H3730 C3751 0.950 . S
H3731 C3754 0.950 . S
H3732 C3755 0.950 . S
H3733 C3757 0.950 . S
H3734 C3758 0.950 . S
H3735 C3759 0.951 . S
H3736 C3761 0.951 . S
H3737 C3763 0.950 . S
H3738 C3764 0.950 . S
H3739 C3766 0.950 . S
H3740 C3769 0.950 . S
H3741 C3770 0.950 . S
H3742 C3772 0.950 . S
H3743 C3773 0.950 . S
C3744 H3726 0.951 . S
C3744 C3745 1.366 . S
C3744 C3746 1.388 . S
C3745 C3744 1.366 . S
C3745 C3749 1.385 . S
C3746 H3727 0.951 . S
C3746 C3744 1.388 . S
C3746 C3747 1.366 . S
C3747 C3746 1.366 . S
C3747 C3748 1.414 . S
C3747 C3750 1.499 . S
C3748 H3728 0.950 . S
C3748 C3747 1.414 . S
C3748 C3749 1.374 . S
C3749 H3729 0.950 . S
C3749 C3745 1.385 . S
C3749 C3748 1.374 . S
C3750 C3747 1.499 . S
C3750 C3751 1.373 . S
C3750 C3752 1.389 . S
C3751 H3730 0.950 . S
C3751 C3750 1.373 . S
C3751 C3767 1.377 . S
C3752 C3750 1.389 . S
C3752 C3753 1.524 . S
C3752 C3766 1.377 . S
C3753 C3752 1.524 . S
C3753 C3754 1.397 . S
C3753 C3758 1.363 . S
C3754 H3731 0.950 . S
C3754 C3753 1.397 . S
C3754 C3755 1.334 . S
C3755 H3732 0.950 . S
C3755 C3754 1.334 . S
C3755 C3756 1.287 . S
C3756 C3755 1.287 . S
C3756 C3757 1.524 . S
C3756 H3775 0.913 . S
C3757 H3733 0.950 . S
C3757 C3756 1.524 . S
C3757 C3758 1.415 . S
C3758 H3734 0.950 . S
C3758 C3753 1.363 . S
C3758 C3757 1.415 . S
C3759 H3735 0.951 . S
C3759 C3760 1.366 . S
C3759 C3761 1.388 . S
C3760 C3759 1.366 . S
C3760 C3764 1.385 . S
C3761 H3736 0.951 . S
C3761 C3759 1.388 . S
C3761 C3762 1.366 . S
C3762 C3761 1.366 . S
C3762 C3763 1.414 . S
C3762 C3765 1.499 . S
C3763 H3737 0.950 . S
C3763 C3762 1.414 . S
C3763 C3764 1.374 . S
C3764 H3738 0.950 . S
C3764 C3760 1.385 . S
C3764 C3763 1.374 . S
C3765 C3762 1.499 . S
C3765 C3766 1.373 . S
C3765 C3767 1.389 . S
C3766 H3739 0.950 . S
C3766 C3752 1.377 . S
C3766 C3765 1.373 . S
C3767 C3751 1.377 . S
C3767 C3765 1.389 . S
C3767 C3768 1.524 . S
C3768 C3767 1.524 . S
C3768 C3769 1.397 . S
C3768 C3773 1.363 . S
C3769 H3740 0.950 . S
C3769 C3768 1.397 . S
C3769 C3770 1.334 . S
C3770 H3741 0.950 . S
C3770 C3769 1.334 . S
C3770 C3771 1.287 . S
C3771 C3770 1.287 . S
C3771 C3772 1.524 . S
C3771 H3774 0.999 . S
C3772 H3742 0.950 . S
C3772 C3771 1.524 . S
C3772 C3773 1.415 . S
C3773 H3743 0.950 . S
C3773 C3768 1.363 . S
C3773 C3772 1.415 . S
H3774 C3771 0.999 . S
H3775 C3756 0.913 . S
H3776 C3794 0.951 . S
H3777 C3796 0.951 . S
H3778 C3798 0.950 . S
H3779 C3799 0.950 . S
H3780 C3801 0.950 . S
H3781 C3804 0.950 . S
H3782 C3805 0.950 . S
H3783 C3807 0.950 . S
H3784 C3808 0.950 . S
H3785 C3809 0.951 . S
H3786 C3811 0.951 . S
H3787 C3813 0.950 . S
H3788 C3814 0.950 . S
H3789 C3816 0.950 . S
H3790 C3819 0.950 . S
H3791 C3820 0.950 . S
H3792 C3822 0.950 . S
H3793 C3823 0.950 . S
C3794 H3776 0.951 . S
C3794 C3795 1.366 . S
C3794 C3796 1.388 . S
C3795 C3794 1.366 . S
C3795 C3799 1.385 . S
C3796 H3777 0.951 . S
C3796 C3794 1.388 . S
C3796 C3797 1.366 . S
C3797 C3796 1.366 . S
C3797 C3798 1.414 . S
C3797 C3800 1.499 . S
C3798 H3778 0.950 . S
C3798 C3797 1.414 . S
C3798 C3799 1.374 . S
C3799 H3779 0.950 . S
C3799 C3795 1.385 . S
C3799 C3798 1.374 . S
C3800 C3797 1.499 . S
C3800 C3801 1.373 . S
C3800 C3802 1.389 . S
C3801 H3780 0.950 . S
C3801 C3800 1.373 . S
C3801 C3817 1.377 . S
C3802 C3800 1.389 . S
C3802 C3803 1.524 . S
C3802 C3816 1.377 . S
C3803 C3802 1.524 . S
C3803 C3804 1.397 . S
C3803 C3808 1.363 . S
C3804 H3781 0.950 . S
C3804 C3803 1.397 . S
C3804 C3805 1.334 . S
C3805 H3782 0.950 . S
C3805 C3804 1.334 . S
C3805 C3806 1.287 . S
C3806 C3805 1.287 . S
C3806 C3807 1.524 . S
C3806 H3825 0.913 . S
C3807 H3783 0.950 . S
C3807 C3806 1.524 . S
C3807 C3808 1.415 . S
C3808 H3784 0.950 . S
C3808 C3803 1.363 . S
C3808 C3807 1.415 . S
C3809 H3785 0.951 . S
C3809 C3810 1.366 . S
C3809 C3811 1.388 . S
C3810 C3809 1.366 . S
C3810 C3814 1.385 . S
C3811 H3786 0.951 . S
C3811 C3809 1.388 . S
C3811 C3812 1.366 . S
C3812 C3811 1.366 . S
C3812 C3813 1.414 . S
C3812 C3815 1.499 . S
C3813 H3787 0.950 . S
C3813 C3812 1.414 . S
C3813 C3814 1.374 . S
C3814 H3788 0.950 . S
C3814 C3810 1.385 . S
C3814 C3813 1.374 . S
C3815 C3812 1.499 . S
C3815 C3816 1.373 . S
C3815 C3817 1.389 . S
C3816 H3789 0.950 . S
C3816 C3802 1.377 . S
C3816 C3815 1.373 . S
C3817 C3801 1.377 . S
C3817 C3815 1.389 . S
C3817 C3818 1.524 . S
C3818 C3817 1.524 . S
C3818 C3819 1.397 . S
C3818 C3823 1.363 . S
C3819 H3790 0.950 . S
C3819 C3818 1.397 . S
C3819 C3820 1.334 . S
C3820 H3791 0.950 . S
C3820 C3819 1.334 . S
C3820 C3821 1.287 . S
C3821 C3820 1.287 . S
C3821 C3822 1.524 . S
C3821 H3824 0.999 . S
C3822 H3792 0.950 . S
C3822 C3821 1.524 . S
C3822 C3823 1.415 . S
C3823 H3793 0.950 . S
C3823 C3818 1.363 . S
C3823 C3822 1.415 . S
H3824 C3821 0.999 . S
H3825 C3806 0.913 . S
H3826 C3844 0.951 . S
H3827 C3846 0.951 . S
H3828 C3848 0.950 . S
H3829 C3849 0.950 . S
H3830 C3851 0.950 . S
H3831 C3854 0.950 . S
H3832 C3855 0.950 . S
H3833 C3857 0.950 . S
H3834 C3858 0.950 . S
H3835 C3859 0.951 . S
H3836 C3861 0.951 . S
H3837 C3863 0.950 . S
H3838 C3864 0.950 . S
H3839 C3866 0.950 . S
H3840 C3869 0.950 . S
H3841 C3870 0.950 . S
H3842 C3872 0.950 . S
H3843 C3873 0.950 . S
C3844 H3826 0.951 . S
C3844 C3845 1.366 . S
C3844 C3846 1.388 . S
C3845 C3844 1.366 . S
C3845 C3849 1.385 . S
C3846 H3827 0.951 . S
C3846 C3844 1.388 . S
C3846 C3847 1.366 . S
C3847 C3846 1.366 . S
C3847 C3848 1.414 . S
C3847 C3850 1.499 . S
C3848 H3828 0.950 . S
C3848 C3847 1.414 . S
C3848 C3849 1.374 . S
C3849 H3829 0.950 . S
C3849 C3845 1.385 . S
C3849 C3848 1.374 . S
C3850 C3847 1.499 . S
C3850 C3851 1.373 . S
C3850 C3852 1.389 . S
C3851 H3830 0.950 . S
C3851 C3850 1.373 . S
C3851 C3867 1.377 . S
C3852 C3850 1.389 . S
C3852 C3853 1.524 . S
C3852 C3866 1.377 . S
C3853 C3852 1.524 . S
C3853 C3854 1.397 . S
C3853 C3858 1.363 . S
C3854 H3831 0.950 . S
C3854 C3853 1.397 . S
C3854 C3855 1.334 . S
C3855 H3832 0.950 . S
C3855 C3854 1.334 . S
C3855 C3856 1.287 . S
C3856 C3855 1.287 . S
C3856 C3857 1.524 . S
C3856 H3875 0.913 . S
C3857 H3833 0.950 . S
C3857 C3856 1.524 . S
C3857 C3858 1.415 . S
C3858 H3834 0.950 . S
C3858 C3853 1.363 . S
C3858 C3857 1.415 . S
C3859 H3835 0.951 . S
C3859 C3860 1.366 . S
C3859 C3861 1.388 . S
C3860 C3859 1.366 . S
C3860 C3864 1.385 . S
C3861 H3836 0.951 . S
C3861 C3859 1.388 . S
C3861 C3862 1.366 . S
C3862 C3861 1.366 . S
C3862 C3863 1.414 . S
C3862 C3865 1.499 . S
C3863 H3837 0.950 . S
C3863 C3862 1.414 . S
C3863 C3864 1.374 . S
C3864 H3838 0.950 . S
C3864 C3860 1.385 . S
C3864 C3863 1.374 . S
C3865 C3862 1.499 . S
C3865 C3866 1.373 . S
C3865 C3867 1.389 . S
C3866 H3839 0.950 . S
C3866 C3852 1.377 . S
C3866 C3865 1.373 . S
C3867 C3851 1.377 . S
C3867 C3865 1.389 . S
C3867 C3868 1.524 . S
C3868 C3867 1.524 . S
C3868 C3869 1.397 . S
C3868 C3873 1.363 . S
C3869 H3840 0.950 . S
C3869 C3868 1.397 . S
C3869 C3870 1.334 . S
C3870 H3841 0.950 . S
C3870 C3869 1.334 . S
C3870 C3871 1.287 . S
C3871 C3870 1.287 . S
C3871 C3872 1.524 . S
C3871 H3874 0.999 . S
C3872 H3842 0.950 . S
C3872 C3871 1.524 . S
C3872 C3873 1.415 . S
C3873 H3843 0.950 . S
C3873 C3868 1.363 . S
C3873 C3872 1.415 . S
H3874 C3871 0.999 . S
H3875 C3856 0.913 . S
H3876 C3894 0.951 . S
H3877 C3896 0.951 . S
H3878 C3898 0.950 . S
H3879 C3899 0.950 . S
H3880 C3901 0.950 . S
H3881 C3904 0.950 . S
H3882 C3905 0.950 . S
H3883 C3907 0.950 . S
H3884 C3908 0.950 . S
H3885 C3909 0.951 . S
H3886 C3911 0.951 . S
H3887 C3913 0.950 . S
H3888 C3914 0.950 . S
H3889 C3916 0.950 . S
H3890 C3919 0.950 . S
H3891 C3920 0.950 . S
H3892 C3922 0.950 . S
H3893 C3923 0.950 . S
C3894 H3876 0.951 . S
C3894 C3895 1.366 . S
C3894 C3896 1.388 . S
C3895 C3894 1.366 . S
C3895 C3899 1.385 . S
C3896 H3877 0.951 . S
C3896 C3894 1.388 . S
C3896 C3897 1.366 . S
C3897 C3896 1.366 . S
C3897 C3898 1.414 . S
C3897 C3900 1.499 . S
C3898 H3878 0.950 . S
C3898 C3897 1.414 . S
C3898 C3899 1.374 . S
C3899 H3879 0.950 . S
C3899 C3895 1.385 . S
C3899 C3898 1.374 . S
C3900 C3897 1.499 . S
C3900 C3901 1.373 . S
C3900 C3902 1.389 . S
C3901 H3880 0.950 . S
C3901 C3900 1.373 . S
C3901 C3917 1.377 . S
C3902 C3900 1.389 . S
C3902 C3903 1.524 . S
C3902 C3916 1.377 . S
C3903 C3902 1.524 . S
C3903 C3904 1.397 . S
C3903 C3908 1.363 . S
C3904 H3881 0.950 . S
C3904 C3903 1.397 . S
C3904 C3905 1.334 . S
C3905 H3882 0.950 . S
C3905 C3904 1.334 . S
C3905 C3906 1.287 . S
C3906 C3905 1.287 . S
C3906 C3907 1.524 . S
C3906 H3925 0.913 . S
C3907 H3883 0.950 . S
C3907 C3906 1.524 . S
C3907 C3908 1.415 . S
C3908 H3884 0.950 . S
C3908 C3903 1.363 . S
C3908 C3907 1.415 . S
C3909 H3885 0.951 . S
C3909 C3910 1.366 . S
C3909 C3911 1.388 . S
C3910 C3909 1.366 . S
C3910 C3914 1.385 . S
C3911 H3886 0.951 . S
C3911 C3909 1.388 . S
C3911 C3912 1.366 . S
C3912 C3911 1.366 . S
C3912 C3913 1.414 . S
C3912 C3915 1.499 . S
C3913 H3887 0.950 . S
C3913 C3912 1.414 . S
C3913 C3914 1.374 . S
C3914 H3888 0.950 . S
C3914 C3910 1.385 . S
C3914 C3913 1.374 . S
C3915 C3912 1.499 . S
C3915 C3916 1.373 . S
C3915 C3917 1.389 . S
C3916 H3889 0.950 . S
C3916 C3902 1.377 . S
C3916 C3915 1.373 . S
C3917 C3901 1.377 . S
C3917 C3915 1.389 . S
C3917 C3918 1.524 . S
C3918 C3917 1.524 . S
C3918 C3919 1.397 . S
C3918 C3923 1.363 . S
C3919 H3890 0.950 . S
C3919 C3918 1.397 . S
C3919 C3920 1.334 . S
C3920 H3891 0.950 . S
C3920 C3919 1.334 . S
C3920 C3921 1.287 . S
C3921 C3920 1.287 . S
C3921 C3922 1.524 . S
C3921 H3924 0.999 . S
C3922 H3892 0.950 . S
C3922 C3921 1.524 . S
C3922 C3923 1.415 . S
C3923 H3893 0.950 . S
C3923 C3918 1.363 . S
C3923 C3922 1.415 . S
H3924 C3921 0.999 . S
H3925 C3906 0.913 . S
H3926 C3944 0.951 . S
H3927 C3946 0.951 . S
H3928 C3948 0.950 . S
H3929 C3949 0.950 . S
H3930 C3951 0.950 . S
H3931 C3954 0.950 . S
H3932 C3955 0.950 . S
H3933 C3957 0.950 . S
H3934 C3958 0.950 . S
H3935 C3959 0.951 . S
H3936 C3961 0.951 . S
H3937 C3963 0.950 . S
H3938 C3964 0.950 . S
H3939 C3966 0.950 . S
H3940 C3969 0.950 . S
H3941 C3970 0.950 . S
H3942 C3972 0.950 . S
H3943 C3973 0.950 . S
C3944 H3926 0.951 . S
C3944 C3945 1.366 . S
C3944 C3946 1.388 . S
C3945 C3944 1.366 . S
C3945 C3949 1.385 . S
C3946 H3927 0.951 . S
C3946 C3944 1.388 . S
C3946 C3947 1.366 . S
C3947 C3946 1.366 . S
C3947 C3948 1.414 . S
C3947 C3950 1.499 . S
C3948 H3928 0.950 . S
C3948 C3947 1.414 . S
C3948 C3949 1.374 . S
C3949 H3929 0.950 . S
C3949 C3945 1.385 . S
C3949 C3948 1.374 . S
C3950 C3947 1.499 . S
C3950 C3951 1.373 . S
C3950 C3952 1.389 . S
C3951 H3930 0.950 . S
C3951 C3950 1.373 . S
C3951 C3967 1.377 . S
C3952 C3950 1.389 . S
C3952 C3953 1.524 . S
C3952 C3966 1.377 . S
C3953 C3952 1.524 . S
C3953 C3954 1.397 . S
C3953 C3958 1.363 . S
C3954 H3931 0.950 . S
C3954 C3953 1.397 . S
C3954 C3955 1.334 . S
C3955 H3932 0.950 . S
C3955 C3954 1.334 . S
C3955 C3956 1.287 . S
C3956 C3955 1.287 . S
C3956 C3957 1.524 . S
C3956 H3975 0.913 . S
C3957 H3933 0.950 . S
C3957 C3956 1.524 . S
C3957 C3958 1.415 . S
C3958 H3934 0.950 . S
C3958 C3953 1.363 . S
C3958 C3957 1.415 . S
C3959 H3935 0.951 . S
C3959 C3960 1.366 . S
C3959 C3961 1.388 . S
C3960 C3959 1.366 . S
C3960 C3964 1.385 . S
C3961 H3936 0.951 . S
C3961 C3959 1.388 . S
C3961 C3962 1.366 . S
C3962 C3961 1.366 . S
C3962 C3963 1.414 . S
C3962 C3965 1.499 . S
C3963 H3937 0.950 . S
C3963 C3962 1.414 . S
C3963 C3964 1.374 . S
C3964 H3938 0.950 . S
C3964 C3960 1.385 . S
C3964 C3963 1.374 . S
C3965 C3962 1.499 . S
C3965 C3966 1.373 . S
C3965 C3967 1.389 . S
C3966 H3939 0.950 . S
C3966 C3952 1.377 . S
C3966 C3965 1.373 . S
C3967 C3951 1.377 . S
C3967 C3965 1.389 . S
C3967 C3968 1.524 . S
C3968 C3967 1.524 . S
C3968 C3969 1.397 . S
C3968 C3973 1.363 . S
C3969 H3940 0.950 . S
C3969 C3968 1.397 . S
C3969 C3970 1.334 . S
C3970 H3941 0.950 . S
C3970 C3969 1.334 . S
C3970 C3971 1.287 . S
C3971 C3970 1.287 . S
C3971 C3972 1.524 . S
C3971 H3974 0.999 . S
C3972 H3942 0.950 . S
C3972 C3971 1.524 . S
C3972 C3973 1.415 . S
C3973 H3943 0.950 . S
C3973 C3968 1.363 . S
C3973 C3972 1.415 . S
H3974 C3971 0.999 . S
H3975 C3956 0.913 . S
H3976 C3994 0.951 . S
H3977 C3996 0.951 . S
H3978 C3998 0.950 . S
H3979 C3999 0.950 . S
H3980 C4001 0.950 . S
H3981 C4004 0.950 . S
H3982 C4005 0.950 . S
H3983 C4007 0.950 . S
H3984 C4008 0.950 . S
H3985 C4009 0.951 . S
H3986 C4011 0.951 . S
H3987 C4013 0.950 . S
H3988 C4014 0.950 . S
H3989 C4016 0.950 . S
H3990 C4019 0.950 . S
H3991 C4020 0.950 . S
H3992 C4022 0.950 . S
H3993 C4023 0.950 . S
C3994 H3976 0.951 . S
C3994 C3995 1.366 . S
C3994 C3996 1.388 . S
C3995 C3994 1.366 . S
C3995 C3999 1.385 . S
C3996 H3977 0.951 . S
C3996 C3994 1.388 . S
C3996 C3997 1.366 . S
C3997 C3996 1.366 . S
C3997 C3998 1.414 . S
C3997 C4000 1.499 . S
C3998 H3978 0.950 . S
C3998 C3997 1.414 . S
C3998 C3999 1.374 . S
C3999 H3979 0.950 . S
C3999 C3995 1.385 . S
C3999 C3998 1.374 . S
C4000 C3997 1.499 . S
C4000 C4001 1.373 . S
C4000 C4002 1.389 . S
C4001 H3980 0.950 . S
C4001 C4000 1.373 . S
C4001 C4017 1.377 . S
C4002 C4000 1.389 . S
C4002 C4003 1.524 . S
C4002 C4016 1.377 . S
C4003 C4002 1.524 . S
C4003 C4004 1.397 . S
C4003 C4008 1.363 . S
C4004 H3981 0.950 . S
C4004 C4003 1.397 . S
C4004 C4005 1.334 . S
C4005 H3982 0.950 . S
C4005 C4004 1.334 . S
C4005 C4006 1.287 . S
C4006 C4005 1.287 . S
C4006 C4007 1.524 . S
C4006 H4025 0.913 . S
C4007 H3983 0.950 . S
C4007 C4006 1.524 . S
C4007 C4008 1.415 . S
C4008 H3984 0.950 . S
C4008 C4003 1.363 . S
C4008 C4007 1.415 . S
C4009 H3985 0.951 . S
C4009 C4010 1.366 . S
C4009 C4011 1.388 . S
C4010 C4009 1.366 . S
C4010 C4014 1.385 . S
C4011 H3986 0.951 . S
C4011 C4009 1.388 . S
C4011 C4012 1.366 . S
C4012 C4011 1.366 . S
C4012 C4013 1.414 . S
C4012 C4015 1.499 . S
C4013 H3987 0.950 . S
C4013 C4012 1.414 . S
C4013 C4014 1.374 . S
C4014 H3988 0.950 . S
C4014 C4010 1.385 . S
C4014 C4013 1.374 . S
C4015 C4012 1.499 . S
C4015 C4016 1.373 . S
C4015 C4017 1.389 . S
C4016 H3989 0.950 . S
C4016 C4002 1.377 . S
C4016 C4015 1.373 . S
C4017 C4001 1.377 . S
C4017 C4015 1.389 . S
C4017 C4018 1.524 . S
C4018 C4017 1.524 . S
C4018 C4019 1.397 . S
C4018 C4023 1.363 . S
C4019 H3990 0.950 . S
C4019 C4018 1.397 . S
C4019 C4020 1.334 . S
C4020 H3991 0.950 . S
C4020 C4019 1.334 . S
C4020 C4021 1.287 . S
C4021 C4020 1.287 . S
C4021 C4022 1.524 . S
C4021 H4024 0.999 . S
C4022 H3992 0.950 . S
C4022 C4021 1.524 . S
C4022 C4023 1.415 . S
C4023 H3993 0.950 . S
C4023 C4018 1.363 . S
C4023 C4022 1.415 . S
H4024 C4021 0.999 . S
H4025 C4006 0.913 . S
H4026 C4044 0.951 . S
H4027 C4046 0.951 . S
H4028 C4048 0.950 . S
H4029 C4049 0.950 . S
H4030 C4051 0.950 . S
H4031 C4054 0.950 . S
H4032 C4055 0.950 . S
H4033 C4057 0.950 . S
H4034 C4058 0.950 . S
H4035 C4059 0.951 . S
H4036 C4061 0.951 . S
H4037 C4063 0.950 . S
H4038 C4064 0.950 . S
H4039 C4066 0.950 . S
H4040 C4069 0.950 . S
H4041 C4070 0.950 . S
H4042 C4072 0.950 . S
H4043 C4073 0.950 . S
C4044 H4026 0.951 . S
C4044 C4045 1.366 . S
C4044 C4046 1.388 . S
C4045 C4044 1.366 . S
C4045 C4049 1.385 . S
C4046 H4027 0.951 . S
C4046 C4044 1.388 . S
C4046 C4047 1.366 . S
C4047 C4046 1.366 . S
C4047 C4048 1.414 . S
C4047 C4050 1.499 . S
C4048 H4028 0.950 . S
C4048 C4047 1.414 . S
C4048 C4049 1.374 . S
C4049 H4029 0.950 . S
C4049 C4045 1.385 . S
C4049 C4048 1.374 . S
C4050 C4047 1.499 . S
C4050 C4051 1.373 . S
C4050 C4052 1.389 . S
C4051 H4030 0.950 . S
C4051 C4050 1.373 . S
C4051 C4067 1.377 . S
C4052 C4050 1.389 . S
C4052 C4053 1.524 . S
C4052 C4066 1.377 . S
C4053 C4052 1.524 . S
C4053 C4054 1.397 . S
C4053 C4058 1.363 . S
C4054 H4031 0.950 . S
C4054 C4053 1.397 . S
C4054 C4055 1.334 . S
C4055 H4032 0.950 . S
C4055 C4054 1.334 . S
C4055 C4056 1.287 . S
C4056 C4055 1.287 . S
C4056 C4057 1.524 . S
C4056 H4075 0.913 . S
C4057 H4033 0.950 . S
C4057 C4056 1.524 . S
C4057 C4058 1.415 . S
C4058 H4034 0.950 . S
C4058 C4053 1.363 . S
C4058 C4057 1.415 . S
C4059 H4035 0.951 . S
C4059 C4060 1.366 . S
C4059 C4061 1.388 . S
C4060 C4059 1.366 . S
C4060 C4064 1.385 . S
C4061 H4036 0.951 . S
C4061 C4059 1.388 . S
C4061 C4062 1.366 . S
C4062 C4061 1.366 . S
C4062 C4063 1.414 . S
C4062 C4065 1.499 . S
C4063 H4037 0.950 . S
C4063 C4062 1.414 . S
C4063 C4064 1.374 . S
C4064 H4038 0.950 . S
C4064 C4060 1.385 . S
C4064 C4063 1.374 . S
C4065 C4062 1.499 . S
C4065 C4066 1.373 . S
C4065 C4067 1.389 . S
C4066 H4039 0.950 . S
C4066 C4052 1.377 . S
C4066 C4065 1.373 . S
C4067 C4051 1.377 . S
C4067 C4065 1.389 . S
C4067 C4068 1.524 . S
C4068 C4067 1.524 . S
C4068 C4069 1.397 . S
C4068 C4073 1.363 . S
C4069 H4040 0.950 . S
C4069 C4068 1.397 . S
C4069 C4070 1.334 . S
C4070 H4041 0.950 . S
C4070 C4069 1.334 . S
C4070 C4071 1.287 . S
C4071 C4070 1.287 . S
C4071 C4072 1.524 . S
C4071 H4074 0.999 . S
C4072 H4042 0.950 . S
C4072 C4071 1.524 . S
C4072 C4073 1.415 . S
C4073 H4043 0.950 . S
C4073 C4068 1.363 . S
C4073 C4072 1.415 . S
H4074 C4071 0.999 . S
H4075 C4056 0.913 . S
H4076 C4094 0.951 . S
H4077 C4096 0.951 . S
H4078 C4098 0.950 . S
H4079 C4099 0.950 . S
H4080 C4101 0.950 . S
H4081 C4104 0.950 . S
H4082 C4105 0.950 . S
H4083 C4107 0.950 . S
H4084 C4108 0.950 . S
H4085 C4109 0.951 . S
H4086 C4111 0.951 . S
H4087 C4113 0.950 . S
H4088 C4114 0.950 . S
H4089 C4116 0.950 . S
H4090 C4119 0.950 . S
H4091 C4120 0.950 . S
H4092 C4122 0.950 . S
H4093 C4123 0.950 . S
C4094 H4076 0.951 . S
C4094 C4095 1.366 . S
C4094 C4096 1.388 . S
C4095 C4094 1.366 . S
C4095 C4099 1.385 . S
C4096 H4077 0.951 . S
C4096 C4094 1.388 . S
C4096 C4097 1.366 . S
C4097 C4096 1.366 . S
C4097 C4098 1.414 . S
C4097 C4100 1.499 . S
C4098 H4078 0.950 . S
C4098 C4097 1.414 . S
C4098 C4099 1.374 . S
C4099 H4079 0.950 . S
C4099 C4095 1.385 . S
C4099 C4098 1.374 . S
C4100 C4097 1.499 . S
C4100 C4101 1.373 . S
C4100 C4102 1.389 . S
C4101 H4080 0.950 . S
C4101 C4100 1.373 . S
C4101 C4117 1.377 . S
C4102 C4100 1.389 . S
C4102 C4103 1.524 . S
C4102 C4116 1.377 . S
C4103 C4102 1.524 . S
C4103 C4104 1.397 . S
C4103 C4108 1.363 . S
C4104 H4081 0.950 . S
C4104 C4103 1.397 . S
C4104 C4105 1.334 . S
C4105 H4082 0.950 . S
C4105 C4104 1.334 . S
C4105 C4106 1.287 . S
C4106 C4105 1.287 . S
C4106 C4107 1.524 . S
C4106 H4125 0.913 . S
C4107 H4083 0.950 . S
C4107 C4106 1.524 . S
C4107 C4108 1.415 . S
C4108 H4084 0.950 . S
C4108 C4103 1.363 . S
C4108 C4107 1.415 . S
C4109 H4085 0.951 . S
C4109 C4110 1.366 . S
C4109 C4111 1.388 . S
C4110 C4109 1.366 . S
C4110 C4114 1.385 . S
C4111 H4086 0.951 . S
C4111 C4109 1.388 . S
C4111 C4112 1.366 . S
C4112 C4111 1.366 . S
C4112 C4113 1.414 . S
C4112 C4115 1.499 . S
C4113 H4087 0.950 . S
C4113 C4112 1.414 . S
C4113 C4114 1.374 . S
C4114 H4088 0.950 . S
C4114 C4110 1.385 . S
C4114 C4113 1.374 . S
C4115 C4112 1.499 . S
C4115 C4116 1.373 . S
C4115 C4117 1.389 . S
C4116 H4089 0.950 . S
C4116 C4102 1.377 . S
C4116 C4115 1.373 . S
C4117 C4101 1.377 . S
C4117 C4115 1.389 . S
C4117 C4118 1.524 . S
C4118 C4117 1.524 . S
C4118 C4119 1.397 . S
C4118 C4123 1.363 . S
C4119 H4090 0.950 . S
C4119 C4118 1.397 . S
C4119 C4120 1.334 . S
C4120 H4091 0.950 . S
C4120 C4119 1.334 . S
C4120 C4121 1.287 . S
C4121 C4120 1.287 . S
C4121 C4122 1.524 . S
C4121 H4124 0.999 . S
C4122 H4092 0.950 . S
C4122 C4121 1.524 . S
C4122 C4123 1.415 . S
C4123 H4093 0.950 . S
C4123 C4118 1.363 . S
C4123 C4122 1.415 . S
H4124 C4121 0.999 . S
H4125 C4106 0.913 . S
H4126 C4144 0.951 . S
H4127 C4146 0.951 . S
H4128 C4148 0.950 . S
H4129 C4149 0.950 . S
H4130 C4151 0.950 . S
H4131 C4154 0.950 . S
H4132 C4155 0.950 . S
H4133 C4157 0.950 . S
H4134 C4158 0.950 . S
H4135 C4159 0.951 . S
H4136 C4161 0.951 . S
H4137 C4163 0.950 . S
H4138 C4164 0.950 . S
H4139 C4166 0.950 . S
H4140 C4169 0.950 . S
H4141 C4170 0.950 . S
H4142 C4172 0.950 . S
H4143 C4173 0.950 . S
C4144 H4126 0.951 . S
C4144 C4145 1.366 . S
C4144 C4146 1.388 . S
C4145 C4144 1.366 . S
C4145 C4149 1.385 . S
C4146 H4127 0.951 . S
C4146 C4144 1.388 . S
C4146 C4147 1.366 . S
C4147 C4146 1.366 . S
C4147 C4148 1.414 . S
C4147 C4150 1.499 . S
C4148 H4128 0.950 . S
C4148 C4147 1.414 . S
C4148 C4149 1.374 . S
C4149 H4129 0.950 . S
C4149 C4145 1.385 . S
C4149 C4148 1.374 . S
C4150 C4147 1.499 . S
C4150 C4151 1.373 . S
C4150 C4152 1.389 . S
C4151 H4130 0.950 . S
C4151 C4150 1.373 . S
C4151 C4167 1.377 . S
C4152 C4150 1.389 . S
C4152 C4153 1.524 . S
C4152 C4166 1.377 . S
C4153 C4152 1.524 . S
C4153 C4154 1.397 . S
C4153 C4158 1.363 . S
C4154 H4131 0.950 . S
C4154 C4153 1.397 . S
C4154 C4155 1.334 . S
C4155 H4132 0.950 . S
C4155 C4154 1.334 . S
C4155 C4156 1.287 . S
C4156 C4155 1.287 . S
C4156 C4157 1.524 . S
C4156 H4175 0.913 . S
C4157 H4133 0.950 . S
C4157 C4156 1.524 . S
C4157 C4158 1.415 . S
C4158 H4134 0.950 . S
C4158 C4153 1.363 . S
C4158 C4157 1.415 . S
C4159 H4135 0.951 . S
C4159 C4160 1.366 . S
C4159 C4161 1.388 . S
C4160 C4159 1.366 . S
C4160 C4164 1.385 . S
C4161 H4136 0.951 . S
C4161 C4159 1.388 . S
C4161 C4162 1.366 . S
C4162 C4161 1.366 . S
C4162 C4163 1.414 . S
C4162 C4165 1.499 . S
C4163 H4137 0.950 . S
C4163 C4162 1.414 . S
C4163 C4164 1.374 . S
C4164 H4138 0.950 . S
C4164 C4160 1.385 . S
C4164 C4163 1.374 . S
C4165 C4162 1.499 . S
C4165 C4166 1.373 . S
C4165 C4167 1.389 . S
C4166 H4139 0.950 . S
C4166 C4152 1.377 . S
C4166 C4165 1.373 . S
C4167 C4151 1.377 . S
C4167 C4165 1.389 . S
C4167 C4168 1.524 . S
C4168 C4167 1.524 . S
C4168 C4169 1.397 . S
C4168 C4173 1.363 . S
C4169 H4140 0.950 . S
C4169 C4168 1.397 . S
C4169 C4170 1.334 . S
C4170 H4141 0.950 . S
C4170 C4169 1.334 . S
C4170 C4171 1.287 . S
C4171 C4170 1.287 . S
C4171 C4172 1.524 . S
C4171 H4174 0.999 . S
C4172 H4142 0.950 . S
C4172 C4171 1.524 . S
C4172 C4173 1.415 . S
C4173 H4143 0.950 . S
C4173 C4168 1.363 . S
C4173 C4172 1.415 . S
H4174 C4171 0.999 . S
H4175 C4156 0.913 . S
H4176 C4194 0.951 . S
H4177 C4196 0.951 . S
H4178 C4198 0.950 . S
H4179 C4199 0.950 . S
H4180 C4201 0.950 . S
H4181 C4204 0.950 . S
H4182 C4205 0.950 . S
H4183 C4207 0.950 . S
H4184 C4208 0.950 . S
H4185 C4209 0.951 . S
H4186 C4211 0.951 . S
H4187 C4213 0.950 . S
H4188 C4214 0.950 . S
H4189 C4216 0.950 . S
H4190 C4219 0.950 . S
H4191 C4220 0.950 . S
H4192 C4222 0.950 . S
H4193 C4223 0.950 . S
C4194 H4176 0.951 . S
C4194 C4195 1.366 . S
C4194 C4196 1.388 . S
C4195 C4194 1.366 . S
C4195 C4199 1.385 . S
C4196 H4177 0.951 . S
C4196 C4194 1.388 . S
C4196 C4197 1.366 . S
C4197 C4196 1.366 . S
C4197 C4198 1.414 . S
C4197 C4200 1.499 . S
C4198 H4178 0.950 . S
C4198 C4197 1.414 . S
C4198 C4199 1.374 . S
C4199 H4179 0.950 . S
C4199 C4195 1.385 . S
C4199 C4198 1.374 . S
C4200 C4197 1.499 . S
C4200 C4201 1.373 . S
C4200 C4202 1.389 . S
C4201 H4180 0.950 . S
C4201 C4200 1.373 . S
C4201 C4217 1.377 . S
C4202 C4200 1.389 . S
C4202 C4203 1.524 . S
C4202 C4216 1.377 . S
C4203 C4202 1.524 . S
C4203 C4204 1.397 . S
C4203 C4208 1.363 . S
C4204 H4181 0.950 . S
C4204 C4203 1.397 . S
C4204 C4205 1.334 . S
C4205 H4182 0.950 . S
C4205 C4204 1.334 . S
C4205 C4206 1.287 . S
C4206 C4205 1.287 . S
C4206 C4207 1.524 . S
C4206 H4225 0.913 . S
C4207 H4183 0.950 . S
C4207 C4206 1.524 . S
C4207 C4208 1.415 . S
C4208 H4184 0.950 . S
C4208 C4203 1.363 . S
C4208 C4207 1.415 . S
C4209 H4185 0.951 . S
C4209 C4210 1.366 . S
C4209 C4211 1.388 . S
C4210 C4209 1.366 . S
C4210 C4214 1.385 . S
C4211 H4186 0.951 . S
C4211 C4209 1.388 . S
C4211 C4212 1.366 . S
C4212 C4211 1.366 . S
C4212 C4213 1.414 . S
C4212 C4215 1.499 . S
C4213 H4187 0.950 . S
C4213 C4212 1.414 . S
C4213 C4214 1.374 . S
C4214 H4188 0.950 . S
C4214 C4210 1.385 . S
C4214 C4213 1.374 . S
C4215 C4212 1.499 . S
C4215 C4216 1.373 . S
C4215 C4217 1.389 . S
C4216 H4189 0.950 . S
C4216 C4202 1.377 . S
C4216 C4215 1.373 . S
C4217 C4201 1.377 . S
C4217 C4215 1.389 . S
C4217 C4218 1.524 . S
C4218 C4217 1.524 . S
C4218 C4219 1.397 . S
C4218 C4223 1.363 . S
C4219 H4190 0.950 . S
C4219 C4218 1.397 . S
C4219 C4220 1.334 . S
C4220 H4191 0.950 . S
C4220 C4219 1.334 . S
C4220 C4221 1.287 . S
C4221 C4220 1.287 . S
C4221 C4222 1.524 . S
C4221 H4224 0.999 . S
C4222 H4192 0.950 . S
C4222 C4221 1.524 . S
C4222 C4223 1.415 . S
C4223 H4193 0.950 . S
C4223 C4218 1.363 . S
C4223 C4222 1.415 . S
H4224 C4221 0.999 . S
H4225 C4206 0.913 . S
H4226 C4244 0.951 . S
H4227 C4246 0.951 . S
H4228 C4248 0.950 . S
H4229 C4249 0.950 . S
H4230 C4251 0.950 . S
H4231 C4254 0.950 . S
H4232 C4255 0.950 . S
H4233 C4257 0.950 . S
H4234 C4258 0.950 . S
H4235 C4259 0.951 . S
H4236 C4261 0.951 . S
H4237 C4263 0.950 . S
H4238 C4264 0.950 . S
H4239 C4266 0.950 . S
H4240 C4269 0.950 . S
H4241 C4270 0.950 . S
H4242 C4272 0.950 . S
H4243 C4273 0.950 . S
C4244 H4226 0.951 . S
C4244 C4245 1.366 . S
C4244 C4246 1.388 . S
C4245 C4244 1.366 . S
C4245 C4249 1.385 . S
C4246 H4227 0.951 . S
C4246 C4244 1.388 . S
C4246 C4247 1.366 . S
C4247 C4246 1.366 . S
C4247 C4248 1.414 . S
C4247 C4250 1.499 . S
C4248 H4228 0.950 . S
C4248 C4247 1.414 . S
C4248 C4249 1.374 . S
C4249 H4229 0.950 . S
C4249 C4245 1.385 . S
C4249 C4248 1.374 . S
C4250 C4247 1.499 . S
C4250 C4251 1.373 . S
C4250 C4252 1.389 . S
C4251 H4230 0.950 . S
C4251 C4250 1.373 . S
C4251 C4267 1.377 . S
C4252 C4250 1.389 . S
C4252 C4253 1.524 . S
C4252 C4266 1.377 . S
C4253 C4252 1.524 . S
C4253 C4254 1.397 . S
C4253 C4258 1.363 . S
C4254 H4231 0.950 . S
C4254 C4253 1.397 . S
C4254 C4255 1.334 . S
C4255 H4232 0.950 . S
C4255 C4254 1.334 . S
C4255 C4256 1.287 . S
C4256 C4255 1.287 . S
C4256 C4257 1.524 . S
C4256 H4275 0.913 . S
C4257 H4233 0.950 . S
C4257 C4256 1.524 . S
C4257 C4258 1.415 . S
C4258 H4234 0.950 . S
C4258 C4253 1.363 . S
C4258 C4257 1.415 . S
C4259 H4235 0.951 . S
C4259 C4260 1.366 . S
C4259 C4261 1.388 . S
C4260 C4259 1.366 . S
C4260 C4264 1.385 . S
C4261 H4236 0.951 . S
C4261 C4259 1.388 . S
C4261 C4262 1.366 . S
C4262 C4261 1.366 . S
C4262 C4263 1.414 . S
C4262 C4265 1.499 . S
C4263 H4237 0.950 . S
C4263 C4262 1.414 . S
C4263 C4264 1.374 . S
C4264 H4238 0.950 . S
C4264 C4260 1.385 . S
C4264 C4263 1.374 . S
C4265 C4262 1.499 . S
C4265 C4266 1.373 . S
C4265 C4267 1.389 . S
C4266 H4239 0.950 . S
C4266 C4252 1.377 . S
C4266 C4265 1.373 . S
C4267 C4251 1.377 . S
C4267 C4265 1.389 . S
C4267 C4268 1.524 . S
C4268 C4267 1.524 . S
C4268 C4269 1.397 . S
C4268 C4273 1.363 . S
C4269 H4240 0.950 . S
C4269 C4268 1.397 . S
C4269 C4270 1.334 . S
C4270 H4241 0.950 . S
C4270 C4269 1.334 . S
C4270 C4271 1.287 . S
C4271 C4270 1.287 . S
C4271 C4272 1.524 . S
C4271 H4274 0.999 . S
C4272 H4242 0.950 . S
C4272 C4271 1.524 . S
C4272 C4273 1.415 . S
C4273 H4243 0.950 . S
C4273 C4268 1.363 . S
C4273 C4272 1.415 . S
H4274 C4271 0.999 . S
H4275 C4256 0.913 . S
H4276 C4294 0.951 . S
H4277 C4296 0.951 . S
H4278 C4298 0.950 . S
H4279 C4299 0.950 . S
H4280 C4301 0.950 . S
H4281 C4304 0.950 . S
H4282 C4305 0.950 . S
H4283 C4307 0.950 . S
H4284 C4308 0.950 . S
H4285 C4309 0.951 . S
H4286 C4311 0.951 . S
H4287 C4313 0.950 . S
H4288 C4314 0.950 . S
H4289 C4316 0.950 . S
H4290 C4319 0.950 . S
H4291 C4320 0.950 . S
H4292 C4322 0.950 . S
H4293 C4323 0.950 . S
C4294 H4276 0.951 . S
C4294 C4295 1.366 . S
C4294 C4296 1.388 . S
C4295 C4294 1.366 . S
C4295 C4299 1.385 . S
C4296 H4277 0.951 . S
C4296 C4294 1.388 . S
C4296 C4297 1.366 . S
C4297 C4296 1.366 . S
C4297 C4298 1.414 . S
C4297 C4300 1.499 . S
C4298 H4278 0.950 . S
C4298 C4297 1.414 . S
C4298 C4299 1.374 . S
C4299 H4279 0.950 . S
C4299 C4295 1.385 . S
C4299 C4298 1.374 . S
C4300 C4297 1.499 . S
C4300 C4301 1.373 . S
C4300 C4302 1.389 . S
C4301 H4280 0.950 . S
C4301 C4300 1.373 . S
C4301 C4317 1.377 . S
C4302 C4300 1.389 . S
C4302 C4303 1.524 . S
C4302 C4316 1.377 . S
C4303 C4302 1.524 . S
C4303 C4304 1.397 . S
C4303 C4308 1.363 . S
C4304 H4281 0.950 . S
C4304 C4303 1.397 . S
C4304 C4305 1.334 . S
C4305 H4282 0.950 . S
C4305 C4304 1.334 . S
C4305 C4306 1.287 . S
C4306 C4305 1.287 . S
C4306 C4307 1.524 . S
C4306 H4325 0.913 . S
C4307 H4283 0.950 . S
C4307 C4306 1.524 . S
C4307 C4308 1.415 . S
C4308 H4284 0.950 . S
C4308 C4303 1.363 . S
C4308 C4307 1.415 . S
C4309 H4285 0.951 . S
C4309 C4310 1.366 . S
C4309 C4311 1.388 . S
C4310 C4309 1.366 . S
C4310 C4314 1.385 . S
C4311 H4286 0.951 . S
C4311 C4309 1.388 . S
C4311 C4312 1.366 . S
C4312 C4311 1.366 . S
C4312 C4313 1.414 . S
C4312 C4315 1.499 . S
C4313 H4287 0.950 . S
C4313 C4312 1.414 . S
C4313 C4314 1.374 . S
C4314 H4288 0.950 . S
C4314 C4310 1.385 . S
C4314 C4313 1.374 . S
C4315 C4312 1.499 . S
C4315 C4316 1.373 . S
C4315 C4317 1.389 . S
C4316 H4289 0.950 . S
C4316 C4302 1.377 . S
C4316 C4315 1.373 . S
C4317 C4301 1.377 . S
C4317 C4315 1.389 . S
C4317 C4318 1.524 . S
C4318 C4317 1.524 . S
C4318 C4319 1.397 . S
C4318 C4323 1.363 . S
C4319 H4290 0.950 . S
C4319 C4318 1.397 . S
C4319 C4320 1.334 . S
C4320 H4291 0.950 . S
C4320 C4319 1.334 . S
C4320 C4321 1.287 . S
C4321 C4320 1.287 . S
C4321 C4322 1.524 . S
C4321 H4324 0.999 . S
C4322 H4292 0.950 . S
C4322 C4321 1.524 . S
C4322 C4323 1.415 . S
C4323 H4293 0.950 . S
C4323 C4318 1.363 . S
C4323 C4322 1.415 . S
H4324 C4321 0.999 . S
H4325 C4306 0.913 . S
H4326 C4344 0.951 . S
H4327 C4346 0.964 . S
H4328 C4348 0.950 . S
H4329 C4349 0.950 . S
H4330 C4351 0.950 . S
H4331 C4354 0.950 . S
H4332 C4355 0.950 . S
H4333 C4357 0.950 . S
H4334 C4358 0.950 . S
H4335 C4359 0.951 . S
H4336 C4361 0.951 . S
H4337 C4363 0.950 1_556 S
H4338 C4364 0.950 1_566 S
H4339 C4366 0.950 . S
H4340 C4369 0.950 1_556 S
H4341 C4370 0.950 1_556 S
H4342 C4372 0.950 . S
H4343 C4373 0.950 . S
C4344 H4326 0.951 . S
C4344 C4345 1.366 1_556 S
C4344 C4346 1.386 . S
C4345 C4344 1.366 1_554 S
C4345 C4349 1.385 . S
C4346 H4327 0.964 . S
C4346 C4344 1.386 . S
C4346 C4347 1.354 1_556 S
C4347 C4346 1.354 1_554 S
C4347 C4348 1.414 . S
C4347 C4350 1.499 . S
C4348 H4328 0.950 . S
C4348 C4347 1.414 . S
C4348 C4349 1.374 . S
C4349 H4329 0.950 . S
C4349 C4345 1.385 . S
C4349 C4348 1.374 . S
C4350 C4347 1.499 . S
C4350 C4351 1.373 . S
C4350 C4352 1.389 . S
C4351 H4330 0.950 . S
C4351 C4350 1.373 . S
C4351 C4367 1.377 . S
C4352 C4350 1.389 . S
C4352 C4353 1.524 . S
C4352 C4366 1.377 . S
C4353 C4352 1.524 . S
C4353 C4354 1.397 . S
C4353 C4358 1.363 1_554 S
C4354 H4331 0.950 . S
C4354 C4353 1.397 . S
C4354 C4355 1.334 . S
C4355 H4332 0.950 . S
C4355 C4354 1.334 . S
C4355 C4356 1.287 . S
C4356 C4355 1.287 . S
C4356 C4357 1.524 1_554 S
C4356 H4375 0.913 . S
C4357 H4333 0.950 . S
C4357 C4356 1.524 1_556 S
C4357 C4358 1.415 . S
C4358 H4334 0.950 . S
C4358 C4353 1.363 1_556 S
C4358 C4357 1.415 . S
C4359 H4335 0.951 . S
C4359 C4360 1.366 . S
C4359 C4361 1.388 . S
C4360 C4359 1.366 . S
C4360 C4364 1.385 . S
C4361 H4336 0.951 . S
C4361 C4359 1.388 . S
C4361 C4362 1.366 1_545 S
C4362 C4361 1.366 1_565 S
C4362 C4363 1.414 . S
C4362 C4365 1.499 . S
C4363 H4337 0.950 1_554 S
C4363 C4362 1.414 . S
C4363 C4364 1.374 1_565 S
C4364 H4338 0.950 1_544 S
C4364 C4360 1.385 . S
C4364 C4363 1.374 1_545 S
C4365 C4362 1.499 . S
C4365 C4366 1.373 . S
C4365 C4367 1.389 . S
C4366 H4339 0.950 . S
C4366 C4352 1.377 . S
C4366 C4365 1.373 . S
C4367 C4351 1.377 . S
C4367 C4365 1.389 . S
C4367 C4368 1.524 1_565 S
C4368 C4367 1.524 1_545 S
C4368 C4369 1.397 . S
C4368 C4373 1.363 . S
C4369 H4340 0.950 1_554 S
C4369 C4368 1.397 . S
C4369 C4370 1.334 . S
C4370 H4341 0.950 1_554 S
C4370 C4369 1.334 . S
C4370 C4371 1.287 . S
C4371 C4370 1.287 . S
C4371 C4372 1.524 . S
C4371 H4374 0.999 . S
C4372 H4342 0.950 . S
C4372 C4371 1.524 . S
C4372 C4373 1.415 . S
C4373 H4343 0.950 . S
C4373 C4368 1.363 . S
C4373 C4372 1.415 . S
H4374 C4371 0.999 . S
H4375 C4356 0.913 . S
H4376 C4394 0.951 . S
H4377 C4396 0.951 . S
H4378 C4398 0.950 . S
H4379 C4399 0.950 . S
H4380 C4401 0.950 . S
H4381 C4404 0.950 . S
H4382 C4405 0.950 . S
H4383 C4407 0.950 . S
H4384 C4408 0.950 . S
H4385 C4409 0.951 . S
H4386 C4411 0.951 . S
H4387 C4413 0.950 . S
H4388 C4414 0.950 . S
H4389 C4416 0.950 . S
H4390 C4419 0.950 . S
H4391 C4420 0.950 . S
H4392 C4422 0.950 . S
H4393 C4423 0.950 . S
C4394 H4376 0.951 . S
C4394 C4395 1.366 . S
C4394 C4396 1.388 . S
C4395 C4394 1.366 . S
C4395 C4399 1.385 . S
C4396 H4377 0.951 . S
C4396 C4394 1.388 . S
C4396 C4397 1.366 . S
C4397 C4396 1.366 . S
C4397 C4398 1.414 . S
C4397 C4400 1.499 . S
C4398 H4378 0.950 . S
C4398 C4397 1.414 . S
C4398 C4399 1.374 . S
C4399 H4379 0.950 . S
C4399 C4395 1.385 . S
C4399 C4398 1.374 . S
C4400 C4397 1.499 . S
C4400 C4401 1.373 . S
C4400 C4402 1.389 . S
C4401 H4380 0.950 . S
C4401 C4400 1.373 . S
C4401 C4417 1.377 . S
C4402 C4400 1.389 . S
C4402 C4403 1.524 . S
C4402 C4416 1.377 . S
C4403 C4402 1.524 . S
C4403 C4404 1.397 . S
C4403 C4408 1.363 . S
C4404 H4381 0.950 . S
C4404 C4403 1.397 . S
C4404 C4405 1.334 . S
C4405 H4382 0.950 . S
C4405 C4404 1.334 . S
C4405 C4406 1.287 . S
C4406 C4405 1.287 . S
C4406 C4407 1.524 . S
C4406 H4425 0.913 . S
C4407 H4383 0.950 . S
C4407 C4406 1.524 . S
C4407 C4408 1.415 . S
C4408 H4384 0.950 . S
C4408 C4403 1.363 . S
C4408 C4407 1.415 . S
C4409 H4385 0.951 . S
C4409 C4410 1.366 . S
C4409 C4411 1.388 . S
C4410 C4409 1.366 . S
C4410 C4414 1.385 . S
C4411 H4386 0.951 . S
C4411 C4409 1.388 . S
C4411 C4412 1.366 . S
C4412 C4411 1.366 . S
C4412 C4413 1.414 . S
C4412 C4415 1.499 . S
C4413 H4387 0.950 . S
C4413 C4412 1.414 . S
C4413 C4414 1.374 . S
C4414 H4388 0.950 . S
C4414 C4410 1.385 . S
C4414 C4413 1.374 . S
C4415 C4412 1.499 . S
C4415 C4416 1.373 . S
C4415 C4417 1.389 . S
C4416 H4389 0.950 . S
C4416 C4402 1.377 . S
C4416 C4415 1.373 . S
C4417 C4401 1.377 . S
C4417 C4415 1.389 . S
C4417 C4418 1.524 . S
C4418 C4417 1.524 . S
C4418 C4419 1.397 . S
C4418 C4423 1.363 . S
C4419 H4390 0.950 . S
C4419 C4418 1.397 . S
C4419 C4420 1.334 . S
C4420 H4391 0.950 . S
C4420 C4419 1.334 . S
C4420 C4421 1.287 . S
C4421 C4420 1.287 . S
C4421 C4422 1.524 . S
C4421 H4424 0.999 . S
C4422 H4392 0.950 . S
C4422 C4421 1.524 . S
C4422 C4423 1.415 . S
C4423 H4393 0.950 . S
C4423 C4418 1.363 . S
C4423 C4422 1.415 . S
H4424 C4421 0.999 . S
H4425 C4406 0.913 . S
H4426 C4444 0.951 . S
H4427 C4446 0.951 . S
H4428 C4448 0.950 . S
H4429 C4449 0.950 . S
H4430 C4451 0.950 . S
H4431 C4454 0.950 1_554 S
H4432 C4455 0.950 . S
H4433 C4457 0.950 . S
H4434 C4458 0.950 . S
H4435 C4459 0.951 . S
H4436 C4461 0.951 . S
H4437 C4463 0.950 . S
H4438 C4464 0.950 . S
H4439 C4466 0.950 . S
H4440 C4469 0.950 . S
H4441 C4470 0.950 . S
H4442 C4472 0.950 . S
H4443 C4473 0.950 . S
C4444 H4426 0.951 . S
C4444 C4445 1.366 . S
C4444 C4446 1.388 . S
C4445 C4444 1.366 . S
C4445 C4449 1.385 . S
C4446 H4427 0.951 . S
C4446 C4444 1.388 . S
C4446 C4447 1.366 . S
C4447 C4446 1.366 . S
C4447 C4448 1.414 . S
C4447 C4450 1.499 . S
C4448 H4428 0.950 . S
C4448 C4447 1.414 . S
C4448 C4449 1.374 . S
C4449 H4429 0.950 . S
C4449 C4445 1.385 . S
C4449 C4448 1.374 . S
C4450 C4447 1.499 . S
C4450 C4451 1.373 . S
C4450 C4452 1.389 . S
C4451 H4430 0.950 . S
C4451 C4450 1.373 . S
C4451 C4467 1.377 . S
C4452 C4450 1.389 . S
C4452 C4453 1.555 . S
C4452 C4466 1.377 . S
C4453 C4452 1.555 . S
C4453 C4454 1.393 1_554 S
C4453 C4458 1.339 1_554 S
C4454 H4431 0.950 1_556 S
C4454 C4453 1.393 1_556 S
C4454 C4455 1.334 . S
C4455 H4432 0.950 . S
C4455 C4454 1.334 . S
C4455 C4456 1.287 . S
C4456 C4455 1.287 . S
C4456 C4457 1.524 . S
C4456 H4475 0.913 . S
C4457 H4433 0.950 . S
C4457 C4456 1.524 . S
C4457 C4458 1.415 . S
C4458 H4434 0.950 . S
C4458 C4453 1.339 1_556 S
C4458 C4457 1.415 . S
C4459 H4435 0.951 . S
C4459 C4460 1.366 . S
C4459 C4461 1.388 . S
C4460 C4459 1.366 . S
C4460 C4464 1.385 . S
C4461 H4436 0.951 . S
C4461 C4459 1.388 . S
C4461 C4462 1.366 . S
C4462 C4461 1.366 . S
C4462 C4463 1.414 . S
C4462 C4465 1.499 . S
C4463 H4437 0.950 . S
C4463 C4462 1.414 . S
C4463 C4464 1.374 . S
C4464 H4438 0.950 . S
C4464 C4460 1.385 . S
C4464 C4463 1.374 . S
C4465 C4462 1.499 . S
C4465 C4466 1.373 . S
C4465 C4467 1.389 . S
C4466 H4439 0.950 . S
C4466 C4452 1.377 . S
C4466 C4465 1.373 . S
C4467 C4451 1.377 . S
C4467 C4465 1.389 . S
C4467 C4468 1.524 . S
C4468 C4467 1.524 . S
C4468 C4469 1.397 . S
C4468 C4473 1.363 . S
C4469 H4440 0.950 . S
C4469 C4468 1.397 . S
C4469 C4470 1.334 . S
C4470 H4441 0.950 . S
C4470 C4469 1.334 . S
C4470 C4471 1.287 . S
C4471 C4470 1.287 . S
C4471 C4472 1.524 . S
C4471 H4474 0.999 . S
C4472 H4442 0.950 . S
C4472 C4471 1.524 . S
C4472 C4473 1.415 . S
C4473 H4443 0.950 . S
C4473 C4468 1.363 . S
C4473 C4472 1.415 . S
H4474 C4471 0.999 . S
H4475 C4456 0.913 . S
H4476 C4494 0.951 . S
H4477 C4496 0.951 . S
H4478 C4498 0.950 . S
H4479 C4499 0.950 . S
H4480 C4501 0.950 . S
H4481 C4504 0.950 . S
H4482 C4505 0.950 . S
H4483 C4507 0.950 . S
H4484 C4508 0.950 . S
H4485 C4509 0.951 . S
H4486 C4511 0.951 . S
H4487 C4513 0.950 . S
H4488 C4514 0.950 . S
H4489 C4516 0.950 . S
H4490 C4519 0.950 . S
H4491 C4520 0.950 . S
H4492 C4522 0.950 . S
H4493 C4523 0.950 . S
C4494 H4476 0.951 . S
C4494 C4495 1.366 . S
C4494 C4496 1.388 . S
C4495 C4494 1.366 . S
C4495 C4499 1.385 . S
C4496 H4477 0.951 . S
C4496 C4494 1.388 . S
C4496 C4497 1.366 . S
C4497 C4496 1.366 . S
C4497 C4498 1.414 . S
C4497 C4500 1.499 . S
C4498 H4478 0.950 . S
C4498 C4497 1.414 . S
C4498 C4499 1.374 . S
C4499 H4479 0.950 . S
C4499 C4495 1.385 . S
C4499 C4498 1.374 . S
C4500 C4497 1.499 . S
C4500 C4501 1.373 . S
C4500 C4502 1.389 . S
C4501 H4480 0.950 . S
C4501 C4500 1.373 . S
C4501 C4517 1.377 . S
C4502 C4500 1.389 . S
C4502 C4503 1.524 . S
C4502 C4516 1.377 . S
C4503 C4502 1.524 . S
C4503 C4504 1.397 . S
C4503 C4508 1.363 . S
C4504 H4481 0.950 . S
C4504 C4503 1.397 . S
C4504 C4505 1.334 . S
C4505 H4482 0.950 . S
C4505 C4504 1.334 . S
C4505 C4506 1.287 . S
C4506 C4505 1.287 . S
C4506 C4507 1.524 . S
C4506 H4525 0.913 . S
C4507 H4483 0.950 . S
C4507 C4506 1.524 . S
C4507 C4508 1.415 . S
C4508 H4484 0.950 . S
C4508 C4503 1.363 . S
C4508 C4507 1.415 . S
C4509 H4485 0.951 . S
C4509 C4510 1.366 . S
C4509 C4511 1.388 . S
C4510 C4509 1.366 . S
C4510 C4514 1.385 . S
C4511 H4486 0.951 . S
C4511 C4509 1.388 . S
C4511 C4512 1.366 . S
C4512 C4511 1.366 . S
C4512 C4513 1.414 . S
C4512 C4515 1.499 . S
C4513 H4487 0.950 . S
C4513 C4512 1.414 . S
C4513 C4514 1.374 . S
C4514 H4488 0.950 . S
C4514 C4510 1.385 . S
C4514 C4513 1.374 . S
C4515 C4512 1.499 . S
C4515 C4516 1.373 . S
C4515 C4517 1.389 . S
C4516 H4489 0.950 . S
C4516 C4502 1.377 . S
C4516 C4515 1.373 . S
C4517 C4501 1.377 . S
C4517 C4515 1.389 . S
C4517 C4518 1.524 . S
C4518 C4517 1.524 . S
C4518 C4519 1.397 . S
C4518 C4523 1.363 . S
C4519 H4490 0.950 . S
C4519 C4518 1.397 . S
C4519 C4520 1.334 . S
C4520 H4491 0.950 . S
C4520 C4519 1.334 . S
C4520 C4521 1.287 . S
C4521 C4520 1.287 . S
C4521 C4522 1.524 . S
C4521 H4524 0.999 . S
C4522 H4492 0.950 . S
C4522 C4521 1.524 . S
C4522 C4523 1.415 . S
C4523 H4493 0.950 . S
C4523 C4518 1.363 . S
C4523 C4522 1.415 . S
H4524 C4521 0.999 . S
H4525 C4506 0.913 . S
H4526 C4544 0.951 . S
H4527 C4546 0.951 . S
H4528 C4548 0.950 . S
H4529 C4549 0.950 . S
H4530 C4551 0.950 . S
H4531 C4554 0.950 . S
H4532 C4555 0.950 . S
H4533 C4557 0.950 . S
H4534 C4558 0.950 . S
H4535 C4559 0.951 . S
H4536 C4561 0.951 . S
H4537 C4563 0.950 . S
H4538 C4564 0.950 . S
H4539 C4566 0.950 . S
H4540 C4569 0.950 . S
H4541 C4570 0.950 . S
H4542 C4572 0.950 . S
H4543 C4573 0.950 . S
C4544 H4526 0.951 . S
C4544 C4545 1.366 . S
C4544 C4546 1.388 . S
C4545 C4544 1.366 . S
C4545 C4549 1.385 . S
C4546 H4527 0.951 . S
C4546 C4544 1.388 . S
C4546 C4547 1.366 . S
C4547 C4546 1.366 . S
C4547 C4548 1.414 . S
C4547 C4550 1.499 . S
C4548 H4528 0.950 . S
C4548 C4547 1.414 . S
C4548 C4549 1.374 . S
C4549 H4529 0.950 . S
C4549 C4545 1.385 . S
C4549 C4548 1.374 . S
C4550 C4547 1.499 . S
C4550 C4551 1.373 . S
C4550 C4552 1.389 . S
C4551 H4530 0.950 . S
C4551 C4550 1.373 . S
C4551 C4567 1.377 . S
C4552 C4550 1.389 . S
C4552 C4553 1.524 . S
C4552 C4566 1.377 . S
C4553 C4552 1.524 . S
C4553 C4554 1.397 . S
C4553 C4558 1.363 . S
C4554 H4531 0.950 . S
C4554 C4553 1.397 . S
C4554 C4555 1.334 . S
C4555 H4532 0.950 . S
C4555 C4554 1.334 . S
C4555 C4556 1.287 . S
C4556 C4555 1.287 . S
C4556 C4557 1.524 . S
C4556 H4575 0.913 . S
C4557 H4533 0.950 . S
C4557 C4556 1.524 . S
C4557 C4558 1.415 . S
C4558 H4534 0.950 . S
C4558 C4553 1.363 . S
C4558 C4557 1.415 . S
C4559 H4535 0.951 . S
C4559 C4560 1.366 . S
C4559 C4561 1.388 . S
C4560 C4559 1.366 . S
C4560 C4564 1.385 . S
C4561 H4536 0.951 . S
C4561 C4559 1.388 . S
C4561 C4562 1.366 . S
C4562 C4561 1.366 . S
C4562 C4563 1.414 . S
C4562 C4565 1.499 . S
C4563 H4537 0.950 . S
C4563 C4562 1.414 . S
C4563 C4564 1.374 . S
C4564 H4538 0.950 . S
C4564 C4560 1.385 . S
C4564 C4563 1.374 . S
C4565 C4562 1.499 . S
C4565 C4566 1.373 . S
C4565 C4567 1.389 . S
C4566 H4539 0.950 . S
C4566 C4552 1.377 . S
C4566 C4565 1.373 . S
C4567 C4551 1.377 . S
C4567 C4565 1.389 . S
C4567 C4568 1.524 . S
C4568 C4567 1.524 . S
C4568 C4569 1.397 . S
C4568 C4573 1.363 . S
C4569 H4540 0.950 . S
C4569 C4568 1.397 . S
C4569 C4570 1.334 . S
C4570 H4541 0.950 . S
C4570 C4569 1.334 . S
C4570 C4571 1.287 . S
C4571 C4570 1.287 . S
C4571 C4572 1.524 . S
C4571 H4574 0.999 . S
C4572 H4542 0.950 . S
C4572 C4571 1.524 . S
C4572 C4573 1.415 . S
C4573 H4543 0.950 . S
C4573 C4568 1.363 . S
C4573 C4572 1.415 . S
H4574 C4571 0.999 . S
H4575 C4556 0.913 . S
H4576 C4594 0.951 . S
H4577 C4596 0.951 . S
H4578 C4598 0.950 . S
H4579 C4599 0.950 . S
H4580 C4601 0.950 . S
H4581 C4604 0.950 . S
H4582 C4605 0.950 . S
H4583 C4607 0.950 . S
H4584 C4608 0.950 . S
H4585 C4609 0.951 . S
H4586 C4611 0.951 . S
H4587 C4613 0.950 . S
H4588 C4614 0.950 . S
H4589 C4616 0.950 . S
H4590 C4619 0.950 . S
H4591 C4620 0.950 . S
H4592 C4622 0.950 . S
H4593 C4623 0.950 . S
C4594 H4576 0.951 . S
C4594 C4595 1.366 . S
C4594 C4596 1.388 . S
C4595 C4594 1.366 . S
C4595 C4599 1.385 . S
C4596 H4577 0.951 . S
C4596 C4594 1.388 . S
C4596 C4597 1.366 . S
C4597 C4596 1.366 . S
C4597 C4598 1.414 . S
C4597 C4600 1.499 . S
C4598 H4578 0.950 . S
C4598 C4597 1.414 . S
C4598 C4599 1.374 . S
C4599 H4579 0.950 . S
C4599 C4595 1.385 . S
C4599 C4598 1.374 . S
C4600 C4597 1.499 . S
C4600 C4601 1.373 . S
C4600 C4602 1.389 . S
C4601 H4580 0.950 . S
C4601 C4600 1.373 . S
C4601 C4617 1.377 . S
C4602 C4600 1.389 . S
C4602 C4603 1.524 . S
C4602 C4616 1.377 . S
C4603 C4602 1.524 . S
C4603 C4604 1.397 . S
C4603 C4608 1.363 . S
C4604 H4581 0.950 . S
C4604 C4603 1.397 . S
C4604 C4605 1.334 . S
C4605 H4582 0.950 . S
C4605 C4604 1.334 . S
C4605 C4606 1.287 . S
C4606 C4605 1.287 . S
C4606 C4607 1.524 . S
C4606 H4625 0.913 . S
C4607 H4583 0.950 . S
C4607 C4606 1.524 . S
C4607 C4608 1.415 . S
C4608 H4584 0.950 . S
C4608 C4603 1.363 . S
C4608 C4607 1.415 . S
C4609 H4585 0.951 . S
C4609 C4610 1.366 . S
C4609 C4611 1.388 . S
C4610 C4609 1.366 . S
C4610 C4614 1.385 . S
C4611 H4586 0.951 . S
C4611 C4609 1.388 . S
C4611 C4612 1.366 . S
C4612 C4611 1.366 . S
C4612 C4613 1.414 . S
C4612 C4615 1.499 . S
C4613 H4587 0.950 . S
C4613 C4612 1.414 . S
C4613 C4614 1.374 . S
C4614 H4588 0.950 . S
C4614 C4610 1.385 . S
C4614 C4613 1.374 . S
C4615 C4612 1.499 . S
C4615 C4616 1.373 . S
C4615 C4617 1.389 . S
C4616 H4589 0.950 . S
C4616 C4602 1.377 . S
C4616 C4615 1.373 . S
C4617 C4601 1.377 . S
C4617 C4615 1.389 . S
C4617 C4618 1.524 . S
C4618 C4617 1.524 . S
C4618 C4619 1.397 . S
C4618 C4623 1.363 . S
C4619 H4590 0.950 . S
C4619 C4618 1.397 . S
C4619 C4620 1.334 . S
C4620 H4591 0.950 . S
C4620 C4619 1.334 . S
C4620 C4621 1.287 . S
C4621 C4620 1.287 . S
C4621 C4622 1.524 . S
C4621 H4624 0.999 . S
C4622 H4592 0.950 . S
C4622 C4621 1.524 . S
C4622 C4623 1.415 . S
C4623 H4593 0.950 . S
C4623 C4618 1.363 . S
C4623 C4622 1.415 . S
H4624 C4621 0.999 . S
H4625 C4606 0.913 . S
H4626 C4644 0.951 . S
H4627 C4646 0.951 . S
H4628 C4648 0.950 . S
H4629 C4649 0.950 . S
H4630 C4651 0.950 . S
H4631 C4654 0.950 . S
H4632 C4655 0.950 . S
H4633 C4657 0.950 . S
H4634 C4658 0.950 . S
H4635 C4659 0.951 . S
H4636 C4661 0.951 . S
H4637 C4663 0.950 . S
H4638 C4664 0.950 . S
H4639 C4666 0.950 . S
H4640 C4669 0.950 . S
H4641 C4670 0.950 . S
H4642 C4672 0.950 . S
H4643 C4673 0.950 . S
C4644 H4626 0.951 . S
C4644 C4645 1.366 . S
C4644 C4646 1.388 . S
C4645 C4644 1.366 . S
C4645 C4649 1.385 . S
C4646 H4627 0.951 . S
C4646 C4644 1.388 . S
C4646 C4647 1.366 . S
C4647 C4646 1.366 . S
C4647 C4648 1.414 . S
C4647 C4650 1.499 . S
C4648 H4628 0.950 . S
C4648 C4647 1.414 . S
C4648 C4649 1.374 . S
C4649 H4629 0.950 . S
C4649 C4645 1.385 . S
C4649 C4648 1.374 . S
C4650 C4647 1.499 . S
C4650 C4651 1.373 . S
C4650 C4652 1.389 . S
C4651 H4630 0.950 . S
C4651 C4650 1.373 . S
C4651 C4667 1.377 . S
C4652 C4650 1.389 . S
C4652 C4653 1.524 . S
C4652 C4666 1.377 . S
C4653 C4652 1.524 . S
C4653 C4654 1.397 . S
C4653 C4658 1.363 . S
C4654 H4631 0.950 . S
C4654 C4653 1.397 . S
C4654 C4655 1.334 . S
C4655 H4632 0.950 . S
C4655 C4654 1.334 . S
C4655 C4656 1.287 . S
C4656 C4655 1.287 . S
C4656 C4657 1.524 . S
C4656 H4675 0.913 . S
C4657 H4633 0.950 . S
C4657 C4656 1.524 . S
C4657 C4658 1.415 . S
C4658 H4634 0.950 . S
C4658 C4653 1.363 . S
C4658 C4657 1.415 . S
C4659 H4635 0.951 . S
C4659 C4660 1.366 . S
C4659 C4661 1.388 . S
C4660 C4659 1.366 . S
C4660 C4664 1.385 . S
C4661 H4636 0.951 . S
C4661 C4659 1.388 . S
C4661 C4662 1.366 . S
C4662 C4661 1.366 . S
C4662 C4663 1.414 . S
C4662 C4665 1.499 . S
C4663 H4637 0.950 . S
C4663 C4662 1.414 . S
C4663 C4664 1.374 . S
C4664 H4638 0.950 . S
C4664 C4660 1.385 . S
C4664 C4663 1.374 . S
C4665 C4662 1.499 . S
C4665 C4666 1.373 . S
C4665 C4667 1.389 . S
C4666 H4639 0.950 . S
C4666 C4652 1.377 . S
C4666 C4665 1.373 . S
C4667 C4651 1.377 . S
C4667 C4665 1.389 . S
C4667 C4668 1.524 . S
C4668 C4667 1.524 . S
C4668 C4669 1.397 . S
C4668 C4673 1.363 . S
C4669 H4640 0.950 . S
C4669 C4668 1.397 . S
C4669 C4670 1.334 . S
C4670 H4641 0.950 . S
C4670 C4669 1.334 . S
C4670 C4671 1.287 . S
C4671 C4670 1.287 . S
C4671 C4672 1.524 . S
C4671 H4674 0.999 . S
C4672 H4642 0.950 . S
C4672 C4671 1.524 . S
C4672 C4673 1.415 . S
C4673 H4643 0.950 . S
C4673 C4668 1.363 . S
C4673 C4672 1.415 . S
H4674 C4671 0.999 . S
H4675 C4656 0.913 . S
H4676 C4694 0.951 . S
H4677 C4696 0.951 . S
H4678 C4698 0.950 . S
H4679 C4699 0.950 . S
H4680 C4701 0.950 . S
H4681 C4704 0.950 . S
H4682 C4705 0.950 . S
H4683 C4707 0.950 . S
H4684 C4708 0.950 . S
H4685 C4709 0.951 . S
H4686 C4711 0.951 . S
H4687 C4713 0.950 . S
H4688 C4714 0.950 . S
H4689 C4716 0.950 . S
H4690 C4719 0.950 . S
H4691 C4720 0.950 . S
H4692 C4722 0.950 . S
H4693 C4723 0.950 . S
C4694 H4676 0.951 . S
C4694 C4695 1.366 . S
C4694 C4696 1.388 . S
C4695 C4694 1.366 . S
C4695 C4699 1.385 . S
C4696 H4677 0.951 . S
C4696 C4694 1.388 . S
C4696 C4697 1.366 . S
C4697 C4696 1.366 . S
C4697 C4698 1.414 . S
C4697 C4700 1.499 . S
C4698 H4678 0.950 . S
C4698 C4697 1.414 . S
C4698 C4699 1.374 . S
C4699 H4679 0.950 . S
C4699 C4695 1.385 . S
C4699 C4698 1.374 . S
C4700 C4697 1.499 . S
C4700 C4701 1.373 . S
C4700 C4702 1.389 . S
C4701 H4680 0.950 . S
C4701 C4700 1.373 . S
C4701 C4717 1.377 . S
C4702 C4700 1.389 . S
C4702 C4703 1.524 . S
C4702 C4716 1.377 . S
C4703 C4702 1.524 . S
C4703 C4704 1.397 . S
C4703 C4708 1.363 . S
C4704 H4681 0.950 . S
C4704 C4703 1.397 . S
C4704 C4705 1.334 . S
C4705 H4682 0.950 . S
C4705 C4704 1.334 . S
C4705 C4706 1.287 . S
C4706 C4705 1.287 . S
C4706 C4707 1.524 . S
C4706 H4725 0.913 . S
C4707 H4683 0.950 . S
C4707 C4706 1.524 . S
C4707 C4708 1.415 . S
C4708 H4684 0.950 . S
C4708 C4703 1.363 . S
C4708 C4707 1.415 . S
C4709 H4685 0.951 . S
C4709 C4710 1.366 . S
C4709 C4711 1.388 . S
C4710 C4709 1.366 . S
C4710 C4714 1.385 . S
C4711 H4686 0.951 . S
C4711 C4709 1.388 . S
C4711 C4712 1.366 . S
C4712 C4711 1.366 . S
C4712 C4713 1.414 . S
C4712 C4715 1.499 . S
C4713 H4687 0.950 . S
C4713 C4712 1.414 . S
C4713 C4714 1.374 . S
C4714 H4688 0.950 . S
C4714 C4710 1.385 . S
C4714 C4713 1.374 . S
C4715 C4712 1.499 . S
C4715 C4716 1.373 . S
C4715 C4717 1.389 . S
C4716 H4689 0.950 . S
C4716 C4702 1.377 . S
C4716 C4715 1.373 . S
C4717 C4701 1.377 . S
C4717 C4715 1.389 . S
C4717 C4718 1.524 . S
C4718 C4717 1.524 . S
C4718 C4719 1.397 . S
C4718 C4723 1.363 . S
C4719 H4690 0.950 . S
C4719 C4718 1.397 . S
C4719 C4720 1.334 . S
C4720 H4691 0.950 . S
C4720 C4719 1.334 . S
C4720 C4721 1.287 . S
C4721 C4720 1.287 . S
C4721 C4722 1.524 . S
C4721 H4724 0.999 . S
C4722 H4692 0.950 . S
C4722 C4721 1.524 . S
C4722 C4723 1.415 . S
C4723 H4693 0.950 . S
C4723 C4718 1.363 . S
C4723 C4722 1.415 . S
H4724 C4721 0.999 . S
H4725 C4706 0.913 . S
H4726 C4744 0.951 . S
H4727 C4746 0.951 . S
H4728 C4748 0.950 . S
H4729 C4749 0.950 . S
H4730 C4751 0.950 . S
H4731 C4754 0.950 . S
H4732 C4755 0.950 . S
H4733 C4757 0.950 . S
H4734 C4758 0.950 . S
H4735 C4759 0.951 . S
H4736 C4761 0.951 . S
H4737 C4763 0.950 . S
H4738 C4764 0.950 . S
H4739 C4766 0.950 . S
H4740 C4769 0.950 . S
H4741 C4770 0.950 . S
H4742 C4772 0.950 . S
H4743 C4773 0.950 . S
C4744 H4726 0.951 . S
C4744 C4745 1.366 . S
C4744 C4746 1.388 . S
C4745 C4744 1.366 . S
C4745 C4749 1.385 . S
C4746 H4727 0.951 . S
C4746 C4744 1.388 . S
C4746 C4747 1.366 . S
C4747 C4746 1.366 . S
C4747 C4748 1.414 . S
C4747 C4750 1.499 . S
C4748 H4728 0.950 . S
C4748 C4747 1.414 . S
C4748 C4749 1.374 . S
C4749 H4729 0.950 . S
C4749 C4745 1.385 . S
C4749 C4748 1.374 . S
C4750 C4747 1.499 . S
C4750 C4751 1.373 . S
C4750 C4752 1.389 . S
C4751 H4730 0.950 . S
C4751 C4750 1.373 . S
C4751 C4767 1.377 . S
C4752 C4750 1.389 . S
C4752 C4753 1.524 . S
C4752 C4766 1.377 . S
C4753 C4752 1.524 . S
C4753 C4754 1.397 . S
C4753 C4758 1.363 . S
C4754 H4731 0.950 . S
C4754 C4753 1.397 . S
C4754 C4755 1.334 . S
C4755 H4732 0.950 . S
C4755 C4754 1.334 . S
C4755 C4756 1.287 . S
C4756 C4755 1.287 . S
C4756 C4757 1.524 . S
C4756 H4775 0.913 . S
C4757 H4733 0.950 . S
C4757 C4756 1.524 . S
C4757 C4758 1.415 . S
C4758 H4734 0.950 . S
C4758 C4753 1.363 . S
C4758 C4757 1.415 . S
C4759 H4735 0.951 . S
C4759 C4760 1.366 . S
C4759 C4761 1.388 . S
C4760 C4759 1.366 . S
C4760 C4764 1.385 . S
C4761 H4736 0.951 . S
C4761 C4759 1.388 . S
C4761 C4762 1.366 . S
C4762 C4761 1.366 . S
C4762 C4763 1.414 . S
C4762 C4765 1.499 . S
C4763 H4737 0.950 . S
C4763 C4762 1.414 . S
C4763 C4764 1.374 . S
C4764 H4738 0.950 . S
C4764 C4760 1.385 . S
C4764 C4763 1.374 . S
C4765 C4762 1.499 . S
C4765 C4766 1.373 . S
C4765 C4767 1.389 . S
C4766 H4739 0.950 . S
C4766 C4752 1.377 . S
C4766 C4765 1.373 . S
C4767 C4751 1.377 . S
C4767 C4765 1.389 . S
C4767 C4768 1.524 . S
C4768 C4767 1.524 . S
C4768 C4769 1.397 . S
C4768 C4773 1.363 . S
C4769 H4740 0.950 . S
C4769 C4768 1.397 . S
C4769 C4770 1.334 . S
C4770 H4741 0.950 . S
C4770 C4769 1.334 . S
C4770 C4771 1.287 . S
C4771 C4770 1.287 . S
C4771 C4772 1.524 . S
C4771 H4774 0.999 . S
C4772 H4742 0.950 . S
C4772 C4771 1.524 . S
C4772 C4773 1.415 . S
C4773 H4743 0.950 . S
C4773 C4768 1.363 . S
C4773 C4772 1.415 . S
H4774 C4771 0.999 . S
H4775 C4756 0.913 . S
H4776 C4794 0.951 . S
H4777 C4796 0.951 . S
H4778 C4798 0.950 . S
H4779 C4799 0.950 . S
H4780 C4801 0.950 . S
H4781 C4804 0.950 . S
H4782 C4805 0.950 . S
H4783 C4807 0.950 . S
H4784 C4808 0.950 . S
H4785 C4809 0.951 . S
H4786 C4811 0.951 . S
H4787 C4813 0.950 . S
H4788 C4814 0.950 . S
H4789 C4816 0.950 . S
H4790 C4819 0.950 . S
H4791 C4820 0.950 1_554 S
H4792 C4822 0.950 . S
H4793 C4823 0.950 . S
C4794 H4776 0.951 . S
C4794 C4795 1.366 . S
C4794 C4796 1.388 . S
C4795 C4794 1.366 . S
C4795 C4799 1.385 . S
C4796 H4777 0.951 . S
C4796 C4794 1.388 . S
C4796 C4797 1.366 . S
C4797 C4796 1.366 . S
C4797 C4798 1.414 . S
C4797 C4800 1.499 . S
C4798 H4778 0.950 . S
C4798 C4797 1.414 . S
C4798 C4799 1.374 . S
C4799 H4779 0.950 . S
C4799 C4795 1.385 . S
C4799 C4798 1.374 . S
C4800 C4797 1.499 . S
C4800 C4801 1.373 . S
C4800 C4802 1.389 . S
C4801 H4780 0.950 . S
C4801 C4800 1.373 . S
C4801 C4817 1.377 . S
C4802 C4800 1.389 . S
C4802 C4803 1.524 . S
C4802 C4816 1.377 . S
C4803 C4802 1.524 . S
C4803 C4804 1.397 . S
C4803 C4808 1.363 . S
C4804 H4781 0.950 . S
C4804 C4803 1.397 . S
C4804 C4805 1.334 . S
C4805 H4782 0.950 . S
C4805 C4804 1.334 . S
C4805 C4806 1.287 . S
C4806 C4805 1.287 . S
C4806 C4807 1.524 . S
C4806 H4825 0.913 . S
C4807 H4783 0.950 . S
C4807 C4806 1.524 . S
C4807 C4808 1.415 . S
C4808 H4784 0.950 . S
C4808 C4803 1.363 . S
C4808 C4807 1.415 . S
C4809 H4785 0.951 . S
C4809 C4810 1.366 . S
C4809 C4811 1.388 . S
C4810 C4809 1.366 . S
C4810 C4814 1.385 . S
C4811 H4786 0.951 . S
C4811 C4809 1.388 . S
C4811 C4812 1.366 . S
C4812 C4811 1.366 . S
C4812 C4813 1.414 . S
C4812 C4815 1.499 . S
C4813 H4787 0.950 . S
C4813 C4812 1.414 . S
C4813 C4814 1.374 . S
C4814 H4788 0.950 . S
C4814 C4810 1.385 . S
C4814 C4813 1.374 . S
C4815 C4812 1.499 . S
C4815 C4816 1.373 . S
C4815 C4817 1.389 . S
C4816 H4789 0.950 . S
C4816 C4802 1.377 . S
C4816 C4815 1.373 . S
C4817 C4801 1.377 . S
C4817 C4815 1.389 . S
C4817 C4818 1.524 . S
C4818 C4817 1.524 . S
C4818 C4819 1.397 . S
C4818 C4823 1.363 . S
C4819 H4790 0.950 . S
C4819 C4818 1.397 . S
C4819 C4820 1.334 . S
C4820 H4791 0.950 1_556 S
C4820 C4819 1.334 . S
C4820 C4821 1.287 . S
C4821 C4820 1.287 . S
C4821 C4822 1.524 . S
C4821 H4824 0.999 1_556 S
C4822 H4792 0.950 . S
C4822 C4821 1.524 . S
C4822 C4823 1.415 . S
C4823 H4793 0.950 . S
C4823 C4818 1.363 . S
C4823 C4822 1.415 . S
H4824 C4821 0.999 1_554 S
H4825 C4806 0.913 . S
H4826 C4844 0.951 . S
H4827 C4846 0.951 . S
H4828 C4848 0.950 . S
H4829 C4849 0.950 . S
H4830 C4851 0.950 . S
H4831 C4854 0.950 . S
H4832 C4855 0.950 . S
H4833 C4857 0.950 . S
H4834 C4858 0.950 . S
H4835 C4859 0.951 . S
H4836 C4861 0.951 . S
H4837 C4863 0.950 . S
H4838 C4864 0.950 . S
H4839 C4866 0.950 . S
H4840 C4869 0.950 . S
H4841 C4870 0.950 . S
H4842 C4872 0.950 . S
H4843 C4873 0.950 . S
C4844 H4826 0.951 . S
C4844 C4845 1.366 . S
C4844 C4846 1.388 . S
C4845 C4844 1.366 . S
C4845 C4849 1.385 . S
C4846 H4827 0.951 . S
C4846 C4844 1.388 . S
C4846 C4847 1.366 . S
C4847 C4846 1.366 . S
C4847 C4848 1.414 . S
C4847 C4850 1.499 . S
C4848 H4828 0.950 . S
C4848 C4847 1.414 . S
C4848 C4849 1.374 . S
C4849 H4829 0.950 . S
C4849 C4845 1.385 . S
C4849 C4848 1.374 . S
C4850 C4847 1.499 . S
C4850 C4851 1.373 . S
C4850 C4852 1.389 . S
C4851 H4830 0.950 . S
C4851 C4850 1.373 . S
C4851 C4867 1.377 . S
C4852 C4850 1.389 . S
C4852 C4853 1.524 . S
C4852 C4866 1.377 . S
C4853 C4852 1.524 . S
C4853 C4854 1.397 . S
C4853 C4858 1.363 . S
C4854 H4831 0.950 . S
C4854 C4853 1.397 . S
C4854 C4855 1.334 . S
C4855 H4832 0.950 . S
C4855 C4854 1.334 . S
C4855 C4856 1.287 . S
C4856 C4855 1.287 . S
C4856 C4857 1.524 . S
C4856 H4875 0.913 . S
C4857 H4833 0.950 . S
C4857 C4856 1.524 . S
C4857 C4858 1.415 . S
C4858 H4834 0.950 . S
C4858 C4853 1.363 . S
C4858 C4857 1.415 . S
C4859 H4835 0.951 . S
C4859 C4860 1.366 . S
C4859 C4861 1.388 . S
C4860 C4859 1.366 . S
C4860 C4864 1.385 . S
C4861 H4836 0.951 . S
C4861 C4859 1.388 . S
C4861 C4862 1.366 . S
C4862 C4861 1.366 . S
C4862 C4863 1.414 . S
C4862 C4865 1.499 . S
C4863 H4837 0.950 . S
C4863 C4862 1.414 . S
C4863 C4864 1.374 . S
C4864 H4838 0.950 . S
C4864 C4860 1.385 . S
C4864 C4863 1.374 . S
C4865 C4862 1.499 . S
C4865 C4866 1.373 . S
C4865 C4867 1.389 . S
C4866 H4839 0.950 . S
C4866 C4852 1.377 . S
C4866 C4865 1.373 . S
C4867 C4851 1.377 . S
C4867 C4865 1.389 . S
C4867 C4868 1.524 . S
C4868 C4867 1.524 . S
C4868 C4869 1.397 . S
C4868 C4873 1.363 . S
C4869 H4840 0.950 . S
C4869 C4868 1.397 . S
C4869 C4870 1.334 . S
C4870 H4841 0.950 . S
C4870 C4869 1.334 . S
C4870 C4871 1.287 . S
C4871 C4870 1.287 . S
C4871 C4872 1.524 . S
C4871 H4874 0.999 . S
C4872 H4842 0.950 . S
C4872 C4871 1.524 . S
C4872 C4873 1.415 . S
C4873 H4843 0.950 . S
C4873 C4868 1.363 . S
C4873 C4872 1.415 . S
H4874 C4871 0.999 . S
H4875 C4856 0.913 . S
H4876 C4894 0.951 . S
H4877 C4896 0.951 . S
H4878 C4898 0.950 . S
H4879 C4899 0.950 . S
H4880 C4901 0.950 . S
H4881 C4904 0.950 . S
H4882 C4905 0.950 . S
H4883 C4907 0.950 . S
H4884 C4908 0.950 . S
H4885 C4909 0.951 . S
H4886 C4911 0.951 . S
H4887 C4913 0.950 . S
H4888 C4914 0.950 . S
H4889 C4916 0.950 . S
H4890 C4919 0.950 . S
H4891 C4920 0.950 . S
H4892 C4922 0.950 . S
H4893 C4923 0.950 . S
C4894 H4876 0.951 . S
C4894 C4895 1.366 . S
C4894 C4896 1.388 . S
C4895 C4894 1.366 . S
C4895 C4899 1.385 . S
C4896 H4877 0.951 . S
C4896 C4894 1.388 . S
C4896 C4897 1.366 . S
C4897 C4896 1.366 . S
C4897 C4898 1.414 . S
C4897 C4900 1.499 . S
C4898 H4878 0.950 . S
C4898 C4897 1.414 . S
C4898 C4899 1.374 . S
C4899 H4879 0.950 . S
C4899 C4895 1.385 . S
C4899 C4898 1.374 . S
C4900 C4897 1.499 . S
C4900 C4901 1.373 . S
C4900 C4902 1.389 . S
C4901 H4880 0.950 . S
C4901 C4900 1.373 . S
C4901 C4917 1.377 . S
C4902 C4900 1.389 . S
C4902 C4903 1.524 . S
C4902 C4916 1.377 . S
C4903 C4902 1.524 . S
C4903 C4904 1.397 . S
C4903 C4908 1.363 . S
C4904 H4881 0.950 . S
C4904 C4903 1.397 . S
C4904 C4905 1.334 . S
C4905 H4882 0.950 . S
C4905 C4904 1.334 . S
C4905 C4906 1.287 . S
C4906 C4905 1.287 . S
C4906 C4907 1.524 . S
C4906 H4925 0.913 . S
C4907 H4883 0.950 . S
C4907 C4906 1.524 . S
C4907 C4908 1.415 . S
C4908 H4884 0.950 . S
C4908 C4903 1.363 . S
C4908 C4907 1.415 . S
C4909 H4885 0.951 . S
C4909 C4910 1.366 . S
C4909 C4911 1.388 . S
C4910 C4909 1.366 . S
C4910 C4914 1.385 . S
C4911 H4886 0.951 . S
C4911 C4909 1.388 . S
C4911 C4912 1.366 . S
C4912 C4911 1.366 . S
C4912 C4913 1.414 . S
C4912 C4915 1.499 . S
C4913 H4887 0.950 . S
C4913 C4912 1.414 . S
C4913 C4914 1.374 . S
C4914 H4888 0.950 . S
C4914 C4910 1.385 . S
C4914 C4913 1.374 . S
C4915 C4912 1.499 . S
C4915 C4916 1.373 . S
C4915 C4917 1.389 . S
C4916 H4889 0.950 . S
C4916 C4902 1.377 . S
C4916 C4915 1.373 . S
C4917 C4901 1.377 . S
C4917 C4915 1.389 . S
C4917 C4918 1.524 . S
C4918 C4917 1.524 . S
C4918 C4919 1.397 . S
C4918 C4923 1.363 . S
C4919 H4890 0.950 . S
C4919 C4918 1.397 . S
C4919 C4920 1.334 . S
C4920 H4891 0.950 . S
C4920 C4919 1.334 . S
C4920 C4921 1.287 . S
C4921 C4920 1.287 . S
C4921 C4922 1.524 . S
C4921 H4924 0.999 . S
C4922 H4892 0.950 . S
C4922 C4921 1.524 . S
C4922 C4923 1.415 . S
C4923 H4893 0.950 . S
C4923 C4918 1.363 . S
C4923 C4922 1.415 . S
H4924 C4921 0.999 . S
H4925 C4906 0.913 . S
H4926 C4944 0.951 . S
H4927 C4946 0.951 . S
H4928 C4948 0.950 . S
H4929 C4949 0.950 . S
H4930 C4951 0.950 . S
H4931 C4954 0.950 . S
H4932 C4955 0.950 . S
H4933 C4957 0.950 . S
H4934 C4958 0.950 . S
H4935 C4959 0.951 . S
H4936 C4961 0.951 . S
H4937 C4963 0.950 . S
H4938 C4964 0.950 . S
H4939 C4966 0.950 . S
H4940 C4969 0.950 . S
H4941 C4970 0.950 . S
H4942 C4972 0.950 . S
H4943 C4973 0.950 . S
C4944 H4926 0.951 . S
C4944 C4945 1.366 . S
C4944 C4946 1.388 . S
C4945 C4944 1.366 . S
C4945 C4949 1.385 . S
C4946 H4927 0.951 . S
C4946 C4944 1.388 . S
C4946 C4947 1.366 . S
C4947 C4946 1.366 . S
C4947 C4948 1.414 . S
C4947 C4950 1.499 . S
C4948 H4928 0.950 . S
C4948 C4947 1.414 . S
C4948 C4949 1.374 . S
C4949 H4929 0.950 . S
C4949 C4945 1.385 . S
C4949 C4948 1.374 . S
C4950 C4947 1.499 . S
C4950 C4951 1.373 . S
C4950 C4952 1.389 . S
C4951 H4930 0.950 . S
C4951 C4950 1.373 . S
C4951 C4967 1.377 . S
C4952 C4950 1.389 . S
C4952 C4953 1.524 . S
C4952 C4966 1.377 . S
C4953 C4952 1.524 . S
C4953 C4954 1.397 . S
C4953 C4958 1.363 . S
C4954 H4931 0.950 . S
C4954 C4953 1.397 . S
C4954 C4955 1.334 . S
C4955 H4932 0.950 . S
C4955 C4954 1.334 . S
C4955 C4956 1.287 . S
C4956 C4955 1.287 . S
C4956 C4957 1.524 . S
C4956 H4975 0.913 . S
C4957 H4933 0.950 . S
C4957 C4956 1.524 . S
C4957 C4958 1.415 . S
C4958 H4934 0.950 . S
C4958 C4953 1.363 . S
C4958 C4957 1.415 . S
C4959 H4935 0.951 . S
C4959 C4960 1.366 . S
C4959 C4961 1.388 . S
C4960 C4959 1.366 . S
C4960 C4964 1.385 . S
C4961 H4936 0.951 . S
C4961 C4959 1.388 . S
C4961 C4962 1.366 . S
C4962 C4961 1.366 . S
C4962 C4963 1.414 . S
C4962 C4965 1.499 . S
C4963 H4937 0.950 . S
C4963 C4962 1.414 . S
C4963 C4964 1.374 . S
C4964 H4938 0.950 . S
C4964 C4960 1.385 . S
C4964 C4963 1.374 . S
C4965 C4962 1.499 . S
C4965 C4966 1.373 . S
C4965 C4967 1.389 . S
C4966 H4939 0.950 . S
C4966 C4952 1.377 . S
C4966 C4965 1.373 . S
C4967 C4951 1.377 . S
C4967 C4965 1.389 . S
C4967 C4968 1.524 . S
C4968 C4967 1.524 . S
C4968 C4969 1.397 . S
C4968 C4973 1.363 . S
C4969 H4940 0.950 . S
C4969 C4968 1.397 . S
C4969 C4970 1.334 . S
C4970 H4941 0.950 . S
C4970 C4969 1.334 . S
C4970 C4971 1.287 . S
C4971 C4970 1.287 . S
C4971 C4972 1.524 . S
C4971 H4974 0.999 . S
C4972 H4942 0.950 . S
C4972 C4971 1.524 . S
C4972 C4973 1.415 . S
C4973 H4943 0.950 . S
C4973 C4968 1.363 . S
C4973 C4972 1.415 . S
H4974 C4971 0.999 . S
H4975 C4956 0.913 . S
H4976 C4994 0.951 . S
H4977 C4996 0.951 . S
H4978 C4998 0.950 . S
H4979 C4999 0.950 . S
H4980 C5001 0.950 . S
H4981 C5004 0.950 . S
H4982 C5005 0.950 . S
H4983 C5007 0.950 . S
H4984 C5008 0.950 . S
H4985 C5009 0.951 . S
H4986 C5011 0.951 . S
H4987 C5013 0.950 . S
H4988 C5014 0.950 . S
H4989 C5016 0.950 . S
H4990 C5019 0.950 . S
H4991 C5020 0.950 . S
H4992 C5022 0.950 . S
H4993 C5023 0.950 . S
C4994 H4976 0.951 . S
C4994 C4995 1.366 . S
C4994 C4996 1.388 . S
C4995 C4994 1.366 . S
C4995 C4999 1.385 . S
C4996 H4977 0.951 . S
C4996 C4994 1.388 . S
C4996 C4997 1.366 . S
C4997 C4996 1.366 . S
C4997 C4998 1.414 . S
C4997 C5000 1.499 . S
C4998 H4978 0.950 . S
C4998 C4997 1.414 . S
C4998 C4999 1.374 . S
C4999 H4979 0.950 . S
C4999 C4995 1.385 . S
C4999 C4998 1.374 . S
C5000 C4997 1.499 . S
C5000 C5001 1.373 . S
C5000 C5002 1.389 . S
C5001 H4980 0.950 . S
C5001 C5000 1.373 . S
C5001 C5017 1.377 . S
C5002 C5000 1.389 . S
C5002 C5003 1.524 . S
C5002 C5016 1.377 . S
C5003 C5002 1.524 . S
C5003 C5004 1.397 . S
C5003 C5008 1.363 . S
C5004 H4981 0.950 . S
C5004 C5003 1.397 . S
C5004 C5005 1.334 . S
C5005 H4982 0.950 . S
C5005 C5004 1.334 . S
C5005 C5006 1.287 . S
C5006 C5005 1.287 . S
C5006 C5007 1.524 . S
C5006 H5025 0.913 . S
C5007 H4983 0.950 . S
C5007 C5006 1.524 . S
C5007 C5008 1.415 . S
C5008 H4984 0.950 . S
C5008 C5003 1.363 . S
C5008 C5007 1.415 . S
C5009 H4985 0.951 . S
C5009 C5010 1.366 . S
C5009 C5011 1.388 . S
C5010 C5009 1.366 . S
C5010 C5014 1.385 . S
C5011 H4986 0.951 . S
C5011 C5009 1.388 . S
C5011 C5012 1.366 . S
C5012 C5011 1.366 . S
C5012 C5013 1.414 . S
C5012 C5015 1.499 . S
C5013 H4987 0.950 . S
C5013 C5012 1.414 . S
C5013 C5014 1.374 . S
C5014 H4988 0.950 . S
C5014 C5010 1.385 . S
C5014 C5013 1.374 . S
C5015 C5012 1.499 . S
C5015 C5016 1.373 . S
C5015 C5017 1.389 . S
C5016 H4989 0.950 . S
C5016 C5002 1.377 . S
C5016 C5015 1.373 . S
C5017 C5001 1.377 . S
C5017 C5015 1.389 . S
C5017 C5018 1.524 . S
C5018 C5017 1.524 . S
C5018 C5019 1.397 . S
C5018 C5023 1.363 . S
C5019 H4990 0.950 . S
C5019 C5018 1.397 . S
C5019 C5020 1.334 . S
C5020 H4991 0.950 . S
C5020 C5019 1.334 . S
C5020 C5021 1.287 . S
C5021 C5020 1.287 . S
C5021 C5022 1.524 . S
C5021 H5024 0.999 . S
C5022 H4992 0.950 . S
C5022 C5021 1.524 . S
C5022 C5023 1.415 . S
C5023 H4993 0.950 . S
C5023 C5018 1.363 . S
C5023 C5022 1.415 . S
H5024 C5021 0.999 . S
H5025 C5006 0.913 . S
H5026 C5044 0.951 . S
H5027 C5046 0.951 . S
H5028 C5048 0.950 . S
H5029 C5049 0.950 . S
H5030 C5051 0.950 . S
H5031 C5054 0.950 . S
H5032 C5055 0.950 . S
H5033 C5057 0.950 . S
H5034 C5058 0.950 . S
H5035 C5059 0.951 . S
H5036 C5061 0.951 . S
H5037 C5063 0.950 . S
H5038 C5064 0.950 . S
H5039 C5066 0.950 . S
H5040 C5069 0.950 . S
H5041 C5070 0.950 . S
H5042 C5072 0.950 . S
H5043 C5073 0.950 . S
C5044 H5026 0.951 . S
C5044 C5045 1.366 . S
C5044 C5046 1.388 . S
C5045 C5044 1.366 . S
C5045 C5049 1.385 . S
C5046 H5027 0.951 . S
C5046 C5044 1.388 . S
C5046 C5047 1.366 . S
C5047 C5046 1.366 . S
C5047 C5048 1.414 . S
C5047 C5050 1.499 . S
C5048 H5028 0.950 . S
C5048 C5047 1.414 . S
C5048 C5049 1.374 . S
C5049 H5029 0.950 . S
C5049 C5045 1.385 . S
C5049 C5048 1.374 . S
C5050 C5047 1.499 . S
C5050 C5051 1.373 . S
C5050 C5052 1.389 . S
C5051 H5030 0.950 . S
C5051 C5050 1.373 . S
C5051 C5067 1.377 . S
C5052 C5050 1.389 . S
C5052 C5053 1.524 . S
C5052 C5066 1.377 . S
C5053 C5052 1.524 . S
C5053 C5054 1.397 . S
C5053 C5058 1.363 . S
C5054 H5031 0.950 . S
C5054 C5053 1.397 . S
C5054 C5055 1.334 . S
C5055 H5032 0.950 . S
C5055 C5054 1.334 . S
C5055 C5056 1.287 . S
C5056 C5055 1.287 . S
C5056 C5057 1.524 . S
C5056 H5075 0.913 . S
C5057 H5033 0.950 . S
C5057 C5056 1.524 . S
C5057 C5058 1.415 . S
C5058 H5034 0.950 . S
C5058 C5053 1.363 . S
C5058 C5057 1.415 . S
C5059 H5035 0.951 . S
C5059 C5060 1.366 . S
C5059 C5061 1.388 . S
C5060 C5059 1.366 . S
C5060 C5064 1.385 . S
C5061 H5036 0.951 . S
C5061 C5059 1.388 . S
C5061 C5062 1.366 . S
C5062 C5061 1.366 . S
C5062 C5063 1.414 . S
C5062 C5065 1.499 . S
C5063 H5037 0.950 . S
C5063 C5062 1.414 . S
C5063 C5064 1.374 . S
C5064 H5038 0.950 . S
C5064 C5060 1.385 . S
C5064 C5063 1.374 . S
C5065 C5062 1.499 . S
C5065 C5066 1.373 . S
C5065 C5067 1.389 . S
C5066 H5039 0.950 . S
C5066 C5052 1.377 . S
C5066 C5065 1.373 . S
C5067 C5051 1.377 . S
C5067 C5065 1.389 . S
C5067 C5068 1.524 . S
C5068 C5067 1.524 . S
C5068 C5069 1.397 . S
C5068 C5073 1.363 . S
C5069 H5040 0.950 . S
C5069 C5068 1.397 . S
C5069 C5070 1.334 . S
C5070 H5041 0.950 . S
C5070 C5069 1.334 . S
C5070 C5071 1.287 . S
C5071 C5070 1.287 . S
C5071 C5072 1.524 . S
C5071 H5074 0.999 . S
C5072 H5042 0.950 . S
C5072 C5071 1.524 . S
C5072 C5073 1.415 . S
C5073 H5043 0.950 . S
C5073 C5068 1.363 . S
C5073 C5072 1.415 . S
H5074 C5071 0.999 . S
H5075 C5056 0.913 . S
H5076 C5094 0.951 . S
H5077 C5096 0.951 . S
H5078 C5098 0.950 . S
H5079 C5099 0.950 . S
H5080 C5101 0.939 1_455 S
H5081 C5104 0.950 . S
H5082 C5105 0.950 . S
H5083 C5107 0.950 . S
H5084 C5108 0.950 . S
H5085 C5109 0.951 . S
H5086 C5111 0.951 . S
H5087 C5113 0.950 . S
H5088 C5114 0.950 . S
H5089 C5116 0.950 . S
H5090 C5119 0.950 . S
H5091 C5120 0.950 . S
H5092 C5122 0.950 . S
H5093 C5123 0.950 . S
C5094 H5076 0.951 . S
C5094 C5095 1.366 . S
C5094 C5096 1.388 . S
C5095 C5094 1.366 . S
C5095 C5099 1.385 . S
C5096 H5077 0.951 . S
C5096 C5094 1.388 . S
C5096 C5097 1.366 . S
C5097 C5096 1.366 . S
C5097 C5098 1.414 . S
C5097 C5100 1.499 . S
C5098 H5078 0.950 . S
C5098 C5097 1.414 . S
C5098 C5099 1.374 . S
C5099 H5079 0.950 . S
C5099 C5095 1.385 . S
C5099 C5098 1.374 . S
C5100 C5097 1.499 . S
C5100 C5101 1.373 . S
C5100 C5102 1.389 . S
C5101 H5080 0.939 1_655 S
C5101 C5100 1.373 . S
C5101 C5117 1.377 1_655 S
C5102 C5100 1.389 . S
C5102 C5103 1.524 . S
C5102 C5116 1.377 . S
C5103 C5102 1.524 . S
C5103 C5104 1.397 . S
C5103 C5108 1.363 . S
C5104 H5081 0.950 . S
C5104 C5103 1.397 . S
C5104 C5105 1.334 . S
C5105 H5082 0.950 . S
C5105 C5104 1.334 . S
C5105 C5106 1.287 . S
C5106 C5105 1.287 . S
C5106 C5107 1.524 . S
C5106 H5125 0.913 . S
C5107 H5083 0.950 . S
C5107 C5106 1.524 . S
C5107 C5108 1.415 . S
C5108 H5084 0.950 . S
C5108 C5103 1.363 . S
C5108 C5107 1.415 . S
C5109 H5085 0.951 . S
C5109 C5110 1.366 . S
C5109 C5111 1.388 . S
C5110 C5109 1.366 . S
C5110 C5114 1.385 . S
C5111 H5086 0.951 . S
C5111 C5109 1.388 . S
C5111 C5112 1.366 . S
C5112 C5111 1.366 . S
C5112 C5113 1.414 . S
C5112 C5115 1.499 1_455 S
C5113 H5087 0.950 . S
C5113 C5112 1.414 . S
C5113 C5114 1.374 . S
C5114 H5088 0.950 . S
C5114 C5110 1.385 . S
C5114 C5113 1.374 . S
C5115 C5112 1.499 1_655 S
C5115 C5116 1.373 . S
C5115 C5117 1.389 1_655 S
C5116 H5089 0.950 . S
C5116 C5102 1.377 . S
C5116 C5115 1.373 . S
C5117 C5101 1.377 1_455 S
C5117 C5115 1.389 1_455 S
C5117 C5118 1.524 . S
C5118 C5117 1.524 . S
C5118 C5119 1.397 . S
C5118 C5123 1.363 . S
C5119 H5090 0.950 . S
C5119 C5118 1.397 . S
C5119 C5120 1.334 . S
C5120 H5091 0.950 . S
C5120 C5119 1.334 . S
C5120 C5121 1.287 . S
C5121 C5120 1.287 . S
C5121 C5122 1.524 . S
C5121 H5124 0.999 . S
C5122 H5092 0.950 . S
C5122 C5121 1.524 . S
C5122 C5123 1.415 . S
C5123 H5093 0.950 . S
C5123 C5118 1.363 . S
C5123 C5122 1.415 . S
H5124 C5121 0.999 . S
H5125 C5106 0.913 . S
H5126 C5144 0.951 . S
H5127 C5146 0.951 . S
H5128 C5148 0.950 . S
H5129 C5149 0.950 . S
H5130 C5151 0.950 . S
H5131 C5154 0.950 . S
H5132 C5155 0.950 . S
H5133 C5157 0.950 . S
H5134 C5158 0.950 . S
H5135 C5159 0.951 . S
H5136 C5161 0.951 . S
H5137 C5163 0.950 . S
H5138 C5164 0.950 . S
H5139 C5166 0.950 . S
H5140 C5169 0.950 . S
H5141 C5170 0.950 . S
H5142 C5172 0.950 . S
H5143 C5173 0.950 . S
C5144 H5126 0.951 . S
C5144 C5145 1.366 . S
C5144 C5146 1.388 . S
C5145 C5144 1.366 . S
C5145 C5149 1.385 . S
C5146 H5127 0.951 . S
C5146 C5144 1.388 . S
C5146 C5147 1.366 . S
C5147 C5146 1.366 . S
C5147 C5148 1.414 . S
C5147 C5150 1.499 . S
C5148 H5128 0.950 . S
C5148 C5147 1.414 . S
C5148 C5149 1.374 . S
C5149 H5129 0.950 . S
C5149 C5145 1.385 . S
C5149 C5148 1.374 . S
C5150 C5147 1.499 . S
C5150 C5151 1.373 . S
C5150 C5152 1.389 . S
C5151 H5130 0.950 . S
C5151 C5150 1.373 . S
C5151 C5167 1.377 . S
C5152 C5150 1.389 . S
C5152 C5153 1.524 . S
C5152 C5166 1.377 . S
C5153 C5152 1.524 . S
C5153 C5154 1.397 . S
C5153 C5158 1.363 . S
C5154 H5131 0.950 . S
C5154 C5153 1.397 . S
C5154 C5155 1.334 . S
C5155 H5132 0.950 . S
C5155 C5154 1.334 . S
C5155 C5156 1.287 . S
C5156 C5155 1.287 . S
C5156 C5157 1.524 . S
C5156 H5175 0.913 . S
C5157 H5133 0.950 . S
C5157 C5156 1.524 . S
C5157 C5158 1.415 . S
C5158 H5134 0.950 . S
C5158 C5153 1.363 . S
C5158 C5157 1.415 . S
C5159 H5135 0.951 . S
C5159 C5160 1.366 . S
C5159 C5161 1.388 . S
C5160 C5159 1.366 . S
C5160 C5164 1.385 . S
C5161 H5136 0.951 . S
C5161 C5159 1.388 . S
C5161 C5162 1.366 . S
C5162 C5161 1.366 . S
C5162 C5163 1.414 . S
C5162 C5165 1.499 . S
C5163 H5137 0.950 . S
C5163 C5162 1.414 . S
C5163 C5164 1.374 . S
C5164 H5138 0.950 . S
C5164 C5160 1.385 . S
C5164 C5163 1.374 . S
C5165 C5162 1.499 . S
C5165 C5166 1.373 . S
C5165 C5167 1.389 . S
C5166 H5139 0.950 . S
C5166 C5152 1.377 . S
C5166 C5165 1.373 . S
C5167 C5151 1.377 . S
C5167 C5165 1.389 . S
C5167 C5168 1.524 . S
C5168 C5167 1.524 . S
C5168 C5169 1.397 . S
C5168 C5173 1.363 . S
C5169 H5140 0.950 . S
C5169 C5168 1.397 . S
C5169 C5170 1.334 . S
C5170 H5141 0.950 . S
C5170 C5169 1.334 . S
C5170 C5171 1.287 . S
C5171 C5170 1.287 . S
C5171 C5172 1.524 . S
C5171 H5174 0.999 . S
C5172 H5142 0.950 . S
C5172 C5171 1.524 . S
C5172 C5173 1.415 . S
C5173 H5143 0.950 . S
C5173 C5168 1.363 . S
C5173 C5172 1.415 . S
H5174 C5171 0.999 . S
H5175 C5156 0.913 . S
H5176 C5194 0.951 . S
H5177 C5196 0.951 . S
H5178 C5198 0.950 . S
H5179 C5199 0.950 . S
H5180 C5201 0.950 . S
H5181 C5204 0.950 . S
H5182 C5205 0.950 . S
H5183 C5207 0.950 . S
H5184 C5208 0.950 . S
H5185 C5209 0.951 . S
H5186 C5211 0.951 . S
H5187 C5213 0.950 . S
H5188 C5214 0.950 . S
H5189 C5216 0.950 . S
H5190 C5219 0.950 . S
H5191 C5220 0.950 . S
H5192 C5222 0.950 . S
H5193 C5223 0.950 . S
C5194 H5176 0.951 . S
C5194 C5195 1.366 . S
C5194 C5196 1.388 . S
C5195 C5194 1.366 . S
C5195 C5199 1.385 . S
C5196 H5177 0.951 . S
C5196 C5194 1.388 . S
C5196 C5197 1.366 . S
C5197 C5196 1.366 . S
C5197 C5198 1.414 . S
C5197 C5200 1.499 . S
C5198 H5178 0.950 . S
C5198 C5197 1.414 . S
C5198 C5199 1.374 . S
C5199 H5179 0.950 . S
C5199 C5195 1.385 . S
C5199 C5198 1.374 . S
C5200 C5197 1.499 . S
C5200 C5201 1.373 . S
C5200 C5202 1.389 . S
C5201 H5180 0.950 . S
C5201 C5200 1.373 . S
C5201 C5217 1.377 . S
C5202 C5200 1.389 . S
C5202 C5203 1.524 . S
C5202 C5216 1.377 . S
C5203 C5202 1.524 . S
C5203 C5204 1.397 . S
C5203 C5208 1.363 . S
C5204 H5181 0.950 . S
C5204 C5203 1.397 . S
C5204 C5205 1.334 . S
C5205 H5182 0.950 . S
C5205 C5204 1.334 . S
C5205 C5206 1.287 . S
C5206 C5205 1.287 . S
C5206 C5207 1.524 . S
C5206 H5225 0.913 . S
C5207 H5183 0.950 . S
C5207 C5206 1.524 . S
C5207 C5208 1.415 . S
C5208 H5184 0.950 . S
C5208 C5203 1.363 . S
C5208 C5207 1.415 . S
C5209 H5185 0.951 . S
C5209 C5210 1.366 . S
C5209 C5211 1.388 . S
C5210 C5209 1.366 . S
C5210 C5214 1.385 . S
C5211 H5186 0.951 . S
C5211 C5209 1.388 . S
C5211 C5212 1.366 . S
C5212 C5211 1.366 . S
C5212 C5213 1.414 . S
C5212 C5215 1.499 . S
C5213 H5187 0.950 . S
C5213 C5212 1.414 . S
C5213 C5214 1.374 . S
C5214 H5188 0.950 . S
C5214 C5210 1.385 . S
C5214 C5213 1.374 . S
C5215 C5212 1.499 . S
C5215 C5216 1.373 . S
C5215 C5217 1.389 . S
C5216 H5189 0.950 . S
C5216 C5202 1.377 . S
C5216 C5215 1.373 . S
C5217 C5201 1.377 . S
C5217 C5215 1.389 . S
C5217 C5218 1.524 . S
C5218 C5217 1.524 . S
C5218 C5219 1.397 . S
C5218 C5223 1.363 . S
C5219 H5190 0.950 . S
C5219 C5218 1.397 . S
C5219 C5220 1.334 . S
C5220 H5191 0.950 . S
C5220 C5219 1.334 . S
C5220 C5221 1.287 . S
C5221 C5220 1.287 . S
C5221 C5222 1.524 . S
C5221 H5224 0.999 . S
C5222 H5192 0.950 . S
C5222 C5221 1.524 . S
C5222 C5223 1.415 . S
C5223 H5193 0.950 . S
C5223 C5218 1.363 . S
C5223 C5222 1.415 . S
H5224 C5221 0.999 . S
H5225 C5206 0.913 . S
H5226 C5244 0.951 . S
H5227 C5246 0.951 . S
H5228 C5248 0.950 . S
H5229 C5249 0.950 . S
H5230 C5251 0.950 . S
H5231 C5254 0.950 . S
H5232 C5255 0.950 . S
H5233 C5257 0.950 . S
H5234 C5258 0.950 . S
H5235 C5259 0.951 . S
H5236 C5261 0.951 . S
H5237 C5263 0.950 . S
H5238 C5264 0.950 . S
H5239 C5266 0.950 . S
H5240 C5269 0.950 . S
H5241 C5270 0.950 . S
H5242 C5272 0.950 . S
H5243 C5273 0.950 . S
C5244 H5226 0.951 . S
C5244 C5245 1.366 . S
C5244 C5246 1.388 . S
C5245 C5244 1.366 . S
C5245 C5249 1.385 . S
C5246 H5227 0.951 . S
C5246 C5244 1.388 . S
C5246 C5247 1.366 . S
C5247 C5246 1.366 . S
C5247 C5248 1.414 . S
C5247 C5250 1.499 . S
C5248 H5228 0.950 . S
C5248 C5247 1.414 . S
C5248 C5249 1.374 . S
C5249 H5229 0.950 . S
C5249 C5245 1.385 . S
C5249 C5248 1.374 . S
C5250 C5247 1.499 . S
C5250 C5251 1.373 . S
C5250 C5252 1.389 . S
C5251 H5230 0.950 . S
C5251 C5250 1.373 . S
C5251 C5267 1.377 . S
C5252 C5250 1.389 . S
C5252 C5253 1.524 . S
C5252 C5266 1.377 . S
C5253 C5252 1.524 . S
C5253 C5254 1.397 . S
C5253 C5258 1.363 . S
C5254 H5231 0.950 . S
C5254 C5253 1.397 . S
C5254 C5255 1.334 . S
C5255 H5232 0.950 . S
C5255 C5254 1.334 . S
C5255 C5256 1.287 . S
C5256 C5255 1.287 . S
C5256 C5257 1.524 . S
C5256 H5275 0.913 . S
C5257 H5233 0.950 . S
C5257 C5256 1.524 . S
C5257 C5258 1.415 . S
C5258 H5234 0.950 . S
C5258 C5253 1.363 . S
C5258 C5257 1.415 . S
C5259 H5235 0.951 . S
C5259 C5260 1.366 . S
C5259 C5261 1.388 . S
C5260 C5259 1.366 . S
C5260 C5264 1.385 . S
C5261 H5236 0.951 . S
C5261 C5259 1.388 . S
C5261 C5262 1.366 . S
C5262 C5261 1.366 . S
C5262 C5263 1.414 . S
C5262 C5265 1.499 . S
C5263 H5237 0.950 . S
C5263 C5262 1.414 . S
C5263 C5264 1.374 . S
C5264 H5238 0.950 . S
C5264 C5260 1.385 . S
C5264 C5263 1.374 . S
C5265 C5262 1.499 . S
C5265 C5266 1.373 . S
C5265 C5267 1.389 . S
C5266 H5239 0.950 . S
C5266 C5252 1.377 . S
C5266 C5265 1.373 . S
C5267 C5251 1.377 . S
C5267 C5265 1.389 . S
C5267 C5268 1.524 . S
C5268 C5267 1.524 . S
C5268 C5269 1.397 . S
C5268 C5273 1.363 . S
C5269 H5240 0.950 . S
C5269 C5268 1.397 . S
C5269 C5270 1.334 . S
C5270 H5241 0.950 . S
C5270 C5269 1.334 . S
C5270 C5271 1.287 . S
C5271 C5270 1.287 . S
C5271 C5272 1.524 . S
C5271 H5274 0.999 . S
C5272 H5242 0.950 . S
C5272 C5271 1.524 . S
C5272 C5273 1.415 . S
C5273 H5243 0.950 . S
C5273 C5268 1.363 . S
C5273 C5272 1.415 . S
H5274 C5271 0.999 . S
H5275 C5256 0.913 . S
H5276 C5294 0.951 . S
H5277 C5296 0.951 . S
H5278 C5298 0.950 . S
H5279 C5299 0.950 . S
H5280 C5301 0.950 . S
H5281 C5304 0.950 . S
H5282 C5305 0.950 . S
H5283 C5307 0.950 . S
H5284 C5308 0.950 . S
H5285 C5309 0.951 . S
H5286 C5311 0.951 1_455 S
H5287 C5313 0.950 . S
H5288 C5314 0.950 . S
H5289 C5316 0.950 . S
H5290 C5319 0.950 . S
H5291 C5320 0.950 . S
H5292 C5322 0.950 . S
H5293 C5323 0.950 . S
C5294 H5276 0.951 . S
C5294 C5295 1.366 . S
C5294 C5296 1.388 . S
C5295 C5294 1.366 . S
C5295 C5299 1.385 . S
C5296 H5277 0.951 . S
C5296 C5294 1.388 . S
C5296 C5297 1.366 . S
C5297 C5296 1.366 . S
C5297 C5298 1.414 . S
C5297 C5300 1.499 . S
C5298 H5278 0.950 . S
C5298 C5297 1.414 . S
C5298 C5299 1.374 . S
C5299 H5279 0.950 . S
C5299 C5295 1.385 . S
C5299 C5298 1.374 . S
C5300 C5297 1.499 . S
C5300 C5301 1.373 . S
C5300 C5302 1.389 . S
C5301 H5280 0.950 . S
C5301 C5300 1.373 . S
C5301 C5317 1.377 . S
C5302 C5300 1.389 . S
C5302 C5303 1.524 . S
C5302 C5316 1.377 . S
C5303 C5302 1.524 . S
C5303 C5304 1.397 . S
C5303 C5308 1.363 . S
C5304 H5281 0.950 . S
C5304 C5303 1.397 . S
C5304 C5305 1.334 . S
C5305 H5282 0.950 . S
C5305 C5304 1.334 . S
C5305 C5306 1.287 . S
C5306 C5305 1.287 . S
C5306 C5307 1.524 . S
C5306 H5325 0.913 . S
C5307 H5283 0.950 . S
C5307 C5306 1.524 . S
C5307 C5308 1.415 . S
C5308 H5284 0.950 . S
C5308 C5303 1.363 . S
C5308 C5307 1.415 . S
C5309 H5285 0.951 . S
C5309 C5310 1.366 1_455 S
C5309 C5311 1.388 1_455 S
C5310 C5309 1.366 1_655 S
C5310 C5314 1.385 . S
C5311 H5286 0.951 1_655 S
C5311 C5309 1.388 1_655 S
C5311 C5312 1.366 . S
C5312 C5311 1.366 . S
C5312 C5313 1.414 . S
C5312 C5315 1.499 . S
C5313 H5287 0.950 . S
C5313 C5312 1.414 . S
C5313 C5314 1.374 . S
C5314 H5288 0.950 . S
C5314 C5310 1.385 . S
C5314 C5313 1.374 . S
C5315 C5312 1.499 . S
C5315 C5316 1.373 . S
C5315 C5317 1.389 . S
C5316 H5289 0.950 . S
C5316 C5302 1.377 . S
C5316 C5315 1.373 . S
C5317 C5301 1.377 . S
C5317 C5315 1.389 . S
C5317 C5318 1.524 . S
C5318 C5317 1.524 . S
C5318 C5319 1.397 . S
C5318 C5323 1.363 1_655 S
C5319 H5290 0.950 . S
C5319 C5318 1.397 . S
C5319 C5320 1.334 1_655 S
C5320 H5291 0.950 . S
C5320 C5319 1.334 1_455 S
C5320 C5321 1.287 . S
C5321 C5320 1.287 . S
C5321 C5322 1.524 . S
C5321 H5324 0.999 . S
C5322 H5292 0.950 . S
C5322 C5321 1.524 . S
C5322 C5323 1.415 . S
C5323 H5293 0.950 . S
C5323 C5318 1.363 1_455 S
C5323 C5322 1.415 . S
H5324 C5321 0.999 . S
H5325 C5306 0.913 . S
H5326 C5344 0.951 . S
H5327 C5346 0.951 . S
H5328 C5348 0.950 . S
H5329 C5349 0.950 . S
H5330 C5351 0.950 . S
H5331 C5354 0.950 . S
H5332 C5355 0.950 . S
H5333 C5357 0.950 . S
H5334 C5358 0.950 . S
H5335 C5359 0.951 . S
H5336 C5361 0.951 . S
H5337 C5363 0.950 . S
H5338 C5364 0.950 . S
H5339 C5366 0.950 . S
H5340 C5369 0.950 . S
H5341 C5370 0.950 . S
H5342 C5372 0.950 . S
H5343 C5373 0.950 . S
C5344 H5326 0.951 . S
C5344 C5345 1.366 . S
C5344 C5346 1.388 . S
C5345 C5344 1.366 . S
C5345 C5349 1.385 . S
C5346 H5327 0.951 . S
C5346 C5344 1.388 . S
C5346 C5347 1.366 . S
C5347 C5346 1.366 . S
C5347 C5348 1.414 . S
C5347 C5350 1.499 . S
C5348 H5328 0.950 . S
C5348 C5347 1.414 . S
C5348 C5349 1.374 . S
C5349 H5329 0.950 . S
C5349 C5345 1.385 . S
C5349 C5348 1.374 . S
C5350 C5347 1.499 . S
C5350 C5351 1.373 . S
C5350 C5352 1.389 . S
C5351 H5330 0.950 . S
C5351 C5350 1.373 . S
C5351 C5367 1.377 . S
C5352 C5350 1.389 . S
C5352 C5353 1.524 . S
C5352 C5366 1.377 . S
C5353 C5352 1.524 . S
C5353 C5354 1.397 . S
C5353 C5358 1.363 . S
C5354 H5331 0.950 . S
C5354 C5353 1.397 . S
C5354 C5355 1.334 . S
C5355 H5332 0.950 . S
C5355 C5354 1.334 . S
C5355 C5356 1.287 . S
C5356 C5355 1.287 . S
C5356 C5357 1.524 . S
C5356 H5375 0.913 . S
C5357 H5333 0.950 . S
C5357 C5356 1.524 . S
C5357 C5358 1.415 . S
C5358 H5334 0.950 . S
C5358 C5353 1.363 . S
C5358 C5357 1.415 . S
C5359 H5335 0.951 . S
C5359 C5360 1.366 . S
C5359 C5361 1.388 . S
C5360 C5359 1.366 . S
C5360 C5364 1.385 . S
C5361 H5336 0.951 . S
C5361 C5359 1.388 . S
C5361 C5362 1.366 . S
C5362 C5361 1.366 . S
C5362 C5363 1.414 . S
C5362 C5365 1.499 . S
C5363 H5337 0.950 . S
C5363 C5362 1.414 . S
C5363 C5364 1.374 . S
C5364 H5338 0.950 . S
C5364 C5360 1.385 . S
C5364 C5363 1.374 . S
C5365 C5362 1.499 . S
C5365 C5366 1.373 . S
C5365 C5367 1.389 . S
C5366 H5339 0.950 . S
C5366 C5352 1.377 . S
C5366 C5365 1.373 . S
C5367 C5351 1.377 . S
C5367 C5365 1.389 . S
C5367 C5368 1.524 . S
C5368 C5367 1.524 . S
C5368 C5369 1.397 . S
C5368 C5373 1.363 . S
C5369 H5340 0.950 . S
C5369 C5368 1.397 . S
C5369 C5370 1.334 . S
C5370 H5341 0.950 . S
C5370 C5369 1.334 . S
C5370 C5371 1.287 . S
C5371 C5370 1.287 . S
C5371 C5372 1.524 . S
C5371 H5374 0.999 . S
C5372 H5342 0.950 . S
C5372 C5371 1.524 . S
C5372 C5373 1.415 . S
C5373 H5343 0.950 . S
C5373 C5368 1.363 . S
C5373 C5372 1.415 . S
H5374 C5371 0.999 . S
H5375 C5356 0.913 . S
H5376 C5394 0.951 . S
H5377 C5396 0.951 . S
H5378 C5398 0.950 . S
H5379 C5399 0.950 . S
H5380 C5401 0.950 . S
H5381 C5404 0.950 . S
H5382 C5405 0.950 . S
H5383 C5407 0.950 . S
H5384 C5408 0.950 . S
H5385 C5409 0.951 . S
H5386 C5411 0.951 . S
H5387 C5413 0.950 . S
H5388 C5414 0.950 . S
H5389 C5416 0.950 . S
H5390 C5419 0.950 . S
H5391 C5420 0.950 . S
H5392 C5422 0.950 . S
H5393 C5423 0.950 . S
C5394 H5376 0.951 . S
C5394 C5395 1.366 . S
C5394 C5396 1.388 . S
C5395 C5394 1.366 . S
C5395 C5399 1.385 . S
C5396 H5377 0.951 . S
C5396 C5394 1.388 . S
C5396 C5397 1.366 . S
C5397 C5396 1.366 . S
C5397 C5398 1.414 . S
C5397 C5400 1.499 . S
C5398 H5378 0.950 . S
C5398 C5397 1.414 . S
C5398 C5399 1.374 . S
C5399 H5379 0.950 . S
C5399 C5395 1.385 . S
C5399 C5398 1.374 . S
C5400 C5397 1.499 . S
C5400 C5401 1.373 . S
C5400 C5402 1.389 . S
C5401 H5380 0.950 . S
C5401 C5400 1.373 . S
C5401 C5417 1.377 . S
C5402 C5400 1.389 . S
C5402 C5403 1.524 . S
C5402 C5416 1.377 . S
C5403 C5402 1.524 . S
C5403 C5404 1.397 . S
C5403 C5408 1.363 . S
C5404 H5381 0.950 . S
C5404 C5403 1.397 . S
C5404 C5405 1.334 . S
C5405 H5382 0.950 . S
C5405 C5404 1.334 . S
C5405 C5406 1.287 . S
C5406 C5405 1.287 . S
C5406 C5407 1.524 . S
C5406 H5425 0.913 . S
C5407 H5383 0.950 . S
C5407 C5406 1.524 . S
C5407 C5408 1.415 . S
C5408 H5384 0.950 . S
C5408 C5403 1.363 . S
C5408 C5407 1.415 . S
C5409 H5385 0.951 . S
C5409 C5410 1.366 . S
C5409 C5411 1.388 . S
C5410 C5409 1.366 . S
C5410 C5414 1.385 . S
C5411 H5386 0.951 . S
C5411 C5409 1.388 . S
C5411 C5412 1.366 . S
C5412 C5411 1.366 . S
C5412 C5413 1.414 . S
C5412 C5415 1.499 . S
C5413 H5387 0.950 . S
C5413 C5412 1.414 . S
C5413 C5414 1.374 . S
C5414 H5388 0.950 . S
C5414 C5410 1.385 . S
C5414 C5413 1.374 . S
C5415 C5412 1.499 . S
C5415 C5416 1.373 . S
C5415 C5417 1.389 . S
C5416 H5389 0.950 . S
C5416 C5402 1.377 . S
C5416 C5415 1.373 . S
C5417 C5401 1.377 . S
C5417 C5415 1.389 . S
C5417 C5418 1.524 . S
C5418 C5417 1.524 . S
C5418 C5419 1.397 . S
C5418 C5423 1.363 . S
C5419 H5390 0.950 . S
C5419 C5418 1.397 . S
C5419 C5420 1.334 . S
C5420 H5391 0.950 . S
C5420 C5419 1.334 . S
C5420 C5421 1.287 . S
C5421 C5420 1.287 . S
C5421 C5422 1.524 . S
C5421 H5424 0.999 . S
C5422 H5392 0.950 . S
C5422 C5421 1.524 . S
C5422 C5423 1.415 . S
C5423 H5393 0.950 . S
C5423 C5418 1.363 . S
C5423 C5422 1.415 . S
H5424 C5421 0.999 . S
H5425 C5406 0.913 . S
H5426 C5444 0.951 . S
H5427 C5446 0.951 . S
H5428 C5448 0.950 . S
H5429 C5449 0.950 . S
H5430 C5451 0.950 . S
H5431 C5454 0.950 . S
H5432 C5455 0.950 . S
H5433 C5457 0.950 1_545 S
H5434 C5458 0.950 . S
H5435 C5459 0.951 . S
H5436 C5461 0.951 . S
H5437 C5463 0.950 . S
H5438 C5464 0.950 . S
H5439 C5466 0.950 . S
H5440 C5469 0.950 . S
H5441 C5470 0.950 . S
H5442 C5472 0.950 . S
H5443 C5473 0.950 . S
C5444 H5426 0.951 . S
C5444 C5445 1.366 . S
C5444 C5446 1.388 . S
C5445 C5444 1.366 . S
C5445 C5449 1.385 . S
C5446 H5427 0.951 . S
C5446 C5444 1.388 . S
C5446 C5447 1.366 . S
C5447 C5446 1.366 . S
C5447 C5448 1.414 . S
C5447 C5450 1.499 . S
C5448 H5428 0.950 . S
C5448 C5447 1.414 . S
C5448 C5449 1.374 . S
C5449 H5429 0.950 . S
C5449 C5445 1.385 . S
C5449 C5448 1.374 . S
C5450 C5447 1.499 . S
C5450 C5451 1.373 . S
C5450 C5452 1.389 . S
C5451 H5430 0.950 . S
C5451 C5450 1.373 . S
C5451 C5467 1.377 . S
C5452 C5450 1.389 . S
C5452 C5453 1.524 . S
C5452 C5466 1.377 . S
C5453 C5452 1.524 . S
C5453 C5454 1.397 . S
C5453 C5458 1.363 . S
C5454 H5431 0.950 . S
C5454 C5453 1.397 . S
C5454 C5455 1.334 . S
C5455 H5432 0.950 . S
C5455 C5454 1.334 . S
C5455 C5456 1.287 . S
C5456 C5455 1.287 . S
C5456 C5457 1.524 . S
C5456 H5475 0.913 . S
C5457 H5433 0.950 1_565 S
C5457 C5456 1.524 . S
C5457 C5458 1.415 . S
C5458 H5434 0.950 . S
C5458 C5453 1.363 . S
C5458 C5457 1.415 . S
C5459 H5435 0.951 . S
C5459 C5460 1.366 1_565 S
C5459 C5461 1.388 . S
C5460 C5459 1.366 1_545 S
C5460 C5464 1.385 . S
C5461 H5436 0.951 . S
C5461 C5459 1.388 . S
C5461 C5462 1.366 . S
C5462 C5461 1.366 . S
C5462 C5463 1.414 1_565 S
C5462 C5465 1.499 . S
C5463 H5437 0.950 . S
C5463 C5462 1.414 1_545 S
C5463 C5464 1.374 . S
C5464 H5438 0.950 . S
C5464 C5460 1.385 . S
C5464 C5463 1.374 . S
C5465 C5462 1.499 . S
C5465 C5466 1.373 . S
C5465 C5467 1.389 . S
C5466 H5439 0.950 . S
C5466 C5452 1.377 . S
C5466 C5465 1.373 . S
C5467 C5451 1.377 . S
C5467 C5465 1.389 . S
C5467 C5468 1.524 . S
C5468 C5467 1.524 . S
C5468 C5469 1.397 . S
C5468 C5473 1.363 . S
C5469 H5440 0.950 . S
C5469 C5468 1.397 . S
C5469 C5470 1.334 . S
C5470 H5441 0.950 . S
C5470 C5469 1.334 . S
C5470 C5471 1.287 . S
C5471 C5470 1.287 . S
C5471 C5472 1.524 . S
C5471 H5474 0.999 . S
C5472 H5442 0.950 . S
C5472 C5471 1.524 . S
C5472 C5473 1.415 . S
C5473 H5443 0.950 . S
C5473 C5468 1.363 . S
C5473 C5472 1.415 . S
H5474 C5471 0.999 . S
H5475 C5456 0.913 . S
H5476 C5494 0.951 . S
H5477 C5496 0.951 . S
H5478 C5498 0.950 . S
H5479 C5499 0.950 . S
H5480 C5501 0.950 . S
H5481 C5504 0.950 . S
H5482 C5505 0.950 . S
H5483 C5507 0.950 . S
H5484 C5508 0.950 . S
H5485 C5509 0.951 . S
H5486 C5511 0.951 . S
H5487 C5513 0.950 . S
H5488 C5514 0.950 . S
H5489 C5516 0.950 . S
H5490 C5519 0.950 . S
H5491 C5520 0.950 . S
H5492 C5522 0.950 . S
H5493 C5523 0.950 . S
C5494 H5476 0.951 . S
C5494 C5495 1.366 . S
C5494 C5496 1.388 . S
C5495 C5494 1.366 . S
C5495 C5499 1.385 . S
C5496 H5477 0.951 . S
C5496 C5494 1.388 . S
C5496 C5497 1.366 . S
C5497 C5496 1.366 . S
C5497 C5498 1.414 . S
C5497 C5500 1.499 . S
C5498 H5478 0.950 . S
C5498 C5497 1.414 . S
C5498 C5499 1.374 . S
C5499 H5479 0.950 . S
C5499 C5495 1.385 . S
C5499 C5498 1.374 . S
C5500 C5497 1.499 . S
C5500 C5501 1.373 . S
C5500 C5502 1.389 . S
C5501 H5480 0.950 . S
C5501 C5500 1.373 . S
C5501 C5517 1.377 . S
C5502 C5500 1.389 . S
C5502 C5503 1.524 . S
C5502 C5516 1.377 . S
C5503 C5502 1.524 . S
C5503 C5504 1.397 . S
C5503 C5508 1.363 . S
C5504 H5481 0.950 . S
C5504 C5503 1.397 . S
C5504 C5505 1.334 . S
C5505 H5482 0.950 . S
C5505 C5504 1.334 . S
C5505 C5506 1.287 . S
C5506 C5505 1.287 . S
C5506 C5507 1.524 . S
C5506 H5525 0.913 . S
C5507 H5483 0.950 . S
C5507 C5506 1.524 . S
C5507 C5508 1.415 . S
C5508 H5484 0.950 . S
C5508 C5503 1.363 . S
C5508 C5507 1.415 . S
C5509 H5485 0.951 . S
C5509 C5510 1.366 . S
C5509 C5511 1.388 . S
C5510 C5509 1.366 . S
C5510 C5514 1.385 . S
C5511 H5486 0.951 . S
C5511 C5509 1.388 . S
C5511 C5512 1.366 . S
C5512 C5511 1.366 . S
C5512 C5513 1.414 . S
C5512 C5515 1.499 . S
C5513 H5487 0.950 . S
C5513 C5512 1.414 . S
C5513 C5514 1.374 . S
C5514 H5488 0.950 . S
C5514 C5510 1.385 . S
C5514 C5513 1.374 . S
C5515 C5512 1.499 . S
C5515 C5516 1.373 . S
C5515 C5517 1.389 . S
C5516 H5489 0.950 . S
C5516 C5502 1.377 . S
C5516 C5515 1.373 . S
C5517 C5501 1.377 . S
C5517 C5515 1.389 . S
C5517 C5518 1.524 . S
C5518 C5517 1.524 . S
C5518 C5519 1.397 . S
C5518 C5523 1.363 . S
C5519 H5490 0.950 . S
C5519 C5518 1.397 . S
C5519 C5520 1.334 . S
C5520 H5491 0.950 . S
C5520 C5519 1.334 . S
C5520 C5521 1.287 . S
C5521 C5520 1.287 . S
C5521 C5522 1.524 . S
C5521 H5524 0.999 . S
C5522 H5492 0.950 . S
C5522 C5521 1.524 . S
C5522 C5523 1.415 . S
C5523 H5493 0.950 . S
C5523 C5518 1.363 . S
C5523 C5522 1.415 . S
H5524 C5521 0.999 . S
H5525 C5506 0.913 . S
H5526 C5544 0.951 . S
H5527 C5546 0.951 . S
H5528 C5548 0.950 . S
H5529 C5549 0.950 . S
H5530 C5551 0.950 . S
H5531 C5554 0.950 1_554 S
H5532 C5555 0.950 . S
H5533 C5557 0.950 . S
H5534 C5558 0.950 . S
H5535 C5559 0.951 . S
H5536 C5561 0.951 . S
H5537 C5563 0.950 1_556 S
H5538 C5564 0.950 1_556 S
H5539 C5566 0.950 1_556 S
H5540 C5569 0.950 . S
H5541 C5570 0.950 . S
H5542 C5572 0.950 . S
H5543 C5573 0.950 . S
C5544 H5526 0.951 . S
C5544 C5545 1.366 1_556 S
C5544 C5546 1.388 . S
C5545 C5544 1.366 1_554 S
C5545 C5549 1.385 . S
C5546 H5527 0.951 . S
C5546 C5544 1.388 . S
C5546 C5547 1.366 1_556 S
C5547 C5546 1.366 1_554 S
C5547 C5548 1.414 . S
C5547 C5550 1.499 . S
C5548 H5528 0.950 . S
C5548 C5547 1.414 . S
C5548 C5549 1.374 . S
C5549 H5529 0.950 . S
C5549 C5545 1.385 . S
C5549 C5548 1.374 . S
C5550 C5547 1.499 . S
C5550 C5551 1.373 . S
C5550 C5552 1.387 . S
C5551 H5530 0.950 . S
C5551 C5550 1.373 . S
C5551 C5567 1.377 . S
C5552 C5550 1.387 . S
C5552 C5553 1.528 1_554 S
C5552 C5566 1.375 . S
C5553 C5552 1.528 1_556 S
C5553 C5554 1.397 . S
C5553 C5558 1.363 . S
C5554 H5531 0.950 1_556 S
C5554 C5553 1.397 . S
C5554 C5555 1.334 . S
C5555 H5532 0.950 . S
C5555 C5554 1.334 . S
C5555 C5556 1.287 . S
C5556 C5555 1.287 . S
C5556 C5557 1.524 . S
C5556 H5575 0.913 . S
C5557 H5533 0.950 . S
C5557 C5556 1.524 . S
C5557 C5558 1.415 . S
C5558 H5534 0.950 . S
C5558 C5553 1.363 . S
C5558 C5557 1.415 . S
C5559 H5535 0.951 . S
C5559 C5560 1.366 . S
C5559 C5561 1.388 . S
C5560 C5559 1.366 . S
C5560 C5564 1.385 . S
C5561 H5536 0.951 . S
C5561 C5559 1.388 . S
C5561 C5562 1.366 . S
C5562 C5561 1.366 . S
C5562 C5563 1.414 . S
C5562 C5565 1.499 . S
C5563 H5537 0.950 1_554 S
C5563 C5562 1.414 . S
C5563 C5564 1.374 . S
C5564 H5538 0.950 1_554 S
C5564 C5560 1.385 . S
C5564 C5563 1.374 . S
C5565 C5562 1.499 . S
C5565 C5566 1.373 . S
C5565 C5567 1.389 . S
C5566 H5539 0.950 1_554 S
C5566 C5552 1.375 . S
C5566 C5565 1.373 . S
C5567 C5551 1.377 . S
C5567 C5565 1.389 . S
C5567 C5568 1.524 . S
C5568 C5567 1.524 . S
C5568 C5569 1.397 . S
C5568 C5573 1.363 . S
C5569 H5540 0.950 . S
C5569 C5568 1.397 . S
C5569 C5570 1.334 . S
C5570 H5541 0.950 . S
C5570 C5569 1.334 . S
C5570 C5571 1.287 . S
C5571 C5570 1.287 . S
C5571 C5572 1.524 . S
C5571 H5574 0.999 . S
C5572 H5542 0.950 . S
C5572 C5571 1.524 . S
C5572 C5573 1.415 . S
C5573 H5543 0.950 . S
C5573 C5568 1.363 . S
C5573 C5572 1.415 . S
H5574 C5571 0.999 . S
H5575 C5556 0.913 . S
H5576 C5594 0.951 . S
H5577 C5596 0.951 . S
H5578 C5598 0.950 . S
H5579 C5599 0.950 . S
H5580 C5601 0.950 . S
H5581 C5604 0.950 . S
H5582 C5605 0.950 . S
H5583 C5607 0.950 . S
H5584 C5608 0.950 . S
H5585 C5609 0.951 . S
H5586 C5611 0.951 . S
H5587 C5613 0.950 . S
H5588 C5614 0.950 . S
H5589 C5616 0.950 . S
H5590 C5619 0.950 . S
H5591 C5620 0.950 . S
H5592 C5622 0.950 . S
H5593 C5623 0.950 . S
C5594 H5576 0.951 . S
C5594 C5595 1.366 . S
C5594 C5596 1.388 . S
C5595 C5594 1.366 . S
C5595 C5599 1.385 . S
C5596 H5577 0.951 . S
C5596 C5594 1.388 . S
C5596 C5597 1.366 . S
C5597 C5596 1.366 . S
C5597 C5598 1.414 . S
C5597 C5600 1.499 . S
C5598 H5578 0.950 . S
C5598 C5597 1.414 . S
C5598 C5599 1.374 . S
C5599 H5579 0.950 . S
C5599 C5595 1.385 . S
C5599 C5598 1.374 . S
C5600 C5597 1.499 . S
C5600 C5601 1.373 . S
C5600 C5602 1.389 . S
C5601 H5580 0.950 . S
C5601 C5600 1.373 . S
C5601 C5617 1.377 . S
C5602 C5600 1.389 . S
C5602 C5603 1.524 . S
C5602 C5616 1.377 . S
C5603 C5602 1.524 . S
C5603 C5604 1.397 . S
C5603 C5608 1.363 . S
C5604 H5581 0.950 . S
C5604 C5603 1.397 . S
C5604 C5605 1.334 . S
C5605 H5582 0.950 . S
C5605 C5604 1.334 . S
C5605 C5606 1.287 . S
C5606 C5605 1.287 . S
C5606 C5607 1.524 . S
C5606 H5625 0.913 . S
C5607 H5583 0.950 . S
C5607 C5606 1.524 . S
C5607 C5608 1.415 . S
C5608 H5584 0.950 . S
C5608 C5603 1.363 . S
C5608 C5607 1.415 . S
C5609 H5585 0.951 . S
C5609 C5610 1.366 . S
C5609 C5611 1.388 . S
C5610 C5609 1.366 . S
C5610 C5614 1.385 . S
C5611 H5586 0.951 . S
C5611 C5609 1.388 . S
C5611 C5612 1.366 . S
C5612 C5611 1.366 . S
C5612 C5613 1.414 . S
C5612 C5615 1.499 . S
C5613 H5587 0.950 . S
C5613 C5612 1.414 . S
C5613 C5614 1.374 . S
C5614 H5588 0.950 . S
C5614 C5610 1.385 . S
C5614 C5613 1.374 . S
C5615 C5612 1.499 . S
C5615 C5616 1.373 . S
C5615 C5617 1.389 . S
C5616 H5589 0.950 . S
C5616 C5602 1.377 . S
C5616 C5615 1.373 . S
C5617 C5601 1.377 . S
C5617 C5615 1.389 . S
C5617 C5618 1.524 . S
C5618 C5617 1.524 . S
C5618 C5619 1.397 . S
C5618 C5623 1.363 . S
C5619 H5590 0.950 . S
C5619 C5618 1.397 . S
C5619 C5620 1.334 . S
C5620 H5591 0.950 . S
C5620 C5619 1.334 . S
C5620 C5621 1.287 . S
C5621 C5620 1.287 . S
C5621 C5622 1.524 . S
C5621 H5624 0.999 . S
C5622 H5592 0.950 . S
C5622 C5621 1.524 . S
C5622 C5623 1.415 . S
C5623 H5593 0.950 . S
C5623 C5618 1.363 . S
C5623 C5622 1.415 . S
H5624 C5621 0.999 . S
H5625 C5606 0.913 . S
H5626 C5644 0.951 . S
H5627 C5646 0.951 . S
H5628 C5648 0.950 . S
H5629 C5649 0.950 . S
H5630 C5651 0.950 . S
H5631 C5654 0.950 . S
H5632 C5655 0.950 . S
H5633 C5657 0.950 . S
H5634 C5658 0.950 1_554 S
H5635 C5659 0.951 . S
H5636 C5661 0.951 . S
H5637 C5663 0.950 . S
H5638 C5664 0.950 . S
H5639 C5666 0.950 . S
H5640 C5669 0.950 . S
H5641 C5670 0.950 . S
H5642 C5672 0.950 . S
H5643 C5673 0.950 . S
C5644 H5626 0.951 . S
C5644 C5645 1.366 . S
C5644 C5646 1.388 . S
C5645 C5644 1.366 . S
C5645 C5649 1.385 . S
C5646 H5627 0.951 . S
C5646 C5644 1.388 . S
C5646 C5647 1.366 . S
C5647 C5646 1.366 . S
C5647 C5648 1.414 . S
C5647 C5650 1.499 . S
C5648 H5628 0.950 . S
C5648 C5647 1.414 . S
C5648 C5649 1.374 . S
C5649 H5629 0.950 . S
C5649 C5645 1.385 . S
C5649 C5648 1.374 . S
C5650 C5647 1.499 . S
C5650 C5651 1.373 . S
C5650 C5652 1.389 . S
C5651 H5630 0.950 . S
C5651 C5650 1.373 . S
C5651 C5667 1.377 . S
C5652 C5650 1.389 . S
C5652 C5653 1.524 1_554 S
C5652 C5666 1.377 . S
C5653 C5652 1.524 1_556 S
C5653 C5654 1.397 . S
C5653 C5658 1.363 . S
C5654 H5631 0.950 . S
C5654 C5653 1.397 . S
C5654 C5655 1.334 . S
C5655 H5632 0.950 . S
C5655 C5654 1.334 . S
C5655 C5656 1.287 . S
C5656 C5655 1.287 . S
C5656 C5657 1.524 . S
C5656 H5675 0.913 . S
C5657 H5633 0.950 . S
C5657 C5656 1.524 . S
C5657 C5658 1.415 . S
C5658 H5634 0.950 1_556 S
C5658 C5653 1.363 . S
C5658 C5657 1.415 . S
C5659 H5635 0.951 . S
C5659 C5660 1.366 . S
C5659 C5661 1.388 . S
C5660 C5659 1.366 . S
C5660 C5664 1.385 . S
C5661 H5636 0.951 . S
C5661 C5659 1.388 . S
C5661 C5662 1.366 . S
C5662 C5661 1.366 . S
C5662 C5663 1.414 . S
C5662 C5665 1.499 . S
C5663 H5637 0.950 . S
C5663 C5662 1.414 . S
C5663 C5664 1.374 . S
C5664 H5638 0.950 . S
C5664 C5660 1.385 . S
C5664 C5663 1.374 . S
C5665 C5662 1.499 . S
C5665 C5666 1.373 . S
C5665 C5667 1.389 . S
C5666 H5639 0.950 . S
C5666 C5652 1.377 . S
C5666 C5665 1.373 . S
C5667 C5651 1.377 . S
C5667 C5665 1.389 . S
C5667 C5668 1.524 . S
C5668 C5667 1.524 . S
C5668 C5669 1.397 . S
C5668 C5673 1.363 . S
C5669 H5640 0.950 . S
C5669 C5668 1.397 . S
C5669 C5670 1.334 . S
C5670 H5641 0.950 . S
C5670 C5669 1.334 . S
C5670 C5671 1.287 . S
C5671 C5670 1.287 . S
C5671 C5672 1.524 . S
C5671 H5674 0.999 . S
C5672 H5642 0.950 . S
C5672 C5671 1.524 . S
C5672 C5673 1.415 . S
C5673 H5643 0.950 . S
C5673 C5668 1.363 . S
C5673 C5672 1.415 . S
H5674 C5671 0.999 . S
H5675 C5656 0.913 . S
H5676 C5694 0.951 . S
H5677 C5696 0.951 . S
H5678 C5698 0.950 . S
H5679 C5699 0.952 1_545 S
H5680 C5701 0.950 . S
H5681 C5704 0.950 . S
H5682 C5705 0.950 . S
H5683 C5707 0.950 . S
H5684 C5708 0.950 . S
H5685 C5709 0.951 . S
H5686 C5711 0.951 . S
H5687 C5713 0.950 . S
H5688 C5714 0.950 . S
H5689 C5716 0.950 . S
H5690 C5719 0.950 . S
H5691 C5720 0.950 . S
H5692 C5722 0.950 . S
H5693 C5723 0.950 . S
C5694 H5676 0.951 . S
C5694 C5695 1.366 . S
C5694 C5696 1.388 . S
C5695 C5694 1.366 . S
C5695 C5699 1.385 . S
C5696 H5677 0.951 . S
C5696 C5694 1.388 . S
C5696 C5697 1.366 . S
C5697 C5696 1.366 . S
C5697 C5698 1.414 . S
C5697 C5700 1.499 . S
C5698 H5678 0.950 . S
C5698 C5697 1.414 . S
C5698 C5699 1.374 . S
C5699 H5679 0.952 1_565 S
C5699 C5695 1.385 . S
C5699 C5698 1.374 . S
C5700 C5697 1.499 . S
C5700 C5701 1.373 . S
C5700 C5702 1.389 . S
C5701 H5680 0.950 . S
C5701 C5700 1.373 . S
C5701 C5717 1.377 . S
C5702 C5700 1.389 . S
C5702 C5703 1.524 . S
C5702 C5716 1.377 . S
C5703 C5702 1.524 . S
C5703 C5704 1.397 . S
C5703 C5708 1.363 . S
C5704 H5681 0.950 . S
C5704 C5703 1.397 . S
C5704 C5705 1.334 . S
C5705 H5682 0.950 . S
C5705 C5704 1.334 . S
C5705 C5706 1.287 . S
C5706 C5705 1.287 . S
C5706 C5707 1.524 . S
C5706 H5725 0.913 . S
C5707 H5683 0.950 . S
C5707 C5706 1.524 . S
C5707 C5708 1.415 . S
C5708 H5684 0.950 . S
C5708 C5703 1.363 . S
C5708 C5707 1.415 . S
C5709 H5685 0.951 . S
C5709 C5710 1.366 . S
C5709 C5711 1.388 . S
C5710 C5709 1.366 . S
C5710 C5714 1.385 . S
C5711 H5686 0.951 . S
C5711 C5709 1.388 . S
C5711 C5712 1.366 . S
C5712 C5711 1.366 . S
C5712 C5713 1.414 . S
C5712 C5715 1.499 . S
C5713 H5687 0.950 . S
C5713 C5712 1.414 . S
C5713 C5714 1.374 . S
C5714 H5688 0.950 . S
C5714 C5710 1.385 . S
C5714 C5713 1.374 . S
C5715 C5712 1.499 . S
C5715 C5716 1.373 . S
C5715 C5717 1.389 . S
C5716 H5689 0.950 . S
C5716 C5702 1.377 . S
C5716 C5715 1.373 . S
C5717 C5701 1.377 . S
C5717 C5715 1.389 . S
C5717 C5718 1.524 . S
C5718 C5717 1.524 . S
C5718 C5719 1.397 . S
C5718 C5723 1.363 . S
C5719 H5690 0.950 . S
C5719 C5718 1.397 . S
C5719 C5720 1.334 . S
C5720 H5691 0.950 . S
C5720 C5719 1.334 . S
C5720 C5721 1.287 . S
C5721 C5720 1.287 . S
C5721 C5722 1.524 . S
C5721 H5724 0.999 . S
C5722 H5692 0.950 . S
C5722 C5721 1.524 . S
C5722 C5723 1.415 . S
C5723 H5693 0.950 . S
C5723 C5718 1.363 . S
C5723 C5722 1.415 . S
H5724 C5721 0.999 . S
H5725 C5706 0.913 . S
H5726 C5744 0.951 . S
H5727 C5746 0.951 . S
H5728 C5748 0.950 . S
H5729 C5749 0.950 . S
H5730 C5751 0.950 . S
H5731 C5754 0.950 . S
H5732 C5755 0.950 . S
H5733 C5757 0.950 . S
H5734 C5758 0.950 . S
H5735 C5759 0.951 . S
H5736 C5761 0.951 . S
H5737 C5763 0.950 . S
H5738 C5764 0.950 . S
H5739 C5766 0.950 . S
H5740 C5769 0.950 . S
H5741 C5770 0.950 . S
H5742 C5772 0.950 . S
H5743 C5773 0.950 . S
C5744 H5726 0.951 . S
C5744 C5745 1.366 . S
C5744 C5746 1.388 . S
C5745 C5744 1.366 . S
C5745 C5749 1.385 . S
C5746 H5727 0.951 . S
C5746 C5744 1.388 . S
C5746 C5747 1.366 . S
C5747 C5746 1.366 . S
C5747 C5748 1.414 . S
C5747 C5750 1.499 . S
C5748 H5728 0.950 . S
C5748 C5747 1.414 . S
C5748 C5749 1.374 . S
C5749 H5729 0.950 . S
C5749 C5745 1.385 . S
C5749 C5748 1.374 . S
C5750 C5747 1.499 . S
C5750 C5751 1.373 . S
C5750 C5752 1.389 . S
C5751 H5730 0.950 . S
C5751 C5750 1.373 . S
C5751 C5767 1.377 . S
C5752 C5750 1.389 . S
C5752 C5753 1.524 . S
C5752 C5766 1.377 . S
C5753 C5752 1.524 . S
C5753 C5754 1.397 . S
C5753 C5758 1.363 . S
C5754 H5731 0.950 . S
C5754 C5753 1.397 . S
C5754 C5755 1.334 . S
C5755 H5732 0.950 . S
C5755 C5754 1.334 . S
C5755 C5756 1.287 . S
C5756 C5755 1.287 . S
C5756 C5757 1.524 . S
C5756 H5775 0.913 . S
C5757 H5733 0.950 . S
C5757 C5756 1.524 . S
C5757 C5758 1.415 . S
C5758 H5734 0.950 . S
C5758 C5753 1.363 . S
C5758 C5757 1.415 . S
C5759 H5735 0.951 . S
C5759 C5760 1.366 . S
C5759 C5761 1.388 . S
C5760 C5759 1.366 . S
C5760 C5764 1.385 . S
C5761 H5736 0.951 . S
C5761 C5759 1.388 . S
C5761 C5762 1.366 . S
C5762 C5761 1.366 . S
C5762 C5763 1.414 . S
C5762 C5765 1.499 . S
C5763 H5737 0.950 . S
C5763 C5762 1.414 . S
C5763 C5764 1.374 . S
C5764 H5738 0.950 . S
C5764 C5760 1.385 . S
C5764 C5763 1.374 . S
C5765 C5762 1.499 . S
C5765 C5766 1.373 . S
C5765 C5767 1.389 . S
C5766 H5739 0.950 . S
C5766 C5752 1.377 . S
C5766 C5765 1.373 . S
C5767 C5751 1.377 . S
C5767 C5765 1.389 . S
C5767 C5768 1.524 . S
C5768 C5767 1.524 . S
C5768 C5769 1.397 . S
C5768 C5773 1.363 . S
C5769 H5740 0.950 . S
C5769 C5768 1.397 . S
C5769 C5770 1.334 . S
C5770 H5741 0.950 . S
C5770 C5769 1.334 . S
C5770 C5771 1.287 . S
C5771 C5770 1.287 . S
C5771 C5772 1.524 . S
C5771 H5774 0.999 . S
C5772 H5742 0.950 . S
C5772 C5771 1.524 . S
C5772 C5773 1.415 . S
C5773 H5743 0.950 . S
C5773 C5768 1.363 . S
C5773 C5772 1.415 . S
H5774 C5771 0.999 . S
H5775 C5756 0.913 . S
C995 C106 2.494 . S
C1010 C338 2.499 . S
C1045 C65 2.035 . S
C1060 C395 2.025 . S
C1095 C79 1.455 . S
C1110 C418 1.439 . S
C1160 C472 1.185 . S
C1145 C90 1.170 . S
C1195 C21 0.985 . S
C1210 C512 0.994 . S
C1260 C543 0.407 . S
C1245 C35 0.446 . S
C1310 C595 1.122 . S
C1295 C50 1.123 . S
C1345 C6 1.729 . S
C1360 C618 1.750 . S
C1410 C355 2.627 . S
C1395 C232 2.631 . S
C1445 C245 0.447 . S
C1460 C392 0.388 . S
C1510 C435 1.391 . S
C1495 C274 1.396 . S
C1560 C458 1.215 . S
C1545 C175 1.212 . S
C1595 C231 1.505 . S
C1610 C498 1.537 . S
C1660 C546 1.386 . S
C1645 C246 1.410 . S
C1710 C592 0.292 . S
C1695 C273 0.356 . S
C1760 C635 2.104 . S
C1745 C176 2.099 . S
C1810 C352 1.446 . S
C1795 C160 1.445 . S
C1845 C289 1.996 . S
C1860 C675 1.991 . S
C1910 C707 2.674 . S
C1895 C328 2.638 . S
C1960 C738 0.723 1_655 S
C1945 C317 0.723 . S
C1995 C118 1.302 . S
C2010 C632 1.327 . S
C2045 C132 1.521 . S
C2060 C432 1.547 . S
C2095 C331 2.410 . S
C2110 C795 2.394 . S
C2160 C818 0.736 . S
C2145 C303 0.734 . S
C2210 C347 2.026 1_565 S
C2195 C63 2.030 . S
C2260 C826 2.525 . S
C2245 C107 2.483 . S
C2295 C92 1.219 . S
C2310 C427 1.225 . S
C2345 C78 1.765 . S
C2360 C783 1.766 . S
C2410 C503 1.483 . S
C2395 C8 1.514 . S
C2445 C51 0.549 . S
C2460 C712 0.548 . S
C2510 C586 1.632 1_566 S
C2495 C37 1.569 . S
C2560 C867 1.610 . S
C2545 C20 1.623 . S
C2610 C346 2.448 . S
C2595 C147 2.413 . S
C2660 C823 0.478 . S
C2645 C316 0.427 . S
C2695 C119 1.279 . S
C2710 C426 1.310 . S
C2745 C288 1.367 . S
C2760 C787 1.378 . S
C2795 C148 1.956 1_545 S
C2810 C507 1.957 . S
C2860 C715 1.395 . S
C2845 C315 1.383 . S
C2895 C120 0.342 . S
C2910 C583 0.395 1_565 S
C2945 C287 1.954 . S
C2960 C866 1.959 . S
C2995 C188 1.317 . S
C3010 C343 1.302 . S
C3045 C177 2.356 . S
C3060 C666 2.374 . S
C3095 C258 2.751 . S
C3110 C538 2.801 . S
C3145 C247 0.751 . S
C3160 C747 0.752 . S
C3210 C863 1.094 . S
C3195 C272 1.096 . S
C3245 C216 1.312 . S
C3260 C423 1.328 . S
C3310 C466 2.652 . S
C3295 C261 2.648 . S
C3360 C387 0.703 . S
C3345 C205 0.700 . S
C3395 C76 2.079 . S
C3410 C898 2.102 . S
C3460 C835 2.131 . S
C3445 C93 2.140 . S
C3495 C105 1.015 . S
C3510 C938 1.011 . S
C3545 C62 1.199 . S
C3560 C792 1.217 . S
C3595 C49 0.972 . S
C3610 C672 0.978 . S
C3660 C703 0.763 . S
C3645 C9 0.763 . S
C3710 C755 1.024 . S
C3695 C22 1.022 . S
C3760 C858 2.122 . S
C3745 C36 2.151 . S
C3810 C915 2.551 . S
C3795 C260 2.554 . S
C3845 C189 0.403 . S
C3860 C832 0.332 . S
C3910 C955 1.265 . S
C3895 C204 1.268 . S
C3960 C778 1.025 . S
C3945 C217 1.026 . S
C4010 C658 1.839 . S
C3995 C259 1.794 . S
C4045 C190 1.522 . S
C4060 C706 1.502 . S
C4110 C752 0.319 . S
C4095 C203 0.374 . S
C4145 C218 2.201 . S
C4160 C875 2.205 . S
C4210 C912 1.413 . S
C4195 C314 1.411 . S
C4245 C135 2.092 . S
C4260 C515 2.083 . S
C4310 C547 2.548 . S
C4295 C146 2.512 . S
C4360 C578 0.747 . S
C4345 C163 0.748 . S
C4410 C872 1.343 . S
C4395 C300 1.319 . S
C4445 C286 1.465 . S
C4460 C952 1.497 . S
C4510 C475 2.292 . S
C4495 C149 2.299 . S
C4560 C378 0.688 . S
C4545 C121 0.680 . S
C4595 C91 2.012 . S
C4610 C907 2.014 . S
C4660 C386 2.098 . S
C4645 C77 2.005 . S
C4695 C64 1.187 . S
C4710 C947 1.200 . S
C4745 C104 1.379 . S
C4760 C463 1.406 . S
C4795 C34 1.090 . S
C4810 C663 1.098 . S
C4860 C552 0.512 . S
C4845 C23 0.520 . S
C4895 C7 1.138 . S
C4910 C746 1.214 . S
C4945 C48 1.596 . S
C4960 C627 1.596 . S
C5010 C906 2.411 . S
C4995 C329 2.383 . S
C5045 C162 0.443 . S
C5060 C383 0.484 . S
C5110 C946 1.313 1_556 S
C5095 C301 1.288 . S
C5145 C134 1.384 . S
C5160 C467 1.394 . S
C5195 C330 1.935 . S
C5210 C667 1.923 . S
C5260 C555 1.413 . S
C5245 C161 1.408 . S
C5295 C302 0.350 . S
C5310 C743 0.391 . S
C5360 C626 1.932 . S
C5345 C133 1.930 . S
C5410 C903 1.504 . S
C5395 C244 1.517 . S
C5460 C506 2.308 1_655 S
C5445 C219 2.281 . S
C5495 C230 2.386 . S
C5510 C698 2.426 . S
C5560 C587 0.739 . S
C5545 C191 0.740 . S
C5595 C202 1.277 . S
C5610 C623 1.279 . S
C5645 C174 1.545 . S
C5660 C943 1.569 . S
C5710 C786 2.622 . S
C5695 C233 2.609 1_565 S
C5760 C827 0.697 . S
C5745 C275 0.692 . S
