# Generated by pormake.
# Topology zzz, (3,6)-cn, num edge types: 1
# Building blocks:
#     Node 0, Type 0, BuildingBlock: WUSLED_clean_sbu_0, # of connection points: 3
#     Node 1, Type 0, BuildingBlock: WUSLED_clean_sbu_0, # of connection points: 3
#     Node 2, Type 0, BuildingBlock: WUSLED_clean_sbu_0, # of connection points: 3
#     Node 3, Type 0, BuildingBlock: WUSLED_clean_sbu_0, # of connection points: 3
#     Node 4, Type 0, BuildingBlock: WUSLED_clean_sbu_0, # of connection points: 3
#     Node 5, Type 0, BuildingBlock: WUSLED_clean_sbu_0, # of connection points: 3
#     Node 6, Type 0, BuildingBlock: WUSLED_clean_sbu_0, # of connection points: 3
#     Node 7, Type 0, BuildingBlock: WUSLED_clean_sbu_0, # of connection points: 3
#     Node 8, Type 1, BuildingBlock: GEDQOX_clean_sbu_0, # of connection points: 6
#     Node 9, Type 1, BuildingBlock: GEDQOX_clean_sbu_0, # of connection points: 6
#     Node 10, Type 1, BuildingBlock: GEDQOX_clean_sbu_0, # of connection points: 6
#     Node 11, Type 1, BuildingBlock: GEDQOX_clean_sbu_0, # of connection points: 6
#     Edge 12, Type (0, 1), BuildingBlock: OJICUG_clean_linker_0, # of connection points: 2
#     Edge 13, Type (0, 1), BuildingBlock: OJICUG_clean_linker_0, # of connection points: 2
#     Edge 14, Type (0, 1), BuildingBlock: OJICUG_clean_linker_0, # of connection points: 2
#     Edge 15, Type (0, 1), BuildingBlock: OJICUG_clean_linker_0, # of connection points: 2
#     Edge 16, Type (0, 1), BuildingBlock: OJICUG_clean_linker_0, # of connection points: 2
#     Edge 17, Type (0, 1), BuildingBlock: OJICUG_clean_linker_0, # of connection points: 2
#     Edge 18, Type (0, 1), BuildingBlock: OJICUG_clean_linker_0, # of connection points: 2
#     Edge 19, Type (0, 1), BuildingBlock: OJICUG_clean_linker_0, # of connection points: 2
#     Edge 20, Type (0, 1), BuildingBlock: OJICUG_clean_linker_0, # of connection points: 2
#     Edge 21, Type (0, 1), BuildingBlock: OJICUG_clean_linker_0, # of connection points: 2
#     Edge 22, Type (0, 1), BuildingBlock: OJICUG_clean_linker_0, # of connection points: 2
#     Edge 23, Type (0, 1), BuildingBlock: OJICUG_clean_linker_0, # of connection points: 2
#     Edge 24, Type (0, 1), BuildingBlock: OJICUG_clean_linker_0, # of connection points: 2
#     Edge 25, Type (0, 1), BuildingBlock: OJICUG_clean_linker_0, # of connection points: 2
#     Edge 26, Type (0, 1), BuildingBlock: OJICUG_clean_linker_0, # of connection points: 2
#     Edge 27, Type (0, 1), BuildingBlock: OJICUG_clean_linker_0, # of connection points: 2
#     Edge 28, Type (0, 1), BuildingBlock: OJICUG_clean_linker_0, # of connection points: 2
#     Edge 29, Type (0, 1), BuildingBlock: OJICUG_clean_linker_0, # of connection points: 2
#     Edge 30, Type (0, 1), BuildingBlock: OJICUG_clean_linker_0, # of connection points: 2
#     Edge 31, Type (0, 1), BuildingBlock: OJICUG_clean_linker_0, # of connection points: 2
#     Edge 32, Type (0, 1), BuildingBlock: OJICUG_clean_linker_0, # of connection points: 2
#     Edge 33, Type (0, 1), BuildingBlock: OJICUG_clean_linker_0, # of connection points: 2
#     Edge 34, Type (0, 1), BuildingBlock: OJICUG_clean_linker_0, # of connection points: 2
#     Edge 35, Type (0, 1), BuildingBlock: OJICUG_clean_linker_0, # of connection points: 2
# Relax obj value: 0.297
# Max RMSD: 0.292
# Mean RMSD: 0.190
data_MOF--net-zzz--node1-WUSLED_clean_sbu_0--node2-GEDQOX_clean_sbu_0--edge1-OJICUG_clean_linker_0
_symmetry_space_group_name_H-M    P1
_symmetry_Int_Tables_number       1
_symmetry_cell_setting            triclinic
loop_
_symmetry_equiv_pos_as_xyz
'x, y, z'
_cell_length_a     53.811035
_cell_length_b     50.67553
_cell_length_c     19.345144
_cell_angle_alpha  80.500992
_cell_angle_beta   90.392855
_cell_angle_gamma 103.27246
loop_
_atom_site_label
_atom_site_type_symbol
_atom_site_fract_x
_atom_site_fract_y
_atom_site_fract_z
_atom_type_partial_charge
C0 C 0.80105 0.45537 0.28085 0.0
C1 C 0.82586 0.45855 0.25355 0.0
C2 C 0.84348 0.46625 0.36757 0.0
C3 C 0.84693 0.46383 0.29673 0.0
C4 C 0.81841 0.46216 0.39446 0.0
C5 C 0.79753 0.4567 0.35169 0.0
U6 U 0.759 0.44872 0.11351 0.0
O7 O 0.71746 0.43026 0.11343 0.0
O8 O 0.73211 0.47506 0.08741 0.0
C9 C 0.71203 0.45435 0.09331 0.0
C10 C 0.77857 0.45389 0.23671 0.0
C11 C 0.69167 0.45655 0.04221 0.0
C12 C 0.64592 0.44567 0.02512 0.0
C13 C 0.66742 0.4391 0.05804 0.0
C14 C 0.67273 0.48587 0.95461 0.0
C15 C 0.64817 0.47003 0.97618 0.0
C16 C 0.69433 0.47921 0.98745 0.0
C17 C 0.81328 0.44009 0.9965 0.0
C18 C 0.84993 0.45256 0.91573 0.0
C19 C 0.85355 0.42925 0.03393 0.0
C20 C 0.82789 0.42859 0.04839 0.0
C21 C 0.86503 0.44169 0.96763 0.0
C22 C 0.82437 0.45162 0.92998 0.0
C23 C 0.78689 0.44171 0.01034 0.0
O24 O 0.77936 0.4747 0.18571 0.0
O25 O 0.76721 0.42997 0.22022 0.0
O26 O 0.78422 0.46595 0.02033 0.0
O27 O 0.77256 0.42114 0.05352 0.0
H28 H 0.82895 0.45771 0.19875 0.0
H29 H 0.8659 0.46648 0.27432 0.0
H30 H 0.81482 0.46439 0.44794 0.0
H31 H 0.77853 0.45464 0.37346 0.0
H32 H 0.62727 0.43271 0.04181 0.0
H33 H 0.66476 0.42156 0.09998 0.0
H34 H 0.67512 0.50468 0.91689 0.0
H35 H 0.71281 0.49304 0.97373 0.0
H36 H 0.85804 0.46293 0.86467 0.0
H37 H 0.86445 0.42042 0.07499 0.0
H38 H 0.81966 0.4196 0.10027 0.0
H39 H 0.81341 0.4607 0.8894 0.0
C40 C 0.95897 0.79096 0.33103 0.0
C41 C 0.96504 0.81779 0.29241 0.0
C42 C 0.96247 0.83743 0.39956 0.0
C43 C 0.96647 0.84071 0.3261 0.0
C44 C 0.9562 0.81035 0.43735 0.0
C45 C 0.95431 0.78759 0.40354 0.0
U46 U 0.95169 0.74318 0.18613 0.0
O47 O 0.97776 0.71664 0.17418 0.0
O48 O 0.93708 0.69802 0.19821 0.0
C49 C 0.95945 0.69413 0.1813 0.0
C50 C 0.95949 0.76611 0.29986 0.0
C51 C 0.96021 0.67555 0.12991 0.0
C52 C 0.9588 0.62885 0.11201 0.0
C53 C 0.95308 0.64708 0.1531 0.0
C54 C 0.97697 0.66704 0.02057 0.0
C55 C 0.97167 0.63868 0.04657 0.0
C56 C 0.97129 0.68539 0.06199 0.0
C57 C 0.93681 0.80033 0.05349 0.0
C58 C 0.94538 0.84123 0.96517 0.0
C59 C 0.94355 0.84517 0.08827 0.0
C60 C 0.93756 0.81655 0.10593 0.0
C61 C 0.94852 0.8577 0.01787 0.0
C62 C 0.93967 0.81269 0.98298 0.0
C63 C 0.93881 0.77184 0.072 0.0
O64 O 0.93748 0.75038 0.28685 0.0
O65 O 0.97737 0.76834 0.25188 0.0
O66 O 0.9623 0.76956 0.08439 0.0
O67 O 0.92187 0.75575 0.11843 0.0
H68 H 0.96918 0.82111 0.23658 0.0
H69 H 0.97094 0.86098 0.29435 0.0
H70 H 0.95354 0.80653 0.4938 0.0
H71 H 0.94998 0.76718 0.43479 0.0
H72 H 0.95464 0.60709 0.13334 0.0
H73 H 0.94456 0.63898 0.2051 0.0
H74 H 0.98712 0.67514 0.97064 0.0
H75 H 0.97695 0.70728 0.04267 0.0
H76 H 0.94926 0.85035 0.91048 0.0
H77 H 0.9455 0.85746 0.12967 0.0
H78 H 0.93522 0.80711 0.16064 0.0
H79 H 0.93938 0.80038 0.94204 0.0
C80 C 0.73064 0.98835 0.2939 0.0
C81 C 0.71088 1.00113 0.26975 0.0
C82 C 0.68868 0.98676 0.38414 0.0
C83 C 0.69024 1.00044 0.31426 0.0
C84 C 0.70843 0.97377 0.40805 0.0
C85 C 0.72921 0.9746 0.3634 0.0
U86 U 0.75461 1.00288 0.10894 0.0
O87 O 0.7893 0.02853 0.05261 0.0
O88 O 0.77718 0.98479 0.04196 0.0
C89 C 0.79369 0.00845 0.02276 0.0
C90 C 0.75229 0.98931 0.24571 0.0
C91 C 0.8205 0.00874 0.00581 0.0
C92 C 0.86614 0.02626 0.01679 0.0
C93 C 0.84096 0.02198 0.04237 0.0
C94 C 0.85081 0.00354 0.91886 0.0
C95 C 0.87136 0.01759 0.9539 0.0
C96 C 0.8257 0.99921 0.94454 0.0
C97 C 0.70323 0.0254 0.9865 0.0
C98 C 0.69655 0.06544 0.90698 0.0
C99 C 0.66675 0.02126 0.91189 0.0
C100 C 0.68146 0.00919 0.96146 0.0
C101 C 0.67346 0.04973 0.88771 0.0
C102 C 0.7116 0.05324 0.95554 0.0
C103 C 0.71324 0.01476 0.05369 0.0
O104 O 0.74798 0.97089 0.2037 0.0
O105 O 0.7634 0.01407 0.21304 0.0
O106 O 0.73077 0.03229 0.08108 0.0
O107 O 0.71727 0.98981 0.06183 0.0
H108 H 0.71138 0.01167 0.21615 0.0
H109 H 0.67528 0.0103 0.29348 0.0
H110 H 0.70802 0.96323 0.46163 0.0
H111 H 0.74416 0.96454 0.38318 0.0
H112 H 0.88152 0.03656 0.04612 0.0
H113 H 0.83747 0.0297 0.08949 0.0
H114 H 0.85401 0.9967 0.87022 0.0
H115 H 0.81018 0.98937 0.91476 0.0
H116 H 0.70189 0.08743 0.8888 0.0
H117 H 0.64875 0.0089 0.89806 0.0
H118 H 0.67455 0.98777 0.98469 0.0
H119 H 0.7285 0.06621 0.97327 0.0
C120 C 0.56359 0.74511 0.54531 0.0
C121 C 0.57484 0.72689 0.51588 0.0
C122 C 0.56189 0.69103 0.62018 0.0
C123 C 0.57404 0.70018 0.55293 0.0
C124 C 0.55063 0.7096 0.64852 0.0
C125 C 0.55159 0.73611 0.61191 0.0
U126 U 0.57046 0.80853 0.38972 0.0
O127 O 0.58303 0.85323 0.39108 0.0
O128 O 0.54291 0.83483 0.37555 0.0
C129 C 0.56062 0.85768 0.37207 0.0
C130 C 0.56326 0.7734 0.50916 0.0
C131 C 0.56032 0.87813 0.3076 0.0
C132 C 0.55398 0.92276 0.25131 0.0
C133 C 0.55705 0.90448 0.31211 0.0
C134 C 0.55799 0.88885 0.18017 0.0
C135 C 0.55388 0.91501 0.18448 0.0
C136 C 0.56126 0.8707 0.2409 0.0
C137 C 0.59042 0.77235 0.24369 0.0
C138 C 0.58492 0.74778 0.1457 0.0
C139 C 0.60385 0.72952 0.25182 0.0
C140 C 0.60153 0.75221 0.28163 0.0
C141 C 0.59476 0.72664 0.18433 0.0
C142 C 0.5829 0.77043 0.17508 0.0
C143 C 0.58478 0.79486 0.27418 0.0
O144 O 0.58518 0.79087 0.48974 0.0
O145 O 0.54525 0.77571 0.46389 0.0
O146 O 0.56075 0.79162 0.29334 0.0
O147 O 0.6011 0.8059 0.31815 0.0
H148 H 0.58418 0.73325 0.46445 0.0
H149 H 0.58315 0.68685 0.52894 0.0
H150 H 0.54045 0.70359 0.69877 0.0
H151 H 0.5426 0.74963 0.6357 0.0
H152 H 0.55067 0.94259 0.25698 0.0
H153 H 0.55616 0.91067 0.36285 0.0
H154 H 0.55842 0.88227 0.12979 0.0
H155 H 0.56384 0.8505 0.23592 0.0
H156 H 0.57719 0.74614 0.09436 0.0
H157 H 0.6118 0.71375 0.28257 0.0
H158 H 0.60757 0.75355 0.33472 0.0
H159 H 0.57431 0.78591 0.14521 0.0
C160 C 0.23488 0.58411 0.42463 0.0
C161 C 0.20958 0.5792 0.45003 0.0
C162 C 0.19402 0.57082 0.33545 0.0
C163 C 0.18922 0.57286 0.4054 0.0
C164 C 0.21932 0.57675 0.30962 0.0
C165 C 0.23956 0.58355 0.35375 0.0
U166 U 0.27663 0.59458 0.59216 0.0
O167 O 0.30333 0.56846 0.6251 0.0
O168 O 0.3183 0.61269 0.5864 0.0
C169 C 0.3236 0.5888 0.61015 0.0
C170 C 0.25678 0.58622 0.47097 0.0
C171 C 0.3463 0.58785 0.65281 0.0
C172 C 0.39206 0.59145 0.64999 0.0
C173 C 0.3702 0.59732 0.61809 0.0
C174 C 0.36685 0.568 0.75468 0.0
C175 C 0.39072 0.57615 0.7182 0.0
C176 C 0.34478 0.57366 0.72209 0.0
C177 C 0.2231 0.60869 0.70094 0.0
C178 C 0.19069 0.61691 0.77611 0.0
C179 C 0.17842 0.59821 0.67024 0.0
C180 C 0.2041 0.59952 0.65487 0.0
C181 C 0.1713 0.60605 0.73234 0.0
C182 C 0.21634 0.61809 0.76065 0.0
C183 C 0.2495 0.60611 0.6909 0.0
O184 O 0.26864 0.61068 0.48299 0.0
O185 O 0.25527 0.56665 0.52561 0.0
O186 O 0.26399 0.62512 0.6442 0.0
O187 O 0.25181 0.58112 0.68701 0.0
H188 H 0.20552 0.57896 0.50463 0.0
H189 H 0.16979 0.56803 0.42642 0.0
H190 H 0.22339 0.57508 0.25593 0.0
H191 H 0.25895 0.587 0.33329 0.0
H192 H 0.40975 0.59762 0.61906 0.0
H193 H 0.37178 0.60785 0.5642 0.0
H194 H 0.36505 0.55656 0.80755 0.0
H195 H 0.32646 0.56596 0.74984 0.0
H196 H 0.18597 0.62354 0.82379 0.0
H197 H 0.1641 0.58948 0.63563 0.0
H198 H 0.20909 0.59215 0.60888 0.0
H199 H 0.23077 0.62535 0.79682 0.0
C200 C 0.08546 0.25823 0.37743 0.0
C201 C 0.0796 0.23141 0.41601 0.0
C202 C 0.08254 0.21197 0.3089 0.0
C203 C 0.07849 0.20859 0.38233 0.0
C204 C 0.08881 0.23905 0.27118 0.0
C205 C 0.09042 0.26174 0.30505 0.0
U206 U 0.09144 0.30561 0.52235 0.0
O207 O 0.10468 0.3509 0.50944 0.0
O208 O 0.06434 0.33095 0.5352 0.0
C209 C 0.08201 0.35399 0.52658 0.0
C210 C 0.08424 0.28283 0.40849 0.0
C211 C 0.08087 0.37272 0.57705 0.0
C212 C 0.08146 0.41921 0.59481 0.0
C213 C 0.08579 0.401 0.55186 0.0
C214 C 0.06805 0.3813 0.69064 0.0
C215 C 0.07215 0.40967 0.66455 0.0
C216 C 0.0724 0.36298 0.64731 0.0
C217 C 0.10763 0.249 0.65428 0.0
C218 C 0.09887 0.20808 0.74261 0.0
C219 C 0.10018 0.20408 0.61951 0.0
C220 C 0.10657 0.23272 0.60185 0.0
C221 C 0.09515 0.19156 0.68994 0.0
C222 C 0.10497 0.23663 0.7248 0.0
C223 C 0.1052 0.27738 0.63601 0.0
O224 O 0.06629 0.27998 0.45672 0.0
O225 O 0.10597 0.2991 0.42134 0.0
O226 O 0.08154 0.27918 0.62426 0.0
O227 O 0.12182 0.29381 0.58929 0.0
H228 H 0.07523 0.228 0.47173 0.0
H229 H 0.0741 0.18831 0.41402 0.0
H230 H 0.09156 0.24293 0.21476 0.0
H231 H 0.09466 0.28217 0.27391 0.0
H232 H 0.08439 0.44073 0.572 0.0
H233 H 0.09206 0.40896 0.49778 0.0
H234 H 0.06116 0.3732 0.74415 0.0
H235 H 0.06845 0.34118 0.66805 0.0
H236 H 0.09503 0.19904 0.79735 0.0
H237 H 0.09786 0.19179 0.57807 0.0
H238 H 0.10883 0.24216 0.54715 0.0
H239 H 0.10553 0.24896 0.76579 0.0
C240 C 0.32643 0.06316 0.43863 0.0
C241 C 0.35084 0.07852 0.45131 0.0
C242 C 0.36962 0.06232 0.35609 0.0
C243 C 0.3722 0.07805 0.41057 0.0
C244 C 0.34524 0.04649 0.34501 0.0
C245 C 0.32402 0.04695 0.3856 0.0
U246 U 0.27638 0.05415 0.59265 0.0
O247 O 0.25227 0.08231 0.61133 0.0
O248 O 0.23494 0.04237 0.5812 0.0
C249 C 0.23103 0.06444 0.6025 0.0
C250 C 0.30283 0.06601 0.4731 0.0
C251 C 0.21067 0.0594 0.6568 0.0
C252 C 0.17108 0.0688 0.6941 0.0
C253 C 0.1924 0.07529 0.6484 0.0
C254 C 0.18641 0.03085 0.75898 0.0
C255 C 0.16752 0.04611 0.74889 0.0
C256 C 0.20793 0.03756 0.71352 0.0
C257 C 0.31937 0.02111 0.71812 0.0
C258 C 0.34613 0.99922 0.79916 0.0
C259 C 0.36318 0.02354 0.68453 0.0
C260 C 0.33964 0.02966 0.66841 0.0
C261 C 0.36679 0.00872 0.75053 0.0
C262 C 0.32254 0.00549 0.78307 0.0
C263 C 0.29536 0.02957 0.70364 0.0
O264 O 0.28517 0.04327 0.49175 0.0
O265 O 0.30489 0.08314 0.51827 0.0
O266 O 0.28034 0.01613 0.66085 0.0
O267 O 0.29767 0.05632 0.6895 0.0
H268 H 0.35338 0.0914 0.49146 0.0
H269 H 0.3907 0.09024 0.42131 0.0
H270 H 0.34227 0.03451 0.30298 0.0
H271 H 0.30542 0.03527 0.3737 0.0
H272 H 0.15667 0.08066 0.68413 0.0
H273 H 0.19411 0.09211 0.60477 0.0
H274 H 0.18416 0.01331 0.80078 0.0
H275 H 0.22194 0.02511 0.72105 0.0
H276 H 0.34856 0.98814 0.8507 0.0
H277 H 0.37884 0.03108 0.64614 0.0
H278 H 0.33744 0.04172 0.61795 0.0
H279 H 0.30701 0.99884 0.82199 0.0
C280 C 0.47259 0.30368 0.15813 0.0
C281 C 0.45816 0.3208 0.18035 0.0
C282 C 0.47488 0.35718 0.07982 0.0
C283 C 0.45931 0.34729 0.14161 0.0
C284 C 0.4893 0.33975 0.05876 0.0
C285 C 0.48809 0.31351 0.0971 0.0
U286 U 0.46297 0.2394 0.31302 0.0
O287 O 0.45286 0.19483 0.30829 0.0
O288 O 0.49192 0.21498 0.33017 0.0
C289 C 0.47534 0.19154 0.33014 0.0
C290 C 0.47261 0.27562 0.19595 0.0
C291 C 0.47557 0.17085 0.39386 0.0
C292 C 0.48385 0.12698 0.44859 0.0
C293 C 0.47989 0.14501 0.38838 0.0
C294 C 0.47835 0.16 0.52097 0.0
C295 C 0.4838 0.13454 0.51557 0.0
C296 C 0.47417 0.17788 0.46086 0.0
C297 C 0.43717 0.27202 0.45793 0.0
C298 C 0.43255 0.28864 0.56631 0.0
C299 C 0.44071 0.32055 0.45628 0.0
C300 C 0.44038 0.29873 0.42035 0.0
C301 C 0.43824 0.31573 0.5299 0.0
C302 C 0.43194 0.26687 0.53035 0.0
C303 C 0.44432 0.25042 0.42688 0.0
O304 O 0.48917 0.27369 0.24566 0.0
O305 O 0.45066 0.25753 0.21012 0.0
O306 O 0.42974 0.24021 0.37835 0.0
O307 O 0.46887 0.25457 0.41258 0.0
H308 H 0.44606 0.31374 0.22733 0.0
H309 H 0.44778 0.35986 0.1597 0.0
H310 H 0.50205 0.34649 0.01301 0.0
H311 H 0.49953 0.30081 0.07902 0.0
H312 H 0.48813 0.10763 0.44228 0.0
H313 H 0.48113 0.13916 0.33734 0.0
H314 H 0.47776 0.16632 0.57164 0.0
H315 H 0.47078 0.19769 0.4665 0.0
H316 H 0.43056 0.28452 0.62303 0.0
H317 H 0.44535 0.34134 0.42726 0.0
H318 H 0.44465 0.30294 0.36442 0.0
H319 H 0.42954 0.24628 0.55995 0.0
Nd320 Nd 0.01338 0.01929 0.78116 0.0
Nd321 Nd 0.02711 0.03083 0.92784 0.0
C322 C 0.99316 0.99973 0.668 0.0
C323 C 0.98896 0.97479 0.63319 0.0
C324 C 0.96464 0.95691 0.63517 0.0
C325 C 0.95997 0.93488 0.59747 0.0
C326 C 0.97948 0.92996 0.55635 0.0
C327 C 0.00393 0.9477 0.55538 0.0
C328 C 0.00855 0.96978 0.59281 0.0
C329 C 0.06311 0.01976 0.81311 0.0
C330 C 1.00121 0.96938 0.91754 0.0
C331 C 0.04762 0.04998 0.04097 0.0
C332 C 0.05261 0.07504 0.07515 0.0
C333 C 0.07723 0.09234 0.07256 0.0
C334 C 0.0826 0.11442 0.11001 0.0
C335 C 0.06349 0.11991 0.15141 0.0
C336 C 0.03872 0.10284 0.15272 0.0
C337 C 0.03341 0.08072 0.11558 0.0
C338 C 0.97718 0.02945 0.8969 0.0
C339 C 0.03959 0.08079 0.79123 0.0
O340 O 0.97985 0.99856 0.72523 0.0
O341 O 0.01652 0.01421 0.66989 0.0
O342 O 0.05573 0.02897 0.75213 0.0
O343 O 0.04442 0.00882 0.8556 0.0
O344 O 0.99489 0.97965 0.85464 0.0
O345 O 0.01849 0.984 0.95348 0.0
O346 O 0.06096 0.05046 0.98428 0.0
O347 O 0.02396 0.03639 0.03861 0.0
O348 O 0.98491 0.02042 0.95759 0.0
O349 O 0.99571 0.04111 0.85406 0.0
O350 O 0.0455 0.07056 0.85459 0.0
O351 O 0.02245 0.0662 0.75481 0.0
H352 H 0.94899 0.96029 0.66481 0.0
H353 H 0.94078 0.92215 0.59928 0.0
H354 H 0.0197 0.94454 0.52582 0.0
H355 H 0.02752 0.98314 0.5893 0.0
H356 H 0.09258 0.08844 0.04273 0.0
H357 H 0.10199 0.12669 0.10789 0.0
H358 H 0.02326 0.10652 0.18244 0.0
H359 H 0.01423 0.06783 0.11945 0.0
Nd360 Nd 0.52645 0.01173 0.79077 0.0
Nd361 Nd 0.51805 0.04128 0.90468 0.0
C362 C 0.53638 0.98026 0.70262 0.0
C363 C 0.55869 0.98117 0.65593 0.0
C364 C 0.5777 0.96716 0.67953 0.0
C365 C 0.59878 0.96826 0.63593 0.0
C366 C 0.60144 0.9833 0.56722 0.0
C367 C 0.58234 0.99722 0.54358 0.0
C368 C 0.56127 0.99613 0.58718 0.0
C369 C 0.52087 0.06459 0.74061 0.0
C370 C 0.57512 0.05424 0.83318 0.0
C371 C 0.51038 0.07126 0.99946 0.0
C372 C 0.49041 0.06957 0.05374 0.0
C373 C 0.47872 0.09167 0.0535 0.0
C374 C 0.45977 0.09045 0.10407 0.0
C375 C 0.45209 0.0671 0.15653 0.0
C376 C 0.4639 0.04499 0.15665 0.0
C377 C 0.48274 0.04616 0.10585 0.0
C378 C 0.52303 0.98803 0.9529 0.0
C379 C 0.46799 0.00608 0.84283 0.0
O380 O 0.53909 0.97476 0.77042 0.0
O381 O 0.52365 0.99934 0.68562 0.0
O382 O 0.53776 0.05338 0.7174 0.0
O383 O 0.5079 0.04787 0.79018 0.0
O384 O 0.56732 0.03162 0.807 0.0
O385 O 0.55929 0.06423 0.8677 0.0
O386 O 0.5041 0.0762 0.93405 0.0
O387 O 0.52434 0.05309 0.00999 0.0
O388 O 0.50515 0.99864 0.97303 0.0
O389 O 0.53682 0.00526 0.90554 0.0
O390 O 0.47711 0.02698 0.87501 0.0
O391 O 0.4833 0.99316 0.81578 0.0
H392 H 0.57639 0.95538 0.73199 0.0
H393 H 0.61319 0.95756 0.65659 0.0
H394 H 0.5834 0.00868 0.49081 0.0
H395 H 0.54695 0.00703 0.56679 0.0
H396 H 0.48418 0.1099 0.01381 0.0
H397 H 0.45088 0.1077 0.10129 0.0
H398 H 0.4588 0.0268 0.19653 0.0
H399 H 0.4913 0.02871 0.10756 0.0
Nd400 Nd 0.51405 0.53258 0.91076 0.0
Nd401 Nd 0.52408 0.51449 0.78558 0.0
C402 C 0.50461 0.56002 0.00793 0.0
C403 C 0.52099 0.58324 0.0355 0.0
C404 C 0.51824 0.61011 0.01202 0.0
C405 C 0.53504 0.63241 0.03324 0.0
C406 C 0.55467 0.62818 0.07893 0.0
C407 C 0.55729 0.60138 0.10318 0.0
C408 C 0.54065 0.57907 0.08149 0.0
C409 C 0.55789 0.51328 0.91939 0.0
C410 C 0.54424 0.57876 0.77753 0.0
C411 C 0.53282 0.48745 0.68646 0.0
C412 C 0.51941 0.46088 0.66863 0.0
C413 C 0.51443 0.43684 0.71926 0.0
C414 C 0.49883 0.41259 0.70394 0.0
C415 C 0.48796 0.41199 0.63778 0.0
C416 C 0.49337 0.43596 0.58693 0.0
C417 C 0.50896 0.46017 0.60226 0.0
C418 C 0.48047 0.53423 0.78154 0.0
C419 C 0.49386 0.46848 0.918 0.0
O420 O 0.4977 0.56521 0.94312 0.0
O421 O 0.5112 0.53654 0.02227 0.0
O422 O 0.54091 0.50896 0.96918 0.0
O423 O 0.55237 0.5287 0.86586 0.0
O424 O 0.53025 0.57406 0.83608 0.0
O425 O 0.54865 0.55797 0.75071 0.0
O426 O 0.5451 0.48703 0.74504 0.0
O427 O 0.51976 0.50638 0.67685 0.0
O428 O 0.49792 0.54087 0.73224 0.0
O429 O 0.48602 0.51758 0.83195 0.0
O430 O 0.50875 0.47312 0.86119 0.0
O431 O 0.48858 0.48935 0.9426 0.0
H432 H 0.50326 0.61391 0.97672 0.0
H433 H 0.53234 0.65294 0.01513 0.0
H434 H 0.57224 0.59773 0.13876 0.0
H435 H 0.54339 0.55863 0.10036 0.0
H436 H 0.52211 0.43688 0.77113 0.0
H437 H 0.49495 0.39446 0.74424 0.0
H438 H 0.48576 0.43599 0.53495 0.0
H439 H 0.51242 0.47854 0.56268 0.0
Nd440 Nd 0.00961 0.53163 0.78747 0.0
Nd441 Nd 0.02987 0.51005 0.92606 0.0
C442 C 0.98204 0.54715 0.68064 0.0
C443 C 0.96224 0.53351 0.63566 0.0
C444 C 0.93609 0.52829 0.65389 0.0
C445 C 0.91756 0.51582 0.61072 0.0
C446 C 0.9247 0.50848 0.54795 0.0
C447 C 0.95082 0.51374 0.52969 0.0
C448 C 0.96934 0.52611 0.57292 0.0
C449 C 0.03702 0.49259 0.78042 0.0
C450 C 0.97159 0.48201 0.89802 0.0
C451 C 0.05755 0.4879 0.02155 0.0
C452 C 0.07662 0.49968 0.07035 0.0
C453 C 0.10138 0.49533 0.06823 0.0
C454 C 0.12013 0.50746 0.11103 0.0
C455 C 0.11452 0.52404 0.15777 0.0
C456 C 0.08966 0.52847 0.15961 0.0
C457 C 0.07096 0.51653 0.11618 0.0
C458 C 0.01454 0.55667 0.94692 0.0
C459 C 0.0662 0.56076 0.81935 0.0
O460 O 0.97566 0.54649 0.74616 0.0
O461 O 0.00515 0.54371 0.67344 0.0
O462 O 0.03904 0.51481 0.73493 0.0
O463 O 0.02049 0.49107 0.82811 0.0
O464 O 0.97475 0.4985 0.83674 0.0
O465 O 0.99016 0.48162 0.9425 0.0
O466 O 0.0644 0.49436 0.95492 0.0
O467 O 0.03368 0.48825 0.03334 0.0
O468 O 0.02463 0.54135 0.99342 0.0
O469 O 0.0128 0.54757 0.8895 0.0
O470 O 0.06489 0.53828 0.86559 0.0
O471 O 0.04565 0.56612 0.78786 0.0
H472 H 0.92989 0.53398 0.70134 0.0
H473 H 0.89759 0.51245 0.62582 0.0
H474 H 0.95698 0.50815 0.48205 0.0
H475 H 0.98928 0.52994 0.55692 0.0
H476 H 0.10634 0.48279 0.03263 0.0
H477 H 0.13916 0.50407 0.10668 0.0
H478 H 0.0845 0.54087 0.19521 0.0
H479 H 0.05211 0.52061 0.11843 0.0
C480 C 0.12855 0.00954 0.7929 0.0
C481 C 0.14271 0.03683 0.78887 0.0
H482 H 0.0913 0.9823 0.80635 0.0
C483 C 0.13106 0.05611 0.81189 0.0
H484 H 0.13694 0.99429 0.77492 0.0
C485 C 0.10506 0.04907 0.83075 0.0
C486 C 0.09032 0.02266 0.82712 0.0
H487 H 0.14155 0.07722 0.8099 0.0
H488 H 0.09598 0.06503 0.84131 0.0
C489 C 0.10246 1.00257 0.81145 0.0
C490 C 0.5081 0.12828 0.62713 0.0
C491 C 0.49105 0.11673 0.57853 0.0
H492 H 0.53103 0.12076 0.71673 0.0
C493 C 0.48233 0.08794 0.58829 0.0
H494 H 0.51537 0.15034 0.62101 0.0
C495 C 0.49115 0.07116 0.64341 0.0
C496 C 0.509 0.08274 0.68976 0.0
H497 H 0.469 0.07833 0.55257 0.0
H498 H 0.48469 0.04902 0.64844 0.0
C499 C 0.51714 0.11142 0.68187 0.0
C500 C 0.43839 0.58346 0.72825 0.0
C501 C 0.41379 0.56698 0.74725 0.0
H502 H 0.47854 0.58568 0.72358 0.0
C503 C 0.41173 0.54055 0.78721 0.0
H504 H 0.44097 0.60423 0.69986 0.0
C505 C 0.43361 0.53026 0.80303 0.0
C506 C 0.45776 0.54601 0.7779 0.0
H507 H 0.39321 0.52714 0.80275 0.0
H508 H 0.43147 0.50944 0.83078 0.0
C509 C 0.46001 0.57293 0.7423 0.0
C510 C 0.04304 0.42221 0.75031 0.0
C511 C 0.06543 0.42936 0.70711 0.0
H512 H 0.01648 0.43667 0.80895 0.0
C513 C 0.08004 0.45659 0.69884 0.0
H514 H 0.03124 0.40148 0.75792 0.0
C515 C 0.07135 0.47663 0.72691 0.0
C516 C 0.04812 0.46993 0.76547 0.0
H517 H 0.09776 0.46278 0.66797 0.0
H518 H 0.08235 0.49773 0.71595 0.0
C519 C 0.03453 0.44234 0.77959 0.0
C520 C 0.91573 0.04787 0.93033 0.0
C521 C 0.89813 0.02299 0.92549 0.0
H522 H 0.95505 0.0699 0.92187 0.0
C523 C 0.90672 1.00276 0.89673 0.0
H524 H 0.90972 0.06411 0.95091 0.0
C525 C 0.93259 0.00643 0.87873 0.0
C526 C 0.95031 0.0305 0.88817 0.0
H527 H 0.89381 0.9833 0.89253 0.0
H528 H 0.93906 0.98957 0.8626 0.0
C529 C 0.94158 0.05152 0.91214 0.0
C530 C 0.55814 0.96219 0.11091 0.0
C531 C 0.54817 0.93354 0.12035 0.0
H532 H 0.55837 1.0017 0.04949 0.0
C533 C 0.5315 0.9229 0.06978 0.0
H534 H 0.57119 0.97116 0.14813 0.0
C535 C 0.52413 0.94049 0.01336 0.0
C536 C 0.53362 0.96905 0.00537 0.0
H537 H 0.52323 0.90103 0.07546 0.0
H538 H 0.51044 0.93181 0.97711 0.0
C539 C 0.55101 0.97969 0.05402 0.0
C540 C 0.60756 0.48025 0.01208 0.0
C541 C 0.62512 0.48105 0.95805 0.0
H542 H 0.57323 0.48995 0.042 0.0
C543 C 0.62097 0.49365 0.88968 0.0
H544 H 0.6105 0.47155 0.06569 0.0
C545 C 0.59929 0.50466 0.87586 0.0
C546 C 0.58169 0.50336 0.93043 0.0
H547 H 0.63428 0.49473 0.84703 0.0
H548 H 0.59617 0.51383 0.82283 0.0
C549 C 0.58623 0.49114 0.99849 0.0
C550 C 0.97644 0.61166 0.94954 0.0
C551 C 0.98385 0.62 0.01407 0.0
H552 H 0.9804 0.58475 0.87651 0.0
C553 C 0.00274 0.6093 0.05131 0.0
H554 H 0.96189 0.61972 0.91984 0.0
C555 C 0.01328 0.58981 0.02677 0.0
C556 C 0.00521 0.58028 0.96424 0.0
H557 H 0.00901 0.61563 0.10065 0.0
H558 H 0.02739 0.58162 0.05821 0.0
C559 C 0.98705 0.5918 0.92474 0.0
C560 C 0.09062 0.14661 0.76896 0.0
C561 C 0.08311 0.16193 0.70885 0.0
H562 H 0.08263 0.10941 0.84225 0.0
C563 C 0.06193 0.14975 0.67248 0.0
H564 H 0.10706 0.15532 0.79742 0.0
C565 C 0.04775 0.1231 0.69807 0.0
C566 C 0.05451 0.10845 0.76059 0.0
H567 H 0.05559 0.16126 0.6262 0.0
H568 H 0.03116 0.11438 0.67026 0.0
C569 C 0.07645 0.12028 0.7947 0.0
C570 C 0.41254 0.03027 0.76026 0.0
C571 C 0.39279 0.00645 0.77128 0.0
H572 H 0.45163 0.04831 0.77431 0.0
C573 C 0.39803 0.98146 0.80436 0.0
H574 H 0.40901 0.04987 0.73595 0.0
C575 C 0.42283 0.98049 0.82616 0.0
C576 C 0.44222 0.00467 0.81638 0.0
H577 H 0.383 0.96283 0.8134 0.0
H578 H 0.42664 0.96128 0.85224 0.0
C579 C 0.43689 0.02939 0.7827 0.0
C580 C 0.46724 0.33782 0.61445 0.0
C581 C 0.44707 0.33873 0.56836 0.0
H582 H 0.49632 0.36047 0.67149 0.0
C583 C 0.43841 0.363 0.55185 0.0
H584 H 0.47454 0.31942 0.62698 0.0
C585 C 0.45074 0.38652 0.57802 0.0
C586 C 0.47216 0.38617 0.62003 0.0
H587 H 0.42281 0.36404 0.51659 0.0
H588 H 0.44412 0.40524 0.56324 0.0
C589 C 0.47974 0.36135 0.63988 0.0
C590 C 0.12428 0.60169 0.70811 0.0
C591 C 0.1439 0.59944 0.75591 0.0
H592 H 0.08388 0.5917 0.69098 0.0
C593 C 0.13707 0.5879 0.82626 0.0
H594 H 0.12887 0.6107 0.65365 0.0
C595 C 0.11154 0.5773 0.84738 0.0
C596 C 0.09204 0.57794 0.79893 0.0
H597 H 0.15151 0.58539 0.86448 0.0
H598 H 0.10714 0.56726 0.90128 0.0
C599 C 0.09851 0.59112 0.72955 0.0
C600 C 0.98087 0.90007 0.0351 0.0
C601 C 0.95981 0.88745 0.9991 0.0
H602 H 0.0109 0.93607 0.03715 0.0
C603 C 0.95162 0.90256 0.93971 0.0
H604 H 0.98769 0.88869 0.08083 0.0
C605 C 0.96501 0.92926 0.9144 0.0
C606 C 0.98689 0.94151 0.94801 0.0
H607 H 0.93525 0.89344 0.91161 0.0
H608 H 0.95831 0.94009 0.8676 0.0
C609 C 0.99433 0.92699 0.00977 0.0
C610 C 0.64298 0.0572 0.79438 0.0
C611 C 0.65336 0.06298 0.85812 0.0
H612 H 0.60936 0.05162 0.73431 0.0
C613 C 0.63979 0.07404 0.90346 0.0
H614 H 0.65319 0.0486 0.75901 0.0
C615 C 0.61449 0.0752 0.89037 0.0
C616 C 0.60284 0.06537 0.83172 0.0
H617 H 0.64756 0.07835 0.95332 0.0
H618 H 0.6033 0.08034 0.93038 0.0
C619 C 0.61789 0.05881 0.78071 0.0
C620 C 0.58244 0.67533 0.20433 0.0
C621 C 0.59147 0.70021 0.15814 0.0
H622 H 0.56374 0.63276 0.21474 0.0
C623 C 0.59264 0.69983 0.08566 0.0
H624 H 0.58107 0.67481 0.26036 0.0
C625 C 0.58206 0.6758 0.05958 0.0
C626 C 0.57081 0.65167 0.10571 0.0
H627 H 0.60014 0.7185 0.04878 0.0
H628 H 0.58148 0.67639 1.00335 0.0
C629 C 0.57232 0.65121 0.17824 0.0
C630 C 0.91059 0.45257 0.0059 0.0
C631 C 0.89301 0.44586 0.95365 0.0
H632 H 0.94955 0.46881 0.02921 0.0
C633 C 0.90252 0.44664 0.8855 0.0
H634 H 0.90412 0.45237 0.05887 0.0
C635 C 0.92848 0.45682 0.86823 0.0
C636 C 0.94563 0.4656 0.91922 0.0
H637 H 0.88973 0.44071 0.8444 0.0
H638 H 0.93498 0.45893 0.81427 0.0
C639 C 0.9367 0.46211 0.9889 0.0
C640 C 0.0924 0.18941 0.20735 0.0
C641 C 0.07897 0.18767 0.27099 0.0
H642 H 0.09772 0.17041 0.11935 0.0
C643 C 0.06114 0.16285 0.29602 0.0
H644 H 0.10673 0.20771 0.18646 0.0
C645 C 0.05654 0.14092 0.25818 0.0
C646 C 0.0693 0.14306 0.19335 0.0
H647 H 0.05011 0.16043 0.34414 0.0
H648 H 0.04283 0.12223 0.28007 0.0
C649 C 0.0875 0.16763 0.169 0.0
C650 C 0.39419 0.03959 0.2823 0.0
C651 C 0.39178 0.06322 0.30865 0.0
H652 H 0.41443 0.02232 0.21337 0.0
C653 C 0.40997 0.08797 0.28623 0.0
H654 H 0.38082 0.02005 0.29892 0.0
C655 C 0.42964 0.08917 0.23779 0.0
C656 C 0.43166 0.06568 0.21018 0.0
H657 H 0.40868 0.10668 0.30464 0.0
H658 H 0.44326 0.1086 0.22198 0.0
C659 C 0.41375 0.04082 0.23368 0.0
C660 C 0.48102 0.39038 0.96419 0.0
C661 C 0.47678 0.3855 0.03763 0.0
H662 H 0.48945 0.41989 0.86941 0.0
C663 C 0.4758 0.40824 0.07004 0.0
H664 H 0.48118 0.37355 0.93637 0.0
C665 C 0.48003 0.43499 0.03078 0.0
C666 C 0.48559 0.43984 0.95808 0.0
H667 H 0.47281 0.40564 0.12626 0.0
H668 H 0.48009 0.45203 0.05805 0.0
C669 C 0.48557 0.41707 0.9253 0.0
C670 C 0.15501 0.57381 0.26548 0.0
C671 C 0.17311 0.55911 0.29183 0.0
H672 H 0.12267 0.5747 0.20062 0.0
C673 C 0.17165 0.5329 0.27539 0.0
H674 H 0.15595 0.59416 0.27743 0.0
C675 C 0.15246 0.52148 0.23299 0.0
C676 C 0.13448 0.53623 0.20484 0.0
H677 H 0.18536 0.52115 0.29583 0.0
H678 H 0.15166 0.50094 0.22275 0.0
C679 C 0.13594 0.56255 0.2219 0.0
C680 C 0.9521 0.85996 0.50075 0.0
C681 C 0.96576 0.86179 0.43743 0.0
H682 H 0.94605 0.87892 0.58819 0.0
C683 C 0.98337 0.88681 0.41258 0.0
H684 H 0.9379 0.84152 0.52155 0.0
C685 C 0.9875 0.90884 0.45024 0.0
C686 C 0.9744 0.90664 0.51465 0.0
H687 H 0.99456 0.88933 0.36467 0.0
H688 H 1.00105 0.92766 0.42845 0.0
C689 C 0.95648 0.88182 0.53885 0.0
C690 C 0.6551 0.96184 0.47796 0.0
C691 C 0.66647 0.98597 0.43145 0.0
H692 H 0.62565 0.94183 0.55557 0.0
C693 C 0.65623 0.00926 0.43004 0.0
H694 H 0.66212 0.94335 0.47973 0.0
C695 C 0.63531 0.00844 0.47391 0.0
C696 C 0.6239 0.98427 0.52041 0.0
H697 H 0.66465 0.02834 0.39566 0.0
H698 H 0.62834 0.02696 0.47203 0.0
C699 C 0.63412 0.96098 0.52163 0.0
C700 C 0.55886 0.65711 0.73462 0.0
C701 C 0.56019 0.66231 0.66049 0.0
H702 H 0.55279 0.62715 0.82911 0.0
C703 C 0.55857 0.63952 0.62596 0.0
H704 H 0.56082 0.67383 0.76406 0.0
C705 C 0.55479 0.6126 0.66402 0.0
C706 C 0.55214 0.60751 0.73774 0.0
H707 H 0.55919 0.64223 0.56929 0.0
H708 H 0.55272 0.59562 0.63535 0.0
C709 C 0.55456 0.63021 0.77243 0.0
C710 C 0.88761 0.49456 0.38435 0.0
C711 C 0.86563 0.47482 0.41255 0.0
H712 H 0.92327 0.52075 0.40475 0.0
C713 C 0.86415 0.46502 0.4853 0.0
H714 H 0.88939 0.50292 0.32891 0.0
C715 C 0.88343 0.4756 0.52893 0.0
C716 C 0.90493 0.49599 0.50098 0.0
H717 H 0.84788 0.44936 0.50895 0.0
H718 H 0.88145 0.46786 0.58473 0.0
C719 C 0.90704 0.50493 0.42798 0.0
loop_
_geom_bond_atom_site_label_1
_geom_bond_atom_site_label_2
_geom_bond_distance
_geom_bond_site_symmetry_2
_ccdc_geom_bond_type
C0 C1 1.264 . S
C0 C5 1.479 . S
C0 C10 1.465 . S
C1 C0 1.264 . S
C1 C3 1.339 . S
C1 H28 0.931 . S
C2 C3 1.395 . S
C2 C4 1.320 . S
C3 C1 1.339 . S
C3 C2 1.395 . S
C3 H29 0.929 . S
C4 C2 1.320 . S
C4 C5 1.405 . S
C4 H30 0.930 . S
C5 C0 1.479 . S
C5 C4 1.405 . S
C5 H31 0.931 . S
U6 O7 2.454 . S
U6 O8 2.458 1_554 S
U6 C9 2.984 . S
U6 C10 2.847 . S
U6 C23 2.882 1_554 S
U6 O24 2.441 . S
U6 O25 2.420 . S
U6 O26 2.455 1_554 S
U6 O27 2.449 . S
O7 U6 2.454 . S
O7 C9 1.353 . S
O8 U6 2.458 1_556 S
O8 C9 1.286 1_556 S
C9 U6 2.984 . S
C9 O7 1.353 . S
C9 O8 1.286 1_554 S
C9 C11 1.363 . S
C10 C0 1.465 . S
C10 U6 2.847 . S
C10 O24 1.249 . S
C10 O25 1.202 . S
C11 C9 1.363 . S
C11 C13 1.408 . S
C11 C16 1.342 1_554 S
C12 C13 1.310 . S
C12 C15 1.461 1_554 S
C12 H32 0.932 . S
C13 C11 1.408 . S
C13 C12 1.310 . S
C13 H33 0.930 . S
C14 C15 1.474 . S
C14 C16 1.285 . S
C14 H34 0.929 . S
C15 C12 1.461 1_556 S
C15 C14 1.474 . S
C16 C11 1.342 1_556 S
C16 C14 1.285 . S
C16 H35 0.930 . S
C17 C20 1.424 . S
C17 C22 1.245 . S
C17 C23 1.428 . S
C18 C21 1.260 . S
C18 C22 1.477 . S
C18 H36 0.932 . S
C19 C20 1.384 . S
C19 C21 1.479 . S
C19 H37 0.929 . S
C20 C17 1.424 . S
C20 C19 1.384 . S
C20 H38 0.928 . S
C21 C18 1.260 . S
C21 C19 1.479 . S
C22 C17 1.245 . S
C22 C18 1.477 . S
C22 H39 0.932 . S
C23 U6 2.882 1_556 S
C23 C17 1.428 . S
C23 O26 1.301 . S
C23 O27 1.282 1_556 S
O24 U6 2.441 . S
O24 C10 1.249 . S
O25 U6 2.420 . S
O25 C10 1.202 . S
O26 U6 2.455 1_556 S
O26 C23 1.301 . S
O27 U6 2.449 . S
O27 C23 1.282 1_554 S
H28 C1 0.931 . S
H29 C3 0.929 . S
H30 C4 0.930 . S
H31 C5 0.931 . S
H32 C12 0.932 . S
H33 C13 0.930 . S
H34 C14 0.929 . S
H35 C16 0.930 . S
H36 C18 0.932 . S
H37 C19 0.929 . S
H38 C20 0.928 . S
H39 C22 0.932 . S
C40 C41 1.264 . S
C40 C45 1.479 . S
C40 C50 1.465 . S
C41 C40 1.264 . S
C41 C43 1.339 . S
C41 H68 0.931 . S
C42 C43 1.395 . S
C42 C44 1.320 . S
C43 C41 1.339 . S
C43 C42 1.395 . S
C43 H69 0.929 . S
C44 C42 1.320 . S
C44 C45 1.405 . S
C44 H70 0.930 . S
C45 C40 1.479 . S
C45 C44 1.405 . S
C45 H71 0.931 . S
U46 O47 2.454 . S
U46 O48 2.458 . S
U46 C49 2.984 . S
U46 C50 2.847 . S
U46 C63 2.882 1_554 S
U46 O64 2.441 . S
U46 O65 2.420 . S
U46 O66 2.455 1_554 S
U46 O67 2.449 . S
O47 U46 2.454 . S
O47 C49 1.353 . S
O48 U46 2.458 . S
O48 C49 1.286 . S
C49 U46 2.984 . S
C49 O47 1.353 . S
C49 O48 1.286 . S
C49 C51 1.363 . S
C50 C40 1.465 . S
C50 U46 2.847 . S
C50 O64 1.249 . S
C50 O65 1.202 . S
C51 C49 1.363 . S
C51 C53 1.408 . S
C51 C56 1.342 1_554 S
C52 C53 1.310 . S
C52 C55 1.461 . S
C52 H72 0.932 . S
C53 C51 1.408 . S
C53 C52 1.310 . S
C53 H73 0.930 . S
C54 C55 1.474 1_556 S
C54 C56 1.285 . S
C54 H74 0.929 . S
C55 C52 1.461 . S
C55 C54 1.474 1_554 S
C56 C51 1.342 1_556 S
C56 C54 1.285 . S
C56 H75 0.930 . S
C57 C60 1.424 . S
C57 C62 1.245 . S
C57 C63 1.428 . S
C58 C61 1.260 . S
C58 C62 1.477 . S
C58 H76 0.932 . S
C59 C60 1.384 . S
C59 C61 1.479 . S
C59 H77 0.929 . S
C60 C57 1.424 . S
C60 C59 1.384 . S
C60 H78 0.928 . S
C61 C58 1.260 . S
C61 C59 1.479 . S
C62 C57 1.245 . S
C62 C58 1.477 . S
C62 H79 0.932 . S
C63 U46 2.882 1_556 S
C63 C57 1.428 . S
C63 O66 1.301 . S
C63 O67 1.282 1_556 S
O64 U46 2.441 . S
O64 C50 1.249 . S
O65 U46 2.420 . S
O65 C50 1.202 . S
O66 U46 2.455 1_556 S
O66 C63 1.301 . S
O67 U46 2.449 . S
O67 C63 1.282 1_554 S
H68 C41 0.931 . S
H69 C43 0.929 . S
H70 C44 0.930 . S
H71 C45 0.931 . S
H72 C52 0.932 . S
H73 C53 0.930 . S
H74 C54 0.929 . S
H75 C56 0.930 . S
H76 C58 0.932 . S
H77 C59 0.929 . S
H78 C60 0.928 . S
H79 C62 0.932 . S
C80 C81 1.264 . S
C80 C85 1.479 . S
C80 C90 1.465 . S
C81 C80 1.264 . S
C81 C83 1.339 . S
C81 H108 0.931 . S
C82 C83 1.395 1_565 S
C82 C84 1.320 . S
C83 C81 1.339 . S
C83 C82 1.395 1_545 S
C83 H109 0.929 . S
C84 C82 1.320 . S
C84 C85 1.405 1_565 S
C84 H110 0.930 . S
C85 C80 1.479 . S
C85 C84 1.405 1_545 S
C85 H111 0.931 . S
U86 O87 2.454 . S
U86 O88 2.458 1_554 S
U86 C89 2.985 1_554 S
U86 C90 2.846 . S
U86 C103 2.883 1_554 S
U86 O104 2.440 . S
U86 O105 2.420 . S
U86 O106 2.456 1_554 S
U86 O107 2.449 1_554 S
O87 U86 2.454 . S
O87 C89 1.353 1_554 S
O88 U86 2.458 1_556 S
O88 C89 1.286 . S
C89 U86 2.985 1_556 S
C89 O87 1.353 1_556 S
C89 O88 1.286 . S
C89 C91 1.350 1_545 S
C90 C80 1.465 . S
C90 U86 2.846 . S
C90 O104 1.249 . S
C90 O105 1.202 . S
C91 C89 1.350 1_565 S
C91 C93 1.410 1_556 S
C91 C96 1.355 . S
C92 C93 1.310 1_556 S
C92 C95 1.461 . S
C92 H112 0.932 1_556 S
C93 C91 1.410 1_554 S
C93 C92 1.310 1_554 S
C93 H113 0.929 . S
C94 C95 1.474 . S
C94 C96 1.285 . S
C94 H114 0.929 . S
C95 C92 1.461 . S
C95 C94 1.474 . S
C96 C91 1.355 . S
C96 C94 1.285 . S
C96 H115 0.930 . S
C97 C100 1.424 . S
C97 C102 1.245 . S
C97 C103 1.428 . S
C98 C101 1.260 1_545 S
C98 C102 1.477 . S
C98 H116 0.932 . S
C99 C100 1.384 . S
C99 C101 1.479 1_545 S
C99 H117 0.929 . S
C100 C97 1.424 . S
C100 C99 1.384 . S
C100 H118 0.928 . S
C101 C98 1.260 1_565 S
C101 C99 1.479 1_565 S
C102 C97 1.245 . S
C102 C98 1.477 . S
C102 H119 0.932 . S
C103 U86 2.883 1_556 S
C103 C97 1.428 . S
C103 O106 1.301 . S
C103 O107 1.282 . S
O104 U86 2.440 . S
O104 C90 1.249 . S
O105 U86 2.420 . S
O105 C90 1.202 . S
O106 U86 2.456 1_556 S
O106 C103 1.301 . S
O107 U86 2.449 1_556 S
O107 C103 1.282 . S
H108 C81 0.931 . S
H109 C83 0.929 . S
H110 C84 0.930 . S
H111 C85 0.931 . S
H112 C92 0.932 1_554 S
H113 C93 0.929 . S
H114 C94 0.929 . S
H115 C96 0.930 . S
H116 C98 0.932 . S
H117 C99 0.929 . S
H118 C100 0.928 . S
H119 C102 0.932 . S
C120 C121 1.264 . S
C120 C125 1.479 . S
C120 C130 1.465 . S
C121 C120 1.264 . S
C121 C123 1.339 . S
C121 H148 0.931 . S
C122 C123 1.395 . S
C122 C124 1.320 . S
C123 C121 1.339 . S
C123 C122 1.395 . S
C123 H149 0.929 . S
C124 C122 1.320 . S
C124 C125 1.405 . S
C124 H150 0.930 . S
C125 C120 1.479 . S
C125 C124 1.405 . S
C125 H151 0.931 . S
U126 O127 2.454 . S
U126 O128 2.458 . S
U126 C129 2.984 . S
U126 C130 2.847 . S
U126 C143 2.882 . S
U126 O144 2.441 . S
U126 O145 2.420 . S
U126 O146 2.455 . S
U126 O147 2.449 . S
O127 U126 2.454 . S
O127 C129 1.353 . S
O128 U126 2.458 . S
O128 C129 1.286 . S
C129 U126 2.984 . S
C129 O127 1.353 . S
C129 O128 1.286 . S
C129 C131 1.363 . S
C130 C120 1.465 . S
C130 U126 2.847 . S
C130 O144 1.249 . S
C130 O145 1.202 . S
C131 C129 1.363 . S
C131 C133 1.408 . S
C131 C136 1.342 . S
C132 C133 1.310 . S
C132 C135 1.461 . S
C132 H152 0.932 . S
C133 C131 1.408 . S
C133 C132 1.310 . S
C133 H153 0.930 . S
C134 C135 1.474 . S
C134 C136 1.285 . S
C134 H154 0.929 . S
C135 C132 1.461 . S
C135 C134 1.474 . S
C136 C131 1.342 . S
C136 C134 1.285 . S
C136 H155 0.930 . S
C137 C140 1.424 . S
C137 C142 1.245 . S
C137 C143 1.428 . S
C138 C141 1.260 . S
C138 C142 1.477 . S
C138 H156 0.932 . S
C139 C140 1.384 . S
C139 C141 1.479 . S
C139 H157 0.929 . S
C140 C137 1.424 . S
C140 C139 1.384 . S
C140 H158 0.928 . S
C141 C138 1.260 . S
C141 C139 1.479 . S
C142 C137 1.245 . S
C142 C138 1.477 . S
C142 H159 0.932 . S
C143 U126 2.882 . S
C143 C137 1.428 . S
C143 O146 1.301 . S
C143 O147 1.282 . S
O144 U126 2.441 . S
O144 C130 1.249 . S
O145 U126 2.420 . S
O145 C130 1.202 . S
O146 U126 2.455 . S
O146 C143 1.301 . S
O147 U126 2.449 . S
O147 C143 1.282 . S
H148 C121 0.931 . S
H149 C123 0.929 . S
H150 C124 0.930 . S
H151 C125 0.931 . S
H152 C132 0.932 . S
H153 C133 0.930 . S
H154 C134 0.929 . S
H155 C136 0.930 . S
H156 C138 0.932 . S
H157 C139 0.929 . S
H158 C140 0.928 . S
H159 C142 0.932 . S
C160 C161 1.264 . S
C160 C165 1.479 . S
C160 C170 1.465 . S
C161 C160 1.264 . S
C161 C163 1.339 . S
C161 H188 0.931 . S
C162 C163 1.395 . S
C162 C164 1.320 . S
C163 C161 1.339 . S
C163 C162 1.395 . S
C163 H189 0.929 . S
C164 C162 1.320 . S
C164 C165 1.405 . S
C164 H190 0.930 . S
C165 C160 1.479 . S
C165 C164 1.405 . S
C165 H191 0.931 . S
U166 O167 2.454 . S
U166 O168 2.458 . S
U166 C169 2.984 . S
U166 C170 2.847 . S
U166 C183 2.882 . S
U166 O184 2.441 . S
U166 O185 2.420 . S
U166 O186 2.455 . S
U166 O187 2.449 . S
O167 U166 2.454 . S
O167 C169 1.353 . S
O168 U166 2.458 . S
O168 C169 1.286 . S
C169 U166 2.984 . S
C169 O167 1.353 . S
C169 O168 1.286 . S
C169 C171 1.363 . S
C170 C160 1.465 . S
C170 U166 2.847 . S
C170 O184 1.249 . S
C170 O185 1.202 . S
C171 C169 1.363 . S
C171 C173 1.408 . S
C171 C176 1.342 . S
C172 C173 1.310 . S
C172 C175 1.461 . S
C172 H192 0.932 . S
C173 C171 1.408 . S
C173 C172 1.310 . S
C173 H193 0.930 . S
C174 C175 1.474 . S
C174 C176 1.285 . S
C174 H194 0.929 . S
C175 C172 1.461 . S
C175 C174 1.474 . S
C176 C171 1.342 . S
C176 C174 1.285 . S
C176 H195 0.930 . S
C177 C180 1.424 . S
C177 C182 1.245 . S
C177 C183 1.428 . S
C178 C181 1.260 . S
C178 C182 1.477 . S
C178 H196 0.932 . S
C179 C180 1.384 . S
C179 C181 1.479 . S
C179 H197 0.929 . S
C180 C177 1.424 . S
C180 C179 1.384 . S
C180 H198 0.928 . S
C181 C178 1.260 . S
C181 C179 1.479 . S
C182 C177 1.245 . S
C182 C178 1.477 . S
C182 H199 0.932 . S
C183 U166 2.882 . S
C183 C177 1.428 . S
C183 O186 1.301 . S
C183 O187 1.282 . S
O184 U166 2.441 . S
O184 C170 1.249 . S
O185 U166 2.420 . S
O185 C170 1.202 . S
O186 U166 2.455 . S
O186 C183 1.301 . S
O187 U166 2.449 . S
O187 C183 1.282 . S
H188 C161 0.931 . S
H189 C163 0.929 . S
H190 C164 0.930 . S
H191 C165 0.931 . S
H192 C172 0.932 . S
H193 C173 0.930 . S
H194 C174 0.929 . S
H195 C176 0.930 . S
H196 C178 0.932 . S
H197 C179 0.929 . S
H198 C180 0.928 . S
H199 C182 0.932 . S
C200 C201 1.264 . S
C200 C205 1.479 . S
C200 C210 1.465 . S
C201 C200 1.264 . S
C201 C203 1.339 . S
C201 H228 0.931 . S
C202 C203 1.395 . S
C202 C204 1.320 . S
C203 C201 1.339 . S
C203 C202 1.395 . S
C203 H229 0.929 . S
C204 C202 1.320 . S
C204 C205 1.405 . S
C204 H230 0.930 . S
C205 C200 1.479 . S
C205 C204 1.405 . S
C205 H231 0.931 . S
U206 O207 2.454 . S
U206 O208 2.458 . S
U206 C209 2.984 . S
U206 C210 2.847 . S
U206 C223 2.882 . S
U206 O224 2.441 . S
U206 O225 2.420 . S
U206 O226 2.455 . S
U206 O227 2.449 . S
O207 U206 2.454 . S
O207 C209 1.353 . S
O208 U206 2.458 . S
O208 C209 1.286 . S
C209 U206 2.984 . S
C209 O207 1.353 . S
C209 O208 1.286 . S
C209 C211 1.363 . S
C210 C200 1.465 . S
C210 U206 2.847 . S
C210 O224 1.249 . S
C210 O225 1.202 . S
C211 C209 1.363 . S
C211 C213 1.408 . S
C211 C216 1.342 . S
C212 C213 1.310 . S
C212 C215 1.461 . S
C212 H232 0.932 . S
C213 C211 1.408 . S
C213 C212 1.310 . S
C213 H233 0.930 . S
C214 C215 1.474 . S
C214 C216 1.285 . S
C214 H234 0.929 . S
C215 C212 1.461 . S
C215 C214 1.474 . S
C216 C211 1.342 . S
C216 C214 1.285 . S
C216 H235 0.930 . S
C217 C220 1.424 . S
C217 C222 1.245 . S
C217 C223 1.428 . S
C218 C221 1.260 . S
C218 C222 1.477 . S
C218 H236 0.932 . S
C219 C220 1.384 . S
C219 C221 1.479 . S
C219 H237 0.929 . S
C220 C217 1.424 . S
C220 C219 1.384 . S
C220 H238 0.928 . S
C221 C218 1.260 . S
C221 C219 1.479 . S
C222 C217 1.245 . S
C222 C218 1.477 . S
C222 H239 0.932 . S
C223 U206 2.882 . S
C223 C217 1.428 . S
C223 O226 1.301 . S
C223 O227 1.282 . S
O224 U206 2.441 . S
O224 C210 1.249 . S
O225 U206 2.420 . S
O225 C210 1.202 . S
O226 U206 2.455 . S
O226 C223 1.301 . S
O227 U206 2.449 . S
O227 C223 1.282 . S
H228 C201 0.931 . S
H229 C203 0.929 . S
H230 C204 0.930 . S
H231 C205 0.931 . S
H232 C212 0.932 . S
H233 C213 0.930 . S
H234 C214 0.929 . S
H235 C216 0.930 . S
H236 C218 0.932 . S
H237 C219 0.929 . S
H238 C220 0.928 . S
H239 C222 0.932 . S
C240 C241 1.264 . S
C240 C245 1.479 . S
C240 C250 1.465 . S
C241 C240 1.264 . S
C241 C243 1.339 . S
C241 H268 0.931 . S
C242 C243 1.395 . S
C242 C244 1.320 . S
C243 C241 1.339 . S
C243 C242 1.395 . S
C243 H269 0.929 . S
C244 C242 1.320 . S
C244 C245 1.405 . S
C244 H270 0.930 . S
C245 C240 1.479 . S
C245 C244 1.405 . S
C245 H271 0.931 . S
U246 O247 2.454 . S
U246 O248 2.458 . S
U246 C249 2.984 . S
U246 C250 2.847 . S
U246 C263 2.882 . S
U246 O264 2.441 . S
U246 O265 2.420 . S
U246 O266 2.455 . S
U246 O267 2.449 . S
O247 U246 2.454 . S
O247 C249 1.353 . S
O248 U246 2.458 . S
O248 C249 1.286 . S
C249 U246 2.984 . S
C249 O247 1.353 . S
C249 O248 1.286 . S
C249 C251 1.363 . S
C250 C240 1.465 . S
C250 U246 2.847 . S
C250 O264 1.249 . S
C250 O265 1.202 . S
C251 C249 1.363 . S
C251 C253 1.408 . S
C251 C256 1.342 . S
C252 C253 1.310 . S
C252 C255 1.461 . S
C252 H272 0.932 . S
C253 C251 1.408 . S
C253 C252 1.310 . S
C253 H273 0.930 . S
C254 C255 1.474 . S
C254 C256 1.285 . S
C254 H274 0.929 . S
C255 C252 1.461 . S
C255 C254 1.474 . S
C256 C251 1.342 . S
C256 C254 1.285 . S
C256 H275 0.930 . S
C257 C260 1.424 . S
C257 C262 1.245 . S
C257 C263 1.428 . S
C258 C261 1.260 . S
C258 C262 1.477 . S
C258 H276 0.932 1_556 S
C259 C260 1.384 . S
C259 C261 1.479 . S
C259 H277 0.929 . S
C260 C257 1.424 . S
C260 C259 1.384 . S
C260 H278 0.928 . S
C261 C258 1.260 . S
C261 C259 1.479 . S
C262 C257 1.245 . S
C262 C258 1.477 . S
C262 H279 0.932 . S
C263 U246 2.882 . S
C263 C257 1.428 . S
C263 O266 1.301 . S
C263 O267 1.282 . S
O264 U246 2.441 . S
O264 C250 1.249 . S
O265 U246 2.420 . S
O265 C250 1.202 . S
O266 U246 2.455 . S
O266 C263 1.301 . S
O267 U246 2.449 . S
O267 C263 1.282 . S
H268 C241 0.931 . S
H269 C243 0.929 . S
H270 C244 0.930 . S
H271 C245 0.931 . S
H272 C252 0.932 . S
H273 C253 0.930 . S
H274 C254 0.929 . S
H275 C256 0.930 . S
H276 C258 0.932 1_554 S
H277 C259 0.929 . S
H278 C260 0.928 . S
H279 C262 0.932 . S
C280 C281 1.264 . S
C280 C285 1.479 . S
C280 C290 1.465 . S
C281 C280 1.264 . S
C281 C283 1.339 . S
C281 H308 0.931 . S
C282 C283 1.395 1_556 S
C282 C284 1.320 . S
C283 C281 1.339 . S
C283 C282 1.395 1_554 S
C283 H309 0.929 . S
C284 C282 1.320 . S
C284 C285 1.405 1_556 S
C284 H310 0.930 . S
C285 C280 1.479 . S
C285 C284 1.405 1_554 S
C285 H311 0.931 . S
U286 O287 2.454 . S
U286 O288 2.458 . S
U286 C289 2.984 . S
U286 C290 2.847 . S
U286 C303 2.882 . S
U286 O304 2.441 . S
U286 O305 2.420 . S
U286 O306 2.455 . S
U286 O307 2.449 . S
O287 U286 2.454 . S
O287 C289 1.353 . S
O288 U286 2.458 . S
O288 C289 1.286 . S
C289 U286 2.984 . S
C289 O287 1.353 . S
C289 O288 1.286 . S
C289 C291 1.363 . S
C290 C280 1.465 . S
C290 U286 2.847 . S
C290 O304 1.249 . S
C290 O305 1.202 . S
C291 C289 1.363 . S
C291 C293 1.408 . S
C291 C296 1.342 . S
C292 C293 1.310 . S
C292 C295 1.461 . S
C292 H312 0.932 . S
C293 C291 1.408 . S
C293 C292 1.310 . S
C293 H313 0.930 . S
C294 C295 1.474 . S
C294 C296 1.285 . S
C294 H314 0.929 . S
C295 C292 1.461 . S
C295 C294 1.474 . S
C296 C291 1.342 . S
C296 C294 1.285 . S
C296 H315 0.930 . S
C297 C300 1.424 . S
C297 C302 1.245 . S
C297 C303 1.428 . S
C298 C301 1.260 . S
C298 C302 1.477 . S
C298 H316 0.932 . S
C299 C300 1.384 . S
C299 C301 1.479 . S
C299 H317 0.929 . S
C300 C297 1.424 . S
C300 C299 1.384 . S
C300 H318 0.928 . S
C301 C298 1.260 . S
C301 C299 1.479 . S
C302 C297 1.245 . S
C302 C298 1.477 . S
C302 H319 0.932 . S
C303 U286 2.882 . S
C303 C297 1.428 . S
C303 O306 1.301 . S
C303 O307 1.282 . S
O304 U286 2.441 . S
O304 C290 1.249 . S
O305 U286 2.420 . S
O305 C290 1.202 . S
O306 U286 2.455 . S
O306 C303 1.301 . S
O307 U286 2.449 . S
O307 C303 1.282 . S
H308 C281 0.931 . S
H309 C283 0.929 . S
H310 C284 0.930 . S
H311 C285 0.931 . S
H312 C292 0.932 . S
H313 C293 0.930 . S
H314 C294 0.929 . S
H315 C296 0.930 . S
H316 C298 0.932 . S
H317 C299 0.929 . S
H318 C300 0.928 . S
H319 C302 0.932 . S
Nd320 C322 2.836 1_445 S
Nd320 O340 2.500 1_445 S
Nd320 O341 2.492 1_545 S
Nd320 O342 2.487 . S
Nd320 O343 2.682 . S
Nd320 O344 2.410 1_545 S
Nd320 O349 2.414 1_455 S
Nd320 O351 2.424 . S
Nd321 C331 2.836 1_556 S
Nd321 O343 2.414 . S
Nd321 O345 2.424 1_545 S
Nd321 O346 2.500 . S
Nd321 O347 2.492 1_556 S
Nd321 O348 2.487 1_455 S
Nd321 O349 2.682 1_455 S
Nd321 O350 2.410 . S
C322 Nd320 2.836 1_665 S
C322 C323 1.498 . S
C322 O340 1.258 . S
C322 O341 1.239 1_655 S
C323 C322 1.498 . S
C323 C324 1.366 . S
C323 C328 1.407 . S
C324 C323 1.366 . S
C324 C325 1.392 . S
C324 H352 0.930 . S
C325 C324 1.392 . S
C325 C326 1.398 . S
C325 H353 0.929 . S
C326 C325 1.398 . S
C326 C327 1.352 . S
C327 C326 1.352 . S
C327 C328 1.384 . S
C327 H354 0.930 . S
C328 C323 1.407 . S
C328 C327 1.384 . S
C328 H355 0.929 1_655 S
C329 O342 1.241 . S
C329 O343 1.273 . S
C330 O344 1.251 . S
C330 O345 1.268 . S
C331 Nd321 2.836 1_554 S
C331 C332 1.498 . S
C331 O346 1.258 1_554 S
C331 O347 1.239 . S
C332 C331 1.498 . S
C332 C333 1.366 . S
C332 C337 1.407 . S
C333 C332 1.366 . S
C333 C334 1.392 . S
C333 H356 0.930 . S
C334 C333 1.392 . S
C334 C335 1.398 . S
C334 H357 0.929 . S
C335 C334 1.398 . S
C335 C336 1.352 . S
C336 C335 1.352 . S
C336 C337 1.384 . S
C336 H358 0.930 . S
C337 C332 1.407 . S
C337 C336 1.384 . S
C337 H359 0.929 . S
C338 O348 1.241 . S
C338 O349 1.273 . S
C339 O350 1.251 . S
C339 O351 1.268 . S
O340 Nd320 2.500 1_665 S
O340 C322 1.258 . S
O341 Nd320 2.492 1_565 S
O341 C322 1.239 1_455 S
O342 Nd320 2.487 . S
O342 C329 1.241 . S
O343 Nd320 2.682 . S
O343 Nd321 2.414 . S
O343 C329 1.273 . S
O344 Nd320 2.410 1_565 S
O344 C330 1.251 . S
O345 Nd321 2.424 1_565 S
O345 C330 1.268 . S
O346 Nd321 2.500 . S
O346 C331 1.258 1_556 S
O347 Nd321 2.492 1_554 S
O347 C331 1.239 . S
O348 Nd321 2.487 1_655 S
O348 C338 1.241 . S
O349 Nd320 2.414 1_655 S
O349 Nd321 2.682 1_655 S
O349 C338 1.273 . S
O350 Nd321 2.410 . S
O350 C339 1.251 . S
O351 Nd320 2.424 . S
O351 C339 1.268 . S
H352 C324 0.930 . S
H353 C325 0.929 . S
H354 C327 0.930 . S
H355 C328 0.929 1_455 S
H356 C333 0.930 . S
H357 C334 0.929 . S
H358 C336 0.930 . S
H359 C337 0.929 . S
Nd360 C362 2.836 1_545 S
Nd360 O380 2.500 1_545 S
Nd360 O381 2.492 . S
Nd360 O382 2.487 . S
Nd360 O383 2.682 . S
Nd360 O384 2.410 . S
Nd360 O389 2.414 1_545 S
Nd360 O391 2.424 . S
Nd361 C371 2.836 1_556 S
Nd361 O383 2.414 . S
Nd361 O385 2.424 . S
Nd361 O386 2.500 . S
Nd361 O387 2.492 1_556 S
Nd361 O388 2.487 1_545 S
Nd361 O389 2.682 1_545 S
Nd361 O390 2.410 . S
C362 Nd360 2.836 1_565 S
C362 C363 1.498 . S
C362 O380 1.258 . S
C362 O381 1.239 1_565 S
C363 C362 1.498 . S
C363 C364 1.366 . S
C363 C368 1.407 1_565 S
C364 C363 1.366 . S
C364 C365 1.392 . S
C364 H392 0.930 . S
C365 C364 1.392 . S
C365 C366 1.398 . S
C365 H393 0.929 . S
C366 C365 1.398 . S
C366 C367 1.352 . S
C367 C366 1.352 . S
C367 C368 1.384 1_565 S
C367 H394 0.930 1_565 S
C368 C363 1.407 1_545 S
C368 C367 1.384 1_545 S
C368 H395 0.929 . S
C369 O382 1.241 . S
C369 O383 1.273 . S
C370 O384 1.251 . S
C370 O385 1.268 . S
C371 Nd361 2.836 1_554 S
C371 C372 1.498 . S
C371 O386 1.258 1_554 S
C371 O387 1.239 . S
C372 C371 1.498 . S
C372 C373 1.366 . S
C372 C377 1.407 . S
C373 C372 1.366 . S
C373 C374 1.392 . S
C373 H396 0.930 1_554 S
C374 C373 1.392 . S
C374 C375 1.398 . S
C374 H397 0.929 . S
C375 C374 1.398 . S
C375 C376 1.352 . S
C376 C375 1.352 . S
C376 C377 1.384 . S
C376 H398 0.930 . S
C377 C372 1.407 . S
C377 C376 1.384 . S
C377 H399 0.929 . S
C378 O388 1.241 . S
C378 O389 1.273 . S
C379 O390 1.251 . S
C379 O391 1.268 . S
O380 Nd360 2.500 1_565 S
O380 C362 1.258 . S
O381 Nd360 2.492 . S
O381 C362 1.239 1_545 S
O382 Nd360 2.487 . S
O382 C369 1.241 . S
O383 Nd360 2.682 . S
O383 Nd361 2.414 . S
O383 C369 1.273 . S
O384 Nd360 2.410 . S
O384 C370 1.251 . S
O385 Nd361 2.424 . S
O385 C370 1.268 . S
O386 Nd361 2.500 . S
O386 C371 1.258 1_556 S
O387 Nd361 2.492 1_554 S
O387 C371 1.239 . S
O388 Nd361 2.487 1_565 S
O388 C378 1.241 . S
O389 Nd360 2.414 1_565 S
O389 Nd361 2.682 1_565 S
O389 C378 1.273 . S
O390 Nd361 2.410 . S
O390 C379 1.251 . S
O391 Nd360 2.424 . S
O391 C379 1.268 . S
H392 C364 0.930 . S
H393 C365 0.929 . S
H394 C367 0.930 1_545 S
H395 C368 0.929 . S
H396 C373 0.930 1_556 S
H397 C374 0.929 . S
H398 C376 0.930 . S
H399 C377 0.929 . S
Nd400 C402 2.836 . S
Nd400 O420 2.500 . S
Nd400 O421 2.492 . S
Nd400 O422 2.487 . S
Nd400 O423 2.682 . S
Nd400 O424 2.410 . S
Nd400 O429 2.414 . S
Nd400 O431 2.424 . S
Nd401 C411 2.836 . S
Nd401 O423 2.414 . S
Nd401 O425 2.424 . S
Nd401 O426 2.500 . S
Nd401 O427 2.492 . S
Nd401 O428 2.487 . S
Nd401 O429 2.682 . S
Nd401 O430 2.410 . S
C402 Nd400 2.836 . S
C402 C403 1.498 . S
C402 O420 1.258 . S
C402 O421 1.239 . S
C403 C402 1.498 . S
C403 C404 1.366 . S
C403 C408 1.407 1_556 S
C404 C403 1.366 . S
C404 C405 1.392 . S
C404 H432 0.930 . S
C405 C404 1.392 . S
C405 C406 1.398 1_556 S
C405 H433 0.929 . S
C406 C405 1.398 1_554 S
C406 C407 1.352 . S
C407 C406 1.352 . S
C407 C408 1.384 . S
C407 H434 0.930 . S
C408 C403 1.407 1_554 S
C408 C407 1.384 . S
C408 H435 0.929 . S
C409 O422 1.241 . S
C409 O423 1.273 . S
C410 O424 1.251 . S
C410 O425 1.268 . S
C411 Nd401 2.836 . S
C411 C412 1.498 . S
C411 O426 1.258 . S
C411 O427 1.239 . S
C412 C411 1.498 . S
C412 C413 1.366 . S
C412 C417 1.407 . S
C413 C412 1.366 . S
C413 C414 1.392 . S
C413 H436 0.930 . S
C414 C413 1.392 . S
C414 C415 1.398 . S
C414 H437 0.929 . S
C415 C414 1.398 . S
C415 C416 1.352 . S
C416 C415 1.352 . S
C416 C417 1.384 . S
C416 H438 0.930 . S
C417 C412 1.407 . S
C417 C416 1.384 . S
C417 H439 0.929 . S
C418 O428 1.241 . S
C418 O429 1.273 . S
C419 O430 1.251 . S
C419 O431 1.268 . S
O420 Nd400 2.500 . S
O420 C402 1.258 . S
O421 Nd400 2.492 . S
O421 C402 1.239 . S
O422 Nd400 2.487 . S
O422 C409 1.241 . S
O423 Nd400 2.682 . S
O423 Nd401 2.414 . S
O423 C409 1.273 . S
O424 Nd400 2.410 . S
O424 C410 1.251 . S
O425 Nd401 2.424 . S
O425 C410 1.268 . S
O426 Nd401 2.500 . S
O426 C411 1.258 . S
O427 Nd401 2.492 . S
O427 C411 1.239 . S
O428 Nd401 2.487 . S
O428 C418 1.241 . S
O429 Nd400 2.414 . S
O429 Nd401 2.682 . S
O429 C418 1.273 . S
O430 Nd401 2.410 . S
O430 C419 1.251 . S
O431 Nd400 2.424 . S
O431 C419 1.268 . S
H432 C404 0.930 . S
H433 C405 0.929 . S
H434 C407 0.930 . S
H435 C408 0.929 . S
H436 C413 0.930 . S
H437 C414 0.929 . S
H438 C416 0.930 . S
H439 C417 0.929 . S
Nd440 C442 2.836 1_455 S
Nd440 O460 2.500 1_455 S
Nd440 O461 2.492 1_455 S
Nd440 O462 2.487 . S
Nd440 O463 2.682 . S
Nd440 O464 2.410 1_455 S
Nd440 O469 2.414 . S
Nd440 O471 2.424 . S
Nd441 C451 2.836 1_556 S
Nd441 O463 2.414 . S
Nd441 O465 2.424 1_455 S
Nd441 O466 2.500 . S
Nd441 O467 2.492 1_556 S
Nd441 O468 2.487 . S
Nd441 O469 2.682 . S
Nd441 O470 2.410 . S
C442 Nd440 2.836 1_655 S
C442 C443 1.498 . S
C442 O460 1.258 . S
C442 O461 1.239 . S
C443 C442 1.498 . S
C443 C444 1.366 . S
C443 C448 1.407 . S
C444 C443 1.366 . S
C444 C445 1.392 . S
C444 H472 0.930 . S
C445 C444 1.392 . S
C445 C446 1.398 . S
C445 H473 0.929 . S
C446 C445 1.398 . S
C446 C447 1.352 . S
C447 C446 1.352 . S
C447 C448 1.384 . S
C447 H474 0.930 . S
C448 C443 1.407 . S
C448 C447 1.384 . S
C448 H475 0.929 . S
C449 O462 1.241 . S
C449 O463 1.273 . S
C450 O464 1.251 . S
C450 O465 1.268 . S
C451 Nd441 2.836 1_554 S
C451 C452 1.498 . S
C451 O466 1.258 1_554 S
C451 O467 1.239 . S
C452 C451 1.498 . S
C452 C453 1.366 . S
C452 C457 1.407 . S
C453 C452 1.366 . S
C453 C454 1.392 . S
C453 H476 0.930 . S
C454 C453 1.392 . S
C454 C455 1.398 . S
C454 H477 0.929 . S
C455 C454 1.398 . S
C455 C456 1.352 . S
C456 C455 1.352 . S
C456 C457 1.384 . S
C456 H478 0.930 . S
C457 C452 1.407 . S
C457 C456 1.384 . S
C457 H479 0.929 . S
C458 O468 1.241 . S
C458 O469 1.273 . S
C459 O470 1.251 . S
C459 O471 1.268 . S
O460 Nd440 2.500 1_655 S
O460 C442 1.258 . S
O461 Nd440 2.492 1_655 S
O461 C442 1.239 . S
O462 Nd440 2.487 . S
O462 C449 1.241 . S
O463 Nd440 2.682 . S
O463 Nd441 2.414 . S
O463 C449 1.273 . S
O464 Nd440 2.410 1_655 S
O464 C450 1.251 . S
O465 Nd441 2.424 1_655 S
O465 C450 1.268 . S
O466 Nd441 2.500 . S
O466 C451 1.258 1_556 S
O467 Nd441 2.492 1_554 S
O467 C451 1.239 . S
O468 Nd441 2.487 . S
O468 C458 1.241 . S
O469 Nd440 2.414 . S
O469 Nd441 2.682 . S
O469 C458 1.273 . S
O470 Nd441 2.410 . S
O470 C459 1.251 . S
O471 Nd440 2.424 . S
O471 C459 1.268 . S
H472 C444 0.930 . S
H473 C445 0.929 . S
H474 C447 0.930 . S
H475 C448 0.929 . S
H476 C453 0.930 . S
H477 C454 0.929 . S
H478 C456 0.930 . S
H479 C457 0.929 . S
C480 C481 1.387 . S
C480 H484 0.950 . S
C480 C489 1.390 . S
C481 C480 1.387 . S
C481 C483 1.387 . S
H482 C489 0.950 . S
C483 C481 1.387 . S
C483 C485 1.390 . S
C483 H487 0.950 . S
H484 C480 0.950 . S
C485 C483 1.390 . S
C485 C486 1.387 . S
C485 H488 0.950 . S
C486 C485 1.387 . S
C486 C489 1.387 . S
H487 C483 0.950 . S
H488 C485 0.950 . S
C489 C480 1.390 . S
C489 H482 0.950 . S
C489 C486 1.387 . S
C490 C491 1.387 . S
C490 H494 0.950 . S
C490 C499 1.390 . S
C491 C490 1.387 . S
C491 C493 1.387 . S
H492 C499 0.950 . S
C493 C491 1.387 . S
C493 C495 1.390 . S
C493 H497 0.950 . S
H494 C490 0.950 . S
C495 C493 1.390 . S
C495 C496 1.387 . S
C495 H498 0.950 . S
C496 C495 1.387 . S
C496 C499 1.387 . S
H497 C493 0.950 . S
H498 C495 0.950 . S
C499 C490 1.390 . S
C499 H492 0.950 . S
C499 C496 1.387 . S
C500 C501 1.387 . S
C500 H504 0.950 . S
C500 C509 1.390 . S
C501 C500 1.387 . S
C501 C503 1.387 . S
H502 C509 0.950 . S
C503 C501 1.387 . S
C503 C505 1.390 . S
C503 H507 0.950 . S
H504 C500 0.950 . S
C505 C503 1.390 . S
C505 C506 1.387 . S
C505 H508 0.950 . S
C506 C505 1.387 . S
C506 C509 1.387 . S
H507 C503 0.950 . S
H508 C505 0.950 . S
C509 C500 1.390 . S
C509 H502 0.950 . S
C509 C506 1.387 . S
C510 C511 1.387 . S
C510 H514 0.950 . S
C510 C519 1.390 . S
C511 C510 1.387 . S
C511 C513 1.387 . S
H512 C519 0.950 . S
C513 C511 1.387 . S
C513 C515 1.390 . S
C513 H517 0.950 . S
H514 C510 0.950 . S
C515 C513 1.390 . S
C515 C516 1.387 . S
C515 H518 0.950 . S
C516 C515 1.387 . S
C516 C519 1.387 . S
H517 C513 0.950 . S
H518 C515 0.950 . S
C519 C510 1.390 . S
C519 H512 0.950 . S
C519 C516 1.387 . S
C520 C521 1.387 1_545 S
C520 H524 0.950 . S
C520 C529 1.390 . S
C521 C520 1.387 1_565 S
C521 C523 1.387 . S
H522 C529 0.950 . S
C523 C521 1.387 . S
C523 C525 1.390 . S
C523 H527 0.950 . S
H524 C520 0.950 . S
C525 C523 1.390 . S
C525 C526 1.387 1_565 S
C525 H528 0.950 . S
C526 C525 1.387 1_545 S
C526 C529 1.387 . S
H527 C523 0.950 . S
H528 C525 0.950 . S
C529 C520 1.390 . S
C529 H522 0.950 . S
C529 C526 1.387 . S
C530 C531 1.387 . S
C530 H534 0.950 1_565 S
C530 C539 1.390 . S
C531 C530 1.387 . S
C531 C533 1.387 . S
H532 C539 0.950 1_545 S
C533 C531 1.387 . S
C533 C535 1.390 . S
C533 H537 0.950 . S
H534 C530 0.950 1_545 S
C535 C533 1.390 . S
C535 C536 1.387 . S
C535 H538 0.950 . S
C536 C535 1.387 . S
C536 C539 1.387 . S
H537 C533 0.950 . S
H538 C535 0.950 . S
C539 C530 1.390 . S
C539 H532 0.950 1_565 S
C539 C536 1.387 . S
C540 C541 1.387 . S
C540 H544 0.950 1_556 S
C540 C549 1.390 . S
C541 C540 1.387 . S
C541 C543 1.387 . S
H542 C549 0.950 . S
C543 C541 1.387 . S
C543 C545 1.390 . S
C543 H547 0.950 . S
H544 C540 0.950 1_554 S
C545 C543 1.390 . S
C545 C546 1.387 . S
C545 H548 0.950 . S
C546 C545 1.387 . S
C546 C549 1.387 . S
H547 C543 0.950 . S
H548 C545 0.950 . S
C549 C540 1.390 . S
C549 H542 0.950 . S
C549 C546 1.387 . S
C550 C551 1.387 . S
C550 H554 0.950 . S
C550 C559 1.390 . S
C551 C550 1.387 . S
C551 C553 1.389 . S
H552 C559 0.950 . S
C553 C551 1.389 . S
C553 C555 1.391 . S
C553 H557 0.947 1_556 S
H554 C550 0.950 . S
C555 C553 1.391 . S
C555 C556 1.387 . S
C555 H558 0.950 . S
C556 C555 1.387 . S
C556 C559 1.387 . S
H557 C553 0.947 1_554 S
H558 C555 0.950 . S
C559 C550 1.390 . S
C559 H552 0.950 . S
C559 C556 1.387 . S
C560 C561 1.387 . S
C560 H564 0.950 . S
C560 C569 1.390 . S
C561 C560 1.387 . S
C561 C563 1.387 . S
H562 C569 0.950 . S
C563 C561 1.387 . S
C563 C565 1.390 . S
C563 H567 0.950 . S
H564 C560 0.950 . S
C565 C563 1.390 . S
C565 C566 1.387 . S
C565 H568 0.950 . S
C566 C565 1.387 . S
C566 C569 1.387 . S
H567 C563 0.950 . S
H568 C565 0.950 . S
C569 C560 1.390 . S
C569 H562 0.950 . S
C569 C566 1.387 . S
C570 C571 1.387 . S
C570 H574 0.950 . S
C570 C579 1.390 . S
C571 C570 1.387 . S
C571 C573 1.387 . S
H572 C579 0.950 . S
C573 C571 1.387 . S
C573 C575 1.399 . S
C573 H577 0.955 . S
H574 C570 0.950 . S
C575 C573 1.399 . S
C575 C576 1.392 . S
C575 H578 0.936 1_545 S
C576 C575 1.392 . S
C576 C579 1.387 . S
H577 C573 0.955 . S
H578 C575 0.936 1_565 S
C579 C570 1.390 . S
C579 H572 0.950 . S
C579 C576 1.387 . S
C580 C581 1.387 . S
C580 H584 0.950 . S
C580 C589 1.390 . S
C581 C580 1.387 . S
C581 C583 1.387 . S
H582 C589 0.950 . S
C583 C581 1.387 . S
C583 C585 1.390 . S
C583 H587 0.950 . S
H584 C580 0.950 . S
C585 C583 1.390 . S
C585 C586 1.387 . S
C585 H588 0.950 . S
C586 C585 1.387 . S
C586 C589 1.387 . S
H587 C583 0.950 . S
H588 C585 0.950 . S
C589 C580 1.390 . S
C589 H582 0.950 . S
C589 C586 1.387 . S
C590 C591 1.387 . S
C590 H594 0.950 . S
C590 C599 1.390 . S
C591 C590 1.387 . S
C591 C593 1.387 . S
H592 C599 0.950 . S
C593 C591 1.387 . S
C593 C595 1.390 . S
C593 H597 0.950 . S
H594 C590 0.950 . S
C595 C593 1.390 . S
C595 C596 1.387 . S
C595 H598 0.950 . S
C596 C595 1.387 . S
C596 C599 1.387 . S
H597 C593 0.950 . S
H598 C595 0.950 . S
C599 C590 1.390 . S
C599 H592 0.950 . S
C599 C596 1.387 . S
C600 C601 1.387 . S
C600 H604 0.950 . S
C600 C609 1.390 . S
C601 C600 1.387 . S
C601 C603 1.387 . S
H602 C609 0.950 . S
C603 C601 1.387 . S
C603 C605 1.390 . S
C603 H607 0.950 . S
H604 C600 0.950 . S
C605 C603 1.390 . S
C605 C606 1.387 . S
C605 H608 0.950 . S
C606 C605 1.387 . S
C606 C609 1.387 . S
H607 C603 0.950 . S
H608 C605 0.950 . S
C609 C600 1.390 . S
C609 H602 0.950 . S
C609 C606 1.387 . S
C610 C611 1.387 . S
C610 H614 0.950 . S
C610 C619 1.390 . S
C611 C610 1.387 . S
C611 C613 1.387 . S
H612 C619 0.950 . S
C613 C611 1.387 . S
C613 C615 1.390 . S
C613 H617 0.950 . S
H614 C610 0.950 . S
C615 C613 1.390 . S
C615 C616 1.387 . S
C615 H618 0.950 . S
C616 C615 1.387 . S
C616 C619 1.387 . S
H617 C613 0.950 . S
H618 C615 0.950 . S
C619 C610 1.390 . S
C619 H612 0.950 . S
C619 C616 1.387 . S
C620 C621 1.387 . S
C620 H624 0.950 . S
C620 C629 1.390 . S
C621 C620 1.387 . S
C621 C623 1.387 . S
H622 C629 0.950 . S
C623 C621 1.387 . S
C623 C625 1.390 . S
C623 H627 0.950 . S
H624 C620 0.950 . S
C625 C623 1.390 . S
C625 C626 1.387 . S
C625 H628 0.950 1_554 S
C626 C625 1.387 . S
C626 C629 1.387 . S
H627 C623 0.950 . S
H628 C625 0.950 1_556 S
C629 C620 1.390 . S
C629 H622 0.950 . S
C629 C626 1.387 . S
C630 C631 1.387 . S
C630 H634 0.950 . S
C630 C639 1.390 . S
C631 C630 1.387 . S
C631 C633 1.387 . S
H632 C639 0.950 . S
C633 C631 1.387 . S
C633 C635 1.390 . S
C633 H637 0.950 . S
H634 C630 0.950 . S
C635 C633 1.390 . S
C635 C636 1.387 . S
C635 H638 0.950 . S
C636 C635 1.387 . S
C636 C639 1.387 . S
H637 C633 0.950 . S
H638 C635 0.950 . S
C639 C630 1.390 . S
C639 H632 0.950 . S
C639 C636 1.387 . S
C640 C641 1.387 . S
C640 H644 0.950 . S
C640 C649 1.390 . S
C641 C640 1.387 . S
C641 C643 1.387 . S
H642 C649 0.950 . S
C643 C641 1.387 . S
C643 C645 1.390 . S
C643 H647 0.950 . S
H644 C640 0.950 . S
C645 C643 1.390 . S
C645 C646 1.387 . S
C645 H648 0.950 . S
C646 C645 1.387 . S
C646 C649 1.387 . S
H647 C643 0.950 . S
H648 C645 0.950 . S
C649 C640 1.390 . S
C649 H642 0.950 . S
C649 C646 1.387 . S
C650 C651 1.387 . S
C650 H654 0.950 . S
C650 C659 1.390 . S
C651 C650 1.387 . S
C651 C653 1.387 . S
H652 C659 0.950 . S
C653 C651 1.387 . S
C653 C655 1.390 . S
C653 H657 0.950 . S
H654 C650 0.950 . S
C655 C653 1.390 . S
C655 C656 1.387 . S
C655 H658 0.950 . S
C656 C655 1.387 . S
C656 C659 1.387 . S
H657 C653 0.950 . S
H658 C655 0.950 . S
C659 C650 1.390 . S
C659 H652 0.950 . S
C659 C656 1.387 . S
C660 C661 1.387 . S
C660 H664 0.950 . S
C660 C669 1.390 . S
C661 C660 1.387 . S
C661 C663 1.387 . S
H662 C669 0.950 . S
C663 C661 1.387 . S
C663 C665 1.390 . S
C663 H667 0.950 1_556 S
H664 C660 0.950 . S
C665 C663 1.390 . S
C665 C666 1.387 . S
C665 H668 0.950 1_556 S
C666 C665 1.387 . S
C666 C669 1.387 . S
H667 C663 0.950 1_554 S
H668 C665 0.950 1_554 S
C669 C660 1.390 . S
C669 H662 0.950 . S
C669 C666 1.387 . S
C670 C671 1.387 . S
C670 H674 0.950 . S
C670 C679 1.390 . S
C671 C670 1.387 . S
C671 C673 1.387 . S
H672 C679 0.950 . S
C673 C671 1.387 . S
C673 C675 1.390 . S
C673 H677 0.950 . S
H674 C670 0.950 . S
C675 C673 1.390 . S
C675 C676 1.387 . S
C675 H678 0.950 . S
C676 C675 1.387 . S
C676 C679 1.387 . S
H677 C673 0.950 . S
H678 C675 0.950 . S
C679 C670 1.390 . S
C679 H672 0.950 . S
C679 C676 1.387 . S
C680 C681 1.387 . S
C680 H684 0.950 . S
C680 C689 1.390 . S
C681 C680 1.387 . S
C681 C683 1.387 . S
H682 C689 0.950 . S
C683 C681 1.387 . S
C683 C685 1.390 . S
C683 H687 0.950 . S
H684 C680 0.950 . S
C685 C683 1.390 . S
C685 C686 1.387 . S
C685 H688 0.950 . S
C686 C685 1.387 . S
C686 C689 1.387 . S
H687 C683 0.950 . S
H688 C685 0.950 . S
C689 C680 1.390 . S
C689 H682 0.950 . S
C689 C686 1.387 . S
C690 C691 1.387 . S
C690 H694 0.950 . S
C690 C699 1.390 . S
C691 C690 1.387 . S
C691 C693 1.387 1_565 S
H692 C699 0.950 . S
C693 C691 1.387 1_545 S
C693 C695 1.390 . S
C693 H697 0.950 . S
H694 C690 0.950 . S
C695 C693 1.390 . S
C695 C696 1.387 1_545 S
C695 H698 0.950 . S
C696 C695 1.387 1_565 S
C696 C699 1.387 . S
H697 C693 0.950 . S
H698 C695 0.950 . S
C699 C690 1.390 . S
C699 H692 0.950 . S
C699 C696 1.387 . S
C700 C701 1.387 . S
C700 H704 0.950 . S
C700 C709 1.390 . S
C701 C700 1.387 . S
C701 C703 1.387 . S
H702 C709 0.950 . S
C703 C701 1.387 . S
C703 C705 1.390 . S
C703 H707 0.950 . S
H704 C700 0.950 . S
C705 C703 1.390 . S
C705 C706 1.387 . S
C705 H708 0.950 . S
C706 C705 1.387 . S
C706 C709 1.387 . S
H707 C703 0.950 . S
H708 C705 0.950 . S
C709 C700 1.390 . S
C709 H702 0.950 . S
C709 C706 1.387 . S
C710 C711 1.387 . S
C710 H714 0.950 . S
C710 C719 1.390 . S
C711 C710 1.387 . S
C711 C713 1.387 . S
H712 C719 0.950 . S
C713 C711 1.387 . S
C713 C715 1.390 . S
C713 H717 0.950 . S
H714 C710 0.950 . S
C715 C713 1.390 . S
C715 C716 1.387 . S
C715 H718 0.950 . S
C716 C715 1.387 . S
C716 C719 1.387 . S
H717 C713 0.950 . S
H718 C715 0.950 . S
C719 C710 1.390 . S
C719 H712 0.950 . S
C719 C716 1.387 . S
C481 C255 1.194 . S
C486 C329 1.169 . S
C496 C369 2.444 . S
C491 C295 2.510 . S
C506 C418 1.768 . S
C501 C175 1.696 . S
C516 C449 2.311 . S
C511 C215 2.297 . S
C526 C338 1.165 . S
C521 C95 1.188 . S
C531 C135 2.494 . S
C536 C378 2.445 1_554 S
C541 C15 1.715 . S
C546 C409 1.770 . S
C551 C55 2.281 1_556 S
C556 C458 2.312 1_655 S
C566 C339 2.285 . S
C561 C221 1.945 . S
C576 C379 1.894 . S
C571 C261 1.589 . S
C586 C415 0.939 . S
C581 C301 0.945 . S
C591 C181 1.751 . S
C596 C459 2.201 . S
C601 C61 1.695 . S
C606 C330 2.285 1_655 S
C616 C370 1.895 . S
C611 C101 1.474 1_545 S
C626 C406 0.942 . S
C621 C141 0.879 . S
C631 C21 1.892 . S
C636 C450 2.198 . S
C641 C202 2.261 . S
C646 C335 2.365 . S
C651 C242 1.776 . S
C656 C375 1.827 . S
C666 C419 3.475 . S
C661 C282 3.161 . S
C676 C455 1.958 . S
C671 C162 1.789 . S
C681 C42 2.157 . S
C686 C326 2.365 . S
C696 C366 1.826 . S
C691 C82 1.813 . S
C706 C410 3.476 . S
C701 C122 3.047 . S
C711 C2 1.933 . S
C716 C446 1.959 . S
