# Generated by pormake.
# Topology pyr, (3,6)-cn, num edge types: 1
# Building blocks:
#     Node 0, Type 0, BuildingBlock: OLANEW_clean_sbu_2, # of connection points: 3
#     Node 1, Type 0, BuildingBlock: OLANEW_clean_sbu_2, # of connection points: 3
#     Node 2, Type 0, BuildingBlock: OLANEW_clean_sbu_2, # of connection points: 3
#     Node 3, Type 0, BuildingBlock: OLANEW_clean_sbu_2, # of connection points: 3
#     Node 4, Type 0, BuildingBlock: OLANEW_clean_sbu_2, # of connection points: 3
#     Node 5, Type 0, BuildingBlock: OLANEW_clean_sbu_2, # of connection points: 3
#     Node 6, Type 0, BuildingBlock: OLANEW_clean_sbu_2, # of connection points: 3
#     Node 7, Type 0, BuildingBlock: OLANEW_clean_sbu_2, # of connection points: 3
#     Node 8, Type 1, BuildingBlock: MIFKUJ_clean_sbu_0, # of connection points: 6
#     Node 9, Type 1, BuildingBlock: MIFKUJ_clean_sbu_0, # of connection points: 6
#     Node 10, Type 1, BuildingBlock: MIFKUJ_clean_sbu_0, # of connection points: 6
#     Node 11, Type 1, BuildingBlock: MIFKUJ_clean_sbu_0, # of connection points: 6
#     Edge 12, Type (0, 1), BuildingBlock: XUDNAN_clean_linker_2, # of connection points: 2
#     Edge 13, Type (0, 1), BuildingBlock: XUDNAN_clean_linker_2, # of connection points: 2
#     Edge 14, Type (0, 1), BuildingBlock: XUDNAN_clean_linker_2, # of connection points: 2
#     Edge 15, Type (0, 1), BuildingBlock: XUDNAN_clean_linker_2, # of connection points: 2
#     Edge 16, Type (0, 1), BuildingBlock: XUDNAN_clean_linker_2, # of connection points: 2
#     Edge 17, Type (0, 1), BuildingBlock: XUDNAN_clean_linker_2, # of connection points: 2
#     Edge 18, Type (0, 1), BuildingBlock: XUDNAN_clean_linker_2, # of connection points: 2
#     Edge 19, Type (0, 1), BuildingBlock: XUDNAN_clean_linker_2, # of connection points: 2
#     Edge 20, Type (0, 1), BuildingBlock: XUDNAN_clean_linker_2, # of connection points: 2
#     Edge 21, Type (0, 1), BuildingBlock: XUDNAN_clean_linker_2, # of connection points: 2
#     Edge 22, Type (0, 1), BuildingBlock: XUDNAN_clean_linker_2, # of connection points: 2
#     Edge 23, Type (0, 1), BuildingBlock: XUDNAN_clean_linker_2, # of connection points: 2
#     Edge 24, Type (0, 1), BuildingBlock: XUDNAN_clean_linker_2, # of connection points: 2
#     Edge 25, Type (0, 1), BuildingBlock: XUDNAN_clean_linker_2, # of connection points: 2
#     Edge 26, Type (0, 1), BuildingBlock: XUDNAN_clean_linker_2, # of connection points: 2
#     Edge 27, Type (0, 1), BuildingBlock: XUDNAN_clean_linker_2, # of connection points: 2
#     Edge 28, Type (0, 1), BuildingBlock: XUDNAN_clean_linker_2, # of connection points: 2
#     Edge 29, Type (0, 1), BuildingBlock: XUDNAN_clean_linker_2, # of connection points: 2
#     Edge 30, Type (0, 1), BuildingBlock: XUDNAN_clean_linker_2, # of connection points: 2
#     Edge 31, Type (0, 1), BuildingBlock: XUDNAN_clean_linker_2, # of connection points: 2
#     Edge 32, Type (0, 1), BuildingBlock: XUDNAN_clean_linker_2, # of connection points: 2
#     Edge 33, Type (0, 1), BuildingBlock: XUDNAN_clean_linker_2, # of connection points: 2
#     Edge 34, Type (0, 1), BuildingBlock: XUDNAN_clean_linker_2, # of connection points: 2
#     Edge 35, Type (0, 1), BuildingBlock: XUDNAN_clean_linker_2, # of connection points: 2
# Relax obj value: 0.072
# Max RMSD: 0.168
# Mean RMSD: 0.122
data_MOF--net-pyr--node1-OLANEW_clean_sbu_2--node2-MIFKUJ_clean_sbu_0--edge1-XUDNAN_clean_linker_2
_symmetry_space_group_name_H-M    P1
_symmetry_Int_Tables_number       1
_symmetry_cell_setting            triclinic
loop_
_symmetry_equiv_pos_as_xyz
'x, y, z'
_cell_length_a     42.735718
_cell_length_b     38.302436
_cell_length_c     40.174298
_cell_angle_alpha  89.613206
_cell_angle_beta   87.563937
_cell_angle_gamma 101.50411
loop_
_atom_site_label
_atom_site_type_symbol
_atom_site_fract_x
_atom_site_fract_y
_atom_site_fract_z
_atom_type_partial_charge
O0 O 0.25391 0.20526 0.20304 0.0
Cd1 Cd 0.20416 0.21737 0.22869 0.0
O2 O 0.26333 0.17535 0.24724 0.0
Cd3 Cd 0.22007 0.17996 0.27617 0.0
O4 O 0.17785 0.15964 0.30826 0.0
C5 C 0.18033 0.15688 0.33954 0.0
O6 O 0.20818 0.16861 0.35237 0.0
C7 C 0.27139 0.18738 0.21788 0.0
C8 C 0.17317 0.25757 0.18774 0.0
O9 O 0.1918 0.27254 0.20994 0.0
O10 O 0.16938 0.22372 0.18478 0.0
O11 O 0.34065 0.83714 0.78019 0.0
Cd12 Cd 0.31148 0.80136 0.73736 0.0
O13 O 0.3419 0.88798 0.75379 0.0
Cd14 Cd 0.30669 0.86688 0.71756 0.0
O15 O 0.26141 0.87732 0.70096 0.0
C16 C 0.24497 0.88874 0.72402 0.0
O17 O 0.25584 0.89121 0.75421 0.0
C18 C 0.35017 0.87073 0.77793 0.0
C19 C 0.35542 0.77655 0.69513 0.0
O20 O 0.34588 0.80535 0.68829 0.0
O21 O 0.34372 0.75913 0.72165 0.0
O22 O 0.72596 0.40699 0.85268 0.0
Cd23 Cd 0.67574 0.37751 0.82843 0.0
O24 O 0.74644 0.35871 0.85636 0.0
Cd25 Cd 0.70128 0.32193 0.84876 0.0
O26 O 0.66515 0.2813 0.87503 0.0
C27 C 0.65677 0.28935 0.90428 0.0
O28 O 0.66872 0.32124 0.91532 0.0
C29 C 0.74913 0.39218 0.85945 0.0
C30 C 0.65148 0.4208 0.78344 0.0
O31 O 0.64684 0.42314 0.815 0.0
O32 O 0.66788 0.39819 0.77288 0.0
O33 O 0.89943 0.78814 0.26498 0.0
Cd34 Cd 0.88675 0.76715 0.20854 0.0
O35 O 0.8723 0.73727 0.28524 0.0
Cd36 Cd 0.84998 0.70085 0.32556 0.0
O37 O 0.81626 0.67728 0.3657 0.0
C38 C 0.78692 0.67179 0.35902 0.0
O39 O 0.77925 0.67962 0.32893 0.0
C40 C 0.88737 0.76888 0.29 0.0
C41 C 0.90781 0.70684 0.18543 0.0
O42 O 0.9238 0.73824 0.17837 0.0
O43 O 0.88255 0.70392 0.20447 0.0
O44 O 0.83242 0.82181 0.80421 0.0
Cd45 Cd 0.8149 0.80383 0.86136 0.0
O46 O 0.85221 0.87654 0.81946 0.0
Cd47 Cd 0.82242 0.87092 0.86555 0.0
O48 O 0.78133 0.87793 0.89737 0.0
C49 C 0.76378 0.89772 0.8855 0.0
O50 O 0.77142 0.91221 0.85577 0.0
C51 C 0.84919 0.85255 0.79744 0.0
C52 C 0.8577 0.76447 0.88544 0.0
O53 O 0.83103 0.74888 0.87401 0.0
O54 O 0.86378 0.79858 0.88622 0.0
O55 O 0.69777 0.16961 0.34502 0.0
Cd56 Cd 0.73138 0.20266 0.38663 0.0
O57 O 0.69888 0.21861 0.31576 0.0
Cd58 Cd 0.71795 0.25452 0.35499 0.0
O59 O 0.69697 0.29198 0.38475 0.0
C60 C 0.67091 0.29697 0.3733 0.0
O61 O 0.66081 0.28039 0.34605 0.0
C62 C 0.69066 0.18496 0.31904 0.0
C63 C 0.76853 0.16111 0.41769 0.0
O64 O 0.74188 0.16538 0.43125 0.0
O65 O 0.77751 0.17636 0.38943 0.0
O66 O 0.4023 0.76048 0.24854 0.0
Cd67 Cd 0.37282 0.7174 0.29012 0.0
O68 O 0.38183 0.72987 0.20555 0.0
Cd69 Cd 0.34601 0.68872 0.23109 0.0
O70 O 0.29868 0.66073 0.21709 0.0
C71 C 0.2861 0.67786 0.19587 0.0
O72 O 0.30155 0.70973 0.18619 0.0
C73 C 0.40052 0.75659 0.21719 0.0
C74 C 0.4088 0.67838 0.32717 0.0
O75 O 0.39601 0.66618 0.30021 0.0
O76 O 0.40543 0.7095 0.33619 0.0
O77 O 0.18405 0.40438 0.78602 0.0
Cd78 Cd 0.20237 0.38019 0.73402 0.0
O79 O 0.19459 0.36082 0.81681 0.0
Cd80 Cd 0.20455 0.33007 0.77362 0.0
O81 O 0.18216 0.28829 0.74068 0.0
C82 C 0.15226 0.27831 0.7468 0.0
O83 O 0.1387 0.2938 0.77096 0.0
C84 C 0.1848 0.38996 0.81453 0.0
C85 C 0.25723 0.42196 0.70338 0.0
O86 O 0.22931 0.42736 0.69752 0.0
O87 O 0.2593 0.39709 0.72419 0.0
Zn88 Zn 0.03416 0.00778 0.58583 0.0
Zn89 Zn 0.96095 0.97678 0.51918 0.0
C90 C 0.06351 0.07438 0.60963 0.0
O91 O 0.08687 0.06571 0.59121 0.0
C92 C 0.92411 0.9157 0.48916 0.0
O93 O 0.90507 0.91809 0.51524 0.0
O94 O 0.06824 0.98533 0.60541 0.0
O95 O -0.00737 0.97349 0.59806 0.0
O96 O 0.95334 0.95384 0.56419 0.0
C97 C 0.06585 0.98203 0.63698 0.0
O98 O 0.04199 0.99244 0.6531 0.0
O99 O 0.03631 0.05348 0.61085 0.0
C100 C 0.92395 0.02044 0.48659 0.0
O101 O 0.93983 0.01189 0.46017 0.0
O102 O 0.92951 0.00899 0.51505 0.0
O103 O 0.00477 0.00418 0.50741 0.0
O104 O 0.04691 0.0217 0.53779 0.0
O105 O 0.95027 0.93819 0.48539 0.0
C106 C 0.96549 0.95435 0.59249 0.0
C107 C 0.03363 0.01983 0.50998 0.0
Zn108 Zn 0.52196 -0.0015 0.01382 0.0
Zn109 Zn 0.50008 0.05454 0.09921 0.0
C110 C 0.48158 0.95596 0.96694 0.0
O111 O 0.49006 0.92913 0.98227 0.0
C112 C 0.5423 0.09685 0.1447 0.0
O113 O 0.53519 0.12387 0.12838 0.0
O114 O 0.55882 0.97405 0.00426 0.0
O115 O 0.53897 0.05121 0.01097 0.0
O116 O 0.52457 0.07576 0.05741 0.0
C117 C 0.57472 0.98042 0.97669 0.0
O118 O 0.56663 0.00285 0.95533 0.0
O119 O 0.49193 0.98748 0.97665 0.0
C120 C 0.44921 0.07912 0.13582 0.0
O121 O 0.45747 0.05975 0.1598 0.0
O122 O 0.46375 0.08036 0.10745 0.0
O123 O 0.48383 0.00141 0.10287 0.0
O124 O 0.49923 0.97772 0.05639 0.0
O125 O 0.52994 0.06533 0.13653 0.0
C126 C 0.53838 0.07848 0.02859 0.0
C127 C 0.48574 0.97436 0.08535 0.0
Zn128 Zn 0.54551 0.51955 0.53163 0.0
Zn129 Zn 0.52039 0.58141 0.57081 0.0
C130 C 0.5924 0.56068 0.48791 0.0
O131 O 0.572 0.54507 0.46641 0.0
C132 C 0.46903 0.533 0.60703 0.0
O133 O 0.48987 0.53463 0.63034 0.0
O134 O 0.55111 0.47553 0.50738 0.0
O135 O 0.54582 0.50877 0.58067 0.0
O136 O 0.55401 0.56455 0.59746 0.0
C137 C 0.57608 0.46289 0.51109 0.0
O138 O 0.59676 0.47744 0.53278 0.0
O139 O 0.58575 0.55509 0.51886 0.0
C140 C 0.49537 0.64426 0.57408 0.0
O141 O 0.48721 0.63342 0.5442 0.0
O142 O 0.51162 0.62678 0.59109 0.0
O143 O 0.52757 0.59085 0.521 0.0
O144 O 0.50799 0.53481 0.51103 0.0
O145 O 0.47751 0.54869 0.57915 0.0
C146 C 0.55639 0.53224 0.60184 0.0
C147 C 0.5118 0.56746 0.50261 0.0
Zn148 Zn 0.00512 0.53634 0.98834 0.0
Zn149 Zn 0.05012 0.49172 0.0583 0.0
C150 C 0.95462 0.48589 0.95859 0.0
O151 O 0.97759 0.48272 0.93673 0.0
C152 C 0.09697 0.52742 0.10367 0.0
O153 O 0.08594 0.49939 0.12287 0.0
O154 O 0.00029 0.58335 0.96832 0.0
O155 O 0.0173 0.54449 0.03642 0.0
O156 O 0.00872 0.5035 0.07549 0.0
C157 C 0.97355 0.59164 0.976 0.0
O158 O 0.95353 0.57126 -0.00289 0.0
O159 O 0.96141 0.50456 0.98435 0.0
C160 C 0.0842 0.43746 0.07056 0.0
O161 O 0.10729 0.46206 0.05731 0.0
O162 O 0.0561 0.44354 0.07401 0.0
O163 O 0.0532 0.49457 0.00841 0.0
O164 O 0.03803 0.51482 0.96193 0.0
O165 O 0.08533 0.52969 0.07531 0.0
C166 C 6e-05 0.52942 0.06107 0.0
C167 C 0.05505 0.49648 0.97683 0.0
H168 H 0.17723 0.14662 0.40746 0.0
H169 H 0.12213 0.12218 0.3192 0.0
H170 H 0.07862 0.08501 0.35344 0.0
H171 H 0.15638 0.06156 0.44567 0.0
H172 H 0.15351 0.07757 0.48756 0.0
H173 H 0.17974 0.10415 0.45669 0.0
H174 H 0.15147 0.15714 0.46761 0.0
H175 H 0.12537 0.13082 0.4988 0.0
H176 H 0.10873 0.15063 0.46464 0.0
H177 H 0.04243 0.04813 0.39632 0.0
H178 H 0.01441 0.01618 0.4458 0.0
H179 H 0.09282 0.06456 0.50651 0.0
C180 C 0.15588 0.13379 0.39537 0.0
C181 C 0.15313 0.1373 0.36061 0.0
C182 C 0.12479 0.12 0.34578 0.0
C183 C 0.09994 0.09875 0.365 0.0
C184 C 0.1037 0.0953 0.39904 0.0
C185 C 0.13076 0.11261 0.41421 0.0
C186 C 0.12889 0.10397 0.45121 0.0
C187 C 0.15626 0.08572 0.46083 0.0
C188 C 0.12859 0.13764 0.47177 0.0
C189 C 0.09688 0.07844 0.45427 0.0
C190 C 0.0827 0.07399 0.4239 0.0
C191 C 0.05318 0.05154 0.42029 0.0
C192 C 0.0375 0.03343 0.44858 0.0
C193 C 0.0514 0.03776 0.4801 0.0
C194 C 0.0816 0.06049 0.4828 0.0
H195 H 0.37723 0.8423 0.82992 0.0
H196 H 0.3681 0.94288 0.78457 0.0
H197 H 0.40004 0.97534 0.82845 0.0
H198 H 0.37157 0.86906 0.91503 0.0
H199 H 0.4008 0.84482 0.92891 0.0
H200 H 0.3772 0.82925 0.8939 0.0
H201 H 0.42887 0.83046 0.85735 0.0
H202 H 0.45264 0.8459 0.89228 0.0
H203 H 0.45865 0.87105 0.85365 0.0
H204 H 0.43211 -0.00305 0.87737 0.0
H205 H 0.46427 0.00649 0.92719 0.0
H206 H 0.45338 0.89196 0.94046 0.0
C207 C 0.38196 0.87115 0.82917 0.0
C208 C 0.37011 0.89003 0.8038 0.0
C209 C 0.37696 0.9278 0.80369 0.0
C210 C 0.39502 0.94651 0.82855 0.0
C211 C 0.40617 0.92709 0.85325 0.0
C212 C 0.4001 0.89028 0.8537 0.0
C213 C 0.41524 0.87592 0.8829 0.0
C214 C 0.38967 0.85344 0.90658 0.0
C215 C 0.44034 0.85458 0.87081 0.0
C216 C 0.4307 0.91044 0.89881 0.0
C217 C 0.42506 0.9396 0.88136 0.0
C218 C 0.43677 0.97434 0.89123 0.0
C219 C 0.45497 0.97946 0.91961 0.0
C220 C 0.4614 0.94998 0.93772 0.0
C221 C 0.44893 0.91504 0.92715 0.0
H222 H 0.63989 0.40926 0.71711 0.0
H223 H 0.63195 0.483 0.79711 0.0
H224 H 0.60823 0.52027 0.75893 0.0
H225 H 0.6585 0.47471 0.64955 0.0
H226 H 0.63466 0.44685 0.62023 0.0
H227 H 0.65265 0.42688 0.65328 0.0
H228 H 0.59703 0.39044 0.67274 0.0
H229 H 0.57892 0.41034 0.63977 0.0
H230 H 0.56487 0.41335 0.6824 0.0
H231 H 0.58569 0.54977 0.71216 0.0
H232 H 0.56279 0.56763 0.6608 0.0
H233 H 0.58239 0.47309 0.61187 0.0
C234 C 0.63343 0.43343 0.72648 0.0
C235 C 0.63797 0.44339 0.76006 0.0
C236 C 0.62872 0.47488 0.77151 0.0
C237 C 0.61531 0.49627 0.74998 0.0
C238 C 0.61095 0.48563 0.71713 0.0
C239 C 0.61951 0.45483 0.70543 0.0
C240 C 0.61089 0.44865 0.66939 0.0
C241 C 0.64097 0.44932 0.64678 0.0
C242 C 0.58647 0.41362 0.66589 0.0
C243 C 0.59612 0.48074 0.66274 0.0
C244 C 0.59675 0.50193 0.69049 0.0
C245 C 0.58497 0.53334 0.69029 0.0
C246 C 0.57207 0.5433 0.66098 0.0
C247 C 0.57065 0.5217 0.6324 0.0
C248 C 0.58287 0.49 0.63342 0.0
H249 H 0.94796 0.7043 0.13088 0.0
H250 H 0.88875 0.63741 0.20642 0.0
H251 H 0.90324 0.58401 0.18066 0.0
H252 H 0.92824 0.64365 0.06244 0.0
H253 H 0.96786 0.65418 0.04306 0.0
H254 H 0.95286 0.68721 0.06732 0.0
H255 H 0.00178 0.69438 0.10456 0.0
H256 H 0.01709 0.66176 0.08015 0.0
H257 H 0.01088 0.65558 0.12464 0.0
H258 H 0.9259 0.53818 0.14779 0.0
H259 H 0.9556 0.50355 0.11082 0.0
H260 H -0.0023 0.60026 0.0552 0.0
C261 C 0.93814 0.67843 0.14209 0.0
C262 C 0.91736 0.67499 0.17077 0.0
C263 C 0.90473 0.64064 0.18446 0.0
C264 C 0.91276 0.61018 0.16996 0.0
C265 C 0.93305 0.61448 0.14149 0.0
C266 C 0.94548 0.64773 0.12762 0.0
C267 C 0.96684 0.64509 0.09704 0.0
C268 C 0.95312 0.65832 0.06561 0.0
C269 C 0.00118 0.66539 0.10191 0.0
C270 C 0.965 0.60522 0.09625 0.0
C271 C 0.94531 0.588 0.12202 0.0
C272 C 0.94112 0.55133 0.12733 0.0
C273 C 0.95803 0.53188 0.10618 0.0
C274 C 0.97878 0.5491 0.07998 0.0
C275 C 0.98166 0.58616 0.07464 0.0
H276 H 0.30958 0.14384 0.24068 0.0
H277 H 0.29738 0.2095 0.15553 0.0
H278 H 0.3426 0.19017 0.12548 0.0
H279 H 0.3962 0.15814 0.23411 0.0
H280 H 0.39677 0.11292 0.24638 0.0
H281 H 0.36477 0.13371 0.26152 0.0
H282 H 0.32342 0.08183 0.23815 0.0
H283 H 0.35525 0.061 0.2227 0.0
H284 H 0.32634 0.07109 0.19465 0.0
H285 H 0.38771 0.16105 0.10391 0.0
H286 H 0.42966 0.12598 0.09312 0.0
H287 H 0.41141 0.07944 0.19263 0.0
C288 C 0.31659 0.15461 0.21587 0.0
C289 C 0.29995 0.17832 0.20051 0.0
C290 C 0.3098 0.1914 0.16786 0.0
C291 C 0.33544 0.18054 0.1506 0.0
C292 C 0.35093 0.15664 0.16634 0.0
C293 C 0.34192 0.14398 0.19831 0.0
C294 C 0.36162 0.11762 0.20934 0.0
C295 C 0.38099 0.13144 0.23963 0.0
C296 C 0.34039 0.08071 0.21663 0.0
C297 C 0.38311 0.11722 0.17852 0.0
C298 C 0.37664 0.1399 0.15397 0.0
C299 C 0.39307 0.14337 0.12303 0.0
C300 C 0.4168 0.12326 0.11712 0.0
C301 C 0.42388 0.09996 0.14204 0.0
C302 C 0.40671 0.09706 0.17309 0.0
H303 H 0.2191 0.89564 0.66314 0.0
H304 H 0.20394 0.91077 0.76924 0.0
H305 H 0.156 0.93478 0.75827 0.0
H306 H 0.19638 0.97532 0.63621 0.0
H307 H 0.17654 0.95602 0.60001 0.0
H308 H 0.20891 0.93817 0.61604 0.0
H309 H 0.17235 0.87551 0.62116 0.0
H310 H 0.13989 0.89315 0.60501 0.0
H311 H 0.13473 0.86986 0.64462 0.0
H312 H 0.11081 0.95843 0.73627 0.0
H313 H 0.07079 0.98077 0.70435 0.0
H314 H 0.11512 0.95154 0.61212 0.0
C315 C 0.2055 0.90365 0.68408 0.0
C316 C 0.21525 0.9012 0.71708 0.0
C317 C 0.19696 0.9123 0.74376 0.0
C318 C 0.16965 0.92598 0.7378 0.0
C319 C 0.16089 0.92838 0.70503 0.0
C320 C 0.17815 0.91751 0.67858 0.0
C321 C 0.16385 0.92388 0.64571 0.0
C322 C 0.18785 0.9499 0.62317 0.0
C323 C 0.152 0.88849 0.62809 0.0
C324 C 0.13615 0.94046 0.65787 0.0
C325 C 0.13482 0.94252 0.69221 0.0
C326 C 0.11151 0.95687 0.70937 0.0
C327 C 0.08886 0.96948 0.69097 0.0
C328 C 0.08979 0.9679 0.65572 0.0
C329 C 0.1138 0.95315 0.63903 0.0
H330 H 0.81014 0.37926 0.85647 0.0
H331 H 0.75254 0.45133 0.89754 0.0
H332 H 0.79832 0.48146 0.92918 0.0
H333 H 0.85355 0.36945 0.92782 0.0
H334 H 0.89113 0.37014 0.90541 0.0
H335 H 0.85414 0.35439 0.88541 0.0
H336 H 0.87178 0.40051 0.83737 0.0
H337 H 0.90907 0.41598 0.85693 0.0
H338 H 0.88408 0.447 0.84698 0.0
H339 H 0.84882 0.5004 0.95985 0.0
H340 H 0.9035 0.51381 0.98032 0.0
H341 H 0.92981 0.43265 0.9161 0.0
C342 C 0.80733 0.40165 0.87184 0.0
C343 C 0.77779 0.41294 0.87466 0.0
C344 C 0.77503 0.44243 0.89485 0.0
C345 C 0.8008 0.45951 0.91311 0.0
C346 C 0.82936 0.44721 0.91041 0.0
C347 C 0.83305 0.41956 0.88965 0.0
C348 C 0.86666 0.4124 0.89036 0.0
C349 C 0.86633 0.37433 0.90301 0.0
C350 C 0.88392 0.4194 0.85586 0.0
C351 C 0.88108 0.4399 0.91526 0.0
C352 C 0.85901 0.45936 0.92684 0.0
C353 C 0.86641 0.48558 0.95072 0.0
C354 C 0.89747 0.49279 0.96242 0.0
C355 C 0.9209 0.47427 0.9498 0.0
C356 C 0.9124 0.44725 0.92616 0.0
H357 H 0.72324 0.64899 0.34974 0.0
H358 H 0.79345 0.66168 0.42598 0.0
H359 H 0.75067 0.63778 0.46835 0.0
H360 H 0.6587 0.67253 0.40024 0.0
H361 H 0.62845 0.63985 0.38159 0.0
H362 H 0.66441 0.6594 0.35776 0.0
H363 H 0.67564 0.59646 0.34588 0.0
H364 H 0.63965 0.57674 0.36949 0.0
H365 H 0.67738 0.56653 0.38027 0.0
H366 H 0.69976 0.61169 0.5022 0.0
H367 H 0.6459 0.58201 0.52389 0.0
H368 H 0.61007 0.58558 0.42471 0.0
C369 C 0.72967 0.64697 0.37536 0.0
C370 C 0.76166 0.65732 0.38459 0.0
C371 C 0.76908 0.6539 0.41835 0.0
C372 C 0.74493 0.6405 0.4426 0.0
C373 C 0.71359 0.63059 0.43261 0.0
C374 C 0.706 0.63349 0.39974 0.0
C375 C 0.67079 0.61972 0.39509 0.0
C376 C 0.65464 0.64967 0.38296 0.0
C377 C 0.66557 0.58798 0.37128 0.0
C378 C 0.65972 0.6082 0.43041 0.0
C379 C 0.68462 0.61504 0.45182 0.0
C380 C 0.68009 0.60628 0.48566 0.0
C381 C 0.64941 0.58955 0.49777 0.0
C382 C 0.62383 0.58147 0.47597 0.0
C383 C 0.62913 0.59137 0.44199 0.0
H384 H 0.16401 0.32567 0.19746 0.0
H385 H 0.14452 0.23719 0.12944 0.0
H386 H 0.11714 0.2727 0.09305 0.0
H387 H 0.08787 0.35362 0.1882 0.0
H388 H 0.10532 0.40031 0.1912 0.0
H389 H 0.12262 0.36762 0.21241 0.0
H390 H 0.17745 0.39244 0.18218 0.0
H391 H 0.16034 0.42526 0.16108 0.0
H392 H 0.18011 0.39556 0.1373 0.0
H393 H 0.09368 0.31883 0.06292 0.0
H394 H 0.07622 0.37258 0.04156 0.0
H395 H 0.11042 0.43006 0.12958 0.0
C396 C 0.15395 0.31374 0.17492 0.0
C397 C 0.15645 0.2787 0.1662 0.0
C398 C 0.14278 0.26395 0.13665 0.0
C399 C 0.12717 0.28389 0.11584 0.0
C400 C 0.1251 0.31836 0.12517 0.0
C401 C 0.13798 0.3331 0.1541 0.0
C402 C 0.13263 0.37075 0.1584 0.0
C403 C 0.11081 0.37321 0.18939 0.0
C404 C 0.16454 0.39757 0.1598 0.0
C405 C 0.11581 0.37534 0.12676 0.0
C406 C 0.11129 0.34468 0.10809 0.0
C407 C 0.09681 0.34285 0.07748 0.0
C408 C 0.08693 0.37329 0.06558 0.0
C409 C 0.09181 0.40485 0.08427 0.0
C410 C 0.10624 0.40588 0.11518 0.0
H411 H 0.63458 0.21794 0.89317 0.0
H412 H 0.63246 0.30038 0.96643 0.0
H413 H 0.60086 0.25578 0.00556 0.0
H414 H 0.55392 0.16715 0.9129 0.0
H415 H 0.56528 0.12471 0.90674 0.0
H416 H 0.5863 0.16348 0.88373 0.0
H417 H 0.63989 0.15318 0.90582 0.0
H418 H 0.61902 0.11452 0.92902 0.0
H419 H 0.64424 0.15014 0.95013 0.0
H420 H 0.57118 0.20201 0.03762 0.0
H421 H 0.54506 0.14276 0.06009 0.0
H422 H 0.56701 0.09511 0.96633 0.0
C423 C 0.62714 0.2267 0.91728 0.0
C424 C 0.63595 0.26273 0.92666 0.0
C425 C 0.62599 0.27298 0.9586 0.0
C426 C 0.60801 0.24784 0.98105 0.0
C427 C 0.60011 0.2125 0.97121 0.0
C428 C 0.60924 0.2019 0.94007 0.0
C429 C 0.59838 0.16205 0.93611 0.0
C430 C 0.57455 0.15388 0.90822 0.0
C431 C 0.6271 0.14392 0.92992 0.0
C432 C 0.58212 0.1519 0.97003 0.0
C433 C 0.58322 0.18142 0.98983 0.0
C434 C 0.57006 0.17869 0.02231 0.0
C435 C 0.55531 0.14487 0.03488 0.0
C436 C 0.55398 0.11416 0.01508 0.0
C437 C 0.56761 0.11796 0.9822 0.0
H438 H 0.93555 0.81894 0.31467 0.0
H439 H 0.84119 0.75655 0.34026 0.0
H440 H 0.8426 0.78338 0.39575 0.0
H441 H 0.96834 0.81975 0.39773 0.0
H442 H 0.98914 0.86549 0.3936 0.0
H443 H 0.98244 0.83826 0.35718 0.0
H444 H 0.95448 0.88482 0.33014 0.0
H445 H 0.96104 0.91209 0.36648 0.0
H446 H 0.92115 0.89796 0.35218 0.0
H447 H 0.85262 0.81947 0.44715 0.0
H448 H 0.86987 0.86379 0.49032 0.0
H449 H 0.95664 0.9054 0.43069 0.0
C450 C 0.91549 0.81048 0.33224 0.0
C451 C 0.88898 0.78416 0.32377 0.0
C452 C 0.86267 0.77471 0.34695 0.0
C453 C 0.86301 0.79034 0.37839 0.0
C454 C 0.88962 0.81588 0.38612 0.0
C455 C 0.91533 0.82609 0.36369 0.0
C456 C 0.93992 0.856 0.3774 0.0
C457 C 0.97185 0.84415 0.38174 0.0
C458 C 0.94439 0.88971 0.35523 0.0
C459 C 0.9238 0.86126 0.4108 0.0
C460 C 0.89493 0.83765 0.41542 0.0
C461 C 0.87527 0.83798 0.44392 0.0
C462 C 0.88526 0.86331 0.46828 0.0
C463 C 0.9146 0.88808 0.46393 0.0
C464 C 0.93416 0.88674 0.43485 0.0
H465 H 0.387 0.72238 0.70751 0.0
H466 H 0.37795 0.8021 0.6331 0.0
H467 H 0.41714 0.78031 0.59592 0.0
H468 H 0.47278 0.72651 0.6922 0.0
H469 H 0.46939 0.67925 0.69862 0.0
H470 H 0.44183 0.70221 0.7202 0.0
H471 H 0.39406 0.65853 0.69618 0.0
H472 H 0.42146 0.63535 0.6748 0.0
H473 H 0.39256 0.65278 0.65173 0.0
H474 H 0.45307 0.74642 0.56491 0.0
H475 H 0.48425 0.70322 0.54262 0.0
H476 H 0.47276 0.64799 0.63825 0.0
C477 C 0.39341 0.73543 0.68349 0.0
C478 C 0.37937 0.76391 0.67317 0.0
C479 C 0.38843 0.78027 0.64155 0.0
C480 C 0.41072 0.76815 0.62029 0.0
C481 C 0.42405 0.73998 0.6312 0.0
C482 C 0.41589 0.72393 0.66211 0.0
C483 C 0.43292 0.69334 0.66734 0.0
C484 C 0.45558 0.70079 0.69631 0.0
C485 C 0.40881 0.65792 0.67282 0.0
C486 C 0.45139 0.69421 0.63424 0.0
C487 C 0.44594 0.72135 0.61376 0.0
C488 C 0.45808 0.72556 0.58092 0.0
C489 C 0.47574 0.70098 0.56849 0.0
C490 C 0.48141 0.67293 0.589 0.0
C491 C 0.46964 0.66996 0.62246 0.0
H492 H 0.8987 0.90748 0.77911 0.0
H493 H 0.83478 0.81581 0.74016 0.0
H494 H 0.8593 0.83054 0.68374 0.0
H495 H 0.89844 0.96627 0.71086 0.0
H496 H 0.94019 0.9867 0.71217 0.0
H497 H 0.91837 0.96829 0.74967 0.0
H498 H 0.95983 0.92846 0.75854 0.0
H499 H 0.98178 0.94674 0.72101 0.0
H500 H 0.96826 0.89924 0.72583 0.0
H501 H 0.8878 0.85767 0.63125 0.0
H502 H 0.92068 0.89346 0.58634 0.0
H503 H 0.96825 0.96557 0.65977 0.0
C504 C 0.88996 0.89041 0.75873 0.0
C505 C 0.86474 0.86057 0.76395 0.0
C506 C 0.85412 0.83874 0.73672 0.0
C507 C 0.86787 0.8469 0.7046 0.0
C508 C 0.89252 0.87664 0.70028 0.0
C509 C 0.90375 0.89784 0.72662 0.0
C510 C 0.93043 0.92837 0.71517 0.0
C511 C 0.92129 0.96454 0.72239 0.0
C512 C 0.96194 0.92551 0.73108 0.0
C513 C 0.93197 0.92145 0.67814 0.0
C514 C 0.90985 0.89153 0.67009 0.0
C515 C 0.90551 0.88087 0.63726 0.0
C516 C 0.92421 0.90142 0.61195 0.0
C517 C 0.94717 0.93208 0.61964 0.0
C518 C 0.95127 0.94192 0.65323 0.0
H519 H 0.66288 0.21142 0.26704 0.0
H520 H 0.67294 0.11218 0.31429 0.0
H521 H 0.63673 0.07859 0.27398 0.0
H522 H 0.58027 0.18546 0.25303 0.0
H523 H 0.58271 0.20873 0.21356 0.0
H524 H 0.61083 0.22474 0.24481 0.0
H525 H 0.65793 0.22163 0.20281 0.0
H526 H 0.62995 0.20583 0.17135 0.0
H527 H 0.65938 0.18036 0.18206 0.0
H528 H 0.59807 0.05617 0.22956 0.0
H529 H 0.56028 0.04639 0.18419 0.0
H530 H 0.57514 0.16071 0.16704 0.0
C531 C 0.65788 0.1826 0.26871 0.0
C532 C 0.67092 0.1644 0.2937 0.0
C533 C 0.66332 0.12668 0.29527 0.0
C534 C 0.64278 0.10739 0.27251 0.0
C535 C 0.63002 0.12627 0.24849 0.0
C536 C 0.63732 0.16302 0.24644 0.0
C537 C 0.61964 0.17706 0.21912 0.0
C538 C 0.59702 0.20036 0.2335 0.0
C539 C 0.64313 0.19741 0.19224 0.0
C540 C 0.60119 0.14243 0.20603 0.0
C541 C 0.60753 0.11343 0.22325 0.0
C542 C 0.59302 0.07867 0.21583 0.0
C543 C 0.57156 0.07342 0.19003 0.0
C544 C 0.56477 0.1028 0.17202 0.0
C545 C 0.57982 0.1377 0.18029 0.0
H546 H 0.44504 0.69927 0.38134 0.0
H547 H 0.40995 0.6076 0.32066 0.0
H548 H 0.43429 0.56976 0.35762 0.0
H549 H 0.52125 0.67449 0.39918 0.0
H550 H 0.52108 0.69091 0.44111 0.0
H551 H 0.50194 0.71111 0.40914 0.0
H552 H 0.4491 0.69942 0.44531 0.0
H553 H 0.46806 0.67902 0.47725 0.0
H554 H 0.43214 0.65471 0.45976 0.0
H555 H 0.45878 0.54092 0.40365 0.0
H556 H 0.48449 0.52395 0.45349 0.0
H557 H 0.50685 0.63494 0.48217 0.0
C558 C 0.44274 0.67131 0.37562 0.0
C559 C 0.42553 0.65642 0.34806 0.0
C560 C 0.42309 0.61968 0.3415 0.0
C561 C 0.4368 0.59793 0.36241 0.0
C562 C 0.45323 0.61334 0.38958 0.0
C563 C 0.45661 0.64927 0.39602 0.0
C564 C 0.47525 0.65907 0.42707 0.0
C565 C 0.50675 0.68546 0.4186 0.0
C566 C 0.45492 0.67392 0.45392 0.0
C567 C 0.48129 0.62293 0.43736 0.0
C568 C 0.46828 0.59689 0.41549 0.0
C569 C 0.46936 0.56116 0.42075 0.0
C570 C 0.48396 0.55177 0.4492 0.0
C571 C 0.49755 0.57802 0.47197 0.0
C572 C 0.49657 0.61413 0.46549 0.0
H573 H 0.15707 0.44886 0.81831 0.0
H574 H 0.18056 0.36381 0.8785 0.0
H575 H 0.15176 0.38356 0.927 0.0
H576 H 0.16292 0.51528 0.88549 0.0
H577 H 0.12994 0.53317 0.87091 0.0
H578 H 0.15503 0.51444 0.84175 0.0
H579 H 0.10503 0.47164 0.8211 0.0
H580 H 0.07984 0.48988 0.85042 0.0
H581 H 0.07908 0.44265 0.85065 0.0
H582 H 0.1169 0.40918 0.96764 0.0
H583 H 0.08011 0.44074 -0.00158 0.0
H584 H 0.07902 0.50926 0.91222 0.0
C585 C 0.15674 0.43481 0.84184 0.0
C586 C 0.17121 0.40482 0.84455 0.0
C587 C 0.16985 0.38696 0.87576 0.0
C588 C 0.15348 0.39794 0.9035 0.0
C589 C 0.13879 0.42698 0.89973 0.0
C590 C 0.14052 0.44543 0.86982 0.0
C591 C 0.12153 0.47487 0.87214 0.0
C592 C 0.14368 0.51162 0.86729 0.0
C593 C 0.09478 0.46941 0.84709 0.0
C594 C 0.10806 0.46936 0.90771 0.0
C595 C 0.11861 0.44183 0.92326 0.0
C596 C 0.10889 0.43115 0.9559 0.0
C597 C 0.08808 0.44934 0.97324 0.0
C598 C 0.07709 0.4778 0.95793 0.0
C599 C 0.08713 0.48773 0.92464 0.0
H600 H 0.7239 0.94172 0.8677 0.0
H601 H 0.73935 0.86984 0.94661 0.0
H602 H 0.69207 0.88238 0.97838 0.0
H603 H 0.69981 0.00716 0.92051 0.0
H604 H 0.67032 0.01672 0.89291 0.0
H605 H 0.70489 0.00141 0.87624 0.0
H606 H 0.6681 0.94922 0.84761 0.0
H607 H 0.63342 0.9644 0.86419 0.0
H608 H 0.63785 0.91934 0.87232 0.0
H609 H 0.64326 0.90359 0.00176 0.0
H610 H 0.59714 0.93187 0.01494 0.0
H611 H 0.6143 0.98981 0.92051 0.0
C612 C 0.71736 0.92848 0.89162 0.0
C613 C 0.73535 0.90476 0.90466 0.0
C614 C 0.72595 0.88813 0.93612 0.0
C615 C 0.69912 0.89506 0.95432 0.0
C616 C 0.68199 0.91868 0.94073 0.0
C617 C 0.69077 0.93513 0.91009 0.0
C618 C 0.66866 0.95977 0.90116 0.0
C619 C 0.68702 -0.00144 0.8975 0.0
C620 C 0.65096 0.94743 0.86944 0.0
C621 C 0.64609 0.95473 0.93161 0.0
C622 C 0.6541 0.9309 0.95415 0.0
C623 C 0.63676 0.92226 0.98426 0.0
C624 C 0.61062 0.93848 0.99153 0.0
C625 C 0.60209 0.96308 0.96878 0.0
C626 C 0.62013 0.97111 0.93844 0.0
H627 H 0.81662 0.13201 0.38937 0.0
H628 H 0.76561 0.1416 0.48354 0.0
H629 H 0.80022 0.10712 0.51169 0.0
H630 H 0.82603 0.04128 0.40404 0.0
H631 H 0.86502 0.04822 0.38323 0.0
H632 H 0.83631 0.07379 0.37068 0.0
H633 H 0.87714 0.13225 0.38035 0.0
H634 H 0.90591 0.10686 0.39307 0.0
H635 H 0.89458 0.1398 0.42041 0.0
H636 H 0.84142 0.07303 0.52972 0.0
H637 H 0.88419 0.03889 0.53585 0.0
H638 H 0.90703 0.05014 0.42946 0.0
C639 C 0.81276 0.12689 0.41593 0.0
C640 C 0.78858 0.13962 0.43435 0.0
C641 C 0.78399 0.13202 0.46897 0.0
C642 C 0.80357 0.11256 0.48517 0.0
C643 C 0.82732 0.10055 0.4663 0.0
C644 C 0.83176 0.1071 0.43239 0.0
C645 C 0.85847 0.09051 0.41771 0.0
C646 C 0.84569 0.06174 0.39242 0.0
C647 C 0.88563 0.11907 0.40197 0.0
C648 C 0.86879 0.07419 0.44878 0.0
C649 C 0.85054 0.08028 0.47655 0.0
C650 C 0.85578 0.06796 0.50813 0.0
C651 C 0.88018 0.04866 0.51136 0.0
C652 C 0.89896 0.0418 0.48314 0.0
C653 C 0.89312 0.05489 0.45152 0.0
H654 H 0.24912 0.61069 0.20681 0.0
H655 H 0.25469 0.70854 0.1496 0.0
H656 H 0.20612 0.68127 0.12109 0.0
H657 H 0.2235 0.55126 0.14126 0.0
H658 H 0.19677 0.51912 0.16748 0.0
H659 H 0.23127 0.54671 0.18467 0.0
H660 H 0.19486 0.56897 0.22963 0.0
H661 H 0.16026 0.54132 0.21261 0.0
H662 H 0.1621 0.58849 0.21694 0.0
H663 H 0.15894 0.64252 0.0963 0.0
H664 H 0.11468 0.5954 0.07875 0.0
H665 H 0.13866 0.52318 0.15286 0.0
C666 C 0.23994 0.6265 0.18855 0.0
C667 C 0.25577 0.66178 0.18048 0.0
C668 C 0.24304 0.68148 0.15626 0.0
C669 C 0.21543 0.66624 0.13989 0.0
C670 C 0.20067 0.6313 0.14808 0.0
C671 C 0.2123 0.61172 0.17198 0.0
C672 C 0.19217 0.57442 0.17557 0.0
C673 C 0.21212 0.54622 0.16671 0.0
C674 C 0.17641 0.56794 0.21078 0.0
C675 C 0.16761 0.57609 0.14981 0.0
C676 C 0.17302 0.60911 0.13417 0.0
C677 C 0.15427 0.61665 0.10857 0.0
C678 C 0.12927 0.5897 0.0987 0.0
C679 C 0.12313 0.55574 0.11458 0.0
C680 C 0.14252 0.54902 0.14056 0.0
H681 H 0.31941 0.41322 0.70628 0.0
H682 H 0.26033 0.47871 0.6608 0.0
H683 H 0.30793 0.51281 0.6299 0.0
H684 H 0.38817 0.48267 0.71663 0.0
H685 H 0.41652 0.45479 0.70661 0.0
H686 H 0.37772 0.43535 0.72493 0.0
H687 H 0.36785 0.3919 0.67555 0.0
H688 H 0.40654 0.41145 0.65695 0.0
H689 H 0.3712 0.40953 0.63355 0.0
H690 H 0.36145 0.53854 0.60254 0.0
H691 H 0.4183 0.55769 0.58435 0.0
H692 H 0.44305 0.47725 0.64916 0.0
C693 C 0.31648 0.43482 0.68993 0.0
C694 C 0.28608 0.44322 0.68589 0.0
C695 C 0.28331 0.47166 0.6642 0.0
C696 C 0.3102 0.49116 0.64649 0.0
C697 C 0.3397 0.48188 0.65069 0.0
C698 C 0.34308 0.45458 0.67204 0.0
C699 C 0.37756 0.45023 0.67219 0.0
C700 C 0.39076 0.45614 0.70717 0.0
C701 C 0.38098 0.4136 0.65876 0.0
C702 C 0.39313 0.47987 0.64814 0.0
C703 C 0.37075 0.49735 0.63555 0.0
C704 C 0.3792 0.5251 0.61226 0.0
C705 C 0.41148 0.53561 0.6019 0.0
C706 C 0.43491 0.51881 0.6153 0.0
C707 C 0.42555 0.49052 0.6386 0.0
H708 H 0.84615 0.69406 0.90411 0.0
H709 H 0.92172 0.78812 0.89299 0.0
H710 H 0.96073 0.75329 0.91193 0.0
H711 H 0.8724 0.66251 0.97914 0.0
H712 H 0.86129 0.61609 0.96877 0.0
H713 H 0.84002 0.64778 0.95195 0.0
H714 H 0.85257 0.62779 0.89213 0.0
H715 H 0.87399 0.59612 0.90887 0.0
H716 H 0.8935 0.62899 0.87844 0.0
H717 H -0.00838 0.70758 0.93194 0.0
H718 H 0.01045 0.65627 0.9567 0.0
H719 H 0.91372 0.59427 0.95815 0.0
C720 C 0.87095 0.70727 0.90541 0.0
C721 C 0.88098 0.74372 0.89695 0.0
C722 C 0.91354 0.76019 0.89943 0.0
C723 C 0.93589 0.7406 0.90997 0.0
C724 C 0.9252 0.70468 0.91823 0.0
C725 C 0.89342 0.68828 0.91638 0.0
C726 C 0.88766 0.64997 0.92853 0.0
C727 C 0.86395 0.64375 0.95891 0.0
C728 C 0.87626 0.62421 0.90031 0.0
C729 C 0.92103 0.64757 0.93802 0.0
C730 C 0.94255 0.67909 0.93127 0.0
C731 C 0.97494 0.68282 0.9375 0.0
C732 C 0.98545 0.65365 0.95144 0.0
C733 C 0.96342 0.62172 0.95959 0.0
C734 C 0.93095 0.61867 0.95256 0.0
H735 H 0.42061 0.82817 0.22847 0.0
H736 H 0.41799 0.74802 0.15225 0.0
H737 H 0.44044 0.79494 0.11059 0.0
H738 H 0.3954 0.89186 0.17759 0.0
H739 H 0.42047 0.93015 0.19516 0.0
H740 H 0.40719 0.89025 0.22004 0.0
H741 H 0.46587 0.88765 0.23162 0.0
H742 H 0.47931 0.92785 0.20714 0.0
H743 H 0.49437 0.88828 0.19711 0.0
H744 H 0.46056 0.85038 0.07661 0.0
H745 H 0.47828 0.91091 0.05267 0.0
H746 H 0.46606 0.95561 0.15034 0.0
C747 C 0.42552 0.82046 0.2032 0.0
C748 C 0.41788 0.7844 0.19366 0.0
C749 C 0.42382 0.77545 0.16013 0.0
C750 C 0.43654 0.80191 0.13628 0.0
C751 C 0.44299 0.83726 0.14626 0.0
C752 C 0.43783 0.84664 0.17891 0.0
C753 C 0.44523 0.8868 0.18258 0.0
C754 C 0.41528 0.90056 0.19455 0.0
C755 C 0.47284 0.89832 0.206 0.0
C756 C 0.45519 0.89844 0.14689 0.0
C757 C 0.45386 0.86941 0.12641 0.0
C758 C 0.46182 0.87334 0.09242 0.0
C759 C 0.47179 0.90787 0.07904 0.0
C760 C 0.47353 0.9381 0.09955 0.0
C761 C 0.46485 0.93313 0.13391 0.0
H762 H 0.17239 0.24005 0.69517 0.0
H763 H 0.08841 0.25076 0.75594 0.0
H764 H 0.05604 0.20154 0.72576 0.0
H765 H 0.13149 0.21893 0.61803 0.0
H766 H 0.15554 0.18726 0.60535 0.0
H767 H 0.17205 0.22429 0.63091 0.0
H768 H 0.18602 0.18065 0.67487 0.0
H769 H 0.16965 0.14353 0.64943 0.0
H770 H 0.155 0.14539 0.69199 0.0
H771 H 0.03306 0.1498 0.69046 0.0
H772 H 0.02136 0.09865 0.65269 0.0
H773 H 0.1201 0.12195 0.61471 0.0
C774 C 0.14716 0.23221 0.70199 0.0
C775 C 0.13295 0.24934 0.7279 0.0
C776 C 0.09986 0.23813 0.73614 0.0
C777 C 0.08122 0.21021 0.71912 0.0
C778 C 0.09596 0.19382 0.69381 0.0
C779 C 0.12815 0.20439 0.68521 0.0
C780 C 0.13824 0.18172 0.65759 0.0
C781 C 0.15002 0.20441 0.62611 0.0
C782 C 0.16373 0.16163 0.66918 0.0
C783 C 0.10679 0.15649 0.65236 0.0
C784 C 0.08266 0.16402 0.67338 0.0
C785 C 0.05169 0.14375 0.67371 0.0
C786 C 0.04528 0.11478 0.65216 0.0
C787 C 0.06976 0.10635 0.63067 0.0
C788 C 0.1008 0.12778 0.63068 0.0
H789 H 0.6829 0.33307 0.43193 0.0
H790 H 0.61541 0.31346 0.35305 0.0
H791 H 0.58264 0.35151 0.38118 0.0
H792 H 0.62396 0.33334 0.49964 0.0
H793 H 0.64885 0.36848 0.52164 0.0
H794 H 0.66686 0.33893 0.4958 0.0
H795 H 0.69982 0.39307 0.4624 0.0
H796 H 0.68206 0.42275 0.48825 0.0
H797 H 0.67944 0.42461 0.44363 0.0
H798 H 0.55746 0.39201 0.41719 0.0
H799 H 0.54271 0.43471 0.45767 0.0
H800 H 0.62655 0.42852 0.51314 0.0
C801 C 0.66121 0.33674 0.42061 0.0
C802 C 0.6517 0.32021 0.39031 0.0
C803 C 0.62317 0.32574 0.37628 0.0
C804 C 0.60433 0.34726 0.3921 0.0
C805 C 0.61428 0.363 0.42197 0.0
C806 C 0.64206 0.35814 0.43609 0.0
C807 C 0.64758 0.37874 0.46807 0.0
C808 C 0.64676 0.35335 0.49806 0.0
C809 C 0.67909 0.40644 0.46541 0.0
C810 C 0.61885 0.3964 0.46937 0.0
C811 C 0.5998 0.38665 0.44271 0.0
C812 C 0.57212 0.39979 0.43825 0.0
C813 C 0.56391 0.42397 0.46144 0.0
C814 C 0.58345 0.43495 0.4886 0.0
C815 C 0.61108 0.4206 0.4927 0.0
loop_
_geom_bond_atom_site_label_1
_geom_bond_atom_site_label_2
_geom_bond_distance
_geom_bond_site_symmetry_2
_ccdc_geom_bond_type
O0 Cd1 2.300 . S
O0 C7 1.275 . S
Cd1 O0 2.300 . S
Cd1 O9 2.381 . S
Cd1 O10 2.378 . S
O2 Cd3 2.385 . S
O2 C7 1.255 . S
Cd3 O2 2.385 . S
Cd3 O4 2.317 . S
O4 Cd3 2.317 . S
O4 C5 1.232 . S
C5 O4 1.232 . S
C5 O6 1.218 . S
O6 C5 1.218 . S
C7 O0 1.275 . S
C7 O2 1.255 . S
C8 O9 1.258 . S
C8 O10 1.256 . S
O9 Cd1 2.381 . S
O9 C8 1.258 . S
O10 Cd1 2.378 . S
O10 C8 1.256 . S
O11 Cd12 2.300 . S
O11 C18 1.275 . S
Cd12 O11 2.300 . S
Cd12 O20 2.381 . S
Cd12 O21 2.378 . S
O13 Cd14 2.385 . S
O13 C18 1.255 . S
Cd14 O13 2.385 . S
Cd14 O15 2.317 . S
O15 Cd14 2.317 . S
O15 C16 1.232 . S
C16 O15 1.232 . S
C16 O17 1.218 . S
O17 C16 1.218 . S
C18 O11 1.275 . S
C18 O13 1.255 . S
C19 O20 1.258 . S
C19 O21 1.256 . S
O20 Cd12 2.381 . S
O20 C19 1.258 . S
O21 Cd12 2.378 . S
O21 C19 1.256 . S
O22 Cd23 2.300 . S
O22 C29 1.275 . S
Cd23 O22 2.300 . S
Cd23 O31 2.381 . S
Cd23 O32 2.378 . S
O24 Cd25 2.385 . S
O24 C29 1.255 . S
Cd25 O24 2.385 . S
Cd25 O26 2.317 . S
O26 Cd25 2.317 . S
O26 C27 1.232 . S
C27 O26 1.232 . S
C27 O28 1.218 . S
O28 C27 1.218 . S
C29 O22 1.275 . S
C29 O24 1.255 . S
C30 O31 1.258 . S
C30 O32 1.256 . S
O31 Cd23 2.381 . S
O31 C30 1.258 . S
O32 Cd23 2.378 . S
O32 C30 1.256 . S
O33 Cd34 2.300 . S
O33 C40 1.275 . S
Cd34 O33 2.300 . S
Cd34 O42 2.381 . S
Cd34 O43 2.378 . S
O35 Cd36 2.385 . S
O35 C40 1.255 . S
Cd36 O35 2.385 . S
Cd36 O37 2.317 . S
O37 Cd36 2.317 . S
O37 C38 1.232 . S
C38 O37 1.232 . S
C38 O39 1.218 . S
O39 C38 1.218 . S
C40 O33 1.275 . S
C40 O35 1.255 . S
C41 O42 1.258 . S
C41 O43 1.256 . S
O42 Cd34 2.381 . S
O42 C41 1.258 . S
O43 Cd34 2.378 . S
O43 C41 1.256 . S
O44 Cd45 2.300 . S
O44 C51 1.275 . S
Cd45 O44 2.300 . S
Cd45 O53 2.381 . S
Cd45 O54 2.378 . S
O46 Cd47 2.385 . S
O46 C51 1.255 . S
Cd47 O46 2.385 . S
Cd47 O48 2.317 . S
O48 Cd47 2.317 . S
O48 C49 1.232 . S
C49 O48 1.232 . S
C49 O50 1.218 . S
O50 C49 1.218 . S
C51 O44 1.275 . S
C51 O46 1.255 . S
C52 O53 1.258 . S
C52 O54 1.256 . S
O53 Cd45 2.381 . S
O53 C52 1.258 . S
O54 Cd45 2.378 . S
O54 C52 1.256 . S
O55 Cd56 2.300 . S
O55 C62 1.275 . S
Cd56 O55 2.300 . S
Cd56 O64 2.381 . S
Cd56 O65 2.378 . S
O57 Cd58 2.385 . S
O57 C62 1.255 . S
Cd58 O57 2.385 . S
Cd58 O59 2.317 . S
O59 Cd58 2.317 . S
O59 C60 1.232 . S
C60 O59 1.232 . S
C60 O61 1.218 . S
O61 C60 1.218 . S
C62 O55 1.275 . S
C62 O57 1.255 . S
C63 O64 1.258 . S
C63 O65 1.256 . S
O64 Cd56 2.381 . S
O64 C63 1.258 . S
O65 Cd56 2.378 . S
O65 C63 1.256 . S
O66 Cd67 2.300 . S
O66 C73 1.275 . S
Cd67 O66 2.300 . S
Cd67 O75 2.381 . S
Cd67 O76 2.378 . S
O68 Cd69 2.385 . S
O68 C73 1.255 . S
Cd69 O68 2.385 . S
Cd69 O70 2.317 . S
O70 Cd69 2.317 . S
O70 C71 1.232 . S
C71 O70 1.232 . S
C71 O72 1.218 . S
O72 C71 1.218 . S
C73 O66 1.275 . S
C73 O68 1.255 . S
C74 O75 1.258 . S
C74 O76 1.256 . S
O75 Cd67 2.381 . S
O75 C74 1.258 . S
O76 Cd67 2.378 . S
O76 C74 1.256 . S
O77 Cd78 2.300 . S
O77 C84 1.275 . S
Cd78 O77 2.300 . S
Cd78 O86 2.381 . S
Cd78 O87 2.378 . S
O79 Cd80 2.385 . S
O79 C84 1.255 . S
Cd80 O79 2.385 . S
Cd80 O81 2.317 . S
O81 Cd80 2.317 . S
O81 C82 1.232 . S
C82 O81 1.232 . S
C82 O83 1.218 . S
O83 C82 1.218 . S
C84 O77 1.275 . S
C84 O79 1.255 . S
C85 O86 1.258 . S
C85 O87 1.256 . S
O86 Cd78 2.381 . S
O86 C85 1.258 . S
O87 Cd78 2.378 . S
O87 C85 1.256 . S
Zn88 O94 1.969 1_545 S
Zn88 O95 1.965 1_545 S
Zn88 O99 2.024 . S
Zn88 O104 1.969 . S
Zn89 O96 1.969 1_545 S
Zn89 O102 1.969 . S
Zn89 O103 1.965 1_655 S
Zn89 O105 2.024 1_545 S
C90 O91 1.229 . S
C90 O99 1.058 . S
O91 C90 1.229 . S
C92 O93 1.229 . S
C92 O105 1.058 . S
O93 C92 1.229 . S
O94 Zn88 1.969 1_565 S
O94 C97 1.267 . S
O95 Zn88 1.965 1_565 S
O95 C106 1.260 1_455 S
O96 Zn89 1.969 1_565 S
O96 C106 1.258 . S
C97 O94 1.267 . S
C97 O98 1.228 . S
O98 C97 1.228 . S
O99 Zn88 2.024 . S
O99 C90 1.058 . S
C100 O101 1.228 . S
C100 O102 1.267 . S
O101 C100 1.228 . S
O102 Zn89 1.969 . S
O102 C100 1.267 . S
O103 Zn89 1.965 1_455 S
O103 C107 1.260 . S
O104 Zn88 1.969 . S
O104 C107 1.258 . S
O105 Zn89 2.024 1_565 S
O105 C92 1.058 . S
C106 O95 1.260 1_655 S
C106 O96 1.258 . S
C107 O103 1.260 . S
C107 O104 1.258 . S
Zn108 O114 1.969 1_545 S
Zn108 O115 1.965 . S
Zn108 O119 2.024 1_554 S
Zn108 O124 1.969 1_545 S
Zn109 O116 1.969 . S
Zn109 O122 1.969 . S
Zn109 O123 1.965 . S
Zn109 O125 2.024 . S
C110 O111 1.229 . S
C110 O119 1.058 1_565 S
O111 C110 1.229 . S
C112 O113 1.229 . S
C112 O125 1.058 . S
O113 C112 1.229 . S
O114 Zn108 1.969 1_565 S
O114 C117 1.267 1_554 S
O115 Zn108 1.965 . S
O115 C126 1.260 . S
O116 Zn109 1.969 . S
O116 C126 1.258 . S
C117 O114 1.267 1_556 S
C117 O118 1.228 1_565 S
O118 C117 1.228 1_545 S
O119 Zn108 2.024 1_556 S
O119 C110 1.058 1_545 S
C120 O121 1.228 . S
C120 O122 1.267 . S
O121 C120 1.228 . S
O122 Zn109 1.969 . S
O122 C120 1.267 . S
O123 Zn109 1.965 . S
O123 C127 1.260 1_545 S
O124 Zn108 1.969 1_565 S
O124 C127 1.258 . S
O125 Zn109 2.024 . S
O125 C112 1.058 . S
C126 O115 1.260 . S
C126 O116 1.258 . S
C127 O123 1.260 1_565 S
C127 O124 1.258 . S
Zn128 O134 1.969 . S
Zn128 O135 1.965 . S
Zn128 O139 2.024 . S
Zn128 O144 1.969 . S
Zn129 O136 1.969 . S
Zn129 O142 1.969 . S
Zn129 O143 1.965 . S
Zn129 O145 2.024 . S
C130 O131 1.229 . S
C130 O139 1.058 . S
O131 C130 1.229 . S
C132 O133 1.229 . S
C132 O145 1.058 . S
O133 C132 1.229 . S
O134 Zn128 1.969 . S
O134 C137 1.267 . S
O135 Zn128 1.965 . S
O135 C146 1.260 . S
O136 Zn129 1.969 . S
O136 C146 1.258 . S
C137 O134 1.267 . S
C137 O138 1.228 . S
O138 C137 1.228 . S
O139 Zn128 2.024 . S
O139 C130 1.058 . S
C140 O141 1.228 . S
C140 O142 1.267 . S
O141 C140 1.228 . S
O142 Zn129 1.969 . S
O142 C140 1.267 . S
O143 Zn129 1.965 . S
O143 C147 1.260 . S
O144 Zn128 1.969 . S
O144 C147 1.258 . S
O145 Zn129 2.024 . S
O145 C132 1.058 . S
C146 O135 1.260 . S
C146 O136 1.258 . S
C147 O143 1.260 . S
C147 O144 1.258 . S
Zn148 O154 1.969 . S
Zn148 O155 1.965 1_556 S
Zn148 O159 2.024 1_455 S
Zn148 O164 1.969 . S
Zn149 O156 1.969 . S
Zn149 O162 1.969 . S
Zn149 O163 1.965 . S
Zn149 O165 2.024 . S
C150 O151 1.229 . S
C150 O159 1.058 . S
O151 C150 1.229 . S
C152 O153 1.229 . S
C152 O165 1.058 . S
O153 C152 1.229 . S
O154 Zn148 1.969 . S
O154 C157 1.267 1_455 S
O155 Zn148 1.965 1_554 S
O155 C166 1.260 . S
O156 Zn149 1.969 . S
O156 C166 1.258 . S
C157 O154 1.267 1_655 S
C157 O158 1.228 . S
O158 C157 1.228 . S
O159 Zn148 2.024 1_655 S
O159 C150 1.058 . S
C160 O161 1.228 . S
C160 O162 1.267 . S
O161 C160 1.228 . S
O162 Zn149 1.969 . S
O162 C160 1.267 . S
O163 Zn149 1.965 . S
O163 C167 1.260 1_554 S
O164 Zn148 1.969 . S
O164 C167 1.258 . S
O165 Zn149 2.024 . S
O165 C152 1.058 . S
C166 O155 1.260 . S
C166 O156 1.258 . S
C167 O163 1.260 1_556 S
C167 O164 1.258 . S
H168 C180 0.930 . S
H169 C182 0.930 . S
H170 C183 0.930 . S
H171 C187 0.959 . S
H172 C187 0.959 . S
H173 C187 0.961 . S
H174 C188 0.960 . S
H175 C188 0.961 . S
H176 C188 0.959 . S
H177 C191 0.929 . S
H178 C192 0.931 . S
H179 C194 0.930 . S
C180 H168 0.930 . S
C180 C181 1.399 . S
C180 C185 1.399 . S
C181 C180 1.399 . S
C181 C182 1.376 . S
C182 H169 0.930 . S
C182 C181 1.376 . S
C182 C183 1.388 . S
C183 H170 0.930 . S
C183 C182 1.388 . S
C183 C184 1.390 . S
C184 C183 1.390 . S
C184 C185 1.394 . S
C184 C190 1.465 . S
C185 C180 1.399 . S
C185 C184 1.394 . S
C185 C186 1.516 . S
C186 C185 1.516 . S
C186 C187 1.502 . S
C186 C188 1.561 . S
C186 C189 1.526 . S
C187 H171 0.959 . S
C187 H172 0.959 . S
C187 H173 0.961 . S
C187 C186 1.502 . S
C188 H174 0.960 . S
C188 H175 0.961 . S
C188 H176 0.959 . S
C188 C186 1.561 . S
C189 C186 1.526 . S
C189 C190 1.396 . S
C189 C194 1.390 . S
C190 C184 1.465 . S
C190 C189 1.396 . S
C190 C191 1.399 . S
C191 H177 0.929 . S
C191 C190 1.399 . S
C191 C192 1.385 . S
C192 H178 0.931 . S
C192 C191 1.385 . S
C192 C193 1.389 . S
C193 C192 1.389 . S
C193 C194 1.387 . S
C194 H179 0.930 . S
C194 C189 1.390 . S
C194 C193 1.387 . S
H195 C207 0.930 . S
H196 C209 0.930 . S
H197 C210 0.930 . S
H198 C214 0.959 . S
H199 C214 0.959 . S
H200 C214 0.961 . S
H201 C215 0.960 . S
H202 C215 0.961 . S
H203 C215 0.959 . S
H204 C218 0.929 . S
H205 C219 0.931 . S
H206 C221 0.930 . S
C207 H195 0.930 . S
C207 C208 1.399 . S
C207 C212 1.399 . S
C208 C207 1.399 . S
C208 C209 1.376 . S
C209 H196 0.930 . S
C209 C208 1.376 . S
C209 C210 1.388 . S
C210 H197 0.930 . S
C210 C209 1.388 . S
C210 C211 1.390 . S
C211 C210 1.390 . S
C211 C212 1.394 . S
C211 C217 1.465 . S
C212 C207 1.399 . S
C212 C211 1.394 . S
C212 C213 1.516 . S
C213 C212 1.516 . S
C213 C214 1.502 . S
C213 C215 1.561 . S
C213 C216 1.526 . S
C214 H198 0.959 . S
C214 H199 0.959 . S
C214 H200 0.961 . S
C214 C213 1.502 . S
C215 H201 0.960 . S
C215 H202 0.961 . S
C215 H203 0.959 . S
C215 C213 1.561 . S
C216 C213 1.526 . S
C216 C217 1.396 . S
C216 C221 1.390 . S
C217 C211 1.465 . S
C217 C216 1.396 . S
C217 C218 1.399 1_565 S
C218 H204 0.929 . S
C218 C217 1.399 1_545 S
C218 C219 1.385 . S
C219 H205 0.931 . S
C219 C218 1.385 . S
C219 C220 1.389 1_545 S
C220 C219 1.389 1_565 S
C220 C221 1.387 . S
C221 H206 0.930 . S
C221 C216 1.390 . S
C221 C220 1.387 . S
H222 C234 0.930 . S
H223 C236 0.930 . S
H224 C237 0.930 . S
H225 C241 0.959 . S
H226 C241 0.959 . S
H227 C241 0.961 . S
H228 C242 0.960 . S
H229 C242 0.961 . S
H230 C242 0.959 . S
H231 C245 0.929 . S
H232 C246 0.931 . S
H233 C248 0.930 . S
C234 H222 0.930 . S
C234 C235 1.399 . S
C234 C239 1.399 . S
C235 C234 1.399 . S
C235 C236 1.376 . S
C236 H223 0.930 . S
C236 C235 1.376 . S
C236 C237 1.388 . S
C237 H224 0.930 . S
C237 C236 1.388 . S
C237 C238 1.390 . S
C238 C237 1.390 . S
C238 C239 1.394 . S
C238 C244 1.465 . S
C239 C234 1.399 . S
C239 C238 1.394 . S
C239 C240 1.516 . S
C240 C239 1.516 . S
C240 C241 1.502 . S
C240 C242 1.561 . S
C240 C243 1.526 . S
C241 H225 0.959 . S
C241 H226 0.959 . S
C241 H227 0.961 . S
C241 C240 1.502 . S
C242 H228 0.960 . S
C242 H229 0.961 . S
C242 H230 0.959 . S
C242 C240 1.561 . S
C243 C240 1.526 . S
C243 C244 1.396 . S
C243 C248 1.390 . S
C244 C238 1.465 . S
C244 C243 1.396 . S
C244 C245 1.399 . S
C245 H231 0.929 . S
C245 C244 1.399 . S
C245 C246 1.385 . S
C246 H232 0.931 . S
C246 C245 1.385 . S
C246 C247 1.389 . S
C247 C246 1.389 . S
C247 C248 1.387 . S
C248 H233 0.930 . S
C248 C243 1.390 . S
C248 C247 1.387 . S
H249 C261 0.930 . S
H250 C263 0.930 . S
H251 C264 0.930 . S
H252 C268 0.959 . S
H253 C268 0.959 . S
H254 C268 0.961 . S
H255 C269 0.960 . S
H256 C269 0.961 . S
H257 C269 0.959 . S
H258 C272 0.929 . S
H259 C273 0.931 . S
H260 C275 0.930 1_455 S
C261 H249 0.930 . S
C261 C262 1.399 . S
C261 C266 1.399 . S
C262 C261 1.399 . S
C262 C263 1.376 . S
C263 H250 0.930 . S
C263 C262 1.376 . S
C263 C264 1.388 . S
C264 H251 0.930 . S
C264 C263 1.388 . S
C264 C265 1.390 . S
C265 C264 1.390 . S
C265 C266 1.394 . S
C265 C271 1.465 . S
C266 C261 1.399 . S
C266 C265 1.394 . S
C266 C267 1.516 . S
C267 C266 1.516 . S
C267 C268 1.502 . S
C267 C269 1.561 1_655 S
C267 C270 1.526 . S
C268 H252 0.959 . S
C268 H253 0.959 . S
C268 H254 0.961 . S
C268 C267 1.502 . S
C269 H255 0.960 . S
C269 H256 0.961 . S
C269 H257 0.959 . S
C269 C267 1.561 1_455 S
C270 C267 1.526 . S
C270 C271 1.396 . S
C270 C275 1.390 . S
C271 C265 1.465 . S
C271 C270 1.396 . S
C271 C272 1.399 . S
C272 H258 0.929 . S
C272 C271 1.399 . S
C272 C273 1.385 . S
C273 H259 0.931 . S
C273 C272 1.385 . S
C273 C274 1.389 . S
C274 C273 1.389 . S
C274 C275 1.387 . S
C275 H260 0.930 1_655 S
C275 C270 1.390 . S
C275 C274 1.387 . S
H276 C288 0.930 . S
H277 C290 0.930 . S
H278 C291 0.930 . S
H279 C295 0.959 . S
H280 C295 0.959 . S
H281 C295 0.961 . S
H282 C296 0.960 . S
H283 C296 0.961 . S
H284 C296 0.959 . S
H285 C299 0.929 . S
H286 C300 0.931 . S
H287 C302 0.930 . S
C288 H276 0.930 . S
C288 C289 1.399 . S
C288 C293 1.399 . S
C289 C288 1.399 . S
C289 C290 1.376 . S
C290 H277 0.930 . S
C290 C289 1.376 . S
C290 C291 1.388 . S
C291 H278 0.930 . S
C291 C290 1.388 . S
C291 C292 1.390 . S
C292 C291 1.390 . S
C292 C293 1.394 . S
C292 C298 1.465 . S
C293 C288 1.399 . S
C293 C292 1.394 . S
C293 C294 1.516 . S
C294 C293 1.516 . S
C294 C295 1.502 . S
C294 C296 1.561 . S
C294 C297 1.526 . S
C295 H279 0.959 . S
C295 H280 0.959 . S
C295 H281 0.961 . S
C295 C294 1.502 . S
C296 H282 0.960 . S
C296 H283 0.961 . S
C296 H284 0.959 . S
C296 C294 1.561 . S
C297 C294 1.526 . S
C297 C298 1.396 . S
C297 C302 1.390 . S
C298 C292 1.465 . S
C298 C297 1.396 . S
C298 C299 1.399 . S
C299 H285 0.929 . S
C299 C298 1.399 . S
C299 C300 1.385 . S
C300 H286 0.931 . S
C300 C299 1.385 . S
C300 C301 1.389 . S
C301 C300 1.389 . S
C301 C302 1.387 . S
C302 H287 0.930 . S
C302 C297 1.390 . S
C302 C301 1.387 . S
H303 C315 0.930 . S
H304 C317 0.930 . S
H305 C318 0.930 . S
H306 C322 0.959 . S
H307 C322 0.959 . S
H308 C322 0.961 . S
H309 C323 0.960 . S
H310 C323 0.961 . S
H311 C323 0.959 . S
H312 C326 0.929 . S
H313 C327 0.931 . S
H314 C329 0.930 . S
C315 H303 0.930 . S
C315 C316 1.399 . S
C315 C320 1.399 . S
C316 C315 1.399 . S
C316 C317 1.376 . S
C317 H304 0.930 . S
C317 C316 1.376 . S
C317 C318 1.388 . S
C318 H305 0.930 . S
C318 C317 1.388 . S
C318 C319 1.390 . S
C319 C318 1.390 . S
C319 C320 1.394 . S
C319 C325 1.465 . S
C320 C315 1.399 . S
C320 C319 1.394 . S
C320 C321 1.516 . S
C321 C320 1.516 . S
C321 C322 1.502 . S
C321 C323 1.561 . S
C321 C324 1.526 . S
C322 H306 0.959 . S
C322 H307 0.959 . S
C322 H308 0.961 . S
C322 C321 1.502 . S
C323 H309 0.960 . S
C323 H310 0.961 . S
C323 H311 0.959 . S
C323 C321 1.561 . S
C324 C321 1.526 . S
C324 C325 1.396 . S
C324 C329 1.390 . S
C325 C319 1.465 . S
C325 C324 1.396 . S
C325 C326 1.399 . S
C326 H312 0.929 . S
C326 C325 1.399 . S
C326 C327 1.385 . S
C327 H313 0.931 . S
C327 C326 1.385 . S
C327 C328 1.389 . S
C328 C327 1.389 . S
C328 C329 1.387 . S
C329 H314 0.930 . S
C329 C324 1.390 . S
C329 C328 1.387 . S
H330 C342 0.930 . S
H331 C344 0.930 . S
H332 C345 0.930 . S
H333 C349 0.959 . S
H334 C349 0.959 . S
H335 C349 0.961 . S
H336 C350 0.960 . S
H337 C350 0.961 . S
H338 C350 0.959 . S
H339 C353 0.929 . S
H340 C354 0.931 1_554 S
H341 C356 0.930 . S
C342 H330 0.930 . S
C342 C343 1.399 . S
C342 C347 1.399 . S
C343 C342 1.399 . S
C343 C344 1.376 . S
C344 H331 0.930 . S
C344 C343 1.376 . S
C344 C345 1.388 . S
C345 H332 0.930 . S
C345 C344 1.388 . S
C345 C346 1.390 . S
C346 C345 1.390 . S
C346 C347 1.394 . S
C346 C352 1.465 . S
C347 C342 1.399 . S
C347 C346 1.394 . S
C347 C348 1.516 . S
C348 C347 1.516 . S
C348 C349 1.502 . S
C348 C350 1.561 . S
C348 C351 1.526 . S
C349 H333 0.959 . S
C349 H334 0.959 . S
C349 H335 0.961 . S
C349 C348 1.502 . S
C350 H336 0.960 . S
C350 H337 0.961 . S
C350 H338 0.959 . S
C350 C348 1.561 . S
C351 C348 1.526 . S
C351 C352 1.396 . S
C351 C356 1.390 . S
C352 C346 1.465 . S
C352 C351 1.396 . S
C352 C353 1.399 . S
C353 H339 0.929 . S
C353 C352 1.399 . S
C353 C354 1.385 . S
C354 H340 0.931 1_556 S
C354 C353 1.385 . S
C354 C355 1.389 . S
C355 C354 1.389 . S
C355 C356 1.387 . S
C356 H341 0.930 . S
C356 C351 1.390 . S
C356 C355 1.387 . S
H357 C369 0.930 . S
H358 C371 0.930 . S
H359 C372 0.930 . S
H360 C376 0.959 . S
H361 C376 0.959 . S
H362 C376 0.961 . S
H363 C377 0.960 . S
H364 C377 0.961 . S
H365 C377 0.959 . S
H366 C380 0.929 . S
H367 C381 0.931 . S
H368 C383 0.930 . S
C369 H357 0.930 . S
C369 C370 1.399 . S
C369 C374 1.399 . S
C370 C369 1.399 . S
C370 C371 1.376 . S
C371 H358 0.930 . S
C371 C370 1.376 . S
C371 C372 1.388 . S
C372 H359 0.930 . S
C372 C371 1.388 . S
C372 C373 1.390 . S
C373 C372 1.390 . S
C373 C374 1.394 . S
C373 C379 1.465 . S
C374 C369 1.399 . S
C374 C373 1.394 . S
C374 C375 1.516 . S
C375 C374 1.516 . S
C375 C376 1.502 . S
C375 C377 1.561 . S
C375 C378 1.526 . S
C376 H360 0.959 . S
C376 H361 0.959 . S
C376 H362 0.961 . S
C376 C375 1.502 . S
C377 H363 0.960 . S
C377 H364 0.961 . S
C377 H365 0.959 . S
C377 C375 1.561 . S
C378 C375 1.526 . S
C378 C379 1.396 . S
C378 C383 1.390 . S
C379 C373 1.465 . S
C379 C378 1.396 . S
C379 C380 1.399 . S
C380 H366 0.929 . S
C380 C379 1.399 . S
C380 C381 1.385 . S
C381 H367 0.931 . S
C381 C380 1.385 . S
C381 C382 1.389 . S
C382 C381 1.389 . S
C382 C383 1.387 . S
C383 H368 0.930 . S
C383 C378 1.390 . S
C383 C382 1.387 . S
H384 C396 0.930 . S
H385 C398 0.930 . S
H386 C399 0.930 . S
H387 C403 0.959 . S
H388 C403 0.959 . S
H389 C403 0.961 . S
H390 C404 0.960 . S
H391 C404 0.961 . S
H392 C404 0.959 . S
H393 C407 0.929 . S
H394 C408 0.931 . S
H395 C410 0.930 . S
C396 H384 0.930 . S
C396 C397 1.399 . S
C396 C401 1.399 . S
C397 C396 1.399 . S
C397 C398 1.376 . S
C398 H385 0.930 . S
C398 C397 1.376 . S
C398 C399 1.388 . S
C399 H386 0.930 . S
C399 C398 1.388 . S
C399 C400 1.390 . S
C400 C399 1.390 . S
C400 C401 1.394 . S
C400 C406 1.465 . S
C401 C396 1.399 . S
C401 C400 1.394 . S
C401 C402 1.516 . S
C402 C401 1.516 . S
C402 C403 1.502 . S
C402 C404 1.561 . S
C402 C405 1.526 . S
C403 H387 0.959 . S
C403 H388 0.959 . S
C403 H389 0.961 . S
C403 C402 1.502 . S
C404 H390 0.960 . S
C404 H391 0.961 . S
C404 H392 0.959 . S
C404 C402 1.561 . S
C405 C402 1.526 . S
C405 C406 1.396 . S
C405 C410 1.390 . S
C406 C400 1.465 . S
C406 C405 1.396 . S
C406 C407 1.399 . S
C407 H393 0.929 . S
C407 C406 1.399 . S
C407 C408 1.385 . S
C408 H394 0.931 . S
C408 C407 1.385 . S
C408 C409 1.389 . S
C409 C408 1.389 . S
C409 C410 1.387 . S
C410 H395 0.930 . S
C410 C405 1.390 . S
C410 C409 1.387 . S
H411 C423 0.930 . S
H412 C425 0.930 . S
H413 C426 0.930 1_554 S
H414 C430 0.959 . S
H415 C430 0.959 . S
H416 C430 0.961 . S
H417 C431 0.960 . S
H418 C431 0.961 . S
H419 C431 0.959 . S
H420 C434 0.929 . S
H421 C435 0.931 . S
H422 C437 0.930 . S
C423 H411 0.930 . S
C423 C424 1.399 . S
C423 C428 1.399 . S
C424 C423 1.399 . S
C424 C425 1.376 . S
C425 H412 0.930 . S
C425 C424 1.376 . S
C425 C426 1.388 . S
C426 H413 0.930 1_556 S
C426 C425 1.388 . S
C426 C427 1.390 . S
C427 C426 1.390 . S
C427 C428 1.394 . S
C427 C433 1.465 . S
C428 C423 1.399 . S
C428 C427 1.394 . S
C428 C429 1.516 . S
C429 C428 1.516 . S
C429 C430 1.502 . S
C429 C431 1.561 . S
C429 C432 1.526 . S
C430 H414 0.959 . S
C430 H415 0.959 . S
C430 H416 0.961 . S
C430 C429 1.502 . S
C431 H417 0.960 . S
C431 H418 0.961 . S
C431 H419 0.959 . S
C431 C429 1.561 . S
C432 C429 1.526 . S
C432 C433 1.396 . S
C432 C437 1.390 . S
C433 C427 1.465 . S
C433 C432 1.396 . S
C433 C434 1.399 1_556 S
C434 H420 0.929 . S
C434 C433 1.399 1_554 S
C434 C435 1.385 . S
C435 H421 0.931 . S
C435 C434 1.385 . S
C435 C436 1.389 . S
C436 C435 1.389 . S
C436 C437 1.387 1_554 S
C437 H422 0.930 . S
C437 C432 1.390 . S
C437 C436 1.387 1_556 S
H438 C450 0.930 . S
H439 C452 0.930 . S
H440 C453 0.930 . S
H441 C457 0.959 . S
H442 C457 0.959 . S
H443 C457 0.961 . S
H444 C458 0.960 . S
H445 C458 0.961 . S
H446 C458 0.959 . S
H447 C461 0.929 . S
H448 C462 0.931 . S
H449 C464 0.930 . S
C450 H438 0.930 . S
C450 C451 1.399 . S
C450 C455 1.399 . S
C451 C450 1.399 . S
C451 C452 1.376 . S
C452 H439 0.930 . S
C452 C451 1.376 . S
C452 C453 1.388 . S
C453 H440 0.930 . S
C453 C452 1.388 . S
C453 C454 1.390 . S
C454 C453 1.390 . S
C454 C455 1.394 . S
C454 C460 1.465 . S
C455 C450 1.399 . S
C455 C454 1.394 . S
C455 C456 1.516 . S
C456 C455 1.516 . S
C456 C457 1.502 . S
C456 C458 1.561 . S
C456 C459 1.526 . S
C457 H441 0.959 . S
C457 H442 0.959 . S
C457 H443 0.961 . S
C457 C456 1.502 . S
C458 H444 0.960 . S
C458 H445 0.961 . S
C458 H446 0.959 . S
C458 C456 1.561 . S
C459 C456 1.526 . S
C459 C460 1.396 . S
C459 C464 1.390 . S
C460 C454 1.465 . S
C460 C459 1.396 . S
C460 C461 1.399 . S
C461 H447 0.929 . S
C461 C460 1.399 . S
C461 C462 1.385 . S
C462 H448 0.931 . S
C462 C461 1.385 . S
C462 C463 1.389 . S
C463 C462 1.389 . S
C463 C464 1.387 . S
C464 H449 0.930 . S
C464 C459 1.390 . S
C464 C463 1.387 . S
H465 C477 0.930 . S
H466 C479 0.930 . S
H467 C480 0.930 . S
H468 C484 0.959 . S
H469 C484 0.959 . S
H470 C484 0.961 . S
H471 C485 0.960 . S
H472 C485 0.961 . S
H473 C485 0.959 . S
H474 C488 0.929 . S
H475 C489 0.931 . S
H476 C491 0.930 . S
C477 H465 0.930 . S
C477 C478 1.399 . S
C477 C482 1.399 . S
C478 C477 1.399 . S
C478 C479 1.376 . S
C479 H466 0.930 . S
C479 C478 1.376 . S
C479 C480 1.388 . S
C480 H467 0.930 . S
C480 C479 1.388 . S
C480 C481 1.390 . S
C481 C480 1.390 . S
C481 C482 1.394 . S
C481 C487 1.465 . S
C482 C477 1.399 . S
C482 C481 1.394 . S
C482 C483 1.516 . S
C483 C482 1.516 . S
C483 C484 1.502 . S
C483 C485 1.561 . S
C483 C486 1.526 . S
C484 H468 0.959 . S
C484 H469 0.959 . S
C484 H470 0.961 . S
C484 C483 1.502 . S
C485 H471 0.960 . S
C485 H472 0.961 . S
C485 H473 0.959 . S
C485 C483 1.561 . S
C486 C483 1.526 . S
C486 C487 1.396 . S
C486 C491 1.390 . S
C487 C481 1.465 . S
C487 C486 1.396 . S
C487 C488 1.399 . S
C488 H474 0.929 . S
C488 C487 1.399 . S
C488 C489 1.385 . S
C489 H475 0.931 . S
C489 C488 1.385 . S
C489 C490 1.389 . S
C490 C489 1.389 . S
C490 C491 1.387 . S
C491 H476 0.930 . S
C491 C486 1.390 . S
C491 C490 1.387 . S
H492 C504 0.930 . S
H493 C506 0.930 . S
H494 C507 0.930 . S
H495 C511 0.959 . S
H496 C511 0.959 . S
H497 C511 0.961 . S
H498 C512 0.960 . S
H499 C512 0.961 . S
H500 C512 0.959 . S
H501 C515 0.929 . S
H502 C516 0.931 . S
H503 C518 0.930 . S
C504 H492 0.930 . S
C504 C505 1.399 . S
C504 C509 1.399 . S
C505 C504 1.399 . S
C505 C506 1.376 . S
C506 H493 0.930 . S
C506 C505 1.376 . S
C506 C507 1.388 . S
C507 H494 0.930 . S
C507 C506 1.388 . S
C507 C508 1.390 . S
C508 C507 1.390 . S
C508 C509 1.394 . S
C508 C514 1.465 . S
C509 C504 1.399 . S
C509 C508 1.394 . S
C509 C510 1.516 . S
C510 C509 1.516 . S
C510 C511 1.502 . S
C510 C512 1.561 . S
C510 C513 1.526 . S
C511 H495 0.959 . S
C511 H496 0.959 . S
C511 H497 0.961 . S
C511 C510 1.502 . S
C512 H498 0.960 . S
C512 H499 0.961 . S
C512 H500 0.959 . S
C512 C510 1.561 . S
C513 C510 1.526 . S
C513 C514 1.396 . S
C513 C518 1.390 . S
C514 C508 1.465 . S
C514 C513 1.396 . S
C514 C515 1.399 . S
C515 H501 0.929 . S
C515 C514 1.399 . S
C515 C516 1.385 . S
C516 H502 0.931 . S
C516 C515 1.385 . S
C516 C517 1.389 . S
C517 C516 1.389 . S
C517 C518 1.387 . S
C518 H503 0.930 . S
C518 C513 1.390 . S
C518 C517 1.387 . S
H519 C531 0.930 . S
H520 C533 0.930 . S
H521 C534 0.930 . S
H522 C538 0.959 . S
H523 C538 0.959 . S
H524 C538 0.961 . S
H525 C539 0.960 . S
H526 C539 0.961 . S
H527 C539 0.959 . S
H528 C542 0.929 . S
H529 C543 0.931 . S
H530 C545 0.930 . S
C531 H519 0.930 . S
C531 C532 1.399 . S
C531 C536 1.399 . S
C532 C531 1.399 . S
C532 C533 1.376 . S
C533 H520 0.930 . S
C533 C532 1.376 . S
C533 C534 1.388 . S
C534 H521 0.930 . S
C534 C533 1.388 . S
C534 C535 1.390 . S
C535 C534 1.390 . S
C535 C536 1.394 . S
C535 C541 1.465 . S
C536 C531 1.399 . S
C536 C535 1.394 . S
C536 C537 1.516 . S
C537 C536 1.516 . S
C537 C538 1.502 . S
C537 C539 1.561 . S
C537 C540 1.526 . S
C538 H522 0.959 . S
C538 H523 0.959 . S
C538 H524 0.961 . S
C538 C537 1.502 . S
C539 H525 0.960 . S
C539 H526 0.961 . S
C539 H527 0.959 . S
C539 C537 1.561 . S
C540 C537 1.526 . S
C540 C541 1.396 . S
C540 C545 1.390 . S
C541 C535 1.465 . S
C541 C540 1.396 . S
C541 C542 1.399 . S
C542 H528 0.929 . S
C542 C541 1.399 . S
C542 C543 1.385 . S
C543 H529 0.931 . S
C543 C542 1.385 . S
C543 C544 1.389 . S
C544 C543 1.389 . S
C544 C545 1.387 . S
C545 H530 0.930 . S
C545 C540 1.390 . S
C545 C544 1.387 . S
H546 C558 0.930 . S
H547 C560 0.930 . S
H548 C561 0.930 . S
H549 C565 0.959 . S
H550 C565 0.959 . S
H551 C565 0.961 . S
H552 C566 0.960 . S
H553 C566 0.961 . S
H554 C566 0.959 . S
H555 C569 0.929 . S
H556 C570 0.931 . S
H557 C572 0.930 . S
C558 H546 0.930 . S
C558 C559 1.399 . S
C558 C563 1.399 . S
C559 C558 1.399 . S
C559 C560 1.376 . S
C560 H547 0.930 . S
C560 C559 1.376 . S
C560 C561 1.388 . S
C561 H548 0.930 . S
C561 C560 1.388 . S
C561 C562 1.390 . S
C562 C561 1.390 . S
C562 C563 1.394 . S
C562 C568 1.465 . S
C563 C558 1.399 . S
C563 C562 1.394 . S
C563 C564 1.516 . S
C564 C563 1.516 . S
C564 C565 1.502 . S
C564 C566 1.561 . S
C564 C567 1.526 . S
C565 H549 0.959 . S
C565 H550 0.959 . S
C565 H551 0.961 . S
C565 C564 1.502 . S
C566 H552 0.960 . S
C566 H553 0.961 . S
C566 H554 0.959 . S
C566 C564 1.561 . S
C567 C564 1.526 . S
C567 C568 1.396 . S
C567 C572 1.390 . S
C568 C562 1.465 . S
C568 C567 1.396 . S
C568 C569 1.399 . S
C569 H555 0.929 . S
C569 C568 1.399 . S
C569 C570 1.385 . S
C570 H556 0.931 . S
C570 C569 1.385 . S
C570 C571 1.389 . S
C571 C570 1.389 . S
C571 C572 1.387 . S
C572 H557 0.930 . S
C572 C567 1.390 . S
C572 C571 1.387 . S
H573 C585 0.930 . S
H574 C587 0.930 . S
H575 C588 0.930 . S
H576 C592 0.959 . S
H577 C592 0.959 . S
H578 C592 0.961 . S
H579 C593 0.960 . S
H580 C593 0.961 . S
H581 C593 0.959 . S
H582 C596 0.929 . S
H583 C597 0.931 . S
H584 C599 0.930 . S
C585 H573 0.930 . S
C585 C586 1.399 . S
C585 C590 1.399 . S
C586 C585 1.399 . S
C586 C587 1.376 . S
C587 H574 0.930 . S
C587 C586 1.376 . S
C587 C588 1.388 . S
C588 H575 0.930 . S
C588 C587 1.388 . S
C588 C589 1.390 . S
C589 C588 1.390 . S
C589 C590 1.394 . S
C589 C595 1.465 . S
C590 C585 1.399 . S
C590 C589 1.394 . S
C590 C591 1.516 . S
C591 C590 1.516 . S
C591 C592 1.502 . S
C591 C593 1.561 . S
C591 C594 1.526 . S
C592 H576 0.959 . S
C592 H577 0.959 . S
C592 H578 0.961 . S
C592 C591 1.502 . S
C593 H579 0.960 . S
C593 H580 0.961 . S
C593 H581 0.959 . S
C593 C591 1.561 . S
C594 C591 1.526 . S
C594 C595 1.396 . S
C594 C599 1.390 . S
C595 C589 1.465 . S
C595 C594 1.396 . S
C595 C596 1.399 . S
C596 H582 0.929 . S
C596 C595 1.399 . S
C596 C597 1.385 . S
C597 H583 0.931 . S
C597 C596 1.385 . S
C597 C598 1.389 . S
C598 C597 1.389 . S
C598 C599 1.387 . S
C599 H584 0.930 . S
C599 C594 1.390 . S
C599 C598 1.387 . S
H600 C612 0.930 . S
H601 C614 0.930 . S
H602 C615 0.930 . S
H603 C619 0.959 . S
H604 C619 0.959 1_545 S
H605 C619 0.960 . S
H606 C620 0.960 . S
H607 C620 0.961 . S
H608 C620 0.959 . S
H609 C623 0.929 . S
H610 C624 0.931 1_554 S
H611 C626 0.932 . S
C612 H600 0.930 . S
C612 C613 1.399 . S
C612 C617 1.399 . S
C613 C612 1.399 . S
C613 C614 1.376 . S
C614 H601 0.930 . S
C614 C613 1.376 . S
C614 C615 1.388 . S
C615 H602 0.930 . S
C615 C614 1.388 . S
C615 C616 1.390 . S
C616 C615 1.390 . S
C616 C617 1.394 . S
C616 C622 1.465 . S
C617 C612 1.399 . S
C617 C616 1.394 . S
C617 C618 1.516 . S
C618 C617 1.516 . S
C618 C619 1.502 . S
C618 C620 1.561 . S
C618 C621 1.526 . S
C619 H603 0.959 . S
C619 H604 0.959 1_565 S
C619 H605 0.960 . S
C619 C618 1.502 . S
C620 H606 0.960 . S
C620 H607 0.961 . S
C620 H608 0.959 . S
C620 C618 1.561 . S
C621 C618 1.526 . S
C621 C622 1.396 . S
C621 C626 1.390 . S
C622 C616 1.465 . S
C622 C621 1.396 . S
C622 C623 1.399 . S
C623 H609 0.929 . S
C623 C622 1.399 . S
C623 C624 1.385 . S
C624 H610 0.931 1_556 S
C624 C623 1.385 . S
C624 C625 1.389 . S
C625 C624 1.389 . S
C625 C626 1.387 . S
C626 H611 0.932 . S
C626 C621 1.390 . S
C626 C625 1.387 . S
H627 C639 0.930 . S
H628 C641 0.930 . S
H629 C642 0.930 . S
H630 C646 0.959 . S
H631 C646 0.959 . S
H632 C646 0.961 . S
H633 C647 0.960 . S
H634 C647 0.961 . S
H635 C647 0.959 . S
H636 C650 0.929 . S
H637 C651 0.931 . S
H638 C653 0.930 . S
C639 H627 0.930 . S
C639 C640 1.399 . S
C639 C644 1.399 . S
C640 C639 1.399 . S
C640 C641 1.376 . S
C641 H628 0.930 . S
C641 C640 1.376 . S
C641 C642 1.388 . S
C642 H629 0.930 . S
C642 C641 1.388 . S
C642 C643 1.390 . S
C643 C642 1.390 . S
C643 C644 1.394 . S
C643 C649 1.465 . S
C644 C639 1.399 . S
C644 C643 1.394 . S
C644 C645 1.516 . S
C645 C644 1.516 . S
C645 C646 1.502 . S
C645 C647 1.561 . S
C645 C648 1.526 . S
C646 H630 0.959 . S
C646 H631 0.959 . S
C646 H632 0.961 . S
C646 C645 1.502 . S
C647 H633 0.960 . S
C647 H634 0.961 . S
C647 H635 0.959 . S
C647 C645 1.561 . S
C648 C645 1.526 . S
C648 C649 1.396 . S
C648 C653 1.390 . S
C649 C643 1.465 . S
C649 C648 1.396 . S
C649 C650 1.399 . S
C650 H636 0.929 . S
C650 C649 1.399 . S
C650 C651 1.385 . S
C651 H637 0.931 . S
C651 C650 1.385 . S
C651 C652 1.389 . S
C652 C651 1.389 . S
C652 C653 1.387 . S
C653 H638 0.930 . S
C653 C648 1.390 . S
C653 C652 1.387 . S
H654 C666 0.930 . S
H655 C668 0.930 . S
H656 C669 0.930 . S
H657 C673 0.959 . S
H658 C673 0.959 . S
H659 C673 0.961 . S
H660 C674 0.960 . S
H661 C674 0.961 . S
H662 C674 0.959 . S
H663 C677 0.929 . S
H664 C678 0.931 . S
H665 C680 0.930 . S
C666 H654 0.930 . S
C666 C667 1.399 . S
C666 C671 1.399 . S
C667 C666 1.399 . S
C667 C668 1.376 . S
C668 H655 0.930 . S
C668 C667 1.376 . S
C668 C669 1.388 . S
C669 H656 0.930 . S
C669 C668 1.388 . S
C669 C670 1.390 . S
C670 C669 1.390 . S
C670 C671 1.394 . S
C670 C676 1.465 . S
C671 C666 1.399 . S
C671 C670 1.394 . S
C671 C672 1.516 . S
C672 C671 1.516 . S
C672 C673 1.502 . S
C672 C674 1.561 . S
C672 C675 1.526 . S
C673 H657 0.959 . S
C673 H658 0.959 . S
C673 H659 0.961 . S
C673 C672 1.502 . S
C674 H660 0.960 . S
C674 H661 0.961 . S
C674 H662 0.959 . S
C674 C672 1.561 . S
C675 C672 1.526 . S
C675 C676 1.396 . S
C675 C680 1.390 . S
C676 C670 1.465 . S
C676 C675 1.396 . S
C676 C677 1.399 . S
C677 H663 0.929 . S
C677 C676 1.399 . S
C677 C678 1.385 . S
C678 H664 0.931 . S
C678 C677 1.385 . S
C678 C679 1.389 . S
C679 C678 1.389 . S
C679 C680 1.387 . S
C680 H665 0.930 . S
C680 C675 1.390 . S
C680 C679 1.387 . S
H681 C693 0.930 . S
H682 C695 0.930 . S
H683 C696 0.930 . S
H684 C700 0.959 . S
H685 C700 0.959 . S
H686 C700 0.961 . S
H687 C701 0.960 . S
H688 C701 0.961 . S
H689 C701 0.959 . S
H690 C704 0.929 . S
H691 C705 0.931 . S
H692 C707 0.930 . S
C693 H681 0.930 . S
C693 C694 1.399 . S
C693 C698 1.399 . S
C694 C693 1.399 . S
C694 C695 1.376 . S
C695 H682 0.930 . S
C695 C694 1.376 . S
C695 C696 1.388 . S
C696 H683 0.930 . S
C696 C695 1.388 . S
C696 C697 1.390 . S
C697 C696 1.390 . S
C697 C698 1.394 . S
C697 C703 1.465 . S
C698 C693 1.399 . S
C698 C697 1.394 . S
C698 C699 1.516 . S
C699 C698 1.516 . S
C699 C700 1.502 . S
C699 C701 1.561 . S
C699 C702 1.526 . S
C700 H684 0.959 . S
C700 H685 0.959 . S
C700 H686 0.961 . S
C700 C699 1.502 . S
C701 H687 0.960 . S
C701 H688 0.961 . S
C701 H689 0.959 . S
C701 C699 1.561 . S
C702 C699 1.526 . S
C702 C703 1.396 . S
C702 C707 1.390 . S
C703 C697 1.465 . S
C703 C702 1.396 . S
C703 C704 1.399 . S
C704 H690 0.929 . S
C704 C703 1.399 . S
C704 C705 1.385 . S
C705 H691 0.931 . S
C705 C704 1.385 . S
C705 C706 1.389 . S
C706 C705 1.389 . S
C706 C707 1.387 . S
C707 H692 0.930 . S
C707 C702 1.390 . S
C707 C706 1.387 . S
H708 C720 0.930 . S
H709 C722 0.930 . S
H710 C723 0.930 . S
H711 C727 0.959 . S
H712 C727 0.959 . S
H713 C727 0.961 . S
H714 C728 0.960 . S
H715 C728 0.961 . S
H716 C728 0.959 . S
H717 C731 0.929 . S
H718 C732 0.931 1_455 S
H719 C734 0.930 . S
C720 H708 0.930 . S
C720 C721 1.399 . S
C720 C725 1.399 . S
C721 C720 1.399 . S
C721 C722 1.376 . S
C722 H709 0.930 . S
C722 C721 1.376 . S
C722 C723 1.388 . S
C723 H710 0.930 . S
C723 C722 1.388 . S
C723 C724 1.390 . S
C724 C723 1.390 . S
C724 C725 1.394 . S
C724 C730 1.465 . S
C725 C720 1.399 . S
C725 C724 1.394 . S
C725 C726 1.516 . S
C726 C725 1.516 . S
C726 C727 1.502 . S
C726 C728 1.561 . S
C726 C729 1.526 . S
C727 H711 0.959 . S
C727 H712 0.959 . S
C727 H713 0.961 . S
C727 C726 1.502 . S
C728 H714 0.960 . S
C728 H715 0.961 . S
C728 H716 0.959 . S
C728 C726 1.561 . S
C729 C726 1.526 . S
C729 C730 1.396 . S
C729 C734 1.390 . S
C730 C724 1.465 . S
C730 C729 1.396 . S
C730 C731 1.399 . S
C731 H717 0.929 . S
C731 C730 1.399 . S
C731 C732 1.385 . S
C732 H718 0.931 1_655 S
C732 C731 1.385 . S
C732 C733 1.389 . S
C733 C732 1.389 . S
C733 C734 1.387 . S
C734 H719 0.930 . S
C734 C729 1.390 . S
C734 C733 1.387 . S
H735 C747 0.930 . S
H736 C749 0.930 . S
H737 C750 0.930 . S
H738 C754 0.959 . S
H739 C754 0.959 . S
H740 C754 0.961 . S
H741 C755 0.960 . S
H742 C755 0.961 . S
H743 C755 0.959 . S
H744 C758 0.929 . S
H745 C759 0.931 . S
H746 C761 0.930 . S
C747 H735 0.930 . S
C747 C748 1.399 . S
C747 C752 1.399 . S
C748 C747 1.399 . S
C748 C749 1.376 . S
C749 H736 0.930 . S
C749 C748 1.376 . S
C749 C750 1.388 . S
C750 H737 0.930 . S
C750 C749 1.388 . S
C750 C751 1.390 . S
C751 C750 1.390 . S
C751 C752 1.394 . S
C751 C757 1.465 . S
C752 C747 1.399 . S
C752 C751 1.394 . S
C752 C753 1.516 . S
C753 C752 1.516 . S
C753 C754 1.502 . S
C753 C755 1.561 . S
C753 C756 1.526 . S
C754 H738 0.959 . S
C754 H739 0.959 . S
C754 H740 0.961 . S
C754 C753 1.502 . S
C755 H741 0.960 . S
C755 H742 0.961 . S
C755 H743 0.959 . S
C755 C753 1.561 . S
C756 C753 1.526 . S
C756 C757 1.396 . S
C756 C761 1.390 . S
C757 C751 1.465 . S
C757 C756 1.396 . S
C757 C758 1.399 . S
C758 H744 0.929 . S
C758 C757 1.399 . S
C758 C759 1.385 . S
C759 H745 0.931 . S
C759 C758 1.385 . S
C759 C760 1.389 . S
C760 C759 1.389 . S
C760 C761 1.387 . S
C761 H746 0.930 . S
C761 C756 1.390 . S
C761 C760 1.387 . S
H762 C774 0.930 . S
H763 C776 0.930 . S
H764 C777 0.930 . S
H765 C781 0.959 . S
H766 C781 0.959 . S
H767 C781 0.961 . S
H768 C782 0.960 . S
H769 C782 0.961 . S
H770 C782 0.959 . S
H771 C785 0.929 . S
H772 C786 0.931 . S
H773 C788 0.930 . S
C774 H762 0.930 . S
C774 C775 1.399 . S
C774 C779 1.399 . S
C775 C774 1.399 . S
C775 C776 1.376 . S
C776 H763 0.930 . S
C776 C775 1.376 . S
C776 C777 1.388 . S
C777 H764 0.930 . S
C777 C776 1.388 . S
C777 C778 1.390 . S
C778 C777 1.390 . S
C778 C779 1.394 . S
C778 C784 1.465 . S
C779 C774 1.399 . S
C779 C778 1.394 . S
C779 C780 1.516 . S
C780 C779 1.516 . S
C780 C781 1.502 . S
C780 C782 1.561 . S
C780 C783 1.526 . S
C781 H765 0.959 . S
C781 H766 0.959 . S
C781 H767 0.961 . S
C781 C780 1.502 . S
C782 H768 0.960 . S
C782 H769 0.961 . S
C782 H770 0.959 . S
C782 C780 1.561 . S
C783 C780 1.526 . S
C783 C784 1.396 . S
C783 C788 1.390 . S
C784 C778 1.465 . S
C784 C783 1.396 . S
C784 C785 1.399 . S
C785 H771 0.929 . S
C785 C784 1.399 . S
C785 C786 1.385 . S
C786 H772 0.931 . S
C786 C785 1.385 . S
C786 C787 1.389 . S
C787 C786 1.389 . S
C787 C788 1.387 . S
C788 H773 0.930 . S
C788 C783 1.390 . S
C788 C787 1.387 . S
H789 C801 0.930 . S
H790 C803 0.930 . S
H791 C804 0.930 . S
H792 C808 0.959 . S
H793 C808 0.959 . S
H794 C808 0.961 . S
H795 C809 0.960 . S
H796 C809 0.961 . S
H797 C809 0.959 . S
H798 C812 0.929 . S
H799 C813 0.931 . S
H800 C815 0.930 . S
C801 H789 0.930 . S
C801 C802 1.399 . S
C801 C806 1.399 . S
C802 C801 1.399 . S
C802 C803 1.376 . S
C803 H790 0.930 . S
C803 C802 1.376 . S
C803 C804 1.388 . S
C804 H791 0.930 . S
C804 C803 1.388 . S
C804 C805 1.390 . S
C805 C804 1.390 . S
C805 C806 1.394 . S
C805 C811 1.465 . S
C806 C801 1.399 . S
C806 C805 1.394 . S
C806 C807 1.516 . S
C807 C806 1.516 . S
C807 C808 1.502 . S
C807 C809 1.561 . S
C807 C810 1.526 . S
C808 H792 0.959 . S
C808 H793 0.959 . S
C808 H794 0.961 . S
C808 C807 1.502 . S
C809 H795 0.960 . S
C809 H796 0.961 . S
C809 H797 0.959 . S
C809 C807 1.561 . S
C810 C807 1.526 . S
C810 C811 1.396 . S
C810 C815 1.390 . S
C811 C805 1.465 . S
C811 C810 1.396 . S
C811 C812 1.399 . S
C812 H798 0.929 . S
C812 C811 1.399 . S
C812 C813 1.385 . S
C813 H799 0.931 . S
C813 C812 1.385 . S
C813 C814 1.389 . S
C814 C813 1.389 . S
C814 C815 1.387 . S
C815 H800 0.930 . S
C815 C810 1.390 . S
C815 C814 1.387 . S
C181 C5 1.451 . S
C193 C107 1.796 . S
C208 C18 1.371 . S
C220 C110 1.382 . S
C247 C146 1.536 . S
C235 C30 1.587 . S
C262 C41 1.325 . S
C274 C166 1.368 1_655 S
C301 C120 1.955 . S
C289 C7 1.823 . S
C328 C97 1.719 . S
C316 C16 1.551 . S
C355 C150 1.555 . S
C343 C29 1.638 . S
C382 C130 1.036 . S
C370 C38 0.784 . S
C397 C8 1.441 . S
C409 C160 1.426 . S
C436 C126 1.776 . S
C424 C27 1.652 . S
C451 C40 1.690 . S
C463 C92 1.672 . S
C478 C19 1.079 . S
C490 C140 1.027 . S
C517 C106 1.516 . S
C505 C51 1.483 . S
C532 C62 1.440 . S
C544 C112 1.488 . S
C559 C74 1.688 . S
C571 C147 1.676 . S
C586 C84 1.470 . S
C598 C167 1.429 . S
C613 C49 1.800 . S
C625 C117 2.019 . S
C652 C100 1.514 . S
C640 C63 1.511 . S
C679 C152 1.498 . S
C667 C71 1.363 . S
C706 C132 1.106 . S
C694 C85 1.243 . S
C721 C52 1.344 . S
C733 C157 1.372 . S
C760 C127 1.842 . S
C748 C73 1.867 . S
C787 C90 1.437 . S
C775 C82 1.300 . S
C802 C60 1.197 . S
C814 C137 1.420 . S
