# Generated by pormake.
# Topology pth, (4,4)-cn, num edge types: 1
# Building blocks:
#     Node 0, Type 0, BuildingBlock: CEKHIL_clean_sbu_0, # of connection points: 4
#     Node 1, Type 0, BuildingBlock: CEKHIL_clean_sbu_0, # of connection points: 4
#     Node 2, Type 0, BuildingBlock: CEKHIL_clean_sbu_0, # of connection points: 4
#     Node 3, Type 1, BuildingBlock: KOZSID_clean_sbu_0, # of connection points: 4
#     Node 4, Type 1, BuildingBlock: KOZSID_clean_sbu_0, # of connection points: 4
#     Node 5, Type 1, BuildingBlock: KOZSID_clean_sbu_0, # of connection points: 4
#     Edge 6, Type (0, 1), BuildingBlock: EZIPEK_clean_linker_0, # of connection points: 2
#     Edge 7, Type (0, 1), BuildingBlock: EZIPEK_clean_linker_0, # of connection points: 2
#     Edge 8, Type (0, 1), BuildingBlock: EZIPEK_clean_linker_0, # of connection points: 2
#     Edge 9, Type (0, 1), BuildingBlock: EZIPEK_clean_linker_0, # of connection points: 2
#     Edge 10, Type (0, 1), BuildingBlock: EZIPEK_clean_linker_0, # of connection points: 2
#     Edge 11, Type (0, 1), BuildingBlock: EZIPEK_clean_linker_0, # of connection points: 2
#     Edge 12, Type (0, 1), BuildingBlock: EZIPEK_clean_linker_0, # of connection points: 2
#     Edge 13, Type (0, 1), BuildingBlock: EZIPEK_clean_linker_0, # of connection points: 2
#     Edge 14, Type (0, 1), BuildingBlock: EZIPEK_clean_linker_0, # of connection points: 2
#     Edge 15, Type (0, 1), BuildingBlock: EZIPEK_clean_linker_0, # of connection points: 2
#     Edge 16, Type (0, 1), BuildingBlock: EZIPEK_clean_linker_0, # of connection points: 2
#     Edge 17, Type (0, 1), BuildingBlock: EZIPEK_clean_linker_0, # of connection points: 2
# Relax obj value: 0.006
# Max RMSD: 0.062
# Mean RMSD: 0.042
data_MOF--net-pth--node1-CEKHIL_clean_sbu_0--node2-KOZSID_clean_sbu_0--edge1-EZIPEK_clean_linker_0
_symmetry_space_group_name_H-M    P1
_symmetry_Int_Tables_number       1
_symmetry_cell_setting            triclinic
loop_
_symmetry_equiv_pos_as_xyz
'x, y, z'
_cell_length_a     19.805264
_cell_length_b     19.851854
_cell_length_c     46.253946
_cell_angle_alpha  87.670679
_cell_angle_beta   86.481393
_cell_angle_gamma 120.40889
loop_
_atom_site_label
_atom_site_type_symbol
_atom_site_fract_x
_atom_site_fract_y
_atom_site_fract_z
_atom_type_partial_charge
Co0 Co 0.09103 0.06577 0.06249 0.0
O1 O 0.03058 0.98022 0.09216 0.0
O2 O 0.14027 1.00329 0.0673 0.0
C3 C 0.08975 0.15947 0.0887 0.0
O4 O 0.17386 0.15095 0.032 0.0
Co5 Co 0.0227 0.15664 0.03321 0.0
O6 O 0.13108 0.22929 0.01523 0.0
C7 C 0.97213 0.99732 0.01696 0.0
C8 C 0.08401 0.96136 0.08766 0.0
C9 C 0.18481 0.21237 0.0168 0.0
O10 O 0.02564 0.99732 0.03157 0.0
O11 O 0.95786 0.05339 0.01638 0.0
O12 O 0.13962 0.13663 0.09265 0.0
O13 O 0.03815 0.121 0.07077 0.0
Co14 Co 0.06652 0.10863 0.37206 0.0
O15 O 0.01964 0.1364 0.34172 0.0
O16 O 0.12 0.22168 0.36422 0.0
C17 C 0.07227 0.0123 0.34888 0.0
O18 O 0.13488 0.10432 0.4032 0.0
Co19 Co 0.9817 0.94692 0.40583 0.0
O20 O 0.08236 0.98078 0.42294 0.0
C21 C 0.92773 0.05739 0.41766 0.0
C22 C 0.07112 0.20902 0.34475 0.0
C23 C 0.13775 0.05213 0.41986 0.0
O24 O 0.98937 0.11185 0.40229 0.0
O25 O 0.91097 0.98604 0.42031 0.0
O26 O 0.1263 0.08541 0.3429 0.0
O27 O 0.01365 0.99974 0.36686 0.0
Co28 Co 0.08762 0.07994 0.70517 0.0
O29 O 0.17028 0.13842 0.67409 0.0
O30 O 0.15155 0.03207 0.69909 0.0
C31 C 0.9897 0.07724 0.68088 0.0
O32 O 1.00629 1.00171 0.73766 0.0
Co33 Co 0.99932 0.15444 0.73479 0.0
O34 O 0.9325 0.04964 0.75613 0.0
C35 C 0.16258 0.20804 0.74655 0.0
C36 C 0.19119 0.08677 0.67813 0.0
C37 C 0.94906 0.99554 0.75484 0.0
O38 O 0.15824 0.14845 0.73469 0.0
O39 O 0.1089 0.22581 0.74557 0.0
O40 O 0.01301 0.02776 0.67632 0.0
O41 O 0.03053 0.13013 0.69802 0.0
C42 C 0.15365 0.7211 0.16949 0.0
C43 C 0.22677 0.77668 0.15593 0.0
C44 C 0.28106 0.76693 0.16942 0.0
C45 C 0.23814 0.70602 0.19031 0.0
N46 N 0.15974 0.67604 0.19085 0.0
Co47 Co 0.0763 0.58666 0.21763 0.0
N48 N 0.15638 0.58194 0.2409 0.0
C49 C 0.23519 0.63074 0.237 0.0
C50 C 0.27539 0.61246 0.25589 0.0
C51 C 0.21893 0.54755 0.27265 0.0
C52 C 0.14735 0.52972 0.26286 0.0
N53 N 0.99291 0.49422 0.24334 0.0
C54 C 0.99948 0.44823 0.26421 0.0
C55 C 0.92662 0.38563 0.27506 0.0
C56 C 0.87207 0.39136 0.26019 0.0
C57 C 0.91463 0.45673 0.24114 0.0
N58 N 0.99608 0.59508 0.19569 0.0
C59 C 0.91705 0.5494 0.20067 0.0
C60 C 0.87675 0.57185 0.18345 0.0
C61 C 0.93347 0.63672 0.16678 0.0
C62 C 1.00528 0.64977 0.17476 0.0
N63 N 0.07973 0.51173 0.19068 0.0
C64 C 0.08082 0.39797 0.15593 0.0
C65 C 0.01839 0.41204 0.1568 0.0
C66 C 0.01836 0.4677 0.17451 0.0
C67 C 0.14349 0.4432 0.1721 0.0
C68 C 0.14277 0.50046 0.18849 0.0
N69 N 0.07304 0.66123 0.2444 0.0
C70 C 0.99984 0.70051 0.27642 0.0
C71 C 0.06809 0.77143 0.27981 0.0
C72 C 0.13891 0.7858 0.26564 0.0
C73 C 0.14017 0.73025 0.2483 0.0
C74 C 1.00355 0.6466 0.2587 0.0
H75 H 0.19612 0.74477 0.23803 0.0
H76 H 0.94944 0.59376 0.25664 0.0
H77 H 0.96751 0.47324 0.17479 0.0
H78 H 0.19406 0.53408 0.19936 0.0
C79 C 0.26973 0.6843 0.21253 0.0
C80 C 0.08049 0.71571 0.1622 0.0
C81 C 0.07332 0.45913 0.27342 0.0
C82 C 0.88289 0.48509 0.22127 0.0
H83 H 0.23954 0.82104 0.13864 0.0
H84 H 0.34443 0.80255 0.16543 0.0
H85 H 0.33846 0.64025 0.25633 0.0
H86 H 0.22942 0.51497 0.28933 0.0
H87 H 0.91441 0.33979 0.29163 0.0
H88 H 0.80899 0.35195 0.26269 0.0
H89 H 0.81368 0.54466 0.18321 0.0
H90 H 0.92324 0.67093 0.15071 0.0
H91 H 0.96887 0.37879 0.14435 0.0
H92 H 0.19349 0.43482 0.17188 0.0
H93 H 0.94383 0.68715 0.28721 0.0
H94 H 0.19313 0.83997 0.26787 0.0
C95 C 0.43153 0.01762 0.59457 0.0
C96 C 0.37491 0.94624 0.60882 0.0
C97 C 0.39183 0.89147 0.59944 0.0
C98 C 0.4575 0.93234 0.58006 0.0
N99 N 0.48315 0.00949 0.57648 0.0
Co100 Co 0.57541 0.08947 0.54996 0.0
N101 N 0.58314 0.00689 0.52911 0.0
C102 C 0.5448 0.92967 0.53775 0.0
C103 C 0.56047 0.88619 0.51916 0.0
C104 C 0.61347 0.93921 0.49768 0.0
C105 C 0.62773 0.01244 0.50458 0.0
N106 N 0.66646 0.16955 0.52275 0.0
C107 C 0.70558 0.16088 0.49922 0.0
C108 C 0.76882 0.23263 0.48784 0.0
C109 C 0.77049 0.28783 0.50503 0.0
C110 C 0.70852 0.24702 0.52592 0.0
N111 N 0.56868 0.17135 0.5714 0.0
C112 C 0.62416 0.24789 0.56991 0.0
C113 C 0.60394 0.29041 0.58739 0.0
C114 C 0.53116 0.23736 0.60086 0.0
C115 C 0.51115 0.16534 0.59076 0.0
N116 N 0.64834 0.08997 0.57755 0.0
C117 C 0.75093 0.08558 0.61598 0.0
C118 C 0.77325 0.10298 0.58626 0.0
C119 C 0.72168 0.1053 0.56763 0.0
C120 C 0.67724 0.07273 0.6265 0.0
C121 C 0.62721 0.07601 0.60695 0.0
N122 N 0.50234 0.08939 0.52277 0.0
C123 C 0.45201 0.15885 0.49587 0.0
C124 C 0.39136 0.08843 0.48727 0.0
C125 C 0.38832 0.01869 0.49629 0.0
C126 C 0.44358 0.02033 0.51423 0.0
C127 C 0.50739 0.15817 0.5132 0.0
H128 H 0.43747 0.96528 0.52157 0.0
H129 H 0.55343 0.21345 0.51922 0.0
H130 H 0.74249 0.12014 0.54522 0.0
H131 H 0.57173 0.06753 0.6158 0.0
C132 C 0.48932 0.89906 0.56192 0.0
C133 C 0.43811 0.0924 0.60067 0.0
C134 C 0.69355 0.08556 0.49019 0.0
C135 C 0.6878 0.27929 0.54864 0.0
H136 H 0.32692 0.93512 0.62455 0.0
H137 H 0.3587 0.82896 0.60536 0.0
H138 H 0.53625 0.82342 0.52099 0.0
H139 H 0.64157 0.92611 0.47976 0.0
H140 H 0.8117 0.24347 0.46989 0.0
H141 H 0.81302 0.35005 0.50295 0.0
H142 H 0.63673 0.353 0.58926 0.0
H143 H 0.49655 0.25018 0.61623 0.0
H144 H 0.83043 0.11455 0.57741 0.0
H145 H 0.65867 0.06049 0.64957 0.0
H146 H 0.45632 0.21401 0.48933 0.0
H147 H 0.342 0.96299 0.49021 0.0
C148 C 0.73611 0.65314 0.83992 0.0
C149 C 0.79295 0.64073 0.82643 0.0
C150 C 0.77643 0.56802 0.83697 0.0
C151 C 0.71049 0.54007 0.85614 0.0
N152 N 0.6843 0.59058 0.85846 0.0
Co153 Co 0.58919 0.5716 0.88326 0.0
N154 N 0.58145 0.47943 0.90602 0.0
C155 C 0.62382 0.44521 0.89968 0.0
C156 C 0.60907 0.38541 0.91976 0.0
C157 C 0.55241 0.38008 0.93978 0.0
C158 C 0.53483 0.43632 0.93048 0.0
N159 N 0.49224 0.55115 0.90739 0.0
C160 C 0.44819 0.49632 0.92979 0.0
C161 C 0.37946 0.49691 0.93747 0.0
C162 C 0.38004 0.55311 0.91933 0.0
C163 C 0.44827 0.58336 0.90146 0.0
N164 N 0.59825 0.66468 0.86103 0.0
C165 C 0.54285 0.6849 0.86106 0.0
C166 C 0.56661 0.75385 0.84484 0.0
C167 C 0.64179 0.77878 0.83365 0.0
C168 C 0.65938 0.7229 0.84349 0.0
N169 N 0.52178 0.5025 0.85481 0.0
C170 C 0.41616 0.40675 0.81599 0.0
C171 C 0.4809 0.48053 0.80617 0.0
C172 C 0.5338 0.52672 0.82584 0.0
C173 C 0.40749 0.38104 0.84527 0.0
C174 C 0.45937 0.43022 0.86419 0.0
N175 N 0.65688 0.64144 0.91147 0.0
C176 C 0.69312 0.75026 0.94107 0.0
C177 C 0.76118 0.75024 0.94767 0.0
C178 C 0.77507 0.69358 0.93638 0.0
C179 C 0.72211 0.63955 0.91857 0.0
C180 C 0.64196 0.69564 0.92295 0.0
H181 H 0.73515 0.59733 0.91012 0.0
H182 H 0.59123 0.69857 0.91778 0.0
H183 H 0.58308 0.58278 0.81773 0.0
H184 H 0.44694 0.4105 0.88659 0.0
C185 C 0.68003 0.47374 0.8757 0.0
C186 C 0.73187 0.72385 0.83369 0.0
C187 C 0.46438 0.43689 0.94224 0.0
C188 C 0.47396 0.64372 0.87958 0.0
H189 H 0.84153 0.68034 0.81077 0.0
H190 H 0.81037 0.54029 0.83213 0.0
H191 H 0.63583 0.34951 0.91973 0.0
H192 H 0.52369 0.33658 0.9581 0.0
H193 H 0.33187 0.45876 0.95367 0.0
H194 H 0.33531 0.56909 0.91891 0.0
H195 H 0.53415 0.78379 0.84222 0.0
H196 H 0.67899 0.83174 0.81963 0.0
H197 H 0.4898 0.50275 0.78364 0.0
H198 H 0.35821 0.32459 0.85383 0.0
H199 H 0.68047 0.79332 0.94938 0.0
H200 H 0.82703 0.69167 0.94104 0.0
C201 C 0.01912 0.20003 0.12518 0.0
C202 C 0.08707 0.21981 0.1062 0.0
C203 C 0.14542 0.35694 0.11733 0.0
C204 C 0.08125 0.3364 0.1383 0.0
N205 N 0.9665 0.23362 0.16726 0.0
N206 N 0.22441 0.31344 0.09182 0.0
C207 C 0.02028 0.2566 0.14355 0.0
C208 C 0.15325 0.29695 0.1047 0.0
N209 N 0.95424 0.12659 0.12647 0.0
N210 N 0.1973 0.43384 0.10835 0.0
H211 H 0.23329 0.27281 0.08129 0.0
H212 H 0.27603 0.36664 0.09335 0.0
H213 H 0.19149 0.47967 0.11584 0.0
H214 H 0.24071 0.45127 0.0911 0.0
H215 H 0.90004 0.11229 0.13699 0.0
H216 H 0.9531 0.08075 0.11588 0.0
H217 H 0.92577 0.17517 0.17391 0.0
H218 H 0.96773 0.2721 0.18219 0.0
C219 C 0.87588 0.07303 0.4658 0.0
C220 C 0.87594 0.07774 0.43526 0.0
C221 C 0.76372 0.0991 0.44036 0.0
C222 C 0.75705 0.0832 0.47103 0.0
N223 N 0.79929 0.03853 0.51206 0.0
N224 N 0.81883 0.09226 0.39276 0.0
C225 C 0.81124 0.06596 0.48356 0.0
C226 C 0.81999 0.0908 0.42228 0.0
N227 N 0.93871 0.07655 0.4779 0.0
N228 N 0.71595 0.12167 0.42854 0.0
H229 H 0.86069 0.08899 0.37902 0.0
H230 H 0.7744 0.09256 0.38195 0.0
H231 H 0.67162 0.12437 0.44088 0.0
H232 H 0.72318 0.14231 0.40686 0.0
H233 H 0.94617 0.08155 0.49997 0.0
H234 H 0.98773 0.08371 0.4653 0.0
H235 H 0.83278 0.01797 0.52133 0.0
H236 H 0.7504 0.02667 0.52569 0.0
C237 C 0.92254 0.90787 0.80043 0.0
C238 C 0.89777 0.92173 0.77377 0.0
C239 C 0.77335 0.7969 0.78378 0.0
C240 C 0.79258 0.7889 0.81226 0.0
N241 N 0.88402 0.839 0.84871 0.0
N242 N 0.7925 0.88666 0.74304 0.0
C243 C 0.86722 0.84473 0.82082 0.0
C244 C 0.82126 0.86812 0.76622 0.0
N245 N 0.99858 0.95545 0.80637 0.0
N246 N 0.70951 0.73611 0.77338 0.0
H247 H 0.82438 0.9397 0.73034 0.0
H248 H 0.7343 0.85314 0.7383 0.0
H249 H 0.6741 0.68253 0.78546 0.0
H250 H 0.6969 0.73607 0.75183 0.0
H251 H 0.02256 0.94417 0.82403 0.0
H252 H 0.03958 1.00349 0.79239 0.0
H253 H 0.93352 0.88227 0.85738 0.0
H254 H 0.84559 0.79286 0.86391 0.0
C255 C 0.09237 0.90754 0.13665 0.0
C256 C 0.08377 0.89854 0.10651 0.0
C257 C 0.08007 0.77298 0.11237 0.0
C258 C 0.08246 0.77927 0.1428 0.0
N259 N 0.08073 0.84667 0.18473 0.0
N260 N 0.05834 0.81842 0.06621 0.0
C261 C 0.08562 0.8449 0.15517 0.0
C262 C 0.07497 0.83019 0.09446 0.0
N263 N 0.11055 0.97739 0.14737 0.0
N264 N 0.08386 0.7128 0.10058 0.0
H265 H 0.05384 0.85881 0.05255 0.0
H266 H 0.04281 0.76622 0.05692 0.0
H267 H 0.08536 0.6688 0.11314 0.0
H268 H 0.09114 0.7093 0.07832 0.0
H269 H 0.12631 0.99091 0.16834 0.0
H270 H 0.11663 0.02494 0.13459 0.0
H271 H 0.07335 0.88814 0.1953 0.0
H272 H 0.07833 0.80323 0.19898 0.0
C273 C 0.19334 0.05931 0.46781 0.0
C274 C 0.20676 0.07438 0.43708 0.0
C275 C 0.34525 0.11103 0.4398 0.0
C276 C 0.32887 0.08693 0.47005 0.0
N277 N 0.23649 0.03455 0.5129 0.0
N278 N 0.2949 0.11288 0.39332 0.0
C279 C 0.2527 0.06037 0.48406 0.0
C280 C 0.28295 0.101 0.42297 0.0
N281 N 0.12431 0.04659 0.48158 0.0
N282 N 0.42048 0.14331 0.42712 0.0
H283 H 0.25262 0.1102 0.38034 0.0
H284 H 0.34524 0.12168 0.38128 0.0
H285 H 0.46637 0.14683 0.43816 0.0
H286 H 0.4389 0.17086 0.40617 0.0
H287 H 0.11351 0.04375 0.50403 0.0
H288 H 0.08004 0.04615 0.47039 0.0
H289 H 0.18007 0.0051 0.52361 0.0
H290 H 0.27901 0.0382 0.52599 0.0
C291 C 0.30907 0.28601 0.75331 0.0
C292 C 0.22932 0.25606 0.76416 0.0
C293 C 0.27443 0.33643 0.80544 0.0
C294 C 0.35339 0.35828 0.79685 0.0
N295 N 0.44352 0.33996 0.76526 0.0
N296 N 0.13838 0.23534 0.80562 0.0
C297 C 0.37022 0.32913 0.7715 0.0
C298 C 0.21264 0.27618 0.79172 0.0
N299 N 0.32709 0.27658 0.72535 0.0
N300 N 0.25812 0.37472 0.82612 0.0
H301 H 0.09232 0.18667 0.79745 0.0
H302 H 0.12524 0.24374 0.82687 0.0
H303 H 0.30185 0.42221 0.83568 0.0
H304 H 0.20172 0.36505 0.83124 0.0
H305 H 0.38457 0.30369 0.71561 0.0
H306 H 0.28473 0.2482 0.71095 0.0
H307 H 0.45662 0.31313 0.7487 0.0
H308 H 0.48923 0.36953 0.77831 0.0
C309 C 0.93551 0.15081 0.65428 0.0
C310 C 0.92605 0.07801 0.66515 0.0
C311 C 0.80002 0.00894 0.64332 0.0
C312 C 0.80625 0.08182 0.63552 0.0
N313 N 0.87214 0.22135 0.63856 0.0
N314 N 0.84224 0.93675 0.67314 0.0
C315 C 0.87132 0.1524 0.64281 0.0
C316 C 0.85634 0.00669 0.66052 0.0
N317 N 0.00761 0.21789 0.65246 0.0
N318 N 0.74163 0.94193 0.63349 0.0
H319 H 0.88062 0.9312 0.68604 0.0
H320 H 0.78866 0.88462 0.67324 0.0
H321 H 0.69783 0.94079 0.62172 0.0
H322 H 0.73981 0.88854 0.63513 0.0
H323 H 0.01899 0.27083 0.64224 0.0
H324 H 0.05864 0.21896 0.65752 0.0
H325 H 0.91429 0.27347 0.64625 0.0
H326 H 0.82647 0.22475 0.62985 0.0
C327 C 0.86607 0.8563 0.01306 0.0
C328 C 0.92478 0.93031 0.99925 0.0
C329 C 0.87694 0.88598 0.95172 0.0
C330 C 0.81926 0.81137 0.96541 0.0
N331 N 0.76636 0.72066 0.00818 0.0
N332 N 0.99692 0.0104 0.95526 0.0
C333 C 0.81641 0.79503 0.99582 0.0
C334 C 0.93328 0.94352 0.96849 0.0
N335 N 0.85527 0.84582 0.04275 0.0
N336 N 0.87671 0.90244 0.92274 0.0
H337 H 0.0396 0.05311 0.96688 0.0
H338 H 0.01152 0.0206 0.93288 0.0
H339 H 0.83846 0.86115 0.90954 0.0
H340 H 0.9108 0.95818 0.91205 0.0
H341 H 0.80794 0.79699 0.05436 0.0
H342 H 0.89124 0.88849 0.05603 0.0
H343 H 0.76721 0.70222 0.02947 0.0
H344 H 0.72708 0.67537 0.99651 0.0
C345 C 0.02977 0.9309 0.30599 0.0
C346 C 0.06982 0.94938 0.33158 0.0
C347 C 0.09961 0.84446 0.32502 0.0
C348 C 0.06599 0.83089 0.29809 0.0
N349 N 0.00891 0.86844 0.2607 0.0
N350 N 0.15331 0.93219 0.36308 0.0
C351 C 0.03342 0.8759 0.288 0.0
C352 C 0.10771 0.9085 0.34041 0.0
N353 N 0.98745 0.96534 0.29901 0.0
N354 N 0.12158 0.79451 0.33636 0.0
H355 H 0.15981 0.97819 0.37488 0.0
H356 H 0.18966 0.91091 0.3686 0.0
H357 H 0.11609 0.74674 0.32582 0.0
H358 H 0.13861 0.79605 0.35729 0.0
H359 H 0.94962 0.94787 0.28263 0.0
H360 H 0.98559 0.00786 0.31097 0.0
H361 H 0.99334 0.90586 0.25067 0.0
H362 H 0.00989 0.82844 0.24701 0.0
C363 C 0.24846 0.08555 0.62809 0.0
C364 C 0.25487 0.08842 0.65855 0.0
C365 C 0.38028 0.09096 0.65136 0.0
C366 C 0.37626 0.09363 0.62078 0.0
N367 N 0.31457 0.1082 0.57968 0.0
N368 N 0.33324 0.10785 0.69869 0.0
C369 C 0.31275 0.09548 0.60906 0.0
C370 C 0.32246 0.09468 0.67009 0.0
N371 N 0.17938 0.06935 0.61741 0.0
N372 N 0.43883 0.08375 0.66252 0.0
H373 H 0.2927 0.11164 0.71298 0.0
H374 H 0.38518 0.12172 0.70771 0.0
H375 H 0.48396 0.08424 0.6495 0.0
H376 H 0.43989 0.07208 0.68458 0.0
H377 H 0.16821 0.05808 0.59589 0.0
H378 H 0.13013 0.05969 0.63055 0.0
H379 H 0.27466 0.11921 0.56998 0.0
H380 H 0.3601 0.11449 0.56508 0.0
C381 C 0.31015 0.34448 0.00663 0.0
C382 C 0.26246 0.26562 0.99971 0.0
C383 C 0.35317 0.29439 0.95599 0.0
C384 C 0.40273 0.37225 0.96391 0.0
N385 N 0.43963 0.46156 1.0014 0.0
N386 N 0.24645 0.16169 0.97032 0.0
C387 C 0.38515 0.39339 0.991 0.0
C388 C 0.28708 0.23921 0.97539 0.0
N389 N 0.2824 0.37469 0.02697 0.0
N390 N 0.36605 0.27367 0.92934 0.0
H391 H 0.19463 0.1203 0.98255 0.0
H392 H 0.26708 0.13729 0.95517 0.0
H393 H 0.41595 0.30857 0.91524 0.0
H394 H 0.32526 0.22276 0.9206 0.0
H395 H 0.31164 0.43385 0.03075 0.0
H396 H 0.22639 0.34274 0.03788 0.0
H397 H 0.43285 0.47693 0.0222 0.0
H398 H 0.49499 0.49857 0.9903 0.0
C399 C 0.08546 0.27793 0.29586 0.0
C400 C 0.07359 0.27423 0.32664 0.0
C401 C 0.06829 0.39542 0.32262 0.0
C402 C 0.07361 0.39529 0.29189 0.0
N403 N 0.07617 0.33113 0.24906 0.0
N404 N 0.04042 0.32157 0.36927 0.0
C405 C 0.07891 0.33489 0.27846 0.0
C406 C 0.06182 0.33113 0.34005 0.0
N407 N 0.10637 0.22913 0.28328 0.0
N408 N 0.07032 0.45756 0.33512 0.0
H409 H 0.03382 0.27476 0.38272 0.0
H410 H 0.02252 0.35602 0.37985 0.0
H411 H 0.07238 0.50428 0.32308 0.0
H412 H 0.07579 0.46576 0.35713 0.0
H413 H 0.12402 0.23438 0.26123 0.0
H414 H 0.11302 0.18752 0.29524 0.0
H415 H 0.07062 0.28376 0.23831 0.0
H416 H 0.07331 0.37276 0.23554 0.0
loop_
_geom_bond_atom_site_label_1
_geom_bond_atom_site_label_2
_geom_bond_distance
_geom_bond_site_symmetry_2
_ccdc_geom_bond_type
Co0 O1 2.216 1_545 S
Co0 O2 2.091 . S
Co0 O4 2.004 . S
Co0 O10 2.021 1_545 S
Co0 O12 2.137 . S
Co0 O13 2.244 . S
O1 Co0 2.216 1_565 S
O1 C8 1.247 . S
O2 Co0 2.091 . S
O2 C8 1.261 1_545 S
C3 O12 1.247 . S
C3 O13 1.272 . S
O4 Co0 2.004 . S
O4 C9 1.259 . S
Co5 O6 2.060 1_554 S
Co5 O11 2.052 1_455 S
Co5 O13 2.135 . S
O6 Co5 2.060 1_556 S
O6 C9 1.233 1_556 S
C7 O10 1.238 1_655 S
C7 O11 1.241 1_565 S
C8 O1 1.247 . S
C8 O2 1.261 1_565 S
C9 O4 1.259 . S
C9 O6 1.233 1_554 S
O10 Co0 2.021 1_565 S
O10 C7 1.238 1_455 S
O11 Co5 2.052 1_655 S
O11 C7 1.241 1_545 S
O12 Co0 2.137 . S
O12 C3 1.247 . S
O13 Co0 2.244 . S
O13 C3 1.272 . S
O13 Co5 2.135 . S
Co14 O15 2.216 . S
Co14 O16 2.091 . S
Co14 O18 2.004 . S
Co14 O24 2.021 . S
Co14 O26 2.137 . S
Co14 O27 2.247 . S
O15 Co14 2.216 . S
O15 C22 1.247 . S
O16 Co14 2.091 . S
O16 C22 1.261 . S
C17 O26 1.247 . S
C17 O27 1.271 . S
O18 Co14 2.004 . S
O18 C23 1.259 . S
Co19 O20 2.061 1_665 S
Co19 O25 2.052 1_565 S
Co19 O27 2.134 1_665 S
O20 Co19 2.061 1_445 S
O20 C23 1.235 . S
C21 O24 1.238 1_655 S
C21 O25 1.241 . S
C22 O15 1.247 . S
C22 O16 1.261 . S
C23 O18 1.259 . S
C23 O20 1.235 . S
O24 Co14 2.021 . S
O24 C21 1.238 1_455 S
O25 Co19 2.052 1_545 S
O25 C21 1.241 . S
O26 Co14 2.137 . S
O26 C17 1.247 . S
O27 Co14 2.247 . S
O27 C17 1.271 . S
O27 Co19 2.134 1_445 S
Co28 O29 2.216 . S
Co28 O30 2.091 1_545 S
Co28 O32 2.004 1_545 S
Co28 O38 2.021 . S
Co28 O40 2.137 . S
Co28 O41 2.244 . S
O29 Co28 2.216 . S
O29 C36 1.247 . S
O30 Co28 2.091 1_565 S
O30 C36 1.261 1_565 S
C31 O40 1.247 1_655 S
C31 O41 1.272 1_655 S
O32 Co28 2.004 1_565 S
O32 C37 1.259 1_455 S
Co33 O34 2.061 . S
Co33 O39 2.052 1_655 S
Co33 O41 2.135 1_655 S
O34 Co33 2.061 . S
O34 C37 1.235 1_545 S
C35 O38 1.238 . S
C35 O39 1.241 . S
C36 O29 1.247 . S
C36 O30 1.261 1_545 S
C37 O32 1.259 1_655 S
C37 O34 1.235 1_565 S
O38 Co28 2.021 . S
O38 C35 1.238 . S
O39 Co33 2.052 1_455 S
O39 C35 1.241 . S
O40 Co28 2.137 . S
O40 C31 1.247 1_455 S
O41 Co28 2.244 . S
O41 C31 1.272 1_455 S
O41 Co33 2.135 1_455 S
C42 C43 1.443 . S
C42 N46 1.376 . S
C42 C80 1.389 . S
C43 C42 1.443 . S
C43 C44 1.340 . S
C43 H83 0.951 . S
C44 C43 1.340 . S
C44 C45 1.439 . S
C44 H84 0.950 . S
C45 C44 1.439 . S
C45 N46 1.374 . S
C45 C79 1.395 . S
N46 C42 1.376 . S
N46 C45 1.374 . S
N46 Co47 2.008 . S
Co47 N46 2.008 . S
Co47 N48 1.995 . S
Co47 N53 2.008 1_455 S
Co47 N58 1.995 1_455 S
Co47 N63 2.282 . S
Co47 N69 2.282 . S
N48 Co47 1.995 . S
N48 C49 1.376 . S
N48 C52 1.383 . S
C49 N48 1.376 . S
C49 C50 1.446 . S
C49 C79 1.391 . S
C50 C49 1.446 . S
C50 C51 1.339 . S
C50 H85 0.949 . S
C51 C50 1.339 . S
C51 C52 1.439 . S
C51 H86 0.950 . S
C52 N48 1.383 . S
C52 C51 1.439 . S
C52 C81 1.392 . S
N53 Co47 2.008 1_655 S
N53 C54 1.376 . S
N53 C57 1.374 . S
C54 N53 1.376 . S
C54 C55 1.443 . S
C54 C81 1.389 1_655 S
C55 C54 1.443 . S
C55 C56 1.340 . S
C55 H87 0.951 . S
C56 C55 1.340 . S
C56 C57 1.439 . S
C56 H88 0.950 . S
C57 N53 1.374 . S
C57 C56 1.439 . S
C57 C82 1.395 . S
N58 Co47 1.995 1_655 S
N58 C59 1.376 . S
N58 C62 1.383 . S
C59 N58 1.376 . S
C59 C60 1.446 . S
C59 C82 1.391 . S
C60 C59 1.446 . S
C60 C61 1.339 . S
C60 H89 0.949 . S
C61 C60 1.339 . S
C61 C62 1.439 . S
C61 H90 0.950 . S
C62 N58 1.383 . S
C62 C61 1.439 . S
C62 C80 1.392 1_655 S
N63 Co47 2.282 . S
N63 C66 1.332 1_455 S
N63 C68 1.332 . S
C64 C65 1.386 1_455 S
C64 C67 1.388 . S
C65 C64 1.386 1_655 S
C65 C66 1.382 . S
C65 H91 0.950 . S
C66 N63 1.332 1_655 S
C66 C65 1.382 . S
C66 H77 0.952 . S
C67 C64 1.388 . S
C67 C68 1.382 . S
C67 H92 0.950 . S
C68 N63 1.332 . S
C68 C67 1.382 . S
C68 H78 0.948 . S
N69 Co47 2.282 . S
N69 C73 1.332 . S
N69 C74 1.332 1_455 S
C70 C71 1.388 1_655 S
C70 C74 1.382 . S
C70 H93 0.950 . S
C71 C70 1.388 1_455 S
C71 C72 1.386 . S
C72 C71 1.386 . S
C72 C73 1.382 . S
C72 H94 0.950 . S
C73 N69 1.332 . S
C73 C72 1.382 . S
C73 H75 0.952 . S
C74 N69 1.332 1_655 S
C74 C70 1.382 . S
C74 H76 0.948 . S
H75 C73 0.952 . S
H76 C74 0.948 . S
H77 C66 0.952 . S
H78 C68 0.948 . S
C79 C45 1.395 . S
C79 C49 1.391 . S
C80 C42 1.389 . S
C80 C62 1.392 1_455 S
C81 C52 1.392 . S
C81 C54 1.389 1_455 S
C82 C57 1.395 . S
C82 C59 1.391 . S
H83 C43 0.951 . S
H84 C44 0.950 . S
H85 C50 0.949 . S
H86 C51 0.950 . S
H87 C55 0.951 . S
H88 C56 0.950 . S
H89 C60 0.949 . S
H90 C61 0.950 . S
H91 C65 0.950 . S
H92 C67 0.950 . S
H93 C70 0.950 . S
H94 C72 0.950 . S
C95 C96 1.443 1_545 S
C95 N99 1.376 . S
C95 C133 1.389 . S
C96 C95 1.443 1_565 S
C96 C97 1.340 . S
C96 H136 0.951 . S
C97 C96 1.340 . S
C97 C98 1.439 . S
C97 H137 0.950 . S
C98 C97 1.439 . S
C98 N99 1.374 1_565 S
C98 C132 1.395 . S
N99 C95 1.376 . S
N99 C98 1.374 1_545 S
N99 Co100 2.008 . S
Co100 N99 2.008 . S
Co100 N101 1.995 . S
Co100 N106 2.008 . S
Co100 N111 1.995 . S
Co100 N116 2.282 . S
Co100 N122 2.282 . S
N101 Co100 1.995 . S
N101 C102 1.376 1_545 S
N101 C105 1.383 . S
C102 N101 1.376 1_565 S
C102 C103 1.446 . S
C102 C132 1.391 . S
C103 C102 1.446 . S
C103 C104 1.339 . S
C103 H138 0.949 . S
C104 C103 1.339 . S
C104 C105 1.439 1_565 S
C104 H139 0.950 . S
C105 N101 1.383 . S
C105 C104 1.439 1_545 S
C105 C134 1.392 . S
N106 Co100 2.008 . S
N106 C107 1.376 . S
N106 C110 1.374 . S
C107 N106 1.376 . S
C107 C108 1.443 . S
C107 C134 1.389 . S
C108 C107 1.443 . S
C108 C109 1.340 . S
C108 H140 0.951 . S
C109 C108 1.340 . S
C109 C110 1.439 . S
C109 H141 0.950 . S
C110 N106 1.374 . S
C110 C109 1.439 . S
C110 C135 1.395 . S
N111 Co100 1.995 . S
N111 C112 1.376 . S
N111 C115 1.383 . S
C112 N111 1.376 . S
C112 C113 1.446 . S
C112 C135 1.391 . S
C113 C112 1.446 . S
C113 C114 1.339 . S
C113 H142 0.949 . S
C114 C113 1.339 . S
C114 C115 1.439 . S
C114 H143 0.950 . S
C115 N111 1.383 . S
C115 C114 1.439 . S
C115 C133 1.392 . S
N116 Co100 2.282 . S
N116 C119 1.332 . S
N116 C121 1.332 . S
C117 C118 1.386 . S
C117 C120 1.388 . S
C118 C117 1.386 . S
C118 C119 1.382 . S
C118 H144 0.950 . S
C119 N116 1.332 . S
C119 C118 1.382 . S
C119 H130 0.952 . S
C120 C117 1.388 . S
C120 C121 1.382 . S
C120 H145 0.950 1_545 S
C121 N116 1.332 . S
C121 C120 1.382 . S
C121 H131 0.948 1_545 S
N122 Co100 2.282 . S
N122 C126 1.332 . S
N122 C127 1.332 . S
C123 C124 1.388 . S
C123 C127 1.382 . S
C123 H146 0.950 . S
C124 C123 1.388 . S
C124 C125 1.386 . S
C125 C124 1.386 . S
C125 C126 1.382 . S
C125 H147 0.950 1_545 S
C126 N122 1.332 . S
C126 C125 1.382 . S
C126 H128 0.952 1_545 S
C127 N122 1.332 . S
C127 C123 1.382 . S
C127 H129 0.948 . S
H128 C126 0.952 1_565 S
H129 C127 0.948 . S
H130 C119 0.952 . S
H131 C121 0.948 1_565 S
C132 C98 1.395 . S
C132 C102 1.391 . S
C133 C95 1.389 . S
C133 C115 1.392 . S
C134 C105 1.392 . S
C134 C107 1.389 . S
C135 C110 1.395 . S
C135 C112 1.391 . S
H136 C96 0.951 . S
H137 C97 0.950 . S
H138 C103 0.949 . S
H139 C104 0.950 . S
H140 C108 0.951 . S
H141 C109 0.950 . S
H142 C113 0.949 . S
H143 C114 0.950 . S
H144 C118 0.950 . S
H145 C120 0.950 1_565 S
H146 C123 0.950 . S
H147 C125 0.950 1_565 S
C148 C149 1.443 . S
C148 N152 1.376 . S
C148 C186 1.389 . S
C149 C148 1.443 . S
C149 C150 1.340 . S
C149 H189 0.951 . S
C150 C149 1.340 . S
C150 C151 1.439 . S
C150 H190 0.950 . S
C151 C150 1.439 . S
C151 N152 1.374 . S
C151 C185 1.395 . S
N152 C148 1.376 . S
N152 C151 1.374 . S
N152 Co153 2.008 . S
Co153 N152 2.008 . S
Co153 N154 1.995 . S
Co153 N159 2.008 . S
Co153 N164 1.995 . S
Co153 N169 2.282 . S
Co153 N175 2.282 . S
N154 Co153 1.995 . S
N154 C155 1.376 . S
N154 C158 1.383 . S
C155 N154 1.376 . S
C155 C156 1.446 . S
C155 C185 1.391 . S
C156 C155 1.446 . S
C156 C157 1.339 . S
C156 H191 0.949 . S
C157 C156 1.339 . S
C157 C158 1.439 . S
C157 H192 0.950 . S
C158 N154 1.383 . S
C158 C157 1.439 . S
C158 C187 1.392 . S
N159 Co153 2.008 . S
N159 C160 1.376 . S
N159 C163 1.374 . S
C160 N159 1.376 . S
C160 C161 1.443 . S
C160 C187 1.389 . S
C161 C160 1.443 . S
C161 C162 1.340 . S
C161 H193 0.951 . S
C162 C161 1.340 . S
C162 C163 1.439 . S
C162 H194 0.950 . S
C163 N159 1.374 . S
C163 C162 1.439 . S
C163 C188 1.395 . S
N164 Co153 1.995 . S
N164 C165 1.376 . S
N164 C168 1.383 . S
C165 N164 1.376 . S
C165 C166 1.446 . S
C165 C188 1.391 . S
C166 C165 1.446 . S
C166 C167 1.339 . S
C166 H195 0.949 . S
C167 C166 1.339 . S
C167 C168 1.439 . S
C167 H196 0.950 . S
C168 N164 1.383 . S
C168 C167 1.439 . S
C168 C186 1.392 . S
N169 Co153 2.282 . S
N169 C172 1.332 . S
N169 C174 1.332 . S
C170 C171 1.386 . S
C170 C173 1.388 . S
C171 C170 1.386 . S
C171 C172 1.382 . S
C171 H197 0.950 . S
C172 N169 1.332 . S
C172 C171 1.382 . S
C172 H183 0.952 . S
C173 C170 1.388 . S
C173 C174 1.382 . S
C173 H198 0.950 . S
C174 N169 1.332 . S
C174 C173 1.382 . S
C174 H184 0.948 . S
N175 Co153 2.282 . S
N175 C179 1.332 . S
N175 C180 1.332 . S
C176 C177 1.388 . S
C176 C180 1.382 . S
C176 H199 0.950 . S
C177 C176 1.388 . S
C177 C178 1.386 . S
C178 C177 1.386 . S
C178 C179 1.382 . S
C178 H200 0.950 . S
C179 N175 1.332 . S
C179 C178 1.382 . S
C179 H181 0.952 . S
C180 N175 1.332 . S
C180 C176 1.382 . S
C180 H182 0.948 . S
H181 C179 0.952 . S
H182 C180 0.948 . S
H183 C172 0.952 . S
H184 C174 0.948 . S
C185 C151 1.395 . S
C185 C155 1.391 . S
C186 C148 1.389 . S
C186 C168 1.392 . S
C187 C158 1.392 . S
C187 C160 1.389 . S
C188 C163 1.395 . S
C188 C165 1.391 . S
H189 C149 0.951 . S
H190 C150 0.950 . S
H191 C156 0.949 . S
H192 C157 0.950 . S
H193 C161 0.951 . S
H194 C162 0.950 . S
H195 C166 0.949 . S
H196 C167 0.950 . S
H197 C171 0.950 . S
H198 C173 0.950 . S
H199 C176 0.950 . S
H200 C178 0.950 . S
C201 C202 1.363 . S
C201 C207 1.376 1_455 S
C201 N209 1.356 1_455 S
C202 C201 1.363 . S
C202 C208 1.363 . S
C203 C204 1.363 . S
C203 C208 1.379 . S
C203 N210 1.356 . S
C204 C203 1.363 . S
C204 C207 1.362 1_455 S
N205 C207 1.361 . S
N205 H217 0.984 . S
N205 H218 0.985 . S
N206 C208 1.356 . S
N206 H211 0.984 . S
N206 H212 0.985 . S
C207 C201 1.376 1_655 S
C207 C204 1.362 1_655 S
C207 N205 1.361 . S
C208 C202 1.363 . S
C208 C203 1.379 . S
C208 N206 1.356 . S
N209 C201 1.356 1_655 S
N209 H215 0.984 . S
N209 H216 0.984 . S
N210 C203 1.356 . S
N210 H213 0.984 . S
N210 H214 0.985 . S
H211 N206 0.984 . S
H212 N206 0.985 . S
H213 N210 0.984 . S
H214 N210 0.985 . S
H215 N209 0.984 . S
H216 N209 0.984 . S
H217 N205 0.984 . S
H218 N205 0.985 . S
C219 C220 1.363 . S
C219 C225 1.379 . S
C219 N227 1.356 . S
C220 C219 1.363 . S
C220 C226 1.363 . S
C221 C222 1.363 . S
C221 C226 1.379 . S
C221 N228 1.356 . S
C222 C221 1.363 . S
C222 C225 1.363 . S
N223 C225 1.356 . S
N223 H235 0.984 . S
N223 H236 0.985 . S
N224 C226 1.356 1_565 S
N224 H229 0.984 1_565 S
N224 H230 0.985 . S
C225 C219 1.379 . S
C225 C222 1.363 . S
C225 N223 1.356 . S
C226 C220 1.363 . S
C226 C221 1.379 . S
C226 N224 1.356 1_545 S
N227 C219 1.356 . S
N227 H233 0.984 1_655 S
N227 H234 0.984 1_655 S
N228 C221 1.356 . S
N228 H231 0.984 . S
N228 H232 0.985 1_545 S
H229 N224 0.984 1_545 S
H230 N224 0.985 . S
H231 N228 0.984 . S
H232 N228 0.985 1_565 S
H233 N227 0.984 1_455 S
H234 N227 0.984 1_455 S
H235 N223 0.984 . S
H236 N223 0.985 . S
C237 C238 1.363 . S
C237 C243 1.379 . S
C237 N245 1.356 1_655 S
C238 C237 1.363 . S
C238 C244 1.363 . S
C239 C240 1.363 . S
C239 C244 1.379 . S
C239 N246 1.356 . S
C240 C239 1.363 . S
C240 C243 1.363 . S
N241 C243 1.356 . S
N241 H253 0.984 . S
N241 H254 0.985 . S
N242 C244 1.356 . S
N242 H247 0.984 . S
N242 H248 0.985 . S
C243 C237 1.379 . S
C243 C240 1.363 . S
C243 N241 1.356 . S
C244 C238 1.363 . S
C244 C239 1.379 . S
C244 N242 1.356 . S
N245 C237 1.356 1_455 S
N245 H251 0.984 . S
N245 H252 0.984 . S
N246 C239 1.356 . S
N246 H249 0.984 . S
N246 H250 0.985 . S
H247 N242 0.984 . S
H248 N242 0.985 . S
H249 N246 0.984 . S
H250 N246 0.985 . S
H251 N245 0.984 . S
H252 N245 0.984 . S
H253 N241 0.984 . S
H254 N241 0.985 . S
C255 C256 1.363 . S
C255 C261 1.379 . S
C255 N263 1.356 . S
C256 C255 1.363 . S
C256 C262 1.363 . S
C257 C258 1.363 . S
C257 C262 1.379 . S
C257 N264 1.356 . S
C258 C257 1.363 . S
C258 C261 1.363 . S
N259 C261 1.356 . S
N259 H271 0.984 . S
N259 H272 0.985 . S
N260 C262 1.356 . S
N260 H265 0.984 . S
N260 H266 0.985 . S
C261 C255 1.379 . S
C261 C258 1.363 . S
C261 N259 1.356 . S
C262 C256 1.363 . S
C262 C257 1.379 . S
C262 N260 1.356 . S
N263 C255 1.356 . S
N263 H269 0.984 . S
N263 H270 0.984 1_565 S
N264 C257 1.356 . S
N264 H267 0.984 . S
N264 H268 0.985 . S
H265 N260 0.984 . S
H266 N260 0.985 . S
H267 N264 0.984 . S
H268 N264 0.985 . S
H269 N263 0.984 . S
H270 N263 0.984 1_545 S
H271 N259 0.984 . S
H272 N259 0.985 . S
C273 C274 1.363 . S
C273 C279 1.379 . S
C273 N281 1.356 . S
C274 C273 1.363 . S
C274 C280 1.363 . S
C275 C276 1.363 . S
C275 C280 1.379 . S
C275 N282 1.356 . S
C276 C275 1.363 . S
C276 C279 1.363 . S
N277 C279 1.367 . S
N277 H289 0.977 1_545 S
N277 H290 0.981 . S
N278 C280 1.356 . S
N278 H283 0.984 . S
N278 H284 0.985 . S
C279 C273 1.379 . S
C279 C276 1.363 . S
C279 N277 1.367 . S
C280 C274 1.363 . S
C280 C275 1.379 . S
C280 N278 1.356 . S
N281 C273 1.356 . S
N281 H287 0.984 1_545 S
N281 H288 0.984 . S
N282 C275 1.356 . S
N282 H285 0.984 . S
N282 H286 0.985 . S
H283 N278 0.984 . S
H284 N278 0.985 . S
H285 N282 0.984 . S
H286 N282 0.985 . S
H287 N281 0.984 1_565 S
H288 N281 0.984 . S
H289 N277 0.977 1_565 S
H290 N277 0.981 . S
C291 C292 1.363 . S
C291 C297 1.379 . S
C291 N299 1.356 . S
C292 C291 1.363 . S
C292 C298 1.363 . S
C293 C294 1.363 . S
C293 C298 1.379 . S
C293 N300 1.356 . S
C294 C293 1.363 . S
C294 C297 1.363 . S
N295 C297 1.356 . S
N295 H307 0.984 . S
N295 H308 0.985 . S
N296 C298 1.356 . S
N296 H301 0.984 . S
N296 H302 0.985 . S
C297 C291 1.379 . S
C297 C294 1.363 . S
C297 N295 1.356 . S
C298 C292 1.363 . S
C298 C293 1.379 . S
C298 N296 1.356 . S
N299 C291 1.356 . S
N299 H305 0.984 . S
N299 H306 0.984 . S
N300 C293 1.356 . S
N300 H303 0.984 . S
N300 H304 0.985 . S
H301 N296 0.984 . S
H302 N296 0.985 . S
H303 N300 0.984 . S
H304 N300 0.985 . S
H305 N299 0.984 . S
H306 N299 0.984 . S
H307 N295 0.984 . S
H308 N295 0.985 . S
C309 C310 1.363 . S
C309 C315 1.379 . S
C309 N317 1.356 . S
C310 C309 1.363 . S
C310 C316 1.363 . S
C311 C312 1.363 . S
C311 C316 1.379 . S
C311 N318 1.356 1_545 S
C312 C311 1.363 . S
C312 C315 1.363 . S
N313 C315 1.356 . S
N313 H325 0.984 . S
N313 H326 0.985 . S
N314 C316 1.356 1_565 S
N314 H319 0.984 . S
N314 H320 0.985 . S
C315 C309 1.379 . S
C315 C312 1.363 . S
C315 N313 1.356 . S
C316 C310 1.363 . S
C316 C311 1.379 . S
C316 N314 1.356 1_545 S
N317 C309 1.356 . S
N317 H323 0.984 . S
N317 H324 0.984 . S
N318 C311 1.356 1_565 S
N318 H321 0.973 1_565 S
N318 H322 0.985 . S
H319 N314 0.984 . S
H320 N314 0.985 . S
H321 N318 0.973 1_545 S
H322 N318 0.985 . S
H323 N317 0.984 . S
H324 N317 0.984 . S
H325 N313 0.984 . S
H326 N313 0.985 . S
C327 C328 1.363 1_554 S
C327 C333 1.379 1_554 S
C327 N335 1.356 . S
C328 C327 1.363 1_556 S
C328 C334 1.363 . S
C329 C330 1.363 . S
C329 C334 1.379 . S
C329 N336 1.356 . S
C330 C329 1.363 . S
C330 C333 1.363 . S
N331 C333 1.356 . S
N331 H343 0.984 1_556 S
N331 H344 0.985 . S
N332 C334 1.356 1_445 S
N332 H337 0.984 . S
N332 H338 0.985 . S
C333 C327 1.379 1_556 S
C333 C330 1.363 . S
C333 N331 1.356 . S
C334 C328 1.363 . S
C334 C329 1.379 . S
C334 N332 1.356 1_665 S
N335 C327 1.356 . S
N335 H341 0.984 . S
N335 H342 0.984 . S
N336 C329 1.356 . S
N336 H339 0.984 . S
N336 H340 0.985 . S
H337 N332 0.984 . S
H338 N332 0.985 . S
H339 N336 0.984 . S
H340 N336 0.985 . S
H341 N335 0.984 . S
H342 N335 0.984 . S
H343 N331 0.984 1_554 S
H344 N331 0.985 . S
C345 C346 1.363 . S
C345 C351 1.379 . S
C345 N353 1.365 . S
C346 C345 1.363 . S
C346 C352 1.363 . S
C347 C348 1.363 . S
C347 C352 1.379 . S
C347 N354 1.356 . S
C348 C347 1.363 . S
C348 C351 1.363 . S
N349 C351 1.356 1_655 S
N349 H361 0.984 . S
N349 H362 0.985 . S
N350 C352 1.356 . S
N350 H355 0.984 . S
N350 H356 0.985 . S
C351 C345 1.379 . S
C351 C348 1.363 . S
C351 N349 1.356 1_455 S
C352 C346 1.363 . S
C352 C347 1.379 . S
C352 N350 1.356 . S
N353 C345 1.365 . S
N353 H359 0.981 1_465 S
N353 H360 0.979 1_565 S
N354 C347 1.356 . S
N354 H357 0.984 . S
N354 H358 0.985 . S
H355 N350 0.984 . S
H356 N350 0.985 . S
H357 N354 0.984 . S
H358 N354 0.985 . S
H359 N353 0.981 1_645 S
H360 N353 0.979 1_545 S
H361 N349 0.984 . S
H362 N349 0.985 . S
C363 C364 1.363 . S
C363 C369 1.379 . S
C363 N371 1.356 . S
C364 C363 1.363 . S
C364 C370 1.363 . S
C365 C366 1.363 . S
C365 C370 1.379 . S
C365 N372 1.356 1_545 S
C366 C365 1.363 . S
C366 C369 1.363 . S
N367 C369 1.356 . S
N367 H379 0.984 . S
N367 H380 0.985 . S
N368 C370 1.356 1_565 S
N368 H373 0.984 . S
N368 H374 0.985 . S
C369 C363 1.379 . S
C369 C366 1.363 . S
C369 N367 1.356 . S
C370 C364 1.363 . S
C370 C365 1.379 . S
C370 N368 1.356 1_545 S
N371 C363 1.356 . S
N371 H377 0.984 . S
N371 H378 0.984 . S
N372 C365 1.356 1_565 S
N372 H375 0.984 1_565 S
N372 H376 0.985 . S
H373 N368 0.984 . S
H374 N368 0.985 . S
H375 N372 0.984 1_545 S
H376 N372 0.985 . S
H377 N371 0.984 . S
H378 N371 0.984 . S
H379 N367 0.984 . S
H380 N367 0.985 . S
C381 C382 1.363 . S
C381 C387 1.379 . S
C381 N389 1.356 1_556 S
C382 C381 1.363 . S
C382 C388 1.363 . S
C383 C384 1.363 . S
C383 C388 1.379 . S
C383 N390 1.356 . S
C384 C383 1.363 . S
C384 C387 1.363 . S
N385 C387 1.356 . S
N385 H397 0.984 . S
N385 H398 0.985 . S
N386 C388 1.356 . S
N386 H391 0.984 . S
N386 H392 0.985 . S
C387 C381 1.379 . S
C387 C384 1.363 . S
C387 N385 1.356 . S
C388 C382 1.363 . S
C388 C383 1.379 . S
C388 N386 1.356 . S
N389 C381 1.356 1_554 S
N389 H395 0.984 . S
N389 H396 0.984 . S
N390 C383 1.356 . S
N390 H393 0.984 . S
N390 H394 0.985 . S
H391 N386 0.984 . S
H392 N386 0.985 . S
H393 N390 0.984 . S
H394 N390 0.985 . S
H395 N389 0.984 . S
H396 N389 0.984 . S
H397 N385 0.984 . S
H398 N385 0.985 . S
C399 C400 1.363 . S
C399 C405 1.379 . S
C399 N407 1.356 . S
C400 C399 1.363 . S
C400 C406 1.363 . S
C401 C402 1.363 . S
C401 C406 1.379 . S
C401 N408 1.356 . S
C402 C401 1.363 . S
C402 C405 1.363 . S
N403 C405 1.356 . S
N403 H415 0.984 . S
N403 H416 0.985 . S
N404 C406 1.356 . S
N404 H409 0.984 . S
N404 H410 0.985 . S
C405 C399 1.379 . S
C405 C402 1.363 . S
C405 N403 1.356 . S
C406 C400 1.363 . S
C406 C401 1.379 . S
C406 N404 1.356 . S
N407 C399 1.356 . S
N407 H413 0.984 . S
N407 H414 0.984 . S
N408 C401 1.356 . S
N408 H411 0.984 . S
N408 H412 0.985 1_455 S
H409 N404 0.984 . S
H410 N404 0.985 . S
H411 N408 0.984 . S
H412 N408 0.985 1_655 S
H413 N407 0.984 . S
H414 N407 0.984 . S
H415 N403 0.984 . S
H416 N403 0.985 . S
C204 C64 1.497 . S
C202 C3 1.497 . S
C220 C21 1.511 . S
C222 C134 1.526 . S
C238 C37 1.484 . S
C240 C186 1.505 . S
C256 C8 1.507 . S
C258 C80 1.503 . S
C276 C124 1.504 . S
C274 C23 1.485 . S
C292 C35 1.479 . S
C294 C170 1.500 . S
C312 C117 1.492 . S
C310 C31 1.490 . S
C328 C7 1.480 1_556 S
C330 C177 1.501 . S
C348 C71 1.498 . S
C346 C17 1.497 1_565 S
C366 C133 1.477 . S
C364 C36 1.480 . S
C384 C187 1.507 . S
C382 C9 1.484 1_556 S
C400 C22 1.508 . S
C402 C81 1.506 . S
