# Generated by pormake.
# Topology cml, (3,6)-cn, num edge types: 1
# Building blocks:
#     Node 0, Type 0, BuildingBlock: OLANEW_clean_sbu_2, # of connection points: 3
#     Node 1, Type 0, BuildingBlock: OLANEW_clean_sbu_2, # of connection points: 3
#     Node 2, Type 0, BuildingBlock: OLANEW_clean_sbu_2, # of connection points: 3
#     Node 3, Type 0, BuildingBlock: OLANEW_clean_sbu_2, # of connection points: 3
#     Node 4, Type 0, BuildingBlock: OLANEW_clean_sbu_2, # of connection points: 3
#     Node 5, Type 0, BuildingBlock: OLANEW_clean_sbu_2, # of connection points: 3
#     Node 6, Type 0, BuildingBlock: OLANEW_clean_sbu_2, # of connection points: 3
#     Node 7, Type 0, BuildingBlock: OLANEW_clean_sbu_2, # of connection points: 3
#     Node 8, Type 1, BuildingBlock: IZENUY_clean_sbu_0, # of connection points: 6
#     Node 9, Type 1, BuildingBlock: IZENUY_clean_sbu_0, # of connection points: 6
#     Node 10, Type 1, BuildingBlock: IZENUY_clean_sbu_0, # of connection points: 6
#     Node 11, Type 1, BuildingBlock: IZENUY_clean_sbu_0, # of connection points: 6
#     Edge 12, Type (0, 1), BuildingBlock: XIVTED_clean_linker_0, # of connection points: 2
#     Edge 13, Type (0, 1), BuildingBlock: XIVTED_clean_linker_0, # of connection points: 2
#     Edge 14, Type (0, 1), BuildingBlock: XIVTED_clean_linker_0, # of connection points: 2
#     Edge 15, Type (0, 1), BuildingBlock: XIVTED_clean_linker_0, # of connection points: 2
#     Edge 16, Type (0, 1), BuildingBlock: XIVTED_clean_linker_0, # of connection points: 2
#     Edge 17, Type (0, 1), BuildingBlock: XIVTED_clean_linker_0, # of connection points: 2
#     Edge 18, Type (0, 1), BuildingBlock: XIVTED_clean_linker_0, # of connection points: 2
#     Edge 19, Type (0, 1), BuildingBlock: XIVTED_clean_linker_0, # of connection points: 2
#     Edge 20, Type (0, 1), BuildingBlock: XIVTED_clean_linker_0, # of connection points: 2
#     Edge 21, Type (0, 1), BuildingBlock: XIVTED_clean_linker_0, # of connection points: 2
#     Edge 22, Type (0, 1), BuildingBlock: XIVTED_clean_linker_0, # of connection points: 2
#     Edge 23, Type (0, 1), BuildingBlock: XIVTED_clean_linker_0, # of connection points: 2
#     Edge 24, Type (0, 1), BuildingBlock: XIVTED_clean_linker_0, # of connection points: 2
#     Edge 25, Type (0, 1), BuildingBlock: XIVTED_clean_linker_0, # of connection points: 2
#     Edge 26, Type (0, 1), BuildingBlock: XIVTED_clean_linker_0, # of connection points: 2
#     Edge 27, Type (0, 1), BuildingBlock: XIVTED_clean_linker_0, # of connection points: 2
#     Edge 28, Type (0, 1), BuildingBlock: XIVTED_clean_linker_0, # of connection points: 2
#     Edge 29, Type (0, 1), BuildingBlock: XIVTED_clean_linker_0, # of connection points: 2
#     Edge 30, Type (0, 1), BuildingBlock: XIVTED_clean_linker_0, # of connection points: 2
#     Edge 31, Type (0, 1), BuildingBlock: XIVTED_clean_linker_0, # of connection points: 2
#     Edge 32, Type (0, 1), BuildingBlock: XIVTED_clean_linker_0, # of connection points: 2
#     Edge 33, Type (0, 1), BuildingBlock: XIVTED_clean_linker_0, # of connection points: 2
#     Edge 34, Type (0, 1), BuildingBlock: XIVTED_clean_linker_0, # of connection points: 2
#     Edge 35, Type (0, 1), BuildingBlock: XIVTED_clean_linker_0, # of connection points: 2
# Relax obj value: 0.016
# Max RMSD: 0.076
# Mean RMSD: 0.062
data_MOF--net-cml--node1-OLANEW_clean_sbu_2--node2-IZENUY_clean_sbu_0--edge1-XIVTED_clean_linker_0
_symmetry_space_group_name_H-M    P1
_symmetry_Int_Tables_number       1
_symmetry_cell_setting            triclinic
loop_
_symmetry_equiv_pos_as_xyz
'x, y, z'
_cell_length_a     39.453911
_cell_length_b     43.501801
_cell_length_c     39.644821
_cell_angle_alpha  88.351668
_cell_angle_beta   87.681443
_cell_angle_gamma 88.659874
loop_
_atom_site_label
_atom_site_type_symbol
_atom_site_fract_x
_atom_site_fract_y
_atom_site_fract_z
_atom_type_partial_charge
O0 O 0.27359 0.44322 0.91818 0.0
Cd1 Cd 0.22019 0.42043 0.94012 0.0
O2 O 0.29388 0.43439 0.96806 0.0
Cd3 Cd 0.32964 0.43195 0.00893 0.0
O4 O 0.35627 0.4196 0.05485 0.0
C5 C 0.34701 0.43163 0.08268 0.0
O6 O 0.32207 0.4522 0.08309 0.0
C7 C 0.29745 0.44617 0.9384 0.0
C8 C 0.19891 0.3641 0.91686 0.0
O9 O 0.19348 0.38931 0.90019 0.0
O10 O 0.21582 0.36525 0.94373 0.0
O11 O 0.7163 0.6373 0.53741 0.0
Cd12 Cd 0.73822 0.62575 0.48029 0.0
O13 O 0.75078 0.60413 0.5623 0.0
Cd14 Cd 0.76644 0.58438 0.51414 0.0
O15 O 0.7433 0.55225 0.48127 0.0
C16 C 0.72591 0.53211 0.49755 0.0
O17 O 0.72563 0.5318 0.53072 0.0
C18 C 0.72762 0.62491 0.56431 0.0
C19 C 0.78756 0.66657 0.45599 0.0
O20 O 0.75644 0.6707 0.44854 0.0
O21 O 0.79523 0.64328 0.47494 0.0
O22 O 0.72582 0.41074 0.96352 0.0
Cd23 Cd 0.75016 0.36865 0.99833 0.0
O24 O 0.73382 0.44392 0.00315 0.0
Cd25 Cd 0.74791 0.40934 0.04133 0.0
O26 O 0.7315 0.38819 0.08965 0.0
C27 C 0.73013 0.40583 0.11468 0.0
O28 O 0.74136 0.43393 0.11034 0.0
C29 C 0.72413 0.43824 0.9738 0.0
C30 C 0.79586 0.32808 0.96578 0.0
O31 O 0.76447 0.32147 0.97025 0.0
O32 O 0.80542 0.3541 0.9759 0.0
O33 O 0.28876 0.57999 0.4905 0.0
Cd34 Cd 0.25852 0.61978 0.52334 0.0
O35 O 0.2732 0.54321 0.52672 0.0
Cd36 Cd 0.25567 0.57611 0.56447 0.0
O37 O 0.28119 0.6011 0.60272 0.0
C38 C 0.3121 0.60579 0.59432 0.0
O39 O 0.32353 0.59738 0.56429 0.0
C40 C 0.28818 0.55155 0.49905 0.0
C41 C 0.21823 0.66079 0.48601 0.0
O42 O 0.20714 0.63453 0.49623 0.0
O43 O 0.24863 0.66746 0.49287 0.0
O44 O 0.75848 0.95494 0.9343 0.0
Cd45 Cd 0.70532 0.92997 0.9533 0.0
O46 O 0.78703 0.92894 0.97227 0.0
Cd47 Cd 0.82986 0.9193 0.00447 0.0
O48 O 0.85882 0.90783 0.04912 0.0
C49 C 0.85143 0.92231 0.07591 0.0
O50 O 0.82768 0.94398 0.07525 0.0
C51 C 0.78617 0.94954 0.94892 0.0
C52 C 0.68872 0.87274 0.92869 0.0
O53 O 0.68331 0.89772 0.91159 0.0
O54 O 0.70342 0.87459 0.95681 0.0
O55 O 0.20675 0.13743 0.54173 0.0
Cd56 Cd 0.23124 0.12691 0.48525 0.0
O57 O 0.24067 0.10428 0.56742 0.0
Cd58 Cd 0.25951 0.08589 0.51955 0.0
O59 O 0.24002 0.0532 0.48496 0.0
C60 C 0.22585 0.03041 0.49997 0.0
O61 O 0.22668 0.02801 0.53305 0.0
C62 C 0.21702 0.12463 0.56887 0.0
C63 C 0.28034 0.16864 0.46254 0.0
O64 O 0.24941 0.17229 0.45424 0.0
O65 O 0.28791 0.14549 0.48174 0.0
O66 O 0.22741 0.90882 0.96196 0.0
Cd67 Cd 0.25275 0.866 0.99494 0.0
O68 O 0.23881 0.94185 0.00073 0.0
Cd69 Cd 0.25514 0.90664 0.03727 0.0
O70 O 0.24013 0.88326 0.08476 0.0
C71 C 0.24047 0.89928 0.11102 0.0
O72 O 0.25275 0.92711 0.10826 0.0
C73 C 0.22693 0.93633 0.97224 0.0
C74 C 0.29842 0.82672 0.96047 0.0
O75 O 0.30785 0.8525 0.97138 0.0
O76 O 0.26714 0.81978 0.96506 0.0
O77 O 0.79623 0.08336 0.47448 0.0
Cd78 Cd 0.76682 0.12338 0.50771 0.0
O79 O 0.78523 0.0485 0.51449 0.0
Cd80 Cd 0.76808 0.08191 0.55186 0.0
O81 O 0.78541 0.10298 0.59722 0.0
C82 C 0.79098 0.08433 0.62172 0.0
O83 O 0.78305 0.05536 0.61888 0.0
C84 C 0.79758 0.0555 0.48521 0.0
C85 C 0.72223 0.16253 0.47305 0.0
O86 O 0.71287 0.13606 0.48445 0.0
O87 O 0.75292 0.17019 0.47726 0.0
Fe88 Fe 0.01553 0.82917 0.32511 0.0
Fe89 Fe 0.01038 0.85908 0.39438 0.0
O90 O 0.01429 0.86258 0.34981 0.0
Fe91 Fe 0.01706 0.89947 0.33005 0.0
O92 O 0.97945 0.8936 0.30659 0.0
O93 O 0.9944 0.84763 0.28899 0.0
O94 O 0.97381 0.81795 0.34165 0.0
C95 C 0.96664 0.81345 0.37269 0.0
C96 C 0.06484 0.86346 0.29259 0.0
O97 O 0.98486 0.82434 0.39485 0.0
C98 C 0.05736 0.90673 0.38352 0.0
O99 O 0.03717 0.80469 0.3567 0.0
O100 O 0.04967 0.83672 0.39602 0.0
O101 O 0.04527 0.88682 0.29513 0.0
O102 O 0.05731 0.83816 0.30703 0.0
C103 C 0.96731 0.90809 0.38265 0.0
O104 O 0.03536 0.89306 0.4022 0.0
O105 O 0.05501 0.90783 0.35195 0.0
C106 C 0.05522 0.81187 0.38092 0.0
O107 O 0.97081 0.88133 0.3954 0.0
O108 O 0.98935 0.91874 0.36161 0.0
C109 C 0.97618 0.87193 0.28663 0.0
Fe110 Fe 0.0192 0.13577 0.88101 0.0
Fe111 Fe 0.01992 0.09793 0.81645 0.0
O112 O 0.01766 0.13391 0.83645 0.0
Fe113 Fe 0.01395 0.1682 0.81128 0.0
O114 O 0.05369 0.18191 0.82549 0.0
O115 O 0.04367 0.17162 0.87975 0.0
O116 O 0.05981 0.11494 0.88181 0.0
C117 C 0.06623 0.08921 0.86879 0.0
C118 C 0.97209 0.18168 0.86885 0.0
O119 O 0.04729 0.07891 0.84704 0.0
C120 C 0.96972 0.13136 0.78128 0.0
O121 O 0.99488 0.10044 0.8896 0.0
O122 O 0.98223 0.08468 0.83925 0.0
O123 O 0.98984 0.19021 0.84321 0.0
O124 O 0.97869 0.1566 0.88415 0.0
C125 C 0.06007 0.13178 0.77261 0.0
O126 O 0.99231 0.11021 0.78224 0.0
O127 O 0.97369 0.15644 0.7957 0.0
C128 C 0.97711 0.08459 0.87085 0.0
O129 O 0.05818 0.10862 0.79238 0.0
O130 O 0.03774 0.15308 0.77435 0.0
C131 C 0.06049 0.18534 0.85598 0.0
Fe132 Fe 0.50768 0.33191 0.33088 0.0
Fe133 Fe 0.50429 0.36022 0.40098 0.0
O134 O 0.50697 0.36473 0.35645 0.0
Fe135 Fe 0.50909 0.40202 0.33765 0.0
O136 O 0.47087 0.39659 0.31502 0.0
O137 O 0.48548 0.3511 0.29581 0.0
O138 O 0.46642 0.32021 0.34821 0.0
C139 C 0.4601 0.31501 0.37929 0.0
C140 C 0.55596 0.367 0.29785 0.0
O141 O 0.47904 0.3253 0.4012 0.0
C142 C 0.55071 0.4083 0.39026 0.0
O143 O 0.53037 0.30686 0.36124 0.0
O144 O 0.54383 0.33817 0.4009 0.0
O145 O 0.53647 0.39029 0.30165 0.0
O146 O 0.54892 0.34144 0.31194 0.0
C147 C 0.46055 0.40913 0.39164 0.0
O148 O 0.52918 0.39419 0.40908 0.0
O149 O 0.54762 0.40999 0.35878 0.0
C150 C 0.54926 0.31378 0.38491 0.0
O151 O 0.46455 0.38213 0.40358 0.0
O152 O 0.48207 0.42041 0.37044 0.0
C153 C 0.4672 0.37544 0.29451 0.0
Fe154 Fe 0.52392 0.6385 0.87287 0.0
Fe155 Fe 0.5292 0.60414 0.80612 0.0
O156 O 0.52538 0.63897 0.8281 0.0
Fe157 Fe 0.52299 0.67425 0.80483 0.0
O158 O 0.56115 0.68746 0.82284 0.0
O159 O 0.54742 0.67468 0.87575 0.0
O160 O 0.56471 0.61821 0.87479 0.0
C161 C 0.57175 0.59287 0.86116 0.0
C162 C 0.477 0.68444 0.86038 0.0
O163 O 0.55392 0.58344 0.83796 0.0
C164 C 0.48274 0.63951 0.76783 0.0
O165 O 0.50012 0.60234 0.87745 0.0
O166 O 0.48969 0.59063 0.8252 0.0
O167 O 0.49614 0.69431 0.83633 0.0
O168 O 0.48297 0.65871 0.87463 0.0
C169 C 0.57225 0.63964 0.76735 0.0
O170 O 0.50495 0.61815 0.77002 0.0
O171 O 0.48433 0.66312 0.78537 0.0
C172 C 0.483 0.58813 0.85655 0.0
O173 O 0.56913 0.61563 0.78573 0.0
O174 O 0.54994 0.66103 0.76893 0.0
C175 C 0.56553 0.68971 0.854 0.0
H176 H 0.19203 0.31028 0.95404 0.0
H177 H 0.09246 0.22618 0.81224 0.0
H178 H 0.17104 0.35175 0.8567 0.0
H179 H 0.08553 0.19846 0.91773 0.0
H180 H 0.12997 0.26739 0.82598 0.0
H181 H 0.16179 0.26442 0.93872 0.0
C182 C 0.18146 0.3096 0.92928 0.0
C183 C 0.18395 0.33498 0.90666 0.0
C184 C 0.12037 0.25221 0.84611 0.0
C185 C 0.14936 0.28259 0.88904 0.0
C186 C 0.09899 0.22855 0.8383 0.0
C187 C 0.08547 0.20887 0.86392 0.0
C188 C 0.12869 0.25621 0.87975 0.0
C189 C 0.09508 0.21317 0.89718 0.0
C190 C 0.16404 0.28349 0.92067 0.0
C191 C 0.16961 0.33283 0.875 0.0
N192 N 0.11604 0.23641 0.90415 0.0
N193 N 0.15292 0.30715 0.86716 0.0
H194 H 0.85151 0.67219 0.47853 0.0
H195 H 0.91288 0.79462 0.33683 0.0
H196 H 0.78373 0.70968 0.40429 0.0
H197 H 0.95852 0.78354 0.43372 0.0
H198 H 0.86858 0.75871 0.35647 0.0
H199 H 0.89481 0.70796 0.45748 0.0
C200 C 0.84576 0.6879 0.45774 0.0
C201 C 0.81394 0.68804 0.44321 0.0
C202 C 0.88832 0.76428 0.37334 0.0
C203 C 0.8635 0.72885 0.41883 0.0
C204 C 0.91362 0.78463 0.36214 0.0
C205 C 0.9394 0.79212 0.38367 0.0
C206 C 0.88927 0.75097 0.40602 0.0
C207 C 0.93907 0.77859 0.41628 0.0
C208 C 0.87044 0.70838 0.44582 0.0
C209 C 0.80789 0.70895 0.41633 0.0
N210 N 0.91458 0.75856 0.42635 0.0
N211 N 0.83253 0.72845 0.40486 0.0
H212 H 0.78887 0.26617 0.95778 0.0
H213 H 0.96579 0.24351 0.85657 0.0
H214 H 0.85933 0.33967 0.93887 0.0
H215 H 0.9179 0.16857 0.91242 0.0
H216 H 0.92231 0.27883 0.87942 0.0
H217 H 0.83136 0.22981 0.93412 0.0
C218 C 0.81317 0.27469 0.94846 0.0
C219 C 0.8206 0.306 0.9503 0.0
C220 C 0.92132 0.25467 0.8867 0.0
C221 C 0.86905 0.26463 0.92309 0.0
C222 C 0.94604 0.23443 0.87357 0.0
C223 C 0.94554 0.203 0.88266 0.0
C224 C 0.89547 0.24343 0.9087 0.0
C225 C 0.91936 0.19264 0.90491 0.0
C226 C 0.83742 0.25391 0.93517 0.0
C227 C 0.85256 0.31574 0.93804 0.0
N228 N 0.8952 0.2128 0.91704 0.0
N229 N 0.87552 0.29517 0.92479 0.0
H230 H 0.22771 0.72243 0.47469 0.0
H231 H 0.06058 0.75006 0.36974 0.0
H232 H 0.15837 0.65006 0.45626 0.0
H233 H 0.10769 0.82255 0.42192 0.0
H234 H 0.10161 0.7131 0.3933 0.0
H235 H 0.18921 0.75946 0.44728 0.0
C236 C 0.20453 0.71429 0.46466 0.0
C237 C 0.19617 0.68312 0.46787 0.0
C238 C 0.10296 0.73711 0.39951 0.0
C239 C 0.15219 0.72532 0.43637 0.0
C240 C 0.07966 0.75824 0.38599 0.0
C241 C 0.08059 0.78943 0.39402 0.0
C242 C 0.12772 0.74728 0.4208 0.0
C243 C 0.10587 0.79869 0.41527 0.0
C244 C 0.18253 0.73545 0.44918 0.0
C245 C 0.16573 0.67389 0.45448 0.0
N246 N 0.12849 0.77772 0.42785 0.0
N247 N 0.14488 0.69488 0.43924 0.0
H248 H 0.68019 0.819 0.96574 0.0
H249 H 0.60164 0.7306 0.81398 0.0
H250 H 0.66809 0.85896 0.86595 0.0
H251 H 0.58264 0.70361 0.91861 0.0
H252 H 0.63565 0.77276 0.83174 0.0
H253 H 0.65391 0.77192 0.94773 0.0
C254 C 0.67243 0.81774 0.93993 0.0
C255 C 0.67622 0.84303 0.91733 0.0
C256 C 0.62419 0.75754 0.85083 0.0
C257 C 0.64625 0.78927 0.89664 0.0
C258 C 0.60478 0.73332 0.84074 0.0
C259 C 0.58884 0.71357 0.86485 0.0
C260 C 0.62808 0.7621 0.88532 0.0
C261 C 0.59419 0.71834 0.89913 0.0
C262 C 0.65727 0.79094 0.92976 0.0
C263 C 0.66553 0.84013 0.88426 0.0
N264 N 0.61327 0.7422 0.90836 0.0
N265 N 0.65104 0.81379 0.87495 0.0
H266 H 0.34386 0.17481 0.48606 0.0
H267 H 0.40573 0.2968 0.34394 0.0
H268 H 0.27687 0.21172 0.4108 0.0
H269 H 0.45237 0.28478 0.44024 0.0
H270 H 0.36123 0.26125 0.36383 0.0
H271 H 0.38729 0.21055 0.46524 0.0
C272 C 0.3383 0.19042 0.46512 0.0
C273 C 0.30667 0.19036 0.4502 0.0
C274 C 0.38122 0.26653 0.38053 0.0
C275 C 0.35639 0.23114 0.42606 0.0
C276 C 0.40665 0.28667 0.36918 0.0
C277 C 0.4328 0.29379 0.39045 0.0
C278 C 0.38235 0.25307 0.41313 0.0
C279 C 0.43267 0.2801 0.42298 0.0
C280 C 0.36306 0.21087 0.45332 0.0
C281 C 0.30086 0.21113 0.42315 0.0
N282 N 0.408 0.26029 0.43321 0.0
N283 N 0.32557 0.23061 0.41179 0.0
H284 H 0.2918 0.7651 0.95018 0.0
H285 H 0.46991 0.74645 0.84979 0.0
H286 H 0.36165 0.83942 0.93373 0.0
H287 H 0.42173 0.6696 0.90191 0.0
H288 H 0.42563 0.78072 0.87295 0.0
H289 H 0.33454 0.72969 0.92521 0.0
C290 C 0.31601 0.77401 0.9411 0.0
C291 C 0.32321 0.80527 0.94405 0.0
C292 C 0.42472 0.75636 0.87932 0.0
C293 C 0.37194 0.76498 0.91537 0.0
C294 C 0.44992 0.73671 0.866 0.0
C295 C 0.44962 0.70505 0.874 0.0
C296 C 0.39862 0.74434 0.90045 0.0
C297 C 0.42306 0.69387 0.89525 0.0
C298 C 0.3404 0.75376 0.92707 0.0
C299 C 0.35506 0.81551 0.93206 0.0
N300 N 0.39849 0.71349 0.90766 0.0
N301 N 0.37816 0.79546 0.91812 0.0
H302 H 0.66033 0.14987 0.44844 0.0
H303 H 0.60389 0.32531 0.42254 0.0
H304 H 0.72842 0.22448 0.46135 0.0
H305 H 0.55547 0.25211 0.37277 0.0
H306 H 0.64725 0.28839 0.44173 0.0
H307 H 0.619 0.18667 0.42495 0.0
C308 C 0.66665 0.17396 0.44619 0.0
C309 C 0.69786 0.18413 0.45689 0.0
C310 C 0.62721 0.28046 0.42648 0.0
C311 C 0.65055 0.22633 0.43051 0.0
C312 C 0.60237 0.30147 0.41567 0.0
C313 C 0.57597 0.29175 0.3961 0.0
C314 C 0.62536 0.24941 0.41818 0.0
C315 C 0.5754 0.26061 0.38775 0.0
C316 C 0.6431 0.19491 0.43272 0.0
C317 C 0.70472 0.21561 0.45333 0.0
N318 N 0.59956 0.24048 0.39909 0.0
N319 N 0.68112 0.23564 0.44076 0.0
H320 H 0.33961 0.47828 0.97767 0.0
H321 H 0.44328 0.55258 0.81894 0.0
H322 H 0.32289 0.45696 0.87417 0.0
H323 H 0.46222 0.57353 0.92222 0.0
H324 H 0.40031 0.51642 0.83914 0.0
H325 H 0.38619 0.51128 0.95843 0.0
C326 C 0.34628 0.47981 0.95098 0.0
C327 C 0.32771 0.46419 0.92759 0.0
C328 C 0.41386 0.52885 0.85744 0.0
C329 C 0.38034 0.50304 0.9052 0.0
C330 C 0.43846 0.54961 0.84592 0.0
C331 C 0.45654 0.56625 0.86888 0.0
C332 C 0.40701 0.52456 0.89228 0.0
C333 C 0.44898 0.56128 0.90354 0.0
C334 C 0.37262 0.49909 0.93994 0.0
C335 C 0.3366 0.46839 0.89314 0.0
N336 N 0.42479 0.54093 0.91416 0.0
N337 N 0.36218 0.48739 0.88302 0.0
H338 H 0.71512 0.52967 0.42957 0.0
H339 H 0.56645 0.40828 0.45679 0.0
H340 H 0.6857 0.4874 0.52588 0.0
H341 H 0.59816 0.44576 0.3588 0.0
H342 H 0.61145 0.43615 0.48198 0.0
H343 H 0.67423 0.49784 0.40249 0.0
C344 C 0.7003 0.51353 0.44497 0.0
C345 C 0.7037 0.51134 0.48008 0.0
C346 C 0.60865 0.43827 0.45495 0.0
C347 C 0.65678 0.47506 0.44934 0.0
C348 C 0.58285 0.4224 0.44054 0.0
C349 C 0.5783 0.42486 0.40564 0.0
C350 C 0.63011 0.45687 0.4344 0.0
C351 C 0.60059 0.44332 0.38585 0.0
C352 C 0.67692 0.49542 0.42951 0.0
C353 C 0.68385 0.49002 0.49877 0.0
N354 N 0.62544 0.45873 0.40054 0.0
N355 N 0.66115 0.47288 0.48321 0.0
H356 H 0.71646 0.49914 0.98882 0.0
H357 H 0.59403 0.53755 0.83667 0.0
H358 H 0.69415 0.43441 0.91266 0.0
H359 H 0.61114 0.60063 0.91606 0.0
H360 H 0.63544 0.50174 0.86078 0.0
H361 H 0.68336 0.53856 0.95897 0.0
C362 C 0.70494 0.49325 0.9656 0.0
C363 C 0.70791 0.46323 0.95342 0.0
C364 C 0.63031 0.52346 0.87287 0.0
C365 C 0.66963 0.50842 0.91918 0.0
C366 C 0.60659 0.54399 0.85913 0.0
C367 C 0.59872 0.57211 0.87455 0.0
C368 C 0.64643 0.53093 0.90236 0.0
C369 C 0.61618 0.57918 0.90342 0.0
C370 C 0.68593 0.51582 0.94861 0.0
C371 C 0.69247 0.45713 0.9231 0.0
N372 N 0.63903 0.55864 0.91651 0.0
N373 N 0.67379 0.47944 0.9072 0.0
H374 H 0.29454 0.48936 0.51133 0.0
H375 H 0.44385 0.46788 0.37092 0.0
H376 H 0.32781 0.56149 0.44146 0.0
H377 H 0.41206 0.39568 0.44144 0.0
H378 H 0.39827 0.50106 0.39345 0.0
H379 H 0.33354 0.45334 0.48265 0.0
C380 C 0.30971 0.49758 0.48969 0.0
C381 C 0.30804 0.52863 0.47899 0.0
C382 C 0.40114 0.47793 0.40395 0.0
C383 C 0.35308 0.48746 0.44622 0.0
C384 C 0.42727 0.45894 0.39114 0.0
C385 C 0.4321 0.42898 0.40453 0.0
C386 C 0.37957 0.46702 0.43045 0.0
C387 C 0.4095 0.41866 0.43049 0.0
C388 C 0.33209 0.47697 0.47339 0.0
C389 C 0.32831 0.53785 0.45073 0.0
N390 N 0.38436 0.43771 0.44272 0.0
N391 N 0.35017 0.51743 0.43554 0.0
H392 H 0.85277 0.93092 0.94071 0.0
H393 H 0.92991 0.09731 0.92121 0.0
H394 H 0.78705 0.01144 0.93746 0.0
H395 H 0.96494 0.02554 0.85469 0.0
H396 H 0.88387 0.06382 0.94283 0.0
H397 H 0.90133 0.96348 0.92405 0.0
C398 C 0.84868 0.95546 0.93684 0.0
C399 C 0.81597 0.96859 0.94027 0.0
C400 C 0.90193 0.05544 0.92374 0.0
C401 C 0.87107 0.00572 0.92223 0.0
C402 C 0.92817 0.07436 0.91158 0.0
C403 C 0.95104 0.0641 0.88612 0.0
C404 C 0.89935 0.0258 0.91108 0.0
C405 C 0.94761 0.03429 0.87421 0.0
C406 C 0.87624 0.9739 0.92727 0.0
C407 C 0.81189 1.00046 0.93479 0.0
N408 N 0.92237 0.01605 0.88697 0.0
N409 N 0.83918 0.01803 0.92632 0.0
H410 H 0.19154 0.98071 0.52561 0.0
H411 H 0.10417 0.94522 0.35266 0.0
H412 H 0.21299 0.03145 0.43227 0.0
H413 H 0.07319 0.90591 0.45003 0.0
H414 H 0.14846 0.97306 0.37968 0.0
H415 H 0.15301 0.94873 0.49634 0.0
C416 C 0.18837 0.98499 0.49886 0.0
C417 C 0.20533 0.00899 0.48143 0.0
C418 C 0.13197 0.95829 0.39507 0.0
C419 C 0.16094 0.97245 0.44773 0.0
C420 C 0.10667 0.9424 0.37969 0.0
C421 C 0.08469 0.9234 0.39916 0.0
C422 C 0.13546 0.955 0.4301 0.0
C423 C 0.0893 0.9205 0.43403 0.0
C424 C 0.16624 0.96674 0.48217 0.0
C425 C 0.20032 0.01329 0.44672 0.0
N426 N 0.11411 0.93615 0.44835 0.0
N427 N 0.17839 0.9953 0.43103 0.0
H428 H 0.21885 0.9969 0.98876 0.0
H429 H 0.08944 0.03501 0.84249 0.0
H430 H 0.19454 0.93305 0.9124 0.0
H431 H 0.10756 0.09737 0.9223 0.0
H432 H 0.13282 1.0 0.86425 0.0
H433 H 0.18367 0.03625 0.9611 0.0
C434 C 0.20647 0.99121 0.96593 0.0
C435 C 0.20949 0.96144 0.95307 0.0
C436 C 0.12749 0.02138 0.87697 0.0
C437 C 0.16889 0.00651 0.92139 0.0
C438 C 0.10262 0.04146 0.86458 0.0
C439 C 0.09445 0.06912 0.88082 0.0
C440 C 0.14447 0.0288 0.90595 0.0
C441 C 0.11281 0.07625 0.90908 0.0
C442 C 0.18628 0.01373 0.95021 0.0
C443 C 0.19288 0.95557 0.92335 0.0
N444 N 0.13679 0.0561 0.92091 0.0
N445 N 0.17312 0.97781 0.9087 0.0
H446 H 0.80356 0.99378 0.50004 0.0
H447 H 0.95115 0.96623 0.35944 0.0
H448 H 0.83584 0.06306 0.42621 0.0
H449 H 0.91839 0.89654 0.43261 0.0
H450 H 0.9059 1.00053 0.38058 0.0
H451 H 0.84158 0.95645 0.47232 0.0
C452 C 0.81832 1.00109 0.47773 0.0
C453 C 0.81668 0.03175 0.46564 0.0
C454 C 0.90848 0.9777 0.39194 0.0
C455 C 0.86065 0.98903 0.43393 0.0
C456 C 0.93441 0.95807 0.37993 0.0
C457 C 0.9389 0.9285 0.3945 0.0
C458 C 0.88678 0.96783 0.41883 0.0
C459 C 0.91611 0.91918 0.42075 0.0
C460 C 0.84013 0.97973 0.46196 0.0
C461 C 0.83633 0.03975 0.43653 0.0
N462 N 0.8912 0.93885 0.4322 0.0
N463 N 0.85774 0.01861 0.42189 0.0
H464 H 0.394 0.38511 0.09223 0.0
H465 H 0.42116 0.4228 0.2852 0.0
H466 H 0.33734 0.45612 0.14533 0.0
H467 H 0.46408 0.34225 0.23698 0.0
H468 H 0.39018 0.43542 0.23433 0.0
H469 H 0.42055 0.36953 0.14485 0.0
C470 C 0.38715 0.39746 0.11494 0.0
C471 C 0.36346 0.42204 0.11432 0.0
C472 C 0.40617 0.41486 0.23497 0.0
C473 C 0.39378 0.40427 0.1747 0.0
C474 C 0.42387 0.40761 0.26403 0.0
C475 C 0.44546 0.3815 0.26533 0.0
C476 C 0.41027 0.39604 0.20683 0.0
C477 C 0.4478 0.36262 0.23715 0.0
C478 C 0.40222 0.38846 0.14502 0.0
C479 C 0.35548 0.43707 0.14459 0.0
N480 N 0.43068 0.37041 0.20896 0.0
N481 N 0.37071 0.42804 0.1735 0.0
H482 H 0.73728 0.59553 0.62538 0.0
H483 H 0.58152 0.68419 0.71789 0.0
H484 H 0.67961 0.66969 0.57883 0.0
H485 H 0.62507 0.59852 0.75549 0.0
H486 H 0.62387 0.68446 0.67133 0.0
H487 H 0.70331 0.60209 0.6777 0.0
C488 C 0.71785 0.61353 0.62628 0.0
C489 C 0.71106 0.63189 0.5975 0.0
C490 C 0.62429 0.66569 0.68987 0.0
C491 C 0.67196 0.63933 0.65731 0.0
C492 C 0.60011 0.6655 0.71652 0.0
C493 C 0.59942 0.64107 0.74047 0.0
C494 C 0.64813 0.64135 0.68713 0.0
C495 C 0.62438 0.61765 0.73744 0.0
C496 C 0.69835 0.61713 0.65614 0.0
C497 C 0.68557 0.65484 0.60025 0.0
N498 N 0.64761 0.61829 0.71114 0.0
N499 N 0.66678 0.65775 0.62953 0.0
H500 H 0.71778 0.44041 0.1704 0.0
H501 H 0.59117 0.32134 0.26363 0.0
H502 H 0.69912 0.35109 0.13106 0.0
H503 H 0.58928 0.41913 0.27941 0.0
H504 H 0.63893 0.32813 0.22248 0.0
H505 H 0.67967 0.42862 0.21871 0.0
C506 C 0.70602 0.41814 0.17209 0.0
C507 C 0.71128 0.39688 0.14635 0.0
C508 C 0.62811 0.348 0.23518 0.0
C509 C 0.6674 0.38333 0.20164 0.0
C510 C 0.60097 0.34415 0.25865 0.0
C511 C 0.586 0.36978 0.27458 0.0
C512 C 0.64059 0.37759 0.22815 0.0
C513 C 0.59972 0.3988 0.26732 0.0
C514 C 0.68414 0.41148 0.19966 0.0
C515 C 0.69552 0.36828 0.15016 0.0
N516 N 0.62616 0.4019 0.24464 0.0
N517 N 0.67401 0.36242 0.17716 0.0
H518 H 0.29819 0.62712 0.65837 0.0
H519 H 0.48917 0.60866 0.70931 0.0
H520 H 0.38081 0.60866 0.5865 0.0
H521 H 0.4193 0.66707 0.7661 0.0
H522 H 0.44738 0.60471 0.6662 0.0
H523 H 0.3398 0.63925 0.70029 0.0
C524 C 0.32498 0.62592 0.65129 0.0
C525 C 0.33605 0.61659 0.61896 0.0
C526 C 0.4412 0.61857 0.68796 0.0
C527 C 0.38345 0.62997 0.66672 0.0
C528 C 0.46497 0.62069 0.71269 0.0
C529 C 0.45763 0.63818 0.74134 0.0
C530 C 0.40948 0.63354 0.69208 0.0
C531 C 0.42593 0.65345 0.74427 0.0
C532 C 0.34864 0.6329 0.67517 0.0
C533 C 0.37105 0.61555 0.61112 0.0
N534 N 0.40275 0.6505 0.72007 0.0
N535 N 0.39345 0.62175 0.63493 0.0
H536 H 0.84467 0.95146 0.13614 0.0
H537 H 0.97162 0.83555 0.23169 0.0
H538 H 0.89692 0.87503 0.0882 0.0
H539 H 0.932 0.9201 0.27396 0.0
H540 H 0.93996 0.84684 0.18094 0.0
H541 H 0.87262 0.93782 0.18852 0.0
C542 C 0.86203 0.9318 0.1366 0.0
C543 C 0.86854 0.91442 0.10767 0.0
C544 C 0.9381 0.86285 0.20138 0.0
C545 C 0.9005 0.89858 0.1677 0.0
C546 C 0.95605 0.85636 0.23047 0.0
C547 C 0.95469 0.87701 0.2571 0.0
C548 C 0.91847 0.89011 0.19892 0.0
C549 C 0.93403 0.9036 0.254 0.0
C550 C 0.87798 0.92403 0.16655 0.0
C551 C 0.89124 0.88916 0.10983 0.0
N552 N 0.91684 0.90942 0.22541 0.0
N553 N 0.90638 0.88199 0.13933 0.0
H554 H 0.16735 0.16822 0.58237 0.0
H555 H 0.11379 0.09153 0.76137 0.0
H556 H 0.22439 0.09403 0.62961 0.0
H557 H 0.06666 0.17444 0.72079 0.0
H558 H 0.15572 0.09296 0.71421 0.0
H559 H 0.13187 0.17237 0.63403 0.0
C560 C 0.17273 0.15307 0.60374 0.0
C561 C 0.19876 0.13059 0.60151 0.0
C562 C 0.13631 0.11093 0.71575 0.0
C563 C 0.15786 0.13491 0.66063 0.0
C564 C 0.11227 0.11006 0.74261 0.0
C565 C 0.08643 0.13273 0.74492 0.0
C566 C 0.13439 0.13452 0.69088 0.0
C567 C 0.08595 0.15634 0.71999 0.0
C568 C 0.15239 0.1554 0.63324 0.0
C569 C 0.20456 0.11165 0.6301 0.0
N570 N 0.10938 0.15649 0.69393 0.0
N571 N 0.18402 0.114 0.65832 0.0
H572 H 0.20782 0.84484 0.1246 0.0
H573 H 0.10099 0.91465 0.27813 0.0
H574 H 0.23023 0.93117 0.16898 0.0
H575 H 0.09875 0.81804 0.2568 0.0
H576 H 0.14931 0.92027 0.23844 0.0
H577 H 0.16947 0.83308 0.17318 0.0
C578 C 0.20512 0.8611 0.14477 0.0
C579 C 0.22189 0.88927 0.14246 0.0
C580 C 0.13855 0.89773 0.24259 0.0
C581 C 0.17784 0.87608 0.19776 0.0
C582 C 0.11081 0.89456 0.2651 0.0
C583 C 0.09565 0.86592 0.27042 0.0
C584 C 0.15097 0.87219 0.22469 0.0
C585 C 0.10969 0.84055 0.25327 0.0
C586 C 0.18323 0.85435 0.17248 0.0
C587 C 0.21757 0.90935 0.16943 0.0
N588 N 0.13633 0.84437 0.23071 0.0
N589 N 0.19561 0.90257 0.19568 0.0
H590 H 0.81148 0.04838 0.67493 0.0
H591 H 0.92713 0.17512 0.75272 0.0
H592 H 0.8164 0.14124 0.63378 0.0
H593 H 0.94357 0.07703 0.76452 0.0
H594 H 0.87865 0.16563 0.71753 0.0
H595 H 0.8512 0.06156 0.71742 0.0
C596 C 0.82057 0.07168 0.67505 0.0
C597 C 0.81094 0.09361 0.65041 0.0
C598 C 0.89288 0.14628 0.72802 0.0
C599 C 0.85667 0.1088 0.69904 0.0
C600 C 0.92043 0.15166 0.74808 0.0
C601 C 0.93962 0.12681 0.76117 0.0
C602 C 0.88422 0.11589 0.72168 0.0
C603 C 0.9298 0.09687 0.75452 0.0
C604 C 0.84338 0.07914 0.69926 0.0
C605 C 0.8234 0.12352 0.6521 0.0
N606 N 0.90283 0.09227 0.7353 0.0
N607 N 0.84589 0.13021 0.67585 0.0
loop_
_geom_bond_atom_site_label_1
_geom_bond_atom_site_label_2
_geom_bond_distance
_geom_bond_site_symmetry_2
_ccdc_geom_bond_type
O0 Cd1 2.300 . S
O0 C7 1.275 . S
Cd1 O0 2.300 . S
Cd1 O9 2.381 . S
Cd1 O10 2.378 . S
O2 Cd3 2.385 1_556 S
O2 C7 1.255 . S
Cd3 O2 2.385 1_554 S
Cd3 O4 2.317 . S
O4 Cd3 2.317 . S
O4 C5 1.232 . S
C5 O4 1.232 . S
C5 O6 1.218 . S
O6 C5 1.218 . S
C7 O0 1.275 . S
C7 O2 1.255 . S
C8 O9 1.258 . S
C8 O10 1.256 . S
O9 Cd1 2.381 . S
O9 C8 1.258 . S
O10 Cd1 2.378 . S
O10 C8 1.256 . S
O11 Cd12 2.300 . S
O11 C18 1.275 . S
Cd12 O11 2.300 . S
Cd12 O20 2.381 . S
Cd12 O21 2.378 . S
O13 Cd14 2.385 . S
O13 C18 1.255 . S
Cd14 O13 2.385 . S
Cd14 O15 2.317 . S
O15 Cd14 2.317 . S
O15 C16 1.232 . S
C16 O15 1.232 . S
C16 O17 1.218 . S
O17 C16 1.218 . S
C18 O11 1.275 . S
C18 O13 1.255 . S
C19 O20 1.258 . S
C19 O21 1.256 . S
O20 Cd12 2.381 . S
O20 C19 1.258 . S
O21 Cd12 2.378 . S
O21 C19 1.256 . S
O22 Cd23 2.300 . S
O22 C29 1.275 . S
Cd23 O22 2.300 . S
Cd23 O31 2.381 . S
Cd23 O32 2.378 . S
O24 Cd25 2.385 . S
O24 C29 1.255 1_554 S
Cd25 O24 2.385 . S
Cd25 O26 2.317 . S
O26 Cd25 2.317 . S
O26 C27 1.232 . S
C27 O26 1.232 . S
C27 O28 1.218 . S
O28 C27 1.218 . S
C29 O22 1.275 . S
C29 O24 1.255 1_556 S
C30 O31 1.258 . S
C30 O32 1.256 . S
O31 Cd23 2.381 . S
O31 C30 1.258 . S
O32 Cd23 2.378 . S
O32 C30 1.256 . S
O33 Cd34 2.300 . S
O33 C40 1.275 . S
Cd34 O33 2.300 . S
Cd34 O42 2.381 . S
Cd34 O43 2.378 . S
O35 Cd36 2.385 . S
O35 C40 1.255 . S
Cd36 O35 2.385 . S
Cd36 O37 2.317 . S
O37 Cd36 2.317 . S
O37 C38 1.232 . S
C38 O37 1.232 . S
C38 O39 1.218 . S
O39 C38 1.218 . S
C40 O33 1.275 . S
C40 O35 1.255 . S
C41 O42 1.258 . S
C41 O43 1.256 . S
O42 Cd34 2.381 . S
O42 C41 1.258 . S
O43 Cd34 2.378 . S
O43 C41 1.256 . S
O44 Cd45 2.300 . S
O44 C51 1.275 . S
Cd45 O44 2.300 . S
Cd45 O53 2.381 . S
Cd45 O54 2.378 . S
O46 Cd47 2.385 1_556 S
O46 C51 1.255 . S
Cd47 O46 2.385 1_554 S
Cd47 O48 2.317 . S
O48 Cd47 2.317 . S
O48 C49 1.232 . S
C49 O48 1.232 . S
C49 O50 1.218 . S
O50 C49 1.218 . S
C51 O44 1.275 . S
C51 O46 1.255 . S
C52 O53 1.258 . S
C52 O54 1.256 . S
O53 Cd45 2.381 . S
O53 C52 1.258 . S
O54 Cd45 2.378 . S
O54 C52 1.256 . S
O55 Cd56 2.300 . S
O55 C62 1.275 . S
Cd56 O55 2.300 . S
Cd56 O64 2.381 . S
Cd56 O65 2.378 . S
O57 Cd58 2.385 . S
O57 C62 1.255 . S
Cd58 O57 2.385 . S
Cd58 O59 2.317 . S
O59 Cd58 2.317 . S
O59 C60 1.232 . S
C60 O59 1.232 . S
C60 O61 1.218 . S
O61 C60 1.218 . S
C62 O55 1.275 . S
C62 O57 1.255 . S
C63 O64 1.258 . S
C63 O65 1.256 . S
O64 Cd56 2.381 . S
O64 C63 1.258 . S
O65 Cd56 2.378 . S
O65 C63 1.256 . S
O66 Cd67 2.300 . S
O66 C73 1.275 . S
Cd67 O66 2.300 . S
Cd67 O75 2.381 . S
Cd67 O76 2.378 . S
O68 Cd69 2.385 . S
O68 C73 1.255 1_554 S
Cd69 O68 2.385 . S
Cd69 O70 2.317 . S
O70 Cd69 2.317 . S
O70 C71 1.232 . S
C71 O70 1.232 . S
C71 O72 1.218 . S
O72 C71 1.218 . S
C73 O66 1.275 . S
C73 O68 1.255 1_556 S
C74 O75 1.258 . S
C74 O76 1.256 . S
O75 Cd67 2.381 . S
O75 C74 1.258 . S
O76 Cd67 2.378 . S
O76 C74 1.256 . S
O77 Cd78 2.300 . S
O77 C84 1.275 . S
Cd78 O77 2.300 . S
Cd78 O86 2.381 . S
Cd78 O87 2.378 . S
O79 Cd80 2.385 . S
O79 C84 1.255 . S
Cd80 O79 2.385 . S
Cd80 O81 2.317 . S
O81 Cd80 2.317 . S
O81 C82 1.232 . S
C82 O81 1.232 . S
C82 O83 1.218 . S
O83 C82 1.218 . S
C84 O77 1.275 . S
C84 O79 1.255 . S
C85 O86 1.258 . S
C85 O87 1.256 . S
O86 Cd78 2.381 . S
O86 C85 1.258 . S
O87 Cd78 2.378 . S
O87 C85 1.256 . S
Fe88 O90 1.918 . S
Fe88 O93 1.997 1_455 S
Fe88 O94 2.002 1_455 S
Fe88 O99 1.976 . S
Fe88 O102 1.996 . S
Fe89 O90 1.918 . S
Fe89 O97 1.997 1_455 S
Fe89 O100 1.996 . S
Fe89 O104 1.976 . S
Fe89 O107 2.002 1_455 S
O90 Fe88 1.918 . S
O90 Fe89 1.918 . S
O90 Fe91 1.918 . S
Fe91 O90 1.918 . S
Fe91 O92 2.002 1_455 S
Fe91 O101 1.976 . S
Fe91 O105 1.996 . S
Fe91 O108 1.997 1_455 S
O92 Fe91 2.002 1_655 S
O92 C109 1.295 . S
O93 Fe88 1.997 1_655 S
O93 C109 1.235 . S
O94 Fe88 2.002 1_655 S
O94 C95 1.295 . S
C95 O94 1.295 . S
C95 O97 1.235 . S
C96 O101 1.287 . S
C96 O102 1.255 . S
O97 Fe89 1.997 1_655 S
O97 C95 1.235 . S
C98 O104 1.287 . S
C98 O105 1.255 . S
O99 Fe88 1.976 . S
O99 C106 1.287 . S
O100 Fe89 1.996 . S
O100 C106 1.255 . S
O101 Fe91 1.976 . S
O101 C96 1.287 . S
O102 Fe88 1.996 . S
O102 C96 1.255 . S
C103 O107 1.295 . S
C103 O108 1.235 . S
O104 Fe89 1.976 . S
O104 C98 1.287 . S
O105 Fe91 1.996 . S
O105 C98 1.255 . S
C106 O99 1.287 . S
C106 O100 1.255 . S
O107 Fe89 2.002 1_655 S
O107 C103 1.295 . S
O108 Fe91 1.997 1_655 S
O108 C103 1.235 . S
C109 O92 1.295 . S
C109 O93 1.235 . S
Fe110 O112 1.918 . S
Fe110 O115 1.997 . S
Fe110 O116 2.002 . S
Fe110 O121 1.976 1_455 S
Fe110 O124 1.996 1_455 S
Fe111 O112 1.918 . S
Fe111 O119 1.997 . S
Fe111 O122 1.996 1_455 S
Fe111 O126 1.976 1_455 S
Fe111 O129 2.002 . S
O112 Fe110 1.918 . S
O112 Fe111 1.918 . S
O112 Fe113 1.918 . S
Fe113 O112 1.918 . S
Fe113 O114 2.002 . S
Fe113 O123 1.976 1_455 S
Fe113 O127 1.996 1_455 S
Fe113 O130 1.997 . S
O114 Fe113 2.002 . S
O114 C131 1.295 . S
O115 Fe110 1.997 . S
O115 C131 1.235 . S
O116 Fe110 2.002 . S
O116 C117 1.295 . S
C117 O116 1.295 . S
C117 O119 1.235 . S
C118 O123 1.287 . S
C118 O124 1.255 . S
O119 Fe111 1.997 . S
O119 C117 1.235 . S
C120 O126 1.287 . S
C120 O127 1.255 . S
O121 Fe110 1.976 1_655 S
O121 C128 1.287 . S
O122 Fe111 1.996 1_655 S
O122 C128 1.255 . S
O123 Fe113 1.976 1_655 S
O123 C118 1.287 . S
O124 Fe110 1.996 1_655 S
O124 C118 1.255 . S
C125 O129 1.295 . S
C125 O130 1.235 . S
O126 Fe111 1.976 1_655 S
O126 C120 1.287 . S
O127 Fe113 1.996 1_655 S
O127 C120 1.255 . S
C128 O121 1.287 . S
C128 O122 1.255 . S
O129 Fe111 2.002 . S
O129 C125 1.295 . S
O130 Fe113 1.997 . S
O130 C125 1.235 . S
C131 O114 1.295 . S
C131 O115 1.235 . S
Fe132 O134 1.918 . S
Fe132 O137 1.997 . S
Fe132 O138 2.002 . S
Fe132 O143 1.976 . S
Fe132 O146 1.996 . S
Fe133 O134 1.918 . S
Fe133 O141 1.997 . S
Fe133 O144 1.996 . S
Fe133 O148 1.976 . S
Fe133 O151 2.002 . S
O134 Fe132 1.918 . S
O134 Fe133 1.918 . S
O134 Fe135 1.918 . S
Fe135 O134 1.918 . S
Fe135 O136 2.002 . S
Fe135 O145 1.976 . S
Fe135 O149 1.996 . S
Fe135 O152 1.997 . S
O136 Fe135 2.002 . S
O136 C153 1.295 . S
O137 Fe132 1.997 . S
O137 C153 1.235 . S
O138 Fe132 2.002 . S
O138 C139 1.295 . S
C139 O138 1.295 . S
C139 O141 1.235 . S
C140 O145 1.287 . S
C140 O146 1.255 . S
O141 Fe133 1.997 . S
O141 C139 1.235 . S
C142 O148 1.287 . S
C142 O149 1.255 . S
O143 Fe132 1.976 . S
O143 C150 1.287 . S
O144 Fe133 1.996 . S
O144 C150 1.255 . S
O145 Fe135 1.976 . S
O145 C140 1.287 . S
O146 Fe132 1.996 . S
O146 C140 1.255 . S
C147 O151 1.295 . S
C147 O152 1.235 . S
O148 Fe133 1.976 . S
O148 C142 1.287 . S
O149 Fe135 1.996 . S
O149 C142 1.255 . S
C150 O143 1.287 . S
C150 O144 1.255 . S
O151 Fe133 2.002 . S
O151 C147 1.295 . S
O152 Fe135 1.997 . S
O152 C147 1.235 . S
C153 O136 1.295 . S
C153 O137 1.235 . S
Fe154 O156 1.918 . S
Fe154 O159 1.997 . S
Fe154 O160 2.002 . S
Fe154 O165 1.976 . S
Fe154 O168 1.996 . S
Fe155 O156 1.918 . S
Fe155 O163 1.997 . S
Fe155 O166 1.996 . S
Fe155 O170 1.976 . S
Fe155 O173 2.002 . S
O156 Fe154 1.918 . S
O156 Fe155 1.918 . S
O156 Fe157 1.918 . S
Fe157 O156 1.918 . S
Fe157 O158 2.002 . S
Fe157 O167 1.976 . S
Fe157 O171 1.996 . S
Fe157 O174 1.997 . S
O158 Fe157 2.002 . S
O158 C175 1.295 . S
O159 Fe154 1.997 . S
O159 C175 1.235 . S
O160 Fe154 2.002 . S
O160 C161 1.295 . S
C161 O160 1.295 . S
C161 O163 1.235 . S
C162 O167 1.287 . S
C162 O168 1.255 . S
O163 Fe155 1.997 . S
O163 C161 1.235 . S
C164 O170 1.287 . S
C164 O171 1.255 . S
O165 Fe154 1.976 . S
O165 C172 1.287 . S
O166 Fe155 1.996 . S
O166 C172 1.255 . S
O167 Fe157 1.976 . S
O167 C162 1.287 . S
O168 Fe154 1.996 . S
O168 C162 1.255 . S
C169 O173 1.295 . S
C169 O174 1.235 . S
O170 Fe155 1.976 . S
O170 C164 1.287 . S
O171 Fe157 1.996 . S
O171 C164 1.255 . S
C172 O165 1.287 . S
C172 O166 1.255 . S
O173 Fe155 2.002 . S
O173 C169 1.295 . S
O174 Fe157 1.997 . S
O174 C169 1.235 . S
C175 O158 1.295 . S
C175 O159 1.235 . S
H176 C182 0.930 . S
H177 C186 0.930 . S
H178 C191 0.929 . S
H179 C189 0.929 . S
H180 C184 0.929 . S
H181 C190 0.929 . S
C182 H176 0.930 . S
C182 C183 1.367 . S
C182 C190 1.378 . S
C183 C182 1.367 . S
C183 C191 1.433 . S
C184 H180 0.929 . S
C184 C186 1.378 . S
C184 C188 1.350 . S
C185 C188 1.463 . S
C185 C190 1.350 . S
C185 N193 1.427 . S
C186 H177 0.930 . S
C186 C184 1.378 . S
C186 C187 1.367 . S
C187 C186 1.367 . S
C187 C189 1.433 . S
C188 C184 1.350 . S
C188 C185 1.463 . S
C188 N192 1.427 . S
C189 H179 0.929 . S
C189 C187 1.433 . S
C189 N192 1.384 . S
C190 H181 0.929 . S
C190 C182 1.378 . S
C190 C185 1.350 . S
C191 H178 0.929 . S
C191 C183 1.433 . S
C191 N193 1.384 . S
N192 C188 1.427 . S
N192 C189 1.384 . S
N193 C185 1.427 . S
N193 C191 1.384 . S
H194 C200 0.930 . S
H195 C204 0.930 . S
H196 C209 0.929 . S
H197 C207 0.929 . S
H198 C202 0.929 . S
H199 C208 0.929 . S
C200 H194 0.930 . S
C200 C201 1.367 . S
C200 C208 1.378 . S
C201 C200 1.367 . S
C201 C209 1.433 . S
C202 H198 0.929 . S
C202 C204 1.378 . S
C202 C206 1.350 . S
C203 C206 1.463 . S
C203 C208 1.350 . S
C203 N211 1.427 . S
C204 H195 0.930 . S
C204 C202 1.378 . S
C204 C205 1.367 . S
C205 C204 1.367 . S
C205 C207 1.433 . S
C206 C202 1.350 . S
C206 C203 1.463 . S
C206 N210 1.427 . S
C207 H197 0.929 . S
C207 C205 1.433 . S
C207 N210 1.384 . S
C208 H199 0.929 . S
C208 C200 1.378 . S
C208 C203 1.350 . S
C209 H196 0.929 . S
C209 C201 1.433 . S
C209 N211 1.384 . S
N210 C206 1.427 . S
N210 C207 1.384 . S
N211 C203 1.427 . S
N211 C209 1.384 . S
H212 C218 0.930 . S
H213 C222 0.930 . S
H214 C227 0.929 . S
H215 C225 0.929 . S
H216 C220 0.929 . S
H217 C226 0.929 . S
C218 H212 0.930 . S
C218 C219 1.367 . S
C218 C226 1.378 . S
C219 C218 1.367 . S
C219 C227 1.433 . S
C220 H216 0.929 . S
C220 C222 1.378 . S
C220 C224 1.350 . S
C221 C224 1.463 . S
C221 C226 1.350 . S
C221 N229 1.427 . S
C222 H213 0.930 . S
C222 C220 1.378 . S
C222 C223 1.367 . S
C223 C222 1.367 . S
C223 C225 1.433 . S
C224 C220 1.350 . S
C224 C221 1.463 . S
C224 N228 1.427 . S
C225 H215 0.929 . S
C225 C223 1.433 . S
C225 N228 1.384 . S
C226 H217 0.929 . S
C226 C218 1.378 . S
C226 C221 1.350 . S
C227 H214 0.929 . S
C227 C219 1.433 . S
C227 N229 1.384 . S
N228 C224 1.427 . S
N228 C225 1.384 . S
N229 C221 1.427 . S
N229 C227 1.384 . S
H230 C236 0.930 . S
H231 C240 0.930 . S
H232 C245 0.929 . S
H233 C243 0.929 . S
H234 C238 0.929 . S
H235 C244 0.929 . S
C236 H230 0.930 . S
C236 C237 1.367 . S
C236 C244 1.378 . S
C237 C236 1.367 . S
C237 C245 1.433 . S
C238 H234 0.929 . S
C238 C240 1.378 . S
C238 C242 1.350 . S
C239 C242 1.463 . S
C239 C244 1.350 . S
C239 N247 1.427 . S
C240 H231 0.930 . S
C240 C238 1.378 . S
C240 C241 1.367 . S
C241 C240 1.367 . S
C241 C243 1.433 . S
C242 C238 1.350 . S
C242 C239 1.463 . S
C242 N246 1.427 . S
C243 H233 0.929 . S
C243 C241 1.433 . S
C243 N246 1.384 . S
C244 H235 0.929 . S
C244 C236 1.378 . S
C244 C239 1.350 . S
C245 H232 0.929 . S
C245 C237 1.433 . S
C245 N247 1.384 . S
N246 C242 1.427 . S
N246 C243 1.384 . S
N247 C239 1.427 . S
N247 C245 1.384 . S
H248 C254 0.930 . S
H249 C258 0.930 . S
H250 C263 0.929 . S
H251 C261 0.929 . S
H252 C256 0.929 . S
H253 C262 0.929 . S
C254 H248 0.930 . S
C254 C255 1.367 . S
C254 C262 1.378 . S
C255 C254 1.367 . S
C255 C263 1.433 . S
C256 H252 0.929 . S
C256 C258 1.378 . S
C256 C260 1.350 . S
C257 C260 1.463 . S
C257 C262 1.350 . S
C257 N265 1.427 . S
C258 H249 0.930 . S
C258 C256 1.378 . S
C258 C259 1.367 . S
C259 C258 1.367 . S
C259 C261 1.433 . S
C260 C256 1.350 . S
C260 C257 1.463 . S
C260 N264 1.427 . S
C261 H251 0.929 . S
C261 C259 1.433 . S
C261 N264 1.384 . S
C262 H253 0.929 . S
C262 C254 1.378 . S
C262 C257 1.350 . S
C263 H250 0.929 . S
C263 C255 1.433 . S
C263 N265 1.384 . S
N264 C260 1.427 . S
N264 C261 1.384 . S
N265 C257 1.427 . S
N265 C263 1.384 . S
H266 C272 0.930 . S
H267 C276 0.930 . S
H268 C281 0.929 . S
H269 C279 0.929 . S
H270 C274 0.929 . S
H271 C280 0.929 . S
C272 H266 0.930 . S
C272 C273 1.367 . S
C272 C280 1.378 . S
C273 C272 1.367 . S
C273 C281 1.433 . S
C274 H270 0.929 . S
C274 C276 1.378 . S
C274 C278 1.350 . S
C275 C278 1.463 . S
C275 C280 1.350 . S
C275 N283 1.427 . S
C276 H267 0.930 . S
C276 C274 1.378 . S
C276 C277 1.367 . S
C277 C276 1.367 . S
C277 C279 1.433 . S
C278 C274 1.350 . S
C278 C275 1.463 . S
C278 N282 1.427 . S
C279 H269 0.929 . S
C279 C277 1.433 . S
C279 N282 1.384 . S
C280 H271 0.929 . S
C280 C272 1.378 . S
C280 C275 1.350 . S
C281 H268 0.929 . S
C281 C273 1.433 . S
C281 N283 1.384 . S
N282 C278 1.427 . S
N282 C279 1.384 . S
N283 C275 1.427 . S
N283 C281 1.384 . S
H284 C290 0.930 . S
H285 C294 0.930 . S
H286 C299 0.929 . S
H287 C297 0.929 . S
H288 C292 0.929 . S
H289 C298 0.929 . S
C290 H284 0.930 . S
C290 C291 1.367 . S
C290 C298 1.378 . S
C291 C290 1.367 . S
C291 C299 1.433 . S
C292 H288 0.929 . S
C292 C294 1.378 . S
C292 C296 1.350 . S
C293 C296 1.463 . S
C293 C298 1.350 . S
C293 N301 1.427 . S
C294 H285 0.930 . S
C294 C292 1.378 . S
C294 C295 1.367 . S
C295 C294 1.367 . S
C295 C297 1.433 . S
C296 C292 1.350 . S
C296 C293 1.463 . S
C296 N300 1.427 . S
C297 H287 0.929 . S
C297 C295 1.433 . S
C297 N300 1.384 . S
C298 H289 0.929 . S
C298 C290 1.378 . S
C298 C293 1.350 . S
C299 H286 0.929 . S
C299 C291 1.433 . S
C299 N301 1.384 . S
N300 C296 1.427 . S
N300 C297 1.384 . S
N301 C293 1.427 . S
N301 C299 1.384 . S
H302 C308 0.930 . S
H303 C312 0.930 . S
H304 C317 0.929 . S
H305 C315 0.929 . S
H306 C310 0.929 . S
H307 C316 0.929 . S
C308 H302 0.930 . S
C308 C309 1.367 . S
C308 C316 1.378 . S
C309 C308 1.367 . S
C309 C317 1.433 . S
C310 H306 0.929 . S
C310 C312 1.378 . S
C310 C314 1.350 . S
C311 C314 1.463 . S
C311 C316 1.350 . S
C311 N319 1.427 . S
C312 H303 0.930 . S
C312 C310 1.378 . S
C312 C313 1.367 . S
C313 C312 1.367 . S
C313 C315 1.433 . S
C314 C310 1.350 . S
C314 C311 1.463 . S
C314 N318 1.427 . S
C315 H305 0.929 . S
C315 C313 1.433 . S
C315 N318 1.384 . S
C316 H307 0.929 . S
C316 C308 1.378 . S
C316 C311 1.350 . S
C317 H304 0.929 . S
C317 C309 1.433 . S
C317 N319 1.384 . S
N318 C314 1.427 . S
N318 C315 1.384 . S
N319 C311 1.427 . S
N319 C317 1.384 . S
H320 C326 0.930 . S
H321 C330 0.930 . S
H322 C335 0.929 . S
H323 C333 0.929 . S
H324 C328 0.929 . S
H325 C334 0.929 . S
C326 H320 0.930 . S
C326 C327 1.367 . S
C326 C334 1.378 . S
C327 C326 1.367 . S
C327 C335 1.433 . S
C328 H324 0.929 . S
C328 C330 1.378 . S
C328 C332 1.350 . S
C329 C332 1.463 . S
C329 C334 1.350 . S
C329 N337 1.427 . S
C330 H321 0.930 . S
C330 C328 1.378 . S
C330 C331 1.367 . S
C331 C330 1.367 . S
C331 C333 1.433 . S
C332 C328 1.350 . S
C332 C329 1.463 . S
C332 N336 1.427 . S
C333 H323 0.929 . S
C333 C331 1.433 . S
C333 N336 1.384 . S
C334 H325 0.929 . S
C334 C326 1.378 . S
C334 C329 1.350 . S
C335 H322 0.929 . S
C335 C327 1.433 . S
C335 N337 1.384 . S
N336 C332 1.427 . S
N336 C333 1.384 . S
N337 C329 1.427 . S
N337 C335 1.384 . S
H338 C344 0.930 . S
H339 C348 0.930 . S
H340 C353 0.929 . S
H341 C351 0.929 . S
H342 C346 0.929 . S
H343 C352 0.929 . S
C344 H338 0.930 . S
C344 C345 1.367 . S
C344 C352 1.378 . S
C345 C344 1.367 . S
C345 C353 1.433 . S
C346 H342 0.929 . S
C346 C348 1.378 . S
C346 C350 1.350 . S
C347 C350 1.463 . S
C347 C352 1.350 . S
C347 N355 1.427 . S
C348 H339 0.930 . S
C348 C346 1.378 . S
C348 C349 1.367 . S
C349 C348 1.367 . S
C349 C351 1.433 . S
C350 C346 1.350 . S
C350 C347 1.463 . S
C350 N354 1.427 . S
C351 H341 0.929 . S
C351 C349 1.433 . S
C351 N354 1.384 . S
C352 H343 0.929 . S
C352 C344 1.378 . S
C352 C347 1.350 . S
C353 H340 0.929 . S
C353 C345 1.433 . S
C353 N355 1.384 . S
N354 C350 1.427 . S
N354 C351 1.384 . S
N355 C347 1.427 . S
N355 C353 1.384 . S
H356 C362 0.930 1_554 S
H357 C366 0.930 . S
H358 C371 0.929 . S
H359 C369 0.929 . S
H360 C364 0.929 . S
H361 C370 0.929 . S
C362 H356 0.930 1_556 S
C362 C363 1.367 . S
C362 C370 1.378 . S
C363 C362 1.367 . S
C363 C371 1.433 . S
C364 H360 0.929 . S
C364 C366 1.378 . S
C364 C368 1.350 . S
C365 C368 1.463 . S
C365 C370 1.350 . S
C365 N373 1.427 . S
C366 H357 0.930 . S
C366 C364 1.378 . S
C366 C367 1.367 . S
C367 C366 1.367 . S
C367 C369 1.433 . S
C368 C364 1.350 . S
C368 C365 1.463 . S
C368 N372 1.427 . S
C369 H359 0.929 . S
C369 C367 1.433 . S
C369 N372 1.384 . S
C370 H361 0.929 . S
C370 C362 1.378 . S
C370 C365 1.350 . S
C371 H358 0.929 . S
C371 C363 1.433 . S
C371 N373 1.384 . S
N372 C368 1.427 . S
N372 C369 1.384 . S
N373 C365 1.427 . S
N373 C371 1.384 . S
H374 C380 0.930 . S
H375 C384 0.930 . S
H376 C389 0.929 . S
H377 C387 0.929 . S
H378 C382 0.929 . S
H379 C388 0.929 . S
C380 H374 0.930 . S
C380 C381 1.367 . S
C380 C388 1.378 . S
C381 C380 1.367 . S
C381 C389 1.433 . S
C382 H378 0.929 . S
C382 C384 1.378 . S
C382 C386 1.350 . S
C383 C386 1.463 . S
C383 C388 1.350 . S
C383 N391 1.427 . S
C384 H375 0.930 . S
C384 C382 1.378 . S
C384 C385 1.367 . S
C385 C384 1.367 . S
C385 C387 1.433 . S
C386 C382 1.350 . S
C386 C383 1.463 . S
C386 N390 1.427 . S
C387 H377 0.929 . S
C387 C385 1.433 . S
C387 N390 1.384 . S
C388 H379 0.929 . S
C388 C380 1.378 . S
C388 C383 1.350 . S
C389 H376 0.929 . S
C389 C381 1.433 . S
C389 N391 1.384 . S
N390 C386 1.427 . S
N390 C387 1.384 . S
N391 C383 1.427 . S
N391 C389 1.384 . S
H392 C398 0.930 . S
H393 C402 0.930 . S
H394 C407 0.929 . S
H395 C405 0.929 . S
H396 C400 0.929 . S
H397 C406 0.929 . S
C398 H392 0.930 . S
C398 C399 1.367 . S
C398 C406 1.378 . S
C399 C398 1.367 . S
C399 C407 1.433 . S
C400 H396 0.929 . S
C400 C402 1.378 . S
C400 C404 1.350 . S
C401 C404 1.463 1_565 S
C401 C406 1.350 . S
C401 N409 1.427 . S
C402 H393 0.930 . S
C402 C400 1.378 . S
C402 C403 1.367 . S
C403 C402 1.367 . S
C403 C405 1.433 . S
C404 C400 1.350 . S
C404 C401 1.463 1_545 S
C404 N408 1.427 1_545 S
C405 H395 0.929 . S
C405 C403 1.433 . S
C405 N408 1.384 1_545 S
C406 H397 0.929 . S
C406 C398 1.378 . S
C406 C401 1.350 . S
C407 H394 0.929 . S
C407 C399 1.433 . S
C407 N409 1.384 . S
N408 C404 1.427 1_565 S
N408 C405 1.384 1_565 S
N409 C401 1.427 . S
N409 C407 1.384 . S
H410 C416 0.930 . S
H411 C420 0.930 . S
H412 C425 0.929 . S
H413 C423 0.929 . S
H414 C418 0.929 1_545 S
H415 C424 0.929 . S
C416 H410 0.930 . S
C416 C417 1.367 . S
C416 C424 1.378 1_545 S
C417 C416 1.367 . S
C417 C425 1.433 . S
C418 H414 0.929 1_565 S
C418 C420 1.378 . S
C418 C422 1.350 . S
C419 C422 1.455 1_545 S
C419 C424 1.348 1_545 S
C419 N427 1.438 . S
C420 H411 0.930 . S
C420 C418 1.378 . S
C420 C421 1.367 . S
C421 C420 1.367 . S
C421 C423 1.433 . S
C422 C418 1.350 . S
C422 C419 1.455 1_565 S
C422 N426 1.427 . S
C423 H413 0.929 . S
C423 C421 1.433 . S
C423 N426 1.384 . S
C424 H415 0.929 . S
C424 C416 1.378 1_565 S
C424 C419 1.348 1_565 S
C425 H412 0.929 . S
C425 C417 1.433 . S
C425 N427 1.384 . S
N426 C422 1.427 . S
N426 C423 1.384 . S
N427 C419 1.438 . S
N427 C425 1.384 . S
H428 C434 0.930 . S
H429 C438 0.930 . S
H430 C443 0.929 . S
H431 C441 0.929 . S
H432 C436 0.930 1_565 S
H433 C442 0.929 . S
C434 H428 0.930 . S
C434 C435 1.367 . S
C434 C442 1.378 1_565 S
C435 C434 1.367 . S
C435 C443 1.433 . S
C436 H432 0.930 1_545 S
C436 C438 1.377 . S
C436 C440 1.349 . S
C437 C440 1.463 1_565 S
C437 C442 1.350 1_565 S
C437 N445 1.427 . S
C438 H429 0.930 . S
C438 C436 1.377 . S
C438 C439 1.367 . S
C439 C438 1.367 . S
C439 C441 1.433 . S
C440 C436 1.349 . S
C440 C437 1.463 1_545 S
C440 N444 1.427 . S
C441 H431 0.929 . S
C441 C439 1.433 . S
C441 N444 1.384 . S
C442 H433 0.929 . S
C442 C434 1.378 1_545 S
C442 C437 1.350 1_545 S
C443 H430 0.929 . S
C443 C435 1.433 . S
C443 N445 1.384 . S
N444 C440 1.427 . S
N444 C441 1.384 . S
N445 C437 1.427 . S
N445 C443 1.384 . S
H446 C452 0.930 . S
H447 C456 0.930 . S
H448 C461 0.929 . S
H449 C459 0.929 . S
H450 C454 0.929 1_545 S
H451 C460 0.929 . S
C452 H446 0.930 . S
C452 C453 1.367 . S
C452 C460 1.378 1_545 S
C453 C452 1.367 . S
C453 C461 1.433 . S
C454 H450 0.929 1_565 S
C454 C456 1.378 . S
C454 C458 1.350 . S
C455 C458 1.463 1_545 S
C455 C460 1.350 1_545 S
C455 N463 1.427 . S
C456 H447 0.930 . S
C456 C454 1.378 . S
C456 C457 1.367 . S
C457 C456 1.367 . S
C457 C459 1.433 . S
C458 C454 1.350 . S
C458 C455 1.463 1_565 S
C458 N462 1.427 . S
C459 H449 0.929 . S
C459 C457 1.433 . S
C459 N462 1.384 . S
C460 H451 0.929 . S
C460 C452 1.378 1_565 S
C460 C455 1.350 1_565 S
C461 H448 0.929 . S
C461 C453 1.433 . S
C461 N463 1.384 . S
N462 C458 1.427 . S
N462 C459 1.384 . S
N463 C455 1.427 . S
N463 C461 1.384 . S
H464 C470 0.930 . S
H465 C474 0.930 . S
H466 C479 0.929 . S
H467 C477 0.929 . S
H468 C472 0.929 . S
H469 C478 0.929 . S
C470 H464 0.930 . S
C470 C471 1.367 . S
C470 C478 1.378 . S
C471 C470 1.367 . S
C471 C479 1.433 . S
C472 H468 0.929 . S
C472 C474 1.378 . S
C472 C476 1.350 . S
C473 C476 1.463 . S
C473 C478 1.350 . S
C473 N481 1.427 . S
C474 H465 0.930 . S
C474 C472 1.378 . S
C474 C475 1.367 . S
C475 C474 1.367 . S
C475 C477 1.433 . S
C476 C472 1.350 . S
C476 C473 1.463 . S
C476 N480 1.427 . S
C477 H467 0.929 . S
C477 C475 1.433 . S
C477 N480 1.384 . S
C478 H469 0.929 . S
C478 C470 1.378 . S
C478 C473 1.350 . S
C479 H466 0.929 . S
C479 C471 1.433 . S
C479 N481 1.384 . S
N480 C476 1.427 . S
N480 C477 1.384 . S
N481 C473 1.427 . S
N481 C479 1.384 . S
H482 C488 0.930 . S
H483 C492 0.930 . S
H484 C497 0.929 . S
H485 C495 0.929 . S
H486 C490 0.929 . S
H487 C496 0.929 . S
C488 H482 0.930 . S
C488 C489 1.367 . S
C488 C496 1.378 . S
C489 C488 1.367 . S
C489 C497 1.433 . S
C490 H486 0.929 . S
C490 C492 1.378 . S
C490 C494 1.350 . S
C491 C494 1.463 . S
C491 C496 1.350 . S
C491 N499 1.427 . S
C492 H483 0.930 . S
C492 C490 1.378 . S
C492 C493 1.367 . S
C493 C492 1.367 . S
C493 C495 1.433 . S
C494 C490 1.350 . S
C494 C491 1.463 . S
C494 N498 1.427 . S
C495 H485 0.929 . S
C495 C493 1.433 . S
C495 N498 1.384 . S
C496 H487 0.929 . S
C496 C488 1.378 . S
C496 C491 1.350 . S
C497 H484 0.929 . S
C497 C489 1.433 . S
C497 N499 1.384 . S
N498 C494 1.427 . S
N498 C495 1.384 . S
N499 C491 1.427 . S
N499 C497 1.384 . S
H500 C506 0.930 . S
H501 C510 0.930 . S
H502 C515 0.929 . S
H503 C513 0.929 . S
H504 C508 0.929 . S
H505 C514 0.929 . S
C506 H500 0.930 . S
C506 C507 1.367 . S
C506 C514 1.378 . S
C507 C506 1.367 . S
C507 C515 1.433 . S
C508 H504 0.929 . S
C508 C510 1.378 . S
C508 C512 1.350 . S
C509 C512 1.463 . S
C509 C514 1.350 . S
C509 N517 1.427 . S
C510 H501 0.930 . S
C510 C508 1.378 . S
C510 C511 1.367 . S
C511 C510 1.367 . S
C511 C513 1.433 . S
C512 C508 1.350 . S
C512 C509 1.463 . S
C512 N516 1.427 . S
C513 H503 0.929 . S
C513 C511 1.433 . S
C513 N516 1.384 . S
C514 H505 0.929 . S
C514 C506 1.378 . S
C514 C509 1.350 . S
C515 H502 0.929 . S
C515 C507 1.433 . S
C515 N517 1.384 . S
N516 C512 1.427 . S
N516 C513 1.384 . S
N517 C509 1.427 . S
N517 C515 1.384 . S
H518 C524 0.930 . S
H519 C528 0.930 . S
H520 C533 0.929 . S
H521 C531 0.929 . S
H522 C526 0.929 . S
H523 C532 0.929 . S
C524 H518 0.930 . S
C524 C525 1.367 . S
C524 C532 1.378 . S
C525 C524 1.367 . S
C525 C533 1.433 . S
C526 H522 0.929 . S
C526 C528 1.378 . S
C526 C530 1.350 . S
C527 C530 1.463 . S
C527 C532 1.350 . S
C527 N535 1.427 . S
C528 H519 0.930 . S
C528 C526 1.378 . S
C528 C529 1.367 . S
C529 C528 1.367 . S
C529 C531 1.433 . S
C530 C526 1.350 . S
C530 C527 1.463 . S
C530 N534 1.427 . S
C531 H521 0.929 . S
C531 C529 1.433 . S
C531 N534 1.384 . S
C532 H523 0.929 . S
C532 C524 1.378 . S
C532 C527 1.350 . S
C533 H520 0.929 . S
C533 C525 1.433 . S
C533 N535 1.384 . S
N534 C530 1.427 . S
N534 C531 1.384 . S
N535 C527 1.427 . S
N535 C533 1.384 . S
H536 C542 0.930 . S
H537 C546 0.930 . S
H538 C551 0.929 . S
H539 C549 0.929 . S
H540 C544 0.929 . S
H541 C550 0.929 . S
C542 H536 0.930 . S
C542 C543 1.367 . S
C542 C550 1.378 . S
C543 C542 1.367 . S
C543 C551 1.433 . S
C544 H540 0.929 . S
C544 C546 1.378 . S
C544 C548 1.350 . S
C545 C548 1.463 . S
C545 C550 1.350 . S
C545 N553 1.427 . S
C546 H537 0.930 . S
C546 C544 1.378 . S
C546 C547 1.367 . S
C547 C546 1.367 . S
C547 C549 1.433 . S
C548 C544 1.350 . S
C548 C545 1.463 . S
C548 N552 1.427 . S
C549 H539 0.929 . S
C549 C547 1.433 . S
C549 N552 1.384 . S
C550 H541 0.929 . S
C550 C542 1.378 . S
C550 C545 1.350 . S
C551 H538 0.929 . S
C551 C543 1.433 . S
C551 N553 1.384 . S
N552 C548 1.427 . S
N552 C549 1.384 . S
N553 C545 1.427 . S
N553 C551 1.384 . S
H554 C560 0.930 . S
H555 C564 0.930 . S
H556 C569 0.929 . S
H557 C567 0.929 . S
H558 C562 0.929 . S
H559 C568 0.929 . S
C560 H554 0.930 . S
C560 C561 1.367 . S
C560 C568 1.378 . S
C561 C560 1.367 . S
C561 C569 1.433 . S
C562 H558 0.929 . S
C562 C564 1.378 . S
C562 C566 1.350 . S
C563 C566 1.463 . S
C563 C568 1.350 . S
C563 N571 1.427 . S
C564 H555 0.930 . S
C564 C562 1.378 . S
C564 C565 1.367 . S
C565 C564 1.367 . S
C565 C567 1.433 . S
C566 C562 1.350 . S
C566 C563 1.463 . S
C566 N570 1.427 . S
C567 H557 0.929 . S
C567 C565 1.433 . S
C567 N570 1.384 . S
C568 H559 0.929 . S
C568 C560 1.378 . S
C568 C563 1.350 . S
C569 H556 0.929 . S
C569 C561 1.433 . S
C569 N571 1.384 . S
N570 C566 1.427 . S
N570 C567 1.384 . S
N571 C563 1.427 . S
N571 C569 1.384 . S
H572 C578 0.930 . S
H573 C582 0.930 . S
H574 C587 0.929 . S
H575 C585 0.929 . S
H576 C580 0.929 . S
H577 C586 0.929 . S
C578 H572 0.930 . S
C578 C579 1.367 . S
C578 C586 1.378 . S
C579 C578 1.367 . S
C579 C587 1.433 . S
C580 H576 0.929 . S
C580 C582 1.378 . S
C580 C584 1.350 . S
C581 C584 1.463 . S
C581 C586 1.350 . S
C581 N589 1.427 . S
C582 H573 0.930 . S
C582 C580 1.378 . S
C582 C583 1.367 . S
C583 C582 1.367 . S
C583 C585 1.433 . S
C584 C580 1.350 . S
C584 C581 1.463 . S
C584 N588 1.427 . S
C585 H575 0.929 . S
C585 C583 1.433 . S
C585 N588 1.384 . S
C586 H577 0.929 . S
C586 C578 1.378 . S
C586 C581 1.350 . S
C587 H574 0.929 . S
C587 C579 1.433 . S
C587 N589 1.384 . S
N588 C584 1.427 . S
N588 C585 1.384 . S
N589 C581 1.427 . S
N589 C587 1.384 . S
H590 C596 0.930 . S
H591 C600 0.930 . S
H592 C605 0.929 . S
H593 C603 0.929 . S
H594 C598 0.929 . S
H595 C604 0.929 . S
C596 H590 0.930 . S
C596 C597 1.367 . S
C596 C604 1.378 . S
C597 C596 1.367 . S
C597 C605 1.433 . S
C598 H594 0.929 . S
C598 C600 1.378 . S
C598 C602 1.350 . S
C599 C602 1.463 . S
C599 C604 1.350 . S
C599 N607 1.427 . S
C600 H591 0.930 . S
C600 C598 1.378 . S
C600 C601 1.367 . S
C601 C600 1.367 . S
C601 C603 1.433 . S
C602 C598 1.350 . S
C602 C599 1.463 . S
C602 N606 1.427 . S
C603 H593 0.929 . S
C603 C601 1.433 . S
C603 N606 1.384 . S
C604 H595 0.929 . S
C604 C596 1.378 . S
C604 C599 1.350 . S
C605 H592 0.929 . S
C605 C597 1.433 . S
C605 N607 1.384 . S
N606 C602 1.427 . S
N606 C603 1.384 . S
N607 C599 1.427 . S
N607 C605 1.384 . S
C183 C8 1.698 . S
C187 C131 1.712 . S
C205 C95 1.424 . S
C201 C19 1.440 . S
C223 C118 1.542 . S
C219 C30 1.547 . S
C241 C106 1.546 . S
C237 C41 1.549 . S
C259 C175 1.717 . S
C255 C52 1.703 . S
C277 C139 1.424 . S
C273 C63 1.440 . S
C291 C74 1.547 . S
C295 C162 1.542 . S
C313 C150 1.546 . S
C309 C85 1.550 . S
C327 C7 1.648 . S
C331 C172 1.709 . S
C349 C142 1.339 . S
C345 C16 1.238 . S
C363 C29 1.591 . S
C367 C161 1.592 . S
C381 C40 1.534 . S
C385 C147 1.533 . S
C403 C128 1.709 . S
C399 C51 1.634 . S
C417 C60 1.220 . S
C421 C98 1.341 . S
C439 C117 1.590 . S
C435 C73 1.588 . S
C457 C103 1.531 . S
C453 C84 1.532 . S
C475 C153 1.511 . S
C471 C5 1.260 . S
C493 C169 1.498 . S
C489 C18 1.498 . S
C507 C27 1.357 . S
C511 C140 1.489 . S
C529 C164 1.465 . S
C525 C38 1.353 . S
C547 C109 1.510 . S
C543 C49 1.274 . S
C561 C62 1.503 . S
C565 C125 1.504 . S
C579 C71 1.373 . S
C583 C96 1.488 . S
C597 C82 1.334 . S
C601 C120 1.467 . S
