# Generated by pormake.
# Topology anh, (6,3)-cn, num edge types: 1
# Building blocks:
#     Node 0, Type 0, BuildingBlock: BETFAJ_clean_sbu_0, # of connection points: 6
#     Node 1, Type 0, BuildingBlock: BETFAJ_clean_sbu_0, # of connection points: 6
#     Node 2, Type 0, BuildingBlock: BETFAJ_clean_sbu_0, # of connection points: 6
#     Node 3, Type 1, BuildingBlock: WUSLED_clean_sbu_0, # of connection points: 3
#     Node 4, Type 1, BuildingBlock: WUSLED_clean_sbu_0, # of connection points: 3
#     Node 5, Type 1, BuildingBlock: WUSLED_clean_sbu_0, # of connection points: 3
#     Node 6, Type 1, BuildingBlock: WUSLED_clean_sbu_0, # of connection points: 3
#     Node 7, Type 1, BuildingBlock: WUSLED_clean_sbu_0, # of connection points: 3
#     Node 8, Type 1, BuildingBlock: WUSLED_clean_sbu_0, # of connection points: 3
#     Edge 9, Type (0, 1), None
#     Edge 10, Type (0, 1), None
#     Edge 11, Type (0, 1), None
#     Edge 12, Type (0, 1), None
#     Edge 13, Type (0, 1), None
#     Edge 14, Type (0, 1), None
#     Edge 15, Type (0, 1), None
#     Edge 16, Type (0, 1), None
#     Edge 17, Type (0, 1), None
#     Edge 18, Type (0, 1), None
#     Edge 19, Type (0, 1), None
#     Edge 20, Type (0, 1), None
#     Edge 21, Type (0, 1), None
#     Edge 22, Type (0, 1), None
#     Edge 23, Type (0, 1), None
#     Edge 24, Type (0, 1), None
#     Edge 25, Type (0, 1), None
#     Edge 26, Type (0, 1), None
# Relax obj value: 0.250
# Max RMSD: 0.242
# Mean RMSD: 0.170
data_MOF--net-anh--node1-BETFAJ_clean_sbu_0--node2-WUSLED_clean_sbu_0--edge1-none
_symmetry_space_group_name_H-M    P1
_symmetry_Int_Tables_number       1
_symmetry_cell_setting            triclinic
loop_
_symmetry_equiv_pos_as_xyz
'x, y, z'
_cell_length_a     23.075009
_cell_length_b     29.761119
_cell_length_c     40.215719
_cell_angle_alpha  92.089929
_cell_angle_beta   87.830468
_cell_angle_gamma 133.1628
loop_
_atom_site_label
_atom_site_type_symbol
_atom_site_fract_x
_atom_site_fract_y
_atom_site_fract_z
_atom_type_partial_charge
Sm0 Sm 0.1916 0.5327 0.18431 0.0
Sm1 Sm 1.11588 0.56528 0.17878 0.0
C2 C 0.296 0.52371 0.18837 0.0
C3 C 0.37363 0.56337 0.20398 0.0
C4 C 0.43795 0.62237 0.19131 0.0
C5 C 0.51275 0.64143 0.18952 0.0
C6 C 0.51417 0.59588 0.19537 0.0
C7 C 0.46616 0.55782 0.22246 0.0
C8 C 0.39004 0.53606 0.22433 0.0
C9 C 0.12968 0.52383 0.24597 0.0
C10 C 0.29827 0.67859 0.18203 0.0
C11 C 1.05321 0.61112 0.19327 0.0
C12 C 0.97055 0.5743 0.20279 0.0
C13 C 0.93147 0.52022 0.22102 0.0
C14 C 0.85091 0.46941 0.21642 0.0
C15 C 0.80991 0.47313 0.19386 0.0
C16 C 0.84663 0.52954 0.1792 0.0
C17 C 0.92674 0.58027 0.18391 0.0
C18 C 1.12389 0.53251 0.11466 0.0
C19 C 1.00794 0.41954 0.17781 0.0
O20 O 0.29011 0.54444 0.16191 0.0
O21 O 0.23495 0.49478 0.20844 0.0
O22 O 0.16816 0.56977 0.22706 0.0
O23 O 1.11532 0.47809 0.23087 0.0
O24 O 0.2931 0.63763 0.19721 0.0
O25 O 0.23674 0.65883 0.16569 0.0
O26 O 1.09549 0.61214 0.21442 0.0
O27 O 1.06273 0.60048 0.16275 0.0
O28 O 0.1815 0.56355 0.13499 0.0
O29 O 1.05976 0.51513 0.12882 0.0
O30 O 1.00883 0.46136 0.19076 0.0
O31 O 1.07517 0.43872 0.16552 0.0
H32 H 0.42849 0.64776 0.1779 0.0
H33 H 0.55797 0.67998 0.17372 0.0
H34 H 0.47535 0.5309 0.23405 0.0
H35 H 0.34288 0.49345 0.23712 0.0
H36 H 0.96451 0.51469 0.2358 0.0
H37 H 0.82247 0.42637 0.22838 0.0
H38 H 0.81447 0.53303 0.16226 0.0
H39 H 0.95618 0.62135 0.16954 0.0
Sm40 Sm 0.68217 1.02068 0.48985 0.0
Sm41 Sm 0.57592 0.05132 0.49033 0.0
C42 C 0.73954 0.96917 0.49615 0.0
C43 C 0.70787 0.90685 0.50167 0.0
C44 C 0.6557 0.87045 0.52834 0.0
C45 C 0.62963 0.8127 0.53365 0.0
C46 C 0.65488 0.7901 0.51232 0.0
C47 C 0.70419 0.82561 0.4848 0.0
C48 C 0.73044 0.88332 0.47961 0.0
C49 C 0.66549 0.05099 0.42954 0.0
C50 C 0.48369 0.90699 0.48626 0.0
C51 C 0.52585 0.10436 0.4732 0.0
C52 C 0.54902 0.16236 0.48534 0.0
C53 C 0.58621 0.21203 0.46363 0.0
C54 C 0.61547 0.26912 0.47568 0.0
C55 C 0.60883 0.27755 0.50974 0.0
C56 C 0.57119 0.22778 0.53125 0.0
C57 C 0.54161 0.17094 0.51926 0.0
C58 C 0.60479 0.04313 0.556 0.0
C59 C 0.77371 0.16444 0.49335 0.0
O60 O 0.73534 0.99681 0.52094 0.0
O61 O 0.72365 0.97748 0.46742 0.0
O62 O 0.60995 1.0163 0.4507 0.0
O63 O 0.73214 0.07051 0.43993 0.0
O64 O 0.55232 0.925 0.49419 0.0
O65 O 0.47711 0.94672 0.4799 0.0
O66 O 0.58168 0.11164 0.45663 0.0
O67 O 0.48549 0.05788 0.49383 0.0
O68 O 0.62929 0.03734 0.52928 0.0
O69 O 0.56262 0.05529 0.54844 0.0
O70 O 0.70518 0.14537 0.48471 0.0
O71 O 0.77987 0.12528 0.50203 0.0
H72 H 0.63593 0.88689 0.54537 0.0
H73 H 0.59056 0.78609 0.55473 0.0
H74 H 0.72537 0.81006 0.46798 0.0
H75 H 0.76987 0.91023 0.45864 0.0
H76 H 0.59398 0.20698 0.43745 0.0
H77 H 0.64459 0.30688 0.45862 0.0
H78 H 0.56439 0.23283 0.55756 0.0
H79 H 0.51429 0.13413 0.5368 0.0
Sm80 Sm 0.72762 0.62329 0.85515 0.0
Sm81 Sm 0.61561 0.47792 0.85194 0.0
C82 C 0.8067 0.7393 0.84289 0.0
C83 C 0.77573 0.76931 0.8384 0.0
C84 C 0.76662 0.78067 0.80627 0.0
C85 C 0.73307 0.80526 0.80156 0.0
C86 C 0.70746 0.81938 0.82884 0.0
C87 C 0.71589 0.80736 0.86105 0.0
C88 C 0.74976 0.78296 0.86576 0.0
C89 C 0.67617 0.56124 0.9138 0.0
C90 C 0.53116 0.53821 0.86112 0.0
C91 C 0.54362 0.3636 0.8659 0.0
C92 C 0.56103 0.3255 0.85504 0.0
C93 C 0.59833 0.31562 0.87645 0.0
C94 C 0.61944 0.28306 0.86525 0.0
C95 C 0.60436 0.26052 0.83233 0.0
C96 C 0.56628 0.26976 0.81123 0.0
C97 C 0.54461 0.30152 0.82241 0.0
C98 C 0.64727 0.52172 0.78753 0.0
C99 C 0.81585 0.56476 0.8562 0.0
O100 O 0.78953 0.7001 0.81944 0.0
O101 O 0.80091 0.72024 0.87282 0.0
O102 O 0.69844 0.55263 0.88783 0.0
O103 O 0.68157 0.60736 0.91061 0.0
O104 O 0.60174 0.59115 0.85139 0.0
O105 O 0.5236 0.48997 0.86696 0.0
O106 O 0.59509 0.41034 0.88567 0.0
O107 O 0.51839 0.37708 0.84324 0.0
O108 O 0.6719 0.55271 0.8143 0.0
O109 O 0.60771 0.46482 0.7944 0.0
O110 O 0.74198 0.50894 0.85443 0.0
O111 O 0.82671 0.61569 0.85528 0.0
H112 H 0.78532 0.77037 0.7846 0.0
H113 H 0.72909 0.81453 0.77639 0.0
H114 H 0.69593 0.81646 0.88278 0.0
H115 H 0.75478 0.77426 0.89091 0.0
H116 H 0.61218 0.33382 0.9017 0.0
H117 H 0.64893 0.27666 0.88198 0.0
H118 H 0.55299 0.25215 0.78586 0.0
H119 H 0.51598 0.30798 0.80516 0.0
C120 C 0.80831 0.22213 0.18627 0.0
C121 C 0.82312 0.26221 0.21187 0.0
C122 C 0.9363 0.35203 0.18017 0.0
C123 C 0.88625 0.32663 0.20873 0.0
C124 C 0.92086 0.31164 0.1547 0.0
C125 C 0.85736 0.24774 0.15759 0.0
U126 U 0.64451 0.05194 0.22283 0.0
O127 O 0.62091 0.97222 0.2001 0.0
O128 O 0.52931 0.97603 0.19904 0.0
C129 C 0.54944 0.94512 0.19053 0.0
C130 C 0.74216 0.15381 0.18754 0.0
C131 C 0.48678 0.8767 0.19014 0.0
C132 C 0.38677 0.78327 0.15775 0.0
C133 C 0.44547 0.84747 0.16045 0.0
C134 C 0.41042 0.77507 0.21433 0.0
C135 C 0.36805 0.74615 0.18459 0.0
C136 C 0.46928 0.84003 0.21715 0.0
C137 C 0.64541 0.05777 0.32456 0.0
C138 C 0.58423 1.00636 0.37765 0.0
C139 C 0.71821 0.10704 0.37592 0.0
C140 C 0.71379 0.10814 0.34138 0.0
C141 C 0.65431 0.05559 0.39426 0.0
C142 C 0.57995 1.00741 0.34297 0.0
C143 C 0.64514 0.05571 0.28783 0.0
O144 O 0.75929 0.12207 0.19647 0.0
O145 O 0.67147 0.12991 0.19814 0.0
O146 O 0.59727 0.05536 0.27081 0.0
O147 O 0.69325 0.05472 0.27003 0.0
H148 H 0.78642 0.2438 0.23428 0.0
H149 H 0.89745 0.35648 0.22906 0.0
H150 H 0.95798 0.32953 0.13241 0.0
H151 H 0.84677 0.21802 0.1373 0.0
H152 H 0.35529 0.76253 0.13456 0.0
H153 H 0.45846 0.87456 0.13914 0.0
H154 H 0.39617 0.74761 0.23565 0.0
H155 H 0.50043 0.86144 0.24033 0.0
H156 H 0.53453 0.96578 0.39114 0.0
H157 H 0.77262 0.14574 0.38821 0.0
H158 H 0.76468 0.14762 0.32767 0.0
H159 H 0.52689 0.96781 0.33038 0.0
C160 C 0.62543 0.63481 0.53414 0.0
C161 C 0.63573 0.67253 0.55999 0.0
C162 C 0.63625 0.73272 0.52015 0.0
C163 C 0.64097 0.72098 0.55308 0.0
C164 C 0.62137 0.69246 0.49459 0.0
C165 C 0.61616 0.64402 0.50155 0.0
U166 U 0.64859 0.5487 0.59238 0.0
O167 O 0.59482 0.45293 0.59055 0.0
O168 O 0.72441 0.52865 0.58524 0.0
C169 C 0.66335 0.46877 0.58531 0.0
C170 C 0.63135 0.58959 0.54034 0.0
C171 C 0.6645 0.43115 0.56091 0.0
C172 C 0.61146 0.36355 0.51202 0.0
C173 C 0.62368 0.41019 0.53072 0.0
C174 C 0.686 0.36231 0.55215 0.0
C175 C 0.63902 0.33705 0.52364 0.0
C176 C 0.6987 0.40898 0.57055 0.0
C177 C 0.65863 0.57412 0.68714 0.0
C178 C 0.64777 0.50769 0.72591 0.0
C179 C 0.67181 0.59636 0.74695 0.0
C180 C 0.6714 0.61119 0.71419 0.0
C181 C 0.65853 0.54373 0.75317 0.0
C182 C 0.64829 0.52289 0.69326 0.0
C183 C 0.65224 0.58737 0.65301 0.0
O184 O 0.70067 0.61327 0.55102 0.0
O185 O 0.57117 0.53976 0.55638 0.0
O186 O 0.58624 0.54171 0.63761 0.0
O187 O 0.71565 0.61608 0.63367 0.0
H188 H 0.64298 0.66606 0.58532 0.0
H189 H 0.65303 0.75122 0.57334 0.0
H190 H 0.616 0.69945 0.46906 0.0
H191 H 0.6077 0.61509 0.48129 0.0
H192 H 0.5755 0.34508 0.48997 0.0
H193 H 0.5974 0.42716 0.52267 0.0
H194 H 0.70892 0.34332 0.56134 0.0
H195 H 0.73096 0.42491 0.59359 0.0
H196 H 0.63735 0.46682 0.72987 0.0
H197 H 0.67907 0.62445 0.76742 0.0
H198 H 0.67913 0.6508 0.71003 0.0
H199 H 0.63858 0.49372 0.67283 0.0
C200 C 1.01094 0.56425 0.8713 0.0
C201 C 0.94561 0.53644 0.89379 0.0
C202 C 0.88602 0.56801 0.86197 0.0
C203 C 0.88518 0.53792 0.88913 0.0
C204 C 0.95179 0.59635 0.83968 0.0
C205 C 1.01159 0.59413 0.84409 0.0
U206 U 0.16897 0.54864 0.9035 0.0
O207 O 0.196 0.49631 0.87745 0.0
O208 O 0.28916 0.59551 0.88102 0.0
C209 C 0.27132 0.54478 0.87088 0.0
C210 C 1.07463 0.55928 0.87345 0.0
C211 C 0.33568 0.54047 0.87013 0.0
C212 C 0.42902 0.53945 0.83655 0.0
C213 C 0.36873 0.54164 0.8392 0.0
C214 C 0.42676 0.53307 0.89573 0.0
C215 C 0.45985 0.53455 0.8646 0.0
C216 C 0.36677 0.53611 0.89844 0.0
C217 C 0.15375 0.53893 1.00617 0.0
C218 C 0.19524 0.54042 0.06202 0.0
C219 C 1.08198 0.52901 0.05626 0.0
C220 C 1.09208 0.53196 0.02125 0.0
C221 C 0.13376 0.53365 0.07727 0.0
C222 C 0.20468 0.54262 0.02704 0.0
C223 C 0.16659 0.54226 0.96909 0.0
O224 O 0.14807 0.60616 0.88285 0.0
O225 O 1.05373 0.50684 0.8803 0.0
O226 O 1.11751 0.49363 0.94969 0.0
O227 O 0.21352 0.59481 0.95324 0.0
H228 H 0.94025 0.51244 0.91505 0.0
H229 H 0.83679 0.51479 0.90716 0.0
H230 H 0.95601 0.61889 0.81793 0.0
H231 H 1.05843 0.61527 0.82539 0.0
H232 H 0.45199 0.54186 0.81202 0.0
H233 H 0.34826 0.54502 0.81648 0.0
H234 H 0.44878 0.53106 0.91838 0.0
H235 H 0.34528 0.5356 0.92295 0.0
H236 H 0.23579 0.54359 0.07715 0.0
H237 H 1.03417 0.52416 0.06693 0.0
H238 H 1.0519 0.52907 1.00601 0.0
H239 H 0.25232 0.54736 0.01621 0.0
C240 C 0.96915 0.36267 0.48878 0.0
C241 C 0.9154 0.32957 0.46257 0.0
C242 C 0.84485 0.23192 0.49099 0.0
C243 C 0.85368 0.26502 0.46382 0.0
C244 C 0.9001 0.26492 0.51668 0.0
C245 C 0.96112 0.32959 0.51568 0.0
U246 U 1.12237 0.53368 0.45491 0.0
O247 O 0.23951 0.6096 0.4769 0.0
O248 O 0.14851 0.61406 0.47871 0.0
C249 C 0.22108 0.6412 0.48661 0.0
C250 C 1.0307 0.43134 0.49012 0.0
C251 C 0.28475 0.70953 0.48505 0.0
C252 C 0.38073 0.80708 0.5154 0.0
C253 C 0.31742 0.74288 0.51514 0.0
C254 C 0.37875 0.80676 0.4553 0.0
C255 C 0.41217 0.83975 0.48555 0.0
C256 C 0.31568 0.74201 0.45501 0.0
C257 C 1.117 0.52736 0.35318 0.0
C258 C 0.16851 0.58212 0.30057 0.0
C259 C 1.07181 0.47061 0.30053 0.0
C260 C 1.0692 0.47137 0.33537 0.0
C261 C 1.122 0.52591 0.28271 0.0
C262 C 0.16627 0.58283 0.33559 0.0
C263 C 1.11636 0.52675 0.38992 0.0
O264 O 1.10286 0.45893 0.47969 0.0
O265 O 1.00963 0.46075 0.48181 0.0
O266 O 1.07163 0.53074 0.40831 0.0
O267 O 0.16537 0.52765 0.40633 0.0
H268 H 0.91999 0.35363 0.44154 0.0
H269 H 0.81201 0.24085 0.44358 0.0
H270 H 0.89413 0.24105 0.53819 0.0
H271 H 1.00116 0.35405 0.53643 0.0
H272 H 0.40572 0.83123 0.539 0.0
H273 H 0.29477 0.71898 0.53863 0.0
H274 H 0.40289 0.83086 0.4319 0.0
H275 H 0.29201 0.71738 0.43147 0.0
H276 H 0.20837 0.62544 0.28754 0.0
H277 H 1.03527 0.42658 0.2875 0.0
H278 H 1.03069 0.42807 0.34845 0.0
H279 H 0.20389 0.62657 0.3489 0.0
C280 C 0.64022 0.92112 0.81001 0.0
C281 C 0.61774 0.87409 0.78789 0.0
C282 C 0.67735 0.85021 0.82366 0.0
C283 C 0.63564 0.83872 0.79476 0.0
C284 C 0.69539 0.89515 0.84652 0.0
C285 C 0.67685 0.9299 0.83978 0.0
U286 U 0.62488 1.01489 0.75145 0.0
O287 O 0.56491 0.04816 0.76117 0.0
O288 O 0.69513 0.11464 0.75544 0.0
C289 C 0.63201 0.10643 0.76101 0.0
C290 C 0.63283 0.96524 0.80204 0.0
C291 C 0.63942 0.1499 0.78405 0.0
C292 C 0.59746 0.17222 0.83335 0.0
C293 C 0.6029 0.13337 0.81581 0.0
C294 C 0.66956 0.24566 0.78864 0.0
C295 C 0.62731 0.22722 0.81901 0.0
C296 C 0.67567 0.20749 0.77144 0.0
C297 C 0.61657 0.99837 0.65549 0.0
C298 C 0.59512 0.04893 0.61843 0.0
C299 C 0.63238 0.99547 0.59519 0.0
C300 C 0.63414 0.97969 0.62742 0.0
C301 C 0.61228 0.0299 0.59025 0.0
C302 C 0.59773 0.03369 0.65072 0.0
C303 C 0.61773 0.98006 0.68924 0.0
O304 O 0.69525 1.01578 0.78733 0.0
O305 O 0.56527 0.94332 0.79001 0.0
O306 O 0.55462 0.95416 0.70839 0.0
O307 O 0.68448 1.02018 0.70544 0.0
H308 H 0.58855 0.86592 0.76492 0.0
H309 H 0.61835 0.80331 0.77699 0.0
H310 H 0.72757 0.906 0.86895 0.0
H311 H 0.69428 0.96566 0.85734 0.0
H312 H 0.56502 0.15722 0.85686 0.0
H313 H 0.57504 0.08931 0.82617 0.0
H314 H 0.69393 0.28813 0.77724 0.0
H315 H 0.70447 0.22132 0.7471 0.0
H316 H 0.57942 0.07551 0.61551 0.0
H317 H 0.64476 0.97935 0.5741 0.0
H318 H 0.64859 0.95227 0.63041 0.0
H319 H 0.58435 0.049 0.67192 0.0
C320 C 0.58904 0.36838 0.15441 0.0
C321 C 0.64732 0.37634 0.13516 0.0
C322 C 0.72974 0.41887 0.18369 0.0
C323 C 0.71783 0.40139 0.14993 0.0
C324 C 0.66625 0.4005 0.20386 0.0
C325 C 0.59557 0.37515 0.18913 0.0
U326 U 0.527 0.40609 0.08125 0.0
O327 O 0.42031 0.39278 0.08008 0.0
O328 O 0.53998 0.48536 0.07739 0.0
C329 C 0.46425 0.45263 0.08282 0.0
C330 C 0.54151 0.3773 0.1391 0.0
C331 C 0.45354 0.47549 0.1126 0.0
C332 C 0.50324 0.51292 0.16857 0.0
C333 C 0.47658 0.47031 0.14293 0.0
C334 C 0.47454 0.56164 0.13512 0.0
C335 C 0.50287 0.55956 0.16526 0.0
C336 C 0.45036 0.5201 0.10917 0.0
C337 C 0.61389 0.44945 0.99691 0.0
C338 C 0.59892 0.51083 0.96703 0.0
C339 C 0.69234 0.50292 0.94733 0.0
C340 C 0.67159 0.4652 0.97378 0.0
C341 C 0.6565 0.52617 0.94377 0.0
C342 C 0.57743 0.4723 0.99347 0.0
C343 C 0.60042 0.41712 0.02707 0.0
O344 O 0.58484 0.43402 0.12907 0.0
O345 O 0.48708 0.33537 0.11773 0.0
O346 O 0.52613 0.36646 0.03372 0.0
O347 O 0.63782 0.45451 0.05278 0.0
H348 H 0.64343 0.372 0.10828 0.0
H349 H 0.76695 0.41559 0.13415 0.0
H350 H 0.67517 0.4141 0.2299 0.0
H351 H 0.55125 0.36975 0.20421 0.0
H352 H 0.52331 0.50886 0.19118 0.0
H353 H 0.47959 0.43602 0.14589 0.0
H354 H 0.47027 0.59501 0.13113 0.0
H355 H 0.43394 0.52528 0.08571 0.0
H356 H 0.56976 0.52746 0.96441 0.0
H357 H 0.73704 0.51424 0.92961 0.0
H358 H 0.70161 0.44928 0.97649 0.0
H359 H 0.53327 0.46107 1.01151 0.0
loop_
_geom_bond_atom_site_label_1
_geom_bond_atom_site_label_2
_geom_bond_distance
_geom_bond_site_symmetry_2
_ccdc_geom_bond_type
Sm0 C2 2.846 . S
Sm0 O20 2.543 . S
Sm0 O21 2.450 . S
Sm0 O22 2.681 . S
Sm0 O23 2.464 . S
Sm0 O24 2.396 . S
Sm0 O28 2.386 . S
Sm0 O31 2.408 1_455 S
Sm1 C11 2.846 . S
Sm1 O22 2.386 1_655 S
Sm1 O25 2.408 1_655 S
Sm1 O26 2.543 . S
Sm1 O27 2.450 . S
Sm1 O28 2.681 1_655 S
Sm1 O29 2.464 . S
Sm1 O30 2.396 . S
C2 Sm0 2.846 . S
C2 C3 1.506 . S
C2 O20 1.261 . S
C2 O21 1.242 . S
C3 C2 1.506 . S
C3 C4 1.358 . S
C3 C8 1.382 . S
C4 C3 1.358 . S
C4 C5 1.385 . S
C4 H32 0.930 . S
C5 C4 1.385 . S
C5 C6 1.395 . S
C5 H33 0.929 . S
C6 C5 1.395 . S
C6 C7 1.335 . S
C7 C6 1.335 . S
C7 C8 1.398 . S
C7 H34 0.930 . S
C8 C3 1.382 . S
C8 C7 1.398 . S
C8 H35 0.929 . S
C9 O22 1.271 . S
C9 O23 1.251 . S
C10 O24 1.252 . S
C10 O25 1.272 . S
C11 Sm1 2.846 . S
C11 C12 1.506 . S
C11 O26 1.261 . S
C11 O27 1.242 . S
C12 C11 1.506 . S
C12 C13 1.358 . S
C12 C17 1.382 . S
C13 C12 1.358 . S
C13 C14 1.385 . S
C13 H36 0.930 . S
C14 C13 1.385 . S
C14 C15 1.395 . S
C14 H37 0.929 . S
C15 C14 1.395 . S
C15 C16 1.335 . S
C16 C15 1.335 . S
C16 C17 1.398 . S
C16 H38 0.930 . S
C17 C12 1.382 . S
C17 C16 1.398 . S
C17 H39 0.929 . S
C18 O28 1.271 . S
C18 O29 1.251 1_455 S
C19 O30 1.252 . S
C19 O31 1.272 . S
O20 Sm0 2.543 . S
O20 C2 1.261 . S
O21 Sm0 2.450 . S
O21 C2 1.242 . S
O22 Sm0 2.681 . S
O22 Sm1 2.386 1_455 S
O22 C9 1.271 . S
O23 Sm0 2.464 . S
O23 C9 1.251 . S
O24 Sm0 2.396 . S
O24 C10 1.252 . S
O25 Sm1 2.408 1_455 S
O25 C10 1.272 . S
O26 Sm1 2.543 . S
O26 C11 1.261 . S
O27 Sm1 2.450 . S
O27 C11 1.242 . S
O28 Sm0 2.386 . S
O28 Sm1 2.681 1_455 S
O28 C18 1.271 . S
O29 Sm1 2.464 . S
O29 C18 1.251 1_655 S
O30 Sm1 2.396 . S
O30 C19 1.252 . S
O31 Sm0 2.408 1_655 S
O31 C19 1.272 . S
H32 C4 0.930 . S
H33 C5 0.929 . S
H34 C7 0.930 . S
H35 C8 0.929 . S
H36 C13 0.930 . S
H37 C14 0.929 . S
H38 C16 0.930 . S
H39 C17 0.929 . S
Sm40 C42 2.846 . S
Sm40 O60 2.543 . S
Sm40 O61 2.450 . S
Sm40 O62 2.681 1_565 S
Sm40 O63 2.464 . S
Sm40 O64 2.396 . S
Sm40 O68 2.386 . S
Sm40 O71 2.408 1_565 S
Sm41 C51 2.846 . S
Sm41 O62 2.386 . S
Sm41 O65 2.408 1_545 S
Sm41 O66 2.543 . S
Sm41 O67 2.450 . S
Sm41 O68 2.681 1_545 S
Sm41 O69 2.464 . S
Sm41 O70 2.396 . S
C42 Sm40 2.846 . S
C42 C43 1.506 . S
C42 O60 1.261 . S
C42 O61 1.242 . S
C43 C42 1.506 . S
C43 C44 1.358 . S
C43 C48 1.382 . S
C44 C43 1.358 . S
C44 C45 1.385 . S
C44 H72 0.930 . S
C45 C44 1.385 . S
C45 C46 1.395 . S
C45 H73 0.929 . S
C46 C45 1.395 . S
C46 C47 1.335 . S
C47 C46 1.335 . S
C47 C48 1.398 . S
C47 H74 0.930 . S
C48 C43 1.382 . S
C48 C47 1.398 . S
C48 H75 0.929 . S
C49 O62 1.271 . S
C49 O63 1.251 1_545 S
C50 O64 1.252 . S
C50 O65 1.272 . S
C51 Sm41 2.846 . S
C51 C52 1.506 . S
C51 O66 1.261 . S
C51 O67 1.242 . S
C52 C51 1.506 . S
C52 C53 1.358 . S
C52 C57 1.382 . S
C53 C52 1.358 . S
C53 C54 1.385 . S
C53 H76 0.930 . S
C54 C53 1.385 . S
C54 C55 1.395 . S
C54 H77 0.929 . S
C55 C54 1.395 . S
C55 C56 1.335 . S
C56 C55 1.335 . S
C56 C57 1.398 . S
C56 H78 0.930 . S
C57 C52 1.382 . S
C57 C56 1.398 . S
C57 H79 0.929 . S
C58 O68 1.271 1_545 S
C58 O69 1.251 . S
C59 O70 1.252 . S
C59 O71 1.272 . S
O60 Sm40 2.543 . S
O60 C42 1.261 . S
O61 Sm40 2.450 . S
O61 C42 1.242 . S
O62 Sm40 2.681 1_545 S
O62 Sm41 2.386 . S
O62 C49 1.271 . S
O63 Sm40 2.464 . S
O63 C49 1.251 1_565 S
O64 Sm40 2.396 . S
O64 C50 1.252 . S
O65 Sm41 2.408 1_565 S
O65 C50 1.272 . S
O66 Sm41 2.543 . S
O66 C51 1.261 . S
O67 Sm41 2.450 . S
O67 C51 1.242 . S
O68 Sm40 2.386 . S
O68 Sm41 2.681 1_565 S
O68 C58 1.271 1_565 S
O69 Sm41 2.464 . S
O69 C58 1.251 . S
O70 Sm41 2.396 . S
O70 C59 1.252 . S
O71 Sm40 2.408 1_545 S
O71 C59 1.272 . S
H72 C44 0.930 . S
H73 C45 0.929 . S
H74 C47 0.930 . S
H75 C48 0.929 . S
H76 C53 0.930 . S
H77 C54 0.929 . S
H78 C56 0.930 . S
H79 C57 0.929 . S
Sm80 C82 2.846 . S
Sm80 O100 2.543 . S
Sm80 O101 2.450 . S
Sm80 O102 2.681 . S
Sm80 O103 2.464 . S
Sm80 O104 2.396 . S
Sm80 O108 2.386 . S
Sm80 O111 2.408 . S
Sm81 C91 2.846 . S
Sm81 O102 2.386 . S
Sm81 O105 2.408 . S
Sm81 O106 2.543 . S
Sm81 O107 2.450 . S
Sm81 O108 2.681 . S
Sm81 O109 2.464 . S
Sm81 O110 2.396 . S
C82 Sm80 2.846 . S
C82 C83 1.506 . S
C82 O100 1.261 . S
C82 O101 1.242 . S
C83 C82 1.506 . S
C83 C84 1.358 . S
C83 C88 1.382 . S
C84 C83 1.358 . S
C84 C85 1.385 . S
C84 H112 0.930 . S
C85 C84 1.385 . S
C85 C86 1.395 . S
C85 H113 0.929 . S
C86 C85 1.395 . S
C86 C87 1.335 . S
C87 C86 1.335 . S
C87 C88 1.398 . S
C87 H114 0.930 . S
C88 C83 1.382 . S
C88 C87 1.398 . S
C88 H115 0.929 . S
C89 O102 1.271 . S
C89 O103 1.251 . S
C90 O104 1.252 . S
C90 O105 1.272 . S
C91 Sm81 2.846 . S
C91 C92 1.506 . S
C91 O106 1.261 . S
C91 O107 1.242 . S
C92 C91 1.506 . S
C92 C93 1.358 . S
C92 C97 1.382 . S
C93 C92 1.358 . S
C93 C94 1.385 . S
C93 H116 0.930 . S
C94 C93 1.385 . S
C94 C95 1.395 . S
C94 H117 0.929 . S
C95 C94 1.395 . S
C95 C96 1.335 . S
C96 C95 1.335 . S
C96 C97 1.398 . S
C96 H118 0.930 . S
C97 C92 1.382 . S
C97 C96 1.398 . S
C97 H119 0.929 . S
C98 O108 1.271 . S
C98 O109 1.251 . S
C99 O110 1.252 . S
C99 O111 1.272 . S
O100 Sm80 2.543 . S
O100 C82 1.261 . S
O101 Sm80 2.450 . S
O101 C82 1.242 . S
O102 Sm80 2.681 . S
O102 Sm81 2.386 . S
O102 C89 1.271 . S
O103 Sm80 2.464 . S
O103 C89 1.251 . S
O104 Sm80 2.396 . S
O104 C90 1.252 . S
O105 Sm81 2.408 . S
O105 C90 1.272 . S
O106 Sm81 2.543 . S
O106 C91 1.261 . S
O107 Sm81 2.450 . S
O107 C91 1.242 . S
O108 Sm80 2.386 . S
O108 Sm81 2.681 . S
O108 C98 1.271 . S
O109 Sm81 2.464 . S
O109 C98 1.251 . S
O110 Sm81 2.396 . S
O110 C99 1.252 . S
O111 Sm80 2.408 . S
O111 C99 1.272 . S
H112 C84 0.930 . S
H113 C85 0.929 . S
H114 C87 0.930 . S
H115 C88 0.929 . S
H116 C93 0.930 . S
H117 C94 0.929 . S
H118 C96 0.930 . S
H119 C97 0.929 . S
C120 C121 1.264 . S
C120 C125 1.479 . S
C120 C130 1.465 . S
C121 C120 1.264 . S
C121 C123 1.339 . S
C121 H148 0.931 . S
C122 C123 1.395 . S
C122 C124 1.320 . S
C123 C121 1.339 . S
C123 C122 1.395 . S
C123 H149 0.929 . S
C124 C122 1.320 . S
C124 C125 1.405 . S
C124 H150 0.930 . S
C125 C120 1.479 . S
C125 C124 1.405 . S
C125 H151 0.931 . S
U126 O127 2.454 1_545 S
U126 O128 2.458 1_545 S
U126 C129 2.984 1_545 S
U126 C130 2.847 . S
U126 C143 2.882 . S
U126 O144 2.441 . S
U126 O145 2.420 . S
U126 O146 2.455 1_545 S
U126 O147 2.449 . S
O127 U126 2.454 1_565 S
O127 C129 1.353 . S
O128 U126 2.458 1_565 S
O128 C129 1.286 . S
C129 U126 2.984 1_565 S
C129 O127 1.353 . S
C129 O128 1.286 . S
C129 C131 1.363 . S
C130 C120 1.465 . S
C130 U126 2.847 . S
C130 O144 1.249 . S
C130 O145 1.202 . S
C131 C129 1.363 . S
C131 C133 1.408 . S
C131 C136 1.342 . S
C132 C133 1.310 . S
C132 C135 1.461 . S
C132 H152 0.932 . S
C133 C131 1.408 . S
C133 C132 1.310 . S
C133 H153 0.930 . S
C134 C135 1.474 . S
C134 C136 1.285 . S
C134 H154 0.929 . S
C135 C132 1.461 . S
C135 C134 1.474 . S
C136 C131 1.342 . S
C136 C134 1.285 . S
C136 H155 0.930 . S
C137 C140 1.424 . S
C137 C142 1.245 1_545 S
C137 C143 1.428 . S
C138 C141 1.260 1_565 S
C138 C142 1.477 . S
C138 H156 0.932 . S
C139 C140 1.384 . S
C139 C141 1.479 . S
C139 H157 0.929 . S
C140 C137 1.424 . S
C140 C139 1.384 . S
C140 H158 0.928 . S
C141 C138 1.260 1_545 S
C141 C139 1.479 . S
C142 C137 1.245 1_565 S
C142 C138 1.477 . S
C142 H159 0.932 . S
C143 U126 2.882 . S
C143 C137 1.428 . S
C143 O146 1.301 1_545 S
C143 O147 1.282 . S
O144 U126 2.441 . S
O144 C130 1.249 . S
O145 U126 2.420 . S
O145 C130 1.202 . S
O146 U126 2.455 1_565 S
O146 C143 1.301 1_565 S
O147 U126 2.449 . S
O147 C143 1.282 . S
H148 C121 0.931 . S
H149 C123 0.929 . S
H150 C124 0.930 . S
H151 C125 0.931 . S
H152 C132 0.932 . S
H153 C133 0.930 . S
H154 C134 0.929 . S
H155 C136 0.930 . S
H156 C138 0.932 . S
H157 C139 0.929 . S
H158 C140 0.928 . S
H159 C142 0.932 . S
C160 C161 1.264 . S
C160 C165 1.479 . S
C160 C170 1.465 . S
C161 C160 1.264 . S
C161 C163 1.339 . S
C161 H188 0.931 . S
C162 C163 1.395 . S
C162 C164 1.320 . S
C163 C161 1.339 . S
C163 C162 1.395 . S
C163 H189 0.929 . S
C164 C162 1.320 . S
C164 C165 1.405 . S
C164 H190 0.930 . S
C165 C160 1.479 . S
C165 C164 1.405 . S
C165 H191 0.931 . S
U166 O167 2.454 . S
U166 O168 2.458 . S
U166 C169 2.984 . S
U166 C170 2.847 . S
U166 C183 2.882 . S
U166 O184 2.441 . S
U166 O185 2.420 . S
U166 O186 2.455 . S
U166 O187 2.449 . S
O167 U166 2.454 . S
O167 C169 1.353 . S
O168 U166 2.458 . S
O168 C169 1.286 . S
C169 U166 2.984 . S
C169 O167 1.353 . S
C169 O168 1.286 . S
C169 C171 1.363 . S
C170 C160 1.465 . S
C170 U166 2.847 . S
C170 O184 1.249 . S
C170 O185 1.202 . S
C171 C169 1.363 . S
C171 C173 1.408 . S
C171 C176 1.342 . S
C172 C173 1.310 . S
C172 C175 1.461 . S
C172 H192 0.932 . S
C173 C171 1.408 . S
C173 C172 1.310 . S
C173 H193 0.930 . S
C174 C175 1.474 . S
C174 C176 1.285 . S
C174 H194 0.929 . S
C175 C172 1.461 . S
C175 C174 1.474 . S
C176 C171 1.342 . S
C176 C174 1.285 . S
C176 H195 0.930 . S
C177 C180 1.424 . S
C177 C182 1.245 . S
C177 C183 1.428 . S
C178 C181 1.260 . S
C178 C182 1.477 . S
C178 H196 0.932 . S
C179 C180 1.384 . S
C179 C181 1.479 . S
C179 H197 0.929 . S
C180 C177 1.424 . S
C180 C179 1.384 . S
C180 H198 0.928 . S
C181 C178 1.260 . S
C181 C179 1.479 . S
C182 C177 1.245 . S
C182 C178 1.477 . S
C182 H199 0.932 . S
C183 U166 2.882 . S
C183 C177 1.428 . S
C183 O186 1.301 . S
C183 O187 1.282 . S
O184 U166 2.441 . S
O184 C170 1.249 . S
O185 U166 2.420 . S
O185 C170 1.202 . S
O186 U166 2.455 . S
O186 C183 1.301 . S
O187 U166 2.449 . S
O187 C183 1.282 . S
H188 C161 0.931 . S
H189 C163 0.929 . S
H190 C164 0.930 . S
H191 C165 0.931 . S
H192 C172 0.932 . S
H193 C173 0.930 . S
H194 C174 0.929 . S
H195 C176 0.930 . S
H196 C178 0.932 . S
H197 C179 0.929 . S
H198 C180 0.928 . S
H199 C182 0.932 . S
C200 C201 1.264 . S
C200 C205 1.479 . S
C200 C210 1.465 . S
C201 C200 1.264 . S
C201 C203 1.339 . S
C201 H228 0.931 . S
C202 C203 1.395 . S
C202 C204 1.320 . S
C203 C201 1.339 . S
C203 C202 1.395 . S
C203 H229 0.929 . S
C204 C202 1.320 . S
C204 C205 1.405 . S
C204 H230 0.930 . S
C205 C200 1.479 . S
C205 C204 1.405 . S
C205 H231 0.931 . S
U206 O207 2.454 . S
U206 O208 2.458 . S
U206 C209 2.984 . S
U206 C210 2.847 1_455 S
U206 C223 2.882 . S
U206 O224 2.441 1_455 S
U206 O225 2.420 1_455 S
U206 O226 2.455 . S
U206 O227 2.449 1_455 S
O207 U206 2.454 . S
O207 C209 1.353 . S
O208 U206 2.458 . S
O208 C209 1.286 . S
C209 U206 2.984 . S
C209 O207 1.353 . S
C209 O208 1.286 . S
C209 C211 1.363 . S
C210 C200 1.465 . S
C210 U206 2.847 1_655 S
C210 O224 1.249 . S
C210 O225 1.202 . S
C211 C209 1.363 . S
C211 C213 1.408 . S
C211 C216 1.342 . S
C212 C213 1.310 . S
C212 C215 1.461 . S
C212 H232 0.932 . S
C213 C211 1.408 . S
C213 C212 1.310 . S
C213 H233 0.930 . S
C214 C215 1.474 . S
C214 C216 1.285 . S
C214 H234 0.929 . S
C215 C212 1.461 . S
C215 C214 1.474 . S
C216 C211 1.342 . S
C216 C214 1.285 . S
C216 H235 0.930 . S
C217 C220 1.416 1_456 S
C217 C222 1.235 1_556 S
C217 C223 1.447 . S
C218 C221 1.260 . S
C218 C222 1.477 . S
C218 H236 0.932 . S
C219 C220 1.384 . S
C219 C221 1.479 1_655 S
C219 H237 0.929 . S
C220 C217 1.416 1_654 S
C220 C219 1.384 . S
C220 H238 0.928 . S
C221 C218 1.260 . S
C221 C219 1.479 1_455 S
C222 C217 1.235 1_554 S
C222 C218 1.477 . S
C222 H239 0.932 . S
C223 U206 2.882 . S
C223 C217 1.447 . S
C223 O226 1.301 . S
C223 O227 1.282 1_455 S
O224 U206 2.441 1_655 S
O224 C210 1.249 . S
O225 U206 2.420 1_655 S
O225 C210 1.202 . S
O226 U206 2.455 . S
O226 C223 1.301 . S
O227 U206 2.449 1_655 S
O227 C223 1.282 1_655 S
H228 C201 0.931 . S
H229 C203 0.929 . S
H230 C204 0.930 . S
H231 C205 0.931 . S
H232 C212 0.932 . S
H233 C213 0.930 . S
H234 C214 0.929 . S
H235 C216 0.930 . S
H236 C218 0.932 . S
H237 C219 0.929 . S
H238 C220 0.928 . S
H239 C222 0.932 . S
C240 C241 1.264 . S
C240 C245 1.479 . S
C240 C250 1.465 . S
C241 C240 1.264 . S
C241 C243 1.339 . S
C241 H268 0.931 . S
C242 C243 1.395 . S
C242 C244 1.320 . S
C243 C241 1.339 . S
C243 C242 1.395 . S
C243 H269 0.929 . S
C244 C242 1.320 . S
C244 C245 1.405 . S
C244 H270 0.930 . S
C245 C240 1.479 . S
C245 C244 1.405 . S
C245 H271 0.931 . S
U246 O247 2.454 1_655 S
U246 O248 2.458 1_655 S
U246 C249 2.984 1_655 S
U246 C250 2.847 . S
U246 C263 2.882 . S
U246 O264 2.441 . S
U246 O265 2.420 . S
U246 O266 2.455 1_655 S
U246 O267 2.449 . S
O247 U246 2.454 1_455 S
O247 C249 1.353 . S
O248 U246 2.458 1_455 S
O248 C249 1.286 . S
C249 U246 2.984 1_455 S
C249 O247 1.353 . S
C249 O248 1.286 . S
C249 C251 1.363 . S
C250 C240 1.465 . S
C250 U246 2.847 . S
C250 O264 1.249 . S
C250 O265 1.202 . S
C251 C249 1.363 . S
C251 C253 1.408 . S
C251 C256 1.342 . S
C252 C253 1.310 . S
C252 C255 1.461 . S
C252 H272 0.932 . S
C253 C251 1.408 . S
C253 C252 1.310 . S
C253 H273 0.930 . S
C254 C255 1.474 . S
C254 C256 1.285 . S
C254 H274 0.929 . S
C255 C252 1.461 . S
C255 C254 1.474 . S
C256 C251 1.342 . S
C256 C254 1.285 . S
C256 H275 0.930 . S
C257 C260 1.424 . S
C257 C262 1.245 1_655 S
C257 C263 1.428 . S
C258 C261 1.260 1_455 S
C258 C262 1.477 . S
C258 H276 0.932 . S
C259 C260 1.384 . S
C259 C261 1.479 . S
C259 H277 0.929 . S
C260 C257 1.424 . S
C260 C259 1.384 . S
C260 H278 0.928 . S
C261 C258 1.260 1_655 S
C261 C259 1.479 . S
C262 C257 1.245 1_455 S
C262 C258 1.477 . S
C262 H279 0.932 . S
C263 U246 2.882 . S
C263 C257 1.428 . S
C263 O266 1.301 1_655 S
C263 O267 1.282 . S
O264 U246 2.441 . S
O264 C250 1.249 . S
O265 U246 2.420 . S
O265 C250 1.202 . S
O266 U246 2.455 1_455 S
O266 C263 1.301 1_455 S
O267 U246 2.449 . S
O267 C263 1.282 . S
H268 C241 0.931 . S
H269 C243 0.929 . S
H270 C244 0.930 . S
H271 C245 0.931 . S
H272 C252 0.932 . S
H273 C253 0.930 . S
H274 C254 0.929 . S
H275 C256 0.930 . S
H276 C258 0.932 . S
H277 C259 0.929 . S
H278 C260 0.928 . S
H279 C262 0.932 . S
C280 C281 1.264 . S
C280 C285 1.479 . S
C280 C290 1.465 . S
C281 C280 1.264 . S
C281 C283 1.339 . S
C281 H308 0.931 . S
C282 C283 1.395 . S
C282 C284 1.320 . S
C283 C281 1.339 . S
C283 C282 1.395 . S
C283 H309 0.929 . S
C284 C282 1.320 . S
C284 C285 1.405 . S
C284 H310 0.930 . S
C285 C280 1.479 . S
C285 C284 1.405 . S
C285 H311 0.931 . S
U286 O287 2.454 1_565 S
U286 O288 2.458 1_565 S
U286 C289 2.984 1_565 S
U286 C290 2.847 . S
U286 C303 2.882 . S
U286 O304 2.441 . S
U286 O305 2.420 . S
U286 O306 2.455 1_565 S
U286 O307 2.449 . S
O287 U286 2.454 1_545 S
O287 C289 1.353 . S
O288 U286 2.458 1_545 S
O288 C289 1.286 . S
C289 U286 2.984 1_545 S
C289 O287 1.353 . S
C289 O288 1.286 . S
C289 C291 1.363 . S
C290 C280 1.465 . S
C290 U286 2.847 . S
C290 O304 1.249 . S
C290 O305 1.202 . S
C291 C289 1.363 . S
C291 C293 1.408 . S
C291 C296 1.342 . S
C292 C293 1.310 . S
C292 C295 1.461 . S
C292 H312 0.932 . S
C293 C291 1.408 . S
C293 C292 1.310 . S
C293 H313 0.930 . S
C294 C295 1.474 . S
C294 C296 1.285 . S
C294 H314 0.929 . S
C295 C292 1.461 . S
C295 C294 1.474 . S
C296 C291 1.342 . S
C296 C294 1.285 . S
C296 H315 0.930 . S
C297 C300 1.424 . S
C297 C302 1.245 1_565 S
C297 C303 1.428 . S
C298 C301 1.260 1_545 S
C298 C302 1.477 . S
C298 H316 0.932 . S
C299 C300 1.384 . S
C299 C301 1.479 . S
C299 H317 0.929 . S
C300 C297 1.424 . S
C300 C299 1.384 . S
C300 H318 0.928 . S
C301 C298 1.260 1_565 S
C301 C299 1.479 . S
C302 C297 1.245 1_545 S
C302 C298 1.477 . S
C302 H319 0.932 . S
C303 U286 2.882 . S
C303 C297 1.428 . S
C303 O306 1.301 1_565 S
C303 O307 1.282 . S
O304 U286 2.441 . S
O304 C290 1.249 . S
O305 U286 2.420 . S
O305 C290 1.202 . S
O306 U286 2.455 1_545 S
O306 C303 1.301 1_545 S
O307 U286 2.449 . S
O307 C303 1.282 . S
H308 C281 0.931 . S
H309 C283 0.929 . S
H310 C284 0.930 . S
H311 C285 0.931 . S
H312 C292 0.932 . S
H313 C293 0.930 . S
H314 C294 0.929 . S
H315 C296 0.930 . S
H316 C298 0.932 . S
H317 C299 0.929 . S
H318 C300 0.928 . S
H319 C302 0.932 . S
C320 C321 1.264 . S
C320 C325 1.479 . S
C320 C330 1.465 . S
C321 C320 1.264 . S
C321 C323 1.339 . S
C321 H348 0.931 . S
C322 C323 1.395 . S
C322 C324 1.320 . S
C323 C321 1.339 . S
C323 C322 1.395 . S
C323 H349 0.929 . S
C324 C322 1.320 . S
C324 C325 1.405 . S
C324 H350 0.930 . S
C325 C320 1.479 . S
C325 C324 1.405 . S
C325 H351 0.931 . S
U326 O327 2.454 . S
U326 O328 2.458 . S
U326 C329 2.984 . S
U326 C330 2.847 . S
U326 C343 2.882 . S
U326 O344 2.441 . S
U326 O345 2.420 . S
U326 O346 2.455 . S
U326 O347 2.449 . S
O327 U326 2.454 . S
O327 C329 1.353 . S
O328 U326 2.458 . S
O328 C329 1.286 . S
C329 U326 2.984 . S
C329 O327 1.353 . S
C329 O328 1.286 . S
C329 C331 1.363 . S
C330 C320 1.465 . S
C330 U326 2.847 . S
C330 O344 1.249 . S
C330 O345 1.202 . S
C331 C329 1.363 . S
C331 C333 1.408 . S
C331 C336 1.342 . S
C332 C333 1.310 . S
C332 C335 1.461 . S
C332 H352 0.932 . S
C333 C331 1.408 . S
C333 C332 1.310 . S
C333 H353 0.930 . S
C334 C335 1.474 . S
C334 C336 1.285 . S
C334 H354 0.929 . S
C335 C332 1.461 . S
C335 C334 1.474 . S
C336 C331 1.342 . S
C336 C334 1.285 . S
C336 H355 0.930 . S
C337 C340 1.424 . S
C337 C342 1.245 . S
C337 C343 1.428 1_556 S
C338 C341 1.260 . S
C338 C342 1.477 . S
C338 H356 0.932 . S
C339 C340 1.384 . S
C339 C341 1.479 . S
C339 H357 0.929 . S
C340 C337 1.424 . S
C340 C339 1.384 . S
C340 H358 0.928 . S
C341 C338 1.260 . S
C341 C339 1.479 . S
C342 C337 1.245 . S
C342 C338 1.477 . S
C342 H359 0.932 . S
C343 U326 2.882 . S
C343 C337 1.428 1_554 S
C343 O346 1.301 . S
C343 O347 1.282 . S
O344 U326 2.441 . S
O344 C330 1.249 . S
O345 U326 2.420 . S
O345 C330 1.202 . S
O346 U326 2.455 . S
O346 C343 1.301 . S
O347 U326 2.449 . S
O347 C343 1.282 . S
H348 C321 0.931 . S
H349 C323 0.929 . S
H350 C324 0.930 . S
H351 C325 0.931 . S
H352 C332 0.932 . S
H353 C333 0.930 . S
H354 C334 0.929 . S
H355 C336 0.930 . S
H356 C338 0.932 . S
H357 C339 0.929 . S
H358 C340 0.928 . S
H359 C342 0.932 . S
C6 C335 2.779 . S
C59 C242 3.127 . S
C86 C282 2.029 . S
C15 C322 1.228 . S
C255 C50 3.570 . S
C295 C95 1.379 . S
C46 C162 1.265 . S
C99 C202 5.228 . S
C10 C135 3.700 . S
C175 C55 1.436 . S
C215 C90 5.119 . S
C19 C122 3.135 . S
C221 C18 2.009 . S
C49 C141 1.310 . S
C98 C181 1.440 . S
C301 C58 1.529 1_565 S
C341 C89 1.608 . S
C9 C261 1.292 1_455 S
