# Generated by pormake.
# Topology csq, (4,8)-cn, num edge types: 1
# Building blocks:
#     Node 0, Type 0, BuildingBlock: NAWXER_clean_sbu_0, # of connection points: 4
#     Node 1, Type 0, BuildingBlock: NAWXER_clean_sbu_0, # of connection points: 4
#     Node 2, Type 0, BuildingBlock: NAWXER_clean_sbu_0, # of connection points: 4
#     Node 3, Type 0, BuildingBlock: NAWXER_clean_sbu_0, # of connection points: 4
#     Node 4, Type 0, BuildingBlock: NAWXER_clean_sbu_0, # of connection points: 4
#     Node 5, Type 0, BuildingBlock: NAWXER_clean_sbu_0, # of connection points: 4
#     Node 6, Type 1, BuildingBlock: TAGTUT_clean_sbu_1, # of connection points: 8
#     Node 7, Type 1, BuildingBlock: TAGTUT_clean_sbu_1, # of connection points: 8
#     Node 8, Type 1, BuildingBlock: TAGTUT_clean_sbu_1, # of connection points: 8
#     Edge 9, Type (0, 1), BuildingBlock: TEMPAE_clean_linker_10, # of connection points: 2
#     Edge 10, Type (0, 1), BuildingBlock: TEMPAE_clean_linker_10, # of connection points: 2
#     Edge 11, Type (0, 1), BuildingBlock: TEMPAE_clean_linker_10, # of connection points: 2
#     Edge 12, Type (0, 1), BuildingBlock: TEMPAE_clean_linker_10, # of connection points: 2
#     Edge 13, Type (0, 1), BuildingBlock: TEMPAE_clean_linker_10, # of connection points: 2
#     Edge 14, Type (0, 1), BuildingBlock: TEMPAE_clean_linker_10, # of connection points: 2
#     Edge 15, Type (0, 1), BuildingBlock: TEMPAE_clean_linker_10, # of connection points: 2
#     Edge 16, Type (0, 1), BuildingBlock: TEMPAE_clean_linker_10, # of connection points: 2
#     Edge 17, Type (0, 1), BuildingBlock: TEMPAE_clean_linker_10, # of connection points: 2
#     Edge 18, Type (0, 1), BuildingBlock: TEMPAE_clean_linker_10, # of connection points: 2
#     Edge 19, Type (0, 1), BuildingBlock: TEMPAE_clean_linker_10, # of connection points: 2
#     Edge 20, Type (0, 1), BuildingBlock: TEMPAE_clean_linker_10, # of connection points: 2
#     Edge 21, Type (0, 1), BuildingBlock: TEMPAE_clean_linker_10, # of connection points: 2
#     Edge 22, Type (0, 1), BuildingBlock: TEMPAE_clean_linker_10, # of connection points: 2
#     Edge 23, Type (0, 1), BuildingBlock: TEMPAE_clean_linker_10, # of connection points: 2
#     Edge 24, Type (0, 1), BuildingBlock: TEMPAE_clean_linker_10, # of connection points: 2
#     Edge 25, Type (0, 1), BuildingBlock: TEMPAE_clean_linker_10, # of connection points: 2
#     Edge 26, Type (0, 1), BuildingBlock: TEMPAE_clean_linker_10, # of connection points: 2
#     Edge 27, Type (0, 1), BuildingBlock: TEMPAE_clean_linker_10, # of connection points: 2
#     Edge 28, Type (0, 1), BuildingBlock: TEMPAE_clean_linker_10, # of connection points: 2
#     Edge 29, Type (0, 1), BuildingBlock: TEMPAE_clean_linker_10, # of connection points: 2
#     Edge 30, Type (0, 1), BuildingBlock: TEMPAE_clean_linker_10, # of connection points: 2
#     Edge 31, Type (0, 1), BuildingBlock: TEMPAE_clean_linker_10, # of connection points: 2
#     Edge 32, Type (0, 1), BuildingBlock: TEMPAE_clean_linker_10, # of connection points: 2
# Relax obj value: 0.042
# Max RMSD: 0.128
# Mean RMSD: 0.072
data_MOF--net-csq--node1-NAWXER_clean_sbu_0--node2-TAGTUT_clean_sbu_1--edge1-TEMPAE_clean_linker_10
_symmetry_space_group_name_H-M    P1
_symmetry_Int_Tables_number       1
_symmetry_cell_setting            triclinic
loop_
_symmetry_equiv_pos_as_xyz
'x, y, z'
_cell_length_a     50.410873
_cell_length_b     49.819467
_cell_length_c     19.795077
_cell_angle_alpha  92.717477
_cell_angle_beta   92.53994
_cell_angle_gamma 119.78566
loop_
_atom_site_label
_atom_site_type_symbol
_atom_site_fract_x
_atom_site_fract_y
_atom_site_fract_z
_atom_type_partial_charge
C0 C 0.2992 0.50944 0.10106 0.0
C1 C 0.2211 0.50246 0.2515 0.0
O2 O 0.29675 0.53199 0.12645 0.0
Zn3 Zn 0.26023 0.50752 0.17472 0.0
O4 O 0.27986 0.48167 0.11395 0.0
Zn5 Zn 0.23991 0.45792 0.16905 0.0
O6 O 0.20766 0.43295 0.09757 0.0
O7 O 0.22709 0.48337 0.09157 0.0
O8 O 0.21847 0.47623 0.23264 0.0
O9 O 0.2416 0.52699 0.22789 0.0
O10 O 0.2761 0.4895 0.25325 0.0
O11 O 0.25323 0.43841 0.23457 0.0
C12 C 0.20885 0.45545 0.06736 0.0
C13 C 0.27161 0.46321 0.27086 0.0
C14 C 0.73703 0.19884 0.0719 0.0
C15 C 0.82606 0.25989 0.23395 0.0
O16 O 0.75722 0.19187 0.09033 0.0
Zn17 Zn 0.7805 0.22618 0.15833 0.0
O18 O 0.73772 0.22277 0.101 0.0
Zn19 Zn 0.76533 0.25952 0.17695 0.0
O20 O 0.78093 0.29619 0.12434 0.0
O21 O 0.79851 0.26456 0.09862 0.0
O22 O 0.80754 0.27033 0.22888 0.0
O23 O 0.81951 0.23417 0.20258 0.0
O24 O 0.75136 0.21649 0.23877 0.0
O25 O 0.73948 0.25346 0.25179 0.0
C26 C 0.79832 0.28977 0.09057 0.0
C27 C 0.73756 0.22846 0.27016 0.0
C28 C 0.58205 0.8276 0.15792 0.0
C29 C 0.57433 0.7555 0.97444 0.0
O30 O 0.6036 0.82732 0.12766 0.0
Zn31 Zn 0.57829 0.79207 0.06401 0.0
O32 O 0.55422 0.80668 0.14069 0.0
Zn33 Zn 0.52994 0.76804 0.06704 0.0
O34 O 0.50963 0.73295 0.12142 0.0
O35 O 0.55978 0.75255 0.12289 0.0
O36 O 0.54783 0.74948 0.99198 0.0
O37 O 0.59841 0.77917 0.00175 0.0
O38 O 0.55485 0.80895 0.00136 0.0
O39 O 0.50538 0.78093 0.01565 0.0
C40 C 0.53351 0.73172 0.13938 0.0
C41 C 0.52723 0.80304 0.98874 0.0
C42 C 0.79721 0.50677 0.98593 0.0
C43 C 0.71971 0.50085 0.13846 0.0
O44 O 0.80034 0.53314 0.00554 0.0
Zn45 Zn 0.77979 0.55179 0.07122 0.0
O46 O 0.77688 0.48239 0.01038 0.0
Zn47 Zn 0.75857 0.50209 0.06474 0.0
O48 O 0.74342 0.52113 0.98705 0.0
O49 O 0.76721 0.57226 0.00688 0.0
O50 O 0.72162 0.47802 0.11261 0.0
O51 O 0.73952 0.5285 0.1259 0.0
O52 O 0.81197 0.57593 0.14337 0.0
O53 O 0.79116 0.52533 0.14902 0.0
C54 C 0.74855 0.54773 0.97011 0.0
C55 C 0.80972 0.55307 0.17376 0.0
C56 C 0.20192 0.74553 0.17434 0.0
C57 C 0.2707 0.79885 0.99978 0.0
O58 O 0.20254 0.767 0.14089 0.0
Zn59 Zn 0.23841 0.7754 0.09344 0.0
O60 O 0.22268 0.73804 0.16808 0.0
Zn61 Zn 0.26123 0.7498 0.10912 0.0
O62 O 0.29569 0.7662 0.17593 0.0
O63 O 0.27511 0.79613 0.17173 0.0
O64 O 0.27643 0.77911 0.02627 0.0
O65 O 0.25134 0.80494 0.0248 0.0
O66 O 0.2199 0.73154 0.03486 0.0
O67 O 0.24732 0.70952 0.06332 0.0
C68 C 0.29515 0.79023 0.1982 0.0
C69 C 0.22504 0.70884 0.02897 0.0
C70 C 0.44164 0.25544 0.27645 0.0
C71 C 0.4351 0.18424 0.09373 0.0
O72 O 0.46834 0.26157 0.26014 0.0
Zn73 Zn 0.48685 0.24325 0.1863 0.0
O74 O 0.41775 0.23187 0.24829 0.0
Zn75 Zn 0.43845 0.21936 0.18738 0.0
O76 O 0.46116 0.20202 0.25114 0.0
O77 O 0.5108 0.22991 0.23894 0.0
O78 O 0.41339 0.18448 0.12328 0.0
O79 O 0.46291 0.20496 0.11182 0.0
O80 O 0.50775 0.2786 0.13261 0.0
O81 O 0.4576 0.25914 0.12893 0.0
C82 C 0.48864 0.20771 0.26497 0.0
C83 C 0.48407 0.27997 0.11341 0.0
C84 C 0.96596 0.42551 0.80249 0.0
C85 C 0.05981 0.46563 0.74232 0.0
C86 C 0.04736 0.56661 0.71282 0.0
Mg87 Mg 0.99581 0.4345 0.66535 0.0
O88 O 0.99474 0.4712 0.67814 0.0
Mg89 Mg 0.01517 0.49788 0.76476 0.0
Mg90 Mg 0.0066 0.50323 0.6115 0.0
O91 O 0.01895 0.53641 0.54874 0.0
Mg92 Mg 0.01372 0.57018 0.5758 0.0
Mg93 Mg 0.99668 0.51075 0.46303 0.0
C94 C 0.97328 0.44025 0.51305 0.0
C95 C 0.05187 0.49768 0.50441 0.0
O96 O 0.98447 0.45433 0.82079 0.0
O97 O 0.96555 0.41306 0.7439 0.0
O98 O 0.05327 0.48555 0.76731 0.0
O99 O 0.04151 0.44396 0.69814 0.0
O100 O 0.97984 0.42614 0.55801 0.0
O101 O 0.97529 0.46688 0.52645 0.0
C102 C 0.96164 0.51208 0.71549 0.0
O103 O 0.96678 0.5101 0.65287 0.0
O104 O 0.97759 0.50903 0.76291 0.0
O105 O 0.02314 0.558 0.41127 0.0
O106 O 0.03566 0.59643 0.49274 0.0
O107 O 0.9567 0.51987 0.47403 0.0
C108 C 0.0362 0.58708 0.43164 0.0
O109 O 0.9656 0.55585 0.55722 0.0
O110 O 0.03948 0.58265 0.67643 0.0
C111 C 0.94809 0.53604 0.50894 0.0
O112 O 0.03883 0.53825 0.6954 0.0
O113 O 0.04592 0.49681 0.56726 0.0
O114 O 0.03639 0.50253 0.45855 0.0
C115 C 0.43843 0.02126 0.79243 0.0
C116 C 0.41709 0.93457 0.69194 0.0
C117 C 0.53678 0.97359 0.729 0.0
Mg118 Mg 0.44244 -0.0001 0.64457 0.0
O119 O 0.48212 0.01283 0.68487 0.0
Mg120 Mg 0.48507 0.99182 0.76616 0.0
Mg121 Mg 0.51062 0.00671 0.62887 0.0
O122 O 0.53911 0.00058 0.57279 0.0
Mg123 Mg 0.57881 0.01335 0.61261 0.0
Mg124 Mg 0.5358 0.02147 0.49151 0.0
C125 C 0.48384 0.03934 0.52798 0.0
C126 C 0.47009 0.95908 0.49759 0.0
O127 O 0.45661 0.01192 0.815 0.0
O128 O 0.43057 0.01926 0.72904 0.0
O129 O 0.44069 0.94744 0.734 0.0
O130 O 0.4131 0.94973 0.64608 0.0
O131 O 0.45753 0.02603 0.5532 0.0
O132 O 0.50667 0.03711 0.5522 0.0
C133 C 0.55174 0.05322 0.76149 0.0
O134 O 0.55042 0.048 0.69684 0.0
O135 O 0.5296 0.03569 0.79605 0.0
O136 O 0.56471 0.00189 0.44237 0.0
O137 O 0.59069 0.99409 0.52758 0.0
O138 O 0.5791 0.06652 0.5255 0.0
C139 C 0.58275 0.99227 0.46428 0.0
O140 O 0.607 0.06384 0.61253 0.0
O141 O 0.56311 0.98678 0.70369 0.0
C142 C 0.60224 0.07939 0.56879 0.0
O143 O 0.51413 0.97614 0.70501 0.0
O144 O 0.4713 0.9651 0.56185 0.0
O145 O 0.4918 0.97674 0.46213 0.0
C146 C 0.54072 0.56854 0.40494 0.0
C147 C 0.57693 0.50951 0.4654 0.0
C148 C 0.46321 0.43739 0.55064 0.0
Mg149 Mg 0.56685 0.55873 0.54147 0.0
O150 O 0.52472 0.53129 0.54359 0.0
Mg151 Mg 0.5045 0.49819 0.46719 0.0
Mg152 Mg 0.51026 0.50613 0.62285 0.0
O153 O 0.4959 0.4809 0.70205 0.0
Mg154 Mg 0.45389 0.4533 0.70462 0.0
Mg155 Mg 0.51617 0.51387 0.77856 0.0
C156 C 0.55696 0.57521 0.69487 0.0
C157 C 0.56921 0.50855 0.70249 0.0
O158 O 0.52033 0.53948 0.39763 0.0
O159 O 0.56051 0.58045 0.45628 0.0
O160 O 0.54821 0.49577 0.44768 0.0
O161 O 0.58947 0.53349 0.50767 0.0
O162 O 0.57339 0.58151 0.64356 0.0
O163 O 0.5312 0.5498 0.69544 0.0
C164 C 0.45131 0.50361 0.54255 0.0
O165 O 0.46407 0.50543 0.6015 0.0
O166 O 0.46278 0.50112 0.488 0.0
O167 O 0.50041 0.4724 0.8482 0.0
O168 O 0.46026 0.43142 0.78954 0.0
O169 O 0.47252 0.51635 0.79789 0.0
C170 C 0.48006 0.44331 0.84086 0.0
O171 O 0.43139 0.47862 0.73755 0.0
O172 O 0.44694 0.431 0.6022 0.0
C173 C 0.44387 0.50266 0.77958 0.0
O174 O 0.48925 0.4625 0.55049 0.0
O175 O 0.55633 0.50679 0.64379 0.0
O176 O 0.55789 0.51099 0.75733 0.0
C177 C 0.19569 0.52879 0.30971 0.0
C178 C 0.20038 0.5034 0.30144 0.0
C179 C 0.1739 0.52814 0.35275 0.0
C180 C 0.1567 0.50163 0.38889 0.0
C181 C 0.1628 0.47682 0.38392 0.0
C182 C 0.18436 0.47792 0.34003 0.0
C183 C 0.168 0.55503 0.35645 0.0
C184 C 0.14531 0.4483 0.422 0.0
C185 C 0.10547 0.50613 0.52071 0.0
C186 C 0.07758 0.49412 0.48136 0.0
C187 C 0.13147 0.50805 0.49214 0.0
C188 C 0.12931 0.49773 0.42293 0.0
C189 C 0.10069 0.48401 0.38456 0.0
C190 C 0.07528 0.48227 0.41427 0.0
C191 C 0.16148 0.52232 0.53499 0.0
C192 C 0.09708 0.47231 0.31096 0.0
H193 H 0.20812 0.54863 0.28049 0.0
H194 H 0.18823 0.4584 0.33503 0.0
H195 H 0.14509 0.54763 0.33096 0.0
H196 H 0.16781 0.56247 0.41005 0.0
H197 H 0.18546 0.57524 0.33164 0.0
H198 H 0.15576 0.43323 0.42058 0.0
H199 H 0.14429 0.45491 0.47572 0.0
H200 H 0.12138 0.43457 0.39909 0.0
H201 H 0.10738 0.51544 0.57245 0.0
H202 H 0.05363 0.47256 0.38386 0.0
H203 H 0.17757 0.54529 0.51732 0.0
H204 H 0.17223 0.50765 0.52956 0.0
H205 H 0.15855 0.52553 0.58954 0.0
H206 H 0.11179 0.49182 0.28071 0.0
H207 H 0.07302 0.4615 0.28886 0.0
H208 H 0.10466 0.45493 0.30574 0.0
C209 C 0.70339 0.17993 0.32232 0.0
C210 C 0.71936 0.2124 0.32668 0.0
C211 C 0.68662 0.16359 0.37546 0.0
C212 C 0.68674 0.18011 0.43587 0.0
C213 C 0.70319 0.213 0.44104 0.0
C214 C 0.71898 0.22883 0.38578 0.0
C215 C 0.66818 0.12857 0.36607 0.0
C216 C 0.70365 0.2313 0.50439 0.0
C217 C 0.61599 0.12992 0.52413 0.0
C218 C 0.62547 0.11181 0.55876 0.0
C219 C 0.63652 0.1548 0.48909 0.0
C220 C 0.66759 0.16237 0.4906 0.0
C221 C 0.67816 0.14744 0.53476 0.0
C222 C 0.65684 0.12195 0.56792 0.0
C223 C 0.62359 0.17045 0.44585 0.0
C224 C 0.71148 0.15628 0.54149 0.0
H225 H 0.70355 0.16722 0.27646 0.0
H226 H 0.73158 0.25398 0.38937 0.0
H227 H 0.6766 0.11843 0.40431 0.0
H228 H 0.64374 0.12047 0.37381 0.0
H229 H 0.66948 0.11941 0.3148 0.0
H230 H 0.72001 0.25652 0.50336 0.0
H231 H 0.68037 0.22787 0.50983 0.0
H232 H 0.70994 0.22278 0.54978 0.0
H233 H 0.59181 0.12274 0.51864 0.0
H234 H 0.66444 0.10842 0.59561 0.0
H235 H 0.60338 0.15268 0.41302 0.0
H236 H 0.64015 0.18738 0.41321 0.0
H237 H 0.61541 0.18281 0.47954 0.0
H238 H 0.71654 0.14539 0.49749 0.0
H239 H 0.71718 0.14827 0.58854 0.0
H240 H 0.72651 0.1818 0.54181 0.0
C241 C 0.55186 0.69449 0.15589 0.0
C242 C 0.53128 0.70468 0.17165 0.0
C243 C 0.55112 0.66933 0.18616 0.0
C244 C 0.5298 0.65449 0.23483 0.0
C245 C 0.50822 0.66397 0.24926 0.0
C246 C 0.50896 0.68879 0.21668 0.0
C247 C 0.57401 0.65951 0.16796 0.0
C248 C 0.48539 0.64892 0.30151 0.0
C249 C 0.51925 0.57902 0.29839 0.0
C250 C 0.53933 0.59005 0.35738 0.0
C251 C 0.51598 0.59966 0.25731 0.0
C252 C 0.53279 0.63194 0.27646 0.0
C253 C 0.55328 0.64316 0.33542 0.0
C254 C 0.5565 0.62217 0.37462 0.0
C255 C 0.49443 0.58699 0.19386 0.0
C256 C 0.57152 0.67739 0.35788 0.0
H257 H 0.56865 0.70625 0.11961 0.0
H258 H 0.49288 0.6965 0.22829 0.0
H259 H 0.59146 0.66624 0.21118 0.0
H260 H 0.56249 0.63393 0.158 0.0
H261 H 0.58599 0.67043 0.12259 0.0
H262 H 0.46846 0.65701 0.30246 0.0
H263 H 0.4729 0.62332 0.2914 0.0
H264 H 0.49774 0.65442 0.35255 0.0
H265 H 0.50585 0.55427 0.28467 0.0
H266 H 0.57196 0.63108 0.42021 0.0
H267 H 0.50688 0.59805 0.14918 0.0
H268 H 0.47585 0.59266 0.19786 0.0
H269 H 0.4839 0.56143 0.18466 0.0
H270 H 0.5868 0.69024 0.31824 0.0
H271 H 0.5858 0.68222 0.40615 0.0
H272 H 0.55579 0.6867 0.36489 0.0
C273 C 0.85966 0.57412 0.24199 0.0
C274 C 0.82765 0.55742 0.23808 0.0
C275 C 0.8768 0.57235 0.29784 0.0
C276 C 0.86139 0.5541 0.35141 0.0
C277 C 0.8291 0.53969 0.35028 0.0
C278 C 0.81256 0.54099 0.29287 0.0
C279 C 0.91119 0.58778 0.29665 0.0
C280 C 0.81184 0.5211 0.40737 0.0
C281 C 0.90181 0.51468 0.42788 0.0
C282 C 0.92013 0.53609 0.48219 0.0
C283 C 0.88147 0.51955 0.38697 0.0
C284 C 0.87857 0.54601 0.40188 0.0
C285 C 0.89428 0.56575 0.46118 0.0
C286 C 0.91513 0.56071 0.5005 0.0
C287 C 0.86507 0.49773 0.32446 0.0
C288 C 0.89073 0.59339 0.48053 0.0
H289 H 0.8712 0.58661 0.19923 0.0
H290 H 0.78769 0.52822 0.28972 0.0
H291 H 0.92262 0.6016 0.34535 0.0
H292 H 0.9179 0.56975 0.29031 0.0
H293 H 0.91984 0.60325 0.25464 0.0
H294 H 0.78812 0.51722 0.40587 0.0
H295 H 0.81042 0.49814 0.4032 0.0
H296 H 0.82391 0.53296 0.45733 0.0
H297 H 0.90503 0.49524 0.41399 0.0
H298 H 0.92892 0.57725 0.54272 0.0
H299 H 0.87341 0.51038 0.27835 0.0
H300 H 0.84008 0.48898 0.3234 0.0
H301 H 0.86877 0.47751 0.32181 0.0
H302 H 0.90452 0.61243 0.44835 0.0
H303 H 0.89876 0.60207 0.53446 0.0
H304 H 0.86647 0.58753 0.47206 0.0
C305 C 0.31708 0.83828 0.27731 0.0
C306 C 0.31779 0.8117 0.25325 0.0
C307 C 0.33973 0.86015 0.32547 0.0
C308 C 0.36373 0.85538 0.35017 0.0
C309 C 0.36366 0.8278 0.32894 0.0
C310 C 0.34071 0.8063 0.28066 0.0
C311 C 0.33895 0.88924 0.34685 0.0
C312 C 0.38879 0.82182 0.35434 0.0
C313 C 0.44087 0.92792 0.39052 0.0
C314 C 0.44291 0.93176 0.46167 0.0
C315 C 0.41539 0.90303 0.35422 0.0
C316 C 0.39111 0.88119 0.38965 0.0
C317 C 0.39301 0.88454 0.46151 0.0
C318 C 0.41895 0.90984 0.49676 0.0
C319 C 0.41435 0.90039 0.27761 0.0
C320 C 0.36753 0.86171 0.50105 0.0
H321 H 0.29928 0.84253 0.25708 0.0
H322 H 0.34128 0.78568 0.26298 0.0
H323 H 0.34253 0.89385 0.40283 0.0
H324 H 0.35786 0.90939 0.32494 0.0
H325 H 0.31693 0.88772 0.32968 0.0
H326 H 0.38336 0.79769 0.34 0.0
H327 H 0.4105 0.83802 0.33262 0.0
H328 H 0.39279 0.82615 0.41035 0.0
H329 H 0.45916 0.94462 0.3626 0.0
H330 H 0.42043 0.91242 0.55162 0.0
H331 H 0.39427 0.90144 0.2557 0.0
H332 H 0.41162 0.8777 0.25924 0.0
H333 H 0.43537 0.91912 0.25789 0.0
H334 H 0.3467 0.86354 0.49073 0.0
H335 H 0.37378 0.86589 0.55661 0.0
H336 H 0.36153 0.83762 0.48466 0.0
C337 C 0.42081 0.29082 0.28817 0.0
C338 C 0.43895 0.27941 0.31597 0.0
C339 C 0.42215 0.31759 0.31791 0.0
C340 C 0.44134 0.33251 0.37791 0.0
C341 C 0.45889 0.32035 0.40737 0.0
C342 C 0.45796 0.29423 0.37508 0.0
C343 C 0.40414 0.33063 0.2836 0.0
C344 C 0.47901 0.3352 0.4724 0.0
C345 C 0.47232 0.41616 0.4423 0.0
C346 C 0.45357 0.41258 0.49537 0.0
C347 C 0.46708 0.39045 0.3995 0.0
C348 C 0.44292 0.3606 0.41112 0.0
C349 C 0.42239 0.3573 0.46063 0.0
C350 C 0.42773 0.38342 0.50154 0.0
C351 C 0.48878 0.39499 0.34531 0.0
C352 C 0.39643 0.32584 0.47474 0.0
H353 H 0.40689 0.27979 0.241 0.0
H354 H 0.4723 0.28553 0.39555 0.0
H355 H 0.3897 0.33404 0.31978 0.0
H356 H 0.42022 0.35372 0.26638 0.0
H357 H 0.38918 0.31536 0.23898 0.0
H358 H 0.48989 0.32188 0.49038 0.0
H359 H 0.49737 0.35907 0.46465 0.0
H360 H 0.4653 0.33706 0.51281 0.0
H361 H 0.49207 0.43864 0.43644 0.0
H362 H 0.41275 0.38042 0.54164 0.0
H363 H 0.4761 0.38068 0.29781 0.0
H364 H 0.50511 0.38747 0.36276 0.0
H365 H 0.50221 0.41968 0.33393 0.0
H366 H 0.38296 0.31258 0.42699 0.0
H367 H 0.38067 0.32762 0.50983 0.0
H368 H 0.40601 0.31231 0.49797 0.0
C369 C 0.53437 0.83262 0.88726 0.0
C370 C 0.52192 0.82452 0.94978 0.0
C371 C 0.53346 0.85642 0.85401 0.0
C372 C 0.52105 0.87339 0.88576 0.0
C373 C 0.50799 0.86489 0.9486 0.0
C374 C 0.50814 0.84013 0.97941 0.0
C375 C 0.54661 0.86399 0.78585 0.0
C376 C 0.49554 0.88306 0.98516 0.0
C377 C 0.55448 0.95419 0.82525 0.0
C378 C 0.53096 0.95047 0.77867 0.0
C379 C 0.55066 0.92986 0.86425 0.0
C380 C 0.52316 0.90082 0.85419 0.0
C381 C 0.4989 0.89739 0.8091 0.0
C382 C 0.50289 0.9225 0.77287 0.0
C383 C 0.57663 0.93479 0.91379 0.0
C384 C 0.46963 0.86658 0.79543 0.0
H385 H 0.5452 0.82057 0.86486 0.0
H386 H 0.49914 0.83419 0.02863 0.0
H387 H 0.53006 0.86517 0.74895 0.0
H388 H 0.56776 0.88707 0.79069 0.0
H389 H 0.55237 0.84657 0.76504 0.0
H390 H 0.48429 0.87217 0.03122 0.0
H391 H 0.51458 0.9069 1.00054 0.0
H392 H 0.47877 0.88525 0.95113 0.0
H393 H 0.57613 0.97585 0.82992 0.0
H394 H 0.48475 0.91945 0.7363 0.0
H395 H 0.58751 0.92172 0.89385 0.0
H396 H 0.56785 0.92585 0.96312 0.0
H397 H 0.59448 0.95967 0.92262 0.0
H398 H 0.47487 0.84909 0.77282 0.0
H399 H 0.45265 0.86796 0.76021 0.0
H400 H 0.45903 0.85806 0.84349 0.0
C401 C 0.72667 0.5285 0.85157 0.0
C402 C 0.73183 0.54883 0.90848 0.0
C403 C 0.7053 0.52383 0.79803 0.0
C404 C 0.68794 0.53893 0.80315 0.0
C405 C 0.69539 0.56186 0.85728 0.0
C406 C 0.7176 0.56678 0.90922 0.0
C407 C 0.69924 0.50049 0.73948 0.0
C408 C 0.67755 0.57866 0.86438 0.0
C409 C 0.62421 0.5309 0.67925 0.0
C410 C 0.59865 0.50927 0.71057 0.0
C411 C 0.65401 0.53911 0.7049 0.0
C412 C 0.65783 0.52563 0.7634 0.0
C413 C 0.63183 0.50141 0.79019 0.0
C414 C 0.6026 0.49342 0.763 0.0
C415 C 0.68109 0.56396 0.67279 0.0
C416 C 0.63462 0.48599 0.852 0.0
H417 H 0.73828 0.51509 0.85046 0.0
H418 H 0.7218 0.58262 0.95313 0.0
H419 H 0.67915 0.47784 0.74849 0.0
H420 H 0.6939 0.50795 0.69125 0.0
H421 H 0.71917 0.497 0.73382 0.0
H422 H 0.68853 0.59832 0.90414 0.0
H423 H 0.67531 0.58767 0.81557 0.0
H424 H 0.65407 0.56221 0.87813 0.0
H425 H 0.62112 0.54325 0.63877 0.0
H426 H 0.58266 0.47649 0.78665 0.0
H427 H 0.70127 0.56067 0.67815 0.0
H428 H 0.68753 0.58695 0.69812 0.0
H429 H 0.67534 0.56424 0.61807 0.0
H430 H 0.65038 0.47683 0.84413 0.0
H431 H 0.61216 0.46655 0.86415 0.0
H432 H 0.64436 0.50329 0.8966 0.0
C433 C 0.1774 0.65841 0.01907 0.0
C434 C 0.20242 0.68097 0.98805 0.0
C435 C 0.15097 0.63612 0.97999 0.0
C436 C 0.14989 0.63664 0.90854 0.0
C437 C 0.17602 0.65825 0.87706 0.0
C438 C 0.20195 0.68051 0.91747 0.0
C439 C 0.12352 0.61361 0.0153 0.0
C440 C 0.17594 0.65903 0.80088 0.0
C441 C 0.08886 0.57005 0.79203 0.0
C442 C 0.07017 0.58218 0.77142 0.0
C443 C 0.1144 0.58704 0.83853 0.0
C444 C 0.12085 0.61647 0.86652 0.0
C445 C 0.10091 0.62793 0.84947 0.0
C446 C 0.07594 0.61076 0.80144 0.0
C447 C 0.13519 0.57411 0.85523 0.0
C448 C 0.10685 0.65907 0.8793 0.0
H449 H 0.17775 0.65954 0.074 0.0
H450 H 0.22122 0.69854 0.89411 0.0
H451 H 0.10499 0.61937 0.00855 0.0
H452 H 0.11442 0.5896 0.99252 0.0
H453 H 0.12909 0.61429 0.07053 0.0
H454 H 0.19896 0.67532 0.78442 0.0
H455 H 0.16814 0.63552 0.77648 0.0
H456 H 0.15961 0.66636 0.78225 0.0
H457 H 0.08469 0.54804 0.76872 0.0
H458 H 0.06147 0.62013 0.78596 0.0
H459 H 0.13325 0.568 0.90863 0.0
H460 H 0.1595 0.59167 0.8501 0.0
H461 H 0.12938 0.55306 0.82188 0.0
H462 H 0.11068 0.66083 0.93535 0.0
H463 H 0.08757 0.66318 0.86616 0.0
H464 H 0.12795 0.67779 0.86002 0.0
C465 C 0.40257 0.12945 0.04477 0.0
C466 C 0.42909 0.15855 0.04395 0.0
C467 C 0.39906 0.10365 0.00493 0.0
C468 C 0.42246 0.10732 0.96294 0.0
C469 C 0.44854 0.13699 0.95957 0.0
C470 C 0.45161 0.16219 1.00045 0.0
C471 C 0.37108 0.07231 0.01006 0.0
C472 C 0.47376 0.14194 0.91444 0.0
C473 C 0.43936 0.04398 0.90878 0.0
C474 C 0.4289 0.03819 0.83992 0.0
C475 C 0.43527 0.0648 0.95116 0.0
C476 C 0.42058 0.08025 0.92377 0.0
C477 C 0.40784 0.07265 0.85587 0.0
C478 C 0.41202 0.05159 0.81482 0.0
C479 C 0.44867 0.07195 0.02386 0.0
C480 C 0.39199 0.08862 0.82488 0.0
H481 H 0.38524 0.12651 0.07889 0.0
H482 H 0.47206 0.18471 0.99948 0.0
H483 H 0.36031 0.06114 0.95883 0.0
H484 H 0.37796 0.05692 0.03473 0.0
H485 H 0.35372 0.07389 0.04004 0.0
H486 H 0.49168 0.16677 0.91505 0.0
H487 H 0.48479 0.12864 0.93132 0.0
H488 H 0.46407 0.13322 0.86138 0.0
H489 H 0.45207 0.03347 0.92893 0.0
H490 H 0.40346 0.047 0.76192 0.0
H491 H 0.43203 0.0721 0.05849 0.0
H492 H 0.46935 0.0954 0.02964 0.0
H493 H 0.45536 0.05493 0.03993 0.0
H494 H 0.37549 0.08931 0.85917 0.0
H495 H 0.37957 0.07698 0.77497 0.0
H496 H 0.4093 0.11297 0.81743 0.0
C497 C 0.33462 0.53878 0.01224 0.0
C498 C 0.32321 0.51422 0.05453 0.0
C499 C 0.35489 0.5411 0.96297 0.0
C500 C 0.36442 0.51873 0.95697 0.0
C501 C 0.35372 0.49456 0.0013 0.0
C502 C 0.33306 0.49244 0.04884 0.0
C503 C 0.36539 0.56691 0.91606 0.0
C504 C 0.36379 0.47061 0.99799 0.0
C505 C 0.39266 0.4978 0.79887 0.0
C506 C 0.42426 0.51197 0.81672 0.0
C507 C 0.37311 0.5018 0.84171 0.0
C508 C 0.38534 0.51999 0.90442 0.0
C509 C 0.41746 0.53609 0.92033 0.0
C510 C 0.4365 0.53213 0.87608 0.0
C511 C 0.3391 0.48489 0.82183 0.0
C512 C 0.43159 0.55552 0.9867 0.0
H513 H 0.32682 0.55548 0.01594 0.0
H514 H 0.32446 0.4735 0.08163 0.0
H515 H 0.39079 0.58024 0.91808 0.0
H516 H 0.35701 0.55691 0.86302 0.0
H517 H 0.35692 0.58315 0.92891 0.0
H518 H 0.35446 0.45415 0.03806 0.0
H519 H 0.35606 0.45715 0.94782 0.0
H520 H 0.38918 0.48221 0.00354 0.0
H521 H 0.38295 0.48248 0.75285 0.0
H522 H 0.46087 0.54338 0.89048 0.0
H523 H 0.32953 0.50042 0.831 0.0
H524 H 0.32734 0.46505 0.8535 0.0
H525 H 0.33378 0.47581 0.76765 0.0
H526 H 0.42202 0.57094 0.99718 0.0
H527 H 0.45694 0.56997 0.98722 0.0
H528 H 0.42607 0.54002 0.02868 0.0
C529 C 0.84645 0.30792 0.03394 0.0
C530 C 0.82176 0.31223 0.04893 0.0
C531 C 0.87008 0.32872 0.99727 0.0
C532 C 0.86876 0.3542 0.97282 0.0
C533 C 0.84405 0.35898 0.98761 0.0
C534 C 0.82088 0.33803 0.02642 0.0
C535 C 0.8963 0.32306 0.98401 0.0
C536 C 0.84189 0.38582 0.96147 0.0
C537 C 0.94434 0.41657 0.91617 0.0
C538 C 0.94149 0.40719 0.84702 0.0
C539 C 0.92029 0.40032 0.95755 0.0
C540 C 0.89263 0.37448 0.92869 0.0
C541 C 0.88935 0.36546 0.85859 0.0
C542 C 0.91391 0.38171 0.81879 0.0
C543 C 0.92486 0.41012 0.03248 0.0
C544 C 0.86013 0.33812 0.82588 0.0
H545 H 0.84765 0.28827 0.0516 0.0
H546 H 0.80199 0.34156 0.03817 0.0
H547 H 0.8963 0.31803 0.92882 0.0
H548 H 0.91854 0.34411 1.00056 0.0
H549 H 0.89488 0.30334 0.01076 0.0
H550 H 0.82189 0.38698 0.97941 0.0
H551 H 0.86309 0.408 0.97788 0.0
H552 H 0.83988 0.38362 0.90517 0.0
H553 H 0.96551 0.43641 0.93814 0.0
H554 H 0.91125 0.37471 0.7651 0.0
H555 H 0.92545 0.39192 0.06166 0.0
H556 H 0.9054 0.41265 0.04886 0.0
H557 H 0.94652 0.43235 0.04584 0.0
H558 H 0.85731 0.31635 0.84506 0.0
H559 H 0.86005 0.33619 0.76972 0.0
H560 H 0.83999 0.34006 0.83944 0.0
C561 C 0.82911 0.52919 0.88857 0.0
C562 C 0.81665 0.50546 0.93298 0.0
C563 C 0.8494 0.53011 0.84109 0.0
C564 C 0.85808 0.50711 0.83869 0.0
C565 C 0.84436 0.4822 0.88101 0.0
C566 C 0.8236 0.48153 0.92728 0.0
C567 C 0.86279 0.55666 0.79603 0.0
C568 C 0.85306 0.45726 0.8806 0.0
C569 C 0.90687 0.50075 0.70241 0.0
C570 C 0.93604 0.51627 0.73724 0.0
C571 C 0.88118 0.49849 0.73343 0.0
C572 C 0.8849 0.51185 0.80069 0.0
C573 C 0.91468 0.52922 0.8338 0.0
C574 C 0.93974 0.5314 0.80153 0.0
C575 C 0.84992 0.48043 0.69575 0.0
C576 C 0.92001 0.5441 0.90515 0.0
H577 H 0.82334 0.54746 0.89154 0.0
H578 H 0.81392 0.46303 0.96107 0.0
H579 H 0.88705 0.57303 0.81403 0.0
H580 H 0.8625 0.54807 0.74311 0.0
H581 H 0.85014 0.56965 0.79607 0.0
H582 H 0.83687 0.43712 0.90749 0.0
H583 H 0.85361 0.44903 0.82792 0.0
H584 H 0.87639 0.46695 0.90613 0.0
H585 H 0.90382 0.48883 0.65295 0.0
H586 H 0.96231 0.54369 0.82847 0.0
H587 H 0.83711 0.4931 0.70101 0.0
H588 H 0.83653 0.45786 0.71788 0.0
H589 H 0.85139 0.47584 0.64096 0.0
H590 H 0.91048 0.55993 0.90796 0.0
H591 H 0.94472 0.55754 0.92295 0.0
H592 H 0.90795 0.52592 0.94055 0.0
C593 C 0.28908 0.79661 0.88589 0.0
C594 C 0.28658 0.81413 0.94018 0.0
C595 C 0.30574 0.811 0.83056 0.0
C596 C 0.32153 0.84378 0.83142 0.0
C597 C 0.31832 0.86145 0.88556 0.0
C598 C 0.30034 0.84631 0.93861 0.0
C599 C 0.30722 0.79115 0.77252 0.0
C600 C 0.33535 0.89648 0.88957 0.0
C601 C 0.39812 0.88821 0.75785 0.0
C602 C 0.39176 0.9041 0.70869 0.0
C603 C 0.37502 0.86684 0.7953 0.0
C604 C 0.34445 0.86003 0.78122 0.0
C605 C 0.33722 0.8725 0.72499 0.0
C606 C 0.36107 0.89477 0.68971 0.0
C607 C 0.38401 0.85431 0.85478 0.0
C608 C 0.30465 0.86434 0.70563 0.0
H609 H 0.278 0.7716 0.88676 0.0
H610 H 0.29836 0.85978 0.98074 0.0
H611 H 0.30653 0.8006 0.72322 0.0
H612 H 0.32905 0.79086 0.77856 0.0
H613 H 0.28804 0.76682 0.77092 0.0
H614 H 0.32991 0.90673 0.93422 0.0
H615 H 0.36043 0.90537 0.89288 0.0
H616 H 0.3296 0.90468 0.84304 0.0
H617 H 0.42171 0.89476 0.77193 0.0
H618 H 0.35581 0.90655 0.65118 0.0
H619 H 0.36982 0.82869 0.85226 0.0
H620 H 0.37988 0.8636 0.90279 0.0
H621 H 0.40854 0.86073 0.85688 0.0
H622 H 0.28849 0.83943 0.71116 0.0
H623 H 0.30189 0.86947 0.65261 0.0
H624 H 0.29826 0.87817 0.73975 0.0
C625 C 0.50986 0.32305 0.03678 0.0
C626 C 0.48669 0.30697 0.07995 0.0
C627 C 0.51106 0.34783 0.00302 0.0
C628 C 0.48905 0.35708 0.01427 0.0
C629 C 0.46677 0.342 0.06099 0.0
C630 C 0.46562 0.3169 0.09252 0.0
C631 C 0.53492 0.36309 0.95291 0.0
C632 C 0.44335 0.35155 0.07583 0.0
C633 C 0.50044 0.43269 0.94905 0.0
C634 C 0.4813 0.42175 0.88863 0.0
C635 C 0.50317 0.41199 0.99102 0.0
C636 C 0.48681 0.37973 0.97137 0.0
C637 C 0.46741 0.36863 0.91072 0.0
C638 C 0.46469 0.38966 0.87061 0.0
C639 C 0.52357 0.42456 0.05617 0.0
C640 C 0.44973 0.33445 0.88755 0.0
H641 H 0.5263 0.31555 0.02755 0.0
H642 H 0.44812 0.305 0.12729 0.0
H643 H 0.52352 0.35765 0.90086 0.0
H644 H 0.5472 0.38867 0.96323 0.0
H645 H 0.55197 0.35513 0.95434 0.0
H646 H 0.43039 0.34037 0.11997 0.0
H647 H 0.45463 0.37709 0.08615 0.0
H648 H 0.42678 0.34492 0.03088 0.0
H649 H 0.5134 0.45741 0.96338 0.0
H650 H 0.45002 0.38082 0.82387 0.0
H651 H 0.54212 0.41873 0.0549 0.0
H652 H 0.51016 0.41356 0.09978 0.0
H653 H 0.53414 0.45014 0.0651 0.0
H654 H 0.46572 0.32532 0.88296 0.0
H655 H 0.43641 0.32972 0.8379 0.0
H656 H 0.43359 0.32137 0.92568 0.0
C657 C 0.15784 0.42899 1.00112 0.0
C658 C 0.18926 0.45042 0.00515 0.0
C659 C 0.13816 0.42909 0.94861 0.0
C660 C 0.15046 0.45059 0.89841 0.0
C661 C 0.18258 0.47014 0.899 0.0
C662 C 0.20155 0.4702 0.95305 0.0
C663 C 0.10401 0.40815 0.95039 0.0
C664 C 0.19676 0.49269 0.84543 0.0
C665 C 0.09497 0.4433 0.75173 0.0
C666 C 0.08646 0.4648 0.77504 0.0
C667 C 0.11675 0.43913 0.78986 0.0
C668 C 0.12974 0.45641 0.85323 0.0
C669 C 0.12218 0.47902 0.87543 0.0
C670 C 0.10095 0.48311 0.8359 0.0
C671 C 0.12501 0.41553 0.76351 0.0
C672 C 0.13542 0.49802 0.94267 0.0
H673 H 0.14839 0.41383 0.04166 0.0
H674 H 0.22598 0.48658 0.95593 0.0
H675 H 0.09344 0.42233 0.96477 0.0
H676 H 0.09349 0.39625 0.89955 0.0
H677 H 0.09834 0.39036 0.98748 0.0
H678 H 0.22184 0.50175 0.84559 0.0
H679 H 0.18586 0.48153 0.79425 0.0
H680 H 0.19302 0.51264 0.85496 0.0
H681 H 0.08399 0.42908 0.70476 0.0
H682 H 0.09452 0.49967 0.85489 0.0
H683 H 0.11484 0.39516 0.79417 0.0
H684 H 0.15023 0.4254 0.76839 0.0
H685 H 0.1165 0.40741 0.70956 0.0
H686 H 0.1293 0.48242 0.98453 0.0
H687 H 0.12701 0.51454 0.95261 0.0
H688 H 0.16079 0.51143 0.94393 0.0
C689 C 0.6926 0.18985 0.9936 0.0
C690 C 0.71282 0.17997 0.0169 0.0
C691 C 0.66846 0.17176 0.94433 0.0
C692 C 0.66425 0.14293 0.91772 0.0
C693 C 0.6854 0.13346 0.93853 0.0
C694 C 0.70947 0.1521 0.98791 0.0
C695 C 0.64657 0.18281 0.9232 0.0
C696 C 0.68175 0.10294 0.91099 0.0
C697 C 0.58238 0.07936 0.87097 0.0
C698 C 0.58021 0.07803 0.79972 0.0
C699 C 0.60952 0.10038 0.90936 0.0
C700 C 0.63542 0.12092 0.87608 0.0
C701 C 0.63335 0.12045 0.8043 0.0
C702 C 0.6057 0.09897 0.76692 0.0
C703 C 0.61053 0.10028 0.98582 0.0
C704 C 0.66043 0.14206 0.76688 0.0
H705 H 0.69521 0.21157 0.01485 0.0
H706 H 0.72515 0.14443 0.00501 0.0
H707 H 0.643 0.18103 0.86709 0.0
H708 H 0.62393 0.1678 0.94283 0.0
H709 H 0.65491 0.20719 0.9427 0.0
H710 H 0.7018 0.10044 0.92663 0.0
H711 H 0.66094 0.08355 0.92963 0.0
H712 H 0.67859 0.10068 0.85478 0.0
H713 H 0.56293 0.06343 0.89732 0.0
H714 H 0.60416 0.0985 0.71218 0.0
H715 H 0.6167 0.12354 0.00912 0.0
H716 H 0.62845 0.09507 0.00443 0.0
H717 H 0.58828 0.08292 0.00383 0.0
H718 H 0.67169 0.16605 0.79128 0.0
H719 H 0.65372 0.14244 0.71287 0.0
H720 H 0.67763 0.13434 0.76864 0.0
C721 C 0.55614 0.71581 0.87669 0.0
C722 C 0.5767 0.73159 0.93333 0.0
C723 C 0.55547 0.69011 0.8427 0.0
C724 C 0.57496 0.67932 0.86789 0.0
C725 C 0.5956 0.69511 0.92556 0.0
C726 C 0.59658 0.72145 0.95697 0.0
C727 C 0.5337 0.67435 0.78025 0.0
C728 C 0.6158 0.68355 0.95546 0.0
C729 C 0.5477 0.59611 0.80376 0.0
C730 C 0.56564 0.60051 0.74866 0.0
C731 C 0.55189 0.62151 0.84632 0.0
C732 C 0.5741 0.65194 0.83243 0.0
C733 C 0.59365 0.65631 0.77995 0.0
C734 C 0.58946 0.63053 0.73935 0.0
C735 C 0.53127 0.61585 0.9034 0.0
C736 C 0.61741 0.68839 0.76308 0.0
H737 H 0.5405 0.72351 0.85932 0.0
H738 H 0.61179 0.73317 0.00224 0.0
H739 H 0.54652 0.67331 0.73698 0.0
H740 H 0.51671 0.65013 0.78942 0.0
H741 H 0.52116 0.68653 0.76556 0.0
H742 H 0.63087 0.69876 1.00001 0.0
H743 H 0.60131 0.65981 0.97154 0.0
H744 H 0.63035 0.68203 0.91677 0.0
H745 H 0.52947 0.57303 0.8119 0.0
H746 H 0.60368 0.63429 0.69735 0.0
H747 H 0.51353 0.62193 0.88868 0.0
H748 H 0.54451 0.63068 0.94993 0.0
H749 H 0.51947 0.59118 0.91541 0.0
H750 H 0.60573 0.70065 0.74335 0.0
H751 H 0.63239 0.68771 0.72434 0.0
H752 H 0.63203 0.70226 0.8092 0.0
C753 C 0.51189 0.17437 0.2826 0.0
C754 C 0.49359 0.18628 0.30541 0.0
C755 C 0.51284 0.15019 0.31444 0.0
C756 C 0.4959 0.13852 0.37169 0.0
C757 C 0.47865 0.1517 0.39684 0.0
C758 C 0.47718 0.17497 0.36246 0.0
C759 C 0.53075 0.13616 0.28494 0.0
C760 C 0.4612 0.14078 0.45927 0.0
C761 C 0.46767 0.05728 0.42658 0.0
C762 C 0.48954 0.06286 0.47954 0.0
C763 C 0.4707 0.08139 0.38767 0.0
C764 C 0.49533 0.11198 0.40455 0.0
C765 C 0.51789 0.11748 0.45695 0.0
C766 C 0.51507 0.09267 0.49281 0.0
C767 C 0.44679 0.07436 0.33048 0.0
C768 C 0.54369 0.14988 0.47862 0.0
H769 H 0.52412 0.18279 0.23763 0.0
H770 H 0.46299 0.18421 0.37987 0.0
H771 H 0.54738 0.13662 0.32423 0.0
H772 H 0.51483 0.11147 0.26736 0.0
H773 H 0.54342 0.14849 0.24148 0.0
H774 H 0.45146 0.15547 0.47594 0.0
H775 H 0.44213 0.11656 0.44872 0.0
H776 H 0.47645 0.14094 0.50167 0.0
H777 H 0.44791 0.03421 0.41653 0.0
H778 H 0.53171 0.09708 0.53466 0.0
H779 H 0.45792 0.08524 0.28436 0.0
H780 H 0.43225 0.08428 0.34502 0.0
H781 H 0.43174 0.04902 0.3178 0.0
H782 H 0.55635 0.16126 0.4345 0.0
H783 H 0.5601 0.15005 0.51821 0.0
H784 H 0.53408 0.16408 0.49916 0.0
C785 C 0.29406 0.4833 0.38892 0.0
C786 C 0.28886 0.46277 0.33239 0.0
C787 C 0.31554 0.48826 0.4425 0.0
C788 C 0.33301 0.47326 0.43783 0.0
C789 C 0.32572 0.45031 0.38384 0.0
C790 C 0.30336 0.44507 0.33193 0.0
C791 C 0.32145 0.51163 0.50085 0.0
C792 C 0.34375 0.43369 0.37703 0.0
C793 C 0.41824 0.51885 0.48102 0.0
C794 C 0.42187 0.5029 0.53368 0.0
C795 C 0.38915 0.5108 0.45264 0.0
C796 C 0.36294 0.48646 0.47849 0.0
C797 C 0.36638 0.47283 0.53715 0.0
C798 C 0.39605 0.48108 0.56396 0.0
C799 C 0.38679 0.52631 0.39059 0.0
C800 C 0.33905 0.44784 0.56827 0.0
H801 H 0.28229 0.49655 0.38982 0.0
H802 H 0.29918 0.42909 0.2883 0.0
H803 H 0.32652 0.50413 0.54929 0.0
H804 H 0.34166 0.53424 0.49212 0.0
H805 H 0.30154 0.51523 0.50594 0.0
H806 H 0.33302 0.41413 0.33703 0.0
H807 H 0.36728 0.45029 0.36385 0.0
H808 H 0.34582 0.42458 0.42581 0.0
H809 H 0.43836 0.53589 0.45807 0.0
H810 H 0.39887 0.46863 0.60456 0.0
H811 H 0.3709 0.53538 0.39764 0.0
H812 H 0.37739 0.50908 0.34585 0.0
H813 H 0.40934 0.54583 0.37919 0.0
H814 H 0.31895 0.45126 0.56263 0.0
H815 H 0.34446 0.4472 0.623 0.0
H816 H 0.33262 0.42495 0.54238 0.0
C817 C 0.86212 0.2878 0.3341 0.0
C818 C 0.85699 0.28196 0.26371 0.0
C819 C 0.88623 0.31621 0.36353 0.0
C820 C 0.90489 0.33959 0.32123 0.0
C821 C 0.90098 0.33293 0.25003 0.0
C822 C 0.87715 0.304 0.2222 0.0
C823 C 0.89018 0.32204 0.43985 0.0
C824 C 0.91987 0.3571 0.20276 0.0
C825 C 0.93345 0.41788 0.41601 0.0
C826 C 0.96139 0.42304 0.44598 0.0
C827 C 0.91589 0.39217 0.36894 0.0
C828 C 0.92669 0.37141 0.35233 0.0
C829 C 0.95667 0.37904 0.37579 0.0
C830 C 0.97374 0.40489 0.42222 0.0
C831 C 0.88447 0.38545 0.34267 0.0
C832 C 0.96938 0.35802 0.35834 0.0
H833 H 0.84594 0.27107 0.36593 0.0
H834 H 0.8725 0.29976 0.1676 0.0
H835 H 0.91455 0.33157 0.4582 0.0
H836 H 0.88356 0.33948 0.45523 0.0
H837 H 0.87592 0.30058 0.46538 0.0
H838 H 0.91906 0.34639 0.1516 0.0
H839 H 0.91055 0.37298 0.19693 0.0
H840 H 0.94413 0.37131 0.22324 0.0
H841 H 0.92391 0.43191 0.43429 0.0
H842 H 0.99563 0.4092 0.44492 0.0
H843 H 0.86682 0.36627 0.3695 0.0
H844 H 0.88024 0.37788 0.28774 0.0
H845 H 0.88156 0.40604 0.35079 0.0
H846 H 0.95858 0.33743 0.38833 0.0
H847 H 0.99462 0.3699 0.37001 0.0
H848 H 0.96402 0.34957 0.30389 0.0
C849 C 0.56561 0.85011 0.25077 0.0
C850 C 0.58822 0.85342 0.2078 0.0
C851 C 0.56905 0.87535 0.29228 0.0
C852 C 0.59565 0.90476 0.29025 0.0
C853 C 0.61905 0.9081 0.24859 0.0
C854 C 0.61514 0.88227 0.20804 0.0
C855 C 0.54376 0.8707 0.33687 0.0
C856 C 0.64758 0.93916 0.24481 0.0
C857 C 0.58127 0.9697 0.34722 0.0
C858 C 0.59159 0.97486 0.41614 0.0
C859 C 0.58449 0.94847 0.30412 0.0
C860 C 0.59816 0.93192 0.33072 0.0
C861 C 0.61068 0.93874 0.39881 0.0
C862 C 0.60738 0.96024 0.44061 0.0
C863 C 0.57131 0.94218 0.23134 0.0
C864 C 0.62542 0.92159 0.42908 0.0
H865 H 0.54482 0.82782 0.25098 0.0
H866 H 0.63257 0.88501 0.17441 0.0
H867 H 0.55321 0.87874 0.39028 0.0
H868 H 0.53348 0.88476 0.32057 0.0
H869 H 0.52529 0.84603 0.33499 0.0
H870 H 0.66464 0.93739 0.21405 0.0
H871 H 0.64134 0.95535 0.22181 0.0
H872 H 0.65848 0.94951 0.29642 0.0
H873 H 0.56934 0.98109 0.32754 0.0
H874 H 0.61575 0.96422 0.49357 0.0
H875 H 0.55021 0.91906 0.22474 0.0
H876 H 0.58778 0.94171 0.19661 0.0
H877 H 0.56537 0.95984 0.21604 0.0
H878 H 0.60748 0.89731 0.43513 0.0
H879 H 0.63766 0.93248 0.47954 0.0
H880 H 0.64187 0.92068 0.39496 0.0
C881 C 0.68652 0.51868 0.19132 0.0
C882 C 0.69594 0.49654 0.18548 0.0
C883 C 0.66625 0.51709 0.23946 0.0
C884 C 0.65552 0.49316 0.28439 0.0
C885 C 0.66464 0.47045 0.2783 0.0
C886 C 0.68449 0.47222 0.22839 0.0
C887 C 0.6566 0.54137 0.24272 0.0
C888 C 0.65415 0.44487 0.3258 0.0
C889 C 0.62816 0.51466 0.44375 0.0
C890 C 0.59646 0.50041 0.42703 0.0
C891 C 0.64746 0.51063 0.40004 0.0
C892 C 0.6349 0.49237 0.33746 0.0
C893 C 0.60273 0.47635 0.32245 0.0
C894 C 0.58395 0.48031 0.36758 0.0
C895 C 0.68153 0.52747 0.41904 0.0
C896 C 0.58822 0.45689 0.25626 0.0
H897 H 0.69517 0.53747 0.15815 0.0
H898 H 0.69197 0.45526 0.2247 0.0
H899 H 0.63122 0.53004 0.2378 0.0
H900 H 0.66469 0.55502 0.29264 0.0
H901 H 0.66588 0.55761 0.20224 0.0
H902 H 0.66241 0.42844 0.31316 0.0
H903 H 0.66275 0.45508 0.37865 0.0
H904 H 0.62876 0.43171 0.3242 0.0
H905 H 0.63811 0.52998 0.48971 0.0
H906 H 0.55951 0.46904 0.35388 0.0
H907 H 0.6932 0.54711 0.38681 0.0
H908 H 0.69093 0.51177 0.40987 0.0
H909 H 0.68718 0.5368 0.47305 0.0
H910 H 0.5939 0.47233 0.21413 0.0
H911 H 0.56285 0.4428 0.25603 0.0
H912 H 0.59739 0.44111 0.24577 0.0
C913 C 0.17954 0.70942 0.26472 0.0
C914 C 0.1758 0.72631 0.2142 0.0
C915 C 0.1544 0.68743 0.2966 0.0
C916 C 0.12463 0.68184 0.27689 0.0
C917 C 0.12072 0.69932 0.22701 0.0
C918 C 0.14645 0.72158 0.19652 0.0
C919 C 0.15968 0.66975 0.35052 0.0
C920 C 0.0893 0.69377 0.20428 0.0
C921 C 0.06216 0.60318 0.32298 0.0
C922 C 0.05481 0.61113 0.38556 0.0
C923 C 0.0835 0.62621 0.28456 0.0
C924 C 0.0979 0.65782 0.3096 0.0
C925 C 0.08914 0.66605 0.3705 0.0
C926 C 0.06765 0.64269 0.40746 0.0
C927 C 0.09194 0.61658 0.21915 0.0
C928 C 0.10397 0.69943 0.39913 0.0
H929 H 0.2022 0.71301 0.27853 0.0
H930 H 0.1434 0.73424 0.15672 0.0
H931 H 0.15031 0.67261 0.39827 0.0
H932 H 0.14742 0.64461 0.33406 0.0
H933 H 0.18438 0.67757 0.36142 0.0
H934 H 0.09028 0.71028 0.16731 0.0
H935 H 0.07509 0.66979 0.18031 0.0
H936 H 0.07753 0.69588 0.24854 0.0
H937 H 0.05226 0.57895 0.30532 0.0
H938 H 0.0619 0.64925 0.45523 0.0
H939 H 0.11545 0.62013 0.22636 0.0
H940 H 0.09199 0.63114 0.17838 0.0
H941 H 0.07596 0.59181 0.20214 0.0
H942 H 0.12829 0.70785 0.4162 0.0
H943 H 0.09232 0.70228 0.44295 0.0
H944 H 0.10382 0.71443 0.35964 0.0
loop_
_geom_bond_atom_site_label_1
_geom_bond_atom_site_label_2
_geom_bond_distance
_geom_bond_site_symmetry_2
_ccdc_geom_bond_type
C0 O2 1.247 . S
C0 O4 1.258 . S
C1 O8 1.247 . S
C1 O9 1.258 . S
O2 C0 1.247 . S
O2 Zn3 2.028 . S
Zn3 O2 2.028 . S
Zn3 O7 2.035 . S
Zn3 O9 2.035 . S
Zn3 O10 2.028 . S
O4 C0 1.258 . S
O4 Zn5 2.035 . S
Zn5 O4 2.035 . S
Zn5 O6 2.028 . S
Zn5 O8 2.028 . S
Zn5 O11 2.035 . S
O6 Zn5 2.028 . S
O6 C12 1.247 . S
O7 Zn3 2.035 . S
O7 C12 1.258 . S
O8 C1 1.247 . S
O8 Zn5 2.028 . S
O9 C1 1.258 . S
O9 Zn3 2.035 . S
O10 Zn3 2.028 . S
O10 C13 1.247 . S
O11 Zn5 2.035 . S
O11 C13 1.258 . S
C12 O6 1.247 . S
C12 O7 1.258 . S
C13 O10 1.247 . S
C13 O11 1.258 . S
C14 O16 1.247 . S
C14 O18 1.258 . S
C15 O22 1.247 . S
C15 O23 1.258 . S
O16 C14 1.247 . S
O16 Zn17 2.028 . S
Zn17 O16 2.028 . S
Zn17 O21 2.035 . S
Zn17 O23 2.035 . S
Zn17 O24 2.028 . S
O18 C14 1.258 . S
O18 Zn19 2.035 . S
Zn19 O18 2.035 . S
Zn19 O20 2.028 . S
Zn19 O22 2.028 . S
Zn19 O25 2.035 . S
O20 Zn19 2.028 . S
O20 C26 1.247 . S
O21 Zn17 2.035 . S
O21 C26 1.258 . S
O22 C15 1.247 . S
O22 Zn19 2.028 . S
O23 C15 1.258 . S
O23 Zn17 2.035 . S
O24 Zn17 2.028 . S
O24 C27 1.247 . S
O25 Zn19 2.035 . S
O25 C27 1.258 . S
C26 O20 1.247 . S
C26 O21 1.258 . S
C27 O24 1.247 . S
C27 O25 1.258 . S
C28 O30 1.247 . S
C28 O32 1.258 . S
C29 O36 1.247 . S
C29 O37 1.258 . S
O30 C28 1.247 . S
O30 Zn31 2.028 . S
Zn31 O30 2.028 . S
Zn31 O35 2.035 . S
Zn31 O37 2.035 1_554 S
Zn31 O38 2.028 1_554 S
O32 C28 1.258 . S
O32 Zn33 2.035 . S
Zn33 O32 2.035 . S
Zn33 O34 2.028 . S
Zn33 O36 2.028 1_554 S
Zn33 O39 2.035 1_554 S
O34 Zn33 2.028 . S
O34 C40 1.247 . S
O35 Zn31 2.035 . S
O35 C40 1.258 . S
O36 C29 1.247 . S
O36 Zn33 2.028 1_556 S
O37 C29 1.258 . S
O37 Zn31 2.035 1_556 S
O38 Zn31 2.028 1_556 S
O38 C41 1.247 . S
O39 Zn33 2.035 1_556 S
O39 C41 1.258 . S
C40 O34 1.247 . S
C40 O35 1.258 . S
C41 O38 1.247 . S
C41 O39 1.258 . S
C42 O44 1.247 1_556 S
C42 O46 1.258 . S
C43 O50 1.247 . S
C43 O51 1.258 . S
O44 C42 1.247 1_554 S
O44 Zn45 2.028 . S
Zn45 O44 2.028 . S
Zn45 O49 2.035 . S
Zn45 O51 2.035 . S
Zn45 O52 2.028 . S
O46 C42 1.258 . S
O46 Zn47 2.035 1_556 S
Zn47 O46 2.035 1_554 S
Zn47 O48 2.028 1_554 S
Zn47 O50 2.028 . S
Zn47 O53 2.035 . S
O48 Zn47 2.028 1_556 S
O48 C54 1.247 . S
O49 Zn45 2.035 . S
O49 C54 1.258 1_554 S
O50 C43 1.247 . S
O50 Zn47 2.028 . S
O51 C43 1.258 . S
O51 Zn45 2.035 . S
O52 Zn45 2.028 . S
O52 C55 1.247 . S
O53 Zn47 2.035 . S
O53 C55 1.258 . S
C54 O48 1.247 . S
C54 O49 1.258 1_556 S
C55 O52 1.247 . S
C55 O53 1.258 . S
C56 O58 1.247 . S
C56 O60 1.258 . S
C57 O64 1.247 . S
C57 O65 1.258 . S
O58 C56 1.247 . S
O58 Zn59 2.028 . S
Zn59 O58 2.028 . S
Zn59 O63 2.035 . S
Zn59 O65 2.035 . S
Zn59 O66 2.028 . S
O60 C56 1.258 . S
O60 Zn61 2.035 . S
Zn61 O60 2.035 . S
Zn61 O62 2.028 . S
Zn61 O64 2.028 . S
Zn61 O67 2.035 . S
O62 Zn61 2.028 . S
O62 C68 1.247 . S
O63 Zn59 2.035 . S
O63 C68 1.258 . S
O64 C57 1.247 . S
O64 Zn61 2.028 . S
O65 C57 1.258 . S
O65 Zn59 2.035 . S
O66 Zn59 2.028 . S
O66 C69 1.247 . S
O67 Zn61 2.035 . S
O67 C69 1.258 . S
C68 O62 1.247 . S
C68 O63 1.258 . S
C69 O66 1.247 . S
C69 O67 1.258 . S
C70 O72 1.247 . S
C70 O74 1.258 . S
C71 O78 1.247 . S
C71 O79 1.258 . S
O72 C70 1.247 . S
O72 Zn73 2.028 . S
Zn73 O72 2.028 . S
Zn73 O77 2.035 . S
Zn73 O79 2.035 . S
Zn73 O80 2.028 . S
O74 C70 1.258 . S
O74 Zn75 2.035 . S
Zn75 O74 2.035 . S
Zn75 O76 2.028 . S
Zn75 O78 2.028 . S
Zn75 O81 2.035 . S
O76 Zn75 2.028 . S
O76 C82 1.247 . S
O77 Zn73 2.035 . S
O77 C82 1.258 . S
O78 C71 1.247 . S
O78 Zn75 2.028 . S
O79 C71 1.258 . S
O79 Zn73 2.035 . S
O80 Zn73 2.028 . S
O80 C83 1.247 . S
O81 Zn75 2.035 . S
O81 C83 1.258 . S
C82 O76 1.247 . S
C82 O77 1.258 . S
C83 O80 1.247 . S
C83 O81 1.258 . S
C84 O96 1.241 . S
C84 O97 1.280 . S
C85 O98 1.277 . S
C85 O99 1.245 . S
C86 O110 1.247 . S
C86 O112 1.289 . S
Mg87 O88 1.926 . S
Mg87 O97 1.984 . S
Mg87 O99 1.988 1_655 S
Mg87 O100 2.061 . S
O88 Mg87 1.926 . S
O88 Mg89 1.986 1_655 S
O88 Mg90 1.917 1_655 S
Mg89 O88 1.986 1_455 S
Mg89 O96 2.042 1_455 S
Mg89 O98 2.041 . S
Mg89 O104 2.038 1_455 S
Mg89 O112 2.238 . S
Mg90 O88 1.917 1_455 S
Mg90 O91 1.917 . S
Mg90 O101 2.106 1_455 S
Mg90 O103 2.079 1_455 S
Mg90 O112 2.106 . S
Mg90 O113 2.079 . S
O91 Mg90 1.917 . S
O91 Mg92 1.926 . S
O91 Mg93 1.986 . S
Mg92 O91 1.926 . S
Mg92 O106 1.984 . S
Mg92 O109 1.988 1_455 S
Mg92 O110 2.061 . S
Mg93 O91 1.986 . S
Mg93 O101 2.238 1_455 S
Mg93 O105 2.042 . S
Mg93 O107 2.041 1_455 S
Mg93 O114 2.038 . S
C94 O100 1.247 . S
C94 O101 1.289 . S
C95 O113 1.245 . S
C95 O114 1.274 . S
O96 C84 1.241 . S
O96 Mg89 2.042 1_655 S
O97 C84 1.280 . S
O97 Mg87 1.984 . S
O98 C85 1.277 . S
O98 Mg89 2.041 . S
O99 C85 1.245 . S
O99 Mg87 1.988 1_455 S
O100 Mg87 2.061 . S
O100 C94 1.247 . S
O101 Mg90 2.106 1_655 S
O101 Mg93 2.238 1_655 S
O101 C94 1.289 . S
C102 O103 1.245 . S
C102 O104 1.274 . S
O103 Mg90 2.079 1_655 S
O103 C102 1.245 . S
O104 Mg89 2.038 1_655 S
O104 C102 1.274 . S
O105 Mg93 2.042 . S
O105 C108 1.241 . S
O106 Mg92 1.984 . S
O106 C108 1.280 . S
O107 Mg93 2.041 1_655 S
O107 C111 1.277 . S
C108 O105 1.241 . S
C108 O106 1.280 . S
O109 Mg92 1.988 1_655 S
O109 C111 1.245 . S
O110 C86 1.247 . S
O110 Mg92 2.061 . S
C111 O107 1.277 . S
C111 O109 1.245 . S
O112 C86 1.289 . S
O112 Mg89 2.238 . S
O112 Mg90 2.106 . S
O113 Mg90 2.079 . S
O113 C95 1.245 . S
O114 Mg93 2.038 . S
O114 C95 1.274 . S
C115 O127 1.241 . S
C115 O128 1.280 . S
C116 O129 1.277 . S
C116 O130 1.245 . S
C117 O141 1.247 . S
C117 O143 1.289 . S
Mg118 O119 1.926 . S
Mg118 O128 1.984 . S
Mg118 O130 1.988 1_545 S
Mg118 O131 2.061 . S
O119 Mg118 1.926 . S
O119 Mg120 1.986 . S
O119 Mg121 1.917 . S
Mg120 O119 1.986 . S
Mg120 O127 2.042 . S
Mg120 O129 2.041 1_545 S
Mg120 O135 2.038 . S
Mg120 O143 2.238 1_545 S
Mg121 O119 1.917 . S
Mg121 O122 1.917 1_545 S
Mg121 O132 2.106 . S
Mg121 O134 2.079 . S
Mg121 O143 2.106 1_545 S
Mg121 O144 2.079 1_545 S
O122 Mg121 1.917 1_565 S
O122 Mg123 1.926 . S
O122 Mg124 1.986 1_565 S
Mg123 O122 1.926 . S
Mg123 O137 1.984 . S
Mg123 O140 1.988 1_565 S
Mg123 O141 2.061 . S
Mg124 O122 1.986 1_545 S
Mg124 O132 2.238 . S
Mg124 O136 2.042 1_545 S
Mg124 O138 2.041 . S
Mg124 O145 2.038 1_545 S
C125 O131 1.247 . S
C125 O132 1.289 . S
C126 O144 1.245 . S
C126 O145 1.274 . S
O127 C115 1.241 . S
O127 Mg120 2.042 . S
O128 C115 1.280 . S
O128 Mg118 1.984 . S
O129 C116 1.277 . S
O129 Mg120 2.041 1_565 S
O130 C116 1.245 . S
O130 Mg118 1.988 1_565 S
O131 Mg118 2.061 . S
O131 C125 1.247 . S
O132 Mg121 2.106 . S
O132 Mg124 2.238 . S
O132 C125 1.289 . S
C133 O134 1.245 . S
C133 O135 1.274 . S
O134 Mg121 2.079 . S
O134 C133 1.245 . S
O135 Mg120 2.038 . S
O135 C133 1.274 . S
O136 Mg124 2.042 1_565 S
O136 C139 1.241 . S
O137 Mg123 1.984 . S
O137 C139 1.280 . S
O138 Mg124 2.041 . S
O138 C142 1.277 . S
C139 O136 1.241 . S
C139 O137 1.280 . S
O140 Mg123 1.988 1_545 S
O140 C142 1.245 . S
O141 C117 1.247 . S
O141 Mg123 2.061 . S
C142 O138 1.277 . S
C142 O140 1.245 . S
O143 C117 1.289 . S
O143 Mg120 2.238 1_565 S
O143 Mg121 2.106 1_565 S
O144 Mg121 2.079 1_565 S
O144 C126 1.245 . S
O145 Mg124 2.038 1_565 S
O145 C126 1.274 . S
C146 O158 1.241 . S
C146 O159 1.280 . S
C147 O160 1.277 . S
C147 O161 1.245 . S
C148 O172 1.247 . S
C148 O174 1.289 . S
Mg149 O150 1.926 . S
Mg149 O159 1.984 . S
Mg149 O161 1.988 . S
Mg149 O162 2.061 . S
O150 Mg149 1.926 . S
O150 Mg151 1.986 . S
O150 Mg152 1.917 . S
Mg151 O150 1.986 . S
Mg151 O158 2.042 . S
Mg151 O160 2.041 . S
Mg151 O166 2.038 . S
Mg151 O174 2.238 . S
Mg152 O150 1.917 . S
Mg152 O153 1.917 . S
Mg152 O163 2.106 . S
Mg152 O165 2.079 . S
Mg152 O174 2.106 . S
Mg152 O175 2.079 . S
O153 Mg152 1.917 . S
O153 Mg154 1.926 . S
O153 Mg155 1.986 . S
Mg154 O153 1.926 . S
Mg154 O168 1.984 . S
Mg154 O171 1.988 . S
Mg154 O172 2.061 . S
Mg155 O153 1.986 . S
Mg155 O163 2.238 . S
Mg155 O167 2.042 . S
Mg155 O169 2.041 . S
Mg155 O176 2.038 . S
C156 O162 1.247 . S
C156 O163 1.289 . S
C157 O175 1.245 . S
C157 O176 1.274 . S
O158 C146 1.241 . S
O158 Mg151 2.042 . S
O159 C146 1.280 . S
O159 Mg149 1.984 . S
O160 C147 1.277 . S
O160 Mg151 2.041 . S
O161 C147 1.245 . S
O161 Mg149 1.988 . S
O162 Mg149 2.061 . S
O162 C156 1.247 . S
O163 Mg152 2.106 . S
O163 Mg155 2.238 . S
O163 C156 1.289 . S
C164 O165 1.245 . S
C164 O166 1.274 . S
O165 Mg152 2.079 . S
O165 C164 1.245 . S
O166 Mg151 2.038 . S
O166 C164 1.274 . S
O167 Mg155 2.042 . S
O167 C170 1.241 . S
O168 Mg154 1.984 . S
O168 C170 1.280 . S
O169 Mg155 2.041 . S
O169 C173 1.277 . S
C170 O167 1.241 . S
C170 O168 1.280 . S
O171 Mg154 1.988 . S
O171 C173 1.245 . S
O172 C148 1.247 . S
O172 Mg154 2.061 . S
C173 O169 1.277 . S
C173 O171 1.245 . S
O174 C148 1.289 . S
O174 Mg151 2.238 . S
O174 Mg152 2.106 . S
O175 Mg152 2.079 . S
O175 C157 1.245 . S
O176 Mg155 2.038 . S
O176 C157 1.274 . S
C177 C178 1.391 . S
C177 C179 1.394 . S
C177 H193 0.931 . S
C178 C177 1.391 . S
C178 C182 1.376 . S
C179 C177 1.394 . S
C179 C180 1.369 . S
C179 C183 1.531 . S
C180 C179 1.369 . S
C180 C181 1.410 . S
C180 C188 1.503 . S
C181 C180 1.410 . S
C181 C182 1.392 . S
C181 C184 1.511 . S
C182 C178 1.376 . S
C182 C181 1.392 . S
C182 H194 0.929 . S
C183 C179 1.531 . S
C183 H195 0.960 . S
C183 H196 0.962 . S
C183 H197 0.960 . S
C184 C181 1.511 . S
C184 H198 0.961 . S
C184 H199 0.961 . S
C184 H200 0.961 . S
C185 C186 1.370 . S
C185 C187 1.363 . S
C185 H201 0.931 . S
C186 C185 1.370 . S
C186 C190 1.408 . S
C187 C185 1.363 . S
C187 C188 1.370 . S
C187 C191 1.524 . S
C188 C180 1.503 . S
C188 C187 1.370 . S
C188 C189 1.403 . S
C189 C188 1.403 . S
C189 C190 1.404 . S
C189 C192 1.539 . S
C190 C186 1.408 . S
C190 C189 1.404 . S
C190 H202 0.930 . S
C191 C187 1.524 . S
C191 H203 0.956 . S
C191 H204 0.961 . S
C191 H205 0.961 . S
C192 C189 1.539 . S
C192 H206 0.958 . S
C192 H207 0.961 . S
C192 H208 0.960 . S
H193 C177 0.931 . S
H194 C182 0.929 . S
H195 C183 0.960 . S
H196 C183 0.962 . S
H197 C183 0.960 . S
H198 C184 0.961 . S
H199 C184 0.961 . S
H200 C184 0.961 . S
H201 C185 0.931 . S
H202 C190 0.930 . S
H203 C191 0.956 . S
H204 C191 0.961 . S
H205 C191 0.961 . S
H206 C192 0.958 . S
H207 C192 0.961 . S
H208 C192 0.960 . S
C209 C210 1.391 . S
C209 C211 1.394 . S
C209 H225 0.931 . S
C210 C209 1.391 . S
C210 C214 1.376 . S
C211 C209 1.394 . S
C211 C212 1.369 . S
C211 C215 1.531 . S
C212 C211 1.369 . S
C212 C213 1.410 . S
C212 C220 1.503 . S
C213 C212 1.410 . S
C213 C214 1.392 . S
C213 C216 1.511 . S
C214 C210 1.376 . S
C214 C213 1.392 . S
C214 H226 0.929 . S
C215 C211 1.531 . S
C215 H227 0.960 . S
C215 H228 0.962 . S
C215 H229 0.960 . S
C216 C213 1.511 . S
C216 H230 0.961 . S
C216 H231 0.961 . S
C216 H232 0.961 . S
C217 C218 1.370 . S
C217 C219 1.363 . S
C217 H233 0.931 . S
C218 C217 1.370 . S
C218 C222 1.408 . S
C219 C217 1.363 . S
C219 C220 1.370 . S
C219 C223 1.524 . S
C220 C212 1.503 . S
C220 C219 1.370 . S
C220 C221 1.403 . S
C221 C220 1.403 . S
C221 C222 1.404 . S
C221 C224 1.539 . S
C222 C218 1.408 . S
C222 C221 1.404 . S
C222 H234 0.930 . S
C223 C219 1.524 . S
C223 H235 0.956 . S
C223 H236 0.961 . S
C223 H237 0.961 . S
C224 C221 1.539 . S
C224 H238 0.958 . S
C224 H239 0.961 . S
C224 H240 0.960 . S
H225 C209 0.931 . S
H226 C214 0.929 . S
H227 C215 0.960 . S
H228 C215 0.962 . S
H229 C215 0.960 . S
H230 C216 0.961 . S
H231 C216 0.961 . S
H232 C216 0.961 . S
H233 C217 0.931 . S
H234 C222 0.930 . S
H235 C223 0.956 . S
H236 C223 0.961 . S
H237 C223 0.961 . S
H238 C224 0.958 . S
H239 C224 0.961 . S
H240 C224 0.960 . S
C241 C242 1.391 . S
C241 C243 1.394 . S
C241 H257 0.931 . S
C242 C241 1.391 . S
C242 C246 1.376 . S
C243 C241 1.394 . S
C243 C244 1.369 . S
C243 C247 1.531 . S
C244 C243 1.369 . S
C244 C245 1.410 . S
C244 C252 1.503 . S
C245 C244 1.410 . S
C245 C246 1.392 . S
C245 C248 1.511 . S
C246 C242 1.376 . S
C246 C245 1.392 . S
C246 H258 0.929 . S
C247 C243 1.531 . S
C247 H259 0.960 . S
C247 H260 0.962 . S
C247 H261 0.960 . S
C248 C245 1.511 . S
C248 H262 0.961 . S
C248 H263 0.961 . S
C248 H264 0.961 . S
C249 C250 1.370 . S
C249 C251 1.363 . S
C249 H265 0.931 . S
C250 C249 1.370 . S
C250 C254 1.408 . S
C251 C249 1.363 . S
C251 C252 1.370 . S
C251 C255 1.524 . S
C252 C244 1.503 . S
C252 C251 1.370 . S
C252 C253 1.403 . S
C253 C252 1.403 . S
C253 C254 1.404 . S
C253 C256 1.539 . S
C254 C250 1.408 . S
C254 C253 1.404 . S
C254 H266 0.930 . S
C255 C251 1.524 . S
C255 H267 0.956 . S
C255 H268 0.961 . S
C255 H269 0.961 . S
C256 C253 1.539 . S
C256 H270 0.958 . S
C256 H271 0.961 . S
C256 H272 0.960 . S
H257 C241 0.931 . S
H258 C246 0.929 . S
H259 C247 0.960 . S
H260 C247 0.962 . S
H261 C247 0.960 . S
H262 C248 0.961 . S
H263 C248 0.961 . S
H264 C248 0.961 . S
H265 C249 0.931 . S
H266 C254 0.930 . S
H267 C255 0.956 . S
H268 C255 0.961 . S
H269 C255 0.961 . S
H270 C256 0.958 . S
H271 C256 0.961 . S
H272 C256 0.960 . S
C273 C274 1.391 . S
C273 C275 1.394 . S
C273 H289 0.931 . S
C274 C273 1.391 . S
C274 C278 1.376 . S
C275 C273 1.394 . S
C275 C276 1.369 . S
C275 C279 1.531 . S
C276 C275 1.369 . S
C276 C277 1.410 . S
C276 C284 1.503 . S
C277 C276 1.410 . S
C277 C278 1.392 . S
C277 C280 1.511 . S
C278 C274 1.376 . S
C278 C277 1.392 . S
C278 H290 0.929 . S
C279 C275 1.531 . S
C279 H291 0.960 . S
C279 H292 0.962 . S
C279 H293 0.960 . S
C280 C277 1.511 . S
C280 H294 0.961 . S
C280 H295 0.961 . S
C280 H296 0.961 . S
C281 C282 1.370 . S
C281 C283 1.363 . S
C281 H297 0.931 . S
C282 C281 1.370 . S
C282 C286 1.408 . S
C283 C281 1.363 . S
C283 C284 1.370 . S
C283 C287 1.524 . S
C284 C276 1.503 . S
C284 C283 1.370 . S
C284 C285 1.403 . S
C285 C284 1.403 . S
C285 C286 1.404 . S
C285 C288 1.539 . S
C286 C282 1.408 . S
C286 C285 1.404 . S
C286 H298 0.930 . S
C287 C283 1.524 . S
C287 H299 0.956 . S
C287 H300 0.961 . S
C287 H301 0.961 . S
C288 C285 1.539 . S
C288 H302 0.958 . S
C288 H303 0.961 . S
C288 H304 0.960 . S
H289 C273 0.931 . S
H290 C278 0.929 . S
H291 C279 0.960 . S
H292 C279 0.962 . S
H293 C279 0.960 . S
H294 C280 0.961 . S
H295 C280 0.961 . S
H296 C280 0.961 . S
H297 C281 0.931 . S
H298 C286 0.930 . S
H299 C287 0.956 . S
H300 C287 0.961 . S
H301 C287 0.961 . S
H302 C288 0.958 . S
H303 C288 0.961 . S
H304 C288 0.960 . S
C305 C306 1.391 . S
C305 C307 1.394 . S
C305 H321 0.931 . S
C306 C305 1.391 . S
C306 C310 1.376 . S
C307 C305 1.394 . S
C307 C308 1.369 . S
C307 C311 1.531 . S
C308 C307 1.369 . S
C308 C309 1.410 . S
C308 C316 1.503 . S
C309 C308 1.410 . S
C309 C310 1.392 . S
C309 C312 1.511 . S
C310 C306 1.376 . S
C310 C309 1.392 . S
C310 H322 0.929 . S
C311 C307 1.531 . S
C311 H323 0.960 . S
C311 H324 0.962 . S
C311 H325 0.960 . S
C312 C309 1.511 . S
C312 H326 0.961 . S
C312 H327 0.961 . S
C312 H328 0.961 . S
C313 C314 1.370 . S
C313 C315 1.363 . S
C313 H329 0.931 . S
C314 C313 1.370 . S
C314 C318 1.408 . S
C315 C313 1.363 . S
C315 C316 1.370 . S
C315 C319 1.524 . S
C316 C308 1.503 . S
C316 C315 1.370 . S
C316 C317 1.403 . S
C317 C316 1.403 . S
C317 C318 1.404 . S
C317 C320 1.539 . S
C318 C314 1.408 . S
C318 C317 1.404 . S
C318 H330 0.930 . S
C319 C315 1.524 . S
C319 H331 0.956 . S
C319 H332 0.961 . S
C319 H333 0.961 . S
C320 C317 1.539 . S
C320 H334 0.958 . S
C320 H335 0.961 . S
C320 H336 0.960 . S
H321 C305 0.931 . S
H322 C310 0.929 . S
H323 C311 0.960 . S
H324 C311 0.962 . S
H325 C311 0.960 . S
H326 C312 0.961 . S
H327 C312 0.961 . S
H328 C312 0.961 . S
H329 C313 0.931 . S
H330 C318 0.930 . S
H331 C319 0.956 . S
H332 C319 0.961 . S
H333 C319 0.961 . S
H334 C320 0.958 . S
H335 C320 0.961 . S
H336 C320 0.960 . S
C337 C338 1.391 . S
C337 C339 1.394 . S
C337 H353 0.931 . S
C338 C337 1.391 . S
C338 C342 1.376 . S
C339 C337 1.394 . S
C339 C340 1.369 . S
C339 C343 1.531 . S
C340 C339 1.369 . S
C340 C341 1.410 . S
C340 C348 1.503 . S
C341 C340 1.410 . S
C341 C342 1.392 . S
C341 C344 1.511 . S
C342 C338 1.376 . S
C342 C341 1.392 . S
C342 H354 0.929 . S
C343 C339 1.531 . S
C343 H355 0.960 . S
C343 H356 0.962 . S
C343 H357 0.960 . S
C344 C341 1.511 . S
C344 H358 0.961 . S
C344 H359 0.961 . S
C344 H360 0.961 . S
C345 C346 1.370 . S
C345 C347 1.363 . S
C345 H361 0.931 . S
C346 C345 1.370 . S
C346 C350 1.408 . S
C347 C345 1.363 . S
C347 C348 1.370 . S
C347 C351 1.524 . S
C348 C340 1.503 . S
C348 C347 1.370 . S
C348 C349 1.403 . S
C349 C348 1.403 . S
C349 C350 1.404 . S
C349 C352 1.539 . S
C350 C346 1.408 . S
C350 C349 1.404 . S
C350 H362 0.930 . S
C351 C347 1.524 . S
C351 H363 0.956 . S
C351 H364 0.961 . S
C351 H365 0.961 . S
C352 C349 1.539 . S
C352 H366 0.958 . S
C352 H367 0.961 . S
C352 H368 0.960 . S
H353 C337 0.931 . S
H354 C342 0.929 . S
H355 C343 0.960 . S
H356 C343 0.962 . S
H357 C343 0.960 . S
H358 C344 0.961 . S
H359 C344 0.961 . S
H360 C344 0.961 . S
H361 C345 0.931 . S
H362 C350 0.930 . S
H363 C351 0.956 . S
H364 C351 0.961 . S
H365 C351 0.961 . S
H366 C352 0.958 . S
H367 C352 0.961 . S
H368 C352 0.960 . S
C369 C370 1.391 . S
C369 C371 1.394 . S
C369 H385 0.931 . S
C370 C369 1.391 . S
C370 C374 1.376 . S
C371 C369 1.394 . S
C371 C372 1.369 . S
C371 C375 1.531 . S
C372 C371 1.369 . S
C372 C373 1.410 . S
C372 C380 1.503 . S
C373 C372 1.410 . S
C373 C374 1.392 . S
C373 C376 1.511 . S
C374 C370 1.376 . S
C374 C373 1.392 . S
C374 H386 0.929 . S
C375 C371 1.531 . S
C375 H387 0.960 . S
C375 H388 0.962 . S
C375 H389 0.960 . S
C376 C373 1.511 . S
C376 H390 0.961 . S
C376 H391 0.961 . S
C376 H392 0.961 . S
C377 C378 1.370 . S
C377 C379 1.363 . S
C377 H393 0.931 . S
C378 C377 1.370 . S
C378 C382 1.408 . S
C379 C377 1.363 . S
C379 C380 1.370 . S
C379 C383 1.524 . S
C380 C372 1.503 . S
C380 C379 1.370 . S
C380 C381 1.403 . S
C381 C380 1.403 . S
C381 C382 1.404 . S
C381 C384 1.539 . S
C382 C378 1.408 . S
C382 C381 1.404 . S
C382 H394 0.930 . S
C383 C379 1.524 . S
C383 H395 0.956 . S
C383 H396 0.961 . S
C383 H397 0.961 . S
C384 C381 1.539 . S
C384 H398 0.958 . S
C384 H399 0.961 . S
C384 H400 0.960 . S
H385 C369 0.931 . S
H386 C374 0.929 . S
H387 C375 0.960 . S
H388 C375 0.962 . S
H389 C375 0.960 . S
H390 C376 0.961 . S
H391 C376 0.961 . S
H392 C376 0.961 . S
H393 C377 0.931 . S
H394 C382 0.930 . S
H395 C383 0.956 . S
H396 C383 0.961 . S
H397 C383 0.961 . S
H398 C384 0.958 . S
H399 C384 0.961 . S
H400 C384 0.960 . S
C401 C402 1.391 . S
C401 C403 1.394 . S
C401 H417 0.931 . S
C402 C401 1.391 . S
C402 C406 1.376 . S
C403 C401 1.394 . S
C403 C404 1.369 . S
C403 C407 1.531 . S
C404 C403 1.369 . S
C404 C405 1.410 . S
C404 C412 1.503 . S
C405 C404 1.410 . S
C405 C406 1.392 . S
C405 C408 1.511 . S
C406 C402 1.376 . S
C406 C405 1.392 . S
C406 H418 0.929 1_556 S
C407 C403 1.531 . S
C407 H419 0.960 . S
C407 H420 0.962 . S
C407 H421 0.960 . S
C408 C405 1.511 . S
C408 H422 0.961 . S
C408 H423 0.961 . S
C408 H424 0.961 . S
C409 C410 1.370 . S
C409 C411 1.363 . S
C409 H425 0.931 . S
C410 C409 1.370 . S
C410 C414 1.408 . S
C411 C409 1.363 . S
C411 C412 1.370 . S
C411 C415 1.524 . S
C412 C404 1.503 . S
C412 C411 1.370 . S
C412 C413 1.403 . S
C413 C412 1.403 . S
C413 C414 1.404 . S
C413 C416 1.539 . S
C414 C410 1.408 . S
C414 C413 1.404 . S
C414 H426 0.930 . S
C415 C411 1.524 . S
C415 H427 0.956 . S
C415 H428 0.961 . S
C415 H429 0.961 . S
C416 C413 1.539 . S
C416 H430 0.958 . S
C416 H431 0.961 . S
C416 H432 0.960 . S
H417 C401 0.931 . S
H418 C406 0.929 1_554 S
H419 C407 0.960 . S
H420 C407 0.962 . S
H421 C407 0.960 . S
H422 C408 0.961 . S
H423 C408 0.961 . S
H424 C408 0.961 . S
H425 C409 0.931 . S
H426 C414 0.930 . S
H427 C415 0.956 . S
H428 C415 0.961 . S
H429 C415 0.961 . S
H430 C416 0.958 . S
H431 C416 0.961 . S
H432 C416 0.960 . S
C433 C434 1.391 . S
C433 C435 1.394 . S
C433 H449 0.931 1_556 S
C434 C433 1.391 . S
C434 C438 1.376 . S
C435 C433 1.394 . S
C435 C436 1.369 . S
C435 C439 1.531 . S
C436 C435 1.369 . S
C436 C437 1.410 . S
C436 C444 1.503 . S
C437 C436 1.410 . S
C437 C438 1.392 . S
C437 C440 1.511 . S
C438 C434 1.376 . S
C438 C437 1.392 . S
C438 H450 0.929 . S
C439 C435 1.531 . S
C439 H451 0.960 . S
C439 H452 0.962 . S
C439 H453 0.960 1_556 S
C440 C437 1.511 . S
C440 H454 0.961 . S
C440 H455 0.961 . S
C440 H456 0.961 . S
C441 C442 1.370 . S
C441 C443 1.363 . S
C441 H457 0.931 . S
C442 C441 1.370 . S
C442 C446 1.408 . S
C443 C441 1.363 . S
C443 C444 1.370 . S
C443 C447 1.524 . S
C444 C436 1.503 . S
C444 C443 1.370 . S
C444 C445 1.403 . S
C445 C444 1.403 . S
C445 C446 1.404 . S
C445 C448 1.539 . S
C446 C442 1.408 . S
C446 C445 1.404 . S
C446 H458 0.930 . S
C447 C443 1.524 . S
C447 H459 0.956 . S
C447 H460 0.961 . S
C447 H461 0.961 . S
C448 C445 1.539 . S
C448 H462 0.958 . S
C448 H463 0.961 . S
C448 H464 0.960 . S
H449 C433 0.931 1_554 S
H450 C438 0.929 . S
H451 C439 0.960 . S
H452 C439 0.962 . S
H453 C439 0.960 1_554 S
H454 C440 0.961 . S
H455 C440 0.961 . S
H456 C440 0.961 . S
H457 C441 0.931 . S
H458 C446 0.930 . S
H459 C447 0.956 . S
H460 C447 0.961 . S
H461 C447 0.961 . S
H462 C448 0.958 . S
H463 C448 0.961 . S
H464 C448 0.960 . S
C465 C466 1.391 . S
C465 C467 1.394 1_554 S
C465 H481 0.931 . S
C466 C465 1.391 . S
C466 C470 1.376 . S
C467 C465 1.394 1_556 S
C467 C468 1.369 . S
C467 C471 1.531 . S
C468 C467 1.369 . S
C468 C469 1.410 1_556 S
C468 C476 1.503 . S
C469 C468 1.410 1_554 S
C469 C470 1.392 . S
C469 C472 1.511 . S
C470 C466 1.376 . S
C470 C469 1.392 . S
C470 H482 0.929 . S
C471 C467 1.531 . S
C471 H483 0.960 . S
C471 H484 0.962 . S
C471 H485 0.960 . S
C472 C469 1.511 . S
C472 H486 0.961 . S
C472 H487 0.961 . S
C472 H488 0.961 . S
C473 C474 1.370 . S
C473 C475 1.363 . S
C473 H489 0.931 . S
C474 C473 1.370 . S
C474 C478 1.408 . S
C475 C473 1.363 . S
C475 C476 1.370 . S
C475 C479 1.524 1_556 S
C476 C468 1.503 . S
C476 C475 1.370 . S
C476 C477 1.403 . S
C477 C476 1.403 . S
C477 C478 1.404 . S
C477 C480 1.539 . S
C478 C474 1.408 . S
C478 C477 1.404 . S
C478 H490 0.930 . S
C479 C475 1.524 1_554 S
C479 H491 0.956 1_554 S
C479 H492 0.961 . S
C479 H493 0.961 . S
C480 C477 1.539 . S
C480 H494 0.958 . S
C480 H495 0.961 . S
C480 H496 0.960 . S
H481 C465 0.931 . S
H482 C470 0.929 . S
H483 C471 0.960 . S
H484 C471 0.962 . S
H485 C471 0.960 . S
H486 C472 0.961 . S
H487 C472 0.961 . S
H488 C472 0.961 . S
H489 C473 0.931 . S
H490 C478 0.930 . S
H491 C479 0.956 1_556 S
H492 C479 0.961 . S
H493 C479 0.961 . S
H494 C480 0.958 . S
H495 C480 0.961 . S
H496 C480 0.960 . S
C497 C498 1.391 1_556 S
C497 C499 1.394 . S
C497 H513 0.931 . S
C498 C497 1.391 1_554 S
C498 C502 1.376 . S
C499 C497 1.394 . S
C499 C500 1.369 . S
C499 C503 1.531 . S
C500 C499 1.369 . S
C500 C501 1.410 1_556 S
C500 C508 1.503 . S
C501 C500 1.410 1_554 S
C501 C502 1.392 . S
C501 C504 1.511 . S
C502 C498 1.376 . S
C502 C501 1.392 . S
C502 H514 0.929 . S
C503 C499 1.531 . S
C503 H515 0.960 . S
C503 H516 0.962 . S
C503 H517 0.960 . S
C504 C501 1.511 . S
C504 H518 0.961 . S
C504 H519 0.961 1_554 S
C504 H520 0.961 . S
C505 C506 1.370 . S
C505 C507 1.363 . S
C505 H521 0.931 . S
C506 C505 1.370 . S
C506 C510 1.408 . S
C507 C505 1.363 . S
C507 C508 1.370 . S
C507 C511 1.524 . S
C508 C500 1.503 . S
C508 C507 1.370 . S
C508 C509 1.403 . S
C509 C508 1.403 . S
C509 C510 1.404 . S
C509 C512 1.539 . S
C510 C506 1.408 . S
C510 C509 1.404 . S
C510 H522 0.930 . S
C511 C507 1.524 . S
C511 H523 0.956 . S
C511 H524 0.961 . S
C511 H525 0.961 . S
C512 C509 1.539 . S
C512 H526 0.958 . S
C512 H527 0.961 . S
C512 H528 0.956 1_556 S
H513 C497 0.931 . S
H514 C502 0.929 . S
H515 C503 0.960 . S
H516 C503 0.962 . S
H517 C503 0.960 . S
H518 C504 0.961 . S
H519 C504 0.961 1_556 S
H520 C504 0.961 . S
H521 C505 0.931 . S
H522 C510 0.930 . S
H523 C511 0.956 . S
H524 C511 0.961 . S
H525 C511 0.961 . S
H526 C512 0.958 . S
H527 C512 0.961 . S
H528 C512 0.956 1_554 S
C529 C530 1.391 1_556 S
C529 C531 1.394 . S
C529 H545 0.931 . S
C530 C529 1.391 1_554 S
C530 C534 1.376 . S
C531 C529 1.394 . S
C531 C532 1.369 . S
C531 C535 1.531 . S
C532 C531 1.369 . S
C532 C533 1.410 . S
C532 C540 1.503 . S
C533 C532 1.410 . S
C533 C534 1.392 1_556 S
C533 C536 1.511 1_556 S
C534 C530 1.376 . S
C534 C533 1.392 1_554 S
C534 H546 0.929 . S
C535 C531 1.531 . S
C535 H547 0.960 . S
C535 H548 0.962 . S
C535 H549 0.960 . S
C536 C533 1.511 1_554 S
C536 H550 0.961 . S
C536 H551 0.961 1_554 S
C536 H552 0.961 1_554 S
C537 C538 1.370 . S
C537 C539 1.363 . S
C537 H553 0.931 . S
C538 C537 1.370 . S
C538 C542 1.408 . S
C539 C537 1.363 . S
C539 C540 1.370 . S
C539 C543 1.524 . S
C540 C532 1.503 . S
C540 C539 1.370 . S
C540 C541 1.403 . S
C541 C540 1.403 . S
C541 C542 1.404 . S
C541 C544 1.539 . S
C542 C538 1.408 . S
C542 C541 1.404 . S
C542 H554 0.930 . S
C543 C539 1.524 . S
C543 H555 0.956 . S
C543 H556 0.961 1_556 S
C543 H557 0.961 . S
C544 C541 1.539 . S
C544 H558 0.958 . S
C544 H559 0.961 . S
C544 H560 0.960 . S
H545 C529 0.931 . S
H546 C534 0.929 . S
H547 C535 0.960 . S
H548 C535 0.962 . S
H549 C535 0.960 . S
H550 C536 0.961 . S
H551 C536 0.961 1_556 S
H552 C536 0.961 1_556 S
H553 C537 0.931 . S
H554 C542 0.930 . S
H555 C543 0.956 . S
H556 C543 0.961 1_554 S
H557 C543 0.961 . S
H558 C544 0.958 . S
H559 C544 0.961 . S
H560 C544 0.960 . S
C561 C562 1.391 . S
C561 C563 1.394 . S
C561 H577 0.931 . S
C562 C561 1.391 . S
C562 C566 1.376 . S
C563 C561 1.394 . S
C563 C564 1.369 . S
C563 C567 1.531 . S
C564 C563 1.369 . S
C564 C565 1.410 . S
C564 C572 1.503 . S
C565 C564 1.410 . S
C565 C566 1.392 . S
C565 C568 1.511 . S
C566 C562 1.376 . S
C566 C565 1.392 . S
C566 H578 0.929 1_556 S
C567 C563 1.531 . S
C567 H579 0.960 . S
C567 H580 0.962 . S
C567 H581 0.960 . S
C568 C565 1.511 . S
C568 H582 0.961 . S
C568 H583 0.961 . S
C568 H584 0.961 . S
C569 C570 1.370 . S
C569 C571 1.363 . S
C569 H585 0.931 . S
C570 C569 1.370 . S
C570 C574 1.408 . S
C571 C569 1.363 . S
C571 C572 1.370 . S
C571 C575 1.524 . S
C572 C564 1.503 . S
C572 C571 1.370 . S
C572 C573 1.403 . S
C573 C572 1.403 . S
C573 C574 1.404 . S
C573 C576 1.539 . S
C574 C570 1.408 . S
C574 C573 1.404 . S
C574 H586 0.930 . S
C575 C571 1.524 . S
C575 H587 0.956 . S
C575 H588 0.961 . S
C575 H589 0.961 . S
C576 C573 1.539 . S
C576 H590 0.958 . S
C576 H591 0.961 . S
C576 H592 0.960 . S
H577 C561 0.931 . S
H578 C566 0.929 1_554 S
H579 C567 0.960 . S
H580 C567 0.962 . S
H581 C567 0.960 . S
H582 C568 0.961 . S
H583 C568 0.961 . S
H584 C568 0.961 . S
H585 C569 0.931 . S
H586 C574 0.930 . S
H587 C575 0.956 . S
H588 C575 0.961 . S
H589 C575 0.961 . S
H590 C576 0.958 . S
H591 C576 0.961 . S
H592 C576 0.960 . S
C593 C594 1.391 . S
C593 C595 1.394 . S
C593 H609 0.931 . S
C594 C593 1.391 . S
C594 C598 1.376 . S
C595 C593 1.394 . S
C595 C596 1.369 . S
C595 C599 1.531 . S
C596 C595 1.369 . S
C596 C597 1.410 . S
C596 C604 1.503 . S
C597 C596 1.410 . S
C597 C598 1.392 . S
C597 C600 1.511 . S
C598 C594 1.376 . S
C598 C597 1.392 . S
C598 H610 0.929 . S
C599 C595 1.531 . S
C599 H611 0.960 . S
C599 H612 0.962 . S
C599 H613 0.960 . S
C600 C597 1.511 . S
C600 H614 0.961 . S
C600 H615 0.961 . S
C600 H616 0.961 . S
C601 C602 1.370 . S
C601 C603 1.363 . S
C601 H617 0.931 . S
C602 C601 1.370 . S
C602 C606 1.408 . S
C603 C601 1.363 . S
C603 C604 1.370 . S
C603 C607 1.524 . S
C604 C596 1.503 . S
C604 C603 1.370 . S
C604 C605 1.403 . S
C605 C604 1.403 . S
C605 C606 1.404 . S
C605 C608 1.539 . S
C606 C602 1.408 . S
C606 C605 1.404 . S
C606 H618 0.930 . S
C607 C603 1.524 . S
C607 H619 0.956 . S
C607 H620 0.961 . S
C607 H621 0.961 . S
C608 C605 1.539 . S
C608 H622 0.958 . S
C608 H623 0.961 . S
C608 H624 0.960 . S
H609 C593 0.931 . S
H610 C598 0.929 . S
H611 C599 0.960 . S
H612 C599 0.962 . S
H613 C599 0.960 . S
H614 C600 0.961 . S
H615 C600 0.961 . S
H616 C600 0.961 . S
H617 C601 0.931 . S
H618 C606 0.930 . S
H619 C607 0.956 . S
H620 C607 0.961 . S
H621 C607 0.961 . S
H622 C608 0.958 . S
H623 C608 0.961 . S
H624 C608 0.960 . S
C625 C626 1.391 . S
C625 C627 1.401 . S
C625 H641 0.931 . S
C626 C625 1.391 . S
C626 C630 1.376 . S
C627 C625 1.401 . S
C627 C628 1.366 1_554 S
C627 C631 1.525 1_554 S
C628 C627 1.366 1_556 S
C628 C629 1.410 1_556 S
C628 C636 1.503 . S
C629 C628 1.410 1_554 S
C629 C630 1.392 . S
C629 C632 1.511 1_554 S
C630 C626 1.376 . S
C630 C629 1.392 . S
C630 H642 0.929 . S
C631 C627 1.525 1_556 S
C631 H643 0.960 . S
C631 H644 0.962 . S
C631 H645 0.960 . S
C632 C629 1.511 1_556 S
C632 H646 0.961 1_556 S
C632 H647 0.961 . S
C632 H648 0.961 . S
C633 C634 1.370 . S
C633 C635 1.363 . S
C633 H649 0.931 . S
C634 C633 1.370 . S
C634 C638 1.408 . S
C635 C633 1.363 . S
C635 C636 1.370 . S
C635 C639 1.524 1_556 S
C636 C628 1.503 . S
C636 C635 1.370 . S
C636 C637 1.403 . S
C637 C636 1.403 . S
C637 C638 1.404 . S
C637 C640 1.539 . S
C638 C634 1.408 . S
C638 C637 1.404 . S
C638 H650 0.930 . S
C639 C635 1.524 1_554 S
C639 H651 0.956 . S
C639 H652 0.961 . S
C639 H653 0.961 . S
C640 C637 1.539 . S
C640 H654 0.958 . S
C640 H655 0.961 . S
C640 H656 0.960 . S
H641 C625 0.931 . S
H642 C630 0.929 . S
H643 C631 0.960 . S
H644 C631 0.962 . S
H645 C631 0.960 . S
H646 C632 0.961 1_554 S
H647 C632 0.961 . S
H648 C632 0.961 . S
H649 C633 0.931 . S
H650 C638 0.930 . S
H651 C639 0.956 . S
H652 C639 0.961 . S
H653 C639 0.961 . S
H654 C640 0.958 . S
H655 C640 0.961 . S
H656 C640 0.960 . S
C657 C658 1.391 . S
C657 C659 1.394 . S
C657 H673 0.931 . S
C658 C657 1.391 . S
C658 C662 1.376 1_554 S
C659 C657 1.394 . S
C659 C660 1.369 1_554 S
C659 C663 1.531 . S
C660 C659 1.369 1_556 S
C660 C661 1.410 . S
C660 C668 1.503 . S
C661 C660 1.410 . S
C661 C662 1.392 . S
C661 C664 1.511 . S
C662 C658 1.376 1_556 S
C662 C661 1.392 . S
C662 H674 0.929 . S
C663 C659 1.531 . S
C663 H675 0.960 . S
C663 H676 0.962 . S
C663 H677 0.960 . S
C664 C661 1.511 . S
C664 H678 0.961 . S
C664 H679 0.961 . S
C664 H680 0.961 . S
C665 C666 1.370 . S
C665 C667 1.363 . S
C665 H681 0.931 . S
C666 C665 1.370 . S
C666 C670 1.408 . S
C667 C665 1.363 . S
C667 C668 1.370 . S
C667 C671 1.524 . S
C668 C660 1.503 . S
C668 C667 1.370 . S
C668 C669 1.403 . S
C669 C668 1.403 . S
C669 C670 1.404 . S
C669 C672 1.539 . S
C670 C666 1.408 . S
C670 C669 1.404 . S
C670 H682 0.930 . S
C671 C667 1.524 . S
C671 H683 0.956 . S
C671 H684 0.961 . S
C671 H685 0.961 . S
C672 C669 1.539 . S
C672 H686 0.958 . S
C672 H687 0.961 . S
C672 H688 0.960 . S
H673 C657 0.931 . S
H674 C662 0.929 . S
H675 C663 0.960 . S
H676 C663 0.962 . S
H677 C663 0.960 . S
H678 C664 0.961 . S
H679 C664 0.961 . S
H680 C664 0.961 . S
H681 C665 0.931 . S
H682 C670 0.930 . S
H683 C671 0.956 . S
H684 C671 0.961 . S
H685 C671 0.961 . S
H686 C672 0.958 . S
H687 C672 0.961 . S
H688 C672 0.960 . S
C689 C690 1.391 . S
C689 C691 1.394 . S
C689 H705 0.931 . S
C690 C689 1.391 . S
C690 C694 1.376 . S
C691 C689 1.394 . S
C691 C692 1.369 . S
C691 C695 1.531 . S
C692 C691 1.369 . S
C692 C693 1.410 . S
C692 C700 1.503 . S
C693 C692 1.410 . S
C693 C694 1.392 . S
C693 C696 1.511 . S
C694 C690 1.376 . S
C694 C693 1.392 . S
C694 H706 0.929 . S
C695 C691 1.531 . S
C695 H707 0.960 . S
C695 H708 0.962 . S
C695 H709 0.960 . S
C696 C693 1.511 . S
C696 H710 0.961 . S
C696 H711 0.961 . S
C696 H712 0.961 . S
C697 C698 1.370 . S
C697 C699 1.363 . S
C697 H713 0.931 . S
C698 C697 1.370 . S
C698 C702 1.408 . S
C699 C697 1.363 . S
C699 C700 1.370 . S
C699 C703 1.524 . S
C700 C692 1.503 . S
C700 C699 1.370 . S
C700 C701 1.403 . S
C701 C700 1.403 . S
C701 C702 1.404 . S
C701 C704 1.539 . S
C702 C698 1.408 . S
C702 C701 1.404 . S
C702 H714 0.930 . S
C703 C699 1.524 . S
C703 H715 0.956 . S
C703 H716 0.961 . S
C703 H717 0.961 . S
C704 C701 1.539 . S
C704 H718 0.958 . S
C704 H719 0.961 . S
C704 H720 0.960 . S
H705 C689 0.931 . S
H706 C694 0.929 . S
H707 C695 0.960 . S
H708 C695 0.962 . S
H709 C695 0.960 . S
H710 C696 0.961 . S
H711 C696 0.961 . S
H712 C696 0.961 . S
H713 C697 0.931 . S
H714 C702 0.930 . S
H715 C703 0.956 . S
H716 C703 0.961 . S
H717 C703 0.961 . S
H718 C704 0.958 . S
H719 C704 0.961 . S
H720 C704 0.960 . S
C721 C722 1.391 . S
C721 C723 1.394 . S
C721 H737 0.931 . S
C722 C721 1.391 . S
C722 C726 1.376 . S
C723 C721 1.394 . S
C723 C724 1.369 . S
C723 C727 1.531 . S
C724 C723 1.369 . S
C724 C725 1.410 . S
C724 C732 1.503 . S
C725 C724 1.410 . S
C725 C726 1.392 . S
C725 C728 1.511 . S
C726 C722 1.376 . S
C726 C725 1.392 . S
C726 H738 0.929 . S
C727 C723 1.531 . S
C727 H739 0.960 . S
C727 H740 0.962 . S
C727 H741 0.960 . S
C728 C725 1.511 . S
C728 H742 0.961 . S
C728 H743 0.961 . S
C728 H744 0.961 . S
C729 C730 1.370 . S
C729 C731 1.363 . S
C729 H745 0.931 . S
C730 C729 1.370 . S
C730 C734 1.408 . S
C731 C729 1.363 . S
C731 C732 1.370 . S
C731 C735 1.524 . S
C732 C724 1.503 . S
C732 C731 1.370 . S
C732 C733 1.403 . S
C733 C732 1.403 . S
C733 C734 1.404 . S
C733 C736 1.539 . S
C734 C730 1.408 . S
C734 C733 1.404 . S
C734 H746 0.930 . S
C735 C731 1.524 . S
C735 H747 0.956 . S
C735 H748 0.961 . S
C735 H749 0.961 . S
C736 C733 1.539 . S
C736 H750 0.958 . S
C736 H751 0.961 . S
C736 H752 0.960 . S
H737 C721 0.931 . S
H738 C726 0.929 . S
H739 C727 0.960 . S
H740 C727 0.962 . S
H741 C727 0.960 . S
H742 C728 0.961 . S
H743 C728 0.961 . S
H744 C728 0.961 . S
H745 C729 0.931 . S
H746 C734 0.930 . S
H747 C735 0.956 . S
H748 C735 0.961 . S
H749 C735 0.961 . S
H750 C736 0.958 . S
H751 C736 0.961 . S
H752 C736 0.960 . S
C753 C754 1.391 . S
C753 C755 1.394 . S
C753 H769 0.931 . S
C754 C753 1.391 . S
C754 C758 1.376 . S
C755 C753 1.394 . S
C755 C756 1.369 . S
C755 C759 1.531 . S
C756 C755 1.369 . S
C756 C757 1.410 . S
C756 C764 1.503 . S
C757 C756 1.410 . S
C757 C758 1.392 . S
C757 C760 1.511 . S
C758 C754 1.376 . S
C758 C757 1.392 . S
C758 H770 0.929 . S
C759 C755 1.531 . S
C759 H771 0.960 . S
C759 H772 0.962 . S
C759 H773 0.960 . S
C760 C757 1.511 . S
C760 H774 0.961 . S
C760 H775 0.961 . S
C760 H776 0.961 . S
C761 C762 1.370 . S
C761 C763 1.363 . S
C761 H777 0.931 . S
C762 C761 1.370 . S
C762 C766 1.408 . S
C763 C761 1.363 . S
C763 C764 1.370 . S
C763 C767 1.524 . S
C764 C756 1.503 . S
C764 C763 1.370 . S
C764 C765 1.403 . S
C765 C764 1.403 . S
C765 C766 1.404 . S
C765 C768 1.539 . S
C766 C762 1.408 . S
C766 C765 1.404 . S
C766 H778 0.930 . S
C767 C763 1.524 . S
C767 H779 0.956 . S
C767 H780 0.961 . S
C767 H781 0.961 . S
C768 C765 1.539 . S
C768 H782 0.958 . S
C768 H783 0.961 . S
C768 H784 0.960 . S
H769 C753 0.931 . S
H770 C758 0.929 . S
H771 C759 0.960 . S
H772 C759 0.962 . S
H773 C759 0.960 . S
H774 C760 0.961 . S
H775 C760 0.961 . S
H776 C760 0.961 . S
H777 C761 0.931 . S
H778 C766 0.930 . S
H779 C767 0.956 . S
H780 C767 0.961 . S
H781 C767 0.961 . S
H782 C768 0.958 . S
H783 C768 0.961 . S
H784 C768 0.960 . S
C785 C786 1.391 . S
C785 C787 1.394 . S
C785 H801 0.931 . S
C786 C785 1.391 . S
C786 C790 1.376 . S
C787 C785 1.394 . S
C787 C788 1.369 . S
C787 C791 1.531 . S
C788 C787 1.369 . S
C788 C789 1.410 . S
C788 C796 1.503 . S
C789 C788 1.410 . S
C789 C790 1.392 . S
C789 C792 1.511 . S
C790 C786 1.376 . S
C790 C789 1.392 . S
C790 H802 0.929 . S
C791 C787 1.531 . S
C791 H803 0.960 . S
C791 H804 0.962 . S
C791 H805 0.960 . S
C792 C789 1.511 . S
C792 H806 0.961 . S
C792 H807 0.961 . S
C792 H808 0.961 . S
C793 C794 1.370 . S
C793 C795 1.363 . S
C793 H809 0.931 . S
C794 C793 1.370 . S
C794 C798 1.408 . S
C795 C793 1.363 . S
C795 C796 1.370 . S
C795 C799 1.524 . S
C796 C788 1.503 . S
C796 C795 1.370 . S
C796 C797 1.403 . S
C797 C796 1.403 . S
C797 C798 1.404 . S
C797 C800 1.539 . S
C798 C794 1.408 . S
C798 C797 1.404 . S
C798 H810 0.930 . S
C799 C795 1.524 . S
C799 H811 0.956 . S
C799 H812 0.961 . S
C799 H813 0.961 . S
C800 C797 1.539 . S
C800 H814 0.958 . S
C800 H815 0.961 . S
C800 H816 0.960 . S
H801 C785 0.931 . S
H802 C790 0.929 . S
H803 C791 0.960 . S
H804 C791 0.962 . S
H805 C791 0.960 . S
H806 C792 0.961 . S
H807 C792 0.961 . S
H808 C792 0.961 . S
H809 C793 0.931 . S
H810 C798 0.930 . S
H811 C799 0.956 . S
H812 C799 0.961 . S
H813 C799 0.961 . S
H814 C800 0.958 . S
H815 C800 0.961 . S
H816 C800 0.960 . S
C817 C818 1.391 . S
C817 C819 1.394 . S
C817 H833 0.931 . S
C818 C817 1.391 . S
C818 C822 1.376 . S
C819 C817 1.394 . S
C819 C820 1.369 . S
C819 C823 1.531 . S
C820 C819 1.369 . S
C820 C821 1.410 . S
C820 C828 1.503 . S
C821 C820 1.410 . S
C821 C822 1.392 . S
C821 C824 1.511 . S
C822 C818 1.376 . S
C822 C821 1.392 . S
C822 H834 0.929 . S
C823 C819 1.531 . S
C823 H835 0.960 . S
C823 H836 0.962 . S
C823 H837 0.960 . S
C824 C821 1.511 . S
C824 H838 0.961 . S
C824 H839 0.961 . S
C824 H840 0.961 . S
C825 C826 1.370 . S
C825 C827 1.363 . S
C825 H841 0.931 . S
C826 C825 1.370 . S
C826 C830 1.408 . S
C827 C825 1.363 . S
C827 C828 1.370 . S
C827 C831 1.524 . S
C828 C820 1.503 . S
C828 C827 1.370 . S
C828 C829 1.403 . S
C829 C828 1.403 . S
C829 C830 1.404 . S
C829 C832 1.539 . S
C830 C826 1.408 . S
C830 C829 1.404 . S
C830 H842 0.930 . S
C831 C827 1.524 . S
C831 H843 0.956 . S
C831 H844 0.961 . S
C831 H845 0.961 . S
C832 C829 1.539 . S
C832 H846 0.958 . S
C832 H847 0.961 . S
C832 H848 0.960 . S
H833 C817 0.931 . S
H834 C822 0.929 . S
H835 C823 0.960 . S
H836 C823 0.962 . S
H837 C823 0.960 . S
H838 C824 0.961 . S
H839 C824 0.961 . S
H840 C824 0.961 . S
H841 C825 0.931 . S
H842 C830 0.930 . S
H843 C831 0.956 . S
H844 C831 0.961 . S
H845 C831 0.961 . S
H846 C832 0.958 . S
H847 C832 0.961 . S
H848 C832 0.960 . S
C849 C850 1.391 . S
C849 C851 1.394 . S
C849 H865 0.931 . S
C850 C849 1.391 . S
C850 C854 1.376 . S
C851 C849 1.394 . S
C851 C852 1.369 . S
C851 C855 1.531 . S
C852 C851 1.369 . S
C852 C853 1.410 . S
C852 C860 1.503 . S
C853 C852 1.410 . S
C853 C854 1.392 . S
C853 C856 1.511 . S
C854 C850 1.376 . S
C854 C853 1.392 . S
C854 H866 0.929 . S
C855 C851 1.531 . S
C855 H867 0.960 . S
C855 H868 0.962 . S
C855 H869 0.960 . S
C856 C853 1.511 . S
C856 H870 0.961 . S
C856 H871 0.961 . S
C856 H872 0.961 . S
C857 C858 1.370 . S
C857 C859 1.363 . S
C857 H873 0.931 . S
C858 C857 1.370 . S
C858 C862 1.408 . S
C859 C857 1.363 . S
C859 C860 1.370 . S
C859 C863 1.524 . S
C860 C852 1.503 . S
C860 C859 1.370 . S
C860 C861 1.403 . S
C861 C860 1.403 . S
C861 C862 1.404 . S
C861 C864 1.539 . S
C862 C858 1.408 . S
C862 C861 1.404 . S
C862 H874 0.930 . S
C863 C859 1.524 . S
C863 H875 0.956 . S
C863 H876 0.961 . S
C863 H877 0.961 . S
C864 C861 1.539 . S
C864 H878 0.958 . S
C864 H879 0.961 . S
C864 H880 0.960 . S
H865 C849 0.931 . S
H866 C854 0.929 . S
H867 C855 0.960 . S
H868 C855 0.962 . S
H869 C855 0.960 . S
H870 C856 0.961 . S
H871 C856 0.961 . S
H872 C856 0.961 . S
H873 C857 0.931 . S
H874 C862 0.930 . S
H875 C863 0.956 . S
H876 C863 0.961 . S
H877 C863 0.961 . S
H878 C864 0.958 . S
H879 C864 0.961 . S
H880 C864 0.960 . S
C881 C882 1.391 . S
C881 C883 1.394 . S
C881 H897 0.931 . S
C882 C881 1.391 . S
C882 C886 1.376 . S
C883 C881 1.394 . S
C883 C884 1.369 . S
C883 C887 1.531 . S
C884 C883 1.369 . S
C884 C885 1.410 . S
C884 C892 1.503 . S
C885 C884 1.410 . S
C885 C886 1.392 . S
C885 C888 1.511 . S
C886 C882 1.376 . S
C886 C885 1.392 . S
C886 H898 0.929 . S
C887 C883 1.531 . S
C887 H899 0.960 . S
C887 H900 0.962 . S
C887 H901 0.960 . S
C888 C885 1.511 . S
C888 H902 0.961 . S
C888 H903 0.961 . S
C888 H904 0.961 . S
C889 C890 1.370 . S
C889 C891 1.363 . S
C889 H905 0.931 . S
C890 C889 1.370 . S
C890 C894 1.408 . S
C891 C889 1.363 . S
C891 C892 1.370 . S
C891 C895 1.524 . S
C892 C884 1.503 . S
C892 C891 1.370 . S
C892 C893 1.403 . S
C893 C892 1.403 . S
C893 C894 1.404 . S
C893 C896 1.539 . S
C894 C890 1.408 . S
C894 C893 1.404 . S
C894 H906 0.930 . S
C895 C891 1.524 . S
C895 H907 0.956 . S
C895 H908 0.961 . S
C895 H909 0.961 . S
C896 C893 1.539 . S
C896 H910 0.958 . S
C896 H911 0.961 . S
C896 H912 0.960 . S
H897 C881 0.931 . S
H898 C886 0.929 . S
H899 C887 0.960 . S
H900 C887 0.962 . S
H901 C887 0.960 . S
H902 C888 0.961 . S
H903 C888 0.961 . S
H904 C888 0.961 . S
H905 C889 0.931 . S
H906 C894 0.930 . S
H907 C895 0.956 . S
H908 C895 0.961 . S
H909 C895 0.961 . S
H910 C896 0.958 . S
H911 C896 0.961 . S
H912 C896 0.960 . S
C913 C914 1.391 . S
C913 C915 1.394 . S
C913 H929 0.931 . S
C914 C913 1.391 . S
C914 C918 1.376 . S
C915 C913 1.394 . S
C915 C916 1.369 . S
C915 C919 1.531 . S
C916 C915 1.369 . S
C916 C917 1.410 . S
C916 C924 1.503 . S
C917 C916 1.410 . S
C917 C918 1.392 . S
C917 C920 1.511 . S
C918 C914 1.376 . S
C918 C917 1.392 . S
C918 H930 0.929 . S
C919 C915 1.531 . S
C919 H931 0.960 . S
C919 H932 0.962 . S
C919 H933 0.960 . S
C920 C917 1.511 . S
C920 H934 0.961 . S
C920 H935 0.961 . S
C920 H936 0.961 . S
C921 C922 1.370 . S
C921 C923 1.363 . S
C921 H937 0.931 . S
C922 C921 1.370 . S
C922 C926 1.408 . S
C923 C921 1.363 . S
C923 C924 1.370 . S
C923 C927 1.524 . S
C924 C916 1.503 . S
C924 C923 1.370 . S
C924 C925 1.403 . S
C925 C924 1.403 . S
C925 C926 1.404 . S
C925 C928 1.539 . S
C926 C922 1.408 . S
C926 C925 1.404 . S
C926 H938 0.930 . S
C927 C923 1.524 . S
C927 H939 0.956 . S
C927 H940 0.961 . S
C927 H941 0.961 . S
C928 C925 1.539 . S
C928 H942 0.958 . S
C928 H943 0.961 . S
C928 H944 0.960 . S
H929 C913 0.931 . S
H930 C918 0.929 . S
H931 C919 0.960 . S
H932 C919 0.962 . S
H933 C919 0.960 . S
H934 C920 0.961 . S
H935 C920 0.961 . S
H936 C920 0.961 . S
H937 C921 0.931 . S
H938 C926 0.930 . S
H939 C927 0.956 . S
H940 C927 0.961 . S
H941 C927 0.961 . S
H942 C928 0.958 . S
H943 C928 0.961 . S
H944 C928 0.960 . S
C178 C1 1.778 . S
C186 C95 1.713 . S
C210 C27 1.559 . S
C218 C142 1.511 . S
C250 C146 1.704 . S
C242 C40 1.744 . S
C282 C111 1.442 . S
C274 C55 1.496 . S
C306 C68 1.709 . S
C314 C126 1.660 . S
C346 C148 0.976 . S
C338 C70 1.026 . S
C378 C117 1.393 . S
C370 C41 1.422 . S
C402 C54 1.355 . S
C410 C157 1.324 . S
C442 C86 1.289 . S
C434 C69 1.369 1_556 S
C466 C71 1.389 . S
C474 C115 1.376 . S
C498 C0 1.840 . S
C506 C173 1.795 . S
C538 C84 1.439 . S
C530 C26 1.458 . S
C570 C102 1.707 . S
C562 C42 1.801 . S
C602 C116 1.529 . S
C594 C57 1.550 1_556 S
C634 C170 1.697 . S
C626 C83 1.747 . S
C666 C85 1.460 . S
C658 C12 1.478 . S
C698 C133 1.659 . S
C690 C14 1.727 1_556 S
C722 C29 1.037 . S
C730 C156 0.973 . S
C762 C125 1.391 . S
C754 C82 1.420 . S
C794 C164 1.315 . S
C786 C13 1.389 . S
C826 C94 1.289 . S
C818 C15 1.371 . S
C858 C139 1.374 . S
C850 C28 1.389 . S
C882 C43 1.845 . S
C890 C147 1.794 . S
C914 C56 1.471 . S
C922 C108 1.425 . S
