# Generated by pormake.
# Topology pyr, (3,6)-cn, num edge types: 1
# Building blocks:
#     Node 0, Type 0, BuildingBlock: WUSLED_clean_sbu_0, # of connection points: 3
#     Node 1, Type 0, BuildingBlock: WUSLED_clean_sbu_0, # of connection points: 3
#     Node 2, Type 0, BuildingBlock: WUSLED_clean_sbu_0, # of connection points: 3
#     Node 3, Type 0, BuildingBlock: WUSLED_clean_sbu_0, # of connection points: 3
#     Node 4, Type 0, BuildingBlock: WUSLED_clean_sbu_0, # of connection points: 3
#     Node 5, Type 0, BuildingBlock: WUSLED_clean_sbu_0, # of connection points: 3
#     Node 6, Type 0, BuildingBlock: WUSLED_clean_sbu_0, # of connection points: 3
#     Node 7, Type 0, BuildingBlock: WUSLED_clean_sbu_0, # of connection points: 3
#     Node 8, Type 1, BuildingBlock: BETFEN_clean_sbu_0, # of connection points: 6
#     Node 9, Type 1, BuildingBlock: BETFEN_clean_sbu_0, # of connection points: 6
#     Node 10, Type 1, BuildingBlock: BETFEN_clean_sbu_0, # of connection points: 6
#     Node 11, Type 1, BuildingBlock: BETFEN_clean_sbu_0, # of connection points: 6
#     Edge 12, Type (0, 1), BuildingBlock: XUDNAN_clean_linker_2, # of connection points: 2
#     Edge 13, Type (0, 1), BuildingBlock: XUDNAN_clean_linker_2, # of connection points: 2
#     Edge 14, Type (0, 1), BuildingBlock: XUDNAN_clean_linker_2, # of connection points: 2
#     Edge 15, Type (0, 1), BuildingBlock: XUDNAN_clean_linker_2, # of connection points: 2
#     Edge 16, Type (0, 1), BuildingBlock: XUDNAN_clean_linker_2, # of connection points: 2
#     Edge 17, Type (0, 1), BuildingBlock: XUDNAN_clean_linker_2, # of connection points: 2
#     Edge 18, Type (0, 1), BuildingBlock: XUDNAN_clean_linker_2, # of connection points: 2
#     Edge 19, Type (0, 1), BuildingBlock: XUDNAN_clean_linker_2, # of connection points: 2
#     Edge 20, Type (0, 1), BuildingBlock: XUDNAN_clean_linker_2, # of connection points: 2
#     Edge 21, Type (0, 1), BuildingBlock: XUDNAN_clean_linker_2, # of connection points: 2
#     Edge 22, Type (0, 1), BuildingBlock: XUDNAN_clean_linker_2, # of connection points: 2
#     Edge 23, Type (0, 1), BuildingBlock: XUDNAN_clean_linker_2, # of connection points: 2
#     Edge 24, Type (0, 1), BuildingBlock: XUDNAN_clean_linker_2, # of connection points: 2
#     Edge 25, Type (0, 1), BuildingBlock: XUDNAN_clean_linker_2, # of connection points: 2
#     Edge 26, Type (0, 1), BuildingBlock: XUDNAN_clean_linker_2, # of connection points: 2
#     Edge 27, Type (0, 1), BuildingBlock: XUDNAN_clean_linker_2, # of connection points: 2
#     Edge 28, Type (0, 1), BuildingBlock: XUDNAN_clean_linker_2, # of connection points: 2
#     Edge 29, Type (0, 1), BuildingBlock: XUDNAN_clean_linker_2, # of connection points: 2
#     Edge 30, Type (0, 1), BuildingBlock: XUDNAN_clean_linker_2, # of connection points: 2
#     Edge 31, Type (0, 1), BuildingBlock: XUDNAN_clean_linker_2, # of connection points: 2
#     Edge 32, Type (0, 1), BuildingBlock: XUDNAN_clean_linker_2, # of connection points: 2
#     Edge 33, Type (0, 1), BuildingBlock: XUDNAN_clean_linker_2, # of connection points: 2
#     Edge 34, Type (0, 1), BuildingBlock: XUDNAN_clean_linker_2, # of connection points: 2
#     Edge 35, Type (0, 1), BuildingBlock: XUDNAN_clean_linker_2, # of connection points: 2
# Relax obj value: 0.120
# Max RMSD: 0.227
# Mean RMSD: 0.105
data_MOF--net-pyr--node1-WUSLED_clean_sbu_0--node2-BETFEN_clean_sbu_0--edge1-XUDNAN_clean_linker_2
_symmetry_space_group_name_H-M    P1
_symmetry_Int_Tables_number       1
_symmetry_cell_setting            triclinic
loop_
_symmetry_equiv_pos_as_xyz
'x, y, z'
_cell_length_a     47.228407
_cell_length_b     51.258971
_cell_length_c     48.980035
_cell_angle_alpha  90.913801
_cell_angle_beta   99.266642
_cell_angle_gamma 107.05807
loop_
_atom_site_label
_atom_site_type_symbol
_atom_site_fract_x
_atom_site_fract_y
_atom_site_fract_z
_atom_type_partial_charge
C0 C 0.33314 0.35816 0.20529 0.0
C1 C 0.31138 0.36254 0.21976 0.0
C2 C 0.28717 0.37723 0.17814 0.0
C3 C 0.28835 0.37186 0.20616 0.0
C4 C 0.31056 0.37558 0.16449 0.0
C5 C 0.33347 0.36589 0.17802 0.0
U6 U 0.33598 0.30518 0.25441 0.0
O7 O 0.33395 0.26234 0.24669 0.0
O8 O 0.37072 0.2893 0.27711 0.0
C9 C 0.35987 0.26544 0.26293 0.0
C10 C 0.34897 0.33881 0.21571 0.0
C11 C 0.38158 0.25687 0.2499 0.0
C12 C 0.41613 0.26426 0.21724 0.0
C13 C 0.39498 0.27222 0.2294 0.0
C14 C 0.41006 0.22529 0.24568 0.0
C15 C 0.42407 0.24088 0.22551 0.0
C16 C 0.38891 0.23327 0.25782 0.0
C17 C 0.28133 0.28933 0.30233 0.0
C18 C 0.27286 0.24429 0.31979 0.0
C19 C 0.24185 0.27254 0.32924 0.0
C20 C 0.25818 0.29337 0.31482 0.0
C21 C 0.24838 0.24753 0.33073 0.0
C22 C 0.2894 0.26518 0.30582 0.0
C23 C 0.29461 0.3082 0.2827 0.0
O24 O 0.36367 0.34403 0.24139 0.0
O25 O 0.33183 0.31339 0.21048 0.0
O26 O 0.28839 0.29719 0.2572 0.0
O27 O 0.32317 0.32183 0.29064 0.0
H28 H 0.31048 0.35617 0.24067 0.0
H29 H 0.27025 0.37283 0.21683 0.0
H30 H 0.30965 0.37945 0.14273 0.0
H31 H 0.34975 0.36211 0.16645 0.0
H32 H 0.42649 0.27651 0.20164 0.0
H33 H 0.38917 0.2904 0.22295 0.0
H34 H 0.41516 0.20673 0.25183 0.0
H35 H 0.37832 0.22107 0.27335 0.0
H36 H 0.27821 0.22512 0.3209 0.0
H37 H 0.22289 0.27523 0.33753 0.0
H38 H 0.25176 0.31192 0.31219 0.0
H39 H 0.30733 0.26187 0.29628 0.0
C40 C 0.21078 0.84495 0.69012 0.0
C41 C 0.21262 0.87123 0.70043 0.0
C42 C 0.17595 0.87528 0.66085 0.0
C43 C 0.1951 0.88618 0.68606 0.0
C44 C 0.1734 0.84855 0.65116 0.0
C45 C 0.19051 0.83346 0.66577 0.0
U46 U 0.26969 0.80561 0.72589 0.0
O47 O 0.25863 0.76115 0.71549 0.0
O48 O 0.2918 0.79065 0.69567 0.0
C49 C 0.27846 0.76478 0.69879 0.0
C50 C 0.23201 0.83073 0.703 0.0
C51 C 0.29731 0.74614 0.69996 0.0
C52 C 0.30086 0.70256 0.68312 0.0
C53 C 0.28353 0.71896 0.6895 0.0
C54 C 0.34636 0.73927 0.70018 0.0
C55 C 0.33237 0.71299 0.68712 0.0
C56 C 0.32894 0.75581 0.7065 0.0
C57 C 0.32049 0.83388 0.80191 0.0
C58 C 0.36952 0.85716 0.82927 0.0
C59 C 0.32435 0.85309 0.84847 0.0
C60 C 0.30686 0.83817 0.82429 0.0
C61 C 0.35576 0.86355 0.85075 0.0
C62 C 0.35199 0.84263 0.80492 0.0
C63 C 0.30197 0.82365 0.77453 0.0
O64 O 0.2605 0.8385 0.70051 0.0
O65 O 0.22364 0.80946 0.71773 0.0
O66 O 0.27538 0.80521 0.77158 0.0
O67 O 0.31124 0.83216 0.75142 0.0
H68 H 0.2283 0.8805 0.71912 0.0
H69 H 0.19774 0.90681 0.69384 0.0
H70 H 0.15882 0.83965 0.63179 0.0
H71 H 0.18889 0.81328 0.6574 0.0
H72 H 0.28954 0.68234 0.67312 0.0
H73 H 0.25925 0.71103 0.68426 0.0
H74 H 0.3706 0.74784 0.70334 0.0
H75 H 0.34018 0.7767 0.71467 0.0
H76 H 0.39364 0.86516 0.83043 0.0
H77 H 0.31324 0.85772 0.8648 0.0
H78 H 0.28259 0.83163 0.82241 0.0
H79 H 0.36297 0.83942 0.78793 0.0
C80 C 0.63891 0.35303 0.74789 0.0
C81 C 0.66305 0.37683 0.74817 0.0
C82 C 0.63335 0.39485 0.71186 0.0
C83 C 0.66035 0.39741 0.73036 0.0
C84 C 0.60963 0.37038 0.71072 0.0
C85 C 0.61237 0.34972 0.72866 0.0
U86 U 0.68311 0.33173 0.81078 0.0
O87 O 0.67025 0.31574 0.85001 0.0
O88 O 0.68858 0.29207 0.82355 0.0
C89 C 0.67864 0.29375 0.84692 0.0
C90 C 0.64089 0.3327 0.7688 0.0
C91 C 0.66157 0.26822 0.85788 0.0
C92 C 0.61749 0.22865 0.85709 0.0
C93 C 0.63259 0.25252 0.84525 0.0
C94 C 0.6602 0.23596 0.89409 0.0
C95 C 0.63109 0.22004 0.88178 0.0
C96 C 0.67514 0.25968 0.88231 0.0
C97 C 0.76128 0.38147 0.83911 0.0
C98 C 0.79455 0.37288 0.8789 0.0
C99 C 0.80526 0.41798 0.86126 0.0
C100 C 0.77979 0.40859 0.84053 0.0
C101 C 0.81267 0.40039 0.88106 0.0
C102 C 0.76904 0.36354 0.85819 0.0
C103 C 0.73324 0.37274 0.81859 0.0
O104 O 0.66102 0.31987 0.76722 0.0
O105 O 0.64121 0.34113 0.79436 0.0
O106 O 0.70891 0.37343 0.82793 0.0
O107 O 0.72908 0.35054 0.80274 0.0
H108 H 0.68379 0.37984 0.76272 0.0
H109 H 0.67931 0.41569 0.73154 0.0
H110 H 0.58851 0.36771 0.69688 0.0
H111 H 0.59343 0.3315 0.72806 0.0
H112 H 0.595 0.21717 0.84707 0.0
H113 H 0.62164 0.25875 0.82642 0.0
H114 H 0.67178 0.22994 0.91269 0.0
H115 H 0.69754 0.27144 0.89239 0.0
H116 H 0.7998 0.35865 0.89354 0.0
H117 H 0.8184 0.43932 0.86245 0.0
H118 H 0.77409 0.42275 0.82601 0.0
H119 H 0.75504 0.3425 0.85743 0.0
C120 C 0.79172 0.64358 0.35144 0.0
C121 C 0.7857 0.6653 0.3649 0.0
C122 C 0.75063 0.63337 0.39021 0.0
C123 C 0.76546 0.66029 0.38387 0.0
C124 C 0.75662 0.61171 0.37637 0.0
C125 C 0.77678 0.61676 0.35735 0.0
U126 U 0.85916 0.68807 0.31958 0.0
O127 O 0.89714 0.67718 0.30615 0.0
O128 O 0.86631 0.69107 0.2758 0.0
C129 C 0.89053 0.68295 0.28028 0.0
C130 C 0.81322 0.64823 0.33125 0.0
C131 C 0.89714 0.66653 0.25763 0.0
C132 C 0.89089 0.62386 0.23067 0.0
C133 C 0.88241 0.63853 0.25107 0.0
C134 C 0.92862 0.66485 0.2225 0.0
C135 C 0.91459 0.63659 0.21624 0.0
C136 C 0.92006 0.67946 0.24277 0.0
C137 C 0.89263 0.76301 0.35989 0.0
C138 C 0.94057 0.7952 0.38204 0.0
C139 C 0.89493 0.8078 0.3802 0.0
C140 C 0.87847 0.78259 0.36571 0.0
C141 C 0.92615 0.81418 0.38947 0.0
C142 C 0.92406 0.76995 0.36759 0.0
C143 C 0.87359 0.73442 0.35054 0.0
O144 O 0.81057 0.66557 0.3122 0.0
O145 O 0.84148 0.65092 0.34156 0.0
O146 O 0.88474 0.71418 0.35688 0.0
O147 O 0.85473 0.72956 0.32685 0.0
H148 H 0.79668 0.68621 0.36076 0.0
H149 H 0.76132 0.67769 0.3934 0.0
H150 H 0.74624 0.59073 0.38063 0.0
H151 H 0.78088 0.59955 0.34733 0.0
H152 H 0.87879 0.60235 0.22633 0.0
H153 H 0.86457 0.6279 0.26192 0.0
H154 H 0.94704 0.67566 0.21242 0.0
H155 H 0.93194 0.70102 0.24728 0.0
H156 H 0.96464 0.79946 0.38816 0.0
H157 H 0.88282 0.82156 0.38553 0.0
H158 H 0.85424 0.77777 0.36039 0.0
H159 H 0.93576 0.75541 0.36353 0.0
C160 C 0.74517 0.70317 0.85153 0.0
C161 C 0.76671 0.70194 0.83543 0.0
C162 C 0.79079 0.6797 0.87155 0.0
C163 C 0.78946 0.69082 0.84544 0.0
C164 C 0.76792 0.67942 0.88698 0.0
C165 C 0.74544 0.69146 0.87716 0.0
U166 U 0.73347 0.75369 0.80267 0.0
O167 O 0.69526 0.76712 0.78319 0.0
O168 O 0.73414 0.79623 0.8096 0.0
C169 C 0.70632 0.79136 0.79667 0.0
C170 C 0.72681 0.72116 0.8432 0.0
C171 C 0.68686 0.79877 0.81372 0.0
C172 C 0.66018 0.78926 0.85248 0.0
C173 C 0.67466 0.78077 0.833 0.0
C174 C 0.66941 0.83366 0.83313 0.0
C175 C 0.65795 0.81596 0.8531 0.0
C176 C 0.68382 0.82509 0.81357 0.0
C177 C 0.78718 0.76905 0.75158 0.0
C178 C 0.80721 0.81499 0.73769 0.0
C179 C 0.82172 0.7777 0.71893 0.0
C180 C 0.80309 0.75943 0.73406 0.0
C181 C 0.82506 0.80588 0.72162 0.0
C182 C 0.78822 0.79667 0.75232 0.0
C183 C 0.77327 0.75144 0.77197 0.0
O184 O 0.74259 0.74709 0.84693 0.0
O185 O 0.70964 0.71479 0.81858 0.0
O186 O 0.74456 0.73793 0.76481 0.0
O187 O 0.78032 0.76308 0.79722 0.0
H188 H 0.76712 0.71129 0.81577 0.0
H189 H 0.80689 0.6925 0.8331 0.0
H190 H 0.76781 0.6707 0.90695 0.0
H191 H 0.72912 0.69258 0.88999 0.0
H192 H 0.65139 0.77516 0.86748 0.0
H193 H 0.67734 0.76048 0.83366 0.0
H194 H 0.66851 0.85454 0.83342 0.0
H195 H 0.69369 0.83935 0.79913 0.0
H196 H 0.80927 0.83649 0.74053 0.0
H197 H 0.83448 0.76992 0.70609 0.0
H198 H 0.80229 0.73809 0.73315 0.0
H199 H 0.77592 0.80439 0.76572 0.0
C200 C 0.76465 0.23264 0.27206 0.0
C201 C 0.75657 0.20391 0.27124 0.0
C202 C 0.72707 0.20098 0.22494 0.0
C203 C 0.73806 0.18817 0.2477 0.0
C204 C 0.73699 0.22962 0.22512 0.0
C205 C 0.75573 0.24526 0.24837 0.0
U206 U 0.81227 0.26249 0.34677 0.0
O207 O 0.82545 0.30621 0.36084 0.0
O208 O 0.79269 0.27595 0.38014 0.0
C209 C 0.80677 0.30194 0.37866 0.0
C210 C 0.77683 0.24995 0.29822 0.0
C211 C 0.78824 0.32056 0.37948 0.0
C212 C 0.75178 0.3426 0.35794 0.0
C213 C 0.7708 0.32637 0.35562 0.0
C214 C 0.76784 0.34749 0.40775 0.0
C215 C 0.74968 0.35286 0.38416 0.0
C216 C 0.78687 0.33158 0.40541 0.0
C217 C 0.86885 0.21794 0.37422 0.0
C218 C 0.90584 0.20657 0.40888 0.0
C219 C 0.87818 0.17393 0.37057 0.0
C220 C 0.86301 0.19242 0.36015 0.0
C221 C 0.89908 0.18035 0.39562 0.0
C222 C 0.89091 0.22516 0.39823 0.0
C223 C 0.84976 0.23576 0.36624 0.0
O224 O 0.76932 0.23934 0.32123 0.0
O225 O 0.80407 0.26734 0.30156 0.0
O226 O 0.85791 0.25717 0.35161 0.0
O227 O 0.82128 0.22792 0.3688 0.0
H228 H 0.76301 0.19368 0.28931 0.0
H229 H 0.73057 0.1661 0.24808 0.0
H230 H 0.72885 0.23996 0.20784 0.0
H231 H 0.76147 0.26735 0.24856 0.0
H232 H 0.73799 0.34634 0.33941 0.0
H233 H 0.77144 0.31794 0.33539 0.0
H234 H 0.76711 0.35542 0.42818 0.0
H235 H 0.80016 0.32738 0.42406 0.0
H236 H 0.9215 0.21229 0.42827 0.0
H237 H 0.87286 0.15426 0.35934 0.0
H238 H 0.84609 0.18645 0.34158 0.0
H239 H 0.89555 0.24471 0.40955 0.0
C240 C 0.323 0.69882 0.2334 0.0
C241 C 0.32133 0.70423 0.20522 0.0
C242 C 0.27094 0.67169 0.19471 0.0
C243 C 0.2953 0.69085 0.18598 0.0
C244 C 0.27206 0.66775 0.22311 0.0
C245 C 0.29775 0.68128 0.24224 0.0
U246 U 0.40541 0.74179 0.26984 0.0
O247 O 0.4221 0.74496 0.31493 0.0
O248 O 0.44066 0.72339 0.2868 0.0
C249 C 0.44084 0.73082 0.3126 0.0
C250 C 0.35155 0.70713 0.25341 0.0
C251 C 0.44332 0.71057 0.33332 0.0
C252 C 0.42239 0.6701 0.35759 0.0
C253 C 0.41859 0.68879 0.3376 0.0
C254 C 0.47556 0.69449 0.36871 0.0
C255 C 0.45099 0.67277 0.37319 0.0
C256 C 0.47172 0.71325 0.34909 0.0
C257 C 0.4305 0.80788 0.2249 0.0
C258 C 0.46216 0.85082 0.21156 0.0
C259 C 0.41853 0.82406 0.17928 0.0
C260 C 0.41187 0.80442 0.19892 0.0
C261 C 0.4443 0.84726 0.18502 0.0
C262 C 0.45521 0.83149 0.2312 0.0
C263 C 0.4273 0.78639 0.24494 0.0
O264 O 0.37581 0.70529 0.2446 0.0
O265 O 0.35666 0.7281 0.27129 0.0
O266 O 0.41142 0.78597 0.26475 0.0
O267 O 0.4293 0.76237 0.23741 0.0
H268 H 0.3406 0.7176 0.19791 0.0
H269 H 0.295 0.69406 0.16415 0.0
H270 H 0.25361 0.65305 0.23032 0.0
H271 H 0.29857 0.67668 0.26382 0.0
H272 H 0.40312 0.65344 0.3607 0.0
H273 H 0.3965 0.68626 0.32556 0.0
H274 H 0.49774 0.6971 0.38062 0.0
H275 H 0.49107 0.72994 0.34619 0.0
H276 H 0.48241 0.86789 0.21695 0.0
H277 H 0.40368 0.82074 0.15944 0.0
H278 H 0.39267 0.78632 0.19361 0.0
H279 H 0.47006 0.83444 0.25107 0.0
C280 C 0.18281 0.30952 0.71856 0.0
C281 C 0.18913 0.31121 0.69145 0.0
C282 C 0.16379 0.26184 0.68079 0.0
C283 C 0.17993 0.28773 0.67294 0.0
C284 C 0.15869 0.26017 0.70838 0.0
C285 C 0.16805 0.28361 0.72689 0.0
U286 U 0.22086 0.38533 0.75391 0.0
O287 O 0.19625 0.41353 0.76588 0.0
O288 O 0.22379 0.39799 0.79807 0.0
C289 C 0.20666 0.41402 0.79249 0.0
C290 C 0.18801 0.3343 0.73756 0.0
C291 C 0.18909 0.41992 0.81369 0.0
C292 C 0.16182 0.40783 0.85257 0.0
C293 C 0.17548 0.40039 0.83119 0.0
C294 C 0.17495 0.45443 0.8395 0.0
C295 C 0.16166 0.43516 0.85752 0.0
C296 C 0.18832 0.44693 0.81807 0.0
C297 C 0.2918 0.41532 0.71377 0.0
C298 C 0.33741 0.44614 0.7008 0.0
C299 C 0.31311 0.40259 0.67507 0.0
C300 C 0.29088 0.39657 0.69217 0.0
C301 C 0.33678 0.42759 0.67901 0.0
C302 C 0.31535 0.44007 0.71783 0.0
C303 C 0.26853 0.41081 0.73206 0.0
O304 O 0.21116 0.34058 0.75798 0.0
O305 O 0.18268 0.35601 0.72658 0.0
O306 O 0.241 0.41046 0.72156 0.0
O307 O 0.26991 0.39586 0.75352 0.0
H308 H 0.20051 0.33079 0.68433 0.0
H309 H 0.18514 0.29005 0.65222 0.0
H310 H 0.14626 0.24097 0.71548 0.0
H311 H 0.16264 0.28162 0.74759 0.0
H312 H 0.15145 0.39197 0.86529 0.0
H313 H 0.17569 0.37943 0.82861 0.0
H314 H 0.17601 0.47569 0.84243 0.0
H315 H 0.19895 0.46263 0.80526 0.0
H316 H 0.35526 0.46532 0.70506 0.0
H317 H 0.31141 0.38776 0.65844 0.0
H318 H 0.27294 0.37739 0.6884 0.0
H319 H 0.31666 0.45496 0.7343 0.0
Pr320 Pr 1.02524 0.03254 0.55729 0.0
Pr321 Pr 0.05881 0.04009 0.51903 0.0
C322 C 0.98333 1.02301 0.59011 0.0
C323 C 0.97323 1.00125 0.60826 0.0
C324 C 0.9611 1.00643 0.63126 0.0
C325 C 0.95274 0.98596 0.64938 0.0
C326 C 0.95649 0.96015 0.64461 0.0
C327 C 0.96937 0.95535 0.62184 0.0
C328 C 0.9778 0.97582 0.60384 0.0
C329 C 0.07193 0.08215 0.57189 0.0
C330 C 0.0766 1.00376 0.56986 0.0
C331 C 0.10132 0.04943 0.48699 0.0
C332 C 0.1107 0.06913 0.46683 0.0
C333 C 0.12498 0.06234 0.44614 0.0
C334 C 0.13208 0.08013 0.42544 0.0
C335 C 0.12494 0.10487 0.4253 0.0
C336 C 0.11039 0.11153 0.44602 0.0
C337 C 0.10313 0.09362 0.46664 0.0
C338 C 1.01214 0.9907 0.50401 0.0
C339 C 1.00615 0.06595 0.50401 0.0
O340 O 0.97695 1.01606 0.56355 0.0
O341 O 1.01085 0.03847 0.59809 0.0
O342 O 0.05602 0.07518 0.54801 0.0
O343 O 0.06617 0.0621 0.58788 0.0
O344 O 0.08781 1.02208 0.55294 0.0
O345 O 0.04892 1.00023 0.57363 0.0
O346 O 0.10677 0.05897 0.51281 0.0
O347 O 0.07449 0.03242 0.4795 0.0
O348 O 1.028 0.99753 0.52798 0.0
O349 O 1.01768 1.01104 0.4883 0.0
O350 O 0.99523 0.04749 0.521 0.0
O351 O 1.03455 0.07151 0.50198 0.0
H352 H 0.95813 1.02624 0.63519 0.0
H353 H 0.9431 0.9902 0.66695 0.0
H354 H 0.97209 0.93554 0.61743 0.0
H355 H 0.98771 0.97175 0.58638 0.0
H356 H 0.13048 0.04326 0.44594 0.0
H357 H 0.14379 0.07484 0.40993 0.0
H358 H 0.10468 0.13051 0.44622 0.0
H359 H 0.0915 0.09877 0.48231 0.0
Pr360 Pr 0.51392 0.04257 0.03899 0.0
Pr361 Pr 0.56524 1.02843 1.03134 0.0
C362 C 0.47038 0.05641 0.05871 0.0
C363 C 0.4719 0.08096 0.07518 0.0
C364 C 0.48641 0.10708 0.0672 0.0
C365 C 0.49243 0.13003 0.08526 0.0
C366 C 0.48456 0.12703 0.11163 0.0
C367 C 0.46947 0.10109 0.11939 0.0
C368 C 0.46302 0.07818 0.10119 0.0
C369 C 0.54112 0.07232 0.99778 0.0
C370 C 0.57856 0.07622 0.07895 0.0
C371 C 0.60913 1.01412 1.0123 0.0
C372 C 0.61137 0.98839 1.00102 0.0
C373 C 0.59796 0.96349 1.012 0.0
C374 C 0.59856 0.93891 0.99989 0.0
C375 C 0.61203 0.93895 0.9764 0.0
C376 C 0.62536 0.96385 0.96544 0.0
C377 C 0.62511 0.98844 0.97776 0.0
C378 C 0.53409 0.99525 0.06908 0.0
C379 C 0.49975 0.99618 0.99118 0.0
O380 O 0.48486 0.04076 0.0716 0.0
O381 O 0.47454 0.05964 1.03307 0.0
O382 O 0.55525 0.06901 1.02108 0.0
O383 O 0.5126 0.05974 0.99505 0.0
O384 O 0.59147 0.06696 0.06079 0.0
O385 O 0.54914 0.06743 0.07709 0.0
O386 O 0.59055 1.02456 0.99682 0.0
O387 O 0.60741 1.01549 0.03861 0.0
O388 O 0.52265 1.00135 0.04604 0.0
O389 O 0.56291 1.00674 0.07371 0.0
O390 O 0.48782 1.0041 1.01087 0.0
O391 O 0.52916 1.00493 0.99208 0.0
H392 H 0.49401 0.10972 0.04742 0.0
H393 H 0.50387 0.14999 0.07895 0.0
H394 H 0.46272 0.09858 0.13955 0.0
H395 H 0.45213 0.05818 0.10779 0.0
H396 H 0.5867 0.96301 1.02967 0.0
H397 H 0.58805 0.91987 1.00852 0.0
H398 H 0.63615 0.96429 0.94746 0.0
H399 H 0.63526 1.00747 0.96891 0.0
Pr400 Pr 0.55052 0.56292 0.55885 0.0
Pr401 Pr 0.54695 0.50828 0.52294 0.0
C402 C 0.54022 0.60782 0.57954 0.0
C403 C 0.51582 0.61516 0.59017 0.0
C404 C 0.52295 0.63639 0.61095 0.0
C405 C 0.50014 0.64384 0.62116 0.0
C406 C 0.46974 0.63025 0.61063 0.0
C407 C 0.46273 0.60827 0.59057 0.0
C408 C 0.48553 0.60073 0.58052 0.0
C409 C 0.58612 0.53413 0.58945 0.0
C410 C 0.49786 0.50431 0.56707 0.0
C411 C 0.55312 0.46135 0.50305 0.0
C412 C 0.57248 0.45318 0.48557 0.0
C413 C 0.56934 0.45633 0.45684 0.0
C414 C 0.58829 0.44858 0.4411 0.0
C415 C 0.61078 0.43751 0.45374 0.0
C416 C 0.61404 0.43482 0.48255 0.0
C417 C 0.59505 0.44233 0.49815 0.0
C418 C 0.5191 0.54426 0.4958 0.0
C419 C 0.59965 0.5659 0.51464 0.0
O420 O 0.53648 0.60149 0.55288 0.0
O421 O 0.55261 0.5921 0.59477 0.0
O422 O 0.57135 0.52777 0.56524 0.0
O423 O 0.58456 0.55774 0.59772 0.0
O424 O 0.50947 0.49101 0.55047 0.0
O425 O 0.50769 0.53133 0.57151 0.0
O426 O 0.5668 0.47329 0.52743 0.0
O427 O 0.53239 0.47189 0.49124 0.0
O428 O 0.51853 0.53814 0.52069 0.0
O429 O 0.53278 0.53013 0.4835 0.0
O430 O 0.58689 0.57976 0.52957 0.0
O431 O 0.59106 0.53881 0.51224 0.0
H432 H 0.54623 0.64748 0.61902 0.0
H433 H 0.50629 0.6609 0.6365 0.0
H434 H 0.43952 0.5971 0.58235 0.0
H435 H 0.47948 0.58381 0.56504 0.0
H436 H 0.55223 0.4647 0.44648 0.0
H437 H 0.58493 0.45079 0.41897 0.0
H438 H 0.63147 0.42702 0.49323 0.0
H439 H 0.59816 0.43975 0.52024 0.0
Pr440 Pr 0.04038 0.55696 1.02214 0.0
Pr441 Pr 0.04116 0.51404 0.05746 0.0
C442 C 1.02964 0.59657 0.99048 0.0
C443 C 1.01121 0.61516 0.98802 0.0
C444 C 1.02172 0.64011 0.97627 0.0
C445 C 1.00228 0.65552 0.96821 0.0
C446 C 0.9721 0.64594 0.97168 0.0
C447 C 0.96265 0.62262 0.98647 0.0
C448 C 0.98216 0.60721 0.99459 0.0
C449 C 0.0952 0.56798 0.05829 0.0
C450 C 1.00961 0.5564 0.08015 0.0
C451 C 0.05303 0.47489 0.08907 0.0
C452 C 0.0728 0.45779 0.08873 0.0
C453 C 0.06709 0.43349 0.10229 0.0
C454 C 0.08688 0.41785 0.10335 0.0
C455 C 0.11253 0.42637 0.09075 0.0
C456 C 0.11724 0.45006 0.07592 0.0
C457 C 0.09758 0.46575 0.07506 0.0
C458 C 0.98566 0.50239 1.02238 0.0
C459 C 0.07193 0.51329 1.0003 0.0
O460 O 1.01551 0.57057 0.98457 0.0
O461 O 0.05132 0.60133 1.01177 0.0
O462 O 0.06973 0.55872 0.06518 0.0
O463 O 0.09316 0.5718 1.03205 0.0
O464 O 1.02357 0.5383 0.08792 0.0
O465 O 1.00981 0.56506 0.05473 0.0
O466 O 0.06646 0.50097 0.09515 0.0
O467 O 1.03059 0.46994 0.06841 0.0
O468 O 1.01079 0.51177 1.01447 0.0
O469 O 0.98911 0.50086 0.04904 0.0
O470 O 0.05881 0.53184 0.9915 0.0
O471 O 0.07146 0.50603 1.02601 0.0
H472 H 0.04428 0.6467 0.97151 0.0
H473 H 1.01002 0.67356 0.95697 0.0
H474 H 0.93943 0.61479 0.98924 0.0
H475 H 0.97388 0.58816 1.00413 0.0
H476 H 0.04787 0.42705 0.11274 0.0
H477 H 0.08288 0.39989 0.11524 0.0
H478 H 0.13665 0.45693 0.06578 0.0
H479 H 0.1022 0.48447 0.06439 0.0
H480 H 0.23084 0.24194 0.38133 0.0
H481 H 0.2187 0.19992 0.3008 0.0
H482 H 0.18058 0.16045 0.31473 0.0
H483 H 0.22588 0.18202 0.41951 0.0
H484 H 0.20705 0.19264 0.44486 0.0
H485 H 0.232 0.21789 0.42764 0.0
H486 H 0.18878 0.23899 0.412 0.0
H487 H 0.16349 0.21318 0.42849 0.0
H488 H 0.15376 0.21786 0.39216 0.0
H489 H 0.14501 0.12573 0.33721 0.0
H490 H 0.11893 0.09473 0.3695 0.0
H491 H 0.15519 0.15883 0.43575 0.0
C492 C 0.21994 0.22442 0.36672 0.0
C493 C 0.22726 0.22374 0.34005 0.0
C494 C 0.21319 0.20051 0.32139 0.0
C495 C 0.19141 0.17823 0.32899 0.0
C496 C 0.18426 0.1796 0.35531 0.0
C497 C 0.19846 0.20182 0.37411 0.0
C498 C 0.18835 0.19711 0.40183 0.0
C499 C 0.21489 0.19742 0.4248 0.0
C500 C 0.17265 0.21803 0.40903 0.0
C501 C 0.16635 0.16876 0.39562 0.0
C502 C 0.16403 0.1592 0.36857 0.0
C503 C 0.14648 0.13295 0.35842 0.0
C504 C 0.13183 0.11554 0.37682 0.0
C505 C 0.13517 0.12456 0.40492 0.0
C506 C 0.15183 0.15171 0.41419 0.0
H507 H 0.40911 0.86639 0.88555 0.0
H508 H 0.34255 0.90926 0.86474 0.0
H509 H 0.37401 0.94822 0.89669 0.0
H510 H 0.42842 0.89113 0.95973 0.0
H511 H 0.46756 0.89346 0.96195 0.0
H512 H 0.43935 0.86837 0.93801 0.0
H513 H 0.46725 0.88762 0.89787 0.0
H514 H 0.49518 0.91312 0.9216 0.0
H515 H 0.47455 0.92336 0.89158 0.0
H516 H 0.41266 0.98313 0.92788 0.0
H517 H 0.45438 1.01087 0.963 0.0
H518 H 0.49685 0.94629 0.96604 0.0
C519 C 0.40114 0.8839 0.88808 0.0
C520 C 0.37337 0.88485 0.8728 0.0
C521 C 0.36352 0.908 0.87655 0.0
C522 C 0.38136 0.93032 0.89443 0.0
C523 C 0.40884 0.92906 0.90869 0.0
C524 C 0.41851 0.90631 0.90634 0.0
C525 C 0.44874 0.91031 0.92496 0.0
C526 C 0.44584 0.88959 0.9475 0.0
C527 C 0.47285 0.9085 0.90798 0.0
C528 C 0.45485 0.9392 0.93736 0.0
C529 C 0.43139 0.94944 0.92749 0.0
C530 C 0.43112 0.97537 0.93588 0.0
C531 C 0.45496 0.99099 0.95568 0.0
C532 C 0.47879 0.98075 0.96686 0.0
C533 C 0.47914 0.95472 0.95728 0.0
H534 H 0.60586 0.39583 0.65681 0.0
H535 H 0.6512 0.44817 0.73122 0.0
H536 H 0.64641 0.48838 0.7066 0.0
H537 H 0.63857 0.4442 0.60766 0.0
H538 H 0.60469 0.4358 0.58208 0.0
H539 H 0.61215 0.41038 0.60481 0.0
H540 H 0.56099 0.40336 0.62089 0.0
H541 H 0.55333 0.4286 0.59806 0.0
H542 H 0.55228 0.43243 0.6345 0.0
H543 H 0.63732 0.52298 0.67533 0.0
H544 H 0.6209 0.55069 0.63934 0.0
H545 H 0.57936 0.47783 0.58381 0.0
C546 C 0.61477 0.41577 0.66786 0.0
C547 C 0.62949 0.41873 0.69598 0.0
C548 C 0.64064 0.44526 0.70961 0.0
C549 C 0.63789 0.46831 0.69581 0.0
C550 C 0.62386 0.46481 0.66818 0.0
C551 C 0.61226 0.43931 0.65423 0.0
C552 C 0.59768 0.44176 0.62457 0.0
C553 C 0.61426 0.43247 0.60354 0.0
C554 C 0.56407 0.42558 0.6192 0.0
C555 C 0.60239 0.47251 0.62444 0.0
C556 C 0.61797 0.48521 0.64983 0.0
C557 C 0.62515 0.5133 0.65533 0.0
C558 C 0.61575 0.5289 0.63463 0.0
C559 C 0.599 0.5166 0.60858 0.0
C560 C 0.59253 0.48794 0.60329 0.0
H561 H 0.93997 0.65239 0.16808 0.0
H562 H 0.91579 0.5833 0.21901 0.0
H563 H 0.93459 0.55629 0.18858 0.0
H564 H 0.92175 0.61206 0.10123 0.0
H565 H 0.9532 0.63356 0.08759 0.0
H566 H 0.93657 0.64787 0.11242 0.0
H567 H 0.98843 0.66567 0.14431 0.0
H568 H 1.00519 0.65145 0.11956 0.0
H569 H 1.0092 0.64206 0.15496 0.0
H570 H 0.95802 0.53666 0.15465 0.0
H571 H 0.98426 0.52534 0.11897 0.0
H572 H 0.99476 0.60577 0.08762 0.0
C573 C 0.93854 0.63158 0.17292 0.0
C574 C 0.92569 0.6202 0.19627 0.0
C575 C 0.92451 0.59271 0.20125 0.0
C576 C 0.93548 0.57708 0.18406 0.0
C577 C 0.94786 0.58884 0.16153 0.0
C578 C 0.94946 0.61543 0.15573 0.0
C579 C 0.96455 0.62293 0.13022 0.0
C580 C 0.94271 0.6295 0.10646 0.0
C581 C 0.99357 0.64696 0.13772 0.0
C582 C 0.97151 0.59653 0.12296 0.0
C583 C 0.9615 0.57726 0.14146 0.0
C584 C 0.96581 0.55158 0.14002 0.0
C585 C 0.98094 0.54536 0.11955 0.0
C586 C 0.99182 0.56447 0.10016 0.0
C587 C 0.98658 0.59047 0.10178 0.0
H588 H 0.42687 0.23795 0.17049 0.0
H589 H 0.46978 0.22284 0.25125 0.0
H590 H 0.50072 0.20071 0.22893 0.0
H591 H 0.41601 0.17797 0.13986 0.0
H592 H 0.42375 0.18837 0.10616 0.0
H593 H 0.41169 0.20992 0.12791 0.0
H594 H 0.4592 0.25013 0.12474 0.0
H595 H 0.47146 0.22852 0.10281 0.0
H596 H 0.49594 0.24571 0.13409 0.0
H597 H 0.51625 0.17074 0.19943 0.0
H598 H 0.51567 0.13538 0.16433 0.0
H599 H 0.465 0.17098 0.10212 0.0
C600 C 0.44384 0.23115 0.18342 0.0
C601 C 0.44609 0.23207 0.2125 0.0
C602 C 0.46769 0.22213 0.22888 0.0
C603 C 0.48561 0.20987 0.2164 0.0
C604 C 0.48197 0.20816 0.18758 0.0
C605 C 0.46192 0.2189 0.17123 0.0
C606 C 0.45867 0.21045 0.14087 0.0
C607 C 0.42559 0.1958 0.128 0.0
C608 C 0.47213 0.23518 0.12468 0.0
C609 C 0.47762 0.19116 0.14306 0.0
C610 C 0.4917 0.19083 0.17007 0.0
C611 C 0.50636 0.17148 0.17805 0.0
C612 C 0.50576 0.15141 0.15813 0.0
C613 C 0.49061 0.15101 0.13075 0.0
C614 C 0.47748 0.17165 0.12285 0.0
H615 H 0.13919 0.90525 0.67425 0.0
H616 H 0.18071 0.88498 0.60735 0.0
H617 H 0.15972 0.91549 0.57749 0.0
H618 H 0.06983 0.90757 0.62957 0.0
H619 H 0.06599 0.93563 0.64981 0.0
H620 H 0.08427 0.91224 0.66628 0.0
H621 H 0.13145 0.95282 0.68513 0.0
H622 H 0.11337 0.97632 0.66864 0.0
H623 H 0.14942 0.97585 0.6613 0.0
H624 H 0.13784 0.95021 0.55603 0.0
H625 H 0.11119 0.9838 0.54177 0.0
H626 H 0.07925 0.97967 0.62032 0.0
C627 C 0.14366 0.90722 0.65326 0.0
C628 C 0.16156 0.89273 0.64304 0.0
C629 C 0.16687 0.89569 0.61546 0.0
C630 C 0.15516 0.91307 0.59841 0.0
C631 C 0.13777 0.92714 0.60904 0.0
C632 C 0.13153 0.92414 0.63562 0.0
C633 C 0.11151 0.94134 0.64143 0.0
C634 C 0.08109 0.9231 0.6471 0.0
C635 C 0.12739 0.96286 0.66556 0.0
C636 C 0.10789 0.95468 0.61408 0.0
C637 C 0.12362 0.94635 0.59592 0.0
C638 C 0.12518 0.95668 0.56992 0.0
C639 C 0.11012 0.97591 0.5621 0.0
C640 C 0.09321 0.98436 0.57992 0.0
C641 C 0.09189 0.97343 0.60623 0.0
H642 H 0.86895 0.43795 0.88201 0.0
H643 H 0.81231 0.38806 0.93504 0.0
H644 H 0.85101 0.408 0.97583 0.0
H645 H 0.94102 0.43484 0.92155 0.0
H646 H 0.96074 0.46974 0.9163 0.0
H647 H 0.92942 0.45039 0.89067 0.0
H648 H 0.90338 0.48795 0.89431 0.0
H649 H 0.93449 0.50733 0.92009 0.0
H650 H 0.89682 0.49789 0.92765 0.0
H651 H 0.89281 0.43556 1.0111 0.0
H652 H 0.93812 0.46664 0.03938 0.0
H653 H 0.97016 0.49885 0.96478 0.0
C654 C 0.86479 0.43111 0.9022 0.0
C655 C 0.83749 0.41123 0.90519 0.0
C656 C 0.8331 0.4028 0.932 0.0
C657 C 0.8549 0.41418 0.9554 0.0
C658 C 0.88118 0.43395 0.95178 0.0
C659 C 0.88651 0.44219 0.92591 0.0
C660 C 0.91669 0.4642 0.92815 0.0
C661 C 0.93825 0.45419 0.91329 0.0
C662 C 0.91259 0.49093 0.91688 0.0
C663 C 0.92711 0.46736 0.9594 0.0
C664 C 0.90607 0.44968 0.97245 0.0
C665 C 0.90962 0.44929 1.00114 0.0
C666 C 0.93547 0.46721 1.01704 0.0
C667 C 0.95784 0.48519 1.00436 0.0
C668 C 0.95354 0.48527 0.97506 0.0
H669 H 0.69931 0.58907 0.39241 0.0
H670 H 0.75474 0.66524 0.43766 0.0
H671 H 0.72183 0.65722 0.47279 0.0
H672 H 0.62762 0.59355 0.4076 0.0
H673 H 0.61284 0.55738 0.41122 0.0
H674 H 0.6398 0.56963 0.38861 0.0
H675 H 0.6744 0.54397 0.41495 0.0
H676 H 0.64753 0.53165 0.43758 0.0
H677 H 0.68593 0.55035 0.45198 0.0
H678 H 0.68203 0.64104 0.50373 0.0
H679 H 0.6411 0.61671 0.52846 0.0
H680 H 0.61338 0.54953 0.46551 0.0
C681 C 0.70479 0.60409 0.40972 0.0
C682 C 0.72992 0.62809 0.41165 0.0
C683 C 0.73553 0.64706 0.43485 0.0
C684 C 0.71696 0.64257 0.45523 0.0
C685 C 0.69255 0.61885 0.45261 0.0
C686 C 0.68649 0.59984 0.43047 0.0
C687 C 0.65909 0.57577 0.43288 0.0
C688 C 0.63332 0.57398 0.40863 0.0
C689 C 0.66724 0.54884 0.43445 0.0
C690 C 0.65127 0.58384 0.46018 0.0
C691 C 0.67048 0.60905 0.47095 0.0
C692 C 0.66703 0.62119 0.4955 0.0
C693 C 0.64362 0.60723 0.50945 0.0
C694 C 0.62409 0.581 0.49931 0.0
C695 C 0.62814 0.56933 0.4742 0.0
H696 H 0.27513 0.42296 0.1581 0.0
H697 H 0.2363 0.33573 0.16272 0.0
H698 H 0.18833 0.33778 0.13515 0.0
H699 H 0.20952 0.44008 0.16739 0.0
H700 H 0.21534 0.46762 0.14449 0.0
H701 H 0.24702 0.45842 0.16238 0.0
H702 H 0.2631 0.45186 0.11511 0.0
H703 H 0.23094 0.46042 0.09709 0.0
H704 H 0.23698 0.42841 0.08828 0.0
H705 H 0.14439 0.3496 0.10922 0.0
H706 H 0.10548 0.37126 0.09093 0.0
H707 H 0.17276 0.45095 0.10468 0.0
C708 C 0.25653 0.40438 0.15292 0.0
C709 C 0.25905 0.37917 0.16201 0.0
C710 C 0.23442 0.35515 0.15557 0.0
C711 C 0.20731 0.3561 0.13986 0.0
C712 C 0.20541 0.38126 0.13094 0.0
C713 C 0.22919 0.40502 0.1375 0.0
C714 C 0.22039 0.42972 0.12745 0.0
C715 C 0.22323 0.45015 0.15188 0.0
C716 C 0.23896 0.4434 0.10568 0.0
C717 C 0.18789 0.41617 0.11459 0.0
C718 C 0.17979 0.38817 0.11642 0.0
C719 C 0.15045 0.3715 0.10746 0.0
C720 C 0.12853 0.38394 0.09721 0.0
C721 C 0.13617 0.41272 0.09634 0.0
C722 C 0.16638 0.42885 0.10444 0.0
H723 H 0.63273 0.21044 0.93759 0.0
H724 H 0.59393 0.17133 0.85519 0.0
H725 H 0.56831 0.12931 0.87602 0.0
H726 H 0.6467 0.15073 0.9689 0.0
H727 H 0.63726 0.15856 1.00167 0.0
H728 H 0.65241 0.18578 0.98038 0.0
H729 H 0.60626 0.20321 0.9809 0.0
H730 H 0.59101 0.17606 1.00221 0.0
H731 H 0.56897 0.18006 0.9698 0.0
H732 H 0.54491 0.09207 0.90575 0.0
H733 H 0.52684 0.06192 0.94224 0.0
H734 H 0.58369 0.12333 1.00553 0.0
C735 C 0.61915 0.193 0.92381 0.0
C736 C 0.61537 0.19451 0.89455 0.0
C737 C 0.59686 0.17113 0.87756 0.0
C738 C 0.58237 0.14699 0.88923 0.0
C739 C 0.58665 0.14628 0.91803 0.0
C740 C 0.60468 0.16862 0.93512 0.0
C741 C 0.6053 0.16252 0.96547 0.0
C742 C 0.63733 0.16452 0.97995 0.0
C743 C 0.5921 0.1816 0.98048 0.0
C744 C 0.58491 0.1332 0.96279 0.0
C745 C 0.57416 0.12437 0.93519 0.0
C746 C 0.5535 0.09867 0.92738 0.0
C747 C 0.54336 0.08168 0.94823 0.0
C748 C 0.55425 0.09011 0.9766 0.0
C749 C 0.57558 0.11612 0.98397 0.0
H750 H 0.91974 0.86688 0.38964 0.0
H751 H 0.97058 0.81795 0.4343 0.0
H752 H 0.99661 0.8569 0.46818 0.0
H753 H 0.98038 0.93113 0.40008 0.0
H754 H 0.95618 0.95173 0.40455 0.0
H755 H 0.9415 0.92006 0.3834 0.0
H756 H 0.89985 0.90332 0.41307 0.0
H757 H 0.91454 0.93486 0.43448 0.0
H758 H 0.91016 0.9026 0.45006 0.0
H759 H 1.01531 0.9003 0.4994 0.0
H760 H 1.02954 0.94672 0.52234 0.0
H761 H 0.96917 0.96941 0.45715 0.0
C762 C 0.93636 0.86432 0.40652 0.0
C763 C 0.94302 0.83901 0.40894 0.0
C764 C 0.96521 0.83696 0.4314 0.0
C765 C 0.98001 0.85901 0.45105 0.0
C766 C 0.97269 0.88339 0.44823 0.0
C767 C 0.95168 0.88636 0.42634 0.0
C768 C 0.94845 0.91507 0.42808 0.0
C769 C 0.95716 0.9304 0.40251 0.0
C770 C 0.91634 0.91388 0.43163 0.0
C771 C 0.971 0.92771 0.45427 0.0
C772 C 0.98432 0.90885 0.46577 0.0
C773 C 1.00512 0.91526 0.49046 0.0
C774 C 1.01292 0.94169 0.50351 0.0
C775 C 1.00046 0.96181 0.49172 0.0
C776 C 0.97909 0.95453 0.46675 0.0
H777 H 0.38176 0.69547 0.70829 0.0
H778 H 0.32182 0.69946 0.63246 0.0
H779 H 0.34959 0.67768 0.60571 0.0
H780 H 0.44964 0.70924 0.6805 0.0
H781 H 0.46404 0.68477 0.69968 0.0
H782 H 0.43909 0.69996 0.71362 0.0
H783 H 0.40316 0.65183 0.718 0.0
H784 H 0.42803 0.63647 0.70405 0.0
H785 H 0.38909 0.62807 0.68792 0.0
H786 H 0.38353 0.65722 0.58663 0.0
H787 H 0.42299 0.63852 0.5756 0.0
H788 H 0.46205 0.646 0.66299 0.0
C789 C 0.37453 0.69155 0.68609 0.0
C790 C 0.34944 0.69889 0.67239 0.0
C791 C 0.34063 0.69358 0.64334 0.0
C792 C 0.35631 0.6813 0.62796 0.0
C793 C 0.3807 0.67411 0.6419 0.0
C794 C 0.38981 0.67878 0.67029 0.0
C795 C 0.41689 0.66869 0.67969 0.0
C796 C 0.44402 0.69207 0.69422 0.0
C797 C 0.40881 0.64486 0.69853 0.0
C798 C 0.42219 0.65887 0.65197 0.0
C799 C 0.40064 0.66188 0.63064 0.0
C800 C 0.40042 0.65449 0.60313 0.0
C801 C 0.42286 0.64372 0.59709 0.0
C802 C 0.44547 0.64051 0.61837 0.0
C803 C 0.44509 0.64823 0.64625 0.0
H804 H 0.82345 0.85482 0.70026 0.0
H805 H 0.88156 0.8031 0.71816 0.0
H806 H 0.92299 0.83847 0.70335 0.0
H807 H 0.85064 0.88414 0.64123 0.0
H808 H 0.84848 0.91763 0.65031 0.0
H809 H 0.82344 0.8878 0.66179 0.0
H810 H 0.84178 0.90836 0.7126 0.0
H811 H 0.86737 0.938 0.70122 0.0
H812 H 0.88132 0.91795 0.72693 0.0
H813 H 0.95794 0.87926 0.6862 0.0
H814 H 0.98259 0.92149 0.66486 0.0
H815 H 0.90219 0.9469 0.66116 0.0
C816 C 0.84489 0.8509 0.70129 0.0
C817 C 0.84909 0.82605 0.71029 0.0
C818 C 0.87747 0.82168 0.71079 0.0
C819 C 0.90133 0.84182 0.70284 0.0
C820 C 0.89657 0.86632 0.69486 0.0
C821 C 0.86906 0.87092 0.69399 0.0
C822 C 0.86972 0.89894 0.68452 0.0
C823 C 0.84672 0.89699 0.65788 0.0
C824 C 0.86475 0.91686 0.7077 0.0
C825 C 0.90162 0.90899 0.67923 0.0
C826 C 0.91691 0.89007 0.68567 0.0
C827 C 0.94629 0.89433 0.68124 0.0
C828 C 0.96004 0.91826 0.66909 0.0
C829 C 0.94425 0.93738 0.66149 0.0
C830 C 0.915 0.93292 0.6673 0.0
H831 H 0.72529 0.15864 0.18815 0.0
H832 H 0.67194 0.20779 0.21303 0.0
H833 H 0.62843 0.18142 0.17843 0.0
H834 H 0.69406 0.15382 0.1141 0.0
H835 H 0.69495 0.11926 0.10844 0.0
H836 H 0.72201 0.14186 0.1353 0.0
H837 H 0.7058 0.10665 0.17146 0.0
H838 H 0.67861 0.08401 0.14474 0.0
H839 H 0.66679 0.09468 0.17515 0.0
H840 H 0.5899 0.14825 0.14335 0.0
H841 H 0.55983 0.11287 0.10669 0.0
H842 H 0.63849 0.08684 0.1015 0.0
C843 C 0.70442 0.16377 0.18617 0.0
C844 C 0.70184 0.18518 0.20324 0.0
C845 C 0.67432 0.19153 0.20003 0.0
C846 C 0.64949 0.17663 0.18051 0.0
C847 C 0.65261 0.15562 0.16401 0.0
C848 C 0.67945 0.14939 0.16628 0.0
C849 C 0.67676 0.1262 0.14537 0.0
C850 C 0.69822 0.13587 0.12457 0.0
C851 C 0.68232 0.10142 0.16007 0.0
C852 C 0.64414 0.12011 0.13146 0.0
C853 C 0.63062 0.13723 0.14272 0.0
C854 C 0.60032 0.13492 0.13415 0.0
C855 C 0.58338 0.11468 0.11338 0.0
C856 C 0.59684 0.09722 0.10111 0.0
C857 C 0.62768 0.10011 0.11027 0.0
H858 H 0.48151 0.63509 0.37144 0.0
H859 H 0.43166 0.66744 0.42301 0.0
H860 H 0.44316 0.63793 0.4603 0.0
H861 H 0.45717 0.56482 0.39315 0.0
H862 H 0.49279 0.55923 0.3914 0.0
H863 H 0.47988 0.5824 0.3689 0.0
H864 H 0.52926 0.62093 0.38718 0.0
H865 H 0.54225 0.59797 0.40986 0.0
H866 H 0.54016 0.62994 0.42391 0.0
H867 H 0.46228 0.60582 0.4928 0.0
H868 H 0.48505 0.57255 0.51649 0.0
H869 H 0.52145 0.56069 0.44308 0.0
C870 C 0.47278 0.63566 0.39051 0.0
C871 C 0.45558 0.65335 0.39443 0.0
C872 C 0.44459 0.65375 0.4196 0.0
C873 C 0.45113 0.63716 0.44088 0.0
C874 C 0.46837 0.62001 0.43649 0.0
C875 C 0.4787 0.61892 0.41175 0.0
C876 C 0.4965 0.5986 0.41207 0.0
C877 C 0.48064 0.57486 0.39008 0.0
C878 C 0.52897 0.61271 0.40803 0.0
C879 C 0.49541 0.58902 0.44113 0.0
C880 C 0.47896 0.60148 0.45489 0.0
C881 C 0.47509 0.59591 0.48211 0.0
C882 C 0.48821 0.57708 0.49549 0.0
C883 C 0.50515 0.56412 0.48175 0.0
C884 C 0.50864 0.57024 0.45418 0.0
H885 H 0.13478 0.47717 0.86283 0.0
H886 H 0.16016 0.41328 0.90873 0.0
H887 H 0.14031 0.42636 0.94846 0.0
H888 H 0.15478 0.52706 0.92242 0.0
H889 H 0.12403 0.54076 0.91147 0.0
H890 H 0.13988 0.52636 0.88605 0.0
H891 H 0.08728 0.49331 0.86623 0.0
H892 H 0.07127 0.50756 0.8916 0.0
H893 H 0.06616 0.47129 0.889 0.0
H894 H 0.11806 0.44627 0.9841 0.0
H895 H 0.09458 0.4708 1.01255 0.0
H896 H 0.08326 0.52335 0.9456 0.0
C897 C 0.13641 0.46592 0.88121 0.0
C898 C 0.14901 0.44367 0.88189 0.0
C899 C 0.15015 0.42977 0.90675 0.0
C900 C 0.13911 0.43729 0.9298 0.0
C901 C 0.12689 0.45905 0.92831 0.0
C902 C 0.12549 0.47326 0.90469 0.0
C903 C 0.11127 0.49602 0.90884 0.0
C904 C 0.13383 0.52422 0.90709 0.0
C905 C 0.08227 0.49179 0.88765 0.0
C906 C 0.10451 0.4921 0.93831 0.0
C907 C 0.11401 0.47071 0.94907 0.0
C908 C 0.1106 0.46304 0.9758 0.0
C909 C 0.09715 0.47732 0.99196 0.0
C910 C 0.08684 0.49934 0.98177 0.0
C911 C 0.09072 0.50674 0.95431 0.0
H912 H 0.62123 0.8487 0.84918 0.0
H913 H 0.66866 0.80712 0.9082 0.0
H914 H 0.65358 0.82851 0.94659 0.0
H915 H 0.64569 0.91021 0.88563 0.0
H916 H 0.61143 0.91937 0.87688 0.0
H917 H 0.61997 0.89623 0.85388 0.0
H918 H 0.56899 0.85999 0.85618 0.0
H919 H 0.5603 0.88315 0.8793 0.0
H920 H 0.55976 0.84937 0.88939 0.0
H921 H 0.64038 0.85941 0.97858 0.0
H922 H 0.63194 0.8991 1.00163 0.0
H923 H 0.59481 0.92168 0.92193 0.0
C924 C 0.62786 0.84364 0.87015 0.0
C925 C 0.6458 0.82606 0.8757 0.0
C926 C 0.65428 0.82004 0.90341 0.0
C927 C 0.64585 0.83211 0.92537 0.0
C928 C 0.62879 0.84994 0.91921 0.0
C929 C 0.61978 0.85561 0.89225 0.0
C930 C 0.60495 0.87806 0.89134 0.0
C931 C 0.62152 0.90239 0.87605 0.0
C932 C 0.57151 0.86698 0.87829 0.0
C933 C 0.60879 0.88534 0.92199 0.0
C934 C 0.62174 0.86834 0.93777 0.0
C935 C 0.62966 0.8725 0.96652 0.0
C936 C 0.62482 0.89501 0.97942 0.0
C937 C 0.61277 0.91318 0.9634 0.0
C938 C 0.60397 0.90789 0.9345 0.0
H939 H 0.95619 0.18643 0.42605 0.0
H940 H 0.86994 0.12575 0.39652 0.0
H941 H 0.88856 0.09048 0.41992 0.0
H942 H 1.00298 0.14242 0.4205 0.0
H943 H 1.02882 0.15666 0.45209 0.0
H944 H 1.00932 0.17749 0.43235 0.0
H945 H 0.98857 0.18797 0.47569 0.0
H946 H 1.00798 0.16715 0.49557 0.0
H947 H 0.96798 0.16009 0.49352 0.0
H948 H 0.91463 0.06209 0.44894 0.0
H949 H 0.94842 0.04163 0.47917 0.0
H950 H 1.01886 0.11931 0.48911 0.0
C951 C 0.94121 0.16573 0.42443 0.0
C952 C 0.91156 0.15901 0.409 0.0
C953 C 0.8929 0.13153 0.40751 0.0
C954 C 0.90318 0.11128 0.42101 0.0
C955 C 0.93228 0.11862 0.4361 0.0
C956 C 0.95118 0.1451 0.43781 0.0
C957 C 0.98136 0.14738 0.45582 0.0
C958 C 1.00714 0.15652 0.43918 0.0
C959 C 0.98678 0.1668 0.48168 0.0
C960 C 0.97647 0.11797 0.4636 0.0
C961 C 0.94778 0.10188 0.45231 0.0
C962 C 0.93725 0.0744 0.45768 0.0
C963 C 0.95653 0.06298 0.47495 0.0
C964 C 0.98622 0.07881 0.48626 0.0
C965 C 0.99636 0.10665 0.48038 0.0
H966 H 0.22763 0.68325 0.15547 0.0
H967 H 0.25942 0.61705 0.18869 0.0
H968 H 0.21881 0.58373 0.15657 0.0
H969 H 0.14838 0.64539 0.14782 0.0
H970 H 0.13758 0.66035 0.11628 0.0
H971 H 0.16975 0.67938 0.14121 0.0
H972 H 0.20303 0.68571 0.10323 0.0
H973 H 0.17097 0.66667 0.0782 0.0
H974 H 0.20451 0.65607 0.08384 0.0
H975 H 0.17431 0.55729 0.12239 0.0
H976 H 0.12804 0.53923 0.08729 0.0
H977 H 0.12426 0.62177 0.07518 0.0
C978 C 0.22605 0.66175 0.15569 0.0
C979 C 0.24664 0.65261 0.17444 0.0
C980 C 0.24377 0.62434 0.1745 0.0
C981 C 0.22084 0.6053 0.15632 0.0
C982 C 0.2007 0.61478 0.13827 0.0
C983 C 0.2029 0.64228 0.13778 0.0
C984 C 0.17747 0.64665 0.11685 0.0
C985 C 0.15709 0.65865 0.13141 0.0
C986 C 0.18974 0.66485 0.09418 0.0
C987 C 0.16116 0.61741 0.10536 0.0
C988 C 0.17487 0.59938 0.11824 0.0
C989 C 0.16345 0.57119 0.11201 0.0
C990 C 0.13725 0.5611 0.09213 0.0
C991 C 0.12305 0.57916 0.07854 0.0
C992 C 0.13514 0.60766 0.08513 0.0
H993 H 0.36696 0.47809 0.66085 0.0
H994 H 0.36229 0.39222 0.65628 0.0
H995 H 0.40161 0.4024 0.62707 0.0
H996 H 0.37962 0.49143 0.59091 0.0
H997 H 0.40558 0.52516 0.60015 0.0
H998 H 0.37671 0.51128 0.62047 0.0
H999 H 0.41715 0.51917 0.66475 0.0
H1000 H 0.44608 0.53317 0.64453 0.0
H1001 H 0.44786 0.50487 0.66542 0.0
H1002 H 0.44174 0.42181 0.59778 0.0
H1003 H 0.47999 0.44885 0.57212 0.0
H1004 H 0.46061 0.52276 0.59642 0.0
C1005 C 0.37426 0.46136 0.65393 0.0
C1006 C 0.36091 0.43413 0.66098 0.0
C1007 C 0.37131 0.41309 0.65095 0.0
C1008 C 0.39395 0.41873 0.63442 0.0
C1009 C 0.40638 0.44563 0.62784 0.0
C1010 C 0.39698 0.46665 0.63736 0.0
C1011 C 0.41423 0.49383 0.62734 0.0
C1012 C 0.39275 0.50615 0.60861 0.0
C1013 C 0.43241 0.51394 0.65198 0.0
C1014 C 0.43488 0.48482 0.61083 0.0
C1015 C 0.42982 0.45688 0.6113 0.0
C1016 C 0.44583 0.44369 0.59733 0.0
C1017 C 0.46755 0.45931 0.58265 0.0
C1018 C 0.47355 0.48808 0.58196 0.0
C1019 C 0.45679 0.50087 0.5964 0.0
H1020 H 0.8176 0.68068 0.9267 0.0
H1021 H 0.82444 0.65739 0.84266 0.0
H1022 H 0.87391 0.65221 0.85973 0.0
H1023 H 0.89339 0.71525 0.95281 0.0
H1024 H 0.89453 0.70043 0.98595 0.0
H1025 H 0.85967 0.70394 0.96772 0.0
H1026 H 0.83368 0.65203 0.96929 0.0
H1027 H 0.86825 0.64855 0.98821 0.0
H1028 H 0.85033 0.62786 0.95652 0.0
H1029 H 0.92387 0.65397 0.88405 0.0
H1030 H 0.96676 0.64842 0.91647 0.0
H1031 H 0.92537 0.66249 0.98608 0.0
C1032 C 0.82902 0.67393 0.91183 0.0
C1033 C 0.81741 0.6708 0.88299 0.0
C1034 C 0.83333 0.66155 0.86459 0.0
C1035 C 0.86148 0.65833 0.87407 0.0
C1036 C 0.8729 0.66313 0.90222 0.0
C1037 C 0.85673 0.66941 0.92108 0.0
C1038 C 0.87336 0.67071 0.95055 0.0
C1039 C 0.88067 0.69929 0.9651 0.0
C1040 C 0.85533 0.64846 0.96712 0.0
C1041 C 0.90163 0.66478 0.94501 0.0
C1042 C 0.901 0.66123 0.91687 0.0
C1043 C 0.92458 0.6563 0.90617 0.0
C1044 C 0.94898 0.65353 0.92475 0.0
C1045 C 0.94934 0.65519 0.95368 0.0
C1046 C 0.9256 0.66132 0.96402 0.0
H1047 H 0.47535 0.90308 0.19133 0.0
H1048 H 0.43593 0.83559 0.1286 0.0
H1049 H 0.45364 0.8663 0.09284 0.0
H1050 H 0.46152 0.95695 0.14904 0.0
H1051 H 0.49699 0.98161 0.1634 0.0
H1052 H 0.47922 0.95493 0.18409 0.0
H1053 H 0.52743 0.9398 0.19259 0.0
H1054 H 0.5453 0.96633 0.17182 0.0
H1055 H 0.54261 0.93123 0.16336 0.0
H1056 H 0.47549 0.90411 0.06346 0.0
H1057 H 0.50187 0.94615 0.0429 0.0
H1058 H 0.53196 0.98826 0.12461 0.0
C1059 C 0.47046 0.89454 0.17015 0.0
C1060 C 0.45377 0.86662 0.1631 0.0
C1061 C 0.44779 0.85684 0.13483 0.0
C1062 C 0.45808 0.87414 0.11424 0.0
C1063 C 0.4747 0.90125 0.12205 0.0
C1064 C 0.48101 0.91143 0.14932 0.0
C1065 C 0.50031 0.94121 0.15221 0.0
C1066 C 0.4835 0.95977 0.16281 0.0
C1067 C 0.53072 0.94484 0.17111 0.0
C1068 C 0.50414 0.94605 0.12231 0.0
C1069 C 0.48874 0.92278 0.10524 0.0
C1070 C 0.48778 0.92237 0.07665 0.0
C1071 C 0.5028 0.94633 0.06516 0.0
C1072 C 0.51914 0.97027 0.08221 0.0
C1073 C 0.51999 0.97007 0.1112 0.0
H1074 H 0.15475 0.20593 0.68875 0.0
H1075 H 0.14196 0.26143 0.62505 0.0
H1076 H 0.11974 0.22232 0.59072 0.0
H1077 H 0.17246 0.15692 0.64483 0.0
H1078 H 0.15212 0.12744 0.66083 0.0
H1079 H 0.1684 0.15983 0.68063 0.0
H1080 H 0.11639 0.15764 0.69258 0.0
H1081 H 0.1 0.12523 0.67288 0.0
H1082 H 0.08477 0.15316 0.66496 0.0
H1083 H 0.09754 0.17686 0.56266 0.0
H1084 H 0.07615 0.12871 0.54393 0.0
H1085 H 0.10135 0.10171 0.62526 0.0
C1086 C 0.14729 0.20999 0.66762 0.0
C1087 C 0.1508 0.23733 0.6599 0.0
C1088 C 0.14059 0.24116 0.63177 0.0
C1089 C 0.12758 0.21889 0.61197 0.0
C1090 C 0.12458 0.19246 0.62026 0.0
C1091 C 0.13408 0.18785 0.64744 0.0
C1092 C 0.12755 0.15722 0.65088 0.0
C1093 C 0.15688 0.14993 0.65983 0.0
C1094 C 0.10589 0.14776 0.67155 0.0
C1095 C 0.11268 0.14543 0.6215 0.0
C1096 C 0.11139 0.16618 0.60414 0.0
C1097 C 0.09853 0.16048 0.57611 0.0
C1098 C 0.08646 0.13299 0.56558 0.0
C1099 C 0.08706 0.11125 0.58295 0.0
C1100 C 0.10061 0.11776 0.61131 0.0
H1101 H 0.7111 0.34417 0.42115 0.0
H1102 H 0.73892 0.39577 0.35514 0.0
H1103 H 0.7049 0.42267 0.36406 0.0
H1104 H 0.63285 0.3433 0.40866 0.0
H1105 H 0.63077 0.3436 0.44508 0.0
H1106 H 0.65607 0.32813 0.43212 0.0
H1107 H 0.70061 0.35947 0.46728 0.0
H1108 H 0.6755 0.37517 0.48019 0.0
H1109 H 0.708 0.39604 0.46754 0.0
H1110 H 0.66948 0.44577 0.38332 0.0
H1111 H 0.63562 0.46115 0.40918 0.0
H1112 H 0.63075 0.39255 0.46091 0.0
C1113 C 0.71001 0.36108 0.40848 0.0
C1114 C 0.72781 0.36802 0.38759 0.0
C1115 C 0.72537 0.39004 0.37119 0.0
C1116 C 0.7062 0.40547 0.3762 0.0
C1117 C 0.68938 0.39835 0.39744 0.0
C1118 C 0.69097 0.37643 0.41306 0.0
C1119 C 0.67117 0.37294 0.43492 0.0
C1120 C 0.64624 0.34536 0.42988 0.0
C1121 C 0.68994 0.3761 0.46421 0.0
C1122 C 0.65843 0.39655 0.42962 0.0
C1123 C 0.66904 0.41107 0.40795 0.0
C1124 C 0.66084 0.43429 0.4001 0.0
C1125 C 0.64145 0.4428 0.41485 0.0
C1126 C 0.63044 0.42816 0.43723 0.0
C1127 C 0.63898 0.40457 0.44428 0.0
loop_
_geom_bond_atom_site_label_1
_geom_bond_atom_site_label_2
_geom_bond_distance
_geom_bond_site_symmetry_2
_ccdc_geom_bond_type
C0 C1 1.264 . S
C0 C5 1.479 . S
C0 C10 1.465 . S
C1 C0 1.264 . S
C1 C3 1.339 . S
C1 H28 0.931 . S
C2 C3 1.395 . S
C2 C4 1.320 . S
C3 C1 1.339 . S
C3 C2 1.395 . S
C3 H29 0.929 . S
C4 C2 1.320 . S
C4 C5 1.405 . S
C4 H30 0.930 . S
C5 C0 1.479 . S
C5 C4 1.405 . S
C5 H31 0.931 . S
U6 O7 2.454 . S
U6 O8 2.458 . S
U6 C9 2.984 . S
U6 C10 2.847 . S
U6 C23 2.882 . S
U6 O24 2.441 . S
U6 O25 2.420 . S
U6 O26 2.455 . S
U6 O27 2.449 . S
O7 U6 2.454 . S
O7 C9 1.353 . S
O8 U6 2.458 . S
O8 C9 1.286 . S
C9 U6 2.984 . S
C9 O7 1.353 . S
C9 O8 1.286 . S
C9 C11 1.363 . S
C10 C0 1.465 . S
C10 U6 2.847 . S
C10 O24 1.249 . S
C10 O25 1.202 . S
C11 C9 1.363 . S
C11 C13 1.408 . S
C11 C16 1.342 . S
C12 C13 1.310 . S
C12 C15 1.461 . S
C12 H32 0.932 . S
C13 C11 1.408 . S
C13 C12 1.310 . S
C13 H33 0.930 . S
C14 C15 1.474 . S
C14 C16 1.285 . S
C14 H34 0.929 . S
C15 C12 1.461 . S
C15 C14 1.474 . S
C16 C11 1.342 . S
C16 C14 1.285 . S
C16 H35 0.930 . S
C17 C20 1.424 . S
C17 C22 1.245 . S
C17 C23 1.428 . S
C18 C21 1.260 . S
C18 C22 1.477 . S
C18 H36 0.932 . S
C19 C20 1.384 . S
C19 C21 1.479 . S
C19 H37 0.929 . S
C20 C17 1.424 . S
C20 C19 1.384 . S
C20 H38 0.928 . S
C21 C18 1.260 . S
C21 C19 1.479 . S
C22 C17 1.245 . S
C22 C18 1.477 . S
C22 H39 0.932 . S
C23 U6 2.882 . S
C23 C17 1.428 . S
C23 O26 1.301 . S
C23 O27 1.282 . S
O24 U6 2.441 . S
O24 C10 1.249 . S
O25 U6 2.420 . S
O25 C10 1.202 . S
O26 U6 2.455 . S
O26 C23 1.301 . S
O27 U6 2.449 . S
O27 C23 1.282 . S
H28 C1 0.931 . S
H29 C3 0.929 . S
H30 C4 0.930 . S
H31 C5 0.931 . S
H32 C12 0.932 . S
H33 C13 0.930 . S
H34 C14 0.929 . S
H35 C16 0.930 . S
H36 C18 0.932 . S
H37 C19 0.929 . S
H38 C20 0.928 . S
H39 C22 0.932 . S
C40 C41 1.264 . S
C40 C45 1.479 . S
C40 C50 1.465 . S
C41 C40 1.264 . S
C41 C43 1.339 . S
C41 H68 0.931 . S
C42 C43 1.395 . S
C42 C44 1.320 . S
C43 C41 1.339 . S
C43 C42 1.395 . S
C43 H69 0.929 . S
C44 C42 1.320 . S
C44 C45 1.405 . S
C44 H70 0.930 . S
C45 C40 1.479 . S
C45 C44 1.405 . S
C45 H71 0.931 . S
U46 O47 2.454 . S
U46 O48 2.458 . S
U46 C49 2.984 . S
U46 C50 2.847 . S
U46 C63 2.882 . S
U46 O64 2.441 . S
U46 O65 2.420 . S
U46 O66 2.455 . S
U46 O67 2.449 . S
O47 U46 2.454 . S
O47 C49 1.353 . S
O48 U46 2.458 . S
O48 C49 1.286 . S
C49 U46 2.984 . S
C49 O47 1.353 . S
C49 O48 1.286 . S
C49 C51 1.363 . S
C50 C40 1.465 . S
C50 U46 2.847 . S
C50 O64 1.249 . S
C50 O65 1.202 . S
C51 C49 1.363 . S
C51 C53 1.408 . S
C51 C56 1.342 . S
C52 C53 1.310 . S
C52 C55 1.461 . S
C52 H72 0.932 . S
C53 C51 1.408 . S
C53 C52 1.310 . S
C53 H73 0.930 . S
C54 C55 1.474 . S
C54 C56 1.285 . S
C54 H74 0.929 . S
C55 C52 1.461 . S
C55 C54 1.474 . S
C56 C51 1.342 . S
C56 C54 1.285 . S
C56 H75 0.930 . S
C57 C60 1.424 . S
C57 C62 1.245 . S
C57 C63 1.428 . S
C58 C61 1.260 . S
C58 C62 1.477 . S
C58 H76 0.932 . S
C59 C60 1.384 . S
C59 C61 1.479 . S
C59 H77 0.929 . S
C60 C57 1.424 . S
C60 C59 1.384 . S
C60 H78 0.928 . S
C61 C58 1.260 . S
C61 C59 1.479 . S
C62 C57 1.245 . S
C62 C58 1.477 . S
C62 H79 0.932 . S
C63 U46 2.882 . S
C63 C57 1.428 . S
C63 O66 1.301 . S
C63 O67 1.282 . S
O64 U46 2.441 . S
O64 C50 1.249 . S
O65 U46 2.420 . S
O65 C50 1.202 . S
O66 U46 2.455 . S
O66 C63 1.301 . S
O67 U46 2.449 . S
O67 C63 1.282 . S
H68 C41 0.931 . S
H69 C43 0.929 . S
H70 C44 0.930 . S
H71 C45 0.931 . S
H72 C52 0.932 . S
H73 C53 0.930 . S
H74 C54 0.929 . S
H75 C56 0.930 . S
H76 C58 0.932 . S
H77 C59 0.929 . S
H78 C60 0.928 . S
H79 C62 0.932 . S
C80 C81 1.264 . S
C80 C85 1.479 . S
C80 C90 1.465 . S
C81 C80 1.264 . S
C81 C83 1.339 . S
C81 H108 0.931 . S
C82 C83 1.395 . S
C82 C84 1.320 . S
C83 C81 1.339 . S
C83 C82 1.395 . S
C83 H109 0.929 . S
C84 C82 1.320 . S
C84 C85 1.405 . S
C84 H110 0.930 . S
C85 C80 1.479 . S
C85 C84 1.405 . S
C85 H111 0.931 . S
U86 O87 2.454 . S
U86 O88 2.458 . S
U86 C89 2.984 . S
U86 C90 2.847 . S
U86 C103 2.882 . S
U86 O104 2.441 . S
U86 O105 2.420 . S
U86 O106 2.455 . S
U86 O107 2.449 . S
O87 U86 2.454 . S
O87 C89 1.353 . S
O88 U86 2.458 . S
O88 C89 1.286 . S
C89 U86 2.984 . S
C89 O87 1.353 . S
C89 O88 1.286 . S
C89 C91 1.363 . S
C90 C80 1.465 . S
C90 U86 2.847 . S
C90 O104 1.249 . S
C90 O105 1.202 . S
C91 C89 1.363 . S
C91 C93 1.408 . S
C91 C96 1.342 . S
C92 C93 1.310 . S
C92 C95 1.461 . S
C92 H112 0.932 . S
C93 C91 1.408 . S
C93 C92 1.310 . S
C93 H113 0.930 . S
C94 C95 1.474 . S
C94 C96 1.285 . S
C94 H114 0.929 . S
C95 C92 1.461 . S
C95 C94 1.474 . S
C96 C91 1.342 . S
C96 C94 1.285 . S
C96 H115 0.930 . S
C97 C100 1.424 . S
C97 C102 1.245 . S
C97 C103 1.428 . S
C98 C101 1.260 . S
C98 C102 1.477 . S
C98 H116 0.932 . S
C99 C100 1.384 . S
C99 C101 1.479 . S
C99 H117 0.929 . S
C100 C97 1.424 . S
C100 C99 1.384 . S
C100 H118 0.928 . S
C101 C98 1.260 . S
C101 C99 1.479 . S
C102 C97 1.245 . S
C102 C98 1.477 . S
C102 H119 0.932 . S
C103 U86 2.882 . S
C103 C97 1.428 . S
C103 O106 1.301 . S
C103 O107 1.282 . S
O104 U86 2.441 . S
O104 C90 1.249 . S
O105 U86 2.420 . S
O105 C90 1.202 . S
O106 U86 2.455 . S
O106 C103 1.301 . S
O107 U86 2.449 . S
O107 C103 1.282 . S
H108 C81 0.931 . S
H109 C83 0.929 . S
H110 C84 0.930 . S
H111 C85 0.931 . S
H112 C92 0.932 . S
H113 C93 0.930 . S
H114 C94 0.929 . S
H115 C96 0.930 . S
H116 C98 0.932 . S
H117 C99 0.929 . S
H118 C100 0.928 . S
H119 C102 0.932 . S
C120 C121 1.264 . S
C120 C125 1.479 . S
C120 C130 1.465 . S
C121 C120 1.264 . S
C121 C123 1.339 . S
C121 H148 0.931 . S
C122 C123 1.395 . S
C122 C124 1.320 . S
C123 C121 1.339 . S
C123 C122 1.395 . S
C123 H149 0.929 . S
C124 C122 1.320 . S
C124 C125 1.405 . S
C124 H150 0.930 . S
C125 C120 1.479 . S
C125 C124 1.405 . S
C125 H151 0.931 . S
U126 O127 2.454 . S
U126 O128 2.458 . S
U126 C129 2.984 . S
U126 C130 2.847 . S
U126 C143 2.882 . S
U126 O144 2.441 . S
U126 O145 2.420 . S
U126 O146 2.455 . S
U126 O147 2.449 . S
O127 U126 2.454 . S
O127 C129 1.353 . S
O128 U126 2.458 . S
O128 C129 1.286 . S
C129 U126 2.984 . S
C129 O127 1.353 . S
C129 O128 1.286 . S
C129 C131 1.363 . S
C130 C120 1.465 . S
C130 U126 2.847 . S
C130 O144 1.249 . S
C130 O145 1.202 . S
C131 C129 1.363 . S
C131 C133 1.408 . S
C131 C136 1.342 . S
C132 C133 1.310 . S
C132 C135 1.461 . S
C132 H152 0.932 . S
C133 C131 1.408 . S
C133 C132 1.310 . S
C133 H153 0.930 . S
C134 C135 1.474 . S
C134 C136 1.285 . S
C134 H154 0.929 . S
C135 C132 1.461 . S
C135 C134 1.474 . S
C136 C131 1.342 . S
C136 C134 1.285 . S
C136 H155 0.930 . S
C137 C140 1.424 . S
C137 C142 1.245 . S
C137 C143 1.428 . S
C138 C141 1.260 . S
C138 C142 1.477 . S
C138 H156 0.932 . S
C139 C140 1.384 . S
C139 C141 1.479 . S
C139 H157 0.929 . S
C140 C137 1.424 . S
C140 C139 1.384 . S
C140 H158 0.928 . S
C141 C138 1.260 . S
C141 C139 1.479 . S
C142 C137 1.245 . S
C142 C138 1.477 . S
C142 H159 0.932 . S
C143 U126 2.882 . S
C143 C137 1.428 . S
C143 O146 1.301 . S
C143 O147 1.282 . S
O144 U126 2.441 . S
O144 C130 1.249 . S
O145 U126 2.420 . S
O145 C130 1.202 . S
O146 U126 2.455 . S
O146 C143 1.301 . S
O147 U126 2.449 . S
O147 C143 1.282 . S
H148 C121 0.931 . S
H149 C123 0.929 . S
H150 C124 0.930 . S
H151 C125 0.931 . S
H152 C132 0.932 . S
H153 C133 0.930 . S
H154 C134 0.929 . S
H155 C136 0.930 . S
H156 C138 0.932 . S
H157 C139 0.929 . S
H158 C140 0.928 . S
H159 C142 0.932 . S
C160 C161 1.264 . S
C160 C165 1.479 . S
C160 C170 1.465 . S
C161 C160 1.264 . S
C161 C163 1.339 . S
C161 H188 0.931 . S
C162 C163 1.395 . S
C162 C164 1.320 . S
C163 C161 1.339 . S
C163 C162 1.395 . S
C163 H189 0.929 . S
C164 C162 1.320 . S
C164 C165 1.405 . S
C164 H190 0.930 . S
C165 C160 1.479 . S
C165 C164 1.405 . S
C165 H191 0.931 . S
U166 O167 2.454 . S
U166 O168 2.458 . S
U166 C169 2.984 . S
U166 C170 2.847 . S
U166 C183 2.882 . S
U166 O184 2.441 . S
U166 O185 2.420 . S
U166 O186 2.455 . S
U166 O187 2.449 . S
O167 U166 2.454 . S
O167 C169 1.353 . S
O168 U166 2.458 . S
O168 C169 1.286 . S
C169 U166 2.984 . S
C169 O167 1.353 . S
C169 O168 1.286 . S
C169 C171 1.363 . S
C170 C160 1.465 . S
C170 U166 2.847 . S
C170 O184 1.249 . S
C170 O185 1.202 . S
C171 C169 1.363 . S
C171 C173 1.408 . S
C171 C176 1.342 . S
C172 C173 1.310 . S
C172 C175 1.461 . S
C172 H192 0.932 . S
C173 C171 1.408 . S
C173 C172 1.310 . S
C173 H193 0.930 . S
C174 C175 1.474 . S
C174 C176 1.285 . S
C174 H194 0.929 . S
C175 C172 1.461 . S
C175 C174 1.474 . S
C176 C171 1.342 . S
C176 C174 1.285 . S
C176 H195 0.930 . S
C177 C180 1.424 . S
C177 C182 1.245 . S
C177 C183 1.428 . S
C178 C181 1.260 . S
C178 C182 1.477 . S
C178 H196 0.932 . S
C179 C180 1.384 . S
C179 C181 1.479 . S
C179 H197 0.929 . S
C180 C177 1.424 . S
C180 C179 1.384 . S
C180 H198 0.928 . S
C181 C178 1.260 . S
C181 C179 1.479 . S
C182 C177 1.245 . S
C182 C178 1.477 . S
C182 H199 0.932 . S
C183 U166 2.882 . S
C183 C177 1.428 . S
C183 O186 1.301 . S
C183 O187 1.282 . S
O184 U166 2.441 . S
O184 C170 1.249 . S
O185 U166 2.420 . S
O185 C170 1.202 . S
O186 U166 2.455 . S
O186 C183 1.301 . S
O187 U166 2.449 . S
O187 C183 1.282 . S
H188 C161 0.931 . S
H189 C163 0.929 . S
H190 C164 0.930 . S
H191 C165 0.931 . S
H192 C172 0.932 . S
H193 C173 0.930 . S
H194 C174 0.929 . S
H195 C176 0.930 . S
H196 C178 0.932 . S
H197 C179 0.929 . S
H198 C180 0.928 . S
H199 C182 0.932 . S
C200 C201 1.264 . S
C200 C205 1.479 . S
C200 C210 1.465 . S
C201 C200 1.264 . S
C201 C203 1.339 . S
C201 H228 0.931 . S
C202 C203 1.395 . S
C202 C204 1.320 . S
C203 C201 1.339 . S
C203 C202 1.395 . S
C203 H229 0.929 . S
C204 C202 1.320 . S
C204 C205 1.405 . S
C204 H230 0.930 . S
C205 C200 1.479 . S
C205 C204 1.405 . S
C205 H231 0.931 . S
U206 O207 2.454 . S
U206 O208 2.458 . S
U206 C209 2.984 . S
U206 C210 2.847 . S
U206 C223 2.882 . S
U206 O224 2.441 . S
U206 O225 2.420 . S
U206 O226 2.455 . S
U206 O227 2.449 . S
O207 U206 2.454 . S
O207 C209 1.353 . S
O208 U206 2.458 . S
O208 C209 1.286 . S
C209 U206 2.984 . S
C209 O207 1.353 . S
C209 O208 1.286 . S
C209 C211 1.363 . S
C210 C200 1.465 . S
C210 U206 2.847 . S
C210 O224 1.249 . S
C210 O225 1.202 . S
C211 C209 1.363 . S
C211 C213 1.408 . S
C211 C216 1.342 . S
C212 C213 1.310 . S
C212 C215 1.461 . S
C212 H232 0.932 . S
C213 C211 1.408 . S
C213 C212 1.310 . S
C213 H233 0.930 . S
C214 C215 1.474 . S
C214 C216 1.285 . S
C214 H234 0.929 . S
C215 C212 1.461 . S
C215 C214 1.474 . S
C216 C211 1.342 . S
C216 C214 1.285 . S
C216 H235 0.930 . S
C217 C220 1.424 . S
C217 C222 1.245 . S
C217 C223 1.428 . S
C218 C221 1.260 . S
C218 C222 1.477 . S
C218 H236 0.932 . S
C219 C220 1.384 . S
C219 C221 1.479 . S
C219 H237 0.929 . S
C220 C217 1.424 . S
C220 C219 1.384 . S
C220 H238 0.928 . S
C221 C218 1.260 . S
C221 C219 1.479 . S
C222 C217 1.245 . S
C222 C218 1.477 . S
C222 H239 0.932 . S
C223 U206 2.882 . S
C223 C217 1.428 . S
C223 O226 1.301 . S
C223 O227 1.282 . S
O224 U206 2.441 . S
O224 C210 1.249 . S
O225 U206 2.420 . S
O225 C210 1.202 . S
O226 U206 2.455 . S
O226 C223 1.301 . S
O227 U206 2.449 . S
O227 C223 1.282 . S
H228 C201 0.931 . S
H229 C203 0.929 . S
H230 C204 0.930 . S
H231 C205 0.931 . S
H232 C212 0.932 . S
H233 C213 0.930 . S
H234 C214 0.929 . S
H235 C216 0.930 . S
H236 C218 0.932 . S
H237 C219 0.929 . S
H238 C220 0.928 . S
H239 C222 0.932 . S
C240 C241 1.264 . S
C240 C245 1.479 . S
C240 C250 1.465 . S
C241 C240 1.264 . S
C241 C243 1.339 . S
C241 H268 0.931 . S
C242 C243 1.395 . S
C242 C244 1.320 . S
C243 C241 1.339 . S
C243 C242 1.395 . S
C243 H269 0.929 . S
C244 C242 1.320 . S
C244 C245 1.405 . S
C244 H270 0.930 . S
C245 C240 1.479 . S
C245 C244 1.405 . S
C245 H271 0.931 . S
U246 O247 2.454 . S
U246 O248 2.458 . S
U246 C249 2.984 . S
U246 C250 2.847 . S
U246 C263 2.882 . S
U246 O264 2.441 . S
U246 O265 2.420 . S
U246 O266 2.455 . S
U246 O267 2.449 . S
O247 U246 2.454 . S
O247 C249 1.353 . S
O248 U246 2.458 . S
O248 C249 1.286 . S
C249 U246 2.984 . S
C249 O247 1.353 . S
C249 O248 1.286 . S
C249 C251 1.363 . S
C250 C240 1.465 . S
C250 U246 2.847 . S
C250 O264 1.249 . S
C250 O265 1.202 . S
C251 C249 1.363 . S
C251 C253 1.408 . S
C251 C256 1.342 . S
C252 C253 1.310 . S
C252 C255 1.461 . S
C252 H272 0.932 . S
C253 C251 1.408 . S
C253 C252 1.310 . S
C253 H273 0.930 . S
C254 C255 1.474 . S
C254 C256 1.285 . S
C254 H274 0.929 . S
C255 C252 1.461 . S
C255 C254 1.474 . S
C256 C251 1.342 . S
C256 C254 1.285 . S
C256 H275 0.930 . S
C257 C260 1.424 . S
C257 C262 1.245 . S
C257 C263 1.428 . S
C258 C261 1.260 . S
C258 C262 1.477 . S
C258 H276 0.932 . S
C259 C260 1.384 . S
C259 C261 1.479 . S
C259 H277 0.929 . S
C260 C257 1.424 . S
C260 C259 1.384 . S
C260 H278 0.928 . S
C261 C258 1.260 . S
C261 C259 1.479 . S
C262 C257 1.245 . S
C262 C258 1.477 . S
C262 H279 0.932 . S
C263 U246 2.882 . S
C263 C257 1.428 . S
C263 O266 1.301 . S
C263 O267 1.282 . S
O264 U246 2.441 . S
O264 C250 1.249 . S
O265 U246 2.420 . S
O265 C250 1.202 . S
O266 U246 2.455 . S
O266 C263 1.301 . S
O267 U246 2.449 . S
O267 C263 1.282 . S
H268 C241 0.931 . S
H269 C243 0.929 . S
H270 C244 0.930 . S
H271 C245 0.931 . S
H272 C252 0.932 . S
H273 C253 0.930 . S
H274 C254 0.929 . S
H275 C256 0.930 . S
H276 C258 0.932 . S
H277 C259 0.929 . S
H278 C260 0.928 . S
H279 C262 0.932 . S
C280 C281 1.264 . S
C280 C285 1.479 . S
C280 C290 1.465 . S
C281 C280 1.264 . S
C281 C283 1.339 . S
C281 H308 0.931 . S
C282 C283 1.395 . S
C282 C284 1.320 . S
C283 C281 1.339 . S
C283 C282 1.395 . S
C283 H309 0.929 . S
C284 C282 1.320 . S
C284 C285 1.405 . S
C284 H310 0.930 . S
C285 C280 1.479 . S
C285 C284 1.405 . S
C285 H311 0.931 . S
U286 O287 2.454 . S
U286 O288 2.458 . S
U286 C289 2.984 . S
U286 C290 2.847 . S
U286 C303 2.882 . S
U286 O304 2.441 . S
U286 O305 2.420 . S
U286 O306 2.455 . S
U286 O307 2.449 . S
O287 U286 2.454 . S
O287 C289 1.353 . S
O288 U286 2.458 . S
O288 C289 1.286 . S
C289 U286 2.984 . S
C289 O287 1.353 . S
C289 O288 1.286 . S
C289 C291 1.363 . S
C290 C280 1.465 . S
C290 U286 2.847 . S
C290 O304 1.249 . S
C290 O305 1.202 . S
C291 C289 1.363 . S
C291 C293 1.408 . S
C291 C296 1.342 . S
C292 C293 1.310 . S
C292 C295 1.461 . S
C292 H312 0.932 . S
C293 C291 1.408 . S
C293 C292 1.310 . S
C293 H313 0.930 . S
C294 C295 1.474 . S
C294 C296 1.285 . S
C294 H314 0.929 . S
C295 C292 1.461 . S
C295 C294 1.474 . S
C296 C291 1.342 . S
C296 C294 1.285 . S
C296 H315 0.930 . S
C297 C300 1.424 . S
C297 C302 1.245 . S
C297 C303 1.428 . S
C298 C301 1.260 . S
C298 C302 1.477 . S
C298 H316 0.932 . S
C299 C300 1.384 . S
C299 C301 1.479 . S
C299 H317 0.929 . S
C300 C297 1.424 . S
C300 C299 1.384 . S
C300 H318 0.928 . S
C301 C298 1.260 . S
C301 C299 1.479 . S
C302 C297 1.245 . S
C302 C298 1.477 . S
C302 H319 0.932 . S
C303 U286 2.882 . S
C303 C297 1.428 . S
C303 O306 1.301 . S
C303 O307 1.282 . S
O304 U286 2.441 . S
O304 C290 1.249 . S
O305 U286 2.420 . S
O305 C290 1.202 . S
O306 U286 2.455 . S
O306 C303 1.301 . S
O307 U286 2.449 . S
O307 C303 1.282 . S
H308 C281 0.931 . S
H309 C283 0.929 . S
H310 C284 0.930 . S
H311 C285 0.931 . S
H312 C292 0.932 . S
H313 C293 0.930 . S
H314 C294 0.929 . S
H315 C296 0.930 . S
H316 C298 0.932 . S
H317 C299 0.929 . S
H318 C300 0.928 . S
H319 C302 0.932 . S
Pr320 C322 2.880 . S
Pr320 O340 2.562 . S
Pr320 O341 2.490 . S
Pr320 O342 2.695 1_665 S
Pr320 O343 2.512 1_665 S
Pr320 O345 2.437 1_655 S
Pr320 O348 2.436 . S
Pr320 O350 2.438 1_565 S
Pr321 C331 2.880 . S
Pr321 O342 2.436 . S
Pr321 O344 2.438 1_545 S
Pr321 O346 2.562 . S
Pr321 O347 2.490 . S
Pr321 O348 2.695 1_445 S
Pr321 O349 2.522 1_545 S
Pr321 O351 2.437 1_455 S
C322 Pr320 2.880 . S
C322 C323 1.491 . S
C322 O340 1.254 . S
C322 O341 1.225 . S
C323 C322 1.491 . S
C323 C324 1.392 . S
C323 C328 1.356 . S
C324 C323 1.392 . S
C324 C325 1.368 . S
C324 H352 0.929 . S
C325 C324 1.368 . S
C325 C326 1.386 . S
C325 H353 0.929 . S
C326 C325 1.386 . S
C326 C327 1.373 . S
C327 C326 1.373 . S
C327 C328 1.409 . S
C327 H354 0.931 . S
C328 C323 1.356 . S
C328 C327 1.409 . S
C328 H355 0.930 . S
C329 O342 1.270 . S
C329 O343 1.248 . S
C330 O344 1.267 . S
C330 O345 1.278 . S
C331 Pr321 2.880 . S
C331 C332 1.491 . S
C331 O346 1.254 . S
C331 O347 1.225 . S
C332 C331 1.491 . S
C332 C333 1.392 . S
C332 C337 1.356 . S
C333 C332 1.392 . S
C333 C334 1.368 . S
C333 H356 0.929 . S
C334 C333 1.368 . S
C334 C335 1.386 . S
C334 H357 0.929 . S
C335 C334 1.386 . S
C335 C336 1.373 . S
C336 C335 1.373 . S
C336 C337 1.409 . S
C336 H358 0.931 . S
C337 C332 1.356 . S
C337 C336 1.409 . S
C337 H359 0.930 . S
C338 O348 1.270 . S
C338 O349 1.224 1_655 S
C339 O350 1.267 . S
C339 O351 1.278 . S
O340 Pr320 2.562 . S
O340 C322 1.254 . S
O341 Pr320 2.490 . S
O341 C322 1.225 . S
O342 Pr320 2.695 1_445 S
O342 Pr321 2.436 . S
O342 C329 1.270 . S
O343 Pr320 2.512 1_445 S
O343 C329 1.248 . S
O344 Pr321 2.438 1_565 S
O344 C330 1.267 . S
O345 Pr320 2.437 1_455 S
O345 C330 1.278 . S
O346 Pr321 2.562 . S
O346 C331 1.254 . S
O347 Pr321 2.490 . S
O347 C331 1.225 . S
O348 Pr320 2.436 . S
O348 Pr321 2.695 1_665 S
O348 C338 1.270 . S
O349 Pr321 2.522 1_565 S
O349 C338 1.224 1_455 S
O350 Pr320 2.438 1_545 S
O350 C339 1.267 . S
O351 Pr321 2.437 1_655 S
O351 C339 1.278 . S
H352 C324 0.929 . S
H353 C325 0.929 . S
H354 C327 0.931 . S
H355 C328 0.930 . S
H356 C333 0.929 . S
H357 C334 0.929 . S
H358 C336 0.931 . S
H359 C337 0.930 . S
Pr360 C362 2.880 . S
Pr360 O380 2.562 . S
Pr360 O381 2.490 . S
Pr360 O382 2.695 1_554 S
Pr360 O383 2.512 1_554 S
Pr360 O385 2.437 . S
Pr360 O388 2.436 1_545 S
Pr360 O390 2.438 1_544 S
Pr361 C371 2.880 1_554 S
Pr361 O382 2.436 1_564 S
Pr361 O384 2.438 1_565 S
Pr361 O386 2.562 1_554 S
Pr361 O387 2.490 1_554 S
Pr361 O388 2.695 . S
Pr361 O389 2.512 . S
Pr361 O391 2.437 1_554 S
C362 Pr360 2.880 . S
C362 C363 1.491 . S
C362 O380 1.254 . S
C362 O381 1.225 . S
C363 C362 1.491 . S
C363 C364 1.392 . S
C363 C368 1.356 . S
C364 C363 1.392 . S
C364 C365 1.368 . S
C364 H392 0.929 . S
C365 C364 1.368 . S
C365 C366 1.386 . S
C365 H393 0.929 . S
C366 C365 1.386 . S
C366 C367 1.373 . S
C367 C366 1.373 . S
C367 C368 1.409 . S
C367 H394 0.931 . S
C368 C363 1.356 . S
C368 C367 1.409 . S
C368 H395 0.930 . S
C369 O382 1.270 . S
C369 O383 1.248 . S
C370 O384 1.267 . S
C370 O385 1.278 . S
C371 Pr361 2.880 1_556 S
C371 C372 1.491 . S
C371 O386 1.254 . S
C371 O387 1.225 . S
C372 C371 1.491 . S
C372 C373 1.392 . S
C372 C377 1.356 . S
C373 C372 1.392 . S
C373 C374 1.368 . S
C373 H396 0.929 . S
C374 C373 1.368 . S
C374 C375 1.386 . S
C374 H397 0.929 . S
C375 C374 1.386 . S
C375 C376 1.373 . S
C376 C375 1.373 . S
C376 C377 1.409 . S
C376 H398 0.931 . S
C377 C372 1.356 . S
C377 C376 1.409 . S
C377 H399 0.930 . S
C378 O388 1.270 . S
C378 O389 1.248 . S
C379 O390 1.267 . S
C379 O391 1.278 . S
O380 Pr360 2.562 . S
O380 C362 1.254 . S
O381 Pr360 2.490 . S
O381 C362 1.225 . S
O382 Pr360 2.695 1_556 S
O382 Pr361 2.436 1_546 S
O382 C369 1.270 . S
O383 Pr360 2.512 1_556 S
O383 C369 1.248 . S
O384 Pr361 2.438 1_545 S
O384 C370 1.267 . S
O385 Pr360 2.437 . S
O385 C370 1.278 . S
O386 Pr361 2.562 1_556 S
O386 C371 1.254 . S
O387 Pr361 2.490 1_556 S
O387 C371 1.225 . S
O388 Pr360 2.436 1_565 S
O388 Pr361 2.695 . S
O388 C378 1.270 . S
O389 Pr361 2.512 . S
O389 C378 1.248 . S
O390 Pr360 2.438 1_566 S
O390 C379 1.267 . S
O391 Pr361 2.437 1_556 S
O391 C379 1.278 . S
H392 C364 0.929 . S
H393 C365 0.929 . S
H394 C367 0.931 . S
H395 C368 0.930 . S
H396 C373 0.929 . S
H397 C374 0.929 . S
H398 C376 0.931 . S
H399 C377 0.930 . S
Pr400 C402 2.880 . S
Pr400 O420 2.562 . S
Pr400 O421 2.490 . S
Pr400 O422 2.695 . S
Pr400 O423 2.512 . S
Pr400 O425 2.437 . S
Pr400 O428 2.436 . S
Pr400 O430 2.438 . S
Pr401 C411 2.880 . S
Pr401 O422 2.436 . S
Pr401 O424 2.438 . S
Pr401 O426 2.562 . S
Pr401 O427 2.490 . S
Pr401 O428 2.695 . S
Pr401 O429 2.512 . S
Pr401 O431 2.437 . S
C402 Pr400 2.880 . S
C402 C403 1.491 . S
C402 O420 1.254 . S
C402 O421 1.225 . S
C403 C402 1.491 . S
C403 C404 1.392 . S
C403 C408 1.356 . S
C404 C403 1.392 . S
C404 C405 1.368 . S
C404 H432 0.929 . S
C405 C404 1.368 . S
C405 C406 1.386 . S
C405 H433 0.929 . S
C406 C405 1.386 . S
C406 C407 1.373 . S
C407 C406 1.373 . S
C407 C408 1.409 . S
C407 H434 0.931 . S
C408 C403 1.356 . S
C408 C407 1.409 . S
C408 H435 0.930 . S
C409 O422 1.270 . S
C409 O423 1.248 . S
C410 O424 1.267 . S
C410 O425 1.278 . S
C411 Pr401 2.880 . S
C411 C412 1.491 . S
C411 O426 1.254 . S
C411 O427 1.225 . S
C412 C411 1.491 . S
C412 C413 1.392 . S
C412 C417 1.356 . S
C413 C412 1.392 . S
C413 C414 1.368 . S
C413 H436 0.929 . S
C414 C413 1.368 . S
C414 C415 1.386 . S
C414 H437 0.929 . S
C415 C414 1.386 . S
C415 C416 1.373 . S
C416 C415 1.373 . S
C416 C417 1.409 . S
C416 H438 0.931 . S
C417 C412 1.356 . S
C417 C416 1.409 . S
C417 H439 0.930 . S
C418 O428 1.270 . S
C418 O429 1.248 . S
C419 O430 1.267 . S
C419 O431 1.278 . S
O420 Pr400 2.562 . S
O420 C402 1.254 . S
O421 Pr400 2.490 . S
O421 C402 1.225 . S
O422 Pr400 2.695 . S
O422 Pr401 2.436 . S
O422 C409 1.270 . S
O423 Pr400 2.512 . S
O423 C409 1.248 . S
O424 Pr401 2.438 . S
O424 C410 1.267 . S
O425 Pr400 2.437 . S
O425 C410 1.278 . S
O426 Pr401 2.562 . S
O426 C411 1.254 . S
O427 Pr401 2.490 . S
O427 C411 1.225 . S
O428 Pr400 2.436 . S
O428 Pr401 2.695 . S
O428 C418 1.270 . S
O429 Pr401 2.512 . S
O429 C418 1.248 . S
O430 Pr400 2.438 . S
O430 C419 1.267 . S
O431 Pr401 2.437 . S
O431 C419 1.278 . S
H432 C404 0.929 . S
H433 C405 0.929 . S
H434 C407 0.931 . S
H435 C408 0.930 . S
H436 C413 0.929 . S
H437 C414 0.929 . S
H438 C416 0.931 . S
H439 C417 0.930 . S
Pr440 C442 2.880 1_455 S
Pr440 O460 2.562 1_455 S
Pr440 O461 2.490 1_455 S
Pr440 O462 2.695 1_556 S
Pr440 O463 2.512 1_556 S
Pr440 O465 2.437 1_456 S
Pr440 O468 2.436 1_455 S
Pr440 O470 2.438 . S
Pr441 C451 2.880 . S
Pr441 O462 2.436 . S
Pr441 O464 2.438 1_455 S
Pr441 O466 2.562 . S
Pr441 O467 2.490 . S
Pr441 O468 2.695 1_454 S
Pr441 O469 2.512 1_454 S
Pr441 O471 2.437 1_554 S
C442 Pr440 2.880 1_655 S
C442 C443 1.491 . S
C442 O460 1.254 . S
C442 O461 1.225 . S
C443 C442 1.491 . S
C443 C444 1.392 . S
C443 C448 1.356 . S
C444 C443 1.392 . S
C444 C445 1.368 . S
C444 H472 0.929 . S
C445 C444 1.368 . S
C445 C446 1.386 . S
C445 H473 0.929 . S
C446 C445 1.386 . S
C446 C447 1.373 . S
C447 C446 1.373 . S
C447 C448 1.409 . S
C447 H474 0.931 . S
C448 C443 1.356 . S
C448 C447 1.409 . S
C448 H475 0.930 . S
C449 O462 1.270 . S
C449 O463 1.248 . S
C450 O464 1.267 . S
C450 O465 1.278 . S
C451 Pr441 2.880 . S
C451 C452 1.491 . S
C451 O466 1.254 . S
C451 O467 1.225 . S
C452 C451 1.491 . S
C452 C453 1.392 . S
C452 C457 1.356 . S
C453 C452 1.392 . S
C453 C454 1.368 . S
C453 H476 0.929 . S
C454 C453 1.368 . S
C454 C455 1.386 . S
C454 H477 0.929 . S
C455 C454 1.386 . S
C455 C456 1.373 . S
C456 C455 1.373 . S
C456 C457 1.409 . S
C456 H478 0.931 . S
C457 C452 1.356 . S
C457 C456 1.409 . S
C457 H479 0.930 . S
C458 O468 1.270 . S
C458 O469 1.248 . S
C459 O470 1.267 . S
C459 O471 1.278 . S
O460 Pr440 2.562 1_655 S
O460 C442 1.254 . S
O461 Pr440 2.490 1_655 S
O461 C442 1.225 . S
O462 Pr440 2.695 1_554 S
O462 Pr441 2.436 . S
O462 C449 1.270 . S
O463 Pr440 2.512 1_554 S
O463 C449 1.248 . S
O464 Pr441 2.438 1_655 S
O464 C450 1.267 . S
O465 Pr440 2.437 1_654 S
O465 C450 1.278 . S
O466 Pr441 2.562 . S
O466 C451 1.254 . S
O467 Pr441 2.490 . S
O467 C451 1.225 . S
O468 Pr440 2.436 1_655 S
O468 Pr441 2.695 1_656 S
O468 C458 1.270 . S
O469 Pr441 2.512 1_656 S
O469 C458 1.248 . S
O470 Pr440 2.438 . S
O470 C459 1.267 . S
O471 Pr441 2.437 1_556 S
O471 C459 1.278 . S
H472 C444 0.929 . S
H473 C445 0.929 . S
H474 C447 0.931 . S
H475 C448 0.930 . S
H476 C453 0.929 . S
H477 C454 0.929 . S
H478 C456 0.931 . S
H479 C457 0.930 . S
H480 C492 0.930 . S
H481 C494 0.930 . S
H482 C495 0.930 . S
H483 C499 0.959 . S
H484 C499 0.959 . S
H485 C499 0.961 . S
H486 C500 0.960 . S
H487 C500 0.961 . S
H488 C500 0.959 . S
H489 C503 0.929 . S
H490 C504 0.931 . S
H491 C506 0.930 . S
C492 H480 0.930 . S
C492 C493 1.399 . S
C492 C497 1.399 . S
C493 C492 1.399 . S
C493 C494 1.376 . S
C494 H481 0.930 . S
C494 C493 1.376 . S
C494 C495 1.388 . S
C495 H482 0.930 . S
C495 C494 1.388 . S
C495 C496 1.390 . S
C496 C495 1.390 . S
C496 C497 1.394 . S
C496 C502 1.465 . S
C497 C492 1.399 . S
C497 C496 1.394 . S
C497 C498 1.516 . S
C498 C497 1.516 . S
C498 C499 1.502 . S
C498 C500 1.561 . S
C498 C501 1.526 . S
C499 H483 0.959 . S
C499 H484 0.959 . S
C499 H485 0.961 . S
C499 C498 1.502 . S
C500 H486 0.960 . S
C500 H487 0.961 . S
C500 H488 0.959 . S
C500 C498 1.561 . S
C501 C498 1.526 . S
C501 C502 1.396 . S
C501 C506 1.390 . S
C502 C496 1.465 . S
C502 C501 1.396 . S
C502 C503 1.399 . S
C503 H489 0.929 . S
C503 C502 1.399 . S
C503 C504 1.385 . S
C504 H490 0.931 . S
C504 C503 1.385 . S
C504 C505 1.389 . S
C505 C504 1.389 . S
C505 C506 1.387 . S
C506 H491 0.930 . S
C506 C501 1.390 . S
C506 C505 1.387 . S
H507 C519 0.930 . S
H508 C521 0.930 . S
H509 C522 0.930 . S
H510 C526 0.959 . S
H511 C526 0.959 . S
H512 C526 0.961 . S
H513 C527 0.960 . S
H514 C527 0.961 . S
H515 C527 0.959 . S
H516 C530 0.929 . S
H517 C531 0.931 . S
H518 C533 0.930 . S
C519 H507 0.930 . S
C519 C520 1.399 . S
C519 C524 1.399 . S
C520 C519 1.399 . S
C520 C521 1.376 . S
C521 H508 0.930 . S
C521 C520 1.376 . S
C521 C522 1.388 . S
C522 H509 0.930 . S
C522 C521 1.388 . S
C522 C523 1.390 . S
C523 C522 1.390 . S
C523 C524 1.394 . S
C523 C529 1.465 . S
C524 C519 1.399 . S
C524 C523 1.394 . S
C524 C525 1.516 . S
C525 C524 1.516 . S
C525 C526 1.502 . S
C525 C527 1.561 . S
C525 C528 1.526 . S
C526 H510 0.959 . S
C526 H511 0.959 . S
C526 H512 0.961 . S
C526 C525 1.502 . S
C527 H513 0.960 . S
C527 H514 0.961 . S
C527 H515 0.959 . S
C527 C525 1.561 . S
C528 C525 1.526 . S
C528 C529 1.396 . S
C528 C533 1.390 . S
C529 C523 1.465 . S
C529 C528 1.396 . S
C529 C530 1.399 . S
C530 H516 0.929 . S
C530 C529 1.399 . S
C530 C531 1.385 . S
C531 H517 0.931 . S
C531 C530 1.385 . S
C531 C532 1.389 . S
C532 C531 1.389 . S
C532 C533 1.387 . S
C533 H518 0.930 . S
C533 C528 1.390 . S
C533 C532 1.387 . S
H534 C546 0.930 . S
H535 C548 0.930 . S
H536 C549 0.930 . S
H537 C553 0.959 . S
H538 C553 0.959 . S
H539 C553 0.961 . S
H540 C554 0.960 . S
H541 C554 0.961 . S
H542 C554 0.959 . S
H543 C557 0.929 . S
H544 C558 0.931 . S
H545 C560 0.930 . S
C546 H534 0.930 . S
C546 C547 1.399 . S
C546 C551 1.399 . S
C547 C546 1.399 . S
C547 C548 1.376 . S
C548 H535 0.930 . S
C548 C547 1.376 . S
C548 C549 1.388 . S
C549 H536 0.930 . S
C549 C548 1.388 . S
C549 C550 1.390 . S
C550 C549 1.390 . S
C550 C551 1.394 . S
C550 C556 1.465 . S
C551 C546 1.399 . S
C551 C550 1.394 . S
C551 C552 1.516 . S
C552 C551 1.516 . S
C552 C553 1.502 . S
C552 C554 1.561 . S
C552 C555 1.526 . S
C553 H537 0.959 . S
C553 H538 0.959 . S
C553 H539 0.961 . S
C553 C552 1.502 . S
C554 H540 0.960 . S
C554 H541 0.961 . S
C554 H542 0.959 . S
C554 C552 1.561 . S
C555 C552 1.526 . S
C555 C556 1.396 . S
C555 C560 1.390 . S
C556 C550 1.465 . S
C556 C555 1.396 . S
C556 C557 1.399 . S
C557 H543 0.929 . S
C557 C556 1.399 . S
C557 C558 1.385 . S
C558 H544 0.931 . S
C558 C557 1.385 . S
C558 C559 1.389 . S
C559 C558 1.389 . S
C559 C560 1.387 . S
C560 H545 0.930 . S
C560 C555 1.390 . S
C560 C559 1.387 . S
H561 C573 0.930 . S
H562 C575 0.930 . S
H563 C576 0.930 . S
H564 C580 0.959 . S
H565 C580 0.959 . S
H566 C580 0.961 . S
H567 C581 0.960 . S
H568 C581 0.961 . S
H569 C581 0.959 . S
H570 C584 0.929 . S
H571 C585 0.931 . S
H572 C587 0.930 . S
C573 H561 0.930 . S
C573 C574 1.399 . S
C573 C578 1.399 . S
C574 C573 1.399 . S
C574 C575 1.376 . S
C575 H562 0.930 . S
C575 C574 1.376 . S
C575 C576 1.388 . S
C576 H563 0.930 . S
C576 C575 1.388 . S
C576 C577 1.390 . S
C577 C576 1.390 . S
C577 C578 1.394 . S
C577 C583 1.465 . S
C578 C573 1.399 . S
C578 C577 1.394 . S
C578 C579 1.516 . S
C579 C578 1.516 . S
C579 C580 1.502 . S
C579 C581 1.561 . S
C579 C582 1.526 . S
C580 H564 0.959 . S
C580 H565 0.959 . S
C580 H566 0.961 . S
C580 C579 1.502 . S
C581 H567 0.960 . S
C581 H568 0.961 . S
C581 H569 0.959 . S
C581 C579 1.561 . S
C582 C579 1.526 . S
C582 C583 1.396 . S
C582 C587 1.390 . S
C583 C577 1.465 . S
C583 C582 1.396 . S
C583 C584 1.399 . S
C584 H570 0.929 . S
C584 C583 1.399 . S
C584 C585 1.385 . S
C585 H571 0.931 . S
C585 C584 1.385 . S
C585 C586 1.389 . S
C586 C585 1.389 . S
C586 C587 1.387 . S
C587 H572 0.930 . S
C587 C582 1.390 . S
C587 C586 1.387 . S
H588 C600 0.930 . S
H589 C602 0.930 . S
H590 C603 0.930 . S
H591 C607 0.959 . S
H592 C607 0.959 . S
H593 C607 0.961 . S
H594 C608 0.960 . S
H595 C608 0.961 . S
H596 C608 0.959 . S
H597 C611 0.929 . S
H598 C612 0.931 . S
H599 C614 0.930 . S
C600 H588 0.930 . S
C600 C601 1.399 . S
C600 C605 1.399 . S
C601 C600 1.399 . S
C601 C602 1.376 . S
C602 H589 0.930 . S
C602 C601 1.376 . S
C602 C603 1.388 . S
C603 H590 0.930 . S
C603 C602 1.388 . S
C603 C604 1.390 . S
C604 C603 1.390 . S
C604 C605 1.394 . S
C604 C610 1.465 . S
C605 C600 1.399 . S
C605 C604 1.394 . S
C605 C606 1.516 . S
C606 C605 1.516 . S
C606 C607 1.502 . S
C606 C608 1.561 . S
C606 C609 1.526 . S
C607 H591 0.959 . S
C607 H592 0.959 . S
C607 H593 0.961 . S
C607 C606 1.502 . S
C608 H594 0.960 . S
C608 H595 0.961 . S
C608 H596 0.959 . S
C608 C606 1.561 . S
C609 C606 1.526 . S
C609 C610 1.396 . S
C609 C614 1.390 . S
C610 C604 1.465 . S
C610 C609 1.396 . S
C610 C611 1.399 . S
C611 H597 0.929 . S
C611 C610 1.399 . S
C611 C612 1.385 . S
C612 H598 0.931 . S
C612 C611 1.385 . S
C612 C613 1.389 . S
C613 C612 1.389 . S
C613 C614 1.387 . S
C614 H599 0.930 . S
C614 C609 1.390 . S
C614 C613 1.387 . S
H615 C627 0.930 . S
H616 C629 0.930 . S
H617 C630 0.930 . S
H618 C634 0.959 . S
H619 C634 0.959 . S
H620 C634 0.961 . S
H621 C635 0.960 . S
H622 C635 0.961 . S
H623 C635 0.959 . S
H624 C638 0.929 . S
H625 C639 0.931 . S
H626 C641 0.930 . S
C627 H615 0.930 . S
C627 C628 1.399 . S
C627 C632 1.399 . S
C628 C627 1.399 . S
C628 C629 1.376 . S
C629 H616 0.930 . S
C629 C628 1.376 . S
C629 C630 1.388 . S
C630 H617 0.930 . S
C630 C629 1.388 . S
C630 C631 1.390 . S
C631 C630 1.390 . S
C631 C632 1.394 . S
C631 C637 1.465 . S
C632 C627 1.399 . S
C632 C631 1.394 . S
C632 C633 1.516 . S
C633 C632 1.516 . S
C633 C634 1.502 . S
C633 C635 1.561 . S
C633 C636 1.526 . S
C634 H618 0.959 . S
C634 H619 0.959 . S
C634 H620 0.961 . S
C634 C633 1.502 . S
C635 H621 0.960 . S
C635 H622 0.961 . S
C635 H623 0.959 . S
C635 C633 1.561 . S
C636 C633 1.526 . S
C636 C637 1.396 . S
C636 C641 1.390 . S
C637 C631 1.465 . S
C637 C636 1.396 . S
C637 C638 1.399 . S
C638 H624 0.929 . S
C638 C637 1.399 . S
C638 C639 1.385 . S
C639 H625 0.931 . S
C639 C638 1.385 . S
C639 C640 1.389 . S
C640 C639 1.389 . S
C640 C641 1.387 . S
C641 H626 0.930 . S
C641 C636 1.390 . S
C641 C640 1.387 . S
H642 C654 0.930 . S
H643 C656 0.930 . S
H644 C657 0.930 . S
H645 C661 0.959 . S
H646 C661 0.959 . S
H647 C661 0.961 . S
H648 C662 0.960 . S
H649 C662 0.961 . S
H650 C662 0.959 . S
H651 C665 0.929 . S
H652 C666 0.931 . S
H653 C668 0.930 . S
C654 H642 0.930 . S
C654 C655 1.399 . S
C654 C659 1.399 . S
C655 C654 1.399 . S
C655 C656 1.376 . S
C656 H643 0.930 . S
C656 C655 1.376 . S
C656 C657 1.388 . S
C657 H644 0.930 . S
C657 C656 1.388 . S
C657 C658 1.390 . S
C658 C657 1.390 . S
C658 C659 1.394 . S
C658 C664 1.465 . S
C659 C654 1.399 . S
C659 C658 1.394 . S
C659 C660 1.516 . S
C660 C659 1.516 . S
C660 C661 1.502 . S
C660 C662 1.561 . S
C660 C663 1.526 . S
C661 H645 0.959 . S
C661 H646 0.959 . S
C661 H647 0.961 . S
C661 C660 1.502 . S
C662 H648 0.960 . S
C662 H649 0.961 . S
C662 H650 0.959 . S
C662 C660 1.561 . S
C663 C660 1.526 . S
C663 C664 1.396 . S
C663 C668 1.390 . S
C664 C658 1.465 . S
C664 C663 1.396 . S
C664 C665 1.399 . S
C665 H651 0.929 . S
C665 C664 1.399 . S
C665 C666 1.385 . S
C666 H652 0.931 . S
C666 C665 1.385 . S
C666 C667 1.389 . S
C667 C666 1.389 . S
C667 C668 1.387 . S
C668 H653 0.930 . S
C668 C663 1.390 . S
C668 C667 1.387 . S
H669 C681 0.930 . S
H670 C683 0.930 . S
H671 C684 0.930 . S
H672 C688 0.959 . S
H673 C688 0.959 . S
H674 C688 0.961 . S
H675 C689 0.960 . S
H676 C689 0.961 . S
H677 C689 0.959 . S
H678 C692 0.929 . S
H679 C693 0.931 . S
H680 C695 0.930 . S
C681 H669 0.930 . S
C681 C682 1.399 . S
C681 C686 1.399 . S
C682 C681 1.399 . S
C682 C683 1.376 . S
C683 H670 0.930 . S
C683 C682 1.376 . S
C683 C684 1.388 . S
C684 H671 0.930 . S
C684 C683 1.388 . S
C684 C685 1.390 . S
C685 C684 1.390 . S
C685 C686 1.394 . S
C685 C691 1.465 . S
C686 C681 1.399 . S
C686 C685 1.394 . S
C686 C687 1.516 . S
C687 C686 1.516 . S
C687 C688 1.502 . S
C687 C689 1.561 . S
C687 C690 1.526 . S
C688 H672 0.959 . S
C688 H673 0.959 . S
C688 H674 0.961 . S
C688 C687 1.502 . S
C689 H675 0.960 . S
C689 H676 0.961 . S
C689 H677 0.959 . S
C689 C687 1.561 . S
C690 C687 1.526 . S
C690 C691 1.396 . S
C690 C695 1.390 . S
C691 C685 1.465 . S
C691 C690 1.396 . S
C691 C692 1.399 . S
C692 H678 0.929 . S
C692 C691 1.399 . S
C692 C693 1.385 . S
C693 H679 0.931 . S
C693 C692 1.385 . S
C693 C694 1.389 . S
C694 C693 1.389 . S
C694 C695 1.387 . S
C695 H680 0.930 . S
C695 C690 1.390 . S
C695 C694 1.387 . S
H696 C708 0.930 . S
H697 C710 0.930 . S
H698 C711 0.930 . S
H699 C715 0.959 . S
H700 C715 0.959 . S
H701 C715 0.961 . S
H702 C716 0.960 . S
H703 C716 0.961 . S
H704 C716 0.959 . S
H705 C719 0.929 . S
H706 C720 0.931 . S
H707 C722 0.930 . S
C708 H696 0.930 . S
C708 C709 1.399 . S
C708 C713 1.399 . S
C709 C708 1.399 . S
C709 C710 1.376 . S
C710 H697 0.930 . S
C710 C709 1.376 . S
C710 C711 1.388 . S
C711 H698 0.930 . S
C711 C710 1.388 . S
C711 C712 1.390 . S
C712 C711 1.390 . S
C712 C713 1.394 . S
C712 C718 1.465 . S
C713 C708 1.399 . S
C713 C712 1.394 . S
C713 C714 1.516 . S
C714 C713 1.516 . S
C714 C715 1.502 . S
C714 C716 1.561 . S
C714 C717 1.526 . S
C715 H699 0.959 . S
C715 H700 0.959 . S
C715 H701 0.961 . S
C715 C714 1.502 . S
C716 H702 0.960 . S
C716 H703 0.961 . S
C716 H704 0.959 . S
C716 C714 1.561 . S
C717 C714 1.526 . S
C717 C718 1.396 . S
C717 C722 1.390 . S
C718 C712 1.465 . S
C718 C717 1.396 . S
C718 C719 1.399 . S
C719 H705 0.929 . S
C719 C718 1.399 . S
C719 C720 1.385 . S
C720 H706 0.931 . S
C720 C719 1.385 . S
C720 C721 1.389 . S
C721 C720 1.389 . S
C721 C722 1.387 . S
C722 H707 0.930 . S
C722 C717 1.390 . S
C722 C721 1.387 . S
H723 C735 0.930 . S
H724 C737 0.930 . S
H725 C738 0.930 . S
H726 C742 0.959 . S
H727 C742 0.959 . S
H728 C742 0.961 . S
H729 C743 0.960 . S
H730 C743 0.961 . S
H731 C743 0.959 . S
H732 C746 0.929 . S
H733 C747 0.931 . S
H734 C749 0.930 . S
C735 H723 0.930 . S
C735 C736 1.399 . S
C735 C740 1.399 . S
C736 C735 1.399 . S
C736 C737 1.376 . S
C737 H724 0.930 . S
C737 C736 1.376 . S
C737 C738 1.388 . S
C738 H725 0.930 . S
C738 C737 1.388 . S
C738 C739 1.390 . S
C739 C738 1.390 . S
C739 C740 1.394 . S
C739 C745 1.465 . S
C740 C735 1.399 . S
C740 C739 1.394 . S
C740 C741 1.516 . S
C741 C740 1.516 . S
C741 C742 1.502 . S
C741 C743 1.561 . S
C741 C744 1.526 . S
C742 H726 0.959 . S
C742 H727 0.959 . S
C742 H728 0.961 . S
C742 C741 1.502 . S
C743 H729 0.960 . S
C743 H730 0.961 . S
C743 H731 0.959 . S
C743 C741 1.561 . S
C744 C741 1.526 . S
C744 C745 1.396 . S
C744 C749 1.390 . S
C745 C739 1.465 . S
C745 C744 1.396 . S
C745 C746 1.399 . S
C746 H732 0.929 . S
C746 C745 1.399 . S
C746 C747 1.385 . S
C747 H733 0.931 . S
C747 C746 1.385 . S
C747 C748 1.389 . S
C748 C747 1.389 . S
C748 C749 1.387 . S
C749 H734 0.930 . S
C749 C744 1.390 . S
C749 C748 1.387 . S
H750 C762 0.930 . S
H751 C764 0.930 . S
H752 C765 0.930 . S
H753 C769 0.959 . S
H754 C769 0.959 . S
H755 C769 0.961 . S
H756 C770 0.960 . S
H757 C770 0.961 . S
H758 C770 0.959 . S
H759 C773 0.929 . S
H760 C774 0.931 . S
H761 C776 0.930 . S
C762 H750 0.930 . S
C762 C763 1.399 . S
C762 C767 1.399 . S
C763 C762 1.399 . S
C763 C764 1.376 . S
C764 H751 0.930 . S
C764 C763 1.376 . S
C764 C765 1.388 . S
C765 H752 0.930 . S
C765 C764 1.388 . S
C765 C766 1.390 . S
C766 C765 1.390 . S
C766 C767 1.394 . S
C766 C772 1.465 . S
C767 C762 1.399 . S
C767 C766 1.394 . S
C767 C768 1.516 . S
C768 C767 1.516 . S
C768 C769 1.502 . S
C768 C770 1.561 . S
C768 C771 1.526 . S
C769 H753 0.959 . S
C769 H754 0.959 . S
C769 H755 0.961 . S
C769 C768 1.502 . S
C770 H756 0.960 . S
C770 H757 0.961 . S
C770 H758 0.959 . S
C770 C768 1.561 . S
C771 C768 1.526 . S
C771 C772 1.396 . S
C771 C776 1.390 . S
C772 C766 1.465 . S
C772 C771 1.396 . S
C772 C773 1.399 . S
C773 H759 0.929 . S
C773 C772 1.399 . S
C773 C774 1.385 . S
C774 H760 0.931 . S
C774 C773 1.385 . S
C774 C775 1.389 . S
C775 C774 1.389 . S
C775 C776 1.387 . S
C776 H761 0.930 . S
C776 C771 1.390 . S
C776 C775 1.387 . S
H777 C789 0.930 . S
H778 C791 0.930 . S
H779 C792 0.930 . S
H780 C796 0.959 . S
H781 C796 0.959 . S
H782 C796 0.961 . S
H783 C797 0.960 . S
H784 C797 0.961 . S
H785 C797 0.959 . S
H786 C800 0.929 . S
H787 C801 0.931 . S
H788 C803 0.930 . S
C789 H777 0.930 . S
C789 C790 1.399 . S
C789 C794 1.399 . S
C790 C789 1.399 . S
C790 C791 1.376 . S
C791 H778 0.930 . S
C791 C790 1.376 . S
C791 C792 1.388 . S
C792 H779 0.930 . S
C792 C791 1.388 . S
C792 C793 1.390 . S
C793 C792 1.390 . S
C793 C794 1.394 . S
C793 C799 1.465 . S
C794 C789 1.399 . S
C794 C793 1.394 . S
C794 C795 1.516 . S
C795 C794 1.516 . S
C795 C796 1.502 . S
C795 C797 1.561 . S
C795 C798 1.526 . S
C796 H780 0.959 . S
C796 H781 0.959 . S
C796 H782 0.961 . S
C796 C795 1.502 . S
C797 H783 0.960 . S
C797 H784 0.961 . S
C797 H785 0.959 . S
C797 C795 1.561 . S
C798 C795 1.526 . S
C798 C799 1.396 . S
C798 C803 1.390 . S
C799 C793 1.465 . S
C799 C798 1.396 . S
C799 C800 1.399 . S
C800 H786 0.929 . S
C800 C799 1.399 . S
C800 C801 1.385 . S
C801 H787 0.931 . S
C801 C800 1.385 . S
C801 C802 1.389 . S
C802 C801 1.389 . S
C802 C803 1.387 . S
C803 H788 0.930 . S
C803 C798 1.390 . S
C803 C802 1.387 . S
H804 C816 0.930 . S
H805 C818 0.930 . S
H806 C819 0.930 . S
H807 C823 0.959 . S
H808 C823 0.959 . S
H809 C823 0.961 . S
H810 C824 0.960 . S
H811 C824 0.961 . S
H812 C824 0.959 . S
H813 C827 0.929 . S
H814 C828 0.931 . S
H815 C830 0.930 . S
C816 H804 0.930 . S
C816 C817 1.399 . S
C816 C821 1.399 . S
C817 C816 1.399 . S
C817 C818 1.376 . S
C818 H805 0.930 . S
C818 C817 1.376 . S
C818 C819 1.388 . S
C819 H806 0.930 . S
C819 C818 1.388 . S
C819 C820 1.390 . S
C820 C819 1.390 . S
C820 C821 1.394 . S
C820 C826 1.465 . S
C821 C816 1.399 . S
C821 C820 1.394 . S
C821 C822 1.516 . S
C822 C821 1.516 . S
C822 C823 1.502 . S
C822 C824 1.561 . S
C822 C825 1.526 . S
C823 H807 0.959 . S
C823 H808 0.959 . S
C823 H809 0.961 . S
C823 C822 1.502 . S
C824 H810 0.960 . S
C824 H811 0.961 . S
C824 H812 0.959 . S
C824 C822 1.561 . S
C825 C822 1.526 . S
C825 C826 1.396 . S
C825 C830 1.390 . S
C826 C820 1.465 . S
C826 C825 1.396 . S
C826 C827 1.399 . S
C827 H813 0.929 . S
C827 C826 1.399 . S
C827 C828 1.385 . S
C828 H814 0.931 . S
C828 C827 1.385 . S
C828 C829 1.389 . S
C829 C828 1.389 . S
C829 C830 1.387 . S
C830 H815 0.930 . S
C830 C825 1.390 . S
C830 C829 1.387 . S
H831 C843 0.930 . S
H832 C845 0.930 . S
H833 C846 0.930 . S
H834 C850 0.959 . S
H835 C850 0.959 . S
H836 C850 0.961 . S
H837 C851 0.960 . S
H838 C851 0.961 . S
H839 C851 0.959 . S
H840 C854 0.929 . S
H841 C855 0.931 . S
H842 C857 0.930 . S
C843 H831 0.930 . S
C843 C844 1.399 . S
C843 C848 1.399 . S
C844 C843 1.399 . S
C844 C845 1.376 . S
C845 H832 0.930 . S
C845 C844 1.376 . S
C845 C846 1.388 . S
C846 H833 0.930 . S
C846 C845 1.388 . S
C846 C847 1.390 . S
C847 C846 1.390 . S
C847 C848 1.394 . S
C847 C853 1.465 . S
C848 C843 1.399 . S
C848 C847 1.394 . S
C848 C849 1.516 . S
C849 C848 1.516 . S
C849 C850 1.502 . S
C849 C851 1.561 . S
C849 C852 1.526 . S
C850 H834 0.959 . S
C850 H835 0.959 . S
C850 H836 0.961 . S
C850 C849 1.502 . S
C851 H837 0.960 . S
C851 H838 0.961 . S
C851 H839 0.959 . S
C851 C849 1.561 . S
C852 C849 1.526 . S
C852 C853 1.396 . S
C852 C857 1.390 . S
C853 C847 1.465 . S
C853 C852 1.396 . S
C853 C854 1.399 . S
C854 H840 0.929 . S
C854 C853 1.399 . S
C854 C855 1.385 . S
C855 H841 0.931 . S
C855 C854 1.385 . S
C855 C856 1.389 . S
C856 C855 1.389 . S
C856 C857 1.387 . S
C857 H842 0.930 . S
C857 C852 1.390 . S
C857 C856 1.387 . S
H858 C870 0.930 . S
H859 C872 0.930 . S
H860 C873 0.930 . S
H861 C877 0.959 . S
H862 C877 0.959 . S
H863 C877 0.961 . S
H864 C878 0.960 . S
H865 C878 0.961 . S
H866 C878 0.959 . S
H867 C881 0.929 . S
H868 C882 0.931 . S
H869 C884 0.930 . S
C870 H858 0.930 . S
C870 C871 1.399 . S
C870 C875 1.399 . S
C871 C870 1.399 . S
C871 C872 1.376 . S
C872 H859 0.930 . S
C872 C871 1.376 . S
C872 C873 1.388 . S
C873 H860 0.930 . S
C873 C872 1.388 . S
C873 C874 1.390 . S
C874 C873 1.390 . S
C874 C875 1.394 . S
C874 C880 1.465 . S
C875 C870 1.399 . S
C875 C874 1.394 . S
C875 C876 1.516 . S
C876 C875 1.516 . S
C876 C877 1.502 . S
C876 C878 1.561 . S
C876 C879 1.526 . S
C877 H861 0.959 . S
C877 H862 0.959 . S
C877 H863 0.961 . S
C877 C876 1.502 . S
C878 H864 0.960 . S
C878 H865 0.961 . S
C878 H866 0.959 . S
C878 C876 1.561 . S
C879 C876 1.526 . S
C879 C880 1.396 . S
C879 C884 1.390 . S
C880 C874 1.465 . S
C880 C879 1.396 . S
C880 C881 1.399 . S
C881 H867 0.929 . S
C881 C880 1.399 . S
C881 C882 1.385 . S
C882 H868 0.931 . S
C882 C881 1.385 . S
C882 C883 1.389 . S
C883 C882 1.389 . S
C883 C884 1.387 . S
C884 H869 0.930 . S
C884 C879 1.390 . S
C884 C883 1.387 . S
H885 C897 0.930 . S
H886 C899 0.930 . S
H887 C900 0.930 . S
H888 C904 0.959 . S
H889 C904 0.959 . S
H890 C904 0.961 . S
H891 C905 0.960 . S
H892 C905 0.961 . S
H893 C905 0.959 . S
H894 C908 0.929 . S
H895 C909 0.931 . S
H896 C911 0.930 . S
C897 H885 0.930 . S
C897 C898 1.399 . S
C897 C902 1.399 . S
C898 C897 1.399 . S
C898 C899 1.376 . S
C899 H886 0.930 . S
C899 C898 1.376 . S
C899 C900 1.388 . S
C900 H887 0.930 . S
C900 C899 1.388 . S
C900 C901 1.390 . S
C901 C900 1.390 . S
C901 C902 1.394 . S
C901 C907 1.465 . S
C902 C897 1.399 . S
C902 C901 1.394 . S
C902 C903 1.516 . S
C903 C902 1.516 . S
C903 C904 1.502 . S
C903 C905 1.561 . S
C903 C906 1.526 . S
C904 H888 0.959 . S
C904 H889 0.959 . S
C904 H890 0.961 . S
C904 C903 1.502 . S
C905 H891 0.960 . S
C905 H892 0.961 . S
C905 H893 0.959 . S
C905 C903 1.561 . S
C906 C903 1.526 . S
C906 C907 1.396 . S
C906 C911 1.390 . S
C907 C901 1.465 . S
C907 C906 1.396 . S
C907 C908 1.399 . S
C908 H894 0.929 . S
C908 C907 1.399 . S
C908 C909 1.385 . S
C909 H895 0.931 . S
C909 C908 1.385 . S
C909 C910 1.389 . S
C910 C909 1.389 . S
C910 C911 1.387 . S
C911 H896 0.930 . S
C911 C906 1.390 . S
C911 C910 1.387 . S
H912 C924 0.930 . S
H913 C926 0.930 . S
H914 C927 0.930 . S
H915 C931 0.959 . S
H916 C931 0.959 . S
H917 C931 0.961 . S
H918 C932 0.960 . S
H919 C932 0.961 . S
H920 C932 0.959 . S
H921 C935 0.929 . S
H922 C936 0.931 . S
H923 C938 0.930 . S
C924 H912 0.930 . S
C924 C925 1.399 . S
C924 C929 1.399 . S
C925 C924 1.399 . S
C925 C926 1.376 . S
C926 H913 0.930 . S
C926 C925 1.376 . S
C926 C927 1.388 . S
C927 H914 0.930 . S
C927 C926 1.388 . S
C927 C928 1.390 . S
C928 C927 1.390 . S
C928 C929 1.394 . S
C928 C934 1.465 . S
C929 C924 1.399 . S
C929 C928 1.394 . S
C929 C930 1.516 . S
C930 C929 1.516 . S
C930 C931 1.502 . S
C930 C932 1.561 . S
C930 C933 1.526 . S
C931 H915 0.959 . S
C931 H916 0.959 . S
C931 H917 0.961 . S
C931 C930 1.502 . S
C932 H918 0.960 . S
C932 H919 0.961 . S
C932 H920 0.959 . S
C932 C930 1.561 . S
C933 C930 1.526 . S
C933 C934 1.396 . S
C933 C938 1.390 . S
C934 C928 1.465 . S
C934 C933 1.396 . S
C934 C935 1.399 . S
C935 H921 0.929 . S
C935 C934 1.399 . S
C935 C936 1.385 . S
C936 H922 0.931 . S
C936 C935 1.385 . S
C936 C937 1.389 . S
C937 C936 1.389 . S
C937 C938 1.387 . S
C938 H923 0.930 . S
C938 C933 1.390 . S
C938 C937 1.387 . S
H939 C951 0.930 . S
H940 C953 0.930 . S
H941 C954 0.930 . S
H942 C958 0.959 . S
H943 C958 0.959 . S
H944 C958 0.961 . S
H945 C959 0.960 . S
H946 C959 0.961 . S
H947 C959 0.959 . S
H948 C962 0.929 . S
H949 C963 0.931 . S
H950 C965 0.930 . S
C951 H939 0.930 . S
C951 C952 1.399 . S
C951 C956 1.399 . S
C952 C951 1.399 . S
C952 C953 1.376 . S
C953 H940 0.930 . S
C953 C952 1.376 . S
C953 C954 1.388 . S
C954 H941 0.930 . S
C954 C953 1.388 . S
C954 C955 1.390 . S
C955 C954 1.390 . S
C955 C956 1.394 . S
C955 C961 1.465 . S
C956 C951 1.399 . S
C956 C955 1.394 . S
C956 C957 1.516 . S
C957 C956 1.516 . S
C957 C958 1.502 . S
C957 C959 1.561 . S
C957 C960 1.526 . S
C958 H942 0.959 . S
C958 H943 0.959 . S
C958 H944 0.961 . S
C958 C957 1.502 . S
C959 H945 0.960 . S
C959 H946 0.961 . S
C959 H947 0.959 . S
C959 C957 1.561 . S
C960 C957 1.526 . S
C960 C961 1.396 . S
C960 C965 1.390 . S
C961 C955 1.465 . S
C961 C960 1.396 . S
C961 C962 1.399 . S
C962 H948 0.929 . S
C962 C961 1.399 . S
C962 C963 1.385 . S
C963 H949 0.931 . S
C963 C962 1.385 . S
C963 C964 1.389 . S
C964 C963 1.389 . S
C964 C965 1.387 . S
C965 H950 0.930 . S
C965 C960 1.390 . S
C965 C964 1.387 . S
H966 C978 0.930 . S
H967 C980 0.930 . S
H968 C981 0.930 . S
H969 C985 0.959 . S
H970 C985 0.959 . S
H971 C985 0.961 . S
H972 C986 0.960 . S
H973 C986 0.961 . S
H974 C986 0.959 . S
H975 C989 0.929 . S
H976 C990 0.931 . S
H977 C992 0.930 . S
C978 H966 0.930 . S
C978 C979 1.399 . S
C978 C983 1.399 . S
C979 C978 1.399 . S
C979 C980 1.376 . S
C980 H967 0.930 . S
C980 C979 1.376 . S
C980 C981 1.388 . S
C981 H968 0.930 . S
C981 C980 1.388 . S
C981 C982 1.390 . S
C982 C981 1.390 . S
C982 C983 1.394 . S
C982 C988 1.465 . S
C983 C978 1.399 . S
C983 C982 1.394 . S
C983 C984 1.516 . S
C984 C983 1.516 . S
C984 C985 1.502 . S
C984 C986 1.561 . S
C984 C987 1.526 . S
C985 H969 0.959 . S
C985 H970 0.959 . S
C985 H971 0.961 . S
C985 C984 1.502 . S
C986 H972 0.960 . S
C986 H973 0.961 . S
C986 H974 0.959 . S
C986 C984 1.561 . S
C987 C984 1.526 . S
C987 C988 1.396 . S
C987 C992 1.390 . S
C988 C982 1.465 . S
C988 C987 1.396 . S
C988 C989 1.399 . S
C989 H975 0.929 . S
C989 C988 1.399 . S
C989 C990 1.385 . S
C990 H976 0.931 . S
C990 C989 1.385 . S
C990 C991 1.389 . S
C991 C990 1.389 . S
C991 C992 1.387 . S
C992 H977 0.930 . S
C992 C987 1.390 . S
C992 C991 1.387 . S
H993 C1005 0.930 . S
H994 C1007 0.930 . S
H995 C1008 0.930 . S
H996 C1012 0.959 . S
H997 C1012 0.959 . S
H998 C1012 0.961 . S
H999 C1013 0.960 . S
H1000 C1013 0.961 . S
H1001 C1013 0.959 . S
H1002 C1016 0.929 . S
H1003 C1017 0.931 . S
H1004 C1019 0.930 . S
C1005 H993 0.930 . S
C1005 C1006 1.399 . S
C1005 C1010 1.399 . S
C1006 C1005 1.399 . S
C1006 C1007 1.376 . S
C1007 H994 0.930 . S
C1007 C1006 1.376 . S
C1007 C1008 1.388 . S
C1008 H995 0.930 . S
C1008 C1007 1.388 . S
C1008 C1009 1.390 . S
C1009 C1008 1.390 . S
C1009 C1010 1.394 . S
C1009 C1015 1.465 . S
C1010 C1005 1.399 . S
C1010 C1009 1.394 . S
C1010 C1011 1.516 . S
C1011 C1010 1.516 . S
C1011 C1012 1.502 . S
C1011 C1013 1.561 . S
C1011 C1014 1.526 . S
C1012 H996 0.959 . S
C1012 H997 0.959 . S
C1012 H998 0.961 . S
C1012 C1011 1.502 . S
C1013 H999 0.960 . S
C1013 H1000 0.961 . S
C1013 H1001 0.959 . S
C1013 C1011 1.561 . S
C1014 C1011 1.526 . S
C1014 C1015 1.396 . S
C1014 C1019 1.390 . S
C1015 C1009 1.465 . S
C1015 C1014 1.396 . S
C1015 C1016 1.399 . S
C1016 H1002 0.929 . S
C1016 C1015 1.399 . S
C1016 C1017 1.385 . S
C1017 H1003 0.931 . S
C1017 C1016 1.385 . S
C1017 C1018 1.389 . S
C1018 C1017 1.389 . S
C1018 C1019 1.387 . S
C1019 H1004 0.930 . S
C1019 C1014 1.390 . S
C1019 C1018 1.387 . S
H1020 C1032 0.930 . S
H1021 C1034 0.930 . S
H1022 C1035 0.930 . S
H1023 C1039 0.959 . S
H1024 C1039 0.959 . S
H1025 C1039 0.961 . S
H1026 C1040 0.960 . S
H1027 C1040 0.961 . S
H1028 C1040 0.959 . S
H1029 C1043 0.929 . S
H1030 C1044 0.931 . S
H1031 C1046 0.930 . S
C1032 H1020 0.930 . S
C1032 C1033 1.399 . S
C1032 C1037 1.399 . S
C1033 C1032 1.399 . S
C1033 C1034 1.376 . S
C1034 H1021 0.930 . S
C1034 C1033 1.376 . S
C1034 C1035 1.388 . S
C1035 H1022 0.930 . S
C1035 C1034 1.388 . S
C1035 C1036 1.390 . S
C1036 C1035 1.390 . S
C1036 C1037 1.394 . S
C1036 C1042 1.465 . S
C1037 C1032 1.399 . S
C1037 C1036 1.394 . S
C1037 C1038 1.516 . S
C1038 C1037 1.516 . S
C1038 C1039 1.502 . S
C1038 C1040 1.561 . S
C1038 C1041 1.526 . S
C1039 H1023 0.959 . S
C1039 H1024 0.959 . S
C1039 H1025 0.961 . S
C1039 C1038 1.502 . S
C1040 H1026 0.960 . S
C1040 H1027 0.961 . S
C1040 H1028 0.959 . S
C1040 C1038 1.561 . S
C1041 C1038 1.526 . S
C1041 C1042 1.396 . S
C1041 C1046 1.390 . S
C1042 C1036 1.465 . S
C1042 C1041 1.396 . S
C1042 C1043 1.399 . S
C1043 H1029 0.929 . S
C1043 C1042 1.399 . S
C1043 C1044 1.385 . S
C1044 H1030 0.931 . S
C1044 C1043 1.385 . S
C1044 C1045 1.389 . S
C1045 C1044 1.389 . S
C1045 C1046 1.387 . S
C1046 H1031 0.930 . S
C1046 C1041 1.390 . S
C1046 C1045 1.387 . S
H1047 C1059 0.930 . S
H1048 C1061 0.930 . S
H1049 C1062 0.930 . S
H1050 C1066 0.959 . S
H1051 C1066 0.959 . S
H1052 C1066 0.961 . S
H1053 C1067 0.960 . S
H1054 C1067 0.961 . S
H1055 C1067 0.959 . S
H1056 C1070 0.929 . S
H1057 C1071 0.931 . S
H1058 C1073 0.930 . S
C1059 H1047 0.930 . S
C1059 C1060 1.399 . S
C1059 C1064 1.399 . S
C1060 C1059 1.399 . S
C1060 C1061 1.376 . S
C1061 H1048 0.930 . S
C1061 C1060 1.376 . S
C1061 C1062 1.388 . S
C1062 H1049 0.930 . S
C1062 C1061 1.388 . S
C1062 C1063 1.390 . S
C1063 C1062 1.390 . S
C1063 C1064 1.394 . S
C1063 C1069 1.465 . S
C1064 C1059 1.399 . S
C1064 C1063 1.394 . S
C1064 C1065 1.516 . S
C1065 C1064 1.516 . S
C1065 C1066 1.502 . S
C1065 C1067 1.561 . S
C1065 C1068 1.526 . S
C1066 H1050 0.959 . S
C1066 H1051 0.959 . S
C1066 H1052 0.961 . S
C1066 C1065 1.502 . S
C1067 H1053 0.960 . S
C1067 H1054 0.961 . S
C1067 H1055 0.959 . S
C1067 C1065 1.561 . S
C1068 C1065 1.526 . S
C1068 C1069 1.396 . S
C1068 C1073 1.390 . S
C1069 C1063 1.465 . S
C1069 C1068 1.396 . S
C1069 C1070 1.399 . S
C1070 H1056 0.929 . S
C1070 C1069 1.399 . S
C1070 C1071 1.385 . S
C1071 H1057 0.931 . S
C1071 C1070 1.385 . S
C1071 C1072 1.389 . S
C1072 C1071 1.389 . S
C1072 C1073 1.387 . S
C1073 H1058 0.930 . S
C1073 C1068 1.390 . S
C1073 C1072 1.387 . S
H1074 C1086 0.930 . S
H1075 C1088 0.930 . S
H1076 C1089 0.930 . S
H1077 C1093 0.959 . S
H1078 C1093 0.959 . S
H1079 C1093 0.961 . S
H1080 C1094 0.960 . S
H1081 C1094 0.961 . S
H1082 C1094 0.959 . S
H1083 C1097 0.929 . S
H1084 C1098 0.931 . S
H1085 C1100 0.930 . S
C1086 H1074 0.930 . S
C1086 C1087 1.399 . S
C1086 C1091 1.399 . S
C1087 C1086 1.399 . S
C1087 C1088 1.376 . S
C1088 H1075 0.930 . S
C1088 C1087 1.376 . S
C1088 C1089 1.388 . S
C1089 H1076 0.930 . S
C1089 C1088 1.388 . S
C1089 C1090 1.390 . S
C1090 C1089 1.390 . S
C1090 C1091 1.394 . S
C1090 C1096 1.465 . S
C1091 C1086 1.399 . S
C1091 C1090 1.394 . S
C1091 C1092 1.516 . S
C1092 C1091 1.516 . S
C1092 C1093 1.502 . S
C1092 C1094 1.561 . S
C1092 C1095 1.526 . S
C1093 H1077 0.959 . S
C1093 H1078 0.959 . S
C1093 H1079 0.961 . S
C1093 C1092 1.502 . S
C1094 H1080 0.960 . S
C1094 H1081 0.961 . S
C1094 H1082 0.959 . S
C1094 C1092 1.561 . S
C1095 C1092 1.526 . S
C1095 C1096 1.396 . S
C1095 C1100 1.390 . S
C1096 C1090 1.465 . S
C1096 C1095 1.396 . S
C1096 C1097 1.399 . S
C1097 H1083 0.929 . S
C1097 C1096 1.399 . S
C1097 C1098 1.385 . S
C1098 H1084 0.931 . S
C1098 C1097 1.385 . S
C1098 C1099 1.389 . S
C1099 C1098 1.389 . S
C1099 C1100 1.387 . S
C1100 H1085 0.930 . S
C1100 C1095 1.390 . S
C1100 C1099 1.387 . S
H1101 C1113 0.930 . S
H1102 C1115 0.930 . S
H1103 C1116 0.930 . S
H1104 C1120 0.959 . S
H1105 C1120 0.959 . S
H1106 C1120 0.961 . S
H1107 C1121 0.960 . S
H1108 C1121 0.961 . S
H1109 C1121 0.959 . S
H1110 C1124 0.929 . S
H1111 C1125 0.931 . S
H1112 C1127 0.930 . S
C1113 H1101 0.930 . S
C1113 C1114 1.399 . S
C1113 C1118 1.399 . S
C1114 C1113 1.399 . S
C1114 C1115 1.376 . S
C1115 H1102 0.930 . S
C1115 C1114 1.376 . S
C1115 C1116 1.388 . S
C1116 H1103 0.930 . S
C1116 C1115 1.388 . S
C1116 C1117 1.390 . S
C1117 C1116 1.390 . S
C1117 C1118 1.394 . S
C1117 C1123 1.465 . S
C1118 C1113 1.399 . S
C1118 C1117 1.394 . S
C1118 C1119 1.516 . S
C1119 C1118 1.516 . S
C1119 C1120 1.502 . S
C1119 C1121 1.561 . S
C1119 C1122 1.526 . S
C1120 H1104 0.959 . S
C1120 H1105 0.959 . S
C1120 H1106 0.961 . S
C1120 C1119 1.502 . S
C1121 H1107 0.960 . S
C1121 H1108 0.961 . S
C1121 H1109 0.959 . S
C1121 C1119 1.561 . S
C1122 C1119 1.526 . S
C1122 C1123 1.396 . S
C1122 C1127 1.390 . S
C1123 C1117 1.465 . S
C1123 C1122 1.396 . S
C1123 C1124 1.399 . S
C1124 H1110 0.929 . S
C1124 C1123 1.399 . S
C1124 C1125 1.385 . S
C1125 H1111 0.931 . S
C1125 C1124 1.385 . S
C1125 C1126 1.389 . S
C1126 C1125 1.389 . S
C1126 C1127 1.387 . S
C1127 H1112 0.930 . S
C1127 C1122 1.390 . S
C1127 C1126 1.387 . S
C493 C21 0.986 . S
C505 C335 1.137 . S
C520 C61 1.730 . S
C532 C379 1.686 . S
C559 C409 2.082 . S
C547 C82 2.026 . S
C574 C135 2.797 . S
C586 C450 2.765 . S
C613 C366 0.819 . S
C601 C15 0.803 . S
C640 C330 2.650 . S
C628 C42 2.644 . S
C667 C458 1.169 . S
C655 C101 1.106 . S
C694 C419 2.262 . S
C682 C122 2.244 . S
C709 C2 0.882 . S
C721 C455 1.089 . S
C748 C369 1.984 . S
C736 C95 2.033 . S
C763 C141 2.105 . S
C775 C338 2.111 . S
C790 C55 1.990 . S
C802 C406 1.965 . S
C829 C326 1.166 . S
C817 C181 1.105 . S
C844 C202 1.687 . S
C856 C370 1.672 . S
C871 C255 2.121 . S
C883 C418 2.137 . S
C898 C295 2.781 . S
C910 C459 2.757 . S
C925 C175 0.786 . S
C937 C375 0.751 . S
C964 C339 2.663 . S
C952 C221 2.640 . S
C991 C449 1.141 . S
C979 C242 1.116 . S
C1018 C410 2.269 . S
C1006 C301 2.290 . S
C1033 C162 1.091 . S
C1045 C446 0.987 . S
C1072 C378 2.016 . S
C1060 C261 2.065 . S
C1099 C329 2.076 . S
C1087 C282 2.092 . S
C1114 C215 1.991 . S
C1126 C415 1.987 . S
