# Generated by pormake.
# Topology gar, (4,6)-cn, num edge types: 1
# Building blocks:
#     Node 0, Type 0, BuildingBlock: QUQFOY_clean_sbu_3, # of connection points: 4
#     Node 1, Type 0, BuildingBlock: QUQFOY_clean_sbu_3, # of connection points: 4
#     Node 2, Type 0, BuildingBlock: QUQFOY_clean_sbu_3, # of connection points: 4
#     Node 3, Type 0, BuildingBlock: QUQFOY_clean_sbu_3, # of connection points: 4
#     Node 4, Type 0, BuildingBlock: QUQFOY_clean_sbu_3, # of connection points: 4
#     Node 5, Type 0, BuildingBlock: QUQFOY_clean_sbu_3, # of connection points: 4
#     Node 6, Type 0, BuildingBlock: QUQFOY_clean_sbu_3, # of connection points: 4
#     Node 7, Type 0, BuildingBlock: QUQFOY_clean_sbu_3, # of connection points: 4
#     Node 8, Type 0, BuildingBlock: QUQFOY_clean_sbu_3, # of connection points: 4
#     Node 9, Type 0, BuildingBlock: QUQFOY_clean_sbu_3, # of connection points: 4
#     Node 10, Type 0, BuildingBlock: QUQFOY_clean_sbu_3, # of connection points: 4
#     Node 11, Type 0, BuildingBlock: QUQFOY_clean_sbu_3, # of connection points: 4
#     Node 12, Type 0, BuildingBlock: QUQFOY_clean_sbu_3, # of connection points: 4
#     Node 13, Type 0, BuildingBlock: QUQFOY_clean_sbu_3, # of connection points: 4
#     Node 14, Type 0, BuildingBlock: QUQFOY_clean_sbu_3, # of connection points: 4
#     Node 15, Type 0, BuildingBlock: QUQFOY_clean_sbu_3, # of connection points: 4
#     Node 16, Type 0, BuildingBlock: QUQFOY_clean_sbu_3, # of connection points: 4
#     Node 17, Type 0, BuildingBlock: QUQFOY_clean_sbu_3, # of connection points: 4
#     Node 18, Type 0, BuildingBlock: QUQFOY_clean_sbu_3, # of connection points: 4
#     Node 19, Type 0, BuildingBlock: QUQFOY_clean_sbu_3, # of connection points: 4
#     Node 20, Type 0, BuildingBlock: QUQFOY_clean_sbu_3, # of connection points: 4
#     Node 21, Type 0, BuildingBlock: QUQFOY_clean_sbu_3, # of connection points: 4
#     Node 22, Type 0, BuildingBlock: QUQFOY_clean_sbu_3, # of connection points: 4
#     Node 23, Type 0, BuildingBlock: QUQFOY_clean_sbu_3, # of connection points: 4
#     Node 24, Type 1, BuildingBlock: PAMTOO_clean_sbu_0, # of connection points: 6
#     Node 25, Type 1, BuildingBlock: PAMTOO_clean_sbu_0, # of connection points: 6
#     Node 26, Type 1, BuildingBlock: PAMTOO_clean_sbu_0, # of connection points: 6
#     Node 27, Type 1, BuildingBlock: PAMTOO_clean_sbu_0, # of connection points: 6
#     Node 28, Type 1, BuildingBlock: PAMTOO_clean_sbu_0, # of connection points: 6
#     Node 29, Type 1, BuildingBlock: PAMTOO_clean_sbu_0, # of connection points: 6
#     Node 30, Type 1, BuildingBlock: PAMTOO_clean_sbu_0, # of connection points: 6
#     Node 31, Type 1, BuildingBlock: PAMTOO_clean_sbu_0, # of connection points: 6
#     Node 32, Type 1, BuildingBlock: PAMTOO_clean_sbu_0, # of connection points: 6
#     Node 33, Type 1, BuildingBlock: PAMTOO_clean_sbu_0, # of connection points: 6
#     Node 34, Type 1, BuildingBlock: PAMTOO_clean_sbu_0, # of connection points: 6
#     Node 35, Type 1, BuildingBlock: PAMTOO_clean_sbu_0, # of connection points: 6
#     Node 36, Type 1, BuildingBlock: PAMTOO_clean_sbu_0, # of connection points: 6
#     Node 37, Type 1, BuildingBlock: PAMTOO_clean_sbu_0, # of connection points: 6
#     Node 38, Type 1, BuildingBlock: PAMTOO_clean_sbu_0, # of connection points: 6
#     Node 39, Type 1, BuildingBlock: PAMTOO_clean_sbu_0, # of connection points: 6
#     Edge 40, Type (0, 1), BuildingBlock: CIFDUS_clean_linker_0, # of connection points: 2
#     Edge 41, Type (0, 1), BuildingBlock: CIFDUS_clean_linker_0, # of connection points: 2
#     Edge 42, Type (0, 1), BuildingBlock: CIFDUS_clean_linker_0, # of connection points: 2
#     Edge 43, Type (0, 1), BuildingBlock: CIFDUS_clean_linker_0, # of connection points: 2
#     Edge 44, Type (0, 1), BuildingBlock: CIFDUS_clean_linker_0, # of connection points: 2
#     Edge 45, Type (0, 1), BuildingBlock: CIFDUS_clean_linker_0, # of connection points: 2
#     Edge 46, Type (0, 1), BuildingBlock: CIFDUS_clean_linker_0, # of connection points: 2
#     Edge 47, Type (0, 1), BuildingBlock: CIFDUS_clean_linker_0, # of connection points: 2
#     Edge 48, Type (0, 1), BuildingBlock: CIFDUS_clean_linker_0, # of connection points: 2
#     Edge 49, Type (0, 1), BuildingBlock: CIFDUS_clean_linker_0, # of connection points: 2
#     Edge 50, Type (0, 1), BuildingBlock: CIFDUS_clean_linker_0, # of connection points: 2
#     Edge 51, Type (0, 1), BuildingBlock: CIFDUS_clean_linker_0, # of connection points: 2
#     Edge 52, Type (0, 1), BuildingBlock: CIFDUS_clean_linker_0, # of connection points: 2
#     Edge 53, Type (0, 1), BuildingBlock: CIFDUS_clean_linker_0, # of connection points: 2
#     Edge 54, Type (0, 1), BuildingBlock: CIFDUS_clean_linker_0, # of connection points: 2
#     Edge 55, Type (0, 1), BuildingBlock: CIFDUS_clean_linker_0, # of connection points: 2
#     Edge 56, Type (0, 1), BuildingBlock: CIFDUS_clean_linker_0, # of connection points: 2
#     Edge 57, Type (0, 1), BuildingBlock: CIFDUS_clean_linker_0, # of connection points: 2
#     Edge 58, Type (0, 1), BuildingBlock: CIFDUS_clean_linker_0, # of connection points: 2
#     Edge 59, Type (0, 1), BuildingBlock: CIFDUS_clean_linker_0, # of connection points: 2
#     Edge 60, Type (0, 1), BuildingBlock: CIFDUS_clean_linker_0, # of connection points: 2
#     Edge 61, Type (0, 1), BuildingBlock: CIFDUS_clean_linker_0, # of connection points: 2
#     Edge 62, Type (0, 1), BuildingBlock: CIFDUS_clean_linker_0, # of connection points: 2
#     Edge 63, Type (0, 1), BuildingBlock: CIFDUS_clean_linker_0, # of connection points: 2
#     Edge 64, Type (0, 1), BuildingBlock: CIFDUS_clean_linker_0, # of connection points: 2
#     Edge 65, Type (0, 1), BuildingBlock: CIFDUS_clean_linker_0, # of connection points: 2
#     Edge 66, Type (0, 1), BuildingBlock: CIFDUS_clean_linker_0, # of connection points: 2
#     Edge 67, Type (0, 1), BuildingBlock: CIFDUS_clean_linker_0, # of connection points: 2
#     Edge 68, Type (0, 1), BuildingBlock: CIFDUS_clean_linker_0, # of connection points: 2
#     Edge 69, Type (0, 1), BuildingBlock: CIFDUS_clean_linker_0, # of connection points: 2
#     Edge 70, Type (0, 1), BuildingBlock: CIFDUS_clean_linker_0, # of connection points: 2
#     Edge 71, Type (0, 1), BuildingBlock: CIFDUS_clean_linker_0, # of connection points: 2
#     Edge 72, Type (0, 1), BuildingBlock: CIFDUS_clean_linker_0, # of connection points: 2
#     Edge 73, Type (0, 1), BuildingBlock: CIFDUS_clean_linker_0, # of connection points: 2
#     Edge 74, Type (0, 1), BuildingBlock: CIFDUS_clean_linker_0, # of connection points: 2
#     Edge 75, Type (0, 1), BuildingBlock: CIFDUS_clean_linker_0, # of connection points: 2
#     Edge 76, Type (0, 1), BuildingBlock: CIFDUS_clean_linker_0, # of connection points: 2
#     Edge 77, Type (0, 1), BuildingBlock: CIFDUS_clean_linker_0, # of connection points: 2
#     Edge 78, Type (0, 1), BuildingBlock: CIFDUS_clean_linker_0, # of connection points: 2
#     Edge 79, Type (0, 1), BuildingBlock: CIFDUS_clean_linker_0, # of connection points: 2
#     Edge 80, Type (0, 1), BuildingBlock: CIFDUS_clean_linker_0, # of connection points: 2
#     Edge 81, Type (0, 1), BuildingBlock: CIFDUS_clean_linker_0, # of connection points: 2
#     Edge 82, Type (0, 1), BuildingBlock: CIFDUS_clean_linker_0, # of connection points: 2
#     Edge 83, Type (0, 1), BuildingBlock: CIFDUS_clean_linker_0, # of connection points: 2
#     Edge 84, Type (0, 1), BuildingBlock: CIFDUS_clean_linker_0, # of connection points: 2
#     Edge 85, Type (0, 1), BuildingBlock: CIFDUS_clean_linker_0, # of connection points: 2
#     Edge 86, Type (0, 1), BuildingBlock: CIFDUS_clean_linker_0, # of connection points: 2
#     Edge 87, Type (0, 1), BuildingBlock: CIFDUS_clean_linker_0, # of connection points: 2
#     Edge 88, Type (0, 1), BuildingBlock: CIFDUS_clean_linker_0, # of connection points: 2
#     Edge 89, Type (0, 1), BuildingBlock: CIFDUS_clean_linker_0, # of connection points: 2
#     Edge 90, Type (0, 1), BuildingBlock: CIFDUS_clean_linker_0, # of connection points: 2
#     Edge 91, Type (0, 1), BuildingBlock: CIFDUS_clean_linker_0, # of connection points: 2
#     Edge 92, Type (0, 1), BuildingBlock: CIFDUS_clean_linker_0, # of connection points: 2
#     Edge 93, Type (0, 1), BuildingBlock: CIFDUS_clean_linker_0, # of connection points: 2
#     Edge 94, Type (0, 1), BuildingBlock: CIFDUS_clean_linker_0, # of connection points: 2
#     Edge 95, Type (0, 1), BuildingBlock: CIFDUS_clean_linker_0, # of connection points: 2
#     Edge 96, Type (0, 1), BuildingBlock: CIFDUS_clean_linker_0, # of connection points: 2
#     Edge 97, Type (0, 1), BuildingBlock: CIFDUS_clean_linker_0, # of connection points: 2
#     Edge 98, Type (0, 1), BuildingBlock: CIFDUS_clean_linker_0, # of connection points: 2
#     Edge 99, Type (0, 1), BuildingBlock: CIFDUS_clean_linker_0, # of connection points: 2
#     Edge 100, Type (0, 1), BuildingBlock: CIFDUS_clean_linker_0, # of connection points: 2
#     Edge 101, Type (0, 1), BuildingBlock: CIFDUS_clean_linker_0, # of connection points: 2
#     Edge 102, Type (0, 1), BuildingBlock: CIFDUS_clean_linker_0, # of connection points: 2
#     Edge 103, Type (0, 1), BuildingBlock: CIFDUS_clean_linker_0, # of connection points: 2
#     Edge 104, Type (0, 1), BuildingBlock: CIFDUS_clean_linker_0, # of connection points: 2
#     Edge 105, Type (0, 1), BuildingBlock: CIFDUS_clean_linker_0, # of connection points: 2
#     Edge 106, Type (0, 1), BuildingBlock: CIFDUS_clean_linker_0, # of connection points: 2
#     Edge 107, Type (0, 1), BuildingBlock: CIFDUS_clean_linker_0, # of connection points: 2
#     Edge 108, Type (0, 1), BuildingBlock: CIFDUS_clean_linker_0, # of connection points: 2
#     Edge 109, Type (0, 1), BuildingBlock: CIFDUS_clean_linker_0, # of connection points: 2
#     Edge 110, Type (0, 1), BuildingBlock: CIFDUS_clean_linker_0, # of connection points: 2
#     Edge 111, Type (0, 1), BuildingBlock: CIFDUS_clean_linker_0, # of connection points: 2
#     Edge 112, Type (0, 1), BuildingBlock: CIFDUS_clean_linker_0, # of connection points: 2
#     Edge 113, Type (0, 1), BuildingBlock: CIFDUS_clean_linker_0, # of connection points: 2
#     Edge 114, Type (0, 1), BuildingBlock: CIFDUS_clean_linker_0, # of connection points: 2
#     Edge 115, Type (0, 1), BuildingBlock: CIFDUS_clean_linker_0, # of connection points: 2
#     Edge 116, Type (0, 1), BuildingBlock: CIFDUS_clean_linker_0, # of connection points: 2
#     Edge 117, Type (0, 1), BuildingBlock: CIFDUS_clean_linker_0, # of connection points: 2
#     Edge 118, Type (0, 1), BuildingBlock: CIFDUS_clean_linker_0, # of connection points: 2
#     Edge 119, Type (0, 1), BuildingBlock: CIFDUS_clean_linker_0, # of connection points: 2
#     Edge 120, Type (0, 1), BuildingBlock: CIFDUS_clean_linker_0, # of connection points: 2
#     Edge 121, Type (0, 1), BuildingBlock: CIFDUS_clean_linker_0, # of connection points: 2
#     Edge 122, Type (0, 1), BuildingBlock: CIFDUS_clean_linker_0, # of connection points: 2
#     Edge 123, Type (0, 1), BuildingBlock: CIFDUS_clean_linker_0, # of connection points: 2
#     Edge 124, Type (0, 1), BuildingBlock: CIFDUS_clean_linker_0, # of connection points: 2
#     Edge 125, Type (0, 1), BuildingBlock: CIFDUS_clean_linker_0, # of connection points: 2
#     Edge 126, Type (0, 1), BuildingBlock: CIFDUS_clean_linker_0, # of connection points: 2
#     Edge 127, Type (0, 1), BuildingBlock: CIFDUS_clean_linker_0, # of connection points: 2
#     Edge 128, Type (0, 1), BuildingBlock: CIFDUS_clean_linker_0, # of connection points: 2
#     Edge 129, Type (0, 1), BuildingBlock: CIFDUS_clean_linker_0, # of connection points: 2
#     Edge 130, Type (0, 1), BuildingBlock: CIFDUS_clean_linker_0, # of connection points: 2
#     Edge 131, Type (0, 1), BuildingBlock: CIFDUS_clean_linker_0, # of connection points: 2
#     Edge 132, Type (0, 1), BuildingBlock: CIFDUS_clean_linker_0, # of connection points: 2
#     Edge 133, Type (0, 1), BuildingBlock: CIFDUS_clean_linker_0, # of connection points: 2
#     Edge 134, Type (0, 1), BuildingBlock: CIFDUS_clean_linker_0, # of connection points: 2
#     Edge 135, Type (0, 1), BuildingBlock: CIFDUS_clean_linker_0, # of connection points: 2
# Relax obj value: 0.157
# Max RMSD: 0.274
# Mean RMSD: 0.158
data_MOF--net-gar--node1-QUQFOY_clean_sbu_3--node2-PAMTOO_clean_sbu_0--edge1-CIFDUS_clean_linker_0
_symmetry_space_group_name_H-M    P1
_symmetry_Int_Tables_number       1
_symmetry_cell_setting            triclinic
loop_
_symmetry_equiv_pos_as_xyz
'x, y, z'
_cell_length_a     53.199248
_cell_length_b     54.008618
_cell_length_c     51.610176
_cell_angle_alpha  97.483689
_cell_angle_beta   96.094124
_cell_angle_gamma 104.95769
loop_
_atom_site_label
_atom_site_type_symbol
_atom_site_fract_x
_atom_site_fract_y
_atom_site_fract_z
_atom_type_partial_charge
C0 C 1.00725 0.33657 0.33604 0.0
O1 O 0.02106 0.3516 0.32281 0.0
Cd2 Cd 0.06843 0.36756 0.33763 0.0
O3 O 0.01893 0.32935 0.35546 0.0
Cd4 Cd 0.06728 0.33927 0.37757 0.0
C5 C 0.07135 0.40372 0.39614 0.0
O6 O 0.09595 0.33684 0.3406 0.0
O7 O 0.11583 0.35299 0.37997 0.0
O8 O 0.05727 0.29412 0.38732 0.0
C9 C 0.11763 0.34434 0.35639 0.0
O10 O 0.07475 0.40537 0.37233 0.0
C11 C 0.06329 0.30082 0.41222 0.0
O12 O 0.06711 0.38162 0.40358 0.0
O13 O 0.07118 0.32506 0.42073 0.0
C14 C 0.97983 0.75838 0.75188 0.0
O15 O 0.99094 0.74297 0.76177 0.0
Cd16 Cd 0.0276 0.74486 0.73706 0.0
O17 O 0.99102 0.77041 0.73456 0.0
Cd18 Cd 0.03476 0.76672 0.71555 0.0
C19 C 0.02621 0.70198 0.69335 0.0
O20 O 0.07147 0.77077 0.75578 0.0
O21 O 0.0824 0.77233 0.71701 0.0
O22 O 0.04023 0.8118 0.70605 0.0
C23 C 0.08982 0.774 0.74144 0.0
O24 O 0.02823 0.70184 0.71798 0.0
C25 C 0.03765 0.80534 0.68112 0.0
O26 O 0.02549 0.72316 0.68531 0.0
O27 O 0.03336 0.7813 0.67253 0.0
C28 C 0.51176 0.83795 0.83752 0.0
O29 O 0.52574 0.85215 0.82373 0.0
Cd30 Cd 0.57277 0.86846 0.83971 0.0
O31 O 0.52318 0.83167 0.85771 0.0
Cd32 Cd 0.57073 0.84155 0.88096 0.0
C33 C 0.57247 0.90606 0.89678 0.0
O34 O 0.59929 0.837 0.8442 0.0
O35 O 0.61947 0.85325 0.88344 0.0
O36 O 0.55674 0.79641 0.88984 0.0
C37 C 0.62097 0.84392 0.85996 0.0
O38 O 0.57688 0.90683 0.87311 0.0
C39 C 0.5632 0.80225 0.91474 0.0
O40 O 0.56875 0.88447 0.90532 0.0
O41 O 0.57355 0.82617 0.92385 0.0
C42 C 0.47876 0.27539 0.23938 0.0
O43 O 0.48591 0.25732 0.24869 0.0
Cd44 Cd 0.52302 0.25539 0.22503 0.0
O45 O 0.49247 0.28654 0.22306 0.0
Cd46 Cd 0.53434 0.27863 0.20384 0.0
C47 C 0.51849 0.21388 0.17768 0.0
O48 O 0.56812 0.27764 0.24455 0.0
O49 O 0.5811 0.27996 0.20662 0.0
O50 O 0.54402 0.32515 0.19956 0.0
C51 C 0.58714 0.28009 0.23104 0.0
O52 O 0.51881 0.21237 0.20199 0.0
C53 C 0.5422 0.32165 0.17453 0.0
O54 O 0.52143 0.23624 0.17097 0.0
O55 O 0.53674 0.29824 0.16308 0.0
C56 C 0.04363 0.801 0.16685 0.0
O57 O 0.05928 0.79015 0.17812 0.0
Cd58 Cd 0.10174 0.78887 0.16903 0.0
O59 O 0.04987 0.81302 0.1476 0.0
Cd60 Cd 0.0887 0.82319 0.12128 0.0
C61 C 0.0839 0.75547 0.10479 0.0
O62 O 0.12048 0.83107 0.16078 0.0
O63 O 0.1383 0.82686 0.12586 0.0
O64 O 0.08716 0.86969 0.12587 0.0
C65 C 0.14126 0.83133 0.15096 0.0
O66 O 0.09383 0.75729 0.12876 0.0
C67 C 0.08239 0.87191 0.10178 0.0
O68 O 0.07791 0.77504 0.09642 0.0
O69 O 0.08047 0.85141 0.0854 0.0
C70 C 0.46095 0.78489 0.41292 0.0
O71 O 0.47954 0.79829 0.40284 0.0
Cd72 Cd 0.52548 0.81057 0.41359 0.0
O73 O 0.46594 0.77413 0.43302 0.0
Cd74 Cd 0.5105 0.77536 0.46173 0.0
C75 C 0.52412 0.84422 0.47515 0.0
O76 O 0.53432 0.77277 0.42451 0.0
O77 O 0.55929 0.78805 0.46139 0.0
O78 O 0.49773 0.72678 0.46447 0.0
C79 C 0.55746 0.78053 0.43679 0.0
O80 O 0.53102 0.84341 0.45223 0.0
C81 C 0.50927 0.72871 0.48784 0.0
O82 O 0.51422 0.823 0.48387 0.0
O83 O 0.51885 0.75192 0.50005 0.0
C84 C 0.54486 0.30439 0.6686 0.0
O85 O 0.56114 0.29523 0.68131 0.0
Cd86 Cd 0.60279 0.29227 0.67296 0.0
O87 O 0.55059 0.31489 0.64827 0.0
Cd88 Cd 0.59028 0.32555 0.62274 0.0
C89 C 0.58344 0.2574 0.60859 0.0
O90 O 0.62069 0.33363 0.66283 0.0
O91 O 0.64004 0.32971 0.62897 0.0
O92 O 0.58877 0.37201 0.62701 0.0
C93 C 0.64195 0.33392 0.65402 0.0
O94 O 0.59133 0.25972 0.6332 0.0
C95 C 0.58444 0.37415 0.60286 0.0
O96 O 0.58062 0.27734 0.59845 0.0
O97 O 0.58272 0.35361 0.58661 0.0
C98 C 0.95558 0.27878 0.91534 0.0
O99 O 0.97241 0.29171 0.90296 0.0
Cd100 Cd 0.01868 0.30576 0.91025 0.0
O101 O 0.96288 0.26998 0.93607 0.0
Cd102 Cd 1.00891 0.27357 0.96303 0.0
C103 C 0.02157 0.34284 0.97176 0.0
O104 O 0.03051 0.27041 0.92415 0.0
O105 O 0.05723 0.28408 0.96022 0.0
O106 O 0.99585 0.22527 0.96701 0.0
C107 C 0.05408 0.27759 0.93536 0.0
O108 O 0.02513 0.33996 0.94765 0.0
C109 C 1.00775 0.22747 0.99027 0.0
O110 O 0.01425 0.3227 0.98311 0.0
O111 O 0.01803 0.25082 0.00191 0.0
C112 C 0.44412 0.06627 0.35735 0.0
O113 O 0.4557 0.05941 0.33849 0.0
Cd114 Cd 0.43972 0.0494 0.29255 0.0
O115 O 0.42101 0.06902 0.35297 0.0
Cd116 Cd 0.38816 0.06502 0.31363 0.0
C117 C 0.38449 1.00114 0.29686 0.0
O118 O 0.41975 0.08301 0.28705 0.0
O119 O 0.38134 0.06607 0.26523 0.0
O120 O 0.37431 0.10112 0.33492 0.0
C121 C 0.40528 0.07756 0.26496 0.0
O122 O 0.40623 0.00757 0.28782 0.0
C123 C 0.34989 0.08949 0.32945 0.0
O124 O 0.37504 0.01819 0.30848 0.0
O125 O 0.34353 0.06622 0.31741 0.0
C126 C 0.31649 0.16423 0.5464 0.0
O127 O 0.29766 0.15375 0.55812 0.0
Cd128 Cd 0.2556 0.16109 0.55795 0.0
O129 O 0.31458 0.18181 0.53251 0.0
Cd130 Cd 0.28032 0.20499 0.52095 0.0
C131 C 0.27692 0.22582 0.5866 0.0
O132 O 0.24463 0.16598 0.51403 0.0
O133 O 0.23217 0.20076 0.51559 0.0
O134 O 0.28737 0.20026 0.47471 0.0
C135 C 0.22579 0.17612 0.51204 0.0
O136 O 0.26378 0.20249 0.58658 0.0
C137 C 0.29142 0.22392 0.47209 0.0
O138 O 0.28747 0.23241 0.5664 0.0
O139 O 0.29191 0.23979 0.49281 0.0
C140 C 0.10819 0.06204 0.85339 0.0
O141 O 0.09547 0.07458 0.84058 0.0
Cd142 Cd 0.10396 0.08653 0.79831 0.0
O143 O 0.12599 0.05385 0.84322 0.0
Cd144 Cd 0.14345 0.05601 0.79945 0.0
C145 C 0.16814 0.12126 0.80991 0.0
O146 O 0.10384 0.05073 0.76501 0.0
O147 O 0.14274 0.06317 0.75425 0.0
O148 O 0.14714 0.01101 0.79662 0.0
C149 C 0.11814 0.05579 0.74707 0.0
O150 O 0.14438 0.12158 0.80419 0.0
C151 C 0.17127 0.01703 0.79367 0.0
O152 O 0.17365 0.09992 0.81172 0.0
O153 O 0.18241 0.04098 0.79455 0.0
C154 C 0.33348 0.96724 0.00859 0.0
O155 O 0.31924 0.98005 0.99828 0.0
Cd156 Cd 0.27225 0.96684 0.99402 0.0
O157 O 0.32306 0.94642 0.01708 0.0
Cd158 Cd 0.27936 0.91906 0.02133 0.0
C159 C 0.25968 0.90818 0.95515 0.0
O160 O 0.26682 0.95677 0.03797 0.0
O161 O 0.23721 0.92066 0.03661 0.0
O162 O 0.30453 0.90507 0.05566 0.0
C163 C 0.24453 0.94516 0.04312 0.0
O164 O 0.25922 0.93166 0.95562 0.0
C165 C 0.29275 0.88109 0.04838 0.0
O166 O 0.26646 0.9003 0.97613 0.0
O167 O 0.27382 0.87514 0.02951 0.0
C168 C 0.34912 0.45178 0.05714 0.0
O169 O 0.3333 0.46268 0.04632 0.0
Cd170 Cd 0.28877 0.44415 0.02898 0.0
O171 O 0.34139 0.42835 0.06141 0.0
Cd172 Cd 0.29731 0.39416 0.05765 0.0
C173 C 0.29224 0.38637 0.99056 0.0
O174 O 0.27324 0.42535 0.06428 0.0
O175 O 0.24843 0.38789 0.04657 0.0
O176 O 0.30584 0.39268 0.1049 0.0
C177 C 0.25027 0.41143 0.05544 0.0
O178 O 0.28772 0.40856 0.99408 0.0
C179 C 0.29995 0.36819 0.1033 0.0
O180 O 0.29844 0.37588 0.01029 0.0
O181 O 0.294 0.3551 0.08004 0.0
C182 C 0.82791 0.12567 0.0368 0.0
O183 O 0.81125 0.11118 0.04811 0.0
Cd184 Cd 0.77661 0.12381 0.06648 0.0
O185 O 0.82737 0.14884 0.03505 0.0
Cd186 Cd 0.79764 0.17582 0.04714 0.0
C187 C 0.80661 0.17821 0.11244 0.0
O188 O 0.75822 0.14051 0.03048 0.0
O189 O 0.75159 0.17403 0.05291 0.0
O190 O 0.80967 0.19446 0.00824 0.0
C191 C 0.74203 0.15236 0.03791 0.0
O192 O 0.79181 0.15499 0.10787 0.0
C193 C 0.8092 0.21724 0.0175 0.0
O194 O 0.81427 0.18962 0.0935 0.0
O195 O 0.80388 0.22092 0.04081 0.0
C196 C 0.13392 0.56499 0.28308 0.0
O197 O 0.11836 0.56502 0.26262 0.0
Cd198 Cd 0.12521 0.55577 0.21836 0.0
O199 O 0.1552 0.55851 0.28134 0.0
Cd200 Cd 0.18045 0.54422 0.2477 0.0
C201 C 0.18406 0.60338 0.22888 0.0
O202 O 0.14119 0.51894 0.22154 0.0
O203 O 0.1748 0.51938 0.20223 0.0
O204 O 0.19649 0.52032 0.27943 0.0
C205 C 0.14999 0.51199 0.20093 0.0
O206 O 0.16002 0.59569 0.21829 0.0
C207 C 0.22006 0.52686 0.27465 0.0
O208 O 0.19485 0.58843 0.24028 0.0
O209 O 0.22495 0.54123 0.25716 0.0
C210 C 0.85495 0.94231 0.56045 0.0
O211 O 0.84104 0.95392 0.54775 0.0
Cd212 Cd 0.79652 0.93893 0.53005 0.0
O213 O 0.84473 0.92013 0.56676 0.0
Cd214 Cd 0.79854 0.89031 0.5637 0.0
C215 C 0.79919 0.8789 0.4968 0.0
O216 O 0.78015 0.92584 0.56774 0.0
O217 O 0.75049 0.88984 0.5551 0.0
O218 O 0.80797 0.89024 0.61133 0.0
C219 C 0.75604 0.9143 0.56192 0.0
O220 O 0.797 0.90194 0.4978 0.0
C221 C 0.79925 0.86591 0.61038 0.0
O222 O 0.80047 0.86878 0.51783 0.0
O223 O 0.79112 0.85241 0.58746 0.0
C224 C 0.99547 0.04497 0.33653 0.0
O225 O 1.00805 0.03291 0.32237 0.0
Cd226 Cd 0.99693 0.02203 0.27496 0.0
O227 O 0.97663 0.05245 0.32571 0.0
Cd228 Cd 0.95341 0.04968 0.27978 0.0
C229 C 0.93428 0.98371 0.27182 0.0
O230 O 0.99085 0.05818 0.25415 0.0
O231 O 0.95215 0.0425 0.23157 0.0
O232 O 0.95 0.09411 0.29124 0.0
C233 C 0.97658 0.05203 0.23165 0.0
O234 O 0.9579 0.98512 0.26831 0.0
C235 C 0.92507 0.08829 0.28679 0.0
O236 O 0.9272 1.00432 0.27765 0.0
O237 O 0.91315 0.06443 0.27893 0.0
C238 C 0.3513 0.6349 0.53945 0.0
O239 O 0.34154 0.62173 0.55637 0.0
Cd240 Cd 0.31003 0.63302 0.58156 0.0
O241 O 0.34462 0.65508 0.53512 0.0
Cd242 Cd 0.31298 0.67726 0.55173 0.0
C243 C 0.33832 0.69509 0.61439 0.0
O244 O 0.27612 0.63881 0.55051 0.0
O245 O 0.27303 0.6747 0.57201 0.0
O246 O 0.30484 0.68223 0.50613 0.0
C247 C 0.26202 0.65128 0.5617 0.0
O248 O 0.32762 0.67135 0.61549 0.0
C249 C 0.30446 0.70573 0.51074 0.0
O250 O 0.33945 0.70274 0.59217 0.0
O251 O 0.3087 0.7165 0.53476 0.0
C252 C 0.49894 0.53876 0.82549 0.0
O253 O 0.5109 0.5291 0.80857 0.0
Cd254 Cd 0.49309 0.51644 0.76233 0.0
O255 O 0.47787 0.54461 0.8178 0.0
Cd256 Cd 0.45033 0.54314 0.7739 0.0
C257 C 0.43242 0.47763 0.76703 0.0
O258 O 0.48233 0.55081 0.7416 0.0
O259 O 0.44183 0.53219 0.7254 0.0
O260 O 0.44331 0.58672 0.78551 0.0
C261 C 0.46502 0.54226 0.72119 0.0
O262 O 0.45511 0.47881 0.76061 0.0
C263 C 0.41847 0.57827 0.78398 0.0
O264 O 0.4259 0.4983 0.77406 0.0
O265 O 0.40876 0.55386 0.77775 0.0
C266 C 0.63321 0.05009 0.76993 0.0
O267 O 0.6199 0.05081 0.74823 0.0
Cd268 Cd 0.63452 0.04374 0.70679 0.0
O269 O 0.65469 0.04369 0.77039 0.0
Cd270 Cd 0.68453 0.02915 0.74209 0.0
C271 C 0.69552 0.08894 0.72469 0.0
O272 O 0.64904 1.00594 0.71007 0.0
O273 O 0.68599 0.00727 0.69672 0.0
O274 O 0.69033 1.00243 0.77508 0.0
C275 C 0.66109 1.00068 0.69125 0.0
O276 O 0.67206 0.08276 0.71252 0.0
C277 C 0.71527 0.009 0.77721 0.0
O278 O 0.70424 0.07307 0.73668 0.0
O279 O 0.72576 0.02405 0.76198 0.0
C280 C 0.82305 0.66505 0.05276 0.0
O281 O 0.80411 0.65402 0.06404 0.0
Cd282 Cd 0.76131 0.65928 0.06262 0.0
O283 O 0.8209 0.68262 0.03891 0.0
Cd284 Cd 0.78525 0.70427 0.027 0.0
C285 C 0.77926 0.72336 0.09212 0.0
O286 O 0.75293 0.66321 0.01794 0.0
O287 O 0.73566 0.69478 0.01783 0.0
O288 O 0.79674 0.70649 0.98216 0.0
C289 C 0.73231 0.67038 0.01429 0.0
O290 O 0.76659 0.69986 0.09198 0.0
C291 C 0.79934 0.73062 0.98296 0.0
O292 O 0.78999 0.7302 0.07218 0.0
O293 O 0.7963 0.74296 0.0046 0.0
C294 C 0.9422 0.55711 0.85075 0.0
O295 O 0.95765 0.5535 0.83437 0.0
Cd296 Cd 0.94825 0.53974 0.78793 0.0
O297 O 0.91789 0.55443 0.84316 0.0
Cd298 Cd 0.88877 0.54457 0.79997 0.0
C299 C 0.89868 0.48479 0.78951 0.0
O300 O 0.9213 0.5659 0.7759 0.0
O301 O 0.88598 0.54272 0.75152 0.0
O302 O 0.86637 0.57511 0.81793 0.0
C303 C 0.9093 0.55677 0.75282 0.0
O304 O 0.92101 0.49457 0.7827 0.0
C305 C 0.84357 0.56135 0.80722 0.0
O306 O 0.88463 0.49899 0.79809 0.0
O307 O 0.84172 0.53933 0.79385 0.0
C308 C 0.85174 0.47876 0.50558 0.0
O309 O 0.83599 0.48882 0.49325 0.0
Cd310 Cd 0.78973 0.47447 0.49369 0.0
O311 O 0.84315 0.46012 0.51798 0.0
Cd312 Cd 0.80157 0.43347 0.52802 0.0
C313 C 0.77756 0.41225 0.46292 0.0
O314 O 0.78987 0.4725 0.54029 0.0
O315 O 0.76035 0.43802 0.54436 0.0
O316 O 0.82887 0.42733 0.56643 0.0
C317 C 0.76857 0.46263 0.5484 0.0
O318 O 0.77499 0.43469 0.46077 0.0
C319 C 0.8185 0.40296 0.5632 0.0
O320 O 0.787 0.40776 0.48485 0.0
O321 O 0.79993 0.39323 0.54415 0.0
C322 C 0.59498 0.56743 0.34415 0.0
O323 O 0.58502 0.58142 0.3305 0.0
Cd324 Cd 0.5979 0.5943 0.28974 0.0
O325 O 0.61327 0.55838 0.33613 0.0
Cd326 Cd 0.63623 0.56175 0.29495 0.0
C327 C 0.66201 0.62794 0.30402 0.0
O328 O 0.5984 0.55693 0.25877 0.0
O329 O 0.63749 0.56466 0.24814 0.0
O330 O 0.64292 0.51762 0.28927 0.0
C331 C 0.613 0.55949 0.24078 0.0
O332 O 0.63871 0.62936 0.29774 0.0
C333 C 0.66784 0.5258 0.29473 0.0
O334 O 0.66625 0.60605 0.30582 0.0
O335 O 0.67752 0.55016 0.30127 0.0
Dy336 Dy 0.06432 0.06106 0.05466 0.0
Dy337 Dy 1.00822 0.02577 0.02367 0.0
C338 C 0.05421 0.04821 0.99205 0.0
O339 O 0.04699 0.09146 0.03913 0.0
O340 O 1.00415 0.06685 0.02541 0.0
O341 O 0.10426 0.08389 0.05475 0.0
O342 O 0.0897 0.07793 0.09161 0.0
O343 O 1.00631 0.02543 0.06663 0.0
O344 O 0.0353 0.06491 0.08232 0.0
O345 O 0.03225 0.9971 0.02731 0.0
O346 O 0.06231 0.02011 0.06277 0.0
O347 O 0.967 0.00867 0.02373 0.0
O348 O 0.98466 1.00031 0.9888 0.0
C349 C 0.02237 0.08951 0.02956 0.0
O350 O 0.07069 0.04815 0.01291 0.0
O351 O 0.02931 0.0451 0.99379 0.0
C352 C 0.1328 0.07536 0.08812 0.0
C353 C 0.17201 0.04921 0.0927 0.0
C354 C 0.14878 0.04082 0.10356 0.0
C355 C 0.12927 0.05367 0.10116 0.0
C356 C 0.15688 0.08507 0.07929 0.0
C357 C 0.17634 0.07208 0.0815 0.0
C358 C 0.1104 0.08531 0.08013 0.0
C359 C 0.01589 0.04546 0.0855 0.0
C360 C 0.05014 0.9978 0.04734 0.0
C361 C 0.94241 1.00702 0.9835 0.0
C362 C 0.90414 0.03289 0.97223 0.0
C363 C 0.89702 0.00807 0.97955 0.0
C364 C 0.91607 0.99524 0.98516 0.0
C365 C 0.9491 0.03027 0.97319 0.0
C366 C 0.93001 0.04304 0.96738 0.0
C367 C 0.96283 0.99892 0.99867 0.0
H368 H 0.14509 0.02352 0.1127 0.0
H369 H 0.1109 0.04569 0.10822 0.0
H370 H 0.15996 0.10171 0.06912 0.0
H371 H 0.19395 0.07893 0.07276 0.0
H372 H 0.87734 0.99969 0.98364 0.0
H373 H 0.91065 0.97742 0.99332 0.0
H374 H 0.96943 0.03975 0.97191 0.0
H375 H 0.93598 0.06187 0.96125 0.0
Dy376 Dy 0.31734 0.78814 0.25368 0.0
Dy377 Dy 0.28332 0.80523 0.29819 0.0
C378 C 0.32371 0.84764 0.27299 0.0
O379 O 0.34441 0.8004 0.29209 0.0
O380 O 0.31408 0.79037 0.32005 0.0
O381 O 0.3525 0.79289 0.23524 0.0
O382 O 0.32032 0.75776 0.22363 0.0
O383 O 0.26346 0.76429 0.27898 0.0
O384 O 0.30147 0.75446 0.27327 0.0
O385 O 0.26629 0.8167 0.26163 0.0
O386 O 0.27897 0.78942 0.23087 0.0
O387 O 0.24644 0.80056 0.31359 0.0
O388 O 0.28122 0.82987 0.33384 0.0
C389 C 0.33852 0.79515 0.31523 0.0
O390 O 0.32339 0.83022 0.25264 0.0
O391 O 0.31336 0.84129 0.29402 0.0
C392 C 0.34223 0.77567 0.19028 0.0
C393 C 0.34244 0.79535 0.14256 0.0
C394 C 0.31855 0.78357 0.15092 0.0
C395 C 0.31844 0.77389 0.17456 0.0
C396 C 0.36608 0.78529 0.18094 0.0
C397 C 0.3662 0.79508 0.15717 0.0
C398 C 0.34228 0.77185 0.21788 0.0
C399 C 0.27643 0.74699 0.27475 0.0
C400 C 0.26411 0.80482 0.23723 0.0
C401 C 0.25319 0.80763 0.36043 0.0
C402 C 0.25678 0.78731 0.40764 0.0
C403 C 0.24216 0.77145 0.38433 0.0
C404 C 0.24045 0.78148 0.36089 0.0
C405 C 0.26543 0.82409 0.38427 0.0
C406 C 0.26729 0.81398 0.40773 0.0
C407 C 0.25718 0.81698 0.33519 0.0
H408 H 0.29987 0.78381 0.14048 0.0
H409 H 0.29973 0.76678 0.18137 0.0
H410 H 0.38462 0.78683 0.19286 0.0
H411 H 0.38488 0.80383 0.15105 0.0
H412 H 0.23337 0.7509 0.38391 0.0
H413 H 0.23054 0.76834 0.34292 0.0
H414 H 0.27516 0.84439 0.38442 0.0
H415 H 0.27863 0.82664 0.42544 0.0
Dy416 Dy 0.52116 0.04359 0.54675 0.0
Dy417 Dy 0.58019 0.05924 0.52923 0.0
C418 C 0.53044 0.06119 0.49063 0.0
O419 O 0.52347 1.00496 0.52546 0.0
O420 O 0.56789 0.01549 0.52311 0.0
O421 O 0.479 0.02851 0.53713 0.0
O422 O 0.4969 0.04523 0.57752 0.0
O423 O 0.58444 0.05372 0.57127 0.0
O424 O 0.54469 0.02533 0.57254 0.0
O425 O 0.5707 0.0977 0.53763 0.0
O426 O 0.5424 0.08465 0.56672 0.0
O427 O 0.62156 0.07933 0.53985 0.0
O428 O 0.60723 0.05512 0.50165 0.0
C429 C 0.54479 0.99818 0.52028 0.0
O430 O 0.51723 0.06175 0.51065 0.0
O431 O 0.55338 0.05638 0.49252 0.0
C432 C 0.45679 0.05283 0.56235 0.0
C433 C 0.42136 0.08358 0.56481 0.0
C434 C 0.44691 0.09392 0.55916 0.0
C435 C 0.46449 0.07864 0.55794 0.0
C436 C 0.43137 0.04238 0.5678 0.0
C437 C 0.41378 0.05759 0.569 0.0
C438 C 0.47508 0.03667 0.5609 0.0
C439 C 0.56985 0.03478 0.58107 0.0
C440 C 0.55743 0.10339 0.55662 0.0
C441 C 0.64561 0.05097 0.52494 0.0
C442 C 0.67861 0.0193 0.53624 0.0
C443 C 0.65287 0.01331 0.54237 0.0
C444 C 0.63656 0.02895 0.53672 0.0
C445 C 0.67123 0.05712 0.51872 0.0
C446 C 0.68765 0.04139 0.52435 0.0
C447 C 0.62778 0.0669 0.51917 0.0
H448 H 0.45343 0.11389 0.55605 0.0
H449 H 0.4841 0.08697 0.55361 0.0
H450 H 0.42509 0.02242 0.57104 0.0
H451 H 0.39411 0.04889 0.57292 0.0
H452 H 0.64544 0.99675 0.55195 0.0
H453 H 0.61685 0.02392 0.54171 0.0
H454 H 0.67847 0.07398 0.50951 0.0
H455 H 0.70734 0.04638 0.51919 0.0
Dy456 Dy 0.31415 0.29475 0.79075 0.0
Dy457 Dy 0.26217 0.31766 0.78655 0.0
C458 C 0.31795 0.35257 0.77834 0.0
O459 O 0.30755 0.30371 0.83301 0.0
O460 O 0.28429 0.33345 0.82705 0.0
O461 O 0.35449 0.29778 0.80585 0.0
O462 O 0.33159 0.26427 0.77742 0.0
O463 O 0.2525 0.28417 0.8079 0.0
O464 O 0.2789 0.26111 0.79046 0.0
O465 O 0.2603 0.29198 0.74813 0.0
O466 O 0.30422 0.29733 0.74807 0.0
O467 O 0.22131 0.31061 0.77062 0.0
O468 O 0.24143 0.34627 0.79724 0.0
C469 C 0.29737 0.32217 0.84261 0.0
O470 O 0.32913 0.33717 0.79017 0.0
O471 O 0.29236 0.34684 0.77116 0.0
C472 C 0.37675 0.2792 0.77431 0.0
C473 C 0.41941 0.28234 0.74534 0.0
C474 C 0.41016 0.30422 0.75175 0.0
C475 C 0.38897 0.30265 0.76609 0.0
C476 C 0.38537 0.25722 0.76716 0.0
C477 C 0.40637 0.25871 0.75278 0.0
C478 C 0.35485 0.277 0.79 0.0
C479 C 0.25818 0.26217 0.80187 0.0
C480 C 0.28017 0.29078 0.7354 0.0
C481 C 0.19696 0.3257 0.80185 0.0
C482 C 0.15575 0.31303 0.83268 0.0
C483 C 0.15283 0.30083 0.80629 0.0
C484 C 0.17306 0.30721 0.79107 0.0
C485 C 0.19996 0.33806 0.8282 0.0
C486 C 0.17958 0.33183 0.8434 0.0
C487 C 0.21872 0.33083 0.78575 0.0
H488 H 0.4198 0.32272 0.74644 0.0
H489 H 0.3824 0.31983 0.77106 0.0
H490 H 0.37598 0.23885 0.77293 0.0
H491 H 0.41261 0.24135 0.74773 0.0
H492 H 0.13503 0.28595 0.79741 0.0
H493 H 0.17014 0.29729 0.77088 0.0
H494 H 0.2181 0.35242 0.83718 0.0
H495 H 0.18245 0.34192 0.8635 0.0
Dy496 Dy 0.05394 0.02395 0.54326 0.0
Dy497 Dy 0.03939 0.08099 0.54762 0.0
C498 C 0.998 0.02948 0.55585 0.0
O499 O 0.03483 0.0246 0.50255 0.0
O500 O 0.03925 0.06849 0.50455 0.0
O501 O 0.04156 0.982 0.53306 0.0
O502 O 0.08138 1.00171 0.55185 0.0
O503 O 0.08245 0.08856 0.54784 0.0
O504 O 0.0854 0.04987 0.52578 0.0
O505 O 0.04353 0.07254 0.58924 0.0
O506 O 0.0715 0.04707 0.58302 0.0
O507 O 0.05097 0.12277 0.56022 0.0
O508 O 0.01232 0.10341 0.53861 0.0
C509 C 0.03403 0.04489 0.49109 0.0
O510 O 0.0171 0.01898 0.56154 0.0
O511 O 1.00173 0.05058 0.54511 0.0
C512 C 0.06089 0.96081 0.56392 0.0
C513 C 0.05495 0.92459 0.59972 0.0
C514 C 0.0413 0.91762 0.57375 0.0
C515 C 0.04433 0.93545 0.5561 0.0
C516 C 0.07449 0.96793 0.58987 0.0
C517 C 0.07161 0.95004 0.60749 0.0
C518 C 0.06347 0.97945 0.54489 0.0
C519 C 0.09474 0.07513 0.53339 0.0
C520 C 0.06042 0.06075 0.59876 0.0
C521 C 0.03337 0.14497 0.52876 0.0
C522 C 0.04036 0.18156 0.49341 0.0
C523 C 0.05875 0.18503 0.51624 0.0
C524 C 0.05527 0.16699 0.5337 0.0
C525 C 0.01486 0.14166 0.50608 0.0
C526 C 0.01834 0.15965 0.48864 0.0
C527 C 0.0298 0.12564 0.54715 0.0
H528 H 0.02793 0.89845 0.56708 0.0
H529 H 0.03354 0.92945 0.53628 0.0
H530 H 0.08739 0.98733 0.59663 0.0
H531 H 0.08275 0.95612 0.62713 0.0
H532 H 0.07607 0.20151 0.52045 0.0
H533 H 0.06984 0.17022 0.55104 0.0
H534 H 0.99759 0.12512 0.5017 0.0
H535 H 1.00353 0.15654 0.47155 0.0
Dy536 Dy 0.30539 0.83136 0.76505 0.0
Dy537 Dy 0.29761 0.7824 0.79882 0.0
C538 C 0.289 0.83661 0.82346 0.0
O539 O 0.34536 0.83745 0.78811 0.0
O540 O 0.34146 0.79683 0.79882 0.0
O541 O 0.32194 0.87194 0.76352 0.0
O542 O 0.29561 0.8469 0.72988 0.0
O543 O 0.29675 0.76759 0.75641 0.0
O544 O 0.32235 0.80295 0.74279 0.0
O545 O 0.25645 0.78671 0.78976 0.0
O546 O 0.26374 0.80608 0.75321 0.0
O547 O 0.28013 0.74165 0.79951 0.0
O548 O 0.30893 0.76508 0.83208 0.0
C549 C 0.35601 0.81999 0.79662 0.0
O550 O 0.28814 0.84361 0.80011 0.0
O551 O 0.29568 0.81568 0.8283 0.0
C552 C 0.29158 0.88971 0.7418 0.0
C553 C 0.26268 0.9266 0.75029 0.0
C554 C 0.29028 0.93456 0.75205 0.0
C555 C 0.3045 0.91634 0.74773 0.0
C556 C 0.264 0.88161 0.73957 0.0
C557 C 0.2497 0.89987 0.74358 0.0
C558 C 0.30733 0.87082 0.74123 0.0
C559 C 0.31328 0.77773 0.74105 0.0
C560 C 0.24745 0.79441 0.76827 0.0
C561 C 0.31252 0.72337 0.8169 0.0
C562 C 0.34488 0.68953 0.81028 0.0
C563 C 0.34822 0.7113 0.79737 0.0
C564 C 0.33219 0.72796 0.8006 0.0
C565 C 0.30888 0.7016 0.82968 0.0
C566 C 0.32487 0.68475 0.82633 0.0
C567 C 0.29623 0.74157 0.82039 0.0
H568 H 0.3011 0.95484 0.75764 0.0
H569 H 0.32577 0.92301 0.74997 0.0
H570 H 0.25348 0.86115 0.73536 0.0
H571 H 0.22848 0.89298 0.74161 0.0
H572 H 0.3631 0.71533 0.78453 0.0
H573 H 0.33519 0.74452 0.79035 0.0
H574 H 0.29379 0.69772 0.84232 0.0
H575 H 0.32188 0.66824 0.83665 0.0
Dy576 Dy 0.53625 0.07576 0.00591 0.0
Dy577 Dy 0.54069 0.04756 0.05743 0.0
C578 C 0.54921 0.01982 0.0017 0.0
O579 O 0.4962 0.06473 0.01694 0.0
O580 O 0.50048 0.02952 0.03484 0.0
O581 O 0.51466 0.07683 0.96856 0.0
O582 O 0.55007 0.10759 0.98505 0.0
O583 O 0.52335 0.0802 0.06954 0.0
O584 O 0.54092 0.10666 0.04115 0.0
O585 O 0.57914 0.0772 0.05894 0.0
O586 O 0.57835 0.07714 0.01465 0.0
O587 O 0.55776 0.04956 0.09778 0.0
O588 O 0.52815 0.01495 0.07778 0.0
C589 C 0.48569 0.04237 0.02384 0.0
O590 O 0.53744 0.03504 0.99002 0.0
O591 O 0.5563 0.02401 0.02748 0.0
C592 C 0.54254 0.0937 0.93948 0.0
C593 C 0.56216 0.08627 0.89165 0.0
C594 C 0.56445 0.07016 0.91056 0.0
C595 C 0.55484 0.07395 0.93434 0.0
C596 C 0.54003 0.10979 0.92077 0.0
C597 C 0.54981 0.10611 0.89691 0.0
C598 C 0.53231 0.09713 0.96439 0.0
C599 C 0.53061 0.1034 0.06295 0.0
C600 C 0.59119 0.0826 0.03865 0.0
C601 C 0.52407 0.03203 0.12078 0.0
C602 C 0.49651 0.04827 0.16026 0.0
C603 C 0.48762 0.04774 0.13355 0.0
C604 C 0.50126 0.03969 0.11401 0.0
C605 C 0.53267 0.0318 0.1473 0.0
C606 C 0.51891 0.03976 0.16694 0.0
C607 C 0.5406 0.02833 0.10047 0.0
H608 H 0.57341 0.05441 0.90688 0.0
H609 H 0.55689 0.06138 0.9487 0.0
H610 H 0.53058 0.12515 0.92462 0.0
H611 H 0.548 0.11892 0.88276 0.0
H612 H 0.4707 0.0545 0.12778 0.0
H613 H 0.49457 0.04047 0.09363 0.0
H614 H 0.55044 0.0263 0.15285 0.0
H615 H 0.52601 0.03964 0.18737 0.0
Dy616 Dy 0.27819 0.27826 0.27843 0.0
Dy617 Dy 0.31186 0.33499 0.30886 0.0
C618 C 0.30153 0.28751 0.33992 0.0
O619 O 0.24933 0.30221 0.28102 0.0
O620 O 0.2703 0.33 0.31847 0.0
O621 O 0.24043 0.24962 0.27019 0.0
O622 O 0.27347 0.24156 0.25322 0.0
O623 O 0.29471 0.34098 0.26929 0.0
O624 O 0.28929 0.30059 0.24576 0.0
O625 O 0.34179 0.31936 0.28885 0.0
O626 O 0.3203 0.276 0.28385 0.0
O627 O 0.33541 0.37419 0.30888 0.0
O628 O 0.32639 0.36142 0.34565 0.0
C629 C 0.24847 0.31831 0.30211 0.0
O630 O 0.2813 0.27562 0.32172 0.0
O631 O 0.31943 0.30777 0.33579 0.0
C632 C 0.24553 0.20762 0.2691 0.0
C633 C 0.24917 0.16388 0.29171 0.0
C634 C 0.2472 0.18627 0.30758 0.0
C635 C 0.24551 0.20802 0.29639 0.0
C636 C 0.24514 0.18459 0.25292 0.0
C637 C 0.24689 0.1628 0.26413 0.0
C638 C 0.24972 0.23192 0.25823 0.0
C639 C 0.29221 0.3256 0.24663 0.0
C640 C 0.34176 0.2948 0.2835 0.0
C641 C 0.32495 0.40356 0.34054 0.0
C642 C 0.30216 0.44517 0.34369 0.0
C643 C 0.28712 0.42003 0.34534 0.0
C644 C 0.2984 0.39943 0.34372 0.0
C645 C 0.3405 0.42882 0.3406 0.0
C646 C 0.3292 0.44955 0.34224 0.0
C647 C 0.33531 0.38122 0.33399 0.0
H648 H 0.24874 0.18755 0.32885 0.0
H649 H 0.24578 0.2256 0.30932 0.0
H650 H 0.24524 0.18398 0.23186 0.0
H651 H 0.24868 0.14593 0.2514 0.0
H652 H 0.26618 0.41583 0.346 0.0
H653 H 0.28596 0.38006 0.34355 0.0
H654 H 0.36103 0.43231 0.33812 0.0
H655 H 0.3413 0.46877 0.34115 0.0
Dy656 Dy 0.55457 0.53016 0.03256 0.0
Dy657 Dy 0.52991 0.58105 0.04115 0.0
C658 C 0.49624 0.52484 0.04765 0.0
O659 O 0.54665 0.54007 0.99186 0.0
O660 O 0.51387 0.55902 0.00047 0.0
O661 O 0.55034 0.49037 0.0148 0.0
O662 O 0.58506 0.5117 0.04232 0.0
O663 O 0.56572 0.59318 0.02213 0.0
O664 O 0.58863 0.56515 0.03479 0.0
O665 O 0.55066 0.58075 0.08131 0.0
O666 O 0.55414 0.53879 0.07604 0.0
O667 O 0.53639 0.62192 0.0556 0.0
O668 O 0.49905 0.59955 0.03288 0.0
C669 C 0.52668 0.54871 0.98361 0.0
O670 O 0.51161 0.51491 0.0337 0.0
O671 O 0.50166 0.54993 0.05634 0.0
C672 C 0.56769 0.46686 0.04496 0.0
C673 C 0.56031 0.42488 0.07402 0.0
C674 C 0.57871 0.44893 0.08437 0.0
C675 C 0.58236 0.46961 0.07005 0.0
C676 C 0.54946 0.4428 0.0345 0.0
C677 C 0.54575 0.42213 0.04885 0.0
C678 C 0.57111 0.48892 0.0298 0.0
C679 C 0.5878 0.58694 0.02649 0.0
C680 C 0.55571 0.5609 0.09106 0.0
C681 C 0.51709 0.64202 0.02437 0.0
C682 C 0.52562 0.67993 0.99072 0.0
C683 C 0.52901 0.65516 0.98294 0.0
C684 C 0.52486 0.63646 0.99959 0.0
C685 C 0.51354 0.66659 0.03224 0.0
C686 C 0.51776 0.68538 0.01559 0.0
C687 C 0.51437 0.62275 0.04248 0.0
H688 H 0.59061 0.45172 0.10345 0.0
H689 H 0.59673 0.48777 0.07874 0.0
H690 H 0.53787 0.43996 0.01524 0.0
H691 H 0.53117 0.40407 0.0403 0.0
H692 H 0.53544 0.65037 0.96417 0.0
H693 H 0.52807 0.61773 0.99327 0.0
H694 H 0.50775 0.67132 0.05136 0.0
H695 H 0.51469 0.70412 0.02212 0.0
Dy696 Dy 0.80018 0.33275 0.26675 0.0
Dy697 Dy 0.79237 0.28103 0.29578 0.0
C698 C 0.78421 0.33315 0.32465 0.0
O699 O 0.84058 0.33683 0.28817 0.0
O700 O 0.83637 0.29515 0.29627 0.0
O701 O 0.81354 0.37456 0.27079 0.0
O702 O 0.79196 0.35172 0.2337 0.0
O703 O 0.79483 0.26854 0.25342 0.0
O704 O 0.81657 0.30661 0.24071 0.0
O705 O 0.75132 0.28596 0.28622 0.0
O706 O 0.76006 0.30627 0.25075 0.0
O707 O 0.77282 0.24037 0.29448 0.0
O708 O 0.80247 0.26129 0.32749 0.0
C709 C 0.8511 0.31865 0.29524 0.0
O710 O 0.77989 0.33951 0.30135 0.0
O711 O 0.79378 0.3135 0.32786 0.0
C712 C 0.7811 0.3901 0.2495 0.0
C713 C 0.74567 0.42042 0.25767 0.0
C714 C 0.73862 0.39395 0.26008 0.0
C715 C 0.75618 0.37899 0.25613 0.0
C716 C 0.78813 0.41635 0.24667 0.0
C717 C 0.77056 0.43139 0.25068 0.0
C718 C 0.80037 0.37482 0.24807 0.0
C719 C 0.80878 0.28112 0.23727 0.0
C720 C 0.74301 0.29392 0.26461 0.0
C721 C 0.80193 0.21831 0.31152 0.0
C722 C 0.82864 0.17957 0.3041 0.0
C723 C 0.8362 0.20245 0.29316 0.0
C724 C 0.82293 0.22159 0.29678 0.0
C725 C 0.79424 0.19557 0.32242 0.0
C726 C 0.80744 0.17632 0.31871 0.0
C727 C 0.78808 0.23857 0.31525 0.0
H728 H 0.71982 0.38495 0.26579 0.0
H729 H 0.75051 0.35884 0.25885 0.0
H730 H 0.80736 0.42532 0.24183 0.0
H731 H 0.77651 0.45163 0.24838 0.0
H732 H 0.85216 0.20542 0.28149 0.0
H733 H 0.82902 0.23896 0.28801 0.0
H734 H 0.77806 0.1927 0.33382 0.0
H735 H 0.80127 0.15904 0.32758 0.0
Dy736 Dy 0.05258 0.57168 0.52304 0.0
Dy737 Dy 0.06489 0.54226 0.57188 0.0
C738 C 0.06557 0.51607 0.51255 0.0
O739 O 0.01451 0.55662 0.53706 0.0
O740 O 0.02368 0.52216 0.55323 0.0
O741 O 0.02726 0.57425 0.48867 0.0
O742 O 0.06194 0.60601 0.50486 0.0
O743 O 0.04545 0.57235 0.58744 0.0
O744 O 0.06086 0.60064 0.56015 0.0
O745 O 0.10247 0.57091 0.56818 0.0
O746 O 0.0944 0.57185 0.52396 0.0
O747 O 0.08272 0.54585 0.61229 0.0
O748 O 0.06188 0.50793 0.59008 0.0
C749 C 1.00675 0.53354 0.5435 0.0
O750 O 0.05278 0.53188 0.50357 0.0
O751 O 0.07584 0.51941 0.53758 0.0
C752 C 0.05143 0.59576 0.45924 0.0
C753 C 0.07041 0.59594 0.41078 0.0
C754 C 0.07266 0.5767 0.42605 0.0
C755 C 0.06339 0.57671 0.45016 0.0
C756 C 0.04872 0.61483 0.44404 0.0
C757 C 0.05815 0.6149 0.41979 0.0
C758 C 0.04301 0.59608 0.48513 0.0
C759 C 0.05106 0.59599 0.58183 0.0
C760 C 0.11074 0.57576 0.54584 0.0
C761 C 0.05196 0.51919 0.63248 0.0
C762 C 0.01781 0.52883 0.66816 0.0
C763 C 1.0088 0.5222 0.64092 0.0
C764 C 0.02563 0.51733 0.62335 0.0
C765 C 0.06078 0.52434 0.65969 0.0
C766 C 0.04373 0.52893 0.67748 0.0
C767 C 0.07071 0.52181 0.61349 0.0
H768 H 0.08151 0.56152 0.4193 0.0
H769 H 0.06569 0.56193 0.46183 0.0
H770 H 0.03964 0.62973 0.45105 0.0
H771 H 0.05626 0.62993 0.40834 0.0
H772 H 0.98922 0.52239 0.63286 0.0
H773 H 0.01845 0.51395 0.60242 0.0
H774 H 0.08115 0.52628 0.66707 0.0
H775 H 0.05115 0.53354 0.6984 0.0
Dy776 Dy 0.81721 0.7993 0.29431 0.0
Dy777 Dy 0.76551 0.82239 0.28921 0.0
C778 C 0.82052 0.85629 0.27879 0.0
O779 O 0.81022 0.80973 0.33625 0.0
O780 O 0.79035 0.84134 0.32777 0.0
O781 O 0.85775 0.80329 0.31007 0.0
O782 O 0.83537 0.76907 0.28236 0.0
O783 O 0.75653 0.78991 0.31207 0.0
O784 O 0.78165 0.76582 0.29401 0.0
O785 O 0.76296 0.7955 0.25151 0.0
O786 O 0.80681 0.80012 0.25133 0.0
O787 O 0.7244 0.81549 0.27426 0.0
O788 O 0.74539 0.85148 0.29985 0.0
C789 C 0.8024 0.83027 0.34443 0.0
O790 O 0.83188 0.84142 0.29135 0.0
O791 O 0.79491 0.85024 0.27165 0.0
C792 C 0.88076 0.78462 0.27963 0.0
C793 C 0.9232 0.78637 0.25039 0.0
C794 C 0.89926 0.78935 0.23865 0.0
C795 C 0.87823 0.7885 0.25314 0.0
C796 C 0.90481 0.78247 0.29159 0.0
C797 C 0.9258 0.7834 0.2772 0.0
C798 C 0.85852 0.78226 0.29493 0.0
C799 C 0.76106 0.76742 0.30545 0.0
C800 C 0.78266 0.79333 0.2389 0.0
C801 C 0.70206 0.83155 0.30625 0.0
C802 C 0.66135 0.81764 0.337 0.0
C803 C 0.68629 0.81426 0.34457 0.0
C804 C 0.70643 0.82116 0.32934 0.0
C805 C 0.67749 0.83553 0.2989 0.0
C806 C 0.65732 0.82871 0.31418 0.0
C807 C 0.72244 0.83625 0.28891 0.0
H808 H 0.89648 0.79156 0.21808 0.0
H809 H 0.85986 0.79041 0.24353 0.0
H810 H 0.90729 0.77974 0.31204 0.0
H811 H 0.94409 0.78163 0.28711 0.0
H812 H 0.69001 0.80551 0.36179 0.0
H813 H 0.72526 0.81779 0.33524 0.0
H814 H 0.67375 0.84344 0.2811 0.0
H815 H 0.63849 0.83194 0.30799 0.0
Dy816 Dy 0.81027 0.28106 0.7592 0.0
Dy817 Dy 0.7745 0.29478 0.80387 0.0
C818 C 0.81984 0.3382 0.78834 0.0
O819 O 0.83625 0.28734 0.79776 0.0
O820 O 0.80502 0.2793 0.82534 0.0
O821 O 0.84616 0.28827 0.74185 0.0
O822 O 0.81435 0.2535 0.72685 0.0
O823 O 0.75214 0.25782 0.77784 0.0
O824 O 0.78869 0.24498 0.77239 0.0
O825 O 0.75763 0.30794 0.76806 0.0
O826 O 0.7747 0.28676 0.73551 0.0
O827 O 0.74824 0.28176 0.83143 0.0
O828 O 0.75972 0.32248 0.8274 0.0
C829 C 0.82941 0.2824 0.82066 0.0
O830 O 0.81719 0.32397 0.76508 0.0
O831 O 0.80991 0.32829 0.80808 0.0
C832 C 0.83743 0.27507 0.69588 0.0
C833 C 0.83778 0.29647 0.64907 0.0
C834 C 0.86133 0.30034 0.66618 0.0
C835 C 0.86116 0.28962 0.68938 0.0
C836 C 0.81422 0.26973 0.67786 0.0
C837 C 0.81443 0.28027 0.65463 0.0
C838 C 0.83646 0.26867 0.72268 0.0
C839 C 0.76316 0.23935 0.77143 0.0
C840 C 0.7584 0.30013 0.74293 0.0
C841 C 0.75834 0.31192 0.87009 0.0
C842 C 0.77778 0.31018 0.92231 0.0
C843 C 0.7505 0.30386 0.914 0.0
C844 C 0.74084 0.30461 0.88795 0.0
C845 C 0.78549 0.32071 0.87906 0.0
C846 C 0.79513 0.31994 0.90503 0.0
C847 C 0.74908 0.30543 0.84164 0.0
H848 H 0.87961 0.31264 0.6622 0.0
H849 H 0.87928 0.29391 0.70298 0.0
H850 H 0.79556 0.25867 0.68231 0.0
H851 H 0.79593 0.27721 0.64198 0.0
H852 H 0.7367 0.29602 0.92684 0.0
H853 H 0.71987 0.29754 0.88124 0.0
H854 H 0.79934 0.32622 0.86547 0.0
H855 H 0.81622 0.325 0.911 0.0
Dy856 Dy 0.78147 0.7727 0.78057 0.0
Dy857 Dy 0.81346 0.82833 0.81591 0.0
C858 C 0.80318 0.77674 0.84186 0.0
O859 O 0.75084 0.7947 0.78579 0.0
O860 O 0.7714 0.82307 0.82334 0.0
O861 O 0.74678 0.74004 0.77324 0.0
O862 O 0.77662 0.74189 0.7477 0.0
O863 O 0.79756 0.83797 0.77735 0.0
O864 O 0.79214 0.7988 0.75119 0.0
O865 O 0.84361 0.81516 0.7945 0.0
O866 O 0.82414 0.7713 0.78545 0.0
O867 O 0.8404 0.8666 0.81973 0.0
O868 O 0.82452 0.8533 0.85387 0.0
C869 C 0.74982 0.81099 0.8068 0.0
O870 O 0.78446 0.76521 0.82212 0.0
O871 O 0.81995 0.79912 0.84111 0.0
C872 C 0.75727 0.70172 0.75929 0.0
C873 C 0.76179 0.65297 0.76906 0.0
C874 C 0.7788 0.676 0.78397 0.0
C875 C 0.77647 0.70007 0.77922 0.0
C876 C 0.74002 0.679 0.74439 0.0
C877 C 0.74228 0.65468 0.74921 0.0
C878 C 0.75562 0.7274 0.75469 0.0
C879 C 0.79474 0.82382 0.75386 0.0
C880 C 0.84494 0.79137 0.78687 0.0
C881 C 0.82822 0.89651 0.84893 0.0
C882 C 0.80976 0.94059 0.84701 0.0
C883 C 0.79203 0.91582 0.84486 0.0
C884 C 0.80117 0.89405 0.8458 0.0
C885 C 0.84612 0.92123 0.85288 0.0
C886 C 0.83694 0.94322 0.85205 0.0
C887 C 0.8372 0.87314 0.84409 0.0
H888 H 0.79458 0.67556 0.79885 0.0
H889 H 0.78996 0.7175 0.79087 0.0
H890 H 0.725 0.68008 0.729 0.0
H891 H 0.72892 0.63729 0.7374 0.0
H892 H 0.771 0.91278 0.84037 0.0
H893 H 0.78701 0.8751 0.84241 0.0
H894 H 0.86709 0.92339 0.8552 0.0
H895 H 0.85108 0.96206 0.85403 0.0
Dy896 Dy 0.56858 0.5626 0.55131 0.0
Dy897 Dy 0.51243 0.52774 0.52119 0.0
C898 C 0.55974 0.54585 0.4891 0.0
O899 O 0.55234 0.5929 0.53395 0.0
O900 O 0.50921 0.5688 0.52118 0.0
O901 O 0.60904 0.58435 0.55198 0.0
O902 O 0.59329 0.5797 0.58855 0.0
O903 O 0.51075 0.52919 0.56488 0.0
O904 O 0.53923 0.56927 0.5771 0.0
O905 O 0.53526 0.49842 0.52642 0.0
O906 O 0.56541 0.52207 0.56144 0.0
O907 O 0.47072 0.51269 0.52052 0.0
O908 O 0.48904 0.5005 0.4874 0.0
C909 C 0.5277 0.59117 0.52457 0.0
O910 O 0.57545 0.5469 0.51088 0.0
O911 O 0.53479 0.54386 0.48995 0.0
C912 C 0.6352 0.57351 0.58585 0.0
C913 C 0.66971 0.54212 0.59019 0.0
C914 C 0.67628 0.56441 0.57811 0.0
C915 C 0.65919 0.58 0.57604 0.0
C916 C 0.62956 0.5524 0.59973 0.0
C917 C 0.64671 0.53692 0.60193 0.0
C918 C 0.61447 0.58552 0.57745 0.0
C919 C 0.52089 0.55021 0.5826 0.0
C920 C 0.5531 0.49949 0.54658 0.0
C921 C 0.44815 0.5094 0.47873 0.0
C922 C 0.41354 0.53794 0.46372 0.0
C923 C 0.40403 0.51407 0.47243 0.0
C924 C 0.42131 0.49992 0.47998 0.0
C925 C 0.45701 0.53121 0.46656 0.0
C926 C 0.43971 0.54529 0.45888 0.0
C927 C 0.46701 0.5012 0.49602 0.0
H928 H 0.69372 0.56885 0.56859 0.0
H929 H 0.66386 0.59605 0.56516 0.0
H930 H 0.61118 0.54683 0.60754 0.0
H931 H 0.64134 0.52016 0.61174 0.0
H932 H 0.38399 0.50787 0.47647 0.0
H933 H 0.41421 0.4832 0.48944 0.0
H934 H 0.47774 0.53889 0.46548 0.0
H935 H 0.44743 0.56338 0.45179 0.0
Dy936 Dy 0.02926 0.54697 0.0425 0.0
Dy937 Dy 0.08178 0.55669 0.01377 0.0
C938 C 0.02988 0.56487 0.98575 0.0
O939 O 0.0332 0.50628 0.03117 0.0
O940 O 0.05695 0.51578 0.99758 0.0
O941 O 0.98799 0.52902 0.04246 0.0
O942 O 0.01116 0.55612 0.07667 0.0
O943 O 0.0893 0.53431 0.04494 0.0
O944 O 0.06206 0.54561 0.07287 0.0
O945 O 0.08649 0.59373 0.04216 0.0
O946 O 0.04303 0.59049 0.04366 0.0
O947 O 0.12377 0.57237 0.01651 0.0
O948 O 0.10088 0.55071 0.97943 0.0
C949 C 0.04322 0.49853 0.01032 0.0
O950 O 0.01673 0.54934 0.00028 0.0
O951 O 0.05547 0.57428 0.99093 0.0
C952 C 0.96769 0.5575 0.06556 0.0
C953 C 0.93064 0.58654 0.06806 0.0
C954 C 0.94023 0.58089 0.04425 0.0
C955 C 0.9587 0.5666 0.04304 0.0
C956 C 0.95847 0.56338 0.08938 0.0
C957 C 0.94021 0.57783 0.09067 0.0
C958 C 0.98765 0.54307 0.06496 0.0
C959 C 0.082 0.53641 0.06822 0.0
C960 C 0.06766 0.60465 0.04723 0.0
C961 C 0.14004 0.54087 0.99449 0.0
C962 C 0.17117 0.50854 0.00925 0.0
C963 C 0.18287 0.53326 0.0032 0.0
C964 C 0.16741 0.54935 0.99601 0.0
C965 C 0.12822 0.51563 0.99895 0.0
C966 C 0.14362 0.4996 0.0062 0.0
C967 C 0.12424 0.55948 0.99345 0.0
H968 H 0.9331 0.58704 0.0264 0.0
H969 H 0.96588 0.56264 0.0245 0.0
H970 H 0.96553 0.5569 0.10707 0.0
H971 H 0.93366 0.58225 0.10946 0.0
H972 H 0.20405 0.54054 0.00498 0.0
H973 H 0.17689 0.56886 0.99298 0.0
H974 H 0.10712 0.50883 0.99837 0.0
H975 H 0.13397 0.48085 0.01096 0.0
H976 H 0.9803 0.17506 0.97631 0.0
H977 H 0.04516 0.22699 0.03084 0.0
H978 H 0.05557 0.18996 0.04764 0.0
H979 H 0.04757 0.14217 0.04601 0.0
H980 H 0.98067 0.09043 0.99389 0.0
H981 H 0.96991 0.12745 0.97749 0.0
C982 C 0.99656 0.17836 0.99206 0.0
C983 C 0.01189 0.20422 0.0021 0.0
C984 C 1.00227 0.15671 0.00215 0.0
C985 C 0.03281 0.20765 0.02264 0.0
C986 C 0.03892 0.18631 0.03225 0.0
C987 C 0.03053 0.13893 0.03117 0.0
C988 C 0.01513 0.11309 0.02126 0.0
C989 C 0.024 0.16065 0.02203 0.0
C990 C 0.99299 0.10976 0.00213 0.0
C991 C 0.98682 0.13109 0.99257 0.0
H992 H 0.1802 0.80743 0.14002 0.0
H993 H 0.15645 0.85453 0.20172 0.0
H994 H 0.19253 0.85136 0.23318 0.0
H995 H 0.22927 0.83349 0.24422 0.0
H996 H 0.25315 0.78502 0.18385 0.0
H997 H 0.21886 0.79042 0.15112 0.0
C998 C 0.18323 0.81733 0.16024 0.0
C999 C 0.16557 0.83133 0.16839 0.0
C1000 C 0.20394 0.81493 0.17866 0.0
C1001 C 0.16964 0.84366 0.19483 0.0
C1002 C 0.19028 0.84179 0.21293 0.0
C1003 C 0.22718 0.82413 0.2239 0.0
C1004 C 0.2439 0.80873 0.21674 0.0
C1005 C 0.20728 0.82715 0.20523 0.0
C1006 C 0.24063 0.7969 0.19015 0.0
C1007 C 0.22096 0.80001 0.17134 0.0
H1008 H 0.55938 0.88945 0.47178 0.0
H1009 H 0.49293 0.85945 0.51068 0.0
H1010 H 0.49258 0.90414 0.52765 0.0
H1011 H 0.51018 0.9525 0.52938 0.0
H1012 H 0.57764 0.98059 0.49079 0.0
H1013 H 0.57827 0.93626 0.47568 0.0
C1014 C 0.54493 0.89255 0.48425 0.0
C1015 C 0.5262 0.87084 0.48986 0.0
C1016 C 0.54478 0.91824 0.49372 0.0
C1017 C 0.5078 0.87556 0.50621 0.0
C1018 C 0.50744 0.90123 0.51567 0.0
C1019 C 0.52491 0.94888 0.51756 0.0
C1020 C 0.54368 0.97022 0.51106 0.0
C1021 C 0.52557 0.92285 0.50917 0.0
C1022 C 0.56288 0.96489 0.49612 0.0
C1023 C 0.56332 0.9394 0.48744 0.0
H1024 H 0.52699 0.27857 0.70722 0.0
H1025 H 0.50492 0.326 0.65255 0.0
H1026 H 0.4639 0.32347 0.67134 0.0
H1027 H 0.43464 0.30794 0.70415 0.0
H1028 H 0.45915 0.26141 0.75861 0.0
H1029 H 0.49889 0.26347 0.73887 0.0
C1030 C 0.51334 0.28847 0.69923 0.0
C1031 C 0.51923 0.30258 0.67849 0.0
C1032 C 0.49013 0.28704 0.71014 0.0
C1033 C 0.50098 0.31499 0.66848 0.0
C1034 C 0.47755 0.31359 0.67929 0.0
C1035 C 0.44876 0.29836 0.71172 0.0
C1036 C 0.44365 0.28426 0.73271 0.0
C1037 C 0.47197 0.29976 0.70029 0.0
C1038 C 0.46216 0.27189 0.74217 0.0
C1039 C 0.48504 0.2732 0.73101 0.0
H1040 H 0.04344 0.85774 0.69281 0.0
H1041 H 0.03745 0.79639 0.62793 0.0
H1042 H 0.04241 0.82756 0.59738 0.0
H1043 H 0.04923 0.87224 0.58893 0.0
H1044 H 0.05351 0.93365 0.6532 0.0
H1045 H 0.04894 0.90262 0.68397 0.0
C1046 C 0.04317 0.85119 0.67198 0.0
C1047 C 0.04009 0.82468 0.66278 0.0
C1048 C 0.04594 0.86929 0.65433 0.0
C1049 C 0.03974 0.8166 0.63566 0.0
C1050 C 0.04263 0.83445 0.61811 0.0
C1051 C 0.04882 0.87889 0.60959 0.0
C1052 C 0.05181 0.90544 0.61855 0.0
C1053 C 0.04578 0.86085 0.6272 0.0
C1054 C 0.05172 0.91352 0.64562 0.0
C1055 C 0.0489 0.8957 0.66329 0.0
H1056 H 0.48086 0.8613 0.80899 0.0
H1057 H 0.4759 0.79763 0.85241 0.0
H1058 H 0.42776 0.78604 0.84339 0.0
H1059 H 0.38659 0.79435 0.82352 0.0
H1060 H 0.39233 0.85994 0.78257 0.0
H1061 H 0.44015 0.87029 0.79035 0.0
C1062 C 0.4693 0.84475 0.81635 0.0
C1063 C 0.48225 0.83024 0.83119 0.0
C1064 C 0.44151 0.83858 0.81166 0.0
C1065 C 0.46669 0.80914 0.84088 0.0
C1066 C 0.43905 0.80251 0.83574 0.0
C1067 C 0.39828 0.81094 0.81632 0.0
C1068 C 0.3855 0.8263 0.80243 0.0
C1069 C 0.42615 0.81715 0.82124 0.0
C1070 C 0.40127 0.84777 0.79342 0.0
C1071 C 0.42879 0.8537 0.7978 0.0
H1072 H 0.52867 0.21161 0.12658 0.0
H1073 H 0.50481 0.16307 0.1847 0.0
H1074 H 0.50542 0.1247 0.15424 0.0
H1075 H 0.51468 0.10499 0.11179 0.0
H1076 H 0.53989 0.15368 0.05413 0.0
H1077 H 0.53677 0.19165 0.08359 0.0
C1078 C 0.52331 0.19262 0.1325 0.0
C1079 C 0.51667 0.19037 0.158 0.0
C1080 C 0.52414 0.17055 0.11496 0.0
C1081 C 0.51003 0.16551 0.16528 0.0
C1082 C 0.51042 0.1435 0.14785 0.0
C1083 C 0.51936 0.12386 0.10554 0.0
C1084 C 0.52758 0.12632 0.08065 0.0
C1085 C 0.51777 0.14579 0.12275 0.0
C1086 C 0.53359 0.15106 0.0731 0.0
C1087 C 0.5318 0.17287 0.08998 0.0
H1088 H 0.12925 0.31972 0.30992 0.0
H1089 H 0.16601 0.36546 0.38575 0.0
H1090 H 0.20898 0.36252 0.37577 0.0
H1091 H 0.23684 0.34602 0.3462 0.0
H1092 H 0.20041 0.29942 0.2707 0.0
H1093 H 0.15748 0.30372 0.27982 0.0
C1094 C 0.14665 0.32917 0.32421 0.0
C1095 C 0.14395 0.34281 0.34867 0.0
C1096 C 0.17177 0.3272 0.31845 0.0
C1097 C 0.16705 0.35475 0.36682 0.0
C1098 C 0.19186 0.35309 0.36113 0.0
C1099 C 0.21959 0.3369 0.33162 0.0
C1100 C 0.22231 0.32238 0.30769 0.0
C1101 C 0.19456 0.33922 0.3371 0.0
C1102 C 0.19934 0.31072 0.28928 0.0
C1103 C 0.17456 0.31315 0.29451 0.0
H1104 H 0.95252 0.02988 0.18184 0.0
H1105 H 0.02609 0.07914 0.22506 0.0
H1106 H 0.04446 0.08267 0.18369 0.0
H1107 H 0.03981 0.071 0.13496 0.0
H1108 H 0.96677 0.01962 0.09268 0.0
H1109 H 0.94807 0.01779 0.13378 0.0
C1110 C 0.97256 0.04147 0.18225 0.0
C1111 C 0.98785 0.05429 0.20658 0.0
C1112 C 0.98313 0.04304 0.15844 0.0
C1113 C 0.01387 0.06903 0.20666 0.0
C1114 C 0.02438 0.07109 0.18297 0.0
C1115 C 0.01974 0.05958 0.13477 0.0
C1116 C 1.00469 0.04554 0.1107 0.0
C1117 C 1.00922 0.05812 0.15871 0.0
C1118 C 0.97884 0.03055 0.11087 0.0
C1119 C 0.96809 0.0295 0.13439 0.0
H1120 H 0.28909 0.75018 0.51421 0.0
H1121 H 0.30509 0.69118 0.4586 0.0
H1122 H 0.29143 0.71129 0.42197 0.0
H1123 H 0.27438 0.74489 0.40572 0.0
H1124 H 0.25715 0.80369 0.46039 0.0
H1125 H 0.27198 0.78441 0.4976 0.0
C1126 C 0.28978 0.7419 0.49407 0.0
C1127 C 0.29805 0.71925 0.48906 0.0
C1128 C 0.28149 0.75334 0.47303 0.0
C1129 C 0.2987 0.70857 0.46292 0.0
C1130 C 0.29086 0.72 0.44197 0.0
C1131 C 0.27342 0.75325 0.42576 0.0
C1132 C 0.26427 0.77536 0.43036 0.0
C1133 C 0.28195 0.74216 0.44681 0.0
C1134 C 0.264 0.78654 0.45644 0.0
C1135 C 0.27248 0.77555 0.47765 0.0
H1136 H 0.60919 0.98374 0.67413 0.0
H1137 H 0.68368 0.01542 0.64831 0.0
H1138 H 0.66111 0.02781 0.61041 0.0
H1139 H 0.62131 0.03654 0.58978 0.0
H1140 H 0.5468 1.00543 0.61588 0.0
H1141 H 0.5685 0.98664 0.64932 0.0
C1142 C 0.62041 0.99269 0.65976 0.0
C1143 C 0.64803 0.99916 0.66425 0.0
C1144 C 0.60745 1.00078 0.63882 0.0
C1145 C 0.66239 0.01035 0.64536 0.0
C1146 C 0.64953 0.01784 0.62394 0.0
C1147 C 0.60976 0.02546 0.60262 0.0
C1148 C 0.58261 0.02283 0.60081 0.0
C1149 C 0.62226 0.0144 0.6214 0.0
C1150 C 0.56782 0.00805 0.61723 0.0
C1151 C 0.58017 0.99719 0.63621 0.0
H1152 H 0.31841 0.35231 0.96836 0.0
H1153 H 0.25868 0.39094 0.9499 0.0
H1154 H 0.25488 0.37418 0.90331 0.0
H1155 H 0.26945 0.35067 0.86746 0.0
H1156 H 0.32918 0.31156 0.88346 0.0
H1157 H 0.33201 0.32631 0.93109 0.0
C1158 C 0.30439 0.35674 0.95412 0.0
C1159 C 0.28901 0.3731 0.96274 0.0
C1160 C 0.30247 0.34721 0.92682 0.0
C1161 C 0.271 0.37871 0.94394 0.0
C1162 C 0.26878 0.36913 0.91718 0.0
C1163 C 0.28324 0.34534 0.88122 0.0
C1164 C 0.29933 0.33027 0.87171 0.0
C1165 C 0.28469 0.35379 0.90836 0.0
C1166 C 0.31664 0.32328 0.89013 0.0
C1167 C 0.31825 0.33172 0.91741 0.0
H1168 H 0.01658 0.01538 0.3664 0.0
H1169 H 0.98819 0.08353 0.37245 0.0
H1170 H 0.99812 0.08989 0.4207 0.0
H1171 H 0.01457 0.0758 0.46126 0.0
H1172 H 0.03994 1.00581 0.45503 0.0
H1173 H 0.03137 1.00038 0.40687 0.0
C1174 C 0.01271 0.03172 0.37827 0.0
C1175 C 1.00189 0.04912 0.3658 0.0
C1176 C 0.01779 0.03483 0.40602 0.0
C1177 C 0.99655 0.0699 0.38152 0.0
C1178 C 1.00223 0.07354 0.40912 0.0
C1179 C 0.01824 0.05936 0.44936 0.0
C1180 C 0.02799 0.04128 0.46181 0.0
C1181 C 0.01279 0.05608 0.4216 0.0
C1182 C 0.03235 0.01995 0.44605 0.0
C1183 C 0.02754 0.01689 0.41846 0.0
H1184 H 0.3298 0.68595 0.66344 0.0
H1185 H 0.35825 0.74805 0.61995 0.0
H1186 H 0.35525 0.77991 0.65688 0.0
H1187 H 0.33819 0.78932 0.69866 0.0
H1188 H 0.30697 0.72615 0.73998 0.0
H1189 H 0.31719 0.69561 0.70664 0.0
C1190 C 0.33592 0.70648 0.66217 0.0
C1191 C 0.34379 0.71452 0.63876 0.0
C1192 C 0.333 0.72451 0.68287 0.0
C1193 C 0.3519 0.74127 0.63766 0.0
C1194 C 0.34994 0.7595 0.65868 0.0
C1195 C 0.33383 0.7689 0.70043 0.0
C1196 C 0.32127 0.75996 0.72142 0.0
C1197 C 0.33939 0.75122 0.68088 0.0
C1198 C 0.31605 0.7335 0.72367 0.0
C1199 C 0.32204 0.71598 0.70471 0.0
H1200 H 0.58853 0.06417 0.77635 0.0
H1201 H 0.65705 0.05188 0.81991 0.0
H1202 H 0.64161 0.06338 0.8614 0.0
H1203 H 0.60851 0.0762 0.8852 0.0
H1204 H 0.5392 0.08699 0.84189 0.0
H1205 H 0.55553 0.07742 0.80027 0.0
C1206 C 0.60012 0.064 0.7949 0.0
C1207 C 0.62384 0.05706 0.79501 0.0
C1208 C 0.59113 0.07055 0.81868 0.0
C1209 C 0.63865 0.05704 0.81924 0.0
C1210 C 0.62989 0.06366 0.84299 0.0
C1211 C 0.59689 0.07629 0.86664 0.0
C1212 C 0.57263 0.08209 0.86656 0.0
C1213 C 0.60611 0.07029 0.8429 0.0
C1214 C 0.55806 0.08277 0.84243 0.0
C1215 C 0.56727 0.0771 0.81866 0.0
H1216 H 0.30413 0.39206 0.15391 0.0
H1217 H 0.29235 0.31654 0.10738 0.0
H1218 H 0.28856 0.29659 0.14734 0.0
H1219 H 0.28836 0.30066 0.19573 0.0
H1220 H 0.29927 0.37653 0.24145 0.0
H1221 H 0.30341 0.39608 0.20163 0.0
C1222 C 0.30088 0.37122 0.15244 0.0
C1223 C 0.2987 0.35588 0.12757 0.0
C1224 C 0.29836 0.35987 0.17543 0.0
C1225 C 0.29422 0.32888 0.12619 0.0
C1226 C 0.29198 0.31744 0.14907 0.0
C1227 C 0.29153 0.32146 0.197 0.0
C1228 C 0.29344 0.337 0.22177 0.0
C1229 C 0.29392 0.33273 0.17383 0.0
C1230 C 0.29762 0.36396 0.22283 0.0
C1231 C 0.30008 0.37524 0.2 0.0
H1232 H 0.25965 0.99516 0.06704 0.0
H1233 H 0.19208 0.92813 0.04631 0.0
H1234 H 0.16394 0.95426 0.06263 0.0
H1235 H 0.15816 0.99689 0.07849 0.0
H1236 H 0.22585 0.06386 0.09936 0.0
H1237 H 0.25452 0.0368 0.08717 0.0
C1238 C 0.23881 0.98623 0.06626 0.0
C1239 C 0.22784 0.95993 0.05515 0.0
C1240 C 0.22283 1.0013 0.07554 0.0
C1241 C 0.2009 0.94845 0.05464 0.0
C1242 C 0.18481 0.96334 0.06391 0.0
C1243 C 0.17925 1.00548 0.08109 0.0
C1244 C 0.18987 0.03239 0.08968 0.0
C1245 C 0.19553 0.98991 0.07387 0.0
C1246 C 0.2172 0.04326 0.09246 0.0
C1247 C 0.23358 0.02783 0.08552 0.0
H1248 H 0.68401 0.67966 0.01409 0.0
H1249 H 0.72246 0.61827 0.01224 0.0
H1250 H 0.68129 0.58703 0.01535 0.0
H1251 H 0.63484 0.57728 0.021 0.0
H1252 H 0.59566 0.63803 0.02179 0.0
H1253 H 0.63642 0.66913 0.01663 0.0
C1254 C 0.68328 0.65941 0.01409 0.0
C1255 C 0.70637 0.65145 0.0132 0.0
C1256 C 0.6594 0.64135 0.0159 0.0
C1257 C 0.70505 0.62505 0.01308 0.0
C1258 C 0.68149 0.6071 0.01493 0.0
C1259 C 0.6352 0.5973 0.01998 0.0
C1260 C 0.6123 0.60531 0.02203 0.0
C1261 C 0.65865 0.61508 0.0168 0.0
C1262 C 0.61303 0.63129 0.02032 0.0
C1263 C 0.63636 0.64915 0.0174 0.0
H1264 H 0.6545 0.47502 0.27083 0.0
H1265 H 0.72033 0.53754 0.312 0.0
H1266 H 0.75001 0.51054 0.30438 0.0
H1267 H 0.75767 0.46966 0.28502 0.0
H1268 H 0.6923 0.40738 0.2427 0.0
H1269 H 0.66216 0.43365 0.25192 0.0
C1270 C 0.67529 0.48262 0.27837 0.0
C1271 C 0.68513 0.50828 0.29199 0.0
C1272 C 0.69242 0.46707 0.27358 0.0
C1273 C 0.71219 0.51788 0.30144 0.0
C1274 C 0.72923 0.50247 0.29703 0.0
C1275 C 0.73686 0.4619 0.27758 0.0
C1276 C 0.72734 0.43659 0.26307 0.0
C1277 C 0.71964 0.47716 0.28285 0.0
C1278 C 0.70019 0.4267 0.25409 0.0
C1279 C 0.68292 0.44176 0.25928 0.0
H1280 H 0.89027 0.46419 0.53316 0.0
H1281 H 0.87749 0.51935 0.48313 0.0
H1282 H 0.92452 0.54111 0.49064 0.0
H1283 H 0.96873 0.54553 0.51278 0.0
H1284 H 0.98165 0.49047 0.56277 0.0
H1285 H 0.93478 0.46765 0.554 0.0
C1286 C 0.89774 0.48084 0.52368 0.0
C1287 C 0.88036 0.49021 0.50772 0.0
C1288 C 0.9247 0.49342 0.52831 0.0
C1289 C 0.89043 0.51176 0.49556 0.0
C1290 C 0.91729 0.52429 0.49992 0.0
C1291 C 0.9613 0.52861 0.52187 0.0
C1292 C 0.97853 0.51984 0.53861 0.0
C1293 C 0.9345 0.51551 0.51658 0.0
C1294 C 0.96871 0.49765 0.5499 0.0
C1295 C 0.94196 0.48458 0.54486 0.0
H1296 H 0.29846 0.07367 0.30822 0.0
H1297 H 0.35669 0.13713 0.35883 0.0
H1298 H 0.32689 0.1646 0.356 0.0
H1299 H 0.28882 0.17295 0.33185 0.0
H1300 H 0.23233 0.11085 0.27794 0.0
H1301 H 0.25681 0.08027 0.28958 0.0
C1302 C 0.30436 0.09329 0.3192 0.0
C1303 C 0.3299 0.10357 0.33327 0.0
C1304 C 0.2876 0.10929 0.31654 0.0
C1305 C 0.33725 0.12894 0.34754 0.0
C1306 C 0.32026 0.14467 0.34585 0.0
C1307 C 0.28128 0.15253 0.32337 0.0
C1308 C 0.25899 0.14417 0.30383 0.0
C1309 C 0.296 0.13543 0.32932 0.0
C1310 C 0.24965 0.11773 0.29278 0.0
C1311 C 0.26369 0.10031 0.29936 0.0
H1312 H 0.33096 0.13676 0.58256 0.0
H1313 H 0.355 0.16959 0.51425 0.0
H1314 H 0.3907 0.14854 0.51469 0.0
H1315 H 0.41265 0.11785 0.53252 0.0
H1316 H 0.38797 0.08567 0.60103 0.0
H1317 H 0.35466 0.10923 0.60221 0.0
C1318 C 0.34408 0.1395 0.56781 0.0
C1319 C 0.34012 0.15449 0.54821 0.0
C1320 C 0.36424 0.12719 0.56804 0.0
C1321 C 0.35759 0.15813 0.52954 0.0
C1322 C 0.3779 0.14598 0.52971 0.0
C1323 C 0.40024 0.11631 0.54794 0.0
C1324 C 0.40256 0.09968 0.56643 0.0
C1325 C 0.38108 0.13003 0.54857 0.0
C1326 C 0.38622 0.09782 0.58618 0.0
C1327 C 0.36727 0.11143 0.58699 0.0
H1328 H 0.66087 0.67817 0.31476 0.0
H1329 H 0.71352 0.63086 0.29991 0.0
H1330 H 0.74935 0.6698 0.29996 0.0
H1331 H 0.76497 0.71737 0.30137 0.0
H1332 H 0.71201 0.76415 0.31779 0.0
H1333 H 0.67736 0.7255 0.32009 0.0
C1334 C 0.68024 0.67638 0.31175 0.0
C1335 C 0.68441 0.65162 0.30711 0.0
C1336 C 0.70077 0.69882 0.31195 0.0
C1337 C 0.70974 0.64968 0.30356 0.0
C1338 C 0.73024 0.67195 0.30345 0.0
C1339 C 0.74592 0.71909 0.30567 0.0
C1340 C 0.74118 0.7437 0.30918 0.0
C1341 C 0.72588 0.69664 0.30718 0.0
C1342 C 0.71638 0.74556 0.31497 0.0
C1343 C 0.6964 0.7234 0.31622 0.0
H1344 H 0.86477 0.45919 0.81842 0.0
H1345 H 0.9096 0.44707 0.75536 0.0
H1346 H 0.88913 0.40013 0.74934 0.0
H1347 H 0.85691 0.36289 0.76097 0.0
H1348 H 0.81378 0.37572 0.82542 0.0
H1349 H 0.8352 0.42218 0.83192 0.0
C1350 C 0.87011 0.44626 0.80339 0.0
C1351 C 0.88837 0.45646 0.78715 0.0
C1352 C 0.8585 0.41952 0.80024 0.0
C1353 C 0.89553 0.43955 0.76809 0.0
C1354 C 0.88376 0.41279 0.76457 0.0
C1355 C 0.85227 0.37592 0.77641 0.0
C1356 C 0.83368 0.36603 0.79253 0.0
C1357 C 0.86495 0.40261 0.78032 0.0
C1358 C 0.82806 0.38294 0.81276 0.0
C1359 C 0.84023 0.40949 0.81648 0.0
H1360 H 0.05933 0.88221 0.05432 0.0
H1361 H 0.09892 0.91994 0.13219 0.0
H1362 H 0.09397 0.96152 0.12235 0.0
H1363 H 0.07721 0.98788 0.09227 0.0
H1364 H 0.03558 0.95013 0.01515 0.0
H1365 H 0.04251 0.90882 0.02401 0.0
C1366 C 0.06702 0.89952 0.06911 0.0
C1367 C 0.0796 0.89746 0.0941 0.0
C1368 C 0.06363 0.92381 0.06347 0.0
C1369 C 0.08911 0.92045 0.11285 0.0
C1370 C 0.08629 0.94448 0.10722 0.0
C1371 C 0.06975 0.9707 0.07726 0.0
C1372 C 0.05584 0.97262 0.05291 0.0
C1373 C 0.0734 0.94651 0.08269 0.0
C1374 C 0.04631 0.94971 0.03405 0.0
C1375 C 0.05027 0.92584 0.03913 0.0
H1376 H 0.93642 0.31514 0.89681 0.0
H1377 H 0.91187 0.23584 0.90975 0.0
H1378 H 0.86863 0.23025 0.88351 0.0
H1379 H 0.83996 0.24698 0.85188 0.0
H1380 H 0.86771 0.32596 0.83838 0.0
H1381 H 0.90737 0.33266 0.86975 0.0
C1382 C 0.92148 0.29668 0.89429 0.0
C1383 C 0.92749 0.27588 0.90508 0.0
C1384 C 0.89724 0.29353 0.8787 0.0
C1385 C 0.90777 0.25221 0.90182 0.0
C1386 C 0.88314 0.24899 0.88655 0.0
C1387 C 0.85453 0.26572 0.85629 0.0
C1388 C 0.85098 0.286 0.84276 0.0
C1389 C 0.87792 0.26931 0.87413 0.0
C1390 C 0.87007 0.31011 0.84844 0.0
C1391 C 0.89277 0.31394 0.86637 0.0
H1392 H 0.56512 0.21196 0.62603 0.0
H1393 H 0.58803 0.24162 0.55599 0.0
H1394 H 0.58267 0.19695 0.53364 0.0
H1395 H 0.57301 0.14887 0.53491 0.0
H1396 H 0.54834 0.12103 0.60542 0.0
H1397 H 0.55304 0.16525 0.62646 0.0
C1398 C 0.56883 0.20879 0.60576 0.0
C1399 C 0.57714 0.23042 0.59287 0.0
C1400 C 0.5656 0.18312 0.59311 0.0
C1401 C 0.58147 0.22556 0.56648 0.0
C1402 C 0.57859 0.19992 0.55376 0.0
C1403 C 0.56871 0.15251 0.55489 0.0
C1404 C 0.56051 0.13125 0.56852 0.0
C1405 C 0.57097 0.17845 0.567 0.0
C1406 C 0.55468 0.13661 0.59429 0.0
C1407 C 0.55738 0.16206 0.60644 0.0
H1408 H 0.55679 0.77366 0.38375 0.0
H1409 H 0.60935 0.80295 0.45727 0.0
H1410 H 0.64621 0.8169 0.43295 0.0
H1411 H 0.66311 0.82219 0.39069 0.0
H1412 H 0.61005 0.79254 0.31745 0.0
H1413 H 0.57373 0.77777 0.34184 0.0
C1414 C 0.57633 0.78294 0.39451 0.0
C1415 C 0.58027 0.78729 0.42231 0.0
C1416 C 0.5973 0.79116 0.38044 0.0
C1417 C 0.60575 0.79936 0.43588 0.0
C1418 C 0.62682 0.80742 0.42198 0.0
C1419 C 0.64365 0.8123 0.38006 0.0
C1420 C 0.63935 0.80871 0.35222 0.0
C1421 C 0.62278 0.80363 0.39424 0.0
C1422 C 0.6139 0.79607 0.33883 0.0
C1423 C 0.59312 0.7874 0.35276 0.0
H1424 H 0.04701 0.24774 0.40003 0.0
H1425 H 0.07445 0.31064 0.46598 0.0
H1426 H 0.07019 0.27958 0.49668 0.0
H1427 H 0.05786 0.23458 0.50508 0.0
H1428 H 0.03098 0.17151 0.43928 0.0
H1429 H 0.03558 0.20253 0.40846 0.0
C1430 C 0.05211 0.25465 0.42112 0.0
C1431 C 0.06102 0.28155 0.4306 0.0
C1432 C 0.0496 0.23662 0.43879 0.0
C1433 C 0.06753 0.2901 0.45803 0.0
C1434 C 0.0651 0.27233 0.47567 0.0
C1435 C 0.05329 0.22757 0.484 0.0
C1436 C 0.04398 0.20066 0.47464 0.0
C1437 C 0.05609 0.24554 0.4663 0.0
C1438 C 0.03779 0.19207 0.44717 0.0
C1439 C 0.04057 0.20982 0.42947 0.0
H1440 H 0.62979 0.28601 0.20518 0.0
H1441 H 0.60772 0.27857 0.28236 0.0
H1442 H 0.6533 0.28085 0.29962 0.0
H1443 H 0.70026 0.28548 0.29267 0.0
H1444 H 0.72068 0.29355 0.21484 0.0
H1445 H 0.6753 0.2903 0.19823 0.0
C1446 C 0.6348 0.28491 0.22584 0.0
C1447 C 0.61505 0.28217 0.24237 0.0
C1448 C 0.66103 0.28621 0.2356 0.0
C1449 C 0.6223 0.28077 0.26908 0.0
C1450 C 0.64847 0.282 0.27897 0.0
C1451 C 0.6947 0.28623 0.27203 0.0
C1452 C 0.71423 0.28968 0.25511 0.0
C1453 C 0.66813 0.2847 0.2624 0.0
C1454 C 0.70643 0.29096 0.22848 0.0
C1455 C 0.68033 0.28913 0.21886 0.0
H1456 H 0.56964 0.91446 0.9501 0.0
H1457 H 0.56855 0.95148 0.88094 0.0
H1458 H 0.5609 0.98936 0.90667 0.0
H1459 H 0.55344 0.01201 0.94877 0.0
H1460 H 0.55672 0.97598 0.01843 0.0
H1461 H 0.56446 0.93809 0.99272 0.0
C1462 C 0.56788 0.93085 0.94066 0.0
C1463 C 0.56966 0.92985 0.91346 0.0
C1464 C 0.56369 0.9529 0.95572 0.0
C1465 C 0.5674 0.95151 0.90176 0.0
C1466 C 0.56289 0.97326 0.91649 0.0
C1467 C 0.55582 0.99587 0.95834 0.0
C1468 C 0.55431 0.99695 0.98558 0.0
C1469 C 0.56079 0.97415 0.94345 0.0
C1470 C 0.5578 0.97586 0.99757 0.0
C1471 C 0.5622 0.95406 0.98283 0.0
H1472 H 0.95591 0.79792 0.74673 0.0
H1473 H 0.94457 0.72443 0.7744 0.0
H1474 H 0.902 0.72697 0.78639 0.0
H1475 H 0.86731 0.75025 0.78962 0.0
H1476 H 0.88046 0.8253 0.76508 0.0
H1477 H 0.92214 0.82189 0.75149 0.0
C1478 C 0.94416 0.78244 0.75538 0.0
C1479 C 0.95379 0.76096 0.7595 0.0
C1480 C 0.91962 0.78427 0.7629 0.0
C1481 C 0.93804 0.74129 0.77098 0.0
C1482 C 0.91348 0.74268 0.77784 0.0
C1483 C 0.87924 0.76581 0.78121 0.0
C1484 C 0.87037 0.788 0.77841 0.0
C1485 C 0.90394 0.76408 0.77396 0.0
C1486 C 0.88653 0.80801 0.76769 0.0
C1487 C 0.91053 0.80608 0.75981 0.0
H1488 H 0.06947 0.07424 0.87822 0.0
H1489 H 0.13376 0.03994 0.88956 0.0
H1490 H 0.124 0.03366 0.93405 0.0
H1491 H 0.09631 0.03746 0.96989 0.0
H1492 H 0.03161 0.07096 0.9563 0.0
H1493 H 0.04262 0.07814 0.91294 0.0
C1494 C 0.08145 0.06537 0.89032 0.0
C1495 C 0.10233 0.05758 0.88037 0.0
C1496 C 0.07567 0.06173 0.91574 0.0
C1497 C 0.1175 0.04609 0.89656 0.0
C1498 C 0.11195 0.04254 0.92209 0.0
C1499 C 0.08482 0.0465 0.95747 0.0
C1500 C 0.06308 0.05355 0.96643 0.0
C1501 C 0.09102 0.05027 0.93196 0.0
C1502 C 0.04828 0.06508 0.94994 0.0
C1503 C 0.05456 0.06926 0.92505 0.0
H1504 H 0.80548 0.35049 0.5556 0.0
H1505 H 0.85193 0.41863 0.60983 0.0
H1506 H 0.86468 0.39114 0.63993 0.0
H1507 H 0.85933 0.34803 0.65242 0.0
H1508 H 0.81242 0.27998 0.59846 0.0
H1509 H 0.80332 0.30725 0.56636 0.0
C1510 C 0.81848 0.35933 0.57396 0.0
C1511 C 0.82745 0.38652 0.58071 0.0
C1512 C 0.82567 0.34347 0.59111 0.0
C1513 C 0.84461 0.39772 0.60433 0.0
C1514 C 0.85192 0.38204 0.62152 0.0
C1515 C 0.84773 0.33912 0.63333 0.0
C1516 C 0.83651 0.31209 0.62776 0.0
C1517 C 0.84219 0.35492 0.61529 0.0
C1518 C 0.82111 0.3008 0.60318 0.0
C1519 C 0.81585 0.31636 0.58491 0.0
H1520 H 0.49481 0.06827 0.37268 0.0
H1521 H 0.42316 0.07165 0.40342 0.0
H1522 H 0.4443 0.07221 0.44805 0.0
H1523 H 0.48204 0.06822 0.47753 0.0
H1524 H 0.55307 0.06386 0.44578 0.0
H1525 H 0.5331 0.06725 0.40225 0.0
C1526 C 0.48379 0.06929 0.38912 0.0
C1527 C 0.45736 0.06957 0.38469 0.0
C1528 C 0.49588 0.06925 0.41451 0.0
C1529 C 0.44353 0.07129 0.40629 0.0
C1530 C 0.45556 0.07151 0.43179 0.0
C1531 C 0.49324 0.06822 0.46114 0.0
C1532 C 0.51891 0.06547 0.46488 0.0
C1533 C 0.48156 0.06994 0.43601 0.0
C1534 C 0.53319 0.0657 0.44346 0.0
C1535 C 0.52181 0.06764 0.41852 0.0
H1536 H 0.74429 0.72431 0.12626 0.0
H1537 H 0.82232 0.7639 0.11372 0.0
H1538 H 0.83032 0.78978 0.15807 0.0
H1539 H 0.81603 0.79859 0.20178 0.0
H1540 H 0.73694 0.76014 0.21269 0.0
H1541 H 0.72844 0.73646 0.16766 0.0
C1542 C 0.76293 0.73887 0.13311 0.0
C1543 C 0.78275 0.74208 0.11683 0.0
C1544 C 0.76726 0.75372 0.15845 0.0
C1545 C 0.8067 0.76118 0.12583 0.0
C1546 C 0.81134 0.77581 0.15127 0.0
C1547 C 0.79688 0.78518 0.19419 0.0
C1548 C 0.77723 0.78097 0.21071 0.0
C1549 C 0.79193 0.77185 0.16798 0.0
C1550 C 0.75241 0.76378 0.20047 0.0
C1551 C 0.74754 0.75015 0.1747 0.0
H1552 H 0.07689 0.07135 0.72425 0.0
H1553 H 0.13669 0.03361 0.70647 0.0
H1554 H 0.12384 0.03159 0.65932 0.0
H1555 H 0.09738 0.04208 0.62338 0.0
H1556 H 0.03859 0.08177 0.63956 0.0
H1557 H 0.04949 0.08186 0.68702 0.0
C1558 C 0.08674 0.06236 0.70994 0.0
C1559 C 0.10756 0.0524 0.71875 0.0
C1560 C 0.07977 0.06203 0.68264 0.0
C1561 C 0.12057 0.04129 0.70011 0.0
C1562 C 0.11332 0.04023 0.67316 0.0
C1563 C 0.08685 0.05083 0.63715 0.0
C1564 C 0.06723 0.06202 0.62776 0.0
C1565 C 0.09326 0.05088 0.66423 0.0
C1566 C 0.05392 0.07319 0.64615 0.0
C1567 C 0.06007 0.07312 0.67332 0.0
H1568 H 0.76631 0.41734 0.41153 0.0
H1569 H 0.77961 0.36209 0.46112 0.0
H1570 H 0.78123 0.33184 0.42238 0.0
H1571 H 0.78364 0.32303 0.37498 0.0
H1572 H 0.77078 0.3786 0.32557 0.0
H1573 H 0.76418 0.40659 0.36365 0.0
C1574 C 0.76906 0.3985 0.41385 0.0
C1575 C 0.77321 0.3922 0.43923 0.0
C1576 C 0.77046 0.38133 0.39154 0.0
C1577 C 0.77662 0.3676 0.44183 0.0
C1578 C 0.77768 0.35029 0.41969 0.0
C1579 C 0.77923 0.34117 0.37252 0.0
C1580 C 0.77814 0.34884 0.34755 0.0
C1581 C 0.77548 0.3573 0.39454 0.0
C1582 C 0.77198 0.37226 0.34462 0.0
C1583 C 0.76818 0.38834 0.36639 0.0
H1584 H 0.45654 0.09568 0.26048 0.0
H1585 H 0.38123 0.05366 0.215 0.0
H1586 H 0.40305 0.04188 0.17776 0.0
H1587 H 0.44376 0.03934 0.16035 0.0
H1588 H 0.51891 0.08065 0.20661 0.0
H1589 H 0.49682 0.09636 0.24171 0.0
C1590 C 0.44482 0.0843 0.24226 0.0
C1591 C 0.41735 0.07527 0.24061 0.0
C1592 C 0.45749 0.07693 0.22137 0.0
C1593 C 0.40243 0.06077 0.21681 0.0
C1594 C 0.41491 0.05383 0.1956 0.0
C1595 C 0.45529 0.05207 0.17796 0.0
C1596 C 0.48294 0.05848 0.18106 0.0
C1597 C 0.44247 0.0611 0.19803 0.0
C1598 C 0.49762 0.07488 0.20404 0.0
C1599 C 0.48501 0.08409 0.22399 0.0
H1600 H 0.79212 0.70726 0.93174 0.0
H1601 H 0.81702 0.7826 0.98107 0.0
H1602 H 0.82271 0.80353 0.94193 0.0
H1603 H 0.81834 0.8005 0.89328 0.0
H1604 H 0.78992 0.7251 0.84424 0.0
H1605 H 0.78808 0.70418 0.88348 0.0
C1606 C 0.79904 0.72826 0.93397 0.0
C1607 C 0.80423 0.74332 0.95936 0.0
C1608 C 0.80159 0.74018 0.91132 0.0
C1609 C 0.81286 0.77053 0.9618 0.0
C1610 C 0.81612 0.78252 0.93939 0.0
C1611 C 0.81211 0.77948 0.89124 0.0
C1612 C 0.80442 0.76437 0.86586 0.0
C1613 C 0.81026 0.76756 0.914 0.0
C1614 C 0.79592 0.73717 0.86353 0.0
C1615 C 0.79484 0.72519 0.88598 0.0
H1616 H 0.8145 0.08071 0.00343 0.0
H1617 H 0.88087 0.14543 0.0383 0.0
H1618 H 0.91063 0.12357 0.01758 0.0
H1619 H 0.91758 0.08383 0.99433 0.0
H1620 H 0.85069 0.0199 0.95788 0.0
H1621 H 0.821 0.04405 0.97413 0.0
C1622 C 0.8355 0.09004 0.00629 0.0
C1623 C 0.84578 0.11419 0.02277 0.0
C1624 C 0.85219 0.0776 0.99405 0.0
C1625 C 0.87277 0.12662 0.0259 0.0
C1626 C 0.88967 0.11415 0.01407 0.0
C1627 C 0.89652 0.07546 0.98907 0.0
C1628 C 0.88637 0.04985 0.97527 0.0
C1629 C 0.8796 0.08935 0.99864 0.0
C1630 C 0.85899 0.03934 0.96891 0.0
C1631 C 0.84202 0.05309 0.97825 0.0
H1632 H 0.39251 0.43601 0.04817 0.0
H1633 H 0.36745 0.50212 0.07964 0.0
H1634 H 0.41175 0.53057 0.0819 0.0
H1635 H 0.45603 0.53752 0.06988 0.0
H1636 H 0.48071 0.47181 0.03604 0.0
H1637 H 0.43842 0.44253 0.03978 0.0
C1638 C 0.39704 0.45651 0.05619 0.0
C1639 C 0.3769 0.46701 0.06375 0.0
C1640 C 0.42239 0.47297 0.05649 0.0
C1641 C 0.38277 0.49368 0.0737 0.0
C1642 C 0.40803 0.50997 0.07484 0.0
C1643 C 0.4523 0.51678 0.06358 0.0
C1644 C 0.47142 0.50703 0.05231 0.0
C1645 C 0.42776 0.5 0.06543 0.0
C1646 C 0.46623 0.48001 0.04444 0.0
C1647 C 0.44203 0.46315 0.04662 0.0
H1648 H 0.43294 0.63138 0.79465 0.0
H1649 H 0.36556 0.56444 0.78489 0.0
H1650 H 0.33709 0.59268 0.79288 0.0
H1651 H 0.33097 0.63648 0.80177 0.0
H1652 H 0.39817 0.70346 0.81114 0.0
H1653 H 0.42688 0.67522 0.80408 0.0
C1654 C 0.41204 0.62297 0.79432 0.0
C1655 C 0.40147 0.59579 0.78914 0.0
C1656 C 0.39565 0.63937 0.7988 0.0
C1657 C 0.37429 0.58527 0.78876 0.0
C1658 C 0.35794 0.60142 0.79335 0.0
C1659 C 0.35193 0.64488 0.80254 0.0
C1660 C 0.36234 0.67208 0.80693 0.0
C1661 C 0.36837 0.6285 0.79832 0.0
C1662 C 0.38955 0.68262 0.80749 0.0
C1663 C 0.40602 0.66647 0.80355 0.0
H1664 H 0.22809 0.61345 0.52596 0.0
H1665 H 0.23429 0.66187 0.601 0.0
H1666 H 0.18803 0.64144 0.6035 0.0
H1667 H 0.14565 0.61046 0.58372 0.0
H1668 H 0.13843 0.56534 0.50661 0.0
H1669 H 0.18535 0.58377 0.5054 0.0
C1670 C 0.21927 0.61935 0.5429 0.0
C1671 C 0.23439 0.63887 0.56337 0.0
C1672 C 0.19257 0.60817 0.54374 0.0
C1673 C 0.22284 0.64682 0.58503 0.0
C1674 C 0.19649 0.63515 0.58647 0.0
C1675 C 0.15449 0.60459 0.56679 0.0
C1676 C 0.13893 0.58651 0.54539 0.0
C1677 C 0.18116 0.6159 0.56588 0.0
C1678 C 0.15024 0.5793 0.52327 0.0
C1679 C 0.17698 0.58978 0.5226 0.0
H1680 H 0.76742 0.01325 0.7805 0.0
H1681 H 0.69911 0.98366 0.81735 0.0
H1682 H 0.72487 0.96481 0.84711 0.0
H1683 H 0.765 0.95222 0.85868 0.0
H1684 H 0.83143 0.97717 0.8177 0.0
H1685 H 0.80883 1.0037 0.79485 0.0
C1686 C 0.75826 1.00289 0.79522 0.0
C1687 C 0.73134 0.9994 0.79642 0.0
C1688 C 0.77298 0.99157 0.81181 0.0
C1689 C 0.71973 0.98618 0.81574 0.0
C1690 C 0.73446 0.97552 0.83285 0.0
C1691 C 0.77465 0.96367 0.84494 0.0
C1692 C 0.79961 0.96219 0.83951 0.0
C1693 C 0.76085 0.97741 0.83046 0.0
C1694 C 0.81224 0.97789 0.82238 0.0
C1695 C 0.79914 0.99277 0.80891 0.0
H1696 H 0.76637 0.96639 0.57092 0.0
H1697 H 0.70319 0.89666 0.54221 0.0
H1698 H 0.67343 0.92315 0.53188 0.0
H1699 H 0.66615 0.96629 0.52957 0.0
H1700 H 0.73019 0.03542 0.55809 0.0
H1701 H 0.75909 0.00881 0.56946 0.0
C1702 C 0.74605 0.95686 0.5625 0.0
C1703 C 0.73702 0.92955 0.55727 0.0
C1704 C 0.72935 0.97211 0.55629 0.0
C1705 C 0.71062 0.91763 0.54644 0.0
C1706 C 0.69366 0.93278 0.54045 0.0
C1707 C 0.68639 0.97552 0.53846 0.0
C1708 C 0.69605 1.00284 0.54284 0.0
C1709 C 0.70292 0.96005 0.54506 0.0
C1710 C 0.72238 0.01448 0.55409 0.0
C1711 C 0.73886 0.99928 0.5608 0.0
H1712 H 0.37944 0.46651 0.76703 0.0
H1713 H 0.44356 0.43114 0.76713 0.0
H1714 H 0.41351 0.38925 0.76974 0.0
H1715 H 0.3696 0.36311 0.77383 0.0
H1716 H 0.30488 0.39756 0.77232 0.0
H1717 H 0.3346 0.4394 0.76818 0.0
C1718 C 0.38681 0.44962 0.76757 0.0
C1719 C 0.41376 0.45202 0.76714 0.0
C1720 C 0.36936 0.42548 0.76882 0.0
C1721 C 0.42294 0.42987 0.76747 0.0
C1722 C 0.40579 0.4059 0.76902 0.0
C1723 C 0.36195 0.37975 0.77254 0.0
C1724 C 0.33515 0.37734 0.77367 0.0
C1725 C 0.37905 0.40357 0.77 0.0
C1726 C 0.32545 0.39894 0.77149 0.0
C1727 C 0.34245 0.42287 0.76924 0.0
H1728 H 0.23549 0.62541 0.24827 0.0
H1729 H 0.16517 0.6438 0.21686 0.0
H1730 H 0.1874 0.69014 0.2293 0.0
H1731 H 0.22609 0.72535 0.25135 0.0
H1732 H 0.29636 0.70659 0.28193 0.0
H1733 H 0.27458 0.6603 0.26806 0.0
C1734 C 0.22505 0.63951 0.24384 0.0
C1735 C 0.19864 0.63111 0.23182 0.0
C1736 C 0.23775 0.66601 0.25141 0.0
C1737 C 0.18553 0.6497 0.22605 0.0
C1738 C 0.19814 0.67621 0.23339 0.0
C1739 C 0.23647 0.71106 0.25519 0.0
C1740 C 0.26258 0.71919 0.26798 0.0
C1741 C 0.22404 0.68455 0.24661 0.0
C1742 C 0.27614 0.70065 0.2723 0.0
C1743 C 0.26377 0.67425 0.26426 0.0
H1744 H 0.48335 0.67606 0.47263 0.0
H1745 H 0.54676 0.72854 0.52842 0.0
H1746 H 0.5585 0.69171 0.54429 0.0
H1747 H 0.55198 0.64397 0.54164 0.0
H1748 H 0.48639 0.59161 0.48836 0.0
H1749 H 0.47447 0.62839 0.47268 0.0
C1750 C 0.49958 0.67951 0.48845 0.0
C1751 C 0.51409 0.70546 0.49914 0.0
C1752 C 0.50607 0.65795 0.498 0.0
C1753 C 0.53501 0.7091 0.51975 0.0
C1754 C 0.54189 0.68789 0.52882 0.0
C1755 C 0.53505 0.64055 0.52663 0.0
C1756 C 0.52034 0.61463 0.51617 0.0
C1757 C 0.52779 0.66213 0.51797 0.0
C1758 C 0.49823 0.61103 0.49693 0.0
C1759 C 0.49137 0.63222 0.48782 0.0
H1760 H 0.68197 0.31139 0.64382 0.0
H1761 H 0.65366 0.35338 0.70604 0.0
H1762 H 0.68735 0.34752 0.7386 0.0
H1763 H 0.72311 0.32839 0.75024 0.0
H1764 H 0.75168 0.28555 0.68889 0.0
H1765 H 0.71994 0.29382 0.65554 0.0
C1766 C 0.6835 0.31963 0.66443 0.0
C1767 C 0.6652 0.33286 0.67237 0.0
C1768 C 0.70285 0.31576 0.68342 0.0
C1769 C 0.66737 0.34309 0.69929 0.0
C1770 C 0.68662 0.33968 0.71802 0.0
C1771 C 0.72256 0.32089 0.72958 0.0
C1772 C 0.73981 0.30616 0.72232 0.0
C1773 C 0.70416 0.32565 0.71044 0.0
C1774 C 0.73868 0.29684 0.69529 0.0
C1775 C 0.72047 0.30159 0.6761 0.0
H1776 H 0.04285 0.38713 0.95307 0.0
H1777 H 1.00763 0.36166 0.01995 0.0
H1778 H 0.01062 0.40713 0.03784 0.0
H1779 H 0.02261 0.45479 0.03362 0.0
H1780 H 0.0573 0.47753 0.9653 0.0
H1781 H 0.05478 0.4327 0.94904 0.0
C1782 C 0.03576 0.39121 0.97166 0.0
C1783 C 0.02492 0.37049 0.98497 0.0
C1784 C 0.03725 0.41724 0.98157 0.0
C1785 C 0.01618 0.37687 0.00915 0.0
C1786 C 0.01776 0.403 0.01932 0.0
C1787 C 0.02946 0.44992 0.0151 0.0
C1788 C 0.04002 0.47005 0.00076 0.0
C1789 C 0.02807 0.42347 0.00556 0.0
C1790 C 0.04899 0.46297 0.97692 0.0
C1791 C 0.04763 0.43712 0.96751 0.0
H1792 H 0.02131 0.76913 0.19936 0.0
H1793 H 1.00933 0.83088 0.15855 0.0
H1794 H 0.97039 0.8314 0.18006 0.0
H1795 H 0.94123 0.81576 0.21272 0.0
H1796 H 0.95423 0.75354 0.25241 0.0
H1797 H 0.99144 0.75208 0.2293 0.0
C1798 C 0.0102 0.78271 0.19498 0.0
C1799 C 0.01847 0.8001 0.17747 0.0
C1800 C 0.98811 0.78301 0.20751 0.0
C1801 C 1.00348 0.81726 0.17191 0.0
C1802 C 0.98127 0.81764 0.18433 0.0
C1803 C 0.95205 0.80172 0.2161 0.0
C1804 C 0.94509 0.7851 0.23476 0.0
C1805 C 0.97359 0.80082 0.20249 0.0
C1806 C 0.95944 0.76705 0.23881 0.0
C1807 C 0.98066 0.76604 0.22542 0.0
H1808 H 0.54192 0.31988 0.12136 0.0
H1809 H 0.55145 0.37328 0.19389 0.0
H1810 H 0.5578 0.40969 0.16943 0.0
H1811 H 0.56022 0.42646 0.12736 0.0
H1812 H 0.55186 0.37311 0.05498 0.0
H1813 H 0.54514 0.33675 0.07939 0.0
C1814 C 0.54538 0.33948 0.13184 0.0
C1815 C 0.54617 0.34375 0.15948 0.0
C1816 C 0.54911 0.36042 0.11763 0.0
C1817 C 0.55074 0.36934 0.17267 0.0
C1818 C 0.55437 0.39022 0.15867 0.0
C1819 C 0.5572 0.40694 0.1169 0.0
C1820 C 0.55648 0.40271 0.08923 0.0
C1821 C 0.5536 0.38601 0.13114 0.0
C1822 C 0.55211 0.37708 0.07613 0.0
C1823 C 0.54843 0.35621 0.09013 0.0
H1824 H 0.97611 0.36038 0.30831 0.0
H1825 H 0.97129 0.29572 0.35028 0.0
H1826 H 0.92313 0.28399 0.34109 0.0
H1827 H 0.8818 0.2924 0.32139 0.0
H1828 H 0.88753 0.35894 0.28193 0.0
H1829 H 0.93536 0.36944 0.28991 0.0
C1830 C 0.9646 0.34359 0.31535 0.0
C1831 C 0.97764 0.32887 0.32983 0.0
C1832 C 0.93677 0.3373 0.31052 0.0
C1833 C 0.96206 0.30744 0.33905 0.0
C1834 C 0.93439 0.30071 0.33379 0.0
C1835 C 0.89349 0.30921 0.31453 0.0
C1836 C 0.88066 0.3248 0.301 0.0
C1837 C 0.92142 0.31554 0.31961 0.0
C1838 C 0.89647 0.34657 0.29249 0.0
C1839 C 0.92401 0.35261 0.29698 0.0
H1840 H 0.03582 0.69976 0.64238 0.0
H1841 H 0.01934 0.65199 0.70265 0.0
H1842 H 0.02474 0.61478 0.6735 0.0
H1843 H 0.03607 0.59615 0.63129 0.0
H1844 H 0.05421 0.64499 0.57206 0.0
H1845 H 0.04635 0.68115 0.6003 0.0
C1846 C 0.0331 0.68114 0.64906 0.0
C1847 C 0.02708 0.67876 0.6747 0.0
C1848 C 0.03681 0.65994 0.63239 0.0
C1849 C 0.02395 0.65447 0.68304 0.0
C1850 C 0.02712 0.63315 0.66638 0.0
C1851 C 0.03824 0.61468 0.62454 0.0
C1852 C 0.04586 0.61771 0.59951 0.0
C1853 C 0.0339 0.63571 0.64109 0.0
C1854 C 0.04855 0.64197 0.5912 0.0
C1855 C 0.04399 0.66275 0.60735 0.0
H1856 H 0.6314 0.81649 0.81428 0.0
H1857 H 0.66973 0.86436 0.88866 0.0
H1858 H 0.71207 0.85925 0.87888 0.0
H1859 H 0.73892 0.84052 0.84992 0.0
H1860 H 0.7012 0.79168 0.77591 0.0
H1861 H 0.65875 0.79785 0.78479 0.0
C1862 C 0.649 0.82593 0.8283 0.0
C1863 C 0.64692 0.84088 0.85231 0.0
C1864 C 0.67378 0.82266 0.82266 0.0
C1865 C 0.67028 0.85271 0.8701 0.0
C1866 C 0.69473 0.84979 0.86451 0.0
C1867 C 0.7215 0.83124 0.8356 0.0
C1868 C 0.72373 0.81558 0.81216 0.0
C1869 C 0.69682 0.83469 0.84095 0.0
C1870 C 0.70052 0.80382 0.79411 0.0
C1871 C 0.67603 0.80735 0.79921 0.0
H1872 H 0.50904 0.57036 0.70411 0.0
H1873 H 0.4358 0.51137 0.67644 0.0
H1874 H 0.44639 0.50819 0.63145 0.0
H1875 H 0.4767 0.52191 0.59957 0.0
H1876 H 0.54874 0.58271 0.62699 0.0
H1877 H 0.53838 0.58541 0.67196 0.0
C1878 C 0.49541 0.55682 0.68823 0.0
C1879 C 0.47171 0.54107 0.69379 0.0
C1880 C 0.50139 0.5554 0.66214 0.0
C1881 C 0.45418 0.5238 0.67284 0.0
C1882 C 0.46023 0.52191 0.64702 0.0
C1883 C 0.49009 0.53577 0.61538 0.0
C1884 C 0.51349 0.55203 0.60974 0.0
C1885 C 0.48381 0.53757 0.64138 0.0
C1886 C 0.53051 0.57001 0.63056 0.0
C1887 C 0.52465 0.57154 0.65642 0.0
H1888 H 0.79015 0.2592 0.02331 0.0
H1889 H 0.83392 0.22051 0.97411 0.0
H1890 H 0.83201 0.2499 0.94224 0.0
H1891 H 0.81212 0.2816 0.92539 0.0
H1892 H 0.76449 0.31746 0.97211 0.0
H1893 H 0.77384 0.29432 0.0082 0.0
C1894 C 0.79976 0.25762 0.00589 0.0
C1895 C 0.81198 0.23766 0.00087 0.0
C1896 C 0.79762 0.27388 0.98716 0.0
C1897 C 0.82421 0.23562 0.9782 0.0
C1898 C 0.82308 0.25237 0.95999 0.0
C1899 C 0.80448 0.28502 0.94381 0.0
C1900 C 0.78771 0.30123 0.94621 0.0
C1901 C 0.80902 0.27089 0.96383 0.0
C1902 C 0.77743 0.30502 0.9699 0.0
C1903 C 0.78268 0.29173 0.99042 0.0
H1904 H 0.16441 0.51506 0.15224 0.0
H1905 H 0.09659 0.49776 0.19274 0.0
H1906 H 0.06872 0.50274 0.15425 0.0
H1907 H 0.06501 0.51845 0.11178 0.0
H1908 H 0.13287 0.53546 0.07131 0.0
H1909 H 0.15932 0.52436 0.10715 0.0
C1910 C 0.14342 0.51165 0.15237 0.0
C1911 C 0.13269 0.50669 0.17545 0.0
C1912 C 0.12762 0.51521 0.13046 0.0
C1913 C 0.10538 0.50199 0.17525 0.0
C1914 C 0.08945 0.50508 0.15336 0.0
C1915 C 0.08556 0.51963 0.11086 0.0
C1916 C 0.09716 0.52833 0.08939 0.0
C1917 C 0.10061 0.51292 0.13138 0.0
C1918 C 0.1236 0.52911 0.08792 0.0
C1919 C 0.13874 0.5227 0.10833 0.0
H1920 H 0.81084 0.90016 0.45362 0.0
H1921 H 0.79305 0.82627 0.48089 0.0
H1922 H 0.79489 0.80438 0.43649 0.0
H1923 H 0.79884 0.8064 0.3887 0.0
H1924 H 0.81579 0.88129 0.36338 0.0
H1925 H 0.81729 0.90256 0.40824 0.0
C1926 C 0.80733 0.87922 0.45003 0.0
C1927 C 0.80143 0.86489 0.4706 0.0
C1928 C 0.8084 0.86693 0.42467 0.0
C1929 C 0.79748 0.83782 0.46545 0.0
C1930 C 0.79853 0.82531 0.44003 0.0
C1931 C 0.80337 0.82738 0.39323 0.0
C1932 C 0.80719 0.84226 0.37269 0.0
C1933 C 0.80367 0.83965 0.41932 0.0
C1934 C 0.81268 0.8694 0.37876 0.0
C1935 C 0.81347 0.88161 0.40442 0.0
H1936 H 0.47526 0.55208 0.86785 0.0
H1937 H 0.54433 0.53038 0.84812 0.0
H1938 H 0.55883 0.53093 0.89471 0.0
H1939 H 0.55165 0.53679 0.94145 0.0
H1940 H 0.48247 0.55863 0.96076 0.0
H1941 H 0.46848 0.55863 0.91436 0.0
C1942 C 0.4936 0.54767 0.8737 0.0
C1943 C 0.5086 0.54123 0.85427 0.0
C1944 C 0.50182 0.54781 0.90066 0.0
C1945 C 0.53228 0.53544 0.86246 0.0
C1946 C 0.54061 0.53566 0.8892 0.0
C1947 C 0.53345 0.5414 0.93551 0.0
C1948 C 0.51817 0.54754 0.95482 0.0
C1949 C 0.52544 0.54159 0.90852 0.0
C1950 C 0.49473 0.55374 0.94656 0.0
C1951 C 0.48665 0.55381 0.9199 0.0
H1952 H 0.82748 0.23035 0.12681 0.0
H1953 H 0.79609 0.16043 0.15852 0.0
H1954 H 0.79629 0.18648 0.20096 0.0
H1955 H 0.80064 0.22888 0.22718 0.0
H1956 H 0.83 0.29883 0.19478 0.0
H1957 H 0.83542 0.27284 0.15443 0.0
C1958 C 0.82112 0.22072 0.14312 0.0
C1959 C 0.81151 0.19345 0.13937 0.0
C1960 C 0.82054 0.23581 0.16719 0.0
C1961 C 0.80341 0.18138 0.16078 0.0
C1962 C 0.80339 0.19626 0.18502 0.0
C1963 C 0.80834 0.23852 0.21137 0.0
C1964 C 0.81444 0.26577 0.21382 0.0
C1965 C 0.81107 0.22348 0.18813 0.0
C1966 C 0.82489 0.27789 0.19333 0.0
C1967 C 0.82799 0.26304 0.17023 0.0
H1968 H 0.09177 0.58179 0.29359 0.0
H1969 H 0.16126 0.56616 0.33134 0.0
H1970 H 0.14896 0.57746 0.3746 0.0
H1971 H 0.11713 0.58888 0.4013 0.0
H1972 H 0.04654 0.60219 0.36355 0.0
H1973 H 0.06113 0.59549 0.32047 0.0
C1974 C 0.1043 0.58091 0.31125 0.0
C1975 C 0.12719 0.5728 0.30925 0.0
C1976 C 0.09704 0.58719 0.33596 0.0
C1977 C 0.14338 0.57209 0.33234 0.0
C1978 C 0.13642 0.57859 0.35707 0.0
C1979 C 0.10499 0.59035 0.38361 0.0
C1980 C 0.08068 0.59561 0.3854 0.0
C1981 C 0.11308 0.5857 0.35903 0.0
C1982 C 0.06538 0.59819 0.36256 0.0
C1983 C 0.07358 0.59413 0.33797 0.0
H1984 H 0.80715 0.89093 0.66135 0.0
H1985 H 0.78744 0.81439 0.61463 0.0
H1986 H 0.78376 0.79489 0.65471 0.0
H1987 H 0.78621 0.79943 0.70281 0.0
H1988 H 0.80523 0.87575 0.74993 0.0
H1989 H 0.80882 0.89542 0.70984 0.0
C1990 C 0.80216 0.86997 0.65993 0.0
C1991 C 0.79774 0.85416 0.63492 0.0
C1992 C 0.79977 0.85884 0.68311 0.0
C1993 C 0.79103 0.82704 0.63352 0.0
C1994 C 0.78887 0.81587 0.65646 0.0
C1995 C 0.79107 0.8204 0.70445 0.0
C1996 C 0.79546 0.83604 0.72954 0.0
C1997 C 0.79316 0.83156 0.68134 0.0
C1998 C 0.80165 0.86317 0.731 0.0
C1999 C 0.80381 0.87445 0.70805 0.0
H2000 H 0.71736 0.44973 0.55672 0.0
H2001 H 0.78798 0.51356 0.5691 0.0
H2002 H 0.76421 0.54326 0.5868 0.0
H2003 H 0.72277 0.55197 0.59486 0.0
H2004 H 0.6512 0.48912 0.57927 0.0
H2005 H 0.67602 0.45814 0.56773 0.0
C2006 C 0.72753 0.47007 0.56359 0.0
C2007 C 0.75422 0.47952 0.56128 0.0
C2008 C 0.71361 0.48725 0.57329 0.0
C2009 C 0.76728 0.5059 0.57032 0.0
C2010 C 0.75376 0.52291 0.58051 0.0
C2011 C 0.71262 0.53148 0.58906 0.0
C2012 C 0.68521 0.52297 0.58767 0.0
C2013 C 0.7268 0.51393 0.58144 0.0
C2014 C 0.67238 0.49624 0.58073 0.0
C2015 C 0.6865 0.4785 0.57382 0.0
H2016 H 0.2081 0.12365 0.50647 0.0
H2017 H 0.18269 0.19345 0.51929 0.0
H2018 H 0.13942 0.16782 0.52582 0.0
H2019 H 0.11012 0.12629 0.53093 0.0
H2020 H 0.13506 0.05625 0.51817 0.0
H2021 H 0.1774 0.08139 0.50842 0.0
C2022 C 0.19301 0.13324 0.51046 0.0
C2023 C 0.19868 0.16046 0.51269 0.0
C2024 C 0.16829 0.11842 0.5144 0.0
C2025 C 0.17887 0.17256 0.51758 0.0
C2026 C 0.15418 0.15794 0.52142 0.0
C2027 C 0.12481 0.11646 0.52603 0.0
C2028 C 0.11969 0.0895 0.52572 0.0
C2029 C 0.14891 0.13097 0.52043 0.0
C2030 C 0.13864 0.07699 0.5187 0.0
C2031 C 0.16282 0.09136 0.51317 0.0
H2032 H 0.215 0.02219 0.77016 0.0
H2033 H 0.15908 0.96714 0.80388 0.0
H2034 H 0.1824 0.93427 0.79353 0.0
H2035 H 0.21899 0.92148 0.77525 0.0
H2036 H 0.2726 0.97592 0.7384 0.0
H2037 H 0.25001 0.00876 0.74994 0.0
C2038 C 0.20799 1.00304 0.7754 0.0
C2039 C 0.18551 0.99718 0.78801 0.0
C2040 C 0.2211 0.98413 0.76884 0.0
C2041 C 0.1764 0.97215 0.79424 0.0
C2042 C 0.18972 0.95336 0.7883 0.0
C2043 C 0.22555 0.94036 0.76934 0.0
C2044 C 0.24774 0.94612 0.75612 0.0
C2045 C 0.21207 0.95912 0.77553 0.0
C2046 C 0.25602 0.97096 0.74907 0.0
C2047 C 0.24299 0.98978 0.75551 0.0
H2048 H 0.36233 0.01239 0.99635 0.0
H2049 H 0.36973 0.94427 0.02858 0.0
H2050 H 0.41748 0.9615 0.0361 0.0
H2051 H 0.45706 0.99623 0.03434 0.0
H2052 H 0.44948 0.06439 0.00227 0.0
H2053 H 0.40183 0.04675 0.994 0.0
C2054 C 0.37435 1.00122 0.0049 0.0
C2055 C 0.36243 0.97711 0.0119 0.0
C2056 C 0.40177 0.01128 0.00934 0.0
C2057 C 0.37837 0.96293 0.023 0.0
C2058 C 0.40569 0.97276 0.02737 0.0
C2059 C 0.445 0.00723 0.02553 0.0
C2060 C 0.45683 0.03159 0.01898 0.0
C2061 C 0.41759 0.99699 0.02077 0.0
C2062 C 0.4409 0.04558 0.00755 0.0
C2063 C 0.41363 0.03552 0.00277 0.0
H2064 H 0.80807 0.55819 0.76509 0.0
H2065 H 0.83028 0.59035 0.84779 0.0
H2066 H 0.80018 0.61759 0.84401 0.0
H2067 H 0.77475 0.63789 0.81559 0.0
H2068 H 0.75963 0.61141 0.73137 0.0
H2069 H 0.77862 0.57561 0.73729 0.0
C2070 C 0.8056 0.57058 0.7824 0.0
C2071 C 0.82119 0.57246 0.80667 0.0
C2072 C 0.7897 0.58738 0.77962 0.0
C2073 C 0.81837 0.58878 0.82895 0.0
C2074 C 0.80131 0.60438 0.82673 0.0
C2075 C 0.77536 0.62411 0.79855 0.0
C2076 C 0.76645 0.62773 0.77305 0.0
C2077 C 0.788 0.60479 0.8019 0.0
C2078 C 0.76644 0.60918 0.75124 0.0
C2079 C 0.7776 0.58886 0.75458 0.0
H2080 H 0.83249 0.62909 0.08129 0.0
H2081 H 0.86724 0.67951 0.02854 0.0
H2082 H 0.90437 0.66037 0.02943 0.0
H2083 H 0.92575 0.62776 0.04382 0.0
H2084 H 0.88849 0.57626 0.09456 0.0
H2085 H 0.85363 0.59769 0.09596 0.0
C2086 C 0.84819 0.63612 0.07001 0.0
C2087 C 0.84694 0.65565 0.05473 0.0
C2088 C 0.86903 0.62478 0.07024 0.0
C2089 C 0.86765 0.66449 0.04046 0.0
C2090 C 0.88882 0.65347 0.04089 0.0
C2091 C 0.90994 0.62116 0.05507 0.0
C2092 C 0.90989 0.60043 0.06915 0.0
C2093 C 0.8895 0.6333 0.05542 0.0
C2094 C 0.88939 0.59241 0.08392 0.0
C2095 C 0.86929 0.60453 0.08459 0.0
H2096 H 0.16388 0.17043 0.81831 0.0
H2097 H 0.22014 0.12675 0.80567 0.0
H2098 H 0.25358 0.16668 0.80293 0.0
H2099 H 0.26578 0.21376 0.80092 0.0
H2100 H 0.20894 0.25677 0.81438 0.0
H2101 H 0.17695 0.21741 0.81997 0.0
C2102 C 0.18353 0.16964 0.81521 0.0
C2103 C 0.18942 0.14562 0.81196 0.0
C2104 C 0.20256 0.19258 0.81356 0.0
C2105 C 0.21508 0.145 0.80827 0.0
C2106 C 0.23418 0.16782 0.80653 0.0
C2107 C 0.24645 0.21451 0.80522 0.0
C2108 C 0.23979 0.23819 0.80698 0.0
C2109 C 0.22798 0.19167 0.8086 0.0
C2110 C 0.21471 0.23887 0.81286 0.0
C2111 C 0.19629 0.21632 0.81604 0.0
H2112 H 0.39059 0.96018 0.26376 0.0
H2113 H 0.34608 0.98 0.32471 0.0
H2114 H 0.32309 0.9343 0.32216 0.0
H2115 H 0.31632 0.88885 0.30359 0.0
H2116 H 0.35954 0.86839 0.2418 0.0
H2117 H 0.38223 0.91432 0.24358 0.0
C2118 C 0.37586 0.95447 0.27647 0.0
C2119 C 0.37018 0.97344 0.2945 0.0
C2120 C 0.36248 0.92812 0.27475 0.0
C2121 C 0.35082 0.9658 0.31063 0.0
C2122 C 0.33768 0.93967 0.30924 0.0
C2123 C 0.33071 0.8944 0.29049 0.0
C2124 C 0.33643 0.87528 0.27277 0.0
C2125 C 0.34348 0.9207 0.29152 0.0
C2126 C 0.3548 0.8828 0.25563 0.0
C2127 C 0.36783 0.90902 0.2567 0.0
H2128 H 0.56161 0.38409 0.55523 0.0
H2129 H 0.60133 0.4224 0.63286 0.0
H2130 H 0.59671 0.46396 0.62249 0.0
H2131 H 0.58011 0.4901 0.59195 0.0
H2132 H 0.53829 0.45156 0.51512 0.0
H2133 H 0.54498 0.41039 0.52455 0.0
C2134 C 0.5694 0.40152 0.56985 0.0
C2135 C 0.5819 0.39966 0.59492 0.0
C2136 C 0.56616 0.42575 0.56393 0.0
C2137 C 0.59156 0.42279 0.61347 0.0
C2138 C 0.58892 0.44679 0.60753 0.0
C2139 C 0.57254 0.47277 0.57716 0.0
C2140 C 0.55862 0.47442 0.55272 0.0
C2141 C 0.57606 0.44862 0.58291 0.0
C2142 C 0.54898 0.45133 0.53411 0.0
C2143 C 0.55282 0.42754 0.5395 0.0
H2144 H 0.44723 0.82074 0.38768 0.0
H2145 H 0.41339 0.74661 0.4103 0.0
H2146 H 0.37099 0.74404 0.38389 0.0
H2147 H 0.34492 0.76162 0.35047 0.0
H2148 H 0.38227 0.83463 0.32724 0.0
H2149 H 0.42183 0.83884 0.3577 0.0
C2150 C 0.43063 0.80392 0.38705 0.0
C2151 C 0.43374 0.7837 0.40074 0.0
C2152 C 0.40687 0.80238 0.37145 0.0
C2153 C 0.41168 0.76246 0.4 0.0
C2154 C 0.38748 0.76095 0.38471 0.0
C2155 C 0.36163 0.77858 0.3525 0.0
C2156 C 0.36066 0.79784 0.33653 0.0
C2157 C 0.38499 0.78057 0.36978 0.0
C2158 C 0.38254 0.81954 0.33913 0.0
C2159 C 0.40521 0.82196 0.35656 0.0
H2160 H 0.11386 0.7217 0.10547 0.0
H2161 H 0.04101 0.72934 0.06696 0.0
H2162 H 0.02908 0.68342 0.04608 0.0
H2163 H 0.03843 0.63989 0.04091 0.0
H2164 H 0.11298 0.63425 0.07774 0.0
H2165 H 0.12497 0.68017 0.09708 0.0
C2166 C 0.09551 0.71349 0.09215 0.0
C2167 C 0.07841 0.72921 0.08784 0.0
C2168 C 0.0889 0.68711 0.08014 0.0
C2169 C 0.05476 0.71803 0.07045 0.0
C2170 C 0.04781 0.69159 0.05872 0.0
C2171 C 0.05732 0.64874 0.05313 0.0
C2172 C 0.07464 0.63326 0.05802 0.0
C2173 C 0.06452 0.67572 0.06378 0.0
C2174 C 0.09919 0.64538 0.07359 0.0
C2175 C 0.1061 0.67177 0.08471 0.0
H2176 H 0.0511 0.28035 0.88306 0.0
H2177 H 0.10686 0.28942 0.95306 0.0
H2178 H 0.14328 0.30109 0.92761 0.0
H2179 H 0.15919 0.30868 0.88531 0.0
H2180 H 0.10285 0.302 0.81623 0.0
H2181 H 0.06686 0.28921 0.84146 0.0
C2182 C 0.07121 0.28476 0.89277 0.0
C2183 C 0.07623 0.2839 0.91992 0.0
C2184 C 0.092 0.29188 0.87815 0.0
C2185 C 0.10244 0.28991 0.93219 0.0
C2186 C 0.12328 0.29662 0.91764 0.0
C2187 C 0.13907 0.30474 0.87581 0.0
C2188 C 0.13391 0.30614 0.84872 0.0
C2189 C 0.11829 0.29777 0.8906 0.0
C2190 C 0.10758 0.30059 0.83681 0.0
C2191 C 0.08689 0.29342 0.85129 0.0
H2192 H 0.53892 0.75027 0.90099 0.0
H2193 H 0.57663 0.80942 0.96832 0.0
H2194 H 0.56818 0.77711 0.99764 0.0
H2195 H 0.55025 0.73196 0.00431 0.0
H2196 H 0.51195 0.67294 0.93705 0.0
H2197 H 0.52066 0.70518 0.90771 0.0
C2198 C 0.54536 0.75611 0.92207 0.0
C2199 C 0.55844 0.7823 0.93236 0.0
C2200 C 0.54035 0.7374 0.93891 0.0
C2201 C 0.56654 0.78944 0.95978 0.0
C2202 C 0.56169 0.77096 0.97661 0.0
C2203 C 0.54355 0.72617 0.98327 0.0
C2204 C 0.53047 0.69995 0.973 0.0
C2205 C 0.54856 0.74488 0.96643 0.0
C2206 C 0.52235 0.69285 0.94556 0.0
C2207 C 0.52722 0.71132 0.92873 0.0
H2208 H 0.13134 0.78365 0.714 0.0
H2209 H 0.1131 0.77309 0.79191 0.0
H2210 H 0.15966 0.77744 0.80715 0.0
H2211 H 0.2062 0.78415 0.79806 0.0
H2212 H 0.22286 0.79539 0.71966 0.0
H2213 H 0.17668 0.79072 0.70515 0.0
C2214 C 0.13742 0.78237 0.7344 0.0
C2215 C 0.11843 0.77806 0.75172 0.0
C2216 C 0.16422 0.78487 0.74299 0.0
C2217 C 0.12706 0.7765 0.77807 0.0
C2218 C 0.15378 0.7789 0.78677 0.0
C2219 C 0.19969 0.78536 0.77775 0.0
C2220 C 0.21838 0.79001 0.76003 0.0
C2221 C 0.17264 0.78298 0.76938 0.0
C2222 C 0.20931 0.79185 0.73389 0.0
C2223 C 0.18273 0.7892 0.72548 0.0
H2224 H 0.07594 0.41065 0.45019 0.0
H2225 H 0.0659 0.45 0.38386 0.0
H2226 H 0.06302 0.48792 0.4136 0.0
H2227 H 0.06241 0.50986 0.45857 0.0
H2228 H 0.07474 0.47131 0.52503 0.0
H2229 H 0.07769 0.43345 0.49528 0.0
C2230 C 0.0732 0.42754 0.44222 0.0
C2231 C 0.07103 0.42728 0.41471 0.0
C2232 C 0.0719 0.44955 0.45954 0.0
C2233 C 0.0677 0.44954 0.40488 0.0
C2234 C 0.06596 0.47128 0.42191 0.0
C2235 C 0.06575 0.49318 0.46655 0.0
C2236 C 0.06819 0.49349 0.49408 0.0
C2237 C 0.06786 0.47148 0.44928 0.0
C2238 C 0.07284 0.47175 0.504 0.0
C2239 C 0.07446 0.44999 0.48695 0.0
H2240 H 0.43749 0.2476 0.26132 0.0
H2241 H 0.46559 0.32066 0.2343 0.0
H2242 H 0.42692 0.33356 0.24628 0.0
H2243 H 0.38437 0.32406 0.26413 0.0
H2244 H 0.35502 0.24969 0.28824 0.0
H2245 H 0.39446 0.23757 0.27784 0.0
C2246 C 0.43526 0.26641 0.25812 0.0
C2247 C 0.45484 0.28314 0.24698 0.0
C2248 C 0.41248 0.27355 0.26457 0.0
C2249 C 0.45111 0.30729 0.24278 0.0
C2250 C 0.42889 0.31473 0.24969 0.0
C2251 C 0.38662 0.30523 0.26725 0.0
C2252 C 0.36649 0.28794 0.27722 0.0
C2253 C 0.40934 0.29804 0.26058 0.0
C2254 C 0.36991 0.26349 0.28065 0.0
C2255 C 0.3926 0.25651 0.2747 0.0
H2256 H 0.61987 0.55525 0.38869 0.0
H2257 H 0.54667 0.56748 0.35633 0.0
H2258 H 0.52927 0.56104 0.39743 0.0
H2259 H 0.53484 0.55336 0.44308 0.0
H2260 H 0.60834 0.54313 0.47721 0.0
H2261 H 0.62544 0.54736 0.43525 0.0
C2262 C 0.60005 0.55627 0.39059 0.0
C2263 C 0.58466 0.56185 0.36925 0.0
C2264 C 0.59017 0.55306 0.41477 0.0
C2265 C 0.55908 0.56336 0.3723 0.0
C2266 C 0.54904 0.55966 0.39588 0.0
C2267 C 0.55458 0.5519 0.4414 0.0
C2268 C 0.57019 0.54784 0.46342 0.0
C2269 C 0.56444 0.55474 0.41733 0.0
C2270 C 0.59581 0.54626 0.4607 0.0
C2271 C 0.60563 0.54867 0.43664 0.0
H2272 H 0.3361 0.88764 0.08396 0.0
H2273 H 0.26838 0.82916 0.03988 0.0
H2274 H 0.28122 0.79589 0.06164 0.0
H2275 H 0.30897 0.78444 0.09641 0.0
H2276 H 0.37466 0.84371 0.14277 0.0
H2277 H 0.3662 0.87529 0.11584 0.0
C2278 C 0.3242 0.8676 0.07907 0.0
C2279 C 0.30106 0.86092 0.0608 0.0
C2280 C 0.33159 0.84863 0.09172 0.0
C2281 C 0.2861 0.83482 0.05421 0.0
C2282 C 0.29348 0.81578 0.06653 0.0
C2283 C 0.32166 0.80418 0.10034 0.0
C2284 C 0.34211 0.81178 0.12179 0.0
C2285 C 0.31583 0.82259 0.08576 0.0
C2286 C 0.35884 0.83724 0.12628 0.0
C2287 C 0.35376 0.85547 0.11118 0.0
H2288 H 0.9916 0.58286 0.87268 0.0
H2289 H 0.91638 0.54308 0.89196 0.0
H2290 H 0.93669 0.54421 0.93718 0.0
H2291 H 0.97698 0.55143 0.96901 0.0
H2292 H 0.05199 0.59095 0.94848 0.0
H2293 H 0.03051 0.59513 0.90601 0.0
C2294 C 0.97959 0.5748 0.88693 0.0
C2295 C 0.95272 0.56252 0.87904 0.0
C2296 C 0.9914 0.57518 0.91253 0.0
C2297 C 0.93718 0.55259 0.89769 0.0
C2298 C 0.94882 0.55304 0.92342 0.0
C2299 C 0.98857 0.56119 0.95535 0.0
C2300 C 0.01611 0.5703 0.96169 0.0
C2301 C 0.9761 0.56345 0.93074 0.0
C2302 C 0.0308 0.58339 0.944 0.0
C2303 C 0.01856 0.58581 0.91965 0.0
H2304 H 0.24148 0.22808 0.61979 0.0
H2305 H 0.32126 0.26452 0.6099 0.0
H2306 H 0.32942 0.28868 0.65515 0.0
H2307 H 0.31459 0.29636 0.69896 0.0
H2308 H 0.23395 0.26052 0.70717 0.0
H2309 H 0.22544 0.23928 0.66126 0.0
C2310 C 0.26055 0.24166 0.62738 0.0
C2311 C 0.28078 0.24441 0.61155 0.0
C2312 C 0.26502 0.25535 0.65329 0.0
C2313 C 0.30531 0.2622 0.62159 0.0
C2314 C 0.31002 0.2758 0.64757 0.0
C2315 C 0.29512 0.28405 0.69062 0.0
C2316 C 0.27502 0.27985 0.7067 0.0
C2317 C 0.29018 0.27205 0.66385 0.0
C2318 C 0.24982 0.26411 0.69541 0.0
C2319 C 0.24491 0.25188 0.6691 0.0
H2320 H 0.57881 0.58239 0.21663 0.0
H2321 H 0.62446 0.52822 0.20121 0.0
H2322 H 0.60983 0.5229 0.15373 0.0
H2323 H 0.58537 0.53476 0.11642 0.0
H2324 H 0.54316 0.59224 0.13099 0.0
H2325 H 0.5552 0.59537 0.17872 0.0
C2326 C 0.58524 0.56923 0.2028 0.0
C2327 C 0.60238 0.5554 0.21235 0.0
C2328 C 0.57759 0.56711 0.17534 0.0
C2329 C 0.61113 0.5389 0.19428 0.0
C2330 C 0.60283 0.53592 0.16714 0.0
C2331 C 0.5787 0.54792 0.13003 0.0
C2332 C 0.56326 0.56316 0.12008 0.0
C2333 C 0.58627 0.5501 0.15741 0.0
C2334 C 0.55513 0.58035 0.13805 0.0
C2335 C 0.56194 0.58209 0.16539 0.0
H2336 H 0.26716 0.92137 0.90697 0.0
H2337 H 0.24648 0.85549 0.9474 0.0
H2338 H 0.2529 0.82702 0.9095 0.0
H2339 H 0.26949 0.82181 0.86718 0.0
H2340 H 0.29047 0.88764 0.82673 0.0
H2341 H 0.27898 0.91513 0.86234 0.0
C2342 C 0.26334 0.90067 0.90716 0.0
C2343 C 0.25666 0.8906 0.93 0.0
C2344 C 0.26777 0.88449 0.88557 0.0
C2345 C 0.25188 0.86374 0.93006 0.0
C2346 C 0.25573 0.84746 0.9085 0.0
C2347 C 0.27153 0.84217 0.86621 0.0
C2348 C 0.28129 0.85281 0.84471 0.0
C2349 C 0.26469 0.85782 0.8866 0.0
C2350 C 0.28323 0.87906 0.84328 0.0
C2351 C 0.27661 0.89479 0.86358 0.0
H2352 H 0.96054 0.58023 0.75195 0.0
H2353 H 0.89274 0.52346 0.70582 0.0
H2354 H 0.92073 0.50931 0.67589 0.0
H2355 H 0.96473 0.51013 0.66564 0.0
H2356 H 0.03242 0.568 0.71076 0.0
H2357 H 1.00416 0.5838 0.73915 0.0
C2358 C 0.95181 0.5651 0.73505 0.0
C2359 C 0.92467 0.55273 0.73129 0.0
C2360 C 0.96804 0.55664 0.71833 0.0
C2361 C 0.91359 0.53329 0.7092 0.0
C2362 C 0.92962 0.52497 0.69226 0.0
C2363 C 0.97334 0.52643 0.68144 0.0
C2364 C 1.00075 0.53762 0.68618 0.0
C2365 C 0.95693 0.536 0.69713 0.0
C2366 C 0.0115 0.55849 0.70706 0.0
C2367 C 0.99532 0.56783 0.72307 0.0
H2368 H 0.31208 0.27251 0.46009 0.0
H2369 H 0.27462 0.19288 0.42425 0.0
H2370 H 0.27433 0.20517 0.38041 0.0
H2371 H 0.28331 0.23882 0.35193 0.0
H2372 H 0.32368 0.31791 0.38731 0.0
H2373 H 0.32431 0.30563 0.43127 0.0
C2374 C 0.30399 0.25786 0.44268 0.0
C2375 C 0.29325 0.23184 0.44559 0.0
C2376 C 0.30431 0.26499 0.41729 0.0
C2377 C 0.28307 0.21306 0.42271 0.0
C2378 C 0.28279 0.22007 0.39754 0.0
C2379 C 0.29232 0.25332 0.36927 0.0
C2380 C 0.30327 0.27928 0.3663 0.0
C2381 C 0.29312 0.24602 0.39456 0.0
C2382 C 0.31518 0.29777 0.38898 0.0
C2383 C 0.31546 0.29078 0.41419 0.0
H2384 H 0.33289 0.59504 0.50003 0.0
H2385 H 0.40427 0.65073 0.53996 0.0
H2386 H 0.43044 0.62773 0.5147 0.0
H2387 H 0.43251 0.58802 0.48731 0.0
H2388 H 0.36095 0.53138 0.44848 0.0
H2389 H 0.33504 0.55896 0.46675 0.0
C2390 C 0.35418 0.60231 0.5027 0.0
C2391 C 0.36692 0.62412 0.52182 0.0
C2392 C 0.36885 0.58886 0.48841 0.0
C2393 C 0.39433 0.63378 0.52532 0.0
C2394 C 0.40917 0.62064 0.51095 0.0
C2395 C 0.41131 0.58213 0.4819 0.0
C2396 C 0.3986 0.55752 0.46681 0.0
C2397 C 0.39661 0.59764 0.49317 0.0
C2398 C 0.37109 0.5501 0.4603 0.0
C2399 C 0.35631 0.56576 0.47089 0.0
H2400 H 0.87834 0.99327 0.56574 0.0
H2401 H 0.89554 0.91977 0.5682 0.0
H2402 H 0.94257 0.94101 0.56956 0.0
H2403 H 0.97774 0.97978 0.5646 0.0
H2404 H 0.95843 0.05217 0.55976 0.0
H2405 H 0.91315 0.03194 0.56463 0.0
C2406 C 0.89238 0.98187 0.56684 0.0
C2407 C 0.8835 0.95495 0.56644 0.0
C2408 C 0.91893 0.99397 0.56682 0.0
C2409 C 0.90194 0.94054 0.56844 0.0
C2410 C 0.92876 0.95265 0.56898 0.0
C2411 C 0.96365 0.99115 0.56494 0.0
C2412 C 0.97135 0.01734 0.5614 0.0
C2413 C 0.93735 0.97923 0.56731 0.0
C2414 C 0.95294 0.03188 0.56198 0.0
C2415 C 0.92704 0.02037 0.56486 0.0
H2416 H 0.87202 0.08105 0.28337 0.0
H2417 H 0.94595 0.14081 0.2992 0.0
H2418 H 0.92276 0.17414 0.30586 0.0
H2419 H 0.88154 0.18645 0.30749 0.0
H2420 H 0.80755 0.12686 0.29196 0.0
H2421 H 0.8307 0.09341 0.2852 0.0
C2422 C 0.88306 0.10137 0.28823 0.0
C2423 C 0.91071 0.10838 0.29071 0.0
C2424 C 0.86958 0.1205 0.29222 0.0
C2425 C 0.92468 0.13482 0.29716 0.0
C2426 C 0.91142 0.15393 0.30097 0.0
C2427 C 0.87046 0.16615 0.30242 0.0
C2428 C 0.84282 0.15922 0.3002 0.0
C2429 C 0.88389 0.14701 0.29855 0.0
C2430 C 0.82883 0.13276 0.29407 0.0
C2431 C 0.84205 0.11362 0.29005 0.0
H2432 H 0.70744 0.15358 0.0725 0.0
H2433 H 0.71403 0.12074 0.99362 0.0
H2434 H 0.66756 0.09626 0.98667 0.0
H2435 H 0.62544 0.08364 0.00341 0.0
H2436 H 0.6197 0.11368 0.08357 0.0
H2437 H 0.6656 0.13957 0.08986 0.0
C2438 C 0.69852 0.14126 0.05373 0.0
C2439 C 0.71379 0.13912 0.03343 0.0
C2440 C 0.67215 0.12654 0.05027 0.0
C2441 C 0.70241 0.1227 0.0094 0.0
C2442 C 0.67595 0.10868 0.00547 0.0
C2443 C 0.63428 0.09583 0.02225 0.0
C2444 C 0.61929 0.09683 0.04297 0.0
C2445 C 0.6607 0.11032 0.02584 0.0
C2446 C 0.63097 0.11248 0.06739 0.0
C2447 C 0.65713 0.1274 0.07095 0.0
H2448 H 0.21878 0.50536 0.31932 0.0
H2449 H 0.26765 0.52704 0.25979 0.0
H2450 H 0.29971 0.50676 0.2787 0.0
H2451 H 0.31079 0.47823 0.30838 0.0
H2452 H 0.2624 0.4567 0.36832 0.0
H2453 H 0.2333 0.4819 0.35315 0.0
C2454 C 0.23658 0.50585 0.31068 0.0
C2455 C 0.24064 0.51721 0.28794 0.0
C2456 C 0.25493 0.49416 0.32164 0.0
C2457 C 0.26399 0.51818 0.27718 0.0
C2458 C 0.28232 0.50658 0.28796 0.0
C2459 C 0.29441 0.47972 0.31875 0.0
C2460 C 0.28857 0.46533 0.33921 0.0
C2461 C 0.27763 0.49392 0.30973 0.0
C2462 C 0.26705 0.46727 0.3522 0.0
C2463 C 0.25038 0.48161 0.34351 0.0
H2464 H 0.25193 0.4615 0.07009 0.0
H2465 H 0.20322 0.3903 0.02228 0.0
H2466 H 0.17394 0.41411 0.0039 0.0
H2467 H 0.16437 0.45593 0.99906 0.0
H2468 H 0.2144 0.52671 0.04672 0.0
H2469 H 0.24143 0.50229 0.06695 0.0
C2470 C 0.23474 0.45105 0.05584 0.0
C2471 C 0.22985 0.42419 0.04745 0.0
C2472 C 0.21859 0.46491 0.04488 0.0
C2473 C 0.2074 0.41098 0.02912 0.0
C2474 C 0.19081 0.42463 0.01844 0.0
C2475 C 0.1811 0.46596 0.01398 0.0
C2476 C 0.18758 0.49321 0.02101 0.0
C2477 C 0.19657 0.45172 0.02575 0.0
C2478 C 0.20936 0.5059 0.04037 0.0
C2479 C 0.22467 0.49191 0.0522 0.0
H2480 H 0.88065 0.97139 0.26935 0.0
H2481 H 0.94589 0.93749 0.27151 0.0
H2482 H 0.91626 0.8951 0.27254 0.0
H2483 H 0.87242 0.86795 0.27516 0.0
H2484 H 0.80651 0.90068 0.27186 0.0
H2485 H 0.83573 0.94308 0.26863 0.0
C2486 C 0.88834 0.9547 0.26992 0.0
C2487 C 0.91554 0.95777 0.27058 0.0
C2488 C 0.87109 0.93014 0.27032 0.0
C2489 C 0.9251 0.93582 0.27102 0.0
C2490 C 0.90817 0.9115 0.27167 0.0
C2491 C 0.86439 0.88433 0.2736 0.0
C2492 C 0.83739 0.88124 0.27401 0.0
C2493 C 0.88123 0.90851 0.27168 0.0
C2494 C 0.82724 0.90254 0.27155 0.0
C2495 C 0.84396 0.92682 0.26985 0.0
H2496 H 0.67874 0.13216 0.72902 0.0
H2497 H 0.74882 0.10597 0.73 0.0
H2498 H 0.77617 0.1507 0.74384 0.0
H2499 H 0.77991 0.19657 0.75882 0.0
H2500 H 0.70963 0.22236 0.76054 0.0
H2501 H 0.68255 0.17835 0.74276 0.0
C2502 C 0.70001 0.13637 0.7317 0.0
C2503 C 0.71184 0.11597 0.72836 0.0
C2504 C 0.71551 0.16192 0.74066 0.0
C2505 C 0.73937 0.12149 0.7324 0.0
C2506 C 0.75497 0.14698 0.74046 0.0
C2507 C 0.75867 0.19259 0.75529 0.0
C2508 C 0.7468 0.21265 0.76119 0.0
C2509 C 0.74322 0.16724 0.74527 0.0
C2510 C 0.71926 0.20719 0.75642 0.0
C2511 C 0.70375 0.18206 0.74611 0.0
loop_
_geom_bond_atom_site_label_1
_geom_bond_atom_site_label_2
_geom_bond_distance
_geom_bond_site_symmetry_2
_ccdc_geom_bond_type
C0 O1 1.306 1_655 S
C0 O3 1.160 1_655 S
O1 C0 1.306 1_455 S
O1 Cd2 2.228 . S
Cd2 O1 2.228 . S
Cd2 O6 2.273 . S
Cd2 O10 2.277 . S
O3 C0 1.160 1_455 S
O3 Cd4 2.203 . S
Cd4 O3 2.203 . S
Cd4 O6 2.411 . S
Cd4 O7 2.333 . S
Cd4 O8 2.352 . S
Cd4 O12 2.277 . S
Cd4 O13 2.356 . S
C5 O10 1.209 . S
C5 O12 1.226 . S
O6 Cd2 2.273 . S
O6 Cd4 2.411 . S
O6 C9 1.320 . S
O7 Cd4 2.333 . S
O7 C9 1.214 . S
O8 Cd4 2.352 . S
O8 C11 1.258 . S
C9 O6 1.320 . S
C9 O7 1.214 . S
O10 Cd2 2.277 . S
O10 C5 1.209 . S
C11 O8 1.258 . S
C11 O13 1.282 . S
O12 Cd4 2.277 . S
O12 C5 1.226 . S
O13 Cd4 2.356 . S
O13 C11 1.282 . S
C14 O15 1.307 1_655 S
C14 O17 1.160 . S
O15 C14 1.307 1_455 S
O15 Cd16 2.227 . S
Cd16 O15 2.227 . S
Cd16 O20 2.273 . S
Cd16 O24 2.277 . S
O17 C14 1.160 . S
O17 Cd18 2.203 1_655 S
Cd18 O17 2.203 1_455 S
Cd18 O20 2.411 . S
Cd18 O21 2.333 . S
Cd18 O22 2.352 . S
Cd18 O26 2.277 . S
Cd18 O27 2.356 . S
C19 O24 1.209 . S
C19 O26 1.226 . S
O20 Cd16 2.273 . S
O20 Cd18 2.411 . S
O20 C23 1.320 . S
O21 Cd18 2.333 . S
O21 C23 1.214 . S
O22 Cd18 2.352 . S
O22 C25 1.258 . S
C23 O20 1.320 . S
C23 O21 1.214 . S
O24 Cd16 2.277 . S
O24 C19 1.209 . S
C25 O22 1.258 . S
C25 O27 1.282 . S
O26 Cd18 2.277 . S
O26 C19 1.226 . S
O27 Cd18 2.356 . S
O27 C25 1.282 . S
C28 O29 1.306 . S
C28 O31 1.160 . S
O29 C28 1.306 . S
O29 Cd30 2.228 . S
Cd30 O29 2.228 . S
Cd30 O34 2.273 . S
Cd30 O38 2.277 . S
O31 C28 1.160 . S
O31 Cd32 2.203 . S
Cd32 O31 2.203 . S
Cd32 O34 2.411 . S
Cd32 O35 2.333 . S
Cd32 O36 2.352 . S
Cd32 O40 2.277 . S
Cd32 O41 2.356 . S
C33 O38 1.209 . S
C33 O40 1.226 . S
O34 Cd30 2.273 . S
O34 Cd32 2.411 . S
O34 C37 1.320 . S
O35 Cd32 2.333 . S
O35 C37 1.214 . S
O36 Cd32 2.352 . S
O36 C39 1.258 . S
C37 O34 1.320 . S
C37 O35 1.214 . S
O38 Cd30 2.277 . S
O38 C33 1.209 . S
C39 O36 1.258 . S
C39 O41 1.282 . S
O40 Cd32 2.277 . S
O40 C33 1.226 . S
O41 Cd32 2.356 . S
O41 C39 1.282 . S
C42 O43 1.306 . S
C42 O45 1.160 . S
O43 C42 1.306 . S
O43 Cd44 2.228 . S
Cd44 O43 2.228 . S
Cd44 O48 2.273 . S
Cd44 O52 2.277 . S
O45 C42 1.160 . S
O45 Cd46 2.203 . S
Cd46 O45 2.203 . S
Cd46 O48 2.411 . S
Cd46 O49 2.333 . S
Cd46 O50 2.352 . S
Cd46 O54 2.277 . S
Cd46 O55 2.356 . S
C47 O52 1.209 . S
C47 O54 1.226 . S
O48 Cd44 2.273 . S
O48 Cd46 2.411 . S
O48 C51 1.320 . S
O49 Cd46 2.333 . S
O49 C51 1.214 . S
O50 Cd46 2.352 . S
O50 C53 1.258 . S
C51 O48 1.320 . S
C51 O49 1.214 . S
O52 Cd44 2.277 . S
O52 C47 1.209 . S
C53 O50 1.258 . S
C53 O55 1.282 . S
O54 Cd46 2.277 . S
O54 C47 1.226 . S
O55 Cd46 2.356 . S
O55 C53 1.282 . S
C56 O57 1.306 . S
C56 O59 1.160 . S
O57 C56 1.306 . S
O57 Cd58 2.228 . S
Cd58 O57 2.228 . S
Cd58 O62 2.273 . S
Cd58 O66 2.277 . S
O59 C56 1.160 . S
O59 Cd60 2.203 . S
Cd60 O59 2.203 . S
Cd60 O62 2.411 . S
Cd60 O63 2.333 . S
Cd60 O64 2.352 . S
Cd60 O68 2.277 . S
Cd60 O69 2.356 . S
C61 O66 1.209 . S
C61 O68 1.226 . S
O62 Cd58 2.273 . S
O62 Cd60 2.411 . S
O62 C65 1.320 . S
O63 Cd60 2.333 . S
O63 C65 1.214 . S
O64 Cd60 2.352 . S
O64 C67 1.258 . S
C65 O62 1.320 . S
C65 O63 1.214 . S
O66 Cd58 2.277 . S
O66 C61 1.209 . S
C67 O64 1.258 . S
C67 O69 1.282 . S
O68 Cd60 2.277 . S
O68 C61 1.226 . S
O69 Cd60 2.356 . S
O69 C67 1.282 . S
C70 O71 1.306 . S
C70 O73 1.160 . S
O71 C70 1.306 . S
O71 Cd72 2.228 . S
Cd72 O71 2.228 . S
Cd72 O76 2.273 . S
Cd72 O80 2.277 . S
O73 C70 1.160 . S
O73 Cd74 2.203 . S
Cd74 O73 2.203 . S
Cd74 O76 2.411 . S
Cd74 O77 2.333 . S
Cd74 O78 2.352 . S
Cd74 O82 2.277 . S
Cd74 O83 2.356 . S
C75 O80 1.209 . S
C75 O82 1.226 . S
O76 Cd72 2.273 . S
O76 Cd74 2.411 . S
O76 C79 1.320 . S
O77 Cd74 2.333 . S
O77 C79 1.214 . S
O78 Cd74 2.352 . S
O78 C81 1.258 . S
C79 O76 1.320 . S
C79 O77 1.214 . S
O80 Cd72 2.277 . S
O80 C75 1.209 . S
C81 O78 1.258 . S
C81 O83 1.282 . S
O82 Cd74 2.277 . S
O82 C75 1.226 . S
O83 Cd74 2.356 . S
O83 C81 1.282 . S
C84 O85 1.306 . S
C84 O87 1.160 . S
O85 C84 1.306 . S
O85 Cd86 2.228 . S
Cd86 O85 2.228 . S
Cd86 O90 2.273 . S
Cd86 O94 2.277 . S
O87 C84 1.160 . S
O87 Cd88 2.203 . S
Cd88 O87 2.203 . S
Cd88 O90 2.411 . S
Cd88 O91 2.333 . S
Cd88 O92 2.352 . S
Cd88 O96 2.277 . S
Cd88 O97 2.356 . S
C89 O94 1.209 . S
C89 O96 1.226 . S
O90 Cd86 2.273 . S
O90 Cd88 2.411 . S
O90 C93 1.320 . S
O91 Cd88 2.333 . S
O91 C93 1.214 . S
O92 Cd88 2.352 . S
O92 C95 1.258 . S
C93 O90 1.320 . S
C93 O91 1.214 . S
O94 Cd86 2.277 . S
O94 C89 1.209 . S
C95 O92 1.258 . S
C95 O97 1.282 . S
O96 Cd88 2.277 . S
O96 C89 1.226 . S
O97 Cd88 2.356 . S
O97 C95 1.282 . S
C98 O99 1.306 . S
C98 O101 1.160 . S
O99 C98 1.306 . S
O99 Cd100 2.228 1_655 S
Cd100 O99 2.228 1_455 S
Cd100 O104 2.273 . S
Cd100 O108 2.277 . S
O101 C98 1.160 . S
O101 Cd102 2.203 1_655 S
Cd102 O101 2.203 1_455 S
Cd102 O104 2.411 . S
Cd102 O105 2.333 . S
Cd102 O106 2.352 1_455 S
Cd102 O110 2.277 1_556 S
Cd102 O111 2.356 1_556 S
C103 O108 1.209 . S
C103 O110 1.226 1_556 S
O104 Cd100 2.273 . S
O104 Cd102 2.411 . S
O104 C107 1.320 . S
O105 Cd102 2.333 . S
O105 C107 1.214 . S
O106 Cd102 2.352 1_655 S
O106 C109 1.258 . S
C107 O104 1.320 . S
C107 O105 1.214 . S
O108 Cd100 2.277 . S
O108 C103 1.209 . S
C109 O106 1.258 . S
C109 O111 1.282 1_656 S
O110 Cd102 2.277 1_554 S
O110 C103 1.226 1_554 S
O111 Cd102 2.356 1_554 S
O111 C109 1.282 1_454 S
C112 O113 1.306 1_545 S
C112 O115 1.160 . S
O113 C112 1.306 1_565 S
O113 Cd114 2.228 . S
Cd114 O113 2.228 . S
Cd114 O118 2.273 1_565 S
Cd114 O122 2.277 . S
O115 C112 1.160 . S
O115 Cd116 2.203 . S
Cd116 O115 2.203 . S
Cd116 O118 2.411 . S
Cd116 O119 2.333 1_545 S
Cd116 O120 2.352 . S
Cd116 O124 2.277 1_545 S
Cd116 O125 2.356 . S
C117 O122 1.209 . S
C117 O124 1.226 . S
O118 Cd114 2.273 1_545 S
O118 Cd116 2.411 . S
O118 C121 1.312 . S
O119 Cd116 2.333 1_565 S
O119 C121 1.229 1_565 S
O120 Cd116 2.352 . S
O120 C123 1.258 . S
C121 O118 1.312 . S
C121 O119 1.229 1_545 S
O122 Cd114 2.277 . S
O122 C117 1.209 . S
C123 O120 1.258 . S
C123 O125 1.282 . S
O124 Cd116 2.277 1_565 S
O124 C117 1.226 . S
O125 Cd116 2.356 . S
O125 C123 1.282 . S
C126 O127 1.306 . S
C126 O129 1.160 . S
O127 C126 1.306 . S
O127 Cd128 2.228 . S
Cd128 O127 2.228 . S
Cd128 O132 2.273 . S
Cd128 O136 2.277 . S
O129 C126 1.160 . S
O129 Cd130 2.203 . S
Cd130 O129 2.203 . S
Cd130 O132 2.411 . S
Cd130 O133 2.333 . S
Cd130 O134 2.352 . S
Cd130 O138 2.277 . S
Cd130 O139 2.356 . S
C131 O136 1.209 . S
C131 O138 1.226 . S
O132 Cd128 2.273 . S
O132 Cd130 2.411 . S
O132 C135 1.320 . S
O133 Cd130 2.333 . S
O133 C135 1.214 . S
O134 Cd130 2.352 . S
O134 C137 1.258 . S
C135 O132 1.320 . S
C135 O133 1.214 . S
O136 Cd128 2.277 . S
O136 C131 1.209 . S
C137 O134 1.258 . S
C137 O139 1.282 . S
O138 Cd130 2.277 . S
O138 C131 1.226 . S
O139 Cd130 2.356 . S
O139 C137 1.282 . S
C140 O141 1.306 . S
C140 O143 1.160 . S
O141 C140 1.306 . S
O141 Cd142 2.228 . S
Cd142 O141 2.228 . S
Cd142 O146 2.273 . S
Cd142 O150 2.277 . S
O143 C140 1.160 . S
O143 Cd144 2.203 . S
Cd144 O143 2.203 . S
Cd144 O146 2.411 . S
Cd144 O147 2.333 . S
Cd144 O148 2.352 . S
Cd144 O152 2.277 . S
Cd144 O153 2.356 . S
C145 O150 1.209 . S
C145 O152 1.226 . S
O146 Cd142 2.273 . S
O146 Cd144 2.411 . S
O146 C149 1.320 . S
O147 Cd144 2.333 . S
O147 C149 1.214 . S
O148 Cd144 2.352 . S
O148 C151 1.258 . S
C149 O146 1.320 . S
C149 O147 1.214 . S
O150 Cd142 2.277 . S
O150 C145 1.209 . S
C151 O148 1.258 . S
C151 O153 1.282 . S
O152 Cd144 2.277 . S
O152 C145 1.226 . S
O153 Cd144 2.356 . S
O153 C151 1.282 . S
C154 O155 1.306 1_554 S
C154 O157 1.160 . S
O155 C154 1.306 1_556 S
O155 Cd156 2.228 . S
Cd156 O155 2.228 . S
Cd156 O160 2.265 1_556 S
Cd156 O164 2.277 . S
O157 C154 1.160 . S
O157 Cd158 2.203 . S
Cd158 O157 2.203 . S
Cd158 O160 2.412 . S
Cd158 O161 2.332 . S
Cd158 O162 2.352 . S
Cd158 O166 2.277 1_554 S
Cd158 O167 2.356 . S
C159 O164 1.209 . S
C159 O166 1.226 . S
O160 Cd156 2.265 1_554 S
O160 Cd158 2.412 . S
O160 C163 1.326 1_554 S
O161 Cd158 2.332 . S
O161 C163 1.207 1_554 S
O162 Cd158 2.352 . S
O162 C165 1.258 . S
C163 O160 1.326 1_556 S
C163 O161 1.207 1_556 S
O164 Cd156 2.277 . S
O164 C159 1.209 . S
C165 O162 1.258 . S
C165 O167 1.282 . S
O166 Cd158 2.277 1_556 S
O166 C159 1.226 . S
O167 Cd158 2.356 . S
O167 C165 1.282 . S
C168 O169 1.306 . S
C168 O171 1.160 . S
O169 C168 1.306 . S
O169 Cd170 2.228 . S
Cd170 O169 2.228 . S
Cd170 O174 2.273 . S
Cd170 O178 2.277 1_554 S
O171 C168 1.160 . S
O171 Cd172 2.203 . S
Cd172 O171 2.203 . S
Cd172 O174 2.411 . S
Cd172 O175 2.333 . S
Cd172 O176 2.352 . S
Cd172 O180 2.277 . S
Cd172 O181 2.356 . S
C173 O178 1.209 . S
C173 O180 1.226 1_556 S
O174 Cd170 2.273 . S
O174 Cd172 2.411 . S
O174 C177 1.320 . S
O175 Cd172 2.333 . S
O175 C177 1.214 . S
O176 Cd172 2.352 . S
O176 C179 1.258 . S
C177 O174 1.320 . S
C177 O175 1.214 . S
O178 Cd170 2.277 1_556 S
O178 C173 1.209 . S
C179 O176 1.258 . S
C179 O181 1.282 . S
O180 Cd172 2.277 . S
O180 C173 1.226 1_554 S
O181 Cd172 2.356 . S
O181 C179 1.282 . S
C182 O183 1.306 . S
C182 O185 1.160 . S
O183 C182 1.306 . S
O183 Cd184 2.228 . S
Cd184 O183 2.228 . S
Cd184 O188 2.273 . S
Cd184 O192 2.277 . S
O185 C182 1.160 . S
O185 Cd186 2.203 . S
Cd186 O185 2.203 . S
Cd186 O188 2.411 . S
Cd186 O189 2.333 . S
Cd186 O190 2.352 . S
Cd186 O194 2.277 . S
Cd186 O195 2.356 . S
C187 O192 1.209 . S
C187 O194 1.226 . S
O188 Cd184 2.273 . S
O188 Cd186 2.411 . S
O188 C191 1.320 . S
O189 Cd186 2.333 . S
O189 C191 1.214 . S
O190 Cd186 2.352 . S
O190 C193 1.258 . S
C191 O188 1.320 . S
C191 O189 1.214 . S
O192 Cd184 2.277 . S
O192 C187 1.209 . S
C193 O190 1.258 . S
C193 O195 1.282 . S
O194 Cd186 2.277 . S
O194 C187 1.226 . S
O195 Cd186 2.356 . S
O195 C193 1.282 . S
C196 O197 1.306 . S
C196 O199 1.160 . S
O197 C196 1.306 . S
O197 Cd198 2.228 . S
Cd198 O197 2.228 . S
Cd198 O202 2.273 . S
Cd198 O206 2.277 . S
O199 C196 1.160 . S
O199 Cd200 2.203 . S
Cd200 O199 2.203 . S
Cd200 O202 2.411 . S
Cd200 O203 2.333 . S
Cd200 O204 2.352 . S
Cd200 O208 2.277 . S
Cd200 O209 2.356 . S
C201 O206 1.209 . S
C201 O208 1.226 . S
O202 Cd198 2.273 . S
O202 Cd200 2.411 . S
O202 C205 1.320 . S
O203 Cd200 2.333 . S
O203 C205 1.214 . S
O204 Cd200 2.352 . S
O204 C207 1.258 . S
C205 O202 1.320 . S
C205 O203 1.214 . S
O206 Cd198 2.277 . S
O206 C201 1.209 . S
C207 O204 1.258 . S
C207 O209 1.282 . S
O208 Cd200 2.277 . S
O208 C201 1.226 . S
O209 Cd200 2.356 . S
O209 C207 1.282 . S
C210 O211 1.306 . S
C210 O213 1.160 . S
O211 C210 1.306 . S
O211 Cd212 2.228 . S
Cd212 O211 2.228 . S
Cd212 O216 2.273 . S
Cd212 O220 2.277 . S
O213 C210 1.160 . S
O213 Cd214 2.203 . S
Cd214 O213 2.203 . S
Cd214 O216 2.411 . S
Cd214 O217 2.333 . S
Cd214 O218 2.352 . S
Cd214 O222 2.277 . S
Cd214 O223 2.356 . S
C215 O220 1.209 . S
C215 O222 1.226 . S
O216 Cd212 2.273 . S
O216 Cd214 2.411 . S
O216 C219 1.320 . S
O217 Cd214 2.333 . S
O217 C219 1.214 . S
O218 Cd214 2.352 . S
O218 C221 1.258 . S
C219 O216 1.320 . S
C219 O217 1.214 . S
O220 Cd212 2.277 . S
O220 C215 1.209 . S
C221 O218 1.258 . S
C221 O223 1.282 . S
O222 Cd214 2.277 . S
O222 C215 1.226 . S
O223 Cd214 2.356 . S
O223 C221 1.282 . S
C224 O225 1.306 . S
C224 O227 1.160 . S
O225 C224 1.306 . S
O225 Cd226 2.243 . S
Cd226 O225 2.243 . S
Cd226 O230 2.300 . S
Cd226 O234 2.274 1_545 S
O227 C224 1.160 . S
O227 Cd228 2.203 . S
Cd228 O227 2.203 . S
Cd228 O230 2.411 . S
Cd228 O231 2.333 . S
Cd228 O232 2.352 . S
Cd228 O236 2.277 1_545 S
Cd228 O237 2.356 . S
C229 O234 1.209 . S
C229 O236 1.226 . S
O230 Cd226 2.300 . S
O230 Cd228 2.411 . S
O230 C233 1.320 . S
O231 Cd228 2.333 . S
O231 C233 1.214 . S
O232 Cd228 2.352 . S
O232 C235 1.258 . S
C233 O230 1.320 . S
C233 O231 1.214 . S
O234 Cd226 2.274 1_565 S
O234 C229 1.209 . S
C235 O232 1.258 . S
C235 O237 1.282 . S
O236 Cd228 2.277 1_565 S
O236 C229 1.226 . S
O237 Cd228 2.356 . S
O237 C235 1.282 . S
C238 O239 1.306 . S
C238 O241 1.160 . S
O239 C238 1.306 . S
O239 Cd240 2.228 . S
Cd240 O239 2.228 . S
Cd240 O244 2.273 . S
Cd240 O248 2.277 . S
O241 C238 1.160 . S
O241 Cd242 2.203 . S
Cd242 O241 2.203 . S
Cd242 O244 2.411 . S
Cd242 O245 2.333 . S
Cd242 O246 2.352 . S
Cd242 O250 2.277 . S
Cd242 O251 2.356 . S
C243 O248 1.209 . S
C243 O250 1.226 . S
O244 Cd240 2.273 . S
O244 Cd242 2.411 . S
O244 C247 1.320 . S
O245 Cd242 2.333 . S
O245 C247 1.214 . S
O246 Cd242 2.352 . S
O246 C249 1.258 . S
C247 O244 1.320 . S
C247 O245 1.214 . S
O248 Cd240 2.277 . S
O248 C243 1.209 . S
C249 O246 1.258 . S
C249 O251 1.282 . S
O250 Cd242 2.277 . S
O250 C243 1.226 . S
O251 Cd242 2.356 . S
O251 C249 1.282 . S
C252 O253 1.306 . S
C252 O255 1.160 . S
O253 C252 1.306 . S
O253 Cd254 2.228 . S
Cd254 O253 2.228 . S
Cd254 O258 2.273 . S
Cd254 O262 2.277 . S
O255 C252 1.160 . S
O255 Cd256 2.203 . S
Cd256 O255 2.203 . S
Cd256 O258 2.411 . S
Cd256 O259 2.333 . S
Cd256 O260 2.352 . S
Cd256 O264 2.277 . S
Cd256 O265 2.356 . S
C257 O262 1.209 . S
C257 O264 1.226 . S
O258 Cd254 2.273 . S
O258 Cd256 2.411 . S
O258 C261 1.320 . S
O259 Cd256 2.333 . S
O259 C261 1.214 . S
O260 Cd256 2.352 . S
O260 C263 1.258 . S
C261 O258 1.320 . S
C261 O259 1.214 . S
O262 Cd254 2.277 . S
O262 C257 1.209 . S
C263 O260 1.258 . S
C263 O265 1.282 . S
O264 Cd256 2.277 . S
O264 C257 1.226 . S
O265 Cd256 2.356 . S
O265 C263 1.282 . S
C266 O267 1.306 . S
C266 O269 1.160 . S
O267 C266 1.306 . S
O267 Cd268 2.228 . S
Cd268 O267 2.228 . S
Cd268 O272 2.273 . S
Cd268 O276 2.277 . S
O269 C266 1.160 . S
O269 Cd270 2.203 . S
Cd270 O269 2.203 . S
Cd270 O272 2.411 . S
Cd270 O273 2.333 . S
Cd270 O274 2.352 . S
Cd270 O278 2.277 . S
Cd270 O279 2.356 . S
C271 O276 1.209 . S
C271 O278 1.226 . S
O272 Cd268 2.273 . S
O272 Cd270 2.411 . S
O272 C275 1.320 . S
O273 Cd270 2.333 . S
O273 C275 1.214 . S
O274 Cd270 2.352 . S
O274 C277 1.258 . S
C275 O272 1.320 . S
C275 O273 1.214 . S
O276 Cd268 2.277 . S
O276 C271 1.209 . S
C277 O274 1.258 . S
C277 O279 1.282 . S
O278 Cd270 2.277 . S
O278 C271 1.226 . S
O279 Cd270 2.356 . S
O279 C277 1.282 . S
C280 O281 1.306 . S
C280 O283 1.160 . S
O281 C280 1.306 . S
O281 Cd282 2.228 . S
Cd282 O281 2.228 . S
Cd282 O286 2.273 . S
Cd282 O290 2.277 . S
O283 C280 1.160 . S
O283 Cd284 2.203 . S
Cd284 O283 2.203 . S
Cd284 O286 2.411 . S
Cd284 O287 2.333 . S
Cd284 O288 2.352 1_554 S
Cd284 O292 2.277 . S
Cd284 O293 2.356 . S
C285 O290 1.209 . S
C285 O292 1.226 . S
O286 Cd282 2.273 . S
O286 Cd284 2.411 . S
O286 C289 1.320 . S
O287 Cd284 2.333 . S
O287 C289 1.214 . S
O288 Cd284 2.352 1_556 S
O288 C291 1.258 . S
C289 O286 1.320 . S
C289 O287 1.214 . S
O290 Cd282 2.277 . S
O290 C285 1.209 . S
C291 O288 1.258 . S
C291 O293 1.282 1_556 S
O292 Cd284 2.277 . S
O292 C285 1.226 . S
O293 Cd284 2.356 . S
O293 C291 1.282 1_554 S
C294 O295 1.306 . S
C294 O297 1.160 . S
O295 C294 1.306 . S
O295 Cd296 2.228 . S
Cd296 O295 2.228 . S
Cd296 O300 2.273 . S
Cd296 O304 2.277 . S
O297 C294 1.160 . S
O297 Cd298 2.203 . S
Cd298 O297 2.203 . S
Cd298 O300 2.411 . S
Cd298 O301 2.333 . S
Cd298 O302 2.352 . S
Cd298 O306 2.277 . S
Cd298 O307 2.356 . S
C299 O304 1.209 . S
C299 O306 1.226 . S
O300 Cd296 2.273 . S
O300 Cd298 2.411 . S
O300 C303 1.320 . S
O301 Cd298 2.333 . S
O301 C303 1.214 . S
O302 Cd298 2.352 . S
O302 C305 1.258 . S
C303 O300 1.320 . S
C303 O301 1.214 . S
O304 Cd296 2.277 . S
O304 C299 1.209 . S
C305 O302 1.258 . S
C305 O307 1.282 . S
O306 Cd298 2.277 . S
O306 C299 1.226 . S
O307 Cd298 2.356 . S
O307 C305 1.282 . S
C308 O309 1.306 . S
C308 O311 1.160 . S
O309 C308 1.306 . S
O309 Cd310 2.228 . S
Cd310 O309 2.228 . S
Cd310 O314 2.273 . S
Cd310 O318 2.277 . S
O311 C308 1.160 . S
O311 Cd312 2.203 . S
Cd312 O311 2.203 . S
Cd312 O314 2.411 . S
Cd312 O315 2.333 . S
Cd312 O316 2.352 . S
Cd312 O320 2.277 . S
Cd312 O321 2.356 . S
C313 O318 1.209 . S
C313 O320 1.226 . S
O314 Cd310 2.273 . S
O314 Cd312 2.411 . S
O314 C317 1.320 . S
O315 Cd312 2.333 . S
O315 C317 1.214 . S
O316 Cd312 2.352 . S
O316 C319 1.258 . S
C317 O314 1.320 . S
C317 O315 1.214 . S
O318 Cd310 2.277 . S
O318 C313 1.209 . S
C319 O316 1.258 . S
C319 O321 1.282 . S
O320 Cd312 2.277 . S
O320 C313 1.226 . S
O321 Cd312 2.356 . S
O321 C319 1.282 . S
C322 O323 1.306 . S
C322 O325 1.160 . S
O323 C322 1.306 . S
O323 Cd324 2.228 . S
Cd324 O323 2.228 . S
Cd324 O328 2.273 . S
Cd324 O332 2.277 . S
O325 C322 1.160 . S
O325 Cd326 2.203 . S
Cd326 O325 2.203 . S
Cd326 O328 2.411 . S
Cd326 O329 2.333 . S
Cd326 O330 2.352 . S
Cd326 O334 2.277 . S
Cd326 O335 2.356 . S
C327 O332 1.209 . S
C327 O334 1.226 . S
O328 Cd324 2.273 . S
O328 Cd326 2.411 . S
O328 C331 1.320 . S
O329 Cd326 2.333 . S
O329 C331 1.214 . S
O330 Cd326 2.352 . S
O330 C333 1.258 . S
C331 O328 1.320 . S
C331 O329 1.214 . S
O332 Cd324 2.277 . S
O332 C327 1.209 . S
C333 O330 1.258 . S
C333 O335 1.282 . S
O334 Cd326 2.277 . S
O334 C327 1.226 . S
O335 Cd326 2.356 . S
O335 C333 1.282 . S
Dy336 O339 2.307 . S
Dy336 O341 2.395 . S
Dy336 O342 2.379 . S
Dy336 O344 2.339 . S
Dy336 O346 2.298 . S
Dy336 O350 2.275 . S
Dy336 C358 2.738 . S
Dy337 O340 2.298 1_655 S
Dy337 O343 2.275 1_655 S
Dy337 O345 2.327 1_655 S
Dy337 O347 2.395 . S
Dy337 O348 2.379 . S
Dy337 O351 2.339 1_654 S
Dy337 C367 2.738 . S
C338 O350 1.254 1_556 S
C338 O351 1.257 . S
O339 Dy336 2.307 . S
O339 C349 1.266 . S
O340 Dy337 2.298 1_455 S
O340 C349 1.236 . S
O341 Dy336 2.395 . S
O341 C358 1.255 . S
O342 Dy336 2.379 . S
O342 C358 1.249 . S
O343 Dy337 2.275 1_455 S
O343 C359 1.254 . S
O344 Dy336 2.339 . S
O344 C359 1.257 . S
O345 Dy337 2.327 1_455 S
O345 C360 1.256 1_545 S
O346 Dy336 2.298 . S
O346 C360 1.236 1_545 S
O347 Dy337 2.395 . S
O347 C367 1.255 . S
O348 Dy337 2.379 . S
O348 C367 1.249 . S
C349 O339 1.266 . S
C349 O340 1.236 . S
O350 Dy336 2.275 . S
O350 C338 1.254 1_554 S
O351 Dy337 2.339 1_456 S
O351 C338 1.257 . S
C352 C355 1.344 . S
C352 C356 1.328 . S
C352 C358 1.516 . S
C353 C354 1.304 . S
C353 C357 1.323 . S
C354 C353 1.304 . S
C354 C355 1.371 . S
C354 H368 0.933 . S
C355 C352 1.344 . S
C355 C354 1.371 . S
C355 H369 0.931 . S
C356 C352 1.328 . S
C356 C357 1.433 . S
C356 H370 0.931 . S
C357 C353 1.323 . S
C357 C356 1.433 . S
C357 H371 0.933 . S
C358 Dy336 2.738 . S
C358 O341 1.255 . S
C358 O342 1.249 . S
C358 C352 1.516 . S
C359 O343 1.254 . S
C359 O344 1.257 . S
C360 O345 1.256 1_565 S
C360 O346 1.236 1_565 S
C361 C364 1.344 . S
C361 C365 1.328 1_554 S
C361 C367 1.516 . S
C362 C363 1.304 . S
C362 C366 1.323 1_554 S
C363 C362 1.304 . S
C363 C364 1.371 . S
C363 H372 0.930 . S
C364 C361 1.344 . S
C364 C363 1.371 . S
C364 H373 0.931 . S
C365 C361 1.328 1_556 S
C365 C366 1.433 . S
C365 H374 0.931 . S
C366 C362 1.323 1_556 S
C366 C365 1.433 . S
C366 H375 0.933 . S
C367 Dy337 2.738 . S
C367 O347 1.255 . S
C367 O348 1.249 . S
C367 C361 1.516 . S
H368 C354 0.933 . S
H369 C355 0.931 . S
H370 C356 0.931 . S
H371 C357 0.933 . S
H372 C363 0.930 . S
H373 C364 0.931 . S
H374 C365 0.931 . S
H375 C366 0.933 . S
Dy376 O379 2.307 . S
Dy376 O381 2.395 . S
Dy376 O382 2.379 . S
Dy376 O384 2.339 . S
Dy376 O386 2.298 . S
Dy376 O390 2.275 . S
Dy376 C398 2.738 . S
Dy377 O380 2.298 . S
Dy377 O383 2.275 . S
Dy377 O385 2.307 . S
Dy377 O387 2.395 . S
Dy377 O388 2.379 . S
Dy377 O391 2.339 . S
Dy377 C407 2.738 . S
C378 O390 1.254 . S
C378 O391 1.257 . S
O379 Dy376 2.307 . S
O379 C389 1.266 . S
O380 Dy377 2.298 . S
O380 C389 1.236 . S
O381 Dy376 2.395 . S
O381 C398 1.255 . S
O382 Dy376 2.379 . S
O382 C398 1.249 . S
O383 Dy377 2.275 . S
O383 C399 1.254 . S
O384 Dy376 2.339 . S
O384 C399 1.257 . S
O385 Dy377 2.307 . S
O385 C400 1.266 . S
O386 Dy376 2.298 . S
O386 C400 1.236 . S
O387 Dy377 2.395 . S
O387 C407 1.255 . S
O388 Dy377 2.379 . S
O388 C407 1.249 . S
C389 O379 1.266 . S
C389 O380 1.236 . S
O390 Dy376 2.275 . S
O390 C378 1.254 . S
O391 Dy377 2.339 . S
O391 C378 1.257 . S
C392 C395 1.344 . S
C392 C396 1.328 . S
C392 C398 1.516 . S
C393 C394 1.304 . S
C393 C397 1.323 . S
C394 C393 1.304 . S
C394 C395 1.371 . S
C394 H408 0.930 . S
C395 C392 1.344 . S
C395 C394 1.371 . S
C395 H409 0.931 . S
C396 C392 1.328 . S
C396 C397 1.433 . S
C396 H410 0.931 . S
C397 C393 1.323 . S
C397 C396 1.433 . S
C397 H411 0.933 . S
C398 Dy376 2.738 . S
C398 O381 1.255 . S
C398 O382 1.249 . S
C398 C392 1.516 . S
C399 O383 1.254 . S
C399 O384 1.257 . S
C400 O385 1.266 . S
C400 O386 1.236 . S
C401 C404 1.344 . S
C401 C405 1.328 . S
C401 C407 1.516 . S
C402 C403 1.304 . S
C402 C406 1.323 . S
C403 C402 1.304 . S
C403 C404 1.371 . S
C403 H412 0.930 . S
C404 C401 1.344 . S
C404 C403 1.371 . S
C404 H413 0.931 . S
C405 C401 1.328 . S
C405 C406 1.433 . S
C405 H414 0.931 . S
C406 C402 1.323 . S
C406 C405 1.433 . S
C406 H415 0.933 . S
C407 Dy377 2.738 . S
C407 O387 1.255 . S
C407 O388 1.249 . S
C407 C401 1.516 . S
H408 C394 0.930 . S
H409 C395 0.931 . S
H410 C396 0.931 . S
H411 C397 0.933 . S
H412 C403 0.930 . S
H413 C404 0.931 . S
H414 C405 0.931 . S
H415 C406 0.933 . S
Dy416 O419 2.307 . S
Dy416 O421 2.395 . S
Dy416 O422 2.379 . S
Dy416 O424 2.339 . S
Dy416 O426 2.298 . S
Dy416 O430 2.275 . S
Dy416 C438 2.738 . S
Dy417 O420 2.298 . S
Dy417 O423 2.275 . S
Dy417 O425 2.307 . S
Dy417 O427 2.395 . S
Dy417 O428 2.379 . S
Dy417 O431 2.339 . S
Dy417 C447 2.738 . S
C418 O430 1.254 . S
C418 O431 1.257 . S
O419 Dy416 2.307 . S
O419 C429 1.266 1_545 S
O420 Dy417 2.298 . S
O420 C429 1.236 1_545 S
O421 Dy416 2.395 . S
O421 C438 1.255 . S
O422 Dy416 2.379 . S
O422 C438 1.249 . S
O423 Dy417 2.275 . S
O423 C439 1.254 . S
O424 Dy416 2.339 . S
O424 C439 1.257 . S
O425 Dy417 2.307 . S
O425 C440 1.266 . S
O426 Dy416 2.298 . S
O426 C440 1.236 . S
O427 Dy417 2.395 . S
O427 C447 1.255 . S
O428 Dy417 2.379 . S
O428 C447 1.249 . S
C429 O419 1.266 1_565 S
C429 O420 1.236 1_565 S
O430 Dy416 2.275 . S
O430 C418 1.254 . S
O431 Dy417 2.339 . S
O431 C418 1.257 . S
C432 C435 1.344 . S
C432 C436 1.328 . S
C432 C438 1.516 . S
C433 C434 1.304 . S
C433 C437 1.323 . S
C434 C433 1.304 . S
C434 C435 1.371 . S
C434 H448 0.930 . S
C435 C432 1.344 . S
C435 C434 1.371 . S
C435 H449 0.931 . S
C436 C432 1.328 . S
C436 C437 1.433 . S
C436 H450 0.931 . S
C437 C433 1.323 . S
C437 C436 1.433 . S
C437 H451 0.933 . S
C438 Dy416 2.738 . S
C438 O421 1.255 . S
C438 O422 1.249 . S
C438 C432 1.516 . S
C439 O423 1.254 . S
C439 O424 1.257 . S
C440 O425 1.266 . S
C440 O426 1.236 . S
C441 C444 1.344 1_545 S
C441 C445 1.330 . S
C441 C447 1.516 . S
C442 C443 1.304 . S
C442 C446 1.323 . S
C443 C442 1.304 . S
C443 C444 1.371 . S
C443 H452 0.930 . S
C444 C441 1.344 1_565 S
C444 C443 1.371 . S
C444 H453 0.931 . S
C445 C441 1.330 . S
C445 C446 1.420 1_545 S
C445 H454 0.942 . S
C446 C442 1.323 . S
C446 C445 1.420 1_565 S
C446 H455 0.933 . S
C447 Dy417 2.738 . S
C447 O427 1.255 . S
C447 O428 1.249 . S
C447 C441 1.516 . S
H448 C434 0.930 . S
H449 C435 0.931 . S
H450 C436 0.931 . S
H451 C437 0.933 . S
H452 C443 0.930 . S
H453 C444 0.931 . S
H454 C445 0.942 . S
H455 C446 0.933 . S
Dy456 O459 2.307 . S
Dy456 O461 2.395 . S
Dy456 O462 2.379 . S
Dy456 O464 2.339 . S
Dy456 O466 2.298 . S
Dy456 O470 2.275 . S
Dy456 C478 2.738 . S
Dy457 O460 2.298 . S
Dy457 O463 2.275 . S
Dy457 O465 2.307 . S
Dy457 O467 2.395 . S
Dy457 O468 2.379 . S
Dy457 O471 2.339 . S
Dy457 C487 2.738 . S
C458 O470 1.254 . S
C458 O471 1.257 . S
O459 Dy456 2.307 . S
O459 C469 1.266 . S
O460 Dy457 2.298 . S
O460 C469 1.236 . S
O461 Dy456 2.395 . S
O461 C478 1.255 . S
O462 Dy456 2.379 . S
O462 C478 1.249 . S
O463 Dy457 2.275 . S
O463 C479 1.254 . S
O464 Dy456 2.339 . S
O464 C479 1.257 . S
O465 Dy457 2.307 . S
O465 C480 1.266 . S
O466 Dy456 2.298 . S
O466 C480 1.236 . S
O467 Dy457 2.395 . S
O467 C487 1.255 . S
O468 Dy457 2.379 . S
O468 C487 1.249 . S
C469 O459 1.266 . S
C469 O460 1.236 . S
O470 Dy456 2.275 . S
O470 C458 1.254 . S
O471 Dy457 2.339 . S
O471 C458 1.257 . S
C472 C475 1.344 . S
C472 C476 1.328 . S
C472 C478 1.516 . S
C473 C474 1.304 . S
C473 C477 1.323 . S
C474 C473 1.304 . S
C474 C475 1.371 . S
C474 H488 0.930 . S
C475 C472 1.344 . S
C475 C474 1.371 . S
C475 H489 0.931 . S
C476 C472 1.328 . S
C476 C477 1.433 . S
C476 H490 0.931 . S
C477 C473 1.323 . S
C477 C476 1.433 . S
C477 H491 0.933 . S
C478 Dy456 2.738 . S
C478 O461 1.255 . S
C478 O462 1.249 . S
C478 C472 1.516 . S
C479 O463 1.254 . S
C479 O464 1.257 . S
C480 O465 1.266 . S
C480 O466 1.236 . S
C481 C484 1.344 . S
C481 C485 1.328 . S
C481 C487 1.516 . S
C482 C483 1.304 . S
C482 C486 1.323 . S
C483 C482 1.304 . S
C483 C484 1.371 . S
C483 H492 0.930 . S
C484 C481 1.344 . S
C484 C483 1.371 . S
C484 H493 0.931 . S
C485 C481 1.328 . S
C485 C486 1.433 . S
C485 H494 0.931 . S
C486 C482 1.323 . S
C486 C485 1.433 . S
C486 H495 0.933 . S
C487 Dy457 2.738 . S
C487 O467 1.255 . S
C487 O468 1.249 . S
C487 C481 1.516 . S
H488 C474 0.930 . S
H489 C475 0.931 . S
H490 C476 0.931 . S
H491 C477 0.933 . S
H492 C483 0.930 . S
H493 C484 0.931 . S
H494 C485 0.931 . S
H495 C486 0.933 . S
Dy496 O499 2.307 . S
Dy496 O501 2.395 1_545 S
Dy496 O502 2.379 1_545 S
Dy496 O504 2.339 . S
Dy496 O506 2.298 . S
Dy496 O510 2.275 . S
Dy496 C518 2.738 1_545 S
Dy497 O500 2.298 . S
Dy497 O503 2.275 . S
Dy497 O505 2.307 . S
Dy497 O507 2.395 . S
Dy497 O508 2.379 . S
Dy497 O511 2.339 1_455 S
Dy497 C527 2.738 . S
C498 O510 1.254 1_655 S
C498 O511 1.257 . S
O499 Dy496 2.307 . S
O499 C509 1.266 . S
O500 Dy497 2.298 . S
O500 C509 1.236 . S
O501 Dy496 2.395 1_565 S
O501 C518 1.255 . S
O502 Dy496 2.379 1_565 S
O502 C518 1.249 . S
O503 Dy497 2.275 . S
O503 C519 1.254 . S
O504 Dy496 2.339 . S
O504 C519 1.257 . S
O505 Dy497 2.307 . S
O505 C520 1.266 . S
O506 Dy496 2.298 . S
O506 C520 1.236 . S
O507 Dy497 2.395 . S
O507 C527 1.255 . S
O508 Dy497 2.379 . S
O508 C527 1.249 . S
C509 O499 1.266 . S
C509 O500 1.236 . S
O510 Dy496 2.275 . S
O510 C498 1.254 1_455 S
O511 Dy497 2.339 1_655 S
O511 C498 1.257 . S
C512 C515 1.344 . S
C512 C516 1.328 . S
C512 C518 1.516 . S
C513 C514 1.304 . S
C513 C517 1.323 . S
C514 C513 1.304 . S
C514 C515 1.371 . S
C514 H528 0.930 . S
C515 C512 1.344 . S
C515 C514 1.371 . S
C515 H529 0.931 . S
C516 C512 1.328 . S
C516 C517 1.433 . S
C516 H530 0.931 . S
C517 C513 1.323 . S
C517 C516 1.433 . S
C517 H531 0.933 . S
C518 Dy496 2.738 1_565 S
C518 O501 1.255 . S
C518 O502 1.249 . S
C518 C512 1.516 . S
C519 O503 1.254 . S
C519 O504 1.257 . S
C520 O505 1.266 . S
C520 O506 1.236 . S
C521 C524 1.344 . S
C521 C525 1.328 1_455 S
C521 C527 1.516 . S
C522 C523 1.304 . S
C522 C526 1.323 1_455 S
C523 C522 1.304 . S
C523 C524 1.371 . S
C523 H532 0.930 . S
C524 C521 1.344 . S
C524 C523 1.371 . S
C524 H533 0.931 . S
C525 C521 1.328 1_655 S
C525 C526 1.433 . S
C525 H534 0.931 . S
C526 C522 1.323 1_655 S
C526 C525 1.433 . S
C526 H535 0.933 . S
C527 Dy497 2.738 . S
C527 O507 1.255 . S
C527 O508 1.249 . S
C527 C521 1.516 . S
H528 C514 0.930 . S
H529 C515 0.931 . S
H530 C516 0.931 . S
H531 C517 0.933 . S
H532 C523 0.930 . S
H533 C524 0.931 . S
H534 C525 0.931 . S
H535 C526 0.933 . S
Dy536 O539 2.307 . S
Dy536 O541 2.395 . S
Dy536 O542 2.379 . S
Dy536 O544 2.339 . S
Dy536 O546 2.298 . S
Dy536 O550 2.275 . S
Dy536 C558 2.738 . S
Dy537 O540 2.298 . S
Dy537 O543 2.275 . S
Dy537 O545 2.307 . S
Dy537 O547 2.395 . S
Dy537 O548 2.379 . S
Dy537 O551 2.339 . S
Dy537 C567 2.738 . S
C538 O550 1.254 . S
C538 O551 1.257 . S
O539 Dy536 2.307 . S
O539 C549 1.266 . S
O540 Dy537 2.298 . S
O540 C549 1.236 . S
O541 Dy536 2.395 . S
O541 C558 1.255 . S
O542 Dy536 2.379 . S
O542 C558 1.249 . S
O543 Dy537 2.275 . S
O543 C559 1.254 . S
O544 Dy536 2.339 . S
O544 C559 1.257 . S
O545 Dy537 2.307 . S
O545 C560 1.266 . S
O546 Dy536 2.298 . S
O546 C560 1.236 . S
O547 Dy537 2.395 . S
O547 C567 1.255 . S
O548 Dy537 2.379 . S
O548 C567 1.249 . S
C549 O539 1.266 . S
C549 O540 1.236 . S
O550 Dy536 2.275 . S
O550 C538 1.254 . S
O551 Dy537 2.339 . S
O551 C538 1.257 . S
C552 C555 1.344 . S
C552 C556 1.328 . S
C552 C558 1.516 . S
C553 C554 1.304 . S
C553 C557 1.323 . S
C554 C553 1.304 . S
C554 C555 1.371 . S
C554 H568 0.930 . S
C555 C552 1.344 . S
C555 C554 1.371 . S
C555 H569 0.931 . S
C556 C552 1.328 . S
C556 C557 1.433 . S
C556 H570 0.931 . S
C557 C553 1.323 . S
C557 C556 1.433 . S
C557 H571 0.933 . S
C558 Dy536 2.738 . S
C558 O541 1.255 . S
C558 O542 1.249 . S
C558 C552 1.516 . S
C559 O543 1.254 . S
C559 O544 1.257 . S
C560 O545 1.266 . S
C560 O546 1.236 . S
C561 C564 1.344 . S
C561 C565 1.328 . S
C561 C567 1.516 . S
C562 C563 1.304 . S
C562 C566 1.323 . S
C563 C562 1.304 . S
C563 C564 1.371 . S
C563 H572 0.930 . S
C564 C561 1.344 . S
C564 C563 1.371 . S
C564 H573 0.931 . S
C565 C561 1.328 . S
C565 C566 1.433 . S
C565 H574 0.931 . S
C566 C562 1.323 . S
C566 C565 1.433 . S
C566 H575 0.933 . S
C567 Dy537 2.738 . S
C567 O547 1.255 . S
C567 O548 1.249 . S
C567 C561 1.516 . S
H568 C554 0.930 . S
H569 C555 0.931 . S
H570 C556 0.931 . S
H571 C557 0.933 . S
H572 C563 0.930 . S
H573 C564 0.931 . S
H574 C565 0.931 . S
H575 C566 0.933 . S
Dy576 O579 2.307 . S
Dy576 O581 2.395 1_554 S
Dy576 O582 2.379 1_554 S
Dy576 O584 2.339 . S
Dy576 O586 2.298 . S
Dy576 O590 2.275 . S
Dy576 C598 2.738 1_554 S
Dy577 O580 2.298 . S
Dy577 O583 2.275 . S
Dy577 O585 2.307 . S
Dy577 O587 2.395 . S
Dy577 O588 2.379 . S
Dy577 O591 2.339 1_545 S
Dy577 C607 2.738 . S
C578 O590 1.254 . S
C578 O591 1.257 1_545 S
O579 Dy576 2.307 . S
O579 C589 1.266 . S
O580 Dy577 2.298 . S
O580 C589 1.236 . S
O581 Dy576 2.395 1_556 S
O581 C598 1.255 . S
O582 Dy576 2.379 1_556 S
O582 C598 1.249 . S
O583 Dy577 2.275 . S
O583 C599 1.254 . S
O584 Dy576 2.339 . S
O584 C599 1.257 . S
O585 Dy577 2.307 . S
O585 C600 1.266 . S
O586 Dy576 2.298 . S
O586 C600 1.236 . S
O587 Dy577 2.395 . S
O587 C607 1.255 . S
O588 Dy577 2.379 . S
O588 C607 1.249 . S
C589 O579 1.266 . S
C589 O580 1.236 . S
O590 Dy576 2.275 . S
O590 C578 1.254 . S
O591 Dy577 2.339 1_565 S
O591 C578 1.257 1_565 S
C592 C595 1.344 . S
C592 C596 1.328 . S
C592 C598 1.516 . S
C593 C594 1.304 . S
C593 C597 1.323 . S
C594 C593 1.304 . S
C594 C595 1.371 . S
C594 H608 0.930 . S
C595 C592 1.344 . S
C595 C594 1.371 . S
C595 H609 0.931 . S
C596 C592 1.328 . S
C596 C597 1.433 . S
C596 H610 0.931 . S
C597 C593 1.323 . S
C597 C596 1.433 . S
C597 H611 0.933 . S
C598 Dy576 2.738 1_556 S
C598 O581 1.255 . S
C598 O582 1.249 . S
C598 C592 1.516 . S
C599 O583 1.254 . S
C599 O584 1.257 . S
C600 O585 1.266 . S
C600 O586 1.236 . S
C601 C604 1.344 . S
C601 C605 1.328 1_545 S
C601 C607 1.516 . S
C602 C603 1.304 1_565 S
C602 C606 1.323 . S
C603 C602 1.304 1_545 S
C603 C604 1.371 . S
C603 H612 0.930 . S
C604 C601 1.344 . S
C604 C603 1.371 . S
C604 H613 0.931 . S
C605 C601 1.328 1_565 S
C605 C606 1.433 . S
C605 H614 0.931 . S
C606 C602 1.323 . S
C606 C605 1.433 . S
C606 H615 0.933 . S
C607 Dy577 2.738 . S
C607 O587 1.255 . S
C607 O588 1.249 . S
C607 C601 1.516 . S
H608 C594 0.930 . S
H609 C595 0.931 . S
H610 C596 0.931 . S
H611 C597 0.933 . S
H612 C603 0.930 . S
H613 C604 0.931 . S
H614 C605 0.931 . S
H615 C606 0.933 . S
Dy616 O619 2.307 . S
Dy616 O621 2.395 . S
Dy616 O622 2.379 . S
Dy616 O624 2.339 . S
Dy616 O626 2.298 . S
Dy616 O630 2.275 . S
Dy616 C638 2.738 . S
Dy617 O620 2.298 . S
Dy617 O623 2.275 . S
Dy617 O625 2.307 . S
Dy617 O627 2.395 . S
Dy617 O628 2.379 . S
Dy617 O631 2.339 . S
Dy617 C647 2.738 . S
C618 O630 1.254 . S
C618 O631 1.257 . S
O619 Dy616 2.307 . S
O619 C629 1.266 . S
O620 Dy617 2.298 . S
O620 C629 1.236 . S
O621 Dy616 2.395 . S
O621 C638 1.255 . S
O622 Dy616 2.379 . S
O622 C638 1.249 . S
O623 Dy617 2.275 . S
O623 C639 1.254 . S
O624 Dy616 2.339 . S
O624 C639 1.257 . S
O625 Dy617 2.307 . S
O625 C640 1.266 . S
O626 Dy616 2.298 . S
O626 C640 1.236 . S
O627 Dy617 2.395 . S
O627 C647 1.255 . S
O628 Dy617 2.379 . S
O628 C647 1.249 . S
C629 O619 1.266 . S
C629 O620 1.236 . S
O630 Dy616 2.275 . S
O630 C618 1.254 . S
O631 Dy617 2.339 . S
O631 C618 1.257 . S
C632 C635 1.344 . S
C632 C636 1.328 . S
C632 C638 1.516 . S
C633 C634 1.304 . S
C633 C637 1.323 . S
C634 C633 1.304 . S
C634 C635 1.371 . S
C634 H648 0.930 . S
C635 C632 1.344 . S
C635 C634 1.371 . S
C635 H649 0.931 . S
C636 C632 1.328 . S
C636 C637 1.433 . S
C636 H650 0.931 . S
C637 C633 1.323 . S
C637 C636 1.433 . S
C637 H651 0.933 . S
C638 Dy616 2.738 . S
C638 O621 1.255 . S
C638 O622 1.249 . S
C638 C632 1.516 . S
C639 O623 1.254 . S
C639 O624 1.257 . S
C640 O625 1.266 . S
C640 O626 1.236 . S
C641 C644 1.344 . S
C641 C645 1.328 . S
C641 C647 1.516 . S
C642 C643 1.304 . S
C642 C646 1.323 . S
C643 C642 1.304 . S
C643 C644 1.371 . S
C643 H652 0.930 . S
C644 C641 1.344 . S
C644 C643 1.371 . S
C644 H653 0.931 . S
C645 C641 1.328 . S
C645 C646 1.433 . S
C645 H654 0.931 . S
C646 C642 1.323 . S
C646 C645 1.433 . S
C646 H655 0.933 . S
C647 Dy617 2.738 . S
C647 O627 1.255 . S
C647 O628 1.249 . S
C647 C641 1.516 . S
H648 C634 0.930 . S
H649 C635 0.931 . S
H650 C636 0.931 . S
H651 C637 0.933 . S
H652 C643 0.930 . S
H653 C644 0.931 . S
H654 C645 0.931 . S
H655 C646 0.933 . S
Dy656 O659 2.307 1_554 S
Dy656 O661 2.395 . S
Dy656 O662 2.379 . S
Dy656 O664 2.339 . S
Dy656 O666 2.298 . S
Dy656 O670 2.275 . S
Dy656 C678 2.738 . S
Dy657 O660 2.298 1_554 S
Dy657 O663 2.275 . S
Dy657 O665 2.307 . S
Dy657 O667 2.395 . S
Dy657 O668 2.379 . S
Dy657 O671 2.339 . S
Dy657 C687 2.738 . S
C658 O670 1.254 . S
C658 O671 1.257 . S
O659 Dy656 2.307 1_556 S
O659 C669 1.266 . S
O660 Dy657 2.298 1_556 S
O660 C669 1.236 . S
O661 Dy656 2.395 . S
O661 C678 1.255 . S
O662 Dy656 2.379 . S
O662 C678 1.249 . S
O663 Dy657 2.275 . S
O663 C679 1.254 . S
O664 Dy656 2.339 . S
O664 C679 1.257 . S
O665 Dy657 2.307 . S
O665 C680 1.266 . S
O666 Dy656 2.298 . S
O666 C680 1.236 . S
O667 Dy657 2.395 . S
O667 C687 1.255 . S
O668 Dy657 2.379 . S
O668 C687 1.249 . S
C669 O659 1.266 . S
C669 O660 1.236 . S
O670 Dy656 2.275 . S
O670 C658 1.254 . S
O671 Dy657 2.339 . S
O671 C658 1.257 . S
C672 C675 1.344 . S
C672 C676 1.328 . S
C672 C678 1.516 . S
C673 C674 1.304 . S
C673 C677 1.323 . S
C674 C673 1.304 . S
C674 C675 1.371 . S
C674 H688 0.930 . S
C675 C672 1.344 . S
C675 C674 1.371 . S
C675 H689 0.931 . S
C676 C672 1.328 . S
C676 C677 1.433 . S
C676 H690 0.931 . S
C677 C673 1.323 . S
C677 C676 1.433 . S
C677 H691 0.933 . S
C678 Dy656 2.738 . S
C678 O661 1.255 . S
C678 O662 1.249 . S
C678 C672 1.516 . S
C679 O663 1.254 . S
C679 O664 1.257 . S
C680 O665 1.266 . S
C680 O666 1.236 . S
C681 C684 1.358 . S
C681 C685 1.327 . S
C681 C687 1.504 1_556 S
C682 C683 1.304 . S
C682 C686 1.323 . S
C683 C682 1.304 . S
C683 C684 1.371 . S
C683 H692 0.930 . S
C684 C681 1.358 . S
C684 C683 1.371 . S
C684 H693 0.931 . S
C685 C681 1.327 . S
C685 C686 1.436 . S
C685 H694 0.927 1_556 S
C686 C682 1.323 . S
C686 C685 1.436 . S
C686 H695 0.933 . S
C687 Dy657 2.738 . S
C687 O667 1.255 . S
C687 O668 1.249 . S
C687 C681 1.504 1_554 S
H688 C674 0.930 . S
H689 C675 0.931 . S
H690 C676 0.931 . S
H691 C677 0.933 . S
H692 C683 0.930 . S
H693 C684 0.931 . S
H694 C685 0.927 1_554 S
H695 C686 0.933 . S
Dy696 O699 2.307 . S
Dy696 O701 2.395 . S
Dy696 O702 2.379 . S
Dy696 O704 2.339 . S
Dy696 O706 2.298 . S
Dy696 O710 2.275 . S
Dy696 C718 2.738 . S
Dy697 O700 2.298 . S
Dy697 O703 2.275 . S
Dy697 O705 2.307 . S
Dy697 O707 2.395 . S
Dy697 O708 2.379 . S
Dy697 O711 2.339 . S
Dy697 C727 2.738 . S
C698 O710 1.254 . S
C698 O711 1.257 . S
O699 Dy696 2.307 . S
O699 C709 1.266 . S
O700 Dy697 2.298 . S
O700 C709 1.236 . S
O701 Dy696 2.395 . S
O701 C718 1.255 . S
O702 Dy696 2.379 . S
O702 C718 1.249 . S
O703 Dy697 2.275 . S
O703 C719 1.254 . S
O704 Dy696 2.339 . S
O704 C719 1.257 . S
O705 Dy697 2.307 . S
O705 C720 1.266 . S
O706 Dy696 2.298 . S
O706 C720 1.236 . S
O707 Dy697 2.395 . S
O707 C727 1.255 . S
O708 Dy697 2.379 . S
O708 C727 1.249 . S
C709 O699 1.266 . S
C709 O700 1.236 . S
O710 Dy696 2.275 . S
O710 C698 1.254 . S
O711 Dy697 2.339 . S
O711 C698 1.257 . S
C712 C715 1.344 . S
C712 C716 1.328 . S
C712 C718 1.516 . S
C713 C714 1.304 . S
C713 C717 1.323 . S
C714 C713 1.304 . S
C714 C715 1.371 . S
C714 H728 0.930 . S
C715 C712 1.344 . S
C715 C714 1.371 . S
C715 H729 0.931 . S
C716 C712 1.328 . S
C716 C717 1.433 . S
C716 H730 0.931 . S
C717 C713 1.323 . S
C717 C716 1.433 . S
C717 H731 0.933 . S
C718 Dy696 2.738 . S
C718 O701 1.255 . S
C718 O702 1.249 . S
C718 C712 1.516 . S
C719 O703 1.254 . S
C719 O704 1.257 . S
C720 O705 1.266 . S
C720 O706 1.236 . S
C721 C724 1.344 . S
C721 C725 1.328 . S
C721 C727 1.516 . S
C722 C723 1.304 . S
C722 C726 1.323 . S
C723 C722 1.304 . S
C723 C724 1.371 . S
C723 H732 0.930 . S
C724 C721 1.344 . S
C724 C723 1.371 . S
C724 H733 0.931 . S
C725 C721 1.328 . S
C725 C726 1.433 . S
C725 H734 0.931 . S
C726 C722 1.323 . S
C726 C725 1.433 . S
C726 H735 0.933 . S
C727 Dy697 2.738 . S
C727 O707 1.255 . S
C727 O708 1.249 . S
C727 C721 1.516 . S
H728 C714 0.930 . S
H729 C715 0.931 . S
H730 C716 0.931 . S
H731 C717 0.933 . S
H732 C723 0.930 . S
H733 C724 0.931 . S
H734 C725 0.931 . S
H735 C726 0.933 . S
Dy736 O739 2.307 1_455 S
Dy736 O741 2.395 . S
Dy736 O742 2.379 . S
Dy736 O744 2.339 . S
Dy736 O746 2.298 . S
Dy736 O750 2.275 . S
Dy736 C758 2.738 . S
Dy737 O740 2.298 1_455 S
Dy737 O743 2.275 . S
Dy737 O745 2.307 . S
Dy737 O747 2.395 . S
Dy737 O748 2.379 . S
Dy737 O751 2.339 . S
Dy737 C767 2.738 . S
C738 O750 1.254 . S
C738 O751 1.257 . S
O739 Dy736 2.307 1_655 S
O739 C749 1.266 . S
O740 Dy737 2.298 1_655 S
O740 C749 1.236 . S
O741 Dy736 2.395 . S
O741 C758 1.255 . S
O742 Dy736 2.379 . S
O742 C758 1.249 . S
O743 Dy737 2.275 . S
O743 C759 1.254 . S
O744 Dy736 2.339 . S
O744 C759 1.257 . S
O745 Dy737 2.307 . S
O745 C760 1.266 . S
O746 Dy736 2.298 . S
O746 C760 1.236 . S
O747 Dy737 2.395 . S
O747 C767 1.255 . S
O748 Dy737 2.379 . S
O748 C767 1.249 . S
C749 O739 1.266 . S
C749 O740 1.236 . S
O750 Dy736 2.275 . S
O750 C738 1.254 . S
O751 Dy737 2.339 . S
O751 C738 1.257 . S
C752 C755 1.344 . S
C752 C756 1.328 . S
C752 C758 1.516 . S
C753 C754 1.304 . S
C753 C757 1.323 . S
C754 C753 1.304 . S
C754 C755 1.371 . S
C754 H768 0.930 . S
C755 C752 1.344 . S
C755 C754 1.371 . S
C755 H769 0.931 . S
C756 C752 1.328 . S
C756 C757 1.433 . S
C756 H770 0.931 . S
C757 C753 1.323 . S
C757 C756 1.433 . S
C757 H771 0.933 . S
C758 Dy736 2.738 . S
C758 O741 1.255 . S
C758 O742 1.249 . S
C758 C752 1.516 . S
C759 O743 1.254 . S
C759 O744 1.257 . S
C760 O745 1.266 . S
C760 O746 1.236 . S
C761 C764 1.344 . S
C761 C765 1.328 . S
C761 C767 1.516 1_655 S
C762 C763 1.304 . S
C762 C766 1.323 . S
C763 C762 1.304 . S
C763 C764 1.371 . S
C763 H772 0.930 . S
C764 C761 1.344 . S
C764 C763 1.371 . S
C764 H773 0.931 . S
C765 C761 1.328 . S
C765 C766 1.433 . S
C765 H774 0.933 . S
C766 C762 1.323 . S
C766 C765 1.433 . S
C766 H775 0.933 . S
C767 Dy737 2.738 . S
C767 O747 1.255 . S
C767 O748 1.249 . S
C767 C761 1.516 1_455 S
H768 C754 0.930 . S
H769 C755 0.931 . S
H770 C756 0.931 . S
H771 C757 0.933 . S
H772 C763 0.930 . S
H773 C764 0.931 . S
H774 C765 0.933 . S
H775 C766 0.933 . S
Dy776 O779 2.307 . S
Dy776 O781 2.395 . S
Dy776 O782 2.379 . S
Dy776 O784 2.339 . S
Dy776 O786 2.298 . S
Dy776 O790 2.275 . S
Dy776 C798 2.738 . S
Dy777 O780 2.298 . S
Dy777 O783 2.275 . S
Dy777 O785 2.307 . S
Dy777 O787 2.395 . S
Dy777 O788 2.379 . S
Dy777 O791 2.339 . S
Dy777 C807 2.738 . S
C778 O790 1.254 . S
C778 O791 1.257 . S
O779 Dy776 2.307 . S
O779 C789 1.266 . S
O780 Dy777 2.298 . S
O780 C789 1.236 . S
O781 Dy776 2.395 . S
O781 C798 1.255 . S
O782 Dy776 2.379 . S
O782 C798 1.249 . S
O783 Dy777 2.275 . S
O783 C799 1.254 . S
O784 Dy776 2.339 . S
O784 C799 1.257 . S
O785 Dy777 2.307 . S
O785 C800 1.266 . S
O786 Dy776 2.298 . S
O786 C800 1.236 . S
O787 Dy777 2.395 . S
O787 C807 1.255 . S
O788 Dy777 2.379 . S
O788 C807 1.249 . S
C789 O779 1.266 . S
C789 O780 1.236 . S
O790 Dy776 2.275 . S
O790 C778 1.254 . S
O791 Dy777 2.339 . S
O791 C778 1.257 . S
C792 C795 1.344 . S
C792 C796 1.328 . S
C792 C798 1.516 . S
C793 C794 1.304 . S
C793 C797 1.323 . S
C794 C793 1.304 . S
C794 C795 1.371 . S
C794 H808 0.930 . S
C795 C792 1.344 . S
C795 C794 1.371 . S
C795 H809 0.931 . S
C796 C792 1.328 . S
C796 C797 1.433 . S
C796 H810 0.931 . S
C797 C793 1.323 . S
C797 C796 1.433 . S
C797 H811 0.933 . S
C798 Dy776 2.738 . S
C798 O781 1.255 . S
C798 O782 1.249 . S
C798 C792 1.516 . S
C799 O783 1.254 . S
C799 O784 1.257 . S
C800 O785 1.266 . S
C800 O786 1.236 . S
C801 C804 1.344 . S
C801 C805 1.328 . S
C801 C807 1.516 . S
C802 C803 1.304 . S
C802 C806 1.323 . S
C803 C802 1.304 . S
C803 C804 1.371 . S
C803 H812 0.930 . S
C804 C801 1.344 . S
C804 C803 1.371 . S
C804 H813 0.931 . S
C805 C801 1.328 . S
C805 C806 1.433 . S
C805 H814 0.931 . S
C806 C802 1.323 . S
C806 C805 1.433 . S
C806 H815 0.933 . S
C807 Dy777 2.738 . S
C807 O787 1.255 . S
C807 O788 1.249 . S
C807 C801 1.516 . S
H808 C794 0.930 . S
H809 C795 0.931 . S
H810 C796 0.931 . S
H811 C797 0.933 . S
H812 C803 0.930 . S
H813 C804 0.931 . S
H814 C805 0.931 . S
H815 C806 0.933 . S
Dy816 O819 2.307 . S
Dy816 O821 2.395 . S
Dy816 O822 2.379 . S
Dy816 O824 2.339 . S
Dy816 O826 2.298 . S
Dy816 O830 2.275 . S
Dy816 C838 2.738 . S
Dy817 O820 2.298 . S
Dy817 O823 2.275 . S
Dy817 O825 2.307 . S
Dy817 O827 2.395 . S
Dy817 O828 2.379 . S
Dy817 O831 2.339 . S
Dy817 C847 2.738 . S
C818 O830 1.254 . S
C818 O831 1.257 . S
O819 Dy816 2.307 . S
O819 C829 1.266 . S
O820 Dy817 2.298 . S
O820 C829 1.236 . S
O821 Dy816 2.395 . S
O821 C838 1.255 . S
O822 Dy816 2.379 . S
O822 C838 1.249 . S
O823 Dy817 2.275 . S
O823 C839 1.254 . S
O824 Dy816 2.339 . S
O824 C839 1.257 . S
O825 Dy817 2.307 . S
O825 C840 1.266 . S
O826 Dy816 2.298 . S
O826 C840 1.236 . S
O827 Dy817 2.395 . S
O827 C847 1.255 . S
O828 Dy817 2.379 . S
O828 C847 1.249 . S
C829 O819 1.266 . S
C829 O820 1.236 . S
O830 Dy816 2.275 . S
O830 C818 1.254 . S
O831 Dy817 2.339 . S
O831 C818 1.257 . S
C832 C835 1.344 . S
C832 C836 1.328 . S
C832 C838 1.516 . S
C833 C834 1.304 . S
C833 C837 1.323 . S
C834 C833 1.304 . S
C834 C835 1.371 . S
C834 H848 0.930 . S
C835 C832 1.344 . S
C835 C834 1.371 . S
C835 H849 0.931 . S
C836 C832 1.328 . S
C836 C837 1.433 . S
C836 H850 0.931 . S
C837 C833 1.323 . S
C837 C836 1.433 . S
C837 H851 0.933 . S
C838 Dy816 2.738 . S
C838 O821 1.255 . S
C838 O822 1.249 . S
C838 C832 1.516 . S
C839 O823 1.254 . S
C839 O824 1.257 . S
C840 O825 1.266 . S
C840 O826 1.236 . S
C841 C844 1.344 . S
C841 C845 1.328 . S
C841 C847 1.516 . S
C842 C843 1.304 . S
C842 C846 1.323 . S
C843 C842 1.304 . S
C843 C844 1.371 . S
C843 H852 0.930 . S
C844 C841 1.344 . S
C844 C843 1.371 . S
C844 H853 0.931 . S
C845 C841 1.328 . S
C845 C846 1.433 . S
C845 H854 0.931 . S
C846 C842 1.323 . S
C846 C845 1.433 . S
C846 H855 0.933 . S
C847 Dy817 2.738 . S
C847 O827 1.255 . S
C847 O828 1.249 . S
C847 C841 1.516 . S
H848 C834 0.930 . S
H849 C835 0.931 . S
H850 C836 0.931 . S
H851 C837 0.933 . S
H852 C843 0.930 . S
H853 C844 0.931 . S
H854 C845 0.931 . S
H855 C846 0.933 . S
Dy856 O859 2.307 . S
Dy856 O861 2.395 . S
Dy856 O862 2.379 . S
Dy856 O864 2.339 . S
Dy856 O866 2.298 . S
Dy856 O870 2.275 . S
Dy856 C878 2.738 . S
Dy857 O860 2.298 . S
Dy857 O863 2.275 . S
Dy857 O865 2.307 . S
Dy857 O867 2.395 . S
Dy857 O868 2.379 . S
Dy857 O871 2.339 . S
Dy857 C887 2.738 . S
C858 O870 1.254 . S
C858 O871 1.257 . S
O859 Dy856 2.307 . S
O859 C869 1.266 . S
O860 Dy857 2.298 . S
O860 C869 1.236 . S
O861 Dy856 2.395 . S
O861 C878 1.255 . S
O862 Dy856 2.379 . S
O862 C878 1.249 . S
O863 Dy857 2.275 . S
O863 C879 1.254 . S
O864 Dy856 2.339 . S
O864 C879 1.257 . S
O865 Dy857 2.307 . S
O865 C880 1.266 . S
O866 Dy856 2.298 . S
O866 C880 1.236 . S
O867 Dy857 2.395 . S
O867 C887 1.255 . S
O868 Dy857 2.379 . S
O868 C887 1.249 . S
C869 O859 1.266 . S
C869 O860 1.236 . S
O870 Dy856 2.275 . S
O870 C858 1.254 . S
O871 Dy857 2.339 . S
O871 C858 1.257 . S
C872 C875 1.344 . S
C872 C876 1.328 . S
C872 C878 1.516 . S
C873 C874 1.304 . S
C873 C877 1.323 . S
C874 C873 1.304 . S
C874 C875 1.371 . S
C874 H888 0.930 . S
C875 C872 1.344 . S
C875 C874 1.371 . S
C875 H889 0.931 . S
C876 C872 1.328 . S
C876 C877 1.433 . S
C876 H890 0.931 . S
C877 C873 1.323 . S
C877 C876 1.433 . S
C877 H891 0.933 . S
C878 Dy856 2.738 . S
C878 O861 1.255 . S
C878 O862 1.249 . S
C878 C872 1.516 . S
C879 O863 1.254 . S
C879 O864 1.257 . S
C880 O865 1.266 . S
C880 O866 1.236 . S
C881 C884 1.344 . S
C881 C885 1.328 . S
C881 C887 1.516 . S
C882 C883 1.304 . S
C882 C886 1.323 . S
C883 C882 1.304 . S
C883 C884 1.371 . S
C883 H892 0.930 . S
C884 C881 1.344 . S
C884 C883 1.371 . S
C884 H893 0.931 . S
C885 C881 1.328 . S
C885 C886 1.433 . S
C885 H894 0.931 . S
C886 C882 1.323 . S
C886 C885 1.433 . S
C886 H895 0.933 . S
C887 Dy857 2.738 . S
C887 O867 1.255 . S
C887 O868 1.249 . S
C887 C881 1.516 . S
H888 C874 0.930 . S
H889 C875 0.931 . S
H890 C876 0.931 . S
H891 C877 0.933 . S
H892 C883 0.930 . S
H893 C884 0.931 . S
H894 C885 0.931 . S
H895 C886 0.933 . S
Dy896 O899 2.307 . S
Dy896 O901 2.395 . S
Dy896 O902 2.379 . S
Dy896 O904 2.339 . S
Dy896 O906 2.298 . S
Dy896 O910 2.275 . S
Dy896 C918 2.738 . S
Dy897 O900 2.298 . S
Dy897 O903 2.275 . S
Dy897 O905 2.307 . S
Dy897 O907 2.395 . S
Dy897 O908 2.379 . S
Dy897 O911 2.339 . S
Dy897 C927 2.738 . S
C898 O910 1.254 . S
C898 O911 1.257 . S
O899 Dy896 2.307 . S
O899 C909 1.266 . S
O900 Dy897 2.298 . S
O900 C909 1.236 . S
O901 Dy896 2.395 . S
O901 C918 1.255 . S
O902 Dy896 2.379 . S
O902 C918 1.249 . S
O903 Dy897 2.275 . S
O903 C919 1.254 . S
O904 Dy896 2.339 . S
O904 C919 1.257 . S
O905 Dy897 2.307 . S
O905 C920 1.266 . S
O906 Dy896 2.298 . S
O906 C920 1.236 . S
O907 Dy897 2.395 . S
O907 C927 1.255 . S
O908 Dy897 2.379 . S
O908 C927 1.249 . S
C909 O899 1.266 . S
C909 O900 1.236 . S
O910 Dy896 2.275 . S
O910 C898 1.254 . S
O911 Dy897 2.339 . S
O911 C898 1.257 . S
C912 C915 1.344 . S
C912 C916 1.328 . S
C912 C918 1.516 . S
C913 C914 1.304 . S
C913 C917 1.323 . S
C914 C913 1.304 . S
C914 C915 1.371 . S
C914 H928 0.930 . S
C915 C912 1.344 . S
C915 C914 1.371 . S
C915 H929 0.931 . S
C916 C912 1.328 . S
C916 C917 1.433 . S
C916 H930 0.931 . S
C917 C913 1.323 . S
C917 C916 1.433 . S
C917 H931 0.933 . S
C918 Dy896 2.738 . S
C918 O901 1.255 . S
C918 O902 1.249 . S
C918 C912 1.516 . S
C919 O903 1.254 . S
C919 O904 1.257 . S
C920 O905 1.266 . S
C920 O906 1.236 . S
C921 C924 1.344 . S
C921 C925 1.328 . S
C921 C927 1.516 . S
C922 C923 1.304 . S
C922 C926 1.323 . S
C923 C922 1.304 . S
C923 C924 1.371 . S
C923 H932 0.930 . S
C924 C921 1.344 . S
C924 C923 1.371 . S
C924 H933 0.931 . S
C925 C921 1.328 . S
C925 C926 1.433 . S
C925 H934 0.931 . S
C926 C922 1.323 . S
C926 C925 1.433 . S
C926 H935 0.933 . S
C927 Dy897 2.738 . S
C927 O907 1.255 . S
C927 O908 1.249 . S
C927 C921 1.516 . S
H928 C914 0.930 . S
H929 C915 0.931 . S
H930 C916 0.931 . S
H931 C917 0.933 . S
H932 C923 0.930 . S
H933 C924 0.931 . S
H934 C925 0.931 . S
H935 C926 0.933 . S
Dy936 O939 2.307 . S
Dy936 O941 2.395 1_455 S
Dy936 O942 2.379 1_455 S
Dy936 O944 2.339 . S
Dy936 O946 2.298 . S
Dy936 O950 2.275 . S
Dy936 C958 2.738 1_455 S
Dy937 O940 2.298 . S
Dy937 O943 2.275 . S
Dy937 O945 2.307 . S
Dy937 O947 2.395 . S
Dy937 O948 2.379 1_554 S
Dy937 O951 2.339 1_554 S
Dy937 C967 2.738 . S
C938 O950 1.254 1_556 S
C938 O951 1.257 . S
O939 Dy936 2.307 . S
O939 C949 1.266 . S
O940 Dy937 2.298 . S
O940 C949 1.236 . S
O941 Dy936 2.395 1_655 S
O941 C958 1.255 . S
O942 Dy936 2.379 1_655 S
O942 C958 1.249 . S
O943 Dy937 2.275 . S
O943 C959 1.254 . S
O944 Dy936 2.339 . S
O944 C959 1.257 . S
O945 Dy937 2.307 . S
O945 C960 1.266 . S
O946 Dy936 2.298 . S
O946 C960 1.236 . S
O947 Dy937 2.395 . S
O947 C967 1.255 . S
O948 Dy937 2.379 1_556 S
O948 C967 1.249 1_556 S
C949 O939 1.266 . S
C949 O940 1.236 . S
O950 Dy936 2.275 . S
O950 C938 1.254 1_554 S
O951 Dy937 2.339 1_556 S
O951 C938 1.257 . S
C952 C955 1.344 . S
C952 C956 1.328 . S
C952 C958 1.516 . S
C953 C954 1.304 . S
C953 C957 1.323 . S
C954 C953 1.304 . S
C954 C955 1.371 . S
C954 H968 0.930 . S
C955 C952 1.344 . S
C955 C954 1.371 . S
C955 H969 0.931 . S
C956 C952 1.328 . S
C956 C957 1.433 . S
C956 H970 0.931 . S
C957 C953 1.323 . S
C957 C956 1.433 . S
C957 H971 0.933 . S
C958 Dy936 2.738 1_655 S
C958 O941 1.255 . S
C958 O942 1.249 . S
C958 C952 1.516 . S
C959 O943 1.254 . S
C959 O944 1.257 . S
C960 O945 1.266 . S
C960 O946 1.236 . S
C961 C964 1.344 . S
C961 C965 1.328 1_554 S
C961 C967 1.516 . S
C962 C963 1.304 . S
C962 C966 1.323 1_554 S
C963 C962 1.304 . S
C963 C964 1.371 . S
C963 H972 0.930 . S
C964 C961 1.344 . S
C964 C963 1.371 . S
C964 H973 0.931 . S
C965 C961 1.328 1_556 S
C965 C966 1.433 . S
C965 H974 0.931 . S
C966 C962 1.323 1_556 S
C966 C965 1.433 . S
C966 H975 0.933 . S
C967 Dy937 2.738 . S
C967 O947 1.255 . S
C967 O948 1.249 1_554 S
C967 C961 1.516 . S
H968 C954 0.930 . S
H969 C955 0.931 . S
H970 C956 0.931 . S
H971 C957 0.933 . S
H972 C963 0.930 . S
H973 C964 0.931 . S
H974 C965 0.931 . S
H975 C966 0.933 . S
H976 C982 0.930 . S
H977 C985 0.930 . S
H978 C986 0.930 . S
H979 C987 0.930 . S
H980 C990 0.930 1_556 S
H981 C991 0.930 . S
C982 H976 0.930 . S
C982 C983 1.355 1_556 S
C982 C984 1.415 1_556 S
C983 C982 1.355 1_554 S
C983 C985 1.419 . S
C984 C982 1.415 1_554 S
C984 C989 1.425 . S
C984 C991 1.409 1_554 S
C985 H977 0.930 . S
C985 C983 1.419 . S
C985 C986 1.362 . S
C986 H978 0.930 . S
C986 C985 1.362 . S
C986 C989 1.409 . S
C987 H979 0.930 . S
C987 C988 1.355 . S
C987 C989 1.415 . S
C988 C987 1.355 . S
C988 C990 1.419 . S
C989 C984 1.425 . S
C989 C986 1.409 . S
C989 C987 1.415 . S
C990 H980 0.930 1_554 S
C990 C988 1.419 . S
C990 C991 1.362 1_554 S
C991 H981 0.930 . S
C991 C984 1.409 1_556 S
C991 C990 1.362 1_556 S
H992 C998 0.930 . S
H993 C1001 0.930 . S
H994 C1002 0.930 . S
H995 C1003 0.930 . S
H996 C1006 0.930 . S
H997 C1007 0.930 . S
C998 H992 0.930 . S
C998 C999 1.355 . S
C998 C1000 1.415 . S
C999 C998 1.355 . S
C999 C1001 1.419 . S
C1000 C998 1.415 . S
C1000 C1005 1.425 . S
C1000 C1007 1.409 . S
C1001 H993 0.930 . S
C1001 C999 1.419 . S
C1001 C1002 1.362 . S
C1002 H994 0.930 . S
C1002 C1001 1.362 . S
C1002 C1005 1.409 . S
C1003 H995 0.930 . S
C1003 C1004 1.355 . S
C1003 C1005 1.415 . S
C1004 C1003 1.355 . S
C1004 C1006 1.419 . S
C1005 C1000 1.425 . S
C1005 C1002 1.409 . S
C1005 C1003 1.415 . S
C1006 H996 0.930 . S
C1006 C1004 1.419 . S
C1006 C1007 1.362 . S
C1007 H997 0.930 . S
C1007 C1000 1.409 . S
C1007 C1006 1.362 . S
H1008 C1014 0.930 . S
H1009 C1017 0.930 . S
H1010 C1018 0.930 . S
H1011 C1019 0.930 . S
H1012 C1022 0.930 . S
H1013 C1023 0.930 . S
C1014 H1008 0.930 . S
C1014 C1015 1.355 . S
C1014 C1016 1.415 . S
C1015 C1014 1.355 . S
C1015 C1017 1.419 . S
C1016 C1014 1.415 . S
C1016 C1021 1.425 . S
C1016 C1023 1.409 . S
C1017 H1009 0.930 . S
C1017 C1015 1.419 . S
C1017 C1018 1.362 . S
C1018 H1010 0.930 . S
C1018 C1017 1.362 . S
C1018 C1021 1.409 . S
C1019 H1011 0.930 . S
C1019 C1020 1.355 . S
C1019 C1021 1.415 . S
C1020 C1019 1.355 . S
C1020 C1022 1.419 . S
C1021 C1016 1.425 . S
C1021 C1018 1.409 . S
C1021 C1019 1.415 . S
C1022 H1012 0.930 . S
C1022 C1020 1.419 . S
C1022 C1023 1.362 . S
C1023 H1013 0.930 . S
C1023 C1016 1.409 . S
C1023 C1022 1.362 . S
H1024 C1030 0.930 . S
H1025 C1033 0.930 . S
H1026 C1034 0.930 . S
H1027 C1035 0.930 . S
H1028 C1038 0.930 . S
H1029 C1039 0.930 . S
C1030 H1024 0.930 . S
C1030 C1031 1.355 . S
C1030 C1032 1.415 . S
C1031 C1030 1.355 . S
C1031 C1033 1.419 . S
C1032 C1030 1.415 . S
C1032 C1037 1.425 . S
C1032 C1039 1.409 . S
C1033 H1025 0.930 . S
C1033 C1031 1.419 . S
C1033 C1034 1.362 . S
C1034 H1026 0.930 . S
C1034 C1033 1.362 . S
C1034 C1037 1.409 . S
C1035 H1027 0.930 . S
C1035 C1036 1.355 . S
C1035 C1037 1.415 . S
C1036 C1035 1.355 . S
C1036 C1038 1.419 . S
C1037 C1032 1.425 . S
C1037 C1034 1.409 . S
C1037 C1035 1.415 . S
C1038 H1028 0.930 . S
C1038 C1036 1.419 . S
C1038 C1039 1.362 . S
C1039 H1029 0.930 . S
C1039 C1032 1.409 . S
C1039 C1038 1.362 . S
H1040 C1046 0.930 . S
H1041 C1049 0.930 . S
H1042 C1050 0.930 . S
H1043 C1051 0.930 . S
H1044 C1054 0.930 . S
H1045 C1055 0.930 . S
C1046 H1040 0.930 . S
C1046 C1047 1.355 . S
C1046 C1048 1.415 . S
C1047 C1046 1.355 . S
C1047 C1049 1.419 . S
C1048 C1046 1.415 . S
C1048 C1053 1.425 . S
C1048 C1055 1.409 . S
C1049 H1041 0.930 . S
C1049 C1047 1.419 . S
C1049 C1050 1.362 . S
C1050 H1042 0.930 . S
C1050 C1049 1.362 . S
C1050 C1053 1.409 . S
C1051 H1043 0.930 . S
C1051 C1052 1.355 . S
C1051 C1053 1.415 . S
C1052 C1051 1.355 . S
C1052 C1054 1.419 . S
C1053 C1048 1.425 . S
C1053 C1050 1.409 . S
C1053 C1051 1.415 . S
C1054 H1044 0.930 . S
C1054 C1052 1.419 . S
C1054 C1055 1.362 . S
C1055 H1045 0.930 . S
C1055 C1048 1.409 . S
C1055 C1054 1.362 . S
H1056 C1062 0.930 . S
H1057 C1065 0.930 . S
H1058 C1066 0.930 . S
H1059 C1067 0.930 . S
H1060 C1070 0.930 . S
H1061 C1071 0.930 . S
C1062 H1056 0.930 . S
C1062 C1063 1.355 . S
C1062 C1064 1.415 . S
C1063 C1062 1.355 . S
C1063 C1065 1.419 . S
C1064 C1062 1.415 . S
C1064 C1069 1.425 . S
C1064 C1071 1.409 . S
C1065 H1057 0.930 . S
C1065 C1063 1.419 . S
C1065 C1066 1.362 . S
C1066 H1058 0.930 . S
C1066 C1065 1.362 . S
C1066 C1069 1.409 . S
C1067 H1059 0.930 . S
C1067 C1068 1.355 . S
C1067 C1069 1.415 . S
C1068 C1067 1.355 . S
C1068 C1070 1.419 . S
C1069 C1064 1.425 . S
C1069 C1066 1.409 . S
C1069 C1067 1.415 . S
C1070 H1060 0.930 . S
C1070 C1068 1.419 . S
C1070 C1071 1.362 . S
C1071 H1061 0.930 . S
C1071 C1064 1.409 . S
C1071 C1070 1.362 . S
H1072 C1078 0.930 . S
H1073 C1081 0.930 . S
H1074 C1082 0.930 . S
H1075 C1083 0.930 . S
H1076 C1086 0.930 . S
H1077 C1087 0.930 . S
C1078 H1072 0.930 . S
C1078 C1079 1.355 . S
C1078 C1080 1.415 . S
C1079 C1078 1.355 . S
C1079 C1081 1.419 . S
C1080 C1078 1.415 . S
C1080 C1085 1.425 . S
C1080 C1087 1.409 . S
C1081 H1073 0.930 . S
C1081 C1079 1.419 . S
C1081 C1082 1.362 . S
C1082 H1074 0.930 . S
C1082 C1081 1.362 . S
C1082 C1085 1.409 . S
C1083 H1075 0.930 . S
C1083 C1084 1.355 . S
C1083 C1085 1.415 . S
C1084 C1083 1.355 . S
C1084 C1086 1.419 . S
C1085 C1080 1.425 . S
C1085 C1082 1.409 . S
C1085 C1083 1.415 . S
C1086 H1076 0.930 . S
C1086 C1084 1.419 . S
C1086 C1087 1.362 . S
C1087 H1077 0.930 . S
C1087 C1080 1.409 . S
C1087 C1086 1.362 . S
H1088 C1094 0.930 . S
H1089 C1097 0.930 . S
H1090 C1098 0.930 . S
H1091 C1099 0.930 . S
H1092 C1102 0.930 . S
H1093 C1103 0.930 . S
C1094 H1088 0.930 . S
C1094 C1095 1.355 . S
C1094 C1096 1.415 . S
C1095 C1094 1.355 . S
C1095 C1097 1.419 . S
C1096 C1094 1.415 . S
C1096 C1101 1.425 . S
C1096 C1103 1.409 . S
C1097 H1089 0.930 . S
C1097 C1095 1.419 . S
C1097 C1098 1.362 . S
C1098 H1090 0.930 . S
C1098 C1097 1.362 . S
C1098 C1101 1.409 . S
C1099 H1091 0.930 . S
C1099 C1100 1.355 . S
C1099 C1101 1.415 . S
C1100 C1099 1.355 . S
C1100 C1102 1.419 . S
C1101 C1096 1.425 . S
C1101 C1098 1.409 . S
C1101 C1099 1.415 . S
C1102 H1092 0.930 . S
C1102 C1100 1.419 . S
C1102 C1103 1.362 . S
C1103 H1093 0.930 . S
C1103 C1096 1.409 . S
C1103 C1102 1.362 . S
H1104 C1110 0.930 . S
H1105 C1113 0.930 . S
H1106 C1114 0.930 . S
H1107 C1115 0.930 . S
H1108 C1118 0.930 . S
H1109 C1119 0.930 . S
C1110 H1104 0.930 . S
C1110 C1111 1.355 . S
C1110 C1112 1.415 . S
C1111 C1110 1.355 . S
C1111 C1113 1.419 1_655 S
C1112 C1110 1.415 . S
C1112 C1117 1.425 1_655 S
C1112 C1119 1.409 . S
C1113 H1105 0.930 . S
C1113 C1111 1.419 1_455 S
C1113 C1114 1.362 . S
C1114 H1106 0.930 . S
C1114 C1113 1.362 . S
C1114 C1117 1.409 . S
C1115 H1107 0.930 . S
C1115 C1116 1.355 . S
C1115 C1117 1.415 . S
C1116 C1115 1.355 . S
C1116 C1118 1.419 1_455 S
C1117 C1112 1.425 1_455 S
C1117 C1114 1.409 . S
C1117 C1115 1.415 . S
C1118 H1108 0.930 . S
C1118 C1116 1.419 1_655 S
C1118 C1119 1.362 . S
C1119 H1109 0.930 . S
C1119 C1112 1.409 . S
C1119 C1118 1.362 . S
H1120 C1126 0.930 . S
H1121 C1129 0.930 . S
H1122 C1130 0.930 . S
H1123 C1131 0.930 . S
H1124 C1134 0.930 . S
H1125 C1135 0.930 . S
C1126 H1120 0.930 . S
C1126 C1127 1.355 . S
C1126 C1128 1.415 . S
C1127 C1126 1.355 . S
C1127 C1129 1.419 . S
C1128 C1126 1.415 . S
C1128 C1133 1.425 . S
C1128 C1135 1.409 . S
C1129 H1121 0.930 . S
C1129 C1127 1.419 . S
C1129 C1130 1.362 . S
C1130 H1122 0.930 . S
C1130 C1129 1.362 . S
C1130 C1133 1.409 . S
C1131 H1123 0.930 . S
C1131 C1132 1.355 . S
C1131 C1133 1.415 . S
C1132 C1131 1.355 . S
C1132 C1134 1.419 . S
C1133 C1128 1.425 . S
C1133 C1130 1.409 . S
C1133 C1131 1.415 . S
C1134 H1124 0.930 . S
C1134 C1132 1.419 . S
C1134 C1135 1.362 . S
C1135 H1125 0.930 . S
C1135 C1128 1.409 . S
C1135 C1134 1.362 . S
H1136 C1142 0.930 . S
H1137 C1145 0.930 . S
H1138 C1146 0.930 . S
H1139 C1147 0.930 . S
H1140 C1150 0.930 . S
H1141 C1151 0.930 . S
C1142 H1136 0.930 . S
C1142 C1143 1.355 . S
C1142 C1144 1.415 . S
C1143 C1142 1.355 . S
C1143 C1145 1.419 . S
C1144 C1142 1.415 . S
C1144 C1149 1.425 . S
C1144 C1151 1.409 . S
C1145 H1137 0.930 . S
C1145 C1143 1.419 . S
C1145 C1146 1.362 . S
C1146 H1138 0.930 . S
C1146 C1145 1.362 . S
C1146 C1149 1.409 . S
C1147 H1139 0.930 . S
C1147 C1148 1.355 . S
C1147 C1149 1.415 . S
C1148 C1147 1.355 . S
C1148 C1150 1.419 . S
C1149 C1144 1.425 . S
C1149 C1146 1.409 . S
C1149 C1147 1.415 . S
C1150 H1140 0.930 . S
C1150 C1148 1.419 . S
C1150 C1151 1.362 . S
C1151 H1141 0.930 . S
C1151 C1144 1.409 . S
C1151 C1150 1.362 . S
H1152 C1158 0.930 . S
H1153 C1161 0.930 . S
H1154 C1162 0.930 . S
H1155 C1163 0.930 . S
H1156 C1166 0.930 . S
H1157 C1167 0.930 . S
C1158 H1152 0.930 . S
C1158 C1159 1.355 . S
C1158 C1160 1.415 . S
C1159 C1158 1.355 . S
C1159 C1161 1.419 . S
C1160 C1158 1.415 . S
C1160 C1165 1.425 . S
C1160 C1167 1.409 . S
C1161 H1153 0.930 . S
C1161 C1159 1.419 . S
C1161 C1162 1.362 . S
C1162 H1154 0.930 . S
C1162 C1161 1.362 . S
C1162 C1165 1.409 . S
C1163 H1155 0.930 . S
C1163 C1164 1.355 . S
C1163 C1165 1.415 . S
C1164 C1163 1.355 . S
C1164 C1166 1.419 . S
C1165 C1160 1.425 . S
C1165 C1162 1.409 . S
C1165 C1163 1.415 . S
C1166 H1156 0.930 . S
C1166 C1164 1.419 . S
C1166 C1167 1.362 . S
C1167 H1157 0.930 . S
C1167 C1160 1.409 . S
C1167 C1166 1.362 . S
H1168 C1174 0.930 . S
H1169 C1177 0.930 . S
H1170 C1178 0.930 . S
H1171 C1179 0.930 . S
H1172 C1182 0.930 . S
H1173 C1183 0.930 . S
C1174 H1168 0.930 . S
C1174 C1175 1.355 . S
C1174 C1176 1.415 . S
C1175 C1174 1.355 . S
C1175 C1177 1.419 1_655 S
C1176 C1174 1.415 . S
C1176 C1181 1.425 1_655 S
C1176 C1183 1.409 . S
C1177 H1169 0.930 . S
C1177 C1175 1.419 1_455 S
C1177 C1178 1.362 . S
C1178 H1170 0.930 . S
C1178 C1177 1.362 . S
C1178 C1181 1.409 . S
C1179 H1171 0.930 . S
C1179 C1180 1.355 . S
C1179 C1181 1.415 . S
C1180 C1179 1.355 . S
C1180 C1182 1.419 1_455 S
C1181 C1176 1.425 1_455 S
C1181 C1178 1.409 . S
C1181 C1179 1.415 . S
C1182 H1172 0.930 . S
C1182 C1180 1.419 1_655 S
C1182 C1183 1.362 . S
C1183 H1173 0.930 . S
C1183 C1176 1.409 . S
C1183 C1182 1.362 . S
H1184 C1190 0.930 . S
H1185 C1193 0.930 . S
H1186 C1194 0.930 . S
H1187 C1195 0.930 . S
H1188 C1198 0.930 . S
H1189 C1199 0.930 . S
C1190 H1184 0.930 . S
C1190 C1191 1.355 . S
C1190 C1192 1.415 . S
C1191 C1190 1.355 . S
C1191 C1193 1.419 . S
C1192 C1190 1.415 . S
C1192 C1197 1.425 . S
C1192 C1199 1.409 . S
C1193 H1185 0.930 . S
C1193 C1191 1.419 . S
C1193 C1194 1.362 . S
C1194 H1186 0.930 . S
C1194 C1193 1.362 . S
C1194 C1197 1.409 . S
C1195 H1187 0.930 . S
C1195 C1196 1.355 . S
C1195 C1197 1.415 . S
C1196 C1195 1.355 . S
C1196 C1198 1.419 . S
C1197 C1192 1.425 . S
C1197 C1194 1.409 . S
C1197 C1195 1.415 . S
C1198 H1188 0.930 . S
C1198 C1196 1.419 . S
C1198 C1199 1.362 . S
C1199 H1189 0.930 . S
C1199 C1192 1.409 . S
C1199 C1198 1.362 . S
H1200 C1206 0.930 . S
H1201 C1209 0.930 . S
H1202 C1210 0.930 . S
H1203 C1211 0.930 . S
H1204 C1214 0.930 . S
H1205 C1215 0.930 . S
C1206 H1200 0.930 . S
C1206 C1207 1.355 . S
C1206 C1208 1.415 . S
C1207 C1206 1.355 . S
C1207 C1209 1.419 . S
C1208 C1206 1.415 . S
C1208 C1213 1.425 . S
C1208 C1215 1.409 . S
C1209 H1201 0.930 . S
C1209 C1207 1.419 . S
C1209 C1210 1.362 . S
C1210 H1202 0.930 . S
C1210 C1209 1.362 . S
C1210 C1213 1.409 . S
C1211 H1203 0.930 . S
C1211 C1212 1.355 . S
C1211 C1213 1.415 . S
C1212 C1211 1.355 . S
C1212 C1214 1.419 . S
C1213 C1208 1.425 . S
C1213 C1210 1.409 . S
C1213 C1211 1.415 . S
C1214 H1204 0.930 . S
C1214 C1212 1.419 . S
C1214 C1215 1.362 . S
C1215 H1205 0.930 . S
C1215 C1208 1.409 . S
C1215 C1214 1.362 . S
H1216 C1222 0.930 . S
H1217 C1225 0.930 . S
H1218 C1226 0.930 . S
H1219 C1227 0.930 . S
H1220 C1230 0.930 . S
H1221 C1231 0.930 . S
C1222 H1216 0.930 . S
C1222 C1223 1.355 . S
C1222 C1224 1.415 . S
C1223 C1222 1.355 . S
C1223 C1225 1.419 . S
C1224 C1222 1.415 . S
C1224 C1229 1.425 . S
C1224 C1231 1.409 . S
C1225 H1217 0.930 . S
C1225 C1223 1.419 . S
C1225 C1226 1.362 . S
C1226 H1218 0.930 . S
C1226 C1225 1.362 . S
C1226 C1229 1.409 . S
C1227 H1219 0.930 . S
C1227 C1228 1.355 . S
C1227 C1229 1.415 . S
C1228 C1227 1.355 . S
C1228 C1230 1.419 . S
C1229 C1224 1.425 . S
C1229 C1226 1.409 . S
C1229 C1227 1.415 . S
C1230 H1220 0.930 . S
C1230 C1228 1.419 . S
C1230 C1231 1.362 . S
C1231 H1221 0.930 . S
C1231 C1224 1.409 . S
C1231 C1230 1.362 . S
H1232 C1238 0.930 . S
H1233 C1241 0.930 . S
H1234 C1242 0.930 . S
H1235 C1243 0.930 1_545 S
H1236 C1246 0.936 . S
H1237 C1247 0.930 . S
C1238 H1232 0.930 . S
C1238 C1239 1.355 . S
C1238 C1240 1.415 . S
C1239 C1238 1.355 . S
C1239 C1241 1.419 1_554 S
C1240 C1238 1.415 . S
C1240 C1245 1.425 . S
C1240 C1247 1.409 . S
C1241 H1233 0.930 . S
C1241 C1239 1.419 1_556 S
C1241 C1242 1.362 . S
C1242 H1234 0.930 . S
C1242 C1241 1.362 . S
C1242 C1245 1.409 1_556 S
C1243 H1235 0.930 1_565 S
C1243 C1244 1.355 1_565 S
C1243 C1245 1.415 . S
C1244 C1243 1.355 1_545 S
C1244 C1246 1.436 . S
C1245 C1240 1.425 . S
C1245 C1242 1.409 1_554 S
C1245 C1243 1.415 . S
C1246 H1236 0.936 . S
C1246 C1244 1.436 . S
C1246 C1247 1.340 1_545 S
C1247 H1237 0.930 . S
C1247 C1240 1.409 . S
C1247 C1246 1.340 1_565 S
H1248 C1254 0.930 . S
H1249 C1257 0.930 . S
H1250 C1258 0.930 . S
H1251 C1259 0.930 . S
H1252 C1262 0.930 . S
H1253 C1263 0.930 . S
C1254 H1248 0.930 . S
C1254 C1255 1.355 . S
C1254 C1256 1.415 . S
C1255 C1254 1.355 . S
C1255 C1257 1.419 . S
C1256 C1254 1.415 . S
C1256 C1261 1.425 . S
C1256 C1263 1.409 . S
C1257 H1249 0.930 . S
C1257 C1255 1.419 . S
C1257 C1258 1.362 . S
C1258 H1250 0.930 . S
C1258 C1257 1.362 . S
C1258 C1261 1.409 . S
C1259 H1251 0.930 . S
C1259 C1260 1.355 . S
C1259 C1261 1.415 . S
C1260 C1259 1.355 . S
C1260 C1262 1.419 . S
C1261 C1256 1.425 . S
C1261 C1258 1.409 . S
C1261 C1259 1.415 . S
C1262 H1252 0.930 . S
C1262 C1260 1.419 . S
C1262 C1263 1.362 . S
C1263 H1253 0.930 . S
C1263 C1256 1.409 . S
C1263 C1262 1.362 . S
H1264 C1270 0.930 . S
H1265 C1273 0.930 . S
H1266 C1274 0.930 . S
H1267 C1275 0.930 . S
H1268 C1278 0.930 . S
H1269 C1279 0.930 . S
C1270 H1264 0.930 . S
C1270 C1271 1.355 . S
C1270 C1272 1.415 . S
C1271 C1270 1.355 . S
C1271 C1273 1.419 . S
C1272 C1270 1.415 . S
C1272 C1277 1.425 . S
C1272 C1279 1.409 . S
C1273 H1265 0.930 . S
C1273 C1271 1.419 . S
C1273 C1274 1.362 . S
C1274 H1266 0.930 . S
C1274 C1273 1.362 . S
C1274 C1277 1.409 . S
C1275 H1267 0.930 . S
C1275 C1276 1.355 . S
C1275 C1277 1.415 . S
C1276 C1275 1.355 . S
C1276 C1278 1.419 . S
C1277 C1272 1.425 . S
C1277 C1274 1.409 . S
C1277 C1275 1.415 . S
C1278 H1268 0.930 . S
C1278 C1276 1.419 . S
C1278 C1279 1.362 . S
C1279 H1269 0.930 . S
C1279 C1272 1.409 . S
C1279 C1278 1.362 . S
H1280 C1286 0.930 . S
H1281 C1289 0.930 . S
H1282 C1290 0.930 . S
H1283 C1291 0.930 . S
H1284 C1294 0.930 . S
H1285 C1295 0.930 . S
C1286 H1280 0.930 . S
C1286 C1287 1.355 . S
C1286 C1288 1.415 . S
C1287 C1286 1.355 . S
C1287 C1289 1.419 . S
C1288 C1286 1.415 . S
C1288 C1293 1.425 . S
C1288 C1295 1.409 . S
C1289 H1281 0.930 . S
C1289 C1287 1.419 . S
C1289 C1290 1.362 . S
C1290 H1282 0.930 . S
C1290 C1289 1.362 . S
C1290 C1293 1.409 . S
C1291 H1283 0.930 . S
C1291 C1292 1.355 . S
C1291 C1293 1.415 . S
C1292 C1291 1.355 . S
C1292 C1294 1.419 . S
C1293 C1288 1.425 . S
C1293 C1290 1.409 . S
C1293 C1291 1.415 . S
C1294 H1284 0.930 . S
C1294 C1292 1.419 . S
C1294 C1295 1.362 . S
C1295 H1285 0.930 . S
C1295 C1288 1.409 . S
C1295 C1294 1.362 . S
H1296 C1302 0.930 . S
H1297 C1305 0.930 . S
H1298 C1306 0.930 . S
H1299 C1307 0.930 . S
H1300 C1310 0.930 . S
H1301 C1311 0.930 . S
C1302 H1296 0.930 . S
C1302 C1303 1.355 . S
C1302 C1304 1.415 . S
C1303 C1302 1.355 . S
C1303 C1305 1.419 . S
C1304 C1302 1.415 . S
C1304 C1309 1.425 . S
C1304 C1311 1.409 . S
C1305 H1297 0.930 . S
C1305 C1303 1.419 . S
C1305 C1306 1.362 . S
C1306 H1298 0.930 . S
C1306 C1305 1.362 . S
C1306 C1309 1.409 . S
C1307 H1299 0.930 . S
C1307 C1308 1.355 . S
C1307 C1309 1.415 . S
C1308 C1307 1.355 . S
C1308 C1310 1.419 . S
C1309 C1304 1.425 . S
C1309 C1306 1.409 . S
C1309 C1307 1.415 . S
C1310 H1300 0.930 . S
C1310 C1308 1.419 . S
C1310 C1311 1.362 . S
C1311 H1301 0.930 . S
C1311 C1304 1.409 . S
C1311 C1310 1.362 . S
H1312 C1318 0.930 . S
H1313 C1321 0.930 . S
H1314 C1322 0.930 . S
H1315 C1323 0.930 . S
H1316 C1326 0.930 . S
H1317 C1327 0.930 . S
C1318 H1312 0.930 . S
C1318 C1319 1.355 . S
C1318 C1320 1.415 . S
C1319 C1318 1.355 . S
C1319 C1321 1.419 . S
C1320 C1318 1.415 . S
C1320 C1325 1.425 . S
C1320 C1327 1.409 . S
C1321 H1313 0.930 . S
C1321 C1319 1.419 . S
C1321 C1322 1.362 . S
C1322 H1314 0.930 . S
C1322 C1321 1.362 . S
C1322 C1325 1.409 . S
C1323 H1315 0.930 . S
C1323 C1324 1.355 . S
C1323 C1325 1.415 . S
C1324 C1323 1.355 . S
C1324 C1326 1.419 . S
C1325 C1320 1.425 . S
C1325 C1322 1.409 . S
C1325 C1323 1.415 . S
C1326 H1316 0.930 . S
C1326 C1324 1.419 . S
C1326 C1327 1.362 . S
C1327 H1317 0.930 . S
C1327 C1320 1.409 . S
C1327 C1326 1.362 . S
H1328 C1334 0.930 . S
H1329 C1337 0.930 . S
H1330 C1338 0.930 . S
H1331 C1339 0.930 . S
H1332 C1342 0.930 . S
H1333 C1343 0.930 . S
C1334 H1328 0.930 . S
C1334 C1335 1.355 . S
C1334 C1336 1.415 . S
C1335 C1334 1.355 . S
C1335 C1337 1.419 . S
C1336 C1334 1.415 . S
C1336 C1341 1.425 . S
C1336 C1343 1.409 . S
C1337 H1329 0.930 . S
C1337 C1335 1.419 . S
C1337 C1338 1.362 . S
C1338 H1330 0.930 . S
C1338 C1337 1.362 . S
C1338 C1341 1.409 . S
C1339 H1331 0.930 . S
C1339 C1340 1.355 . S
C1339 C1341 1.415 . S
C1340 C1339 1.355 . S
C1340 C1342 1.419 . S
C1341 C1336 1.425 . S
C1341 C1338 1.409 . S
C1341 C1339 1.415 . S
C1342 H1332 0.930 . S
C1342 C1340 1.419 . S
C1342 C1343 1.362 . S
C1343 H1333 0.930 . S
C1343 C1336 1.409 . S
C1343 C1342 1.362 . S
H1344 C1350 0.930 . S
H1345 C1353 0.930 . S
H1346 C1354 0.930 . S
H1347 C1355 0.930 . S
H1348 C1358 0.930 . S
H1349 C1359 0.930 . S
C1350 H1344 0.930 . S
C1350 C1351 1.355 . S
C1350 C1352 1.415 . S
C1351 C1350 1.355 . S
C1351 C1353 1.419 . S
C1352 C1350 1.415 . S
C1352 C1357 1.425 . S
C1352 C1359 1.409 . S
C1353 H1345 0.930 . S
C1353 C1351 1.419 . S
C1353 C1354 1.362 . S
C1354 H1346 0.930 . S
C1354 C1353 1.362 . S
C1354 C1357 1.409 . S
C1355 H1347 0.930 . S
C1355 C1356 1.355 . S
C1355 C1357 1.415 . S
C1356 C1355 1.355 . S
C1356 C1358 1.419 . S
C1357 C1352 1.425 . S
C1357 C1354 1.409 . S
C1357 C1355 1.415 . S
C1358 H1348 0.930 . S
C1358 C1356 1.419 . S
C1358 C1359 1.362 . S
C1359 H1349 0.930 . S
C1359 C1352 1.409 . S
C1359 C1358 1.362 . S
H1360 C1366 0.930 . S
H1361 C1369 0.930 . S
H1362 C1370 0.930 . S
H1363 C1371 0.930 . S
H1364 C1374 0.930 . S
H1365 C1375 0.930 . S
C1366 H1360 0.930 . S
C1366 C1367 1.355 . S
C1366 C1368 1.415 . S
C1367 C1366 1.355 . S
C1367 C1369 1.419 . S
C1368 C1366 1.415 . S
C1368 C1373 1.425 . S
C1368 C1375 1.409 . S
C1369 H1361 0.930 . S
C1369 C1367 1.419 . S
C1369 C1370 1.362 . S
C1370 H1362 0.930 . S
C1370 C1369 1.362 . S
C1370 C1373 1.409 . S
C1371 H1363 0.930 . S
C1371 C1372 1.355 . S
C1371 C1373 1.415 . S
C1372 C1371 1.355 . S
C1372 C1374 1.419 . S
C1373 C1368 1.425 . S
C1373 C1370 1.409 . S
C1373 C1371 1.415 . S
C1374 H1364 0.930 . S
C1374 C1372 1.419 . S
C1374 C1375 1.362 . S
C1375 H1365 0.930 . S
C1375 C1368 1.409 . S
C1375 C1374 1.362 . S
H1376 C1382 0.930 . S
H1377 C1385 0.930 . S
H1378 C1386 0.930 . S
H1379 C1387 0.930 . S
H1380 C1390 0.930 . S
H1381 C1391 0.930 . S
C1382 H1376 0.930 . S
C1382 C1383 1.355 . S
C1382 C1384 1.415 . S
C1383 C1382 1.355 . S
C1383 C1385 1.419 . S
C1384 C1382 1.415 . S
C1384 C1389 1.425 . S
C1384 C1391 1.409 . S
C1385 H1377 0.930 . S
C1385 C1383 1.419 . S
C1385 C1386 1.362 . S
C1386 H1378 0.930 . S
C1386 C1385 1.362 . S
C1386 C1389 1.409 . S
C1387 H1379 0.930 . S
C1387 C1388 1.355 . S
C1387 C1389 1.415 . S
C1388 C1387 1.355 . S
C1388 C1390 1.419 . S
C1389 C1384 1.425 . S
C1389 C1386 1.409 . S
C1389 C1387 1.415 . S
C1390 H1380 0.930 . S
C1390 C1388 1.419 . S
C1390 C1391 1.362 . S
C1391 H1381 0.930 . S
C1391 C1384 1.409 . S
C1391 C1390 1.362 . S
H1392 C1398 0.930 . S
H1393 C1401 0.930 . S
H1394 C1402 0.930 . S
H1395 C1403 0.930 . S
H1396 C1406 0.930 . S
H1397 C1407 0.930 . S
C1398 H1392 0.930 . S
C1398 C1399 1.355 . S
C1398 C1400 1.415 . S
C1399 C1398 1.355 . S
C1399 C1401 1.419 . S
C1400 C1398 1.415 . S
C1400 C1405 1.425 . S
C1400 C1407 1.409 . S
C1401 H1393 0.930 . S
C1401 C1399 1.419 . S
C1401 C1402 1.362 . S
C1402 H1394 0.930 . S
C1402 C1401 1.362 . S
C1402 C1405 1.409 . S
C1403 H1395 0.930 . S
C1403 C1404 1.355 . S
C1403 C1405 1.415 . S
C1404 C1403 1.355 . S
C1404 C1406 1.419 . S
C1405 C1400 1.425 . S
C1405 C1402 1.409 . S
C1405 C1403 1.415 . S
C1406 H1396 0.930 . S
C1406 C1404 1.419 . S
C1406 C1407 1.362 . S
C1407 H1397 0.930 . S
C1407 C1400 1.409 . S
C1407 C1406 1.362 . S
H1408 C1414 0.930 . S
H1409 C1417 0.930 . S
H1410 C1418 0.930 . S
H1411 C1419 0.930 . S
H1412 C1422 0.930 . S
H1413 C1423 0.930 . S
C1414 H1408 0.930 . S
C1414 C1415 1.355 . S
C1414 C1416 1.415 . S
C1415 C1414 1.355 . S
C1415 C1417 1.419 . S
C1416 C1414 1.415 . S
C1416 C1421 1.425 . S
C1416 C1423 1.409 . S
C1417 H1409 0.930 . S
C1417 C1415 1.419 . S
C1417 C1418 1.362 . S
C1418 H1410 0.930 . S
C1418 C1417 1.362 . S
C1418 C1421 1.409 . S
C1419 H1411 0.930 . S
C1419 C1420 1.355 . S
C1419 C1421 1.415 . S
C1420 C1419 1.355 . S
C1420 C1422 1.419 . S
C1421 C1416 1.425 . S
C1421 C1418 1.409 . S
C1421 C1419 1.415 . S
C1422 H1412 0.930 . S
C1422 C1420 1.419 . S
C1422 C1423 1.362 . S
C1423 H1413 0.930 . S
C1423 C1416 1.409 . S
C1423 C1422 1.362 . S
H1424 C1430 0.930 . S
H1425 C1433 0.930 . S
H1426 C1434 0.930 . S
H1427 C1435 0.930 . S
H1428 C1438 0.930 . S
H1429 C1439 0.930 . S
C1430 H1424 0.930 . S
C1430 C1431 1.355 . S
C1430 C1432 1.415 . S
C1431 C1430 1.355 . S
C1431 C1433 1.419 . S
C1432 C1430 1.415 . S
C1432 C1437 1.425 . S
C1432 C1439 1.409 1_455 S
C1433 H1425 0.930 . S
C1433 C1431 1.419 . S
C1433 C1434 1.362 . S
C1434 H1426 0.930 . S
C1434 C1433 1.362 . S
C1434 C1437 1.409 . S
C1435 H1427 0.930 . S
C1435 C1436 1.355 . S
C1435 C1437 1.415 . S
C1436 C1435 1.355 . S
C1436 C1438 1.419 1_455 S
C1437 C1432 1.425 . S
C1437 C1434 1.409 . S
C1437 C1435 1.415 . S
C1438 H1428 0.930 . S
C1438 C1436 1.419 1_655 S
C1438 C1439 1.362 . S
C1439 H1429 0.930 . S
C1439 C1432 1.409 1_655 S
C1439 C1438 1.362 . S
H1440 C1446 0.930 . S
H1441 C1449 0.930 . S
H1442 C1450 0.930 . S
H1443 C1451 0.930 . S
H1444 C1454 0.930 . S
H1445 C1455 0.930 . S
C1446 H1440 0.930 . S
C1446 C1447 1.355 . S
C1446 C1448 1.415 . S
C1447 C1446 1.355 . S
C1447 C1449 1.419 . S
C1448 C1446 1.415 . S
C1448 C1453 1.425 . S
C1448 C1455 1.409 . S
C1449 H1441 0.930 . S
C1449 C1447 1.419 . S
C1449 C1450 1.362 . S
C1450 H1442 0.930 . S
C1450 C1449 1.362 . S
C1450 C1453 1.409 . S
C1451 H1443 0.930 . S
C1451 C1452 1.355 . S
C1451 C1453 1.415 . S
C1452 C1451 1.355 . S
C1452 C1454 1.419 . S
C1453 C1448 1.425 . S
C1453 C1450 1.409 . S
C1453 C1451 1.415 . S
C1454 H1444 0.930 . S
C1454 C1452 1.419 . S
C1454 C1455 1.362 . S
C1455 H1445 0.930 . S
C1455 C1448 1.409 . S
C1455 C1454 1.362 . S
H1456 C1462 0.930 . S
H1457 C1465 0.930 . S
H1458 C1466 0.930 . S
H1459 C1467 0.930 . S
H1460 C1470 0.930 . S
H1461 C1471 0.930 . S
C1462 H1456 0.930 . S
C1462 C1463 1.355 . S
C1462 C1464 1.415 . S
C1463 C1462 1.355 . S
C1463 C1465 1.419 . S
C1464 C1462 1.415 . S
C1464 C1469 1.425 . S
C1464 C1471 1.409 . S
C1465 H1457 0.930 . S
C1465 C1463 1.419 . S
C1465 C1466 1.362 . S
C1466 H1458 0.930 . S
C1466 C1465 1.362 . S
C1466 C1469 1.409 . S
C1467 H1459 0.930 . S
C1467 C1468 1.355 . S
C1467 C1469 1.415 . S
C1468 C1467 1.355 . S
C1468 C1470 1.419 1_556 S
C1469 C1464 1.425 . S
C1469 C1466 1.409 . S
C1469 C1467 1.415 . S
C1470 H1460 0.930 . S
C1470 C1468 1.419 1_554 S
C1470 C1471 1.362 1_554 S
C1471 H1461 0.930 . S
C1471 C1464 1.409 . S
C1471 C1470 1.362 1_556 S
H1472 C1478 0.930 . S
H1473 C1481 0.930 . S
H1474 C1482 0.930 . S
H1475 C1483 0.930 . S
H1476 C1486 0.930 . S
H1477 C1487 0.930 . S
C1478 H1472 0.930 . S
C1478 C1479 1.355 . S
C1478 C1480 1.415 . S
C1479 C1478 1.355 . S
C1479 C1481 1.419 . S
C1480 C1478 1.415 . S
C1480 C1485 1.425 . S
C1480 C1487 1.409 . S
C1481 H1473 0.930 . S
C1481 C1479 1.419 . S
C1481 C1482 1.362 . S
C1482 H1474 0.930 . S
C1482 C1481 1.362 . S
C1482 C1485 1.409 . S
C1483 H1475 0.930 . S
C1483 C1484 1.355 . S
C1483 C1485 1.415 . S
C1484 C1483 1.355 . S
C1484 C1486 1.419 . S
C1485 C1480 1.425 . S
C1485 C1482 1.409 . S
C1485 C1483 1.415 . S
C1486 H1476 0.930 . S
C1486 C1484 1.419 . S
C1486 C1487 1.362 . S
C1487 H1477 0.930 . S
C1487 C1480 1.409 . S
C1487 C1486 1.362 . S
H1488 C1494 0.930 . S
H1489 C1497 0.930 . S
H1490 C1498 0.930 . S
H1491 C1499 0.930 . S
H1492 C1502 0.930 . S
H1493 C1503 0.930 . S
C1494 H1488 0.930 . S
C1494 C1495 1.355 . S
C1494 C1496 1.415 . S
C1495 C1494 1.355 . S
C1495 C1497 1.419 . S
C1496 C1494 1.415 . S
C1496 C1501 1.425 . S
C1496 C1503 1.409 . S
C1497 H1489 0.930 . S
C1497 C1495 1.419 . S
C1497 C1498 1.362 . S
C1498 H1490 0.930 . S
C1498 C1497 1.362 . S
C1498 C1501 1.409 . S
C1499 H1491 0.930 . S
C1499 C1500 1.355 . S
C1499 C1501 1.415 . S
C1500 C1499 1.355 . S
C1500 C1502 1.419 . S
C1501 C1496 1.425 . S
C1501 C1498 1.409 . S
C1501 C1499 1.415 . S
C1502 H1492 0.930 . S
C1502 C1500 1.419 . S
C1502 C1503 1.362 . S
C1503 H1493 0.930 . S
C1503 C1496 1.409 . S
C1503 C1502 1.362 . S
H1504 C1510 0.930 . S
H1505 C1513 0.930 . S
H1506 C1514 0.930 . S
H1507 C1515 0.930 . S
H1508 C1518 0.930 . S
H1509 C1519 0.930 . S
C1510 H1504 0.930 . S
C1510 C1511 1.355 . S
C1510 C1512 1.415 . S
C1511 C1510 1.355 . S
C1511 C1513 1.419 . S
C1512 C1510 1.415 . S
C1512 C1517 1.425 . S
C1512 C1519 1.409 . S
C1513 H1505 0.930 . S
C1513 C1511 1.419 . S
C1513 C1514 1.362 . S
C1514 H1506 0.930 . S
C1514 C1513 1.362 . S
C1514 C1517 1.409 . S
C1515 H1507 0.930 . S
C1515 C1516 1.355 . S
C1515 C1517 1.415 . S
C1516 C1515 1.355 . S
C1516 C1518 1.419 . S
C1517 C1512 1.425 . S
C1517 C1514 1.409 . S
C1517 C1515 1.415 . S
C1518 H1508 0.930 . S
C1518 C1516 1.419 . S
C1518 C1519 1.362 . S
C1519 H1509 0.930 . S
C1519 C1512 1.409 . S
C1519 C1518 1.362 . S
H1520 C1526 0.934 . S
H1521 C1529 0.930 . S
H1522 C1530 0.930 . S
H1523 C1531 0.930 . S
H1524 C1534 0.892 1_565 S
H1525 C1535 0.930 . S
C1526 H1520 0.934 . S
C1526 C1527 1.351 1_565 S
C1526 C1528 1.414 1_565 S
C1527 C1526 1.351 1_545 S
C1527 C1529 1.419 . S
C1528 C1526 1.414 1_545 S
C1528 C1533 1.425 . S
C1528 C1535 1.409 1_545 S
C1529 H1521 0.930 . S
C1529 C1527 1.419 . S
C1529 C1530 1.362 . S
C1530 H1522 0.930 . S
C1530 C1529 1.362 . S
C1530 C1533 1.409 . S
C1531 H1523 0.930 . S
C1531 C1532 1.355 . S
C1531 C1533 1.415 . S
C1532 C1531 1.355 . S
C1532 C1534 1.419 . S
C1533 C1528 1.425 . S
C1533 C1530 1.409 . S
C1533 C1531 1.415 . S
C1534 H1524 0.892 1_545 S
C1534 C1532 1.419 . S
C1534 C1535 1.362 1_545 S
C1535 H1525 0.930 . S
C1535 C1528 1.409 1_565 S
C1535 C1534 1.362 1_565 S
H1536 C1542 0.930 . S
H1537 C1545 0.930 . S
H1538 C1546 0.930 . S
H1539 C1547 0.930 . S
H1540 C1550 0.930 . S
H1541 C1551 0.930 . S
C1542 H1536 0.930 . S
C1542 C1543 1.355 . S
C1542 C1544 1.415 . S
C1543 C1542 1.355 . S
C1543 C1545 1.419 . S
C1544 C1542 1.415 . S
C1544 C1549 1.425 . S
C1544 C1551 1.409 . S
C1545 H1537 0.930 . S
C1545 C1543 1.419 . S
C1545 C1546 1.362 . S
C1546 H1538 0.930 . S
C1546 C1545 1.362 . S
C1546 C1549 1.409 . S
C1547 H1539 0.930 . S
C1547 C1548 1.355 . S
C1547 C1549 1.415 . S
C1548 C1547 1.355 . S
C1548 C1550 1.419 . S
C1549 C1544 1.425 . S
C1549 C1546 1.409 . S
C1549 C1547 1.415 . S
C1550 H1540 0.930 . S
C1550 C1548 1.419 . S
C1550 C1551 1.362 . S
C1551 H1541 0.930 . S
C1551 C1544 1.409 . S
C1551 C1550 1.362 . S
H1552 C1558 0.930 . S
H1553 C1561 0.930 . S
H1554 C1562 0.930 . S
H1555 C1563 0.930 . S
H1556 C1566 0.930 . S
H1557 C1567 0.930 . S
C1558 H1552 0.930 . S
C1558 C1559 1.355 . S
C1558 C1560 1.415 . S
C1559 C1558 1.355 . S
C1559 C1561 1.419 . S
C1560 C1558 1.415 . S
C1560 C1565 1.425 . S
C1560 C1567 1.409 . S
C1561 H1553 0.930 . S
C1561 C1559 1.419 . S
C1561 C1562 1.362 . S
C1562 H1554 0.930 . S
C1562 C1561 1.362 . S
C1562 C1565 1.409 . S
C1563 H1555 0.930 . S
C1563 C1564 1.355 . S
C1563 C1565 1.415 . S
C1564 C1563 1.355 . S
C1564 C1566 1.419 . S
C1565 C1560 1.425 . S
C1565 C1562 1.409 . S
C1565 C1563 1.415 . S
C1566 H1556 0.930 . S
C1566 C1564 1.419 . S
C1566 C1567 1.362 . S
C1567 H1557 0.930 . S
C1567 C1560 1.409 . S
C1567 C1566 1.362 . S
H1568 C1574 0.930 . S
H1569 C1577 0.930 . S
H1570 C1578 0.930 . S
H1571 C1579 0.930 . S
H1572 C1582 0.930 . S
H1573 C1583 0.930 . S
C1574 H1568 0.930 . S
C1574 C1575 1.355 . S
C1574 C1576 1.415 . S
C1575 C1574 1.355 . S
C1575 C1577 1.419 . S
C1576 C1574 1.415 . S
C1576 C1581 1.425 . S
C1576 C1583 1.409 . S
C1577 H1569 0.930 . S
C1577 C1575 1.419 . S
C1577 C1578 1.362 . S
C1578 H1570 0.930 . S
C1578 C1577 1.362 . S
C1578 C1581 1.409 . S
C1579 H1571 0.930 . S
C1579 C1580 1.355 . S
C1579 C1581 1.415 . S
C1580 C1579 1.355 . S
C1580 C1582 1.419 . S
C1581 C1576 1.425 . S
C1581 C1578 1.409 . S
C1581 C1579 1.415 . S
C1582 H1572 0.930 . S
C1582 C1580 1.419 . S
C1582 C1583 1.362 . S
C1583 H1573 0.930 . S
C1583 C1576 1.409 . S
C1583 C1582 1.362 . S
H1584 C1590 0.930 . S
H1585 C1593 0.930 . S
H1586 C1594 0.930 . S
H1587 C1595 0.930 . S
H1588 C1598 0.930 . S
H1589 C1599 0.930 1_545 S
C1590 H1584 0.930 . S
C1590 C1591 1.355 1_545 S
C1590 C1592 1.415 1_545 S
C1591 C1590 1.355 1_565 S
C1591 C1593 1.419 . S
C1592 C1590 1.415 1_565 S
C1592 C1597 1.425 . S
C1592 C1599 1.409 . S
C1593 H1585 0.930 . S
C1593 C1591 1.419 . S
C1593 C1594 1.362 . S
C1594 H1586 0.930 . S
C1594 C1593 1.362 . S
C1594 C1597 1.409 . S
C1595 H1587 0.930 . S
C1595 C1596 1.355 . S
C1595 C1597 1.415 . S
C1596 C1595 1.355 . S
C1596 C1598 1.419 . S
C1597 C1592 1.425 . S
C1597 C1594 1.409 . S
C1597 C1595 1.415 . S
C1598 H1588 0.930 . S
C1598 C1596 1.419 . S
C1598 C1599 1.362 . S
C1599 H1589 0.930 1_565 S
C1599 C1592 1.409 . S
C1599 C1598 1.362 . S
H1600 C1606 0.930 . S
H1601 C1609 0.930 . S
H1602 C1610 0.930 . S
H1603 C1611 0.930 . S
H1604 C1614 0.930 . S
H1605 C1615 0.930 . S
C1606 H1600 0.930 . S
C1606 C1607 1.355 . S
C1606 C1608 1.415 . S
C1607 C1606 1.355 . S
C1607 C1609 1.419 . S
C1608 C1606 1.415 . S
C1608 C1613 1.425 . S
C1608 C1615 1.409 . S
C1609 H1601 0.930 . S
C1609 C1607 1.419 . S
C1609 C1610 1.362 . S
C1610 H1602 0.930 . S
C1610 C1609 1.362 . S
C1610 C1613 1.409 . S
C1611 H1603 0.930 . S
C1611 C1612 1.355 . S
C1611 C1613 1.415 . S
C1612 C1611 1.355 . S
C1612 C1614 1.419 . S
C1613 C1608 1.425 . S
C1613 C1610 1.409 . S
C1613 C1611 1.415 . S
C1614 H1604 0.930 . S
C1614 C1612 1.419 . S
C1614 C1615 1.362 . S
C1615 H1605 0.930 . S
C1615 C1608 1.409 . S
C1615 C1614 1.362 . S
H1616 C1622 0.930 . S
H1617 C1625 0.930 . S
H1618 C1626 0.930 . S
H1619 C1627 0.930 . S
H1620 C1630 0.930 . S
H1621 C1631 0.930 . S
C1622 H1616 0.930 . S
C1622 C1623 1.355 . S
C1622 C1624 1.415 . S
C1623 C1622 1.355 . S
C1623 C1625 1.419 . S
C1624 C1622 1.415 . S
C1624 C1629 1.425 . S
C1624 C1631 1.409 . S
C1625 H1617 0.930 . S
C1625 C1623 1.419 . S
C1625 C1626 1.362 . S
C1626 H1618 0.930 . S
C1626 C1625 1.362 . S
C1626 C1629 1.409 . S
C1627 H1619 0.930 . S
C1627 C1628 1.355 . S
C1627 C1629 1.415 . S
C1628 C1627 1.355 . S
C1628 C1630 1.419 . S
C1629 C1624 1.425 . S
C1629 C1626 1.409 . S
C1629 C1627 1.415 . S
C1630 H1620 0.930 . S
C1630 C1628 1.419 . S
C1630 C1631 1.362 . S
C1631 H1621 0.930 . S
C1631 C1624 1.409 . S
C1631 C1630 1.362 . S
H1632 C1638 0.930 . S
H1633 C1641 0.930 . S
H1634 C1642 0.930 . S
H1635 C1643 0.930 . S
H1636 C1646 0.930 . S
H1637 C1647 0.930 . S
C1638 H1632 0.930 . S
C1638 C1639 1.355 . S
C1638 C1640 1.415 . S
C1639 C1638 1.355 . S
C1639 C1641 1.419 . S
C1640 C1638 1.415 . S
C1640 C1645 1.425 . S
C1640 C1647 1.409 . S
C1641 H1633 0.930 . S
C1641 C1639 1.419 . S
C1641 C1642 1.362 . S
C1642 H1634 0.930 . S
C1642 C1641 1.362 . S
C1642 C1645 1.409 . S
C1643 H1635 0.930 . S
C1643 C1644 1.355 . S
C1643 C1645 1.415 . S
C1644 C1643 1.355 . S
C1644 C1646 1.419 . S
C1645 C1640 1.425 . S
C1645 C1642 1.409 . S
C1645 C1643 1.415 . S
C1646 H1636 0.930 . S
C1646 C1644 1.419 . S
C1646 C1647 1.362 . S
C1647 H1637 0.930 . S
C1647 C1640 1.409 . S
C1647 C1646 1.362 . S
H1648 C1654 0.930 . S
H1649 C1657 0.930 . S
H1650 C1658 0.930 . S
H1651 C1659 0.930 . S
H1652 C1662 0.930 . S
H1653 C1663 0.930 . S
C1654 H1648 0.930 . S
C1654 C1655 1.355 . S
C1654 C1656 1.415 . S
C1655 C1654 1.355 . S
C1655 C1657 1.419 . S
C1656 C1654 1.415 . S
C1656 C1661 1.425 . S
C1656 C1663 1.409 . S
C1657 H1649 0.930 . S
C1657 C1655 1.419 . S
C1657 C1658 1.362 . S
C1658 H1650 0.930 . S
C1658 C1657 1.362 . S
C1658 C1661 1.409 . S
C1659 H1651 0.930 . S
C1659 C1660 1.355 . S
C1659 C1661 1.415 . S
C1660 C1659 1.355 . S
C1660 C1662 1.419 . S
C1661 C1656 1.425 . S
C1661 C1658 1.409 . S
C1661 C1659 1.415 . S
C1662 H1652 0.930 . S
C1662 C1660 1.419 . S
C1662 C1663 1.362 . S
C1663 H1653 0.930 . S
C1663 C1656 1.409 . S
C1663 C1662 1.362 . S
H1664 C1670 0.930 . S
H1665 C1673 0.930 . S
H1666 C1674 0.930 . S
H1667 C1675 0.930 . S
H1668 C1678 0.930 . S
H1669 C1679 0.930 . S
C1670 H1664 0.930 . S
C1670 C1671 1.355 . S
C1670 C1672 1.415 . S
C1671 C1670 1.355 . S
C1671 C1673 1.419 . S
C1672 C1670 1.415 . S
C1672 C1677 1.425 . S
C1672 C1679 1.409 . S
C1673 H1665 0.930 . S
C1673 C1671 1.419 . S
C1673 C1674 1.362 . S
C1674 H1666 0.930 . S
C1674 C1673 1.362 . S
C1674 C1677 1.409 . S
C1675 H1667 0.930 . S
C1675 C1676 1.355 . S
C1675 C1677 1.415 . S
C1676 C1675 1.355 . S
C1676 C1678 1.419 . S
C1677 C1672 1.425 . S
C1677 C1674 1.409 . S
C1677 C1675 1.415 . S
C1678 H1668 0.930 . S
C1678 C1676 1.419 . S
C1678 C1679 1.362 . S
C1679 H1669 0.930 . S
C1679 C1672 1.409 . S
C1679 C1678 1.362 . S
H1680 C1686 0.930 . S
H1681 C1689 0.930 . S
H1682 C1690 0.930 . S
H1683 C1691 0.930 . S
H1684 C1694 0.930 . S
H1685 C1695 0.930 1_545 S
C1686 H1680 0.930 . S
C1686 C1687 1.355 . S
C1686 C1688 1.415 . S
C1687 C1686 1.355 . S
C1687 C1689 1.419 . S
C1688 C1686 1.415 . S
C1688 C1693 1.425 1_545 S
C1688 C1695 1.409 1_545 S
C1689 H1681 0.930 . S
C1689 C1687 1.419 . S
C1689 C1690 1.362 1_545 S
C1690 H1682 0.930 . S
C1690 C1689 1.362 1_565 S
C1690 C1693 1.409 . S
C1691 H1683 0.930 . S
C1691 C1692 1.355 . S
C1691 C1693 1.415 . S
C1692 C1691 1.355 . S
C1692 C1694 1.419 . S
C1693 C1688 1.425 1_565 S
C1693 C1690 1.409 . S
C1693 C1691 1.415 . S
C1694 H1684 0.930 . S
C1694 C1692 1.419 . S
C1694 C1695 1.362 . S
C1695 H1685 0.930 1_565 S
C1695 C1688 1.409 1_565 S
C1695 C1694 1.362 . S
H1696 C1702 0.930 . S
H1697 C1705 0.930 . S
H1698 C1706 0.930 . S
H1699 C1707 0.930 . S
H1700 C1710 0.930 1_545 S
H1701 C1711 0.930 . S
C1702 H1696 0.930 . S
C1702 C1703 1.355 . S
C1702 C1704 1.415 . S
C1703 C1702 1.355 . S
C1703 C1705 1.419 . S
C1704 C1702 1.415 . S
C1704 C1709 1.425 . S
C1704 C1711 1.409 . S
C1705 H1697 0.930 . S
C1705 C1703 1.419 . S
C1705 C1706 1.362 . S
C1706 H1698 0.930 . S
C1706 C1705 1.362 . S
C1706 C1709 1.409 . S
C1707 H1699 0.930 . S
C1707 C1708 1.355 . S
C1707 C1709 1.415 . S
C1708 C1707 1.355 . S
C1708 C1710 1.419 . S
C1709 C1704 1.425 . S
C1709 C1706 1.409 . S
C1709 C1707 1.415 . S
C1710 H1700 0.930 1_565 S
C1710 C1708 1.419 . S
C1710 C1711 1.362 . S
C1711 H1701 0.930 . S
C1711 C1704 1.409 . S
C1711 C1710 1.362 . S
H1712 C1718 0.930 . S
H1713 C1721 0.930 . S
H1714 C1722 0.930 . S
H1715 C1723 0.930 . S
H1716 C1726 0.930 . S
H1717 C1727 0.930 . S
C1718 H1712 0.930 . S
C1718 C1719 1.355 . S
C1718 C1720 1.415 . S
C1719 C1718 1.355 . S
C1719 C1721 1.419 . S
C1720 C1718 1.415 . S
C1720 C1725 1.425 . S
C1720 C1727 1.409 . S
C1721 H1713 0.930 . S
C1721 C1719 1.419 . S
C1721 C1722 1.362 . S
C1722 H1714 0.930 . S
C1722 C1721 1.362 . S
C1722 C1725 1.409 . S
C1723 H1715 0.930 . S
C1723 C1724 1.355 . S
C1723 C1725 1.415 . S
C1724 C1723 1.355 . S
C1724 C1726 1.419 . S
C1725 C1720 1.425 . S
C1725 C1722 1.409 . S
C1725 C1723 1.415 . S
C1726 H1716 0.930 . S
C1726 C1724 1.419 . S
C1726 C1727 1.362 . S
C1727 H1717 0.930 . S
C1727 C1720 1.409 . S
C1727 C1726 1.362 . S
H1728 C1734 0.930 . S
H1729 C1737 0.930 . S
H1730 C1738 0.930 . S
H1731 C1739 0.930 . S
H1732 C1742 0.930 . S
H1733 C1743 0.930 . S
C1734 H1728 0.930 . S
C1734 C1735 1.355 . S
C1734 C1736 1.415 . S
C1735 C1734 1.355 . S
C1735 C1737 1.419 . S
C1736 C1734 1.415 . S
C1736 C1741 1.425 . S
C1736 C1743 1.409 . S
C1737 H1729 0.930 . S
C1737 C1735 1.419 . S
C1737 C1738 1.362 . S
C1738 H1730 0.930 . S
C1738 C1737 1.362 . S
C1738 C1741 1.409 . S
C1739 H1731 0.930 . S
C1739 C1740 1.355 . S
C1739 C1741 1.415 . S
C1740 C1739 1.355 . S
C1740 C1742 1.419 . S
C1741 C1736 1.425 . S
C1741 C1738 1.409 . S
C1741 C1739 1.415 . S
C1742 H1732 0.930 . S
C1742 C1740 1.419 . S
C1742 C1743 1.362 . S
C1743 H1733 0.930 . S
C1743 C1736 1.409 . S
C1743 C1742 1.362 . S
H1744 C1750 0.930 . S
H1745 C1753 0.930 . S
H1746 C1754 0.930 . S
H1747 C1755 0.930 . S
H1748 C1758 0.930 . S
H1749 C1759 0.930 . S
C1750 H1744 0.930 . S
C1750 C1751 1.355 . S
C1750 C1752 1.415 . S
C1751 C1750 1.355 . S
C1751 C1753 1.419 . S
C1752 C1750 1.415 . S
C1752 C1757 1.425 . S
C1752 C1759 1.409 . S
C1753 H1745 0.930 . S
C1753 C1751 1.419 . S
C1753 C1754 1.362 . S
C1754 H1746 0.930 . S
C1754 C1753 1.362 . S
C1754 C1757 1.409 . S
C1755 H1747 0.930 . S
C1755 C1756 1.355 . S
C1755 C1757 1.415 . S
C1756 C1755 1.355 . S
C1756 C1758 1.419 . S
C1757 C1752 1.425 . S
C1757 C1754 1.409 . S
C1757 C1755 1.415 . S
C1758 H1748 0.930 . S
C1758 C1756 1.419 . S
C1758 C1759 1.362 . S
C1759 H1749 0.930 . S
C1759 C1752 1.409 . S
C1759 C1758 1.362 . S
H1760 C1766 0.930 . S
H1761 C1769 0.930 . S
H1762 C1770 0.930 . S
H1763 C1771 0.930 . S
H1764 C1774 0.930 . S
H1765 C1775 0.930 . S
C1766 H1760 0.930 . S
C1766 C1767 1.355 . S
C1766 C1768 1.415 . S
C1767 C1766 1.355 . S
C1767 C1769 1.419 . S
C1768 C1766 1.415 . S
C1768 C1773 1.425 . S
C1768 C1775 1.409 . S
C1769 H1761 0.930 . S
C1769 C1767 1.419 . S
C1769 C1770 1.362 . S
C1770 H1762 0.930 . S
C1770 C1769 1.362 . S
C1770 C1773 1.409 . S
C1771 H1763 0.930 . S
C1771 C1772 1.355 . S
C1771 C1773 1.415 . S
C1772 C1771 1.355 . S
C1772 C1774 1.419 . S
C1773 C1768 1.425 . S
C1773 C1770 1.409 . S
C1773 C1771 1.415 . S
C1774 H1764 0.930 . S
C1774 C1772 1.419 . S
C1774 C1775 1.362 . S
C1775 H1765 0.930 . S
C1775 C1768 1.409 . S
C1775 C1774 1.362 . S
H1776 C1782 0.930 . S
H1777 C1785 0.929 1_655 S
H1778 C1786 0.931 . S
H1779 C1787 0.930 . S
H1780 C1790 0.930 . S
H1781 C1791 0.930 . S
C1782 H1776 0.930 . S
C1782 C1783 1.355 1_556 S
C1782 C1784 1.415 1_556 S
C1783 C1782 1.355 1_554 S
C1783 C1785 1.420 . S
C1784 C1782 1.415 1_554 S
C1784 C1789 1.425 . S
C1784 C1791 1.409 1_554 S
C1785 H1777 0.929 1_455 S
C1785 C1783 1.420 . S
C1785 C1786 1.361 1_455 S
C1786 H1778 0.931 . S
C1786 C1785 1.361 1_655 S
C1786 C1789 1.409 1_655 S
C1787 H1779 0.930 . S
C1787 C1788 1.355 . S
C1787 C1789 1.415 . S
C1788 C1787 1.355 . S
C1788 C1790 1.419 . S
C1789 C1784 1.425 . S
C1789 C1786 1.409 1_455 S
C1789 C1787 1.415 . S
C1790 H1780 0.930 . S
C1790 C1788 1.419 . S
C1790 C1791 1.362 1_554 S
C1791 H1781 0.930 . S
C1791 C1784 1.409 1_556 S
C1791 C1790 1.362 1_556 S
H1792 C1798 0.930 . S
H1793 C1801 0.930 1_455 S
H1794 C1802 0.930 . S
H1795 C1803 0.930 . S
H1796 C1806 0.930 . S
H1797 C1807 0.930 . S
C1798 H1792 0.930 . S
C1798 C1799 1.355 1_655 S
C1798 C1800 1.415 . S
C1799 C1798 1.355 1_455 S
C1799 C1801 1.419 1_455 S
C1800 C1798 1.415 . S
C1800 C1805 1.425 . S
C1800 C1807 1.409 . S
C1801 H1793 0.930 1_655 S
C1801 C1799 1.419 1_655 S
C1801 C1802 1.362 . S
C1802 H1794 0.930 . S
C1802 C1801 1.362 . S
C1802 C1805 1.409 . S
C1803 H1795 0.930 . S
C1803 C1804 1.355 . S
C1803 C1805 1.415 . S
C1804 C1803 1.355 . S
C1804 C1806 1.419 . S
C1805 C1800 1.425 . S
C1805 C1802 1.409 . S
C1805 C1803 1.415 . S
C1806 H1796 0.930 . S
C1806 C1804 1.419 . S
C1806 C1807 1.362 . S
C1807 H1797 0.930 . S
C1807 C1800 1.409 . S
C1807 C1806 1.362 . S
H1808 C1814 0.930 . S
H1809 C1817 0.930 . S
H1810 C1818 0.930 . S
H1811 C1819 0.930 . S
H1812 C1822 0.930 . S
H1813 C1823 0.930 . S
C1814 H1808 0.930 . S
C1814 C1815 1.355 . S
C1814 C1816 1.415 . S
C1815 C1814 1.355 . S
C1815 C1817 1.419 . S
C1816 C1814 1.415 . S
C1816 C1821 1.425 . S
C1816 C1823 1.409 . S
C1817 H1809 0.930 . S
C1817 C1815 1.419 . S
C1817 C1818 1.362 . S
C1818 H1810 0.930 . S
C1818 C1817 1.362 . S
C1818 C1821 1.409 . S
C1819 H1811 0.930 . S
C1819 C1820 1.355 . S
C1819 C1821 1.415 . S
C1820 C1819 1.355 . S
C1820 C1822 1.419 . S
C1821 C1816 1.425 . S
C1821 C1818 1.409 . S
C1821 C1819 1.415 . S
C1822 H1812 0.930 . S
C1822 C1820 1.419 . S
C1822 C1823 1.362 . S
C1823 H1813 0.930 . S
C1823 C1816 1.409 . S
C1823 C1822 1.362 . S
H1824 C1830 0.930 . S
H1825 C1833 0.930 . S
H1826 C1834 0.930 . S
H1827 C1835 0.930 . S
H1828 C1838 0.930 . S
H1829 C1839 0.930 . S
C1830 H1824 0.930 . S
C1830 C1831 1.355 . S
C1830 C1832 1.415 . S
C1831 C1830 1.355 . S
C1831 C1833 1.419 . S
C1832 C1830 1.415 . S
C1832 C1837 1.425 . S
C1832 C1839 1.409 . S
C1833 H1825 0.930 . S
C1833 C1831 1.419 . S
C1833 C1834 1.362 . S
C1834 H1826 0.930 . S
C1834 C1833 1.362 . S
C1834 C1837 1.409 . S
C1835 H1827 0.930 . S
C1835 C1836 1.355 . S
C1835 C1837 1.415 . S
C1836 C1835 1.355 . S
C1836 C1838 1.419 . S
C1837 C1832 1.425 . S
C1837 C1834 1.409 . S
C1837 C1835 1.415 . S
C1838 H1828 0.930 . S
C1838 C1836 1.419 . S
C1838 C1839 1.362 . S
C1839 H1829 0.930 . S
C1839 C1832 1.409 . S
C1839 C1838 1.362 . S
H1840 C1846 0.930 1_655 S
H1841 C1849 0.930 . S
H1842 C1850 0.930 . S
H1843 C1851 0.930 . S
H1844 C1854 0.930 . S
H1845 C1855 0.930 1_655 S
C1846 H1840 0.930 1_455 S
C1846 C1847 1.355 . S
C1846 C1848 1.415 . S
C1847 C1846 1.355 . S
C1847 C1849 1.419 . S
C1848 C1846 1.415 . S
C1848 C1853 1.425 . S
C1848 C1855 1.409 . S
C1849 H1841 0.930 . S
C1849 C1847 1.419 . S
C1849 C1850 1.362 . S
C1850 H1842 0.930 . S
C1850 C1849 1.362 . S
C1850 C1853 1.409 . S
C1851 H1843 0.930 . S
C1851 C1852 1.355 . S
C1851 C1853 1.415 . S
C1852 C1851 1.355 . S
C1852 C1854 1.419 . S
C1853 C1848 1.425 . S
C1853 C1850 1.409 . S
C1853 C1851 1.415 . S
C1854 H1844 0.930 . S
C1854 C1852 1.419 . S
C1854 C1855 1.362 . S
C1855 H1845 0.930 1_455 S
C1855 C1848 1.409 . S
C1855 C1854 1.362 . S
H1856 C1862 0.930 . S
H1857 C1865 0.930 . S
H1858 C1866 0.930 . S
H1859 C1867 0.930 . S
H1860 C1870 0.930 . S
H1861 C1871 0.930 . S
C1862 H1856 0.930 . S
C1862 C1863 1.355 . S
C1862 C1864 1.415 . S
C1863 C1862 1.355 . S
C1863 C1865 1.419 . S
C1864 C1862 1.415 . S
C1864 C1869 1.425 . S
C1864 C1871 1.409 . S
C1865 H1857 0.930 . S
C1865 C1863 1.419 . S
C1865 C1866 1.362 . S
C1866 H1858 0.930 . S
C1866 C1865 1.362 . S
C1866 C1869 1.409 . S
C1867 H1859 0.930 . S
C1867 C1868 1.355 . S
C1867 C1869 1.415 . S
C1868 C1867 1.355 . S
C1868 C1870 1.419 . S
C1869 C1864 1.425 . S
C1869 C1866 1.409 . S
C1869 C1867 1.415 . S
C1870 H1860 0.930 . S
C1870 C1868 1.419 . S
C1870 C1871 1.362 . S
C1871 H1861 0.930 . S
C1871 C1864 1.409 . S
C1871 C1870 1.362 . S
H1872 C1878 0.930 . S
H1873 C1881 0.930 . S
H1874 C1882 0.930 . S
H1875 C1883 0.930 . S
H1876 C1886 0.930 . S
H1877 C1887 0.930 . S
C1878 H1872 0.930 . S
C1878 C1879 1.355 . S
C1878 C1880 1.415 . S
C1879 C1878 1.355 . S
C1879 C1881 1.419 . S
C1880 C1878 1.415 . S
C1880 C1885 1.425 . S
C1880 C1887 1.409 . S
C1881 H1873 0.930 . S
C1881 C1879 1.419 . S
C1881 C1882 1.362 . S
C1882 H1874 0.930 . S
C1882 C1881 1.362 . S
C1882 C1885 1.409 . S
C1883 H1875 0.930 . S
C1883 C1884 1.355 . S
C1883 C1885 1.415 . S
C1884 C1883 1.355 . S
C1884 C1886 1.419 . S
C1885 C1880 1.425 . S
C1885 C1882 1.409 . S
C1885 C1883 1.415 . S
C1886 H1876 0.930 . S
C1886 C1884 1.419 . S
C1886 C1887 1.362 . S
C1887 H1877 0.930 . S
C1887 C1880 1.409 . S
C1887 C1886 1.362 . S
H1888 C1894 0.930 . S
H1889 C1897 0.930 . S
H1890 C1898 0.925 . S
H1891 C1899 0.930 . S
H1892 C1902 0.930 . S
H1893 C1903 0.930 . S
C1894 H1888 0.930 . S
C1894 C1895 1.355 1_556 S
C1894 C1896 1.415 . S
C1895 C1894 1.355 1_554 S
C1895 C1897 1.419 . S
C1896 C1894 1.415 . S
C1896 C1901 1.425 . S
C1896 C1903 1.409 . S
C1897 H1889 0.930 . S
C1897 C1895 1.419 . S
C1897 C1898 1.388 . S
C1898 H1890 0.925 . S
C1898 C1897 1.388 . S
C1898 C1901 1.390 1_554 S
C1899 H1891 0.930 . S
C1899 C1900 1.355 . S
C1899 C1901 1.415 . S
C1900 C1899 1.355 . S
C1900 C1902 1.419 . S
C1901 C1896 1.425 . S
C1901 C1898 1.390 1_556 S
C1901 C1899 1.415 . S
C1902 H1892 0.930 . S
C1902 C1900 1.419 . S
C1902 C1903 1.362 . S
C1903 H1893 0.930 . S
C1903 C1896 1.409 . S
C1903 C1902 1.362 . S
H1904 C1910 0.930 . S
H1905 C1913 0.930 . S
H1906 C1914 0.930 . S
H1907 C1915 0.930 . S
H1908 C1918 0.930 . S
H1909 C1919 0.930 . S
C1910 H1904 0.930 . S
C1910 C1911 1.355 . S
C1910 C1912 1.415 . S
C1911 C1910 1.355 . S
C1911 C1913 1.419 . S
C1912 C1910 1.415 . S
C1912 C1917 1.425 . S
C1912 C1919 1.409 . S
C1913 H1905 0.930 . S
C1913 C1911 1.419 . S
C1913 C1914 1.362 . S
C1914 H1906 0.930 . S
C1914 C1913 1.362 . S
C1914 C1917 1.409 . S
C1915 H1907 0.930 . S
C1915 C1916 1.355 . S
C1915 C1917 1.415 . S
C1916 C1915 1.355 . S
C1916 C1918 1.419 . S
C1917 C1912 1.425 . S
C1917 C1914 1.409 . S
C1917 C1915 1.415 . S
C1918 H1908 0.930 . S
C1918 C1916 1.419 . S
C1918 C1919 1.362 . S
C1919 H1909 0.930 . S
C1919 C1912 1.409 . S
C1919 C1918 1.362 . S
H1920 C1926 0.930 . S
H1921 C1929 0.930 . S
H1922 C1930 0.930 . S
H1923 C1931 0.930 . S
H1924 C1934 0.930 . S
H1925 C1935 0.930 . S
C1926 H1920 0.930 . S
C1926 C1927 1.355 . S
C1926 C1928 1.415 . S
C1927 C1926 1.355 . S
C1927 C1929 1.419 . S
C1928 C1926 1.415 . S
C1928 C1933 1.425 . S
C1928 C1935 1.409 . S
C1929 H1921 0.930 . S
C1929 C1927 1.419 . S
C1929 C1930 1.362 . S
C1930 H1922 0.930 . S
C1930 C1929 1.362 . S
C1930 C1933 1.409 . S
C1931 H1923 0.930 . S
C1931 C1932 1.355 . S
C1931 C1933 1.415 . S
C1932 C1931 1.355 . S
C1932 C1934 1.419 . S
C1933 C1928 1.425 . S
C1933 C1930 1.409 . S
C1933 C1931 1.415 . S
C1934 H1924 0.930 . S
C1934 C1932 1.419 . S
C1934 C1935 1.362 . S
C1935 H1925 0.930 . S
C1935 C1928 1.409 . S
C1935 C1934 1.362 . S
H1936 C1942 0.930 . S
H1937 C1945 0.930 . S
H1938 C1946 0.930 . S
H1939 C1947 0.930 . S
H1940 C1950 0.930 . S
H1941 C1951 0.930 . S
C1942 H1936 0.930 . S
C1942 C1943 1.355 . S
C1942 C1944 1.415 . S
C1943 C1942 1.355 . S
C1943 C1945 1.419 . S
C1944 C1942 1.415 . S
C1944 C1949 1.425 . S
C1944 C1951 1.409 . S
C1945 H1937 0.930 . S
C1945 C1943 1.419 . S
C1945 C1946 1.362 . S
C1946 H1938 0.930 . S
C1946 C1945 1.362 . S
C1946 C1949 1.409 . S
C1947 H1939 0.930 . S
C1947 C1948 1.355 . S
C1947 C1949 1.415 . S
C1948 C1947 1.355 . S
C1948 C1950 1.419 . S
C1949 C1944 1.425 . S
C1949 C1946 1.409 . S
C1949 C1947 1.415 . S
C1950 H1940 0.930 . S
C1950 C1948 1.419 . S
C1950 C1951 1.362 . S
C1951 H1941 0.930 . S
C1951 C1944 1.409 . S
C1951 C1950 1.362 . S
H1952 C1958 0.930 . S
H1953 C1961 0.930 . S
H1954 C1962 0.930 . S
H1955 C1963 0.930 . S
H1956 C1966 0.930 . S
H1957 C1967 0.930 . S
C1958 H1952 0.930 . S
C1958 C1959 1.355 . S
C1958 C1960 1.415 . S
C1959 C1958 1.355 . S
C1959 C1961 1.419 . S
C1960 C1958 1.415 . S
C1960 C1965 1.425 . S
C1960 C1967 1.409 . S
C1961 H1953 0.930 . S
C1961 C1959 1.419 . S
C1961 C1962 1.362 . S
C1962 H1954 0.930 . S
C1962 C1961 1.362 . S
C1962 C1965 1.409 . S
C1963 H1955 0.930 . S
C1963 C1964 1.355 . S
C1963 C1965 1.415 . S
C1964 C1963 1.355 . S
C1964 C1966 1.419 . S
C1965 C1960 1.425 . S
C1965 C1962 1.409 . S
C1965 C1963 1.415 . S
C1966 H1956 0.930 . S
C1966 C1964 1.419 . S
C1966 C1967 1.362 . S
C1967 H1957 0.930 . S
C1967 C1960 1.409 . S
C1967 C1966 1.362 . S
H1968 C1974 0.930 . S
H1969 C1977 0.930 . S
H1970 C1978 0.930 . S
H1971 C1979 0.930 . S
H1972 C1982 0.930 . S
H1973 C1983 0.930 . S
C1974 H1968 0.930 . S
C1974 C1975 1.355 . S
C1974 C1976 1.415 . S
C1975 C1974 1.355 . S
C1975 C1977 1.419 . S
C1976 C1974 1.415 . S
C1976 C1981 1.425 . S
C1976 C1983 1.409 . S
C1977 H1969 0.930 . S
C1977 C1975 1.419 . S
C1977 C1978 1.362 . S
C1978 H1970 0.930 . S
C1978 C1977 1.362 . S
C1978 C1981 1.409 . S
C1979 H1971 0.930 . S
C1979 C1980 1.355 . S
C1979 C1981 1.415 . S
C1980 C1979 1.355 . S
C1980 C1982 1.419 . S
C1981 C1976 1.425 . S
C1981 C1978 1.409 . S
C1981 C1979 1.415 . S
C1982 H1972 0.930 . S
C1982 C1980 1.419 . S
C1982 C1983 1.362 . S
C1983 H1973 0.930 . S
C1983 C1976 1.409 . S
C1983 C1982 1.362 . S
H1984 C1990 0.930 . S
H1985 C1993 0.930 . S
H1986 C1994 0.930 . S
H1987 C1995 0.930 . S
H1988 C1998 0.930 . S
H1989 C1999 0.930 . S
C1990 H1984 0.930 . S
C1990 C1991 1.355 . S
C1990 C1992 1.415 . S
C1991 C1990 1.355 . S
C1991 C1993 1.419 . S
C1992 C1990 1.415 . S
C1992 C1997 1.425 . S
C1992 C1999 1.409 . S
C1993 H1985 0.930 . S
C1993 C1991 1.419 . S
C1993 C1994 1.362 . S
C1994 H1986 0.930 . S
C1994 C1993 1.362 . S
C1994 C1997 1.409 . S
C1995 H1987 0.930 . S
C1995 C1996 1.355 . S
C1995 C1997 1.415 . S
C1996 C1995 1.355 . S
C1996 C1998 1.419 . S
C1997 C1992 1.425 . S
C1997 C1994 1.409 . S
C1997 C1995 1.415 . S
C1998 H1988 0.930 . S
C1998 C1996 1.419 . S
C1998 C1999 1.362 . S
C1999 H1989 0.930 . S
C1999 C1992 1.409 . S
C1999 C1998 1.362 . S
H2000 C2006 0.930 . S
H2001 C2009 0.930 . S
H2002 C2010 0.930 . S
H2003 C2011 0.930 . S
H2004 C2014 0.930 . S
H2005 C2015 0.930 . S
C2006 H2000 0.930 . S
C2006 C2007 1.355 . S
C2006 C2008 1.415 . S
C2007 C2006 1.355 . S
C2007 C2009 1.419 . S
C2008 C2006 1.415 . S
C2008 C2013 1.425 . S
C2008 C2015 1.409 . S
C2009 H2001 0.930 . S
C2009 C2007 1.419 . S
C2009 C2010 1.362 . S
C2010 H2002 0.930 . S
C2010 C2009 1.362 . S
C2010 C2013 1.409 . S
C2011 H2003 0.930 . S
C2011 C2012 1.355 . S
C2011 C2013 1.415 . S
C2012 C2011 1.355 . S
C2012 C2014 1.419 . S
C2013 C2008 1.425 . S
C2013 C2010 1.409 . S
C2013 C2011 1.415 . S
C2014 H2004 0.930 . S
C2014 C2012 1.419 . S
C2014 C2015 1.362 . S
C2015 H2005 0.930 . S
C2015 C2008 1.409 . S
C2015 C2014 1.362 . S
H2016 C2022 0.930 . S
H2017 C2025 0.930 . S
H2018 C2026 0.930 . S
H2019 C2027 0.930 . S
H2020 C2030 0.930 . S
H2021 C2031 0.930 . S
C2022 H2016 0.930 . S
C2022 C2023 1.355 . S
C2022 C2024 1.415 . S
C2023 C2022 1.355 . S
C2023 C2025 1.419 . S
C2024 C2022 1.415 . S
C2024 C2029 1.425 . S
C2024 C2031 1.409 . S
C2025 H2017 0.930 . S
C2025 C2023 1.419 . S
C2025 C2026 1.362 . S
C2026 H2018 0.930 . S
C2026 C2025 1.362 . S
C2026 C2029 1.409 . S
C2027 H2019 0.930 . S
C2027 C2028 1.355 . S
C2027 C2029 1.415 . S
C2028 C2027 1.355 . S
C2028 C2030 1.419 . S
C2029 C2024 1.425 . S
C2029 C2026 1.409 . S
C2029 C2027 1.415 . S
C2030 H2020 0.930 . S
C2030 C2028 1.419 . S
C2030 C2031 1.362 . S
C2031 H2021 0.930 . S
C2031 C2024 1.409 . S
C2031 C2030 1.362 . S
H2032 C2038 0.930 . S
H2033 C2041 0.930 . S
H2034 C2042 0.930 . S
H2035 C2043 0.930 . S
H2036 C2046 0.930 . S
H2037 C2047 0.930 . S
C2038 H2032 0.930 . S
C2038 C2039 1.355 . S
C2038 C2040 1.415 . S
C2039 C2038 1.355 . S
C2039 C2041 1.419 . S
C2040 C2038 1.415 . S
C2040 C2045 1.425 . S
C2040 C2047 1.409 . S
C2041 H2033 0.930 . S
C2041 C2039 1.419 . S
C2041 C2042 1.362 . S
C2042 H2034 0.930 . S
C2042 C2041 1.362 . S
C2042 C2045 1.409 . S
C2043 H2035 0.930 . S
C2043 C2044 1.355 . S
C2043 C2045 1.415 . S
C2044 C2043 1.355 . S
C2044 C2046 1.419 . S
C2045 C2040 1.425 . S
C2045 C2042 1.409 . S
C2045 C2043 1.415 . S
C2046 H2036 0.930 . S
C2046 C2044 1.419 . S
C2046 C2047 1.362 . S
C2047 H2037 0.930 . S
C2047 C2040 1.409 . S
C2047 C2046 1.362 . S
H2048 C2054 0.930 . S
H2049 C2057 0.930 . S
H2050 C2058 0.930 . S
H2051 C2059 0.932 1_565 S
H2052 C2062 0.930 . S
H2053 C2063 0.930 . S
C2054 H2048 0.930 . S
C2054 C2055 1.355 . S
C2054 C2056 1.415 . S
C2055 C2054 1.355 . S
C2055 C2057 1.419 1_554 S
C2056 C2054 1.415 . S
C2056 C2061 1.425 . S
C2056 C2063 1.409 1_565 S
C2057 H2049 0.930 . S
C2057 C2055 1.419 1_556 S
C2057 C2058 1.362 . S
C2058 H2050 0.930 . S
C2058 C2057 1.362 . S
C2058 C2061 1.409 1_556 S
C2059 H2051 0.932 1_545 S
C2059 C2060 1.352 . S
C2059 C2061 1.415 1_545 S
C2060 C2059 1.352 . S
C2060 C2062 1.419 . S
C2061 C2056 1.425 . S
C2061 C2058 1.409 1_554 S
C2061 C2059 1.415 1_565 S
C2062 H2052 0.930 . S
C2062 C2060 1.419 . S
C2062 C2063 1.362 . S
C2063 H2053 0.930 . S
C2063 C2056 1.409 1_545 S
C2063 C2062 1.362 . S
H2064 C2070 0.930 . S
H2065 C2073 0.930 . S
H2066 C2074 0.930 . S
H2067 C2075 0.930 . S
H2068 C2078 0.930 . S
H2069 C2079 0.930 . S
C2070 H2064 0.930 . S
C2070 C2071 1.355 . S
C2070 C2072 1.415 . S
C2071 C2070 1.355 . S
C2071 C2073 1.419 . S
C2072 C2070 1.415 . S
C2072 C2077 1.425 . S
C2072 C2079 1.409 . S
C2073 H2065 0.930 . S
C2073 C2071 1.419 . S
C2073 C2074 1.362 . S
C2074 H2066 0.930 . S
C2074 C2073 1.362 . S
C2074 C2077 1.409 . S
C2075 H2067 0.930 . S
C2075 C2076 1.355 . S
C2075 C2077 1.415 . S
C2076 C2075 1.355 . S
C2076 C2078 1.419 . S
C2077 C2072 1.425 . S
C2077 C2074 1.409 . S
C2077 C2075 1.415 . S
C2078 H2068 0.930 . S
C2078 C2076 1.419 . S
C2078 C2079 1.362 . S
C2079 H2069 0.930 . S
C2079 C2072 1.409 . S
C2079 C2078 1.362 . S
H2080 C2086 0.930 . S
H2081 C2089 0.930 . S
H2082 C2090 0.930 . S
H2083 C2091 0.930 . S
H2084 C2094 0.930 . S
H2085 C2095 0.930 . S
C2086 H2080 0.930 . S
C2086 C2087 1.355 . S
C2086 C2088 1.415 . S
C2087 C2086 1.355 . S
C2087 C2089 1.419 . S
C2088 C2086 1.415 . S
C2088 C2093 1.425 . S
C2088 C2095 1.409 . S
C2089 H2081 0.930 . S
C2089 C2087 1.419 . S
C2089 C2090 1.362 . S
C2090 H2082 0.930 . S
C2090 C2089 1.362 . S
C2090 C2093 1.409 . S
C2091 H2083 0.930 . S
C2091 C2092 1.355 . S
C2091 C2093 1.415 . S
C2092 C2091 1.355 . S
C2092 C2094 1.419 . S
C2093 C2088 1.425 . S
C2093 C2090 1.409 . S
C2093 C2091 1.415 . S
C2094 H2084 0.930 . S
C2094 C2092 1.419 . S
C2094 C2095 1.362 . S
C2095 H2085 0.930 . S
C2095 C2088 1.409 . S
C2095 C2094 1.362 . S
H2096 C2102 0.930 . S
H2097 C2105 0.930 . S
H2098 C2106 0.930 . S
H2099 C2107 0.930 . S
H2100 C2110 0.930 . S
H2101 C2111 0.930 . S
C2102 H2096 0.930 . S
C2102 C2103 1.355 . S
C2102 C2104 1.415 . S
C2103 C2102 1.355 . S
C2103 C2105 1.419 . S
C2104 C2102 1.415 . S
C2104 C2109 1.425 . S
C2104 C2111 1.409 . S
C2105 H2097 0.930 . S
C2105 C2103 1.419 . S
C2105 C2106 1.362 . S
C2106 H2098 0.930 . S
C2106 C2105 1.362 . S
C2106 C2109 1.409 . S
C2107 H2099 0.930 . S
C2107 C2108 1.355 . S
C2107 C2109 1.415 . S
C2108 C2107 1.355 . S
C2108 C2110 1.419 . S
C2109 C2104 1.425 . S
C2109 C2106 1.409 . S
C2109 C2107 1.415 . S
C2110 H2100 0.930 . S
C2110 C2108 1.419 . S
C2110 C2111 1.362 . S
C2111 H2101 0.930 . S
C2111 C2104 1.409 . S
C2111 C2110 1.362 . S
H2112 C2118 0.930 . S
H2113 C2121 0.930 . S
H2114 C2122 0.930 . S
H2115 C2123 0.930 . S
H2116 C2126 0.930 . S
H2117 C2127 0.930 . S
C2118 H2112 0.930 . S
C2118 C2119 1.355 . S
C2118 C2120 1.415 . S
C2119 C2118 1.355 . S
C2119 C2121 1.419 . S
C2120 C2118 1.415 . S
C2120 C2125 1.425 . S
C2120 C2127 1.409 . S
C2121 H2113 0.930 . S
C2121 C2119 1.419 . S
C2121 C2122 1.362 . S
C2122 H2114 0.930 . S
C2122 C2121 1.362 . S
C2122 C2125 1.409 . S
C2123 H2115 0.930 . S
C2123 C2124 1.355 . S
C2123 C2125 1.415 . S
C2124 C2123 1.355 . S
C2124 C2126 1.419 . S
C2125 C2120 1.425 . S
C2125 C2122 1.409 . S
C2125 C2123 1.415 . S
C2126 H2116 0.930 . S
C2126 C2124 1.419 . S
C2126 C2127 1.362 . S
C2127 H2117 0.930 . S
C2127 C2120 1.409 . S
C2127 C2126 1.362 . S
H2128 C2134 0.930 . S
H2129 C2137 0.930 . S
H2130 C2138 0.930 . S
H2131 C2139 0.930 . S
H2132 C2142 0.930 . S
H2133 C2143 0.930 . S
C2134 H2128 0.930 . S
C2134 C2135 1.355 . S
C2134 C2136 1.415 . S
C2135 C2134 1.355 . S
C2135 C2137 1.419 . S
C2136 C2134 1.415 . S
C2136 C2141 1.425 . S
C2136 C2143 1.409 . S
C2137 H2129 0.930 . S
C2137 C2135 1.419 . S
C2137 C2138 1.362 . S
C2138 H2130 0.930 . S
C2138 C2137 1.362 . S
C2138 C2141 1.409 . S
C2139 H2131 0.930 . S
C2139 C2140 1.355 . S
C2139 C2141 1.415 . S
C2140 C2139 1.355 . S
C2140 C2142 1.419 . S
C2141 C2136 1.425 . S
C2141 C2138 1.409 . S
C2141 C2139 1.415 . S
C2142 H2132 0.930 . S
C2142 C2140 1.419 . S
C2142 C2143 1.362 . S
C2143 H2133 0.930 . S
C2143 C2136 1.409 . S
C2143 C2142 1.362 . S
H2144 C2150 0.930 . S
H2145 C2153 0.930 . S
H2146 C2154 0.930 . S
H2147 C2155 0.930 . S
H2148 C2158 0.930 . S
H2149 C2159 0.930 . S
C2150 H2144 0.930 . S
C2150 C2151 1.355 . S
C2150 C2152 1.415 . S
C2151 C2150 1.355 . S
C2151 C2153 1.419 . S
C2152 C2150 1.415 . S
C2152 C2157 1.425 . S
C2152 C2159 1.409 . S
C2153 H2145 0.930 . S
C2153 C2151 1.419 . S
C2153 C2154 1.362 . S
C2154 H2146 0.930 . S
C2154 C2153 1.362 . S
C2154 C2157 1.409 . S
C2155 H2147 0.930 . S
C2155 C2156 1.355 . S
C2155 C2157 1.415 . S
C2156 C2155 1.355 . S
C2156 C2158 1.419 . S
C2157 C2152 1.425 . S
C2157 C2154 1.409 . S
C2157 C2155 1.415 . S
C2158 H2148 0.930 . S
C2158 C2156 1.419 . S
C2158 C2159 1.362 . S
C2159 H2149 0.930 . S
C2159 C2152 1.409 . S
C2159 C2158 1.362 . S
H2160 C2166 0.930 . S
H2161 C2169 0.930 . S
H2162 C2170 0.930 . S
H2163 C2171 0.930 . S
H2164 C2174 0.930 . S
H2165 C2175 0.930 . S
C2166 H2160 0.930 . S
C2166 C2167 1.355 . S
C2166 C2168 1.415 . S
C2167 C2166 1.355 . S
C2167 C2169 1.419 . S
C2168 C2166 1.415 . S
C2168 C2173 1.425 . S
C2168 C2175 1.409 . S
C2169 H2161 0.930 . S
C2169 C2167 1.419 . S
C2169 C2170 1.362 . S
C2170 H2162 0.930 . S
C2170 C2169 1.362 . S
C2170 C2173 1.409 . S
C2171 H2163 0.930 . S
C2171 C2172 1.355 . S
C2171 C2173 1.415 . S
C2172 C2171 1.355 . S
C2172 C2174 1.419 . S
C2173 C2168 1.425 . S
C2173 C2170 1.409 . S
C2173 C2171 1.415 . S
C2174 H2164 0.930 . S
C2174 C2172 1.419 . S
C2174 C2175 1.362 . S
C2175 H2165 0.930 . S
C2175 C2168 1.409 . S
C2175 C2174 1.362 . S
H2176 C2182 0.930 . S
H2177 C2185 0.930 . S
H2178 C2186 0.930 . S
H2179 C2187 0.930 . S
H2180 C2190 0.930 . S
H2181 C2191 0.930 . S
C2182 H2176 0.930 . S
C2182 C2183 1.355 . S
C2182 C2184 1.415 . S
C2183 C2182 1.355 . S
C2183 C2185 1.419 . S
C2184 C2182 1.415 . S
C2184 C2189 1.425 . S
C2184 C2191 1.409 . S
C2185 H2177 0.930 . S
C2185 C2183 1.419 . S
C2185 C2186 1.362 . S
C2186 H2178 0.930 . S
C2186 C2185 1.362 . S
C2186 C2189 1.409 . S
C2187 H2179 0.930 . S
C2187 C2188 1.355 . S
C2187 C2189 1.415 . S
C2188 C2187 1.355 . S
C2188 C2190 1.419 . S
C2189 C2184 1.425 . S
C2189 C2186 1.409 . S
C2189 C2187 1.415 . S
C2190 H2180 0.930 . S
C2190 C2188 1.419 . S
C2190 C2191 1.362 . S
C2191 H2181 0.930 . S
C2191 C2184 1.409 . S
C2191 C2190 1.362 . S
H2192 C2198 0.930 . S
H2193 C2201 0.930 . S
H2194 C2202 0.930 . S
H2195 C2203 0.930 . S
H2196 C2206 0.930 . S
H2197 C2207 0.930 . S
C2198 H2192 0.930 . S
C2198 C2199 1.355 . S
C2198 C2200 1.415 . S
C2199 C2198 1.355 . S
C2199 C2201 1.419 . S
C2200 C2198 1.415 . S
C2200 C2205 1.425 . S
C2200 C2207 1.409 . S
C2201 H2193 0.930 . S
C2201 C2199 1.419 . S
C2201 C2202 1.362 . S
C2202 H2194 0.930 . S
C2202 C2201 1.362 . S
C2202 C2205 1.409 . S
C2203 H2195 0.930 . S
C2203 C2204 1.355 . S
C2203 C2205 1.415 . S
C2204 C2203 1.355 . S
C2204 C2206 1.419 . S
C2205 C2200 1.425 . S
C2205 C2202 1.409 . S
C2205 C2203 1.415 . S
C2206 H2196 0.930 . S
C2206 C2204 1.419 . S
C2206 C2207 1.362 . S
C2207 H2197 0.930 . S
C2207 C2200 1.409 . S
C2207 C2206 1.362 . S
H2208 C2214 0.930 . S
H2209 C2217 0.930 . S
H2210 C2218 0.930 . S
H2211 C2219 0.930 . S
H2212 C2222 0.930 . S
H2213 C2223 0.930 . S
C2214 H2208 0.930 . S
C2214 C2215 1.355 . S
C2214 C2216 1.415 . S
C2215 C2214 1.355 . S
C2215 C2217 1.419 . S
C2216 C2214 1.415 . S
C2216 C2221 1.425 . S
C2216 C2223 1.409 . S
C2217 H2209 0.930 . S
C2217 C2215 1.419 . S
C2217 C2218 1.362 . S
C2218 H2210 0.930 . S
C2218 C2217 1.362 . S
C2218 C2221 1.409 . S
C2219 H2211 0.930 . S
C2219 C2220 1.355 . S
C2219 C2221 1.415 . S
C2220 C2219 1.355 . S
C2220 C2222 1.419 . S
C2221 C2216 1.425 . S
C2221 C2218 1.409 . S
C2221 C2219 1.415 . S
C2222 H2212 0.930 . S
C2222 C2220 1.419 . S
C2222 C2223 1.362 . S
C2223 H2213 0.930 . S
C2223 C2216 1.409 . S
C2223 C2222 1.362 . S
H2224 C2230 0.930 . S
H2225 C2233 0.930 . S
H2226 C2234 0.930 1_655 S
H2227 C2235 0.930 . S
H2228 C2238 0.930 . S
H2229 C2239 0.930 . S
C2230 H2224 0.930 . S
C2230 C2231 1.355 . S
C2230 C2232 1.415 . S
C2231 C2230 1.355 . S
C2231 C2233 1.419 . S
C2232 C2230 1.415 . S
C2232 C2237 1.425 . S
C2232 C2239 1.409 . S
C2233 H2225 0.930 . S
C2233 C2231 1.419 . S
C2233 C2234 1.362 . S
C2234 H2226 0.930 1_455 S
C2234 C2233 1.362 . S
C2234 C2237 1.409 . S
C2235 H2227 0.930 . S
C2235 C2236 1.355 . S
C2235 C2237 1.415 . S
C2236 C2235 1.355 . S
C2236 C2238 1.419 . S
C2237 C2232 1.425 . S
C2237 C2234 1.409 . S
C2237 C2235 1.415 . S
C2238 H2228 0.930 . S
C2238 C2236 1.419 . S
C2238 C2239 1.362 . S
C2239 H2229 0.930 . S
C2239 C2232 1.409 . S
C2239 C2238 1.362 . S
H2240 C2246 0.930 . S
H2241 C2249 0.930 . S
H2242 C2250 0.930 . S
H2243 C2251 0.930 . S
H2244 C2254 0.930 . S
H2245 C2255 0.930 . S
C2246 H2240 0.930 . S
C2246 C2247 1.355 . S
C2246 C2248 1.415 . S
C2247 C2246 1.355 . S
C2247 C2249 1.419 . S
C2248 C2246 1.415 . S
C2248 C2253 1.425 . S
C2248 C2255 1.409 . S
C2249 H2241 0.930 . S
C2249 C2247 1.419 . S
C2249 C2250 1.362 . S
C2250 H2242 0.930 . S
C2250 C2249 1.362 . S
C2250 C2253 1.409 . S
C2251 H2243 0.930 . S
C2251 C2252 1.355 . S
C2251 C2253 1.415 . S
C2252 C2251 1.355 . S
C2252 C2254 1.419 . S
C2253 C2248 1.425 . S
C2253 C2250 1.409 . S
C2253 C2251 1.415 . S
C2254 H2244 0.930 . S
C2254 C2252 1.419 . S
C2254 C2255 1.362 . S
C2255 H2245 0.930 . S
C2255 C2248 1.409 . S
C2255 C2254 1.362 . S
H2256 C2262 0.930 . S
H2257 C2265 0.930 . S
H2258 C2266 0.930 . S
H2259 C2267 0.930 . S
H2260 C2270 0.930 . S
H2261 C2271 0.930 . S
C2262 H2256 0.930 . S
C2262 C2263 1.355 . S
C2262 C2264 1.415 . S
C2263 C2262 1.355 . S
C2263 C2265 1.419 . S
C2264 C2262 1.415 . S
C2264 C2269 1.425 . S
C2264 C2271 1.409 . S
C2265 H2257 0.930 . S
C2265 C2263 1.419 . S
C2265 C2266 1.362 . S
C2266 H2258 0.930 . S
C2266 C2265 1.362 . S
C2266 C2269 1.409 . S
C2267 H2259 0.930 . S
C2267 C2268 1.355 . S
C2267 C2269 1.415 . S
C2268 C2267 1.355 . S
C2268 C2270 1.419 . S
C2269 C2264 1.425 . S
C2269 C2266 1.409 . S
C2269 C2267 1.415 . S
C2270 H2260 0.930 . S
C2270 C2268 1.419 . S
C2270 C2271 1.362 . S
C2271 H2261 0.930 . S
C2271 C2264 1.409 . S
C2271 C2270 1.362 . S
H2272 C2278 0.930 . S
H2273 C2281 0.930 . S
H2274 C2282 0.930 . S
H2275 C2283 0.930 . S
H2276 C2286 0.930 . S
H2277 C2287 0.930 . S
C2278 H2272 0.930 . S
C2278 C2279 1.355 . S
C2278 C2280 1.415 . S
C2279 C2278 1.355 . S
C2279 C2281 1.419 . S
C2280 C2278 1.415 . S
C2280 C2285 1.425 . S
C2280 C2287 1.409 . S
C2281 H2273 0.930 . S
C2281 C2279 1.419 . S
C2281 C2282 1.362 . S
C2282 H2274 0.930 . S
C2282 C2281 1.362 . S
C2282 C2285 1.409 . S
C2283 H2275 0.930 . S
C2283 C2284 1.355 . S
C2283 C2285 1.415 . S
C2284 C2283 1.355 . S
C2284 C2286 1.419 . S
C2285 C2280 1.425 . S
C2285 C2282 1.409 . S
C2285 C2283 1.415 . S
C2286 H2276 0.930 . S
C2286 C2284 1.419 . S
C2286 C2287 1.362 . S
C2287 H2277 0.930 . S
C2287 C2280 1.409 . S
C2287 C2286 1.362 . S
H2288 C2294 0.930 . S
H2289 C2297 0.930 . S
H2290 C2298 0.930 . S
H2291 C2299 0.930 . S
H2292 C2302 0.930 . S
H2293 C2303 0.930 1_455 S
C2294 H2288 0.930 . S
C2294 C2295 1.355 . S
C2294 C2296 1.415 . S
C2295 C2294 1.355 . S
C2295 C2297 1.419 . S
C2296 C2294 1.415 . S
C2296 C2301 1.425 . S
C2296 C2303 1.409 . S
C2297 H2289 0.930 . S
C2297 C2295 1.419 . S
C2297 C2298 1.362 . S
C2298 H2290 0.930 . S
C2298 C2297 1.362 . S
C2298 C2301 1.409 . S
C2299 H2291 0.930 . S
C2299 C2300 1.355 1_655 S
C2299 C2301 1.415 . S
C2300 C2299 1.355 1_455 S
C2300 C2302 1.419 . S
C2301 C2296 1.425 . S
C2301 C2298 1.409 . S
C2301 C2299 1.415 . S
C2302 H2292 0.930 . S
C2302 C2300 1.419 . S
C2302 C2303 1.362 1_455 S
C2303 H2293 0.930 1_655 S
C2303 C2296 1.409 . S
C2303 C2302 1.362 1_655 S
H2304 C2310 0.930 . S
H2305 C2313 0.930 . S
H2306 C2314 0.930 . S
H2307 C2315 0.930 . S
H2308 C2318 0.930 . S
H2309 C2319 0.930 . S
C2310 H2304 0.930 . S
C2310 C2311 1.355 . S
C2310 C2312 1.415 . S
C2311 C2310 1.355 . S
C2311 C2313 1.419 . S
C2312 C2310 1.415 . S
C2312 C2317 1.425 . S
C2312 C2319 1.409 . S
C2313 H2305 0.930 . S
C2313 C2311 1.419 . S
C2313 C2314 1.362 . S
C2314 H2306 0.930 . S
C2314 C2313 1.362 . S
C2314 C2317 1.409 . S
C2315 H2307 0.930 . S
C2315 C2316 1.355 . S
C2315 C2317 1.415 . S
C2316 C2315 1.355 . S
C2316 C2318 1.419 . S
C2317 C2312 1.425 . S
C2317 C2314 1.409 . S
C2317 C2315 1.415 . S
C2318 H2308 0.930 . S
C2318 C2316 1.419 . S
C2318 C2319 1.362 . S
C2319 H2309 0.930 . S
C2319 C2312 1.409 . S
C2319 C2318 1.362 . S
H2320 C2326 0.930 . S
H2321 C2329 0.930 . S
H2322 C2330 0.930 . S
H2323 C2331 0.930 . S
H2324 C2334 0.930 . S
H2325 C2335 0.930 . S
C2326 H2320 0.930 . S
C2326 C2327 1.355 . S
C2326 C2328 1.415 . S
C2327 C2326 1.355 . S
C2327 C2329 1.419 . S
C2328 C2326 1.415 . S
C2328 C2333 1.425 . S
C2328 C2335 1.409 . S
C2329 H2321 0.930 . S
C2329 C2327 1.419 . S
C2329 C2330 1.362 . S
C2330 H2322 0.930 . S
C2330 C2329 1.362 . S
C2330 C2333 1.409 . S
C2331 H2323 0.930 . S
C2331 C2332 1.355 . S
C2331 C2333 1.415 . S
C2332 C2331 1.355 . S
C2332 C2334 1.419 . S
C2333 C2328 1.425 . S
C2333 C2330 1.409 . S
C2333 C2331 1.415 . S
C2334 H2324 0.930 . S
C2334 C2332 1.419 . S
C2334 C2335 1.362 . S
C2335 H2325 0.930 . S
C2335 C2328 1.409 . S
C2335 C2334 1.362 . S
H2336 C2342 0.930 . S
H2337 C2345 0.930 . S
H2338 C2346 0.930 . S
H2339 C2347 0.930 . S
H2340 C2350 0.930 . S
H2341 C2351 0.930 . S
C2342 H2336 0.930 . S
C2342 C2343 1.355 . S
C2342 C2344 1.415 . S
C2343 C2342 1.355 . S
C2343 C2345 1.419 . S
C2344 C2342 1.415 . S
C2344 C2349 1.425 . S
C2344 C2351 1.409 . S
C2345 H2337 0.930 . S
C2345 C2343 1.419 . S
C2345 C2346 1.362 . S
C2346 H2338 0.930 . S
C2346 C2345 1.362 . S
C2346 C2349 1.409 . S
C2347 H2339 0.930 . S
C2347 C2348 1.355 . S
C2347 C2349 1.415 . S
C2348 C2347 1.355 . S
C2348 C2350 1.419 . S
C2349 C2344 1.425 . S
C2349 C2346 1.409 . S
C2349 C2347 1.415 . S
C2350 H2340 0.930 . S
C2350 C2348 1.419 . S
C2350 C2351 1.362 . S
C2351 H2341 0.930 . S
C2351 C2344 1.409 . S
C2351 C2350 1.362 . S
H2352 C2358 0.930 . S
H2353 C2361 0.930 . S
H2354 C2362 0.930 . S
H2355 C2363 0.930 . S
H2356 C2366 0.930 . S
H2357 C2367 0.930 . S
C2358 H2352 0.930 . S
C2358 C2359 1.355 . S
C2358 C2360 1.415 . S
C2359 C2358 1.355 . S
C2359 C2361 1.419 . S
C2360 C2358 1.415 . S
C2360 C2365 1.425 . S
C2360 C2367 1.409 . S
C2361 H2353 0.930 . S
C2361 C2359 1.419 . S
C2361 C2362 1.362 . S
C2362 H2354 0.930 . S
C2362 C2361 1.362 . S
C2362 C2365 1.409 . S
C2363 H2355 0.930 . S
C2363 C2364 1.355 . S
C2363 C2365 1.415 . S
C2364 C2363 1.355 . S
C2364 C2366 1.419 . S
C2365 C2360 1.425 . S
C2365 C2362 1.409 . S
C2365 C2363 1.415 . S
C2366 H2356 0.930 . S
C2366 C2364 1.419 . S
C2366 C2367 1.362 . S
C2367 H2357 0.930 . S
C2367 C2360 1.409 . S
C2367 C2366 1.362 . S
H2368 C2374 0.930 . S
H2369 C2377 0.930 . S
H2370 C2378 0.930 . S
H2371 C2379 0.930 . S
H2372 C2382 0.930 . S
H2373 C2383 0.930 . S
C2374 H2368 0.930 . S
C2374 C2375 1.355 . S
C2374 C2376 1.415 . S
C2375 C2374 1.355 . S
C2375 C2377 1.419 . S
C2376 C2374 1.415 . S
C2376 C2381 1.425 . S
C2376 C2383 1.409 . S
C2377 H2369 0.930 . S
C2377 C2375 1.419 . S
C2377 C2378 1.362 . S
C2378 H2370 0.930 . S
C2378 C2377 1.362 . S
C2378 C2381 1.409 . S
C2379 H2371 0.930 . S
C2379 C2380 1.355 . S
C2379 C2381 1.415 . S
C2380 C2379 1.355 . S
C2380 C2382 1.419 . S
C2381 C2376 1.425 . S
C2381 C2378 1.409 . S
C2381 C2379 1.415 . S
C2382 H2372 0.930 . S
C2382 C2380 1.419 . S
C2382 C2383 1.362 . S
C2383 H2373 0.930 . S
C2383 C2376 1.409 . S
C2383 C2382 1.362 . S
H2384 C2390 0.930 . S
H2385 C2393 0.930 . S
H2386 C2394 0.930 . S
H2387 C2395 0.930 . S
H2388 C2398 0.930 . S
H2389 C2399 0.930 . S
C2390 H2384 0.930 . S
C2390 C2391 1.355 . S
C2390 C2392 1.415 . S
C2391 C2390 1.355 . S
C2391 C2393 1.419 . S
C2392 C2390 1.415 . S
C2392 C2397 1.425 . S
C2392 C2399 1.409 . S
C2393 H2385 0.930 . S
C2393 C2391 1.419 . S
C2393 C2394 1.362 . S
C2394 H2386 0.930 . S
C2394 C2393 1.362 . S
C2394 C2397 1.409 . S
C2395 H2387 0.930 . S
C2395 C2396 1.355 . S
C2395 C2397 1.415 . S
C2396 C2395 1.355 . S
C2396 C2398 1.419 . S
C2397 C2392 1.425 . S
C2397 C2394 1.409 . S
C2397 C2395 1.415 . S
C2398 H2388 0.930 . S
C2398 C2396 1.419 . S
C2398 C2399 1.362 . S
C2399 H2389 0.930 . S
C2399 C2392 1.409 . S
C2399 C2398 1.362 . S
H2400 C2406 0.930 . S
H2401 C2409 0.930 . S
H2402 C2410 0.930 . S
H2403 C2411 0.930 . S
H2404 C2414 0.930 . S
H2405 C2415 0.930 1_545 S
C2406 H2400 0.930 . S
C2406 C2407 1.355 . S
C2406 C2408 1.415 . S
C2407 C2406 1.355 . S
C2407 C2409 1.419 . S
C2408 C2406 1.415 . S
C2408 C2413 1.425 . S
C2408 C2415 1.409 . S
C2409 H2401 0.930 . S
C2409 C2407 1.419 . S
C2409 C2410 1.362 . S
C2410 H2402 0.930 . S
C2410 C2409 1.362 . S
C2410 C2413 1.409 . S
C2411 H2403 0.930 . S
C2411 C2412 1.355 1_565 S
C2411 C2413 1.415 . S
C2412 C2411 1.355 1_545 S
C2412 C2414 1.419 . S
C2413 C2408 1.425 . S
C2413 C2410 1.409 . S
C2413 C2411 1.415 . S
C2414 H2404 0.930 . S
C2414 C2412 1.419 . S
C2414 C2415 1.362 1_545 S
C2415 H2405 0.930 1_565 S
C2415 C2408 1.409 . S
C2415 C2414 1.362 1_565 S
H2416 C2422 0.930 . S
H2417 C2425 0.930 . S
H2418 C2426 0.930 . S
H2419 C2427 0.930 . S
H2420 C2430 0.930 . S
H2421 C2431 0.930 . S
C2422 H2416 0.930 . S
C2422 C2423 1.355 . S
C2422 C2424 1.415 . S
C2423 C2422 1.355 . S
C2423 C2425 1.419 . S
C2424 C2422 1.415 . S
C2424 C2429 1.425 . S
C2424 C2431 1.409 . S
C2425 H2417 0.930 . S
C2425 C2423 1.419 . S
C2425 C2426 1.362 . S
C2426 H2418 0.930 . S
C2426 C2425 1.362 . S
C2426 C2429 1.409 . S
C2427 H2419 0.930 . S
C2427 C2428 1.355 . S
C2427 C2429 1.415 . S
C2428 C2427 1.355 . S
C2428 C2430 1.419 . S
C2429 C2424 1.425 . S
C2429 C2426 1.409 . S
C2429 C2427 1.415 . S
C2430 H2420 0.930 . S
C2430 C2428 1.419 . S
C2430 C2431 1.362 . S
C2431 H2421 0.930 . S
C2431 C2424 1.409 . S
C2431 C2430 1.362 . S
H2432 C2438 0.930 . S
H2433 C2441 0.930 . S
H2434 C2442 0.930 . S
H2435 C2443 0.930 . S
H2436 C2446 0.930 . S
H2437 C2447 0.930 . S
C2438 H2432 0.930 . S
C2438 C2439 1.355 . S
C2438 C2440 1.415 . S
C2439 C2438 1.355 . S
C2439 C2441 1.419 . S
C2440 C2438 1.415 . S
C2440 C2445 1.425 . S
C2440 C2447 1.409 . S
C2441 H2433 0.930 . S
C2441 C2439 1.419 . S
C2441 C2442 1.362 . S
C2442 H2434 0.930 . S
C2442 C2441 1.362 . S
C2442 C2445 1.409 . S
C2443 H2435 0.930 . S
C2443 C2444 1.355 . S
C2443 C2445 1.415 . S
C2444 C2443 1.355 . S
C2444 C2446 1.419 . S
C2445 C2440 1.425 . S
C2445 C2442 1.409 . S
C2445 C2443 1.415 . S
C2446 H2436 0.930 . S
C2446 C2444 1.419 . S
C2446 C2447 1.362 . S
C2447 H2437 0.930 . S
C2447 C2440 1.409 . S
C2447 C2446 1.362 . S
H2448 C2454 0.930 . S
H2449 C2457 0.930 . S
H2450 C2458 0.930 . S
H2451 C2459 0.930 . S
H2452 C2462 0.930 . S
H2453 C2463 0.930 . S
C2454 H2448 0.930 . S
C2454 C2455 1.355 . S
C2454 C2456 1.415 . S
C2455 C2454 1.355 . S
C2455 C2457 1.419 . S
C2456 C2454 1.415 . S
C2456 C2461 1.425 . S
C2456 C2463 1.409 . S
C2457 H2449 0.930 . S
C2457 C2455 1.419 . S
C2457 C2458 1.362 . S
C2458 H2450 0.930 . S
C2458 C2457 1.362 . S
C2458 C2461 1.409 . S
C2459 H2451 0.930 . S
C2459 C2460 1.355 . S
C2459 C2461 1.415 . S
C2460 C2459 1.355 . S
C2460 C2462 1.419 . S
C2461 C2456 1.425 . S
C2461 C2458 1.409 . S
C2461 C2459 1.415 . S
C2462 H2452 0.930 . S
C2462 C2460 1.419 . S
C2462 C2463 1.362 . S
C2463 H2453 0.930 . S
C2463 C2456 1.409 . S
C2463 C2462 1.362 . S
H2464 C2470 0.930 . S
H2465 C2473 0.930 . S
H2466 C2474 0.930 . S
H2467 C2475 0.930 . S
H2468 C2478 0.930 . S
H2469 C2479 0.930 . S
C2470 H2464 0.930 . S
C2470 C2471 1.355 . S
C2470 C2472 1.415 . S
C2471 C2470 1.355 . S
C2471 C2473 1.419 . S
C2472 C2470 1.415 . S
C2472 C2477 1.425 . S
C2472 C2479 1.409 . S
C2473 H2465 0.930 . S
C2473 C2471 1.419 . S
C2473 C2474 1.362 1_554 S
C2474 H2466 0.930 . S
C2474 C2473 1.362 1_556 S
C2474 C2477 1.409 1_556 S
C2475 H2467 0.930 . S
C2475 C2476 1.355 1_556 S
C2475 C2477 1.415 1_556 S
C2476 C2475 1.355 1_554 S
C2476 C2478 1.419 . S
C2477 C2472 1.425 . S
C2477 C2474 1.409 1_554 S
C2477 C2475 1.415 1_554 S
C2478 H2468 0.930 . S
C2478 C2476 1.419 . S
C2478 C2479 1.362 . S
C2479 H2469 0.930 . S
C2479 C2472 1.409 . S
C2479 C2478 1.362 . S
H2480 C2486 0.930 . S
H2481 C2489 0.930 . S
H2482 C2490 0.930 . S
H2483 C2491 0.930 . S
H2484 C2494 0.930 . S
H2485 C2495 0.930 . S
C2486 H2480 0.930 . S
C2486 C2487 1.355 . S
C2486 C2488 1.415 . S
C2487 C2486 1.355 . S
C2487 C2489 1.419 . S
C2488 C2486 1.415 . S
C2488 C2493 1.425 . S
C2488 C2495 1.409 . S
C2489 H2481 0.930 . S
C2489 C2487 1.419 . S
C2489 C2490 1.362 . S
C2490 H2482 0.930 . S
C2490 C2489 1.362 . S
C2490 C2493 1.409 . S
C2491 H2483 0.930 . S
C2491 C2492 1.355 . S
C2491 C2493 1.415 . S
C2492 C2491 1.355 . S
C2492 C2494 1.419 . S
C2493 C2488 1.425 . S
C2493 C2490 1.409 . S
C2493 C2491 1.415 . S
C2494 H2484 0.930 . S
C2494 C2492 1.419 . S
C2494 C2495 1.362 . S
C2495 H2485 0.930 . S
C2495 C2488 1.409 . S
C2495 C2494 1.362 . S
H2496 C2502 0.930 . S
H2497 C2505 0.930 . S
H2498 C2506 0.930 . S
H2499 C2507 0.930 . S
H2500 C2510 0.930 . S
H2501 C2511 0.930 . S
C2502 H2496 0.930 . S
C2502 C2503 1.355 . S
C2502 C2504 1.415 . S
C2503 C2502 1.355 . S
C2503 C2505 1.419 . S
C2504 C2502 1.415 . S
C2504 C2509 1.425 . S
C2504 C2511 1.409 . S
C2505 H2497 0.930 . S
C2505 C2503 1.419 . S
C2505 C2506 1.362 . S
C2506 H2498 0.930 . S
C2506 C2505 1.362 . S
C2506 C2509 1.409 . S
C2507 H2499 0.930 . S
C2507 C2508 1.355 . S
C2507 C2509 1.415 . S
C2508 C2507 1.355 . S
C2508 C2510 1.419 . S
C2509 C2504 1.425 . S
C2509 C2506 1.409 . S
C2509 C2507 1.415 . S
C2510 H2500 0.930 . S
C2510 C2508 1.419 . S
C2510 C2511 1.362 . S
C2511 H2501 0.930 . S
C2511 C2504 1.409 . S
C2511 C2510 1.362 . S
C983 C109 2.248 1_454 S
C988 C349 2.210 . S
C999 C65 2.088 . S
C1004 C400 2.098 . S
C1015 C75 1.712 . S
C1020 C429 1.665 . S
C1036 C473 1.475 . S
C1031 C84 1.501 . S
C1047 C25 1.365 . S
C1052 C513 1.344 . S
C1068 C549 1.665 . S
C1063 C28 1.657 . S
C1084 C599 1.928 . S
C1079 C47 1.903 . S
C1095 C9 2.346 . S
C1100 C629 2.371 . S
C1116 C359 2.048 . S
C1111 C233 2.062 . S
C1127 C249 0.723 . S
C1132 C402 0.735 . S
C1148 C439 1.329 . S
C1143 C275 1.309 . S
C1164 C469 1.465 . S
C1159 C173 1.454 . S
C1175 C224 1.570 . S
C1180 C509 1.537 . S
C1196 C559 0.930 . S
C1191 C243 0.940 . S
C1212 C593 0.945 . S
C1207 C266 0.945 . S
C1228 C639 1.905 . S
C1223 C179 1.913 . S
C1244 C353 1.363 . S
C1239 C163 1.398 1_554 S
C1255 C289 1.701 . S
C1260 C679 1.722 . S
C1276 C713 1.436 . S
C1271 C333 1.460 . S
C1292 C749 0.801 . S
C1287 C308 0.817 . S
C1303 C123 1.532 . S
C1308 C633 1.491 . S
C1319 C126 1.573 . S
C1324 C433 1.556 . S
C1335 C327 1.643 . S
C1340 C799 1.685 . S
C1356 C818 0.329 . S
C1351 C299 0.369 . S
C1372 C360 2.265 . S
C1367 C67 2.277 . S
C1388 C829 2.123 . S
C1383 C98 2.093 . S
C1399 C89 1.715 . S
C1404 C440 1.731 . S
C1415 C79 1.551 . S
C1420 C802 1.476 . S
C1436 C522 1.382 . S
C1431 C11 1.397 . S
C1447 C51 1.706 . S
C1452 C720 1.666 . S
C1468 C578 1.979 1_566 S
C1463 C33 1.955 . S
C1484 C880 2.368 . S
C1479 C14 2.412 . S
C1500 C338 2.017 . S
C1495 C140 2.077 . S
C1516 C833 0.784 . S
C1511 C319 0.748 . S
C1527 C112 1.331 . S
C1532 C418 1.306 . S
C1543 C285 1.500 . S
C1548 C800 1.461 . S
C1559 C149 1.585 . S
C1564 C520 1.606 . S
C1580 C698 1.005 . S
C1575 C313 0.962 . S
C1591 C121 0.945 1_565 S
C1596 C602 0.953 . S
C1607 C291 1.955 . S
C1612 C858 1.921 . S
C1623 C182 1.383 . S
C1628 C362 1.326 . S
C1639 C168 1.675 . S
C1644 C658 1.733 . S
C1655 C263 1.459 . S
C1660 C562 1.401 . S
C1671 C247 0.887 . S
C1676 C760 0.919 . S
C1692 C882 1.460 . S
C1687 C277 1.522 . S
C1703 C219 1.647 . S
C1708 C442 1.580 . S
C1724 C458 1.709 . S
C1719 C257 1.720 . S
C1740 C399 0.378 . S
C1735 C201 0.378 . S
C1751 C81 2.260 . S
C1756 C909 2.231 . S
C1772 C840 2.082 . S
C1767 C93 2.082 . S
C1783 C103 1.710 1_554 S
C1788 C949 1.666 . S
C1799 C56 1.498 . S
C1804 C793 1.484 . S
C1815 C53 1.406 . S
C1820 C673 1.383 . S
C1836 C709 1.651 . S
C1831 C0 1.671 . S
C1852 C759 1.935 . S
C1847 C19 1.910 . S
C1868 C869 2.384 . S
C1863 C37 2.358 . S
C1884 C919 2.027 . S
C1879 C261 2.047 . S
C1895 C193 0.748 . S
C1900 C842 0.766 . S
C1916 C959 1.329 . S
C1911 C205 1.310 . S
C1932 C789 1.429 . S
C1927 C215 1.474 . S
C1948 C669 1.534 . S
C1943 C252 1.547 . S
C1959 C187 0.958 . S
C1964 C719 0.976 . S
C1980 C753 0.860 . S
C1975 C196 0.900 . S
C1991 C221 1.931 . S
C1996 C879 1.916 . S
C2012 C913 1.275 . S
C2007 C317 1.354 . S
C2023 C135 1.723 . S
C2028 C519 1.708 . S
C2044 C553 1.393 . S
C2039 C151 1.448 1_565 S
C2060 C589 0.884 . S
C2055 C154 0.860 . S
C2076 C873 1.409 . S
C2071 C305 1.474 . S
C2087 C280 1.606 . S
C2092 C953 1.573 . S
C2108 C479 1.689 . S
C2103 C145 1.643 . S
C2124 C378 0.451 . S
C2119 C117 0.369 . S
C2135 C95 2.267 . S
C2140 C920 2.260 . S
C2156 C389 2.108 . S
C2151 C70 2.075 . S
C2167 C61 1.728 . S
C2172 C960 1.727 . S
C2183 C107 1.554 . S
C2188 C482 1.486 . S
C2199 C39 1.360 . S
C2204 C682 1.316 . S
C2220 C560 1.678 . S
C2215 C23 1.696 . S
C2231 C5 1.926 . S
C2236 C738 1.987 . S
C2247 C42 2.394 . S
C2252 C640 2.355 . S
C2268 C898 2.042 . S
C2263 C322 2.075 . S
C2279 C165 0.667 . S
C2284 C393 0.674 . S
C2300 C938 1.333 . S
C2295 C294 1.337 . S
C2311 C131 1.501 . S
C2316 C480 1.462 . S
C2327 C331 1.586 . S
C2332 C680 1.605 . S
C2348 C538 0.992 . S
C2343 C159 0.967 . S
C2359 C303 0.945 . S
C2364 C762 0.944 . S
C2380 C618 1.936 . S
C2375 C137 1.967 . S
C2396 C922 1.332 . S
C2391 C238 1.384 . S
C2412 C498 1.728 . S
C2407 C210 1.704 . S
C2423 C235 1.516 . S
C2428 C722 1.470 . S
C2444 C600 0.830 . S
C2439 C191 0.853 . S
C2455 C207 1.548 . S
C2460 C642 1.493 . S
C2471 C177 1.619 . S
C2476 C962 1.513 . S
C2492 C778 1.716 . S
C2487 C229 1.714 . S
C2508 C839 0.385 . S
C2503 C271 0.378 . S
