# Generated by pormake.
# Topology ocu, (6,8)-cn, num edge types: 1
# Building blocks:
#     Node 0, Type 0, BuildingBlock: KUMBOL_clean_sbu_1, # of connection points: 6
#     Node 1, Type 0, BuildingBlock: KUMBOL_clean_sbu_1, # of connection points: 6
#     Node 2, Type 0, BuildingBlock: KUMBOL_clean_sbu_1, # of connection points: 6
#     Node 3, Type 0, BuildingBlock: KUMBOL_clean_sbu_1, # of connection points: 6
#     Node 4, Type 0, BuildingBlock: KUMBOL_clean_sbu_1, # of connection points: 6
#     Node 5, Type 0, BuildingBlock: KUMBOL_clean_sbu_1, # of connection points: 6
#     Node 6, Type 0, BuildingBlock: KUMBOL_clean_sbu_1, # of connection points: 6
#     Node 7, Type 0, BuildingBlock: KUMBOL_clean_sbu_1, # of connection points: 6
#     Node 8, Type 1, BuildingBlock: VETTIZ_charged_sbu_0, # of connection points: 8
#     Node 9, Type 1, BuildingBlock: VETTIZ_charged_sbu_0, # of connection points: 8
#     Node 10, Type 1, BuildingBlock: VETTIZ_charged_sbu_0, # of connection points: 8
#     Node 11, Type 1, BuildingBlock: VETTIZ_charged_sbu_0, # of connection points: 8
#     Node 12, Type 1, BuildingBlock: VETTIZ_charged_sbu_0, # of connection points: 8
#     Node 13, Type 1, BuildingBlock: VETTIZ_charged_sbu_0, # of connection points: 8
#     Edge 14, Type (0, 1), BuildingBlock: CIFDUS_clean_linker_0, # of connection points: 2
#     Edge 15, Type (0, 1), BuildingBlock: CIFDUS_clean_linker_0, # of connection points: 2
#     Edge 16, Type (0, 1), BuildingBlock: CIFDUS_clean_linker_0, # of connection points: 2
#     Edge 17, Type (0, 1), BuildingBlock: CIFDUS_clean_linker_0, # of connection points: 2
#     Edge 18, Type (0, 1), BuildingBlock: CIFDUS_clean_linker_0, # of connection points: 2
#     Edge 19, Type (0, 1), BuildingBlock: CIFDUS_clean_linker_0, # of connection points: 2
#     Edge 20, Type (0, 1), BuildingBlock: CIFDUS_clean_linker_0, # of connection points: 2
#     Edge 21, Type (0, 1), BuildingBlock: CIFDUS_clean_linker_0, # of connection points: 2
#     Edge 22, Type (0, 1), BuildingBlock: CIFDUS_clean_linker_0, # of connection points: 2
#     Edge 23, Type (0, 1), BuildingBlock: CIFDUS_clean_linker_0, # of connection points: 2
#     Edge 24, Type (0, 1), BuildingBlock: CIFDUS_clean_linker_0, # of connection points: 2
#     Edge 25, Type (0, 1), BuildingBlock: CIFDUS_clean_linker_0, # of connection points: 2
#     Edge 26, Type (0, 1), BuildingBlock: CIFDUS_clean_linker_0, # of connection points: 2
#     Edge 27, Type (0, 1), BuildingBlock: CIFDUS_clean_linker_0, # of connection points: 2
#     Edge 28, Type (0, 1), BuildingBlock: CIFDUS_clean_linker_0, # of connection points: 2
#     Edge 29, Type (0, 1), BuildingBlock: CIFDUS_clean_linker_0, # of connection points: 2
#     Edge 30, Type (0, 1), BuildingBlock: CIFDUS_clean_linker_0, # of connection points: 2
#     Edge 31, Type (0, 1), BuildingBlock: CIFDUS_clean_linker_0, # of connection points: 2
#     Edge 32, Type (0, 1), BuildingBlock: CIFDUS_clean_linker_0, # of connection points: 2
#     Edge 33, Type (0, 1), BuildingBlock: CIFDUS_clean_linker_0, # of connection points: 2
#     Edge 34, Type (0, 1), BuildingBlock: CIFDUS_clean_linker_0, # of connection points: 2
#     Edge 35, Type (0, 1), BuildingBlock: CIFDUS_clean_linker_0, # of connection points: 2
#     Edge 36, Type (0, 1), BuildingBlock: CIFDUS_clean_linker_0, # of connection points: 2
#     Edge 37, Type (0, 1), BuildingBlock: CIFDUS_clean_linker_0, # of connection points: 2
#     Edge 38, Type (0, 1), BuildingBlock: CIFDUS_clean_linker_0, # of connection points: 2
#     Edge 39, Type (0, 1), BuildingBlock: CIFDUS_clean_linker_0, # of connection points: 2
#     Edge 40, Type (0, 1), BuildingBlock: CIFDUS_clean_linker_0, # of connection points: 2
#     Edge 41, Type (0, 1), BuildingBlock: CIFDUS_clean_linker_0, # of connection points: 2
#     Edge 42, Type (0, 1), BuildingBlock: CIFDUS_clean_linker_0, # of connection points: 2
#     Edge 43, Type (0, 1), BuildingBlock: CIFDUS_clean_linker_0, # of connection points: 2
#     Edge 44, Type (0, 1), BuildingBlock: CIFDUS_clean_linker_0, # of connection points: 2
#     Edge 45, Type (0, 1), BuildingBlock: CIFDUS_clean_linker_0, # of connection points: 2
#     Edge 46, Type (0, 1), BuildingBlock: CIFDUS_clean_linker_0, # of connection points: 2
#     Edge 47, Type (0, 1), BuildingBlock: CIFDUS_clean_linker_0, # of connection points: 2
#     Edge 48, Type (0, 1), BuildingBlock: CIFDUS_clean_linker_0, # of connection points: 2
#     Edge 49, Type (0, 1), BuildingBlock: CIFDUS_clean_linker_0, # of connection points: 2
#     Edge 50, Type (0, 1), BuildingBlock: CIFDUS_clean_linker_0, # of connection points: 2
#     Edge 51, Type (0, 1), BuildingBlock: CIFDUS_clean_linker_0, # of connection points: 2
#     Edge 52, Type (0, 1), BuildingBlock: CIFDUS_clean_linker_0, # of connection points: 2
#     Edge 53, Type (0, 1), BuildingBlock: CIFDUS_clean_linker_0, # of connection points: 2
#     Edge 54, Type (0, 1), BuildingBlock: CIFDUS_clean_linker_0, # of connection points: 2
#     Edge 55, Type (0, 1), BuildingBlock: CIFDUS_clean_linker_0, # of connection points: 2
#     Edge 56, Type (0, 1), BuildingBlock: CIFDUS_clean_linker_0, # of connection points: 2
#     Edge 57, Type (0, 1), BuildingBlock: CIFDUS_clean_linker_0, # of connection points: 2
#     Edge 58, Type (0, 1), BuildingBlock: CIFDUS_clean_linker_0, # of connection points: 2
#     Edge 59, Type (0, 1), BuildingBlock: CIFDUS_clean_linker_0, # of connection points: 2
#     Edge 60, Type (0, 1), BuildingBlock: CIFDUS_clean_linker_0, # of connection points: 2
#     Edge 61, Type (0, 1), BuildingBlock: CIFDUS_clean_linker_0, # of connection points: 2
# Relax obj value: 0.082
# Max RMSD: 0.136
# Mean RMSD: 0.104
data_MOF--net-ocu--node1-KUMBOL_clean_sbu_1--node2-VETTIZ_charged_sbu_0--edge1-CIFDUS_clean_linker_0
_symmetry_space_group_name_H-M    P1
_symmetry_Int_Tables_number       1
_symmetry_cell_setting            triclinic
loop_
_symmetry_equiv_pos_as_xyz
'x, y, z'
_cell_length_a     35.038265
_cell_length_b     35.680394
_cell_length_c     37.025235
_cell_angle_alpha  101.69604
_cell_angle_beta   79.220402
_cell_angle_gamma 105.84821
loop_
_atom_site_label
_atom_site_type_symbol
_atom_site_fract_x
_atom_site_fract_y
_atom_site_fract_z
_atom_type_partial_charge
C0 C 0.36045 0.36656 0.36071 0.0
C1 C 0.32136 0.36323 0.42197 0.0
C2 C 0.32987 0.34636 0.38442 0.0
C3 C 0.34208 0.40196 0.43457 0.0
C4 C 0.38259 0.40478 0.37373 0.0
C5 C 0.37245 0.4228 0.41042 0.0
N6 N 0.37049 0.34768 0.32589 0.0
C7 C 0.40438 0.36401 0.30394 0.0
C8 C 0.41533 0.42304 0.34999 0.0
C9 C 0.42667 0.40227 0.31518 0.0
Gd10 Gd 0.24925 0.26311 0.23738 0.0
Gd11 Gd 0.32922 0.28465 0.30901 0.0
N12 N 0.3098 0.30927 0.3712 0.0
C13 C 0.29319 0.34014 0.44593 0.0
C14 C 0.28386 0.28594 0.39466 0.0
C15 C 0.27487 0.30106 0.43233 0.0
H16 H 0.27036 0.25567 0.38426 0.0
H17 H 0.25382 0.28265 0.45079 0.0
H18 H 0.32566 0.29231 0.17131 0.0
H19 H 0.4148 0.34729 0.27808 0.0
H20 H 0.35586 0.26344 0.10982 0.0
H21 H 0.28604 0.35189 0.47505 0.0
H22 H 0.33555 0.41569 0.46317 0.0
H23 H 0.17014 0.19147 0.26656 0.0
H24 H 0.43304 0.45243 0.35889 0.0
H25 H 0.45302 0.41541 0.29729 0.0
H26 H 0.27461 0.13105 0.08884 0.0
H27 H 0.38889 0.45229 0.4208 0.0
H28 H 0.16549 0.08933 0.18257 0.0
H29 H 0.13848 0.12234 0.24353 0.0
N30 N 0.2165 0.19703 0.22023 0.0
C31 C 0.23123 0.17989 0.186 0.0
C32 C 0.18327 0.17712 0.24058 0.0
C33 C 0.18002 0.11959 0.19278 0.0
C34 C 0.16478 0.13805 0.22731 0.0
C35 C 0.21345 0.1405 0.17157 0.0
H36 H 0.21605 0.09299 0.12502 0.0
N37 N 0.28173 0.2395 0.17981 0.0
C38 C 0.26438 0.20169 0.16518 0.0
C39 C 0.31385 0.20667 0.11017 0.0
C40 C 0.28037 0.1842 0.13001 0.0
C41 C 0.31346 0.26196 0.16016 0.0
C42 C 0.33032 0.24574 0.12523 0.0
O43 O 0.27807 0.31715 0.32987 0.0
O44 O 0.23044 0.304 0.28935 0.0
O45 O 0.24108 0.29934 0.19987 0.0
O46 O 0.19098 0.25472 0.22114 0.0
O47 O 0.27682 0.23046 0.30692 0.0
O48 O 0.22198 0.24438 0.29236 0.0
O49 O 0.29279 0.22323 0.2326 0.0
O50 O 0.35242 0.26249 0.24921 0.0
O51 O 0.33475 0.2306 0.32407 0.0
O52 O 0.38233 0.28359 0.33063 0.0
O53 O 0.29252 0.32217 0.24797 0.0
O54 O 0.35166 0.31251 0.25634 0.0
C55 C 0.24522 0.32252 0.32038 0.0
C56 C 0.23839 0.2293 0.31325 0.0
C57 C 0.17652 0.31227 0.21064 0.0
C58 C 0.14858 0.35848 0.18898 0.0
C59 C 0.12429 0.33978 0.25062 0.0
C60 C 0.15089 0.31567 0.24451 0.0
C61 C 0.12267 0.36056 0.22306 0.0
C62 C 0.17584 0.33429 0.18335 0.0
C63 C 0.20246 0.2843 0.20271 0.0
C64 C 0.26269 0.14493 0.11582 0.0
C65 C 0.22935 0.12321 0.13647 0.0
H66 H 0.32704 0.19422 0.08309 0.0
C67 C 0.33239 0.23104 0.22922 0.0
C68 C 0.33156 0.33032 0.24154 0.0
C69 C 0.40062 0.22277 0.31792 0.0
C70 C 0.43561 0.1742 0.32479 0.0
C71 C 0.45328 0.20648 0.26966 0.0
C72 C 0.4242 0.22766 0.2834 0.0
C73 C 0.45921 0.18026 0.29017 0.0
C74 C 0.40623 0.19593 0.33852 0.0
C75 C 0.37068 0.24612 0.33285 0.0
H76 H 0.10421 0.34175 0.27661 0.0
H77 H 0.15096 0.29926 0.26611 0.0
H78 H 0.10029 0.37746 0.22838 0.0
H79 H 0.19642 0.33212 0.1577 0.0
H80 H 0.47162 0.21067 0.24311 0.0
H81 H 0.42042 0.24823 0.26729 0.0
H82 H 0.48285 0.16518 0.279 0.0
H83 H 0.38756 0.19188 0.36497 0.0
C84 C 0.88169 0.21988 0.1865 0.0
C85 C 0.94115 0.27419 0.18537 0.0
C86 C 0.90418 0.255 0.2039 0.0
C87 C 0.95495 0.25775 0.14912 0.0
C88 C 0.89571 0.20302 0.15028 0.0
C89 C 0.93233 0.22224 0.13165 0.0
N90 N 0.84613 0.2022 0.20499 0.0
C91 C 0.82373 0.16703 0.18943 0.0
C92 C 0.87248 0.16729 0.13387 0.0
C93 C 0.83646 0.1491 0.15365 0.0
Gd94 Gd 0.74841 0.304 0.28616 0.0
Gd95 Gd 0.8262 0.23554 0.26393 0.0
N96 N 0.88951 0.27074 0.23866 0.0
C97 C 0.96311 0.30939 0.20383 0.0
C98 C 0.91167 0.30413 0.25734 0.0
C99 C 0.94847 0.32419 0.2401 0.0
H100 H 0.90137 0.31549 0.28552 0.0
H101 H 0.9656 0.35101 0.25486 0.0
H102 H 0.67494 0.22636 0.25558 0.0
H103 H 0.79651 0.15234 0.20501 0.0
H104 H 0.61144 0.18512 0.28142 0.0
H105 H 0.99158 0.32508 0.19052 0.0
H106 H 0.98318 0.27219 0.13441 0.0
H107 H 0.7756 0.37894 0.35451 0.0
H108 H 0.88226 0.15336 0.10612 0.0
H109 H 0.81857 0.12119 0.14143 0.0
H110 H 0.59003 0.24658 0.40875 0.0
H111 H 0.94348 0.20982 0.10375 0.0
H112 H 0.68722 0.36331 0.45059 0.0
H113 H 0.75108 0.40111 0.42015 0.0
N114 N 0.72685 0.32843 0.34815 0.0
C115 C 0.69122 0.30774 0.36403 0.0
C116 C 0.74813 0.36178 0.36768 0.0
C117 C 0.69797 0.3533 0.42181 0.0
C118 C 0.73409 0.37465 0.40477 0.0
C119 C 0.67598 0.31945 0.40145 0.0
H120 H 0.62742 0.30552 0.44612 0.0
N121 N 0.68611 0.26333 0.30707 0.0
C122 C 0.67021 0.27432 0.34291 0.0
C123 C 0.61246 0.21912 0.33651 0.0
C124 C 0.63327 0.25209 0.35874 0.0
C125 C 0.66465 0.23273 0.28473 0.0
C126 C 0.62796 0.20977 0.2992 0.0
O127 O 0.83125 0.2759 0.22199 0.0
O128 O 0.80931 0.32939 0.25648 0.0
O129 O 0.71219 0.31366 0.24893 0.0
O130 O 0.73337 0.36037 0.293 0.0
O131 O 0.83265 0.28456 0.31439 0.0
O132 O 0.80887 0.33589 0.30482 0.0
O133 O 0.75094 0.26782 0.32891 0.0
O134 O 0.76323 0.21316 0.29035 0.0
O135 O 0.85202 0.22774 0.31013 0.0
O136 O 0.84278 0.18093 0.26306 0.0
O137 O 0.74605 0.25856 0.23219 0.0
O138 O 0.76595 0.20642 0.24446 0.0
C139 C 0.83099 0.31339 0.22771 0.0
C140 C 0.83083 0.32192 0.32176 0.0
C141 C 0.72744 0.37852 0.23689 0.0
C142 C 0.71008 0.40857 0.19059 0.0
C143 C 0.7788 0.42531 0.20396 0.0
C144 C 0.76745 0.39978 0.23011 0.0
C145 C 0.7504 0.42981 0.18437 0.0
C146 C 0.69884 0.38296 0.21713 0.0
C147 C 0.71545 0.3506 0.26351 0.0
C148 C 0.61821 0.26347 0.39609 0.0
C149 C 0.6395 0.29706 0.41738 0.0
H150 H 0.58403 0.20125 0.34763 0.0
C151 C 0.74749 0.22978 0.3223 0.0
C152 C 0.74671 0.22085 0.22525 0.0
C153 C 0.83094 0.16257 0.32278 0.0
C154 C 0.83137 0.13241 0.37651 0.0
C155 C 0.77119 0.11653 0.34696 0.0
C156 C 0.79091 0.14157 0.32118 0.0
C157 C 0.79115 0.11198 0.37449 0.0
C158 C 0.85105 0.15774 0.35032 0.0
C159 C 0.85129 0.19082 0.29697 0.0
H160 H 0.80969 0.44174 0.19892 0.0
H161 H 0.78984 0.39666 0.24507 0.0
H162 H 0.75995 0.45037 0.16468 0.0
H163 H 0.66808 0.36603 0.22203 0.0
H164 H 0.7402 0.10075 0.34573 0.0
H165 H 0.77481 0.14466 0.30013 0.0
H166 H 0.77488 0.09288 0.3945 0.0
H167 H 0.88211 0.17362 0.3511 0.0
C168 C 0.89175 0.85319 0.19643 0.0
C169 C 0.88255 0.82544 0.13216 0.0
C170 C 0.86733 0.83067 0.17041 0.0
C171 C 0.92309 0.84213 0.12056 0.0
C172 C 0.93223 0.87093 0.18471 0.0
C173 C 0.94789 0.86475 0.14677 0.0
N174 N 0.8755 0.85914 0.23288 0.0
C175 C 0.8975 0.88484 0.25843 0.0
C176 C 0.95551 0.89523 0.21133 0.0
C177 C 0.93791 0.9026 0.24826 0.0
Gd178 Gd 0.77495 0.73692 0.30648 0.0
Gd179 Gd 0.80716 0.82742 0.24637 0.0
N180 N 0.82846 0.81406 0.18252 0.0
C181 C 0.85642 0.80369 0.10676 0.0
C182 C 0.80234 0.79508 0.15786 0.0
C183 C 0.81601 0.78884 0.11967 0.0
H184 H 0.77084 0.78548 0.16768 0.0
H185 H 0.7953 0.77305 0.1002 0.0
H186 H 0.80541 0.79724 0.38359 0.0
H187 H 0.88394 0.89288 0.28646 0.0
H188 H 0.77655 0.81665 0.44846 0.0
H189 H 0.86694 0.79892 0.07716 0.0
H190 H 0.93543 0.83814 0.09134 0.0
H191 H 0.69878 0.67436 0.2636 0.0
H192 H 0.98671 0.90941 0.20346 0.0
H193 H 0.95525 0.92256 0.2688 0.0
H194 H 0.63932 0.74305 0.45524 0.0
H195 H 0.97896 0.87799 0.13733 0.0
H196 H 0.59388 0.66102 0.34466 0.0
H197 H 0.62701 0.64525 0.28037 0.0
N198 N 0.70599 0.70885 0.31718 0.0
C199 C 0.68862 0.71724 0.35306 0.0
C200 C 0.68456 0.68292 0.29136 0.0
C201 C 0.62536 0.67457 0.33733 0.0
C202 C 0.6439 0.66573 0.30094 0.0
C203 C 0.6477 0.70042 0.36395 0.0
H204 H 0.59892 0.69708 0.40974 0.0
N205 N 0.75085 0.76023 0.36777 0.0
C206 C 0.71167 0.74323 0.37906 0.0
C207 C 0.71765 0.77983 0.44116 0.0
C208 C 0.69402 0.75289 0.41612 0.0
C209 C 0.7742 0.78566 0.39224 0.0
C210 C 0.75792 0.79621 0.42917 0.0
O211 O 0.83803 0.77709 0.21972 0.0
O212 O 0.82313 0.7274 0.25639 0.0
O213 O 0.80397 0.71395 0.34139 0.0
O214 O 0.76105 0.67355 0.30604 0.0
O215 O 0.7502 0.77876 0.24204 0.0
O216 O 0.76181 0.72045 0.24826 0.0
O217 O 0.73651 0.78358 0.31958 0.0
O218 O 0.78231 0.84036 0.30707 0.0
O219 O 0.75931 0.84685 0.22931 0.0
O220 O 0.8163 0.88821 0.24061 0.0
O221 O 0.83605 0.77808 0.30899 0.0
O222 O 0.83047 0.83891 0.30203 0.0
C223 C 0.84289 0.74383 0.22696 0.0
C224 C 0.74946 0.74142 0.22992 0.0
C225 C 0.79163 0.64367 0.34291 0.0
C226 C 0.83571 0.61099 0.36212 0.0
C227 C 0.766 0.57712 0.35701 0.0
C228 C 0.76007 0.60991 0.3458 0.0
C229 C 0.80347 0.57756 0.36513 0.0
C230 C 0.82936 0.64412 0.35108 0.0
C231 C 0.78568 0.67759 0.32969 0.0
C232 C 0.65334 0.73594 0.42689 0.0
C233 C 0.63029 0.7098 0.40093 0.0
H234 H 0.70514 0.78808 0.46981 0.0
C235 C 0.74701 0.82262 0.32289 0.0
C236 C 0.8458 0.81661 0.31685 0.0
C237 C 0.76887 0.91658 0.22227 0.0
C238 C 0.72526 0.94459 0.19644 0.0
C239 C 0.78182 0.98767 0.2253 0.0
C240 C 0.79182 0.95508 0.23271 0.0
C241 C 0.74876 0.98253 0.20742 0.0
C242 C 0.73542 0.91136 0.20375 0.0
C243 C 0.78143 0.88291 0.23033 0.0
H244 H 0.74141 0.55129 0.35956 0.0
H245 H 0.73079 0.60895 0.33953 0.0
H246 H 0.8069 0.55198 0.37452 0.0
H247 H 0.85391 0.66996 0.34806 0.0
H248 H 0.79989 1.01708 0.23333 0.0
H249 H 0.81775 0.96016 0.24668 0.0
H250 H 0.74179 1.00831 0.20161 0.0
H251 H 0.71768 0.88195 0.19497 0.0
C252 C 0.33652 0.68581 0.3358 0.0
C253 C 0.29984 0.61738 0.32199 0.0
C254 C 0.31505 0.65539 0.31217 0.0
C255 C 0.3061 0.61053 0.35621 0.0
C256 C 0.34359 0.6788 0.36983 0.0
C257 C 0.32788 0.64117 0.38008 0.0
N258 N 0.35104 0.72201 0.32522 0.0
C259 C 0.37568 0.75138 0.34595 0.0
C260 C 0.36673 0.7097 0.39231 0.0
C261 C 0.38331 0.74598 0.38004 0.0
Gd262 Gd 0.24904 0.78231 0.27931 0.0
Gd263 Gd 0.33467 0.7283 0.26825 0.0
N264 N 0.30795 0.66338 0.28002 0.0
C265 C 0.27822 0.58758 0.29737 0.0
C266 C 0.28795 0.63422 0.25537 0.0
C267 C 0.2725 0.596 0.2638 0.0
H268 H 0.28384 0.64033 0.22919 0.0
H269 H 0.2562 0.57306 0.24441 0.0
H270 H 0.23816 0.84115 0.3621 0.0
H271 H 0.39053 0.77862 0.33584 0.0
H272 H 0.24907 0.91278 0.38582 0.0
H273 H 0.26592 0.55802 0.30395 0.0
H274 H 0.29427 0.58163 0.36443 0.0
H275 H 0.2278 0.77032 0.19249 0.0
H276 H 0.37285 0.70553 0.41866 0.0
H277 H 0.40246 0.76964 0.39657 0.0
H278 H 0.27775 0.97213 0.27528 0.0
H279 H 0.33274 0.63535 0.40625 0.0
H280 H 0.25544 0.8848 0.16041 0.0
H281 H 0.23226 0.81213 0.14506 0.0
N282 N 0.25035 0.81898 0.2329 0.0
C283 C 0.25904 0.85876 0.24313 0.0
C284 C 0.23786 0.80209 0.19914 0.0
C285 C 0.25367 0.86662 0.18111 0.0
C286 C 0.24042 0.82561 0.17237 0.0
C287 C 0.26191 0.88377 0.21723 0.0
H288 H 0.27352 0.9446 0.20918 0.0
N289 N 0.25265 0.84872 0.30523 0.0
C290 C 0.2606 0.87416 0.28049 0.0
C291 C 0.26327 0.92915 0.33105 0.0
C292 C 0.26625 0.91513 0.29271 0.0
C293 C 0.24672 0.86188 0.34264 0.0
C294 C 0.25273 0.90233 0.35613 0.0
O295 O 0.27356 0.70652 0.30313 0.0
O296 O 0.25534 0.76314 0.33155 0.0
O297 O 0.19049 0.79418 0.28818 0.0
O298 O 0.19585 0.73388 0.28018 0.0
O299 O 0.30057 0.71168 0.21826 0.0
O300 O 0.24107 0.71925 0.25079 0.0
O301 O 0.29446 0.78614 0.2268 0.0
O302 O 0.3522 0.78721 0.24686 0.0
O303 O 0.3631 0.69596 0.21987 0.0
O304 O 0.39823 0.73043 0.26286 0.0
O305 O 0.29019 0.8062 0.3249 0.0
O306 O 0.35002 0.79235 0.2956 0.0
C307 C 0.25551 0.72653 0.33207 0.0
C308 C 0.26168 0.70628 0.21999 0.0
C309 C 0.13391 0.74721 0.30975 0.0
C310 C 0.07642 0.7722 0.33782 0.0
C311 C 0.09334 0.72316 0.36473 0.0
C312 C 0.12723 0.72383 0.33768 0.0
C313 C 0.06862 0.74843 0.36565 0.0
C314 C 0.10565 0.76707 0.30754 0.0
C315 C 0.17177 0.75696 0.28542 0.0
C316 C 0.27276 0.94051 0.26648 0.0
C317 C 0.27045 0.92484 0.22881 0.0
H318 H 0.26747 0.96043 0.34157 0.0
C319 C 0.33362 0.79664 0.22369 0.0
C320 C 0.32959 0.81274 0.32202 0.0
C321 C 0.42338 0.73962 0.20033 0.0
C322 C 0.4329 0.75524 0.13728 0.0
C323 C 0.46975 0.80042 0.18471 0.0
C324 C 0.45109 0.77525 0.21077 0.0
C325 C 0.4607 0.7906 0.14817 0.0
C326 C 0.41491 0.72999 0.16366 0.0
C327 C 0.39879 0.7147 0.22785 0.0
H328 H 0.08828 0.70578 0.38675 0.0
H329 H 0.14862 0.70757 0.33941 0.0
H330 H 0.04613 0.75205 0.38963 0.0
H331 H 0.1114 0.7854 0.28602 0.0
H332 H 0.49119 0.82773 0.19288 0.0
H333 H 0.45785 0.784 0.23909 0.0
H334 H 0.47619 0.80999 0.12819 0.0
H335 H 0.39476 0.70175 0.15547 0.0
C336 C 0.36319 0.70636 0.69082 0.0
C337 C 0.43058 0.7487 0.68529 0.0
C338 C 0.39195 0.738 0.70547 0.0
C339 C 0.43918 0.7283 0.64933 0.0
C340 C 0.37233 0.68467 0.65536 0.0
C341 C 0.41009 0.69641 0.63435 0.0
N342 N 0.32738 0.69509 0.71228 0.0
C343 C 0.30095 0.66041 0.70122 0.0
C344 C 0.34385 0.6509 0.64267 0.0
C345 C 0.30828 0.63837 0.66599 0.0
Gd346 Gd 0.24669 0.81092 0.7835 0.0
Gd347 Gd 0.31754 0.73531 0.77046 0.0
N348 N 0.38265 0.75741 0.74016 0.0
C349 C 0.45957 0.77915 0.70217 0.0
C350 C 0.41142 0.78549 0.75764 0.0
C351 C 0.45007 0.79728 0.73868 0.0
H352 H 0.40431 0.7992 0.78601 0.0
H353 H 0.47253 0.82019 0.7523 0.0
H354 H 0.1687 0.75784 0.73726 0.0
H355 H 0.27458 0.64905 0.7198 0.0
H356 H 0.1008 0.7166 0.75213 0.0
H357 H 0.48956 0.78828 0.68757 0.0
H358 H 0.46851 0.73639 0.63321 0.0
H359 H 0.26877 0.87173 0.86147 0.0
H360 H 0.34972 0.63344 0.61561 0.0
H361 H 0.28683 0.61131 0.65714 0.0
H362 H 0.07429 0.74276 0.88563 0.0
H363 H 0.4175 0.68029 0.60695 0.0
H364 H 0.17301 0.84199 0.94943 0.0
H365 H 0.23991 0.88253 0.92798 0.0
N366 N 0.21922 0.82548 0.84605 0.0
C367 C 0.18158 0.80464 0.85678 0.0
C368 C 0.23964 0.85414 0.87074 0.0
C369 C 0.1855 0.83739 0.92028 0.0
C370 C 0.2233 0.86029 0.9083 0.0
C371 C 0.16394 0.80937 0.89435 0.0
H372 H 0.11155 0.78901 0.93346 0.0
N373 N 0.17857 0.77629 0.79382 0.0
C374 C 0.16086 0.77864 0.82988 0.0
C375 C 0.10026 0.73295 0.81148 0.0
C376 C 0.1215 0.75664 0.83979 0.0
C377 C 0.15661 0.7561 0.766 0.0
C378 C 0.11761 0.73338 0.77436 0.0
O379 O 0.34012 0.78876 0.74021 0.0
O380 O 0.2807 0.79343 0.72799 0.0
O381 O 0.21073 0.84308 0.76603 0.0
O382 O 0.27092 0.87376 0.77946 0.0
O383 O 0.33023 0.78887 0.81594 0.0
O384 O 0.30876 0.83914 0.80078 0.0
O385 O 0.25222 0.78135 0.83031 0.0
O386 O 0.25407 0.71991 0.79974 0.0
O387 O 0.33696 0.73014 0.82127 0.0
O388 O 0.33708 0.6835 0.7741 0.0
O389 O 0.23823 0.76003 0.73428 0.0
O390 O 0.25555 0.7082 0.75083 0.0
C391 C 0.31972 0.80199 0.72138 0.0
C392 C 0.33075 0.82657 0.81897 0.0
C393 C 0.23369 0.9115 0.75738 0.0
C394 C 0.21511 0.944 0.71317 0.0
C395 C 0.23933 0.98199 0.77057 0.0
C396 C 0.24389 0.94793 0.78051 0.0
C397 C 0.22486 0.98012 0.73739 0.0
C398 C 0.2198 0.90967 0.72364 0.0
C399 C 0.23874 0.87569 0.76797 0.0
C400 C 0.10429 0.75985 0.87742 0.0
C401 C 0.12545 0.78625 0.90465 0.0
H402 H 0.06998 0.71551 0.81789 0.0
C403 C 0.24131 0.74306 0.829 0.0
C404 C 0.2355 0.72174 0.73137 0.0
C405 C 0.32594 0.66583 0.83397 0.0
C406 C 0.33447 0.63137 0.88168 0.0
C407 C 0.26975 0.61753 0.85969 0.0
C408 C 0.28558 0.64514 0.83565 0.0
C409 C 0.29391 0.61049 0.88235 0.0
C410 C 0.35028 0.65903 0.85704 0.0
C411 C 0.34275 0.69508 0.80875 0.0
H412 H 0.24673 1.00997 0.78884 0.0
H413 H 0.255 0.94995 0.80643 0.0
H414 H 0.22062 1.00696 0.73121 0.0
H415 H 0.21339 0.88153 0.7054 0.0
H416 H 0.23862 0.6014 0.8607 0.0
H417 H 0.2664 0.65028 0.81831 0.0
H418 H 0.28078 0.5883 0.90016 0.0
H419 H 0.38125 0.67572 0.85614 0.0
C420 C 0.373 0.32322 0.69609 0.0
C421 C 0.37126 0.2803 0.63589 0.0
C422 C 0.35213 0.29258 0.67164 0.0
C423 C 0.41124 0.29933 0.62472 0.0
C424 C 0.41303 0.34256 0.68463 0.0
C425 C 0.43198 0.33041 0.64893 0.0
N426 N 0.3541 0.33435 0.73077 0.0
C427 C 0.3729 0.36583 0.75432 0.0
C428 C 0.43281 0.3739 0.70922 0.0
C429 C 0.41256 0.38573 0.74407 0.0
Gd430 Gd 0.26736 0.2225 0.81326 0.0
Gd431 Gd 0.28667 0.30014 0.74251 0.0
N432 N 0.31358 0.2739 0.68333 0.0
C433 C 0.3497 0.24898 0.61247 0.0
C434 C 0.29201 0.2443 0.66029 0.0
C435 C 0.3099 0.23102 0.62469 0.0
H436 H 0.26107 0.23098 0.66931 0.0
H437 H 0.29292 0.20711 0.60658 0.0
H438 H 0.28751 0.29091 0.88776 0.0
H439 H 0.35718 0.37685 0.7805 0.0
H440 H 0.25525 0.3099 0.95167 0.0
H441 H 0.36345 0.23858 0.58487 0.0
H442 H 0.42641 0.29027 0.59734 0.0
H443 H 0.2109 0.13389 0.77996 0.0
H444 H 0.46348 0.38961 0.70133 0.0
H445 H 0.42729 0.41061 0.76286 0.0
H446 H 0.13199 0.20993 0.96344 0.0
H447 H 0.46272 0.34494 0.63974 0.0
H448 H 0.10687 0.10537 0.86023 0.0
H449 H 0.14591 0.08924 0.79872 0.0
N450 N 0.20721 0.17651 0.82898 0.0
C451 C 0.18702 0.18515 0.86348 0.0
C452 C 0.19344 0.14203 0.80622 0.0
C453 C 0.13503 0.12549 0.85183 0.0
C454 C 0.15692 0.11633 0.81704 0.0
C455 C 0.15029 0.15991 0.8758 0.0
H456 H 0.102 0.15052 0.92162 0.0
N457 N 0.23889 0.24279 0.87413 0.0
C458 C 0.20377 0.21875 0.88704 0.0
C459 C 0.20295 0.26144 0.94676 0.0
C460 C 0.1845 0.22779 0.92357 0.0
C461 C 0.25819 0.27413 0.89729 0.0
C462 C 0.24021 0.28445 0.93366 0.0
O463 O 0.32776 0.25643 0.73238 0.0
O464 O 0.2899 0.19961 0.75381 0.0
O465 O 0.32105 0.22462 0.83584 0.0
O466 O 0.27434 0.17063 0.83101 0.0
O467 O 0.2304 0.25085 0.73893 0.0
O468 O 0.24079 0.19765 0.75958 0.0
O469 O 0.22526 0.26471 0.83052 0.0
O470 O 0.24511 0.31627 0.79583 0.0
O471 O 0.24443 0.31408 0.71371 0.0
O472 O 0.30022 0.35629 0.72365 0.0
O473 O 0.32085 0.27464 0.80827 0.0
O474 O 0.30033 0.32658 0.79963 0.0
C475 C 0.3194 0.21769 0.73085 0.0
C476 C 0.22279 0.21283 0.73988 0.0
C477 C 0.34072 0.16467 0.8251 0.0
C478 C 0.39127 0.13459 0.83669 0.0
C479 C 0.37736 0.12912 0.77359 0.0
C480 C 0.34828 0.15047 0.78699 0.0
C481 C 0.3988 0.1212 0.79821 0.0
C482 C 0.36226 0.15672 0.84987 0.0
C483 C 0.31022 0.18742 0.83935 0.0
C484 C 0.14749 0.20321 0.93564 0.0
C485 C 0.13037 0.16942 0.91178 0.0
H486 H 0.18903 0.26953 0.97493 0.0
C487 C 0.2217 0.29837 0.8231 0.0
C488 C 0.3185 0.31128 0.81834 0.0
C489 C 0.24474 0.38211 0.72824 0.0
C490 C 0.20411 0.42391 0.71871 0.0
C491 C 0.23365 0.43755 0.7757 0.0
C492 C 0.25107 0.4056 0.763 0.0
C493 C 0.21011 0.44666 0.7538 0.0
C494 C 0.22096 0.39115 0.70644 0.0
C495 C 0.26547 0.35033 0.71323 0.0
H496 H 0.38294 0.11823 0.74408 0.0
H497 H 0.33143 0.15562 0.76774 0.0
H498 H 0.42046 0.10368 0.78724 0.0
H499 H 0.35632 0.16767 0.87937 0.0
H500 H 0.23908 0.45576 0.8023 0.0
H501 H 0.26984 0.39954 0.78019 0.0
H502 H 0.19791 0.47231 0.76364 0.0
H503 H 0.21652 0.37328 0.67943 0.0
C504 C 0.78345 0.19323 0.81608 0.0
C505 C 0.76094 0.13362 0.77318 0.0
C506 C 0.77671 0.1748 0.78044 0.0
C507 C 0.74964 0.11189 0.80282 0.0
C508 C 0.77481 0.17127 0.8455 0.0
C509 C 0.75661 0.13069 0.83894 0.0
N510 N 0.80047 0.23256 0.82157 0.0
C511 C 0.81475 0.25079 0.85433 0.0
C512 C 0.78595 0.19055 0.88024 0.0
C513 C 0.80685 0.23028 0.88442 0.0
Gd514 Gd 0.72463 0.32342 0.78158 0.0
Gd515 Gd 0.80808 0.26578 0.77083 0.0
N516 N 0.78857 0.19667 0.75246 0.0
C517 C 0.75851 0.11534 0.7362 0.0
C518 C 0.78959 0.17848 0.71618 0.0
C519 C 0.77373 0.13777 0.70753 0.0
H520 H 0.80228 0.19534 0.69375 0.0
H521 H 0.7735 0.1237 0.67876 0.0
H522 H 0.76458 0.41168 0.82761 0.0
H523 H 0.83033 0.28169 0.85759 0.0
H524 H 0.79339 0.48006 0.81516 0.0
H525 H 0.74652 0.08378 0.72942 0.0
H526 H 0.73685 0.08032 0.79788 0.0
H527 H 0.67384 0.27528 0.70931 0.0
H528 H 0.7798 0.17473 0.90358 0.0
H529 H 0.81669 0.24513 0.91081 0.0
H530 H 0.77485 0.47333 0.68838 0.0
H531 H 0.74904 0.11337 0.86131 0.0
H532 H 0.7031 0.34994 0.62628 0.0
H533 H 0.66953 0.28556 0.64665 0.0
N534 N 0.71331 0.33147 0.72304 0.0
C535 C 0.7292 0.36799 0.7135 0.0
C536 C 0.69042 0.3027 0.7002 0.0
C537 C 0.70588 0.34524 0.65358 0.0
C538 C 0.68706 0.30881 0.6649 0.0
C539 C 0.72653 0.37571 0.6783 0.0
H540 H 0.74237 0.42007 0.64218 0.0
N541 N 0.74885 0.38961 0.77322 0.0
C542 C 0.74696 0.39815 0.73959 0.0
C543 C 0.78044 0.46625 0.75861 0.0
C544 C 0.76329 0.43659 0.73112 0.0
C545 C 0.76429 0.41856 0.80059 0.0
C546 C 0.78056 0.45726 0.79362 0.0
O547 O 0.76009 0.26439 0.8222 0.0
O548 O 0.70657 0.26173 0.79568 0.0
O549 O 0.69154 0.34474 0.83352 0.0
O550 O 0.6628 0.3257 0.78366 0.0
O551 O 0.773 0.25052 0.72092 0.0
O552 O 0.71212 0.26066 0.75032 0.0
O553 O 0.78784 0.34983 0.75551 0.0
O554 O 0.80997 0.29684 0.72205 0.0
O555 O 0.8614 0.2442 0.74859 0.0
O556 O 0.86604 0.30116 0.78355 0.0
O557 O 0.76142 0.34022 0.83061 0.0
O558 O 0.82125 0.3286 0.79995 0.0
C559 C 0.72153 0.25227 0.82126 0.0
C560 C 0.73368 0.24277 0.72272 0.0
C561 C 0.62867 0.30045 0.83862 0.0
C562 C 0.60424 0.27684 0.89813 0.0
C563 C 0.59575 0.23108 0.84054 0.0
C564 C 0.61537 0.26169 0.82007 0.0
C565 C 0.59048 0.23847 0.87957 0.0
C566 C 0.62138 0.3077 0.87723 0.0
C567 C 0.65769 0.33161 0.81992 0.0
C568 C 0.76208 0.44408 0.6956 0.0
C569 C 0.74371 0.41371 0.66925 0.0
H570 H 0.79339 0.49617 0.75319 0.0
C571 C 0.80876 0.33408 0.72601 0.0
C572 C 0.80055 0.3449 0.82905 0.0
C573 C 0.91832 0.29471 0.73496 0.0
C574 C 0.9671 0.27864 0.68316 0.0
C575 C 0.94606 0.33925 0.68973 0.0
C576 C 0.91999 0.32964 0.72196 0.0
C577 C 0.96846 0.31292 0.66938 0.0
C578 C 0.94456 0.27169 0.71746 0.0
C579 C 0.88528 0.27717 0.76168 0.0
H580 H 0.58577 0.20133 0.82611 0.0
H581 H 0.62138 0.25475 0.79001 0.0
H582 H 0.57617 0.21447 0.89512 0.0
H583 H 0.63114 0.33781 0.89105 0.0
H584 H 0.94651 0.36547 0.67903 0.0
H585 H 0.90003 0.3483 0.73551 0.0
H586 H 0.98468 0.31792 0.64217 0.0
H587 H 0.94196 0.24419 0.72719 0.0
C588 C 0.85305 0.87091 0.84971 0.0
C589 C 0.80923 0.87752 0.90879 0.0
C590 C 0.82031 0.85481 0.87454 0.0
C591 C 0.8311 0.91668 0.91772 0.0
C592 C 0.8754 0.91006 0.85902 0.0
C593 C 0.86404 0.93288 0.89293 0.0
N594 N 0.86353 0.84817 0.81699 0.0
C595 C 0.89735 0.86207 0.79358 0.0
C596 C 0.9089 0.92501 0.83422 0.0
C597 C 0.9201 0.9008 0.80156 0.0
Gd598 Gd 0.73972 0.75935 0.73755 0.0
Gd599 Gd 0.8224 0.78381 0.8077 0.0
N600 N 0.79878 0.81714 0.86485 0.0
C601 C 0.77644 0.86014 0.93308 0.0
C602 C 0.76809 0.7994 0.88901 0.0
C603 C 0.75603 0.82081 0.92328 0.0
H604 H 0.75301 0.76884 0.88164 0.0
H605 H 0.73117 0.80694 0.9422 0.0
H606 H 0.79002 0.78277 0.65742 0.0
H607 H 0.9075 0.84325 0.76902 0.0
H608 H 0.80574 0.74993 0.59258 0.0
H609 H 0.76698 0.87666 0.95964 0.0
H610 H 0.82293 0.93464 0.94386 0.0
H611 H 0.65911 0.69476 0.777 0.0
H612 H 0.9268 0.95493 0.84039 0.0
H613 H 0.94659 0.91179 0.78271 0.0
H614 H 0.73546 0.61412 0.59473 0.0
H615 H 0.88081 0.96303 0.90043 0.0
H616 H 0.64571 0.58347 0.70519 0.0
H617 H 0.62564 0.62438 0.76436 0.0
N618 N 0.70173 0.69325 0.72758 0.0
C619 C 0.71147 0.67181 0.69389 0.0
C620 C 0.66993 0.67708 0.75193 0.0
C621 C 0.66153 0.61421 0.71107 0.0
C622 C 0.65014 0.6372 0.74452 0.0
C623 C 0.69172 0.63171 0.68478 0.0
H624 H 0.68694 0.5799 0.64195 0.0
N625 N 0.75702 0.72961 0.67666 0.0
C626 C 0.73925 0.69077 0.66734 0.0
C627 C 0.77242 0.6921 0.60405 0.0
C628 C 0.74741 0.67064 0.63098 0.0
C629 C 0.77908 0.75127 0.65013 0.0
C630 C 0.7875 0.73282 0.61345 0.0
O631 O 0.77773 0.82344 0.81707 0.0
O632 O 0.71806 0.78817 0.79578 0.0
O633 O 0.73484 0.80618 0.71076 0.0
O634 O 0.68328 0.75766 0.72035 0.0
O635 O 0.7739 0.7266 0.80649 0.0
O636 O 0.71821 0.74068 0.79361 0.0
O637 O 0.79203 0.72865 0.71672 0.0
O638 O 0.83873 0.74013 0.75759 0.0
O639 O 0.8278 0.74748 0.84625 0.0
O640 O 0.88021 0.78861 0.82345 0.0
O641 O 0.78893 0.81502 0.74312 0.0
O642 O 0.84614 0.80128 0.75086 0.0
C643 C 0.73872 0.81808 0.81724 0.0
C644 C 0.73504 0.72211 0.81068 0.0
C645 C 0.67169 0.81981 0.7203 0.0
C646 C 0.64247 0.86764 0.70378 0.0
C647 C 0.63098 0.85525 0.76776 0.0
C648 C 0.65413 0.82758 0.7574 0.0
C649 C 0.62502 0.8751 0.74119 0.0
C650 C 0.66605 0.83999 0.69372 0.0
C651 C 0.69685 0.79156 0.7087 0.0
C652 C 0.72921 0.63027 0.62238 0.0
C653 C 0.70157 0.6108 0.64929 0.0
H654 H 0.77918 0.67778 0.57571 0.0
C655 C 0.824 0.72214 0.72661 0.0
C656 C 0.82697 0.8167 0.73283 0.0
C657 C 0.88889 0.72833 0.83312 0.0
C658 C 0.911 0.67688 0.85196 0.0
C659 C 0.93122 0.69154 0.7888 0.0
C660 C 0.91007 0.7208 0.79732 0.0
C661 C 0.93167 0.66962 0.81582 0.0
C662 C 0.88922 0.7061 0.86031 0.0
C663 C 0.86676 0.75946 0.84233 0.0
H664 H 0.61735 0.8611 0.79641 0.0
H665 H 0.65823 0.81222 0.77821 0.0
H666 H 0.6061 0.89568 0.74982 0.0
H667 H 0.68032 0.83424 0.66523 0.0
H668 H 0.94758 0.68604 0.76122 0.0
H669 H 0.91036 0.73756 0.77589 0.0
H670 H 0.94843 0.64711 0.80852 0.0
H671 H 0.87351 0.71233 0.88814 0.0
Fe672 Fe 0.0378 0.10994 0.52319 0.0
O673 O 0.03322 0.05322 0.51174 0.0
Fe674 Fe 0.08232 0.03306 0.51713 0.0
Fe675 Fe 0.98892 1.01387 0.53619 0.0
O676 O 0.03739 0.0541 0.51057 0.0
O677 O 0.03793 0.99289 0.5411 0.0
O678 O 0.03356 0.99176 0.54189 0.0
Fe679 Fe 1.03252 0.9355 0.52649 0.0
C680 C 0.99089 0.08311 0.59518 0.0
O681 O 0.98838 0.09423 0.49645 0.0
O682 O 0.94764 0.04237 0.52473 0.0
O683 O 0.07261 0.94076 0.47885 0.0
O684 O 0.07783 1.00002 0.46532 0.0
O685 O 0.12266 0.07795 0.48878 0.0
O686 O 0.0806 0.11278 0.47771 0.0
O687 O 0.98288 0.98092 0.48523 0.0
O688 O 0.98507 0.92255 0.49545 0.0
C689 C 0.11421 0.10237 0.47112 0.0
O690 O 0.08174 0.94992 0.55359 0.0
O691 O 0.12306 1.00441 0.52947 0.0
O692 O 0.99845 0.1054 0.57063 0.0
O693 O 0.99323 0.04751 0.58786 0.0
C694 C 0.95394 0.07028 0.50463 0.0
C695 C 0.97269 0.94369 0.47844 0.0
C696 C 0.95577 0.94094 0.57806 0.0
O697 O 0.94844 0.96805 0.5631 0.0
O698 O 0.98935 0.93057 0.57193 0.0
C699 C 0.07863 0.9642 0.45567 0.0
O700 O 0.08837 0.06801 0.56844 0.0
O701 O 0.08415 0.12429 0.55425 0.0
C702 C 0.11577 0.97577 0.549 0.0
C703 C 0.09361 0.10534 0.57543 0.0
Fe704 Fe 0.5349 0.9779 1.02039 0.0
O705 O 0.5677 0.02545 0.99789 0.0
Fe706 Fe 0.44513 1.00703 0.05674 0.0
Fe707 Fe 0.6268 0.0403 0.99129 0.0
O708 O 0.50421 1.01683 0.05068 0.0
O709 O 0.50431 1.02151 0.05129 0.0
O710 O 0.56797 0.03019 0.99878 0.0
Fe711 Fe 0.53787 0.06928 0.02945 0.0
C712 C 0.60904 0.98956 0.05375 0.0
O713 O 0.57301 0.94391 0.98326 0.0
O714 O 0.61962 0.98982 0.95127 0.0
O715 O 0.502 0.0587 0.98828 0.0
O716 O 0.44205 0.04424 1.02223 0.0
O717 O 0.43804 0.9608 1.01208 0.0
O718 O 0.49847 0.9629 0.97887 0.0
O719 O 0.62205 0.08072 0.9602 0.0
O720 O 0.57819 0.11375 1.0 0.0
C721 C 0.46036 0.9522 0.98181 0.0
O722 O 0.49968 0.10334 0.06651 0.0
O723 O 0.45168 0.05732 0.0972 0.0
O724 O 0.57187 0.98901 0.06111 0.0
O725 O 0.63098 1.00312 0.02551 0.0
C726 C 0.60246 0.95361 0.95637 0.0
C727 C 0.60566 0.11048 0.97086 0.0
C728 C 0.61261 0.09519 0.06633 0.0
O729 O 0.63412 0.08699 0.03541 0.0
O730 O 0.57449 0.08331 0.07073 0.0
C731 C 0.46455 0.0565 0.9937 0.0
O732 O 0.44852 0.96613 0.08782 0.0
O733 O 0.49523 0.93416 0.05111 0.0
C734 C 0.46943 0.09361 0.09272 0.0
C735 C 0.46642 0.9374 0.07908 0.0
Fe736 Fe 0.03998 0.56979 0.03145 0.0
O737 O 1.00148 0.52249 0.04979 0.0
Fe738 Fe 0.12528 0.53398 0.99471 0.0
Fe739 Fe 0.94263 0.51386 0.05172 0.0
O740 O 0.06757 0.52904 1.00023 0.0
O741 O 0.06638 0.5243 0.9974 0.0
O742 O 1.0003 0.5175 0.04695 0.0
Fe743 Fe 1.0277 0.47662 1.01507 0.0
C744 C 0.97189 0.59656 0.0939 0.0
O745 O 1.00813 0.56238 0.989 0.0
O746 O 0.94618 0.55599 1.01838 0.0
O747 O 0.06446 0.44025 0.97747 0.0
O748 O 0.11666 0.48682 0.9521 0.0
O749 O 0.12644 0.57744 0.96533 0.0
O750 O 0.0837 0.61306 1.00359 0.0
O751 O 0.93388 0.47036 1.0061 0.0
O752 O 0.99318 0.46835 0.97214 0.0
C753 C 0.11091 0.60776 0.97475 0.0
O754 O 0.05998 0.48214 0.05776 0.0
O755 O 0.12263 0.49307 0.02823 0.0
O756 O 1.00318 0.60636 0.06856 0.0
O757 O 0.95116 0.56054 0.09512 0.0
C758 C 0.97321 0.56716 0.99183 0.0
C759 C 0.95486 0.46109 0.97533 0.0
C760 C 0.95557 0.43829 0.07024 0.0
O761 O 0.94053 0.46906 0.08002 0.0
O762 O 0.98318 0.43325 0.04171 0.0
C763 C 0.09617 0.45061 0.95269 0.0
O764 O 0.13381 0.57825 0.04009 0.0
O765 O 0.0743 0.57906 0.07414 0.0
C766 C 0.0966 0.48209 0.05541 0.0
C767 C 0.11256 0.58728 0.07085 0.0
Fe768 Fe 0.53985 0.51223 0.97928 0.0
O769 O 0.57508 0.54797 1.01545 0.0
Fe770 Fe 0.44627 0.49422 0.03287 0.0
Fe771 Fe 0.63296 0.55043 1.0109 0.0
O772 O 0.50339 0.49672 0.02492 0.0
O773 O 0.50403 0.49524 0.02858 0.0
O774 O 0.5757 0.54665 1.01918 0.0
Fe775 Fe 0.54005 0.52994 0.06472 0.0
C776 C 0.60188 0.46701 0.97627 0.0
O777 O 0.58359 0.5336 0.93568 0.0
O778 O 0.63393 0.57706 0.96639 0.0
O779 O 0.5152 0.57466 0.06484 0.0
O780 O 0.44995 0.54756 0.06823 0.0
O781 O 0.44935 0.52399 0.99007 0.0
O782 O 0.51289 0.55654 0.97667 0.0
O783 O 0.63276 0.59814 0.05266 0.0
O784 O 0.58172 0.57092 0.09635 0.0
C785 C 0.47549 0.55203 0.97673 0.0
O786 O 0.49712 0.50733 0.10812 0.0
O787 O 0.44396 0.46824 0.07844 0.0
O788 O 0.5654 0.46791 0.98062 0.0
O789 O 0.63009 0.49809 0.97412 0.0
C790 C 0.61511 0.56324 0.93768 0.0
C791 C 0.61345 0.59786 0.08628 0.0
C792 C 0.60499 0.49064 0.06477 0.0
O793 O 0.63056 0.51983 0.05278 0.0
O794 O 0.56744 0.48551 0.06528 0.0
C795 C 0.47969 0.57745 0.0669 0.0
O796 O 0.4457 0.44567 0.99186 0.0
O797 O 0.49817 0.47074 0.94802 0.0
C798 C 0.46397 0.47963 0.10654 0.0
C799 C 0.46551 0.44499 0.95837 0.0
Fe800 Fe 0.04336 0.4366 0.52177 0.0
O801 O 0.05168 0.49419 0.5269 0.0
Fe802 Fe 0.04345 0.51498 0.4795 0.0
Fe803 Fe 1.02389 0.52709 0.56936 0.0
O804 O 0.05366 0.4937 0.52188 0.0
O805 O 1.01692 0.54896 0.52193 0.0
O806 O 1.01483 0.54936 0.52688 0.0
Fe807 Fe 1.02724 0.60684 0.52648 0.0
C808 C 0.96452 0.44806 0.57215 0.0
O809 O 0.07313 0.4543 0.56745 0.0
O810 O 0.04066 0.49905 0.60672 0.0
O811 O 0.07811 0.61198 0.48766 0.0
O812 O 0.09833 0.5564 0.47825 0.0
O813 O 0.07518 0.47523 0.44125 0.0
O814 O 0.09241 0.44205 0.48056 0.0
O815 O 0.07801 0.56857 0.57537 0.0
O816 O 0.06252 0.62304 0.56926 0.0
C817 C 0.09596 0.45245 0.44823 0.0
O818 O 0.99704 0.59038 0.481 0.0
O819 O 1.02579 0.54264 0.44213 0.0
O820 O 0.99201 0.4299 0.5596 0.0
O821 O 0.96931 0.48437 0.56941 0.0
C822 C 0.0652 0.47583 0.59943 0.0
C823 C 0.08378 0.60598 0.58169 0.0
C824 C 0.97247 0.59091 0.59982 0.0
O825 O 0.99127 0.56648 0.60711 0.0
O826 O 0.97844 0.60285 0.5679 0.0
C827 C 0.10418 0.59229 0.47404 0.0
O828 O 0.98923 0.47334 0.47558 0.0
O829 O 1.0085 0.41994 0.47886 0.0
C830 C 1.00399 0.56847 0.44901 0.0
C831 C 0.98507 0.4361 0.46835 0.0
Fe832 Fe 0.52829 0.97589 0.51967 0.0
O833 O 0.50089 1.01729 0.55086 0.0
Fe834 Fe 0.57484 1.02151 0.44326 0.0
Fe835 Fe 0.4891 0.02438 0.60592 0.0
O836 O 0.56134 1.02237 0.49666 0.0
O837 O 0.56257 0.0275 0.49806 0.0
O838 O 0.50206 1.02264 0.55223 0.0
Fe839 Fe 0.53619 0.06929 0.52973 0.0
C840 C 0.45854 0.93715 0.57731 0.0
O841 O 0.56887 0.98709 0.55663 0.0
O842 O 0.52848 0.99304 0.61091 0.0
O843 O 0.57649 0.11151 0.49877 0.0
O844 O 0.61517 0.07369 0.45801 0.0
O845 O 0.60854 0.98318 0.44695 0.0
O846 O 0.56441 0.93938 0.48227 0.0
O847 O 0.53264 0.07566 0.61829 0.0
O848 O 0.57754 0.08263 0.56769 0.0
C849 C 0.59651 0.94889 0.45776 0.0
O850 O 0.49613 0.06043 0.49254 0.0
O851 O 0.5371 0.05541 0.43871 0.0
O852 O 0.48913 0.93391 0.55148 0.0
O853 O 0.44964 0.97025 0.59333 0.0
C854 C 0.56112 0.98739 0.59168 0.0
C855 C 0.56807 0.08974 0.60302 0.0
C856 C 0.46738 0.09577 0.59057 0.0
O857 O 0.4545 0.0613 0.60108 0.0
O858 O 0.50052 0.1057 0.56738 0.0
C859 C 0.60662 0.10715 0.47279 0.0
O860 O 0.53038 0.97174 0.4303 0.0
O861 O 0.48687 0.96098 0.48155 0.0
C862 C 0.50541 0.06355 0.4581 0.0
C863 C 0.49587 0.95567 0.44604 0.0
H864 H 0.2554 0.17904 0.35253 0.0
H865 H 0.16014 0.22719 0.33664 0.0
H866 H 0.11436 0.19078 0.38222 0.0
H867 H 0.10109 0.1475 0.42686 0.0
H868 H 0.19402 0.09946 0.44774 0.0
H869 H 0.24107 0.13368 0.39956 0.0
C870 C 0.2246 0.18143 0.35905 0.0
C871 C 0.2113 0.20579 0.34086 0.0
C872 C 0.19809 0.16065 0.38613 0.0
C873 C 0.1713 0.20856 0.34974 0.0
C874 C 0.145 0.18782 0.37599 0.0
C875 C 0.13162 0.14423 0.42137 0.0
C876 C 0.1439 0.12099 0.44143 0.0
C877 C 0.15812 0.16409 0.3944 0.0
C878 C 0.18363 0.11718 0.43295 0.0
C879 C 0.21052 0.13682 0.40544 0.0
H880 H 0.82621 0.06486 0.40384 0.0
H881 H 0.88422 0.1894 0.41606 0.0
H882 H 0.92358 0.18139 0.46033 0.0
H883 H 0.94545 0.13869 0.49148 0.0
H884 H 0.88806 1.01438 0.48096 0.0
H885 H 0.84318 0.02296 0.44128 0.0
C886 C 0.84693 0.09041 0.41665 0.0
C887 C 0.85275 0.12759 0.40589 0.0
C888 C 0.86938 0.08568 0.44251 0.0
C889 C 0.87991 0.16025 0.42282 0.0
C890 C 0.90219 0.1558 0.44847 0.0
C891 C 0.92277 0.11346 0.4809 0.0
C892 C 0.92067 0.07575 0.48839 0.0
C893 C 0.89779 0.11857 0.45783 0.0
C894 C 0.89053 0.04361 0.47528 0.0
C895 C 0.86511 0.04851 0.45238 0.0
H896 H 0.86439 0.89392 0.3499 0.0
H897 H 0.88359 0.77992 0.35221 0.0
H898 H 0.92037 0.80804 0.40496 0.0
H899 H 0.94908 0.86542 0.4495 0.0
H900 H 0.93726 0.98061 0.4413 0.0
H901 H 0.89605 0.95167 0.39188 0.0
C902 C 0.87749 0.87533 0.36115 0.0
C903 C 0.87157 0.83493 0.34651 0.0
C904 C 0.89982 0.89189 0.3908 0.0
C905 C 0.88784 0.81122 0.36254 0.0
C906 C 0.90871 0.8272 0.39296 0.0
C907 C 0.93737 0.88416 0.43701 0.0
C908 C 0.94636 0.92512 0.44927 0.0
C909 C 0.91508 0.86756 0.40725 0.0
C910 C 0.93091 0.94895 0.43259 0.0
C911 C 0.90744 0.93247 0.40409 0.0
H912 H 0.13045 0.84122 0.3385 0.0
H913 H 1.00306 0.79018 0.358 0.0
H914 H 0.99243 0.85584 0.3844 0.0
H915 H 1.0209 0.92148 0.41683 0.0
H916 H 0.14849 0.9665 0.40885 0.0
H917 H 0.15795 0.91042 0.36067 0.0
C918 C 0.10007 0.84459 0.34739 0.0
C919 C 0.0674 0.81114 0.34667 0.0
C920 C 0.09453 0.88149 0.36456 0.0
C921 C 1.02845 0.81562 0.35877 0.0
C922 C 1.02246 0.85302 0.37386 0.0
C923 C 0.05048 0.9197 0.40329 0.0
C924 C 0.08386 0.94712 0.41649 0.0
C925 C 0.05542 0.88546 0.37908 0.0
C926 C 0.12244 0.94544 0.39882 0.0
C927 C 0.12774 0.913 0.37197 0.0
H928 H 0.23206 1.00043 0.66732 0.0
H929 H 0.15986 0.88296 0.67967 0.0
H930 H 0.12937 0.88043 0.62539 0.0
H931 H 0.11738 0.91326 0.57894 0.0
H932 H 0.18167 0.03371 0.57052 0.0
H933 H 0.22116 0.03315 0.61853 0.0
C934 C 0.20947 0.97431 0.65843 0.0
C935 C 0.1985 0.94196 0.67813 0.0
C936 C 0.19051 0.97355 0.6278 0.0
C937 C 0.16981 0.90811 0.66514 0.0
C938 C 0.15191 0.90671 0.63412 0.0
C939 C 0.14032 0.93943 0.58717 0.0
C940 C 0.14615 0.97366 0.57128 0.0
C941 C 0.16136 0.9395 0.61584 0.0
C942 C 0.17655 1.00689 0.58205 0.0
C943 C 0.19882 1.00669 0.60984 0.0
H944 H 0.16997 0.23022 0.70492 0.0
H945 H 0.21871 0.13427 0.71395 0.0
H946 H 0.18121 0.09147 0.66544 0.0
H947 H 0.13757 0.08257 0.61741 0.0
H948 H 0.09153 0.18022 0.60773 0.0
H949 H 0.12488 0.22077 0.65933 0.0
C950 C 0.17215 0.19985 0.69656 0.0
C951 C 0.19696 0.18555 0.7133 0.0
C952 C 0.15119 0.17565 0.66816 0.0
C953 C 0.19936 0.14602 0.70206 0.0
C954 C 0.17817 0.12154 0.67401 0.0
C955 C 0.13466 0.11262 0.62679 0.0
C956 C 0.11244 0.12839 0.60835 0.0
C957 C 0.1544 0.13621 0.65644 0.0
C958 C 0.10896 0.16744 0.62092 0.0
C959 C 0.12792 0.19071 0.65058 0.0
H960 H 1.01998 0.23726 0.68758 0.0
H961 H 0.92581 0.23892 0.62817 0.0
H962 H 0.91005 0.16729 0.61249 0.0
H963 H 0.92315 0.10502 0.61532 0.0
H964 H 1.0291 0.10398 0.65708 0.0
H965 H 0.03656 0.17338 0.686 0.0
C966 C 0.99742 0.2219 0.66966 0.0
C967 C 0.97434 0.24304 0.6586 0.0
C968 C 0.98847 0.18072 0.66081 0.0
C969 C 0.9446 0.22313 0.63602 0.0
C970 C 0.93454 0.18218 0.62833 0.0
C971 C 0.94686 0.1198 0.63223 0.0
C972 C 0.97676 0.10075 0.63244 0.0
C973 C 0.95564 0.16078 0.64139 0.0
C974 C 1.00637 0.11878 0.65558 0.0
C975 C 1.01174 0.15885 0.67049 0.0
H976 H 0.85987 0.80161 0.66146 0.0
H977 H 0.84445 0.89658 0.75084 0.0
H978 H 0.87938 0.94518 0.70966 0.0
H979 H 0.91678 0.96015 0.64795 0.0
H980 H 0.92573 0.86383 0.55795 0.0
H981 H 0.88891 0.8162 0.59877 0.0
C982 C 0.86384 0.83296 0.67167 0.0
C983 C 0.85005 0.84575 0.70889 0.0
C984 C 0.88188 0.8604 0.64741 0.0
C985 C 0.85537 0.88633 0.72216 0.0
C986 C 0.87495 0.91401 0.69858 0.0
C987 C 0.90927 0.92882 0.63713 0.0
C988 C 0.92338 0.91541 0.59997 0.0
C989 C 0.88834 0.9014 0.66102 0.0
C990 C 0.91451 0.8747 0.58638 0.0
C991 C 0.89403 0.84745 0.60981 0.0
H992 H 0.41279 0.24166 0.19751 0.0
H993 H 0.3004 0.15363 0.20386 0.0
H994 H 0.33238 0.1049 0.16321 0.0
H995 H 0.39187 0.08599 0.12599 0.0
H996 H 0.50466 0.17277 0.11626 0.0
H997 H 0.47332 0.2225 0.15801 0.0
C998 C 0.39534 0.21176 0.1902 0.0
C999 C 0.35385 0.20174 0.20423 0.0
C1000 C 0.41417 0.18329 0.16615 0.0
C1001 C 0.33204 0.16273 0.19374 0.0
C1002 C 0.35045 0.13456 0.17042 0.0
C1003 C 0.40991 0.11572 0.13301 0.0
C1004 C 0.45102 0.12513 0.11794 0.0
C1005 C 0.39145 0.14435 0.15651 0.0
C1006 C 0.47317 0.16429 0.12718 0.0
C1007 C 0.45513 0.19283 0.15121 0.0
H1008 H 0.86653 0.29458 0.15556 0.0
H1009 H 0.85938 0.3923 0.24502 0.0
H1010 H 0.90018 0.43835 0.20479 0.0
H1011 H 0.93357 0.45195 0.14383 0.0
H1012 H 0.94222 0.35679 0.05255 0.0
H1013 H 0.90645 0.30856 0.09414 0.0
C1014 C 0.87423 0.32592 0.16622 0.0
C1015 C 0.85885 0.34 0.20303 0.0
C1016 C 0.89812 0.35268 0.14272 0.0
C1017 C 0.86962 0.38065 0.21657 0.0
C1018 C 0.89328 0.4071 0.19366 0.0
C1019 C 0.92781 0.42062 0.13291 0.0
C1020 C 0.9398 0.40797 0.09501 0.0
C1021 C 0.90686 0.39356 0.15658 0.0
C1022 C 0.9331 0.36727 0.0816 0.0
C1023 C 0.91239 0.33978 0.10533 0.0
H1024 H 0.72313 0.9226 0.12247 0.0
H1025 H 0.65437 0.96357 0.22454 0.0
H1026 H 0.60841 0.97742 0.18938 0.0
H1027 H 0.59378 0.98685 0.12915 0.0
H1028 H 0.66647 0.94974 0.02763 0.0
H1029 H 0.70427 0.92523 0.06254 0.0
C1030 C 0.6972 0.93318 0.13689 0.0
C1031 C 0.69168 0.94148 0.17595 0.0
C1032 C 0.67202 0.94269 0.11643 0.0
C1033 C 0.65869 0.95632 0.19444 0.0
C1034 C 0.63273 0.9647 0.17431 0.0
C1035 C 0.61747 0.97284 0.11475 0.0
C1036 C 0.62773 0.97086 0.07592 0.0
C1037 C 0.63998 0.95946 0.13523 0.0
C1038 C 0.6585 0.95249 0.05761 0.0
C1039 C 0.68011 0.93826 0.07753 0.0
H1040 H 0.18078 0.68563 0.21817 0.0
H1041 H 0.29277 0.67327 0.15086 0.0
H1042 H 0.25644 0.63521 0.0995 0.0
H1043 H 0.19316 0.60601 0.07356 0.0
H1044 H 0.08119 0.61868 0.14085 0.0
H1045 H 0.11747 0.65609 0.19245 0.0
C1046 C 0.19747 0.67467 0.19237 0.0
C1047 C 0.23974 0.68243 0.18866 0.0
C1048 C 0.17633 0.65283 0.1629 0.0
C1049 C 0.26041 0.66777 0.15476 0.0
C1050 C 0.23958 0.64601 0.12531 0.0
C1051 C 0.17645 0.61685 0.09947 0.0
C1052 C 0.13419 0.60938 0.10302 0.0
C1053 C 0.19756 0.63842 0.12905 0.0
C1054 C 0.1135 0.62376 0.13708 0.0
C1055 C 0.13431 0.64525 0.16664 0.0
H1056 H 0.38256 0.81398 0.86023 0.0
H1057 H 0.33561 0.90629 0.83923 0.0
H1058 H 0.37053 0.95278 0.88757 0.0
H1059 H 0.41297 0.96723 0.93806 0.0
H1060 H 0.4646 0.87664 0.95492 0.0
H1061 H 0.42968 0.8299 0.90626 0.0
C1062 C 0.38001 0.84429 0.86596 0.0
C1063 C 0.35538 0.85598 0.8463 0.0
C1064 C 0.40115 0.87141 0.89337 0.0
C1065 C 0.35343 0.89581 0.8541 0.0
C1066 C 0.37358 0.92264 0.88184 0.0
C1067 C 0.41671 0.9373 0.93082 0.0
C1068 C 0.44121 0.92532 0.95023 0.0
C1069 C 0.39718 0.91074 0.90204 0.0
C1070 C 0.44603 0.88657 0.94036 0.0
C1071 C 0.42595 0.85981 0.91258 0.0
H1072 H 0.20728 0.37041 0.8216 0.0
H1073 H 0.16565 0.27317 0.88245 0.0
H1074 H 0.12238 0.30901 0.92751 0.0
H1075 H 0.09794 0.37124 0.95208 0.0
H1076 H 0.13511 0.46395 0.88464 0.0
H1077 H 0.17646 0.42678 0.84031 0.0
C1078 C 0.18882 0.35679 0.84452 0.0
C1079 C 0.1919 0.31934 0.84903 0.0
C1080 C 0.1623 0.37712 0.86959 0.0
C1081 C 0.16623 0.30248 0.87887 0.0
C1082 C 0.14068 0.32297 0.90457 0.0
C1083 C 0.11429 0.38292 0.92727 0.0
C1084 C 0.11316 0.42116 0.92263 0.0
C1085 C 0.13868 0.36081 0.90067 0.0
C1086 C 0.1352 0.43518 0.8899 0.0
C1087 C 0.15939 0.41389 0.8642 0.0
H1088 H 0.70774 0.25968 0.89746 0.0
H1089 H 0.67809 0.17897 0.79751 0.0
H1090 H 0.63782 0.12871 0.83476 0.0
H1091 H 0.61337 0.10642 0.89585 0.0
H1092 H 0.63769 0.18836 0.99637 0.0
H1093 H 0.6768 0.23951 0.95925 0.0
C1094 C 0.69232 0.23107 0.88399 0.0
C1095 C 0.69629 0.2228 0.84473 0.0
C1096 C 0.66796 0.20264 0.90579 0.0
C1097 C 0.67564 0.18592 0.82761 0.0
C1098 C 0.65259 0.15719 0.84894 0.0
C1099 C 0.6266 0.13574 0.90962 0.0
C1100 C 0.62236 0.14359 0.9489 0.0
C1101 C 0.64872 0.16506 0.88804 0.0
C1102 C 0.63986 0.1817 0.96628 0.0
C1103 C 0.66265 0.21081 0.94499 0.0
H1104 H 0.97866 0.66506 0.86671 0.0
H1105 H 0.85141 0.64149 0.90306 0.0
H1106 H 0.85862 0.60516 0.95012 0.0
H1107 H 0.90194 0.57923 0.98026 0.0
H1108 H 1.02919 0.60448 0.94158 0.0
H1109 H 1.02098 0.64044 0.89611 0.0
C1110 C 0.95239 0.65165 0.88468 0.0
C1111 C 0.91457 0.65554 0.88118 0.0
C1112 C 0.95676 0.63092 0.9113 0.0
C1113 C 0.88093 0.63891 0.90532 0.0
C1114 C 0.88504 0.61802 0.93209 0.0
C1115 C 0.92774 0.59255 0.96182 0.0
C1116 C 0.96606 0.5886 0.96429 0.0
C1117 C 0.9229 0.61367 0.93527 0.0
C1118 C 0.99922 0.60634 0.94019 0.0
C1119 C 0.99468 0.6272 0.91411 0.0
H1120 H 0.12637 0.42834 0.19713 0.0
H1121 H 0.16385 0.3374 0.11262 0.0
H1122 H 0.15585 0.37047 0.0643 0.0
H1123 H 0.13292 0.42227 0.04551 0.0
H1124 H 0.08584 0.5068 0.12991 0.0
H1125 H 0.10168 0.47853 0.17873 0.0
C1126 C 0.13226 0.41512 0.16827 0.0
C1127 C 0.14567 0.38 0.1591 0.0
C1128 C 0.12547 0.43308 0.1404 0.0
C1129 C 0.1543 0.36463 0.12111 0.0
C1130 C 0.14924 0.38332 0.0932 0.0
C1131 C 0.1266 0.43462 0.07463 0.0
C1132 C 0.10857 0.46659 0.08435 0.0
C1133 C 0.13425 0.41718 0.1025 0.0
C1134 C 0.09977 0.48213 0.12202 0.0
C1135 C 0.1088 0.46599 0.14983 0.0
H1136 H 0.18041 0.67744 0.82785 0.0
H1137 H 0.24545 0.77141 0.90267 0.0
H1138 H 0.20664 0.74104 0.95628 0.0
H1139 H 0.1584 0.68345 0.98125 0.0
H1140 H 0.09309 0.5909 0.90533 0.0
H1141 H 0.12656 0.62534 0.85317 0.0
C1142 C 0.1859 0.69124 0.85595 0.0
C1143 C 0.21622 0.72602 0.86138 0.0
C1144 C 0.16295 0.67405 0.88655 0.0
C1145 C 0.22249 0.74429 0.89788 0.0
C1146 C 0.20025 0.72698 0.92852 0.0
C1147 C 0.15057 0.67172 0.95348 0.0
C1148 C 0.12283 0.63503 0.94719 0.0
C1149 C 0.17083 0.69138 0.92321 0.0
C1150 C 0.11376 0.6195 0.9109 0.0
C1151 C 0.1333 0.63889 0.88096 0.0
H1152 H 0.35851 0.10894 0.90231 0.0
H1153 H 0.4708 0.13496 0.82991 0.0
H1154 H 0.50379 0.11313 0.87176 0.0
H1155 H 0.50021 0.08533 0.92875 0.0
H1156 H 0.38678 0.05958 1.00016 0.0
H1157 H 0.35518 0.08292 0.95911 0.0
C1158 C 0.39033 0.11039 0.89591 0.0
C1159 C 0.4121 0.12363 0.86306 0.0
C1160 C 0.40898 0.09758 0.91988 0.0
C1161 C 0.45321 0.12457 0.85488 0.0
C1162 C 0.47212 0.11216 0.87884 0.0
C1163 C 0.46859 0.08475 0.93527 0.0
C1164 C 0.44606 0.07042 0.96754 0.0
C1165 C 0.45021 0.09825 0.91133 0.0
C1166 C 0.40505 0.07013 0.97552 0.0
C1167 C 0.38679 0.08359 0.95206 0.0
H1168 H 0.88193 0.36636 0.82878 0.0
H1169 H 0.77162 0.3805 0.89838 0.0
H1170 H 0.80985 0.41821 0.94877 0.0
H1171 H 0.87412 0.44521 0.97362 0.0
H1172 H 0.98413 0.42927 0.90439 0.0
H1173 H 0.94609 0.39362 0.85332 0.0
C1174 C 0.86587 0.37732 0.85494 0.0
C1175 C 0.82346 0.36997 0.85958 0.0
C1176 C 0.88807 0.39854 0.88395 0.0
C1177 C 0.80394 0.38545 0.89376 0.0
C1178 C 0.82589 0.40695 0.92267 0.0
C1179 C 0.89008 0.43405 0.94741 0.0
C1180 C 0.93236 0.44008 0.94321 0.0
C1181 C 0.86792 0.41337 0.91818 0.0
C1182 C 0.95193 0.42532 0.90872 0.0
C1183 C 0.93007 0.40484 0.87946 0.0
H1184 H 0.65861 0.80722 0.8488 0.0
H1185 H 0.77139 0.89476 0.84433 0.0
H1186 H 0.7396 0.94297 0.88632 0.0
H1187 H 0.68007 0.96144 0.92392 0.0
H1188 H 0.56699 0.87488 0.93184 0.0
H1189 H 0.59826 0.82569 0.88905 0.0
C1190 C 0.67617 0.83692 0.85686 0.0
C1191 C 0.71767 0.84706 0.843 0.0
C1192 C 0.6575 0.86493 0.88168 0.0
C1193 C 0.73972 0.88569 0.8544 0.0
C1194 C 0.72143 0.91351 0.87845 0.0
C1195 C 0.66199 0.93186 0.91629 0.0
C1196 C 0.62084 0.9223 0.93107 0.0
C1197 C 0.68038 0.90361 0.89219 0.0
C1198 C 0.59854 0.88337 0.92113 0.0
C1199 C 0.61651 0.8552 0.89649 0.0
H1200 H 0.87495 0.68274 0.23445 0.0
H1201 H 0.8728 0.75404 0.1544 0.0
H1202 H 0.91643 0.72011 0.10818 0.0
H1203 H 0.95248 0.666 0.08794 0.0
H1204 H 0.95212 0.59304 0.16759 0.0
H1205 H 0.91318 0.63101 0.21532 0.0
C1206 C 0.88409 0.69114 0.20699 0.0
C1207 C 0.87048 0.72205 0.19874 0.0
C1208 C 0.90928 0.67072 0.17986 0.0
C1209 C 0.88309 0.73163 0.16253 0.0
C1210 C 0.90806 0.71171 0.13565 0.0
C1211 C 0.94502 0.6592 0.11603 0.0
C1212 C 0.95642 0.62682 0.12392 0.0
C1213 C 0.92133 0.68092 0.14372 0.0
C1214 C 0.94475 0.61799 0.16048 0.0
C1215 C 0.92196 0.63959 0.18794 0.0
H1216 H 0.40908 0.84769 0.2181 0.0
H1217 H 0.31019 0.7909 0.15642 0.0
H1218 H 0.34323 0.82701 0.10536 0.0
H1219 H 0.39888 0.87776 0.07894 0.0
H1220 H 0.50008 0.93202 0.13784 0.0
H1221 H 0.46842 0.89366 0.18834 0.0
C1222 C 0.395 0.84293 0.1933 0.0
C1223 C 0.35655 0.81712 0.19174 0.0
C1224 C 0.41492 0.86328 0.16316 0.0
C1225 C 0.33901 0.81141 0.15919 0.0
C1226 C 0.35819 0.83177 0.1296 0.0
C1227 C 0.41453 0.88019 0.10229 0.0
C1228 C 0.45225 0.90706 0.10416 0.0
C1229 C 0.39597 0.8581 0.13133 0.0
C1230 C 0.47156 0.91081 0.13521 0.0
C1231 C 0.45314 0.88924 0.16438 0.0
H1232 H 0.70629 0.23703 0.17518 0.0
H1233 H 0.72751 0.14003 0.21523 0.0
H1234 H 0.68842 0.09307 0.17038 0.0
H1235 H 0.64849 0.07864 0.11843 0.0
H1236 H 0.62338 0.17469 0.08067 0.0
H1237 H 0.66262 0.22242 0.12596 0.0
C1238 C 0.70245 0.20565 0.1741 0.0
C1239 C 0.72136 0.19251 0.19798 0.0
C1240 C 0.67861 0.17833 0.14871 0.0
C1241 C 0.71503 0.15148 0.19643 0.0
C1242 C 0.69208 0.12434 0.17096 0.0
C1243 C 0.65128 0.11003 0.12055 0.0
C1244 C 0.63284 0.1232 0.09652 0.0
C1245 C 0.67388 0.13732 0.14677 0.0
C1246 C 0.63697 0.16391 0.09919 0.0
C1247 C 0.6596 0.1912 0.12496 0.0
H1248 H 0.72735 0.64378 0.8077 0.0
H1249 H 0.68186 0.74258 0.86872 0.0
H1250 H 0.63717 0.70078 0.91185 0.0
H1251 H 0.61408 0.63698 0.93424 0.0
H1252 H 0.65536 0.53659 0.87142 0.0
H1253 H 0.69767 0.57751 0.82598 0.0
C1254 C 0.70769 0.65592 0.83061 0.0
C1255 C 0.70862 0.69624 0.8361 0.0
C1256 C 0.68085 0.63128 0.85432 0.0
C1257 C 0.68212 0.7117 0.86477 0.0
C1258 C 0.65643 0.68781 0.88919 0.0
C1259 C 0.63154 0.62396 0.90996 0.0
C1260 C 0.63154 0.58399 0.90569 0.0
C1261 C 0.65581 0.64767 0.88442 0.0
C1262 C 0.65453 0.56723 0.87464 0.0
C1263 C 0.67907 0.59073 0.84907 0.0
H1264 H 0.41388 0.62834 0.86685 0.0
H1265 H 0.31198 0.61819 0.95361 0.0
H1266 H 0.34873 0.59707 0.99212 0.0
H1267 H 0.40637 0.57428 0.99841 0.0
H1268 H 0.50989 0.58585 0.91399 0.0
H1269 H 0.4764 0.61477 0.87779 0.0
C1270 C 0.39994 0.62226 0.89445 0.0
C1271 C 0.3596 0.6238 0.90669 0.0
C1272 C 0.42151 0.61032 0.91687 0.0
C1273 C 0.34234 0.61595 0.94273 0.0
C1274 C 0.36346 0.60413 0.965 0.0
C1275 C 0.42202 0.58393 0.97246 0.0
C1276 C 0.46036 0.57754 0.95868 0.0
C1277 C 0.40252 0.60006 0.95188 0.0
C1278 C 0.48038 0.59047 0.92519 0.0
C1279 C 0.46104 0.60665 0.90436 0.0
H1280 H 0.39306 0.31268 0.83131 0.0
H1281 H 0.29601 0.37054 0.86695 0.0
H1282 H 0.33322 0.41675 0.91384 0.0
H1283 H 0.39276 0.44048 0.9448 0.0
H1284 H 0.49315 0.38799 0.90692 0.0
H1285 H 0.45558 0.33984 0.86032 0.0
C1286 C 0.38022 0.33534 0.84958 0.0
C1287 C 0.34184 0.33816 0.8463 0.0
C1288 C 0.40237 0.36266 0.87572 0.0
C1289 C 0.32557 0.36802 0.86928 0.0
C1290 C 0.34673 0.39433 0.89603 0.0
C1291 C 0.40626 0.41836 0.9263 0.0
C1292 C 0.44506 0.41698 0.92924 0.0
C1293 C 0.38503 0.39187 0.89948 0.0
C1294 C 0.46303 0.3891 0.90491 0.0
C1295 C 0.44157 0.36168 0.87851 0.0
H1296 H 0.66144 0.31303 0.9426 0.0
H1297 H 0.53454 0.26596 0.94728 0.0
H1298 H 0.52277 0.32767 0.98408 0.0
H1299 H 0.5483 0.39911 0.98957 0.0
H1300 H 0.67525 0.44907 0.9631 0.0
H1301 H 0.68807 0.38405 0.95781 0.0
C1302 C 0.63123 0.31592 0.95368 0.0
C1303 C 0.599 0.28733 0.93915 0.0
C1304 C 0.62532 0.35373 0.96791 0.0
C1305 C 0.56003 0.28901 0.95587 0.0
C1306 C 0.55335 0.32488 0.97576 0.0
C1307 C 0.5789 0.39601 0.98296 0.0
C1308 C 0.61073 0.4287 0.97559 0.0
C1309 C 0.5857 0.35838 0.97754 0.0
C1310 C 0.65016 0.42418 0.96795 0.0
C1311 C 0.65752 0.3871 0.96542 0.0
H1312 H 0.7196 0.41327 0.11733 0.0
H1313 H 0.63308 0.41555 0.21675 0.0
H1314 H 0.58806 0.43378 0.18381 0.0
H1315 H 0.57839 0.45937 0.12935 0.0
H1316 H 0.67062 0.46506 0.03424 0.0
H1317 H 0.70768 0.43288 0.06221 0.0
C1318 C 0.69084 0.41763 0.13181 0.0
C1319 C 0.68016 0.41392 0.16962 0.0
C1320 C 0.66591 0.42944 0.1132 0.0
C1321 C 0.64218 0.41841 0.18763 0.0
C1322 C 0.6165 0.42908 0.16887 0.0
C1323 C 0.60588 0.45227 0.11444 0.0
C1324 C 0.62125 0.46361 0.07934 0.0
C1325 C 0.62867 0.43608 0.13198 0.0
C1326 C 0.65757 0.45542 0.06068 0.0
C1327 C 0.67918 0.43762 0.07697 0.0
H1328 H 0.67013 0.72279 0.22507 0.0
H1329 H 0.78475 0.70918 0.16534 0.0
H1330 H 0.75245 0.66577 0.1139 0.0
H1331 H 0.69188 0.6285 0.08809 0.0
H1332 H 0.57598 0.63415 0.15022 0.0
H1333 H 0.60821 0.68356 0.19907 0.0
C1334 C 0.68776 0.71087 0.20029 0.0
C1335 C 0.7296 0.7199 0.19794 0.0
C1336 C 0.66874 0.68416 0.17181 0.0
C1337 C 0.7525 0.70318 0.16687 0.0
C1338 C 0.73407 0.67823 0.13772 0.0
C1339 C 0.67363 0.64095 0.11208 0.0
C1340 C 0.63174 0.62825 0.1155 0.0
C1341 C 0.69225 0.6681 0.14018 0.0
C1342 C 0.60837 0.64371 0.14712 0.0
C1343 C 0.62676 0.67194 0.1749 0.0
H1344 H 0.49339 0.75567 0.07989 0.0
H1345 H 0.3656 0.7164 0.10145 0.0
H1346 H 0.36878 0.64869 0.07448 0.0
H1347 H 0.40997 0.60016 0.06951 0.0
H1348 H 0.53911 0.64241 0.05506 0.0
H1349 H 0.5337 0.70861 0.05644 0.0
C1350 C 0.46605 0.73261 0.07702 0.0
C1351 C 0.42993 0.73899 0.0974 0.0
C1352 C 0.46892 0.69356 0.06557 0.0
C1353 C 0.39446 0.71085 0.08888 0.0
C1354 C 0.39631 0.67176 0.07473 0.0
C1355 C 0.43683 0.62378 0.06629 0.0
C1356 C 0.4747 0.61657 0.06438 0.0
C1357 C 0.43373 0.66245 0.06735 0.0
C1358 C 0.50934 0.64724 0.05847 0.0
C1359 C 0.50648 0.68524 0.05858 0.0
H1360 H 0.41286 0.35845 0.21957 0.0
H1361 H 0.29662 0.37383 0.2118 0.0
H1362 H 0.32765 0.42318 0.1721 0.0
H1363 H 0.38689 0.45979 0.13667 0.0
H1364 H 0.50393 0.44872 0.14563 0.0
H1365 H 0.47374 0.40122 0.1889 0.0
C1366 C 0.39438 0.37322 0.21002 0.0
C1367 C 0.35232 0.36221 0.21911 0.0
C1368 C 0.41258 0.40268 0.18752 0.0
C1369 C 0.32899 0.38129 0.20545 0.0
C1370 C 0.34669 0.40978 0.18269 0.0
C1371 C 0.40583 0.44753 0.1487 0.0
C1372 C 0.44748 0.45771 0.13814 0.0
C1373 C 0.38831 0.4204 0.17326 0.0
C1374 C 0.47179 0.44168 0.15381 0.0
C1375 C 0.45446 0.41419 0.17818 0.0
H1376 H 0.86528 0.67049 0.73963 0.0
H1377 H 0.83903 0.71744 0.65142 0.0
H1378 H 0.87878 0.67917 0.60554 0.0
H1379 H 0.92369 0.63513 0.59002 0.0
H1380 H 0.95459 0.58866 0.67656 0.0
H1381 H 0.91065 0.62344 0.72312 0.0
C1382 C 0.86834 0.67236 0.71036 0.0
C1383 C 0.84801 0.69667 0.69914 0.0
C1384 C 0.89251 0.65037 0.68373 0.0
C1385 C 0.85248 0.69819 0.66096 0.0
C1386 C 0.87597 0.6766 0.63465 0.0
C1387 C 0.92116 0.63226 0.61902 0.0
C1388 C 0.94324 0.60901 0.62928 0.0
C1389 C 0.89636 0.65284 0.64564 0.0
C1390 C 0.93841 0.60602 0.66733 0.0
C1391 C 0.91332 0.62628 0.69412 0.0
H1392 H 0.39569 0.80892 0.68242 0.0
H1393 H 0.28874 0.8504 0.69387 0.0
H1394 H 0.32049 0.89211 0.64679 0.0
H1395 H 0.37991 0.92021 0.60523 0.0
H1396 H 0.48665 0.87796 0.59149 0.0
H1397 H 0.4533 0.83195 0.63531 0.0
C1398 C 0.37928 0.82672 0.67439 0.0
C1399 C 0.33995 0.82652 0.692 0.0
C1400 C 0.3975 0.85013 0.6464 0.0
C1401 C 0.31906 0.84991 0.68101 0.0
C1402 C 0.33716 0.87378 0.65392 0.0
C1403 C 0.39555 0.90021 0.61111 0.0
C1404 C 0.43562 0.90241 0.595 0.0
C1405 C 0.37645 0.87442 0.6367 0.0
C1406 C 0.45556 0.87641 0.60298 0.0
C1407 C 0.4367 0.85054 0.62852 0.0
H1408 H 0.13384 0.4476 0.73489 0.0
H1409 H 0.22897 0.42858 0.6458 0.0
H1410 H 0.19537 0.44622 0.60231 0.0
H1411 H 0.13859 0.464 0.58876 0.0
H1412 H 0.04151 0.48245 0.67549 0.0
H1413 H 0.077 0.46943 0.7213 0.0
C1414 C 0.14722 0.44767 0.70601 0.0
C1415 C 0.18346 0.43611 0.69337 0.0
C1416 C 0.12767 0.45798 0.68096 0.0
C1417 C 0.20062 0.43637 0.65596 0.0
C1418 C 0.18165 0.44678 0.63114 0.0
C1419 C 0.12507 0.46525 0.61773 0.0
C1420 C 0.08729 0.47349 0.62874 0.0
C1421 C 0.14504 0.45706 0.64324 0.0
C1422 C 0.07063 0.47606 0.66645 0.0
C1423 C 0.09076 0.46834 0.69247 0.0
H1424 H 0.65633 0.20249 0.7339 0.0
H1425 H 0.75964 0.21264 0.64929 0.0
H1426 H 0.71862 0.16607 0.60419 0.0
H1427 H 0.65107 0.12405 0.58827 0.0
H1428 H 0.54997 0.11763 0.67608 0.0
H1429 H 0.59216 0.16116 0.71948 0.0
C1430 C 0.6702 0.19464 0.7056 0.0
C1431 C 0.71117 0.21155 0.69516 0.0
C1432 C 0.64641 0.16849 0.67991 0.0
C1433 C 0.72829 0.20021 0.65835 0.0
C1434 C 0.70464 0.1737 0.63243 0.0
C1435 C 0.63832 0.13217 0.61687 0.0
C1436 C 0.5968 0.11704 0.62828 0.0
C1437 C 0.66329 0.15791 0.64271 0.0
C1438 C 0.58139 0.12816 0.66581 0.0
C1439 C 0.60562 0.15332 0.69105 0.0
H1440 H 0.87065 0.30254 0.36925 0.0
H1441 H 0.84941 0.40346 0.33617 0.0
H1442 H 0.89281 0.44767 0.37993 0.0
H1443 H 0.93917 0.45783 0.4265 0.0
H1444 H 0.96093 0.35577 0.45711 0.0
H1445 H 0.91508 0.31239 0.41584 0.0
C1446 C 0.87533 0.3342 0.37151 0.0
C1447 C 0.85637 0.34937 0.34927 0.0
C1448 C 0.90071 0.35952 0.39647 0.0
C1449 C 0.86307 0.39065 0.353 0.0
C1450 C 0.88814 0.41607 0.378 0.0
C1451 C 0.93378 0.42613 0.42426 0.0
C1452 C 0.95408 0.41042 0.44495 0.0
C1453 C 0.90742 0.40089 0.39978 0.0
C1454 C 0.94627 0.36906 0.44158 0.0
C1455 C 0.91993 0.34403 0.41785 0.0
H1456 H 0.67764 0.80539 0.3765 0.0
H1457 H 0.75547 0.90006 0.32158 0.0
H1458 H 0.7176 0.94562 0.35816 0.0
H1459 H 0.66356 0.96044 0.40573 0.0
H1460 H 0.58426 0.86893 0.46343 0.0
H1461 H 0.62204 0.82138 0.42701 0.0
C1462 C 0.68664 0.83598 0.37277 0.0
C1463 C 0.72046 0.84871 0.34614 0.0
C1464 C 0.66456 0.86315 0.39486 0.0
C1465 C 0.73043 0.88875 0.34174 0.0
C1466 C 0.70859 0.91522 0.36283 0.0
C1467 C 0.65418 0.9302 0.41086 0.0
C1468 C 0.62054 0.91894 0.43792 0.0
C1469 C 0.67584 0.90298 0.38961 0.0
C1470 C 0.60977 0.87912 0.44325 0.0
C1471 C 0.63143 0.8517 0.42212 0.0
H1472 H 0.23178 0.64702 0.33733 0.0
H1473 H 0.22004 0.76119 0.39738 0.0
H1474 H 0.17522 0.73014 0.44746 0.0
H1475 H 0.13666 0.67069 0.47329 0.0
H1476 H 0.1498 0.55619 0.41552 0.0
H1477 H 0.19827 0.58731 0.36666 0.0
C1478 C 0.22052 0.66523 0.36183 0.0
C1479 C 0.22999 0.70661 0.36339 0.0
C1480 C 0.19508 0.64709 0.39125 0.0
C1481 C 0.21353 0.72938 0.39503 0.0
C1482 C 0.18785 0.71162 0.42391 0.0
C1483 C 0.15055 0.65245 0.45034 0.0
C1484 C 0.13935 0.61101 0.44826 0.0
C1485 C 0.1781 0.67052 0.4222 0.0
C1486 C 0.15796 0.58808 0.41822 0.0
C1487 C 0.18541 0.6059 0.38999 0.0
H1488 H 0.43166 0.17957 0.40087 0.0
H1489 H 0.45466 0.10346 0.29677 0.0
H1490 H 0.47551 0.06122 0.32916 0.0
H1491 H 0.49306 0.04879 0.38599 0.0
H1492 H 0.46677 0.12164 0.49091 0.0
H1493 H 0.44029 0.16132 0.45948 0.0
C1494 C 0.44043 0.15335 0.38528 0.0
C1495 C 0.44262 0.14566 0.34607 0.0
C1496 C 0.45185 0.12844 0.40426 0.0
C1497 C 0.45402 0.11124 0.32667 0.0
C1498 C 0.46569 0.08672 0.34522 0.0
C1499 C 0.48089 0.07295 0.40206 0.0
C1500 C 0.48217 0.08242 0.44066 0.0
C1501 C 0.46574 0.09558 0.38383 0.0
C1502 C 0.46595 0.11357 0.46119 0.0
C1503 C 0.45112 0.13651 0.44314 0.0
H1504 H 0.63921 0.94425 0.71065 0.0
H1505 H 0.62858 0.83561 0.63228 0.0
H1506 H 0.60997 0.86625 0.58721 0.0
H1507 H 0.58779 0.92097 0.57333 0.0
H1508 H 0.59178 0.02689 0.65424 0.0
H1509 H 0.62217 1.00061 0.69486 0.0
C1510 C 0.63284 0.92726 0.68371 0.0
C1511 C 0.63486 0.88754 0.67514 0.0
C1512 C 0.62095 0.94468 0.65831 0.0
C1513 C 0.6275 0.8663 0.63967 0.0
C1514 C 0.61659 0.88372 0.61388 0.0
C1515 C 0.59655 0.93862 0.59934 0.0
C1516 C 0.58801 0.97576 0.61089 0.0
C1517 C 0.61216 0.92252 0.62328 0.0
C1518 C 0.59845 0.99825 0.64494 0.0
C1519 C 0.61546 0.98312 0.66822 0.0
H1520 H 0.72346 0.24721 0.39711 0.0
H1521 H 0.70253 0.15691 0.30077 0.0
H1522 H 0.65288 0.11404 0.33914 0.0
H1523 H 0.61915 0.10012 0.39952 0.0
H1524 H 0.64109 0.18599 0.49826 0.0
H1525 H 0.68551 0.2337 0.45932 0.0
C1526 C 0.70789 0.21813 0.38473 0.0
C1527 C 0.71713 0.20486 0.34633 0.0
C1528 C 0.67947 0.19321 0.4072 0.0
C1529 C 0.69659 0.16741 0.33035 0.0
C1530 C 0.66795 0.14301 0.35219 0.0
C1531 C 0.63363 0.12935 0.41267 0.0
C1532 C 0.62782 0.13939 0.45163 0.0
C1533 C 0.65983 0.15533 0.39056 0.0
C1534 C 0.64552 0.17764 0.46827 0.0
C1535 C 0.6711 0.20461 0.44604 0.0
H1536 H 0.87447 0.55127 0.34769 0.0
H1537 H 0.88572 0.67287 0.40001 0.0
H1538 H 0.94507 0.67222 0.42474 0.0
H1539 H 0.98655 0.63455 0.44007 0.0
H1540 H 0.97346 0.5118 0.39232 0.0
H1541 H 0.92251 0.51559 0.35674 0.0
C1542 C 0.88999 0.57767 0.3644 0.0
C1543 C 0.87505 0.61185 0.37249 0.0
C1544 C 0.9236 0.57679 0.37956 0.0
C1545 C 0.89636 0.64616 0.39321 0.0
C1546 C 0.93023 0.64576 0.40763 0.0
C1547 C 0.97304 0.60873 0.42137 0.0
C1548 C 0.98278 0.57262 0.41963 0.0
C1549 C 0.94307 0.61086 0.40219 0.0
C1550 C 0.96599 0.53976 0.39453 0.0
C1551 C 0.93663 0.54188 0.37448 0.0
H1552 H 0.40895 0.84686 0.3131 0.0
H1553 H 0.3029 0.84607 0.39378 0.0
H1554 H 0.34398 0.8898 0.44015 0.0
H1555 H 0.41196 0.92693 0.45836 0.0
H1556 H 0.51602 0.92251 0.37524 0.0
H1557 H 0.47406 0.88178 0.33031 0.0
C1558 C 0.39454 0.85619 0.34081 0.0
C1559 C 0.35275 0.84277 0.34977 0.0
C1560 C 0.41835 0.88025 0.36742 0.0
C1561 C 0.33493 0.85587 0.38583 0.0
C1562 C 0.35857 0.88067 0.41253 0.0
C1563 C 0.42537 0.91688 0.4305 0.0
C1564 C 0.46753 0.92849 0.42062 0.0
C1565 C 0.40061 0.89275 0.40385 0.0
C1566 C 0.48398 0.91491 0.38409 0.0
C1567 C 0.45992 0.89138 0.35802 0.0
H1568 H 0.19063 0.36114 0.30729 0.0
H1569 H 0.24563 0.34409 0.39526 0.0
H1570 H 0.20742 0.38386 0.44076 0.0
H1571 H 0.15628 0.42155 0.4569 0.0
H1572 H 0.09938 0.44056 0.37081 0.0
H1573 H 0.14027 0.40291 0.32369 0.0
C1574 C 0.1942 0.366 0.33641 0.0
C1575 C 0.22159 0.34889 0.34749 0.0
C1576 C 0.17156 0.38963 0.36297 0.0
C1577 C 0.22572 0.35658 0.38547 0.0
C1578 C 0.20344 0.37943 0.41173 0.0
C1579 C 0.15268 0.41784 0.42783 0.0
C1580 C 0.12416 0.43412 0.41789 0.0
C1581 C 0.17606 0.39589 0.40096 0.0
C1582 C 0.1209 0.42886 0.37972 0.0
C1583 C 0.1442 0.4069 0.35267 0.0
H1584 H 0.39523 0.23781 0.68784 0.0
H1585 H 0.29457 0.13908 0.70724 0.0
H1586 H 0.32978 0.09447 0.66469 0.0
H1587 H 0.3898 0.08156 0.62433 0.0
H1588 H 0.49136 0.17802 0.60177 0.0
H1589 H 0.45492 0.22487 0.64166 0.0
C1590 C 0.38076 0.20666 0.68235 0.0
C1591 C 0.34201 0.19224 0.70162 0.0
C1592 C 0.4014 0.1804 0.65693 0.0
C1593 C 0.32426 0.1515 0.69372 0.0
C1594 C 0.34445 0.12567 0.66909 0.0
C1595 C 0.40415 0.11287 0.62768 0.0
C1596 C 0.44373 0.1258 0.60985 0.0
C1597 C 0.38317 0.13955 0.65094 0.0
C1598 C 0.46105 0.16679 0.6147 0.0
C1599 C 0.44022 0.19369 0.63792 0.0
H1600 H 0.83718 0.31611 0.6515 0.0
H1601 H 0.8416 0.4128 0.74302 0.0
H1602 H 0.88517 0.4581 0.70277 0.0
H1603 H 0.9263 0.47009 0.64205 0.0
H1604 H 0.92285 0.37332 0.55077 0.0
H1605 H 0.8747 0.32904 0.58968 0.0
C1606 C 0.84766 0.34709 0.66258 0.0
C1607 C 0.83583 0.36082 0.70039 0.0
C1608 C 0.87286 0.37338 0.639 0.0
C1609 C 0.84969 0.40125 0.71405 0.0
C1610 C 0.8748 0.42734 0.69098 0.0
C1611 C 0.91394 0.43966 0.63036 0.0
C1612 C 0.92779 0.42534 0.59323 0.0
C1613 C 0.88687 0.41383 0.65338 0.0
C1614 C 0.91235 0.38534 0.57904 0.0
C1615 C 0.88508 0.35981 0.60145 0.0
H1616 H 0.20744 0.73833 0.67365 0.0
H1617 H 0.20325 0.64138 0.72856 0.0
H1618 H 0.15889 0.59651 0.68588 0.0
H1619 H 0.11816 0.58514 0.63418 0.0
H1620 H 0.12014 0.68408 0.58278 0.0
H1621 H 0.16765 0.7273 0.62278 0.0
C1622 C 0.19689 0.70738 0.67646 0.0
C1623 C 0.20921 0.69355 0.70452 0.0
C1624 C 0.17047 0.68185 0.65234 0.0
C1625 C 0.19507 0.65311 0.70714 0.0
C1626 C 0.1693 0.62736 0.68279 0.0
C1627 C 0.12928 0.61607 0.63146 0.0
C1628 C 0.11526 0.63104 0.60511 0.0
C1629 C 0.15644 0.64139 0.65536 0.0
C1630 C 0.12996 0.67145 0.60261 0.0
C1631 C 0.15729 0.69636 0.62559 0.0
loop_
_geom_bond_atom_site_label_1
_geom_bond_atom_site_label_2
_geom_bond_distance
_geom_bond_site_symmetry_2
_ccdc_geom_bond_type
C0 C2 1.422 . S
C0 C4 1.415 . S
C0 N6 1.369 . S
C1 C2 1.421 . S
C1 C3 1.417 . S
C1 C13 1.422 . S
C2 C0 1.422 . S
C2 C1 1.421 . S
C2 N12 1.359 . S
C3 C1 1.417 . S
C3 C5 1.329 . S
C3 H22 0.930 . S
C4 C0 1.415 . S
C4 C5 1.437 . S
C4 C8 1.413 . S
C5 C3 1.329 . S
C5 C4 1.437 . S
C5 H27 0.929 . S
N6 C0 1.369 . S
N6 C7 1.338 . S
N6 Gd11 2.622 . S
C7 N6 1.338 . S
C7 C9 1.378 . S
C7 H19 0.929 . S
C8 C4 1.413 . S
C8 C9 1.348 . S
C8 H24 0.931 . S
C9 C7 1.378 . S
C9 C8 1.348 . S
C9 H25 0.930 . S
Gd10 N30 2.622 . S
Gd10 N37 2.570 . S
Gd10 O44 2.353 . S
Gd10 O45 2.468 . S
Gd10 O46 2.427 . S
Gd10 O48 2.388 . S
Gd10 O49 2.386 . S
Gd10 O53 2.307 . S
Gd10 C63 2.805 . S
Gd11 N6 2.622 . S
Gd11 N12 2.570 . S
Gd11 O43 2.386 . S
Gd11 O47 2.307 . S
Gd11 O50 2.353 . S
Gd11 O51 2.468 . S
Gd11 O52 2.427 . S
Gd11 O54 2.388 . S
Gd11 C75 2.805 . S
N12 C2 1.359 . S
N12 Gd11 2.570 . S
N12 C14 1.343 . S
C13 C1 1.422 . S
C13 C15 1.321 . S
C13 H21 0.931 . S
C14 N12 1.343 . S
C14 C15 1.390 . S
C14 H16 0.931 . S
C15 C13 1.321 . S
C15 C14 1.390 . S
C15 H17 0.930 . S
H16 C14 0.931 . S
H17 C15 0.930 . S
H18 C41 0.931 . S
H19 C7 0.929 . S
H20 C42 0.930 . S
H21 C13 0.931 . S
H22 C3 0.930 . S
H23 C32 0.929 . S
H24 C8 0.931 . S
H25 C9 0.930 . S
H26 C64 0.930 . S
H27 C5 0.929 . S
H28 C33 0.931 . S
H29 C34 0.930 . S
N30 Gd10 2.622 . S
N30 C31 1.369 . S
N30 C32 1.338 . S
C31 N30 1.369 . S
C31 C35 1.415 . S
C31 C38 1.422 . S
C32 H23 0.929 . S
C32 N30 1.338 . S
C32 C34 1.378 . S
C33 H28 0.931 . S
C33 C34 1.348 . S
C33 C35 1.413 . S
C34 H29 0.930 . S
C34 C32 1.378 . S
C34 C33 1.348 . S
C35 C31 1.415 . S
C35 C33 1.413 . S
C35 C65 1.437 . S
H36 C65 0.929 . S
N37 Gd10 2.570 . S
N37 C38 1.359 . S
N37 C41 1.343 . S
C38 C31 1.422 . S
C38 N37 1.359 . S
C38 C40 1.421 . S
C39 C40 1.422 . S
C39 C42 1.321 . S
C39 H66 0.931 . S
C40 C38 1.421 . S
C40 C39 1.422 . S
C40 C64 1.417 . S
C41 H18 0.931 . S
C41 N37 1.343 . S
C41 C42 1.390 . S
C42 H20 0.930 . S
C42 C39 1.321 . S
C42 C41 1.390 . S
O43 Gd11 2.386 . S
O43 C55 1.265 . S
O44 Gd10 2.353 . S
O44 C55 1.242 . S
O45 Gd10 2.468 . S
O45 C63 1.263 . S
O46 Gd10 2.427 . S
O46 C63 1.252 . S
O47 Gd11 2.307 . S
O47 C56 1.261 . S
O48 Gd10 2.388 . S
O48 C56 1.252 . S
O49 Gd10 2.386 . S
O49 C67 1.265 . S
O50 Gd11 2.353 . S
O50 C67 1.242 . S
O51 Gd11 2.468 . S
O51 C75 1.263 . S
O52 Gd11 2.427 . S
O52 C75 1.252 . S
O53 Gd10 2.307 . S
O53 C68 1.261 . S
O54 Gd11 2.388 . S
O54 C68 1.252 . S
C55 O43 1.265 . S
C55 O44 1.242 . S
C56 O47 1.261 . S
C56 O48 1.252 . S
C57 C60 1.394 . S
C57 C62 1.370 . S
C57 C63 1.500 . S
C58 C61 1.383 . S
C58 C62 1.395 . S
C59 C60 1.396 . S
C59 C61 1.365 . S
C59 H76 0.929 . S
C60 C57 1.394 . S
C60 C59 1.396 . S
C60 H77 0.930 . S
C61 C58 1.383 . S
C61 C59 1.365 . S
C61 H78 0.931 . S
C62 C57 1.370 . S
C62 C58 1.395 . S
C62 H79 0.930 . S
C63 Gd10 2.805 . S
C63 O45 1.263 . S
C63 O46 1.252 . S
C63 C57 1.500 . S
C64 H26 0.930 . S
C64 C40 1.417 . S
C64 C65 1.329 . S
C65 C35 1.437 . S
C65 H36 0.929 . S
C65 C64 1.329 . S
H66 C39 0.931 . S
C67 O49 1.265 . S
C67 O50 1.242 . S
C68 O53 1.261 . S
C68 O54 1.252 . S
C69 C72 1.394 . S
C69 C74 1.370 . S
C69 C75 1.500 . S
C70 C73 1.383 . S
C70 C74 1.395 . S
C71 C72 1.396 . S
C71 C73 1.365 . S
C71 H80 0.929 . S
C72 C69 1.394 . S
C72 C71 1.396 . S
C72 H81 0.930 . S
C73 C70 1.383 . S
C73 C71 1.365 . S
C73 H82 0.931 . S
C74 C69 1.370 . S
C74 C70 1.395 . S
C74 H83 0.930 . S
C75 Gd11 2.805 . S
C75 O51 1.263 . S
C75 O52 1.252 . S
C75 C69 1.500 . S
H76 C59 0.929 . S
H77 C60 0.930 . S
H78 C61 0.931 . S
H79 C62 0.930 . S
H80 C71 0.929 . S
H81 C72 0.930 . S
H82 C73 0.931 . S
H83 C74 0.930 . S
C84 C86 1.422 . S
C84 C88 1.415 . S
C84 N90 1.369 . S
C85 C86 1.421 . S
C85 C87 1.417 . S
C85 C97 1.422 . S
C86 C84 1.422 . S
C86 C85 1.421 . S
C86 N96 1.359 . S
C87 C85 1.417 . S
C87 C89 1.329 . S
C87 H106 0.930 . S
C88 C84 1.415 . S
C88 C89 1.437 . S
C88 C92 1.413 . S
C89 C87 1.329 . S
C89 C88 1.437 . S
C89 H111 0.929 . S
N90 C84 1.369 . S
N90 C91 1.338 . S
N90 Gd95 2.622 . S
C91 N90 1.338 . S
C91 C93 1.378 . S
C91 H103 0.929 . S
C92 C88 1.413 . S
C92 C93 1.348 . S
C92 H108 0.931 . S
C93 C91 1.378 . S
C93 C92 1.348 . S
C93 H109 0.930 . S
Gd94 N114 2.622 . S
Gd94 N121 2.570 . S
Gd94 O128 2.353 . S
Gd94 O129 2.468 . S
Gd94 O130 2.427 . S
Gd94 O132 2.388 . S
Gd94 O133 2.386 . S
Gd94 O137 2.307 . S
Gd94 C147 2.805 . S
Gd95 N90 2.622 . S
Gd95 N96 2.570 . S
Gd95 O127 2.386 . S
Gd95 O131 2.307 . S
Gd95 O134 2.353 . S
Gd95 O135 2.468 . S
Gd95 O136 2.427 . S
Gd95 O138 2.388 . S
Gd95 C159 2.805 . S
N96 C86 1.359 . S
N96 Gd95 2.570 . S
N96 C98 1.343 . S
C97 C85 1.422 . S
C97 C99 1.321 . S
C97 H105 0.931 . S
C98 N96 1.343 . S
C98 C99 1.390 . S
C98 H100 0.931 . S
C99 C97 1.321 . S
C99 C98 1.390 . S
C99 H101 0.930 . S
H100 C98 0.931 . S
H101 C99 0.930 . S
H102 C125 0.931 . S
H103 C91 0.929 . S
H104 C126 0.930 . S
H105 C97 0.931 . S
H106 C87 0.930 . S
H107 C116 0.929 . S
H108 C92 0.931 . S
H109 C93 0.930 . S
H110 C148 0.930 . S
H111 C89 0.929 . S
H112 C117 0.931 . S
H113 C118 0.930 . S
N114 Gd94 2.622 . S
N114 C115 1.369 . S
N114 C116 1.338 . S
C115 N114 1.369 . S
C115 C119 1.415 . S
C115 C122 1.422 . S
C116 H107 0.929 . S
C116 N114 1.338 . S
C116 C118 1.378 . S
C117 H112 0.931 . S
C117 C118 1.348 . S
C117 C119 1.413 . S
C118 H113 0.930 . S
C118 C116 1.378 . S
C118 C117 1.348 . S
C119 C115 1.415 . S
C119 C117 1.413 . S
C119 C149 1.437 . S
H120 C149 0.929 . S
N121 Gd94 2.570 . S
N121 C122 1.359 . S
N121 C125 1.343 . S
C122 C115 1.422 . S
C122 N121 1.359 . S
C122 C124 1.421 . S
C123 C124 1.422 . S
C123 C126 1.321 . S
C123 H150 0.931 . S
C124 C122 1.421 . S
C124 C123 1.422 . S
C124 C148 1.417 . S
C125 H102 0.931 . S
C125 N121 1.343 . S
C125 C126 1.390 . S
C126 H104 0.930 . S
C126 C123 1.321 . S
C126 C125 1.390 . S
O127 Gd95 2.386 . S
O127 C139 1.265 . S
O128 Gd94 2.353 . S
O128 C139 1.242 . S
O129 Gd94 2.468 . S
O129 C147 1.263 . S
O130 Gd94 2.427 . S
O130 C147 1.252 . S
O131 Gd95 2.307 . S
O131 C140 1.261 . S
O132 Gd94 2.388 . S
O132 C140 1.252 . S
O133 Gd94 2.386 . S
O133 C151 1.265 . S
O134 Gd95 2.353 . S
O134 C151 1.242 . S
O135 Gd95 2.468 . S
O135 C159 1.263 . S
O136 Gd95 2.427 . S
O136 C159 1.252 . S
O137 Gd94 2.307 . S
O137 C152 1.261 . S
O138 Gd95 2.388 . S
O138 C152 1.252 . S
C139 O127 1.265 . S
C139 O128 1.242 . S
C140 O131 1.261 . S
C140 O132 1.252 . S
C141 C144 1.394 . S
C141 C146 1.370 . S
C141 C147 1.500 . S
C142 C145 1.383 . S
C142 C146 1.395 . S
C143 C144 1.396 . S
C143 C145 1.365 . S
C143 H160 0.929 . S
C144 C141 1.394 . S
C144 C143 1.396 . S
C144 H161 0.930 . S
C145 C142 1.383 . S
C145 C143 1.365 . S
C145 H162 0.931 . S
C146 C141 1.370 . S
C146 C142 1.395 . S
C146 H163 0.930 . S
C147 Gd94 2.805 . S
C147 O129 1.263 . S
C147 O130 1.252 . S
C147 C141 1.500 . S
C148 H110 0.930 . S
C148 C124 1.417 . S
C148 C149 1.329 . S
C149 C119 1.437 . S
C149 H120 0.929 . S
C149 C148 1.329 . S
H150 C123 0.931 . S
C151 O133 1.265 . S
C151 O134 1.242 . S
C152 O137 1.261 . S
C152 O138 1.252 . S
C153 C156 1.394 . S
C153 C158 1.370 . S
C153 C159 1.500 . S
C154 C157 1.383 . S
C154 C158 1.395 . S
C155 C156 1.396 . S
C155 C157 1.365 . S
C155 H164 0.929 . S
C156 C153 1.394 . S
C156 C155 1.396 . S
C156 H165 0.930 . S
C157 C154 1.383 . S
C157 C155 1.365 . S
C157 H166 0.931 . S
C158 C153 1.370 . S
C158 C154 1.395 . S
C158 H167 0.930 . S
C159 Gd95 2.805 . S
C159 O135 1.263 . S
C159 O136 1.252 . S
C159 C153 1.500 . S
H160 C143 0.929 . S
H161 C144 0.930 . S
H162 C145 0.931 . S
H163 C146 0.930 . S
H164 C155 0.929 . S
H165 C156 0.930 . S
H166 C157 0.931 . S
H167 C158 0.930 . S
C168 C170 1.422 . S
C168 C172 1.415 . S
C168 N174 1.369 . S
C169 C170 1.421 . S
C169 C171 1.417 . S
C169 C181 1.422 . S
C170 C168 1.422 . S
C170 C169 1.421 . S
C170 N180 1.359 . S
C171 C169 1.417 . S
C171 C173 1.329 . S
C171 H190 0.930 . S
C172 C168 1.415 . S
C172 C173 1.437 . S
C172 C176 1.413 . S
C173 C171 1.329 . S
C173 C172 1.437 . S
C173 H195 0.929 . S
N174 C168 1.369 . S
N174 C175 1.338 . S
N174 Gd179 2.622 . S
C175 N174 1.338 . S
C175 C177 1.378 . S
C175 H187 0.929 . S
C176 C172 1.413 . S
C176 C177 1.348 . S
C176 H192 0.931 . S
C177 C175 1.378 . S
C177 C176 1.348 . S
C177 H193 0.930 . S
Gd178 N198 2.622 . S
Gd178 N205 2.570 . S
Gd178 O212 2.353 . S
Gd178 O213 2.468 . S
Gd178 O214 2.427 . S
Gd178 O216 2.388 . S
Gd178 O217 2.386 . S
Gd178 O221 2.307 . S
Gd178 C231 2.805 . S
Gd179 N174 2.622 . S
Gd179 N180 2.570 . S
Gd179 O211 2.386 . S
Gd179 O215 2.307 . S
Gd179 O218 2.353 . S
Gd179 O219 2.468 . S
Gd179 O220 2.427 . S
Gd179 O222 2.388 . S
Gd179 C243 2.805 . S
N180 C170 1.359 . S
N180 Gd179 2.570 . S
N180 C182 1.343 . S
C181 C169 1.422 . S
C181 C183 1.321 . S
C181 H189 0.931 . S
C182 N180 1.343 . S
C182 C183 1.390 . S
C182 H184 0.931 . S
C183 C181 1.321 . S
C183 C182 1.390 . S
C183 H185 0.930 . S
H184 C182 0.931 . S
H185 C183 0.930 . S
H186 C209 0.931 . S
H187 C175 0.929 . S
H188 C210 0.930 . S
H189 C181 0.931 . S
H190 C171 0.930 . S
H191 C200 0.929 . S
H192 C176 0.931 . S
H193 C177 0.930 . S
H194 C232 0.930 . S
H195 C173 0.929 . S
H196 C201 0.931 . S
H197 C202 0.930 . S
N198 Gd178 2.622 . S
N198 C199 1.369 . S
N198 C200 1.338 . S
C199 N198 1.369 . S
C199 C203 1.415 . S
C199 C206 1.422 . S
C200 H191 0.929 . S
C200 N198 1.338 . S
C200 C202 1.378 . S
C201 H196 0.931 . S
C201 C202 1.348 . S
C201 C203 1.413 . S
C202 H197 0.930 . S
C202 C200 1.378 . S
C202 C201 1.348 . S
C203 C199 1.415 . S
C203 C201 1.413 . S
C203 C233 1.437 . S
H204 C233 0.929 . S
N205 Gd178 2.570 . S
N205 C206 1.359 . S
N205 C209 1.343 . S
C206 C199 1.422 . S
C206 N205 1.359 . S
C206 C208 1.421 . S
C207 C208 1.422 . S
C207 C210 1.321 . S
C207 H234 0.931 . S
C208 C206 1.421 . S
C208 C207 1.422 . S
C208 C232 1.417 . S
C209 H186 0.931 . S
C209 N205 1.343 . S
C209 C210 1.390 . S
C210 H188 0.930 . S
C210 C207 1.321 . S
C210 C209 1.390 . S
O211 Gd179 2.386 . S
O211 C223 1.265 . S
O212 Gd178 2.353 . S
O212 C223 1.242 . S
O213 Gd178 2.468 . S
O213 C231 1.263 . S
O214 Gd178 2.427 . S
O214 C231 1.252 . S
O215 Gd179 2.307 . S
O215 C224 1.261 . S
O216 Gd178 2.388 . S
O216 C224 1.252 . S
O217 Gd178 2.386 . S
O217 C235 1.265 . S
O218 Gd179 2.353 . S
O218 C235 1.242 . S
O219 Gd179 2.468 . S
O219 C243 1.263 . S
O220 Gd179 2.427 . S
O220 C243 1.252 . S
O221 Gd178 2.307 . S
O221 C236 1.261 . S
O222 Gd179 2.388 . S
O222 C236 1.252 . S
C223 O211 1.265 . S
C223 O212 1.242 . S
C224 O215 1.261 . S
C224 O216 1.252 . S
C225 C228 1.394 . S
C225 C230 1.370 . S
C225 C231 1.500 . S
C226 C229 1.383 . S
C226 C230 1.395 . S
C227 C228 1.396 . S
C227 C229 1.365 . S
C227 H244 0.929 . S
C228 C225 1.394 . S
C228 C227 1.396 . S
C228 H245 0.930 . S
C229 C226 1.383 . S
C229 C227 1.365 . S
C229 H246 0.931 . S
C230 C225 1.370 . S
C230 C226 1.395 . S
C230 H247 0.930 . S
C231 Gd178 2.805 . S
C231 O213 1.263 . S
C231 O214 1.252 . S
C231 C225 1.500 . S
C232 H194 0.930 . S
C232 C208 1.417 . S
C232 C233 1.329 . S
C233 C203 1.437 . S
C233 H204 0.929 . S
C233 C232 1.329 . S
H234 C207 0.931 . S
C235 O217 1.265 . S
C235 O218 1.242 . S
C236 O221 1.261 . S
C236 O222 1.252 . S
C237 C240 1.394 . S
C237 C242 1.370 . S
C237 C243 1.500 . S
C238 C241 1.383 . S
C238 C242 1.395 . S
C239 C240 1.396 . S
C239 C241 1.365 . S
C239 H248 0.929 . S
C240 C237 1.394 . S
C240 C239 1.396 . S
C240 H249 0.930 . S
C241 C238 1.383 . S
C241 C239 1.365 . S
C241 H250 0.931 . S
C242 C237 1.370 . S
C242 C238 1.395 . S
C242 H251 0.930 . S
C243 Gd179 2.805 . S
C243 O219 1.263 . S
C243 O220 1.252 . S
C243 C237 1.500 . S
H244 C227 0.929 . S
H245 C228 0.930 . S
H246 C229 0.931 . S
H247 C230 0.930 . S
H248 C239 0.929 . S
H249 C240 0.930 . S
H250 C241 0.931 . S
H251 C242 0.930 . S
C252 C254 1.422 . S
C252 C256 1.415 . S
C252 N258 1.369 . S
C253 C254 1.421 . S
C253 C255 1.417 . S
C253 C265 1.422 . S
C254 C252 1.422 . S
C254 C253 1.421 . S
C254 N264 1.359 . S
C255 C253 1.417 . S
C255 C257 1.329 . S
C255 H274 0.930 . S
C256 C252 1.415 . S
C256 C257 1.437 . S
C256 C260 1.413 . S
C257 C255 1.329 . S
C257 C256 1.437 . S
C257 H279 0.929 . S
N258 C252 1.369 . S
N258 C259 1.338 . S
N258 Gd263 2.622 . S
C259 N258 1.338 . S
C259 C261 1.378 . S
C259 H271 0.929 . S
C260 C256 1.413 . S
C260 C261 1.348 . S
C260 H276 0.931 . S
C261 C259 1.378 . S
C261 C260 1.348 . S
C261 H277 0.930 . S
Gd262 N282 2.622 . S
Gd262 N289 2.570 . S
Gd262 O296 2.353 . S
Gd262 O297 2.468 . S
Gd262 O298 2.427 . S
Gd262 O300 2.388 . S
Gd262 O301 2.386 . S
Gd262 O305 2.307 . S
Gd262 C315 2.805 . S
Gd263 N258 2.622 . S
Gd263 N264 2.570 . S
Gd263 O295 2.386 . S
Gd263 O299 2.307 . S
Gd263 O302 2.353 . S
Gd263 O303 2.468 . S
Gd263 O304 2.427 . S
Gd263 O306 2.388 . S
Gd263 C327 2.805 . S
N264 C254 1.359 . S
N264 Gd263 2.570 . S
N264 C266 1.343 . S
C265 C253 1.422 . S
C265 C267 1.321 . S
C265 H273 0.931 . S
C266 N264 1.343 . S
C266 C267 1.390 . S
C266 H268 0.931 . S
C267 C265 1.321 . S
C267 C266 1.390 . S
C267 H269 0.930 . S
H268 C266 0.931 . S
H269 C267 0.930 . S
H270 C293 0.931 . S
H271 C259 0.929 . S
H272 C294 0.930 . S
H273 C265 0.931 . S
H274 C255 0.930 . S
H275 C284 0.929 . S
H276 C260 0.931 . S
H277 C261 0.930 . S
H278 C316 0.930 . S
H279 C257 0.929 . S
H280 C285 0.931 . S
H281 C286 0.930 . S
N282 Gd262 2.622 . S
N282 C283 1.369 . S
N282 C284 1.338 . S
C283 N282 1.369 . S
C283 C287 1.415 . S
C283 C290 1.422 . S
C284 H275 0.929 . S
C284 N282 1.338 . S
C284 C286 1.378 . S
C285 H280 0.931 . S
C285 C286 1.348 . S
C285 C287 1.413 . S
C286 H281 0.930 . S
C286 C284 1.378 . S
C286 C285 1.348 . S
C287 C283 1.415 . S
C287 C285 1.413 . S
C287 C317 1.437 . S
H288 C317 0.929 . S
N289 Gd262 2.570 . S
N289 C290 1.359 . S
N289 C293 1.343 . S
C290 C283 1.422 . S
C290 N289 1.359 . S
C290 C292 1.421 . S
C291 C292 1.422 . S
C291 C294 1.321 . S
C291 H318 0.931 . S
C292 C290 1.421 . S
C292 C291 1.422 . S
C292 C316 1.417 . S
C293 H270 0.931 . S
C293 N289 1.343 . S
C293 C294 1.390 . S
C294 H272 0.930 . S
C294 C291 1.321 . S
C294 C293 1.390 . S
O295 Gd263 2.386 . S
O295 C307 1.265 . S
O296 Gd262 2.353 . S
O296 C307 1.242 . S
O297 Gd262 2.468 . S
O297 C315 1.263 . S
O298 Gd262 2.427 . S
O298 C315 1.252 . S
O299 Gd263 2.307 . S
O299 C308 1.261 . S
O300 Gd262 2.388 . S
O300 C308 1.252 . S
O301 Gd262 2.386 . S
O301 C319 1.265 . S
O302 Gd263 2.353 . S
O302 C319 1.242 . S
O303 Gd263 2.468 . S
O303 C327 1.263 . S
O304 Gd263 2.427 . S
O304 C327 1.252 . S
O305 Gd262 2.307 . S
O305 C320 1.261 . S
O306 Gd263 2.388 . S
O306 C320 1.252 . S
C307 O295 1.265 . S
C307 O296 1.242 . S
C308 O299 1.261 . S
C308 O300 1.252 . S
C309 C312 1.394 . S
C309 C314 1.370 . S
C309 C315 1.500 . S
C310 C313 1.383 . S
C310 C314 1.395 . S
C311 C312 1.396 . S
C311 C313 1.365 . S
C311 H328 0.929 . S
C312 C309 1.394 . S
C312 C311 1.396 . S
C312 H329 0.930 . S
C313 C310 1.383 . S
C313 C311 1.365 . S
C313 H330 0.931 . S
C314 C309 1.370 . S
C314 C310 1.395 . S
C314 H331 0.930 . S
C315 Gd262 2.805 . S
C315 O297 1.263 . S
C315 O298 1.252 . S
C315 C309 1.500 . S
C316 H278 0.930 . S
C316 C292 1.417 . S
C316 C317 1.329 . S
C317 C287 1.437 . S
C317 H288 0.929 . S
C317 C316 1.329 . S
H318 C291 0.931 . S
C319 O301 1.265 . S
C319 O302 1.242 . S
C320 O305 1.261 . S
C320 O306 1.252 . S
C321 C324 1.394 . S
C321 C326 1.370 . S
C321 C327 1.500 . S
C322 C325 1.383 . S
C322 C326 1.395 . S
C323 C324 1.396 . S
C323 C325 1.365 . S
C323 H332 0.929 . S
C324 C321 1.394 . S
C324 C323 1.396 . S
C324 H333 0.930 . S
C325 C322 1.383 . S
C325 C323 1.365 . S
C325 H334 0.931 . S
C326 C321 1.370 . S
C326 C322 1.395 . S
C326 H335 0.930 . S
C327 Gd263 2.805 . S
C327 O303 1.263 . S
C327 O304 1.252 . S
C327 C321 1.500 . S
H328 C311 0.929 . S
H329 C312 0.930 . S
H330 C313 0.931 . S
H331 C314 0.930 . S
H332 C323 0.929 . S
H333 C324 0.930 . S
H334 C325 0.931 . S
H335 C326 0.930 . S
C336 C338 1.422 . S
C336 C340 1.415 . S
C336 N342 1.369 . S
C337 C338 1.421 . S
C337 C339 1.417 . S
C337 C349 1.422 . S
C338 C336 1.422 . S
C338 C337 1.421 . S
C338 N348 1.359 . S
C339 C337 1.417 . S
C339 C341 1.329 . S
C339 H358 0.930 . S
C340 C336 1.415 . S
C340 C341 1.437 . S
C340 C344 1.413 . S
C341 C339 1.329 . S
C341 C340 1.437 . S
C341 H363 0.929 . S
N342 C336 1.369 . S
N342 C343 1.338 . S
N342 Gd347 2.622 . S
C343 N342 1.338 . S
C343 C345 1.378 . S
C343 H355 0.929 . S
C344 C340 1.413 . S
C344 C345 1.348 . S
C344 H360 0.931 . S
C345 C343 1.378 . S
C345 C344 1.348 . S
C345 H361 0.930 . S
Gd346 N366 2.622 . S
Gd346 N373 2.570 . S
Gd346 O380 2.353 . S
Gd346 O381 2.468 . S
Gd346 O382 2.427 . S
Gd346 O384 2.388 . S
Gd346 O385 2.386 . S
Gd346 O389 2.307 . S
Gd346 C399 2.805 . S
Gd347 N342 2.622 . S
Gd347 N348 2.570 . S
Gd347 O379 2.386 . S
Gd347 O383 2.307 . S
Gd347 O386 2.353 . S
Gd347 O387 2.468 . S
Gd347 O388 2.427 . S
Gd347 O390 2.388 . S
Gd347 C411 2.805 . S
N348 C338 1.359 . S
N348 Gd347 2.570 . S
N348 C350 1.343 . S
C349 C337 1.422 . S
C349 C351 1.321 . S
C349 H357 0.931 . S
C350 N348 1.343 . S
C350 C351 1.390 . S
C350 H352 0.931 . S
C351 C349 1.321 . S
C351 C350 1.390 . S
C351 H353 0.930 . S
H352 C350 0.931 . S
H353 C351 0.930 . S
H354 C377 0.931 . S
H355 C343 0.929 . S
H356 C378 0.930 . S
H357 C349 0.931 . S
H358 C339 0.930 . S
H359 C368 0.929 . S
H360 C344 0.931 . S
H361 C345 0.930 . S
H362 C400 0.930 . S
H363 C341 0.929 . S
H364 C369 0.931 . S
H365 C370 0.930 . S
N366 Gd346 2.622 . S
N366 C367 1.369 . S
N366 C368 1.338 . S
C367 N366 1.369 . S
C367 C371 1.415 . S
C367 C374 1.422 . S
C368 H359 0.929 . S
C368 N366 1.338 . S
C368 C370 1.378 . S
C369 H364 0.931 . S
C369 C370 1.348 . S
C369 C371 1.413 . S
C370 H365 0.930 . S
C370 C368 1.378 . S
C370 C369 1.348 . S
C371 C367 1.415 . S
C371 C369 1.413 . S
C371 C401 1.437 . S
H372 C401 0.929 . S
N373 Gd346 2.570 . S
N373 C374 1.359 . S
N373 C377 1.343 . S
C374 C367 1.422 . S
C374 N373 1.359 . S
C374 C376 1.421 . S
C375 C376 1.422 . S
C375 C378 1.321 . S
C375 H402 0.931 . S
C376 C374 1.421 . S
C376 C375 1.422 . S
C376 C400 1.417 . S
C377 H354 0.931 . S
C377 N373 1.343 . S
C377 C378 1.390 . S
C378 H356 0.930 . S
C378 C375 1.321 . S
C378 C377 1.390 . S
O379 Gd347 2.386 . S
O379 C391 1.265 . S
O380 Gd346 2.353 . S
O380 C391 1.242 . S
O381 Gd346 2.468 . S
O381 C399 1.263 . S
O382 Gd346 2.427 . S
O382 C399 1.252 . S
O383 Gd347 2.307 . S
O383 C392 1.261 . S
O384 Gd346 2.388 . S
O384 C392 1.252 . S
O385 Gd346 2.386 . S
O385 C403 1.265 . S
O386 Gd347 2.353 . S
O386 C403 1.242 . S
O387 Gd347 2.468 . S
O387 C411 1.263 . S
O388 Gd347 2.427 . S
O388 C411 1.252 . S
O389 Gd346 2.307 . S
O389 C404 1.261 . S
O390 Gd347 2.388 . S
O390 C404 1.252 . S
C391 O379 1.265 . S
C391 O380 1.242 . S
C392 O383 1.261 . S
C392 O384 1.252 . S
C393 C396 1.394 . S
C393 C398 1.370 . S
C393 C399 1.500 . S
C394 C397 1.383 . S
C394 C398 1.395 . S
C395 C396 1.396 . S
C395 C397 1.365 . S
C395 H412 0.929 . S
C396 C393 1.394 . S
C396 C395 1.396 . S
C396 H413 0.930 . S
C397 C394 1.383 . S
C397 C395 1.365 . S
C397 H414 0.931 . S
C398 C393 1.370 . S
C398 C394 1.395 . S
C398 H415 0.930 . S
C399 Gd346 2.805 . S
C399 O381 1.263 . S
C399 O382 1.252 . S
C399 C393 1.500 . S
C400 H362 0.930 . S
C400 C376 1.417 . S
C400 C401 1.329 . S
C401 C371 1.437 . S
C401 H372 0.929 . S
C401 C400 1.329 . S
H402 C375 0.931 . S
C403 O385 1.265 . S
C403 O386 1.242 . S
C404 O389 1.261 . S
C404 O390 1.252 . S
C405 C408 1.394 . S
C405 C410 1.370 . S
C405 C411 1.500 . S
C406 C409 1.383 . S
C406 C410 1.395 . S
C407 C408 1.396 . S
C407 C409 1.365 . S
C407 H416 0.929 . S
C408 C405 1.394 . S
C408 C407 1.396 . S
C408 H417 0.930 . S
C409 C406 1.383 . S
C409 C407 1.365 . S
C409 H418 0.931 . S
C410 C405 1.370 . S
C410 C406 1.395 . S
C410 H419 0.930 . S
C411 Gd347 2.805 . S
C411 O387 1.263 . S
C411 O388 1.252 . S
C411 C405 1.500 . S
H412 C395 0.929 . S
H413 C396 0.930 . S
H414 C397 0.931 . S
H415 C398 0.930 . S
H416 C407 0.929 . S
H417 C408 0.930 . S
H418 C409 0.931 . S
H419 C410 0.930 . S
C420 C422 1.422 . S
C420 C424 1.415 . S
C420 N426 1.369 . S
C421 C422 1.421 . S
C421 C423 1.417 . S
C421 C433 1.422 . S
C422 C420 1.422 . S
C422 C421 1.421 . S
C422 N432 1.359 . S
C423 C421 1.417 . S
C423 C425 1.329 . S
C423 H442 0.930 . S
C424 C420 1.415 . S
C424 C425 1.437 . S
C424 C428 1.413 . S
C425 C423 1.329 . S
C425 C424 1.437 . S
C425 H447 0.929 . S
N426 C420 1.369 . S
N426 C427 1.338 . S
N426 Gd431 2.622 . S
C427 N426 1.338 . S
C427 C429 1.378 . S
C427 H439 0.929 . S
C428 C424 1.413 . S
C428 C429 1.348 . S
C428 H444 0.931 . S
C429 C427 1.378 . S
C429 C428 1.348 . S
C429 H445 0.930 . S
Gd430 N450 2.622 . S
Gd430 N457 2.570 . S
Gd430 O464 2.353 . S
Gd430 O465 2.468 . S
Gd430 O466 2.427 . S
Gd430 O468 2.388 . S
Gd430 O469 2.386 . S
Gd430 O473 2.307 . S
Gd430 C483 2.805 . S
Gd431 N426 2.622 . S
Gd431 N432 2.570 . S
Gd431 O463 2.386 . S
Gd431 O467 2.307 . S
Gd431 O470 2.353 . S
Gd431 O471 2.468 . S
Gd431 O472 2.427 . S
Gd431 O474 2.388 . S
Gd431 C495 2.805 . S
N432 C422 1.359 . S
N432 Gd431 2.570 . S
N432 C434 1.343 . S
C433 C421 1.422 . S
C433 C435 1.321 . S
C433 H441 0.931 . S
C434 N432 1.343 . S
C434 C435 1.390 . S
C434 H436 0.931 . S
C435 C433 1.321 . S
C435 C434 1.390 . S
C435 H437 0.930 . S
H436 C434 0.931 . S
H437 C435 0.930 . S
H438 C461 0.931 . S
H439 C427 0.929 . S
H440 C462 0.930 . S
H441 C433 0.931 . S
H442 C423 0.930 . S
H443 C452 0.929 . S
H444 C428 0.931 . S
H445 C429 0.930 . S
H446 C484 0.930 . S
H447 C425 0.929 . S
H448 C453 0.931 . S
H449 C454 0.930 . S
N450 Gd430 2.622 . S
N450 C451 1.369 . S
N450 C452 1.338 . S
C451 N450 1.369 . S
C451 C455 1.415 . S
C451 C458 1.422 . S
C452 H443 0.929 . S
C452 N450 1.338 . S
C452 C454 1.378 . S
C453 H448 0.931 . S
C453 C454 1.348 . S
C453 C455 1.413 . S
C454 H449 0.930 . S
C454 C452 1.378 . S
C454 C453 1.348 . S
C455 C451 1.415 . S
C455 C453 1.413 . S
C455 C485 1.437 . S
H456 C485 0.929 . S
N457 Gd430 2.570 . S
N457 C458 1.359 . S
N457 C461 1.343 . S
C458 C451 1.422 . S
C458 N457 1.359 . S
C458 C460 1.421 . S
C459 C460 1.422 . S
C459 C462 1.321 . S
C459 H486 0.931 . S
C460 C458 1.421 . S
C460 C459 1.422 . S
C460 C484 1.417 . S
C461 H438 0.931 . S
C461 N457 1.343 . S
C461 C462 1.390 . S
C462 H440 0.930 . S
C462 C459 1.321 . S
C462 C461 1.390 . S
O463 Gd431 2.386 . S
O463 C475 1.265 . S
O464 Gd430 2.353 . S
O464 C475 1.242 . S
O465 Gd430 2.468 . S
O465 C483 1.263 . S
O466 Gd430 2.427 . S
O466 C483 1.252 . S
O467 Gd431 2.307 . S
O467 C476 1.261 . S
O468 Gd430 2.388 . S
O468 C476 1.252 . S
O469 Gd430 2.386 . S
O469 C487 1.265 . S
O470 Gd431 2.353 . S
O470 C487 1.242 . S
O471 Gd431 2.468 . S
O471 C495 1.263 . S
O472 Gd431 2.427 . S
O472 C495 1.252 . S
O473 Gd430 2.307 . S
O473 C488 1.261 . S
O474 Gd431 2.388 . S
O474 C488 1.252 . S
C475 O463 1.265 . S
C475 O464 1.242 . S
C476 O467 1.261 . S
C476 O468 1.252 . S
C477 C480 1.394 . S
C477 C482 1.370 . S
C477 C483 1.500 . S
C478 C481 1.383 . S
C478 C482 1.395 . S
C479 C480 1.396 . S
C479 C481 1.365 . S
C479 H496 0.929 . S
C480 C477 1.394 . S
C480 C479 1.396 . S
C480 H497 0.930 . S
C481 C478 1.383 . S
C481 C479 1.365 . S
C481 H498 0.931 . S
C482 C477 1.370 . S
C482 C478 1.395 . S
C482 H499 0.930 . S
C483 Gd430 2.805 . S
C483 O465 1.263 . S
C483 O466 1.252 . S
C483 C477 1.500 . S
C484 H446 0.930 . S
C484 C460 1.417 . S
C484 C485 1.329 . S
C485 C455 1.437 . S
C485 H456 0.929 . S
C485 C484 1.329 . S
H486 C459 0.931 . S
C487 O469 1.265 . S
C487 O470 1.242 . S
C488 O473 1.261 . S
C488 O474 1.252 . S
C489 C492 1.394 . S
C489 C494 1.370 . S
C489 C495 1.500 . S
C490 C493 1.383 . S
C490 C494 1.395 . S
C491 C492 1.396 . S
C491 C493 1.365 . S
C491 H500 0.929 . S
C492 C489 1.394 . S
C492 C491 1.396 . S
C492 H501 0.930 . S
C493 C490 1.383 . S
C493 C491 1.365 . S
C493 H502 0.931 . S
C494 C489 1.370 . S
C494 C490 1.395 . S
C494 H503 0.930 . S
C495 Gd431 2.805 . S
C495 O471 1.263 . S
C495 O472 1.252 . S
C495 C489 1.500 . S
H496 C479 0.929 . S
H497 C480 0.930 . S
H498 C481 0.931 . S
H499 C482 0.930 . S
H500 C491 0.929 . S
H501 C492 0.930 . S
H502 C493 0.931 . S
H503 C494 0.930 . S
C504 C506 1.422 . S
C504 C508 1.415 . S
C504 N510 1.369 . S
C505 C506 1.421 . S
C505 C507 1.417 . S
C505 C517 1.422 . S
C506 C504 1.422 . S
C506 C505 1.421 . S
C506 N516 1.359 . S
C507 C505 1.417 . S
C507 C509 1.329 . S
C507 H526 0.930 . S
C508 C504 1.415 . S
C508 C509 1.437 . S
C508 C512 1.413 . S
C509 C507 1.329 . S
C509 C508 1.437 . S
C509 H531 0.929 . S
N510 C504 1.369 . S
N510 C511 1.338 . S
N510 Gd515 2.622 . S
C511 N510 1.338 . S
C511 C513 1.378 . S
C511 H523 0.929 . S
C512 C508 1.413 . S
C512 C513 1.348 . S
C512 H528 0.931 . S
C513 C511 1.378 . S
C513 C512 1.348 . S
C513 H529 0.930 . S
Gd514 N534 2.622 . S
Gd514 N541 2.570 . S
Gd514 O548 2.353 . S
Gd514 O549 2.468 . S
Gd514 O550 2.427 . S
Gd514 O552 2.388 . S
Gd514 O553 2.386 . S
Gd514 O557 2.307 . S
Gd514 C567 2.805 . S
Gd515 N510 2.622 . S
Gd515 N516 2.570 . S
Gd515 O547 2.386 . S
Gd515 O551 2.307 . S
Gd515 O554 2.353 . S
Gd515 O555 2.468 . S
Gd515 O556 2.427 . S
Gd515 O558 2.388 . S
Gd515 C579 2.805 . S
N516 C506 1.359 . S
N516 Gd515 2.570 . S
N516 C518 1.343 . S
C517 C505 1.422 . S
C517 C519 1.321 . S
C517 H525 0.931 . S
C518 N516 1.343 . S
C518 C519 1.390 . S
C518 H520 0.931 . S
C519 C517 1.321 . S
C519 C518 1.390 . S
C519 H521 0.930 . S
H520 C518 0.931 . S
H521 C519 0.930 . S
H522 C545 0.931 . S
H523 C511 0.929 . S
H524 C546 0.930 . S
H525 C517 0.931 . S
H526 C507 0.930 . S
H527 C536 0.929 . S
H528 C512 0.931 . S
H529 C513 0.930 . S
H530 C568 0.930 . S
H531 C509 0.929 . S
H532 C537 0.931 . S
H533 C538 0.930 . S
N534 Gd514 2.622 . S
N534 C535 1.369 . S
N534 C536 1.338 . S
C535 N534 1.369 . S
C535 C539 1.415 . S
C535 C542 1.422 . S
C536 H527 0.929 . S
C536 N534 1.338 . S
C536 C538 1.378 . S
C537 H532 0.931 . S
C537 C538 1.348 . S
C537 C539 1.413 . S
C538 H533 0.930 . S
C538 C536 1.378 . S
C538 C537 1.348 . S
C539 C535 1.415 . S
C539 C537 1.413 . S
C539 C569 1.437 . S
H540 C569 0.929 . S
N541 Gd514 2.570 . S
N541 C542 1.359 . S
N541 C545 1.343 . S
C542 C535 1.422 . S
C542 N541 1.359 . S
C542 C544 1.421 . S
C543 C544 1.422 . S
C543 C546 1.321 . S
C543 H570 0.931 . S
C544 C542 1.421 . S
C544 C543 1.422 . S
C544 C568 1.417 . S
C545 H522 0.931 . S
C545 N541 1.343 . S
C545 C546 1.390 . S
C546 H524 0.930 . S
C546 C543 1.321 . S
C546 C545 1.390 . S
O547 Gd515 2.386 . S
O547 C559 1.265 . S
O548 Gd514 2.353 . S
O548 C559 1.242 . S
O549 Gd514 2.468 . S
O549 C567 1.263 . S
O550 Gd514 2.427 . S
O550 C567 1.252 . S
O551 Gd515 2.307 . S
O551 C560 1.261 . S
O552 Gd514 2.388 . S
O552 C560 1.252 . S
O553 Gd514 2.386 . S
O553 C571 1.265 . S
O554 Gd515 2.353 . S
O554 C571 1.242 . S
O555 Gd515 2.468 . S
O555 C579 1.263 . S
O556 Gd515 2.427 . S
O556 C579 1.252 . S
O557 Gd514 2.307 . S
O557 C572 1.261 . S
O558 Gd515 2.388 . S
O558 C572 1.252 . S
C559 O547 1.265 . S
C559 O548 1.242 . S
C560 O551 1.261 . S
C560 O552 1.252 . S
C561 C564 1.394 . S
C561 C566 1.370 . S
C561 C567 1.500 . S
C562 C565 1.383 . S
C562 C566 1.395 . S
C563 C564 1.396 . S
C563 C565 1.365 . S
C563 H580 0.929 . S
C564 C561 1.394 . S
C564 C563 1.396 . S
C564 H581 0.930 . S
C565 C562 1.383 . S
C565 C563 1.365 . S
C565 H582 0.931 . S
C566 C561 1.370 . S
C566 C562 1.395 . S
C566 H583 0.930 . S
C567 Gd514 2.805 . S
C567 O549 1.263 . S
C567 O550 1.252 . S
C567 C561 1.500 . S
C568 H530 0.930 . S
C568 C544 1.417 . S
C568 C569 1.329 . S
C569 C539 1.437 . S
C569 H540 0.929 . S
C569 C568 1.329 . S
H570 C543 0.931 . S
C571 O553 1.265 . S
C571 O554 1.242 . S
C572 O557 1.261 . S
C572 O558 1.252 . S
C573 C576 1.394 . S
C573 C578 1.370 . S
C573 C579 1.500 . S
C574 C577 1.383 . S
C574 C578 1.395 . S
C575 C576 1.396 . S
C575 C577 1.365 . S
C575 H584 0.929 . S
C576 C573 1.394 . S
C576 C575 1.396 . S
C576 H585 0.930 . S
C577 C574 1.383 . S
C577 C575 1.365 . S
C577 H586 0.931 . S
C578 C573 1.370 . S
C578 C574 1.395 . S
C578 H587 0.930 . S
C579 Gd515 2.805 . S
C579 O555 1.263 . S
C579 O556 1.252 . S
C579 C573 1.500 . S
H580 C563 0.929 . S
H581 C564 0.930 . S
H582 C565 0.931 . S
H583 C566 0.930 . S
H584 C575 0.929 . S
H585 C576 0.930 . S
H586 C577 0.931 . S
H587 C578 0.930 . S
C588 C590 1.422 . S
C588 C592 1.415 . S
C588 N594 1.369 . S
C589 C590 1.421 . S
C589 C591 1.417 . S
C589 C601 1.422 . S
C590 C588 1.422 . S
C590 C589 1.421 . S
C590 N600 1.359 . S
C591 C589 1.417 . S
C591 C593 1.329 . S
C591 H610 0.930 . S
C592 C588 1.415 . S
C592 C593 1.437 . S
C592 C596 1.413 . S
C593 C591 1.329 . S
C593 C592 1.437 . S
C593 H615 0.929 . S
N594 C588 1.369 . S
N594 C595 1.338 . S
N594 Gd599 2.622 . S
C595 N594 1.338 . S
C595 C597 1.378 . S
C595 H607 0.929 . S
C596 C592 1.413 . S
C596 C597 1.348 . S
C596 H612 0.931 . S
C597 C595 1.378 . S
C597 C596 1.348 . S
C597 H613 0.930 . S
Gd598 N618 2.622 . S
Gd598 N625 2.570 . S
Gd598 O632 2.353 . S
Gd598 O633 2.468 . S
Gd598 O634 2.427 . S
Gd598 O636 2.388 . S
Gd598 O637 2.386 . S
Gd598 O641 2.307 . S
Gd598 C651 2.805 . S
Gd599 N594 2.622 . S
Gd599 N600 2.570 . S
Gd599 O631 2.386 . S
Gd599 O635 2.307 . S
Gd599 O638 2.353 . S
Gd599 O639 2.468 . S
Gd599 O640 2.427 . S
Gd599 O642 2.388 . S
Gd599 C663 2.805 . S
N600 C590 1.359 . S
N600 Gd599 2.570 . S
N600 C602 1.343 . S
C601 C589 1.422 . S
C601 C603 1.321 . S
C601 H609 0.931 . S
C602 N600 1.343 . S
C602 C603 1.390 . S
C602 H604 0.931 . S
C603 C601 1.321 . S
C603 C602 1.390 . S
C603 H605 0.930 . S
H604 C602 0.931 . S
H605 C603 0.930 . S
H606 C629 0.931 . S
H607 C595 0.929 . S
H608 C630 0.930 . S
H609 C601 0.931 . S
H610 C591 0.930 . S
H611 C620 0.929 . S
H612 C596 0.931 . S
H613 C597 0.930 . S
H614 C652 0.930 . S
H615 C593 0.929 . S
H616 C621 0.931 . S
H617 C622 0.930 . S
N618 Gd598 2.622 . S
N618 C619 1.369 . S
N618 C620 1.338 . S
C619 N618 1.369 . S
C619 C623 1.415 . S
C619 C626 1.422 . S
C620 H611 0.929 . S
C620 N618 1.338 . S
C620 C622 1.378 . S
C621 H616 0.931 . S
C621 C622 1.348 . S
C621 C623 1.413 . S
C622 H617 0.930 . S
C622 C620 1.378 . S
C622 C621 1.348 . S
C623 C619 1.415 . S
C623 C621 1.413 . S
C623 C653 1.437 . S
H624 C653 0.929 . S
N625 Gd598 2.570 . S
N625 C626 1.359 . S
N625 C629 1.343 . S
C626 C619 1.422 . S
C626 N625 1.359 . S
C626 C628 1.421 . S
C627 C628 1.422 . S
C627 C630 1.321 . S
C627 H654 0.931 . S
C628 C626 1.421 . S
C628 C627 1.422 . S
C628 C652 1.417 . S
C629 H606 0.931 . S
C629 N625 1.343 . S
C629 C630 1.390 . S
C630 H608 0.930 . S
C630 C627 1.321 . S
C630 C629 1.390 . S
O631 Gd599 2.386 . S
O631 C643 1.265 . S
O632 Gd598 2.353 . S
O632 C643 1.242 . S
O633 Gd598 2.468 . S
O633 C651 1.263 . S
O634 Gd598 2.427 . S
O634 C651 1.252 . S
O635 Gd599 2.307 . S
O635 C644 1.261 . S
O636 Gd598 2.388 . S
O636 C644 1.252 . S
O637 Gd598 2.386 . S
O637 C655 1.265 . S
O638 Gd599 2.353 . S
O638 C655 1.242 . S
O639 Gd599 2.468 . S
O639 C663 1.263 . S
O640 Gd599 2.427 . S
O640 C663 1.252 . S
O641 Gd598 2.307 . S
O641 C656 1.261 . S
O642 Gd599 2.388 . S
O642 C656 1.252 . S
C643 O631 1.265 . S
C643 O632 1.242 . S
C644 O635 1.261 . S
C644 O636 1.252 . S
C645 C648 1.394 . S
C645 C650 1.370 . S
C645 C651 1.500 . S
C646 C649 1.383 . S
C646 C650 1.395 . S
C647 C648 1.396 . S
C647 C649 1.365 . S
C647 H664 0.929 . S
C648 C645 1.394 . S
C648 C647 1.396 . S
C648 H665 0.930 . S
C649 C646 1.383 . S
C649 C647 1.365 . S
C649 H666 0.931 . S
C650 C645 1.370 . S
C650 C646 1.395 . S
C650 H667 0.930 . S
C651 Gd598 2.805 . S
C651 O633 1.263 . S
C651 O634 1.252 . S
C651 C645 1.500 . S
C652 H614 0.930 . S
C652 C628 1.417 . S
C652 C653 1.329 . S
C653 C623 1.437 . S
C653 H624 0.929 . S
C653 C652 1.329 . S
H654 C627 0.931 . S
C655 O637 1.265 . S
C655 O638 1.242 . S
C656 O641 1.261 . S
C656 O642 1.252 . S
C657 C660 1.394 . S
C657 C662 1.370 . S
C657 C663 1.500 . S
C658 C661 1.383 . S
C658 C662 1.395 . S
C659 C660 1.396 . S
C659 C661 1.365 . S
C659 H668 0.929 . S
C660 C657 1.394 . S
C660 C659 1.396 . S
C660 H669 0.930 . S
C661 C658 1.383 . S
C661 C659 1.365 . S
C661 H670 0.931 . S
C662 C657 1.370 . S
C662 C658 1.395 . S
C662 H671 0.930 . S
C663 Gd599 2.805 . S
C663 O639 1.263 . S
C663 O640 1.252 . S
C663 C657 1.500 . S
H664 C647 0.929 . S
H665 C648 0.930 . S
H666 C649 0.931 . S
H667 C650 0.930 . S
H668 C659 0.929 . S
H669 C660 0.930 . S
H670 C661 0.931 . S
H671 C662 0.930 . S
Fe672 O673 1.886 1_455 S
Fe672 O676 1.715 . S
Fe672 O681 2.077 1_455 S
Fe672 O686 1.935 . S
Fe672 O692 2.077 1_455 S
Fe672 O701 1.935 . S
O673 Fe672 1.886 1_655 S
O673 Fe675 1.715 1_545 S
Fe674 O676 1.886 . S
Fe674 O677 1.715 1_545 S
Fe674 O684 1.935 1_545 S
Fe674 O685 2.077 . S
Fe674 O691 1.935 1_545 S
Fe674 O700 2.077 . S
Fe675 O673 1.715 1_565 S
Fe675 O678 1.886 . S
Fe675 O682 1.935 1_565 S
Fe675 O687 2.077 . S
Fe675 O693 1.935 1_565 S
Fe675 O697 2.077 . S
O676 Fe672 1.715 . S
O676 Fe674 1.886 . S
O677 Fe674 1.715 1_565 S
O677 Fe679 1.886 1_455 S
O678 Fe675 1.886 . S
O678 Fe679 1.715 . S
Fe679 O677 1.886 1_655 S
Fe679 O678 1.715 . S
Fe679 O683 2.077 1_655 S
Fe679 O688 1.935 . S
Fe679 O690 2.077 1_655 S
Fe679 O698 1.935 . S
C680 O692 1.381 . S
C680 O693 1.421 . S
O681 Fe672 2.077 1_655 S
O681 C694 1.381 . S
O682 Fe675 1.935 1_545 S
O682 C694 1.421 . S
O683 Fe679 2.077 1_455 S
O683 C699 1.381 . S
O684 Fe674 1.935 1_565 S
O684 C699 1.421 . S
O685 Fe674 2.077 . S
O685 C689 1.381 . S
O686 Fe672 1.935 . S
O686 C689 1.421 . S
O687 Fe675 2.077 . S
O687 C695 1.381 . S
O688 Fe679 1.935 . S
O688 C695 1.421 . S
C689 O685 1.381 . S
C689 O686 1.421 . S
O690 Fe679 2.077 1_455 S
O690 C702 1.381 . S
O691 Fe674 1.935 1_565 S
O691 C702 1.421 . S
O692 Fe672 2.077 1_655 S
O692 C680 1.381 . S
O693 Fe675 1.935 1_545 S
O693 C680 1.421 . S
C694 O681 1.381 . S
C694 O682 1.421 . S
C695 O687 1.381 . S
C695 O688 1.421 . S
C696 O697 1.381 . S
C696 O698 1.421 . S
O697 Fe675 2.077 . S
O697 C696 1.381 . S
O698 Fe679 1.935 . S
O698 C696 1.421 . S
C699 O683 1.381 . S
C699 O684 1.421 . S
O700 Fe674 2.077 . S
O700 C703 1.381 . S
O701 Fe672 1.935 . S
O701 C703 1.421 . S
C702 O690 1.381 . S
C702 O691 1.421 . S
C703 O700 1.381 . S
C703 O701 1.421 . S
Fe704 O705 1.886 . S
Fe704 O708 1.714 . S
Fe704 O713 2.077 . S
Fe704 O718 1.935 . S
Fe704 O724 2.077 1_556 S
Fe704 O733 1.935 1_556 S
O705 Fe704 1.886 . S
O705 Fe707 1.715 1_565 S
Fe706 O708 1.886 1_554 S
Fe706 O709 1.715 1_565 S
Fe706 O716 1.935 1_564 S
Fe706 O717 2.077 1_554 S
Fe706 O723 1.935 1_565 S
Fe706 O732 2.077 . S
Fe707 O705 1.715 1_545 S
Fe707 O710 1.887 1_556 S
Fe707 O714 1.935 1_545 S
Fe707 O719 2.077 . S
Fe707 O725 1.935 1_546 S
Fe707 O729 2.077 1_556 S
O708 Fe704 1.714 . S
O708 Fe706 1.886 1_556 S
O709 Fe706 1.715 1_545 S
O709 Fe711 1.886 . S
O710 Fe707 1.887 1_554 S
O710 Fe711 1.714 . S
Fe711 O709 1.886 . S
Fe711 O710 1.714 . S
Fe711 O715 2.077 1_554 S
Fe711 O720 1.935 1_554 S
Fe711 O722 2.077 . S
Fe711 O730 1.935 . S
C712 O724 1.381 . S
C712 O725 1.421 . S
O713 Fe704 2.077 . S
O713 C726 1.381 . S
O714 Fe707 1.935 1_565 S
O714 C726 1.421 . S
O715 Fe711 2.077 1_556 S
O715 C731 1.381 . S
O716 Fe706 1.935 1_546 S
O716 C731 1.421 . S
O717 Fe706 2.077 1_556 S
O717 C721 1.381 . S
O718 Fe704 1.935 . S
O718 C721 1.421 . S
O719 Fe707 2.077 . S
O719 C727 1.381 . S
O720 Fe711 1.935 1_556 S
O720 C727 1.421 . S
C721 O717 1.381 . S
C721 O718 1.421 . S
O722 Fe711 2.077 . S
O722 C734 1.381 . S
O723 Fe706 1.935 1_545 S
O723 C734 1.421 . S
O724 Fe704 2.077 1_554 S
O724 C712 1.381 . S
O725 Fe707 1.935 1_564 S
O725 C712 1.421 . S
C726 O713 1.381 . S
C726 O714 1.421 . S
C727 O719 1.381 . S
C727 O720 1.421 . S
C728 O729 1.381 . S
C728 O730 1.421 . S
O729 Fe707 2.077 1_554 S
O729 C728 1.381 . S
O730 Fe711 1.935 . S
O730 C728 1.421 . S
C731 O715 1.381 . S
C731 O716 1.421 . S
O732 Fe706 2.077 . S
O732 C735 1.381 . S
O733 Fe704 1.935 1_554 S
O733 C735 1.421 . S
C734 O722 1.381 . S
C734 O723 1.421 . S
C735 O732 1.381 . S
C735 O733 1.421 . S
Fe736 O737 1.886 1_455 S
Fe736 O740 1.714 . S
Fe736 O745 2.077 1_454 S
Fe736 O750 1.935 1_554 S
Fe736 O756 2.077 1_455 S
Fe736 O765 1.935 . S
O737 Fe736 1.886 1_655 S
O737 Fe739 1.715 . S
Fe738 O740 1.887 1_556 S
Fe738 O741 1.715 . S
Fe738 O748 1.935 . S
Fe738 O749 2.077 . S
Fe738 O755 1.935 1_556 S
Fe738 O764 2.077 1_556 S
Fe739 O737 1.715 . S
Fe739 O742 1.886 1_554 S
Fe739 O746 1.935 1_554 S
Fe739 O751 2.077 1_554 S
Fe739 O757 1.935 . S
Fe739 O761 2.077 . S
O740 Fe736 1.714 . S
O740 Fe738 1.887 1_554 S
O741 Fe738 1.715 . S
O741 Fe743 1.886 1_455 S
O742 Fe739 1.886 1_556 S
O742 Fe743 1.715 . S
Fe743 O741 1.886 1_655 S
Fe743 O742 1.715 . S
Fe743 O747 2.077 1_655 S
Fe743 O752 1.935 . S
Fe743 O754 2.077 1_656 S
Fe743 O762 1.935 1_556 S
C744 O756 1.381 . S
C744 O757 1.421 . S
O745 Fe736 2.077 1_656 S
O745 C758 1.381 . S
O746 Fe739 1.935 1_556 S
O746 C758 1.421 . S
O747 Fe743 2.077 1_455 S
O747 C763 1.381 . S
O748 Fe738 1.935 . S
O748 C763 1.421 . S
O749 Fe738 2.077 . S
O749 C753 1.381 . S
O750 Fe736 1.935 1_556 S
O750 C753 1.421 . S
O751 Fe739 2.077 1_556 S
O751 C759 1.381 . S
O752 Fe743 1.935 . S
O752 C759 1.421 . S
C753 O749 1.381 . S
C753 O750 1.421 . S
O754 Fe743 2.077 1_454 S
O754 C766 1.381 . S
O755 Fe738 1.935 1_554 S
O755 C766 1.421 . S
O756 Fe736 2.077 1_655 S
O756 C744 1.381 . S
O757 Fe739 1.935 . S
O757 C744 1.421 . S
C758 O745 1.381 . S
C758 O746 1.421 . S
C759 O751 1.381 . S
C759 O752 1.421 . S
C760 O761 1.381 . S
C760 O762 1.421 . S
O761 Fe739 2.077 . S
O761 C760 1.381 . S
O762 Fe743 1.935 1_554 S
O762 C760 1.421 . S
C763 O747 1.381 . S
C763 O748 1.421 . S
O764 Fe738 2.077 1_554 S
O764 C767 1.381 . S
O765 Fe736 1.935 . S
O765 C767 1.421 . S
C766 O754 1.381 . S
C766 O755 1.421 . S
C767 O764 1.381 . S
C767 O765 1.421 . S
Fe768 O769 1.886 . S
Fe768 O772 1.715 . S
Fe768 O777 2.077 . S
Fe768 O782 1.935 . S
Fe768 O788 2.077 . S
Fe768 O797 1.935 . S
O769 Fe768 1.886 . S
O769 Fe771 1.715 . S
Fe770 O772 1.886 1_554 S
Fe770 O773 1.715 . S
Fe770 O780 1.935 . S
Fe770 O781 2.077 1_554 S
Fe770 O787 1.935 . S
Fe770 O796 2.077 1_554 S
Fe771 O769 1.715 . S
Fe771 O774 1.886 1_556 S
Fe771 O778 1.935 . S
Fe771 O783 2.077 1_556 S
Fe771 O789 1.935 . S
Fe771 O793 2.077 1_556 S
O772 Fe768 1.715 . S
O772 Fe770 1.886 1_556 S
O773 Fe770 1.715 . S
O773 Fe775 1.886 . S
O774 Fe771 1.886 1_554 S
O774 Fe775 1.715 . S
Fe775 O773 1.886 . S
Fe775 O774 1.715 . S
Fe775 O779 2.077 . S
Fe775 O784 1.935 . S
Fe775 O786 2.077 . S
Fe775 O794 1.935 . S
C776 O788 1.381 . S
C776 O789 1.421 . S
O777 Fe768 2.077 . S
O777 C790 1.381 . S
O778 Fe771 1.935 . S
O778 C790 1.421 . S
O779 Fe775 2.077 . S
O779 C795 1.381 . S
O780 Fe770 1.935 . S
O780 C795 1.421 . S
O781 Fe770 2.077 1_556 S
O781 C785 1.381 . S
O782 Fe768 1.935 . S
O782 C785 1.421 . S
O783 Fe771 2.077 1_554 S
O783 C791 1.381 . S
O784 Fe775 1.935 . S
O784 C791 1.421 . S
C785 O781 1.381 . S
C785 O782 1.421 . S
O786 Fe775 2.077 . S
O786 C798 1.381 . S
O787 Fe770 1.935 . S
O787 C798 1.421 . S
O788 Fe768 2.077 . S
O788 C776 1.381 . S
O789 Fe771 1.935 . S
O789 C776 1.421 . S
C790 O777 1.381 . S
C790 O778 1.421 . S
C791 O783 1.381 . S
C791 O784 1.421 . S
C792 O793 1.381 . S
C792 O794 1.421 . S
O793 Fe771 2.077 1_554 S
O793 C792 1.381 . S
O794 Fe775 1.935 . S
O794 C792 1.421 . S
C795 O779 1.381 . S
C795 O780 1.421 . S
O796 Fe770 2.077 1_556 S
O796 C799 1.381 . S
O797 Fe768 1.935 . S
O797 C799 1.421 . S
C798 O786 1.381 . S
C798 O787 1.421 . S
C799 O796 1.381 . S
C799 O797 1.421 . S
Fe800 O801 1.886 . S
Fe800 O804 1.715 . S
Fe800 O809 2.077 1_655 S
Fe800 O814 1.935 1_655 S
Fe800 O820 2.077 . S
Fe800 O829 1.935 . S
O801 Fe800 1.886 . S
O801 Fe803 1.715 . S
Fe802 O804 1.886 1_455 S
Fe802 O805 1.715 . S
Fe802 O812 1.935 . S
Fe802 O813 2.077 . S
Fe802 O819 1.935 1_455 S
Fe802 O828 2.077 1_455 S
Fe803 O801 1.715 . S
Fe803 O806 1.886 1_655 S
Fe803 O810 1.935 1_655 S
Fe803 O815 2.077 1_655 S
Fe803 O821 1.935 . S
Fe803 O825 2.077 . S
O804 Fe800 1.715 . S
O804 Fe802 1.886 1_655 S
O805 Fe802 1.715 . S
O805 Fe807 1.886 . S
O806 Fe803 1.886 1_455 S
O806 Fe807 1.715 . S
Fe807 O805 1.886 . S
Fe807 O806 1.715 . S
Fe807 O811 2.077 . S
Fe807 O816 1.935 . S
Fe807 O818 2.077 1_455 S
Fe807 O826 1.935 1_455 S
C808 O820 1.381 . S
C808 O821 1.421 . S
O809 Fe800 2.077 1_455 S
O809 C822 1.381 . S
O810 Fe803 1.935 1_455 S
O810 C822 1.421 . S
O811 Fe807 2.077 . S
O811 C827 1.381 . S
O812 Fe802 1.935 . S
O812 C827 1.421 . S
O813 Fe802 2.077 . S
O813 C817 1.381 . S
O814 Fe800 1.935 1_455 S
O814 C817 1.421 . S
O815 Fe803 2.077 1_455 S
O815 C823 1.381 . S
O816 Fe807 1.935 . S
O816 C823 1.421 . S
C817 O813 1.381 . S
C817 O814 1.421 . S
O818 Fe807 2.077 1_655 S
O818 C830 1.381 . S
O819 Fe802 1.935 1_655 S
O819 C830 1.421 . S
O820 Fe800 2.077 . S
O820 C808 1.381 . S
O821 Fe803 1.935 . S
O821 C808 1.421 . S
C822 O809 1.381 . S
C822 O810 1.421 . S
C823 O815 1.381 . S
C823 O816 1.421 . S
C824 O825 1.381 . S
C824 O826 1.421 . S
O825 Fe803 2.077 . S
O825 C824 1.381 . S
O826 Fe807 1.935 1_655 S
O826 C824 1.421 . S
C827 O811 1.381 . S
C827 O812 1.421 . S
O828 Fe802 2.077 1_655 S
O828 C831 1.381 . S
O829 Fe800 1.935 . S
O829 C831 1.421 . S
C830 O818 1.381 . S
C830 O819 1.421 . S
C831 O828 1.381 . S
C831 O829 1.421 . S
Fe832 O833 1.886 . S
Fe832 O836 1.715 . S
Fe832 O841 2.077 . S
Fe832 O846 1.935 . S
Fe832 O852 2.077 . S
Fe832 O861 1.935 . S
O833 Fe832 1.886 . S
O833 Fe835 1.715 1_565 S
Fe834 O836 1.886 . S
Fe834 O837 1.715 1_565 S
Fe834 O844 1.935 1_565 S
Fe834 O845 2.077 . S
Fe834 O851 1.935 1_565 S
Fe834 O860 2.077 . S
Fe835 O833 1.715 1_545 S
Fe835 O838 1.886 . S
Fe835 O842 1.935 1_545 S
Fe835 O847 2.077 . S
Fe835 O853 1.935 1_545 S
Fe835 O857 2.077 . S
O836 Fe832 1.715 . S
O836 Fe834 1.886 . S
O837 Fe834 1.715 1_545 S
O837 Fe839 1.886 . S
O838 Fe835 1.886 . S
O838 Fe839 1.715 . S
Fe839 O837 1.886 . S
Fe839 O838 1.715 . S
Fe839 O843 2.077 . S
Fe839 O848 1.935 . S
Fe839 O850 2.077 . S
Fe839 O858 1.935 . S
C840 O852 1.381 . S
C840 O853 1.421 . S
O841 Fe832 2.077 . S
O841 C854 1.381 . S
O842 Fe835 1.935 1_565 S
O842 C854 1.421 . S
O843 Fe839 2.077 . S
O843 C859 1.381 . S
O844 Fe834 1.935 1_545 S
O844 C859 1.421 . S
O845 Fe834 2.077 . S
O845 C849 1.381 . S
O846 Fe832 1.935 . S
O846 C849 1.421 . S
O847 Fe835 2.077 . S
O847 C855 1.381 . S
O848 Fe839 1.935 . S
O848 C855 1.421 . S
C849 O845 1.381 . S
C849 O846 1.421 . S
O850 Fe839 2.077 . S
O850 C862 1.381 . S
O851 Fe834 1.935 1_545 S
O851 C862 1.421 . S
O852 Fe832 2.077 . S
O852 C840 1.381 . S
O853 Fe835 1.935 1_565 S
O853 C840 1.421 . S
C854 O841 1.381 . S
C854 O842 1.421 . S
C855 O847 1.381 . S
C855 O848 1.421 . S
C856 O857 1.381 . S
C856 O858 1.421 . S
O857 Fe835 2.077 . S
O857 C856 1.381 . S
O858 Fe839 1.935 . S
O858 C856 1.421 . S
C859 O843 1.381 . S
C859 O844 1.421 . S
O860 Fe834 2.077 . S
O860 C863 1.381 . S
O861 Fe832 1.935 . S
O861 C863 1.421 . S
C862 O850 1.381 . S
C862 O851 1.421 . S
C863 O860 1.381 . S
C863 O861 1.421 . S
H864 C870 0.930 . S
H865 C873 0.930 . S
H866 C874 0.930 . S
H867 C875 0.930 . S
H868 C878 0.930 . S
H869 C879 0.930 . S
C870 H864 0.930 . S
C870 C871 1.355 . S
C870 C872 1.415 . S
C871 C870 1.355 . S
C871 C873 1.419 . S
C872 C870 1.415 . S
C872 C877 1.425 . S
C872 C879 1.409 . S
C873 H865 0.930 . S
C873 C871 1.419 . S
C873 C874 1.362 . S
C874 H866 0.930 . S
C874 C873 1.362 . S
C874 C877 1.409 . S
C875 H867 0.930 . S
C875 C876 1.355 . S
C875 C877 1.415 . S
C876 C875 1.355 . S
C876 C878 1.419 . S
C877 C872 1.425 . S
C877 C874 1.409 . S
C877 C875 1.415 . S
C878 H868 0.930 . S
C878 C876 1.419 . S
C878 C879 1.362 . S
C879 H869 0.930 . S
C879 C872 1.409 . S
C879 C878 1.362 . S
H880 C886 0.930 . S
H881 C889 0.930 . S
H882 C890 0.930 . S
H883 C891 0.930 . S
H884 C894 0.930 . S
H885 C895 0.930 . S
C886 H880 0.930 . S
C886 C887 1.355 . S
C886 C888 1.415 . S
C887 C886 1.355 . S
C887 C889 1.419 . S
C888 C886 1.415 . S
C888 C893 1.425 . S
C888 C895 1.409 . S
C889 H881 0.930 . S
C889 C887 1.419 . S
C889 C890 1.362 . S
C890 H882 0.930 . S
C890 C889 1.362 . S
C890 C893 1.409 . S
C891 H883 0.930 . S
C891 C892 1.355 . S
C891 C893 1.415 . S
C892 C891 1.355 . S
C892 C894 1.419 . S
C893 C888 1.425 . S
C893 C890 1.409 . S
C893 C891 1.415 . S
C894 H884 0.930 . S
C894 C892 1.419 . S
C894 C895 1.362 . S
C895 H885 0.930 . S
C895 C888 1.409 . S
C895 C894 1.362 . S
H896 C902 0.930 . S
H897 C905 0.930 . S
H898 C906 0.930 . S
H899 C907 0.930 . S
H900 C910 0.930 . S
H901 C911 0.930 . S
C902 H896 0.930 . S
C902 C903 1.355 . S
C902 C904 1.415 . S
C903 C902 1.355 . S
C903 C905 1.419 . S
C904 C902 1.415 . S
C904 C909 1.425 . S
C904 C911 1.409 . S
C905 H897 0.930 . S
C905 C903 1.419 . S
C905 C906 1.362 . S
C906 H898 0.930 . S
C906 C905 1.362 . S
C906 C909 1.409 . S
C907 H899 0.930 . S
C907 C908 1.355 . S
C907 C909 1.415 . S
C908 C907 1.355 . S
C908 C910 1.419 . S
C909 C904 1.425 . S
C909 C906 1.409 . S
C909 C907 1.415 . S
C910 H900 0.930 . S
C910 C908 1.419 . S
C910 C911 1.362 . S
C911 H901 0.930 . S
C911 C904 1.409 . S
C911 C910 1.362 . S
H912 C918 0.930 . S
H913 C921 0.930 . S
H914 C922 0.930 . S
H915 C923 0.930 . S
H916 C926 0.930 . S
H917 C927 0.930 . S
C918 H912 0.930 . S
C918 C919 1.355 . S
C918 C920 1.415 . S
C919 C918 1.355 . S
C919 C921 1.419 . S
C920 C918 1.415 . S
C920 C925 1.425 . S
C920 C927 1.409 . S
C921 H913 0.930 . S
C921 C919 1.419 . S
C921 C922 1.362 . S
C922 H914 0.930 . S
C922 C921 1.362 . S
C922 C925 1.409 . S
C923 H915 0.930 . S
C923 C924 1.355 . S
C923 C925 1.415 . S
C924 C923 1.355 . S
C924 C926 1.419 . S
C925 C920 1.425 . S
C925 C922 1.409 . S
C925 C923 1.415 . S
C926 H916 0.930 . S
C926 C924 1.419 . S
C926 C927 1.362 . S
C927 H917 0.930 . S
C927 C920 1.409 . S
C927 C926 1.362 . S
H928 C934 0.930 . S
H929 C937 0.930 . S
H930 C938 0.930 . S
H931 C939 0.930 . S
H932 C942 0.930 . S
H933 C943 0.930 . S
C934 H928 0.930 . S
C934 C935 1.355 . S
C934 C936 1.415 . S
C935 C934 1.355 . S
C935 C937 1.419 . S
C936 C934 1.415 . S
C936 C941 1.425 . S
C936 C943 1.409 . S
C937 H929 0.930 . S
C937 C935 1.419 . S
C937 C938 1.362 . S
C938 H930 0.930 . S
C938 C937 1.362 . S
C938 C941 1.409 . S
C939 H931 0.930 . S
C939 C940 1.355 . S
C939 C941 1.415 . S
C940 C939 1.355 . S
C940 C942 1.419 . S
C941 C936 1.425 . S
C941 C938 1.409 . S
C941 C939 1.415 . S
C942 H932 0.930 . S
C942 C940 1.419 . S
C942 C943 1.362 . S
C943 H933 0.930 . S
C943 C936 1.409 . S
C943 C942 1.362 . S
H944 C950 0.930 . S
H945 C953 0.930 . S
H946 C954 0.930 . S
H947 C955 0.930 . S
H948 C958 0.930 . S
H949 C959 0.930 . S
C950 H944 0.930 . S
C950 C951 1.355 . S
C950 C952 1.415 . S
C951 C950 1.355 . S
C951 C953 1.419 . S
C952 C950 1.415 . S
C952 C957 1.425 . S
C952 C959 1.409 . S
C953 H945 0.930 . S
C953 C951 1.419 . S
C953 C954 1.362 . S
C954 H946 0.930 . S
C954 C953 1.362 . S
C954 C957 1.409 . S
C955 H947 0.930 . S
C955 C956 1.355 . S
C955 C957 1.415 . S
C956 C955 1.355 . S
C956 C958 1.419 . S
C957 C952 1.425 . S
C957 C954 1.409 . S
C957 C955 1.415 . S
C958 H948 0.930 . S
C958 C956 1.419 . S
C958 C959 1.362 . S
C959 H949 0.930 . S
C959 C952 1.409 . S
C959 C958 1.362 . S
H960 C966 0.930 . S
H961 C969 0.930 . S
H962 C970 0.930 . S
H963 C971 0.930 . S
H964 C974 0.930 . S
H965 C975 0.930 . S
C966 H960 0.930 . S
C966 C967 1.355 . S
C966 C968 1.415 . S
C967 C966 1.355 . S
C967 C969 1.419 . S
C968 C966 1.415 . S
C968 C973 1.425 . S
C968 C975 1.409 . S
C969 H961 0.930 . S
C969 C967 1.419 . S
C969 C970 1.362 . S
C970 H962 0.930 . S
C970 C969 1.362 . S
C970 C973 1.409 . S
C971 H963 0.930 . S
C971 C972 1.355 . S
C971 C973 1.415 . S
C972 C971 1.355 . S
C972 C974 1.419 . S
C973 C968 1.425 . S
C973 C970 1.409 . S
C973 C971 1.415 . S
C974 H964 0.930 . S
C974 C972 1.419 . S
C974 C975 1.362 . S
C975 H965 0.930 . S
C975 C968 1.409 . S
C975 C974 1.362 . S
H976 C982 0.930 . S
H977 C985 0.930 . S
H978 C986 0.930 . S
H979 C987 0.930 . S
H980 C990 0.930 . S
H981 C991 0.930 . S
C982 H976 0.930 . S
C982 C983 1.355 . S
C982 C984 1.415 . S
C983 C982 1.355 . S
C983 C985 1.419 . S
C984 C982 1.415 . S
C984 C989 1.425 . S
C984 C991 1.409 . S
C985 H977 0.930 . S
C985 C983 1.419 . S
C985 C986 1.362 . S
C986 H978 0.930 . S
C986 C985 1.362 . S
C986 C989 1.409 . S
C987 H979 0.930 . S
C987 C988 1.355 . S
C987 C989 1.415 . S
C988 C987 1.355 . S
C988 C990 1.419 . S
C989 C984 1.425 . S
C989 C986 1.409 . S
C989 C987 1.415 . S
C990 H980 0.930 . S
C990 C988 1.419 . S
C990 C991 1.362 . S
C991 H981 0.930 . S
C991 C984 1.409 . S
C991 C990 1.362 . S
H992 C998 0.930 . S
H993 C1001 0.930 . S
H994 C1002 0.930 . S
H995 C1003 0.930 . S
H996 C1006 0.930 . S
H997 C1007 0.930 . S
C998 H992 0.930 . S
C998 C999 1.355 . S
C998 C1000 1.415 . S
C999 C998 1.355 . S
C999 C1001 1.419 . S
C1000 C998 1.415 . S
C1000 C1005 1.425 . S
C1000 C1007 1.409 . S
C1001 H993 0.930 . S
C1001 C999 1.419 . S
C1001 C1002 1.362 . S
C1002 H994 0.930 . S
C1002 C1001 1.362 . S
C1002 C1005 1.409 . S
C1003 H995 0.930 . S
C1003 C1004 1.355 . S
C1003 C1005 1.415 . S
C1004 C1003 1.355 . S
C1004 C1006 1.419 . S
C1005 C1000 1.425 . S
C1005 C1002 1.409 . S
C1005 C1003 1.415 . S
C1006 H996 0.930 . S
C1006 C1004 1.419 . S
C1006 C1007 1.362 . S
C1007 H997 0.930 . S
C1007 C1000 1.409 . S
C1007 C1006 1.362 . S
H1008 C1014 0.930 . S
H1009 C1017 0.930 . S
H1010 C1018 0.930 . S
H1011 C1019 0.930 . S
H1012 C1022 0.930 . S
H1013 C1023 0.930 . S
C1014 H1008 0.930 . S
C1014 C1015 1.355 . S
C1014 C1016 1.415 . S
C1015 C1014 1.355 . S
C1015 C1017 1.419 . S
C1016 C1014 1.415 . S
C1016 C1021 1.425 . S
C1016 C1023 1.409 . S
C1017 H1009 0.930 . S
C1017 C1015 1.419 . S
C1017 C1018 1.362 . S
C1018 H1010 0.930 . S
C1018 C1017 1.362 . S
C1018 C1021 1.409 . S
C1019 H1011 0.930 . S
C1019 C1020 1.355 . S
C1019 C1021 1.415 . S
C1020 C1019 1.355 . S
C1020 C1022 1.419 . S
C1021 C1016 1.425 . S
C1021 C1018 1.409 . S
C1021 C1019 1.415 . S
C1022 H1012 0.930 . S
C1022 C1020 1.419 . S
C1022 C1023 1.362 . S
C1023 H1013 0.930 . S
C1023 C1016 1.409 . S
C1023 C1022 1.362 . S
H1024 C1030 0.930 . S
H1025 C1033 0.930 . S
H1026 C1034 0.930 . S
H1027 C1035 0.930 . S
H1028 C1038 0.930 . S
H1029 C1039 0.930 . S
C1030 H1024 0.930 . S
C1030 C1031 1.355 . S
C1030 C1032 1.415 . S
C1031 C1030 1.355 . S
C1031 C1033 1.419 . S
C1032 C1030 1.415 . S
C1032 C1037 1.425 . S
C1032 C1039 1.409 . S
C1033 H1025 0.930 . S
C1033 C1031 1.419 . S
C1033 C1034 1.362 . S
C1034 H1026 0.930 . S
C1034 C1033 1.362 . S
C1034 C1037 1.409 . S
C1035 H1027 0.930 . S
C1035 C1036 1.355 . S
C1035 C1037 1.415 . S
C1036 C1035 1.355 . S
C1036 C1038 1.419 . S
C1037 C1032 1.425 . S
C1037 C1034 1.409 . S
C1037 C1035 1.415 . S
C1038 H1028 0.930 . S
C1038 C1036 1.419 . S
C1038 C1039 1.362 . S
C1039 H1029 0.930 . S
C1039 C1032 1.409 . S
C1039 C1038 1.362 . S
H1040 C1046 0.930 . S
H1041 C1049 0.930 . S
H1042 C1050 0.930 . S
H1043 C1051 0.930 . S
H1044 C1054 0.930 . S
H1045 C1055 0.930 . S
C1046 H1040 0.930 . S
C1046 C1047 1.355 . S
C1046 C1048 1.415 . S
C1047 C1046 1.355 . S
C1047 C1049 1.419 . S
C1048 C1046 1.415 . S
C1048 C1053 1.425 . S
C1048 C1055 1.409 . S
C1049 H1041 0.930 . S
C1049 C1047 1.419 . S
C1049 C1050 1.362 . S
C1050 H1042 0.930 . S
C1050 C1049 1.362 . S
C1050 C1053 1.409 . S
C1051 H1043 0.930 . S
C1051 C1052 1.355 . S
C1051 C1053 1.415 . S
C1052 C1051 1.355 . S
C1052 C1054 1.419 . S
C1053 C1048 1.425 . S
C1053 C1050 1.409 . S
C1053 C1051 1.415 . S
C1054 H1044 0.930 . S
C1054 C1052 1.419 . S
C1054 C1055 1.362 . S
C1055 H1045 0.930 . S
C1055 C1048 1.409 . S
C1055 C1054 1.362 . S
H1056 C1062 0.930 . S
H1057 C1065 0.930 . S
H1058 C1066 0.930 . S
H1059 C1067 0.930 . S
H1060 C1070 0.930 . S
H1061 C1071 0.930 . S
C1062 H1056 0.930 . S
C1062 C1063 1.355 . S
C1062 C1064 1.415 . S
C1063 C1062 1.355 . S
C1063 C1065 1.419 . S
C1064 C1062 1.415 . S
C1064 C1069 1.425 . S
C1064 C1071 1.409 . S
C1065 H1057 0.930 . S
C1065 C1063 1.419 . S
C1065 C1066 1.362 . S
C1066 H1058 0.930 . S
C1066 C1065 1.362 . S
C1066 C1069 1.409 . S
C1067 H1059 0.930 . S
C1067 C1068 1.355 . S
C1067 C1069 1.415 . S
C1068 C1067 1.355 . S
C1068 C1070 1.419 . S
C1069 C1064 1.425 . S
C1069 C1066 1.409 . S
C1069 C1067 1.415 . S
C1070 H1060 0.930 . S
C1070 C1068 1.419 . S
C1070 C1071 1.362 . S
C1071 H1061 0.930 . S
C1071 C1064 1.409 . S
C1071 C1070 1.362 . S
H1072 C1078 0.930 . S
H1073 C1081 0.930 . S
H1074 C1082 0.930 . S
H1075 C1083 0.930 . S
H1076 C1086 0.930 . S
H1077 C1087 0.930 . S
C1078 H1072 0.930 . S
C1078 C1079 1.355 . S
C1078 C1080 1.415 . S
C1079 C1078 1.355 . S
C1079 C1081 1.419 . S
C1080 C1078 1.415 . S
C1080 C1085 1.425 . S
C1080 C1087 1.409 . S
C1081 H1073 0.930 . S
C1081 C1079 1.419 . S
C1081 C1082 1.362 . S
C1082 H1074 0.930 . S
C1082 C1081 1.362 . S
C1082 C1085 1.409 . S
C1083 H1075 0.930 . S
C1083 C1084 1.355 . S
C1083 C1085 1.415 . S
C1084 C1083 1.355 . S
C1084 C1086 1.419 . S
C1085 C1080 1.425 . S
C1085 C1082 1.409 . S
C1085 C1083 1.415 . S
C1086 H1076 0.930 . S
C1086 C1084 1.419 . S
C1086 C1087 1.362 . S
C1087 H1077 0.930 . S
C1087 C1080 1.409 . S
C1087 C1086 1.362 . S
H1088 C1094 0.930 . S
H1089 C1097 0.930 . S
H1090 C1098 0.930 . S
H1091 C1099 0.930 . S
H1092 C1102 0.930 . S
H1093 C1103 0.930 . S
C1094 H1088 0.930 . S
C1094 C1095 1.355 . S
C1094 C1096 1.415 . S
C1095 C1094 1.355 . S
C1095 C1097 1.419 . S
C1096 C1094 1.415 . S
C1096 C1101 1.425 . S
C1096 C1103 1.409 . S
C1097 H1089 0.930 . S
C1097 C1095 1.419 . S
C1097 C1098 1.362 . S
C1098 H1090 0.930 . S
C1098 C1097 1.362 . S
C1098 C1101 1.409 . S
C1099 H1091 0.930 . S
C1099 C1100 1.355 . S
C1099 C1101 1.415 . S
C1100 C1099 1.355 . S
C1100 C1102 1.419 . S
C1101 C1096 1.425 . S
C1101 C1098 1.409 . S
C1101 C1099 1.415 . S
C1102 H1092 0.930 . S
C1102 C1100 1.419 . S
C1102 C1103 1.362 . S
C1103 H1093 0.930 . S
C1103 C1096 1.409 . S
C1103 C1102 1.362 . S
H1104 C1110 0.930 . S
H1105 C1113 0.930 . S
H1106 C1114 0.930 . S
H1107 C1115 0.930 . S
H1108 C1118 0.930 . S
H1109 C1119 0.930 . S
C1110 H1104 0.930 . S
C1110 C1111 1.355 . S
C1110 C1112 1.415 . S
C1111 C1110 1.355 . S
C1111 C1113 1.419 . S
C1112 C1110 1.415 . S
C1112 C1117 1.425 . S
C1112 C1119 1.409 . S
C1113 H1105 0.930 . S
C1113 C1111 1.419 . S
C1113 C1114 1.362 . S
C1114 H1106 0.930 . S
C1114 C1113 1.362 . S
C1114 C1117 1.409 . S
C1115 H1107 0.930 . S
C1115 C1116 1.355 . S
C1115 C1117 1.415 . S
C1116 C1115 1.355 . S
C1116 C1118 1.419 . S
C1117 C1112 1.425 . S
C1117 C1114 1.409 . S
C1117 C1115 1.415 . S
C1118 H1108 0.930 . S
C1118 C1116 1.419 . S
C1118 C1119 1.362 . S
C1119 H1109 0.930 . S
C1119 C1112 1.409 . S
C1119 C1118 1.362 . S
H1120 C1126 0.930 . S
H1121 C1129 0.930 . S
H1122 C1130 0.930 . S
H1123 C1131 0.930 . S
H1124 C1134 0.930 . S
H1125 C1135 0.930 . S
C1126 H1120 0.930 . S
C1126 C1127 1.355 . S
C1126 C1128 1.415 . S
C1127 C1126 1.355 . S
C1127 C1129 1.419 . S
C1128 C1126 1.415 . S
C1128 C1133 1.425 . S
C1128 C1135 1.409 . S
C1129 H1121 0.930 . S
C1129 C1127 1.419 . S
C1129 C1130 1.362 . S
C1130 H1122 0.930 . S
C1130 C1129 1.362 . S
C1130 C1133 1.409 . S
C1131 H1123 0.930 . S
C1131 C1132 1.355 . S
C1131 C1133 1.415 . S
C1132 C1131 1.355 . S
C1132 C1134 1.419 . S
C1133 C1128 1.425 . S
C1133 C1130 1.409 . S
C1133 C1131 1.415 . S
C1134 H1124 0.930 . S
C1134 C1132 1.419 . S
C1134 C1135 1.362 . S
C1135 H1125 0.930 . S
C1135 C1128 1.409 . S
C1135 C1134 1.362 . S
H1136 C1142 0.930 . S
H1137 C1145 0.930 . S
H1138 C1146 0.930 . S
H1139 C1147 0.930 . S
H1140 C1150 0.930 . S
H1141 C1151 0.930 . S
C1142 H1136 0.930 . S
C1142 C1143 1.355 . S
C1142 C1144 1.415 . S
C1143 C1142 1.355 . S
C1143 C1145 1.419 . S
C1144 C1142 1.415 . S
C1144 C1149 1.425 . S
C1144 C1151 1.409 . S
C1145 H1137 0.930 . S
C1145 C1143 1.419 . S
C1145 C1146 1.362 . S
C1146 H1138 0.930 . S
C1146 C1145 1.362 . S
C1146 C1149 1.409 . S
C1147 H1139 0.930 . S
C1147 C1148 1.355 . S
C1147 C1149 1.415 . S
C1148 C1147 1.355 . S
C1148 C1150 1.419 . S
C1149 C1144 1.425 . S
C1149 C1146 1.409 . S
C1149 C1147 1.415 . S
C1150 H1140 0.930 . S
C1150 C1148 1.419 . S
C1150 C1151 1.362 . S
C1151 H1141 0.930 . S
C1151 C1144 1.409 . S
C1151 C1150 1.362 . S
H1152 C1158 0.930 . S
H1153 C1161 0.930 . S
H1154 C1162 0.930 . S
H1155 C1163 0.930 . S
H1156 C1166 0.930 . S
H1157 C1167 0.930 . S
C1158 H1152 0.930 . S
C1158 C1159 1.355 . S
C1158 C1160 1.415 . S
C1159 C1158 1.355 . S
C1159 C1161 1.419 . S
C1160 C1158 1.415 . S
C1160 C1165 1.425 . S
C1160 C1167 1.409 . S
C1161 H1153 0.930 . S
C1161 C1159 1.419 . S
C1161 C1162 1.362 . S
C1162 H1154 0.930 . S
C1162 C1161 1.362 . S
C1162 C1165 1.409 . S
C1163 H1155 0.930 . S
C1163 C1164 1.355 . S
C1163 C1165 1.415 . S
C1164 C1163 1.355 . S
C1164 C1166 1.419 . S
C1165 C1160 1.425 . S
C1165 C1162 1.409 . S
C1165 C1163 1.415 . S
C1166 H1156 0.930 . S
C1166 C1164 1.419 . S
C1166 C1167 1.362 . S
C1167 H1157 0.930 . S
C1167 C1160 1.409 . S
C1167 C1166 1.362 . S
H1168 C1174 0.930 . S
H1169 C1177 0.930 . S
H1170 C1178 0.930 . S
H1171 C1179 0.930 . S
H1172 C1182 0.930 . S
H1173 C1183 0.930 . S
C1174 H1168 0.930 . S
C1174 C1175 1.355 . S
C1174 C1176 1.415 . S
C1175 C1174 1.355 . S
C1175 C1177 1.419 . S
C1176 C1174 1.415 . S
C1176 C1181 1.425 . S
C1176 C1183 1.409 . S
C1177 H1169 0.930 . S
C1177 C1175 1.419 . S
C1177 C1178 1.362 . S
C1178 H1170 0.930 . S
C1178 C1177 1.362 . S
C1178 C1181 1.409 . S
C1179 H1171 0.930 . S
C1179 C1180 1.355 . S
C1179 C1181 1.415 . S
C1180 C1179 1.355 . S
C1180 C1182 1.419 . S
C1181 C1176 1.425 . S
C1181 C1178 1.409 . S
C1181 C1179 1.415 . S
C1182 H1172 0.930 . S
C1182 C1180 1.419 . S
C1182 C1183 1.362 . S
C1183 H1173 0.930 . S
C1183 C1176 1.409 . S
C1183 C1182 1.362 . S
H1184 C1190 0.930 . S
H1185 C1193 0.930 . S
H1186 C1194 0.930 . S
H1187 C1195 0.930 . S
H1188 C1198 0.930 . S
H1189 C1199 0.930 . S
C1190 H1184 0.930 . S
C1190 C1191 1.355 . S
C1190 C1192 1.415 . S
C1191 C1190 1.355 . S
C1191 C1193 1.419 . S
C1192 C1190 1.415 . S
C1192 C1197 1.425 . S
C1192 C1199 1.409 . S
C1193 H1185 0.930 . S
C1193 C1191 1.419 . S
C1193 C1194 1.362 . S
C1194 H1186 0.930 . S
C1194 C1193 1.362 . S
C1194 C1197 1.409 . S
C1195 H1187 0.930 . S
C1195 C1196 1.355 . S
C1195 C1197 1.415 . S
C1196 C1195 1.355 . S
C1196 C1198 1.419 . S
C1197 C1192 1.425 . S
C1197 C1194 1.409 . S
C1197 C1195 1.415 . S
C1198 H1188 0.930 . S
C1198 C1196 1.419 . S
C1198 C1199 1.362 . S
C1199 H1189 0.930 . S
C1199 C1192 1.409 . S
C1199 C1198 1.362 . S
H1200 C1206 0.930 . S
H1201 C1209 0.930 . S
H1202 C1210 0.930 . S
H1203 C1211 0.930 . S
H1204 C1214 0.930 . S
H1205 C1215 0.930 . S
C1206 H1200 0.930 . S
C1206 C1207 1.355 . S
C1206 C1208 1.415 . S
C1207 C1206 1.355 . S
C1207 C1209 1.419 . S
C1208 C1206 1.415 . S
C1208 C1213 1.425 . S
C1208 C1215 1.409 . S
C1209 H1201 0.930 . S
C1209 C1207 1.419 . S
C1209 C1210 1.362 . S
C1210 H1202 0.930 . S
C1210 C1209 1.362 . S
C1210 C1213 1.409 . S
C1211 H1203 0.930 . S
C1211 C1212 1.355 . S
C1211 C1213 1.415 . S
C1212 C1211 1.355 . S
C1212 C1214 1.419 . S
C1213 C1208 1.425 . S
C1213 C1210 1.409 . S
C1213 C1211 1.415 . S
C1214 H1204 0.930 . S
C1214 C1212 1.419 . S
C1214 C1215 1.362 . S
C1215 H1205 0.930 . S
C1215 C1208 1.409 . S
C1215 C1214 1.362 . S
H1216 C1222 0.930 . S
H1217 C1225 0.930 . S
H1218 C1226 0.930 . S
H1219 C1227 0.930 . S
H1220 C1230 0.930 . S
H1221 C1231 0.930 . S
C1222 H1216 0.930 . S
C1222 C1223 1.355 . S
C1222 C1224 1.415 . S
C1223 C1222 1.355 . S
C1223 C1225 1.419 . S
C1224 C1222 1.415 . S
C1224 C1229 1.425 . S
C1224 C1231 1.409 . S
C1225 H1217 0.930 . S
C1225 C1223 1.419 . S
C1225 C1226 1.362 . S
C1226 H1218 0.930 . S
C1226 C1225 1.362 . S
C1226 C1229 1.409 . S
C1227 H1219 0.930 . S
C1227 C1228 1.355 . S
C1227 C1229 1.415 . S
C1228 C1227 1.355 . S
C1228 C1230 1.419 . S
C1229 C1224 1.425 . S
C1229 C1226 1.409 . S
C1229 C1227 1.415 . S
C1230 H1220 0.930 . S
C1230 C1228 1.419 . S
C1230 C1231 1.362 . S
C1231 H1221 0.930 . S
C1231 C1224 1.409 . S
C1231 C1230 1.362 . S
H1232 C1238 0.930 . S
H1233 C1241 0.930 . S
H1234 C1242 0.930 . S
H1235 C1243 0.930 . S
H1236 C1246 0.930 . S
H1237 C1247 0.930 . S
C1238 H1232 0.930 . S
C1238 C1239 1.355 . S
C1238 C1240 1.415 . S
C1239 C1238 1.355 . S
C1239 C1241 1.419 . S
C1240 C1238 1.415 . S
C1240 C1245 1.425 . S
C1240 C1247 1.409 . S
C1241 H1233 0.930 . S
C1241 C1239 1.419 . S
C1241 C1242 1.362 . S
C1242 H1234 0.930 . S
C1242 C1241 1.362 . S
C1242 C1245 1.409 . S
C1243 H1235 0.930 . S
C1243 C1244 1.355 . S
C1243 C1245 1.415 . S
C1244 C1243 1.355 . S
C1244 C1246 1.419 . S
C1245 C1240 1.425 . S
C1245 C1242 1.409 . S
C1245 C1243 1.415 . S
C1246 H1236 0.930 . S
C1246 C1244 1.419 . S
C1246 C1247 1.362 . S
C1247 H1237 0.930 . S
C1247 C1240 1.409 . S
C1247 C1246 1.362 . S
H1248 C1254 0.930 . S
H1249 C1257 0.930 . S
H1250 C1258 0.930 . S
H1251 C1259 0.930 . S
H1252 C1262 0.930 . S
H1253 C1263 0.930 . S
C1254 H1248 0.930 . S
C1254 C1255 1.355 . S
C1254 C1256 1.415 . S
C1255 C1254 1.355 . S
C1255 C1257 1.419 . S
C1256 C1254 1.415 . S
C1256 C1261 1.425 . S
C1256 C1263 1.409 . S
C1257 H1249 0.930 . S
C1257 C1255 1.419 . S
C1257 C1258 1.362 . S
C1258 H1250 0.930 . S
C1258 C1257 1.362 . S
C1258 C1261 1.409 . S
C1259 H1251 0.930 . S
C1259 C1260 1.355 . S
C1259 C1261 1.415 . S
C1260 C1259 1.355 . S
C1260 C1262 1.419 . S
C1261 C1256 1.425 . S
C1261 C1258 1.409 . S
C1261 C1259 1.415 . S
C1262 H1252 0.930 . S
C1262 C1260 1.419 . S
C1262 C1263 1.362 . S
C1263 H1253 0.930 . S
C1263 C1256 1.409 . S
C1263 C1262 1.362 . S
H1264 C1270 0.930 . S
H1265 C1273 0.930 . S
H1266 C1274 0.930 . S
H1267 C1275 0.930 . S
H1268 C1278 0.930 . S
H1269 C1279 0.930 . S
C1270 H1264 0.930 . S
C1270 C1271 1.355 . S
C1270 C1272 1.415 . S
C1271 C1270 1.355 . S
C1271 C1273 1.419 . S
C1272 C1270 1.415 . S
C1272 C1277 1.425 . S
C1272 C1279 1.409 . S
C1273 H1265 0.930 . S
C1273 C1271 1.419 . S
C1273 C1274 1.362 . S
C1274 H1266 0.930 . S
C1274 C1273 1.362 . S
C1274 C1277 1.409 . S
C1275 H1267 0.930 . S
C1275 C1276 1.355 . S
C1275 C1277 1.415 . S
C1276 C1275 1.355 . S
C1276 C1278 1.419 . S
C1277 C1272 1.425 . S
C1277 C1274 1.409 . S
C1277 C1275 1.415 . S
C1278 H1268 0.930 . S
C1278 C1276 1.419 . S
C1278 C1279 1.362 . S
C1279 H1269 0.930 . S
C1279 C1272 1.409 . S
C1279 C1278 1.362 . S
H1280 C1286 0.930 . S
H1281 C1289 0.930 . S
H1282 C1290 0.930 . S
H1283 C1291 0.930 . S
H1284 C1294 0.930 . S
H1285 C1295 0.930 . S
C1286 H1280 0.930 . S
C1286 C1287 1.355 . S
C1286 C1288 1.415 . S
C1287 C1286 1.355 . S
C1287 C1289 1.419 . S
C1288 C1286 1.415 . S
C1288 C1293 1.425 . S
C1288 C1295 1.409 . S
C1289 H1281 0.930 . S
C1289 C1287 1.419 . S
C1289 C1290 1.362 . S
C1290 H1282 0.930 . S
C1290 C1289 1.362 . S
C1290 C1293 1.409 . S
C1291 H1283 0.930 . S
C1291 C1292 1.355 . S
C1291 C1293 1.415 . S
C1292 C1291 1.355 . S
C1292 C1294 1.419 . S
C1293 C1288 1.425 . S
C1293 C1290 1.409 . S
C1293 C1291 1.415 . S
C1294 H1284 0.930 . S
C1294 C1292 1.419 . S
C1294 C1295 1.362 . S
C1295 H1285 0.930 . S
C1295 C1288 1.409 . S
C1295 C1294 1.362 . S
H1296 C1302 0.930 . S
H1297 C1305 0.930 . S
H1298 C1306 0.930 . S
H1299 C1307 0.930 . S
H1300 C1310 0.930 . S
H1301 C1311 0.930 . S
C1302 H1296 0.930 . S
C1302 C1303 1.355 . S
C1302 C1304 1.415 . S
C1303 C1302 1.355 . S
C1303 C1305 1.419 . S
C1304 C1302 1.415 . S
C1304 C1309 1.425 . S
C1304 C1311 1.409 . S
C1305 H1297 0.930 . S
C1305 C1303 1.419 . S
C1305 C1306 1.362 . S
C1306 H1298 0.930 . S
C1306 C1305 1.362 . S
C1306 C1309 1.409 . S
C1307 H1299 0.930 . S
C1307 C1308 1.355 . S
C1307 C1309 1.415 . S
C1308 C1307 1.355 . S
C1308 C1310 1.419 . S
C1309 C1304 1.425 . S
C1309 C1306 1.409 . S
C1309 C1307 1.415 . S
C1310 H1300 0.930 . S
C1310 C1308 1.419 . S
C1310 C1311 1.362 . S
C1311 H1301 0.930 . S
C1311 C1304 1.409 . S
C1311 C1310 1.362 . S
H1312 C1318 0.930 . S
H1313 C1321 0.930 . S
H1314 C1322 0.930 . S
H1315 C1323 0.930 . S
H1316 C1326 0.930 . S
H1317 C1327 0.930 . S
C1318 H1312 0.930 . S
C1318 C1319 1.355 . S
C1318 C1320 1.415 . S
C1319 C1318 1.355 . S
C1319 C1321 1.419 . S
C1320 C1318 1.415 . S
C1320 C1325 1.425 . S
C1320 C1327 1.409 . S
C1321 H1313 0.930 . S
C1321 C1319 1.419 . S
C1321 C1322 1.362 . S
C1322 H1314 0.930 . S
C1322 C1321 1.362 . S
C1322 C1325 1.409 . S
C1323 H1315 0.930 . S
C1323 C1324 1.355 . S
C1323 C1325 1.415 . S
C1324 C1323 1.355 . S
C1324 C1326 1.419 . S
C1325 C1320 1.425 . S
C1325 C1322 1.409 . S
C1325 C1323 1.415 . S
C1326 H1316 0.930 . S
C1326 C1324 1.419 . S
C1326 C1327 1.362 . S
C1327 H1317 0.930 . S
C1327 C1320 1.409 . S
C1327 C1326 1.362 . S
H1328 C1334 0.930 . S
H1329 C1337 0.930 . S
H1330 C1338 0.930 . S
H1331 C1339 0.930 . S
H1332 C1342 0.930 . S
H1333 C1343 0.930 . S
C1334 H1328 0.930 . S
C1334 C1335 1.355 . S
C1334 C1336 1.415 . S
C1335 C1334 1.355 . S
C1335 C1337 1.419 . S
C1336 C1334 1.415 . S
C1336 C1341 1.425 . S
C1336 C1343 1.409 . S
C1337 H1329 0.930 . S
C1337 C1335 1.419 . S
C1337 C1338 1.362 . S
C1338 H1330 0.930 . S
C1338 C1337 1.362 . S
C1338 C1341 1.409 . S
C1339 H1331 0.930 . S
C1339 C1340 1.355 . S
C1339 C1341 1.415 . S
C1340 C1339 1.355 . S
C1340 C1342 1.419 . S
C1341 C1336 1.425 . S
C1341 C1338 1.409 . S
C1341 C1339 1.415 . S
C1342 H1332 0.930 . S
C1342 C1340 1.419 . S
C1342 C1343 1.362 . S
C1343 H1333 0.930 . S
C1343 C1336 1.409 . S
C1343 C1342 1.362 . S
H1344 C1350 0.930 . S
H1345 C1353 0.930 . S
H1346 C1354 0.930 . S
H1347 C1355 0.930 . S
H1348 C1358 0.930 . S
H1349 C1359 0.930 . S
C1350 H1344 0.930 . S
C1350 C1351 1.355 . S
C1350 C1352 1.415 . S
C1351 C1350 1.355 . S
C1351 C1353 1.419 . S
C1352 C1350 1.415 . S
C1352 C1357 1.425 . S
C1352 C1359 1.409 . S
C1353 H1345 0.930 . S
C1353 C1351 1.419 . S
C1353 C1354 1.362 . S
C1354 H1346 0.930 . S
C1354 C1353 1.362 . S
C1354 C1357 1.409 . S
C1355 H1347 0.930 . S
C1355 C1356 1.355 . S
C1355 C1357 1.415 . S
C1356 C1355 1.355 . S
C1356 C1358 1.419 . S
C1357 C1352 1.425 . S
C1357 C1354 1.409 . S
C1357 C1355 1.415 . S
C1358 H1348 0.930 . S
C1358 C1356 1.419 . S
C1358 C1359 1.362 . S
C1359 H1349 0.930 . S
C1359 C1352 1.409 . S
C1359 C1358 1.362 . S
H1360 C1366 0.930 . S
H1361 C1369 0.930 . S
H1362 C1370 0.930 . S
H1363 C1371 0.930 . S
H1364 C1374 0.930 . S
H1365 C1375 0.930 . S
C1366 H1360 0.930 . S
C1366 C1367 1.355 . S
C1366 C1368 1.415 . S
C1367 C1366 1.355 . S
C1367 C1369 1.419 . S
C1368 C1366 1.415 . S
C1368 C1373 1.425 . S
C1368 C1375 1.409 . S
C1369 H1361 0.930 . S
C1369 C1367 1.419 . S
C1369 C1370 1.362 . S
C1370 H1362 0.930 . S
C1370 C1369 1.362 . S
C1370 C1373 1.409 . S
C1371 H1363 0.930 . S
C1371 C1372 1.355 . S
C1371 C1373 1.415 . S
C1372 C1371 1.355 . S
C1372 C1374 1.419 . S
C1373 C1368 1.425 . S
C1373 C1370 1.409 . S
C1373 C1371 1.415 . S
C1374 H1364 0.930 . S
C1374 C1372 1.419 . S
C1374 C1375 1.362 . S
C1375 H1365 0.930 . S
C1375 C1368 1.409 . S
C1375 C1374 1.362 . S
H1376 C1382 0.930 . S
H1377 C1385 0.930 . S
H1378 C1386 0.930 . S
H1379 C1387 0.930 . S
H1380 C1390 0.930 . S
H1381 C1391 0.930 . S
C1382 H1376 0.930 . S
C1382 C1383 1.355 . S
C1382 C1384 1.415 . S
C1383 C1382 1.355 . S
C1383 C1385 1.419 . S
C1384 C1382 1.415 . S
C1384 C1389 1.425 . S
C1384 C1391 1.409 . S
C1385 H1377 0.930 . S
C1385 C1383 1.419 . S
C1385 C1386 1.362 . S
C1386 H1378 0.930 . S
C1386 C1385 1.362 . S
C1386 C1389 1.409 . S
C1387 H1379 0.930 . S
C1387 C1388 1.355 . S
C1387 C1389 1.415 . S
C1388 C1387 1.355 . S
C1388 C1390 1.419 . S
C1389 C1384 1.425 . S
C1389 C1386 1.409 . S
C1389 C1387 1.415 . S
C1390 H1380 0.930 . S
C1390 C1388 1.419 . S
C1390 C1391 1.362 . S
C1391 H1381 0.930 . S
C1391 C1384 1.409 . S
C1391 C1390 1.362 . S
H1392 C1398 0.930 . S
H1393 C1401 0.930 . S
H1394 C1402 0.930 . S
H1395 C1403 0.930 . S
H1396 C1406 0.930 . S
H1397 C1407 0.930 . S
C1398 H1392 0.930 . S
C1398 C1399 1.355 . S
C1398 C1400 1.415 . S
C1399 C1398 1.355 . S
C1399 C1401 1.419 . S
C1400 C1398 1.415 . S
C1400 C1405 1.425 . S
C1400 C1407 1.409 . S
C1401 H1393 0.930 . S
C1401 C1399 1.419 . S
C1401 C1402 1.362 . S
C1402 H1394 0.930 . S
C1402 C1401 1.362 . S
C1402 C1405 1.409 . S
C1403 H1395 0.930 . S
C1403 C1404 1.355 . S
C1403 C1405 1.415 . S
C1404 C1403 1.355 . S
C1404 C1406 1.419 . S
C1405 C1400 1.425 . S
C1405 C1402 1.409 . S
C1405 C1403 1.415 . S
C1406 H1396 0.930 . S
C1406 C1404 1.419 . S
C1406 C1407 1.362 . S
C1407 H1397 0.930 . S
C1407 C1400 1.409 . S
C1407 C1406 1.362 . S
H1408 C1414 0.930 . S
H1409 C1417 0.930 . S
H1410 C1418 0.930 . S
H1411 C1419 0.930 . S
H1412 C1422 0.930 . S
H1413 C1423 0.930 . S
C1414 H1408 0.930 . S
C1414 C1415 1.355 . S
C1414 C1416 1.415 . S
C1415 C1414 1.355 . S
C1415 C1417 1.419 . S
C1416 C1414 1.415 . S
C1416 C1421 1.425 . S
C1416 C1423 1.409 . S
C1417 H1409 0.930 . S
C1417 C1415 1.419 . S
C1417 C1418 1.362 . S
C1418 H1410 0.930 . S
C1418 C1417 1.362 . S
C1418 C1421 1.409 . S
C1419 H1411 0.930 . S
C1419 C1420 1.355 . S
C1419 C1421 1.415 . S
C1420 C1419 1.355 . S
C1420 C1422 1.419 . S
C1421 C1416 1.425 . S
C1421 C1418 1.409 . S
C1421 C1419 1.415 . S
C1422 H1412 0.930 . S
C1422 C1420 1.419 . S
C1422 C1423 1.362 . S
C1423 H1413 0.930 . S
C1423 C1416 1.409 . S
C1423 C1422 1.362 . S
H1424 C1430 0.930 . S
H1425 C1433 0.930 . S
H1426 C1434 0.930 . S
H1427 C1435 0.930 . S
H1428 C1438 0.930 . S
H1429 C1439 0.930 . S
C1430 H1424 0.930 . S
C1430 C1431 1.355 . S
C1430 C1432 1.415 . S
C1431 C1430 1.355 . S
C1431 C1433 1.419 . S
C1432 C1430 1.415 . S
C1432 C1437 1.425 . S
C1432 C1439 1.409 . S
C1433 H1425 0.930 . S
C1433 C1431 1.419 . S
C1433 C1434 1.362 . S
C1434 H1426 0.930 . S
C1434 C1433 1.362 . S
C1434 C1437 1.409 . S
C1435 H1427 0.930 . S
C1435 C1436 1.355 . S
C1435 C1437 1.415 . S
C1436 C1435 1.355 . S
C1436 C1438 1.419 . S
C1437 C1432 1.425 . S
C1437 C1434 1.409 . S
C1437 C1435 1.415 . S
C1438 H1428 0.930 . S
C1438 C1436 1.419 . S
C1438 C1439 1.362 . S
C1439 H1429 0.930 . S
C1439 C1432 1.409 . S
C1439 C1438 1.362 . S
H1440 C1446 0.930 . S
H1441 C1449 0.930 . S
H1442 C1450 0.930 . S
H1443 C1451 0.930 . S
H1444 C1454 0.930 . S
H1445 C1455 0.930 . S
C1446 H1440 0.930 . S
C1446 C1447 1.355 . S
C1446 C1448 1.415 . S
C1447 C1446 1.355 . S
C1447 C1449 1.419 . S
C1448 C1446 1.415 . S
C1448 C1453 1.425 . S
C1448 C1455 1.409 . S
C1449 H1441 0.930 . S
C1449 C1447 1.419 . S
C1449 C1450 1.362 . S
C1450 H1442 0.930 . S
C1450 C1449 1.362 . S
C1450 C1453 1.409 . S
C1451 H1443 0.930 . S
C1451 C1452 1.355 . S
C1451 C1453 1.415 . S
C1452 C1451 1.355 . S
C1452 C1454 1.419 . S
C1453 C1448 1.425 . S
C1453 C1450 1.409 . S
C1453 C1451 1.415 . S
C1454 H1444 0.930 . S
C1454 C1452 1.419 . S
C1454 C1455 1.362 . S
C1455 H1445 0.930 . S
C1455 C1448 1.409 . S
C1455 C1454 1.362 . S
H1456 C1462 0.930 . S
H1457 C1465 0.930 . S
H1458 C1466 0.930 . S
H1459 C1467 0.930 . S
H1460 C1470 0.930 . S
H1461 C1471 0.930 . S
C1462 H1456 0.930 . S
C1462 C1463 1.355 . S
C1462 C1464 1.415 . S
C1463 C1462 1.355 . S
C1463 C1465 1.419 . S
C1464 C1462 1.415 . S
C1464 C1469 1.425 . S
C1464 C1471 1.409 . S
C1465 H1457 0.930 . S
C1465 C1463 1.419 . S
C1465 C1466 1.362 . S
C1466 H1458 0.930 . S
C1466 C1465 1.362 . S
C1466 C1469 1.409 . S
C1467 H1459 0.930 . S
C1467 C1468 1.355 . S
C1467 C1469 1.415 . S
C1468 C1467 1.355 . S
C1468 C1470 1.419 . S
C1469 C1464 1.425 . S
C1469 C1466 1.409 . S
C1469 C1467 1.415 . S
C1470 H1460 0.930 . S
C1470 C1468 1.419 . S
C1470 C1471 1.362 . S
C1471 H1461 0.930 . S
C1471 C1464 1.409 . S
C1471 C1470 1.362 . S
H1472 C1478 0.930 . S
H1473 C1481 0.930 . S
H1474 C1482 0.930 . S
H1475 C1483 0.930 . S
H1476 C1486 0.930 . S
H1477 C1487 0.930 . S
C1478 H1472 0.930 . S
C1478 C1479 1.355 . S
C1478 C1480 1.415 . S
C1479 C1478 1.355 . S
C1479 C1481 1.419 . S
C1480 C1478 1.415 . S
C1480 C1485 1.425 . S
C1480 C1487 1.409 . S
C1481 H1473 0.930 . S
C1481 C1479 1.419 . S
C1481 C1482 1.362 . S
C1482 H1474 0.930 . S
C1482 C1481 1.362 . S
C1482 C1485 1.409 . S
C1483 H1475 0.930 . S
C1483 C1484 1.355 . S
C1483 C1485 1.415 . S
C1484 C1483 1.355 . S
C1484 C1486 1.419 . S
C1485 C1480 1.425 . S
C1485 C1482 1.409 . S
C1485 C1483 1.415 . S
C1486 H1476 0.930 . S
C1486 C1484 1.419 . S
C1486 C1487 1.362 . S
C1487 H1477 0.930 . S
C1487 C1480 1.409 . S
C1487 C1486 1.362 . S
H1488 C1494 0.930 . S
H1489 C1497 0.930 . S
H1490 C1498 0.930 . S
H1491 C1499 0.930 . S
H1492 C1502 0.930 . S
H1493 C1503 0.930 . S
C1494 H1488 0.930 . S
C1494 C1495 1.355 . S
C1494 C1496 1.415 . S
C1495 C1494 1.355 . S
C1495 C1497 1.419 . S
C1496 C1494 1.415 . S
C1496 C1501 1.425 . S
C1496 C1503 1.409 . S
C1497 H1489 0.930 . S
C1497 C1495 1.419 . S
C1497 C1498 1.362 . S
C1498 H1490 0.930 . S
C1498 C1497 1.362 . S
C1498 C1501 1.409 . S
C1499 H1491 0.930 . S
C1499 C1500 1.355 . S
C1499 C1501 1.415 . S
C1500 C1499 1.355 . S
C1500 C1502 1.419 . S
C1501 C1496 1.425 . S
C1501 C1498 1.409 . S
C1501 C1499 1.415 . S
C1502 H1492 0.930 . S
C1502 C1500 1.419 . S
C1502 C1503 1.362 . S
C1503 H1493 0.930 . S
C1503 C1496 1.409 . S
C1503 C1502 1.362 . S
H1504 C1510 0.930 . S
H1505 C1513 0.930 . S
H1506 C1514 0.930 . S
H1507 C1515 0.930 . S
H1508 C1518 0.930 . S
H1509 C1519 0.930 . S
C1510 H1504 0.930 . S
C1510 C1511 1.355 . S
C1510 C1512 1.415 . S
C1511 C1510 1.355 . S
C1511 C1513 1.419 . S
C1512 C1510 1.415 . S
C1512 C1517 1.425 . S
C1512 C1519 1.409 . S
C1513 H1505 0.930 . S
C1513 C1511 1.419 . S
C1513 C1514 1.362 . S
C1514 H1506 0.930 . S
C1514 C1513 1.362 . S
C1514 C1517 1.409 . S
C1515 H1507 0.930 . S
C1515 C1516 1.355 . S
C1515 C1517 1.415 . S
C1516 C1515 1.355 . S
C1516 C1518 1.419 . S
C1517 C1512 1.425 . S
C1517 C1514 1.409 . S
C1517 C1515 1.415 . S
C1518 H1508 0.930 . S
C1518 C1516 1.419 . S
C1518 C1519 1.362 . S
C1519 H1509 0.930 . S
C1519 C1512 1.409 . S
C1519 C1518 1.362 . S
H1520 C1526 0.930 . S
H1521 C1529 0.930 . S
H1522 C1530 0.930 . S
H1523 C1531 0.930 . S
H1524 C1534 0.930 . S
H1525 C1535 0.930 . S
C1526 H1520 0.930 . S
C1526 C1527 1.355 . S
C1526 C1528 1.415 . S
C1527 C1526 1.355 . S
C1527 C1529 1.419 . S
C1528 C1526 1.415 . S
C1528 C1533 1.425 . S
C1528 C1535 1.409 . S
C1529 H1521 0.930 . S
C1529 C1527 1.419 . S
C1529 C1530 1.362 . S
C1530 H1522 0.930 . S
C1530 C1529 1.362 . S
C1530 C1533 1.409 . S
C1531 H1523 0.930 . S
C1531 C1532 1.355 . S
C1531 C1533 1.415 . S
C1532 C1531 1.355 . S
C1532 C1534 1.419 . S
C1533 C1528 1.425 . S
C1533 C1530 1.409 . S
C1533 C1531 1.415 . S
C1534 H1524 0.930 . S
C1534 C1532 1.419 . S
C1534 C1535 1.362 . S
C1535 H1525 0.930 . S
C1535 C1528 1.409 . S
C1535 C1534 1.362 . S
H1536 C1542 0.930 . S
H1537 C1545 0.930 . S
H1538 C1546 0.930 . S
H1539 C1547 0.930 . S
H1540 C1550 0.930 . S
H1541 C1551 0.930 . S
C1542 H1536 0.930 . S
C1542 C1543 1.355 . S
C1542 C1544 1.415 . S
C1543 C1542 1.355 . S
C1543 C1545 1.419 . S
C1544 C1542 1.415 . S
C1544 C1549 1.425 . S
C1544 C1551 1.409 . S
C1545 H1537 0.930 . S
C1545 C1543 1.419 . S
C1545 C1546 1.362 . S
C1546 H1538 0.930 . S
C1546 C1545 1.362 . S
C1546 C1549 1.409 . S
C1547 H1539 0.930 . S
C1547 C1548 1.355 . S
C1547 C1549 1.415 . S
C1548 C1547 1.355 . S
C1548 C1550 1.419 . S
C1549 C1544 1.425 . S
C1549 C1546 1.409 . S
C1549 C1547 1.415 . S
C1550 H1540 0.930 . S
C1550 C1548 1.419 . S
C1550 C1551 1.362 . S
C1551 H1541 0.930 . S
C1551 C1544 1.409 . S
C1551 C1550 1.362 . S
H1552 C1558 0.930 . S
H1553 C1561 0.930 . S
H1554 C1562 0.930 . S
H1555 C1563 0.930 . S
H1556 C1566 0.930 . S
H1557 C1567 0.930 . S
C1558 H1552 0.930 . S
C1558 C1559 1.355 . S
C1558 C1560 1.415 . S
C1559 C1558 1.355 . S
C1559 C1561 1.419 . S
C1560 C1558 1.415 . S
C1560 C1565 1.425 . S
C1560 C1567 1.409 . S
C1561 H1553 0.930 . S
C1561 C1559 1.419 . S
C1561 C1562 1.362 . S
C1562 H1554 0.930 . S
C1562 C1561 1.362 . S
C1562 C1565 1.409 . S
C1563 H1555 0.930 . S
C1563 C1564 1.355 . S
C1563 C1565 1.415 . S
C1564 C1563 1.355 . S
C1564 C1566 1.419 . S
C1565 C1560 1.425 . S
C1565 C1562 1.409 . S
C1565 C1563 1.415 . S
C1566 H1556 0.930 . S
C1566 C1564 1.419 . S
C1566 C1567 1.362 . S
C1567 H1557 0.930 . S
C1567 C1560 1.409 . S
C1567 C1566 1.362 . S
H1568 C1574 0.930 . S
H1569 C1577 0.930 . S
H1570 C1578 0.930 . S
H1571 C1579 0.930 . S
H1572 C1582 0.930 . S
H1573 C1583 0.930 . S
C1574 H1568 0.930 . S
C1574 C1575 1.355 . S
C1574 C1576 1.415 . S
C1575 C1574 1.355 . S
C1575 C1577 1.419 . S
C1576 C1574 1.415 . S
C1576 C1581 1.425 . S
C1576 C1583 1.409 . S
C1577 H1569 0.930 . S
C1577 C1575 1.419 . S
C1577 C1578 1.362 . S
C1578 H1570 0.930 . S
C1578 C1577 1.362 . S
C1578 C1581 1.409 . S
C1579 H1571 0.930 . S
C1579 C1580 1.355 . S
C1579 C1581 1.415 . S
C1580 C1579 1.355 . S
C1580 C1582 1.419 . S
C1581 C1576 1.425 . S
C1581 C1578 1.409 . S
C1581 C1579 1.415 . S
C1582 H1572 0.930 . S
C1582 C1580 1.419 . S
C1582 C1583 1.362 . S
C1583 H1573 0.930 . S
C1583 C1576 1.409 . S
C1583 C1582 1.362 . S
H1584 C1590 0.930 . S
H1585 C1593 0.930 . S
H1586 C1594 0.930 . S
H1587 C1595 0.930 . S
H1588 C1598 0.930 . S
H1589 C1599 0.930 . S
C1590 H1584 0.930 . S
C1590 C1591 1.355 . S
C1590 C1592 1.415 . S
C1591 C1590 1.355 . S
C1591 C1593 1.419 . S
C1592 C1590 1.415 . S
C1592 C1597 1.425 . S
C1592 C1599 1.409 . S
C1593 H1585 0.930 . S
C1593 C1591 1.419 . S
C1593 C1594 1.362 . S
C1594 H1586 0.930 . S
C1594 C1593 1.362 . S
C1594 C1597 1.409 . S
C1595 H1587 0.930 . S
C1595 C1596 1.355 . S
C1595 C1597 1.415 . S
C1596 C1595 1.355 . S
C1596 C1598 1.419 . S
C1597 C1592 1.425 . S
C1597 C1594 1.409 . S
C1597 C1595 1.415 . S
C1598 H1588 0.930 . S
C1598 C1596 1.419 . S
C1598 C1599 1.362 . S
C1599 H1589 0.930 . S
C1599 C1592 1.409 . S
C1599 C1598 1.362 . S
H1600 C1606 0.930 . S
H1601 C1609 0.930 . S
H1602 C1610 0.930 . S
H1603 C1611 0.930 . S
H1604 C1614 0.930 . S
H1605 C1615 0.930 . S
C1606 H1600 0.930 . S
C1606 C1607 1.355 . S
C1606 C1608 1.415 . S
C1607 C1606 1.355 . S
C1607 C1609 1.419 . S
C1608 C1606 1.415 . S
C1608 C1613 1.425 . S
C1608 C1615 1.409 . S
C1609 H1601 0.930 . S
C1609 C1607 1.419 . S
C1609 C1610 1.362 . S
C1610 H1602 0.930 . S
C1610 C1609 1.362 . S
C1610 C1613 1.409 . S
C1611 H1603 0.930 . S
C1611 C1612 1.355 . S
C1611 C1613 1.415 . S
C1612 C1611 1.355 . S
C1612 C1614 1.419 . S
C1613 C1608 1.425 . S
C1613 C1610 1.409 . S
C1613 C1611 1.415 . S
C1614 H1604 0.930 . S
C1614 C1612 1.419 . S
C1614 C1615 1.362 . S
C1615 H1605 0.930 . S
C1615 C1608 1.409 . S
C1615 C1614 1.362 . S
H1616 C1622 0.930 . S
H1617 C1625 0.930 . S
H1618 C1626 0.930 . S
H1619 C1627 0.930 . S
H1620 C1630 0.930 . S
H1621 C1631 0.930 . S
C1622 H1616 0.930 . S
C1622 C1623 1.355 . S
C1622 C1624 1.415 . S
C1623 C1622 1.355 . S
C1623 C1625 1.419 . S
C1624 C1622 1.415 . S
C1624 C1629 1.425 . S
C1624 C1631 1.409 . S
C1625 H1617 0.930 . S
C1625 C1623 1.419 . S
C1625 C1626 1.362 . S
C1626 H1618 0.930 . S
C1626 C1625 1.362 . S
C1626 C1629 1.409 . S
C1627 H1619 0.930 . S
C1627 C1628 1.355 . S
C1627 C1629 1.415 . S
C1628 C1627 1.355 . S
C1628 C1630 1.419 . S
C1629 C1624 1.425 . S
C1629 C1626 1.409 . S
C1629 C1627 1.415 . S
C1630 H1620 0.930 . S
C1630 C1628 1.419 . S
C1630 C1631 1.362 . S
C1631 H1621 0.930 . S
C1631 C1624 1.409 . S
C1631 C1630 1.362 . S
C876 C689 1.670 . S
C871 C56 1.665 . S
C892 C694 1.266 . S
C887 C154 1.206 . S
C908 C695 1.620 . S
C903 C236 1.625 . S
C919 C310 0.774 . S
C924 C699 0.583 . S
C935 C394 1.210 . S
C940 C702 1.225 . S
C956 C703 1.618 . S
C951 C476 1.618 . S
C967 C574 0.944 . S
C972 C680 0.716 . S
C983 C656 1.667 . S
C988 C696 1.670 . S
C1004 C734 2.372 . S
C999 C67 2.452 . S
C1015 C139 1.597 . S
C1020 C760 1.552 . S
C1036 C712 1.178 . S
C1031 C238 1.140 . S
C1052 C767 1.586 . S
C1047 C308 1.588 . S
C1063 C392 1.584 . S
C1068 C721 1.594 . S
C1084 C763 2.375 . S
C1079 C487 2.447 . S
C1095 C559 1.632 . S
C1100 C727 1.595 . S
C1111 C658 1.228 . S
C1116 C758 1.215 . S
C1127 C58 1.139 . S
C1132 C766 1.236 . S
C1143 C403 1.594 . S
C1148 C753 1.596 . S
C1164 C731 1.175 . S
C1159 C478 1.205 . S
C1180 C759 1.602 . S
C1175 C572 1.596 . S
C1191 C643 2.457 . S
C1196 C726 2.384 . S
C1207 C223 2.443 . S
C1212 C744 2.374 . S
C1228 C735 1.565 . S
C1223 C319 1.614 . S
C1239 C152 1.577 . S
C1244 C728 1.561 . S
C1255 C644 1.619 . S
C1260 C790 1.584 . S
C1271 C406 1.150 . S
C1276 C785 1.200 . S
C1292 C799 1.543 . S
C1287 C488 1.560 . S
C1308 C776 0.339 . S
C1303 C562 0.891 . S
C1319 C142 1.095 . S
C1324 C792 1.220 . S
C1340 C791 1.550 . S
C1335 C224 1.554 . S
C1351 C322 0.966 . S
C1356 C795 0.517 . S
C1367 C68 1.661 . S
C1372 C798 1.636 . S
C1383 C655 2.466 . S
C1388 C824 2.407 . S
C1404 C840 1.499 . S
C1399 C391 1.603 . S
C1415 C490 1.215 . S
C1420 C822 1.232 . S
C1431 C560 1.597 . S
C1436 C855 1.563 . S
C1452 C831 1.576 . S
C1447 C140 1.560 . S
C1463 C235 2.473 . S
C1468 C849 2.419 . S
C1484 C827 1.544 . S
C1479 C307 1.610 . S
C1500 C862 1.246 . S
C1495 C70 1.192 . S
C1516 C854 1.277 . S
C1511 C646 1.134 . S
C1527 C151 1.609 . S
C1532 C859 1.541 . S
C1543 C226 1.185 . S
C1548 C830 1.220 . S
C1564 C863 1.566 . S
C1559 C320 1.597 . S
C1575 C55 2.461 . S
C1580 C817 2.435 . S
C1591 C475 2.470 . S
C1596 C856 2.378 . S
C1612 C808 1.503 . S
C1607 C571 1.597 . S
C1628 C823 1.538 . S
C1623 C404 1.563 . S
