# Generated by pormake.
# Topology anh, (6,3)-cn, num edge types: 1
# Building blocks:
#     Node 0, Type 0, BuildingBlock: VOLQOD_clean_sbu_1, # of connection points: 6
#     Node 1, Type 0, BuildingBlock: VOLQOD_clean_sbu_1, # of connection points: 6
#     Node 2, Type 0, BuildingBlock: VOLQOD_clean_sbu_1, # of connection points: 6
#     Node 3, Type 1, BuildingBlock: OLANEW_clean_sbu_2, # of connection points: 3
#     Node 4, Type 1, BuildingBlock: OLANEW_clean_sbu_2, # of connection points: 3
#     Node 5, Type 1, BuildingBlock: OLANEW_clean_sbu_2, # of connection points: 3
#     Node 6, Type 1, BuildingBlock: OLANEW_clean_sbu_2, # of connection points: 3
#     Node 7, Type 1, BuildingBlock: OLANEW_clean_sbu_2, # of connection points: 3
#     Node 8, Type 1, BuildingBlock: OLANEW_clean_sbu_2, # of connection points: 3
#     Edge 9, Type (0, 1), BuildingBlock: FUNLAD_clean_linker_1, # of connection points: 2
#     Edge 10, Type (0, 1), BuildingBlock: FUNLAD_clean_linker_1, # of connection points: 2
#     Edge 11, Type (0, 1), BuildingBlock: FUNLAD_clean_linker_1, # of connection points: 2
#     Edge 12, Type (0, 1), BuildingBlock: FUNLAD_clean_linker_1, # of connection points: 2
#     Edge 13, Type (0, 1), BuildingBlock: FUNLAD_clean_linker_1, # of connection points: 2
#     Edge 14, Type (0, 1), BuildingBlock: FUNLAD_clean_linker_1, # of connection points: 2
#     Edge 15, Type (0, 1), BuildingBlock: FUNLAD_clean_linker_1, # of connection points: 2
#     Edge 16, Type (0, 1), BuildingBlock: FUNLAD_clean_linker_1, # of connection points: 2
#     Edge 17, Type (0, 1), BuildingBlock: FUNLAD_clean_linker_1, # of connection points: 2
#     Edge 18, Type (0, 1), BuildingBlock: FUNLAD_clean_linker_1, # of connection points: 2
#     Edge 19, Type (0, 1), BuildingBlock: FUNLAD_clean_linker_1, # of connection points: 2
#     Edge 20, Type (0, 1), BuildingBlock: FUNLAD_clean_linker_1, # of connection points: 2
#     Edge 21, Type (0, 1), BuildingBlock: FUNLAD_clean_linker_1, # of connection points: 2
#     Edge 22, Type (0, 1), BuildingBlock: FUNLAD_clean_linker_1, # of connection points: 2
#     Edge 23, Type (0, 1), BuildingBlock: FUNLAD_clean_linker_1, # of connection points: 2
#     Edge 24, Type (0, 1), BuildingBlock: FUNLAD_clean_linker_1, # of connection points: 2
#     Edge 25, Type (0, 1), BuildingBlock: FUNLAD_clean_linker_1, # of connection points: 2
#     Edge 26, Type (0, 1), BuildingBlock: FUNLAD_clean_linker_1, # of connection points: 2
# Relax obj value: 0.157
# Max RMSD: 0.206
# Mean RMSD: 0.141
data_MOF--net-anh--node1-VOLQOD_clean_sbu_1--node2-OLANEW_clean_sbu_2--edge1-FUNLAD_clean_linker_1
_symmetry_space_group_name_H-M    P1
_symmetry_Int_Tables_number       1
_symmetry_cell_setting            triclinic
loop_
_symmetry_equiv_pos_as_xyz
'x, y, z'
_cell_length_a     32.694021
_cell_length_b     32.678332
_cell_length_c     61.217325
_cell_angle_alpha  89.950878
_cell_angle_beta   89.856582
_cell_angle_gamma 120.09023
loop_
_atom_site_label
_atom_site_type_symbol
_atom_site_fract_x
_atom_site_fract_y
_atom_site_fract_z
_atom_type_partial_charge
O0 O 0.9781 0.50736 0.2145 0.0
Zn1 Zn 0.97722 0.52566 0.18315 0.0
O2 O 0.98205 0.48108 0.1633 0.0
Zn3 Zn 0.92818 0.4538 0.14359 0.0
Zn4 Zn 0.98309 0.43033 0.18008 0.0
Zn5 Zn 0.03972 0.51456 0.14601 0.0
O6 O 0.94816 0.46591 0.11197 0.0
O7 O 0.02602 0.5132 0.11391 0.0
O8 O 0.91793 0.52904 0.17786 0.0
O9 O 0.88651 0.48135 0.14935 0.0
O10 O 0.88699 0.38408 0.14889 0.0
O11 O 0.92284 0.36789 0.17554 0.0
O12 O 0.04026 0.42431 0.1726 0.0
O13 O 0.03414 0.59099 0.1802 0.0
O14 O 0.07968 0.48473 0.14985 0.0
O15 O 0.07937 0.58201 0.15576 0.0
C16 C 0.98416 0.47558 0.22342 0.0
C17 C 0.98816 0.49129 0.10283 0.0
C18 C 0.8884 0.3552 0.16238 0.0
C19 C 0.88577 0.50955 0.16348 0.0
C20 C 0.07604 0.44965 0.16055 0.0
C21 C 0.07232 0.60747 0.16925 0.0
O22 O 0.98776 0.44483 0.21217 0.0
O23 O 0.49443 0.03252 0.45617 0.0
Zn24 Zn 0.4802 0.03512 0.48816 0.0
O25 O 0.52206 0.02306 0.50659 0.0
Zn26 Zn 0.56289 0.07899 0.52349 0.0
Zn27 Zn 0.56043 0.00599 0.48841 0.0
Zn28 Zn 0.48521 0.97222 0.52692 0.0
O29 O 0.56186 0.06465 0.55564 0.0
O30 O 0.49682 0.99411 0.55806 0.0
O31 O 0.48574 0.09835 0.49511 0.0
O32 O 0.54115 0.12603 0.52082 0.0
O33 O 0.62893 0.11072 0.51156 0.0
O34 O 0.62844 0.05812 0.48839 0.0
O35 O 0.55543 0.94424 0.49766 0.0
O36 O 0.41241 0.9835 0.4925 0.0
O37 O 0.50301 0.9221 0.52469 0.0
O38 O 0.41638 0.94055 0.51972 0.0
C39 C 0.51663 0.0148 0.44657 0.0
C40 C 0.53085 0.03036 0.56698 0.0
C41 C 0.64979 0.09813 0.49781 0.0
C42 C 0.5115 0.12999 0.50893 0.0
C43 C 0.53045 0.91505 0.51255 0.0
C44 C 0.39274 0.94847 0.50559 0.0
O45 O 0.54029 0.00018 0.45714 0.0
O46 O 0.45423 0.45826 0.78842 0.0
Zn47 Zn 0.44644 0.44837 0.821 0.0
O48 O 0.50383 0.49524 0.8359 0.0
Zn49 Zn 0.48851 0.52817 0.85798 0.0
Zn50 Zn 0.54724 0.542 0.81493 0.0
Zn51 Zn 0.53365 0.46368 0.85002 0.0
O52 O 0.50183 0.51478 0.88833 0.0
O53 O 0.53055 0.46675 0.88286 0.0
O54 O 0.38959 0.45334 0.83027 0.0
O55 O 0.41996 0.50857 0.85602 0.0
O56 O 0.52217 0.5982 0.85284 0.0
O57 O 0.54779 0.60375 0.81869 0.0
O58 O 0.61364 0.55338 0.81902 0.0
O59 O 0.43479 0.38225 0.82596 0.0
O60 O 0.60227 0.49538 0.84174 0.0
O61 O 0.50143 0.39502 0.84171 0.0
C62 C 0.48814 0.4869 0.7762 0.0
C63 C 0.5179 0.48912 0.89562 0.0
C64 C 0.53953 0.62179 0.83538 0.0
C65 C 0.38527 0.47961 0.84435 0.0
C66 C 0.62934 0.53087 0.82986 0.0
C67 C 0.46133 0.36721 0.83323 0.0
O68 O 0.5266 0.51995 0.78409 0.0
O69 O 0.47861 0.02601 0.26344 0.0
Cd70 Cd 0.48102 0.01245 0.22428 0.0
O71 O 0.50022 0.9742 0.27212 0.0
Cd72 Cd 0.48514 0.94384 0.23944 0.0
O73 O 0.43554 0.89603 0.21518 0.0
C74 C 0.39395 0.88963 0.21642 0.0
O75 O 0.38469 0.91327 0.23108 0.0
C76 C 0.49103 0.00621 0.27775 0.0
C77 C 0.57406 0.06629 0.20965 0.0
O78 O 0.5459 0.0829 0.20939 0.0
O79 O 0.5581 0.02384 0.21638 0.0
O80 O 0.54444 0.51549 0.59427 0.0
Cd81 Cd 0.54308 0.52381 0.55449 0.0
O82 O 0.46863 0.49038 0.59889 0.0
Cd83 Cd 0.46175 0.50575 0.56497 0.0
O84 O 0.47678 0.55706 0.53905 0.0
C85 C 0.50354 0.59939 0.54521 0.0
O86 O 0.51951 0.60724 0.56535 0.0
C87 C 0.50854 0.50032 0.60673 0.0
C88 C 0.51141 0.43682 0.53422 0.0
O89 O 0.55537 0.4642 0.53839 0.0
O90 O 0.48236 0.45074 0.53928 0.0
O91 O 0.07249 0.60739 0.92757 0.0
Cd92 Cd 0.07763 0.61453 0.8878 0.0
O93 O 0.02622 0.53001 0.92673 0.0
Cd94 Cd 0.00922 0.52975 0.8923 0.0
O95 O 0.95712 0.52549 0.86886 0.0
C96 C 0.95108 0.5608 0.86704 0.0
O97 O 0.97887 0.5997 0.87786 0.0
C98 C 0.05098 0.56788 0.93745 0.0
C99 C 0.14723 0.59519 0.87375 0.0
O100 O 0.15768 0.6371 0.87927 0.0
O101 O 0.10372 0.56246 0.87434 0.0
O102 O 0.11297 0.55061 0.38902 0.0
Cd103 Cd 0.1386 0.55839 0.42681 0.0
O104 O 0.04484 0.52811 0.40461 0.0
Cd105 Cd 0.96834 0.49541 0.40481 0.0
O106 O 0.90346 0.43643 0.41759 0.0
C107 C 0.9082 0.40258 0.42474 0.0
O108 O 0.94972 0.40552 0.42329 0.0
C109 C 0.0691 0.53599 0.38731 0.0
C110 C 0.15914 0.64594 0.44302 0.0
O111 O 0.1915 0.63926 0.43488 0.0
O112 O 0.11674 0.61103 0.44367 0.0
O113 O 0.43558 0.94788 0.74341 0.0
Cd114 Cd 0.42609 0.93945 0.78298 0.0
O115 O 0.51254 0.9963 0.74486 0.0
Cd116 Cd 0.51011 0.00897 0.77963 0.0
O117 O 0.50437 0.05501 0.80362 0.0
C118 C 0.46912 0.06105 0.80161 0.0
O119 O 0.43716 0.03689 0.7867 0.0
C120 C 0.47525 0.9714 0.73381 0.0
C121 C 0.44562 0.8694 0.79582 0.0
O122 O 0.40404 0.85895 0.78977 0.0
O123 O 0.4779 0.9131 0.79634 0.0
O124 O 0.48499 0.46225 0.0729 0.0
Cd125 Cd 0.47135 0.44574 0.11203 0.0
O126 O 0.52474 0.53953 0.07724 0.0
Cd127 Cd 0.49689 0.53096 0.11031 0.0
O128 O 0.42964 0.50715 0.12694 0.0
C129 C 0.39465 0.48899 0.11397 0.0
O130 O 0.40217 0.48577 0.09313 0.0
C131 C 0.51005 0.50358 0.06495 0.0
C132 C 0.55348 0.45447 0.12992 0.0
O133 O 0.52055 0.41456 0.12291 0.0
O134 O 0.54716 0.4901 0.12908 0.0
H135 H 0.11511 0.41411 0.17139 0.0
C136 C 0.11589 0.44046 0.16029 0.0
H137 H 0.15567 0.49384 0.13716 0.0
H138 H 0.35999 0.55425 0.16282 0.0
H139 H 0.35302 0.61953 0.17723 0.0
H140 H 0.27527 0.61441 0.17989 0.0
H141 H 0.20409 0.54405 0.16797 0.0
C142 C 0.15419 0.46637 0.14773 0.0
C143 C 0.19858 0.46473 0.14997 0.0
C144 C 0.23968 0.5055 0.15769 0.0
C145 C 0.28434 0.5081 0.15653 0.0
C146 C 0.32504 0.55005 0.16353 0.0
C147 C 0.32157 0.58786 0.17185 0.0
C148 C 0.27782 0.58501 0.17333 0.0
C149 C 0.23726 0.54446 0.16634 0.0
H150 H 0.31997 0.46631 0.10868 0.0
C151 C 0.34659 0.4755 0.12126 0.0
H152 H 0.36148 0.48655 0.15497 0.0
H153 H 0.12646 0.38026 0.13472 0.0
H154 H 0.13257 0.31249 0.12334 0.0
H155 H 0.20924 0.31496 0.1241 0.0
H156 H 0.28052 0.38584 0.13583 0.0
C157 C 0.33504 0.47638 0.14225 0.0
C158 C 0.28767 0.4697 0.14783 0.0
C159 C 0.24593 0.42716 0.14221 0.0
C160 C 0.2014 0.42501 0.14275 0.0
C161 C 0.16092 0.38334 0.13541 0.0
C162 C 0.16396 0.3442 0.12873 0.0
C163 C 0.20715 0.34564 0.12909 0.0
C164 C 0.24779 0.38657 0.13571 0.0
H165 H 0.71504 0.12106 0.47871 0.0
C166 C 0.69731 0.13298 0.48992 0.0
H167 H 0.69734 0.19236 0.50374 0.0
H168 H 0.91108 0.33836 0.48086 0.0
H169 H 0.91887 0.32755 0.51951 0.0
H170 H 0.85229 0.26491 0.54046 0.0
H171 H 0.77734 0.21281 0.52286 0.0
C172 C 0.71483 0.17953 0.49291 0.0
C173 C 0.75565 0.21514 0.47994 0.0
C174 C 0.7993 0.24477 0.49038 0.0
C175 C 0.83779 0.28046 0.47823 0.0
C176 C 0.88078 0.31026 0.4892 0.0
C177 C 0.88573 0.30451 0.51141 0.0
C178 C 0.84823 0.26927 0.52321 0.0
C179 C 0.80542 0.23966 0.51292 0.0
H180 H 0.83501 0.36159 0.43708 0.0
C181 C 0.86817 0.36167 0.43538 0.0
H182 H 0.9054 0.32584 0.44239 0.0
H183 H 0.67508 0.16726 0.4552 0.0
H184 H 0.66832 0.17552 0.41628 0.0
H185 H 0.73716 0.2328 0.39462 0.0
H186 H 0.81287 0.28287 0.41191 0.0
C187 C 0.87201 0.32545 0.44339 0.0
C188 C 0.83248 0.28623 0.45564 0.0
C189 C 0.78922 0.25552 0.44502 0.0
C190 C 0.75031 0.22079 0.45731 0.0
C191 C 0.7065 0.19283 0.44657 0.0
C192 C 0.70198 0.19741 0.42422 0.0
C193 C 0.74067 0.22977 0.41204 0.0
C194 C 0.78386 0.25856 0.42222 0.0
H195 H 0.54644 0.68732 0.84901 0.0
C196 C 0.54345 0.66854 0.83391 0.0
H197 H 0.52935 0.66434 0.80008 0.0
H198 H 0.43853 0.79108 0.84049 0.0
H199 H 0.38597 0.72076 0.86128 0.0
H200 H 0.39457 0.65003 0.85992 0.0
H201 H 0.45605 0.64947 0.83812 0.0
C202 C 0.53369 0.68344 0.81523 0.0
C203 C 0.52551 0.72434 0.81471 0.0
C204 C 0.48696 0.72256 0.82636 0.0
C205 C 0.47982 0.76204 0.82591 0.0
C206 C 0.44375 0.76102 0.83919 0.0
C207 C 0.4136 0.72104 0.85138 0.0
C208 C 0.41858 0.68132 0.8507 0.0
C209 C 0.45454 0.68174 0.83828 0.0
H210 H 0.4288 0.7953 0.79751 0.0
C211 C 0.4559 0.8315 0.80106 0.0
H212 H 0.5251 0.8764 0.8126 0.0
H213 H 0.6028 0.7394 0.79091 0.0
H214 H 0.6525 0.80795 0.76845 0.0
H215 H 0.63655 0.87394 0.76548 0.0
H216 H 0.57124 0.8721 0.78509 0.0
C217 C 0.4975 0.84023 0.8094 0.0
C218 C 0.50857 0.8015 0.81234 0.0
C219 C 0.54682 0.80309 0.80059 0.0
C220 C 0.55549 0.76462 0.80193 0.0
C221 C 0.59424 0.76735 0.79024 0.0
C222 C 0.62311 0.80652 0.7773 0.0
C223 C 0.61416 0.8437 0.77566 0.0
C224 C 0.57652 0.84219 0.78708 0.0
H225 H 0.84478 0.54165 0.17621 0.0
C226 C 0.8457 0.51838 0.16378 0.0
H227 H 0.81064 0.4743 0.13682 0.0
H228 H 0.62201 0.45969 0.18103 0.0
H229 H 0.63321 0.41539 0.20998 0.0
H230 H 0.70582 0.4101 0.21161 0.0
H231 H 0.76791 0.44961 0.18457 0.0
C232 C 0.80974 0.49685 0.14962 0.0
C233 C 0.76811 0.5036 0.15019 0.0
C234 C 0.73197 0.47967 0.166 0.0
C235 C 0.68941 0.48131 0.16463 0.0
C236 C 0.65434 0.45822 0.18092 0.0
C237 C 0.66045 0.43294 0.19769 0.0
C238 C 0.70139 0.43007 0.19864 0.0
C239 C 0.73683 0.45304 0.18302 0.0
H240 H 0.60207 0.42797 0.13699 0.0
C241 C 0.59835 0.45922 0.13751 0.0
H242 H 0.63284 0.53285 0.14314 0.0
H243 H 0.83245 0.55713 0.11875 0.0
H244 H 0.82139 0.60172 0.08992 0.0
H245 H 0.74671 0.60282 0.0869 0.0
H246 H 0.68276 0.55957 0.11268 0.0
C247 C 0.63546 0.50099 0.14336 0.0
C248 C 0.68254 0.50557 0.14708 0.0
C249 C 0.71973 0.53162 0.13199 0.0
C250 C 0.76257 0.53058 0.13356 0.0
C251 C 0.79899 0.55636 0.11814 0.0
C252 C 0.79316 0.58218 0.10156 0.0
C253 C 0.75113 0.58283 0.09987 0.0
C254 C 0.71469 0.55784 0.11482 0.0
H255 H 0.33312 0.87689 0.50939 0.0
C256 C 0.34364 0.91092 0.50184 0.0
H257 H 0.3267 0.94805 0.47902 0.0
H258 H 0.23836 0.77092 0.41682 0.0
H259 H 0.28509 0.83668 0.39228 0.0
H260 H 0.32875 0.91847 0.40614 0.0
H261 H 0.32531 0.93514 0.44435 0.0
C262 C 0.3157 0.91412 0.48666 0.0
C263 C 0.2768 0.86991 0.47682 0.0
C264 C 0.27862 0.86137 0.45422 0.0
C265 C 0.25415 0.81421 0.44626 0.0
C266 C 0.25701 0.80611 0.42373 0.0
C267 C 0.28353 0.84349 0.40947 0.0
C268 C 0.30807 0.88953 0.41728 0.0
C269 C 0.30595 0.89858 0.43937 0.0
H270 H 0.14134 0.69847 0.45583 0.0
C271 C 0.17022 0.69266 0.45136 0.0
H272 H 0.24391 0.72201 0.44862 0.0
H273 H 0.25109 0.87744 0.51823 0.0
H274 H 0.20046 0.81222 0.5426 0.0
H275 H 0.16402 0.72954 0.53001 0.0
H276 H 0.17652 0.71152 0.49307 0.0
C277 C 0.21514 0.72755 0.45365 0.0
C278 C 0.22838 0.77603 0.46088 0.0
C279 C 0.22125 0.78525 0.48278 0.0
C280 C 0.24425 0.83263 0.49047 0.0
C281 C 0.2356 0.84168 0.51206 0.0
C282 C 0.20659 0.80473 0.52608 0.0
C283 C 0.18596 0.75819 0.51896 0.0
C284 C 0.19326 0.74833 0.49762 0.0
H285 H 0.41323 0.29453 0.82175 0.0
C286 C 0.44655 0.31697 0.83001 0.0
H287 H 0.50796 0.32106 0.84359 0.0
H288 H 0.41966 0.09888 0.85088 0.0
H289 H 0.41735 0.11809 0.88901 0.0
H290 H 0.43582 0.19828 0.89983 0.0
H291 H 0.45657 0.25975 0.87258 0.0
C292 C 0.47484 0.29953 0.83505 0.0
C293 C 0.46289 0.25103 0.82845 0.0
C294 C 0.45133 0.21573 0.84458 0.0
C295 C 0.44116 0.16964 0.83838 0.0
C296 C 0.42864 0.13472 0.85476 0.0
C297 C 0.42693 0.14521 0.87668 0.0
C298 C 0.43729 0.19036 0.88278 0.0
C299 C 0.44924 0.22532 0.86698 0.0
H300 H 0.49884 0.12289 0.8235 0.0
C301 C 0.46877 0.10036 0.81321 0.0
H302 H 0.40646 0.09106 0.79838 0.0
H303 H 0.48803 0.31176 0.79342 0.0
H304 H 0.48982 0.29238 0.75544 0.0
H305 H 0.46997 0.21184 0.74459 0.0
H306 H 0.44858 0.15038 0.77173 0.0
C307 C 0.43564 0.11226 0.80934 0.0
C308 C 0.4431 0.1592 0.81606 0.0
C309 C 0.4541 0.19436 0.79988 0.0
C310 C 0.46466 0.24053 0.80609 0.0
C311 C 0.47808 0.27564 0.78966 0.0
C312 C 0.47966 0.26512 0.76775 0.0
C313 C 0.46856 0.21982 0.76165 0.0
C314 C 0.45618 0.1848 0.77743 0.0
H315 H 0.51159 0.84916 0.52981 0.0
C316 C 0.53131 0.87095 0.51589 0.0
H317 H 0.57308 0.87628 0.48834 0.0
H318 H 0.62173 0.73088 0.5359 0.0
H319 H 0.69954 0.80072 0.53243 0.0
H320 H 0.70905 0.87485 0.51706 0.0
H321 H 0.64079 0.87946 0.50488 0.0
C322 C 0.55256 0.8552 0.50222 0.0
C323 C 0.54856 0.8085 0.50653 0.0
C324 C 0.58876 0.80629 0.51324 0.0
C325 C 0.58314 0.76377 0.52239 0.0
C326 C 0.62391 0.76254 0.52915 0.0
C327 C 0.66877 0.8023 0.52718 0.0
C328 C 0.67413 0.84403 0.51851 0.0
C329 C 0.63469 0.84625 0.51163 0.0
H330 H 0.50159 0.6317 0.51372 0.0
C331 C 0.51292 0.6391 0.53064 0.0
H332 H 0.54342 0.69083 0.55528 0.0
H333 H 0.46684 0.79763 0.48923 0.0
H334 H 0.38849 0.72845 0.4927 0.0
H335 H 0.3769 0.65729 0.51221 0.0
H336 H 0.44318 0.65426 0.52771 0.0
C337 C 0.53142 0.68327 0.53845 0.0
C338 C 0.53728 0.72381 0.525 0.0
C339 C 0.49728 0.72512 0.51685 0.0
C340 C 0.50338 0.76709 0.50685 0.0
C341 C 0.46358 0.76717 0.49783 0.0
C342 C 0.41856 0.7277 0.4996 0.0
C343 C 0.41209 0.68759 0.51049 0.0
C344 C 0.45075 0.68619 0.51915 0.0
H345 H 0.70393 0.58073 0.82097 0.0
C346 C 0.68058 0.54795 0.82953 0.0
H347 H 0.67596 0.49334 0.84971 0.0
H348 H 0.89471 0.57817 0.8141 0.0
H349 H 0.86051 0.5508 0.77817 0.0
H350 H 0.77548 0.51998 0.77187 0.0
H351 H 0.72427 0.51694 0.80135 0.0
C352 C 0.69892 0.52531 0.84052 0.0
C353 C 0.75067 0.54612 0.84352 0.0
C354 C 0.77981 0.54687 0.82615 0.0
C355 C 0.82853 0.56318 0.82994 0.0
C356 C 0.85721 0.56478 0.81223 0.0
C357 C 0.83808 0.54943 0.79152 0.0
C358 C 0.79023 0.53219 0.78796 0.0
C359 C 0.76124 0.53077 0.80502 0.0
H360 H 0.88294 0.51967 0.85011 0.0
C361 C 0.90815 0.55466 0.8562 0.0
H362 H 0.92095 0.62342 0.8629 0.0
H363 H 0.70532 0.55299 0.87982 0.0
H364 H 0.73931 0.57977 0.91574 0.0
H365 H 0.82309 0.60554 0.92265 0.0
H366 H 0.87338 0.60494 0.89371 0.0
C367 C 0.89671 0.58883 0.85615 0.0
C368 C 0.84756 0.57741 0.8512 0.0
C369 C 0.81875 0.57825 0.86836 0.0
C370 C 0.77029 0.56267 0.86449 0.0
C371 C 0.74223 0.56379 0.88192 0.0
C372 C 0.76131 0.57922 0.90262 0.0
C373 C 0.80847 0.59378 0.9065 0.0
C374 C 0.83699 0.59332 0.88967 0.0
H375 H 0.10399 0.67611 0.18619 0.0
C376 C 0.11105 0.6554 0.17447 0.0
H377 H 0.16377 0.65108 0.15613 0.0
H378 H 0.31366 0.87032 0.16677 0.0
H379 H 0.29301 0.86849 0.12856 0.0
H380 H 0.22772 0.79616 0.1123 0.0
H381 H 0.18259 0.72517 0.13417 0.0
C382 C 0.1557 0.67113 0.16778 0.0
C383 C 0.19586 0.71434 0.1774 0.0
C384 C 0.2221 0.75527 0.16435 0.0
C385 C 0.2599 0.7969 0.1737 0.0
C386 C 0.28499 0.8376 0.16042 0.0
C387 C 0.2734 0.83707 0.13849 0.0
C388 C 0.23661 0.79634 0.12934 0.0
C389 C 0.21105 0.75584 0.14205 0.0
H390 H 0.36448 0.83224 0.19198 0.0
C391 C 0.35573 0.85246 0.20323 0.0
H392 H 0.3009 0.85917 0.21801 0.0
H393 H 0.15772 0.63956 0.20618 0.0
H394 H 0.17871 0.64132 0.24418 0.0
H395 H 0.24152 0.71468 0.26086 0.0
H396 H 0.28451 0.78643 0.23938 0.0
C397 C 0.31036 0.8406 0.20613 0.0
C398 C 0.27138 0.79731 0.19603 0.0
C399 C 0.24555 0.75617 0.20902 0.0
C400 C 0.20835 0.71433 0.1996 0.0
C401 C 0.18503 0.67292 0.21264 0.0
C402 C 0.19699 0.6733 0.23449 0.0
C403 C 0.23244 0.71455 0.24385 0.0
C404 C 0.25673 0.75553 0.23133 0.0
H405 H 0.52958 0.19737 0.52441 0.0
C406 C 0.50803 0.17283 0.51167 0.0
H407 H 0.46041 0.16088 0.4858 0.0
H408 H 0.47408 0.32628 0.55589 0.0
H409 H 0.42736 0.26 0.57991 0.0
H410 H 0.40334 0.17854 0.56865 0.0
H411 H 0.42688 0.16323 0.53328 0.0
C412 C 0.48094 0.18356 0.49923 0.0
C413 C 0.48228 0.2292 0.5029 0.0
C414 C 0.46589 0.23734 0.52297 0.0
C415 C 0.478 0.28405 0.529 0.0
C416 C 0.46438 0.29146 0.54997 0.0
C417 C 0.43774 0.25366 0.56403 0.0
C418 C 0.42435 0.20783 0.55773 0.0
C419 C 0.43827 0.19956 0.53747 0.0
H420 H 0.45618 0.36725 0.52204 0.0
C421 C 0.49391 0.38937 0.5249 0.0
H422 H 0.56059 0.39385 0.52386 0.0
H423 H 0.51266 0.22411 0.46188 0.0
H424 H 0.55472 0.28943 0.43649 0.0
H425 H 0.57349 0.37023 0.44633 0.0
H426 H 0.5506 0.38629 0.48167 0.0
C427 C 0.5227 0.3718 0.52149 0.0
C428 C 0.50458 0.32218 0.51439 0.0
C429 C 0.51722 0.31326 0.4935 0.0
C430 C 0.50601 0.26664 0.48773 0.0
C431 C 0.52023 0.25888 0.46703 0.0
C432 C 0.54429 0.29602 0.4523 0.0
C433 C 0.55488 0.34152 0.45785 0.0
C434 C 0.54165 0.35027 0.47819 0.0
H435 H 0.30959 0.45223 0.83708 0.0
C436 C 0.33992 0.47897 0.84603 0.0
H437 H 0.36729 0.54127 0.865 0.0
H438 H 0.22076 0.59554 0.82739 0.0
H439 H 0.28661 0.64164 0.80287 0.0
H440 H 0.35625 0.63112 0.8025 0.0
H441 H 0.3601 0.57394 0.82643 0.0
C442 C 0.3366 0.51291 0.85691 0.0
C443 C 0.29322 0.51663 0.85624 0.0
C444 C 0.2917 0.55047 0.84231 0.0
C445 C 0.25215 0.55743 0.84296 0.0
C446 C 0.25078 0.59018 0.82823 0.0
C447 C 0.28814 0.61653 0.8139 0.0
C448 C 0.32727 0.61051 0.81364 0.0
C449 C 0.32909 0.57768 0.82752 0.0
H450 H 0.22141 0.61301 0.87034 0.0
C451 C 0.18502 0.58506 0.86797 0.0
H452 H 0.13973 0.51399 0.85893 0.0
H453 H 0.28446 0.44746 0.88429 0.0
H454 H 0.2189 0.40136 0.90896 0.0
H455 H 0.15082 0.41427 0.9107 0.0
H456 H 0.14779 0.4732 0.88783 0.0
C457 C 0.17602 0.54243 0.86088 0.0
C458 C 0.21485 0.5315 0.85806 0.0
C459 C 0.21556 0.49623 0.87136 0.0
C460 C 0.25485 0.48881 0.87043 0.0
C461 C 0.25533 0.4543 0.88426 0.0
C462 C 0.21798 0.42765 0.89853 0.0
C463 C 0.17965 0.43492 0.8995 0.0
C464 C 0.17833 0.46885 0.8862 0.0
H465 H 0.81641 0.30007 0.15363 0.0
C466 C 0.84591 0.30801 0.16438 0.0
H467 H 0.86807 0.28646 0.19227 0.0
H468 H 0.66245 0.18731 0.23294 0.0
H469 H 0.70751 0.25005 0.25886 0.0
H470 H 0.79126 0.30865 0.25183 0.0
H471 H 0.83051 0.30469 0.219 0.0
C472 C 0.83966 0.27806 0.18079 0.0
C473 C 0.79125 0.23891 0.18622 0.0
C474 C 0.76898 0.24169 0.20564 0.0
C475 C 0.7205 0.20841 0.20953 0.0
C476 C 0.69904 0.21205 0.22901 0.0
C477 C 0.72451 0.24783 0.24407 0.0
C478 C 0.77166 0.28077 0.24012 0.0
C479 C 0.79379 0.278 0.22117 0.0
H480 H 0.64687 0.08024 0.20437 0.0
C481 C 0.62416 0.0956 0.20327 0.0
H482 H 0.62064 0.15729 0.19711 0.0
H483 H 0.82541 0.21897 0.14942 0.0
H484 H 0.78027 0.15628 0.12336 0.0
H485 H 0.69509 0.10107 0.12909 0.0
H486 H 0.65468 0.10774 0.161 0.0
C487 C 0.64265 0.14108 0.19735 0.0
C488 C 0.69435 0.17254 0.194 0.0
C489 C 0.7171 0.1685 0.17505 0.0
C490 C 0.76584 0.20133 0.17134 0.0
C491 C 0.78811 0.19585 0.15262 0.0
C492 C 0.76269 0.15988 0.13762 0.0
C493 C 0.71476 0.12872 0.14088 0.0
C494 C 0.69202 0.13284 0.15932 0.0
H495 H 0.95707 0.47629 0.06983 0.0
C496 C 0.99004 0.49534 0.07882 0.0
H497 H 0.06416 0.53999 0.07645 0.0
H498 H 0.0755 0.48388 0.97865 0.0
H499 H 0.11315 0.44655 0.99781 0.0
H500 H 0.11358 0.44421 0.03809 0.0
H501 H 0.07657 0.47936 0.05947 0.0
C502 C 0.03066 0.52183 0.06785 0.0
C503 C 0.0314 0.52458 0.04359 0.0
C504 C 0.05315 0.5038 0.03136 0.0
C505 C 0.05244 0.50468 0.00815 0.0
C506 C 0.07462 0.48384 0.99633 0.0
C507 C 0.09642 0.46235 0.00711 0.0
C508 C 0.09669 0.46106 0.02979 0.0
C509 C 0.07535 0.48144 0.04186 0.0
H510 H 0.07482 0.59988 0.97003 0.0
C511 C 0.05354 0.56668 0.96146 0.0
H512 H 0.00826 0.4928 0.96467 0.0
H513 H 0.99187 0.57316 0.06206 0.0
H514 H 0.95217 0.60836 0.04297 0.0
H515 H 0.94588 0.60483 0.00279 0.0
H516 H 0.98003 0.56691 0.98147 0.0
C517 C 0.02886 0.52647 0.97295 0.0
C518 C 0.03 0.52632 0.99722 0.0
C519 C 0.00819 0.54711 0.00945 0.0
C520 C 0.00985 0.54719 0.03266 0.0
C521 C 0.99 0.57037 0.04445 0.0
C522 C 0.96736 0.59103 0.03369 0.0
C523 C 0.96397 0.58919 0.01107 0.0
C524 C 0.98403 0.56752 0.99901 0.0
H525 H 0.53192 0.99198 0.41533 0.0
C526 C 0.51515 0.01024 0.42264 0.0
H527 H 0.47867 0.04728 0.4163 0.0
H528 H 0.5717 0.08724 0.32013 0.0
H529 H 0.62218 0.16341 0.33697 0.0
H530 H 0.61452 0.17581 0.37618 0.0
H531 H 0.5563 0.11192 0.39879 0.0
C532 C 0.49441 0.02753 0.40964 0.0
C533 C 0.49466 0.02159 0.3856 0.0
C534 C 0.52749 0.05973 0.37245 0.0
C535 C 0.53128 0.05277 0.34977 0.0
C536 C 0.56624 0.09083 0.33728 0.0
C537 C 0.59572 0.13471 0.34679 0.0
C538 C 0.59146 0.14168 0.36887 0.0
C539 C 0.55789 0.10473 0.38165 0.0
H540 H 0.48159 0.04443 0.30527 0.0
C541 C 0.49268 0.01919 0.30093 0.0
H542 H 0.51518 0.97292 0.3126 0.0
H543 H 0.42601 0.94206 0.40609 0.0
H544 H 0.37585 0.86551 0.38945 0.0
H545 H 0.3812 0.85358 0.35001 0.0
H546 H 0.43751 0.91779 0.32705 0.0
C547 C 0.50554 0.99935 0.3167 0.0
C548 C 0.50129 0.00788 0.34024 0.0
C549 C 0.46775 0.97001 0.35337 0.0
C550 C 0.46438 0.97691 0.37607 0.0
C551 C 0.43049 0.93857 0.3888 0.0
C552 C 0.40119 0.89454 0.37944 0.0
C553 C 0.40429 0.88779 0.35724 0.0
C554 C 0.43695 0.92497 0.34426 0.0
H555 H 0.44849 0.45292 0.74616 0.0
C556 C 0.48203 0.48107 0.75234 0.0
H557 H 0.54925 0.53847 0.74395 0.0
H558 H 0.48123 0.41158 0.6525 0.0
H559 H 0.49231 0.3539 0.67267 0.0
H560 H 0.51178 0.36482 0.71192 0.0
H561 H 0.51982 0.4332 0.73128 0.0
C562 C 0.51602 0.50922 0.73817 0.0
C563 C 0.50758 0.50389 0.71422 0.0
C564 C 0.50428 0.46431 0.70305 0.0
C565 C 0.49447 0.45874 0.68028 0.0
C566 C 0.48979 0.41814 0.66966 0.0
C567 C 0.49588 0.38467 0.68106 0.0
C568 C 0.50673 0.39075 0.70318 0.0
C569 C 0.51099 0.43006 0.71412 0.0
H570 H 0.54889 0.50495 0.63639 0.0
C571 C 0.51441 0.49712 0.63043 0.0
H572 H 0.44598 0.48303 0.63917 0.0
H573 H 0.51246 0.58413 0.73068 0.0
H574 H 0.50339 0.64279 0.71033 0.0
H575 H 0.48797 0.63395 0.67069 0.0
H576 H 0.48136 0.56634 0.65119 0.0
C577 C 0.47988 0.48855 0.64479 0.0
C578 C 0.48916 0.49334 0.66867 0.0
C579 C 0.493 0.53315 0.6798 0.0
C580 C 0.50234 0.53848 0.70259 0.0
C581 C 0.50576 0.57848 0.71334 0.0
C582 C 0.50058 0.61242 0.70186 0.0
C583 C 0.49186 0.60742 0.67955 0.0
C584 C 0.48809 0.56837 0.66856 0.0
H585 H 0.56543 0.06306 0.59822 0.0
C586 C 0.53494 0.03283 0.59097 0.0
H587 H 0.47224 0.96795 0.59689 0.0
H588 H 0.52725 0.92915 0.6896 0.0
H589 H 0.53073 0.86879 0.66792 0.0
H590 H 0.52406 0.86826 0.62777 0.0
H591 H 0.51381 0.92794 0.60906 0.0
C592 C 0.5022 0.99899 0.60394 0.0
C593 C 0.50747 0.00051 0.62808 0.0
C594 C 0.5134 0.96527 0.63872 0.0
C595 C 0.51726 0.96553 0.66185 0.0
C596 C 0.52361 0.93023 0.67208 0.0
C597 C 0.52586 0.89551 0.65983 0.0
C598 C 0.52211 0.89521 0.63723 0.0
C599 C 0.51608 0.92964 0.6267 0.0
H600 H 0.44494 0.94654 0.7011 0.0
C601 C 0.47714 0.97052 0.7098 0.0
H602 H 0.5483 0.0255 0.70673 0.0
H603 H 0.49179 0.07078 0.61313 0.0
H604 H 0.48973 0.13161 0.63487 0.0
H605 H 0.50007 0.13397 0.67484 0.0
H606 H 0.51199 0.07504 0.69331 0.0
C607 C 0.51626 -0.00019 0.69845 0.0
C608 C 0.51513 0.00098 0.67424 0.0
C609 C 0.51 0.03668 0.66363 0.0
C610 C 0.50533 0.03603 0.64053 0.0
C611 C 0.49734 0.0705 0.63051 0.0
C612 C 0.49568 0.10546 0.64283 0.0
C613 C 0.50139 0.10673 0.66534 0.0
C614 C 0.50826 0.07272 0.67572 0.0
H615 H 0.5318 0.45935 0.9252 0.0
C616 C 0.5211 0.48402 0.91938 0.0
H617 H 0.49825 0.53181 0.9283 0.0
H618 H 0.41509 0.4401 0.01974 0.0
H619 H 0.34355 0.41738 0.99926 0.0
H620 H 0.34665 0.43113 0.95951 0.0
H621 H 0.42139 0.46795 0.94004 0.0
C622 C 0.51029 0.50804 0.93386 0.0
C623 C 0.50905 0.49898 0.95771 0.0
C624 C 0.46497 0.47695 0.96879 0.0
C625 C 0.46312 0.46835 0.99163 0.0
C626 C 0.41862 0.44695 0.00235 0.0
C627 C 0.37721 0.43378 0.9908 0.0
C628 C 0.37896 0.44157 0.96843 0.0
C629 C 0.42218 0.46286 0.95747 0.0
H630 H 0.53849 0.54641 0.035 0.0
C631 C 0.51958 0.51043 0.04129 0.0
H632 H 0.48239 0.43779 0.03336 0.0
H633 H 0.59978 0.54537 0.94178 0.0
H634 H 0.67109 0.56542 0.96199 0.0
H635 H 0.6673 0.54598 0.00117 0.0
H636 H 0.5922 0.50699 0.02043 0.0
C637 C 0.50286 0.47388 0.02734 0.0
C638 C 0.50535 0.48166 0.00333 0.0
C639 C 0.54937 0.50295 0.99218 0.0
C640 C 0.55134 0.51243 0.9694 0.0
C641 C 0.59601 0.53582 0.95889 0.0
C642 C 0.63728 0.54779 0.97033 0.0
C643 C 0.63517 0.53698 0.9924 0.0
C644 C 0.59184 0.51482 0.00329 0.0
H645 H 0.002 0.45218 0.25383 0.0
C646 C 0.99152 0.47642 0.24717 0.0
H647 H 0.98053 0.53357 0.25382 0.0
H648 H 0.00035 0.44107 0.34921 0.0
H649 H 0.92798 0.37013 0.3391 0.0
H650 H 0.8894 0.36517 0.30383 0.0
H651 H 0.92379 0.43085 0.27825 0.0
C652 C 0.98962 0.50825 0.26038 0.0
C653 C 0.00697 0.51434 0.28327 0.0
C654 C 0.98488 0.47674 0.29856 0.0
C655 C 0.00558 0.48073 0.31942 0.0
C656 C 0.98489 0.44109 0.33363 0.0
C657 C 0.94349 0.3999 0.32795 0.0
C658 C 0.92189 0.39702 0.30806 0.0
C659 C 0.9422 0.43485 0.29346 0.0
H660 H 0.00987 0.52005 0.36512 0.0
C661 C 0.04617 0.52742 0.3658 0.0
H662 H 0.1054 0.537 0.34776 0.0
H663 H 0.05738 0.59405 0.25812 0.0
H664 H 0.12633 0.66712 0.2692 0.0
H665 H 0.15952 0.67579 0.30615 0.0
H666 H 0.12383 0.61138 0.33226 0.0
C667 C 0.06878 0.52866 0.34726 0.0
C668 C 0.04666 0.52355 0.32546 0.0
C669 C 0.06744 0.56194 0.31052 0.0
C670 C 0.04779 0.55724 0.28935 0.0
C671 C 0.07018 0.59576 0.27455 0.0
C672 C 0.10997 0.63797 0.28067 0.0
C673 C 0.12866 0.64285 0.30146 0.0
C674 C 0.10783 0.60546 0.31628 0.0
loop_
_geom_bond_atom_site_label_1
_geom_bond_atom_site_label_2
_geom_bond_distance
_geom_bond_site_symmetry_2
_ccdc_geom_bond_type
O0 Zn1 1.953 . S
O0 C16 1.225 1_655 S
Zn1 O0 1.953 . S
Zn1 O2 1.949 1_655 S
Zn1 O8 1.919 . S
Zn1 O13 1.924 1_655 S
O2 Zn1 1.949 1_455 S
O2 Zn3 1.923 1_455 S
O2 Zn4 1.950 . S
O2 Zn5 1.945 . S
Zn3 O2 1.923 1_655 S
Zn3 O6 1.933 . S
Zn3 O9 1.941 . S
Zn3 O10 1.965 . S
Zn4 O2 1.950 . S
Zn4 O11 1.938 1_455 S
Zn4 O12 1.906 . S
Zn4 O22 1.953 . S
Zn5 O2 1.945 . S
Zn5 O7 1.932 . S
Zn5 O14 1.977 . S
Zn5 O15 1.910 . S
O6 Zn3 1.933 . S
O6 C17 1.226 1_655 S
O7 Zn5 1.932 . S
O7 C17 1.307 . S
O8 Zn1 1.919 . S
O8 C19 1.253 . S
O9 Zn3 1.941 . S
O9 C19 1.283 . S
O10 Zn3 1.965 . S
O10 C18 1.303 . S
O11 Zn4 1.938 1_655 S
O11 C18 1.247 . S
O12 Zn4 1.906 . S
O12 C20 1.304 . S
O13 Zn1 1.924 1_455 S
O13 C21 1.311 . S
O14 Zn5 1.977 . S
O14 C20 1.272 . S
O15 Zn5 1.910 . S
O15 C21 1.231 . S
C16 O0 1.225 1_455 S
C16 O22 1.298 . S
C17 O6 1.226 1_455 S
C17 O7 1.307 . S
C18 O10 1.303 . S
C18 O11 1.247 . S
C19 O8 1.253 . S
C19 O9 1.283 . S
C20 O12 1.304 . S
C20 O14 1.272 . S
C21 O13 1.311 . S
C21 O15 1.231 . S
O22 Zn4 1.953 . S
O22 C16 1.298 . S
O23 Zn24 1.953 . S
O23 C39 1.225 . S
Zn24 O23 1.953 . S
Zn24 O25 1.949 . S
Zn24 O31 1.919 . S
Zn24 O36 1.924 1_545 S
O25 Zn24 1.949 . S
O25 Zn26 1.923 . S
O25 Zn27 1.950 1_545 S
O25 Zn28 1.945 1_545 S
Zn26 O25 1.923 . S
Zn26 O29 1.933 . S
Zn26 O32 1.941 . S
Zn26 O33 1.965 . S
Zn27 O25 1.950 1_565 S
Zn27 O34 1.938 1_565 S
Zn27 O35 1.906 . S
Zn27 O45 1.953 . S
Zn28 O25 1.945 1_565 S
Zn28 O30 1.932 . S
Zn28 O37 1.977 . S
Zn28 O38 1.910 . S
O29 Zn26 1.933 . S
O29 C40 1.226 . S
O30 Zn28 1.932 . S
O30 C40 1.307 1_565 S
O31 Zn24 1.919 . S
O31 C42 1.253 . S
O32 Zn26 1.941 . S
O32 C42 1.283 . S
O33 Zn26 1.965 . S
O33 C41 1.303 . S
O34 Zn27 1.938 1_545 S
O34 C41 1.247 . S
O35 Zn27 1.906 . S
O35 C43 1.304 . S
O36 Zn24 1.924 1_565 S
O36 C44 1.311 . S
O37 Zn28 1.977 . S
O37 C43 1.272 . S
O38 Zn28 1.910 . S
O38 C44 1.231 . S
C39 O23 1.225 . S
C39 O45 1.298 1_545 S
C40 O29 1.226 . S
C40 O30 1.307 1_545 S
C41 O33 1.303 . S
C41 O34 1.247 . S
C42 O31 1.253 . S
C42 O32 1.283 . S
C43 O35 1.304 . S
C43 O37 1.272 . S
C44 O36 1.311 . S
C44 O38 1.231 . S
O45 Zn27 1.953 . S
O45 C39 1.298 1_565 S
O46 Zn47 1.953 . S
O46 C62 1.225 . S
Zn47 O46 1.953 . S
Zn47 O48 1.949 . S
Zn47 O54 1.919 . S
Zn47 O59 1.924 . S
O48 Zn47 1.949 . S
O48 Zn49 1.923 . S
O48 Zn50 1.950 . S
O48 Zn51 1.945 . S
Zn49 O48 1.923 . S
Zn49 O52 1.933 . S
Zn49 O55 1.941 . S
Zn49 O56 1.965 . S
Zn50 O48 1.950 . S
Zn50 O57 1.938 . S
Zn50 O58 1.906 . S
Zn50 O68 1.953 . S
Zn51 O48 1.945 . S
Zn51 O53 1.932 . S
Zn51 O60 1.977 . S
Zn51 O61 1.910 . S
O52 Zn49 1.933 . S
O52 C63 1.226 . S
O53 Zn51 1.932 . S
O53 C63 1.307 . S
O54 Zn47 1.919 . S
O54 C65 1.253 . S
O55 Zn49 1.941 . S
O55 C65 1.283 . S
O56 Zn49 1.965 . S
O56 C64 1.303 . S
O57 Zn50 1.938 . S
O57 C64 1.247 . S
O58 Zn50 1.906 . S
O58 C66 1.304 . S
O59 Zn47 1.924 . S
O59 C67 1.311 . S
O60 Zn51 1.977 . S
O60 C66 1.272 . S
O61 Zn51 1.910 . S
O61 C67 1.231 . S
C62 O46 1.225 . S
C62 O68 1.298 . S
C63 O52 1.226 . S
C63 O53 1.307 . S
C64 O56 1.303 . S
C64 O57 1.247 . S
C65 O54 1.253 . S
C65 O55 1.283 . S
C66 O58 1.304 . S
C66 O60 1.272 . S
C67 O59 1.311 . S
C67 O61 1.231 . S
O68 Zn50 1.953 . S
O68 C62 1.298 . S
O69 Cd70 2.300 . S
O69 C76 1.275 . S
Cd70 O69 2.300 . S
Cd70 O78 2.381 . S
Cd70 O79 2.378 . S
O71 Cd72 2.385 . S
O71 C76 1.255 1_565 S
Cd72 O71 2.385 . S
Cd72 O73 2.317 . S
O73 Cd72 2.317 . S
O73 C74 1.232 . S
C74 O73 1.232 . S
C74 O75 1.218 . S
O75 C74 1.218 . S
C76 O69 1.275 . S
C76 O71 1.255 1_545 S
C77 O78 1.258 . S
C77 O79 1.256 . S
O78 Cd70 2.381 . S
O78 C77 1.258 . S
O79 Cd70 2.378 . S
O79 C77 1.256 . S
O80 Cd81 2.300 . S
O80 C87 1.275 . S
Cd81 O80 2.300 . S
Cd81 O89 2.381 . S
Cd81 O90 2.378 . S
O82 Cd83 2.385 . S
O82 C87 1.255 . S
Cd83 O82 2.385 . S
Cd83 O84 2.317 . S
O84 Cd83 2.317 . S
O84 C85 1.232 . S
C85 O84 1.232 . S
C85 O86 1.218 . S
O86 C85 1.218 . S
C87 O80 1.275 . S
C87 O82 1.255 . S
C88 O89 1.258 . S
C88 O90 1.256 . S
O89 Cd81 2.381 . S
O89 C88 1.258 . S
O90 Cd81 2.378 . S
O90 C88 1.256 . S
O91 Cd92 2.300 . S
O91 C98 1.275 . S
Cd92 O91 2.300 . S
Cd92 O100 2.381 . S
Cd92 O101 2.378 . S
O93 Cd94 2.385 . S
O93 C98 1.255 1_655 S
Cd94 O93 2.385 . S
Cd94 O95 2.317 . S
O95 Cd94 2.317 . S
O95 C96 1.232 . S
C96 O95 1.232 . S
C96 O97 1.218 . S
O97 C96 1.218 . S
C98 O91 1.275 . S
C98 O93 1.255 1_455 S
C99 O100 1.258 . S
C99 O101 1.256 . S
O100 Cd92 2.381 . S
O100 C99 1.258 . S
O101 Cd92 2.378 . S
O101 C99 1.256 . S
O102 Cd103 2.300 . S
O102 C109 1.275 1_455 S
Cd103 O102 2.300 . S
Cd103 O111 2.381 . S
Cd103 O112 2.378 . S
O104 Cd105 2.385 . S
O104 C109 1.255 . S
Cd105 O104 2.385 . S
Cd105 O106 2.317 . S
O106 Cd105 2.317 . S
O106 C107 1.232 . S
C107 O106 1.232 . S
C107 O108 1.218 . S
O108 C107 1.218 . S
C109 O102 1.275 1_655 S
C109 O104 1.255 . S
C110 O111 1.258 . S
C110 O112 1.256 . S
O111 Cd103 2.381 . S
O111 C110 1.258 . S
O112 Cd103 2.378 . S
O112 C110 1.256 . S
O113 Cd114 2.300 . S
O113 C120 1.275 1_565 S
Cd114 O113 2.300 . S
Cd114 O122 2.381 . S
Cd114 O123 2.378 . S
O115 Cd116 2.385 . S
O115 C120 1.255 . S
Cd116 O115 2.385 . S
Cd116 O117 2.317 . S
O117 Cd116 2.317 . S
O117 C118 1.232 . S
C118 O117 1.232 . S
C118 O119 1.218 . S
O119 C118 1.218 . S
C120 O113 1.275 1_545 S
C120 O115 1.255 . S
C121 O122 1.258 . S
C121 O123 1.256 . S
O122 Cd114 2.381 . S
O122 C121 1.258 . S
O123 Cd114 2.378 . S
O123 C121 1.256 . S
O124 Cd125 2.300 . S
O124 C131 1.275 . S
Cd125 O124 2.300 . S
Cd125 O133 2.381 . S
Cd125 O134 2.378 . S
O126 Cd127 2.385 . S
O126 C131 1.255 . S
Cd127 O126 2.385 . S
Cd127 O128 2.317 . S
O128 Cd127 2.317 . S
O128 C129 1.232 . S
C129 O128 1.232 . S
C129 O130 1.218 . S
O130 C129 1.218 . S
C131 O124 1.275 . S
C131 O126 1.255 . S
C132 O133 1.258 . S
C132 O134 1.256 . S
O133 Cd125 2.381 . S
O133 C132 1.258 . S
O134 Cd125 2.378 . S
O134 C132 1.256 . S
H135 C136 0.951 . S
C136 H135 0.951 . S
C136 C142 1.265 . S
H137 C142 0.950 . S
H138 C146 0.949 . S
H139 C147 0.950 . S
H140 C148 0.951 . S
H141 C149 0.951 . S
C142 C136 1.265 . S
C142 H137 0.950 . S
C142 C143 1.478 . S
C143 C142 1.478 . S
C143 C144 1.397 . S
C143 C160 1.394 . S
C144 C143 1.397 . S
C144 C145 1.438 . S
C144 C149 1.429 . S
C145 C144 1.438 . S
C145 C146 1.428 . S
C145 C158 1.394 . S
C146 H138 0.949 . S
C146 C145 1.428 . S
C146 C147 1.345 . S
C147 H139 0.950 . S
C147 C146 1.345 . S
C147 C148 1.424 . S
C148 H140 0.951 . S
C148 C147 1.424 . S
C148 C149 1.347 . S
C149 H141 0.951 . S
C149 C144 1.429 . S
C149 C148 1.347 . S
H150 C151 0.951 . S
C151 H150 0.951 . S
C151 C157 1.265 . S
H152 C157 0.950 . S
H153 C161 0.949 . S
H154 C162 0.950 . S
H155 C163 0.951 . S
H156 C164 0.951 . S
C157 C151 1.265 . S
C157 H152 0.950 . S
C157 C158 1.478 . S
C158 C145 1.394 . S
C158 C157 1.478 . S
C158 C159 1.397 . S
C159 C158 1.397 . S
C159 C160 1.438 . S
C159 C164 1.429 . S
C160 C143 1.394 . S
C160 C159 1.438 . S
C160 C161 1.428 . S
C161 H153 0.949 . S
C161 C160 1.428 . S
C161 C162 1.345 . S
C162 H154 0.950 . S
C162 C161 1.345 . S
C162 C163 1.424 . S
C163 H155 0.951 . S
C163 C162 1.424 . S
C163 C164 1.347 . S
C164 H156 0.951 . S
C164 C159 1.429 . S
C164 C163 1.347 . S
H165 C166 0.951 . S
C166 H165 0.951 . S
C166 C172 1.265 . S
H167 C172 0.950 . S
H168 C176 0.949 . S
H169 C177 0.950 . S
H170 C178 0.951 . S
H171 C179 0.951 . S
C172 C166 1.265 . S
C172 H167 0.950 . S
C172 C173 1.478 . S
C173 C172 1.478 . S
C173 C174 1.397 . S
C173 C190 1.394 . S
C174 C173 1.397 . S
C174 C175 1.438 . S
C174 C179 1.429 . S
C175 C174 1.438 . S
C175 C176 1.428 . S
C175 C188 1.394 . S
C176 H168 0.949 . S
C176 C175 1.428 . S
C176 C177 1.345 . S
C177 H169 0.950 . S
C177 C176 1.345 . S
C177 C178 1.424 . S
C178 H170 0.951 . S
C178 C177 1.424 . S
C178 C179 1.347 . S
C179 H171 0.951 . S
C179 C174 1.429 . S
C179 C178 1.347 . S
H180 C181 0.951 . S
C181 H180 0.951 . S
C181 C187 1.265 . S
H182 C187 0.950 . S
H183 C191 0.949 . S
H184 C192 0.950 . S
H185 C193 0.951 . S
H186 C194 0.951 . S
C187 C181 1.265 . S
C187 H182 0.950 . S
C187 C188 1.478 . S
C188 C175 1.394 . S
C188 C187 1.478 . S
C188 C189 1.397 . S
C189 C188 1.397 . S
C189 C190 1.438 . S
C189 C194 1.429 . S
C190 C173 1.394 . S
C190 C189 1.438 . S
C190 C191 1.428 . S
C191 H183 0.949 . S
C191 C190 1.428 . S
C191 C192 1.345 . S
C192 H184 0.950 . S
C192 C191 1.345 . S
C192 C193 1.424 . S
C193 H185 0.951 . S
C193 C192 1.424 . S
C193 C194 1.347 . S
C194 H186 0.951 . S
C194 C189 1.429 . S
C194 C193 1.347 . S
H195 C196 0.951 . S
C196 H195 0.951 . S
C196 C202 1.265 . S
H197 C202 0.950 . S
H198 C206 0.949 . S
H199 C207 0.950 . S
H200 C208 0.951 . S
H201 C209 0.951 . S
C202 C196 1.265 . S
C202 H197 0.950 . S
C202 C203 1.478 . S
C203 C202 1.478 . S
C203 C204 1.397 . S
C203 C220 1.394 . S
C204 C203 1.397 . S
C204 C205 1.438 . S
C204 C209 1.429 . S
C205 C204 1.438 . S
C205 C206 1.428 . S
C205 C218 1.394 . S
C206 H198 0.949 . S
C206 C205 1.428 . S
C206 C207 1.345 . S
C207 H199 0.950 . S
C207 C206 1.345 . S
C207 C208 1.424 . S
C208 H200 0.951 . S
C208 C207 1.424 . S
C208 C209 1.347 . S
C209 H201 0.951 . S
C209 C204 1.429 . S
C209 C208 1.347 . S
H210 C211 0.951 . S
C211 H210 0.951 . S
C211 C217 1.265 . S
H212 C217 0.950 . S
H213 C221 0.949 . S
H214 C222 0.950 . S
H215 C223 0.951 . S
H216 C224 0.951 . S
C217 C211 1.265 . S
C217 H212 0.950 . S
C217 C218 1.478 . S
C218 C205 1.394 . S
C218 C217 1.478 . S
C218 C219 1.397 . S
C219 C218 1.397 . S
C219 C220 1.438 . S
C219 C224 1.429 . S
C220 C203 1.394 . S
C220 C219 1.438 . S
C220 C221 1.428 . S
C221 H213 0.949 . S
C221 C220 1.428 . S
C221 C222 1.345 . S
C222 H214 0.950 . S
C222 C221 1.345 . S
C222 C223 1.424 . S
C223 H215 0.951 . S
C223 C222 1.424 . S
C223 C224 1.347 . S
C224 H216 0.951 . S
C224 C219 1.429 . S
C224 C223 1.347 . S
H225 C226 0.951 . S
C226 H225 0.951 . S
C226 C232 1.265 . S
H227 C232 0.950 . S
H228 C236 0.949 . S
H229 C237 0.950 . S
H230 C238 0.951 . S
H231 C239 0.951 . S
C232 C226 1.265 . S
C232 H227 0.950 . S
C232 C233 1.478 . S
C233 C232 1.478 . S
C233 C234 1.397 . S
C233 C250 1.394 . S
C234 C233 1.397 . S
C234 C235 1.438 . S
C234 C239 1.429 . S
C235 C234 1.438 . S
C235 C236 1.428 . S
C235 C248 1.394 . S
C236 H228 0.949 . S
C236 C235 1.428 . S
C236 C237 1.345 . S
C237 H229 0.950 . S
C237 C236 1.345 . S
C237 C238 1.424 . S
C238 H230 0.951 . S
C238 C237 1.424 . S
C238 C239 1.347 . S
C239 H231 0.951 . S
C239 C234 1.429 . S
C239 C238 1.347 . S
H240 C241 0.951 . S
C241 H240 0.951 . S
C241 C247 1.265 . S
H242 C247 0.950 . S
H243 C251 0.949 . S
H244 C252 0.950 . S
H245 C253 0.951 . S
H246 C254 0.951 . S
C247 C241 1.265 . S
C247 H242 0.950 . S
C247 C248 1.478 . S
C248 C235 1.394 . S
C248 C247 1.478 . S
C248 C249 1.397 . S
C249 C248 1.397 . S
C249 C250 1.438 . S
C249 C254 1.429 . S
C250 C233 1.394 . S
C250 C249 1.438 . S
C250 C251 1.428 . S
C251 H243 0.949 . S
C251 C250 1.428 . S
C251 C252 1.345 . S
C252 H244 0.950 . S
C252 C251 1.345 . S
C252 C253 1.424 . S
C253 H245 0.951 . S
C253 C252 1.424 . S
C253 C254 1.347 . S
C254 H246 0.951 . S
C254 C249 1.429 . S
C254 C253 1.347 . S
H255 C256 0.951 . S
C256 H255 0.951 . S
C256 C262 1.265 . S
H257 C262 0.950 . S
H258 C266 0.949 . S
H259 C267 0.950 . S
H260 C268 0.951 . S
H261 C269 0.951 . S
C262 C256 1.265 . S
C262 H257 0.950 . S
C262 C263 1.478 . S
C263 C262 1.478 . S
C263 C264 1.397 . S
C263 C280 1.394 . S
C264 C263 1.397 . S
C264 C265 1.438 . S
C264 C269 1.429 . S
C265 C264 1.438 . S
C265 C266 1.428 . S
C265 C278 1.394 . S
C266 H258 0.949 . S
C266 C265 1.428 . S
C266 C267 1.345 . S
C267 H259 0.950 . S
C267 C266 1.345 . S
C267 C268 1.424 . S
C268 H260 0.951 . S
C268 C267 1.424 . S
C268 C269 1.347 . S
C269 H261 0.951 . S
C269 C264 1.429 . S
C269 C268 1.347 . S
H270 C271 0.951 . S
C271 H270 0.951 . S
C271 C277 1.265 . S
H272 C277 0.950 . S
H273 C281 0.949 . S
H274 C282 0.950 . S
H275 C283 0.951 . S
H276 C284 0.951 . S
C277 C271 1.265 . S
C277 H272 0.950 . S
C277 C278 1.478 . S
C278 C265 1.394 . S
C278 C277 1.478 . S
C278 C279 1.397 . S
C279 C278 1.397 . S
C279 C280 1.438 . S
C279 C284 1.429 . S
C280 C263 1.394 . S
C280 C279 1.438 . S
C280 C281 1.428 . S
C281 H273 0.949 . S
C281 C280 1.428 . S
C281 C282 1.345 . S
C282 H274 0.950 . S
C282 C281 1.345 . S
C282 C283 1.424 . S
C283 H275 0.951 . S
C283 C282 1.424 . S
C283 C284 1.347 . S
C284 H276 0.951 . S
C284 C279 1.429 . S
C284 C283 1.347 . S
H285 C286 0.951 . S
C286 H285 0.951 . S
C286 C292 1.265 . S
H287 C292 0.950 . S
H288 C296 0.949 . S
H289 C297 0.950 . S
H290 C298 0.951 . S
H291 C299 0.951 . S
C292 C286 1.265 . S
C292 H287 0.950 . S
C292 C293 1.478 . S
C293 C292 1.478 . S
C293 C294 1.397 . S
C293 C310 1.394 . S
C294 C293 1.397 . S
C294 C295 1.438 . S
C294 C299 1.429 . S
C295 C294 1.438 . S
C295 C296 1.428 . S
C295 C308 1.394 . S
C296 H288 0.949 . S
C296 C295 1.428 . S
C296 C297 1.345 . S
C297 H289 0.950 . S
C297 C296 1.345 . S
C297 C298 1.424 . S
C298 H290 0.951 . S
C298 C297 1.424 . S
C298 C299 1.347 . S
C299 H291 0.951 . S
C299 C294 1.429 . S
C299 C298 1.347 . S
H300 C301 0.951 . S
C301 H300 0.951 . S
C301 C307 1.265 . S
H302 C307 0.950 . S
H303 C311 0.949 . S
H304 C312 0.950 . S
H305 C313 0.951 . S
H306 C314 0.951 . S
C307 C301 1.265 . S
C307 H302 0.950 . S
C307 C308 1.478 . S
C308 C295 1.394 . S
C308 C307 1.478 . S
C308 C309 1.397 . S
C309 C308 1.397 . S
C309 C310 1.438 . S
C309 C314 1.429 . S
C310 C293 1.394 . S
C310 C309 1.438 . S
C310 C311 1.428 . S
C311 H303 0.949 . S
C311 C310 1.428 . S
C311 C312 1.345 . S
C312 H304 0.950 . S
C312 C311 1.345 . S
C312 C313 1.424 . S
C313 H305 0.951 . S
C313 C312 1.424 . S
C313 C314 1.347 . S
C314 H306 0.951 . S
C314 C309 1.429 . S
C314 C313 1.347 . S
H315 C316 0.951 . S
C316 H315 0.951 . S
C316 C322 1.265 . S
H317 C322 0.950 . S
H318 C326 0.949 . S
H319 C327 0.950 . S
H320 C328 0.951 . S
H321 C329 0.951 . S
C322 C316 1.265 . S
C322 H317 0.950 . S
C322 C323 1.478 . S
C323 C322 1.478 . S
C323 C324 1.397 . S
C323 C340 1.394 . S
C324 C323 1.397 . S
C324 C325 1.438 . S
C324 C329 1.429 . S
C325 C324 1.438 . S
C325 C326 1.428 . S
C325 C338 1.394 . S
C326 H318 0.949 . S
C326 C325 1.428 . S
C326 C327 1.345 . S
C327 H319 0.950 . S
C327 C326 1.345 . S
C327 C328 1.424 . S
C328 H320 0.951 . S
C328 C327 1.424 . S
C328 C329 1.347 . S
C329 H321 0.951 . S
C329 C324 1.429 . S
C329 C328 1.347 . S
H330 C331 0.951 . S
C331 H330 0.951 . S
C331 C337 1.265 . S
H332 C337 0.950 . S
H333 C341 0.949 . S
H334 C342 0.950 . S
H335 C343 0.951 . S
H336 C344 0.951 . S
C337 C331 1.265 . S
C337 H332 0.950 . S
C337 C338 1.478 . S
C338 C325 1.394 . S
C338 C337 1.478 . S
C338 C339 1.397 . S
C339 C338 1.397 . S
C339 C340 1.438 . S
C339 C344 1.429 . S
C340 C323 1.394 . S
C340 C339 1.438 . S
C340 C341 1.428 . S
C341 H333 0.949 . S
C341 C340 1.428 . S
C341 C342 1.345 . S
C342 H334 0.950 . S
C342 C341 1.345 . S
C342 C343 1.424 . S
C343 H335 0.951 . S
C343 C342 1.424 . S
C343 C344 1.347 . S
C344 H336 0.951 . S
C344 C339 1.429 . S
C344 C343 1.347 . S
H345 C346 0.951 . S
C346 H345 0.951 . S
C346 C352 1.265 . S
H347 C352 0.950 . S
H348 C356 0.949 . S
H349 C357 0.950 . S
H350 C358 0.951 . S
H351 C359 0.951 . S
C352 C346 1.265 . S
C352 H347 0.950 . S
C352 C353 1.478 . S
C353 C352 1.478 . S
C353 C354 1.397 . S
C353 C370 1.394 . S
C354 C353 1.397 . S
C354 C355 1.438 . S
C354 C359 1.429 . S
C355 C354 1.438 . S
C355 C356 1.428 . S
C355 C368 1.394 . S
C356 H348 0.949 . S
C356 C355 1.428 . S
C356 C357 1.345 . S
C357 H349 0.950 . S
C357 C356 1.345 . S
C357 C358 1.424 . S
C358 H350 0.951 . S
C358 C357 1.424 . S
C358 C359 1.347 . S
C359 H351 0.951 . S
C359 C354 1.429 . S
C359 C358 1.347 . S
H360 C361 0.951 . S
C361 H360 0.951 . S
C361 C367 1.265 . S
H362 C367 0.950 . S
H363 C371 0.949 . S
H364 C372 0.950 . S
H365 C373 0.951 . S
H366 C374 0.951 . S
C367 C361 1.265 . S
C367 H362 0.950 . S
C367 C368 1.478 . S
C368 C355 1.394 . S
C368 C367 1.478 . S
C368 C369 1.397 . S
C369 C368 1.397 . S
C369 C370 1.438 . S
C369 C374 1.429 . S
C370 C353 1.394 . S
C370 C369 1.438 . S
C370 C371 1.428 . S
C371 H363 0.949 . S
C371 C370 1.428 . S
C371 C372 1.345 . S
C372 H364 0.950 . S
C372 C371 1.345 . S
C372 C373 1.424 . S
C373 H365 0.951 . S
C373 C372 1.424 . S
C373 C374 1.347 . S
C374 H366 0.951 . S
C374 C369 1.429 . S
C374 C373 1.347 . S
H375 C376 0.951 . S
C376 H375 0.951 . S
C376 C382 1.265 . S
H377 C382 0.950 . S
H378 C386 0.949 . S
H379 C387 0.950 . S
H380 C388 0.951 . S
H381 C389 0.951 . S
C382 C376 1.265 . S
C382 H377 0.950 . S
C382 C383 1.478 . S
C383 C382 1.478 . S
C383 C384 1.397 . S
C383 C400 1.394 . S
C384 C383 1.397 . S
C384 C385 1.438 . S
C384 C389 1.429 . S
C385 C384 1.438 . S
C385 C386 1.428 . S
C385 C398 1.394 . S
C386 H378 0.949 . S
C386 C385 1.428 . S
C386 C387 1.345 . S
C387 H379 0.950 . S
C387 C386 1.345 . S
C387 C388 1.424 . S
C388 H380 0.951 . S
C388 C387 1.424 . S
C388 C389 1.347 . S
C389 H381 0.951 . S
C389 C384 1.429 . S
C389 C388 1.347 . S
H390 C391 0.951 . S
C391 H390 0.951 . S
C391 C397 1.265 . S
H392 C397 0.950 . S
H393 C401 0.949 . S
H394 C402 0.950 . S
H395 C403 0.951 . S
H396 C404 0.951 . S
C397 C391 1.265 . S
C397 H392 0.950 . S
C397 C398 1.478 . S
C398 C385 1.394 . S
C398 C397 1.478 . S
C398 C399 1.397 . S
C399 C398 1.397 . S
C399 C400 1.438 . S
C399 C404 1.429 . S
C400 C383 1.394 . S
C400 C399 1.438 . S
C400 C401 1.428 . S
C401 H393 0.949 . S
C401 C400 1.428 . S
C401 C402 1.345 . S
C402 H394 0.950 . S
C402 C401 1.345 . S
C402 C403 1.424 . S
C403 H395 0.951 . S
C403 C402 1.424 . S
C403 C404 1.347 . S
C404 H396 0.951 . S
C404 C399 1.429 . S
C404 C403 1.347 . S
H405 C406 0.951 . S
C406 H405 0.951 . S
C406 C412 1.265 . S
H407 C412 0.950 . S
H408 C416 0.949 . S
H409 C417 0.950 . S
H410 C418 0.951 . S
H411 C419 0.951 . S
C412 C406 1.265 . S
C412 H407 0.950 . S
C412 C413 1.478 . S
C413 C412 1.478 . S
C413 C414 1.397 . S
C413 C430 1.394 . S
C414 C413 1.397 . S
C414 C415 1.438 . S
C414 C419 1.429 . S
C415 C414 1.438 . S
C415 C416 1.428 . S
C415 C428 1.394 . S
C416 H408 0.949 . S
C416 C415 1.428 . S
C416 C417 1.345 . S
C417 H409 0.950 . S
C417 C416 1.345 . S
C417 C418 1.424 . S
C418 H410 0.951 . S
C418 C417 1.424 . S
C418 C419 1.347 . S
C419 H411 0.951 . S
C419 C414 1.429 . S
C419 C418 1.347 . S
H420 C421 0.951 . S
C421 H420 0.951 . S
C421 C427 1.265 . S
H422 C427 0.950 . S
H423 C431 0.949 . S
H424 C432 0.950 . S
H425 C433 0.951 . S
H426 C434 0.951 . S
C427 C421 1.265 . S
C427 H422 0.950 . S
C427 C428 1.478 . S
C428 C415 1.394 . S
C428 C427 1.478 . S
C428 C429 1.397 . S
C429 C428 1.397 . S
C429 C430 1.438 . S
C429 C434 1.429 . S
C430 C413 1.394 . S
C430 C429 1.438 . S
C430 C431 1.428 . S
C431 H423 0.949 . S
C431 C430 1.428 . S
C431 C432 1.345 . S
C432 H424 0.950 . S
C432 C431 1.345 . S
C432 C433 1.424 . S
C433 H425 0.951 . S
C433 C432 1.424 . S
C433 C434 1.347 . S
C434 H426 0.951 . S
C434 C429 1.429 . S
C434 C433 1.347 . S
H435 C436 0.951 . S
C436 H435 0.951 . S
C436 C442 1.265 . S
H437 C442 0.950 . S
H438 C446 0.949 . S
H439 C447 0.950 . S
H440 C448 0.951 . S
H441 C449 0.951 . S
C442 C436 1.265 . S
C442 H437 0.950 . S
C442 C443 1.478 . S
C443 C442 1.478 . S
C443 C444 1.397 . S
C443 C460 1.394 . S
C444 C443 1.397 . S
C444 C445 1.438 . S
C444 C449 1.429 . S
C445 C444 1.438 . S
C445 C446 1.428 . S
C445 C458 1.394 . S
C446 H438 0.949 . S
C446 C445 1.428 . S
C446 C447 1.345 . S
C447 H439 0.950 . S
C447 C446 1.345 . S
C447 C448 1.424 . S
C448 H440 0.951 . S
C448 C447 1.424 . S
C448 C449 1.347 . S
C449 H441 0.951 . S
C449 C444 1.429 . S
C449 C448 1.347 . S
H450 C451 0.951 . S
C451 H450 0.951 . S
C451 C457 1.265 . S
H452 C457 0.950 . S
H453 C461 0.949 . S
H454 C462 0.950 . S
H455 C463 0.951 . S
H456 C464 0.951 . S
C457 C451 1.265 . S
C457 H452 0.950 . S
C457 C458 1.478 . S
C458 C445 1.394 . S
C458 C457 1.478 . S
C458 C459 1.397 . S
C459 C458 1.397 . S
C459 C460 1.438 . S
C459 C464 1.429 . S
C460 C443 1.394 . S
C460 C459 1.438 . S
C460 C461 1.428 . S
C461 H453 0.949 . S
C461 C460 1.428 . S
C461 C462 1.345 . S
C462 H454 0.950 . S
C462 C461 1.345 . S
C462 C463 1.424 . S
C463 H455 0.951 . S
C463 C462 1.424 . S
C463 C464 1.347 . S
C464 H456 0.951 . S
C464 C459 1.429 . S
C464 C463 1.347 . S
H465 C466 0.951 . S
C466 H465 0.951 . S
C466 C472 1.265 . S
H467 C472 0.950 . S
H468 C476 0.949 . S
H469 C477 0.950 . S
H470 C478 0.951 . S
H471 C479 0.951 . S
C472 C466 1.265 . S
C472 H467 0.950 . S
C472 C473 1.478 . S
C473 C472 1.478 . S
C473 C474 1.397 . S
C473 C490 1.394 . S
C474 C473 1.397 . S
C474 C475 1.438 . S
C474 C479 1.429 . S
C475 C474 1.438 . S
C475 C476 1.428 . S
C475 C488 1.394 . S
C476 H468 0.949 . S
C476 C475 1.428 . S
C476 C477 1.345 . S
C477 H469 0.950 . S
C477 C476 1.345 . S
C477 C478 1.424 . S
C478 H470 0.951 . S
C478 C477 1.424 . S
C478 C479 1.347 . S
C479 H471 0.951 . S
C479 C474 1.429 . S
C479 C478 1.347 . S
H480 C481 0.951 . S
C481 H480 0.951 . S
C481 C487 1.265 . S
H482 C487 0.950 . S
H483 C491 0.949 . S
H484 C492 0.950 . S
H485 C493 0.951 . S
H486 C494 0.951 . S
C487 C481 1.265 . S
C487 H482 0.950 . S
C487 C488 1.478 . S
C488 C475 1.394 . S
C488 C487 1.478 . S
C488 C489 1.397 . S
C489 C488 1.397 . S
C489 C490 1.438 . S
C489 C494 1.429 . S
C490 C473 1.394 . S
C490 C489 1.438 . S
C490 C491 1.428 . S
C491 H483 0.949 . S
C491 C490 1.428 . S
C491 C492 1.345 . S
C492 H484 0.950 . S
C492 C491 1.345 . S
C492 C493 1.424 . S
C493 H485 0.951 . S
C493 C492 1.424 . S
C493 C494 1.347 . S
C494 H486 0.951 . S
C494 C489 1.429 . S
C494 C493 1.347 . S
H495 C496 0.951 1_655 S
C496 H495 0.951 1_455 S
C496 C502 1.265 . S
H497 C502 0.950 . S
H498 C506 0.949 . S
H499 C507 0.950 1_556 S
H500 C508 0.951 . S
H501 C509 0.955 . S
C502 C496 1.265 . S
C502 H497 0.950 . S
C502 C503 1.478 . S
C503 C502 1.478 . S
C503 C504 1.397 . S
C503 C520 1.394 . S
C504 C503 1.397 . S
C504 C505 1.438 1_455 S
C504 C509 1.429 1_455 S
C505 C504 1.438 1_655 S
C505 C506 1.428 1_554 S
C505 C518 1.383 1_654 S
C506 H498 0.949 . S
C506 C505 1.428 1_556 S
C506 C507 1.345 1_556 S
C507 H499 0.950 1_554 S
C507 C506 1.345 1_554 S
C507 C508 1.424 . S
C508 H500 0.951 . S
C508 C507 1.424 . S
C508 C509 1.347 . S
C509 H501 0.955 . S
C509 C504 1.429 1_655 S
C509 C508 1.347 . S
H510 C511 0.951 . S
C511 H510 0.951 . S
C511 C517 1.265 1_455 S
H512 C517 0.950 . S
H513 C521 0.949 . S
H514 C522 0.950 . S
H515 C523 0.951 . S
H516 C524 0.951 1_556 S
C517 C511 1.265 1_655 S
C517 H512 0.950 . S
C517 C518 1.513 1_655 S
C518 C505 1.383 1_456 S
C518 C517 1.513 1_455 S
C518 C519 1.374 1_556 S
C519 C518 1.374 1_554 S
C519 C520 1.438 . S
C519 C524 1.429 . S
C520 C503 1.394 . S
C520 C519 1.438 . S
C520 C521 1.428 . S
C521 H513 0.949 . S
C521 C520 1.428 . S
C521 C522 1.345 . S
C522 H514 0.950 . S
C522 C521 1.345 . S
C522 C523 1.424 . S
C523 H515 0.951 . S
C523 C522 1.424 . S
C523 C524 1.347 . S
C524 H516 0.951 1_554 S
C524 C519 1.429 . S
C524 C523 1.347 . S
H525 C526 0.951 . S
C526 H525 0.951 . S
C526 C532 1.265 . S
H527 C532 0.950 . S
H528 C536 0.949 . S
H529 C537 0.950 . S
H530 C538 0.951 . S
H531 C539 0.951 . S
C532 C526 1.265 . S
C532 H527 0.950 . S
C532 C533 1.478 . S
C533 C532 1.478 . S
C533 C534 1.397 . S
C533 C550 1.394 1_545 S
C534 C533 1.397 . S
C534 C535 1.438 . S
C534 C539 1.429 . S
C535 C534 1.438 . S
C535 C536 1.428 . S
C535 C548 1.394 . S
C536 H528 0.949 . S
C536 C535 1.428 . S
C536 C537 1.345 . S
C537 H529 0.950 . S
C537 C536 1.345 . S
C537 C538 1.424 . S
C538 H530 0.951 . S
C538 C537 1.424 . S
C538 C539 1.347 . S
C539 H531 0.951 . S
C539 C534 1.429 . S
C539 C538 1.347 . S
H540 C541 0.951 . S
C541 H540 0.951 . S
C541 C547 1.265 1_545 S
H542 C547 0.950 . S
H543 C551 0.949 . S
H544 C552 0.950 . S
H545 C553 0.951 . S
H546 C554 0.951 . S
C547 C541 1.265 1_565 S
C547 H542 0.950 . S
C547 C548 1.478 1_565 S
C548 C535 1.394 . S
C548 C547 1.478 1_545 S
C548 C549 1.397 1_545 S
C549 C548 1.397 1_565 S
C549 C550 1.438 . S
C549 C554 1.429 . S
C550 C533 1.394 1_565 S
C550 C549 1.438 . S
C550 C551 1.428 . S
C551 H543 0.949 . S
C551 C550 1.428 . S
C551 C552 1.345 . S
C552 H544 0.950 . S
C552 C551 1.345 . S
C552 C553 1.424 . S
C553 H545 0.951 . S
C553 C552 1.424 . S
C553 C554 1.347 . S
C554 H546 0.951 . S
C554 C549 1.429 . S
C554 C553 1.347 . S
H555 C556 0.951 . S
C556 H555 0.951 . S
C556 C562 1.265 . S
H557 C562 0.950 . S
H558 C566 0.949 . S
H559 C567 0.950 . S
H560 C568 0.951 . S
H561 C569 0.951 . S
C562 C556 1.265 . S
C562 H557 0.950 . S
C562 C563 1.478 . S
C563 C562 1.478 . S
C563 C564 1.397 . S
C563 C580 1.394 . S
C564 C563 1.397 . S
C564 C565 1.438 . S
C564 C569 1.429 . S
C565 C564 1.438 . S
C565 C566 1.428 . S
C565 C578 1.394 . S
C566 H558 0.949 . S
C566 C565 1.428 . S
C566 C567 1.345 . S
C567 H559 0.950 . S
C567 C566 1.345 . S
C567 C568 1.424 . S
C568 H560 0.951 . S
C568 C567 1.424 . S
C568 C569 1.347 . S
C569 H561 0.951 . S
C569 C564 1.429 . S
C569 C568 1.347 . S
H570 C571 0.951 . S
C571 H570 0.951 . S
C571 C577 1.265 . S
H572 C577 0.950 . S
H573 C581 0.949 . S
H574 C582 0.950 . S
H575 C583 0.951 . S
H576 C584 0.951 . S
C577 C571 1.265 . S
C577 H572 0.950 . S
C577 C578 1.478 . S
C578 C565 1.394 . S
C578 C577 1.478 . S
C578 C579 1.397 . S
C579 C578 1.397 . S
C579 C580 1.438 . S
C579 C584 1.429 . S
C580 C563 1.394 . S
C580 C579 1.438 . S
C580 C581 1.428 . S
C581 H573 0.949 . S
C581 C580 1.428 . S
C581 C582 1.345 . S
C582 H574 0.950 . S
C582 C581 1.345 . S
C582 C583 1.424 . S
C583 H575 0.951 . S
C583 C582 1.424 . S
C583 C584 1.347 . S
C584 H576 0.951 . S
C584 C579 1.429 . S
C584 C583 1.347 . S
H585 C586 0.951 . S
C586 H585 0.951 . S
C586 C592 1.260 . S
H587 C592 0.957 1_565 S
H588 C596 0.949 . S
H589 C597 0.950 . S
H590 C598 0.951 . S
H591 C599 0.951 . S
C592 C586 1.260 . S
C592 H587 0.957 1_545 S
C592 C593 1.478 . S
C593 C592 1.478 . S
C593 C594 1.397 1_545 S
C593 C610 1.394 . S
C594 C593 1.397 1_565 S
C594 C595 1.438 . S
C594 C599 1.429 . S
C595 C594 1.438 . S
C595 C596 1.428 . S
C595 C608 1.394 1_565 S
C596 H588 0.949 . S
C596 C595 1.428 . S
C596 C597 1.345 . S
C597 H589 0.950 . S
C597 C596 1.345 . S
C597 C598 1.424 . S
C598 H590 0.951 . S
C598 C597 1.424 . S
C598 C599 1.347 . S
C599 H591 0.951 . S
C599 C594 1.429 . S
C599 C598 1.347 . S
H600 C601 0.951 . S
C601 H600 0.951 . S
C601 C607 1.265 . S
H602 C607 0.950 . S
H603 C611 0.949 . S
H604 C612 0.950 . S
H605 C613 0.951 . S
H606 C614 0.951 . S
C607 C601 1.265 . S
C607 H602 0.950 . S
C607 C608 1.478 . S
C608 C595 1.394 1_545 S
C608 C607 1.478 . S
C608 C609 1.397 . S
C609 C608 1.397 . S
C609 C610 1.438 . S
C609 C614 1.429 . S
C610 C593 1.394 . S
C610 C609 1.438 . S
C610 C611 1.428 . S
C611 H603 0.949 . S
C611 C610 1.428 . S
C611 C612 1.345 . S
C612 H604 0.950 . S
C612 C611 1.345 . S
C612 C613 1.424 . S
C613 H605 0.951 . S
C613 C612 1.424 . S
C613 C614 1.347 . S
C614 H606 0.951 . S
C614 C609 1.429 . S
C614 C613 1.347 . S
H615 C616 0.951 . S
C616 H615 0.951 . S
C616 C622 1.265 . S
H617 C622 0.950 . S
H618 C626 0.949 . S
H619 C627 0.926 1_554 S
H620 C628 0.951 . S
H621 C629 0.951 . S
C622 C616 1.265 . S
C622 H617 0.950 . S
C622 C623 1.478 . S
C623 C622 1.478 . S
C623 C624 1.397 . S
C623 C640 1.394 . S
C624 C623 1.397 . S
C624 C625 1.438 . S
C624 C629 1.429 . S
C625 C624 1.438 . S
C625 C626 1.428 1_556 S
C625 C638 1.371 1_556 S
C626 H618 0.949 . S
C626 C625 1.428 1_554 S
C626 C627 1.345 1_554 S
C627 H619 0.926 1_556 S
C627 C626 1.345 1_556 S
C627 C628 1.424 . S
C628 H620 0.951 . S
C628 C627 1.424 . S
C628 C629 1.347 . S
C629 H621 0.951 . S
C629 C624 1.429 . S
C629 C628 1.347 . S
H630 C631 0.951 . S
C631 H630 0.951 . S
C631 C637 1.265 . S
H632 C637 0.950 . S
H633 C641 0.949 . S
H634 C642 0.950 . S
H635 C643 0.951 . S
H636 C644 0.951 1_554 S
C637 C631 1.265 . S
C637 H632 0.950 . S
C637 C638 1.531 . S
C638 C625 1.371 1_554 S
C638 C637 1.531 . S
C638 C639 1.368 1_554 S
C639 C638 1.368 1_556 S
C639 C640 1.438 . S
C639 C644 1.429 . S
C640 C623 1.394 . S
C640 C639 1.438 . S
C640 C641 1.428 . S
C641 H633 0.949 . S
C641 C640 1.428 . S
C641 C642 1.345 . S
C642 H634 0.950 . S
C642 C641 1.345 . S
C642 C643 1.424 . S
C643 H635 0.951 . S
C643 C642 1.424 . S
C643 C644 1.347 . S
C644 H636 0.951 1_556 S
C644 C639 1.429 . S
C644 C643 1.347 . S
H645 C646 0.951 . S
C646 H645 0.951 . S
C646 C652 1.265 1_455 S
H647 C652 0.950 . S
H648 C656 0.949 . S
H649 C657 0.950 . S
H650 C658 0.951 . S
H651 C659 0.951 . S
C652 C646 1.265 1_655 S
C652 H647 0.950 . S
C652 C653 1.478 . S
C653 C652 1.478 . S
C653 C654 1.397 . S
C653 C670 1.394 1_655 S
C654 C653 1.397 . S
C654 C655 1.438 . S
C654 C659 1.429 . S
C655 C654 1.438 . S
C655 C656 1.428 . S
C655 C668 1.394 1_655 S
C656 H648 0.949 . S
C656 C655 1.428 . S
C656 C657 1.345 . S
C657 H649 0.950 . S
C657 C656 1.345 . S
C657 C658 1.424 . S
C658 H650 0.951 . S
C658 C657 1.424 . S
C658 C659 1.347 . S
C659 H651 0.951 . S
C659 C654 1.429 . S
C659 C658 1.347 . S
H660 C661 0.951 . S
C661 H660 0.951 . S
C661 C667 1.265 1_655 S
H662 C667 0.950 . S
H663 C671 0.949 . S
H664 C672 0.950 . S
H665 C673 0.951 . S
H666 C674 0.951 . S
C667 C661 1.265 1_455 S
C667 H662 0.950 . S
C667 C668 1.478 . S
C668 C655 1.394 1_455 S
C668 C667 1.478 . S
C668 C669 1.397 . S
C669 C668 1.397 . S
C669 C670 1.438 . S
C669 C674 1.429 . S
C670 C653 1.394 1_455 S
C670 C669 1.438 . S
C670 C671 1.428 . S
C671 H663 0.949 . S
C671 C670 1.428 . S
C671 C672 1.345 . S
C672 H664 0.950 . S
C672 C671 1.345 . S
C672 C673 1.424 . S
C673 H665 0.951 . S
C673 C672 1.424 . S
C673 C674 1.347 . S
C674 H666 0.951 . S
C674 C669 1.429 . S
C674 C673 1.347 . S
C136 C20 1.347 . S
C151 C129 1.257 . S
C166 C41 1.442 . S
C181 C107 1.204 . S
C196 C64 1.106 . S
C211 C121 1.098 . S
C226 C19 1.050 . S
C241 C132 1.064 . S
C271 C110 1.036 . S
C256 C44 1.060 . S
C301 C118 1.185 . S
C286 C67 1.438 . S
C316 C43 1.326 . S
C331 C85 1.341 . S
C346 C66 1.394 . S
C361 C96 1.272 . S
C376 C21 1.452 . S
C391 C74 1.210 . S
C421 C88 1.050 . S
C406 C42 1.014 . S
C451 C99 1.101 . S
C436 C65 1.098 . S
C466 C18 1.085 . S
C481 C77 1.029 . S
C511 C98 1.371 . S
C496 C17 1.488 . S
C526 C39 1.491 . S
C541 C76 1.465 . S
C556 C62 1.500 . S
C571 C87 1.438 . S
C601 C120 1.450 . S
C586 C40 1.465 . S
C631 C131 1.456 . S
C616 C63 1.490 . S
C646 C16 1.491 . S
C661 C109 1.419 . S
