# Generated by pormake.
# Topology pth, (4,4)-cn, num edge types: 1
# Building blocks:
#     Node 0, Type 0, BuildingBlock: NAHDIM_clean_sbu_0, # of connection points: 4
#     Node 1, Type 0, BuildingBlock: NAHDIM_clean_sbu_0, # of connection points: 4
#     Node 2, Type 0, BuildingBlock: NAHDIM_clean_sbu_0, # of connection points: 4
#     Node 3, Type 1, BuildingBlock: MUDLON_clean_sbu_0, # of connection points: 4
#     Node 4, Type 1, BuildingBlock: MUDLON_clean_sbu_0, # of connection points: 4
#     Node 5, Type 1, BuildingBlock: MUDLON_clean_sbu_0, # of connection points: 4
#     Edge 6, Type (0, 1), BuildingBlock: TEMPAE_clean_linker_10, # of connection points: 2
#     Edge 7, Type (0, 1), BuildingBlock: TEMPAE_clean_linker_10, # of connection points: 2
#     Edge 8, Type (0, 1), BuildingBlock: TEMPAE_clean_linker_10, # of connection points: 2
#     Edge 9, Type (0, 1), BuildingBlock: TEMPAE_clean_linker_10, # of connection points: 2
#     Edge 10, Type (0, 1), BuildingBlock: TEMPAE_clean_linker_10, # of connection points: 2
#     Edge 11, Type (0, 1), BuildingBlock: TEMPAE_clean_linker_10, # of connection points: 2
#     Edge 12, Type (0, 1), BuildingBlock: TEMPAE_clean_linker_10, # of connection points: 2
#     Edge 13, Type (0, 1), BuildingBlock: TEMPAE_clean_linker_10, # of connection points: 2
#     Edge 14, Type (0, 1), BuildingBlock: TEMPAE_clean_linker_10, # of connection points: 2
#     Edge 15, Type (0, 1), BuildingBlock: TEMPAE_clean_linker_10, # of connection points: 2
#     Edge 16, Type (0, 1), BuildingBlock: TEMPAE_clean_linker_10, # of connection points: 2
#     Edge 17, Type (0, 1), BuildingBlock: TEMPAE_clean_linker_10, # of connection points: 2
# Relax obj value: 0.076
# Max RMSD: 0.190
# Mean RMSD: 0.122
data_MOF--net-pth--node1-NAHDIM_clean_sbu_0--node2-MUDLON_clean_sbu_0--edge1-TEMPAE_clean_linker_10
_symmetry_space_group_name_H-M    P1
_symmetry_Int_Tables_number       1
_symmetry_cell_setting            triclinic
loop_
_symmetry_equiv_pos_as_xyz
'x, y, z'
_cell_length_a     22.949024
_cell_length_b     23.064914
_cell_length_c     60.106423
_cell_angle_alpha  92.144884
_cell_angle_beta   90.099594
_cell_angle_gamma 120.72428
loop_
_atom_site_label
_atom_site_type_symbol
_atom_site_fract_x
_atom_site_fract_y
_atom_site_fract_z
_atom_type_partial_charge
C0 C 0.07296 0.97186 0.09763 0.0
O1 O 0.05349 0.94637 0.07721 0.0
O2 O 0.04297 0.14689 0.09825 0.0
Zn3 Zn 0.06564 0.08471 0.08074 0.0
O4 O 0.9895 0.02322 0.05884 0.0
C5 C 0.15707 0.18801 0.05234 0.0
O6 O 0.10687 0.19989 0.05199 0.0
O7 O 0.08138 0.02969 0.1027 0.0
C8 C 0.95103 0.04022 0.04945 0.0
O9 O 0.95962 0.10019 0.0542 0.0
C10 C 0.98512 0.12684 0.10657 0.0
O11 O 0.93706 0.06331 0.10342 0.0
O12 O 0.1515 0.14033 0.06382 0.0
C13 C 0.12624 0.19841 0.3785 0.0
O14 O 0.16666 0.17424 0.37547 0.0
O15 O 0.05641 0.02014 0.39178 0.0
Zn16 Zn 0.07255 0.09914 0.41217 0.0
O17 O 0.99421 0.07021 0.43289 0.0
C18 C 0.16053 0.08761 0.44249 0.0
O19 O 0.10869 0.02539 0.44177 0.0
O20 O 0.08209 0.17444 0.39355 0.0
C21 C 0.99158 0.1136 0.44583 0.0
O22 O 0.04 0.1772 0.4452 0.0
C23 C 0.9999 0.96475 0.39032 0.0
O24 O 0.94935 0.95791 0.40243 0.0
O25 O 0.15773 0.13081 0.43072 0.0
C26 C 0.13909 0.06822 0.71114 0.0
O27 O 0.15508 0.13104 0.71533 0.0
O28 O 0.97505 0.06507 0.72613 0.0
Zn29 Zn 0.03819 0.04509 0.74336 0.0
O30 O 0.10428 0.12567 0.76296 0.0
C31 C 0.92908 0.95361 0.77116 0.0
O32 O 0.90558 0.99345 0.76685 0.0
O33 O 0.09012 0.02157 0.72137 0.0
C34 C 0.08509 0.15378 0.7774 0.0
O35 O 0.01997 0.1308 0.77944 0.0
C36 C 0.99036 0.12423 0.72108 0.0
O37 O 0.04957 0.17584 0.72756 0.0
O38 O 0.98469 0.96547 0.76272 0.0
Mg39 Mg 0.02144 0.56095 0.24557 0.0
C40 C 0.04741 0.46839 0.26891 0.0
O41 O 0.98332 0.43384 0.2625 0.0
C42 C 0.0324 0.66874 0.21954 0.0
O43 O 0.97192 0.63943 0.22824 0.0
C44 C 0.9591 0.47632 0.20252 0.0
O45 O 0.99037 0.53582 0.19378 0.0
O46 O 0.95744 0.47301 0.22361 0.0
O47 O 0.08274 0.52994 0.26383 0.0
O48 O 0.97073 0.59056 0.27023 0.0
C49 C 0.99195 0.60174 0.2904 0.0
O50 O 0.03706 0.58597 0.29632 0.0
O51 O 0.07185 0.64717 0.22441 0.0
Mg52 Mg 0.56808 0.09136 0.57977 0.0
C53 C 0.5455 0.15298 0.53974 0.0
O54 O 0.58367 0.13152 0.5308 0.0
C55 C 0.6499 0.14849 0.62274 0.0
O56 O 0.58888 0.12387 0.63075 0.0
C57 C 0.42396 0.01864 0.59481 0.0
O58 O 0.4146 0.03263 0.57459 0.0
O59 O 0.48257 0.03072 0.60062 0.0
O60 O 0.53712 0.14977 0.56066 0.0
O61 O 0.59605 0.03725 0.55591 0.0
C62 C 0.64425 0.02749 0.56073 0.0
O63 O 0.66742 0.03908 0.58141 0.0
O64 O 0.65652 0.14816 0.60174 0.0
Mg65 Mg 0.56063 0.56702 0.91552 0.0
C66 C 0.43996 0.46042 0.89119 0.0
O67 O 0.46527 0.42822 0.90121 0.0
C68 C 0.63344 0.71425 0.93024 0.0
O69 O 0.65956 0.71917 0.91049 0.0
C70 C 0.54407 0.50233 0.95987 0.0
O71 O 0.57423 0.56568 0.96719 0.0
O72 O 0.53964 0.48928 0.93898 0.0
O73 O 0.46951 0.5243 0.89422 0.0
O74 O 0.64732 0.59773 0.89419 0.0
C75 C 0.63863 0.58614 0.87323 0.0
O76 O 0.57715 0.5447 0.86516 0.0
O77 O 0.58484 0.6572 0.93572 0.0
C78 C 0.90637 0.1578 0.12517 0.0
C79 C 0.97264 0.1744 0.12003 0.0
C80 C 0.89425 0.20241 0.13814 0.0
C81 C 0.94977 0.26449 0.14646 0.0
C82 C 0.01674 0.28139 0.14134 0.0
C83 C 0.0273 0.23644 0.12805 0.0
C84 C 0.82216 0.1832 0.14294 0.0
C85 C 0.07744 0.34674 0.15011 0.0
C86 C 0.93856 0.41735 0.16508 0.0
C87 C 0.94202 0.41554 0.18832 0.0
C88 C 0.93629 0.36588 0.15118 0.0
C89 C 0.9387 0.31197 0.16077 0.0
C90 C 0.93786 0.30771 0.18422 0.0
C91 C 0.93889 0.35925 0.19772 0.0
C92 C 0.93564 0.37149 0.12625 0.0
C93 C 0.94105 0.25144 0.19513 0.0
H94 H 0.86386 0.1101 0.11891 0.0
H95 H 0.07865 0.2495 0.12425 0.0
H96 H 0.81419 0.18015 0.16115 0.0
H97 H 0.81235 0.22264 0.13717 0.0
H98 H 0.78455 0.13396 0.13471 0.0
H99 H 0.12618 0.3519 0.14484 0.0
H100 H 0.07475 0.39026 0.14415 0.0
H101 H 0.07729 0.34966 0.16858 0.0
H102 H 0.94045 0.46045 0.15771 0.0
H103 H 0.94176 0.35748 0.21566 0.0
H104 H 0.89755 0.32245 0.11808 0.0
H105 H 0.98595 0.38471 0.11972 0.0
H106 H 0.92424 0.41077 0.12144 0.0
H107 H 0.90236 0.20167 0.18759 0.0
H108 H 0.93315 0.25158 0.21336 0.0
H109 H 0.99145 0.25705 0.19235 0.0
C110 C 0.88605 0.02432 0.46348 0.0
C111 C 0.93551 0.09274 0.46167 0.0
C112 C 0.83357 0.00416 0.47878 0.0
C113 C 0.83041 0.05357 0.49255 0.0
C114 C 0.87983 0.12268 0.49066 0.0
C115 C 0.93175 0.14136 0.47529 0.0
C116 C 0.78189 0.93004 0.48036 0.0
C117 C 0.87813 0.17701 0.50499 0.0
C118 C 0.67001 0.02489 0.52034 0.0
C119 C 0.68417 0.01985 0.54268 0.0
C120 C 0.71543 0.03203 0.50355 0.0
C121 C 0.77622 0.03374 0.50923 0.0
C122 C 0.78825 0.02353 0.53145 0.0
C123 C 0.74211 0.01676 0.54792 0.0
C124 C 0.70054 0.04243 0.48004 0.0
C125 C 0.85208 0.02428 0.53815 0.0
H126 H 0.88856 0.98636 0.45303 0.0
H127 H 0.96957 0.1943 0.474 0.0
H128 H 0.78349 0.91379 0.49738 0.0
H129 H 0.73011 0.921 0.4774 0.0
H130 H 0.7907 0.89802 0.46819 0.0
H131 H 0.91971 0.22848 0.50123 0.0
H132 H 0.82897 0.17449 0.50247 0.0
H133 H 0.88248 0.16876 0.52283 0.0
H134 H 0.62525 0.02701 0.51608 0.0
H135 H 0.75328 0.01237 0.56509 0.0
H136 H 0.70869 0.00974 0.46801 0.0
H137 H 0.73588 0.09557 0.47585 0.0
H138 H 0.64777 0.0316 0.47782 0.0
H139 H 0.86093 0.99113 0.52656 0.0
H140 H 0.85003 0.00761 0.55538 0.0
H141 H 0.89625 0.07625 0.53719 0.0
C142 C 0.91441 0.85134 0.78976 0.0
C143 C 0.89166 0.89631 0.78592 0.0
C144 C 0.87917 0.79709 0.80379 0.0
C145 C 0.81999 0.7878 0.81428 0.0
C146 C 0.79699 0.83317 0.81052 0.0
C147 C 0.83296 0.88668 0.79637 0.0
C148 C 0.90507 0.74964 0.80734 0.0
C149 C 0.73422 0.82521 0.82146 0.0
C150 C 0.68203 0.62015 0.83492 0.0
C151 C 0.69271 0.63089 0.85807 0.0
C152 C 0.72572 0.66916 0.82033 0.0
C153 C 0.78123 0.73055 0.8291 0.0
C154 C 0.79503 0.73967 0.85235 0.0
C155 C 0.75079 0.68958 0.86656 0.0
C156 C 0.70975 0.65704 0.79562 0.0
C157 C 0.8537 0.80435 0.86239 0.0
H158 H 0.95971 0.85835 0.78175 0.0
H159 H 0.81505 0.92118 0.79358 0.0
H160 H 0.91577 0.74917 0.82532 0.0
H161 H 0.8657 0.6974 0.80193 0.0
H162 H 0.95198 0.76392 0.79803 0.0
H163 H 0.72354 0.86525 0.81702 0.0
H164 H 0.68963 0.77539 0.81641 0.0
H165 H 0.74014 0.82674 0.83984 0.0
H166 H 0.63764 0.57473 0.82819 0.0
H167 H 0.75969 0.69835 0.88441 0.0
H168 H 0.75604 0.66979 0.78621 0.0
H169 H 0.6913 0.69034 0.79007 0.0
H170 H 0.67028 0.60384 0.79126 0.0
H171 H 0.90095 0.8183 0.85339 0.0
H172 H 0.86232 0.80041 0.88032 0.0
H173 H 0.8433 0.846 0.86072 0.0
C174 C 0.10909 0.96189 0.13597 0.0
C175 C 0.0806 0.93195 0.11496 0.0
C176 C 0.1113 0.92338 0.15315 0.0
C177 C 0.08357 0.85309 0.14932 0.0
C178 C 0.05747 0.82315 0.12786 0.0
C179 C 0.05664 0.86302 0.11091 0.0
C180 C 0.14034 0.95736 0.1757 0.0
C181 C 0.02688 0.74826 0.12314 0.0
C182 C 0.11002 0.74723 0.19094 0.0
C183 C 0.04956 0.72019 0.20272 0.0
C184 C 0.1229 0.79203 0.1738 0.0
C185 C 0.07393 0.80957 0.1683 0.0
C186 C 0.0137 0.78364 0.18053 0.0
C187 C 1.00247 0.73968 0.1976 0.0
C188 C 0.18808 0.81944 0.16128 0.0
C189 C 0.96001 0.80084 0.17521 0.0
H190 H 0.12846 0.01531 0.13918 0.0
H191 H 0.03477 0.83949 0.09471 0.0
H192 H 0.09876 0.94124 0.18772 0.0
H193 H 0.17568 0.9421 0.18211 0.0
H194 H 0.16773 0.01328 0.17519 0.0
H195 H 0.01461 0.7339 0.10515 0.0
H196 H 0.06207 0.73189 0.12877 0.0
H197 H 0.97955 0.7202 0.13257 0.0
H198 H 0.14668 0.7325 0.19481 0.0
H199 H 0.95571 0.71941 0.20665 0.0
H200 H 0.21436 0.87532 0.16121 0.0
H201 H 0.17671 0.80018 0.14368 0.0
H202 H 0.22302 0.80488 0.1686 0.0
H203 H 0.98215 0.85634 0.17637 0.0
H204 H 0.91654 0.77737 0.18659 0.0
H205 H 0.94058 0.78338 0.15786 0.0
C206 C 0.27415 0.17392 0.45929 0.0
C207 C 0.221 0.10652 0.45674 0.0
C208 C 0.33152 0.19181 0.4728 0.0
C209 C 0.33599 0.14103 0.48386 0.0
C210 C 0.28241 0.07302 0.48138 0.0
C211 C 0.22561 0.05668 0.46793 0.0
C212 C 0.3874 0.26488 0.47519 0.0
C213 C 0.28527 0.01724 0.4928 0.0
C214 C 0.50226 0.15759 0.50202 0.0
C215 C 0.50027 0.16453 0.52526 0.0
C216 C 0.45114 0.15407 0.48817 0.0
C217 C 0.39688 0.15794 0.49777 0.0
C218 C 0.39736 0.1702 0.52105 0.0
C219 C 0.44905 0.17332 0.53453 0.0
C220 C 0.45269 0.14123 0.46342 0.0
C221 C 0.34082 0.17533 0.53193 0.0
H222 H 0.27089 0.21281 0.45078 0.0
H223 H 0.1849 0.00449 0.46606 0.0
H224 H 0.39613 0.28193 0.49302 0.0
H225 H 0.43548 0.27057 0.469 0.0
H226 H 0.37556 0.29849 0.46589 0.0
H227 H 0.23925 0.967 0.48924 0.0
H228 H 0.33026 0.01505 0.4873 0.0
H229 H 0.29075 0.02772 0.51109 0.0
H230 H 0.54184 0.15124 0.49465 0.0
H231 H 0.44718 0.17907 0.55245 0.0
H232 H 0.44292 0.17592 0.45397 0.0
H233 H 0.41196 0.08892 0.45867 0.0
H234 H 0.502 0.14749 0.45829 0.0
H235 H 0.32943 0.20936 0.52275 0.0
H236 H 0.35335 0.19421 0.54958 0.0
H237 H 0.29406 0.12476 0.53144 0.0
C238 C 0.20498 0.2351 0.78992 0.0
C239 C 0.13534 0.20882 0.79269 0.0
C240 C 0.25293 0.28278 0.8054 0.0
C241 C 0.23077 0.30454 0.82418 0.0
C242 C 0.1608 0.28063 0.82653 0.0
C243 C 0.11391 0.23312 0.81073 0.0
C244 C 0.32713 0.30732 0.80221 0.0
C245 C 0.13516 0.30258 0.84632 0.0
C246 C 0.34439 0.35164 0.87554 0.0
C247 C 0.38186 0.42234 0.87534 0.0
C248 C 0.29369 0.3131 0.8594 0.0
C249 C 0.28001 0.34593 0.84251 0.0
C250 C 0.31583 0.41743 0.84264 0.0
C251 C 0.36637 0.45494 0.85914 0.0
C252 C 0.25636 0.23701 0.86001 0.0
C253 C 0.30252 0.45414 0.82491 0.0
H254 H 0.2221 0.21716 0.77591 0.0
H255 H 0.06024 0.2134 0.81296 0.0
H256 H 0.35759 0.36322 0.8039 0.0
H257 H 0.34545 0.28745 0.81533 0.0
H258 H 0.33663 0.29087 0.78569 0.0
H259 H 0.08049 0.28558 0.84441 0.0
H260 H 0.14243 0.28123 0.8616 0.0
H261 H 0.16442 0.35834 0.84882 0.0
H262 H 0.35558 0.32605 0.88814 0.0
H263 H 0.39526 0.50955 0.85887 0.0
H264 H 0.26782 0.21567 0.84495 0.0
H265 H 0.20081 0.21625 0.85989 0.0
H266 H 0.27049 0.21949 0.87495 0.0
H267 H 0.31844 0.44374 0.80855 0.0
H268 H 0.3303 0.50961 0.82842 0.0
H269 H 0.24749 0.43563 0.82343 0.0
C270 C 0.88419 0.07895 0.69779 0.0
C271 C 0.9427 0.13455 0.70747 0.0
C272 C 0.83952 0.0878 0.68435 0.0
C273 C 0.85324 0.15386 0.68062 0.0
C274 C 0.91171 0.21021 0.69055 0.0
C275 C 0.95592 0.1999 0.70378 0.0
C276 C 0.7779 0.02635 0.67394 0.0
C277 C 0.92766 0.28132 0.68712 0.0
C278 C 0.7666 0.16788 0.62894 0.0
C279 C 0.70731 0.16206 0.63775 0.0
C280 C 0.81606 0.16823 0.64283 0.0
C281 C 0.80637 0.16337 0.6661 0.0
C282 C 0.7488 0.16189 0.67521 0.0
C283 C 0.69983 0.161 0.66092 0.0
C284 C 0.87664 0.1697 0.63244 0.0
C285 C 0.73705 0.15758 0.69995 0.0
H286 H 0.8736 0.02829 0.70049 0.0
H287 H 1.00087 0.24316 0.71125 0.0
H288 H 0.73113 0.02521 0.67932 0.0
H289 H 0.77931 0.02882 0.65553 0.0
H290 H 0.77454 0.97849 0.67847 0.0
H291 H 0.97433 0.31966 0.69641 0.0
H292 H 0.93437 0.2918 0.66916 0.0
H293 H 0.88469 0.28712 0.6926 0.0
H294 H 0.7729 0.16868 0.61107 0.0
H295 H 0.6544 0.1569 0.66788 0.0
H296 H 0.87331 0.12048 0.63448 0.0
H297 H 0.92423 0.20913 0.64095 0.0
H298 H 0.87984 0.17946 0.61439 0.0
H299 H 0.72606 0.10756 0.70535 0.0
H300 H 0.69394 0.16426 0.7046 0.0
H301 H 0.78324 0.19647 0.70927 0.0
C302 C 0.85205 0.0097 0.02387 0.0
C303 C 0.89842 0.99369 0.03281 0.0
C304 C 0.80344 0.96711 0.00755 0.0
C305 C 0.80151 0.9074 0.99986 0.0
C306 C 0.84757 0.89052 0.00903 0.0
C307 C 0.89522 0.93369 0.02544 0.0
C308 C 0.75477 0.98645 0.99833 0.0
C309 C 0.84739 0.82743 1.00121 0.0
C310 C 0.64855 0.76101 0.96958 0.0
C311 C 0.67 0.76947 0.94746 0.0
C312 C 0.68935 0.80743 0.98673 0.0
C313 C 0.75318 0.86344 0.98165 0.0
C314 C 0.77324 0.87435 0.9592 0.0
C315 C 0.73131 0.82743 0.94238 0.0
C316 C 0.66574 0.79449 0.01041 0.0
C317 C 0.84087 0.93347 0.95306 0.0
H318 H 0.85387 0.05577 0.02954 0.0
H319 H 0.93079 0.92086 0.03224 0.0
H320 H 0.76322 0.99526 0.9803 0.0
H321 H 0.70173 0.94461 1.00004 0.0
H322 H 0.76061 0.03277 0.00685 0.0
H323 H 0.88557 0.82082 0.01035 0.0
H324 H 0.79657 0.78233 1.0034 0.0
H325 H 0.85824 0.82948 0.98318 0.0
H326 H 0.60115 0.71658 0.97368 0.0
H327 H 0.74831 0.83465 0.92536 0.0
H328 H 0.67161 0.84098 0.01874 0.0
H329 H 0.69756 0.78007 0.01992 0.0
H330 H 0.61193 0.75341 0.01131 0.0
H331 H 0.84744 0.98126 0.96048 0.0
H332 H 0.8465 0.93792 0.93475 0.0
H333 H 0.88234 0.92745 0.95991 0.0
C334 C 0.9313 0.84505 0.37521 0.0
C335 C 0.99151 0.90816 0.37538 0.0
C336 C 0.92342 0.79059 0.36156 0.0
C337 C 0.97689 0.79951 0.34768 0.0
C338 C 0.03734 0.86335 0.34752 0.0
C339 C 0.04397 0.9168 0.3614 0.0
C340 C 0.85834 0.72324 0.36223 0.0
C341 C 0.09547 0.87502 0.33287 0.0
C342 C 0.99825 0.6532 0.32828 0.0
C343 C 0.97708 0.64388 0.30586 0.0
C344 C 0.99538 0.70151 0.34237 0.0
C345 C 0.97106 0.7418 0.33382 0.0
C346 C 0.94614 0.73013 0.31154 0.0
C347 C 0.94919 0.68108 0.29783 0.0
C348 C 0.0217 0.71182 0.3661 0.0
C349 C 0.91979 0.77202 0.3018 0.0
H350 H 0.89045 0.83786 0.38595 0.0
H351 H 0.09055 0.96539 0.36133 0.0
H352 H 0.83536 0.70625 0.34525 0.0
H353 H 0.8692 0.68465 0.36816 0.0
H354 H 0.82071 0.72518 0.37336 0.0
H355 H 0.13811 0.9282 0.33414 0.0
H356 H 0.11478 0.84172 0.33761 0.0
H357 H 0.07774 0.86186 0.31523 0.0
H358 H 0.01943 0.62435 0.33466 0.0
H359 H 0.93285 0.67435 0.28051 0.0
H360 H 0.98425 0.71156 0.3778 0.0
H361 H 0.06886 0.76183 0.36827 0.0
H362 H 0.033 0.67236 0.37077 0.0
H363 H 0.88183 0.77342 0.31286 0.0
H364 H 0.89622 0.75238 0.28498 0.0
H365 H 0.96221 0.82477 0.30051 0.0
C366 C 0.1587 0.98505 0.68922 0.0
C367 C 0.17718 0.0522 0.69455 0.0
C368 C 0.1941 0.96966 0.67326 0.0
C369 C 0.24928 0.02268 0.66243 0.0
C370 C 0.26838 0.0905 0.66785 0.0
C371 C 0.23212 0.10439 0.6838 0.0
C372 C 0.17225 0.89678 0.6679 0.0
C373 C 0.32705 0.14856 0.6567 0.0
C374 C 0.3884 0.00581 0.63457 0.0
C375 C 0.37262 0.00521 0.61196 0.0
C376 C 0.34642 0.00737 0.65127 0.0
C377 C 0.28714 0.00805 0.6452 0.0
C378 C 0.26831 1.00224 0.62242 0.0
C379 C 0.31127 1.00087 0.60607 0.0
C380 C 0.36809 0.0131 0.67537 0.0
C381 C 0.20518 1.00216 0.61524 0.0
H382 H 0.11629 0.94436 0.69744 0.0
H383 H 0.24688 0.1564 0.68781 0.0
H384 H 0.15724 0.88408 0.65002 0.0
H385 H 0.21523 0.88863 0.67083 0.0
H386 H 0.12898 0.86149 0.67805 0.0
H387 H 0.3359 0.19841 0.66298 0.0
H388 H 0.37411 0.14718 0.65952 0.0
H389 H 0.31726 0.14386 0.63845 0.0
H390 H 0.43548 0.0088 0.63932 0.0
H391 H 0.29831 0.99986 0.58865 0.0
H392 H 0.32491 0.97714 0.68536 0.0
H393 H 0.38498 0.06471 0.6823 0.0
H394 H 0.41041 1.00333 0.67741 0.0
H395 H 0.16101 0.96585 0.6248 0.0
H396 H 0.19328 0.98902 0.59718 0.0
H397 H 0.21233 0.05301 0.61875 0.0
C398 C 0.22277 0.28018 0.02621 0.0
C399 C 0.21894 0.22969 0.0395 0.0
C400 C 0.28067 0.32041 0.01393 0.0
C401 C 0.33642 0.31018 0.01496 0.0
C402 C 0.33299 0.25924 0.02828 0.0
C403 C 0.27421 0.2195 0.04039 0.0
C404 C 0.28215 0.37408 0.99987 0.0
C405 C 0.39145 0.24696 0.0298 0.0
C406 C 0.45353 0.38307 0.96633 0.0
C407 C 0.50086 0.44798 0.97502 0.0
C408 C 0.40206 0.33576 0.97959 0.0
C409 C 0.39811 0.35363 1.00209 0.0
C410 C 0.44907 0.4169 0.01143 0.0
C411 C 0.49982 0.46334 0.99777 0.0
C412 C 0.34894 0.26871 0.96901 0.0
C413 C 0.44717 0.43763 0.03542 0.0
H414 H 0.18037 0.2884 0.02536 0.0
H415 H 0.2717 0.18059 0.05061 0.0
H416 H 0.32485 0.4245 0.00547 0.0
H417 H 0.29065 0.36518 0.98222 0.0
H418 H 0.23435 0.37516 1.00073 0.0
H419 H 0.38062 0.20503 0.04077 0.0
H420 H 0.40317 0.23479 0.01298 0.0
H421 H 0.43754 0.29342 0.03634 0.0
H422 H 0.45403 0.37046 0.9488 0.0
H423 H 0.53651 0.51309 1.00471 0.0
H424 H 0.30065 0.26826 0.96692 0.0
H425 H 0.33895 0.22687 0.97985 0.0
H426 H 0.36412 0.25885 0.9524 0.0
H427 H 0.40473 0.44723 0.03745 0.0
H428 H 0.49502 0.48414 0.04091 0.0
H429 H 0.43795 0.39659 0.04653 0.0
C430 C 0.16958 0.2678 0.34475 0.0
C431 C 0.12852 0.24918 0.36351 0.0
C432 C 0.16711 0.31064 0.32924 0.0
C433 C 0.12271 0.33563 0.33261 0.0
C434 C 0.08389 0.31992 0.35213 0.0
C435 C 0.08713 0.27679 0.3673 0.0
C436 C 0.20927 0.32618 0.30865 0.0
C437 C 0.03619 0.34584 0.35644 0.0
C438 C 0.12883 0.47422 0.29824 0.0
C439 C 0.07414 0.43613 0.28328 0.0
C440 C 0.14716 0.4423 0.31401 0.0
C441 C 0.11016 0.37088 0.31461 0.0
C442 C 0.05731 0.3324 0.29873 0.0
C443 C 0.03992 0.36547 0.28335 0.0
C444 C 0.20387 0.48496 0.33065 0.0
C445 C 0.01698 0.25616 0.29858 0.0
H446 H 0.20204 0.24706 0.34173 0.0
H447 H 0.05575 0.2633 0.38186 0.0
H448 H 0.17562 0.29959 0.2939 0.0
H449 H 0.2361 0.38103 0.30577 0.0
H450 H 0.24724 0.31008 0.30981 0.0
H451 H 0.01502 0.33493 0.3734 0.0
H452 H 0.06267 0.40115 0.35444 0.0
H453 H 0.99348 0.32183 0.34408 0.0
H454 H 0.15525 0.52887 0.29829 0.0
H455 H 0.99807 0.33572 0.27165 0.0
H456 H 0.23973 0.46625 0.33153 0.0
H457 H 0.18261 0.48117 0.34746 0.0
H458 H 0.23238 0.53897 0.32647 0.0
H459 H 0.05149 0.23574 0.29799 0.0
H460 H 0.98058 0.2337 0.28421 0.0
H461 H 0.98811 0.23959 0.31416 0.0
loop_
_geom_bond_atom_site_label_1
_geom_bond_atom_site_label_2
_geom_bond_distance
_geom_bond_site_symmetry_2
_ccdc_geom_bond_type
C0 O1 1.160 . S
C0 O7 1.185 1_565 S
O1 C0 1.160 . S
O2 Zn3 1.899 . S
O2 C10 1.284 . S
Zn3 O2 1.899 . S
Zn3 O4 2.032 1_445 S
Zn3 O7 2.086 . S
Zn3 O12 1.977 . S
O4 Zn3 2.032 1_665 S
O4 C8 1.278 1_565 S
C5 O6 1.203 . S
C5 O12 1.267 . S
O6 C5 1.203 . S
O7 C0 1.185 1_545 S
O7 Zn3 2.086 . S
C8 O4 1.278 1_545 S
C8 O9 1.211 . S
O9 C8 1.211 . S
C10 O2 1.284 . S
C10 O11 1.273 1_455 S
O11 C10 1.273 1_655 S
O12 Zn3 1.977 . S
O12 C5 1.267 . S
C13 O14 1.160 . S
C13 O20 1.185 . S
O14 C13 1.160 . S
O15 Zn16 1.899 . S
O15 C23 1.284 1_545 S
Zn16 O15 1.899 . S
Zn16 O17 2.032 . S
Zn16 O20 2.086 . S
Zn16 O25 1.977 . S
O17 Zn16 2.032 . S
O17 C21 1.278 1_455 S
C18 O19 1.203 . S
C18 O25 1.267 . S
O19 C18 1.203 . S
O20 C13 1.185 . S
O20 Zn16 2.086 . S
C21 O17 1.278 1_655 S
C21 O22 1.211 1_655 S
O22 C21 1.211 1_455 S
C23 O15 1.284 1_565 S
C23 O24 1.273 1_455 S
O24 C23 1.273 1_655 S
O25 Zn16 1.977 . S
O25 C18 1.267 . S
C26 O27 1.160 . S
C26 O33 1.185 1_545 S
O27 C26 1.160 . S
O28 Zn29 1.899 1_655 S
O28 C36 1.284 . S
Zn29 O28 1.899 1_455 S
Zn29 O30 2.032 . S
Zn29 O33 2.086 1_545 S
Zn29 O38 1.977 1_445 S
O30 Zn29 2.032 . S
O30 C34 1.278 . S
C31 O32 1.203 . S
C31 O38 1.267 . S
O32 C31 1.203 . S
O33 C26 1.185 1_565 S
O33 Zn29 2.086 1_565 S
C34 O30 1.278 . S
C34 O35 1.211 . S
O35 C34 1.211 . S
C36 O28 1.284 . S
C36 O37 1.273 . S
O37 C36 1.273 . S
O38 Zn29 1.977 1_665 S
O38 C31 1.267 . S
Mg39 O46 2.141 . S
Mg39 O47 2.048 . S
Mg39 O48 2.048 . S
Mg39 O51 2.141 . S
C40 O41 1.313 1_455 S
C40 O47 1.195 . S
O41 C40 1.313 1_655 S
C42 O43 1.245 1_455 S
C42 O51 1.289 . S
O43 C42 1.245 1_655 S
C44 O45 1.245 1_455 S
C44 O46 1.289 . S
O45 C44 1.245 1_655 S
O46 Mg39 2.141 . S
O46 C44 1.289 . S
O47 Mg39 2.048 . S
O47 C40 1.195 . S
O48 Mg39 2.048 . S
O48 C49 1.195 . S
C49 O48 1.195 . S
C49 O50 1.313 1_455 S
O50 C49 1.313 1_655 S
O51 Mg39 2.141 . S
O51 C42 1.289 . S
Mg52 O59 2.141 . S
Mg52 O60 2.048 . S
Mg52 O61 2.048 . S
Mg52 O64 2.141 . S
C53 O54 1.313 1_545 S
C53 O60 1.195 . S
O54 C53 1.313 1_565 S
C55 O56 1.245 1_545 S
C55 O64 1.289 . S
O56 C55 1.245 1_565 S
C57 O58 1.245 1_545 S
C57 O59 1.289 . S
O58 C57 1.245 1_565 S
O59 Mg52 2.141 . S
O59 C57 1.289 . S
O60 Mg52 2.048 . S
O60 C53 1.195 . S
O61 Mg52 2.048 . S
O61 C62 1.195 . S
C62 O61 1.195 . S
C62 O63 1.313 1_545 S
O63 C62 1.313 1_565 S
O64 Mg52 2.141 . S
O64 C55 1.289 . S
Mg65 O72 2.141 . S
Mg65 O73 2.048 . S
Mg65 O74 2.048 . S
Mg65 O77 2.141 . S
C66 O67 1.313 . S
C66 O73 1.195 . S
O67 C66 1.313 . S
C68 O69 1.245 . S
C68 O77 1.289 . S
O69 C68 1.245 . S
C70 O71 1.245 . S
C70 O72 1.289 . S
O71 C70 1.245 . S
O72 Mg65 2.141 . S
O72 C70 1.289 . S
O73 Mg65 2.048 . S
O73 C66 1.195 . S
O74 Mg65 2.048 . S
O74 C75 1.195 . S
C75 O74 1.195 . S
C75 O76 1.313 . S
O76 C75 1.313 . S
O77 Mg65 2.141 . S
O77 C68 1.289 . S
C78 C79 1.391 1_655 S
C78 C80 1.394 . S
C78 H94 0.931 . S
C79 C78 1.391 1_455 S
C79 C83 1.376 . S
C80 C78 1.394 . S
C80 C81 1.369 1_655 S
C80 C84 1.531 . S
C81 C80 1.369 1_455 S
C81 C82 1.410 . S
C81 C89 1.503 . S
C82 C81 1.410 . S
C82 C83 1.392 . S
C82 C85 1.511 . S
C83 C79 1.376 . S
C83 C82 1.392 . S
C83 H95 0.929 . S
C84 C80 1.531 . S
C84 H96 0.960 . S
C84 H97 0.962 . S
C84 H98 0.960 . S
C85 C82 1.511 . S
C85 H99 0.961 . S
C85 H100 0.961 . S
C85 H101 0.961 . S
C86 C87 1.370 1_655 S
C86 C88 1.363 . S
C86 H102 0.931 . S
C87 C86 1.370 1_455 S
C87 C91 1.408 . S
C88 C86 1.363 . S
C88 C89 1.370 1_655 S
C88 C92 1.524 . S
C89 C81 1.503 . S
C89 C88 1.370 1_455 S
C89 C90 1.403 . S
C90 C89 1.403 . S
C90 C91 1.404 . S
C90 C93 1.539 . S
C91 C87 1.408 . S
C91 C90 1.404 . S
C91 H103 0.930 . S
C92 C88 1.524 . S
C92 H104 0.956 . S
C92 H105 0.961 . S
C92 H106 0.961 . S
C93 C90 1.539 . S
C93 H107 0.958 . S
C93 H108 0.961 . S
C93 H109 0.960 . S
H94 C78 0.931 . S
H95 C83 0.929 . S
H96 C84 0.960 . S
H97 C84 0.962 . S
H98 C84 0.960 . S
H99 C85 0.961 . S
H100 C85 0.961 . S
H101 C85 0.961 . S
H102 C86 0.931 . S
H103 C91 0.930 . S
H104 C92 0.956 . S
H105 C92 0.961 . S
H106 C92 0.961 . S
H107 C93 0.958 . S
H108 C93 0.961 . S
H109 C93 0.960 . S
C110 C111 1.391 . S
C110 C112 1.394 . S
C110 H126 0.931 . S
C111 C110 1.391 . S
C111 C115 1.376 . S
C112 C110 1.394 . S
C112 C113 1.369 . S
C112 C116 1.531 1_545 S
C113 C112 1.369 . S
C113 C114 1.410 . S
C113 C121 1.503 . S
C114 C113 1.410 . S
C114 C115 1.392 . S
C114 C117 1.511 . S
C115 C111 1.376 . S
C115 C114 1.392 . S
C115 H127 0.929 . S
C116 C112 1.531 1_565 S
C116 H128 0.960 . S
C116 H129 0.962 1_565 S
C116 H130 0.960 . S
C117 C114 1.511 . S
C117 H131 0.961 . S
C117 H132 0.961 . S
C117 H133 0.961 . S
C118 C119 1.370 . S
C118 C120 1.363 . S
C118 H134 0.931 . S
C119 C118 1.370 . S
C119 C123 1.408 . S
C120 C118 1.363 . S
C120 C121 1.370 . S
C120 C124 1.524 . S
C121 C113 1.503 . S
C121 C120 1.370 . S
C121 C122 1.403 . S
C122 C121 1.403 . S
C122 C123 1.404 . S
C122 C125 1.539 1_545 S
C123 C119 1.408 . S
C123 C122 1.404 . S
C123 H135 0.930 1_545 S
C124 C120 1.524 . S
C124 H136 0.956 . S
C124 H137 0.961 . S
C124 H138 0.961 . S
C125 C122 1.539 1_565 S
C125 H139 0.958 . S
C125 H140 0.961 . S
C125 H141 0.960 . S
H126 C110 0.931 . S
H127 C115 0.929 . S
H128 C116 0.960 . S
H129 C116 0.962 1_545 S
H130 C116 0.960 . S
H131 C117 0.961 . S
H132 C117 0.961 . S
H133 C117 0.961 . S
H134 C118 0.931 . S
H135 C123 0.930 1_565 S
H136 C124 0.956 . S
H137 C124 0.961 . S
H138 C124 0.961 . S
H139 C125 0.958 . S
H140 C125 0.961 . S
H141 C125 0.960 . S
C142 C143 1.391 . S
C142 C144 1.394 . S
C142 H158 0.931 . S
C143 C142 1.391 . S
C143 C147 1.376 . S
C144 C142 1.394 . S
C144 C145 1.369 . S
C144 C148 1.531 . S
C145 C144 1.369 . S
C145 C146 1.410 . S
C145 C153 1.503 . S
C146 C145 1.410 . S
C146 C147 1.392 . S
C146 C149 1.511 . S
C147 C143 1.376 . S
C147 C146 1.392 . S
C147 H159 0.929 . S
C148 C144 1.531 . S
C148 H160 0.960 . S
C148 H161 0.962 . S
C148 H162 0.960 . S
C149 C146 1.511 . S
C149 H163 0.961 . S
C149 H164 0.961 . S
C149 H165 0.961 . S
C150 C151 1.370 . S
C150 C152 1.363 . S
C150 H166 0.931 . S
C151 C150 1.370 . S
C151 C155 1.408 . S
C152 C150 1.363 . S
C152 C153 1.370 . S
C152 C156 1.524 . S
C153 C145 1.503 . S
C153 C152 1.370 . S
C153 C154 1.403 . S
C154 C153 1.403 . S
C154 C155 1.404 . S
C154 C157 1.539 . S
C155 C151 1.408 . S
C155 C154 1.404 . S
C155 H167 0.930 . S
C156 C152 1.524 . S
C156 H168 0.956 . S
C156 H169 0.961 . S
C156 H170 0.961 . S
C157 C154 1.539 . S
C157 H171 0.958 . S
C157 H172 0.961 . S
C157 H173 0.960 . S
H158 C142 0.931 . S
H159 C147 0.929 . S
H160 C148 0.960 . S
H161 C148 0.962 . S
H162 C148 0.960 . S
H163 C149 0.961 . S
H164 C149 0.961 . S
H165 C149 0.961 . S
H166 C150 0.931 . S
H167 C155 0.930 . S
H168 C156 0.956 . S
H169 C156 0.961 . S
H170 C156 0.961 . S
H171 C157 0.958 . S
H172 C157 0.961 . S
H173 C157 0.960 . S
C174 C175 1.391 . S
C174 C176 1.394 . S
C174 H190 0.931 1_565 S
C175 C174 1.391 . S
C175 C179 1.376 . S
C176 C174 1.394 . S
C176 C177 1.369 . S
C176 C180 1.531 . S
C177 C176 1.369 . S
C177 C178 1.405 1_455 S
C177 C185 1.503 . S
C178 C177 1.405 1_655 S
C178 C179 1.394 1_655 S
C178 C181 1.514 . S
C179 C175 1.376 . S
C179 C178 1.394 1_455 S
C179 H191 0.929 1_455 S
C180 C176 1.531 . S
C180 H192 0.960 . S
C180 H193 0.962 . S
C180 H194 0.960 . S
C181 C178 1.514 . S
C181 H195 0.961 . S
C181 H196 0.961 . S
C181 H197 0.961 . S
C182 C183 1.370 . S
C182 C184 1.363 . S
C182 H198 0.931 . S
C183 C182 1.370 . S
C183 C187 1.408 1_455 S
C184 C182 1.363 . S
C184 C185 1.370 . S
C184 C188 1.524 . S
C185 C177 1.503 . S
C185 C184 1.370 . S
C185 C186 1.403 . S
C186 C185 1.403 . S
C186 C187 1.404 1_455 S
C186 C189 1.539 1_455 S
C187 C183 1.408 1_655 S
C187 C186 1.404 1_655 S
C187 H199 0.930 . S
C188 C184 1.524 . S
C188 H200 0.956 . S
C188 H201 0.961 . S
C188 H202 0.961 . S
C189 C186 1.539 1_655 S
C189 H203 0.958 . S
C189 H204 0.961 . S
C189 H205 0.960 . S
H190 C174 0.931 1_545 S
H191 C179 0.929 1_655 S
H192 C180 0.960 . S
H193 C180 0.962 . S
H194 C180 0.960 . S
H195 C181 0.961 . S
H196 C181 0.961 . S
H197 C181 0.961 . S
H198 C182 0.931 . S
H199 C187 0.930 . S
H200 C188 0.956 . S
H201 C188 0.961 . S
H202 C188 0.961 . S
H203 C189 0.958 . S
H204 C189 0.961 . S
H205 C189 0.960 . S
C206 C207 1.391 . S
C206 C208 1.394 . S
C206 H222 0.931 . S
C207 C206 1.391 . S
C207 C211 1.376 . S
C208 C206 1.394 . S
C208 C209 1.369 . S
C208 C212 1.531 . S
C209 C208 1.369 . S
C209 C210 1.410 . S
C209 C217 1.503 . S
C210 C209 1.410 . S
C210 C211 1.392 . S
C210 C213 1.511 1_545 S
C211 C207 1.376 . S
C211 C210 1.392 . S
C211 H223 0.929 . S
C212 C208 1.531 . S
C212 H224 0.960 . S
C212 H225 0.962 . S
C212 H226 0.960 . S
C213 C210 1.511 1_565 S
C213 H227 0.961 . S
C213 H228 0.961 . S
C213 H229 0.961 . S
C214 C215 1.370 . S
C214 C216 1.363 . S
C214 H230 0.931 . S
C215 C214 1.370 . S
C215 C219 1.408 . S
C216 C214 1.363 . S
C216 C217 1.370 . S
C216 C220 1.524 . S
C217 C209 1.503 . S
C217 C216 1.370 . S
C217 C218 1.403 . S
C218 C217 1.403 . S
C218 C219 1.404 . S
C218 C221 1.539 . S
C219 C215 1.408 . S
C219 C218 1.404 . S
C219 H231 0.930 . S
C220 C216 1.524 . S
C220 H232 0.956 . S
C220 H233 0.961 . S
C220 H234 0.961 . S
C221 C218 1.539 . S
C221 H235 0.958 . S
C221 H236 0.961 . S
C221 H237 0.960 . S
H222 C206 0.931 . S
H223 C211 0.929 . S
H224 C212 0.960 . S
H225 C212 0.962 . S
H226 C212 0.960 . S
H227 C213 0.961 . S
H228 C213 0.961 . S
H229 C213 0.961 . S
H230 C214 0.931 . S
H231 C219 0.930 . S
H232 C220 0.956 . S
H233 C220 0.961 . S
H234 C220 0.961 . S
H235 C221 0.958 . S
H236 C221 0.961 . S
H237 C221 0.960 . S
C238 C239 1.391 . S
C238 C240 1.394 . S
C238 H254 0.931 . S
C239 C238 1.391 . S
C239 C243 1.376 . S
C240 C238 1.394 . S
C240 C241 1.369 . S
C240 C244 1.531 . S
C241 C240 1.369 . S
C241 C242 1.410 . S
C241 C249 1.503 . S
C242 C241 1.410 . S
C242 C243 1.392 . S
C242 C245 1.511 . S
C243 C239 1.376 . S
C243 C242 1.392 . S
C243 H255 0.929 . S
C244 C240 1.531 . S
C244 H256 0.960 . S
C244 H257 0.962 . S
C244 H258 0.960 . S
C245 C242 1.511 . S
C245 H259 0.961 . S
C245 H260 0.961 . S
C245 H261 0.961 . S
C246 C247 1.370 . S
C246 C248 1.363 . S
C246 H262 0.931 . S
C247 C246 1.370 . S
C247 C251 1.408 . S
C248 C246 1.363 . S
C248 C249 1.370 . S
C248 C252 1.524 . S
C249 C241 1.503 . S
C249 C248 1.370 . S
C249 C250 1.403 . S
C250 C249 1.403 . S
C250 C251 1.404 . S
C250 C253 1.539 . S
C251 C247 1.408 . S
C251 C250 1.404 . S
C251 H263 0.930 . S
C252 C248 1.524 . S
C252 H264 0.956 . S
C252 H265 0.961 . S
C252 H266 0.961 . S
C253 C250 1.539 . S
C253 H267 0.958 . S
C253 H268 0.961 . S
C253 H269 0.960 . S
H254 C238 0.931 . S
H255 C243 0.929 . S
H256 C244 0.960 . S
H257 C244 0.962 . S
H258 C244 0.960 . S
H259 C245 0.961 . S
H260 C245 0.961 . S
H261 C245 0.961 . S
H262 C246 0.931 . S
H263 C251 0.930 . S
H264 C252 0.956 . S
H265 C252 0.961 . S
H266 C252 0.961 . S
H267 C253 0.958 . S
H268 C253 0.961 . S
H269 C253 0.960 . S
C270 C271 1.391 . S
C270 C272 1.394 . S
C270 H286 0.931 . S
C271 C270 1.391 . S
C271 C275 1.376 . S
C272 C270 1.394 . S
C272 C273 1.369 . S
C272 C276 1.531 . S
C273 C272 1.369 . S
C273 C274 1.410 . S
C273 C281 1.503 . S
C274 C273 1.410 . S
C274 C275 1.392 . S
C274 C277 1.511 . S
C275 C271 1.376 . S
C275 C274 1.392 . S
C275 H287 0.929 . S
C276 C272 1.531 . S
C276 H288 0.960 . S
C276 H289 0.962 . S
C276 H290 0.960 . S
C277 C274 1.511 . S
C277 H291 0.961 . S
C277 H292 0.961 . S
C277 H293 0.961 1_545 S
C278 C279 1.370 . S
C278 C280 1.363 . S
C278 H294 0.931 . S
C279 C278 1.370 . S
C279 C283 1.408 1_545 S
C280 C278 1.363 . S
C280 C281 1.370 . S
C280 C284 1.524 . S
C281 C273 1.503 . S
C281 C280 1.370 . S
C281 C282 1.403 1_545 S
C282 C281 1.403 1_565 S
C282 C283 1.404 . S
C282 C285 1.539 . S
C283 C279 1.408 1_565 S
C283 C282 1.404 . S
C283 H295 0.930 . S
C284 C280 1.524 . S
C284 H296 0.956 . S
C284 H297 0.961 . S
C284 H298 0.961 . S
C285 C282 1.539 . S
C285 H299 0.958 . S
C285 H300 0.961 . S
C285 H301 0.960 . S
H286 C270 0.931 . S
H287 C275 0.929 . S
H288 C276 0.960 . S
H289 C276 0.962 . S
H290 C276 0.960 . S
H291 C277 0.961 . S
H292 C277 0.961 . S
H293 C277 0.961 1_565 S
H294 C278 0.931 . S
H295 C283 0.930 . S
H296 C284 0.956 . S
H297 C284 0.961 . S
H298 C284 0.961 . S
H299 C285 0.958 . S
H300 C285 0.961 . S
H301 C285 0.960 . S
C302 C303 1.391 . S
C302 C304 1.394 . S
C302 H318 0.931 1_565 S
C303 C302 1.391 . S
C303 C307 1.376 . S
C304 C302 1.394 . S
C304 C305 1.377 . S
C304 C308 1.531 1_554 S
C305 C304 1.377 . S
C305 C306 1.421 . S
C305 C313 1.487 1_554 S
C306 C305 1.421 . S
C306 C307 1.392 . S
C306 C309 1.511 . S
C307 C303 1.376 . S
C307 C306 1.392 . S
C307 H319 0.929 . S
C308 C304 1.531 1_556 S
C308 H320 0.960 . S
C308 H321 0.962 1_556 S
C308 H322 0.960 . S
C309 C306 1.511 . S
C309 H323 0.961 . S
C309 H324 0.961 1_554 S
C309 H325 0.961 1_554 S
C310 C311 1.370 . S
C310 C312 1.363 . S
C310 H326 0.931 . S
C311 C310 1.370 . S
C311 C315 1.408 . S
C312 C310 1.363 . S
C312 C313 1.370 . S
C312 C316 1.524 1_556 S
C313 C305 1.487 1_556 S
C313 C312 1.370 . S
C313 C314 1.403 . S
C314 C313 1.403 . S
C314 C315 1.404 . S
C314 C317 1.539 . S
C315 C311 1.408 . S
C315 C314 1.404 . S
C315 H327 0.930 . S
C316 C312 1.524 1_554 S
C316 H328 0.956 . S
C316 H329 0.961 . S
C316 H330 0.961 . S
C317 C314 1.539 . S
C317 H331 0.958 . S
C317 H332 0.961 . S
C317 H333 0.960 . S
H318 C302 0.931 1_545 S
H319 C307 0.929 . S
H320 C308 0.960 . S
H321 C308 0.962 1_554 S
H322 C308 0.960 . S
H323 C309 0.961 . S
H324 C309 0.961 1_556 S
H325 C309 0.961 1_556 S
H326 C310 0.931 . S
H327 C315 0.930 . S
H328 C316 0.956 . S
H329 C316 0.961 . S
H330 C316 0.961 . S
H331 C317 0.958 . S
H332 C317 0.961 . S
H333 C317 0.960 . S
C334 C335 1.391 1_655 S
C334 C336 1.394 . S
C334 H350 0.931 . S
C335 C334 1.391 1_455 S
C335 C339 1.376 . S
C336 C334 1.394 . S
C336 C337 1.369 1_655 S
C336 C340 1.531 . S
C337 C336 1.369 1_455 S
C337 C338 1.410 . S
C337 C345 1.503 . S
C338 C337 1.410 . S
C338 C339 1.392 . S
C338 C341 1.511 . S
C339 C335 1.376 . S
C339 C338 1.392 . S
C339 H351 0.929 . S
C340 C336 1.531 . S
C340 H352 0.960 . S
C340 H353 0.962 . S
C340 H354 0.960 . S
C341 C338 1.511 . S
C341 H355 0.961 . S
C341 H356 0.961 . S
C341 H357 0.961 . S
C342 C343 1.370 . S
C342 C344 1.363 . S
C342 H358 0.931 . S
C343 C342 1.370 . S
C343 C347 1.408 . S
C344 C342 1.363 . S
C344 C345 1.370 . S
C344 C348 1.524 . S
C345 C337 1.503 . S
C345 C344 1.370 . S
C345 C346 1.403 . S
C346 C345 1.403 . S
C346 C347 1.404 . S
C346 C349 1.539 . S
C347 C343 1.408 . S
C347 C346 1.404 . S
C347 H359 0.930 . S
C348 C344 1.524 . S
C348 H360 0.956 1_455 S
C348 H361 0.961 . S
C348 H362 0.961 1_455 S
C349 C346 1.539 . S
C349 H363 0.958 . S
C349 H364 0.961 . S
C349 H365 0.960 . S
H350 C334 0.931 . S
H351 C339 0.929 . S
H352 C340 0.960 . S
H353 C340 0.962 . S
H354 C340 0.960 . S
H355 C341 0.961 . S
H356 C341 0.961 . S
H357 C341 0.961 . S
H358 C342 0.931 . S
H359 C347 0.930 . S
H360 C348 0.956 1_655 S
H361 C348 0.961 . S
H362 C348 0.961 1_655 S
H363 C349 0.958 . S
H364 C349 0.961 . S
H365 C349 0.960 . S
C366 C367 1.391 1_565 S
C366 C368 1.394 . S
C366 H382 0.931 . S
C367 C366 1.391 1_545 S
C367 C371 1.376 . S
C368 C366 1.394 . S
C368 C369 1.369 1_565 S
C368 C372 1.531 . S
C369 C368 1.369 1_545 S
C369 C370 1.410 . S
C369 C377 1.503 . S
C370 C369 1.410 . S
C370 C371 1.392 . S
C370 C373 1.511 . S
C371 C367 1.376 . S
C371 C370 1.392 . S
C371 H383 0.929 . S
C372 C368 1.531 . S
C372 H384 0.960 . S
C372 H385 0.962 1_565 S
C372 H386 0.960 . S
C373 C370 1.511 . S
C373 H387 0.961 . S
C373 H388 0.961 . S
C373 H389 0.961 . S
C374 C375 1.370 . S
C374 C376 1.363 . S
C374 H390 0.931 . S
C375 C374 1.370 . S
C375 C379 1.408 1_545 S
C376 C374 1.363 . S
C376 C377 1.370 . S
C376 C380 1.524 . S
C377 C369 1.503 . S
C377 C376 1.370 . S
C377 C378 1.403 1_545 S
C378 C377 1.403 1_565 S
C378 C379 1.404 . S
C378 C381 1.539 . S
C379 C375 1.408 1_565 S
C379 C378 1.404 . S
C379 H391 0.930 . S
C380 C376 1.524 . S
C380 H392 0.956 . S
C380 H393 0.961 . S
C380 H394 0.961 . S
C381 C378 1.539 . S
C381 H395 0.958 . S
C381 H396 0.961 . S
C381 H397 0.960 . S
H382 C366 0.931 . S
H383 C371 0.929 . S
H384 C372 0.960 . S
H385 C372 0.962 1_545 S
H386 C372 0.960 . S
H387 C373 0.961 . S
H388 C373 0.961 . S
H389 C373 0.961 . S
H390 C374 0.931 . S
H391 C379 0.930 . S
H392 C380 0.956 . S
H393 C380 0.961 . S
H394 C380 0.961 . S
H395 C381 0.958 . S
H396 C381 0.961 . S
H397 C381 0.960 . S
C398 C399 1.391 . S
C398 C400 1.394 . S
C398 H414 0.931 . S
C399 C398 1.391 . S
C399 C403 1.376 . S
C400 C398 1.394 . S
C400 C401 1.369 . S
C400 C404 1.531 . S
C401 C400 1.369 . S
C401 C402 1.410 . S
C401 C409 1.503 1_554 S
C402 C401 1.410 . S
C402 C403 1.392 . S
C402 C405 1.511 . S
C403 C399 1.376 . S
C403 C402 1.392 . S
C403 H415 0.929 . S
C404 C400 1.531 . S
C404 H416 0.960 . S
C404 H417 0.962 1_554 S
C404 H418 0.960 . S
C405 C402 1.511 . S
C405 H419 0.961 . S
C405 H420 0.961 1_554 S
C405 H421 0.961 . S
C406 C407 1.370 . S
C406 C408 1.363 . S
C406 H422 0.931 . S
C407 C406 1.370 . S
C407 C411 1.408 . S
C408 C406 1.363 . S
C408 C409 1.370 . S
C408 C412 1.524 . S
C409 C401 1.503 1_556 S
C409 C408 1.370 . S
C409 C410 1.403 . S
C410 C409 1.403 . S
C410 C411 1.404 . S
C410 C413 1.539 1_556 S
C411 C407 1.408 . S
C411 C410 1.404 . S
C411 H423 0.930 . S
C412 C408 1.524 . S
C412 H424 0.956 . S
C412 H425 0.961 . S
C412 H426 0.961 . S
C413 C410 1.539 1_554 S
C413 H427 0.958 . S
C413 H428 0.961 . S
C413 H429 0.960 . S
H414 C398 0.931 . S
H415 C403 0.929 . S
H416 C404 0.960 . S
H417 C404 0.962 1_556 S
H418 C404 0.960 . S
H419 C405 0.961 . S
H420 C405 0.961 1_556 S
H421 C405 0.961 . S
H422 C406 0.931 . S
H423 C411 0.930 . S
H424 C412 0.956 . S
H425 C412 0.961 . S
H426 C412 0.961 . S
H427 C413 0.958 . S
H428 C413 0.961 . S
H429 C413 0.960 . S
C430 C431 1.391 . S
C430 C432 1.394 . S
C430 H446 0.931 . S
C431 C430 1.391 . S
C431 C435 1.376 . S
C432 C430 1.394 . S
C432 C433 1.369 . S
C432 C436 1.531 . S
C433 C432 1.369 . S
C433 C434 1.410 . S
C433 C441 1.503 . S
C434 C433 1.410 . S
C434 C435 1.392 . S
C434 C437 1.511 . S
C435 C431 1.376 . S
C435 C434 1.392 . S
C435 H447 0.929 . S
C436 C432 1.531 . S
C436 H448 0.960 . S
C436 H449 0.962 . S
C436 H450 0.960 . S
C437 C434 1.511 . S
C437 H451 0.961 . S
C437 H452 0.961 . S
C437 H453 0.961 . S
C438 C439 1.370 . S
C438 C440 1.363 . S
C438 H454 0.931 . S
C439 C438 1.370 . S
C439 C443 1.408 1_455 S
C440 C438 1.363 . S
C440 C441 1.370 . S
C440 C444 1.524 . S
C441 C433 1.503 . S
C441 C440 1.370 . S
C441 C442 1.403 1_455 S
C442 C441 1.403 1_655 S
C442 C443 1.404 . S
C442 C445 1.539 . S
C443 C439 1.408 1_655 S
C443 C442 1.404 . S
C443 H455 0.930 . S
C444 C440 1.524 . S
C444 H456 0.956 . S
C444 H457 0.961 . S
C444 H458 0.961 . S
C445 C442 1.539 . S
C445 H459 0.958 . S
C445 H460 0.961 . S
C445 H461 0.960 . S
H446 C430 0.931 . S
H447 C435 0.929 . S
H448 C436 0.960 . S
H449 C436 0.962 . S
H450 C436 0.960 . S
H451 C437 0.961 . S
H452 C437 0.961 . S
H453 C437 0.961 . S
H454 C438 0.931 . S
H455 C443 0.930 . S
H456 C444 0.956 . S
H457 C444 0.961 . S
H458 C444 0.961 . S
H459 C445 0.958 . S
H460 C445 0.961 . S
H461 C445 0.960 . S
C87 C44 1.358 . S
C79 C10 1.360 . S
C111 C21 1.433 . S
C119 C62 1.475 . S
C143 C31 1.355 . S
C151 C75 1.446 . S
C175 C0 1.272 . S
C183 C42 1.369 . S
C215 C53 1.445 . S
C207 C18 1.382 . S
C239 C34 1.422 . S
C247 C66 1.436 . S
C279 C55 1.356 . S
C271 C36 1.363 . S
C303 C8 1.288 1_565 S
C311 C68 1.354 . S
C343 C49 1.433 . S
C335 C23 1.434 . S
C375 C57 1.291 . S
C367 C26 1.254 . S
C407 C70 1.363 . S
C399 C5 1.322 . S
C431 C13 1.360 . S
C439 C40 1.443 . S
