# Generated by pormake.
# Topology pth, (4,4)-cn, num edge types: 1
# Building blocks:
#     Node 0, Type 0, BuildingBlock: UXUYUI_clean_sbu_0, # of connection points: 4
#     Node 1, Type 0, BuildingBlock: UXUYUI_clean_sbu_0, # of connection points: 4
#     Node 2, Type 0, BuildingBlock: UXUYUI_clean_sbu_0, # of connection points: 4
#     Node 3, Type 1, BuildingBlock: NAWXER_clean_sbu_0, # of connection points: 4
#     Node 4, Type 1, BuildingBlock: NAWXER_clean_sbu_0, # of connection points: 4
#     Node 5, Type 1, BuildingBlock: NAWXER_clean_sbu_0, # of connection points: 4
#     Edge 6, Type (0, 1), BuildingBlock: XIVTED_clean_linker_0, # of connection points: 2
#     Edge 7, Type (0, 1), BuildingBlock: XIVTED_clean_linker_0, # of connection points: 2
#     Edge 8, Type (0, 1), BuildingBlock: XIVTED_clean_linker_0, # of connection points: 2
#     Edge 9, Type (0, 1), BuildingBlock: XIVTED_clean_linker_0, # of connection points: 2
#     Edge 10, Type (0, 1), BuildingBlock: XIVTED_clean_linker_0, # of connection points: 2
#     Edge 11, Type (0, 1), BuildingBlock: XIVTED_clean_linker_0, # of connection points: 2
#     Edge 12, Type (0, 1), BuildingBlock: XIVTED_clean_linker_0, # of connection points: 2
#     Edge 13, Type (0, 1), BuildingBlock: XIVTED_clean_linker_0, # of connection points: 2
#     Edge 14, Type (0, 1), BuildingBlock: XIVTED_clean_linker_0, # of connection points: 2
#     Edge 15, Type (0, 1), BuildingBlock: XIVTED_clean_linker_0, # of connection points: 2
#     Edge 16, Type (0, 1), BuildingBlock: XIVTED_clean_linker_0, # of connection points: 2
#     Edge 17, Type (0, 1), BuildingBlock: XIVTED_clean_linker_0, # of connection points: 2
# Relax obj value: 0.086
# Max RMSD: 0.218
# Mean RMSD: 0.120
data_MOF--net-pth--node1-UXUYUI_clean_sbu_0--node2-NAWXER_clean_sbu_0--edge1-XIVTED_clean_linker_0
_symmetry_space_group_name_H-M    P1
_symmetry_Int_Tables_number       1
_symmetry_cell_setting            triclinic
loop_
_symmetry_equiv_pos_as_xyz
'x, y, z'
_cell_length_a     28.389914
_cell_length_b     28.383361
_cell_length_c     71.118906
_cell_angle_alpha  89.992232
_cell_angle_beta   90.034439
_cell_angle_gamma 119.98127
loop_
_atom_site_label
_atom_site_type_symbol
_atom_site_fract_x
_atom_site_fract_y
_atom_site_fract_z
_atom_type_partial_charge
Li0 Li 0.04617 0.04716 0.06858 0.0
Li1 Li 0.97687 0.03294 0.09169 0.0
Li2 Li 0.02447 0.9803 0.09401 0.0
Li3 Li 0.95815 0.95971 0.06946 0.0
C4 C 0.10904 0.08334 0.10141 0.0
N5 N 0.21666 0.12928 0.11212 0.0
C6 C 0.12899 0.12009 0.11638 0.0
C7 C 0.14378 0.0699 0.09188 0.0
C8 C 0.18355 0.14292 0.12158 0.0
C9 C 0.19806 0.09357 0.09751 0.0
C10 C 0.94364 0.05643 0.0569 0.0
C11 C 0.85889 0.04962 0.04738 0.0
N12 N 0.88617 0.10289 0.04224 0.0
C13 C 0.97093 0.11087 0.05124 0.0
C14 C 0.88725 0.0253 0.05472 0.0
C15 C 0.94112 0.13372 0.04398 0.0
C16 C 0.10134 0.09355 0.03432 0.0
N17 N 0.09785 0.10331 0.05284 0.0
C18 C 0.15943 0.19833 0.04858 0.0
C19 C 0.12587 0.1544 0.06008 0.0
C20 C 0.16349 0.18979 0.02934 0.0
C21 C 0.1341 0.13651 0.02223 0.0
H22 H 0.07759 0.05263 0.02888 0.0
H23 H 0.12079 0.16137 0.07469 0.0
C24 C 0.92241 0.05714 0.12127 0.0
N25 N 0.95357 0.07506 0.1055 0.0
C26 C 0.91477 0.09349 0.13241 0.0
C27 C 0.97032 0.16531 0.11059 0.0
C28 C 0.97715 0.12787 0.10002 0.0
C29 C 0.94007 0.14874 0.12733 0.0
H30 H 0.90574 0.01538 0.12573 0.0
H31 H 0.00359 0.14153 0.08791 0.0
C32 C 0.03114 0.92315 0.06236 0.0
N33 N 0.02524 0.82553 0.05357 0.0
C34 C 0.99879 0.87677 0.07311 0.0
C35 C 0.06046 0.91991 0.04713 0.0
C36 C 0.99635 0.8278 0.06845 0.0
C37 C 0.05696 0.87017 0.04292 0.0
C38 C 0.89305 0.91925 0.1017 0.0
C39 C 0.87909 0.87012 0.11065 0.0
C40 C 0.85266 0.93206 0.09756 0.0
C41 C 0.82465 0.83417 0.11503 0.0
C42 C 0.79869 0.89508 0.10218 0.0
N43 N 0.7859 0.84727 0.11073 0.0
C44 C 0.02325 0.9357 0.12853 0.0
C45 C 0.08577 0.93075 0.10769 0.0
C46 C 0.02991 0.90276 0.14152 0.0
N47 N 0.04958 0.94746 0.11177 0.0
C48 C 0.09365 0.89744 0.12033 0.0
C49 C 0.06393 0.8815 0.13721 0.0
H50 H 0.99494 0.94981 0.13141 0.0
H51 H 0.10623 0.94073 0.09423 0.0
C52 C 0.90245 0.91671 0.0356 0.0
N53 N 0.90595 0.9031 0.05366 0.0
C54 C 0.86781 0.87699 0.02286 0.0
C55 C 0.84155 0.80964 0.04742 0.0
C56 C 0.87647 0.85074 0.05971 0.0
C57 C 0.83686 0.82254 0.02871 0.0
H58 H 0.92719 0.95843 0.03104 0.0
H59 H 0.88067 0.84045 0.07397 0.0
O60 O 0.05565 0.06063 0.09625 0.0
O61 O 0.97229 0.03321 0.06382 0.0
O62 O 0.03394 0.97151 0.06655 0.0
O63 O 0.94614 0.95473 0.09723 0.0
H64 H 0.10254 0.13087 0.12389 0.0
H65 H 0.12914 0.04161 0.08024 0.0
H66 H 0.19957 0.17145 0.13314 0.0
H67 H 0.22541 0.08355 0.09027 0.0
H68 H 0.81522 0.02604 0.04568 0.0
H69 H 0.01466 0.13532 0.05251 0.0
H70 H 0.86562 0.98267 0.05844 0.0
H71 H 0.96169 0.17593 0.03969 0.0
H72 H 0.18068 0.23883 0.05457 0.0
H73 H 0.13638 0.12818 0.0075 0.0
H74 H 0.89187 0.07911 0.14536 0.0
H75 H 0.9902 0.2073 0.10602 0.0
H76 H 0.97583 0.87857 0.08493 0.0
H77 H 0.08561 0.95548 0.03866 0.0
H78 H 0.97147 0.79161 0.07666 0.0
H79 H 0.07943 0.86705 0.03117 0.0
H80 H 0.90993 0.85964 0.114 0.0
H81 H 0.86297 0.97042 0.09106 0.0
H82 H 0.8132 0.79585 0.12184 0.0
H83 H 0.767 0.90448 0.09904 0.0
H84 H 0.00704 0.89235 0.15452 0.0
H85 H 0.12016 0.88183 0.11645 0.0
H86 H 0.86604 0.88865 0.00849 0.0
H87 H 0.81818 0.7683 0.05256 0.0
Li88 Li 0.97516 0.94757 0.39996 0.0
Li89 Li 0.0447 0.00365 0.42257 0.0
Li90 Li 0.95458 0.00167 0.42272 0.0
Li91 Li 0.02215 0.05011 0.39823 0.0
C92 C 0.93482 0.89222 0.43534 0.0
N93 N 0.86289 0.79237 0.45092 0.0
C94 C 0.95377 0.859 0.44265 0.0
C95 C 0.8794 0.87516 0.43642 0.0
C96 C 0.91674 0.8085 0.45032 0.0
C97 C 0.84366 0.82443 0.44422 0.0
C98 C 0.10338 0.00775 0.3921 0.0
C99 C 0.20087 0.06484 0.39056 0.0
N100 N 0.20556 0.02013 0.38735 0.0
C101 C 0.1091 0.96245 0.38853 0.0
C102 C 0.14954 0.05943 0.39291 0.0
C103 C 0.16113 0.96951 0.38626 0.0
C104 C 0.92969 0.87753 0.36812 0.0
N105 N 0.95071 0.88246 0.38568 0.0
C106 C 0.9535 0.80029 0.38172 0.0
C107 C 0.96205 0.84466 0.39265 0.0
C108 C 0.93365 0.79499 0.36328 0.0
C109 C 0.92035 0.83358 0.35667 0.0
H110 H 0.92249 0.90897 0.36269 0.0
H111 H 0.98068 0.85054 0.40632 0.0
C112 C 0.1259 0.04153 0.45116 0.0
N113 N 0.09884 0.00234 0.43803 0.0
C114 C 0.1635 0.03853 0.46306 0.0
C115 C 0.14417 0.95459 0.44785 0.0
C116 C 0.107 0.95925 0.43626 0.0
C117 C 0.17303 0.99455 0.46151 0.0
H118 H 0.11762 0.0746 0.45263 0.0
H119 H 0.08407 0.92803 0.42597 0.0
C120 C 0.89172 0.97495 0.38846 0.0
N121 N 0.78696 0.93357 0.37502 0.0
C122 C 0.87761 0.00807 0.37817 0.0
C123 C 0.85277 0.9205 0.39157 0.0
C124 C 0.82436 0.9865 0.37161 0.0
C125 C 0.79999 0.9004 0.38475 0.0
C126 C 0.0555 0.11934 0.42817 0.0
C127 C 0.02584 0.14485 0.43285 0.0
C128 C 0.11187 0.15054 0.42603 0.0
C129 C 0.05296 0.20135 0.43488 0.0
C130 C 0.13752 0.20694 0.4282 0.0
N131 N 0.10777 0.23099 0.43251 0.0
C132 C 0.90153 0.99988 0.45665 0.0
C133 C 0.87445 0.03053 0.42996 0.0
C134 C 0.86929 0.01186 0.46834 0.0
N135 N 0.90349 0.0094 0.43785 0.0
C136 C 0.84143 0.04268 0.44107 0.0
C137 C 0.83892 0.03385 0.46056 0.0
H138 H 0.92599 0.98415 0.4626 0.0
H139 H 0.8785 0.04002 0.41516 0.0
C140 C 0.07953 0.12734 0.36805 0.0
N141 N 0.04279 0.11134 0.38232 0.0
C142 C 0.08637 0.16927 0.3559 0.0
C143 C 0.01859 0.1778 0.37374 0.0
C144 C 0.01298 0.13595 0.38539 0.0
C145 C 0.05464 0.19415 0.35846 0.0
H146 H 0.10197 0.10636 0.36566 0.0
H147 H 0.98315 0.12152 0.39655 0.0
O148 O 0.97073 0.9422 0.42802 0.0
O149 O 0.0528 0.00159 0.39456 0.0
O150 O 0.94381 0.99548 0.39492 0.0
O151 O 0.02955 0.06405 0.42597 0.0
H152 H 0.99659 0.87189 0.44232 0.0
H153 H 0.86407 0.90094 0.43147 0.0
H154 H 0.93085 0.78222 0.45585 0.0
H155 H 0.80065 0.81067 0.44504 0.0
H156 H 0.23696 0.10461 0.39125 0.0
H157 H 0.07382 0.92221 0.38765 0.0
H158 H 0.14578 0.09502 0.39522 0.0
H159 H 0.16617 0.93474 0.38365 0.0
H160 H 0.96409 0.77142 0.38742 0.0
H161 H 0.90577 0.83153 0.34245 0.0
H162 H 0.18403 0.06975 0.47362 0.0
H163 H 0.15045 0.92024 0.44605 0.0
H164 H 0.90733 0.05009 0.37536 0.0
H165 H 0.86336 0.89371 0.39885 0.0
H166 H 0.81282 0.01182 0.36376 0.0
H167 H 0.76948 0.85833 0.38709 0.0
H168 H 0.98228 0.12139 0.43475 0.0
H169 H 0.13564 0.13144 0.42285 0.0
H170 H 0.03042 0.22164 0.43835 0.0
H171 H 0.18111 0.23159 0.4265 0.0
H172 H 0.86819 0.00407 0.48329 0.0
H173 H 0.81947 0.06047 0.43455 0.0
H174 H 0.11425 0.18031 0.34417 0.0
H175 H 0.99381 0.19623 0.37642 0.0
Li176 Li 0.04366 0.97852 0.73465 0.0
Li177 Li 0.04021 0.03784 0.75844 0.0
Li178 Li 0.96809 0.9377 0.75776 0.0
Li179 Li 0.96822 0.9994 0.73361 0.0
C180 C 0.07886 0.95016 0.76662 0.0
N181 N 0.14279 0.90488 0.77495 0.0
C182 C 0.13416 0.98364 0.7705 0.0
C183 C 0.05579 0.8937 0.76738 0.0
C184 C 0.16589 0.95996 0.77456 0.0
C185 C 0.08887 0.87156 0.77151 0.0
C186 C 0.06656 0.10312 0.72626 0.0
C187 C 0.05476 0.18154 0.72577 0.0
N188 N 0.10396 0.21076 0.71724 0.0
C189 C 0.11681 0.13376 0.71736 0.0
C190 C 0.03512 0.12704 0.73041 0.0
C191 C 0.13509 0.18819 0.71297 0.0
C192 C 0.08798 0.94361 0.70466 0.0
N193 N 0.09834 0.97631 0.71989 0.0
C194 C 0.1934 0.02444 0.71285 0.0
C195 C 0.14971 0.01621 0.72409 0.0
C196 C 0.18413 0.99157 0.69698 0.0
C197 C 0.13064 0.95021 0.69306 0.0
H198 H 0.04659 0.91394 0.70105 0.0
H199 H 0.15645 0.04311 0.73581 0.0
C200 C 0.0749 0.09491 0.793 0.0
N201 N 0.08831 0.09462 0.77467 0.0
C202 C 0.11445 0.12947 0.80587 0.0
C203 C 0.1802 0.16345 0.78062 0.0
C204 C 0.13964 0.128 0.76832 0.0
C205 C 0.16811 0.1638 0.79974 0.0
H206 H 0.03415 0.0666 0.79777 0.0
H207 H 0.1499 0.12499 0.75392 0.0
C208 C 0.9386 0.87567 0.72406 0.0
N209 N 0.88478 0.7683 0.71256 0.0
C210 C 0.88601 0.85243 0.71668 0.0
C211 C 0.96394 0.84439 0.72547 0.0
C212 C 0.85944 0.79805 0.71099 0.0
C213 C 0.93604 0.79017 0.7196 0.0
C214 C 0.92414 0.0176 0.76767 0.0
C215 C 0.86977 0.978 0.77053 0.0
C216 C 0.94163 0.07183 0.77215 0.0
C217 C 0.83344 0.99356 0.77737 0.0
C218 C 0.90405 0.08577 0.77896 0.0
N219 N 0.85117 0.04668 0.78139 0.0
C220 C 0.91607 0.89876 0.7916 0.0
C221 C 0.88325 0.82935 0.76851 0.0
C222 C 0.87475 0.86491 0.80397 0.0
N223 N 0.91881 0.88106 0.77409 0.0
C224 C 0.84148 0.79394 0.78049 0.0
C225 C 0.83604 0.81208 0.79831 0.0
H226 H 0.94459 0.94024 0.79562 0.0
H227 H 0.88561 0.81592 0.75457 0.0
C228 C 0.93709 0.03434 0.70073 0.0
N229 N 0.91892 0.00604 0.71707 0.0
C230 C 0.90013 0.03229 0.6873 0.0
C231 C 0.8265 0.97182 0.70769 0.0
C232 C 0.86485 0.97514 0.72071 0.0
C233 C 0.84392 1.00016 0.6906 0.0
H234 H 0.9802 0.05686 0.69778 0.0
H235 H 0.85135 0.95099 0.73336 0.0
O236 O 0.04714 0.97257 0.76262 0.0
O237 O 0.04826 0.04987 0.73074 0.0
O238 O 0.96511 0.92882 0.72972 0.0
O239 O 0.9606 0.00304 0.76134 0.0
H240 H 0.15239 0.02746 0.77034 0.0
H241 H 0.01275 0.86725 0.7649 0.0
H242 H 0.20884 0.98537 0.77745 0.0
H243 H 0.07163 0.82791 0.77203 0.0
H244 H 0.0308 0.20056 0.7289 0.0
H245 H 0.14153 0.11575 0.71396 0.0
H246 H 0.9957 0.10359 0.73692 0.0
H247 H 0.17402 0.21247 0.70616 0.0
H248 H 0.23393 0.05666 0.71643 0.0
H249 H 0.12156 0.92467 0.68074 0.0
H250 H 0.10344 0.12866 0.82049 0.0
H251 H 0.22121 0.18841 0.77537 0.0
H252 H 0.86583 0.87604 0.71543 0.0
H253 H 0.00477 0.86183 0.73096 0.0
H254 H 0.81866 0.77949 0.70532 0.0
H255 H 0.95515 0.7655 0.72063 0.0
H256 H 0.85568 0.93568 0.76743 0.0
H257 H 0.98386 0.10282 0.77051 0.0
H258 H 0.79117 0.96337 0.77953 0.0
H259 H 0.91699 0.12763 0.78239 0.0
H260 H 0.8726 0.88027 0.81769 0.0
H261 H 0.81237 0.75361 0.77551 0.0
H262 H 0.91545 0.05405 0.67418 0.0
H263 H 0.78366 0.94677 0.71089 0.0
C264 C 0.95433 0.53974 0.2704 0.0
C265 C 0.95395 0.42241 0.22 0.0
O266 O 0.00226 0.55093 0.26542 0.0
Zn267 Zn 0.03964 0.52334 0.24532 0.0
O268 O 0.91314 0.50141 0.26223 0.0
Zn269 Zn 0.95267 0.48052 0.24512 0.0
O270 O 0.98935 0.44824 0.26353 0.0
O271 O 0.0786 0.49842 0.26125 0.0
O272 O 0.9128 0.4205 0.22785 0.0
O273 O 0.0019 0.45846 0.22523 0.0
O274 O 0.07978 0.58712 0.22943 0.0
O275 O 0.99074 0.54951 0.22685 0.0
C276 C 0.03691 0.458 0.26839 0.0
C277 C 0.03868 0.58673 0.22213 0.0
C278 C 0.56843 0.97917 0.5972 0.0
C279 C 0.43643 0.97901 0.55222 0.0
O280 O 0.53031 0.93681 0.58939 0.0
Zn281 Zn 0.49914 0.974 0.57498 0.0
O282 O 0.57303 0.02558 0.59389 0.0
Zn283 Zn 0.53689 0.06209 0.57813 0.0
O284 O 0.50832 0.08989 0.5976 0.0
O285 O 0.46601 1.00024 0.59645 0.0
O286 O 0.47107 0.02561 0.55888 0.0
O287 O 0.43691 0.9366 0.55786 0.0
O288 O 0.56255 0.02156 0.55567 0.0
O289 O 0.59749 0.10935 0.56167 0.0
C290 C 0.4718 0.04394 0.60385 0.0
C291 C 0.59668 0.07134 0.55189 0.0
C292 C 0.40973 0.46711 0.93743 0.0
C293 C 0.53798 0.57133 0.88709 0.0
O294 O 0.40789 0.50331 0.92742 0.0
Zn295 Zn 0.47159 0.52103 0.91182 0.0
O296 O 0.44607 0.45404 0.93427 0.0
Zn297 Zn 0.51155 0.47325 0.91583 0.0
O298 O 0.57264 0.49975 0.93349 0.0
O299 O 0.53685 0.55303 0.93139 0.0
O300 O 0.54486 0.53394 0.89442 0.0
O301 O 0.50014 0.57914 0.89312 0.0
O302 O 0.44278 0.45157 0.89445 0.0
O303 O 0.4845 0.40565 0.90136 0.0
C304 C 0.57223 0.54271 0.93845 0.0
C305 C 0.4498 0.41101 0.89162 0.0
H306 H 0.02459 0.24961 0.13568 0.0
H307 H 0.86102 0.32905 0.20879 0.0
H308 H 0.85515 0.14167 0.14854 0.0
H309 H 0.03323 0.42532 0.19772 0.0
H310 H 0.85489 0.26226 0.18547 0.0
H311 H 0.0252 0.31675 0.15692 0.0
C312 C 0.98718 0.2402 0.1428 0.0
C313 C 0.93957 0.18995 0.14013 0.0
C314 C 0.89388 0.29816 0.18815 0.0
C315 C 0.94032 0.26688 0.16501 0.0
C316 C 0.89739 0.33635 0.20139 0.0
C317 C 0.94777 0.38277 0.20529 0.0
C318 C 0.94103 0.30675 0.17871 0.0
C319 C 0.99357 0.39008 0.19531 0.0
C320 C 0.98769 0.27854 0.1551 0.0
C321 C 0.89283 0.17975 0.15023 0.0
N322 N 0.98907 0.35254 0.18256 0.0
N323 N 0.89434 0.21792 0.16224 0.0
H324 H 0.73591 0.01434 0.45372 0.0
H325 H 0.70739 0.13943 0.55126 0.0
H326 H 0.86492 0.0858 0.49478 0.0
H327 H 0.57206 0.02484 0.5176 0.0
H328 H 0.77007 0.13875 0.52742 0.0
H329 H 0.67973 0.03577 0.47398 0.0
C330 C 0.75259 0.03495 0.46694 0.0
C331 C 0.80501 0.04786 0.47264 0.0
C332 C 0.72662 0.1146 0.52514 0.0
C333 C 0.74085 0.07255 0.49594 0.0
C334 C 0.69102 0.1155 0.53859 0.0
C335 C 0.63475 0.08214 0.53629 0.0
C336 C 0.70542 0.08061 0.5093 0.0
C337 C 0.61531 0.05103 0.51985 0.0
C338 C 0.72045 0.04704 0.47853 0.0
C339 C 0.82436 0.07428 0.49 0.0
N340 N 0.65054 0.05081 0.50704 0.0
N341 N 0.79223 0.08565 0.50107 0.0
H342 H 0.77329 0.84059 0.81949 0.0
H343 H 0.59853 0.54499 0.86469 0.0
H344 H 0.79183 0.70302 0.80509 0.0
H345 H 0.56398 0.67436 0.87535 0.0
H346 H 0.66791 0.60268 0.84222 0.0
H347 H 0.69642 0.78149 0.83975 0.0
C348 C 0.76139 0.79801 0.82066 0.0
C349 C 0.78931 0.77677 0.81066 0.0
C350 C 0.64507 0.61857 0.84933 0.0
C351 C 0.70097 0.70888 0.83364 0.0
C352 C 0.60536 0.5856 0.86221 0.0
C353 C 0.57566 0.60506 0.87203 0.0
C354 C 0.65588 0.67188 0.84627 0.0
C355 C 0.58595 0.6578 0.86807 0.0
C356 C 0.7172 0.76425 0.8321 0.0
C357 C 0.77137 0.72112 0.81243 0.0
N358 N 0.62569 0.6897 0.8556 0.0
N359 N 0.72859 0.68926 0.82375 0.0
H360 H 0.15076 0.86998 0.14867 0.0
H361 H 0.95782 0.59423 0.20437 0.0
H362 H 0.97636 0.79519 0.15321 0.0
H363 H 0.1328 0.67625 0.20913 0.0
H364 H 0.96597 0.66517 0.18339 0.0
H365 H 0.1471 0.79753 0.16875 0.0
C366 C 0.11181 0.83842 0.15388 0.0
C367 C 0.06386 0.83901 0.14945 0.0
C368 C 0.00276 0.6679 0.18897 0.0
C369 C 0.05937 0.75622 0.1722 0.0
C370 C 0.99815 0.62717 0.20098 0.0
C371 C 0.04471 0.62928 0.20866 0.0
C372 C 0.05436 0.71151 0.18445 0.0
C373 C 0.0958 0.67306 0.20358 0.0
C374 C 0.10978 0.79727 0.16536 0.0
C375 C 0.0145 0.79714 0.15656 0.0
N376 N 0.09931 0.71262 0.1918 0.0
N377 N 0.0136 0.75763 0.16752 0.0
H378 H 0.27226 0.07656 0.47307 0.0
H379 H 0.34459 0.88935 0.53768 0.0
H380 H 0.16475 0.90338 0.47851 0.0
H381 H 0.43951 0.0645 0.5341 0.0
H382 H 0.28023 0.89083 0.51472 0.0
H383 H 0.33615 0.07038 0.49428 0.0
C384 C 0.26192 0.03719 0.4788 0.0
C385 C 0.21279 0.99054 0.47408 0.0
C386 C 0.31531 0.92879 0.519 0.0
C387 C 0.28643 0.98288 0.49837 0.0
C388 C 0.35203 0.92793 0.53205 0.0
C389 C 0.39735 0.97683 0.53794 0.0
C390 C 0.3244 0.97886 0.51179 0.0
C391 C 0.40502 0.02569 0.53017 0.0
C392 C 0.29863 0.03357 0.49087 0.0
C393 C 0.20231 0.94039 0.48166 0.0
N394 N 0.36905 0.02538 0.51759 0.0
N395 N 0.23874 0.93788 0.49349 0.0
H396 H 0.188 0.13651 0.83475 0.0
H397 H 0.42643 0.43628 0.85774 0.0
H398 H 0.24867 0.26947 0.79523 0.0
H399 H 0.39778 0.29885 0.89182 0.0
H400 H 0.36107 0.37468 0.83477 0.0
H401 H 0.26229 0.19418 0.85631 0.0
C402 C 0.21675 0.17791 0.83066 0.0
C403 C 0.21197 0.19834 0.8132 0.0
C404 C 0.36935 0.35766 0.84711 0.0
C405 C 0.2972 0.26414 0.83767 0.0
C406 C 0.40676 0.39284 0.86021 0.0
C407 C 0.41737 0.37248 0.87665 0.0
C408 C 0.34127 0.30149 0.85059 0.0
C409 C 0.3909 0.31597 0.87921 0.0
C410 C 0.25943 0.21054 0.84288 0.0
C411 C 0.25091 0.25192 0.80849 0.0
N412 N 0.3533 0.28229 0.86641 0.0
N413 N 0.29158 0.28296 0.82068 0.0
H414 H 0.84799 0.08051 0.66821 0.0
H415 H 0.56499 0.89064 0.61521 0.0
H416 H 0.74844 0.90905 0.68003 0.0
H417 H 0.66478 0.06443 0.60811 0.0
H418 H 0.63281 0.89346 0.63756 0.0
H419 H 0.78236 0.07253 0.6446 0.0
C420 C 0.81245 0.04105 0.66577 0.0
C421 C 0.8038 0.99547 0.67618 0.0
C422 C 0.63966 0.93081 0.63101 0.0
C423 C 0.72764 0.98595 0.64915 0.0
C424 C 0.60111 0.92916 0.61824 0.0
C425 C 0.60891 0.97737 0.60989 0.0
C426 C 0.68623 0.98095 0.63527 0.0
C427 C 0.6565 0.02622 0.61432 0.0
C428 C 0.77469 0.0365 0.65232 0.0
C429 C 0.7564 0.94548 0.67254 0.0
N430 N 0.69304 0.02668 0.62667 0.0
N431 N 0.72006 0.94203 0.65933 0.0
H432 H 0.81938 0.71861 0.02415 0.0
H433 H 0.58631 0.64179 0.94748 0.0
H434 H 0.76866 0.82889 0.00305 0.0
H435 H 0.6498 0.53513 0.95999 0.0
H436 H 0.65091 0.7082 0.96918 0.0
H437 H 0.75594 0.64881 0.00222 0.0
C438 C 0.79483 0.72809 0.01495 0.0
C439 C 0.79937 0.77974 0.01542 0.0
C440 C 0.65104 0.67042 0.96724 0.0
C441 C 0.72707 0.70028 0.99034 0.0
C442 C 0.61386 0.63213 0.95482 0.0
C443 C 0.6124 0.58249 0.95187 0.0
C444 C 0.68737 0.65943 0.977 0.0
C445 C 0.64951 0.57284 0.96183 0.0
C446 C 0.75894 0.68836 0.00238 0.0
C447 C 0.76709 0.78999 0.00304 0.0
N448 N 0.6855 0.61099 0.97403 0.0
N449 N 0.73231 0.75065 0.9911 0.0
H450 H 0.85467 0.73086 0.33753 0.0
H451 H 0.03143 0.60849 0.29509 0.0
H452 H 0.00962 0.76348 0.35974 0.0
H453 H 0.86364 0.54675 0.27956 0.0
H454 H 0.02358 0.66689 0.31839 0.0
H455 H 0.85653 0.66481 0.31565 0.0
C456 C 0.88891 0.72399 0.33785 0.0
C457 C 0.93193 0.7526 0.35055 0.0
C458 C 0.98828 0.64042 0.30999 0.0
C459 C 0.93439 0.67744 0.32559 0.0
C460 C 0.99277 0.60706 0.29662 0.0
C461 C 0.94816 0.57274 0.28529 0.0
C462 C 0.93894 0.64013 0.31201 0.0
C463 C 0.89903 0.57252 0.28802 0.0
C464 C 0.88982 0.68615 0.32544 0.0
C465 C 0.97513 0.74185 0.35044 0.0
N466 N 0.89582 0.60608 0.30102 0.0
N467 N 0.97536 0.70548 0.33811 0.0
H468 H 0.26775 0.08961 0.68465 0.0
H469 H 0.4003 0.95174 0.62225 0.0
H470 H 0.20428 0.91657 0.68024 0.0
H471 H 0.457 0.12401 0.62037 0.0
H472 H 0.33347 0.94049 0.64565 0.0
H473 H 0.34164 0.10491 0.66323 0.0
C474 C 0.26958 0.05484 0.6793 0.0
C475 C 0.2297 0.00164 0.68425 0.0
C476 C 0.36047 0.98086 0.6402 0.0
C477 C 0.31393 0.01896 0.65966 0.0
C478 C 0.39888 0.98744 0.62679 0.0
C479 C 0.4342 0.03895 0.61916 0.0
C480 C 0.35688 0.02603 0.64616 0.0
C481 C 0.43052 0.08356 0.62583 0.0
C482 C 0.3116 0.06365 0.667 0.0
C483 C 0.23369 0.95818 0.67666 0.0
N484 N 0.39225 0.07604 0.63891 0.0
N485 N 0.275 0.96783 0.66479 0.0
H486 H 0.26598 0.27398 0.0362 0.0
H487 H 0.29862 0.42278 0.93728 0.0
H488 H 0.13941 0.21206 0.99417 0.0
H489 H 0.4327 0.44414 0.97183 0.0
H490 H 0.23505 0.35919 0.96091 0.0
H491 H 0.32304 0.3499 0.01542 0.0
C492 C 0.25005 0.27659 0.02264 0.0
C493 C 0.19803 0.23641 0.01685 0.0
C494 C 0.27842 0.37858 0.9634 0.0
C495 C 0.26316 0.32334 0.99297 0.0
C496 C 0.31452 0.41519 0.95006 0.0
C497 C 0.37073 0.43845 0.9527 0.0
C498 C 0.29905 0.36616 0.97948 0.0
C499 C 0.38953 0.42678 0.9693 0.0
C500 C 0.28268 0.31984 0.01076 0.0
C501 C 0.17962 0.24171 0.99905 0.0
N502 N 0.35384 0.39138 0.98202 0.0
N503 N 0.21219 0.28437 0.98771 0.0
H504 H 0.14292 0.27986 0.34099 0.0
H505 H 0.95488 0.37215 0.28671 0.0
H506 H 0.96784 0.19851 0.34427 0.0
H507 H 0.12966 0.45869 0.28087 0.0
H508 H 0.9611 0.30909 0.30809 0.0
H509 H 0.14114 0.34577 0.31891 0.0
C510 C 0.1042 0.27576 0.33704 0.0
C511 C 0.0555 0.234 0.34469 0.0
C512 C 0.99829 0.34179 0.3022 0.0
C513 C 0.05319 0.30902 0.31959 0.0
C514 C 0.99477 0.37805 0.28994 0.0
C515 C 0.04184 0.42092 0.28191 0.0
C516 C 0.0493 0.34799 0.3066 0.0
C517 C 0.09231 0.42625 0.28674 0.0
C518 C 0.10324 0.31348 0.32452 0.0
C519 C 0.0065 0.23066 0.33911 0.0
N520 N 0.09475 0.39009 0.29878 0.0
N521 N 0.00669 0.26759 0.32698 0.0
loop_
_geom_bond_atom_site_label_1
_geom_bond_atom_site_label_2
_geom_bond_distance
_geom_bond_site_symmetry_2
_ccdc_geom_bond_type
Li0 N17 1.990 . S
Li0 O60 1.956 . S
Li0 O61 1.970 1_455 S
Li0 O62 1.961 1_545 S
Li1 N25 1.990 . S
Li1 O60 1.970 1_655 S
Li1 O61 1.956 . S
Li1 O63 1.961 1_545 S
Li2 N47 1.990 . S
Li2 O60 1.961 1_565 S
Li2 O62 1.956 . S
Li2 O63 1.970 1_455 S
Li3 N53 1.990 . S
Li3 O61 1.961 1_565 S
Li3 O62 1.970 1_655 S
Li3 O63 1.956 . S
C4 C6 1.348 . S
C4 C7 1.356 . S
C4 O60 1.325 . S
N5 C8 1.314 . S
N5 C9 1.279 . S
C6 C4 1.348 . S
C6 C8 1.353 . S
C6 H64 0.929 . S
C7 C4 1.356 . S
C7 C9 1.358 . S
C7 H65 0.930 . S
C8 N5 1.314 . S
C8 C6 1.353 . S
C8 H66 0.930 . S
C9 N5 1.279 . S
C9 C7 1.358 . S
C9 H67 0.930 . S
C10 C13 1.348 1_655 S
C10 C14 1.356 . S
C10 O61 1.325 . S
C11 N12 1.279 . S
C11 C14 1.358 . S
C11 H68 0.930 . S
N12 C11 1.279 . S
N12 C15 1.314 . S
C13 C10 1.348 1_455 S
C13 C15 1.353 1_455 S
C13 H69 0.929 . S
C14 C10 1.356 . S
C14 C11 1.358 . S
C14 H70 0.930 . S
C15 N12 1.314 . S
C15 C13 1.353 1_655 S
C15 H71 0.930 1_655 S
C16 N17 1.314 . S
C16 C21 1.353 . S
C16 H22 0.930 . S
N17 Li0 1.990 . S
N17 C16 1.314 . S
N17 C19 1.279 . S
C18 C19 1.358 . S
C18 C20 1.356 . S
C18 H72 0.930 . S
C19 N17 1.279 . S
C19 C18 1.358 . S
C19 H23 0.930 . S
C20 C18 1.356 . S
C20 C21 1.348 . S
C21 C16 1.353 . S
C21 C20 1.348 . S
C21 H73 0.929 . S
H22 C16 0.930 . S
H23 C19 0.930 . S
C24 N25 1.314 . S
C24 C26 1.353 . S
C24 H30 0.930 . S
N25 Li1 1.990 . S
N25 C24 1.314 . S
N25 C28 1.279 . S
C26 C24 1.353 . S
C26 C29 1.348 . S
C26 H74 0.929 . S
C27 C28 1.358 . S
C27 C29 1.356 . S
C27 H75 0.930 . S
C28 N25 1.279 . S
C28 C27 1.358 . S
C28 H31 0.930 . S
C29 C26 1.348 . S
C29 C27 1.356 . S
H30 C24 0.930 . S
H31 C28 0.930 . S
C32 C34 1.348 1_455 S
C32 C35 1.356 . S
C32 O62 1.325 . S
N33 C36 1.314 . S
N33 C37 1.279 . S
C34 C32 1.348 1_655 S
C34 C36 1.353 1_655 S
C34 H76 0.929 . S
C35 C32 1.356 . S
C35 C37 1.358 . S
C35 H77 0.930 . S
C36 N33 1.314 . S
C36 C34 1.353 1_455 S
C36 H78 0.930 1_455 S
C37 N33 1.279 . S
C37 C35 1.358 . S
C37 H79 0.930 . S
C38 C39 1.348 . S
C38 C40 1.356 . S
C38 O63 1.325 . S
C39 C38 1.348 . S
C39 C41 1.353 . S
C39 H80 0.929 . S
C40 C38 1.356 . S
C40 C42 1.358 . S
C40 H81 0.930 . S
C41 C39 1.353 . S
C41 N43 1.314 . S
C41 H82 0.930 . S
C42 C40 1.358 . S
C42 N43 1.279 . S
C42 H83 0.930 . S
N43 C41 1.314 . S
N43 C42 1.279 . S
C44 C46 1.353 . S
C44 N47 1.314 . S
C44 H50 0.930 . S
C45 N47 1.279 . S
C45 C48 1.358 . S
C45 H51 0.930 . S
C46 C44 1.353 . S
C46 C49 1.348 . S
C46 H84 0.929 . S
N47 Li2 1.990 . S
N47 C44 1.314 . S
N47 C45 1.279 . S
C48 C45 1.358 . S
C48 C49 1.356 . S
C48 H85 0.930 . S
C49 C46 1.348 . S
C49 C48 1.356 . S
H50 C44 0.930 . S
H51 C45 0.930 . S
C52 N53 1.314 . S
C52 C54 1.353 . S
C52 H58 0.930 . S
N53 Li3 1.990 . S
N53 C52 1.314 . S
N53 C56 1.279 . S
C54 C52 1.353 . S
C54 C57 1.348 . S
C54 H86 0.929 . S
C55 C56 1.358 . S
C55 C57 1.356 . S
C55 H87 0.930 . S
C56 N53 1.279 . S
C56 C55 1.358 . S
C56 H59 0.930 . S
C57 C54 1.348 . S
C57 C55 1.356 . S
H58 C52 0.930 . S
H59 C56 0.930 . S
O60 Li0 1.956 . S
O60 Li1 1.970 1_455 S
O60 Li2 1.961 1_545 S
O60 C4 1.325 . S
O61 Li0 1.970 1_655 S
O61 Li1 1.956 . S
O61 Li3 1.961 1_545 S
O61 C10 1.325 . S
O62 Li0 1.961 1_565 S
O62 Li2 1.956 . S
O62 Li3 1.970 1_455 S
O62 C32 1.325 . S
O63 Li1 1.961 1_565 S
O63 Li2 1.970 1_655 S
O63 Li3 1.956 . S
O63 C38 1.325 . S
H64 C6 0.929 . S
H65 C7 0.930 . S
H66 C8 0.930 . S
H67 C9 0.930 . S
H68 C11 0.930 . S
H69 C13 0.929 . S
H70 C14 0.930 . S
H71 C15 0.930 1_455 S
H72 C18 0.930 . S
H73 C21 0.929 . S
H74 C26 0.929 . S
H75 C27 0.930 . S
H76 C34 0.929 . S
H77 C35 0.930 . S
H78 C36 0.930 1_655 S
H79 C37 0.930 . S
H80 C39 0.929 . S
H81 C40 0.930 . S
H82 C41 0.930 . S
H83 C42 0.930 . S
H84 C46 0.929 . S
H85 C48 0.930 . S
H86 C54 0.929 . S
H87 C55 0.930 . S
Li88 N105 1.990 . S
Li88 O148 1.956 . S
Li88 O149 1.970 1_665 S
Li88 O150 1.961 . S
Li89 N113 1.990 . S
Li89 O148 1.970 1_445 S
Li89 O149 1.956 . S
Li89 O151 1.961 . S
Li90 N135 1.990 . S
Li90 O148 1.961 . S
Li90 O150 1.956 . S
Li90 O151 1.970 1_665 S
Li91 N141 1.990 . S
Li91 O149 1.961 . S
Li91 O150 1.970 1_445 S
Li91 O151 1.956 . S
C92 C94 1.348 1_655 S
C92 C95 1.356 . S
C92 O148 1.325 . S
N93 C96 1.314 . S
N93 C97 1.279 . S
C94 C92 1.348 1_455 S
C94 C96 1.353 1_455 S
C94 H152 0.929 . S
C95 C92 1.356 . S
C95 C97 1.358 . S
C95 H153 0.930 . S
C96 N93 1.314 . S
C96 C94 1.353 1_655 S
C96 H154 0.930 1_655 S
C97 N93 1.279 . S
C97 C95 1.358 . S
C97 H155 0.930 . S
C98 C101 1.348 1_545 S
C98 C102 1.356 . S
C98 O149 1.325 . S
C99 N100 1.279 . S
C99 C102 1.358 . S
C99 H156 0.930 . S
N100 C99 1.279 . S
N100 C103 1.314 . S
C101 C98 1.348 1_565 S
C101 C103 1.353 1_565 S
C101 H157 0.929 . S
C102 C98 1.356 . S
C102 C99 1.358 . S
C102 H158 0.930 . S
C103 N100 1.314 . S
C103 C101 1.353 1_545 S
C103 H159 0.930 1_545 S
C104 N105 1.314 . S
C104 C109 1.353 . S
C104 H110 0.930 . S
N105 Li88 1.990 . S
N105 C104 1.314 . S
N105 C107 1.279 . S
C106 C107 1.358 . S
C106 C108 1.356 . S
C106 H160 0.930 . S
C107 N105 1.279 . S
C107 C106 1.358 . S
C107 H111 0.930 . S
C108 C106 1.356 . S
C108 C109 1.348 . S
C109 C104 1.353 . S
C109 C108 1.348 . S
C109 H161 0.929 . S
H110 C104 0.930 . S
H111 C107 0.930 . S
C112 N113 1.314 . S
C112 C114 1.353 . S
C112 H118 0.930 . S
N113 Li89 1.990 . S
N113 C112 1.314 . S
N113 C116 1.279 . S
C114 C112 1.353 . S
C114 C117 1.348 . S
C114 H162 0.929 . S
C115 C116 1.358 . S
C115 C117 1.356 . S
C115 H163 0.930 . S
C116 N113 1.279 . S
C116 C115 1.358 . S
C116 H119 0.930 . S
C117 C114 1.348 . S
C117 C115 1.356 . S
H118 C112 0.930 . S
H119 C116 0.930 . S
C120 C122 1.348 1_565 S
C120 C123 1.356 . S
C120 O150 1.325 . S
N121 C124 1.314 . S
N121 C125 1.279 . S
C122 C120 1.348 1_545 S
C122 C124 1.353 1_545 S
C122 H164 0.929 . S
C123 C120 1.356 . S
C123 C125 1.358 . S
C123 H165 0.930 . S
C124 N121 1.314 . S
C124 C122 1.353 1_565 S
C124 H166 0.930 1_565 S
C125 N121 1.279 . S
C125 C123 1.358 . S
C125 H167 0.930 . S
C126 C127 1.348 1_455 S
C126 C128 1.356 . S
C126 O151 1.325 . S
C127 C126 1.348 1_655 S
C127 C129 1.353 1_655 S
C127 H168 0.929 . S
C128 C126 1.356 . S
C128 C130 1.358 . S
C128 H169 0.930 . S
C129 C127 1.353 1_455 S
C129 N131 1.314 . S
C129 H170 0.930 1_455 S
C130 C128 1.358 . S
C130 N131 1.279 . S
C130 H171 0.930 . S
N131 C129 1.314 . S
N131 C130 1.279 . S
C132 C134 1.353 . S
C132 N135 1.314 . S
C132 H138 0.930 . S
C133 N135 1.279 . S
C133 C136 1.358 . S
C133 H139 0.930 . S
C134 C132 1.353 . S
C134 C137 1.348 . S
C134 H172 0.929 . S
N135 Li90 1.990 . S
N135 C132 1.314 . S
N135 C133 1.279 . S
C136 C133 1.358 . S
C136 C137 1.356 . S
C136 H173 0.930 . S
C137 C134 1.348 . S
C137 C136 1.356 . S
H138 C132 0.930 . S
H139 C133 0.930 . S
C140 N141 1.314 . S
C140 C142 1.353 . S
C140 H146 0.930 . S
N141 Li91 1.990 . S
N141 C140 1.314 . S
N141 C144 1.279 . S
C142 C140 1.353 . S
C142 C145 1.348 . S
C142 H174 0.929 . S
C143 C144 1.358 . S
C143 C145 1.356 . S
C143 H175 0.930 . S
C144 N141 1.279 . S
C144 C143 1.358 . S
C144 H147 0.930 . S
C145 C142 1.348 . S
C145 C143 1.356 . S
H146 C140 0.930 . S
H147 C144 0.930 . S
O148 Li88 1.956 . S
O148 Li89 1.970 1_665 S
O148 Li90 1.961 . S
O148 C92 1.325 . S
O149 Li88 1.970 1_445 S
O149 Li89 1.956 . S
O149 Li91 1.961 . S
O149 C98 1.325 . S
O150 Li88 1.961 . S
O150 Li90 1.956 . S
O150 Li91 1.970 1_665 S
O150 C120 1.325 . S
O151 Li89 1.961 . S
O151 Li90 1.970 1_445 S
O151 Li91 1.956 . S
O151 C126 1.325 . S
H152 C94 0.929 . S
H153 C95 0.930 . S
H154 C96 0.930 1_455 S
H155 C97 0.930 . S
H156 C99 0.930 . S
H157 C101 0.929 . S
H158 C102 0.930 . S
H159 C103 0.930 1_565 S
H160 C106 0.930 . S
H161 C109 0.929 . S
H162 C114 0.929 . S
H163 C115 0.930 . S
H164 C122 0.929 . S
H165 C123 0.930 . S
H166 C124 0.930 1_545 S
H167 C125 0.930 . S
H168 C127 0.929 . S
H169 C128 0.930 . S
H170 C129 0.930 1_655 S
H171 C130 0.930 . S
H172 C134 0.929 . S
H173 C136 0.930 . S
H174 C142 0.929 . S
H175 C143 0.930 . S
Li176 N193 1.990 . S
Li176 O236 1.956 . S
Li176 O237 1.970 1_565 S
Li176 O238 1.961 1_455 S
Li177 N201 1.990 . S
Li177 O236 1.970 1_545 S
Li177 O237 1.956 . S
Li177 O239 1.961 1_455 S
Li178 N223 1.990 . S
Li178 O236 1.961 1_655 S
Li178 O238 1.956 . S
Li178 O239 1.970 1_565 S
Li179 N229 1.990 . S
Li179 O237 1.961 1_655 S
Li179 O238 1.970 1_545 S
Li179 O239 1.956 . S
C180 C182 1.348 1_565 S
C180 C183 1.356 . S
C180 O236 1.325 . S
N181 C184 1.314 . S
N181 C185 1.279 . S
C182 C180 1.348 1_545 S
C182 C184 1.353 1_545 S
C182 H240 0.929 . S
C183 C180 1.356 . S
C183 C185 1.358 . S
C183 H241 0.930 . S
C184 N181 1.314 . S
C184 C182 1.353 1_565 S
C184 H242 0.930 1_565 S
C185 N181 1.279 . S
C185 C183 1.358 . S
C185 H243 0.930 . S
C186 C189 1.348 . S
C186 C190 1.356 . S
C186 O237 1.325 . S
C187 N188 1.279 . S
C187 C190 1.358 . S
C187 H244 0.930 . S
N188 C187 1.279 . S
N188 C191 1.314 . S
C189 C186 1.348 . S
C189 C191 1.353 . S
C189 H245 0.929 . S
C190 C186 1.356 . S
C190 C187 1.358 . S
C190 H246 0.930 . S
C191 N188 1.314 . S
C191 C189 1.353 . S
C191 H247 0.930 . S
C192 N193 1.314 . S
C192 C197 1.353 . S
C192 H198 0.930 . S
N193 Li176 1.990 . S
N193 C192 1.314 . S
N193 C195 1.279 . S
C194 C195 1.358 . S
C194 C196 1.356 . S
C194 H248 0.930 . S
C195 N193 1.279 . S
C195 C194 1.358 . S
C195 H199 0.930 . S
C196 C194 1.356 . S
C196 C197 1.348 . S
C197 C192 1.353 . S
C197 C196 1.348 . S
C197 H249 0.929 . S
H198 C192 0.930 . S
H199 C195 0.930 . S
C200 N201 1.314 . S
C200 C202 1.353 . S
C200 H206 0.930 . S
N201 Li177 1.990 . S
N201 C200 1.314 . S
N201 C204 1.279 . S
C202 C200 1.353 . S
C202 C205 1.348 . S
C202 H250 0.929 . S
C203 C204 1.358 . S
C203 C205 1.356 . S
C203 H251 0.930 . S
C204 N201 1.279 . S
C204 C203 1.358 . S
C204 H207 0.930 . S
C205 C202 1.348 . S
C205 C203 1.356 . S
H206 C200 0.930 . S
H207 C204 0.930 . S
C208 C210 1.348 . S
C208 C211 1.356 . S
C208 O238 1.325 . S
N209 C212 1.314 . S
N209 C213 1.279 . S
C210 C208 1.348 . S
C210 C212 1.353 . S
C210 H252 0.929 . S
C211 C208 1.356 . S
C211 C213 1.358 . S
C211 H253 0.930 . S
C212 N209 1.314 . S
C212 C210 1.353 . S
C212 H254 0.930 . S
C213 N209 1.279 . S
C213 C211 1.358 . S
C213 H255 0.930 . S
C214 C215 1.348 1_545 S
C214 C216 1.356 . S
C214 O239 1.325 . S
C215 C214 1.348 1_565 S
C215 C217 1.353 1_565 S
C215 H256 0.929 . S
C216 C214 1.356 . S
C216 C218 1.358 . S
C216 H257 0.930 . S
C217 C215 1.353 1_545 S
C217 N219 1.314 . S
C217 H258 0.930 1_545 S
C218 C216 1.358 . S
C218 N219 1.279 . S
C218 H259 0.930 . S
N219 C217 1.314 . S
N219 C218 1.279 . S
C220 C222 1.353 . S
C220 N223 1.314 . S
C220 H226 0.930 . S
C221 N223 1.279 . S
C221 C224 1.358 . S
C221 H227 0.930 . S
C222 C220 1.353 . S
C222 C225 1.348 . S
C222 H260 0.929 . S
N223 Li178 1.990 . S
N223 C220 1.314 . S
N223 C221 1.279 . S
C224 C221 1.358 . S
C224 C225 1.356 . S
C224 H261 0.930 . S
C225 C222 1.348 . S
C225 C224 1.356 . S
H226 C220 0.930 . S
H227 C221 0.930 . S
C228 N229 1.314 . S
C228 C230 1.353 . S
C228 H234 0.930 . S
N229 Li179 1.990 . S
N229 C228 1.314 . S
N229 C232 1.279 . S
C230 C228 1.353 . S
C230 C233 1.348 . S
C230 H262 0.929 . S
C231 C232 1.358 . S
C231 C233 1.356 . S
C231 H263 0.930 . S
C232 N229 1.279 . S
C232 C231 1.358 . S
C232 H235 0.930 . S
C233 C230 1.348 . S
C233 C231 1.356 . S
H234 C228 0.930 . S
H235 C232 0.930 . S
O236 Li176 1.956 . S
O236 Li177 1.970 1_565 S
O236 Li178 1.961 1_455 S
O236 C180 1.325 . S
O237 Li176 1.970 1_545 S
O237 Li177 1.956 . S
O237 Li179 1.961 1_455 S
O237 C186 1.325 . S
O238 Li176 1.961 1_655 S
O238 Li178 1.956 . S
O238 Li179 1.970 1_565 S
O238 C208 1.325 . S
O239 Li177 1.961 1_655 S
O239 Li178 1.970 1_545 S
O239 Li179 1.956 . S
O239 C214 1.325 . S
H240 C182 0.929 . S
H241 C183 0.930 . S
H242 C184 0.930 1_545 S
H243 C185 0.930 . S
H244 C187 0.930 . S
H245 C189 0.929 . S
H246 C190 0.930 . S
H247 C191 0.930 . S
H248 C194 0.930 . S
H249 C197 0.929 . S
H250 C202 0.929 . S
H251 C203 0.930 . S
H252 C210 0.929 . S
H253 C211 0.930 . S
H254 C212 0.930 . S
H255 C213 0.930 . S
H256 C215 0.929 . S
H257 C216 0.930 . S
H258 C217 0.930 1_565 S
H259 C218 0.930 . S
H260 C222 0.929 . S
H261 C224 0.930 . S
H262 C230 0.929 . S
H263 C231 0.930 . S
C264 O266 1.252 . S
C264 O268 1.255 1_455 S
C265 O272 1.247 . S
C265 O273 1.258 1_655 S
O266 C264 1.252 . S
O266 Zn267 2.028 . S
Zn267 O266 2.028 . S
Zn267 O271 2.035 . S
Zn267 O273 2.035 . S
Zn267 O274 2.028 . S
O268 C264 1.255 1_655 S
O268 Zn269 2.035 . S
Zn269 O268 2.035 . S
Zn269 O270 2.028 . S
Zn269 O272 2.028 . S
Zn269 O275 2.035 . S
O270 Zn269 2.028 . S
O270 C276 1.247 . S
O271 Zn267 2.035 . S
O271 C276 1.258 1_455 S
O272 C265 1.247 . S
O272 Zn269 2.028 . S
O273 C265 1.258 1_455 S
O273 Zn267 2.035 . S
O274 Zn267 2.028 . S
O274 C277 1.252 . S
O275 Zn269 2.035 . S
O275 C277 1.255 1_655 S
C276 O270 1.247 . S
C276 O271 1.258 1_655 S
C277 O274 1.252 . S
C277 O275 1.255 1_455 S
C278 O280 1.247 . S
C278 O282 1.258 1_565 S
C279 O286 1.250 . S
C279 O287 1.253 1_545 S
O280 C278 1.247 . S
O280 Zn281 2.028 . S
Zn281 O280 2.028 . S
Zn281 O285 2.035 . S
Zn281 O287 2.035 . S
Zn281 O288 2.028 . S
O282 C278 1.258 1_545 S
O282 Zn283 2.035 . S
Zn283 O282 2.035 . S
Zn283 O284 2.028 . S
Zn283 O286 2.028 . S
Zn283 O289 2.035 . S
O284 Zn283 2.028 . S
O284 C290 1.250 . S
O285 Zn281 2.035 . S
O285 C290 1.253 1_565 S
O286 C279 1.250 . S
O286 Zn283 2.028 . S
O287 C279 1.253 1_565 S
O287 Zn281 2.035 . S
O288 Zn281 2.028 . S
O288 C291 1.247 . S
O289 Zn283 2.035 . S
O289 C291 1.258 1_545 S
C290 O284 1.250 . S
C290 O285 1.253 1_545 S
C291 O288 1.247 . S
C291 O289 1.258 1_565 S
C292 O294 1.247 . S
C292 O296 1.258 . S
C293 O300 1.247 . S
C293 O301 1.258 . S
O294 C292 1.247 . S
O294 Zn295 2.028 . S
Zn295 O294 2.028 . S
Zn295 O299 2.035 . S
Zn295 O301 2.035 . S
Zn295 O302 2.028 . S
O296 C292 1.258 . S
O296 Zn297 2.035 . S
Zn297 O296 2.035 . S
Zn297 O298 2.028 . S
Zn297 O300 2.028 . S
Zn297 O303 2.035 . S
O298 Zn297 2.028 . S
O298 C304 1.247 . S
O299 Zn295 2.035 . S
O299 C304 1.258 . S
O300 C293 1.247 . S
O300 Zn297 2.028 . S
O301 C293 1.258 . S
O301 Zn295 2.035 . S
O302 Zn295 2.028 . S
O302 C305 1.247 . S
O303 Zn297 2.035 . S
O303 C305 1.258 . S
C304 O298 1.247 . S
C304 O299 1.258 . S
C305 O302 1.247 . S
C305 O303 1.258 . S
H306 C312 0.930 . S
H307 C316 0.930 . S
H308 C321 0.929 . S
H309 C319 0.929 . S
H310 C314 0.929 . S
H311 C320 0.929 . S
C312 H306 0.930 . S
C312 C313 1.367 . S
C312 C320 1.378 . S
C313 C312 1.367 . S
C313 C321 1.433 . S
C314 H310 0.929 . S
C314 C316 1.378 . S
C314 C318 1.350 . S
C315 C318 1.463 . S
C315 C320 1.350 . S
C315 N323 1.427 . S
C316 H307 0.930 . S
C316 C314 1.378 . S
C316 C317 1.367 . S
C317 C316 1.367 . S
C317 C319 1.433 1_655 S
C318 C314 1.350 . S
C318 C315 1.463 . S
C318 N322 1.427 . S
C319 H309 0.929 . S
C319 C317 1.433 1_455 S
C319 N322 1.384 1_455 S
C320 H311 0.929 . S
C320 C312 1.378 . S
C320 C315 1.350 . S
C321 H308 0.929 . S
C321 C313 1.433 . S
C321 N323 1.384 . S
N322 C318 1.427 . S
N322 C319 1.384 1_655 S
N323 C315 1.427 . S
N323 C321 1.384 . S
H324 C330 0.930 . S
H325 C334 0.930 . S
H326 C339 0.929 1_545 S
H327 C337 0.929 . S
H328 C332 0.929 . S
H329 C338 0.929 . S
C330 H324 0.930 . S
C330 C331 1.367 . S
C330 C338 1.378 . S
C331 C330 1.367 . S
C331 C339 1.433 . S
C332 H328 0.929 . S
C332 C334 1.378 . S
C332 C336 1.350 1_545 S
C333 C336 1.463 . S
C333 C338 1.350 . S
C333 N341 1.427 1_565 S
C334 H325 0.930 . S
C334 C332 1.378 . S
C334 C335 1.367 1_545 S
C335 C334 1.367 1_565 S
C335 C337 1.433 . S
C336 C332 1.350 1_565 S
C336 C333 1.463 . S
C336 N340 1.427 . S
C337 H327 0.929 . S
C337 C335 1.433 . S
C337 N340 1.384 . S
C338 H329 0.929 . S
C338 C330 1.378 . S
C338 C333 1.350 . S
C339 H326 0.929 1_565 S
C339 C331 1.433 . S
C339 N341 1.384 1_565 S
N340 C336 1.427 . S
N340 C337 1.384 . S
N341 C333 1.427 1_545 S
N341 C339 1.384 1_545 S
H342 C348 0.930 . S
H343 C352 0.930 . S
H344 C357 0.929 . S
H345 C355 0.929 . S
H346 C350 0.929 . S
H347 C356 0.929 . S
C348 H342 0.930 . S
C348 C349 1.367 . S
C348 C356 1.378 . S
C349 C348 1.367 . S
C349 C357 1.433 . S
C350 H346 0.929 . S
C350 C352 1.378 . S
C350 C354 1.350 . S
C351 C354 1.463 . S
C351 C356 1.350 . S
C351 N359 1.427 . S
C352 H343 0.930 . S
C352 C350 1.378 . S
C352 C353 1.367 . S
C353 C352 1.367 . S
C353 C355 1.433 . S
C354 C350 1.350 . S
C354 C351 1.463 . S
C354 N358 1.427 . S
C355 H345 0.929 . S
C355 C353 1.433 . S
C355 N358 1.384 . S
C356 H347 0.929 . S
C356 C348 1.378 . S
C356 C351 1.350 . S
C357 H344 0.929 . S
C357 C349 1.433 . S
C357 N359 1.384 . S
N358 C354 1.427 . S
N358 C355 1.384 . S
N359 C351 1.427 . S
N359 C357 1.384 . S
H360 C366 0.930 . S
H361 C370 0.930 . S
H362 C375 0.929 . S
H363 C373 0.929 . S
H364 C368 0.929 . S
H365 C374 0.929 . S
C366 H360 0.930 . S
C366 C367 1.367 . S
C366 C374 1.378 . S
C367 C366 1.367 . S
C367 C375 1.433 . S
C368 H364 0.929 . S
C368 C370 1.378 . S
C368 C372 1.350 1_655 S
C369 C372 1.463 . S
C369 C374 1.350 . S
C369 N377 1.427 . S
C370 H361 0.930 . S
C370 C368 1.378 . S
C370 C371 1.367 1_655 S
C371 C370 1.367 1_455 S
C371 C373 1.433 . S
C372 C368 1.350 1_455 S
C372 C369 1.463 . S
C372 N376 1.427 . S
C373 H363 0.929 . S
C373 C371 1.433 . S
C373 N376 1.384 . S
C374 H365 0.929 . S
C374 C366 1.378 . S
C374 C369 1.350 . S
C375 H362 0.929 . S
C375 C367 1.433 . S
C375 N377 1.384 . S
N376 C372 1.427 . S
N376 C373 1.384 . S
N377 C369 1.427 . S
N377 C375 1.384 . S
H378 C384 0.930 . S
H379 C388 0.930 . S
H380 C393 0.929 1_565 S
H381 C391 0.929 . S
H382 C386 0.929 . S
H383 C392 0.929 . S
C384 H378 0.930 . S
C384 C385 1.367 . S
C384 C392 1.378 . S
C385 C384 1.367 . S
C385 C393 1.433 . S
C386 H382 0.929 . S
C386 C388 1.378 . S
C386 C390 1.350 1_565 S
C387 C390 1.463 . S
C387 C392 1.350 . S
C387 N395 1.428 1_545 S
C388 H379 0.930 . S
C388 C386 1.378 . S
C388 C389 1.367 1_565 S
C389 C388 1.367 1_545 S
C389 C391 1.433 . S
C390 C386 1.350 1_545 S
C390 C387 1.463 . S
C390 N394 1.427 . S
C391 H381 0.929 . S
C391 C389 1.433 . S
C391 N394 1.384 . S
C392 H383 0.929 . S
C392 C384 1.378 . S
C392 C387 1.350 . S
C393 H380 0.929 1_545 S
C393 C385 1.433 . S
C393 N395 1.384 1_545 S
N394 C390 1.427 . S
N394 C391 1.384 . S
N395 C387 1.428 1_565 S
N395 C393 1.384 1_565 S
H396 C402 0.930 . S
H397 C406 0.930 . S
H398 C411 0.929 . S
H399 C409 0.929 . S
H400 C404 0.929 . S
H401 C410 0.929 . S
C402 H396 0.930 . S
C402 C403 1.367 . S
C402 C410 1.378 . S
C403 C402 1.367 . S
C403 C411 1.433 . S
C404 H400 0.929 . S
C404 C406 1.378 . S
C404 C408 1.350 . S
C405 C408 1.463 . S
C405 C410 1.350 . S
C405 N413 1.427 . S
C406 H397 0.930 . S
C406 C404 1.378 . S
C406 C407 1.367 . S
C407 C406 1.367 . S
C407 C409 1.433 . S
C408 C404 1.350 . S
C408 C405 1.463 . S
C408 N412 1.427 . S
C409 H399 0.929 . S
C409 C407 1.433 . S
C409 N412 1.384 . S
C410 H401 0.929 . S
C410 C402 1.378 . S
C410 C405 1.350 . S
C411 H398 0.929 . S
C411 C403 1.433 . S
C411 N413 1.384 . S
N412 C408 1.427 . S
N412 C409 1.384 . S
N413 C405 1.427 . S
N413 C411 1.384 . S
H414 C420 0.930 . S
H415 C424 0.930 . S
H416 C429 0.929 1_565 S
H417 C427 0.929 . S
H418 C422 0.929 . S
H419 C428 0.929 . S
C420 H414 0.930 . S
C420 C421 1.367 . S
C420 C428 1.378 . S
C421 C420 1.367 . S
C421 C429 1.433 . S
C422 H418 0.929 . S
C422 C424 1.378 . S
C422 C426 1.350 1_565 S
C423 C426 1.463 . S
C423 C428 1.350 . S
C423 N431 1.427 1_545 S
C424 H415 0.930 . S
C424 C422 1.378 . S
C424 C425 1.367 1_565 S
C425 C424 1.367 1_545 S
C425 C427 1.433 . S
C426 C422 1.350 1_545 S
C426 C423 1.463 . S
C426 N430 1.427 . S
C427 H417 0.929 . S
C427 C425 1.433 . S
C427 N430 1.384 . S
C428 H419 0.929 . S
C428 C420 1.378 . S
C428 C423 1.350 . S
C429 H416 0.929 1_545 S
C429 C421 1.433 . S
C429 N431 1.384 1_545 S
N430 C426 1.427 . S
N430 C427 1.384 . S
N431 C423 1.427 1_565 S
N431 C429 1.384 1_565 S
H432 C438 0.930 . S
H433 C442 0.930 . S
H434 C447 0.929 . S
H435 C445 0.929 . S
H436 C440 0.929 . S
H437 C446 0.929 . S
C438 H432 0.930 . S
C438 C439 1.367 . S
C438 C446 1.378 . S
C439 C438 1.367 . S
C439 C447 1.433 1_554 S
C440 H436 0.929 . S
C440 C442 1.378 . S
C440 C444 1.350 . S
C441 C444 1.463 . S
C441 C446 1.350 1_556 S
C441 N449 1.427 . S
C442 H433 0.930 . S
C442 C440 1.378 . S
C442 C443 1.367 . S
C443 C442 1.367 . S
C443 C445 1.433 . S
C444 C440 1.350 . S
C444 C441 1.463 . S
C444 N448 1.427 . S
C445 H435 0.929 . S
C445 C443 1.433 . S
C445 N448 1.384 . S
C446 H437 0.929 . S
C446 C438 1.378 . S
C446 C441 1.350 1_554 S
C447 H434 0.929 . S
C447 C439 1.433 1_556 S
C447 N449 1.384 . S
N448 C444 1.427 . S
N448 C445 1.384 . S
N449 C441 1.427 . S
N449 C447 1.384 . S
H450 C456 0.930 . S
H451 C460 0.930 1_455 S
H452 C465 0.929 . S
H453 C463 0.929 . S
H454 C458 0.929 . S
H455 C464 0.929 . S
C456 H450 0.930 . S
C456 C457 1.367 . S
C456 C464 1.378 . S
C457 C456 1.367 . S
C457 C465 1.433 . S
C458 H454 0.929 . S
C458 C460 1.378 . S
C458 C462 1.350 . S
C459 C462 1.463 . S
C459 C464 1.350 . S
C459 N467 1.427 . S
C460 H451 0.930 1_655 S
C460 C458 1.378 . S
C460 C461 1.367 . S
C461 C460 1.367 . S
C461 C463 1.433 . S
C462 C458 1.350 . S
C462 C459 1.463 . S
C462 N466 1.427 . S
C463 H453 0.929 . S
C463 C461 1.433 . S
C463 N466 1.384 . S
C464 H455 0.929 . S
C464 C456 1.378 . S
C464 C459 1.350 . S
C465 H452 0.929 . S
C465 C457 1.433 . S
C465 N467 1.384 . S
N466 C462 1.427 . S
N466 C463 1.384 . S
N467 C459 1.427 . S
N467 C465 1.384 . S
H468 C474 0.930 1_545 S
H469 C478 0.930 . S
H470 C483 0.929 . S
H471 C481 0.929 . S
H472 C476 0.929 . S
H473 C482 0.929 . S
C474 H468 0.930 1_565 S
C474 C475 1.367 . S
C474 C482 1.378 1_565 S
C475 C474 1.367 . S
C475 C483 1.433 . S
C476 H472 0.929 . S
C476 C478 1.378 . S
C476 C480 1.350 . S
C477 C480 1.463 . S
C477 C482 1.350 1_565 S
C477 N485 1.427 . S
C478 H469 0.930 . S
C478 C476 1.378 . S
C478 C479 1.367 . S
C479 C478 1.367 . S
C479 C481 1.433 1_565 S
C480 C476 1.350 . S
C480 C477 1.463 . S
C480 N484 1.427 1_565 S
C481 H471 0.929 . S
C481 C479 1.433 1_545 S
C481 N484 1.384 . S
C482 H473 0.929 . S
C482 C474 1.378 1_545 S
C482 C477 1.350 1_545 S
C483 H470 0.929 . S
C483 C475 1.433 . S
C483 N485 1.384 . S
N484 C480 1.427 1_545 S
N484 C481 1.384 . S
N485 C477 1.427 . S
N485 C483 1.384 . S
H486 C492 0.930 . S
H487 C496 0.930 . S
H488 C501 0.929 . S
H489 C499 0.929 . S
H490 C494 0.929 . S
H491 C500 0.929 . S
C492 H486 0.930 . S
C492 C493 1.367 . S
C492 C500 1.378 . S
C493 C492 1.367 . S
C493 C501 1.433 1_554 S
C494 H490 0.929 . S
C494 C496 1.378 . S
C494 C498 1.350 . S
C495 C498 1.463 . S
C495 C500 1.350 1_556 S
C495 N503 1.427 . S
C496 H487 0.930 . S
C496 C494 1.378 . S
C496 C497 1.367 . S
C497 C496 1.367 . S
C497 C499 1.433 . S
C498 C494 1.350 . S
C498 C495 1.463 . S
C498 N502 1.427 . S
C499 H489 0.929 . S
C499 C497 1.433 . S
C499 N502 1.384 . S
C500 H491 0.929 . S
C500 C492 1.378 . S
C500 C495 1.350 1_554 S
C501 H488 0.929 . S
C501 C493 1.433 1_556 S
C501 N503 1.384 . S
N502 C498 1.427 . S
N502 C499 1.384 . S
N503 C495 1.427 . S
N503 C501 1.384 . S
H504 C510 0.930 . S
H505 C514 0.930 . S
H506 C519 0.929 . S
H507 C517 0.929 . S
H508 C512 0.924 1_655 S
H509 C518 0.929 . S
C510 H504 0.930 . S
C510 C511 1.367 . S
C510 C518 1.378 . S
C511 C510 1.367 . S
C511 C519 1.433 . S
C512 H508 0.924 1_455 S
C512 C514 1.378 1_455 S
C512 C516 1.350 . S
C513 C516 1.463 . S
C513 C518 1.350 . S
C513 N521 1.427 . S
C514 H505 0.930 . S
C514 C512 1.378 1_655 S
C514 C515 1.367 1_655 S
C515 C514 1.367 1_455 S
C515 C517 1.433 . S
C516 C512 1.350 . S
C516 C513 1.463 . S
C516 N520 1.427 . S
C517 H507 0.929 . S
C517 C515 1.433 . S
C517 N520 1.384 . S
C518 H509 0.929 . S
C518 C510 1.378 . S
C518 C513 1.350 . S
C519 H506 0.929 . S
C519 C511 1.433 . S
C519 N521 1.384 . S
N520 C516 1.427 . S
N520 C517 1.384 . S
N521 C513 1.427 . S
N521 C519 1.384 . S
C317 C265 1.460 . S
C313 C29 1.440 . S
C331 C137 1.448 . S
C335 C291 1.465 . S
C349 C225 1.438 . S
C353 C293 1.459 . S
C367 C49 1.447 . S
C371 C277 1.463 . S
C389 C279 1.464 . S
C385 C117 1.445 . S
C403 C205 1.439 . S
C407 C305 1.455 . S
C425 C278 1.463 1_545 S
C421 C233 1.450 . S
C439 C57 1.442 . S
C443 C304 1.463 . S
C461 C264 1.457 1_655 S
C457 C108 1.445 . S
C479 C290 1.461 1_565 S
C475 C196 1.437 . S
C497 C292 1.462 . S
C493 C20 1.442 . S
C511 C145 1.444 . S
C515 C276 1.458 1_455 S
