# Generated by pormake.
# Topology nia, (6,6)-cn, num edge types: 1
# Building blocks:
#     Node 0, Type 0, BuildingBlock: NUHQIS_clean_sbu_0, # of connection points: 6
#     Node 1, Type 0, BuildingBlock: NUHQIS_clean_sbu_0, # of connection points: 6
#     Node 2, Type 1, BuildingBlock: MIDCAF_clean_sbu_0, # of connection points: 6
#     Node 3, Type 1, BuildingBlock: MIDCAF_clean_sbu_0, # of connection points: 6
#     Edge 4, Type (0, 1), BuildingBlock: ZUJKAS_clean_linker_0, # of connection points: 2
#     Edge 5, Type (0, 1), BuildingBlock: ZUJKAS_clean_linker_0, # of connection points: 2
#     Edge 6, Type (0, 1), BuildingBlock: ZUJKAS_clean_linker_0, # of connection points: 2
#     Edge 7, Type (0, 1), BuildingBlock: ZUJKAS_clean_linker_0, # of connection points: 2
#     Edge 8, Type (0, 1), BuildingBlock: ZUJKAS_clean_linker_0, # of connection points: 2
#     Edge 9, Type (0, 1), BuildingBlock: ZUJKAS_clean_linker_0, # of connection points: 2
#     Edge 10, Type (0, 1), BuildingBlock: ZUJKAS_clean_linker_0, # of connection points: 2
#     Edge 11, Type (0, 1), BuildingBlock: ZUJKAS_clean_linker_0, # of connection points: 2
#     Edge 12, Type (0, 1), BuildingBlock: ZUJKAS_clean_linker_0, # of connection points: 2
#     Edge 13, Type (0, 1), BuildingBlock: ZUJKAS_clean_linker_0, # of connection points: 2
#     Edge 14, Type (0, 1), BuildingBlock: ZUJKAS_clean_linker_0, # of connection points: 2
#     Edge 15, Type (0, 1), BuildingBlock: ZUJKAS_clean_linker_0, # of connection points: 2
# Relax obj value: 0.204
# Max RMSD: 0.271
# Mean RMSD: 0.211
data_MOF--net-nia--node1-NUHQIS_clean_sbu_0--node2-MIDCAF_clean_sbu_0--edge1-ZUJKAS_clean_linker_0
_symmetry_space_group_name_H-M    P1
_symmetry_Int_Tables_number       1
_symmetry_cell_setting            triclinic
loop_
_symmetry_equiv_pos_as_xyz
'x, y, z'
_cell_length_a     35.80039
_cell_length_b     35.841604
_cell_length_c     40.332499
_cell_angle_alpha  90.030931
_cell_angle_beta   91.03287
_cell_angle_gamma 133.20605
loop_
_atom_site_label
_atom_site_type_symbol
_atom_site_fract_x
_atom_site_fract_y
_atom_site_fract_z
_atom_type_partial_charge
Tb0 Tb 0.97483 0.01628 0.98666 0.0
Eu1 Eu 0.01236 0.97953 0.04279 0.0
C2 C 0.08023 0.04559 0.9801 0.0
C3 C 0.95659 0.91708 0.976 0.0
C4 C 0.92686 0.06835 0.93863 0.0
C5 C 0.90965 0.10861 0.90146 0.0
C6 C 0.92924 0.08628 0.90716 0.0
C7 C 0.9056 0.07411 0.96471 0.0
C8 C 0.88594 0.09663 0.95902 0.0
C9 C 0.88709 0.11346 0.92715 0.0
C10 C 0.94493 0.04203 0.94281 0.0
O11 O 0.9268 -0.00689 0.02921 0.0
O12 O 0.92866 0.93456 0.04852 0.0
O13 O 0.01946 0.04012 0.06722 0.0
O14 O 0.02588 0.08156 1.02103 0.0
C15 C 0.90798 0.9537 0.04774 0.0
O16 O -0.00844 0.91818 0.07375 0.0
O17 O 0.06696 -0.00498 0.07987 0.0
O18 O 0.08124 0.03833 1.01193 0.0
O19 O 0.03857 0.02983 0.9649 0.0
O20 O 0.93663 0.93718 0.9746 0.0
O21 O -0.00526 0.93508 0.99651 0.0
C22 C 0.03234 0.08037 0.05315 0.0
O23 O -0.00723 0.07006 0.95191 0.0
O24 O 0.91472 -0.0017 0.95788 0.0
C25 C 0.05673 0.92495 0.09851 0.0
C26 C 0.09642 0.88453 0.12421 0.0
C27 C 0.04432 0.85778 0.12731 0.0
C28 C 0.02478 0.87783 0.11465 0.0
C29 C 0.10859 0.95134 0.09457 0.0
C30 C 0.12825 0.93122 0.10729 0.0
C31 C 0.03581 0.94756 0.08949 0.0
H32 H 0.9121 0.12202 0.87681 0.0
H33 H 0.94571 0.08236 0.88677 0.0
H34 H 0.90345 0.06048 0.98923 0.0
H35 H 0.86864 0.0996 0.97931 0.0
H36 H 0.01891 0.82216 0.1406 0.0
H37 H 0.98483 0.85716 0.11843 0.0
H38 H 0.13417 0.98792 0.08237 0.0
H39 H 0.16843 0.95242 0.10414 0.0
Tb40 Tb -0.01215 0.0249 0.55198 0.0
Eu41 Eu 0.03551 -0.00148 0.49798 0.0
C42 C 0.96281 0.92154 0.55582 0.0
C43 C 0.08715 0.04656 0.56843 0.0
C44 C 0.9296 0.06326 0.60288 0.0
C45 C 0.89414 0.08117 0.64326 0.0
C46 C 0.91637 0.06224 0.63551 0.0
C47 C 0.91925 0.0823 0.5777 0.0
C48 C 0.89668 0.10117 0.58544 0.0
C49 C 0.8847 0.1015 0.61845 0.0
C50 C 0.95651 0.04661 0.59665 0.0
O51 O 0.01118 0.07567 0.51085 0.0
O52 O 0.07555 0.0814 0.49403 0.0
O53 O 0.97469 -0.01039 0.47062 0.0
O54 O 0.92679 0.9766 0.51438 0.0
C55 C 0.05265 0.09834 0.49379 0.0
O56 O 0.10298 0.02325 0.47334 0.0
O57 O 0.02693 0.95266 0.45751 0.0
O58 O 0.97499 0.92487 0.5247 0.0
O59 O 0.97489 0.96056 0.57195 0.0
O60 O 0.06694 0.06624 0.56668 0.0
O61 O 0.07365 0.01136 0.54706 0.0
C62 C 0.9322 0.97414 0.48245 0.0
O63 O 0.92962 0.00064 0.58434 0.0
O64 O 0.00144 0.07985 0.58343 0.0
C65 C 0.09694 0.96105 0.44556 0.0
C66 C 0.1362 0.91759 0.42803 0.0
C67 C 0.14509 0.95515 0.40822 0.0
C68 C 0.12568 0.97665 0.41695 0.0
C69 C 0.08795 0.92378 0.46565 0.0
C70 C 0.10743 0.90211 0.45691 0.0
C71 C 0.07617 0.98379 0.45306 0.0
H72 H 0.88448 0.08005 0.66877 0.0
H73 H 0.92405 0.04752 0.6552 0.0
H74 H 0.92942 0.08339 0.55234 0.0
H75 H 0.88992 0.11675 0.56586 0.0
H76 H 0.16626 0.96732 0.38556 0.0
H77 H 0.1327 0.00523 0.4011 0.0
H78 H 0.06582 0.9114 0.48789 0.0
H79 H 0.10032 0.87358 0.47282 0.0
Zn80 Zn 0.35649 0.65828 0.20945 0.0
Zn81 Zn 0.35988 0.64208 0.33926 0.0
Zn82 Zn 0.35826 0.64863 0.2737 0.0
C83 C 0.46079 0.70411 0.31872 0.0
C84 C 0.29897 0.54316 0.31388 0.0
O85 O 0.32582 0.68262 0.26205 0.0
O86 O 0.33139 0.6925 0.2076 0.0
C87 C 0.45774 0.71377 0.22668 0.0
O88 O 0.43904 0.69463 0.29007 0.0
O89 O 0.43462 0.68589 0.34461 0.0
O90 O 0.31732 0.56793 0.34098 0.0
O91 O 0.30918 0.5663 0.28624 0.0
O92 O 0.42975 0.70162 0.20152 0.0
O93 O 0.43808 0.69745 0.25559 0.0
O94 O 0.3085 0.57043 0.25158 0.0
O95 O 0.30775 0.58444 0.19824 0.0
C96 C 0.293 0.55366 0.22146 0.0
O97 O 0.32914 0.6807 0.29661 0.0
O98 O 0.3286 0.66934 0.35065 0.0
C99 C 0.3193 0.69743 0.23527 0.0
C100 C 0.31987 0.68496 0.32645 0.0
Zn101 Zn 0.67057 0.37656 0.87005 0.0
Zn102 Zn 0.61261 0.32954 0.70699 0.0
Zn103 Zn 0.64345 0.35269 0.76765 0.0
C104 C 0.68413 0.43685 0.71163 0.0
C105 C 0.52782 0.28504 0.74784 0.0
O106 O 0.67798 0.32309 0.78063 0.0
O107 O 0.679 0.35191 0.82771 0.0
C108 C 0.709 0.44163 0.80656 0.0
O109 O 0.68465 0.42697 0.74228 0.0
O110 O 0.65585 0.40064 0.69061 0.0
O111 O 0.54015 0.2898 0.71794 0.0
O112 O 0.56173 0.30606 0.77132 0.0
O113 O 0.68756 0.4017 0.82306 0.0
O114 O 0.69993 0.43471 0.77542 0.0
O115 O 0.58225 0.32113 0.80705 0.0
O116 O 0.59403 0.33476 0.86329 0.0
C117 C 0.56534 0.31497 0.83692 0.0
O118 O 0.66513 0.31211 0.74731 0.0
O119 O 0.63319 0.29179 0.69604 0.0
C120 C 0.6881 0.32857 0.8117 0.0
C121 C 0.65756 0.29132 0.71878 0.0
H122 H 0.05261 0.78523 0.12528 0.0
H123 H 0.08543 0.75163 0.15293 0.0
H124 H 0.22119 0.90449 0.18487 0.0
H125 H 0.18769 0.93823 0.1584 0.0
H126 H 0.17175 0.7733 0.13951 0.0
H127 H 0.17984 0.82577 0.27047 0.0
H128 H 0.14515 0.82735 0.23833 0.0
H129 H 0.21348 0.87937 0.24331 0.0
C130 C 0.08912 0.81165 0.13859 0.0
C131 C 0.11745 0.86441 0.13973 0.0
C132 C 0.10786 0.79239 0.15431 0.0
C133 C 0.15522 0.82541 0.17156 0.0
C134 C 0.18394 0.87816 0.17243 0.0
H135 H 0.36173 0.78813 0.20993 0.0
H136 H 0.31971 0.81949 0.19968 0.0
C137 C 0.16515 0.89748 0.15678 0.0
C138 C 0.1762 0.80504 0.18644 0.0
H139 H 0.2263 0.80161 0.25803 0.0
C140 C 0.18291 0.77882 0.16554 0.0
C141 C 0.19046 0.812 0.22048 0.0
C142 C 0.18141 0.8372 0.24454 0.0
C143 C 0.20501 0.76083 0.17747 0.0
C144 C 0.22143 0.7699 0.21105 0.0
C145 C 0.21356 0.7948 0.2323 0.0
C146 C 0.24947 0.75602 0.22346 0.0
C147 C 0.21173 0.73314 0.15392 0.0
C148 C 0.22433 0.71099 0.24134 0.0
C149 C 0.24864 0.69344 0.24769 0.0
C150 C 0.29789 0.72056 0.23578 0.0
C151 C 0.3238 0.76689 0.21944 0.0
C152 C 0.29993 0.78476 0.2136 0.0
H153 H 0.18884 0.72112 0.13054 0.0
H154 H 0.25275 0.75891 0.14756 0.0
H155 H 0.20037 0.69876 0.16576 0.0
H156 H 0.18506 0.68805 0.24868 0.0
H157 H 0.22793 0.65729 0.26 0.0
H158 H 0.14051 0.13263 0.60754 0.0
H159 H 0.20491 0.16274 0.65089 0.0
H160 H 0.18229 0.02944 0.63436 0.0
H161 H 0.11913 -6e-05 0.59022 0.0
H162 H 0.20462 0.1231 0.70971 0.0
H163 H 0.33371 0.14502 0.6195 0.0
H164 H 0.27772 0.1329 0.60662 0.0
H165 H 0.27157 0.08126 0.62061 0.0
C166 C 0.14933 0.10977 0.61308 0.0
C167 C 0.12548 0.0644 0.59502 0.0
C168 C 0.18588 0.12686 0.63803 0.0
C169 C 0.19895 0.09874 0.64552 0.0
C170 C 0.17362 0.05234 0.62846 0.0
H171 H 0.45719 0.18252 0.75143 0.0
H172 H 0.36625 0.12834 0.73723 0.0
C173 C 0.13761 0.03558 0.6032 0.0
C174 C 0.24129 0.11957 0.66966 0.0
H175 H 0.35947 0.16014 0.67566 0.0
C176 C 0.23842 0.13097 0.70239 0.0
C177 C 0.28556 0.1303 0.65995 0.0
C178 C 0.29272 0.12225 0.62471 0.0
C179 C 0.27875 0.15271 0.72566 0.0
C180 C 0.32273 0.16316 0.71582 0.0
C181 C 0.3252 0.15118 0.68329 0.0
C182 C 0.36921 0.19068 0.73727 0.0
C183 C 0.27433 0.16459 0.76043 0.0
C184 C 0.40003 0.24304 0.74434 0.0
C185 C 0.45198 0.27395 0.75278 0.0
C186 C 0.47329 0.25263 0.75421 0.0
C187 C 0.44118 0.19947 0.75095 0.0
C188 C 0.38931 0.16858 0.74277 0.0
H189 H 0.23386 0.14279 0.76657 0.0
H190 H 0.29074 0.1558 0.77886 0.0
H191 H 0.29627 0.20603 0.76269 0.0
H192 H 0.38554 0.26102 0.73973 0.0
H193 H 0.47646 0.31506 0.75455 0.0
H194 H 0.06744 0.09762 0.1171 0.0
H195 H 0.10515 0.17167 0.15274 0.0
H196 H 0.08594 0.23903 0.07406 0.0
H197 H 0.04817 0.16491 0.03785 0.0
H198 H 0.19591 0.27952 0.13531 0.0
H199 H 0.01991 0.24089 0.16018 0.0
H200 H 0.01804 0.19128 0.14736 0.0
H201 H 0.03007 0.23543 0.11759 0.0
C202 C 0.0709 0.12797 0.1073 0.0
C203 C 0.05471 0.12533 0.07457 0.0
C204 C 0.09251 0.17025 0.12777 0.0
C205 C 0.09776 0.21036 0.1161 0.0
C206 C 0.08156 0.20798 0.08355 0.0
H207 H 0.22255 0.50381 0.1713 0.0
H208 H 0.17264 0.41649 0.1513 0.0
C209 C 0.0603 0.16582 0.06287 0.0
C210 C 0.12224 0.25575 0.13755 0.0
H211 H 0.09928 0.3221 0.17735 0.0
C212 C 0.17488 0.28875 0.14486 0.0
C213 C 0.09434 0.26711 0.15003 0.0
C214 C 0.03735 0.23173 0.1437 0.0
C215 C 0.2011 0.33452 0.16294 0.0
C216 C 0.17347 0.34675 0.17473 0.0
C217 C 0.12034 0.31256 0.16844 0.0
C218 C 0.19985 0.39749 0.18984 0.0
C219 C 0.25851 0.37058 0.16767 0.0
C220 C 0.23076 0.41549 0.21877 0.0
C221 C 0.26006 0.46597 0.23006 0.0
C222 C 0.25803 0.49865 0.21288 0.0
C223 C 0.22507 0.47955 0.18497 0.0
C224 C 0.19628 0.42954 0.17361 0.0
H225 H 0.27497 0.36015 0.15138 0.0
H226 H 0.27747 0.41058 0.16246 0.0
H227 H 0.26775 0.36916 0.19377 0.0
H228 H 0.23346 0.39109 0.23199 0.0
H229 H 0.28607 0.48008 0.25109 0.0
H230 H 0.80697 0.08708 0.58715 0.0
H231 H 0.76908 0.12054 0.60457 0.0
H232 H 0.87574 0.19839 0.68787 0.0
H233 H 0.91416 0.16587 0.67044 0.0
H234 H 0.7252 0.10378 0.6696 0.0
H235 H 0.88666 0.30983 0.6427 0.0
H236 H 0.88035 0.25986 0.62402 0.0
H237 H 0.90342 0.28023 0.66615 0.0
C238 C 0.82275 0.11193 0.60888 0.0
C239 C 0.86337 0.12375 0.62751 0.0
C240 C 0.80096 0.13075 0.61888 0.0
C241 C 0.81996 0.16217 0.64733 0.0
C242 C 0.86098 0.17466 0.66563 0.0
H243 H 0.74121 0.31458 0.74793 0.0
H244 H 0.77871 0.27996 0.73308 0.0
C245 C 0.88255 0.1557 0.6558 0.0
C246 C 0.7956 0.18023 0.65886 0.0
H247 H 0.81785 0.28804 0.67256 0.0
C248 C 0.74525 0.14401 0.67012 0.0
C249 C 0.82224 0.23277 0.65982 0.0
C250 C 0.87604 0.27303 0.64731 0.0
C251 C 0.72089 0.15905 0.68271 0.0
C252 C 0.7473 0.21159 0.68331 0.0
C253 C 0.79778 0.24781 0.67218 0.0
C254 C 0.72257 0.22968 0.69406 0.0
C255 C 0.66751 0.11864 0.69584 0.0
C256 C 0.67869 0.21288 0.67707 0.0
C257 C 0.65687 0.23198 0.68582 0.0
C258 C 0.67871 0.26851 0.71161 0.0
C259 C 0.72274 0.28542 0.72859 0.0
C260 C 0.74445 0.26606 0.71992 0.0
H261 H 0.65912 0.08361 0.70291 0.0
H262 H 0.66209 0.13313 0.71777 0.0
H263 H 0.63921 0.10761 0.67622 0.0
H264 H 0.66195 0.18584 0.65649 0.0
H265 H 0.62325 0.21863 0.67204 0.0
H266 H 0.85117 0.97908 0.052 0.0
H267 H 0.78095 0.94372 0.08968 0.0
H268 H 0.79684 0.84411 0.13088 0.0
H269 H 0.86681 0.879 0.09358 0.0
H270 H 0.68815 0.8375 0.09333 0.0
H271 H 0.79706 0.91345 0.2136 0.0
H272 H 0.8276 0.94017 0.17422 0.0
H273 H 0.8079 0.88118 0.18739 0.0
C274 C 0.8398 0.94973 0.06911 0.0
C275 C 0.86461 0.93186 0.06971 0.0
C276 C 0.79984 0.92972 0.09069 0.0
C277 C 0.78443 0.89201 0.11344 0.0
C278 C 0.8089 0.87397 0.114 0.0
H279 H 0.52081 0.69798 0.24209 0.0
H280 H 0.60577 0.745 0.21849 0.0
C281 C 0.8486 0.89368 0.09238 0.0
C282 C 0.74058 0.86917 0.13516 0.0
H283 H 0.70629 0.85415 0.21614 0.0
C284 C 0.69215 0.84134 0.12015 0.0
C285 C 0.74594 0.87371 0.17018 0.0
C286 C 0.79745 0.90404 0.18743 0.0
C287 C 0.64876 0.8177 0.13917 0.0
C288 C 0.65415 0.82308 0.17417 0.0
C289 C 0.70245 0.85032 0.18932 0.0
C290 C 0.60974 0.8018 0.1948 0.0
C291 C 0.59727 0.78664 0.12161 0.0
C292 C 0.58568 0.82007 0.19088 0.0
C293 C 0.53751 0.79322 0.20394 0.0
C294 C 0.5131 0.74831 0.22172 0.0
C295 C 0.53925 0.73275 0.22857 0.0
C296 C 0.58752 0.75944 0.21506 0.0
H297 H 0.5976 0.77535 0.09603 0.0
H298 H 0.56675 0.75148 0.1355 0.0
H299 H 0.58736 0.80991 0.11984 0.0
H300 H 0.60261 0.85313 0.17576 0.0
H301 H 0.51792 0.80584 0.19843 0.0
H302 H 0.93596 0.90295 0.6209 0.0
H303 H 0.89409 0.82463 0.6514 0.0
H304 H 0.88856 0.75284 0.56316 0.0
H305 H 0.93128 0.83149 0.5324 0.0
H306 H 0.79932 0.72825 0.63975 0.0
H307 H 0.9518 0.72541 0.63205 0.0
H308 H 0.96266 0.78133 0.62236 0.0
H309 H 0.93169 0.72995 0.59239 0.0
C310 C 0.92614 0.87067 0.6079 0.0
C311 C 0.93725 0.87368 0.57414 0.0
C312 C 0.90215 0.82588 0.62544 0.0
C313 C 0.88891 0.78316 0.60973 0.0
C314 C 0.89948 0.78575 0.57599 0.0
H315 H 0.72019 0.47053 0.64975 0.0
H316 H 0.77184 0.5569 0.62874 0.0
C317 C 0.9236 0.83065 0.55837 0.0
C318 C 0.86251 0.73539 0.62841 0.0
H319 H 0.87043 0.64899 0.65049 0.0
C320 C 0.81508 0.71116 0.64244 0.0
C321 C 0.88336 0.71341 0.6321 0.0
C322 C 0.93541 0.73908 0.61922 0.0
C323 C 0.7869 0.66437 0.65881 0.0
C324 C 0.80706 0.64164 0.66158 0.0
C325 C 0.8551 0.66655 0.64834 0.0
C326 C 0.77702 0.58995 0.67549 0.0
C327 C 0.73486 0.63856 0.67179 0.0
C328 C 0.76313 0.57991 0.70894 0.0
C329 C 0.73328 0.53022 0.72109 0.0
C330 C 0.71722 0.49006 0.69997 0.0
C331 C 0.73181 0.5006 0.66665 0.0
C332 C 0.76153 0.54999 0.65461 0.0
H333 H 0.72104 0.65661 0.66252 0.0
H334 H 0.70624 0.59735 0.66455 0.0
H335 H 0.73711 0.64127 0.69928 0.0
H336 H 0.77507 0.61036 0.72556 0.0
H337 H 0.72169 0.52296 0.74665 0.0
H338 H 0.08767 0.81667 0.43005 0.0
H339 H 0.12002 0.77841 0.41126 0.0
H340 H 0.26129 0.92723 0.38308 0.0
H341 H 0.23011 0.96598 0.40285 0.0
H342 H 0.15065 0.7798 0.34753 0.0
H343 H 0.31065 0.87321 0.4399 0.0
H344 H 0.2599 0.87213 0.44476 0.0
H345 H 0.31153 0.91696 0.41733 0.0
C346 C 0.12597 0.84136 0.42041 0.0
C347 C 0.15636 0.89439 0.41804 0.0
C348 C 0.1442 0.8194 0.40941 0.0
C349 C 0.19321 0.85008 0.39608 0.0
C350 C 0.22366 0.90297 0.39375 0.0
H351 H 0.34612 0.76921 0.29807 0.0
H352 H 0.3133 0.80913 0.31175 0.0
C353 C 0.20555 0.92496 0.40477 0.0
C354 C 0.21211 0.82663 0.38399 0.0
H355 H 0.30664 0.82641 0.39599 0.0
C356 C 0.18476 0.79001 0.35811 0.0
C357 C 0.25654 0.83993 0.39793 0.0
C358 C 0.28617 0.87735 0.42672 0.0
C359 C 0.20088 0.76647 0.34575 0.0
C360 C 0.24532 0.78001 0.35958 0.0
C361 C 0.27282 0.81669 0.3853 0.0
C362 C 0.26213 0.75411 0.34918 0.0
C363 C 0.17003 0.72659 0.31844 0.0
C364 C 0.24378 0.71003 0.36557 0.0
C365 C 0.26205 0.68712 0.35764 0.0
C366 C 0.29868 0.70777 0.33301 0.0
C367 C 0.31678 0.75178 0.31643 0.0
C368 C 0.29848 0.77478 0.32441 0.0
H369 H 0.14027 0.72495 0.30739 0.0
H370 H 0.19574 0.73473 0.29867 0.0
H371 H 0.15105 0.68847 0.32852 0.0
H372 H 0.21596 0.69388 0.3849 0.0
H373 H 0.24777 0.65338 0.3709 0.0
H374 H 0.08861 0.0525 0.91244 0.0
H375 H 0.16443 0.09062 0.8801 0.0
H376 H 0.25258 0.13285 0.97055 0.0
H377 H 0.17681 0.0937 1.00301 0.0
H378 H 0.25545 0.1864 0.87711 0.0
H379 H 0.28563 0.06222 0.92011 0.0
H380 H 0.22757 0.04801 0.92801 0.0
H381 H 0.28366 0.0926 0.95442 0.0
C382 C 0.12408 0.06971 0.92549 0.0
C383 C 0.12644 0.06965 0.96038 0.0
C384 C 0.16742 0.09149 0.90692 0.0
C385 C 0.21403 0.11367 0.9228 0.0
C386 C 0.21674 0.11462 0.95764 0.0
H387 H 0.52363 0.34573 0.86756 0.0
H388 H 0.43396 0.29329 0.88204 0.0
C389 C 0.17338 0.09252 0.97621 0.0
C390 C 0.26033 0.13729 0.90316 0.0
H391 H 0.35804 0.14155 0.89539 0.0
C392 C 0.27749 0.17609 0.8808 0.0
C393 C 0.28852 0.12303 0.90714 0.0
C394 C 0.27007 0.07878 0.92844 0.0
C395 C 0.32358 0.20299 0.86394 0.0
C396 C 0.35389 0.19163 0.87018 0.0
C397 C 0.33522 0.15082 0.89095 0.0
C398 C 0.40689 0.22426 0.85789 0.0
C399 C 0.33963 0.24366 0.83983 0.0
C400 C 0.42178 0.20287 0.83979 0.0
C401 C 0.47324 0.23289 0.83171 0.0
C402 C 0.51038 0.28465 0.8415 0.0
C403 C 0.49539 0.30609 0.85922 0.0
C404 C 0.44414 0.27624 0.86728 0.0
H405 H 0.30587 0.23577 0.82931 0.0
H406 H 0.36449 0.28125 0.85302 0.0
H407 H 0.36146 0.24645 0.81913 0.0
H408 H 0.39383 0.16271 0.83264 0.0
H409 H 0.48432 0.2153 0.81885 0.0
H410 H 0.00278 0.12758 0.47275 0.0
H411 H 0.03145 0.19239 0.4316 0.0
H412 H 0.1738 0.22965 0.42336 0.0
H413 H 0.14498 0.16426 0.46361 0.0
H414 H 0.1109 0.29316 0.43206 0.0
H415 H 0.13198 0.21003 0.3273 0.0
H416 H 0.09938 0.17492 0.36457 0.0
H417 H 0.16826 0.21936 0.36302 0.0
C418 C 0.04027 0.14972 0.46224 0.0
C419 C 0.07151 0.14059 0.47134 0.0
C420 C 0.05646 0.18652 0.43858 0.0
C421 C 0.10416 0.21486 0.42362 0.0
C422 C 0.13608 0.20701 0.43359 0.0
H423 H 0.32746 0.49469 0.33531 0.0
H424 H 0.27057 0.40647 0.35438 0.0
C425 C 0.11977 0.16998 0.45695 0.0
C426 C 0.12199 0.25454 0.39887 0.0
H427 H 0.17879 0.30028 0.32364 0.0
C428 C 0.1246 0.29408 0.40803 0.0
C429 C 0.13948 0.25554 0.36733 0.0
C430 C 0.1341 0.21234 0.35484 0.0
C431 C 0.14741 0.33624 0.38754 0.0
C432 C 0.16788 0.33877 0.35703 0.0
C433 C 0.163 0.29812 0.34705 0.0
C434 C 0.2009 0.38666 0.33801 0.0
C435 C 0.15231 0.37939 0.39948 0.0
C436 C 0.18052 0.4037 0.32089 0.0
C437 C 0.21318 0.45406 0.3095 0.0
C438 C 0.26627 0.48759 0.31541 0.0
C439 C 0.28661 0.46916 0.33021 0.0
C440 C 0.25419 0.41892 0.34116 0.0
H441 H 0.13751 0.37305 0.42485 0.0
H442 H 0.1931 0.41613 0.3995 0.0
H443 H 0.13053 0.38319 0.38233 0.0
H444 H 0.13941 0.3792 0.31825 0.0
H445 H 0.19681 0.4679 0.29855 0.0
H446 H 0.82819 0.09387 0.87328 0.0
H447 H 0.79331 0.13161 0.86013 0.0
H448 H 0.85668 0.21796 0.9522 0.0
H449 H 0.89298 0.18117 0.96526 0.0
H450 H 0.72424 0.1286 0.89632 0.0
H451 H 0.91211 0.3279 0.88165 0.0
H452 H 0.9059 0.27349 0.88213 0.0
H453 H 0.9034 0.29775 0.92013 0.0
C454 C 0.83519 0.12125 0.89065 0.0
C455 C 0.86396 0.13495 0.92017 0.0
C456 C 0.81487 0.14251 0.88319 0.0
C457 C 0.82297 0.17813 0.90494 0.0
C458 C 0.85066 0.19115 0.9348 0.0
H459 H 0.73859 0.35537 0.87159 0.0
H460 H 0.76907 0.3181 0.89771 0.0
C461 C 0.87096 0.16973 0.94237 0.0
C462 C 0.80229 0.20138 0.89597 0.0
H463 H 0.83793 0.31371 0.87335 0.0
C464 C 0.74907 0.16913 0.89149 0.0
C465 C 0.83472 0.25431 0.88983 0.0
C466 C 0.89225 0.29051 0.8934 0.0
C467 C 0.72742 0.18821 0.88065 0.0
C468 C 0.75994 0.24083 0.8734 0.0
C469 C 0.81306 0.27338 0.87885 0.0
C470 C 0.73989 0.26227 0.85839 0.0
C471 C 0.66986 0.15178 0.87712 0.0
C472 C 0.71354 0.24343 0.82761 0.0
C473 C 0.69598 0.26443 0.81284 0.0
C474 C 0.70516 0.30533 0.82819 0.0
C475 C 0.7311 0.32394 0.85915 0.0
C476 C 0.74864 0.30281 0.87402 0.0
H477 H 0.65047 0.11797 0.89317 0.0
H478 H 0.65634 0.17096 0.88352 0.0
H479 H 0.65804 0.13771 0.85103 0.0
H480 H 0.707 0.21276 0.81479 0.0
H481 H 0.67487 0.24835 0.78945 0.0
H482 H 0.9329 0.97036 0.4148 0.0
H483 H 0.86306 0.93667 0.37545 0.0
H484 H 0.76588 0.89941 0.45641 0.0
H485 H 0.83586 0.93381 0.49607 0.0
H486 H 0.7708 0.83956 0.37029 0.0
H487 H 0.74329 0.97133 0.39358 0.0
H488 H 0.79987 0.98513 0.40782 0.0
H489 H 0.74206 0.94393 0.43124 0.0
C490 C 0.89683 0.95538 0.42434 0.0
C491 C 0.88999 0.95475 0.45868 0.0
C492 C 0.85699 0.93624 0.40173 0.0
C493 C 0.80957 0.91632 0.41293 0.0
C494 C 0.80261 0.9158 0.44715 0.0
H495 H 0.50639 0.68426 0.3583 0.0
H496 H 0.59747 0.74024 0.37187 0.0
C497 C 0.84251 0.93507 0.46983 0.0
C498 C 0.76616 0.89258 0.38911 0.0
H499 H 0.67119 0.88933 0.36821 0.0
C500 C 0.74963 0.85113 0.36933 0.0
C501 C 0.73925 0.9084 0.38717 0.0
C502 C 0.75738 0.95502 0.40582 0.0
C503 C 0.70458 0.82258 0.34973 0.0
C504 C 0.67506 0.83542 0.35035 0.0
C505 C 0.6937 0.87929 0.36799 0.0
C506 C 0.62135 0.79942 0.33776 0.0
C507 C 0.68782 0.77765 0.32954 0.0
C508 C 0.60453 0.81405 0.31389 0.0
C509 C 0.55211 0.78175 0.30598 0.0
C510 C 0.5162 0.73506 0.32229 0.0
C511 C 0.53342 0.72004 0.34533 0.0
C512 C 0.58545 0.75182 0.35291 0.0
H513 H 0.72118 0.78308 0.32269 0.0
H514 H 0.66208 0.7425 0.3445 0.0
H515 H 0.66662 0.7717 0.30655 0.0
H516 H 0.63171 0.85097 0.30222 0.0
H517 H 0.53952 0.79444 0.28857 0.0
H518 H 0.0007 0.88092 0.95978 0.0
H519 H 0.96285 0.80409 0.92726 0.0
H520 H 0.82331 0.77211 0.914 0.0
H521 H 0.86173 0.85009 0.94546 0.0
H522 H 0.88412 0.7086 0.94052 0.0
H523 H 0.84295 0.75129 0.82098 0.0
H524 H 0.88249 0.79921 0.85329 0.0
H525 H 0.81366 0.75474 0.85487 0.0
C526 C 0.96212 0.85782 0.94965 0.0
C527 C 0.93422 0.87162 0.95515 0.0
C528 C 0.94053 0.81389 0.93104 0.0
C529 C 0.89045 0.78257 0.91772 0.0
C530 C 0.8625 0.79632 0.92316 0.0
H531 H 0.69487 0.46085 0.86804 0.0
H532 H 0.74041 0.5442 0.89433 0.0
C533 C 0.88439 0.84075 0.94138 0.0
C534 C 0.86661 0.73402 0.89997 0.0
H535 H 0.80173 0.66419 0.82888 0.0
C536 C 0.8665 0.69915 0.91598 0.0
C537 C 0.84429 0.72187 0.86772 0.0
C538 C 0.8463 0.75901 0.84807 0.0
C539 C 0.84385 0.65217 0.90102 0.0
C540 C 0.819 0.63879 0.86958 0.0
C541 C 0.82015 0.67412 0.85318 0.0
C542 C 0.7912 0.58817 0.85347 0.0
C543 C 0.84759 0.61781 0.91892 0.0
C544 C 0.8034 0.58501 0.82131 0.0
C545 C 0.77686 0.5373 0.80608 0.0
C546 C 0.73767 0.492 0.82272 0.0
C547 C 0.72544 0.49517 0.85484 0.0
C548 C 0.75156 0.54281 0.86992 0.0
H549 H 0.881 0.63999 0.93654 0.0
H550 H 0.81253 0.5896 0.93346 0.0
H551 H 0.85109 0.59664 0.90124 0.0
H552 H 0.83373 0.61946 0.80809 0.0
H553 H 0.78743 0.5358 0.78146 0.0
loop_
_geom_bond_atom_site_label_1
_geom_bond_atom_site_label_2
_geom_bond_distance
_geom_bond_site_symmetry_2
_ccdc_geom_bond_type
Tb0 C10 2.825 . S
Tb0 O11 2.347 1_546 S
Tb0 O14 2.375 1_655 S
Tb0 O19 2.418 1_655 S
Tb0 O20 2.384 1_545 S
Tb0 O23 2.479 . S
Tb0 O24 2.471 . S
Eu1 O12 2.418 1_455 S
Eu1 O13 2.384 1_565 S
Eu1 O16 2.479 . S
Eu1 O17 2.471 . S
Eu1 O18 2.347 1_564 S
Eu1 O21 2.366 1_455 S
Eu1 C31 2.825 . S
C2 O18 1.259 . S
C2 O19 1.265 . S
C3 O20 1.255 . S
C3 O21 1.265 1_556 S
C4 C6 1.380 . S
C4 C7 1.374 . S
C4 C10 1.507 . S
C5 C6 1.384 . S
C5 C9 1.387 . S
C5 H32 0.930 . S
C6 C4 1.380 . S
C6 C5 1.384 . S
C6 H33 0.931 . S
C7 C4 1.374 . S
C7 C8 1.390 . S
C7 H34 0.930 . S
C8 C7 1.390 . S
C8 C9 1.391 . S
C8 H35 0.930 . S
C9 C5 1.387 . S
C9 C8 1.391 . S
C10 Tb0 2.825 . S
C10 C4 1.507 . S
C10 O23 1.238 . S
C10 O24 1.247 . S
O11 Tb0 2.347 1_564 S
O11 C15 1.259 . S
O12 Eu1 2.418 1_655 S
O12 C15 1.265 . S
O13 Eu1 2.384 1_545 S
O13 C22 1.255 . S
O14 Tb0 2.375 1_455 S
O14 C22 1.251 1_556 S
C15 O11 1.259 . S
C15 O12 1.265 . S
O16 Eu1 2.479 . S
O16 C31 1.238 . S
O17 Eu1 2.471 . S
O17 C31 1.247 . S
O18 Eu1 2.347 1_546 S
O18 C2 1.259 . S
O19 Tb0 2.418 1_455 S
O19 C2 1.265 . S
O20 Tb0 2.384 1_565 S
O20 C3 1.255 . S
O21 Eu1 2.366 1_655 S
O21 C3 1.265 1_554 S
C22 O13 1.255 . S
C22 O14 1.251 1_554 S
O23 Tb0 2.479 . S
O23 C10 1.238 . S
O24 Tb0 2.471 . S
O24 C10 1.247 . S
C25 C28 1.380 . S
C25 C29 1.374 . S
C25 C31 1.507 . S
C26 C27 1.387 . S
C26 C30 1.391 . S
C27 C26 1.387 . S
C27 C28 1.384 . S
C27 H36 0.930 . S
C28 C25 1.380 . S
C28 C27 1.384 . S
C28 H37 0.931 . S
C29 C25 1.374 . S
C29 C30 1.390 . S
C29 H38 0.930 . S
C30 C26 1.391 . S
C30 C29 1.390 . S
C30 H39 0.930 . S
C31 Eu1 2.825 . S
C31 O16 1.238 . S
C31 O17 1.247 . S
C31 C25 1.507 . S
H32 C5 0.930 . S
H33 C6 0.931 . S
H34 C7 0.930 . S
H35 C8 0.930 . S
H36 C27 0.930 . S
H37 C28 0.931 . S
H38 C29 0.930 . S
H39 C30 0.930 . S
Tb40 C50 2.825 1_455 S
Tb40 O51 2.347 . S
Tb40 O54 2.366 1_445 S
Tb40 O59 2.418 1_445 S
Tb40 O60 2.384 . S
Tb40 O63 2.479 1_455 S
Tb40 O64 2.471 1_455 S
Eu41 O52 2.418 1_565 S
Eu41 O53 2.384 1_455 S
Eu41 O56 2.479 . S
Eu41 O57 2.471 . S
Eu41 O58 2.347 1_455 S
Eu41 O61 2.366 1_565 S
Eu41 C71 2.825 . S
C42 O58 1.259 . S
C42 O59 1.265 . S
C43 O60 1.255 . S
C43 O61 1.265 . S
C44 C46 1.380 . S
C44 C47 1.374 . S
C44 C50 1.507 . S
C45 C46 1.384 . S
C45 C49 1.387 . S
C45 H72 0.930 . S
C46 C44 1.380 . S
C46 C45 1.384 . S
C46 H73 0.931 . S
C47 C44 1.374 . S
C47 C48 1.390 . S
C47 H74 0.930 . S
C48 C47 1.390 . S
C48 C49 1.391 . S
C48 H75 0.930 . S
C49 C45 1.387 . S
C49 C48 1.391 . S
C50 Tb40 2.825 1_655 S
C50 C44 1.507 . S
C50 O63 1.238 . S
C50 O64 1.247 . S
O51 Tb40 2.347 . S
O51 C55 1.259 . S
O52 Eu41 2.418 1_545 S
O52 C55 1.265 . S
O53 Eu41 2.384 1_655 S
O53 C62 1.255 . S
O54 Tb40 2.366 1_665 S
O54 C62 1.265 . S
C55 O51 1.259 . S
C55 O52 1.265 . S
O56 Eu41 2.479 . S
O56 C71 1.238 . S
O57 Eu41 2.471 . S
O57 C71 1.247 . S
O58 Eu41 2.347 1_655 S
O58 C42 1.259 . S
O59 Tb40 2.418 1_665 S
O59 C42 1.265 . S
O60 Tb40 2.384 . S
O60 C43 1.255 . S
O61 Eu41 2.366 1_545 S
O61 C43 1.265 . S
C62 O53 1.255 . S
C62 O54 1.265 . S
O63 Tb40 2.479 1_655 S
O63 C50 1.238 . S
O64 Tb40 2.471 1_655 S
O64 C50 1.247 . S
C65 C68 1.380 . S
C65 C69 1.374 . S
C65 C71 1.507 . S
C66 C67 1.387 . S
C66 C70 1.391 . S
C67 C66 1.387 . S
C67 C68 1.384 . S
C67 H76 0.930 . S
C68 C65 1.380 . S
C68 C67 1.384 . S
C68 H77 0.931 . S
C69 C65 1.374 . S
C69 C70 1.390 . S
C69 H78 0.930 . S
C70 C66 1.391 . S
C70 C69 1.390 . S
C70 H79 0.930 . S
C71 Eu41 2.825 . S
C71 O56 1.238 . S
C71 O57 1.247 . S
C71 C65 1.507 . S
H72 C45 0.930 . S
H73 C46 0.931 . S
H74 C47 0.930 . S
H75 C48 0.930 . S
H76 C67 0.930 . S
H77 C68 0.931 . S
H78 C69 0.930 . S
H79 C70 0.930 . S
Zn80 O86 1.920 . S
Zn80 O92 1.898 . S
Zn80 O95 1.905 . S
Zn81 O89 1.905 . S
Zn81 O90 1.898 . S
Zn81 O98 1.920 . S
Zn82 O85 2.080 . S
Zn82 O88 2.114 . S
Zn82 O91 2.120 . S
Zn82 O93 2.120 . S
Zn82 O94 2.114 . S
Zn82 O97 2.080 . S
C83 O88 1.166 . S
C83 O89 1.182 . S
C84 O90 1.167 . S
C84 O91 1.299 . S
O85 Zn82 2.080 . S
O85 C99 1.305 . S
O86 Zn80 1.920 . S
O86 C99 1.234 . S
C87 O92 1.167 . S
C87 O93 1.299 . S
O88 Zn82 2.114 . S
O88 C83 1.166 . S
O89 Zn81 1.905 . S
O89 C83 1.182 . S
O90 Zn81 1.898 . S
O90 C84 1.167 . S
O91 Zn82 2.120 . S
O91 C84 1.299 . S
O92 Zn80 1.898 . S
O92 C87 1.167 . S
O93 Zn82 2.120 . S
O93 C87 1.299 . S
O94 Zn82 2.114 . S
O94 C96 1.166 . S
O95 Zn80 1.905 . S
O95 C96 1.182 . S
C96 O94 1.166 . S
C96 O95 1.182 . S
O97 Zn82 2.080 . S
O97 C100 1.305 . S
O98 Zn81 1.920 . S
O98 C100 1.234 . S
C99 O85 1.305 . S
C99 O86 1.234 . S
C100 O97 1.305 . S
C100 O98 1.234 . S
Zn101 O107 1.920 . S
Zn101 O113 1.898 . S
Zn101 O116 1.905 . S
Zn102 O110 1.905 . S
Zn102 O111 1.898 . S
Zn102 O119 1.920 . S
Zn103 O106 2.080 . S
Zn103 O109 2.114 . S
Zn103 O112 2.120 . S
Zn103 O114 2.120 . S
Zn103 O115 2.114 . S
Zn103 O118 2.080 . S
C104 O109 1.166 . S
C104 O110 1.182 . S
C105 O111 1.167 . S
C105 O112 1.299 . S
O106 Zn103 2.080 . S
O106 C120 1.305 . S
O107 Zn101 1.920 . S
O107 C120 1.234 . S
C108 O113 1.167 . S
C108 O114 1.299 . S
O109 Zn103 2.114 . S
O109 C104 1.166 . S
O110 Zn102 1.905 . S
O110 C104 1.182 . S
O111 Zn102 1.898 . S
O111 C105 1.167 . S
O112 Zn103 2.120 . S
O112 C105 1.299 . S
O113 Zn101 1.898 . S
O113 C108 1.167 . S
O114 Zn103 2.120 . S
O114 C108 1.299 . S
O115 Zn103 2.114 . S
O115 C117 1.166 . S
O116 Zn101 1.905 . S
O116 C117 1.182 . S
C117 O115 1.166 . S
C117 O116 1.182 . S
O118 Zn103 2.080 . S
O118 C121 1.305 . S
O119 Zn102 1.920 . S
O119 C121 1.234 . S
C120 O106 1.305 . S
C120 O107 1.234 . S
C121 O118 1.305 . S
C121 O119 1.234 . S
H122 C130 0.929 . S
H123 C132 0.930 . S
H124 C134 0.930 . S
H125 C137 0.929 . S
H126 C140 0.930 . S
H127 C142 0.960 . S
H128 C142 0.960 . S
H129 C142 0.960 . S
C130 H122 0.929 . S
C130 C131 1.377 . S
C130 C132 1.384 . S
C131 C130 1.377 . S
C131 C137 1.390 . S
C132 H123 0.930 . S
C132 C130 1.384 . S
C132 C133 1.372 . S
C133 C132 1.372 . S
C133 C134 1.400 . S
C133 C138 1.490 . S
C134 H124 0.930 . S
C134 C133 1.400 . S
C134 C137 1.386 . S
H135 C151 0.930 . S
H136 C152 0.931 . S
C137 H125 0.929 . S
C137 C131 1.390 . S
C137 C134 1.386 . S
C138 C133 1.490 . S
C138 C140 1.395 . S
C138 C141 1.403 . S
H139 C145 0.930 . S
C140 H126 0.930 . S
C140 C138 1.395 . S
C140 C143 1.403 . S
C141 C138 1.403 . S
C141 C142 1.524 . S
C141 C145 1.400 . S
C142 H127 0.960 . S
C142 H128 0.960 . S
C142 H129 0.960 . S
C142 C141 1.524 . S
C143 C140 1.403 . S
C143 C144 1.392 . S
C143 C147 1.495 . S
C144 C143 1.392 . S
C144 C145 1.385 . S
C144 C146 1.478 . S
C145 H139 0.930 . S
C145 C141 1.400 . S
C145 C144 1.385 . S
C146 C144 1.478 . S
C146 C148 1.381 . S
C146 C152 1.383 . S
C147 C143 1.495 . S
C147 H153 0.959 . S
C147 H154 0.961 . S
C147 H155 0.960 . S
C148 C146 1.381 . S
C148 C149 1.394 . S
C148 H156 0.930 . S
C149 C148 1.394 . S
C149 C150 1.383 . S
C149 H157 0.929 . S
C150 C149 1.383 . S
C150 C151 1.377 . S
C151 H135 0.930 . S
C151 C150 1.377 . S
C151 C152 1.379 . S
C152 H136 0.931 . S
C152 C146 1.383 . S
C152 C151 1.379 . S
H153 C147 0.959 . S
H154 C147 0.961 . S
H155 C147 0.960 . S
H156 C148 0.930 . S
H157 C149 0.929 . S
H158 C166 0.929 . S
H159 C168 0.930 . S
H160 C170 0.930 . S
H161 C173 0.929 . S
H162 C176 0.930 . S
H163 C178 0.960 . S
H164 C178 0.960 . S
H165 C178 0.960 . S
C166 H158 0.929 . S
C166 C167 1.377 . S
C166 C168 1.384 . S
C167 C166 1.377 . S
C167 C173 1.390 . S
C168 H159 0.930 . S
C168 C166 1.384 . S
C168 C169 1.372 . S
C169 C168 1.372 . S
C169 C170 1.400 . S
C169 C174 1.490 . S
C170 H160 0.930 . S
C170 C169 1.400 . S
C170 C173 1.386 . S
H171 C187 0.930 . S
H172 C188 0.931 . S
C173 H161 0.929 . S
C173 C167 1.390 . S
C173 C170 1.386 . S
C174 C169 1.490 . S
C174 C176 1.395 . S
C174 C177 1.403 . S
H175 C181 0.930 . S
C176 H162 0.930 . S
C176 C174 1.395 . S
C176 C179 1.403 . S
C177 C174 1.403 . S
C177 C178 1.524 . S
C177 C181 1.400 . S
C178 H163 0.960 . S
C178 H164 0.960 . S
C178 H165 0.960 . S
C178 C177 1.524 . S
C179 C176 1.403 . S
C179 C180 1.392 . S
C179 C183 1.495 . S
C180 C179 1.392 . S
C180 C181 1.385 . S
C180 C182 1.478 . S
C181 H175 0.930 . S
C181 C177 1.400 . S
C181 C180 1.385 . S
C182 C180 1.478 . S
C182 C184 1.381 . S
C182 C188 1.383 . S
C183 C179 1.495 . S
C183 H189 0.959 . S
C183 H190 0.961 . S
C183 H191 0.960 . S
C184 C182 1.381 . S
C184 C185 1.394 . S
C184 H192 0.930 . S
C185 C184 1.394 . S
C185 C186 1.383 . S
C185 H193 0.929 . S
C186 C185 1.383 . S
C186 C187 1.377 . S
C187 H171 0.930 . S
C187 C186 1.377 . S
C187 C188 1.379 . S
C188 H172 0.931 . S
C188 C182 1.383 . S
C188 C187 1.379 . S
H189 C183 0.959 . S
H190 C183 0.961 . S
H191 C183 0.960 . S
H192 C184 0.930 . S
H193 C185 0.929 . S
H194 C202 0.929 . S
H195 C204 0.930 . S
H196 C206 0.930 . S
H197 C209 0.929 . S
H198 C212 0.930 . S
H199 C214 0.960 . S
H200 C214 0.960 . S
H201 C214 0.960 . S
C202 H194 0.929 . S
C202 C203 1.377 . S
C202 C204 1.384 . S
C203 C202 1.377 . S
C203 C209 1.390 . S
C204 H195 0.930 . S
C204 C202 1.384 . S
C204 C205 1.372 . S
C205 C204 1.372 . S
C205 C206 1.400 . S
C205 C210 1.490 . S
C206 H196 0.930 . S
C206 C205 1.400 . S
C206 C209 1.386 . S
H207 C223 0.930 . S
H208 C224 0.931 . S
C209 H197 0.929 . S
C209 C203 1.390 . S
C209 C206 1.386 . S
C210 C205 1.490 . S
C210 C212 1.395 . S
C210 C213 1.403 . S
H211 C217 0.930 . S
C212 H198 0.930 . S
C212 C210 1.395 . S
C212 C215 1.403 . S
C213 C210 1.403 . S
C213 C214 1.524 . S
C213 C217 1.400 . S
C214 H199 0.960 . S
C214 H200 0.960 . S
C214 H201 0.960 . S
C214 C213 1.524 . S
C215 C212 1.403 . S
C215 C216 1.392 . S
C215 C219 1.495 . S
C216 C215 1.392 . S
C216 C217 1.385 . S
C216 C218 1.478 . S
C217 H211 0.930 . S
C217 C213 1.400 . S
C217 C216 1.385 . S
C218 C216 1.478 . S
C218 C220 1.381 . S
C218 C224 1.383 . S
C219 C215 1.495 . S
C219 H225 0.959 . S
C219 H226 0.961 . S
C219 H227 0.960 . S
C220 C218 1.381 . S
C220 C221 1.394 . S
C220 H228 0.930 . S
C221 C220 1.394 . S
C221 C222 1.383 . S
C221 H229 0.929 . S
C222 C221 1.383 . S
C222 C223 1.377 . S
C223 H207 0.930 . S
C223 C222 1.377 . S
C223 C224 1.379 . S
C224 H208 0.931 . S
C224 C218 1.383 . S
C224 C223 1.379 . S
H225 C219 0.959 . S
H226 C219 0.961 . S
H227 C219 0.960 . S
H228 C220 0.930 . S
H229 C221 0.929 . S
H230 C238 0.929 . S
H231 C240 0.930 . S
H232 C242 0.930 . S
H233 C245 0.929 . S
H234 C248 0.930 . S
H235 C250 0.960 . S
H236 C250 0.960 . S
H237 C250 0.960 . S
C238 H230 0.929 . S
C238 C239 1.377 . S
C238 C240 1.384 . S
C239 C238 1.377 . S
C239 C245 1.390 . S
C240 H231 0.930 . S
C240 C238 1.384 . S
C240 C241 1.372 . S
C241 C240 1.372 . S
C241 C242 1.400 . S
C241 C246 1.490 . S
C242 H232 0.930 . S
C242 C241 1.400 . S
C242 C245 1.386 . S
H243 C259 0.930 . S
H244 C260 0.931 . S
C245 H233 0.929 . S
C245 C239 1.390 . S
C245 C242 1.386 . S
C246 C241 1.490 . S
C246 C248 1.395 . S
C246 C249 1.403 . S
H247 C253 0.930 . S
C248 H234 0.930 . S
C248 C246 1.395 . S
C248 C251 1.403 . S
C249 C246 1.403 . S
C249 C250 1.524 . S
C249 C253 1.400 . S
C250 H235 0.960 . S
C250 H236 0.960 . S
C250 H237 0.960 . S
C250 C249 1.524 . S
C251 C248 1.403 . S
C251 C252 1.392 . S
C251 C255 1.495 . S
C252 C251 1.392 . S
C252 C253 1.385 . S
C252 C254 1.478 . S
C253 H247 0.930 . S
C253 C249 1.400 . S
C253 C252 1.385 . S
C254 C252 1.478 . S
C254 C256 1.381 . S
C254 C260 1.383 . S
C255 C251 1.495 . S
C255 H261 0.959 . S
C255 H262 0.961 . S
C255 H263 0.960 . S
C256 C254 1.381 . S
C256 C257 1.394 . S
C256 H264 0.930 . S
C257 C256 1.394 . S
C257 C258 1.383 . S
C257 H265 0.929 . S
C258 C257 1.383 . S
C258 C259 1.377 . S
C259 H243 0.930 . S
C259 C258 1.377 . S
C259 C260 1.379 . S
C260 H244 0.931 . S
C260 C254 1.383 . S
C260 C259 1.379 . S
H261 C255 0.959 . S
H262 C255 0.961 . S
H263 C255 0.960 . S
H264 C256 0.930 . S
H265 C257 0.929 . S
H266 C274 0.929 . S
H267 C276 0.930 . S
H268 C278 0.930 . S
H269 C281 0.929 . S
H270 C284 0.930 . S
H271 C286 0.960 . S
H272 C286 0.960 . S
H273 C286 0.960 . S
C274 H266 0.929 . S
C274 C275 1.377 . S
C274 C276 1.384 . S
C275 C274 1.377 . S
C275 C281 1.390 . S
C276 H267 0.930 . S
C276 C274 1.384 . S
C276 C277 1.372 . S
C277 C276 1.372 . S
C277 C278 1.400 . S
C277 C282 1.490 . S
C278 H268 0.930 . S
C278 C277 1.400 . S
C278 C281 1.386 . S
H279 C295 0.930 . S
H280 C296 0.931 . S
C281 H269 0.929 . S
C281 C275 1.390 . S
C281 C278 1.386 . S
C282 C277 1.490 . S
C282 C284 1.395 . S
C282 C285 1.403 . S
H283 C289 0.930 . S
C284 H270 0.930 . S
C284 C282 1.395 . S
C284 C287 1.403 . S
C285 C282 1.403 . S
C285 C286 1.524 . S
C285 C289 1.400 . S
C286 H271 0.960 . S
C286 H272 0.960 . S
C286 H273 0.960 . S
C286 C285 1.524 . S
C287 C284 1.403 . S
C287 C288 1.392 . S
C287 C291 1.495 . S
C288 C287 1.392 . S
C288 C289 1.385 . S
C288 C290 1.478 . S
C289 H283 0.930 . S
C289 C285 1.400 . S
C289 C288 1.385 . S
C290 C288 1.478 . S
C290 C292 1.381 . S
C290 C296 1.383 . S
C291 C287 1.495 . S
C291 H297 0.959 . S
C291 H298 0.961 . S
C291 H299 0.960 . S
C292 C290 1.381 . S
C292 C293 1.394 . S
C292 H300 0.930 . S
C293 C292 1.394 . S
C293 C294 1.383 . S
C293 H301 0.929 . S
C294 C293 1.383 . S
C294 C295 1.377 . S
C295 H279 0.930 . S
C295 C294 1.377 . S
C295 C296 1.379 . S
C296 H280 0.931 . S
C296 C290 1.383 . S
C296 C295 1.379 . S
H297 C291 0.959 . S
H298 C291 0.961 . S
H299 C291 0.960 . S
H300 C292 0.930 . S
H301 C293 0.929 . S
H302 C310 0.929 . S
H303 C312 0.930 . S
H304 C314 0.930 . S
H305 C317 0.929 . S
H306 C320 0.930 . S
H307 C322 0.960 . S
H308 C322 0.960 . S
H309 C322 0.960 . S
C310 H302 0.929 . S
C310 C311 1.377 . S
C310 C312 1.384 . S
C311 C310 1.377 . S
C311 C317 1.390 . S
C312 H303 0.930 . S
C312 C310 1.384 . S
C312 C313 1.372 . S
C313 C312 1.372 . S
C313 C314 1.400 . S
C313 C318 1.490 . S
C314 H304 0.930 . S
C314 C313 1.400 . S
C314 C317 1.386 . S
H315 C331 0.930 . S
H316 C332 0.931 . S
C317 H305 0.929 . S
C317 C311 1.390 . S
C317 C314 1.386 . S
C318 C313 1.490 . S
C318 C320 1.395 . S
C318 C321 1.403 . S
H319 C325 0.930 . S
C320 H306 0.930 . S
C320 C318 1.395 . S
C320 C323 1.403 . S
C321 C318 1.403 . S
C321 C322 1.524 . S
C321 C325 1.400 . S
C322 H307 0.960 . S
C322 H308 0.960 . S
C322 H309 0.960 . S
C322 C321 1.524 . S
C323 C320 1.403 . S
C323 C324 1.392 . S
C323 C327 1.495 . S
C324 C323 1.392 . S
C324 C325 1.385 . S
C324 C326 1.478 . S
C325 H319 0.930 . S
C325 C321 1.400 . S
C325 C324 1.385 . S
C326 C324 1.478 . S
C326 C328 1.381 . S
C326 C332 1.383 . S
C327 C323 1.495 . S
C327 H333 0.959 . S
C327 H334 0.961 . S
C327 H335 0.960 . S
C328 C326 1.381 . S
C328 C329 1.394 . S
C328 H336 0.930 . S
C329 C328 1.394 . S
C329 C330 1.383 . S
C329 H337 0.929 . S
C330 C329 1.383 . S
C330 C331 1.377 . S
C331 H315 0.930 . S
C331 C330 1.377 . S
C331 C332 1.379 . S
C332 H316 0.931 . S
C332 C326 1.383 . S
C332 C331 1.379 . S
H333 C327 0.959 . S
H334 C327 0.961 . S
H335 C327 0.960 . S
H336 C328 0.930 . S
H337 C329 0.929 . S
H338 C346 0.929 . S
H339 C348 0.930 . S
H340 C350 0.930 . S
H341 C353 0.929 . S
H342 C356 0.930 . S
H343 C358 0.960 . S
H344 C358 0.960 . S
H345 C358 0.960 . S
C346 H338 0.929 . S
C346 C347 1.377 . S
C346 C348 1.384 . S
C347 C346 1.377 . S
C347 C353 1.390 . S
C348 H339 0.930 . S
C348 C346 1.384 . S
C348 C349 1.372 . S
C349 C348 1.372 . S
C349 C350 1.400 . S
C349 C354 1.490 . S
C350 H340 0.930 . S
C350 C349 1.400 . S
C350 C353 1.386 . S
H351 C367 0.930 . S
H352 C368 0.931 . S
C353 H341 0.929 . S
C353 C347 1.390 . S
C353 C350 1.386 . S
C354 C349 1.490 . S
C354 C356 1.395 . S
C354 C357 1.403 . S
H355 C361 0.930 . S
C356 H342 0.930 . S
C356 C354 1.395 . S
C356 C359 1.403 . S
C357 C354 1.403 . S
C357 C358 1.524 . S
C357 C361 1.400 . S
C358 H343 0.960 . S
C358 H344 0.960 . S
C358 H345 0.960 . S
C358 C357 1.524 . S
C359 C356 1.403 . S
C359 C360 1.392 . S
C359 C363 1.495 . S
C360 C359 1.392 . S
C360 C361 1.385 . S
C360 C362 1.478 . S
C361 H355 0.930 . S
C361 C357 1.400 . S
C361 C360 1.385 . S
C362 C360 1.478 . S
C362 C364 1.381 . S
C362 C368 1.383 . S
C363 C359 1.495 . S
C363 H369 0.959 . S
C363 H370 0.961 . S
C363 H371 0.960 . S
C364 C362 1.381 . S
C364 C365 1.394 . S
C364 H372 0.930 . S
C365 C364 1.394 . S
C365 C366 1.383 . S
C365 H373 0.929 . S
C366 C365 1.383 . S
C366 C367 1.377 . S
C367 H351 0.930 . S
C367 C366 1.377 . S
C367 C368 1.379 . S
C368 H352 0.931 . S
C368 C362 1.383 . S
C368 C367 1.379 . S
H369 C363 0.959 . S
H370 C363 0.961 . S
H371 C363 0.960 . S
H372 C364 0.930 . S
H373 C365 0.929 . S
H374 C382 0.929 . S
H375 C384 0.930 . S
H376 C386 0.930 . S
H377 C389 0.929 . S
H378 C392 0.930 . S
H379 C394 0.960 . S
H380 C394 0.960 . S
H381 C394 0.960 . S
C382 H374 0.929 . S
C382 C383 1.377 . S
C382 C384 1.384 . S
C383 C382 1.377 . S
C383 C389 1.390 . S
C384 H375 0.930 . S
C384 C382 1.384 . S
C384 C385 1.372 . S
C385 C384 1.372 . S
C385 C386 1.400 . S
C385 C390 1.490 . S
C386 H376 0.930 . S
C386 C385 1.400 . S
C386 C389 1.386 . S
H387 C403 0.930 . S
H388 C404 0.931 . S
C389 H377 0.929 . S
C389 C383 1.390 . S
C389 C386 1.386 . S
C390 C385 1.490 . S
C390 C392 1.395 . S
C390 C393 1.403 . S
H391 C397 0.930 . S
C392 H378 0.930 . S
C392 C390 1.395 . S
C392 C395 1.403 . S
C393 C390 1.403 . S
C393 C394 1.524 . S
C393 C397 1.400 . S
C394 H379 0.960 . S
C394 H380 0.960 . S
C394 H381 0.960 . S
C394 C393 1.524 . S
C395 C392 1.403 . S
C395 C396 1.392 . S
C395 C399 1.495 . S
C396 C395 1.392 . S
C396 C397 1.385 . S
C396 C398 1.478 . S
C397 H391 0.930 . S
C397 C393 1.400 . S
C397 C396 1.385 . S
C398 C396 1.478 . S
C398 C400 1.381 . S
C398 C404 1.383 . S
C399 C395 1.495 . S
C399 H405 0.959 . S
C399 H406 0.961 . S
C399 H407 0.960 . S
C400 C398 1.381 . S
C400 C401 1.394 . S
C400 H408 0.930 . S
C401 C400 1.394 . S
C401 C402 1.383 . S
C401 H409 0.929 . S
C402 C401 1.383 . S
C402 C403 1.377 . S
C403 H387 0.930 . S
C403 C402 1.377 . S
C403 C404 1.379 . S
C404 H388 0.931 . S
C404 C398 1.383 . S
C404 C403 1.379 . S
H405 C399 0.959 . S
H406 C399 0.961 . S
H407 C399 0.960 . S
H408 C400 0.930 . S
H409 C401 0.929 . S
H410 C418 0.929 . S
H411 C420 0.930 . S
H412 C422 0.930 . S
H413 C425 0.929 . S
H414 C428 0.930 . S
H415 C430 0.960 . S
H416 C430 0.960 . S
H417 C430 0.960 . S
C418 H410 0.929 . S
C418 C419 1.377 . S
C418 C420 1.384 . S
C419 C418 1.377 . S
C419 C425 1.390 . S
C420 H411 0.930 . S
C420 C418 1.384 . S
C420 C421 1.372 . S
C421 C420 1.372 . S
C421 C422 1.400 . S
C421 C426 1.490 . S
C422 H412 0.930 . S
C422 C421 1.400 . S
C422 C425 1.386 . S
H423 C439 0.930 . S
H424 C440 0.931 . S
C425 H413 0.929 . S
C425 C419 1.390 . S
C425 C422 1.386 . S
C426 C421 1.490 . S
C426 C428 1.395 . S
C426 C429 1.403 . S
H427 C433 0.930 . S
C428 H414 0.930 . S
C428 C426 1.395 . S
C428 C431 1.403 . S
C429 C426 1.403 . S
C429 C430 1.524 . S
C429 C433 1.400 . S
C430 H415 0.960 . S
C430 H416 0.960 . S
C430 H417 0.960 . S
C430 C429 1.524 . S
C431 C428 1.403 . S
C431 C432 1.392 . S
C431 C435 1.495 . S
C432 C431 1.392 . S
C432 C433 1.385 . S
C432 C434 1.478 . S
C433 H427 0.930 . S
C433 C429 1.400 . S
C433 C432 1.385 . S
C434 C432 1.478 . S
C434 C436 1.381 . S
C434 C440 1.383 . S
C435 C431 1.495 . S
C435 H441 0.959 . S
C435 H442 0.961 . S
C435 H443 0.960 . S
C436 C434 1.381 . S
C436 C437 1.394 . S
C436 H444 0.930 . S
C437 C436 1.394 . S
C437 C438 1.383 . S
C437 H445 0.929 . S
C438 C437 1.383 . S
C438 C439 1.377 . S
C439 H423 0.930 . S
C439 C438 1.377 . S
C439 C440 1.379 . S
C440 H424 0.931 . S
C440 C434 1.383 . S
C440 C439 1.379 . S
H441 C435 0.959 . S
H442 C435 0.961 . S
H443 C435 0.960 . S
H444 C436 0.930 . S
H445 C437 0.929 . S
H446 C454 0.929 . S
H447 C456 0.930 . S
H448 C458 0.930 . S
H449 C461 0.929 . S
H450 C464 0.930 . S
H451 C466 0.960 . S
H452 C466 0.960 . S
H453 C466 0.960 . S
C454 H446 0.929 . S
C454 C455 1.377 . S
C454 C456 1.384 . S
C455 C454 1.377 . S
C455 C461 1.390 . S
C456 H447 0.930 . S
C456 C454 1.384 . S
C456 C457 1.372 . S
C457 C456 1.372 . S
C457 C458 1.400 . S
C457 C462 1.490 . S
C458 H448 0.930 . S
C458 C457 1.400 . S
C458 C461 1.386 . S
H459 C475 0.930 . S
H460 C476 0.931 . S
C461 H449 0.929 . S
C461 C455 1.390 . S
C461 C458 1.386 . S
C462 C457 1.490 . S
C462 C464 1.395 . S
C462 C465 1.403 . S
H463 C469 0.930 . S
C464 H450 0.930 . S
C464 C462 1.395 . S
C464 C467 1.403 . S
C465 C462 1.403 . S
C465 C466 1.524 . S
C465 C469 1.400 . S
C466 H451 0.960 . S
C466 H452 0.960 . S
C466 H453 0.960 . S
C466 C465 1.524 . S
C467 C464 1.403 . S
C467 C468 1.392 . S
C467 C471 1.495 . S
C468 C467 1.392 . S
C468 C469 1.385 . S
C468 C470 1.478 . S
C469 H463 0.930 . S
C469 C465 1.400 . S
C469 C468 1.385 . S
C470 C468 1.478 . S
C470 C472 1.381 . S
C470 C476 1.383 . S
C471 C467 1.495 . S
C471 H477 0.959 . S
C471 H478 0.961 . S
C471 H479 0.960 . S
C472 C470 1.381 . S
C472 C473 1.394 . S
C472 H480 0.930 . S
C473 C472 1.394 . S
C473 C474 1.383 . S
C473 H481 0.929 . S
C474 C473 1.383 . S
C474 C475 1.377 . S
C475 H459 0.930 . S
C475 C474 1.377 . S
C475 C476 1.379 . S
C476 H460 0.931 . S
C476 C470 1.383 . S
C476 C475 1.379 . S
H477 C471 0.959 . S
H478 C471 0.961 . S
H479 C471 0.960 . S
H480 C472 0.930 . S
H481 C473 0.929 . S
H482 C490 0.929 . S
H483 C492 0.930 . S
H484 C494 0.930 . S
H485 C497 0.929 . S
H486 C500 0.930 . S
H487 C502 0.960 . S
H488 C502 0.960 . S
H489 C502 0.960 . S
C490 H482 0.929 . S
C490 C491 1.377 . S
C490 C492 1.384 . S
C491 C490 1.377 . S
C491 C497 1.390 . S
C492 H483 0.930 . S
C492 C490 1.384 . S
C492 C493 1.372 . S
C493 C492 1.372 . S
C493 C494 1.400 . S
C493 C498 1.490 . S
C494 H484 0.930 . S
C494 C493 1.400 . S
C494 C497 1.386 . S
H495 C511 0.930 . S
H496 C512 0.931 . S
C497 H485 0.929 . S
C497 C491 1.390 . S
C497 C494 1.386 . S
C498 C493 1.490 . S
C498 C500 1.395 . S
C498 C501 1.403 . S
H499 C505 0.930 . S
C500 H486 0.930 . S
C500 C498 1.395 . S
C500 C503 1.403 . S
C501 C498 1.403 . S
C501 C502 1.524 . S
C501 C505 1.400 . S
C502 H487 0.960 . S
C502 H488 0.960 . S
C502 H489 0.960 . S
C502 C501 1.524 . S
C503 C500 1.403 . S
C503 C504 1.392 . S
C503 C507 1.495 . S
C504 C503 1.392 . S
C504 C505 1.385 . S
C504 C506 1.478 . S
C505 H499 0.930 . S
C505 C501 1.400 . S
C505 C504 1.385 . S
C506 C504 1.478 . S
C506 C508 1.381 . S
C506 C512 1.383 . S
C507 C503 1.495 . S
C507 H513 0.959 . S
C507 H514 0.961 . S
C507 H515 0.960 . S
C508 C506 1.381 . S
C508 C509 1.394 . S
C508 H516 0.930 . S
C509 C508 1.394 . S
C509 C510 1.383 . S
C509 H517 0.929 . S
C510 C509 1.383 . S
C510 C511 1.377 . S
C511 H495 0.930 . S
C511 C510 1.377 . S
C511 C512 1.379 . S
C512 H496 0.931 . S
C512 C506 1.383 . S
C512 C511 1.379 . S
H513 C507 0.959 . S
H514 C507 0.961 . S
H515 C507 0.960 . S
H516 C508 0.930 . S
H517 C509 0.929 . S
H518 C526 0.929 1_455 S
H519 C528 0.930 . S
H520 C530 0.930 . S
H521 C533 0.929 . S
H522 C536 0.930 . S
H523 C538 0.960 . S
H524 C538 0.960 . S
H525 C538 0.960 . S
C526 H518 0.929 1_655 S
C526 C527 1.377 . S
C526 C528 1.384 . S
C527 C526 1.377 . S
C527 C533 1.390 . S
C528 H519 0.930 . S
C528 C526 1.384 . S
C528 C529 1.372 . S
C529 C528 1.372 . S
C529 C530 1.400 . S
C529 C534 1.490 . S
C530 H520 0.930 . S
C530 C529 1.400 . S
C530 C533 1.386 . S
H531 C547 0.930 . S
H532 C548 0.931 . S
C533 H521 0.929 . S
C533 C527 1.390 . S
C533 C530 1.386 . S
C534 C529 1.490 . S
C534 C536 1.395 . S
C534 C537 1.403 . S
H535 C541 0.930 . S
C536 H522 0.930 . S
C536 C534 1.395 . S
C536 C539 1.403 . S
C537 C534 1.403 . S
C537 C538 1.524 . S
C537 C541 1.400 . S
C538 H523 0.960 . S
C538 H524 0.960 . S
C538 H525 0.960 . S
C538 C537 1.524 . S
C539 C536 1.403 . S
C539 C540 1.392 . S
C539 C543 1.495 . S
C540 C539 1.392 . S
C540 C541 1.385 . S
C540 C542 1.478 . S
C541 H535 0.930 . S
C541 C537 1.400 . S
C541 C540 1.385 . S
C542 C540 1.478 . S
C542 C544 1.381 . S
C542 C548 1.383 . S
C543 C539 1.495 . S
C543 H549 0.959 . S
C543 H550 0.961 . S
C543 H551 0.960 . S
C544 C542 1.381 . S
C544 C545 1.394 . S
C544 H552 0.930 . S
C545 C544 1.394 . S
C545 C546 1.383 . S
C545 H553 0.929 . S
C546 C545 1.383 . S
C546 C547 1.377 . S
C547 H531 0.930 . S
C547 C546 1.377 . S
C547 C548 1.379 . S
C548 H532 0.931 . S
C548 C542 1.383 . S
C548 C547 1.379 . S
H549 C543 0.959 . S
H550 C543 0.961 . S
H551 C543 0.960 . S
H552 C544 0.930 . S
H553 C545 0.929 . S
C131 C26 1.325 . S
C150 C99 1.213 . S
C167 C43 1.194 . S
C186 C105 1.134 . S
C203 C22 1.297 . S
C222 C96 1.187 . S
C239 C49 1.365 . S
C258 C121 1.261 . S
C275 C15 1.881 . S
C294 C87 1.697 . S
C330 C104 1.848 . S
C311 C42 1.965 . S
C347 C66 1.325 . S
C366 C100 1.283 . S
C402 C117 1.864 . S
C383 C2 1.967 . S
C438 C84 1.720 . S
C419 C55 1.879 . S
C474 C120 1.305 . S
C455 C9 1.363 . S
C510 C83 1.218 . S
C491 C62 1.299 . S
C546 C108 1.086 . S
C527 C3 1.191 . S
