# Generated by pormake.
# Topology scu, (8,4)-cn, num edge types: 1
# Building blocks:
#     Node 0, Type 0, BuildingBlock: GIZVER_clean_sbu_0, # of connection points: 8
#     Node 1, Type 1, BuildingBlock: MUDLON_clean_sbu_0, # of connection points: 4
#     Node 2, Type 1, BuildingBlock: MUDLON_clean_sbu_0, # of connection points: 4
#     Edge 3, Type (0, 1), BuildingBlock: ZUJKAS_clean_linker_0, # of connection points: 2
#     Edge 4, Type (0, 1), BuildingBlock: ZUJKAS_clean_linker_0, # of connection points: 2
#     Edge 5, Type (0, 1), BuildingBlock: ZUJKAS_clean_linker_0, # of connection points: 2
#     Edge 6, Type (0, 1), BuildingBlock: ZUJKAS_clean_linker_0, # of connection points: 2
#     Edge 7, Type (0, 1), BuildingBlock: ZUJKAS_clean_linker_0, # of connection points: 2
#     Edge 8, Type (0, 1), BuildingBlock: ZUJKAS_clean_linker_0, # of connection points: 2
#     Edge 9, Type (0, 1), BuildingBlock: ZUJKAS_clean_linker_0, # of connection points: 2
#     Edge 10, Type (0, 1), BuildingBlock: ZUJKAS_clean_linker_0, # of connection points: 2
# Relax obj value: 0.012
# Max RMSD: 0.080
# Mean RMSD: 0.044
data_MOF--net-scu--node1-GIZVER_clean_sbu_0--node2-MUDLON_clean_sbu_0--edge1-ZUJKAS_clean_linker_0
_symmetry_space_group_name_H-M    P1
_symmetry_Int_Tables_number       1
_symmetry_cell_setting            triclinic
loop_
_symmetry_equiv_pos_as_xyz
'x, y, z'
_cell_length_a     29.594012
_cell_length_b     30.001624
_cell_length_c     29.120653
_cell_angle_alpha  97.941967
_cell_angle_beta   83.310148
_cell_angle_gamma 115.27801
loop_
_atom_site_label
_atom_site_type_symbol
_atom_site_fract_x
_atom_site_fract_y
_atom_site_fract_z
_atom_type_partial_charge
Co0 Co 0.02075 0.97757 0.16232 0.0
Co1 Co 0.09723 0.05027 0.12612 0.0
Co2 Co 1.00374 0.02823 0.06927 0.0
O3 O 0.03955 0.99906 0.10115 0.0
H4 H 0.04893 0.97615 0.08 0.0
O5 O 0.97025 0.05973 0.03696 0.0
Co6 Co 0.99854 0.08395 0.97735 0.0
Co7 Co 0.91502 1.01548 1.00657 0.0
H8 H 0.96143 0.08326 0.05766 0.0
O9 O 0.1511 0.03853 0.13781 0.0
O10 O 0.08341 0.03153 0.18568 0.0
O11 O 0.10254 0.11711 0.13452 0.0
O12 O 0.02649 0.0927 0.11055 0.0
O13 O 0.06462 0.05276 0.02543 0.0
O14 O 0.02333 0.11027 0.92452 0.0
O15 O 0.98087 0.13608 0.98312 0.0
O16 O 0.02261 0.03429 0.96277 0.0
O17 O 0.97836 0.9626 0.02823 0.0
O18 O 0.90558 0.94795 1.00014 0.0
O19 O 0.93487 0.03969 0.94865 0.0
O20 O 0.8658 0.03376 0.99389 0.0
C21 C 0.03175 0.92919 0.19909 0.0
C22 C 0.94558 1.00979 0.15792 0.0
C23 C 0.0642 0.12482 0.13155 0.0
C24 C 0.12774 0.03161 0.17859 0.0
C25 C 0.00461 0.14146 0.94198 0.0
C26 C 0.06059 0.03828 0.98223 0.0
C27 C 0.93928 0.9342 1.00635 0.0
C28 C 0.89289 0.04475 0.95518 0.0
O29 O 0.00615 0.95398 0.21767 0.0
O30 O 0.04994 0.93439 0.15605 0.0
O31 O 0.94337 1.00275 0.11372 0.0
O32 O 0.98587 0.01874 0.17661 0.0
Mg33 Mg 0.01608 0.53501 0.5644 0.0
C34 C 0.9642 0.43062 0.51203 0.0
O35 O 0.95965 0.41452 0.55279 0.0
C36 C 1.00175 0.59745 0.64107 0.0
O37 O 0.04978 0.60828 0.63316 0.0
C38 C 0.06026 0.47122 0.60462 0.0
O39 O 0.0648 0.45314 0.56147 0.0
O40 O 0.04701 0.50686 0.6127 0.0
O41 O 0.98042 0.47692 0.50936 0.0
O42 O 0.06342 0.60034 0.52787 0.0
C43 C 0.07234 0.59626 0.48397 0.0
O44 O 0.06124 0.5519 0.46212 0.0
O45 O 0.9714 0.5636 0.61397 0.0
Mg46 Mg 0.4968 1.01306 0.57944 0.0
C47 C 0.42292 1.00644 0.52237 0.0
O48 O 0.41951 0.96175 0.52523 0.0
C49 C 0.5827 0.03232 0.62625 0.0
O50 O 0.56053 0.98472 0.61278 0.0
C51 C 0.44562 0.98284 0.67333 0.0
O52 O 0.48941 1.01627 0.68608 0.0
O53 O 0.4393 0.96995 0.63015 0.0
O54 O 0.45595 0.04291 0.54496 0.0
O55 O 0.52689 0.97652 0.52167 0.0
C56 C 0.54581 1.00406 0.48857 0.0
O57 O 0.5422 0.04659 0.4924 0.0
O58 O 0.56373 0.06039 0.61613 0.0
H59 H 0.99016 0.15633 0.13051 0.0
H60 H 0.97032 0.21333 0.18864 0.0
H61 H 0.10219 0.24316 0.25893 0.0
H62 H 0.12289 0.18695 0.2005 0.0
H63 H 0.94811 0.20042 0.27952 0.0
H64 H 0.11005 0.38093 0.26078 0.0
H65 H 0.09761 0.32876 0.21729 0.0
H66 H 0.12867 0.33296 0.26837 0.0
C67 C 0.01576 0.176 0.1576 0.0
C68 C 0.05824 0.16699 0.16067 0.0
C69 C 1.00416 0.20842 0.191 0.0
C70 C 0.0348 0.23277 0.22813 0.0
C71 C 0.07844 0.22563 0.23016 0.0
H72 H 0.95379 0.33466 0.50379 0.0
H73 H 0.96564 0.28568 0.43302 0.0
C74 C 0.09025 0.19336 0.19662 0.0
C75 C 0.01887 0.26209 0.26671 0.0
H76 H 0.05821 0.37441 0.33132 0.0
C77 C 0.97199 0.23866 0.29052 0.0
C78 C 0.04966 0.31212 0.28085 0.0
C79 C 0.09907 0.34034 0.25519 0.0
C80 C 0.95572 0.26341 0.32878 0.0
C81 C 0.9876 0.31267 0.34435 0.0
C82 C 0.03385 0.33653 0.31971 0.0
C83 C 0.97464 0.33992 0.38673 0.0
C84 C 0.90436 0.23655 0.35186 0.0
C85 C 0.97551 0.38674 0.38449 0.0
C86 C 0.96911 0.41505 0.42502 0.0
C87 C 0.96186 0.39722 0.46877 0.0
C88 C 0.95882 0.34941 0.47072 0.0
C89 C 0.96548 0.32122 0.43017 0.0
H90 H 0.87915 0.20693 0.32745 0.0
H91 H 0.90767 0.21877 0.38151 0.0
H92 H 0.88683 0.26235 0.36521 0.0
H93 H 0.98253 0.402 0.35143 0.0
H94 H 0.97174 0.45171 0.42216 0.0
H95 H 0.84988 0.98422 0.1335 0.0
H96 H 0.77655 0.9785 0.18563 0.0
H97 H 0.86724 0.02384 0.30355 0.0
H98 H 0.94037 0.03 0.2522 0.0
H99 H 0.733 0.91932 0.26261 0.0
H100 H 0.79989 0.12056 0.3174 0.0
H101 H 0.82734 0.09651 0.26709 0.0
H102 H 0.84396 0.0958 0.32433 0.0
C103 C 0.85427 0.9933 0.17049 0.0
C104 C 0.90113 1.00778 0.18857 0.0
C105 C 0.81231 0.9898 0.20022 0.0
C106 C 0.81661 1.00118 0.24839 0.0
C107 C 0.86323 1.01556 0.26644 0.0
H108 H 0.59265 0.94112 0.48157 0.0
H109 H 0.65494 0.93535 0.4202 0.0
C110 C 0.90502 0.01892 0.23693 0.0
C111 C 0.77253 0.99788 0.28015 0.0
H112 H 0.72937 0.0667 0.36096 0.0
C113 C 0.73193 0.95153 0.28393 0.0
C114 C 0.77117 0.04003 0.30769 0.0
C115 C 0.81268 0.09113 0.30374 0.0
C116 C 0.69036 0.9461 0.31527 0.0
C117 C 0.68974 0.98804 0.34379 0.0
C118 C 0.73002 0.03447 0.33933 0.0
C119 C 0.64742 0.98545 0.37786 0.0
C120 C 0.64725 0.89575 0.31725 0.0
C121 C 0.62209 1.0149 0.37419 0.0
C122 C 0.58701 0.01848 0.40914 0.0
C123 C 0.57638 0.99269 0.44869 0.0
C124 C 0.59975 0.96109 0.45134 0.0
C125 C 0.63529 0.95773 0.41626 0.0
H126 H 0.64795 0.87035 0.28583 0.0
H127 H 0.6497 0.87901 0.34802 0.0
H128 H 0.61085 0.89874 0.32074 0.0
H129 H 0.63071 0.03651 0.34488 0.0
H130 H 0.56942 0.04292 0.40588 0.0
H131 H 0.07271 0.86199 0.17135 0.0
H132 H 0.08806 0.8101 0.22041 0.0
H133 H 0.03339 0.87696 0.34163 0.0
H134 H 0.01681 0.92759 0.2931 0.0
H135 H 0.14649 0.83178 0.29519 0.0
H136 H 0.9461 0.73147 0.35091 0.0
H137 H 0.96644 0.77016 0.30368 0.0
H138 H 0.96855 0.7974 0.36293 0.0
C139 C 0.06371 0.86538 0.20843 0.0
C140 C 0.04245 0.89815 0.22809 0.0
C141 C 0.07268 0.83586 0.23647 0.0
C142 C 0.06072 0.83868 0.28464 0.0
C143 C 0.04144 0.87287 0.30444 0.0
H144 H 0.06921 0.68575 0.5144 0.0
H145 H 0.07289 0.74837 0.46651 0.0
C146 C 0.03207 0.90193 0.27653 0.0
C147 C 0.06752 0.80557 0.31434 0.0
H148 H 0.00455 0.71915 0.39109 0.0
C149 C 0.11541 0.80695 0.31595 0.0
C150 C 0.02697 0.77306 0.34148 0.0
C151 C 0.97405 0.76746 0.33941 0.0
C152 C 0.12388 0.7774 0.34458 0.0
C153 C 0.08342 0.74548 0.37205 0.0
C154 C 0.03564 0.74405 0.37036 0.0
C155 C 0.08898 0.71166 0.4016 0.0
C156 C 0.1761 0.78096 0.34587 0.0
C157 C 0.09776 0.67066 0.38114 0.0
C158 C 0.09534 0.63458 0.40837 0.0
C159 C 0.08423 0.63882 0.4567 0.0
C160 C 0.07814 0.68136 0.47739 0.0
C161 C 0.08005 0.71716 0.45003 0.0
H162 H 0.20473 0.81412 0.33008 0.0
H163 H 0.18501 0.7824 0.3822 0.0
H164 H 0.17847 0.74751 0.32623 0.0
H165 H 0.10409 0.66532 0.3438 0.0
H166 H 0.10013 0.60232 0.39125 0.0
H167 H 0.2156 0.02169 0.17371 0.0
H168 H 0.25981 1.01818 0.2378 0.0
H169 H 0.14173 0.02703 0.33523 0.0
H170 H 0.09663 0.0297 0.27105 0.0
H171 H 0.29542 0.08963 0.30983 0.0
H172 H 0.16088 0.91175 0.37536 0.0
H173 H 0.15722 0.92899 0.31941 0.0
H174 H 0.13468 0.95506 0.37131 0.0
C175 C 0.19873 0.02248 0.2087 0.0
C176 C 0.1527 0.02624 0.2173 0.0
C177 C 0.22411 0.02051 0.24531 0.0
C178 C 0.20401 0.02219 0.29124 0.0
C179 C 0.15759 0.02499 0.29998 0.0
H180 H 0.40199 0.08722 0.51993 0.0
H181 H 0.34588 0.09452 0.46833 0.0
C182 C 0.132 0.02677 0.26328 0.0
C183 C 0.23314 0.02328 0.32979 0.0
H184 H 0.23178 0.95945 0.41858 0.0
C185 C 0.28152 0.06129 0.33379 0.0
C186 C 0.21491 0.98606 0.36069 0.0
C187 C 0.16428 0.94287 0.35642 0.0
C188 C 0.31277 0.06251 0.36711 0.0
C189 C 0.2945 0.02549 0.3983 0.0
C190 C 0.24557 0.98812 0.39499 0.0
C191 C 0.32706 0.02169 0.4313 0.0
C192 C 0.36579 0.10206 0.36699 0.0
C193 C 0.33401 0.978 0.42856 0.0
C194 C 0.36504 0.9735 0.45834 0.0
C195 C 0.3903 1.01274 0.49144 0.0
C196 C 0.38337 0.05659 0.49445 0.0
C197 C 0.35152 0.06083 0.46488 0.0
H198 H 0.37737 0.1199 0.33402 0.0
H199 H 0.36853 0.13127 0.39582 0.0
H200 H 0.39256 0.08645 0.37211 0.0
H201 H 0.31576 0.94738 0.4029 0.0
H202 H 0.36964 0.93923 0.45493 0.0
H203 H 0.85703 0.85689 0.97105 0.0
H204 H 0.85549 0.78681 0.91637 0.0
H205 H 0.01423 0.836 0.92619 0.0
H206 H 0.01599 0.90577 0.98148 0.0
H207 H 0.90622 0.79728 0.83184 0.0
H208 H 0.96352 0.68795 0.93162 0.0
H209 H 0.94241 0.734 0.95935 0.0
H210 H 0.00596 0.75229 0.93548 0.0
C211 C 0.89142 0.85212 0.9625 0.0
C212 C 0.93663 0.88694 0.98073 0.0
C213 C 0.89045 0.81207 0.93115 0.0
C214 C 0.9346 0.80586 0.9174 0.0
C215 C 0.97943 0.83932 0.93705 0.0
H216 H 0.0609 0.6691 0.70257 0.0
H217 H 0.03639 0.71324 0.7698 0.0
C218 C 0.9804 0.8793 0.96869 0.0
C219 C 0.93484 0.76775 0.87904 0.0
H220 H 0.97219 0.67406 0.84832 0.0
C221 C 0.91975 0.76969 0.83561 0.0
C222 C 0.95234 0.7317 0.88404 0.0
C223 C 0.9665 0.72595 0.93027 0.0
C224 C 0.92439 0.73846 0.79647 0.0
C225 C 0.94404 0.70396 0.80105 0.0
C226 C 0.95711 0.70057 0.84489 0.0
C227 C 0.95705 0.67542 0.76002 0.0
C228 C 0.91089 0.74447 0.75002 0.0
C229 C 0.92041 0.63919 0.73196 0.0
C230 C 0.93439 0.61358 0.69291 0.0
C231 C 0.98518 0.62391 0.68156 0.0
C232 C 0.02142 0.6601 0.71005 0.0
C233 C 0.00751 0.68538 0.74876 0.0
H234 H 0.90323 0.77779 0.75117 0.0
H235 H 0.94159 0.74729 0.72311 0.0
H236 H 0.87684 0.71145 0.73922 0.0
H237 H 0.88114 0.63059 0.74038 0.0
H238 H 0.9056 0.58577 0.67182 0.0
H239 H 0.05641 0.99599 0.89271 0.0
H240 H 0.11928 0.97427 0.84598 0.0
H241 H 0.21246 0.02338 0.96238 0.0
H242 H 0.14961 0.04578 1.00963 0.0
H243 H 0.26218 0.06338 0.88077 0.0
H244 H 0.15886 0.85981 0.84715 0.0
H245 H 0.1254 0.89348 0.83335 0.0
H246 H 0.13868 0.89604 0.89261 0.0
C247 C 0.09006 1.00189 0.90865 0.0
C248 C 0.09807 0.02295 0.95493 0.0
C249 C 0.12579 0.98892 0.88192 0.0
C250 C 0.17024 0.99644 0.90085 0.0
C251 C 0.17819 1.01689 0.9472 0.0
H252 H 0.44786 0.99128 0.76744 0.0
H253 H 0.37989 0.98805 0.82516 0.0
C254 C 0.1423 0.02975 0.97412 0.0
C255 C 0.21003 0.98688 0.87094 0.0
H256 H 0.23358 0.89806 0.79879 0.0
C257 C 0.2562 0.0271 0.86336 0.0
C258 C 0.20193 0.93959 0.84787 0.0
C259 C 0.1537 0.89465 0.85593 0.0
C260 C 0.29394 0.02178 0.83226 0.0
C261 C 0.28579 0.97459 0.80883 0.0
C262 C 0.23983 0.93414 0.81683 0.0
C263 C 0.32427 0.96742 0.77487 0.0
C264 C 0.34149 0.06725 0.82342 0.0
C265 C 0.31472 0.95353 0.72767 0.0
C266 C 0.35345 0.95463 0.69452 0.0
C267 C 0.40236 0.96986 0.70813 0.0
C268 C 0.41074 0.97994 0.75578 0.0
C269 C 0.372 0.9784 0.78882 0.0
H270 H 0.33679 0.10197 0.83508 0.0
H271 H 0.37161 0.06742 0.84294 0.0
H272 H 0.35386 0.06734 0.78593 0.0
H273 H 0.27803 0.94456 0.71618 0.0
H274 H 0.34575 0.94671 0.65811 0.0
H275 H 0.97155 0.216 0.96368 0.0
H276 H 0.97695 0.27736 0.91246 0.0
H277 H 0.04989 0.21419 0.80346 0.0
H278 H 0.04535 0.15395 0.85361 0.0
H279 H 0.07448 0.34661 0.85951 0.0
H280 H 0.92361 0.21583 0.74753 0.0
H281 H 0.92671 0.20617 0.80677 0.0
H282 H 0.96709 0.19302 0.76139 0.0
C283 C 0.98892 0.21543 0.92888 0.0
C284 C 0.00814 0.18008 0.91295 0.0
C285 C 0.9919 0.2504 0.89968 0.0
C286 C 0.01347 0.24996 0.85406 0.0
C287 C 0.03273 0.21492 0.83836 0.0
H288 H 0.07733 0.38772 0.60062 0.0
H289 H 0.06625 0.3375 0.66398 0.0
C290 C 0.03023 0.18056 0.86736 0.0
C291 C 0.01703 0.28605 0.82213 0.0
H292 H 0.97882 0.29204 0.71781 0.0
C293 C 0.05302 0.33509 0.8289 0.0
C294 C 0.98928 0.27065 0.78209 0.0
C295 C 0.94918 0.21867 0.77395 0.0
C296 C 0.06356 0.36865 0.79556 0.0
C297 C 0.0368 0.35285 0.75472 0.0
C298 C 0.99966 0.30412 0.74883 0.0
C299 C 0.04724 0.38574 0.71716 0.0
C300 C 0.10478 0.42 0.8034 0.0
C301 C 0.04096 0.43003 0.72592 0.0
C302 C 0.04768 0.45908 0.68978 0.0
C303 C 0.06037 0.44426 0.64388 0.0
C304 C 0.06783 0.40048 0.63545 0.0
C305 C 0.06121 0.37153 0.67166 0.0
H306 H 0.12985 0.42217 0.83003 0.0
H307 H 0.12771 0.43183 0.77065 0.0
H308 H 0.08793 0.44654 0.81579 0.0
H309 H 0.02931 0.44142 0.76047 0.0
H310 H 0.04117 0.4923 0.69762 0.0
H311 H 0.80252 0.04837 0.95411 0.0
H312 H 0.76984 0.06937 0.89142 0.0
H313 H 0.91038 0.10289 0.81077 0.0
H314 H 0.9415 0.07695 0.87159 0.0
H315 H 0.7914 0.14724 0.84801 0.0
H316 H 0.82038 1.00355 0.72092 0.0
H317 H 0.83079 1.009 0.78147 0.0
H318 H 0.87625 0.0518 0.74361 0.0
C319 C 0.82653 0.06 0.923 0.0
C320 C 0.87464 0.06075 0.91793 0.0
C321 C 0.80792 0.0725 0.88724 0.0
C322 C 0.83722 0.08694 0.84583 0.0
C323 C 0.88639 0.09046 0.84169 0.0
H324 H 0.65472 0.12778 0.64478 0.0
H325 H 0.72695 0.15362 0.69254 0.0
C326 C 0.90443 0.07626 0.87688 0.0
C327 C 0.81407 0.09422 0.80641 0.0
H328 H 0.77533 0.04295 0.69796 0.0
C329 C 0.78837 0.12492 0.81491 0.0
C330 C 0.8106 0.06551 0.76293 0.0
C331 C 0.83561 0.03034 0.75163 0.0
C332 C 0.75571 0.12418 0.78309 0.0
C333 C 0.75001 0.09315 0.74096 0.0
C334 C 0.77958 0.06642 0.73049 0.0
C335 C 0.70742 0.07999 0.71161 0.0
C336 C 0.72477 0.15353 0.79642 0.0
C337 C 0.67298 0.03025 0.70603 0.0
C338 C 0.6328 1.01552 0.67845 0.0
C339 C 0.62547 0.0502 0.65598 0.0
C340 C 0.65939 0.10034 0.66192 0.0
C341 C 0.70047 0.11511 0.68929 0.0
H342 H 0.72874 0.17022 0.83307 0.0
H343 H 0.73697 0.18392 0.77366 0.0
H344 H 0.68455 0.12959 0.7916 0.0
H345 H 0.67715 1.00251 0.7232 0.0
H346 H 0.60719 0.97668 0.67506 0.0
loop_
_geom_bond_atom_site_label_1
_geom_bond_atom_site_label_2
_geom_bond_distance
_geom_bond_site_symmetry_2
_ccdc_geom_bond_type
Co0 O3 2.042 . S
Co0 O10 2.264 1_565 S
Co0 O29 2.286 1_455 S
Co0 O30 2.069 . S
Co0 O32 2.015 1_455 S
Co1 O3 2.122 1_545 S
Co1 O9 2.073 . S
Co1 O10 2.327 . S
Co1 O11 1.976 . S
Co2 O3 2.087 1_545 S
Co2 O5 2.087 1_455 S
Co2 O12 2.111 . S
Co2 O13 2.143 . S
Co2 O17 2.111 1_445 S
Co2 O31 2.143 1_445 S
O3 Co0 2.042 . S
O3 Co1 2.122 1_565 S
O3 Co2 2.087 1_565 S
O3 H4 0.980 . S
H4 O3 0.980 . S
O5 Co2 2.087 1_655 S
O5 Co6 2.042 1_654 S
O5 Co7 2.122 1_544 S
O5 H8 0.980 . S
Co6 O5 2.042 1_456 S
Co6 O14 2.286 . S
Co6 O15 2.069 1_455 S
Co6 O16 2.015 . S
Co6 O19 2.264 1_455 S
Co7 O5 2.122 1_566 S
Co7 O18 1.976 . S
Co7 O19 2.327 1_565 S
Co7 O20 2.073 . S
H8 O5 0.980 . S
O9 Co1 2.073 . S
O9 C24 1.245 . S
O10 Co0 2.264 1_545 S
O10 Co1 2.327 . S
O10 C24 1.257 . S
O11 Co1 1.976 . S
O11 C23 1.251 . S
O12 Co2 2.111 . S
O12 C23 1.274 . S
O13 Co2 2.143 . S
O13 C26 1.246 1_554 S
O14 Co6 2.286 . S
O14 C25 1.249 1_455 S
O15 Co6 2.069 1_655 S
O15 C25 1.293 . S
O16 Co6 2.015 . S
O16 C26 1.257 . S
O17 Co2 2.111 1_665 S
O17 C27 1.274 1_554 S
O18 Co7 1.976 . S
O18 C27 1.251 . S
O19 Co6 2.264 1_655 S
O19 Co7 2.327 1_545 S
O19 C28 1.257 . S
O20 Co7 2.073 . S
O20 C28 1.245 1_565 S
C21 O29 1.259 1_455 S
C21 O30 1.289 . S
C22 O31 1.246 . S
C22 O32 1.257 . S
C23 O11 1.251 . S
C23 O12 1.274 . S
C24 O9 1.245 . S
C24 O10 1.257 . S
C25 O14 1.249 1_655 S
C25 O15 1.293 . S
C26 O13 1.246 1_556 S
C26 O16 1.257 . S
C27 O17 1.274 1_556 S
C27 O18 1.251 . S
C28 O19 1.257 . S
C28 O20 1.245 1_545 S
O29 Co0 2.286 1_655 S
O29 C21 1.259 1_655 S
O30 Co0 2.069 . S
O30 C21 1.289 . S
O31 Co2 2.143 1_665 S
O31 C22 1.246 . S
O32 Co0 2.015 1_655 S
O32 C22 1.257 . S
Mg33 O40 2.141 . S
Mg33 O41 2.048 . S
Mg33 O42 2.048 . S
Mg33 O45 2.141 . S
C34 O35 1.313 . S
C34 O41 1.195 1_455 S
O35 C34 1.313 . S
C36 O37 1.245 . S
C36 O45 1.289 1_455 S
O37 C36 1.245 . S
C38 O39 1.245 . S
C38 O40 1.289 1_455 S
O39 C38 1.245 . S
O40 Mg33 2.141 . S
O40 C38 1.289 1_655 S
O41 Mg33 2.048 . S
O41 C34 1.195 1_655 S
O42 Mg33 2.048 . S
O42 C43 1.195 1_655 S
C43 O42 1.195 1_455 S
C43 O44 1.313 . S
O44 C43 1.313 . S
O45 Mg33 2.141 . S
O45 C36 1.289 1_655 S
Mg46 O53 2.141 . S
Mg46 O54 2.048 . S
Mg46 O55 2.048 . S
Mg46 O58 2.141 . S
C47 O48 1.313 1_545 S
C47 O54 1.195 . S
O48 C47 1.313 1_565 S
C49 O50 1.235 1_545 S
C49 O58 1.302 . S
O50 C49 1.235 1_565 S
C51 O52 1.233 1_545 S
C51 O53 1.296 . S
O52 C51 1.233 1_565 S
O53 Mg46 2.141 . S
O53 C51 1.296 . S
O54 Mg46 2.048 . S
O54 C47 1.195 . S
O55 Mg46 2.048 . S
O55 C56 1.195 . S
C56 O55 1.195 . S
C56 O57 1.313 1_545 S
O57 C56 1.313 1_565 S
O58 Mg46 2.141 . S
O58 C49 1.302 . S
H59 C67 0.929 . S
H60 C69 0.930 . S
H61 C71 0.930 . S
H62 C74 0.929 . S
H63 C77 0.930 . S
H64 C79 0.960 . S
H65 C79 0.960 . S
H66 C79 0.960 . S
C67 H59 0.929 . S
C67 C68 1.377 . S
C67 C69 1.384 . S
C68 C67 1.377 . S
C68 C74 1.390 . S
C69 H60 0.930 . S
C69 C67 1.384 . S
C69 C70 1.372 . S
C70 C69 1.372 . S
C70 C71 1.400 . S
C70 C75 1.490 . S
C71 H61 0.930 . S
C71 C70 1.400 . S
C71 C74 1.386 . S
H72 C88 0.934 . S
H73 C89 0.931 . S
C74 H62 0.929 . S
C74 C68 1.390 . S
C74 C71 1.386 . S
C75 C70 1.490 . S
C75 C77 1.395 1_455 S
C75 C78 1.403 . S
H76 C82 0.930 . S
C77 H63 0.930 . S
C77 C75 1.395 1_655 S
C77 C80 1.403 . S
C78 C75 1.403 . S
C78 C79 1.524 . S
C78 C82 1.400 . S
C79 H64 0.960 . S
C79 H65 0.960 . S
C79 H66 0.960 . S
C79 C78 1.524 . S
C80 C77 1.403 . S
C80 C81 1.392 . S
C80 C84 1.495 . S
C81 C80 1.392 . S
C81 C82 1.385 1_655 S
C81 C83 1.478 . S
C82 H76 0.930 . S
C82 C78 1.400 . S
C82 C81 1.385 1_455 S
C83 C81 1.478 . S
C83 C85 1.381 . S
C83 C89 1.383 . S
C84 C80 1.495 . S
C84 H90 0.959 . S
C84 H91 0.961 . S
C84 H92 0.960 . S
C85 C83 1.381 . S
C85 C86 1.398 1_655 S
C85 H93 0.930 . S
C86 C85 1.398 1_455 S
C86 C87 1.387 . S
C86 H94 0.922 . S
C87 C86 1.387 . S
C87 C88 1.369 . S
C88 H72 0.934 . S
C88 C87 1.369 . S
C88 C89 1.383 1_455 S
C89 H73 0.931 . S
C89 C83 1.383 . S
C89 C88 1.383 1_655 S
H90 C84 0.959 . S
H91 C84 0.961 . S
H92 C84 0.960 . S
H93 C85 0.930 . S
H94 C86 0.922 . S
H95 C103 0.929 . S
H96 C105 0.930 . S
H97 C107 0.930 . S
H98 C110 0.929 . S
H99 C113 0.930 . S
H100 C115 0.960 . S
H101 C115 0.960 . S
H102 C115 0.960 . S
C103 H95 0.929 . S
C103 C104 1.377 . S
C103 C105 1.384 . S
C104 C103 1.377 . S
C104 C110 1.390 1_565 S
C105 H96 0.930 . S
C105 C103 1.384 . S
C105 C106 1.372 . S
C106 C105 1.372 . S
C106 C107 1.400 1_565 S
C106 C111 1.490 . S
C107 H97 0.930 . S
C107 C106 1.400 1_545 S
C107 C110 1.386 . S
H108 C124 0.930 . S
H109 C125 0.931 . S
C110 H98 0.929 . S
C110 C104 1.390 1_545 S
C110 C107 1.386 . S
C111 C106 1.490 . S
C111 C113 1.395 . S
C111 C114 1.403 1_565 S
H112 C118 0.930 . S
C113 H99 0.930 . S
C113 C111 1.395 . S
C113 C116 1.403 . S
C114 C111 1.403 1_545 S
C114 C115 1.524 . S
C114 C118 1.400 . S
C115 H100 0.960 . S
C115 H101 0.960 . S
C115 H102 0.960 . S
C115 C114 1.524 . S
C116 C113 1.403 . S
C116 C117 1.392 . S
C116 C120 1.495 . S
C117 C116 1.392 . S
C117 C118 1.385 1_565 S
C117 C119 1.478 . S
C118 H112 0.930 . S
C118 C114 1.400 . S
C118 C117 1.385 1_545 S
C119 C117 1.478 . S
C119 C121 1.381 . S
C119 C125 1.383 1_565 S
C120 C116 1.495 . S
C120 H126 0.959 . S
C120 H127 0.961 . S
C120 H128 0.960 . S
C121 C119 1.381 . S
C121 C122 1.394 . S
C121 H129 0.930 . S
C122 C121 1.394 . S
C122 C123 1.383 1_565 S
C122 H130 0.929 . S
C123 C122 1.383 1_545 S
C123 C124 1.377 . S
C124 H108 0.930 . S
C124 C123 1.377 . S
C124 C125 1.379 . S
C125 H109 0.931 . S
C125 C119 1.383 1_545 S
C125 C124 1.379 . S
H126 C120 0.959 . S
H127 C120 0.961 . S
H128 C120 0.960 . S
H129 C121 0.930 . S
H130 C122 0.929 . S
H131 C139 0.929 . S
H132 C141 0.930 . S
H133 C143 0.930 . S
H134 C146 0.929 . S
H135 C149 0.930 . S
H136 C151 0.960 . S
H137 C151 0.960 . S
H138 C151 0.960 . S
C139 H131 0.929 . S
C139 C140 1.377 . S
C139 C141 1.384 . S
C140 C139 1.377 . S
C140 C146 1.390 1_455 S
C141 H132 0.930 . S
C141 C139 1.384 . S
C141 C142 1.372 . S
C142 C141 1.372 . S
C142 C143 1.400 1_455 S
C142 C147 1.490 . S
C143 H133 0.930 . S
C143 C142 1.400 1_655 S
C143 C146 1.386 . S
H144 C160 0.930 . S
H145 C161 0.931 . S
C146 H134 0.929 . S
C146 C140 1.390 1_655 S
C146 C143 1.386 . S
C147 C142 1.490 . S
C147 C149 1.395 . S
C147 C150 1.403 1_455 S
H148 C154 0.930 . S
C149 H135 0.930 . S
C149 C147 1.395 . S
C149 C152 1.403 . S
C150 C147 1.403 1_655 S
C150 C151 1.524 . S
C150 C154 1.400 . S
C151 H136 0.960 . S
C151 H137 0.960 . S
C151 H138 0.960 . S
C151 C150 1.524 . S
C152 C149 1.403 . S
C152 C153 1.392 . S
C152 C156 1.495 . S
C153 C152 1.392 . S
C153 C154 1.385 1_455 S
C153 C155 1.478 . S
C154 H148 0.930 . S
C154 C150 1.400 . S
C154 C153 1.385 1_655 S
C155 C153 1.478 . S
C155 C157 1.381 . S
C155 C161 1.383 1_455 S
C156 C152 1.495 . S
C156 H162 0.959 . S
C156 H163 0.961 . S
C156 H164 0.960 . S
C157 C155 1.381 . S
C157 C158 1.394 . S
C157 H165 0.930 . S
C158 C157 1.394 . S
C158 C159 1.383 . S
C158 H166 0.929 . S
C159 C158 1.383 . S
C159 C160 1.377 1_455 S
C160 H144 0.930 . S
C160 C159 1.377 1_655 S
C160 C161 1.379 . S
C161 H145 0.931 . S
C161 C155 1.383 1_655 S
C161 C160 1.379 . S
H162 C156 0.959 . S
H163 C156 0.961 . S
H164 C156 0.960 . S
H165 C157 0.930 . S
H166 C158 0.929 . S
H167 C175 0.929 . S
H168 C177 0.930 . S
H169 C179 0.930 . S
H170 C182 0.928 . S
H171 C185 0.930 . S
H172 C187 0.960 . S
H173 C187 0.960 . S
H174 C187 0.960 . S
C175 H167 0.929 . S
C175 C176 1.377 . S
C175 C177 1.384 . S
C176 C175 1.377 . S
C176 C182 1.390 1_565 S
C177 H168 0.930 . S
C177 C175 1.384 . S
C177 C178 1.372 . S
C178 C177 1.372 . S
C178 C179 1.400 1_565 S
C178 C183 1.490 . S
C179 H169 0.930 . S
C179 C178 1.400 1_545 S
C179 C182 1.387 . S
H180 C196 0.930 . S
H181 C197 0.931 . S
C182 H170 0.928 . S
C182 C176 1.390 1_545 S
C182 C179 1.387 . S
C183 C178 1.490 . S
C183 C185 1.395 1_565 S
C183 C186 1.403 . S
H184 C190 0.930 . S
C185 H171 0.930 . S
C185 C183 1.395 1_545 S
C185 C188 1.403 . S
C186 C183 1.403 . S
C186 C187 1.524 . S
C186 C190 1.400 . S
C187 H172 0.960 . S
C187 H173 0.960 . S
C187 H174 0.960 . S
C187 C186 1.524 . S
C188 C185 1.403 . S
C188 C189 1.392 . S
C188 C192 1.495 . S
C189 C188 1.392 . S
C189 C190 1.385 1_545 S
C189 C191 1.478 . S
C190 H184 0.930 . S
C190 C186 1.400 . S
C190 C189 1.385 1_565 S
C191 C189 1.478 . S
C191 C193 1.381 1_545 S
C191 C197 1.383 . S
C192 C188 1.495 . S
C192 H198 0.959 . S
C192 H199 0.961 . S
C192 H200 0.960 . S
C193 C191 1.381 1_565 S
C193 C194 1.394 . S
C193 H201 0.930 . S
C194 C193 1.394 . S
C194 C195 1.383 1_565 S
C194 H202 0.929 . S
C195 C194 1.383 1_545 S
C195 C196 1.377 . S
C196 H180 0.930 . S
C196 C195 1.377 . S
C196 C197 1.379 . S
C197 H181 0.931 . S
C197 C191 1.383 . S
C197 C196 1.379 . S
H198 C192 0.959 . S
H199 C192 0.961 . S
H200 C192 0.960 . S
H201 C193 0.930 . S
H202 C194 0.929 . S
H203 C211 0.929 . S
H204 C213 0.930 . S
H205 C215 0.930 . S
H206 C218 0.929 . S
H207 C221 0.930 . S
H208 C223 0.960 . S
H209 C223 0.960 . S
H210 C223 0.960 . S
C211 H203 0.929 . S
C211 C212 1.379 . S
C211 C213 1.384 . S
C212 C211 1.379 . S
C212 C218 1.387 1_655 S
C213 H204 0.930 . S
C213 C211 1.384 . S
C213 C214 1.372 . S
C214 C213 1.372 . S
C214 C215 1.400 1_655 S
C214 C219 1.490 . S
C215 H205 0.930 . S
C215 C214 1.400 1_455 S
C215 C218 1.386 . S
H216 C232 0.930 . S
H217 C233 0.931 . S
C218 H206 0.929 . S
C218 C212 1.387 1_455 S
C218 C215 1.386 . S
C219 C214 1.490 . S
C219 C221 1.395 . S
C219 C222 1.403 1_655 S
H220 C226 0.930 . S
C221 H207 0.930 . S
C221 C219 1.395 . S
C221 C224 1.403 . S
C222 C219 1.403 1_455 S
C222 C223 1.524 . S
C222 C226 1.400 . S
C223 H208 0.960 . S
C223 H209 0.960 . S
C223 H210 0.960 . S
C223 C222 1.524 . S
C224 C221 1.403 . S
C224 C225 1.392 . S
C224 C228 1.495 . S
C225 C224 1.392 . S
C225 C226 1.385 1_655 S
C225 C227 1.478 . S
C226 H220 0.930 . S
C226 C222 1.400 . S
C226 C225 1.385 1_455 S
C227 C225 1.478 . S
C227 C229 1.381 . S
C227 C233 1.383 1_655 S
C228 C224 1.495 . S
C228 H234 0.959 . S
C228 H235 0.961 . S
C228 H236 0.960 . S
C229 C227 1.381 . S
C229 C230 1.394 . S
C229 H237 0.930 . S
C230 C229 1.394 . S
C230 C231 1.383 1_655 S
C230 H238 0.929 . S
C231 C230 1.383 1_455 S
C231 C232 1.377 . S
C232 H216 0.930 . S
C232 C231 1.377 . S
C232 C233 1.379 . S
C233 H217 0.931 . S
C233 C227 1.383 1_455 S
C233 C232 1.379 . S
H234 C228 0.959 . S
H235 C228 0.961 . S
H236 C228 0.960 . S
H237 C229 0.930 . S
H238 C230 0.929 . S
H239 C247 0.929 . S
H240 C249 0.930 . S
H241 C251 0.930 . S
H242 C254 0.929 . S
H243 C257 0.930 . S
H244 C259 0.960 . S
H245 C259 0.960 . S
H246 C259 0.960 . S
C247 H239 0.929 . S
C247 C248 1.377 . S
C247 C249 1.384 . S
C248 C247 1.377 . S
C248 C254 1.390 1_545 S
C249 H240 0.930 . S
C249 C247 1.384 . S
C249 C250 1.372 . S
C250 C249 1.372 . S
C250 C251 1.400 1_545 S
C250 C255 1.490 . S
C251 H241 0.930 . S
C251 C250 1.400 1_565 S
C251 C254 1.386 . S
H252 C268 0.930 . S
H253 C269 0.931 . S
C254 H242 0.929 . S
C254 C248 1.390 1_565 S
C254 C251 1.386 . S
C255 C250 1.490 . S
C255 C257 1.395 . S
C255 C258 1.403 1_545 S
H256 C262 0.930 . S
C257 H243 0.930 . S
C257 C255 1.395 . S
C257 C260 1.403 . S
C258 C255 1.403 1_565 S
C258 C259 1.524 . S
C258 C262 1.400 . S
C259 H244 0.960 . S
C259 H245 0.960 . S
C259 H246 0.960 . S
C259 C258 1.524 . S
C260 C257 1.403 . S
C260 C261 1.392 . S
C260 C264 1.495 . S
C261 C260 1.392 . S
C261 C262 1.385 1_545 S
C261 C263 1.478 . S
C262 H256 0.930 . S
C262 C258 1.400 . S
C262 C261 1.385 1_565 S
C263 C261 1.478 . S
C263 C265 1.381 . S
C263 C269 1.383 1_545 S
C264 C260 1.495 . S
C264 H270 0.959 . S
C264 H271 0.961 . S
C264 H272 0.960 . S
C265 C263 1.381 . S
C265 C266 1.394 . S
C265 H273 0.930 . S
C266 C265 1.394 . S
C266 C267 1.383 . S
C266 H274 0.929 . S
C267 C266 1.383 . S
C267 C268 1.377 1_545 S
C268 H252 0.930 . S
C268 C267 1.377 1_565 S
C268 C269 1.379 . S
C269 H253 0.931 . S
C269 C263 1.383 1_565 S
C269 C268 1.379 . S
H270 C264 0.959 . S
H271 C264 0.961 . S
H272 C264 0.960 . S
H273 C265 0.930 . S
H274 C266 0.929 . S
H275 C283 0.929 . S
H276 C285 0.930 . S
H277 C287 0.930 . S
H278 C290 0.929 . S
H279 C293 0.930 . S
H280 C295 0.960 . S
H281 C295 0.960 . S
H282 C295 0.960 . S
C283 H275 0.929 . S
C283 C284 1.377 . S
C283 C285 1.384 . S
C284 C283 1.377 . S
C284 C290 1.390 1_655 S
C285 H276 0.930 . S
C285 C283 1.384 . S
C285 C286 1.372 . S
C286 C285 1.372 . S
C286 C287 1.400 1_655 S
C286 C291 1.490 . S
C287 H277 0.930 . S
C287 C286 1.400 1_455 S
C287 C290 1.386 . S
H288 C304 0.930 . S
H289 C305 0.931 . S
C290 H278 0.929 . S
C290 C284 1.390 1_455 S
C290 C287 1.386 . S
C291 C286 1.490 . S
C291 C293 1.395 . S
C291 C294 1.403 1_655 S
H292 C298 0.930 . S
C293 H279 0.930 . S
C293 C291 1.395 . S
C293 C296 1.403 . S
C294 C291 1.403 1_455 S
C294 C295 1.524 . S
C294 C298 1.400 . S
C295 H280 0.960 . S
C295 H281 0.960 . S
C295 H282 0.960 . S
C295 C294 1.524 . S
C296 C293 1.403 . S
C296 C297 1.392 . S
C296 C300 1.495 . S
C297 C296 1.392 . S
C297 C298 1.385 1_655 S
C297 C299 1.478 . S
C298 H292 0.930 . S
C298 C294 1.400 . S
C298 C297 1.385 1_455 S
C299 C297 1.478 . S
C299 C301 1.381 . S
C299 C305 1.383 1_655 S
C300 C296 1.495 . S
C300 H306 0.959 . S
C300 H307 0.961 . S
C300 H308 0.960 . S
C301 C299 1.381 . S
C301 C302 1.394 . S
C301 H309 0.930 . S
C302 C301 1.394 . S
C302 C303 1.383 1_655 S
C302 H310 0.929 . S
C303 C302 1.383 1_455 S
C303 C304 1.377 . S
C304 H288 0.930 . S
C304 C303 1.377 . S
C304 C305 1.379 . S
C305 H289 0.931 . S
C305 C299 1.383 1_455 S
C305 C304 1.379 . S
H306 C300 0.959 . S
H307 C300 0.961 . S
H308 C300 0.960 . S
H309 C301 0.930 . S
H310 C302 0.929 . S
H311 C319 0.929 . S
H312 C321 0.930 . S
H313 C323 0.930 . S
H314 C326 0.929 . S
H315 C329 0.930 . S
H316 C331 0.960 . S
H317 C331 0.960 1_565 S
H318 C331 0.960 . S
C319 H311 0.929 . S
C319 C320 1.377 1_565 S
C319 C321 1.384 . S
C320 C319 1.377 1_545 S
C320 C326 1.390 . S
C321 H312 0.930 . S
C321 C319 1.384 . S
C321 C322 1.372 1_565 S
C322 C321 1.372 1_545 S
C322 C323 1.400 . S
C322 C327 1.490 . S
C323 H313 0.930 . S
C323 C322 1.400 . S
C323 C326 1.386 . S
H324 C340 0.930 . S
H325 C341 0.931 . S
C326 H314 0.929 . S
C326 C320 1.390 . S
C326 C323 1.386 . S
C327 C322 1.490 . S
C327 C329 1.395 . S
C327 C330 1.403 . S
H328 C334 0.930 . S
C329 H315 0.930 . S
C329 C327 1.395 . S
C329 C332 1.403 . S
C330 C327 1.403 . S
C330 C331 1.524 . S
C330 C334 1.400 . S
C331 H316 0.960 . S
C331 H317 0.960 1_545 S
C331 H318 0.960 . S
C331 C330 1.524 . S
C332 C329 1.403 . S
C332 C333 1.392 . S
C332 C336 1.495 . S
C333 C332 1.392 . S
C333 C334 1.385 . S
C333 C335 1.478 . S
C334 H328 0.930 . S
C334 C330 1.400 . S
C334 C333 1.385 . S
C335 C333 1.478 . S
C335 C337 1.381 1_545 S
C335 C341 1.383 . S
C336 C332 1.495 . S
C336 H342 0.959 . S
C336 H343 0.961 . S
C336 H344 0.960 1_545 S
C337 C335 1.381 1_565 S
C337 C338 1.394 . S
C337 H345 0.930 . S
C338 C337 1.394 . S
C338 C339 1.383 1_565 S
C338 H346 0.929 . S
C339 C338 1.383 1_545 S
C339 C340 1.377 . S
C340 H324 0.930 . S
C340 C339 1.377 . S
C340 C341 1.379 . S
C341 H325 0.931 . S
C341 C335 1.383 . S
C341 C340 1.379 . S
H342 C336 0.959 . S
H343 C336 0.961 . S
H344 C336 0.960 1_565 S
H345 C337 0.930 . S
H346 C338 0.929 . S
C68 C23 1.270 . S
C87 C34 1.349 . S
C104 C22 1.400 . S
C123 C56 1.424 . S
C140 C21 1.802 . S
C159 C43 1.799 . S
C176 C24 1.480 1_565 S
C195 C47 1.530 . S
C212 C27 1.207 . S
C231 C36 1.277 . S
C248 C26 1.319 . S
C267 C51 1.370 . S
C303 C38 1.739 . S
C284 C25 1.737 . S
C320 C28 1.406 . S
C339 C49 1.454 . S
