# Generated by pormake.
# Topology rtl, (3,6)-cn, num edge types: 1
# Building blocks:
#     Node 0, Type 0, BuildingBlock: OLANEW_clean_sbu_2, # of connection points: 3
#     Node 1, Type 0, BuildingBlock: OLANEW_clean_sbu_2, # of connection points: 3
#     Node 2, Type 0, BuildingBlock: OLANEW_clean_sbu_2, # of connection points: 3
#     Node 3, Type 0, BuildingBlock: OLANEW_clean_sbu_2, # of connection points: 3
#     Node 4, Type 1, BuildingBlock: VOLQOD_clean_sbu_1, # of connection points: 6
#     Node 5, Type 1, BuildingBlock: VOLQOD_clean_sbu_1, # of connection points: 6
#     Edge 6, Type (0, 1), BuildingBlock: FUNLAD_clean_linker_0, # of connection points: 2
#     Edge 7, Type (0, 1), BuildingBlock: FUNLAD_clean_linker_0, # of connection points: 2
#     Edge 8, Type (0, 1), BuildingBlock: FUNLAD_clean_linker_0, # of connection points: 2
#     Edge 9, Type (0, 1), BuildingBlock: FUNLAD_clean_linker_0, # of connection points: 2
#     Edge 10, Type (0, 1), BuildingBlock: FUNLAD_clean_linker_0, # of connection points: 2
#     Edge 11, Type (0, 1), BuildingBlock: FUNLAD_clean_linker_0, # of connection points: 2
#     Edge 12, Type (0, 1), BuildingBlock: FUNLAD_clean_linker_0, # of connection points: 2
#     Edge 13, Type (0, 1), BuildingBlock: FUNLAD_clean_linker_0, # of connection points: 2
#     Edge 14, Type (0, 1), BuildingBlock: FUNLAD_clean_linker_0, # of connection points: 2
#     Edge 15, Type (0, 1), BuildingBlock: FUNLAD_clean_linker_0, # of connection points: 2
#     Edge 16, Type (0, 1), BuildingBlock: FUNLAD_clean_linker_0, # of connection points: 2
#     Edge 17, Type (0, 1), BuildingBlock: FUNLAD_clean_linker_0, # of connection points: 2
# Relax obj value: 0.053
# Max RMSD: 0.146
# Mean RMSD: 0.101
data_MOF--net-rtl--node1-OLANEW_clean_sbu_2--node2-VOLQOD_clean_sbu_1--edge1-FUNLAD_clean_linker_0
_symmetry_space_group_name_H-M    P1
_symmetry_Int_Tables_number       1
_symmetry_cell_setting            triclinic
loop_
_symmetry_equiv_pos_as_xyz
'x, y, z'
_cell_length_a     46.667464
_cell_length_b     44.324879
_cell_length_c     27.087549
_cell_angle_alpha  87.085005
_cell_angle_beta   93.089455
_cell_angle_gamma 90.053092
loop_
_atom_site_label
_atom_site_type_symbol
_atom_site_fract_x
_atom_site_fract_y
_atom_site_fract_z
_atom_type_partial_charge
O0 O 0.13712 0.72362 0.94247 0.0
Cd1 Cd 0.15364 0.6813 -0.00213 0.0
O2 O 0.14551 0.75351 0.00351 0.0
Cd3 Cd 0.14229 0.79555 0.04191 0.0
O4 O 0.13302 0.83082 0.09225 0.0
C5 C 0.10698 0.83475 0.10188 0.0
O6 O 0.08711 0.81824 0.08008 0.0
C7 C 0.13672 0.74994 0.95892 0.0
C8 C 0.21063 0.66567 0.98655 0.0
O9 O 0.19016 0.65325 0.9615 0.0
O10 O 0.20411 0.6857 0.0166 0.0
O11 O 0.65497 0.73481 0.55179 0.0
Cd12 Cd 0.66735 0.7661 0.47876 0.0
O13 O 0.68807 0.70042 0.54324 0.0
Cd14 Cd 0.69574 0.71765 0.46859 0.0
O15 O 0.68103 0.71431 0.39151 0.0
C16 C 0.65407 0.71641 0.38266 0.0
O17 O 0.63782 0.72263 0.41897 0.0
C18 C 0.66814 0.71084 0.56774 0.0
C19 C 0.71745 0.79967 0.4941 0.0
O20 O 0.69294 0.81044 0.50334 0.0
O21 O 0.71824 0.77306 0.4779 0.0
O22 O 0.85304 0.22176 0.11657 0.0
Cd23 Cd 0.83311 0.23595 0.0333 0.0
O24 O 0.88622 0.25704 0.1189 0.0
Cd25 Cd 0.87714 0.26844 0.04049 0.0
O26 O 0.88229 0.24579 0.97195 0.0
C27 C 0.88865 0.21802 0.97988 0.0
O28 O 0.89082 0.20693 0.02585 0.0
C29 C 0.87348 0.23491 0.13991 0.0
C30 C 0.78425 0.27194 0.03372 0.0
O31 O 0.78232 0.24307 0.03465 0.0
O32 O 0.80933 0.28372 0.03286 0.0
O33 O 0.38447 0.2117 0.66868 0.0
Cd34 Cd 0.37214 0.17093 0.61384 0.0
O35 O 0.38774 0.24036 0.60136 0.0
Cd36 Cd 0.39845 0.2786 0.55154 0.0
O37 O 0.40614 0.30451 0.48283 0.0
C38 C 0.42333 0.32672 0.48077 0.0
O39 O 0.43672 0.33514 0.52171 0.0
C40 C 0.39019 0.23731 0.64835 0.0
C41 C 0.31416 0.15568 0.6066 0.0
O42 O 0.33138 0.14265 0.63948 0.0
O43 O 0.32427 0.17641 0.57774 0.0
O44 O 0.9312 0.98972 0.56567 0.0
Zn45 Zn 0.96169 0.02173 0.5716 0.0
O46 O 0.00024 0.00492 0.56906 0.0
Zn47 Zn 0.02146 0.01101 0.632 0.0
Zn48 Zn 0.99728 0.96166 0.55924 0.0
Zn49 Zn 0.02012 0.025 0.51414 0.0
O50 O 0.05774 0.03403 0.62043 0.0
O51 O 0.05731 0.04404 0.5392 0.0
O52 O 0.95686 0.0424 0.63492 0.0
O53 O -0.00152 0.035 0.67727 0.0
O54 O 0.03274 0.97137 0.66765 0.0
O55 O 0.01817 0.93723 0.61467 0.0
O56 O 0.01377 0.95146 0.4952 0.0
O57 O 0.95409 0.05312 0.51674 0.0
O58 O 0.02975 0.99503 0.4633 0.0
O59 O 0.99498 0.05758 0.47876 0.0
C60 C 0.93223 0.96143 0.5598 0.0
C61 C 0.06928 0.0457 0.58243 0.0
C62 C 0.03059 0.94401 0.65564 0.0
C63 C 0.9732 0.04597 0.67331 0.0
C64 C 0.02581 0.96666 0.46095 0.0
C65 C 0.96908 0.06559 0.48356 0.0
O66 O 0.95609 0.94793 0.55668 0.0
O67 O 0.58359 0.4806 0.98515 0.0
Zn68 Zn 0.55653 0.5159 0.97807 0.0
O69 O 0.51662 0.50324 0.98013 0.0
Zn70 Zn 0.49625 0.51396 0.91625 0.0
Zn71 Zn 0.51524 0.45953 -0.00577 0.0
Zn72 Zn 0.499 0.52394 0.03275 0.0
O73 O 0.46067 0.53853 0.92632 0.0
O74 O 0.46296 0.54542 0.00705 0.0
O75 O 0.56321 0.5389 0.91445 0.0
O76 O 0.52149 0.53904 0.87105 0.0
O77 O 0.48294 0.47625 0.88244 0.0
O78 O 0.49224 0.43948 0.93996 0.0
O79 O 0.4982 0.44932 0.06023 0.0
O80 O 0.56727 0.54434 0.0313 0.0
O81 O 0.48838 0.49436 0.08741 0.0
O82 O 0.52586 0.55413 0.06373 0.0
C83 C 0.57998 0.45231 0.99279 0.0
C84 C 0.45033 0.54928 0.96435 0.0
C85 C 0.48179 0.44852 0.89731 0.0
C86 C 0.54776 0.54687 0.87588 0.0
C87 C 0.48895 0.46568 0.09334 0.0
C88 C 0.55269 0.55866 0.06086 0.0
O89 O 0.555 0.4412 -0.00279 0.0
C90 C 0.27354 0.12203 0.6305 0.0
C91 C 0.28374 0.1463 0.60107 0.0
C92 C 0.24524 0.11211 0.62377 0.0
C93 C 0.22632 0.12651 0.58772 0.0
C94 C 0.23655 0.15081 0.5584 0.0
C95 C 0.26491 0.16069 0.56506 0.0
C96 C 0.19636 0.11587 0.57803 0.0
C97 C 0.18171 0.09972 0.61183 0.0
C98 C 0.15227 0.08759 0.60247 0.0
C99 C 0.13688 0.07768 0.64334 0.0
C100 C 0.10985 0.06455 0.63677 0.0
C101 C 0.09746 0.06087 0.58898 0.0
H102 H 0.15113 0.09067 0.52187 0.0
C103 C 0.11266 0.07104 0.54791 0.0
C104 C 0.13982 0.08413 0.55451 0.0
H105 H 0.10384 0.06837 0.51058 0.0
H106 H 0.28757 0.11023 0.65821 0.0
H107 H 0.23867 0.09265 0.64606 0.0
H108 H 0.22258 0.16216 0.53006 0.0
H109 H 0.27212 0.17939 0.5416 0.0
H110 H 0.18598 0.12242 0.54231 0.0
H111 H 0.19136 0.09562 0.64892 0.0
H112 H 0.14592 0.07986 0.68069 0.0
H113 H 0.09879 0.05704 0.66931 0.0
C114 C 0.24756 0.63283 0.95209 0.0
C115 C 0.24083 0.65651 0.98205 0.0
C116 C 0.27591 0.62301 0.95 0.0
C117 C 0.29825 0.63691 0.97755 0.0
C118 C 0.29148 0.66087 0.00689 0.0
C119 C 0.26313 0.67062 0.00907 0.0
C120 C 0.3284 0.62582 0.97963 0.0
C121 C 0.33903 0.60796 0.94612 0.0
C122 C 0.3684 0.59471 0.95131 0.0
C123 C 0.38084 0.58439 0.90919 0.0
C124 C 0.40767 0.57016 0.91309 0.0
C125 C 0.42259 0.56573 0.95939 0.0
H126 H 0.37433 0.59702 0.03132 0.0
C127 C 0.41023 0.57626 0.0015 0.0
C128 C 0.38343 0.59042 -0.00239 0.0
H129 H 0.42096 0.57304 0.03784 0.0
H130 H 0.23084 0.62135 0.93105 0.0
H131 H 0.27989 0.60393 0.92799 0.0
H132 H 0.30815 0.67187 0.02879 0.0
H133 H 0.25868 0.68893 0.03254 0.0
H134 H 0.34239 0.63303 0.0101 0.0
H135 H 0.32604 0.60297 0.91313 0.0
H136 H 0.36966 0.58712 0.87313 0.0
H137 H 0.4165 0.56227 0.87989 0.0
C138 C 0.74302 0.84718 0.51697 0.0
C139 C 0.74406 0.81747 0.50138 0.0
C140 C 0.76817 0.86411 0.52301 0.0
C141 C 0.79499 0.85155 0.5139 0.0
C142 C 0.79589 0.82188 0.49813 0.0
C143 C 0.77078 0.805 0.49205 0.0
C144 C 0.82242 0.86861 0.51877 0.0
C145 C 0.82594 0.89389 0.5441 0.0
C146 C 0.85357 0.91057 0.54809 0.0
C147 C 0.85306 0.94153 0.55668 0.0
C148 C 0.87853 0.95807 0.56047 0.0
C149 C 0.90518 0.9439 0.55625 0.0
H150 H 0.88173 0.87225 0.53993 0.0
C151 C 0.90574 0.91277 0.54861 0.0
C152 C 0.88026 0.89626 0.54473 0.0
H153 H 0.92588 0.90104 0.54571 0.0
H154 H 0.72273 0.85752 0.52405 0.0
H155 H 0.76619 0.88711 0.53382 0.0
H156 H 0.81616 0.81164 0.49052 0.0
H157 H 0.77234 0.7822 0.47985 0.0
H158 H 0.8405 0.85965 0.50057 0.0
H159 H 0.808 0.90336 0.56192 0.0
H160 H 0.83284 0.95306 0.55995 0.0
H161 H 0.87729 0.98197 0.56664 0.0
C162 C 0.76067 0.32277 0.03105 0.0
C163 C 0.75828 0.29114 0.03301 0.0
C164 C 0.73617 0.34096 0.02933 0.0
C165 C 0.70865 0.32788 0.0292 0.0
C166 C 0.70633 0.29627 0.0323 0.0
C167 C 0.73085 0.27807 0.03394 0.0
C168 C 0.68201 0.3464 0.02702 0.0
C169 C 0.68036 0.37468 0.00621 0.0
C170 C 0.65404 0.39375 0.00362 0.0
C171 C 0.65702 0.42505 -0.00504 0.0
C172 C 0.63304 0.44401 0.99162 0.0
C173 C 0.60536 0.43207 -0.00346 0.0
H174 H 0.62281 0.35766 0.01332 0.0
C175 C 0.60227 0.40069 0.00475 0.0
C176 C 0.6263 0.3817 0.00813 0.0
H177 H 0.58124 0.3907 0.0083 0.0
H178 H 0.7815 0.33355 0.03084 0.0
H179 H 0.73901 0.36519 0.02888 0.0
H180 H 0.68545 0.28559 0.03282 0.0
H181 H 0.72827 0.25376 0.03572 0.0
H182 H 0.66321 0.33593 0.04233 0.0
H183 H 0.69925 0.38475 0.99049 0.0
H184 H 0.67805 0.43498 0.99096 0.0
H185 H 0.63628 0.46805 0.9851 0.0
C186 C 0.07063 0.85828 0.1527 0.0
C187 C 0.09924 0.85597 0.13955 0.0
C188 C 0.06343 0.87667 0.19053 0.0
C189 C 0.08472 0.8931 0.21629 0.0
C190 C 0.11309 0.89183 0.20173 0.0
C191 C 0.12035 0.87331 0.16394 0.0
C192 C 0.07796 0.91151 0.25856 0.0
C193 C 0.05687 0.90389 0.28891 0.0
C194 C 0.0502 0.92065 0.33305 0.0
C195 C 0.03569 0.90536 0.37081 0.0
C196 C 0.02818 0.9202 0.41245 0.0
C197 C 0.03472 0.95093 0.41719 0.0
H198 H 0.06741 0.9642 0.30878 0.0
C199 C 0.04921 0.96637 0.37933 0.0
C200 C 0.05688 0.95141 0.33765 0.0
H201 H 0.05443 0.99009 0.38163 0.0
H202 H 0.05377 0.84554 0.13426 0.0
H203 H 0.04114 0.87794 0.19944 0.0
H204 H 0.12984 0.90456 0.22052 0.0
H205 H 0.14256 0.87224 0.15443 0.0
H206 H 0.09202 0.93032 0.26682 0.0
H207 H 0.04482 0.88328 0.28298 0.0
H208 H 0.03012 0.88173 0.36815 0.0
H209 H 0.01696 0.90756 0.4407 0.0
C210 C 0.6324 0.70048 0.63231 0.0
C211 C 0.65843 0.69334 0.61175 0.0
C212 C 0.6214 0.68167 0.66972 0.0
C213 C 0.63626 0.65535 0.68737 0.0
C214 C 0.66297 0.64914 0.6687 0.0
C215 C 0.67387 0.66778 0.63105 0.0
C216 C 0.62469 0.63397 0.72529 0.0
C217 C 0.59637 0.62985 0.73066 0.0
C218 C 0.58466 0.60775 0.76753 0.0
C219 C 0.55634 0.59742 0.76009 0.0
C220 C 0.5444 0.57718 0.7946 0.0
C221 C 0.56052 0.56697 0.83752 0.0
H222 H 0.62225 0.60563 0.81875 0.0
C223 C 0.58886 0.57732 0.84489 0.0
C224 C 0.60073 0.59755 0.81056 0.0
H225 H 0.60186 0.57025 0.87777 0.0
H226 H 0.62006 0.72011 0.61854 0.0
H227 H 0.60124 0.68779 0.68452 0.0
H228 H 0.67508 0.62927 0.68221 0.0
H229 H 0.69409 0.66175 0.6163 0.0
H230 H 0.64013 0.61974 0.74691 0.0
H231 H 0.581 0.64207 0.70557 0.0
H232 H 0.54338 0.60507 0.72746 0.0
H233 H 0.52246 0.56982 0.78788 0.0
C234 C 0.87107 0.19681 0.21086 0.0
C235 C 0.88444 0.22213 0.18888 0.0
C236 C 0.88368 0.18167 0.25297 0.0
C237 C 0.90991 0.19168 0.27446 0.0
C238 C 0.92268 0.2177 0.25363 0.0
C239 C 0.91004 0.23287 0.21144 0.0
C240 C 0.92576 0.17398 0.31536 0.0
C241 C 0.913 0.15389 0.34602 0.0
C242 C 0.92887 0.13321 0.38278 0.0
C243 C 0.91387 0.11976 0.42162 0.0
C244 C 0.92711 0.09828 0.45473 0.0
C245 C 0.95571 0.08949 0.44958 0.0
H246 H 0.96975 0.1339 0.34766 0.0
C247 C 0.97092 0.1032 0.41106 0.0
C248 C 0.95764 0.12477 0.37789 0.0
H249 H 0.99292 0.09686 0.40587 0.0
H250 H 0.85141 0.18782 0.19434 0.0
H251 H 0.8734 0.1613 0.26679 0.0
H252 H 0.94294 0.22584 0.26923 0.0
H253 H 0.92096 0.25227 0.19539 0.0
H254 H 0.94874 0.17763 0.31991 0.0
H255 H 0.88975 0.15239 0.34455 0.0
H256 H 0.89165 0.12561 0.42607 0.0
H257 H 0.91469 0.08826 0.48395 0.0
C258 C 0.39839 0.29244 0.66291 0.0
C259 C 0.40117 0.26192 0.67916 0.0
C260 C 0.40947 0.31529 0.69231 0.0
C261 C 0.42342 0.30801 0.73886 0.0
C262 C 0.42593 0.27748 0.75501 0.0
C263 C 0.41482 0.25476 0.72576 0.0
C264 C 0.43633 0.33105 0.77151 0.0
C265 C 0.43032 0.36087 0.76729 0.0
C266 C 0.44342 0.38299 0.80146 0.0
C267 C 0.44544 0.41345 0.78507 0.0
C268 C 0.4578 0.4348 0.81606 0.0
C269 C 0.46824 0.42616 0.86439 0.0
H270 H 0.45113 0.35157 0.8652 0.0
C271 C 0.46566 0.39578 0.88114 0.0
C272 C 0.45328 0.3745 0.85023 0.0
H273 H 0.47309 0.38835 0.91834 0.0
H274 H 0.38734 0.29878 0.62783 0.0
H275 H 0.40733 0.33841 0.67789 0.0
H276 H 0.43657 0.2711 0.79056 0.0
H277 H 0.41733 0.23146 0.73943 0.0
H278 H 0.45148 0.32266 0.8008 0.0
H279 H 0.41572 0.36978 0.73762 0.0
H280 H 0.43772 0.42073 0.74792 0.0
H281 H 0.45927 0.45803 0.80198 0.0
C282 C 0.65761 0.69587 0.29868 0.0
C283 C 0.64077 0.70745 0.33483 0.0
C284 C 0.64464 0.68329 0.25681 0.0
C285 C 0.61453 0.68194 0.25044 0.0
C286 C 0.59783 0.69545 0.28479 0.0
C287 C 0.61077 0.70796 0.32668 0.0
C288 C 0.59971 0.66544 0.21011 0.0
C289 C 0.6115 0.6416 0.18978 0.0
C290 C 0.59556 0.62204 0.15489 0.0
C291 C 0.61118 0.60477 0.12363 0.0
C292 C 0.59724 0.58452 0.09264 0.0
C293 C 0.56731 0.58082 0.09265 0.0
H294 H 0.55279 0.63062 0.17939 0.0
C295 C 0.55162 0.59817 0.12386 0.0
C296 C 0.56556 0.61852 0.15471 0.0
H297 H 0.52856 0.59578 0.12498 0.0
H298 H 0.6808 0.69556 0.3035 0.0
H299 H 0.6583 0.67425 0.23009 0.0
H300 H 0.57461 0.69512 0.28041 0.0
H301 H 0.59717 0.71701 0.35353 0.0
H302 H 0.57765 0.67178 0.19978 0.0
H303 H 0.63355 0.63525 0.20009 0.0
H304 H 0.63432 0.60679 0.12342 0.0
H305 H 0.61003 0.57149 0.06917 0.0
C306 C 0.90136 0.1679 0.94917 0.0
C307 C 0.89456 0.19853 0.9389 0.0
C308 C 0.90822 0.14946 0.9113 0.0
C309 C 0.90864 0.16129 0.86219 0.0
C310 C 0.9009 0.19164 0.85161 0.0
C311 C 0.89404 0.21017 0.88962 0.0
C312 C 0.91677 0.14244 0.82136 0.0
C313 C 0.93505 0.1189 0.82861 0.0
C314 C 0.94411 0.10021 0.78826 0.0
C315 C 0.97045 0.08486 0.7944 0.0
C316 C 0.97984 0.06709 0.7573 0.0
C317 C 0.96288 0.064 0.71338 0.0
H318 H 0.906 0.10737 0.7393 0.0
C319 C 0.93618 0.07882 0.7077 0.0
C320 C 0.92685 0.09671 0.74473 0.0
H321 H 0.92246 0.07677 0.6745 0.0
H322 H 0.90156 0.15808 0.98664 0.0
H323 H 0.91295 0.12591 0.92071 0.0
H324 H 0.90069 0.20121 0.81397 0.0
H325 H 0.88869 0.23363 0.88047 0.0
H326 H 0.90882 0.14935 0.78409 0.0
H327 H 0.94518 0.11402 0.86518 0.0
H328 H 0.98401 0.08689 0.82782 0.0
H329 H 0.00045 0.05588 0.76305 0.0
C330 C 0.44817 0.36644 0.42942 0.0
C331 C 0.429 0.34202 0.43237 0.0
C332 C 0.45419 0.38017 0.38351 0.0
C333 C 0.44104 0.36983 0.33949 0.0
C334 C 0.42194 0.34543 0.34254 0.0
C335 C 0.41585 0.33177 0.3884 0.0
C336 C 0.44765 0.38295 0.28977 0.0
C337 C 0.45713 0.41141 0.28181 0.0
C338 C 0.46413 0.42445 0.23223 0.0
C339 C 0.46367 0.45595 0.22392 0.0
C340 C 0.47117 0.46925 0.17858 0.0
C341 C 0.47964 0.45133 0.14049 0.0
H342 H 0.47394 0.38212 0.19942 0.0
C343 C 0.48008 0.41975 0.14871 0.0
C344 C 0.47248 0.40643 0.19409 0.0
H345 H 0.48671 0.40527 0.12037 0.0
H346 H 0.45883 0.37474 0.46254 0.0
H347 H 0.4697 0.39832 0.38274 0.0
H348 H 0.41167 0.33685 0.30928 0.0
H349 H 0.40105 0.31294 0.38927 0.0
H350 H 0.44336 0.36893 0.25849 0.0
H351 H 0.45878 0.42635 0.31237 0.0
H352 H 0.45754 0.47038 0.25271 0.0
H353 H 0.47067 0.49365 0.17372 0.0
C354 C 0.10269 0.77048 0.89142 0.0
C355 C 0.12493 0.77546 0.92702 0.0
C356 C 0.09147 0.79435 0.86069 0.0
C357 C 0.10273 0.82373 0.86418 0.0
C358 C 0.12491 0.82862 0.90006 0.0
C359 C 0.13597 0.80474 0.93106 0.0
C360 C 0.09164 0.84987 0.832 0.0
C361 C 0.0768 0.84694 0.78835 0.0
C362 C 0.06552 0.87269 0.75538 0.0
C363 C 0.05505 0.86663 0.70729 0.0
C364 C 0.04377 0.88972 0.67499 0.0
C365 C 0.04268 0.91957 0.68995 0.0
H366 H 0.07123 0.9084 0.8075 0.0
C367 C 0.05306 0.92574 0.73807 0.0
C368 C 0.06419 0.90258 0.77056 0.0
H369 H 0.0523 0.94844 0.75097 0.0
H370 H 0.09362 0.74813 0.88782 0.0
H371 H 0.07373 0.78957 0.83498 0.0
H372 H 0.13398 0.85096 0.90376 0.0
H373 H 0.15362 0.8091 0.95728 0.0
H374 H 0.09708 0.87217 0.84421 0.0
H375 H 0.07339 0.82456 0.77474 0.0
H376 H 0.05559 0.84388 0.69452 0.0
H377 H 0.03597 0.88411 0.6382 0.0
loop_
_geom_bond_atom_site_label_1
_geom_bond_atom_site_label_2
_geom_bond_distance
_geom_bond_site_symmetry_2
_ccdc_geom_bond_type
O0 Cd1 2.300 1_556 S
O0 C7 1.275 . S
Cd1 O0 2.300 1_554 S
Cd1 O9 2.381 . S
Cd1 O10 2.378 . S
O2 Cd3 2.385 . S
O2 C7 1.255 1_554 S
Cd3 O2 2.385 . S
Cd3 O4 2.317 . S
O4 Cd3 2.317 . S
O4 C5 1.232 . S
C5 O4 1.232 . S
C5 O6 1.218 . S
O6 C5 1.218 . S
C7 O0 1.275 . S
C7 O2 1.255 1_556 S
C8 O9 1.258 . S
C8 O10 1.256 . S
O9 Cd1 2.381 . S
O9 C8 1.258 . S
O10 Cd1 2.378 . S
O10 C8 1.256 . S
O11 Cd12 2.300 . S
O11 C18 1.275 . S
Cd12 O11 2.300 . S
Cd12 O20 2.381 . S
Cd12 O21 2.378 . S
O13 Cd14 2.385 . S
O13 C18 1.255 . S
Cd14 O13 2.385 . S
Cd14 O15 2.317 . S
O15 Cd14 2.317 . S
O15 C16 1.232 . S
C16 O15 1.232 . S
C16 O17 1.218 . S
O17 C16 1.218 . S
C18 O11 1.275 . S
C18 O13 1.255 . S
C19 O20 1.258 . S
C19 O21 1.256 . S
O20 Cd12 2.381 . S
O20 C19 1.258 . S
O21 Cd12 2.378 . S
O21 C19 1.256 . S
O22 Cd23 2.300 . S
O22 C29 1.275 . S
Cd23 O22 2.300 . S
Cd23 O31 2.381 . S
Cd23 O32 2.378 . S
O24 Cd25 2.385 . S
O24 C29 1.255 . S
Cd25 O24 2.385 . S
Cd25 O26 2.317 1_554 S
O26 Cd25 2.317 1_556 S
O26 C27 1.232 . S
C27 O26 1.232 . S
C27 O28 1.218 . S
O28 C27 1.218 . S
C29 O22 1.275 . S
C29 O24 1.255 . S
C30 O31 1.258 . S
C30 O32 1.256 . S
O31 Cd23 2.381 . S
O31 C30 1.258 . S
O32 Cd23 2.378 . S
O32 C30 1.256 . S
O33 Cd34 2.300 . S
O33 C40 1.275 . S
Cd34 O33 2.300 . S
Cd34 O42 2.381 . S
Cd34 O43 2.378 . S
O35 Cd36 2.385 . S
O35 C40 1.255 . S
Cd36 O35 2.385 . S
Cd36 O37 2.317 . S
O37 Cd36 2.317 . S
O37 C38 1.232 . S
C38 O37 1.232 . S
C38 O39 1.218 . S
O39 C38 1.218 . S
C40 O33 1.275 . S
C40 O35 1.255 . S
C41 O42 1.258 . S
C41 O43 1.256 . S
O42 Cd34 2.381 . S
O42 C41 1.258 . S
O43 Cd34 2.378 . S
O43 C41 1.256 . S
O44 Zn45 1.953 1_565 S
O44 C60 1.225 . S
Zn45 O44 1.953 1_545 S
Zn45 O46 1.949 1_655 S
Zn45 O52 1.919 . S
Zn45 O57 1.924 . S
O46 Zn45 1.949 1_455 S
O46 Zn47 1.923 . S
O46 Zn48 1.950 1_545 S
O46 Zn49 1.945 . S
Zn47 O46 1.923 . S
Zn47 O50 1.933 . S
Zn47 O53 1.941 . S
Zn47 O54 1.965 1_545 S
Zn48 O46 1.950 1_565 S
Zn48 O55 1.938 . S
Zn48 O56 1.906 . S
Zn48 O66 1.953 1_455 S
Zn49 O46 1.945 . S
Zn49 O51 1.932 . S
Zn49 O58 1.977 1_545 S
Zn49 O59 1.910 1_455 S
O50 Zn47 1.933 . S
O50 C61 1.226 . S
O51 Zn49 1.932 . S
O51 C61 1.307 . S
O52 Zn45 1.919 . S
O52 C63 1.253 . S
O53 Zn47 1.941 . S
O53 C63 1.283 1_455 S
O54 Zn47 1.965 1_565 S
O54 C62 1.303 . S
O55 Zn48 1.938 . S
O55 C62 1.247 . S
O56 Zn48 1.906 . S
O56 C64 1.304 . S
O57 Zn45 1.924 . S
O57 C65 1.311 . S
O58 Zn49 1.977 1_565 S
O58 C64 1.272 . S
O59 Zn49 1.910 1_655 S
O59 C65 1.231 . S
C60 O44 1.225 . S
C60 O66 1.298 . S
C61 O50 1.226 . S
C61 O51 1.307 . S
C62 O54 1.303 . S
C62 O55 1.247 . S
C63 O52 1.253 . S
C63 O53 1.283 1_655 S
C64 O56 1.304 . S
C64 O58 1.272 . S
C65 O57 1.311 . S
C65 O59 1.231 . S
O66 Zn48 1.953 1_655 S
O66 C60 1.298 . S
O67 Zn68 1.953 . S
O67 C83 1.225 . S
Zn68 O67 1.953 . S
Zn68 O69 1.949 . S
Zn68 O75 1.919 1_554 S
Zn68 O80 1.924 . S
O69 Zn68 1.949 . S
O69 Zn70 1.923 1_554 S
O69 Zn71 1.950 . S
O69 Zn72 1.945 . S
Zn70 O69 1.923 1_556 S
Zn70 O73 1.933 . S
Zn70 O76 1.941 . S
Zn70 O77 1.965 . S
Zn71 O69 1.950 . S
Zn71 O78 1.938 1_554 S
Zn71 O79 1.906 . S
Zn71 O89 1.953 . S
Zn72 O69 1.945 . S
Zn72 O74 1.932 . S
Zn72 O81 1.977 . S
Zn72 O82 1.910 . S
O73 Zn70 1.933 . S
O73 C84 1.226 1_556 S
O74 Zn72 1.932 . S
O74 C84 1.307 . S
O75 Zn68 1.919 1_556 S
O75 C86 1.253 . S
O76 Zn70 1.941 . S
O76 C86 1.283 . S
O77 Zn70 1.965 . S
O77 C85 1.303 . S
O78 Zn71 1.938 1_556 S
O78 C85 1.247 . S
O79 Zn71 1.906 . S
O79 C87 1.304 . S
O80 Zn68 1.924 . S
O80 C88 1.311 . S
O81 Zn72 1.977 . S
O81 C87 1.272 . S
O82 Zn72 1.910 . S
O82 C88 1.231 . S
C83 O67 1.225 . S
C83 O89 1.298 . S
C84 O73 1.226 1_554 S
C84 O74 1.307 . S
C85 O77 1.303 . S
C85 O78 1.247 . S
C86 O75 1.253 . S
C86 O76 1.283 . S
C87 O79 1.304 . S
C87 O81 1.272 . S
C88 O80 1.311 . S
C88 O82 1.231 . S
O89 Zn71 1.953 . S
O89 C83 1.298 . S
C90 C91 1.386 . S
C90 C92 1.383 . S
C90 H106 0.951 . S
C91 C90 1.386 . S
C91 C95 1.383 . S
C92 C90 1.383 . S
C92 C93 1.402 . S
C92 H107 0.951 . S
C93 C92 1.402 . S
C93 C94 1.375 . S
C93 C96 1.481 . S
C94 C93 1.375 . S
C94 C95 1.367 . S
C94 H108 0.951 . S
C95 C91 1.383 . S
C95 C94 1.367 . S
C95 H109 0.950 . S
C96 C93 1.481 . S
C96 C97 1.297 . S
C96 H110 0.950 . S
C97 C96 1.297 . S
C97 C98 1.479 . S
C97 H111 0.950 . S
C98 C97 1.479 . S
C98 C99 1.375 . S
C98 C104 1.404 . S
C99 C98 1.375 . S
C99 C100 1.369 . S
C99 H112 0.950 . S
C100 C99 1.369 . S
C100 C101 1.392 . S
C100 H113 0.951 . S
C101 C100 1.392 . S
C101 C103 1.384 . S
H102 C104 0.949 . S
C103 C101 1.384 . S
C103 C104 1.385 . S
C103 H105 0.950 . S
C104 C98 1.404 . S
C104 H102 0.949 . S
C104 C103 1.385 . S
H105 C103 0.950 . S
H106 C90 0.951 . S
H107 C92 0.951 . S
H108 C94 0.951 . S
H109 C95 0.950 . S
H110 C96 0.950 . S
H111 C97 0.950 . S
H112 C99 0.950 . S
H113 C100 0.951 . S
C114 C115 1.386 1_556 S
C114 C116 1.383 . S
C114 H130 0.951 . S
C115 C114 1.386 1_554 S
C115 C119 1.383 . S
C116 C114 1.383 . S
C116 C117 1.402 1_556 S
C116 H131 0.951 . S
C117 C116 1.402 1_554 S
C117 C118 1.375 . S
C117 C120 1.481 . S
C118 C117 1.375 . S
C118 C119 1.367 . S
C118 H132 0.951 . S
C119 C115 1.383 . S
C119 C118 1.367 . S
C119 H133 0.950 . S
C120 C117 1.481 . S
C120 C121 1.297 . S
C120 H134 0.950 . S
C121 C120 1.297 . S
C121 C122 1.479 . S
C121 H135 0.950 1_554 S
C122 C121 1.479 . S
C122 C123 1.375 1_554 S
C122 C128 1.404 . S
C123 C122 1.375 1_556 S
C123 C124 1.369 . S
C123 H136 0.950 . S
C124 C123 1.369 . S
C124 C125 1.392 1_556 S
C124 H137 0.951 . S
C125 C124 1.392 1_554 S
C125 C127 1.384 . S
H126 C128 0.949 . S
C127 C125 1.384 . S
C127 C128 1.385 . S
C127 H129 0.950 . S
C128 C122 1.404 . S
C128 H126 0.949 . S
C128 C127 1.385 . S
H129 C127 0.950 . S
H130 C114 0.951 . S
H131 C116 0.951 . S
H132 C118 0.951 . S
H133 C119 0.950 . S
H134 C120 0.950 . S
H135 C121 0.950 1_556 S
H136 C123 0.950 . S
H137 C124 0.951 . S
C138 C139 1.386 . S
C138 C140 1.383 . S
C138 H154 0.951 . S
C139 C138 1.386 . S
C139 C143 1.383 . S
C140 C138 1.383 . S
C140 C141 1.402 . S
C140 H155 0.951 . S
C141 C140 1.402 . S
C141 C142 1.375 . S
C141 C144 1.481 . S
C142 C141 1.375 . S
C142 C143 1.367 . S
C142 H156 0.951 . S
C143 C139 1.383 . S
C143 C142 1.367 . S
C143 H157 0.950 . S
C144 C141 1.481 . S
C144 C145 1.297 . S
C144 H158 0.950 . S
C145 C144 1.297 . S
C145 C146 1.479 . S
C145 H159 0.950 . S
C146 C145 1.479 . S
C146 C147 1.375 . S
C146 C152 1.404 . S
C147 C146 1.375 . S
C147 C148 1.369 . S
C147 H160 0.950 . S
C148 C147 1.369 . S
C148 C149 1.392 . S
C148 H161 0.951 . S
C149 C148 1.392 . S
C149 C151 1.384 . S
H150 C152 0.949 . S
C151 C149 1.384 . S
C151 C152 1.385 . S
C151 H153 0.950 . S
C152 C146 1.404 . S
C152 H150 0.949 . S
C152 C151 1.385 . S
H153 C151 0.950 . S
H154 C138 0.951 . S
H155 C140 0.951 . S
H156 C142 0.951 . S
H157 C143 0.950 . S
H158 C144 0.950 . S
H159 C145 0.950 . S
H160 C147 0.950 . S
H161 C148 0.951 . S
C162 C163 1.386 . S
C162 C164 1.383 . S
C162 H178 0.951 . S
C163 C162 1.386 . S
C163 C167 1.383 . S
C164 C162 1.383 . S
C164 C165 1.402 . S
C164 H179 0.951 . S
C165 C164 1.402 . S
C165 C166 1.375 . S
C165 C168 1.481 . S
C166 C165 1.375 . S
C166 C167 1.367 . S
C166 H180 0.951 . S
C167 C163 1.383 . S
C167 C166 1.367 . S
C167 H181 0.950 . S
C168 C165 1.481 . S
C168 C169 1.297 . S
C168 H182 0.950 . S
C169 C168 1.297 . S
C169 C170 1.479 . S
C169 H183 0.950 . S
C170 C169 1.479 . S
C170 C171 1.375 . S
C170 C176 1.404 1_554 S
C171 C170 1.375 . S
C171 C172 1.369 . S
C171 H184 0.950 . S
C172 C171 1.369 . S
C172 C173 1.392 . S
C172 H185 0.951 . S
C173 C172 1.392 . S
C173 C175 1.384 . S
H174 C176 0.949 . S
C175 C173 1.384 . S
C175 C176 1.385 1_554 S
C175 H177 0.950 1_554 S
C176 C170 1.404 1_556 S
C176 H174 0.949 . S
C176 C175 1.385 1_556 S
H177 C175 0.950 1_556 S
H178 C162 0.951 . S
H179 C164 0.951 . S
H180 C166 0.951 . S
H181 C167 0.950 . S
H182 C168 0.950 . S
H183 C169 0.950 . S
H184 C171 0.950 . S
H185 C172 0.951 . S
C186 C187 1.386 . S
C186 C188 1.383 . S
C186 H202 0.951 . S
C187 C186 1.386 . S
C187 C191 1.383 . S
C188 C186 1.383 . S
C188 C189 1.402 . S
C188 H203 0.951 . S
C189 C188 1.402 . S
C189 C190 1.375 . S
C189 C192 1.481 . S
C190 C189 1.375 . S
C190 C191 1.367 . S
C190 H204 0.951 . S
C191 C187 1.383 . S
C191 C190 1.367 . S
C191 H205 0.950 . S
C192 C189 1.481 . S
C192 C193 1.297 . S
C192 H206 0.950 . S
C193 C192 1.297 . S
C193 C194 1.479 . S
C193 H207 0.950 . S
C194 C193 1.479 . S
C194 C195 1.375 . S
C194 C200 1.404 . S
C195 C194 1.375 . S
C195 C196 1.369 . S
C195 H208 0.950 . S
C196 C195 1.369 . S
C196 C197 1.392 . S
C196 H209 0.951 . S
C197 C196 1.392 . S
C197 C199 1.384 . S
H198 C200 0.949 . S
C199 C197 1.384 . S
C199 C200 1.385 . S
C199 H201 0.950 . S
C200 C194 1.404 . S
C200 H198 0.949 . S
C200 C199 1.385 . S
H201 C199 0.950 . S
H202 C186 0.951 . S
H203 C188 0.951 . S
H204 C190 0.951 . S
H205 C191 0.950 . S
H206 C192 0.950 . S
H207 C193 0.950 . S
H208 C195 0.950 . S
H209 C196 0.951 . S
C210 C211 1.386 . S
C210 C212 1.383 . S
C210 H226 0.951 . S
C211 C210 1.386 . S
C211 C215 1.383 . S
C212 C210 1.383 . S
C212 C213 1.402 . S
C212 H227 0.951 . S
C213 C212 1.402 . S
C213 C214 1.375 . S
C213 C216 1.481 . S
C214 C213 1.375 . S
C214 C215 1.367 . S
C214 H228 0.951 . S
C215 C211 1.383 . S
C215 C214 1.367 . S
C215 H229 0.950 . S
C216 C213 1.481 . S
C216 C217 1.297 . S
C216 H230 0.950 . S
C217 C216 1.297 . S
C217 C218 1.479 . S
C217 H231 0.950 . S
C218 C217 1.479 . S
C218 C219 1.375 . S
C218 C224 1.404 . S
C219 C218 1.375 . S
C219 C220 1.369 . S
C219 H232 0.950 . S
C220 C219 1.369 . S
C220 C221 1.392 . S
C220 H233 0.951 . S
C221 C220 1.392 . S
C221 C223 1.384 . S
H222 C224 0.949 . S
C223 C221 1.384 . S
C223 C224 1.385 . S
C223 H225 0.950 . S
C224 C218 1.404 . S
C224 H222 0.949 . S
C224 C223 1.385 . S
H225 C223 0.950 . S
H226 C210 0.951 . S
H227 C212 0.951 . S
H228 C214 0.951 . S
H229 C215 0.950 . S
H230 C216 0.950 . S
H231 C217 0.950 . S
H232 C219 0.950 . S
H233 C220 0.951 . S
C234 C235 1.386 . S
C234 C236 1.383 . S
C234 H250 0.951 . S
C235 C234 1.386 . S
C235 C239 1.383 . S
C236 C234 1.383 . S
C236 C237 1.402 . S
C236 H251 0.951 . S
C237 C236 1.402 . S
C237 C238 1.375 . S
C237 C240 1.481 . S
C238 C237 1.375 . S
C238 C239 1.367 . S
C238 H252 0.951 . S
C239 C235 1.383 . S
C239 C238 1.367 . S
C239 H253 0.950 . S
C240 C237 1.481 . S
C240 C241 1.297 . S
C240 H254 0.950 . S
C241 C240 1.297 . S
C241 C242 1.479 . S
C241 H255 0.950 . S
C242 C241 1.479 . S
C242 C243 1.375 . S
C242 C248 1.404 . S
C243 C242 1.375 . S
C243 C244 1.369 . S
C243 H256 0.950 . S
C244 C243 1.369 . S
C244 C245 1.392 . S
C244 H257 0.951 . S
C245 C244 1.392 . S
C245 C247 1.384 . S
H246 C248 0.949 . S
C247 C245 1.384 . S
C247 C248 1.385 . S
C247 H249 0.950 . S
C248 C242 1.404 . S
C248 H246 0.949 . S
C248 C247 1.385 . S
H249 C247 0.950 . S
H250 C234 0.951 . S
H251 C236 0.951 . S
H252 C238 0.951 . S
H253 C239 0.950 . S
H254 C240 0.950 . S
H255 C241 0.950 . S
H256 C243 0.950 . S
H257 C244 0.951 . S
C258 C259 1.386 . S
C258 C260 1.383 . S
C258 H274 0.951 . S
C259 C258 1.386 . S
C259 C263 1.383 . S
C260 C258 1.383 . S
C260 C261 1.402 . S
C260 H275 0.951 . S
C261 C260 1.402 . S
C261 C262 1.375 . S
C261 C264 1.481 . S
C262 C261 1.375 . S
C262 C263 1.367 . S
C262 H276 0.951 . S
C263 C259 1.383 . S
C263 C262 1.367 . S
C263 H277 0.950 . S
C264 C261 1.481 . S
C264 C265 1.297 . S
C264 H278 0.950 . S
C265 C264 1.297 . S
C265 C266 1.479 . S
C265 H279 0.950 . S
C266 C265 1.479 . S
C266 C267 1.375 . S
C266 C272 1.404 . S
C267 C266 1.375 . S
C267 C268 1.369 . S
C267 H280 0.950 . S
C268 C267 1.369 . S
C268 C269 1.392 . S
C268 H281 0.951 . S
C269 C268 1.392 . S
C269 C271 1.384 . S
H270 C272 0.949 . S
C271 C269 1.384 . S
C271 C272 1.385 . S
C271 H273 0.950 . S
C272 C266 1.404 . S
C272 H270 0.949 . S
C272 C271 1.385 . S
H273 C271 0.950 . S
H274 C258 0.951 . S
H275 C260 0.951 . S
H276 C262 0.951 . S
H277 C263 0.950 . S
H278 C264 0.950 . S
H279 C265 0.950 . S
H280 C267 0.950 . S
H281 C268 0.951 . S
C282 C283 1.386 . S
C282 C284 1.383 . S
C282 H298 0.951 . S
C283 C282 1.386 . S
C283 C287 1.383 . S
C284 C282 1.383 . S
C284 C285 1.402 . S
C284 H299 0.951 . S
C285 C284 1.402 . S
C285 C286 1.375 . S
C285 C288 1.481 . S
C286 C285 1.375 . S
C286 C287 1.367 . S
C286 H300 0.951 . S
C287 C283 1.383 . S
C287 C286 1.367 . S
C287 H301 0.950 . S
C288 C285 1.481 . S
C288 C289 1.297 . S
C288 H302 0.950 . S
C289 C288 1.297 . S
C289 C290 1.479 . S
C289 H303 0.950 . S
C290 C289 1.479 . S
C290 C291 1.375 . S
C290 C296 1.404 . S
C291 C290 1.375 . S
C291 C292 1.369 . S
C291 H304 0.950 . S
C292 C291 1.369 . S
C292 C293 1.392 . S
C292 H305 0.951 . S
C293 C292 1.392 . S
C293 C295 1.384 . S
H294 C296 0.949 . S
C295 C293 1.384 . S
C295 C296 1.385 . S
C295 H297 0.950 . S
C296 C290 1.404 . S
C296 H294 0.949 . S
C296 C295 1.385 . S
H297 C295 0.950 . S
H298 C282 0.951 . S
H299 C284 0.951 . S
H300 C286 0.951 . S
H301 C287 0.950 . S
H302 C288 0.950 . S
H303 C289 0.950 . S
H304 C291 0.950 . S
H305 C292 0.951 . S
C306 C307 1.386 . S
C306 C308 1.383 . S
C306 H322 0.951 . S
C307 C306 1.386 . S
C307 C311 1.383 . S
C308 C306 1.383 . S
C308 C309 1.402 . S
C308 H323 0.951 . S
C309 C308 1.402 . S
C309 C310 1.375 . S
C309 C312 1.481 . S
C310 C309 1.375 . S
C310 C311 1.367 . S
C310 H324 0.951 . S
C311 C307 1.383 . S
C311 C310 1.367 . S
C311 H325 0.950 . S
C312 C309 1.481 . S
C312 C313 1.297 . S
C312 H326 0.950 . S
C313 C312 1.297 . S
C313 C314 1.479 . S
C313 H327 0.950 . S
C314 C313 1.479 . S
C314 C315 1.375 . S
C314 C320 1.404 . S
C315 C314 1.375 . S
C315 C316 1.369 . S
C315 H328 0.950 . S
C316 C315 1.369 . S
C316 C317 1.392 . S
C316 H329 0.945 1_655 S
C317 C316 1.392 . S
C317 C319 1.384 . S
H318 C320 0.949 . S
C319 C317 1.384 . S
C319 C320 1.385 . S
C319 H321 0.950 . S
C320 C314 1.404 . S
C320 H318 0.949 . S
C320 C319 1.385 . S
H321 C319 0.950 . S
H322 C306 0.951 . S
H323 C308 0.951 . S
H324 C310 0.951 . S
H325 C311 0.950 . S
H326 C312 0.950 . S
H327 C313 0.950 . S
H328 C315 0.950 . S
H329 C316 0.945 1_455 S
C330 C331 1.386 . S
C330 C332 1.383 . S
C330 H346 0.951 . S
C331 C330 1.386 . S
C331 C335 1.383 . S
C332 C330 1.383 . S
C332 C333 1.402 . S
C332 H347 0.951 . S
C333 C332 1.402 . S
C333 C334 1.375 . S
C333 C336 1.481 . S
C334 C333 1.375 . S
C334 C335 1.367 . S
C334 H348 0.951 . S
C335 C331 1.383 . S
C335 C334 1.367 . S
C335 H349 0.950 . S
C336 C333 1.481 . S
C336 C337 1.297 . S
C336 H350 0.950 . S
C337 C336 1.297 . S
C337 C338 1.479 . S
C337 H351 0.950 . S
C338 C337 1.479 . S
C338 C339 1.375 . S
C338 C344 1.404 . S
C339 C338 1.375 . S
C339 C340 1.369 . S
C339 H352 0.950 . S
C340 C339 1.369 . S
C340 C341 1.392 . S
C340 H353 0.951 . S
C341 C340 1.392 . S
C341 C343 1.384 . S
H342 C344 0.949 . S
C343 C341 1.384 . S
C343 C344 1.385 . S
C343 H345 0.950 . S
C344 C338 1.404 . S
C344 H342 0.949 . S
C344 C343 1.385 . S
H345 C343 0.950 . S
H346 C330 0.951 . S
H347 C332 0.951 . S
H348 C334 0.951 . S
H349 C335 0.950 . S
H350 C336 0.950 . S
H351 C337 0.950 . S
H352 C339 0.950 . S
H353 C340 0.951 . S
C354 C355 1.386 . S
C354 C356 1.383 . S
C354 H370 0.951 . S
C355 C354 1.386 . S
C355 C359 1.383 . S
C356 C354 1.383 . S
C356 C357 1.402 . S
C356 H371 0.951 . S
C357 C356 1.402 . S
C357 C358 1.375 . S
C357 C360 1.481 . S
C358 C357 1.375 . S
C358 C359 1.367 . S
C358 H372 0.951 . S
C359 C355 1.383 . S
C359 C358 1.367 . S
C359 H373 0.950 . S
C360 C357 1.481 . S
C360 C361 1.297 . S
C360 H374 0.950 . S
C361 C360 1.297 . S
C361 C362 1.479 . S
C361 H375 0.950 . S
C362 C361 1.479 . S
C362 C363 1.375 . S
C362 C368 1.404 . S
C363 C362 1.375 . S
C363 C364 1.369 . S
C363 H376 0.950 . S
C364 C363 1.369 . S
C364 C365 1.392 . S
C364 H377 0.951 . S
C365 C364 1.392 . S
C365 C367 1.384 . S
H366 C368 0.949 . S
C367 C365 1.384 . S
C367 C368 1.385 . S
C367 H369 0.950 . S
C368 C362 1.404 . S
C368 H366 0.949 . S
C368 C367 1.385 . S
H369 C367 0.950 . S
H370 C354 0.951 . S
H371 C356 0.951 . S
H372 C358 0.951 . S
H373 C359 0.950 . S
H374 C360 0.950 . S
H375 C361 0.950 . S
H376 C363 0.950 . S
H377 C364 0.951 . S
C101 C61 1.517 . S
C91 C41 1.474 . S
C115 C8 1.474 . S
C125 C84 1.510 . S
C139 C19 1.520 . S
C149 C60 1.528 . S
C163 C30 1.554 . S
C173 C83 1.547 . S
C197 C64 1.546 . S
C187 C5 1.211 . S
C221 C86 1.589 . S
C211 C18 1.614 . S
C235 C29 1.585 . S
C245 C65 1.566 . S
C259 C40 1.615 . S
C269 C85 1.575 . S
C293 C88 1.379 . S
C283 C16 1.079 . S
C317 C63 1.339 . S
C307 C27 1.322 . S
C341 C87 1.273 . S
C331 C38 1.134 . S
C355 C7 1.381 . S
C365 C62 1.414 . S
