# Generated by pormake.
# Topology pts, (4,4)-cn, num edge types: 1
# Building blocks:
#     Node 0, Type 0, BuildingBlock: ESEHIV_clean_sbu_0, # of connection points: 4
#     Node 1, Type 0, BuildingBlock: ESEHIV_clean_sbu_0, # of connection points: 4
#     Node 2, Type 1, BuildingBlock: QUQFOY_clean_sbu_1, # of connection points: 4
#     Node 3, Type 1, BuildingBlock: QUQFOY_clean_sbu_1, # of connection points: 4
#     Edge 4, Type (0, 1), BuildingBlock: TEMPAE_clean_linker_10, # of connection points: 2
#     Edge 5, Type (0, 1), BuildingBlock: TEMPAE_clean_linker_10, # of connection points: 2
#     Edge 6, Type (0, 1), BuildingBlock: TEMPAE_clean_linker_10, # of connection points: 2
#     Edge 7, Type (0, 1), BuildingBlock: TEMPAE_clean_linker_10, # of connection points: 2
#     Edge 8, Type (0, 1), BuildingBlock: TEMPAE_clean_linker_10, # of connection points: 2
#     Edge 9, Type (0, 1), BuildingBlock: TEMPAE_clean_linker_10, # of connection points: 2
#     Edge 10, Type (0, 1), BuildingBlock: TEMPAE_clean_linker_10, # of connection points: 2
#     Edge 11, Type (0, 1), BuildingBlock: TEMPAE_clean_linker_10, # of connection points: 2
# Relax obj value: 0.097
# Max RMSD: 0.250
# Mean RMSD: 0.176
data_MOF--net-pts--node1-ESEHIV_clean_sbu_0--node2-QUQFOY_clean_sbu_1--edge1-TEMPAE_clean_linker_10
_symmetry_space_group_name_H-M    P1
_symmetry_Int_Tables_number       1
_symmetry_cell_setting            triclinic
loop_
_symmetry_equiv_pos_as_xyz
'x, y, z'
_cell_length_a     23.709931
_cell_length_b     26.213998
_cell_length_c     39.841082
_cell_angle_alpha  93.457149
_cell_angle_beta   93.760572
_cell_angle_gamma 89.757248
loop_
_atom_site_label
_atom_site_type_symbol
_atom_site_fract_x
_atom_site_fract_y
_atom_site_fract_z
_atom_type_partial_charge
Cu0 Cu 0.53599 0.09725 0.01536 0.0
N1 N 0.56804 0.13525 0.98339 0.0
N2 N 0.62708 0.15415 0.94444 0.0
C3 C 0.61925 0.12682 0.97144 0.0
C4 C 0.57889 0.18109 0.93943 0.0
C5 C 0.54249 0.16921 0.96345 0.0
O6 O 0.59737 0.06553 0.04117 0.0
C7 C 0.48905 0.03094 0.96205 0.0
O8 O 0.53869 0.03473 0.94959 0.0
H9 H 0.64845 0.09838 0.98087 0.0
H10 H 0.49941 0.18233 0.96516 0.0
N11 N 0.49487 0.1392 0.04443 0.0
N12 N 0.4325 0.16098 0.08236 0.0
C13 C 0.46164 0.12256 0.06762 0.0
C14 C 0.48636 0.19006 0.04453 0.0
C15 C 0.44742 0.20359 0.06783 0.0
C16 C 0.59186 0.03693 0.06542 0.0
O17 O 0.54115 0.02246 0.07226 0.0
H18 H 0.4564 0.08273 0.07234 0.0
H19 H 0.50568 0.21529 0.02812 0.0
O20 O 0.48211 0.05036 0.99154 0.0
H21 H 0.56979 0.20627 0.91922 0.0
H22 H 0.43072 0.24146 0.07332 0.0
Cu23 Cu 0.09253 0.56762 0.5177 0.0
N24 N 0.13594 0.52612 0.54605 0.0
N25 N 0.15279 0.4627 0.58058 0.0
C26 C 0.11404 0.48628 0.56053 0.0
C27 C 0.20131 0.48885 0.57845 0.0
C28 C 0.19076 0.52803 0.55717 0.0
O29 O 0.04871 0.52006 0.48687 0.0
C30 C 0.08424 0.64405 0.56552 0.0
O31 O 0.13895 0.63704 0.56402 0.0
H32 H 0.07025 0.47483 0.55616 0.0
H33 H 0.22068 0.55635 0.55084 0.0
N34 N 0.13436 0.60872 0.49158 0.0
N35 N 0.14937 0.67144 0.45746 0.0
C36 C 0.11161 0.64826 0.47542 0.0
C37 C 0.18872 0.60663 0.48378 0.0
C38 C 0.19813 0.64536 0.46276 0.0
C39 C 0.08055 0.49153 0.46917 0.0
O40 O 0.13544 0.49875 0.47318 0.0
H41 H 0.06794 0.65975 0.47704 0.0
H42 H 0.21907 0.57847 0.49217 0.0
O43 O 0.051 0.61533 0.54636 0.0
H44 H 0.24124 0.48117 0.59196 0.0
H45 H 0.23743 0.65275 0.45157 0.0
O46 O 0.96469 1.01083 0.23531 0.0
Cd47 Cd 0.04366 1.01393 0.26032 0.0
Cd48 Cd 0.01736 0.1205 0.26849 0.0
O49 O 0.94499 0.09319 0.24134 0.0
O50 O 0.06495 0.94154 0.26786 0.0
O51 O 0.05479 0.99957 0.30958 0.0
C52 C 0.06653 0.95303 0.29983 0.0
C53 C 1.00497 0.18638 0.31011 0.0
C54 C 0.9315 0.04813 0.23004 0.0
C55 C 0.12104 0.08854 0.23135 0.0
O56 O 0.09139 0.12461 0.24379 0.0
O57 O 0.10847 0.04211 0.2347 0.0
O58 O 0.99847 0.19399 0.27848 0.0
O59 O 0.01799 0.14072 0.31841 0.0
O60 O 0.98728 0.12141 0.79261 0.0
Cd61 Cd 0.06254 0.11525 0.76913 0.0
Cd62 Cd 0.03321 1.00909 0.76769 0.0
O63 O 0.964 0.03972 0.79066 0.0
O64 O 0.08363 0.1877 0.76309 0.0
O65 O 0.06689 0.13134 0.72025 0.0
C66 C 0.08065 0.17738 0.73101 0.0
C67 C 0.01753 0.94406 0.72504 0.0
C68 C 0.95355 0.08622 0.79907 0.0
C69 C 0.14334 0.0426 0.80487 0.0
O70 O 0.10928 1.0061 0.79618 0.0
O71 O 0.13227 0.08763 0.79616 0.0
O72 O 0.01293 0.93594 0.75631 0.0
O73 O 0.03033 0.98978 0.71774 0.0
C74 C 0.33685 0.17764 0.10089 0.0
C75 C 0.3904 0.15582 0.10626 0.0
C76 C 0.29357 0.16846 0.12221 0.0
C77 C 0.30485 0.13801 0.15011 0.0
C78 C 0.35975 0.11777 0.1564 0.0
C79 C 0.40161 0.12621 0.13402 0.0
C80 C 0.23524 0.18952 0.11408 0.0
C81 C 0.37401 0.08641 0.18637 0.0
C82 C 0.20003 0.146 0.21866 0.0
C83 C 0.16923 0.10067 0.21145 0.0
C84 C 0.24517 0.15816 0.19939 0.0
C85 C 0.25848 0.12504 0.17161 0.0
C86 C 0.22715 0.07942 0.16411 0.0
C87 C 0.18351 0.06741 0.18445 0.0
C88 C 0.27874 0.2063 0.20883 0.0
C89 C 0.23901 0.04371 0.1342 0.0
H90 H 0.32828 0.2 0.07912 0.0
H91 H 0.44328 0.10966 0.13809 0.0
H92 H 0.20482 0.15753 0.10875 0.0
H93 H 0.22079 0.21292 0.136 0.0
H94 H 0.23378 0.2134 0.09193 0.0
H95 H 0.41985 0.07748 0.18938 0.0
H96 H 0.36125 0.10713 0.20979 0.0
H97 H 0.35016 0.04994 0.18346 0.0
H98 H 0.18927 0.17162 0.23966 0.0
H99 H 0.15941 0.03258 0.1786 0.0
H100 H 0.27466 0.23248 0.18796 0.0
H101 H 0.32426 0.19685 0.21289 0.0
H102 H 0.26461 0.22678 0.23204 0.0
H103 H 0.23515 0.06468 0.11078 0.0
H104 H 0.2097 1.01056 0.13125 0.0
H105 H 0.28294 0.02913 0.13694 0.0
C106 C 0.08918 0.41029 0.61132 0.0
C107 C 0.14332 0.41988 0.60079 0.0
C108 C 0.07919 0.36924 0.63121 0.0
C109 C 0.12446 0.3369 0.64108 0.0
C110 C 0.17914 0.34597 0.63037 0.0
C111 C 0.18791 0.3873 0.61037 0.0
C112 C 0.02028 0.36109 0.6422 0.0
C113 C 0.22853 0.31235 0.64037 0.0
C114 C 0.10935 0.26649 0.72066 0.0
C115 C 0.09277 0.21746 0.70767 0.0
C116 C 0.12051 0.30534 0.69927 0.0
C117 C 0.11492 0.29513 0.66392 0.0
C118 C 0.09864 0.24563 0.65058 0.0
C119 C 0.08781 0.20735 0.67262 0.0
C120 C 0.13774 0.35754 0.71456 0.0
C121 C 0.09206 0.23332 0.61303 0.0
H122 H 0.05455 0.43553 0.60463 0.0
H123 H 0.22968 0.39389 0.60205 0.0
H124 H 0.00602 0.32152 0.63476 0.0
H125 H 0.02039 0.36594 0.67006 0.0
H126 H 0.98917 0.3882 0.63113 0.0
H127 H 0.26797 0.32345 0.6291 0.0
H128 H 0.23608 0.31461 0.6682 0.0
H129 H 0.21885 0.27189 0.63239 0.0
H130 H 0.11347 0.27472 0.74769 0.0
H131 H 0.07508 0.1696 0.66236 0.0
H132 H 0.10616 0.38644 0.7065 0.0
H133 H 0.1789 0.3687 0.70546 0.0
H134 H 0.14155 0.35892 0.74254 0.0
H135 H 0.05871 0.25786 0.60156 0.0
H136 H 0.08065 0.19267 0.60666 0.0
H137 H 0.13196 0.2417 0.60137 0.0
C138 C 0.69598 0.04007 0.08023 0.0
C139 C 0.64157 0.02713 0.08873 0.0
C140 C 0.74257 0.03802 0.10371 0.0
C141 C 0.73461 0.02293 0.1366 0.0
C142 C 0.68034 1.0074 0.14484 0.0
C143 C 0.63446 1.00952 0.12076 0.0
C144 C 0.79987 0.05434 0.09376 0.0
C145 C 0.67015 0.99106 0.17963 0.0
C146 C 0.86737 0.99271 0.19071 0.0
C147 C 0.87828 0.03982 0.20862 0.0
C148 C 0.81986 0.98606 0.16786 0.0
C149 C 0.78222 0.02739 0.16293 0.0
C150 C 0.79182 0.07437 0.18186 0.0
C151 C 0.83973 0.08004 0.20439 0.0
C152 C 0.81109 0.93542 0.14811 0.0
C153 C 0.75243 0.11928 0.17755 0.0
H154 H 0.70198 0.05335 0.05546 0.0
H155 H 0.59259 0.99948 0.12758 0.0
H156 H 0.81287 0.09027 0.10832 0.0
H157 H 0.8321 0.02495 0.09989 0.0
H158 H 0.79992 0.06089 0.06647 0.0
H159 H 0.62698 0.97534 0.18103 0.0
H160 H 0.70148 0.96176 0.18736 0.0
H161 H 0.67562 0.02436 0.19809 0.0
H162 H 0.89686 0.96136 0.19376 0.0
H163 H 0.84751 0.11648 0.21822 0.0
H164 H 0.81599 0.94044 0.121 0.0
H165 H 0.76757 0.92122 0.15035 0.0
H166 H 0.84164 0.90594 0.15671 0.0
H167 H 0.75349 0.13215 0.15157 0.0
H168 H 0.76392 0.1521 0.19562 0.0
H169 H 0.70832 0.10782 0.18107 0.0
C170 C 0.10313 0.71087 0.61176 0.0
C171 C 0.06408 0.68619 0.58827 0.0
C172 C 0.08761 0.75292 0.63244 0.0
C173 C 0.03137 0.77118 0.62977 0.0
C174 C 0.99121 0.7461 0.60652 0.0
C175 C 0.00804 0.70371 0.58601 0.0
C176 C 0.13183 0.7781 0.65701 0.0
C177 C 0.93088 0.76452 0.60303 0.0
C178 C 0.99827 0.85204 0.70798 0.0
C179 C 0.01176 0.90124 0.6989 0.0
C180 C 1.00007 0.80962 0.68482 0.0
C181 C 0.0158 0.81646 0.65172 0.0
C182 C 0.02558 0.86648 0.64172 0.0
C183 C 0.0235 0.9083 0.66545 0.0
C184 C 0.98919 0.75707 0.69657 0.0
C185 C 0.04217 0.87549 0.60663 0.0
H186 H 0.14647 0.69752 0.61393 0.0
H187 H 0.9777 0.68497 0.56784 0.0
H188 H 0.13705 0.81869 0.6514 0.0
H189 H 0.11809 0.77759 0.68308 0.0
H190 H 0.17362 0.75892 0.65611 0.0
H191 H 0.90434 0.73988 0.58468 0.0
H192 H 0.91198 0.76551 0.62781 0.0
H193 H 0.92981 0.80413 0.59464 0.0
H194 H 0.9885 0.8462 0.73367 0.0
H195 H 0.03348 0.9462 0.65811 0.0
H196 H 0.02982 0.73613 0.69952 0.0
H197 H 0.96144 0.73467 0.67766 0.0
H198 H 0.96932 0.75881 0.7211 0.0
H199 H 0.08612 0.86199 0.60378 0.0
H200 H 0.03997 0.91658 0.60127 0.0
H201 H 0.01442 0.85347 0.58751 0.0
C202 C 0.44427 1.00478 0.90492 0.0
C203 C 0.43875 0.01619 0.93943 0.0
C204 C 0.39659 1.00154 0.88201 0.0
C205 C 0.34214 1.00993 0.8939 0.0
C206 C 0.33604 0.0175 0.92897 0.0
C207 C 0.38438 0.02041 0.95131 0.0
C208 C 0.40489 0.99278 0.84486 0.0
C209 C 0.27874 0.02632 0.94274 0.0
C210 C 0.23162 0.07402 0.83738 0.0
C211 C 0.19561 0.03321 0.82629 0.0
C212 C 0.27975 0.06662 0.85893 0.0
C213 C 0.29256 0.01712 0.86967 0.0
C214 C 0.25719 0.97549 0.85807 0.0
C215 C 0.20905 0.98403 0.83656 0.0
C216 C 0.31639 0.1121 0.8707 0.0
C217 C 0.26972 0.92215 0.8688 0.0
H218 H 0.48602 1.00108 0.89546 0.0
H219 H 0.37954 0.02883 0.97794 0.0
H220 H 0.3743 0.96412 0.833 0.0
H221 H 0.39705 0.02899 0.83226 0.0
H222 H 0.44841 0.97959 0.84013 0.0
H223 H 0.28046 0.02554 0.97064 0.0
H224 H 0.2623 0.06414 0.93561 0.0
H225 H 0.24817 0.99701 0.93175 0.0
H226 H 0.22182 0.11214 0.82961 0.0
H227 H 0.18165 0.95219 0.82809 0.0
H228 H 0.36056 0.10499 0.86405 0.0
H229 H 0.31701 0.11793 0.89854 0.0
H230 H 0.30128 0.14785 0.85945 0.0
H231 H 0.31334 0.91092 0.86297 0.0
H232 H 0.23974 0.89347 0.8562 0.0
H233 H 0.2673 0.92112 0.89646 0.0
C234 C 1.00382 0.42964 0.44655 0.0
C235 C 0.05873 0.44902 0.44568 0.0
C236 C 0.98603 0.38639 0.42581 0.0
C237 C 0.02404 0.36236 0.40376 0.0
C238 C 0.07894 0.38268 0.40234 0.0
C239 C 0.09547 0.42555 0.42322 0.0
C240 C 0.92712 0.36585 0.4279 0.0
C241 C 0.1208 0.35871 0.37904 0.0
C242 C 0.01789 0.22409 0.36958 0.0
C243 C 1.00087 0.22968 0.33562 0.0
C244 C 0.02147 0.26668 0.39286 0.0
C245 C 0.00762 0.31592 0.3819 0.0
C246 C 0.98659 0.32112 0.34821 0.0
C247 C 0.9836 0.27801 0.32549 0.0
C248 C 0.04391 0.25943 0.42859 0.0
C249 C 0.97109 0.37277 0.33547 0.0
H250 H 0.97531 0.44745 0.46394 0.0
H251 H 0.13786 0.44043 0.42211 0.0
H252 H 0.90479 0.36282 0.4025 0.0
H253 H 0.92941 0.32678 0.43717 0.0
H254 H 0.90176 0.39029 0.445 0.0
H255 H 0.1617 0.37953 0.38079 0.0
H256 H 0.12914 0.31854 0.38521 0.0
H257 H 0.103 0.35803 0.35256 0.0
H258 H 0.03091 0.18686 0.37769 0.0
H259 H 0.96969 0.28265 0.29939 0.0
H260 H 0.01772 0.28077 0.44677 0.0
H261 H 0.08752 0.27489 0.43242 0.0
H262 H 0.04499 0.21851 0.43441 0.0
H263 H 0.94498 0.39465 0.35343 0.0
H264 H 0.94757 0.3695 0.31038 0.0
H265 H 0.01017 0.39513 0.33325 0.0
C266 C 0.66582 0.15619 0.88837 0.0
C267 C 0.67394 0.14973 0.92308 0.0
C268 C 0.71026 0.14836 0.86697 0.0
C269 C 0.76419 0.13385 0.8806 0.0
C270 C 0.77303 0.12851 0.91571 0.0
C271 C 0.72783 0.13646 0.93648 0.0
C272 C 0.69909 0.15426 0.82966 0.0
C273 C 0.83001 0.11343 0.93127 0.0
C274 C 0.86479 0.0609 0.82473 0.0
C275 C 0.90305 0.09918 0.81809 0.0
C276 C 0.81885 0.07191 0.84448 0.0
C277 C 0.81093 0.12241 0.85806 0.0
C278 C 0.84862 0.16146 0.85091 0.0
C279 C 0.89414 0.14942 0.83098 0.0
C280 C 0.7794 0.02924 0.85138 0.0
C281 C 0.84158 0.21575 0.86494 0.0
H282 H 0.62423 0.16577 0.87771 0.0
H283 H 0.73459 0.1321 0.9633 0.0
H284 H 0.72974 0.18143 0.82073 0.0
H285 H 0.70504 0.11696 0.81564 0.0
H286 H 0.65559 0.16813 0.82327 0.0
H287 H 0.83044 0.11274 0.95914 0.0
H288 H 0.8418 0.07493 0.92086 0.0
H289 H 0.86291 0.14049 0.92482 0.0
H290 H 0.8711 0.02201 0.81485 0.0
H291 H 0.92339 0.17931 0.82604 0.0
H292 H 0.73517 0.03945 0.84368 0.0
H293 H 0.78131 0.02358 0.87881 0.0
H294 H 0.79005 0.99249 0.83787 0.0
H295 H 0.79863 0.22993 0.85764 0.0
H296 H 0.87321 0.24206 0.856 0.0
H297 H 0.84594 0.21704 0.89288 0.0
C298 C 0.183 0.74587 0.42877 0.0
C299 C 0.1388 0.7138 0.43623 0.0
C300 C 0.17316 0.78668 0.40776 0.0
C301 C 0.11777 0.79578 0.39386 0.0
C302 C 0.07289 0.76398 0.40157 0.0
C303 C 0.08395 0.72341 0.42251 0.0
C304 C 0.22216 0.81973 0.40013 0.0
C305 C 0.01322 0.77222 0.38721 0.0
C306 C 0.07903 0.92461 0.35904 0.0
C307 C 0.08116 0.91363 0.32424 0.0
C308 C 0.09162 0.88688 0.38209 0.0
C309 C 0.1069 0.83708 0.37005 0.0
C310 C 0.1099 0.82606 0.33499 0.0
C311 C 0.09692 0.86436 0.31257 0.0
C312 C 0.08773 0.90005 0.41928 0.0
C313 C 0.12612 0.77354 0.32109 0.0
H314 H 0.22533 0.73931 0.43953 0.0
H315 H 0.04957 0.69856 0.42753 0.0
H316 H 0.22786 0.81686 0.37266 0.0
H317 H 0.21321 0.86038 0.40725 0.0
H318 H 0.26236 0.8086 0.41367 0.0
H319 H 0.98263 0.74556 0.39683 0.0
H320 H 0.99958 0.81199 0.39352 0.0
H321 H 0.01153 0.76678 0.35933 0.0
H322 H 0.06693 0.96255 0.36829 0.0
H323 H 0.09892 0.85549 0.28575 0.0
H324 H 0.1284 0.8915 0.4332 0.0
H325 H 0.05484 0.87615 0.42919 0.0
H326 H 0.07715 0.94093 0.42468 0.0
H327 H 0.16783 0.76236 0.33267 0.0
H328 H 0.1283 0.77162 0.29327 0.0
H329 H 0.09484 0.74498 0.32759 0.0
loop_
_geom_bond_atom_site_label_1
_geom_bond_atom_site_label_2
_geom_bond_distance
_geom_bond_site_symmetry_2
_ccdc_geom_bond_type
Cu0 N1 1.999 1_554 S
Cu0 O6 1.974 . S
Cu0 N11 1.985 . S
Cu0 O20 1.959 1_554 S
N1 Cu0 1.999 1_556 S
N1 C3 1.263 . S
N1 C5 1.389 . S
N2 C3 1.358 . S
N2 C4 1.400 . S
C3 N1 1.263 . S
C3 N2 1.358 . S
C3 H9 0.930 . S
C4 N2 1.400 . S
C4 C5 1.351 . S
C4 H21 0.930 . S
C5 N1 1.389 . S
C5 C4 1.351 . S
C5 H10 0.930 . S
O6 Cu0 1.974 . S
O6 C16 1.282 . S
C7 O8 1.261 . S
C7 O20 1.251 . S
O8 C7 1.261 . S
H9 C3 0.930 . S
H10 C5 0.930 . S
N11 Cu0 1.985 . S
N11 C13 1.335 . S
N11 C14 1.390 . S
N12 C13 1.345 . S
N12 C15 1.336 . S
C13 N11 1.335 . S
C13 N12 1.345 . S
C13 H18 0.930 . S
C14 N11 1.390 . S
C14 C15 1.346 . S
C14 H19 0.930 . S
C15 N12 1.336 . S
C15 C14 1.346 . S
C15 H22 0.929 . S
C16 O6 1.282 . S
C16 O17 1.216 . S
O17 C16 1.216 . S
H18 C13 0.930 . S
H19 C14 0.930 . S
O20 Cu0 1.959 1_556 S
O20 C7 1.251 . S
H21 C4 0.930 . S
H22 C15 0.929 . S
Cu23 N24 1.999 . S
Cu23 O29 1.974 . S
Cu23 N34 1.985 . S
Cu23 O43 1.959 . S
N24 Cu23 1.999 . S
N24 C26 1.263 . S
N24 C28 1.389 1_455 S
N25 C26 1.358 . S
N25 C27 1.400 1_455 S
C26 N24 1.263 . S
C26 N25 1.358 . S
C26 H32 0.930 . S
C27 N25 1.400 1_655 S
C27 C28 1.351 . S
C27 H44 0.930 . S
C28 N24 1.389 1_655 S
C28 C27 1.351 . S
C28 H33 0.930 . S
O29 Cu23 1.974 . S
O29 C39 1.282 . S
C30 O31 1.261 . S
C30 O43 1.251 . S
O31 C30 1.261 . S
H32 C26 0.930 . S
H33 C28 0.930 . S
N34 Cu23 1.985 . S
N34 C36 1.335 . S
N34 C37 1.390 . S
N35 C36 1.345 . S
N35 C38 1.336 . S
C36 N34 1.335 . S
C36 N35 1.345 . S
C36 H41 0.922 1_455 S
C37 N34 1.390 . S
C37 C38 1.346 . S
C37 H42 0.930 . S
C38 N35 1.336 . S
C38 C37 1.346 . S
C38 H45 0.929 . S
C39 O29 1.282 . S
C39 O40 1.216 . S
O40 C39 1.216 . S
H41 C36 0.922 1_655 S
H42 C37 0.930 . S
O43 Cu23 1.959 . S
O43 C30 1.251 . S
H44 C27 0.930 . S
H45 C38 0.929 . S
O46 Cd47 2.223 . S
O46 C54 1.315 1_465 S
Cd47 O46 2.223 . S
Cd47 O50 2.297 . S
Cd47 O51 2.439 . S
Cd47 O57 2.240 1_565 S
Cd48 O49 2.240 1_455 S
Cd48 O56 2.223 . S
Cd48 O58 2.297 . S
Cd48 O59 2.439 . S
O49 Cd48 2.240 1_655 S
O49 C54 1.279 . S
O50 Cd47 2.297 . S
O50 C52 1.247 . S
O51 Cd47 2.439 . S
O51 C52 1.212 . S
C52 O50 1.247 . S
C52 O51 1.212 . S
C53 O58 1.247 . S
C53 O59 1.208 . S
C54 O46 1.315 1_645 S
C54 O49 1.279 . S
C55 O56 1.315 . S
C55 O57 1.279 . S
O56 Cd48 2.223 . S
O56 C55 1.315 . S
O57 Cd47 2.240 1_545 S
O57 C55 1.279 . S
O58 Cd48 2.297 . S
O58 C53 1.247 . S
O59 Cd48 2.439 . S
O59 C53 1.208 . S
O60 Cd61 2.223 . S
O60 C68 1.315 . S
Cd61 O60 2.223 . S
Cd61 O64 2.297 . S
Cd61 O65 2.439 . S
Cd61 O71 2.240 . S
Cd62 O63 2.240 1_565 S
Cd62 O70 2.223 . S
Cd62 O72 2.297 . S
Cd62 O73 2.439 . S
O63 Cd62 2.240 1_545 S
O63 C68 1.279 . S
O64 Cd61 2.297 . S
O64 C66 1.247 . S
O65 Cd61 2.439 . S
O65 C66 1.208 . S
C66 O64 1.247 . S
C66 O65 1.208 . S
C67 O72 1.247 . S
C67 O73 1.208 . S
C68 O60 1.315 . S
C68 O63 1.279 . S
C69 O70 1.315 1_545 S
C69 O71 1.279 . S
O70 Cd62 2.223 . S
O70 C69 1.315 1_565 S
O71 Cd61 2.240 . S
O71 C69 1.279 . S
O72 Cd62 2.297 . S
O72 C67 1.247 . S
O73 Cd62 2.439 . S
O73 C67 1.208 . S
C74 C75 1.391 . S
C74 C76 1.394 . S
C74 H90 0.931 . S
C75 C74 1.391 . S
C75 C79 1.376 . S
C76 C74 1.394 . S
C76 C77 1.369 . S
C76 C80 1.531 . S
C77 C76 1.369 . S
C77 C78 1.410 . S
C77 C85 1.503 . S
C78 C77 1.410 . S
C78 C79 1.392 . S
C78 C81 1.511 1_545 S
C79 C75 1.376 . S
C79 C78 1.392 . S
C79 H91 0.929 . S
C80 C76 1.531 . S
C80 H92 0.960 . S
C80 H93 0.962 . S
C80 H94 0.960 . S
C81 C78 1.511 1_565 S
C81 H95 0.961 . S
C81 H96 0.961 1_565 S
C81 H97 0.961 . S
C82 C83 1.370 . S
C82 C84 1.363 . S
C82 H98 0.931 . S
C83 C82 1.370 . S
C83 C87 1.408 . S
C84 C82 1.363 . S
C84 C85 1.370 . S
C84 C88 1.524 . S
C85 C77 1.503 . S
C85 C84 1.370 . S
C85 C86 1.403 . S
C86 C85 1.403 . S
C86 C87 1.404 . S
C86 C89 1.539 . S
C87 C83 1.408 . S
C87 C86 1.404 . S
C87 H99 0.930 . S
C88 C84 1.524 . S
C88 H100 0.956 . S
C88 H101 0.961 . S
C88 H102 0.961 . S
C89 C86 1.539 . S
C89 H103 0.958 . S
C89 H104 0.961 . S
C89 H105 0.960 . S
H90 C74 0.931 . S
H91 C79 0.929 . S
H92 C80 0.960 . S
H93 C80 0.962 . S
H94 C80 0.960 . S
H95 C81 0.961 . S
H96 C81 0.961 1_545 S
H97 C81 0.961 . S
H98 C82 0.931 . S
H99 C87 0.930 . S
H100 C88 0.956 . S
H101 C88 0.961 . S
H102 C88 0.961 . S
H103 C89 0.958 . S
H104 C89 0.961 . S
H105 C89 0.960 . S
C106 C107 1.391 1_655 S
C106 C108 1.394 . S
C106 H122 0.931 . S
C107 C106 1.391 1_455 S
C107 C111 1.376 . S
C108 C106 1.394 . S
C108 C109 1.369 1_655 S
C108 C112 1.531 . S
C109 C108 1.369 1_455 S
C109 C110 1.410 . S
C109 C117 1.503 . S
C110 C109 1.410 . S
C110 C111 1.392 . S
C110 C113 1.511 . S
C111 C107 1.376 . S
C111 C110 1.392 . S
C111 H123 0.929 . S
C112 C108 1.531 . S
C112 H124 0.960 . S
C112 H125 0.962 . S
C112 H126 0.960 . S
C113 C110 1.511 . S
C113 H127 0.961 . S
C113 H128 0.961 . S
C113 H129 0.961 . S
C114 C115 1.370 . S
C114 C116 1.363 . S
C114 H130 0.931 . S
C115 C114 1.370 . S
C115 C119 1.408 . S
C116 C114 1.363 . S
C116 C117 1.370 . S
C116 C120 1.524 . S
C117 C109 1.503 . S
C117 C116 1.370 . S
C117 C118 1.403 . S
C118 C117 1.403 . S
C118 C119 1.404 . S
C118 C121 1.539 . S
C119 C115 1.408 . S
C119 C118 1.404 . S
C119 H131 0.930 . S
C120 C116 1.524 . S
C120 H132 0.956 . S
C120 H133 0.961 . S
C120 H134 0.961 . S
C121 C118 1.539 . S
C121 H135 0.958 1_455 S
C121 H136 0.961 . S
C121 H137 0.960 . S
H122 C106 0.931 . S
H123 C111 0.929 . S
H124 C112 0.960 . S
H125 C112 0.962 . S
H126 C112 0.960 . S
H127 C113 0.961 . S
H128 C113 0.961 . S
H129 C113 0.961 . S
H130 C114 0.931 . S
H131 C119 0.930 . S
H132 C120 0.956 . S
H133 C120 0.961 . S
H134 C120 0.961 . S
H135 C121 0.958 1_655 S
H136 C121 0.961 . S
H137 C121 0.960 . S
C138 C139 1.391 . S
C138 C140 1.394 . S
C138 H154 0.931 . S
C139 C138 1.391 . S
C139 C143 1.376 . S
C140 C138 1.394 . S
C140 C141 1.369 . S
C140 C144 1.531 . S
C141 C140 1.369 . S
C141 C142 1.410 . S
C141 C149 1.503 . S
C142 C141 1.410 . S
C142 C143 1.392 . S
C142 C145 1.511 1_545 S
C143 C139 1.376 . S
C143 C142 1.392 . S
C143 H155 0.929 1_545 S
C144 C140 1.531 . S
C144 H156 0.960 . S
C144 H157 0.962 . S
C144 H158 0.960 . S
C145 C142 1.511 1_565 S
C145 H159 0.961 . S
C145 H160 0.961 . S
C145 H161 0.961 . S
C146 C147 1.370 . S
C146 C148 1.363 . S
C146 H162 0.931 . S
C147 C146 1.370 . S
C147 C151 1.408 . S
C148 C146 1.363 . S
C148 C149 1.370 . S
C148 C152 1.524 . S
C149 C141 1.503 . S
C149 C148 1.370 . S
C149 C150 1.403 . S
C150 C149 1.403 . S
C150 C151 1.404 . S
C150 C153 1.539 . S
C151 C147 1.408 . S
C151 C150 1.404 . S
C151 H163 0.930 . S
C152 C148 1.524 . S
C152 H164 0.956 . S
C152 H165 0.961 . S
C152 H166 0.961 . S
C153 C150 1.539 . S
C153 H167 0.958 . S
C153 H168 0.961 . S
C153 H169 0.960 . S
H154 C138 0.931 . S
H155 C143 0.929 1_565 S
H156 C144 0.960 . S
H157 C144 0.962 . S
H158 C144 0.960 . S
H159 C145 0.961 . S
H160 C145 0.961 . S
H161 C145 0.961 . S
H162 C146 0.931 . S
H163 C151 0.930 . S
H164 C152 0.956 . S
H165 C152 0.961 . S
H166 C152 0.961 . S
H167 C153 0.958 . S
H168 C153 0.961 . S
H169 C153 0.960 . S
C170 C171 1.391 . S
C170 C172 1.394 . S
C170 H186 0.931 . S
C171 C170 1.391 . S
C171 C175 1.376 . S
C172 C170 1.394 . S
C172 C173 1.369 . S
C172 C176 1.531 . S
C173 C172 1.369 . S
C173 C174 1.410 . S
C173 C181 1.503 . S
C174 C173 1.410 . S
C174 C175 1.392 . S
C174 C177 1.511 1_455 S
C175 C171 1.376 . S
C175 C174 1.392 . S
C175 H187 0.929 1_455 S
C176 C172 1.531 . S
C176 H188 0.960 . S
C176 H189 0.962 . S
C176 H190 0.960 . S
C177 C174 1.511 1_655 S
C177 H191 0.961 . S
C177 H192 0.961 . S
C177 H193 0.961 . S
C178 C179 1.370 . S
C178 C180 1.363 . S
C178 H194 0.931 . S
C179 C178 1.370 . S
C179 C183 1.408 . S
C180 C178 1.363 . S
C180 C181 1.370 . S
C180 C184 1.524 . S
C181 C173 1.503 . S
C181 C180 1.370 . S
C181 C182 1.403 . S
C182 C181 1.403 . S
C182 C183 1.404 . S
C182 C185 1.539 . S
C183 C179 1.408 . S
C183 C182 1.404 . S
C183 H195 0.930 . S
C184 C180 1.524 . S
C184 H196 0.956 . S
C184 H197 0.961 . S
C184 H198 0.961 . S
C185 C182 1.539 . S
C185 H199 0.958 . S
C185 H200 0.961 1_455 S
C185 H201 0.960 . S
H186 C170 0.931 . S
H187 C175 0.929 1_655 S
H188 C176 0.960 . S
H189 C176 0.962 . S
H190 C176 0.960 . S
H191 C177 0.961 . S
H192 C177 0.961 . S
H193 C177 0.961 . S
H194 C178 0.931 . S
H195 C183 0.930 . S
H196 C184 0.956 . S
H197 C184 0.961 . S
H198 C184 0.961 . S
H199 C185 0.958 . S
H200 C185 0.961 1_655 S
H201 C185 0.960 . S
C202 C203 1.391 . S
C202 C204 1.394 . S
C202 H218 0.931 . S
C203 C202 1.391 . S
C203 C207 1.376 . S
C204 C202 1.394 . S
C204 C205 1.369 . S
C204 C208 1.531 . S
C205 C204 1.369 . S
C205 C206 1.410 . S
C205 C213 1.503 . S
C206 C205 1.410 . S
C206 C207 1.392 . S
C206 C209 1.511 . S
C207 C203 1.376 . S
C207 C206 1.392 . S
C207 H219 0.929 . S
C208 C204 1.531 . S
C208 H220 0.960 1_545 S
C208 H221 0.962 . S
C208 H222 0.960 1_545 S
C209 C206 1.511 . S
C209 H223 0.961 . S
C209 H224 0.961 . S
C209 H225 0.961 . S
C210 C211 1.370 . S
C210 C212 1.363 . S
C210 H226 0.931 . S
C211 C210 1.370 . S
C211 C215 1.408 1_545 S
C212 C210 1.363 . S
C212 C213 1.370 . S
C212 C216 1.524 . S
C213 C205 1.503 . S
C213 C212 1.370 . S
C213 C214 1.403 1_545 S
C214 C213 1.403 1_565 S
C214 C215 1.404 . S
C214 C217 1.539 . S
C215 C211 1.408 1_565 S
C215 C214 1.404 . S
C215 H227 0.930 . S
C216 C212 1.524 . S
C216 H228 0.956 . S
C216 H229 0.961 . S
C216 H230 0.961 . S
C217 C214 1.539 . S
C217 H231 0.958 . S
C217 H232 0.961 . S
C217 H233 0.960 . S
H218 C202 0.931 . S
H219 C207 0.929 . S
H220 C208 0.960 1_565 S
H221 C208 0.962 . S
H222 C208 0.960 1_565 S
H223 C209 0.961 . S
H224 C209 0.961 . S
H225 C209 0.961 . S
H226 C210 0.931 . S
H227 C215 0.930 . S
H228 C216 0.956 . S
H229 C216 0.961 . S
H230 C216 0.961 . S
H231 C217 0.958 . S
H232 C217 0.961 . S
H233 C217 0.960 . S
C234 C235 1.391 . S
C234 C236 1.394 . S
C234 H250 0.932 . S
C235 C234 1.391 . S
C235 C239 1.376 . S
C236 C234 1.394 . S
C236 C237 1.369 . S
C236 C240 1.531 1_455 S
C237 C236 1.369 . S
C237 C238 1.410 . S
C237 C245 1.503 . S
C238 C237 1.410 . S
C238 C239 1.392 . S
C238 C241 1.511 . S
C239 C235 1.376 . S
C239 C238 1.392 . S
C239 H251 0.929 . S
C240 C236 1.531 1_655 S
C240 H252 0.960 . S
C240 H253 0.962 1_655 S
C240 H254 0.960 . S
C241 C238 1.511 . S
C241 H255 0.961 . S
C241 H256 0.961 . S
C241 H257 0.961 . S
C242 C243 1.370 . S
C242 C244 1.363 . S
C242 H258 0.931 . S
C243 C242 1.370 . S
C243 C247 1.408 . S
C244 C242 1.363 . S
C244 C245 1.370 . S
C244 C248 1.524 . S
C245 C237 1.503 . S
C245 C244 1.370 . S
C245 C246 1.403 . S
C246 C245 1.403 . S
C246 C247 1.404 . S
C246 C249 1.539 1_455 S
C247 C243 1.408 . S
C247 C246 1.404 . S
C247 H259 0.930 . S
C248 C244 1.524 . S
C248 H260 0.956 . S
C248 H261 0.961 . S
C248 H262 0.961 . S
C249 C246 1.539 1_655 S
C249 H263 0.958 . S
C249 H264 0.961 . S
C249 H265 0.956 1_655 S
H250 C234 0.932 . S
H251 C239 0.929 . S
H252 C240 0.960 . S
H253 C240 0.962 1_455 S
H254 C240 0.960 . S
H255 C241 0.961 . S
H256 C241 0.961 . S
H257 C241 0.961 . S
H258 C242 0.931 . S
H259 C247 0.930 . S
H260 C248 0.956 . S
H261 C248 0.961 . S
H262 C248 0.961 . S
H263 C249 0.958 . S
H264 C249 0.961 . S
H265 C249 0.956 1_455 S
C266 C267 1.391 . S
C266 C268 1.394 . S
C266 H282 0.931 . S
C267 C266 1.391 . S
C267 C271 1.376 . S
C268 C266 1.394 . S
C268 C269 1.369 . S
C268 C272 1.531 . S
C269 C268 1.369 . S
C269 C270 1.410 . S
C269 C277 1.503 . S
C270 C269 1.410 . S
C270 C271 1.392 . S
C270 C273 1.511 . S
C271 C267 1.376 . S
C271 C270 1.392 . S
C271 H283 0.929 . S
C272 C268 1.531 . S
C272 H284 0.960 . S
C272 H285 0.962 . S
C272 H286 0.960 . S
C273 C270 1.511 . S
C273 H287 0.961 . S
C273 H288 0.961 . S
C273 H289 0.961 . S
C274 C275 1.370 . S
C274 C276 1.363 . S
C274 H290 0.931 . S
C275 C274 1.370 . S
C275 C279 1.408 . S
C276 C274 1.363 . S
C276 C277 1.370 . S
C276 C280 1.524 1_545 S
C277 C269 1.503 . S
C277 C276 1.370 . S
C277 C278 1.403 . S
C278 C277 1.403 . S
C278 C279 1.404 . S
C278 C281 1.539 . S
C279 C275 1.408 . S
C279 C278 1.404 . S
C279 H291 0.930 . S
C280 C276 1.524 1_565 S
C280 H292 0.956 . S
C280 H293 0.961 . S
C280 H294 0.961 . S
C281 C278 1.539 . S
C281 H295 0.958 . S
C281 H296 0.961 . S
C281 H297 0.960 . S
H282 C266 0.931 . S
H283 C271 0.929 . S
H284 C272 0.960 . S
H285 C272 0.962 . S
H286 C272 0.960 . S
H287 C273 0.961 . S
H288 C273 0.961 . S
H289 C273 0.961 . S
H290 C274 0.931 . S
H291 C279 0.930 . S
H292 C280 0.956 . S
H293 C280 0.961 . S
H294 C280 0.961 . S
H295 C281 0.958 . S
H296 C281 0.961 . S
H297 C281 0.960 . S
C298 C299 1.391 . S
C298 C300 1.394 . S
C298 H314 0.931 . S
C299 C298 1.391 . S
C299 C303 1.376 . S
C300 C298 1.394 . S
C300 C301 1.369 . S
C300 C304 1.531 . S
C301 C300 1.369 . S
C301 C302 1.410 . S
C301 C309 1.503 . S
C302 C301 1.410 . S
C302 C303 1.392 . S
C302 C305 1.511 . S
C303 C299 1.376 . S
C303 C302 1.392 . S
C303 H315 0.929 . S
C304 C300 1.531 . S
C304 H316 0.960 . S
C304 H317 0.962 . S
C304 H318 0.960 . S
C305 C302 1.511 . S
C305 H319 0.961 1_455 S
C305 H320 0.961 1_455 S
C305 H321 0.961 . S
C306 C307 1.370 1_655 S
C306 C308 1.363 . S
C306 H322 0.931 . S
C307 C306 1.370 1_455 S
C307 C311 1.408 . S
C308 C306 1.363 . S
C308 C309 1.370 1_655 S
C308 C312 1.524 . S
C309 C301 1.503 . S
C309 C308 1.370 1_455 S
C309 C310 1.403 . S
C310 C309 1.403 . S
C310 C311 1.404 . S
C310 C313 1.539 . S
C311 C307 1.408 . S
C311 C310 1.404 . S
C311 H323 0.930 . S
C312 C308 1.524 . S
C312 H324 0.956 . S
C312 H325 0.961 . S
C312 H326 0.961 . S
C313 C310 1.539 . S
C313 H327 0.958 . S
C313 H328 0.961 . S
C313 H329 0.960 . S
H314 C298 0.931 . S
H315 C303 0.929 . S
H316 C304 0.960 . S
H317 C304 0.962 . S
H318 C304 0.960 . S
H319 C305 0.961 1_655 S
H320 C305 0.961 1_655 S
H321 C305 0.961 . S
H322 C306 0.931 . S
H323 C311 0.930 . S
H324 C312 0.956 . S
H325 C312 0.961 . S
H326 C312 0.961 . S
H327 C313 0.958 . S
H328 C313 0.961 . S
H329 C313 0.960 . S
C83 C55 1.552 . S
C75 N12 1.526 . S
C115 C66 1.533 . S
C107 N25 1.550 . S
C147 C54 1.552 . S
C139 C16 1.526 . S
C179 C67 1.531 . S
C171 C30 1.596 . S
C211 C69 1.594 . S
C203 C7 1.586 . S
C243 C53 1.472 . S
C235 C39 1.537 . S
C275 C68 1.580 1_655 S
C267 N2 1.518 . S
C299 N35 1.493 . S
C307 C52 1.481 . S
