# Generated by pormake.
# Topology soc, (4,6)-cn, num edge types: 1
# Building blocks:
#     Node 0, Type 0, BuildingBlock: ESEHIV_clean_sbu_0, # of connection points: 4
#     Node 1, Type 0, BuildingBlock: ESEHIV_clean_sbu_0, # of connection points: 4
#     Node 2, Type 0, BuildingBlock: ESEHIV_clean_sbu_0, # of connection points: 4
#     Node 3, Type 0, BuildingBlock: ESEHIV_clean_sbu_0, # of connection points: 4
#     Node 4, Type 0, BuildingBlock: ESEHIV_clean_sbu_0, # of connection points: 4
#     Node 5, Type 0, BuildingBlock: ESEHIV_clean_sbu_0, # of connection points: 4
#     Node 6, Type 0, BuildingBlock: ESEHIV_clean_sbu_0, # of connection points: 4
#     Node 7, Type 0, BuildingBlock: ESEHIV_clean_sbu_0, # of connection points: 4
#     Node 8, Type 0, BuildingBlock: ESEHIV_clean_sbu_0, # of connection points: 4
#     Node 9, Type 0, BuildingBlock: ESEHIV_clean_sbu_0, # of connection points: 4
#     Node 10, Type 0, BuildingBlock: ESEHIV_clean_sbu_0, # of connection points: 4
#     Node 11, Type 0, BuildingBlock: ESEHIV_clean_sbu_0, # of connection points: 4
#     Node 12, Type 1, BuildingBlock: BETFAJ_clean_sbu_0, # of connection points: 6
#     Node 13, Type 1, BuildingBlock: BETFAJ_clean_sbu_0, # of connection points: 6
#     Node 14, Type 1, BuildingBlock: BETFAJ_clean_sbu_0, # of connection points: 6
#     Node 15, Type 1, BuildingBlock: BETFAJ_clean_sbu_0, # of connection points: 6
#     Node 16, Type 1, BuildingBlock: BETFAJ_clean_sbu_0, # of connection points: 6
#     Node 17, Type 1, BuildingBlock: BETFAJ_clean_sbu_0, # of connection points: 6
#     Node 18, Type 1, BuildingBlock: BETFAJ_clean_sbu_0, # of connection points: 6
#     Node 19, Type 1, BuildingBlock: BETFAJ_clean_sbu_0, # of connection points: 6
#     Edge 20, Type (0, 1), BuildingBlock: TEMPAE_clean_linker_10, # of connection points: 2
#     Edge 21, Type (0, 1), BuildingBlock: TEMPAE_clean_linker_10, # of connection points: 2
#     Edge 22, Type (0, 1), BuildingBlock: TEMPAE_clean_linker_10, # of connection points: 2
#     Edge 23, Type (0, 1), BuildingBlock: TEMPAE_clean_linker_10, # of connection points: 2
#     Edge 24, Type (0, 1), BuildingBlock: TEMPAE_clean_linker_10, # of connection points: 2
#     Edge 25, Type (0, 1), BuildingBlock: TEMPAE_clean_linker_10, # of connection points: 2
#     Edge 26, Type (0, 1), BuildingBlock: TEMPAE_clean_linker_10, # of connection points: 2
#     Edge 27, Type (0, 1), BuildingBlock: TEMPAE_clean_linker_10, # of connection points: 2
#     Edge 28, Type (0, 1), BuildingBlock: TEMPAE_clean_linker_10, # of connection points: 2
#     Edge 29, Type (0, 1), BuildingBlock: TEMPAE_clean_linker_10, # of connection points: 2
#     Edge 30, Type (0, 1), BuildingBlock: TEMPAE_clean_linker_10, # of connection points: 2
#     Edge 31, Type (0, 1), BuildingBlock: TEMPAE_clean_linker_10, # of connection points: 2
#     Edge 32, Type (0, 1), BuildingBlock: TEMPAE_clean_linker_10, # of connection points: 2
#     Edge 33, Type (0, 1), BuildingBlock: TEMPAE_clean_linker_10, # of connection points: 2
#     Edge 34, Type (0, 1), BuildingBlock: TEMPAE_clean_linker_10, # of connection points: 2
#     Edge 35, Type (0, 1), BuildingBlock: TEMPAE_clean_linker_10, # of connection points: 2
#     Edge 36, Type (0, 1), BuildingBlock: TEMPAE_clean_linker_10, # of connection points: 2
#     Edge 37, Type (0, 1), BuildingBlock: TEMPAE_clean_linker_10, # of connection points: 2
#     Edge 38, Type (0, 1), BuildingBlock: TEMPAE_clean_linker_10, # of connection points: 2
#     Edge 39, Type (0, 1), BuildingBlock: TEMPAE_clean_linker_10, # of connection points: 2
#     Edge 40, Type (0, 1), BuildingBlock: TEMPAE_clean_linker_10, # of connection points: 2
#     Edge 41, Type (0, 1), BuildingBlock: TEMPAE_clean_linker_10, # of connection points: 2
#     Edge 42, Type (0, 1), BuildingBlock: TEMPAE_clean_linker_10, # of connection points: 2
#     Edge 43, Type (0, 1), BuildingBlock: TEMPAE_clean_linker_10, # of connection points: 2
#     Edge 44, Type (0, 1), BuildingBlock: TEMPAE_clean_linker_10, # of connection points: 2
#     Edge 45, Type (0, 1), BuildingBlock: TEMPAE_clean_linker_10, # of connection points: 2
#     Edge 46, Type (0, 1), BuildingBlock: TEMPAE_clean_linker_10, # of connection points: 2
#     Edge 47, Type (0, 1), BuildingBlock: TEMPAE_clean_linker_10, # of connection points: 2
#     Edge 48, Type (0, 1), BuildingBlock: TEMPAE_clean_linker_10, # of connection points: 2
#     Edge 49, Type (0, 1), BuildingBlock: TEMPAE_clean_linker_10, # of connection points: 2
#     Edge 50, Type (0, 1), BuildingBlock: TEMPAE_clean_linker_10, # of connection points: 2
#     Edge 51, Type (0, 1), BuildingBlock: TEMPAE_clean_linker_10, # of connection points: 2
#     Edge 52, Type (0, 1), BuildingBlock: TEMPAE_clean_linker_10, # of connection points: 2
#     Edge 53, Type (0, 1), BuildingBlock: TEMPAE_clean_linker_10, # of connection points: 2
#     Edge 54, Type (0, 1), BuildingBlock: TEMPAE_clean_linker_10, # of connection points: 2
#     Edge 55, Type (0, 1), BuildingBlock: TEMPAE_clean_linker_10, # of connection points: 2
#     Edge 56, Type (0, 1), BuildingBlock: TEMPAE_clean_linker_10, # of connection points: 2
#     Edge 57, Type (0, 1), BuildingBlock: TEMPAE_clean_linker_10, # of connection points: 2
#     Edge 58, Type (0, 1), BuildingBlock: TEMPAE_clean_linker_10, # of connection points: 2
#     Edge 59, Type (0, 1), BuildingBlock: TEMPAE_clean_linker_10, # of connection points: 2
#     Edge 60, Type (0, 1), BuildingBlock: TEMPAE_clean_linker_10, # of connection points: 2
#     Edge 61, Type (0, 1), BuildingBlock: TEMPAE_clean_linker_10, # of connection points: 2
#     Edge 62, Type (0, 1), BuildingBlock: TEMPAE_clean_linker_10, # of connection points: 2
#     Edge 63, Type (0, 1), BuildingBlock: TEMPAE_clean_linker_10, # of connection points: 2
#     Edge 64, Type (0, 1), BuildingBlock: TEMPAE_clean_linker_10, # of connection points: 2
#     Edge 65, Type (0, 1), BuildingBlock: TEMPAE_clean_linker_10, # of connection points: 2
#     Edge 66, Type (0, 1), BuildingBlock: TEMPAE_clean_linker_10, # of connection points: 2
#     Edge 67, Type (0, 1), BuildingBlock: TEMPAE_clean_linker_10, # of connection points: 2
# Relax obj value: 0.186
# Max RMSD: 0.282
# Mean RMSD: 0.175
data_MOF--net-soc--node1-ESEHIV_clean_sbu_0--node2-BETFAJ_clean_sbu_0--edge1-TEMPAE_clean_linker_10
_symmetry_space_group_name_H-M    P1
_symmetry_Int_Tables_number       1
_symmetry_cell_setting            triclinic
loop_
_symmetry_equiv_pos_as_xyz
'x, y, z'
_cell_length_a     52.198037
_cell_length_b     50.371072
_cell_length_c     44.70773
_cell_angle_alpha  82.391824
_cell_angle_beta   83.319499
_cell_angle_gamma 70.099079
loop_
_atom_site_label
_atom_site_type_symbol
_atom_site_fract_x
_atom_site_fract_y
_atom_site_fract_z
_atom_type_partial_charge
Cu0 Cu 0.04219 0.02897 0.38001 0.0
N1 N 0.05479 0.04878 0.40426 0.0
N2 N 0.07723 0.07499 0.41883 0.0
C3 C 0.07701 0.05705 0.39905 0.0
C4 C 0.05441 0.07789 0.4375 0.0
C5 C 0.04068 0.06162 0.42851 0.0
O6 O 0.07255 1.00173 0.35778 0.0
C7 C 1.01076 0.08213 0.34927 0.0
O8 O 0.0324 0.08955 0.35042 0.0
H9 H 0.09184 0.05167 0.38007 0.0
H10 H 0.02105 0.06036 0.438 0.0
N11 N 0.02664 1.0054 0.40544 0.0
N12 N 1.00312 0.97547 0.41773 0.0
C13 C 1.00557 0.998 0.39918 0.0
C14 C 0.03783 0.98708 0.4289 0.0
C15 C 0.02337 0.96844 0.43648 0.0
C16 C 0.09322 1.00519 0.34172 0.0
O17 O 0.09432 0.03086 0.33411 0.0
H18 H 0.99392 1.00722 0.37964 0.0
H19 H 0.05641 0.98602 0.43824 0.0
O20 O 1.01207 0.05652 0.35788 0.0
H21 H 0.04764 0.09157 0.45562 0.0
H22 H 0.02825 0.95022 0.45325 0.0
Cu23 Cu 0.04762 0.04594 0.72882 0.0
N24 N 0.03324 0.02785 0.7045 0.0
N25 N 1.00729 1.00457 0.69167 0.0
C26 C 1.01019 0.02121 0.71141 0.0
C27 C 0.02927 1.00055 0.67155 0.0
C28 C 0.04516 0.01515 0.67939 0.0
O29 O 1.01679 0.07283 0.75083 0.0
C30 C 0.09794 1.00411 0.73636 0.0
O31 O 0.09999 0.01303 0.70751 0.0
H32 H 0.99675 0.02692 0.73158 0.0
H33 H 0.06465 0.01537 0.66834 0.0
N34 N 0.06539 0.06897 0.7056 0.0
N35 N 0.0883 0.09977 0.6969 0.0
C36 C 0.07902 0.08263 0.71779 0.0
C37 C 0.06606 0.07752 0.67579 0.0
C38 C 0.08033 0.09652 0.67032 0.0
C39 C 1.00143 0.09208 0.73292 0.0
O40 O 1.0067 0.09015 0.70368 0.0
H41 H 0.08199 0.07986 0.7417 0.0
H42 H 0.05633 0.071 0.65938 0.0
O43 O 0.07572 0.01603 0.75198 0.0
H44 H 0.03394 0.98719 0.65322 0.0
H45 H 0.08393 0.10753 0.64861 0.0
Cu46 Cu 0.30691 0.05933 0.10581 0.0
N47 N 0.32239 0.02548 0.08924 0.0
N48 N 0.32047 0.99299 0.06143 0.0
C49 C 0.30641 0.01312 0.07955 0.0
C50 C 0.34675 0.99199 0.06029 0.0
C51 C 0.34786 0.01242 0.0775 0.0
O52 O 0.27136 0.05977 0.12653 0.0
C53 C 0.29242 0.09282 0.04765 0.0
O54 O 0.27883 0.07564 0.04518 0.0
H55 H 0.28442 0.02038 0.08397 0.0
H56 H 0.36536 0.01884 0.07923 0.0
N57 N 0.32761 0.0646 0.1341 0.0
N58 N 0.33912 0.08814 0.1664 0.0
C59 C 0.32375 0.09004 0.14342 0.0
C60 C 0.34621 0.0457 0.15152 0.0
C61 C 0.35345 0.06021 0.17147 0.0
C62 C 0.25823 0.0456 0.14419 0.0
O63 O 0.23213 0.05919 0.15036 0.0
H64 H 0.30942 0.10949 0.13376 0.0
H65 H 0.35325 0.02298 0.15051 0.0
O66 O 0.30437 0.08999 0.07191 0.0
H67 H 0.36339 0.97927 0.04603 0.0
H68 H 0.36726 0.05073 0.18916 0.0
Cu69 Cu 0.07581 0.30833 0.10701 0.0
N70 N 0.09158 0.33018 0.07792 0.0
N71 N 0.11568 0.34042 0.03569 0.0
C72 C 0.11017 0.31972 0.05507 0.0
C73 C 0.09979 0.36494 0.04667 0.0
C74 C 0.08501 0.35857 0.07274 0.0
O75 O 0.10183 0.29081 0.13903 0.0
C76 C 0.04594 0.30253 0.06396 0.0
O77 O 0.0413 0.32994 0.06311 0.0
H78 H 0.11872 0.29734 0.05207 0.0
H79 H 0.06993 0.37358 0.0864 0.0
N80 N 0.04388 0.32996 0.12843 0.0
N81 N 1.00368 0.33813 0.15606 0.0
C82 C 1.02059 0.32342 0.13425 0.0
C83 C 0.04155 0.34954 0.14727 0.0
C84 C 1.01682 0.35458 0.16436 0.0
C85 C 0.12789 0.284 0.13556 0.0
O86 O 0.13988 0.28287 0.10805 0.0
H87 H 1.01707 0.3065 0.12453 0.0
H88 H 0.05752 0.35801 0.14993 0.0
O89 O 0.06229 0.28605 0.08308 0.0
H90 H 0.0988 0.38596 0.03649 0.0
H91 H 1.00959 0.3683 0.18244 0.0
Cu92 Cu 0.80183 1.00226 0.0119 0.0
N93 N 0.82282 0.0168 0.98142 0.0
N94 N 0.83054 0.05054 0.94732 0.0
C95 C 0.81569 0.04477 0.97242 0.0
C96 C 0.84769 0.0251 0.93976 0.0
C97 C 0.84291 1.00423 0.96095 0.0
O98 O 0.78172 0.03463 0.03417 0.0
C99 C 0.7953 0.96168 0.98209 0.0
O100 O 0.82107 0.95103 0.98814 0.0
H101 H 0.79872 0.06065 0.98304 0.0
H102 H 0.85257 0.98156 0.96063 0.0
N103 N 0.82092 0.97446 0.041 0.0
N104 N 0.82564 0.94423 0.08313 0.0
C105 C 0.80805 0.96339 0.0646 0.0
C106 C 0.84777 0.96202 0.04455 0.0
C107 C 0.85075 0.94332 0.07059 0.0
C108 C 0.79848 0.04373 0.04478 0.0
O109 O 0.82476 0.02967 0.04111 0.0
H110 H 0.78602 0.96971 0.0682 0.0
H111 H 0.86395 0.96624 0.02936 0.0
O112 O 0.78097 0.98554 0.99144 0.0
H113 H 0.86219 0.02181 0.92009 0.0
H114 H 0.86991 0.92979 0.07925 0.0
Cu115 Cu 0.02938 0.75797 1.00683 0.0
N116 N 1.01207 0.7436 0.98104 0.0
N117 N 0.98326 0.74109 0.9486 0.0
C118 C 0.98834 0.7571 0.96781 0.0
C119 C 1.00463 0.71665 0.94991 0.0
C120 C 0.02225 0.71827 0.96981 0.0
O121 O 1.00169 0.77679 0.03938 0.0
C122 C 0.06872 0.78912 0.98533 0.0
O123 O 0.06687 0.79607 0.01302 0.0
H124 H 0.97542 0.77847 0.97166 0.0
H125 H 0.04143 0.70224 0.97537 0.0
N126 N 0.05497 0.72873 0.02919 0.0
N127 N 0.08954 0.71461 0.05958 0.0
C128 C 0.07986 0.72943 0.03351 0.0
C129 C 0.04923 0.71154 0.05275 0.0
C130 C 0.07047 0.70277 0.07146 0.0
C131 C 0.98316 0.76578 0.05013 0.0
O132 O 0.98115 0.74479 0.03708 0.0
H133 H 0.08934 0.7432 0.0198 0.0
H134 H 0.02969 0.70832 0.05793 0.0
O135 O 0.05226 0.77715 0.9788 0.0
H136 H 1.00731 0.69875 0.93745 0.0
H137 H 0.07056 0.69078 0.09342 0.0
Cu138 Cu 0.54236 0.52105 0.88828 0.0
N139 N 0.5569 0.54244 0.90777 0.0
N140 N 0.58297 0.56685 0.91755 0.0
C141 C 0.57695 0.55301 0.89692 0.0
C142 C 0.56599 0.5649 0.94231 0.0
C143 C 0.54998 0.54976 0.93621 0.0
O144 O 0.57228 0.49166 0.8684 0.0
C145 C 0.50802 0.5695 0.85081 0.0
O146 O 0.52978 0.57707 0.84296 0.0
H147 H 0.58654 0.55106 0.87418 0.0
H148 H 0.53444 0.54435 0.95145 0.0
N149 N 0.52812 0.49941 0.91775 0.0
N150 N 0.5058 0.46901 0.93381 0.0
C151 C 0.50669 0.49146 0.91424 0.0
C152 C 0.54115 0.48163 0.94058 0.0
C153 C 0.52742 0.46266 0.95049 0.0
C154 C 0.59087 0.49284 0.84759 0.0
O155 O 0.58965 0.51727 0.8322 0.0
H156 H 0.49412 0.49958 0.89526 0.0
H157 H 0.56073 0.48065 0.9473 0.0
O158 O 0.51042 0.54604 0.86696 0.0
H159 H 0.56532 0.57359 0.96338 0.0
H160 H 0.53411 0.4442 0.96671 0.0
Cu161 Cu 0.55497 0.55161 0.22897 0.0
N162 N 0.53968 0.53312 0.20627 0.0
N163 N 0.51308 0.50899 0.19705 0.0
C164 C 0.51811 0.5247 0.21639 0.0
C165 C 0.53234 0.50743 0.17377 0.0
C166 C 0.54874 0.52242 0.17952 0.0
O167 O 0.52448 0.57898 0.25083 0.0
C168 C 0.60486 0.5088 0.2381 0.0
O169 O 0.609 0.51741 0.20949 0.0
H170 H 0.50717 0.52886 0.2383 0.0
H171 H 0.56654 0.52451 0.16575 0.0
N172 N 0.57355 0.57345 0.2049 0.0
N173 N 0.60155 0.59903 0.19414 0.0
C174 C 0.59234 0.58199 0.2152 0.0
C175 C 0.57052 0.58561 0.17627 0.0
C176 C 0.58781 0.60154 0.16956 0.0
C177 C 0.50609 0.59528 0.23388 0.0
O178 O 0.50903 0.5918 0.20492 0.0
H179 H 0.59859 0.57633 0.23809 0.0
H180 H 0.55646 0.58345 0.16154 0.0
O181 O 0.58209 0.52119 0.25251 0.0
H182 H 0.53474 0.49584 0.15433 0.0
H183 H 0.59009 0.61394 0.14835 0.0
Cu184 Cu 0.78664 0.57799 0.58224 0.0
N185 N 0.78781 0.60249 0.54675 0.0
N186 N 0.79561 0.62531 0.50193 0.0
C187 C 0.80668 0.60431 0.52375 0.0
C188 C 0.76925 0.63713 0.51188 0.0
C189 C 0.76461 0.62318 0.53927 0.0
O190 O 0.77933 0.60141 0.61586 0.0
C191 C 0.75863 0.55367 0.55202 0.0
O192 O 0.7755 0.55948 0.53009 0.0
H193 H 0.82768 0.5903 0.52265 0.0
H194 H 0.74534 0.62744 0.55282 0.0
N195 N 0.81758 0.5461 0.59031 0.0
N196 N 0.83548 0.50333 0.61579 0.0
C197 C 0.81483 0.52053 0.59962 0.0
C198 C 0.84132 0.54474 0.6006 0.0
C199 C 0.85232 0.51842 0.61643 0.0
C200 C 0.79602 0.61487 0.61633 0.0
O201 O 0.81553 0.61261 0.59446 0.0
H202 H 0.79627 0.51597 0.59823 0.0
H203 H 0.84872 0.56243 0.59968 0.0
O204 O 0.75852 0.56126 0.57818 0.0
H205 H 0.75439 0.65493 0.50026 0.0
H206 H 0.87006 0.51181 0.62945 0.0
Cu207 Cu 0.5752 0.80341 0.5929 0.0
N208 N 0.60641 0.78435 0.56689 0.0
N209 N 0.64069 0.77781 0.52944 0.0
C210 C 0.6166 0.79576 0.54079 0.0
C211 C 0.64568 0.75422 0.54921 0.0
C212 C 0.62476 0.75824 0.57196 0.0
O213 O 0.58913 0.82177 0.62051 0.0
C214 C 0.54322 0.81456 0.54662 0.0
O215 O 0.55818 0.78782 0.54508 0.0
H216 H 0.60696 0.8172 0.53086 0.0
H217 H 0.6235 0.7433 0.59132 0.0
N218 N 0.55534 0.78151 0.61713 0.0
N219 N 0.51991 0.77209 0.64564 0.0
C220 C 0.52929 0.79226 0.62955 0.0
C221 C 0.56265 0.75346 0.62553 0.0
C222 C 0.54109 0.74766 0.64299 0.0
C223 C 0.60661 0.80463 0.6379 0.0
O224 O 0.61254 0.77725 0.63687 0.0
H225 H 0.51754 0.81463 0.62699 0.0
H226 H 0.58223 0.73819 0.61935 0.0
O227 O 0.54772 0.82807 0.56651 0.0
H228 H 0.66335 0.73527 0.54747 0.0
H229 H 0.54101 0.7268 0.65256 0.0
Cu230 Cu 0.30123 0.50293 0.52199 0.0
N231 N 0.32113 0.5205 0.49186 0.0
N232 N 0.3283 0.55678 0.46023 0.0
C233 C 0.31113 0.54838 0.4815 0.0
C234 C 0.35009 0.53296 0.45702 0.0
C235 C 0.34569 0.51077 0.47651 0.0
O236 O 0.28504 0.5334 0.54724 0.0
C237 C 0.29148 0.46979 0.48617 0.0
O238 O 0.31817 0.46081 0.48706 0.0
H239 H 0.29129 0.56225 0.48934 0.0
H240 H 0.35947 0.48916 0.47925 0.0
N241 N 0.31946 0.47077 0.54877 0.0
N242 N 0.32434 0.43709 0.58877 0.0
C243 C 0.30715 0.46057 0.57391 0.0
C244 C 0.34544 0.45318 0.54754 0.0
C245 C 0.34849 0.43257 0.5719 0.0
C246 C 0.30488 0.53793 0.55732 0.0
O247 O 0.3296 0.51961 0.55339 0.0
H248 H 0.28583 0.47041 0.58097 0.0
H249 H 0.36104 0.45501 0.53 0.0
O250 O 0.27742 0.49082 0.50068 0.0
H251 H 0.36819 0.53165 0.44197 0.0
H252 H 0.36722 0.41538 0.57631 0.0
Cu253 Cu 0.51677 0.26914 0.51992 0.0
N254 N 0.54911 0.24975 0.49693 0.0
N255 N 0.59023 0.24287 0.47144 0.0
C256 C 0.56751 0.26194 0.4834 0.0
C257 C 0.58596 0.21771 0.47738 0.0
C258 C 0.56064 0.22199 0.49289 0.0
O259 O 0.52978 0.29224 0.54318 0.0
C260 C 0.48301 0.27153 0.47462 0.0
O261 O 0.49906 0.24494 0.47611 0.0
H262 H 0.56475 0.28424 0.48345 0.0
H263 H 0.5517 0.20575 0.50087 0.0
N264 N 0.50308 0.24592 0.54987 0.0
N265 N 0.48058 0.23418 0.59284 0.0
C266 C 0.4862 0.25541 0.57438 0.0
C267 C 0.50795 0.21769 0.55288 0.0
C268 C 0.49431 0.21042 0.57931 0.0
C269 C 0.54744 0.27655 0.5614 0.0
O270 O 0.55353 0.24891 0.56245 0.0
H271 H 0.47865 0.27745 0.57888 0.0
H272 H 0.52042 0.20318 0.53714 0.0
O273 O 0.48714 0.28779 0.49197 0.0
H274 H 0.60019 0.19761 0.47104 0.0
H275 H 0.49419 0.18929 0.5877 0.0
Sm276 Sm 0.27144 0.28385 0.34392 0.0
Sm277 Sm 0.30359 0.31627 0.29169 0.0
C278 C 0.23687 0.26029 0.37442 0.0
C279 C 0.22344 0.23879 0.37386 0.0
C280 C 0.19787 0.24603 0.36204 0.0
C281 C 0.18389 0.22638 0.36523 0.0
C282 C 0.19514 0.1992 0.38047 0.0
C283 C 0.22115 0.1917 0.39123 0.0
C284 C 0.23505 0.21128 0.38809 0.0
C285 C 0.31824 0.28779 0.36541 0.0
C286 C 0.3127 0.24865 0.28976 0.0
C287 C 0.33844 0.33938 0.26095 0.0
C288 C 0.35388 0.35919 0.26122 0.0
C289 C 0.38159 0.34889 0.26721 0.0
C290 C 0.39726 0.36699 0.26275 0.0
C291 C 0.3856 0.39571 0.25195 0.0
C292 C 0.35762 0.40623 0.24723 0.0
C293 C 0.34197 0.38819 0.25173 0.0
C294 C 0.25715 0.31158 0.27021 0.0
C295 C 0.26241 0.35113 0.34642 0.0
O296 O 0.22877 0.28423 0.35685 0.0
O297 O 0.26329 0.25071 0.37708 0.0
O298 O 0.3094 0.29653 0.3395 0.0
O299 O 0.30189 0.2757 0.38087 0.0
O300 O 0.29268 0.25004 0.31126 0.0
O301 O 0.32243 0.2698 0.28087 0.0
O302 O 0.34637 0.31454 0.27698 0.0
O303 O 0.31183 0.35046 0.26015 0.0
O304 O 0.26601 0.30326 0.2961 0.0
O305 O 0.273 0.32429 0.25472 0.0
O306 O 0.28264 0.34966 0.32511 0.0
O307 O 0.25233 0.33019 0.35473 0.0
H308 H 0.18825 0.26711 0.35117 0.0
H309 H 0.16379 0.23289 0.35686 0.0
H310 H 0.23059 0.1708 0.40261 0.0
H311 H 0.25463 0.20503 0.39766 0.0
H312 H 0.39146 0.32662 0.27424 0.0
H313 H 0.41881 0.35817 0.26642 0.0
H314 H 0.34791 0.42833 0.23938 0.0
H315 H 0.32073 0.39687 0.2467 0.0
Sm316 Sm 0.80056 0.30817 0.33396 0.0
Sm317 Sm 0.7919 0.27043 0.28656 0.0
C318 C 0.79915 0.35051 0.36436 0.0
C319 C 0.78778 0.36501 0.39205 0.0
C320 C 0.76145 0.38524 0.39424 0.0
C321 C 0.75284 0.40138 0.41907 0.0
C322 C 0.77052 0.39772 0.4419 0.0
C323 C 0.79627 0.37655 0.44031 0.0
C324 C 0.80482 0.3605 0.41566 0.0
C325 C 0.83905 0.25367 0.33966 0.0
C326 C 0.75747 0.2739 0.35489 0.0
C327 C 0.78609 0.23005 0.25829 0.0
C328 C 0.78697 0.21893 0.22906 0.0
C329 C 0.81128 0.19975 0.21708 0.0
C330 C 0.81102 0.18539 0.19251 0.0
C331 C 0.78643 0.18972 0.17957 0.0
C332 C 0.76241 0.20997 0.19054 0.0
C333 C 0.76265 0.22434 0.21512 0.0
C334 C 0.76179 0.32744 0.27913 0.0
C335 C 0.83728 0.30173 0.26801 0.0
O336 O 0.7834 0.35388 0.3424 0.0
O337 O 0.81669 0.3249 0.36809 0.0
O338 O 0.82029 0.26348 0.32192 0.0
O339 O 0.83699 0.27315 0.35691 0.0
O340 O 0.76648 0.29398 0.36124 0.0
O341 O 0.76656 0.26048 0.33016 0.0
O342 O 0.80916 0.22843 0.26849 0.0
O343 O 0.76592 0.25294 0.26475 0.0
O344 O 0.76674 0.31234 0.30413 0.0
O345 O 0.77251 0.31202 0.25673 0.0
O346 O 0.83038 0.27952 0.26403 0.0
O347 O 0.82516 0.31837 0.28978 0.0
H348 H 0.7479 0.38934 0.37633 0.0
H349 H 0.73296 0.41772 0.41957 0.0
H350 H 0.81024 0.37306 0.45767 0.0
H351 H 0.82529 0.34523 0.41455 0.0
H352 H 0.83032 0.19493 0.22742 0.0
H353 H 0.82994 0.17018 0.18425 0.0
H354 H 0.74312 0.21358 0.18123 0.0
H355 H 0.74351 0.2387 0.22407 0.0
Sm356 Sm 0.80886 0.75504 0.28389 0.0
Sm357 Sm 0.81907 0.80713 0.30227 0.0
C358 C 0.79925 0.7072 0.28024 0.0
C359 C 0.77789 0.6991 0.2685 0.0
C360 C 0.76252 0.68528 0.28839 0.0
C361 C 0.74204 0.67766 0.27788 0.0
C362 C 0.73664 0.68352 0.24717 0.0
C363 C 0.75203 0.69736 0.22725 0.0
C364 C 0.77238 0.70518 0.23781 0.0
C365 C 0.78568 0.80469 0.24779 0.0
C366 C 0.76977 0.78891 0.3409 0.0
C367 C 0.82842 0.85531 0.30491 0.0
C368 C 0.8471 0.86459 0.31973 0.0
C369 C 0.85146 0.89014 0.30867 0.0
C370 C 0.87019 0.89867 0.32145 0.0
C371 C 0.8849 0.88175 0.34554 0.0
C372 C 0.88032 0.85617 0.35672 0.0
C373 C 0.86163 0.84758 0.3438 0.0
C374 C 0.84241 0.75755 0.33835 0.0
C375 C 0.8571 0.774 0.24463 0.0
O376 O 0.79194 0.72112 0.30419 0.0
O377 O 0.81533 0.71678 0.26049 0.0
O378 O 0.78712 0.80262 0.276 0.0
O379 O 0.7917 0.7795 0.23942 0.0
O380 O 0.7805 0.76487 0.32811 0.0
O381 O 0.77811 0.81091 0.33124 0.0
O382 O 0.83986 0.83828 0.28399 0.0
O383 O 0.80969 0.84777 0.32239 0.0
O384 O 0.84101 0.75953 0.31012 0.0
O385 O 0.83583 0.78274 0.34691 0.0
O386 O 0.8453 0.79834 0.2566 0.0
O387 O 0.85017 0.75138 0.25567 0.0
H388 H 0.76639 0.68032 0.31213 0.0
H389 H 0.73076 0.66669 0.29371 0.0
H390 H 0.74818 0.70236 0.20352 0.0
H391 H 0.78373 0.71601 0.22191 0.0
H392 H 0.84051 0.9034 0.28998 0.0
H393 H 0.87302 0.91866 0.31263 0.0
H394 H 0.89152 0.84261 0.37507 0.0
H395 H 0.8587 0.82758 0.35236 0.0
Sm396 Sm 0.28127 0.79366 0.28294 0.0
Sm397 Sm 0.32244 0.80556 0.31517 0.0
C398 C 0.23793 0.79409 0.25657 0.0
C399 C 0.22739 0.79117 0.22842 0.0
C400 C 0.19918 0.80233 0.22557 0.0
C401 C 0.1878 0.79601 0.20176 0.0
C402 C 0.20443 0.77835 0.18016 0.0
C403 C 0.23295 0.76835 0.18226 0.0
C404 C 0.24433 0.77466 0.20622 0.0
C405 C 0.33395 0.75839 0.26999 0.0
C406 C 0.30582 0.84518 0.25306 0.0
C407 C 0.36457 0.80532 0.34359 0.0
C408 C 0.37375 0.80897 0.37238 0.0
C409 C 0.39624 0.78762 0.38457 0.0
C410 C 0.40816 0.79207 0.40904 0.0
C411 C 0.3979 0.81808 0.42184 0.0
C412 C 0.37458 0.83902 0.41047 0.0
C413 C 0.36259 0.83451 0.38598 0.0
C414 C 0.26922 0.83988 0.32893 0.0
C415 C 0.3004 0.75234 0.34358 0.0
O416 O 0.24348 0.81713 0.2588 0.0
O417 O 0.25528 0.77133 0.26932 0.0
O418 O 0.3274 0.7847 0.27224 0.0
O419 O 0.31242 0.75103 0.27123 0.0
O420 O 0.28548 0.8348 0.25462 0.0
O421 O 0.32609 0.83349 0.2708 0.0
O422 O 0.35857 0.78246 0.34185 0.0
O423 O 0.34877 0.82773 0.32856 0.0
O424 O 0.27653 0.81363 0.32635 0.0
O425 O 0.29029 0.84809 0.32668 0.0
O426 O 0.32076 0.76271 0.34086 0.0
O427 O 0.27902 0.76495 0.32749 0.0
H428 H 0.18575 0.8149 0.24261 0.0
H429 H 0.16578 0.8038 0.20122 0.0
H430 H 0.24642 0.75507 0.16581 0.0
H431 H 0.2662 0.76581 0.20801 0.0
H432 H 0.40537 0.76786 0.37431 0.0
H433 H 0.4263 0.77562 0.4169 0.0
H434 H 0.366 0.85915 0.42003 0.0
H435 H 0.34521 0.85139 0.3771 0.0
Sm436 Sm 0.29999 0.79473 0.82882 0.0
Sm437 Sm 0.28462 0.76524 0.79148 0.0
C438 C 0.30395 0.82634 0.86919 0.0
C439 C 0.28599 0.84674 0.88941 0.0
C440 C 0.26907 0.87358 0.87804 0.0
C441 C 0.2568 0.89462 0.8975 0.0
C442 C 0.26139 0.88897 0.92838 0.0
C443 C 0.27555 0.86117 0.94008 0.0
C444 C 0.28792 0.84025 0.92067 0.0
C445 C 0.3374 0.74038 0.82904 0.0
C446 C 0.24729 0.77437 0.85342 0.0
C447 C 0.27628 0.73417 0.75288 0.0
C448 C 0.28678 0.72114 0.72473 0.0
C449 C 0.31369 0.70278 0.72027 0.0
C450 C 0.32162 0.68829 0.69438 0.0
C451 C 0.30269 0.69206 0.67287 0.0
C452 C 0.27641 0.71194 0.67663 0.0
C453 C 0.26854 0.72631 0.70237 0.0
C454 C 0.248 0.82 0.79115 0.0
C455 C 0.33671 0.78793 0.76615 0.0
O456 O 0.30421 0.83433 0.84014 0.0
O457 O 0.30507 0.79995 0.8759 0.0
O458 O 0.31166 0.74587 0.83036 0.0
O459 O 0.34334 0.76331 0.82812 0.0
O460 O 0.25775 0.79483 0.85274 0.0
O461 O 0.25795 0.75521 0.83403 0.0
O462 O 0.28924 0.72311 0.77725 0.0
O463 O 0.26691 0.76177 0.75031 0.0
O464 O 0.27379 0.81389 0.78952 0.0
O465 O 0.24139 0.79734 0.79318 0.0
O466 O 0.32437 0.76942 0.7636 0.0
O467 O 0.32822 0.80432 0.78839 0.0
H468 H 0.26678 0.87895 0.854 0.0
H469 H 0.24578 0.9159 0.88807 0.0
H470 H 0.2796 0.85627 0.96377 0.0
H471 H 0.30065 0.81958 0.92989 0.0
H472 H 0.32818 0.69886 0.73717 0.0
H473 H 0.34209 0.67321 0.69182 0.0
H474 H 0.26123 0.715 0.66075 0.0
H475 H 0.24772 0.74055 0.70548 0.0
Sm476 Sm 0.29061 0.25577 0.80808 0.0
Sm477 Sm 0.31638 0.28853 0.8381 0.0
C478 C 0.27196 0.21486 0.79939 0.0
C479 C 0.25119 0.20768 0.78588 0.0
C480 C 0.24376 0.18447 0.79959 0.0
C481 C 0.22524 0.17581 0.7867 0.0
C482 C 0.21382 0.19019 0.75973 0.0
C483 C 0.22074 0.21401 0.7464 0.0
C484 C 0.23938 0.22269 0.75938 0.0
C485 C 0.28607 0.3048 0.76885 0.0
C486 C 0.25215 0.30304 0.85385 0.0
C487 C 0.34513 0.3142 0.86062 0.0
C488 C 0.36705 0.32674 0.85848 0.0
C489 C 0.36287 0.35498 0.84636 0.0
C490 C 0.38118 0.36858 0.85108 0.0
C491 C 0.40362 0.35419 0.86828 0.0
C492 C 0.40879 0.32545 0.87848 0.0
C493 C 0.39069 0.31184 0.8736 0.0
C494 C 0.307 0.2435 0.8751 0.0
C495 C 0.35158 0.25234 0.78217 0.0
O496 O 0.26388 0.22954 0.82278 0.0
O497 O 0.29061 0.22184 0.78115 0.0
O498 O 0.29694 0.29881 0.79386 0.0
O499 O 0.27554 0.28566 0.7651 0.0
O500 O 0.25537 0.27953 0.84153 0.0
O501 O 0.27178 0.31441 0.85047 0.0
O502 O 0.3224 0.32812 0.84765 0.0
O503 O 0.35209 0.28658 0.86143 0.0
O504 O 0.31721 0.2423 0.84784 0.0
O505 O 0.30134 0.26875 0.88284 0.0
O506 O 0.34788 0.27417 0.79751 0.0
O507 O 0.33445 0.23787 0.78682 0.0
H508 H 0.25258 0.17276 0.82015 0.0
H509 H 0.21989 0.15776 0.79786 0.0
H510 H 0.21228 0.22546 0.72559 0.0
H511 H 0.24486 0.24077 0.74856 0.0
H512 H 0.34472 0.36706 0.83479 0.0
H513 H 0.37678 0.39082 0.8431 0.0
H514 H 0.42613 0.31392 0.89157 0.0
H515 H 0.39434 0.29014 0.8834 0.0
Sm516 Sm 0.77835 0.29387 0.78497 0.0
Sm517 Sm 0.82588 0.29811 0.8194 0.0
C518 C 0.73115 0.30344 0.76083 0.0
C519 C 0.71511 0.30651 0.7343 0.0
C520 C 0.69271 0.33127 0.72876 0.0
C521 C 0.67467 0.33308 0.70698 0.0
C522 C 0.67842 0.31007 0.69018 0.0
C523 C 0.70143 0.28562 0.69511 0.0
C524 C 0.71948 0.28384 0.71686 0.0
C525 C 0.82894 0.25632 0.76913 0.0
C526 C 0.81204 0.33814 0.757 0.0
C527 C 0.87099 0.29017 0.84706 0.0
C528 C 0.88571 0.28471 0.87512 0.0
C529 C 0.90836 0.2599 0.87935 0.0
C530 C 0.92522 0.25601 0.90295 0.0
C531 C 0.92001 0.27689 0.92303 0.0
C532 C 0.89669 0.30127 0.91946 0.0
C533 C 0.87983 0.30518 0.89577 0.0
C534 C 0.77369 0.33425 0.83521 0.0
C535 C 0.79938 0.24741 0.84183 0.0
O536 O 0.74014 0.32382 0.76516 0.0
O537 O 0.74744 0.27826 0.76996 0.0
O538 O 0.82455 0.28137 0.77537 0.0
O539 O 0.80606 0.25253 0.76605 0.0
O540 O 0.7885 0.33306 0.75963 0.0
O541 O 0.8322 0.32315 0.77401 0.0
O542 O 0.86492 0.26953 0.83804 0.0
O543 O 0.85295 0.31512 0.84053 0.0
O544 O 0.77972 0.30884 0.82964 0.0
O545 O 0.79585 0.34033 0.83563 0.0
O546 O 0.82055 0.25627 0.84057 0.0
O547 O 0.7774 0.26207 0.82723 0.0
H548 H 0.68859 0.34898 0.74204 0.0
H549 H 0.65752 0.35242 0.70366 0.0
H550 H 0.70495 0.26727 0.68304 0.0
H551 H 0.73633 0.2643 0.72071 0.0
H552 H 0.91362 0.24383 0.8637 0.0
H553 H 0.94268 0.23678 0.90512 0.0
H554 H 0.89208 0.31799 0.93418 0.0
H555 H 0.86274 0.32468 0.89308 0.0
Sm556 Sm 0.76165 0.78345 0.82531 0.0
Sm557 Sm 0.7995 0.81282 0.77435 0.0
C558 C 0.72113 0.76872 0.85545 0.0
C559 C 0.71217 0.74363 0.86051 0.0
C560 C 0.7095 0.72988 0.83625 0.0
C561 C 0.70004 0.70672 0.84169 0.0
C562 C 0.69338 0.69676 0.87145 0.0
C563 C 0.69683 0.71006 0.89567 0.0
C564 C 0.70605 0.73336 0.89022 0.0
C565 C 0.81535 0.76905 0.84031 0.0
C566 C 0.79128 0.75154 0.76445 0.0
C567 C 0.84075 0.82678 0.74456 0.0
C568 C 0.85354 0.84928 0.74137 0.0
C569 C 0.87549 0.84653 0.75835 0.0
C570 C 0.88893 0.86668 0.75345 0.0
C571 C 0.88084 0.88993 0.73132 0.0
C572 C 0.85856 0.8929 0.71476 0.0
C573 C 0.84515 0.87279 0.71964 0.0
C574 C 0.74588 0.82718 0.75965 0.0
C575 C 0.76682 0.84611 0.83351 0.0
O576 O 0.71932 0.78244 0.82835 0.0
O577 O 0.74347 0.7664 0.86768 0.0
O578 O 0.80439 0.78416 0.81739 0.0
O579 O 0.79744 0.759 0.85582 0.0
O580 O 0.77441 0.75222 0.78915 0.0
O581 O 0.80432 0.77024 0.75598 0.0
O582 O 0.84338 0.8096 0.76961 0.0
O583 O 0.81666 0.83363 0.7342 0.0
O584 O 0.75693 0.81231 0.7826 0.0
O585 O 0.76371 0.83715 0.74377 0.0
O586 O 0.78596 0.844 0.81074 0.0
O587 O 0.75327 0.82779 0.84073 0.0
H588 H 0.71445 0.73714 0.81311 0.0
H589 H 0.69778 0.69668 0.82264 0.0
H590 H 0.69157 0.70302 0.9188 0.0
H591 H 0.70806 0.74361 0.90923 0.0
H592 H 0.88274 0.82847 0.77493 0.0
H593 H 0.90626 0.86349 0.76632 0.0
H594 H 0.85159 0.9107 0.69779 0.0
H595 H 0.82848 0.87545 0.70593 0.0
C596 C 0.12293 0.07934 0.40579 0.0
C597 C 0.09558 0.09112 0.41671 0.0
C598 C 0.14041 0.09564 0.40078 0.0
C599 C 0.13019 0.12449 0.40659 0.0
C600 C 0.10279 0.13629 0.4184 0.0
C601 C 0.08585 0.11942 0.42343 0.0
C602 C 0.16962 0.08216 0.38866 0.0
C603 C 0.09111 0.167 0.42477 0.0
C604 C 0.17892 0.16387 0.41519 0.0
C605 C 0.17929 0.17923 0.38663 0.0
C606 C 0.16345 0.14558 0.42184 0.0
C607 C 0.14781 0.14267 0.39944 0.0
C608 C 0.14833 0.15782 0.37045 0.0
C609 C 0.16406 0.17593 0.36439 0.0
C610 C 0.16346 0.12976 0.45299 0.0
C611 C 0.13199 0.15517 0.34594 0.0
H612 H 0.13056 0.05738 0.4009 0.0
H613 H 0.06466 0.12873 0.43149 0.0
H614 H 0.17315 0.09273 0.36592 0.0
H615 H 0.18384 0.08506 0.40356 0.0
H616 H 0.17476 0.05912 0.38683 0.0
H617 H 0.06974 0.17263 0.43499 0.0
H618 H 0.10379 0.17161 0.44033 0.0
H619 H 0.09149 0.18092 0.40341 0.0
H620 H 0.19029 0.16663 0.43267 0.0
H621 H 0.16452 0.18746 0.34218 0.0
H622 H 0.16916 0.10667 0.45123 0.0
H623 H 0.14261 0.13679 0.46454 0.0
H624 H 0.17783 0.13322 0.46733 0.0
H625 H 0.13781 0.13263 0.34152 0.0
H626 H 0.13506 0.1679 0.32441 0.0
H627 H 0.10991 0.16232 0.35351 0.0
C628 C 0.98345 0.13103 0.32774 0.0
C629 C 0.98405 0.10455 0.3428 0.0
C630 C 0.95872 0.15378 0.32494 0.0
C631 C 0.93382 0.15035 0.33802 0.0
C632 C 0.93416 0.12336 0.35236 0.0
C633 C 0.95917 0.10078 0.35434 0.0
C634 C 0.95945 0.18193 0.30906 0.0
C635 C 0.90828 0.11872 0.36702 0.0
C636 C 0.87938 0.21778 0.36327 0.0
C637 C 0.86163 0.22588 0.33991 0.0
C638 C 0.90236 0.19298 0.36326 0.0
C639 C 0.90808 0.17564 0.33916 0.0
C640 C 0.88987 0.18336 0.31578 0.0
C641 C 0.86688 0.20837 0.31644 0.0
C642 C 0.92094 0.18573 0.38877 0.0
C643 C 0.89512 0.16565 0.28962 0.0
H644 H 1.00249 0.13421 0.31865 0.0
H645 H 0.95934 0.08054 0.36628 0.0
H646 H 0.944 0.18997 0.29205 0.0
H647 H 0.95423 0.19779 0.32575 0.0
H648 H 0.97985 0.18046 0.29753 0.0
H649 H 0.91144 0.09605 0.37487 0.0
H650 H 0.90081 0.13125 0.38679 0.0
H651 H 0.89201 0.12629 0.35097 0.0
H652 H 0.87553 0.23117 0.3815 0.0
H653 H 0.85349 0.21462 0.29816 0.0
H654 H 0.94143 0.18652 0.37978 0.0
H655 H 0.92368 0.16381 0.39928 0.0
H656 H 0.91292 0.20052 0.40662 0.0
H657 H 0.91432 0.16608 0.27631 0.0
H658 H 0.87821 0.1734 0.27432 0.0
H659 H 0.89789 0.14321 0.29809 0.0
C660 C 0.9973 0.92973 0.41308 0.0
C661 C 0.98616 0.95923 0.41352 0.0
C662 C 0.98199 0.91421 0.40449 0.0
C663 C 0.95482 0.92859 0.39672 0.0
C664 C 0.94307 0.95818 0.39878 0.0
C665 C 0.95902 0.97318 0.40683 0.0
C666 C 0.99538 0.8828 0.40211 0.0
C667 C 0.91401 0.97422 0.39121 0.0
C668 C 0.92279 0.90225 0.34012 0.0
C669 C 0.90475 0.89106 0.35895 0.0
C670 C 0.94011 0.91337 0.35226 0.0
C671 C 0.93926 0.91343 0.38402 0.0
C672 C 0.92195 0.90104 0.40323 0.0
C673 C 0.90491 0.88994 0.39044 0.0
C674 C 0.9586 0.92599 0.33101 0.0
C675 C 0.92054 0.90068 0.43719 0.0
H676 H 1.01845 0.91906 0.41786 0.0
H677 H 0.95051 0.99598 0.40733 0.0
H678 H 0.98201 0.87091 0.41365 0.0
H679 H 0.99855 0.87873 0.37793 0.0
H680 H 1.01549 0.87431 0.41204 0.0
H681 H 0.90723 0.99661 0.39657 0.0
H682 H 0.91226 0.97412 0.36673 0.0
H683 H 0.89992 0.96371 0.40389 0.0
H684 H 0.92312 0.90264 0.31577 0.0
H685 H 0.89093 0.88138 0.40508 0.0
H686 H 0.97989 0.91693 0.33775 0.0
H687 H 0.95193 0.94922 0.33235 0.0
H688 H 0.95846 0.92218 0.30712 0.0
H689 H 0.94135 0.89202 0.44534 0.0
H690 H 0.90809 0.88785 0.44902 0.0
H691 H 0.91137 0.9227 0.44356 0.0
C692 C 0.11626 0.9552 0.32791 0.0
C693 C 0.11803 0.98012 0.33691 0.0
C694 C 0.13971 0.93096 0.32485 0.0
C695 C 0.16531 0.93116 0.3324 0.0
C696 C 0.16698 0.95622 0.34202 0.0
C697 C 0.14351 0.98049 0.34354 0.0
C698 C 0.13713 0.90522 0.31332 0.0
C699 C 0.19348 0.95723 0.35139 0.0
C700 C 0.22215 0.86148 0.35341 0.0
C701 C 0.24099 0.86017 0.3282 0.0
C702 C 0.1971 0.88407 0.35484 0.0
C703 C 0.19047 0.90542 0.3301 0.0
C704 C 0.209 0.90319 0.30396 0.0
C705 C 0.23421 0.88098 0.30362 0.0
C706 C 0.17852 0.88598 0.38355 0.0
C707 C 0.20269 0.92481 0.27667 0.0
H708 H 0.09658 0.95481 0.32287 0.0
H709 H 0.14487 0.99952 0.35108 0.0
H710 H 0.15158 0.89942 0.29311 0.0
H711 H 0.14267 0.88684 0.33078 0.0
H712 H 0.1161 0.90883 0.30717 0.0
H713 H 0.19104 0.97773 0.36002 0.0
H714 H 0.20152 0.93979 0.36933 0.0
H715 H 0.20903 0.95406 0.33188 0.0
H716 H 0.22764 0.84571 0.37266 0.0
H717 H 0.24893 0.88019 0.28425 0.0
H718 H 0.15749 0.88851 0.37842 0.0
H719 H 0.17738 0.905 0.39435 0.0
H720 H 0.18578 0.86696 0.40002 0.0
H721 H 0.18155 0.92902 0.2706 0.0
H722 H 0.21711 0.91776 0.2567 0.0
H723 H 0.2041 0.94514 0.28198 0.0
C724 C 0.14512 0.96923 0.72993 0.0
C725 C 0.12113 0.97978 0.7488 0.0
C726 C 0.16666 0.94491 0.73916 0.0
C727 C 0.16463 0.93052 0.76828 0.0
C728 C 0.14106 0.94169 0.78809 0.0
C729 C 0.11954 0.96612 0.7781 0.0
C730 C 0.19104 0.93378 0.71699 0.0
C731 C 0.13819 0.92725 0.81947 0.0
C732 C 0.20272 0.85095 0.77409 0.0
C733 C 0.2274 0.84869 0.7855 0.0
C734 C 0.18212 0.87727 0.769 0.0
C735 C 0.18575 0.90223 0.77623 0.0
C736 C 0.21039 0.90006 0.78855 0.0
C737 C 0.23112 0.87335 0.79265 0.0
C738 C 0.1567 0.87837 0.75507 0.0
C739 C 0.21487 0.92597 0.79729 0.0
H740 H 0.1469 0.97958 0.70732 0.0
H741 H 0.10125 0.97406 0.79294 0.0
H742 H 0.21027 0.93044 0.72747 0.0
H743 H 0.19174 0.91291 0.71078 0.0
H744 H 0.19037 0.94837 0.69594 0.0
H745 H 0.12045 0.94026 0.83337 0.0
H746 H 0.13544 0.90659 0.81793 0.0
H747 H 0.15703 0.92276 0.83122 0.0
H748 H 0.19961 0.832 0.76856 0.0
H749 H 0.24994 0.87169 0.80194 0.0
H750 H 0.15496 0.89159 0.733 0.0
H751 H 0.13826 0.8884 0.76987 0.0
H752 H 0.15677 0.85698 0.75131 0.0
H753 H 0.21659 0.94038 0.7767 0.0
H754 H 0.23368 0.92044 0.80944 0.0
H755 H 0.1971 0.93786 0.81193 0.0
C756 C 0.12113 0.12537 0.67943 0.0
C757 C 0.10362 0.11747 0.70241 0.0
C758 C 0.13796 0.14034 0.6855 0.0
C759 C 0.13748 0.14723 0.7153 0.0
C760 C 0.11896 0.14049 0.73821 0.0
C761 C 0.10211 0.12598 0.73141 0.0
C762 C 0.15714 0.14763 0.66038 0.0
C763 C 0.11786 0.14736 0.77033 0.0
C764 C 0.20149 0.15055 0.74421 0.0
C765 C 0.19517 0.17976 0.74561 0.0
C766 C 0.18324 0.13984 0.73339 0.0
C767 C 0.15809 0.15881 0.72346 0.0
C768 C 0.15204 0.18842 0.72359 0.0
C769 C 0.17068 0.19858 0.73472 0.0
C770 C 0.19045 0.1081 0.73369 0.0
C771 C 0.12548 0.20926 0.71301 0.0
H772 H 0.12246 0.11897 0.65697 0.0
H773 H 0.08806 0.12085 0.74911 0.0
H774 H 0.15591 0.17009 0.66001 0.0
H775 H 0.17848 0.13426 0.66441 0.0
H776 H 0.15258 0.14414 0.63784 0.0
H777 H 0.10104 0.14241 0.78499 0.0
H778 H 0.13748 0.13493 0.78021 0.0
H779 H 0.11511 0.17014 0.7707 0.0
H780 H 0.22065 0.13597 0.75202 0.0
H781 H 0.16567 0.22116 0.73587 0.0
H782 H 0.18901 0.10256 0.7109 0.0
H783 H 0.17568 0.10072 0.74952 0.0
H784 H 0.21138 0.09635 0.74078 0.0
H785 H 0.12195 0.2048 0.69048 0.0
H786 H 0.1251 0.23158 0.71158 0.0
H787 H 0.10825 0.20695 0.72895 0.0
C788 C 0.9686 0.14078 0.72212 0.0
C789 C 0.97866 0.11717 0.74327 0.0
C790 C 0.94584 0.16416 0.72946 0.0
C791 C 0.93242 0.16426 0.75884 0.0
C792 C 0.94307 0.14109 0.78085 0.0
C793 C 0.96616 0.1178 0.77284 0.0
C794 C 0.93538 0.18821 0.70517 0.0
C795 C 0.92947 0.14046 0.81249 0.0
C796 C 0.87983 0.2363 0.77481 0.0
C797 C 0.85569 0.23305 0.76766 0.0
C798 C 0.9048 0.21355 0.77393 0.0
C799 C 0.90573 0.1872 0.76493 0.0
C800 C 0.88124 0.18385 0.75818 0.0
C801 C 0.85663 0.20664 0.75983 0.0
C802 C 0.93027 0.21794 0.7819 0.0
C803 C 0.88112 0.15644 0.74803 0.0
H804 H 0.97829 0.14086 0.69932 0.0
H805 H 0.97381 0.09977 0.78937 0.0
H806 H 0.91489 0.18913 0.69964 0.0
H807 H 0.93309 0.20879 0.71338 0.0
H808 H 0.94914 0.1858 0.68407 0.0
H809 H 0.9419 0.12283 0.82789 0.0
H810 H 0.92576 0.16084 0.82197 0.0
H811 H 0.90928 0.13785 0.8119 0.0
H812 H 0.87926 0.25661 0.78094 0.0
H813 H 0.83805 0.20383 0.75445 0.0
H814 H 0.94373 0.21921 0.76104 0.0
H815 H 0.94188 0.19972 0.79724 0.0
H816 H 0.92551 0.23775 0.79297 0.0
H817 H 0.8933 0.15271 0.726 0.0
H818 H 0.86015 0.15666 0.74538 0.0
H819 H 0.89078 0.1383 0.76456 0.0
C820 C 0.95962 1.00524 0.69904 0.0
C821 C 0.98755 0.99013 0.69479 0.0
C822 C 0.94023 0.9911 0.7034 0.0
C823 C 0.94921 0.96109 0.70464 0.0
C824 C 0.97749 0.94582 0.70028 0.0
C825 C 0.99627 0.9606 0.69496 0.0
C826 C 0.91024 1.00819 0.70694 0.0
C827 C 0.98798 0.91381 0.70209 0.0
C828 C 0.90605 0.91921 0.7481 0.0
C829 C 0.89639 0.91021 0.7246 0.0
C830 C 0.92248 0.93661 0.74193 0.0
C831 C 0.92933 0.94538 0.71152 0.0
C832 C 0.91875 0.93732 0.68773 0.0
C833 C 0.90254 0.91974 0.69454 0.0
C834 C 0.93331 0.94478 0.76795 0.0
C835 C 0.92531 0.94648 0.65503 0.0
H836 H 0.95304 0.02813 0.69873 0.0
H837 H 1.01795 0.94903 0.692 0.0
H838 H 0.89893 1.00251 0.69065 0.0
H839 H 0.90163 1.00315 0.73 0.0
H840 H 0.90657 0.0314 0.70323 0.0
H841 H 1.01057 0.90517 0.6981 0.0
H842 H 0.98194 0.90486 0.72477 0.0
H843 H 0.9787 0.90641 0.68516 0.0
H844 H 0.90098 0.91239 0.77138 0.0
H845 H 0.89542 0.91269 0.6762 0.0
H846 H 0.92807 0.96815 0.76651 0.0
H847 H 0.95593 0.93548 0.76664 0.0
H848 H 0.92504 0.93738 0.7903 0.0
H849 H 0.92131 0.96973 0.65172 0.0
H850 H 0.91321 0.94098 0.63945 0.0
H851 H 0.94733 0.93602 0.64867 0.0
C852 C 0.36053 0.10877 0.19974 0.0
C853 C 0.3384 0.11091 0.18341 0.0
C854 C 0.35961 0.13047 0.21706 0.0
C855 C 0.33603 0.15494 0.21799 0.0
C856 C 0.31385 0.1575 0.20113 0.0
C857 C 0.31525 0.13545 0.18422 0.0
C858 C 0.38365 0.12703 0.23477 0.0
C859 C 0.28829 0.18328 0.20149 0.0
C860 C 0.31597 0.19876 0.28485 0.0
C861 C 0.32258 0.22306 0.27306 0.0
C862 C 0.32144 0.17587 0.26762 0.0
C863 C 0.33373 0.1773 0.23779 0.0
C864 C 0.34165 0.20116 0.22624 0.0
C865 C 0.33607 0.22374 0.24407 0.0
C866 C 0.31279 0.15075 0.28085 0.0
C867 C 0.35462 0.20353 0.19445 0.0
H868 H 0.37862 0.09013 0.19898 0.0
H869 H 0.29779 0.13726 0.17223 0.0
H870 H 0.39095 0.14546 0.22871 0.0
H871 H 0.37725 0.12649 0.25934 0.0
H872 H 0.40092 0.10731 0.23065 0.0
H873 H 0.2735 0.18272 0.18582 0.0
H874 H 0.27807 0.18467 0.2247 0.0
H875 H 0.29363 0.20291 0.19507 0.0
H876 H 0.30572 0.19793 0.30731 0.0
H877 H 0.34113 0.24248 0.2347 0.0
H878 H 0.32998 0.13067 0.27825 0.0
H879 H 0.29589 0.15 0.26843 0.0
H880 H 0.30572 0.15177 0.30523 0.0
H881 H 0.37189 0.18388 0.19026 0.0
H882 H 0.36223 0.22189 0.19001 0.0
H883 H 0.33939 0.20613 0.17799 0.0
C884 C 0.97504 0.3306 0.20227 0.0
C885 C 0.97904 0.3337 0.17062 0.0
C886 C 0.95169 0.32511 0.21686 0.0
C887 C 0.93128 0.32358 0.19943 0.0
C888 C 0.93504 0.32721 0.16738 0.0
C889 C 0.95907 0.33172 0.15339 0.0
C890 C 0.94907 0.32053 0.25099 0.0
C891 C 0.91356 0.3266 0.14787 0.0
C892 C 0.88224 0.28521 0.23726 0.0
C893 C 0.86022 0.30759 0.24835 0.0
C894 C 0.90531 0.2901 0.22104 0.0
C895 C 0.90613 0.31818 0.2149 0.0
C896 C 0.88341 0.34096 0.22498 0.0
C897 C 0.861 0.33535 0.24198 0.0
C898 C 0.92926 0.26507 0.21152 0.0
C899 C 0.88294 0.37127 0.2182 0.0
H900 H 0.99063 0.3317 0.21562 0.0
H901 H 0.96212 0.33422 0.12893 0.0
H902 H 0.93063 0.33694 0.26003 0.0
H903 H 0.9465 0.29959 0.25832 0.0
H904 H 0.96716 0.32135 0.26121 0.0
H905 H 0.91916 0.33062 0.12336 0.0
H906 H 0.91042 0.30568 0.15196 0.0
H907 H 0.89375 0.34286 0.15398 0.0
H908 H 0.88193 0.26366 0.24234 0.0
H909 H 0.844 0.35278 0.25029 0.0
H910 H 0.94752 0.26392 0.22278 0.0
H911 H 0.93433 0.26772 0.18677 0.0
H912 H 0.92521 0.24465 0.21736 0.0
H913 H 0.8989 0.37448 0.23027 0.0
H914 H 0.86285 0.3867 0.22517 0.0
H915 H 0.88766 0.37596 0.19363 0.0
C916 C 0.794 0.92192 0.11303 0.0
C917 C 0.81874 0.92768 0.10992 0.0
C918 C 0.78737 0.90497 0.13821 0.0
C919 C 0.806 0.89308 0.16088 0.0
C920 C 0.83054 0.89965 0.15854 0.0
C921 C 0.83659 0.91689 0.13314 0.0
C922 C 0.76082 0.89886 0.13992 0.0
C923 C 0.85059 0.88832 0.18265 0.0
C924 C 0.78246 0.85592 0.23391 0.0
C925 C 0.7902 0.82802 0.22625 0.0
C926 C 0.78754 0.87753 0.21303 0.0
C927 C 0.80142 0.87075 0.18437 0.0
C928 C 0.81018 0.84234 0.17723 0.0
C929 C 0.80402 0.82156 0.19791 0.0
C930 C 0.77802 0.90752 0.22157 0.0
C931 C 0.82621 0.83378 0.14768 0.0
H932 H 0.78008 0.92989 0.09527 0.0
H933 H 0.85539 0.9218 0.13141 0.0
H934 H 0.76513 0.87632 0.13631 0.0
H935 H 0.74997 0.90221 0.16268 0.0
H936 H 0.74707 0.91245 0.12264 0.0
H937 H 0.87088 0.89029 0.17463 0.0
H938 H 0.8426 0.90054 0.20256 0.0
H939 H 0.85323 0.86576 0.19032 0.0
H940 H 0.77218 0.86089 0.25598 0.0
H941 H 0.8107 0.79992 0.19201 0.0
H942 H 0.76574 0.92226 0.20379 0.0
H943 H 0.79598 0.91412 0.22322 0.0
H944 H 0.76556 0.90976 0.24357 0.0
H945 H 0.81309 0.84349 0.12863 0.0
H946 H 0.83401 0.81039 0.14696 0.0
H947 H 0.84383 0.84171 0.14408 0.0
C948 C 0.10828 0.71836 0.10673 0.0
C949 C 0.11051 0.71893 0.07506 0.0
C950 C 0.12583 0.72709 0.12169 0.0
C951 C 0.14618 0.73673 0.10469 0.0
C952 C 0.14932 0.73631 0.07286 0.0
C953 C 0.13159 0.72727 0.05848 0.0
C954 C 0.12177 0.72717 0.1557 0.0
C955 C 0.1707 0.74642 0.05382 0.0
C956 C 0.16827 0.78713 0.14385 0.0
C957 C 0.1917 0.76866 0.15731 0.0
C958 C 0.15393 0.77728 0.12556 0.0
C959 C 0.16329 0.74825 0.12039 0.0
C960 C 0.18777 0.72985 0.13246 0.0
C961 C 0.2016 0.74022 0.15083 0.0
C962 C 0.12805 0.79772 0.11293 0.0
C963 C 0.19863 0.69885 0.12722 0.0
H964 H 0.09198 0.7124 0.11987 0.0
H965 H 0.13378 0.72748 0.03408 0.0
H966 H 0.14126 0.7152 0.16606 0.0
H967 H 0.11547 0.74928 0.16174 0.0
H968 H 0.10599 0.71769 0.16578 0.0
H969 H 0.17192 0.74269 0.02967 0.0
H970 H 0.16581 0.76949 0.05508 0.0
H971 H 0.19107 0.73555 0.06266 0.0
H972 H 0.16073 0.80925 0.14817 0.0
H973 H 0.21951 0.72564 0.16128 0.0
H974 H 0.11025 0.7918 0.12372 0.0
H975 H 0.12864 0.79653 0.08825 0.0
H976 H 0.12475 0.82 0.11688 0.0
H977 H 0.18463 0.68795 0.13934 0.0
H978 H 0.21935 0.68808 0.1353 0.0
H979 H 0.19948 0.69638 0.10279 0.0
C980 C 0.28268 0.99577 0.03193 0.0
C981 C 0.30847 0.98041 0.04244 0.0
C982 C 0.27023 0.98397 0.01381 0.0
C983 C 0.28413 0.95632 1.00564 0.0
C984 C 0.31025 0.94067 0.01595 0.0
C985 C 0.32216 0.95299 0.03432 0.0
C986 C 0.24246 1.00124 1.00303 0.0
C987 C 0.32569 0.91109 1.00732 0.0
C988 C 0.25001 0.9106 0.97724 0.0
C989 C 0.2587 0.91229 0.94643 0.0
C990 C 0.25647 0.92652 0.99677 0.0
C991 C 0.27208 0.94417 0.98498 0.0
C992 C 0.27846 0.94808 0.95348 0.0
C993 C 0.27148 0.93218 0.93448 0.0
C994 C 0.24872 0.92256 0.03025 0.0
C995 C 0.29512 0.96676 0.94012 0.0
H996 H 0.27233 0.01733 0.03742 0.0
H997 H 0.34202 0.94121 0.04254 0.0
H998 H 0.24395 1.00538 0.978 0.0
H999 H 0.228 0.98922 1.00917 0.0
H1000 H 0.2338 0.02192 0.0128 0.0
H1001 H 0.34557 0.90169 0.01766 0.0
H1002 H 0.31324 0.89705 0.01458 0.0
H1003 H 0.32957 0.91156 0.98235 0.0
H1004 H 0.24002 0.89526 0.98635 0.0
H1005 H 0.27854 0.93329 0.91071 0.0
H1006 H 0.24045 0.94333 0.0398 0.0
H1007 H 0.26719 0.90975 0.0421 0.0
H1008 H 0.23332 0.91153 0.03512 0.0
H1009 H 0.28704 0.9877 0.94928 0.0
H1010 H 0.29538 0.97019 0.91504 0.0
H1011 H 0.31649 0.95663 0.94641 0.0
C1012 C 0.12719 0.35576 0.9823 0.0
C1013 C 0.134 0.33691 1.00848 0.0
C1014 C 0.14464 0.35219 0.95549 0.0
C1015 C 0.16989 0.32959 0.95497 0.0
C1016 C 0.177 0.31073 0.98152 0.0
C1017 C 0.15887 0.31442 1.00775 0.0
C1018 C 0.13591 0.37239 0.92761 0.0
C1019 C 0.20388 0.28668 0.98229 0.0
C1020 C 0.20782 0.30101 0.88139 0.0
C1021 C 0.22855 0.31339 0.8766 0.0
C1022 C 0.188 0.30694 0.90605 0.0
C1023 C 0.18894 0.32553 0.92679 0.0
C1024 C 0.20911 0.33899 0.9214 0.0
C1025 C 0.22851 0.3329 0.89637 0.0
C1026 C 0.16668 0.29241 0.91057 0.0
C1027 C 0.21108 0.35879 0.94293 0.0
H1028 H 0.10787 0.37297 0.98261 0.0
H1029 H 0.16435 0.29998 0.02799 0.0
H1030 H 0.15111 0.38328 0.92007 0.0
H1031 H 0.13508 0.36039 0.90884 0.0
H1032 H 0.11556 0.38868 0.93157 0.0
H1033 H 0.20675 0.27439 1.0049 0.0
H1034 H 0.20504 0.27201 0.96535 0.0
H1035 H 0.22106 0.29512 0.97613 0.0
H1036 H 0.20755 0.28589 0.86638 0.0
H1037 H 0.24445 0.3425 0.89316 0.0
H1038 H 0.14599 0.30817 0.91409 0.0
H1039 H 0.17027 0.27711 0.93116 0.0
H1040 H 0.16703 0.28075 0.89102 0.0
H1041 H 0.19108 0.37565 0.94649 0.0
H1042 H 0.22676 0.36895 0.93462 0.0
H1043 H 0.2164 0.34679 0.96529 0.0
C1044 C 0.82087 0.10179 0.94794 0.0
C1045 C 0.82671 0.07831 0.93149 0.0
C1046 C 0.81536 0.12936 0.93333 0.0
C1047 C 0.81523 0.13371 0.90138 0.0
C1048 C 0.82105 0.11005 0.8846 0.0
C1049 C 0.82699 0.08256 0.89985 0.0
C1050 C 0.80997 0.15379 0.9521 0.0
C1051 C 0.8209 0.11379 0.85055 0.0
C1052 C 0.78012 0.20908 0.86579 0.0
C1053 C 0.80245 0.21871 0.85766 0.0
C1054 C 0.7839 0.18138 0.87992 0.0
C1055 C 0.81063 0.16283 0.88558 0.0
C1056 C 0.8332 0.17236 0.87693 0.0
C1057 C 0.82883 0.20008 0.86331 0.0
C1058 C 0.75932 0.17196 0.8889 0.0
C1059 C 0.86209 0.1533 0.88212 0.0
H1060 H 0.82083 0.09846 0.9724 0.0
H1061 H 0.83112 0.06447 0.88716 0.0
H1062 H 0.82567 0.16425 0.94559 0.0
H1063 H 0.78982 0.16994 0.94767 0.0
H1064 H 0.81024 0.14688 0.97676 0.0
H1065 H 0.82488 0.0934 0.84092 0.0
H1066 H 0.80085 0.12871 0.84374 0.0
H1067 H 0.83667 0.12322 0.84043 0.0
H1068 H 0.75974 0.2232 0.86131 0.0
H1069 H 0.84639 0.20695 0.85659 0.0
H1070 H 0.75777 0.16631 0.91373 0.0
H1071 H 0.76168 0.15264 0.87798 0.0
H1072 H 0.73998 0.18865 0.88249 0.0
H1073 H 0.86407 0.14673 0.90666 0.0
H1074 H 0.87746 0.16381 0.87354 0.0
H1075 H 0.86698 0.13373 0.87069 0.0
C1076 C 0.96335 0.7373 0.90223 0.0
C1077 C 0.96016 0.74819 0.9303 0.0
C1078 C 0.94091 0.7424 0.88496 0.0
C1079 C 0.91435 0.75852 0.89606 0.0
C1080 C 0.91108 0.77025 0.92401 0.0
C1081 C 0.93399 0.76512 0.94064 0.0
C1082 C 0.94555 0.72977 0.85519 0.0
C1083 C 0.88318 0.78734 0.93695 0.0
C1084 C 0.85525 0.78595 0.84386 0.0
C1085 C 0.84232 0.76543 0.85129 0.0
C1086 C 0.87886 0.78395 0.85791 0.0
C1087 C 0.88981 0.76086 0.8799 0.0
C1088 C 0.87701 0.73986 0.88691 0.0
C1089 C 0.85351 0.74247 0.87266 0.0
C1090 C 0.89179 0.80681 0.84967 0.0
C1091 C 0.88775 0.71488 0.91009 0.0
H1092 H 0.98351 0.72461 0.89375 0.0
H1093 H 0.93126 0.77349 0.96233 0.0
H1094 H 0.93554 0.71335 0.85693 0.0
H1095 H 0.93617 0.74636 0.83704 0.0
H1096 H 0.96761 0.71987 0.84843 0.0
H1097 H 0.88421 0.79662 0.9578 0.0
H1098 H 0.87288 0.80476 0.92001 0.0
H1099 H 0.87027 0.77356 0.94247 0.0
H1100 H 0.84629 0.80418 0.82809 0.0
H1101 H 0.8435 0.72664 0.87873 0.0
H1102 H 0.91287 0.79745 0.83939 0.0
H1103 H 0.89333 0.81607 0.87029 0.0
H1104 H 0.88004 0.82413 0.83346 0.0
H1105 H 0.90938 0.70287 0.90356 0.0
H1106 H 0.87576 0.70013 0.91264 0.0
H1107 H 0.88717 0.72251 0.93241 0.0
C1108 C 0.13262 0.29703 0.18702 0.0
C1109 C 0.14442 0.28221 0.16159 0.0
C1110 C 0.14891 0.29982 0.20885 0.0
C1111 C 0.17779 0.28711 0.20564 0.0
C1112 C 0.18954 0.27044 0.18117 0.0
C1113 C 0.17286 0.2685 0.15939 0.0
C1114 C 0.13532 0.31798 0.23424 0.0
C1115 C 0.22004 0.2559 0.17697 0.0
C1116 C 0.22416 0.3234 0.23048 0.0
C1117 C 0.23426 0.30668 0.257 0.0
C1118 C 0.20516 0.31783 0.2145 0.0
C1119 C 0.19594 0.29455 0.22484 0.0
C1120 C 0.20536 0.27801 0.25225 0.0
C1121 C 0.22432 0.28433 0.26808 0.0
C1122 C 0.19566 0.33646 0.18582 0.0
C1123 C 0.19634 0.25292 0.2642 0.0
H1124 H 0.11075 0.30791 0.18898 0.0
H1125 H 0.18229 0.25686 0.14001 0.0
H1126 H 0.14333 0.30715 0.25614 0.0
H1127 H 0.14002 0.33811 0.23013 0.0
H1128 H 0.11276 0.32319 0.23614 0.0
H1129 H 0.22568 0.24075 0.15944 0.0
H1130 H 0.23024 0.27206 0.17003 0.0
H1131 H 0.2281 0.24426 0.19858 0.0
H1132 H 0.23163 0.34077 0.22171 0.0
H1133 H 0.23215 0.27109 0.28838 0.0
H1134 H 0.173 0.34457 0.18676 0.0
H1135 H 0.20301 0.32385 0.16611 0.0
H1136 H 0.20322 0.35485 0.18192 0.0
H1137 H 0.17383 0.25878 0.26431 0.0
H1138 H 0.20252 0.24449 0.28747 0.0
H1139 H 0.20561 0.23575 0.2491 0.0
C1140 C 0.09639 0.78275 0.93418 0.0
C1141 C 0.09372 0.78902 0.96439 0.0
C1142 C 0.12079 0.78043 0.91538 0.0
C1143 C 0.14361 0.78386 0.92694 0.0
C1144 C 0.14098 0.79023 0.95739 0.0
C1145 C 0.11625 0.79292 0.97548 0.0
C1146 C 0.12216 0.77416 0.88305 0.0
C1147 C 0.16458 0.79365 0.97121 0.0
C1148 C 0.21576 0.75204 0.88728 0.0
C1149 C 0.22088 0.77619 0.87205 0.0
C1150 C 0.191 0.75421 0.90532 0.0
C1151 C 0.17012 0.78102 0.90735 0.0
C1152 C 0.17499 0.8053 0.89117 0.0
C1153 C 0.2003 0.80267 0.87435 0.0
C1154 C 0.18738 0.72778 0.92271 0.0
C1155 C 0.15336 0.83421 0.8915 0.0
H1156 H 0.0794 0.77949 0.9252 0.0
H1157 H 0.11491 0.79734 0.99878 0.0
H1158 H 0.12771 0.79072 0.86743 0.0
H1159 H 0.13834 0.75359 0.87942 0.0
H1160 H 0.10248 0.77317 0.87697 0.0
H1161 H 0.15949 0.79838 0.99518 0.0
H1162 H 0.18246 0.77392 0.97018 0.0
H1163 H 0.1708 0.81105 0.95812 0.0
H1164 H 0.23145 0.7315 0.88575 0.0
H1165 H 0.20378 0.82145 0.86235 0.0
H1166 H 0.16925 0.72419 0.91563 0.0
H1167 H 0.18362 0.73051 0.94725 0.0
H1168 H 0.20552 0.70864 0.9193 0.0
H1169 H 0.13392 0.83339 0.8846 0.0
H1170 H 0.15943 0.85064 0.87613 0.0
H1171 H 0.14931 0.84077 0.91478 0.0
C1172 C 0.27741 0.12087 0.99775 0.0
C1173 C 0.29464 0.11439 0.02159 0.0
C1174 C 0.27942 0.14055 0.97268 0.0
C1175 C 0.29949 0.15403 0.97078 0.0
C1176 C 0.31718 0.14732 0.99458 0.0
C1177 C 0.31442 0.12787 0.01967 0.0
C1178 C 0.2597 0.14727 0.9484 0.0
C1179 C 0.339 0.16088 0.99364 0.0
C1180 C 0.31848 0.19096 0.89416 0.0
C1181 C 0.30409 0.21965 0.89768 0.0
C1182 C 0.31713 0.16935 0.91756 0.0
C1183 C 0.30078 0.17645 0.94502 0.0
C1184 C 0.28563 0.20536 0.94809 0.0
C1185 C 0.28754 0.22638 0.92463 0.0
C1186 C 0.3337 0.13892 0.91318 0.0
C1187 C 0.26747 0.21425 0.97639 0.0
H1188 H 0.26201 0.11072 0.99879 0.0
H1189 H 0.32804 0.12298 0.03767 0.0
H1190 H 0.24716 0.17008 0.94716 0.0
H1191 H 0.27107 0.14331 0.92599 0.0
H1192 H 0.24577 0.13447 0.95263 0.0
H1193 H 0.35212 0.15238 0.0129 0.0
H1194 H 0.35211 0.15734 0.97216 0.0
H1195 H 0.32937 0.18415 0.99423 0.0
H1196 H 0.33138 0.18549 0.87356 0.0
H1197 H 0.27607 0.24842 0.92758 0.0
H1198 H 0.32017 0.12574 0.9161 0.0
H1199 H 0.34867 0.13035 0.93067 0.0
H1200 H 0.34492 0.13666 0.89046 0.0
H1201 H 0.25134 0.20417 0.97952 0.0
H1202 H 0.25751 0.23761 0.97559 0.0
H1203 H 0.27955 0.20694 0.99653 0.0
C1204 C 1.01791 0.31234 0.01979 0.0
C1205 C 0.03073 0.29294 0.04358 0.0
C1206 C 1.00088 0.30622 1.00161 0.0
C1207 C 0.99638 0.27979 1.00688 0.0
C1208 C 1.00986 0.25959 0.03025 0.0
C1209 C 0.02689 0.26639 0.04838 0.0
C1210 C 0.9872 0.3285 0.97704 0.0
C1211 C 1.00578 0.23108 0.03652 0.0
C1212 C 0.93032 0.28338 0.97511 0.0
C1213 C 0.93968 0.27415 0.94626 0.0
C1214 C 0.94866 0.2834 0.99594 0.0
C1215 C 0.9772 0.27411 0.98786 0.0
C1216 C 0.98683 0.26344 0.9594 0.0
C1217 C 0.96806 0.2636 0.93904 0.0
C1218 C 0.93735 0.29482 0.02603 0.0
C1219 C 1.01696 0.25341 0.94963 0.0
H1220 H 1.02082 0.33285 0.01551 0.0
H1221 H 0.03654 0.25129 0.06671 0.0
H1222 H 0.99251 0.31975 0.95478 0.0
H1223 H 0.96467 0.3348 0.98148 0.0
H1224 H 0.99319 0.34782 0.97548 0.0
H1225 H 1.01892 0.21705 0.05407 0.0
H1226 H 0.9841 0.23403 0.04428 0.0
H1227 H 1.01032 0.22033 0.01547 0.0
H1228 H 0.90854 0.29109 0.98128 0.0
H1229 H 0.9757 0.25664 0.91682 0.0
H1230 H 0.94023 0.31562 0.02627 0.0
H1231 H 0.94852 0.28032 0.04468 0.0
H1232 H 0.91522 0.29775 0.03058 0.0
H1233 H 0.02425 0.27194 0.94481 0.0
H1234 H 0.02147 0.24206 0.92895 0.0
H1235 H 0.02877 0.23912 0.96798 0.0
C1236 C 0.80107 0.91938 0.95567 0.0
C1237 C 0.78474 0.94669 0.96266 0.0
C1238 C 0.79356 0.90547 0.93485 0.0
C1239 C 0.76893 0.91907 0.92062 0.0
C1240 C 0.75168 0.94614 0.92846 0.0
C1241 C 0.75982 0.95971 0.94943 0.0
C1242 C 0.81255 0.87653 0.92733 0.0
C1243 C 0.72517 0.96114 0.91393 0.0
C1244 C 0.77362 0.89032 0.84553 0.0
C1245 C 0.76219 0.86866 0.85377 0.0
C1246 C 0.7738 0.90866 0.86649 0.0
C1247 C 0.76246 0.90513 0.8965 0.0
C1248 C 0.749 0.8848 0.90428 0.0
C1249 C 0.74894 0.86685 0.88279 0.0
C1250 C 0.7881 0.93029 0.85714 0.0
C1251 C 0.73665 0.88034 0.93601 0.0
H1252 H 0.82024 0.90897 0.96598 0.0
H1253 H 0.7471 0.98079 0.95475 0.0
H1254 H 0.80138 0.86103 0.93075 0.0
H1255 H 0.82029 0.87761 0.90316 0.0
H1256 H 0.83036 0.86839 0.94136 0.0
H1257 H 0.71276 0.98061 0.92472 0.0
H1258 H 0.72954 0.96717 0.88959 0.0
H1259 H 0.7129 0.94679 0.9153 0.0
H1260 H 0.78357 0.89219 0.82305 0.0
H1261 H 0.73992 0.8503 0.88943 0.0
H1262 H 0.80793 0.92314 0.86756 0.0
H1263 H 0.77575 0.95106 0.86529 0.0
H1264 H 0.79214 0.93331 0.83219 0.0
H1265 H 0.75324 0.86902 0.95115 0.0
H1266 H 0.72289 0.86752 0.93705 0.0
H1267 H 0.72497 0.90095 0.94492 0.0
C1268 C 0.97677 0.76778 0.10686 0.0
C1269 C 0.96545 0.77333 0.07875 0.0
C1270 C 0.96026 0.76799 0.13449 0.0
C1271 C 0.93154 0.77428 0.13429 0.0
C1272 C 0.92002 0.78097 0.10586 0.0
C1273 C 0.93704 0.77999 0.07869 0.0
C1274 C 0.97371 0.76053 0.16395 0.0
C1275 C 0.8896 0.7892 0.10399 0.0
C1276 C 0.88937 0.74879 0.20189 0.0
C1277 C 0.87733 0.77321 0.21728 0.0
C1278 C 0.9073 0.7487 0.17541 0.0
C1279 C 0.91358 0.77362 0.16359 0.0
C1280 C 0.90185 0.79815 0.17935 0.0
C1281 C 0.88394 0.79769 0.20561 0.0
C1282 C 0.91928 0.72192 0.15976 0.0
C1283 C 0.90752 0.82535 0.16813 0.0
H1284 H 0.99876 0.7617 0.10724 0.0
H1285 H 0.92812 0.78382 0.05714 0.0
H1286 H 0.96448 0.778 0.17869 0.0
H1287 H 0.9701 0.7413 0.17616 0.0
H1288 H 0.99608 0.7565 0.16053 0.0
H1289 H 0.88411 0.79013 0.08051 0.0
H1290 H 0.88125 0.7741 0.11877 0.0
H1291 H 0.87961 0.81046 0.11207 0.0
H1292 H 0.88455 0.72973 0.21031 0.0
H1293 H 0.87488 0.81687 0.21689 0.0
H1294 H 0.94189 0.71589 0.15703 0.0
H1295 H 0.91192 0.72568 0.13676 0.0
H1296 H 0.91371 0.7039 0.1724 0.0
H1297 H 0.92887 0.8213 0.15838 0.0
H1298 H 0.90381 0.83926 0.18659 0.0
H1299 H 0.89379 0.83693 0.15007 0.0
C1300 C 0.29707 0.998 0.15506 0.0
C1301 C 0.2695 0.01514 0.15808 0.0
C1302 C 0.30593 0.96919 0.16775 0.0
C1303 C 0.28716 0.95746 0.18558 0.0
C1304 C 0.25959 0.97505 0.18966 0.0
C1305 C 0.25117 1.00305 0.1756 0.0
C1306 C 0.33542 0.95134 0.16199 0.0
C1307 C 0.23878 0.96444 0.20935 0.0
C1308 C 0.29478 0.8784 0.20479 0.0
C1309 C 0.30412 0.87255 0.23395 0.0
C1310 C 0.29129 0.90512 0.18787 0.0
C1311 C 0.29584 0.92729 0.20087 0.0
C1312 C 0.30547 0.9213 0.23027 0.0
C1313 C 0.31 0.89402 0.24606 0.0
C1314 C 0.28206 0.90984 0.15628 0.0
C1315 C 0.30942 0.94423 0.24594 0.0
H1316 H 0.31181 1.00698 0.14304 0.0
H1317 H 0.22979 0.01566 0.17882 0.0
H1318 H 0.34609 0.94764 0.18297 0.0
H1319 H 0.3369 0.93031 0.15553 0.0
H1320 H 0.34623 0.96174 0.1438 0.0
H1321 H 0.21848 0.98118 0.21169 0.0
H1322 H 0.23619 0.94645 0.19965 0.0
H1323 H 0.24601 0.95649 0.23228 0.0
H1324 H 0.29019 0.86204 0.19515 0.0
H1325 H 0.31679 0.88995 0.26874 0.0
H1326 H 0.29441 0.9206 0.14059 0.0
H1327 H 0.26044 0.92384 0.15619 0.0
H1328 H 0.28375 0.88962 0.14754 0.0
H1329 H 0.32303 0.95426 0.2315 0.0
H1330 H 0.31824 0.93598 0.26812 0.0
H1331 H 0.28943 0.96107 0.24977 0.0
C1332 C 0.80746 0.08716 0.05265 0.0
C1333 C 0.79007 0.07082 0.05816 0.0
C1334 C 0.8037 0.10996 0.06932 0.0
C1335 C 0.78212 0.11639 0.09228 0.0
C1336 C 0.76311 0.10146 0.09621 0.0
C1337 C 0.76726 0.07875 0.07889 0.0
C1338 C 0.82429 0.12545 0.06406 0.0
C1339 C 0.7397 0.10795 0.1203 0.0
C1340 C 0.79891 0.14204 0.16098 0.0
C1341 C 0.78539 0.17137 0.15667 0.0
C1342 C 0.79752 0.12398 0.14043 0.0
C1343 C 0.78216 0.1355 0.11488 0.0
C1344 C 0.76837 0.16508 0.11035 0.0
C1345 C 0.7701 0.1827 0.13139 0.0
C1346 C 0.8127 0.09254 0.14599 0.0
C1347 C 0.7521 0.17807 0.08317 0.0
H1348 H 0.82486 0.08127 0.03614 0.0
H1349 H 0.75383 0.0661 0.08304 0.0
H1350 H 0.81397 0.14868 0.06393 0.0
H1351 H 0.83809 0.11858 0.08276 0.0
H1352 H 0.83695 0.12107 0.04236 0.0
H1353 H 0.7245 0.0977 0.11736 0.0
H1354 H 0.74773 0.10011 0.14288 0.0
H1355 H 0.72924 0.13118 0.12004 0.0
H1356 H 0.8103 0.13308 0.18079 0.0
H1357 H 0.75971 0.20539 0.12791 0.0
H1358 H 0.82835 0.08558 0.12703 0.0
H1359 H 0.79836 0.08044 0.14689 0.0
H1360 H 0.82304 0.08692 0.16742 0.0
H1361 H 0.76572 0.17406 0.06209 0.0
H1362 H 0.74189 0.20133 0.08342 0.0
H1363 H 0.73634 0.16801 0.08235 0.0
C1364 C 0.59781 0.60582 0.9286 0.0
C1365 C 0.60239 0.58187 0.91329 0.0
C1366 C 0.61524 0.6221 0.92274 0.0
C1367 C 0.63785 0.61419 0.9011 0.0
C1368 C 0.64337 0.58927 0.88664 0.0
C1369 C 0.62551 0.57344 0.89285 0.0
C1370 C 0.60868 0.64854 0.93866 0.0
C1371 C 0.66754 0.57991 0.8638 0.0
C1372 C 0.65935 0.67514 0.86086 0.0
C1373 C 0.68112 0.67384 0.87724 0.0
C1374 C 0.64563 0.65529 0.86788 0.0
C1375 C 0.65406 0.63347 0.8917 0.0
C1376 C 0.67676 0.63134 0.90752 0.0
C1377 C 0.68992 0.65172 0.90023 0.0
C1378 C 0.6214 0.65838 0.85061 0.0
C1379 C 0.68659 0.60809 0.93271 0.0
H1380 H 0.57993 0.61255 0.94427 0.0
H1381 H 0.62949 0.55459 0.88146 0.0
H1382 H 0.62689 0.64848 0.94926 0.0
H1383 H 0.60301 0.66754 0.92194 0.0
H1384 H 0.59157 0.65059 0.95644 0.0
H1385 H 0.67065 0.55851 0.85706 0.0
H1386 H 0.66435 0.59526 0.84324 0.0
H1387 H 0.68646 0.57961 0.87308 0.0
H1388 H 0.65231 0.69239 0.84331 0.0
H1389 H 0.70695 0.65054 0.91271 0.0
H1390 H 0.60261 0.6629 0.86622 0.0
H1391 H 0.62415 0.63828 0.84104 0.0
H1392 H 0.61825 0.67573 0.83185 0.0
H1393 H 0.67097 0.61125 0.95217 0.0
H1394 H 0.70613 0.60769 0.94064 0.0
H1395 H 0.68946 0.5871 0.92513 0.0
C1396 C 0.47644 0.61062 0.81993 0.0
C1397 C 0.48029 0.59025 0.84514 0.0
C1398 C 0.45109 0.63234 0.81622 0.0
C1399 C 0.42916 0.63454 0.83881 0.0
C1400 C 0.43273 0.61351 0.86389 0.0
C1401 C 0.45802 0.59145 0.86649 0.0
C1402 C 0.44817 0.65371 0.78868 0.0
C1403 C 0.41044 0.61532 0.88905 0.0
C1404 C 0.38225 0.71031 0.84793 0.0
C1405 C 0.35874 0.712 0.83431 0.0
C1406 C 0.40466 0.68511 0.85033 0.0
C1407 C 0.40413 0.66073 0.8382 0.0
C1408 C 0.3802 0.66202 0.8249 0.0
C1409 C 0.35765 0.68759 0.82336 0.0
C1410 C 0.42926 0.68487 0.86528 0.0
C1411 C 0.37886 0.63677 0.81123 0.0
H1412 H 0.49345 0.60982 0.80325 0.0
H1413 H 0.46081 0.57602 0.88623 0.0
H1414 H 0.42873 0.65721 0.7785 0.0
H1415 H 0.44751 0.67437 0.7954 0.0
H1416 H 0.46539 0.64685 0.77122 0.0
H1417 H 0.41524 0.59597 0.9054 0.0
H1418 H 0.40771 0.63388 0.90149 0.0
H1419 H 0.3907 0.61859 0.87973 0.0
H1420 H 0.38331 0.72902 0.85652 0.0
H1421 H 0.33976 0.68882 0.81241 0.0
H1422 H 0.44708 0.68186 0.84836 0.0
H1423 H 0.43476 0.66689 0.88323 0.0
H1424 H 0.42569 0.70488 0.87552 0.0
H1425 H 0.39442 0.63187 0.7918 0.0
H1426 H 0.35844 0.64055 0.8032 0.0
H1427 H 0.38373 0.61779 0.828 0.0
C1428 C 0.46266 0.46271 0.9261 0.0
C1429 C 0.49063 0.45094 0.92995 0.0
C1430 C 0.44826 0.44639 0.91745 0.0
C1431 C 0.46248 0.41788 0.91177 0.0
C1432 C 0.49065 0.4057 0.91634 0.0
C1433 C 0.50436 0.42236 0.92571 0.0
C1434 C 0.41807 0.45988 0.91352 0.0
C1435 C 0.50657 0.37553 0.90997 0.0
C1436 C 0.42207 0.36848 0.90995 0.0
C1437 C 0.41957 0.36984 0.87886 0.0
C1438 C 0.43596 0.38405 0.92099 0.0
C1439 C 0.44798 0.40102 0.90035 0.0
C1440 C 0.44585 0.40219 0.86884 0.0
C1441 C 0.43133 0.38678 0.85846 0.0
C1442 C 0.43734 0.38275 0.95474 0.0
C1443 C 0.45884 0.41973 0.84617 0.0
H1444 H 0.45229 0.48491 0.92922 0.0
H1445 H 0.52616 0.41356 0.92808 0.0
H1446 H 0.41433 0.46127 0.88935 0.0
H1447 H 0.40663 0.4466 0.92654 0.0
H1448 H 0.40973 0.48155 0.92105 0.0
H1449 H 0.52815 0.36899 0.91565 0.0
H1450 H 0.49686 0.36071 0.92308 0.0
H1451 H 0.50635 0.37332 0.88564 0.0
H1452 H 0.41253 0.35569 0.92573 0.0
H1453 H 0.42934 0.38775 0.83443 0.0
H1454 H 0.42775 0.40431 0.96227 0.0
H1455 H 0.45895 0.37513 0.96041 0.0
H1456 H 0.42685 0.3685 0.96771 0.0
H1457 H 0.44973 0.44246 0.85008 0.0
H1458 H 0.45618 0.41748 0.82244 0.0
H1459 H 0.48102 0.41331 0.84912 0.0
C1460 C 0.62238 0.44534 0.8677 0.0
C1461 C 0.61574 0.46725 0.84398 0.0
C1462 C 0.6471 0.42244 0.86626 0.0
C1463 C 0.66556 0.42082 0.84014 0.0
C1464 C 0.65843 0.4422 0.81556 0.0
C1465 C 0.63386 0.46531 0.81793 0.0
C1466 C 0.65398 0.40066 0.89334 0.0
C1467 C 0.67707 0.44102 0.78695 0.0
C1468 C 0.74186 0.38206 0.8474 0.0
C1469 C 0.74565 0.35545 0.83786 0.0
C1470 C 0.71592 0.40315 0.84878 0.0
C1471 C 0.69313 0.39799 0.83947 0.0
C1472 C 0.69683 0.3711 0.8298 0.0
C1473 C 0.72289 0.34997 0.82976 0.0
C1474 C 0.71297 0.43104 0.86017 0.0
C1475 C 0.67339 0.3648 0.81894 0.0
H1476 H 0.60872 0.44664 0.88807 0.0
H1477 H 0.62894 0.48198 0.79943 0.0
H1478 H 0.65898 0.37899 0.88647 0.0
H1479 H 0.67234 0.40151 0.90292 0.0
H1480 H 0.63698 0.40415 0.91139 0.0
H1481 H 0.66745 0.45754 0.76881 0.0
H1482 H 0.69619 0.4441 0.79179 0.0
H1483 H 0.68285 0.41986 0.77848 0.0
H1484 H 0.75927 0.38644 0.85394 0.0
H1485 H 0.72555 0.32936 0.82278 0.0
H1486 H 0.697 0.43543 0.87927 0.0
H1487 H 0.70632 0.44858 0.84196 0.0
H1488 H 0.73236 0.43125 0.86792 0.0
H1489 H 0.65698 0.36635 0.83743 0.0
H1490 H 0.6798 0.34334 0.81099 0.0
H1491 H 0.66448 0.38078 0.80007 0.0
C1492 C 0.62128 0.4592 0.26377 0.0
C1493 C 0.62655 0.48414 0.25177 0.0
C1494 C 0.64291 0.43374 0.27033 0.0
C1495 C 0.67041 0.43343 0.26549 0.0
C1496 C 0.67557 0.45907 0.25497 0.0
C1497 C 0.65367 0.48388 0.24774 0.0
C1498 C 0.63641 0.40683 0.28064 0.0
C1499 C 0.70435 0.46006 0.25008 0.0
C1500 C 0.72716 0.37038 0.30068 0.0
C1501 C 0.7391 0.35506 0.27569 0.0
C1502 C 0.70498 0.39595 0.29773 0.0
C1503 C 0.69383 0.4061 0.26931 0.0
C1504 C 0.70561 0.39043 0.24412 0.0
C1505 C 0.72824 0.36542 0.24752 0.0
C1506 C 0.69361 0.41224 0.325 0.0
C1507 C 0.69413 0.39995 0.21352 0.0
H1508 H 0.60039 0.45915 0.26616 0.0
H1509 H 0.65781 0.50307 0.23811 0.0
H1510 H 0.64419 0.39201 0.26284 0.0
H1511 H 0.64679 0.39605 0.30136 0.0
H1512 H 0.6141 0.41088 0.28534 0.0
H1513 H 0.70476 0.48213 0.24517 0.0
H1514 H 0.71573 0.44994 0.27036 0.0
H1515 H 0.71533 0.44798 0.23077 0.0
H1516 H 0.73513 0.36238 0.3226 0.0
H1517 H 0.73709 0.35362 0.22813 0.0
H1518 H 0.67162 0.41483 0.32988 0.0
H1519 H 0.69523 0.43382 0.32021 0.0
H1520 H 0.7045 0.40157 0.34549 0.0
H1521 H 0.672 0.40268 0.21559 0.0
H1522 H 0.7046 0.38463 0.19666 0.0
H1523 H 0.69621 0.42084 0.2048 0.0
C1524 C 0.64242 0.59822 0.21714 0.0
C1525 C 0.62133 0.61219 0.19809 0.0
C1526 C 0.66087 0.61125 0.22303 0.0
C1527 C 0.65816 0.63905 0.20961 0.0
C1528 C 0.63726 0.6531 0.1898 0.0
C1529 C 0.61913 0.63942 0.18416 0.0
C1530 C 0.68302 0.59538 0.24404 0.0
C1531 C 0.63364 0.68281 0.17522 0.0
C1532 C 0.69004 0.67869 0.25225 0.0
C1533 C 0.7155 0.67449 0.23593 0.0
C1534 C 0.67063 0.66844 0.24309 0.0
C1535 C 0.67692 0.6534 0.2171 0.0
C1536 C 0.70219 0.64998 0.19991 0.0
C1537 C 0.72115 0.66063 0.20949 0.0
C1538 C 0.64379 0.67282 0.26184 0.0
C1539 C 0.7097 0.63397 0.17217 0.0
H1540 H 0.64446 0.57698 0.22753 0.0
H1541 H 0.60272 0.65036 0.16963 0.0
H1542 H 0.70336 0.59403 0.23251 0.0
H1543 H 0.68032 0.60703 0.2642 0.0
H1544 H 0.68289 0.57354 0.2518 0.0
H1545 H 0.6172 0.69029 0.15933 0.0
H1546 H 0.62854 0.69765 0.19296 0.0
H1547 H 0.65299 0.68376 0.1627 0.0
H1548 H 0.68541 0.6898 0.27242 0.0
H1549 H 0.74086 0.65716 0.19689 0.0
H1550 H 0.64276 0.65206 0.27276 0.0
H1551 H 0.62649 0.68196 0.24719 0.0
H1552 H 0.64106 0.68706 0.27977 0.0
H1553 H 0.71209 0.6113 0.17892 0.0
H1554 H 0.72906 0.63527 0.15986 0.0
H1555 H 0.69317 0.64236 0.15646 0.0
C1556 C 0.45799 0.6269 0.22937 0.0
C1557 C 0.48168 0.6183 0.24512 0.0
C1558 C 0.43533 0.65046 0.23662 0.0
C1559 C 0.43624 0.66633 0.26013 0.0
C1560 C 0.45989 0.65746 0.27666 0.0
C1561 C 0.48231 0.6334 0.26909 0.0
C1562 C 0.41048 0.65858 0.21873 0.0
C1563 C 0.4617 0.67374 0.30187 0.0
C1564 C 0.38427 0.74132 0.25353 0.0
C1565 C 0.36175 0.73711 0.27118 0.0
C1566 C 0.40935 0.71886 0.25105 0.0
C1567 C 0.41206 0.69186 0.26718 0.0
C1568 C 0.38988 0.68841 0.28688 0.0
C1569 C 0.36497 0.71089 0.28826 0.0
C1570 C 0.43232 0.72347 0.22958 0.0
C1571 C 0.39176 0.66043 0.3051 0.0
H1572 H 0.45722 0.61524 0.21095 0.0
H1573 H 0.50063 0.62707 0.28116 0.0
H1574 H 0.39226 0.65843 0.23416 0.0
H1575 H 0.40634 0.68043 0.20741 0.0
H1576 H 0.41298 0.64397 0.20123 0.0
H1577 H 0.48092 0.66354 0.31338 0.0
H1578 H 0.46068 0.69561 0.29265 0.0
H1579 H 0.44408 0.67558 0.31888 0.0
H1580 H 0.3818 0.76155 0.24027 0.0
H1581 H 0.34764 0.70767 0.30226 0.0
H1582 H 0.43489 0.7116 0.2096 0.0
H1583 H 0.45186 0.71516 0.24061 0.0
H1584 H 0.42835 0.74625 0.22158 0.0
H1585 H 0.39104 0.64507 0.28984 0.0
H1586 H 0.3747 0.66263 0.32297 0.0
H1587 H 0.41139 0.65137 0.31592 0.0
C1588 C 0.49904 0.46766 0.19245 0.0
C1589 C 0.49315 0.49456 0.20228 0.0
C1590 C 0.48078 0.45233 0.19984 0.0
C1591 C 0.45592 0.4643 0.21722 0.0
C1592 C 0.44945 0.49186 0.22628 0.0
C1593 C 0.46819 0.50659 0.21881 0.0
C1594 C 0.48846 0.42296 0.1898 0.0
C1595 C 0.42297 0.50558 0.24438 0.0
C1596 C 0.39971 0.43226 0.21675 0.0
C1597 C 0.40285 0.41422 0.24384 0.0
C1598 C 0.41656 0.44896 0.20799 0.0
C1599 C 0.43714 0.44758 0.22671 0.0
C1600 C 0.44018 0.42974 0.25429 0.0
C1601 C 0.42303 0.41325 0.2625 0.0
C1602 C 0.41265 0.46772 0.17843 0.0
C1603 C 0.46176 0.42783 0.27498 0.0
H1604 H 0.51839 0.45816 0.17994 0.0
H1605 H 0.46341 0.52755 0.22605 0.0
H1606 H 0.49044 0.40713 0.20993 0.0
H1607 H 0.47215 0.42155 0.17688 0.0
H1608 H 0.50803 0.41713 0.17546 0.0
H1609 H 0.4204 0.52769 0.24833 0.0
H1610 H 0.40538 0.50582 0.23248 0.0
H1611 H 0.4223 0.49303 0.26663 0.0
H1612 H 0.38445 0.43283 0.20196 0.0
H1613 H 0.42538 0.39961 0.2836 0.0
H1614 H 0.43129 0.46069 0.16285 0.0
H1615 H 0.40952 0.48994 0.18233 0.0
H1616 H 0.39494 0.46733 0.16712 0.0
H1617 H 0.48233 0.42011 0.26292 0.0
H1618 H 0.46116 0.41335 0.29588 0.0
H1619 H 0.45899 0.44918 0.28154 0.0
C1620 C 0.76959 0.64793 0.65521 0.0
C1621 C 0.79459 0.63251 0.64088 0.0
C1622 C 0.76851 0.66694 0.67619 0.0
C1623 C 0.79307 0.66993 0.68352 0.0
C1624 C 0.81838 0.65349 0.66994 0.0
C1625 C 0.81878 0.63531 0.64857 0.0
C1626 C 0.74107 0.68457 0.68969 0.0
C1627 C 0.84508 0.65548 0.67754 0.0
C1628 C 0.79332 0.73757 0.71254 0.0
C1629 C 0.7936 0.73003 0.74384 0.0
C1630 C 0.79231 0.7185 0.69278 0.0
C1631 C 0.79248 0.69089 0.70451 0.0
C1632 C 0.79329 0.68301 0.7361 0.0
C1633 C 0.79333 0.70286 0.75544 0.0
C1634 C 0.79068 0.72807 0.65938 0.0
C1635 C 0.79428 0.65356 0.74944 0.0
H1636 H 0.75085 0.64599 0.6491 0.0
H1637 H 0.83819 0.62325 0.63771 0.0
H1638 H 0.74047 0.68144 0.71475 0.0
H1639 H 0.73783 0.70741 0.68289 0.0
H1640 H 0.72396 0.67922 0.68234 0.0
H1641 H 0.86307 0.63982 0.66661 0.0
H1642 H 0.84596 0.67706 0.67003 0.0
H1643 H 0.84659 0.65193 0.7024 0.0
H1644 H 0.79284 0.75881 0.7036 0.0
H1645 H 0.79334 0.69707 0.77968 0.0
H1646 H 0.77242 0.72541 0.6514 0.0
H1647 H 0.80887 0.71471 0.64643 0.0
H1648 H 0.78948 0.75062 0.65407 0.0
H1649 H 0.77596 0.64922 0.74409 0.0
H1650 H 0.79527 0.65065 0.7744 0.0
H1651 H 0.81242 0.63757 0.73922 0.0
C1652 C 0.46992 0.7989 0.65488 0.0
C1653 C 0.49318 0.77551 0.66215 0.0
C1654 C 0.44392 0.80203 0.67047 0.0
C1655 C 0.44069 0.78144 0.69428 0.0
C1656 C 0.46411 0.7579 0.70182 0.0
C1657 C 0.48978 0.75522 0.6858 0.0
C1658 C 0.41977 0.82741 0.66129 0.0
C1659 C 0.46211 0.73546 0.7271 0.0
C1660 C 0.37989 0.80113 0.75458 0.0
C1661 C 0.36224 0.78797 0.74632 0.0
C1662 C 0.40508 0.79942 0.73785 0.0
C1663 C 0.41309 0.78455 0.7116 0.0
C1664 C 0.39505 0.77182 0.70269 0.0
C1665 C 0.37017 0.77342 0.72018 0.0
C1666 C 0.42351 0.81298 0.7488 0.0
C1667 C 0.40223 0.75609 0.67479 0.0
H1668 H 0.47187 0.81466 0.63661 0.0
H1669 H 0.50735 0.73724 0.6922 0.0
H1670 H 0.40348 0.82026 0.65477 0.0
H1671 H 0.41107 0.84013 0.68073 0.0
H1672 H 0.42533 0.84129 0.64204 0.0
H1673 H 0.48205 0.71845 0.73034 0.0
H1674 H 0.45457 0.74529 0.74862 0.0
H1675 H 0.44715 0.72565 0.72227 0.0
H1676 H 0.37439 0.8122 0.7748 0.0
H1677 H 0.35694 0.76309 0.71341 0.0
H1678 H 0.42824 0.82827 0.73064 0.0
H1679 H 0.44318 0.79648 0.7544 0.0
H1680 H 0.41425 0.8243 0.76915 0.0
H1681 H 0.40677 0.76995 0.65493 0.0
H1682 H 0.38553 0.74874 0.66979 0.0
H1683 H 0.42093 0.73737 0.67784 0.0
C1684 C 0.29134 0.42523 0.62952 0.0
C1685 C 0.31825 0.42008 0.61623 0.0
C1686 C 0.28526 0.40845 0.65558 0.0
C1687 C 0.30638 0.38547 0.66897 0.0
C1688 C 0.33354 0.3804 0.65608 0.0
C1689 C 0.33914 0.39768 0.63029 0.0
C1690 C 0.25603 0.41515 0.66863 0.0
C1691 C 0.35685 0.35636 0.66936 0.0
C1692 C 0.29688 0.35 0.74967 0.0
C1693 C 0.28989 0.32664 0.74402 0.0
C1694 C 0.30145 0.36977 0.72574 0.0
C1695 C 0.29997 0.3657 0.69517 0.0
C1696 C 0.29317 0.34194 0.68949 0.0
C1697 C 0.28784 0.32312 0.71381 0.0
C1698 C 0.30802 0.39496 0.73319 0.0
C1699 C 0.29234 0.33581 0.65752 0.0
H1700 H 0.27474 0.44222 0.6195 0.0
H1701 H 0.36009 0.3933 0.62118 0.0
H1702 H 0.24859 0.39744 0.66618 0.0
H1703 H 0.25472 0.41734 0.69319 0.0
H1704 H 0.24222 0.43498 0.65732 0.0
H1705 H 0.37634 0.3532 0.65507 0.0
H1706 H 0.35988 0.36074 0.69211 0.0
H1707 H 0.35195 0.33636 0.67223 0.0
H1708 H 0.29864 0.35291 0.77285 0.0
H1709 H 0.28287 0.30498 0.70902 0.0
H1710 H 0.29449 0.41482 0.72168 0.0
H1711 H 0.32935 0.39304 0.72478 0.0
H1712 H 0.3057 0.39679 0.75793 0.0
H1713 H 0.27753 0.35416 0.64527 0.0
H1714 H 0.28656 0.31664 0.65678 0.0
H1715 H 0.31272 0.33259 0.64517 0.0
C1716 C 0.57378 0.27007 0.60634 0.0
C1717 C 0.56235 0.28751 0.58072 0.0
C1718 C 0.59131 0.27694 0.6232 0.0
C1719 C 0.5979 0.30203 0.61444 0.0
C1720 C 0.58565 0.32042 0.58924 0.0
C1721 C 0.56795 0.31299 0.57269 0.0
C1722 C 0.60354 0.25669 0.6499 0.0
C1723 C 0.59201 0.34742 0.57917 0.0
C1724 C 0.62961 0.32347 0.67627 0.0
C1725 C 0.65778 0.31088 0.66888 0.0
C1726 C 0.60992 0.32227 0.65785 0.0
C1727 C 0.61838 0.30799 0.63129 0.0
C1728 C 0.64674 0.29627 0.62302 0.0
C1729 C 0.666 0.29787 0.6418 0.0
C1730 C 0.58 0.33508 0.66767 0.0
C1731 C 0.65683 0.28086 0.59497 0.0
H1732 H 0.56947 0.25043 0.61297 0.0
H1733 H 0.55945 0.32648 0.55282 0.0
H1734 H 0.62608 0.24806 0.64556 0.0
H1735 H 0.59921 0.26803 0.67052 0.0
H1736 H 0.59552 0.23863 0.65452 0.0
H1737 H 0.57922 0.3606 0.56091 0.0
H1738 H 0.58879 0.36014 0.59857 0.0
H1739 H 0.61382 0.34218 0.57072 0.0
H1740 H 0.6228 0.33333 0.69719 0.0
H1741 H 0.6876 0.28853 0.6354 0.0
H1742 H 0.57122 0.31788 0.67522 0.0
H1743 H 0.56862 0.34819 0.64843 0.0
H1744 H 0.57665 0.34845 0.68657 0.0
H1745 H 0.65171 0.26098 0.59796 0.0
H1746 H 0.67928 0.27537 0.59001 0.0
H1747 H 0.64652 0.29403 0.5751 0.0
C1748 C 0.73508 0.53621 0.5185 0.0
C1749 C 0.74545 0.53326 0.54669 0.0
C1750 C 0.7332 0.51275 0.50637 0.0
C1751 C 0.74225 0.48562 0.52279 0.0
C1752 C 0.74932 0.48324 0.55295 0.0
C1753 C 0.75064 0.50729 0.56471 0.0
C1754 C 0.72517 0.5165 0.47431 0.0
C1755 C 0.75869 0.45482 0.57145 0.0
C1756 C 0.73777 0.42623 0.48119 0.0
C1757 C 0.76364 0.41791 0.46537 0.0
C1758 C 0.73092 0.44696 0.50173 0.0
C1759 C 0.75018 0.46005 0.50591 0.0
C1760 C 0.77662 0.45092 0.49076 0.0
C1761 C 0.783 0.42997 0.47082 0.0
C1762 C 0.70281 0.45558 0.51803 0.0
C1763 C 0.79783 0.46435 0.49426 0.0
H1764 H 0.73101 0.55636 0.50461 0.0
H1765 H 0.75855 0.50494 0.58661 0.0
H1766 H 0.74382 0.50867 0.4589 0.0
H1767 H 0.71175 0.504 0.47213 0.0
H1768 H 0.71443 0.53911 0.46669 0.0
H1769 H 0.7573 0.4572 0.596 0.0
H1770 H 0.74647 0.44148 0.56778 0.0
H1771 H 0.78034 0.44344 0.56432 0.0
H1772 H 0.72284 0.41672 0.47728 0.0
H1773 H 0.8029 0.4239 0.45841 0.0
H1774 H 0.69028 0.47661 0.50777 0.0
H1775 H 0.70403 0.45761 0.54219 0.0
H1776 H 0.69217 0.44011 0.51667 0.0
H1777 H 0.79068 0.48699 0.48503 0.0
H1778 H 0.81789 0.45365 0.48231 0.0
H1779 H 0.80085 0.46365 0.51854 0.0
C1780 C 0.68678 0.76962 0.50209 0.0
C1781 C 0.6582 0.78245 0.50264 0.0
C1782 C 0.70415 0.77253 0.47599 0.0
C1783 C 0.69298 0.78825 0.44902 0.0
C1784 C 0.66413 0.80158 0.4495 0.0
C1785 C 0.64722 0.79879 0.47622 0.0
C1786 C 0.73458 0.75813 0.47718 0.0
C1787 C 0.65099 0.81814 0.42144 0.0
C1788 C 0.74108 0.81196 0.38681 0.0
C1789 C 0.74877 0.79013 0.36754 0.0
C1790 C 0.72283 0.81186 0.41299 0.0
C1791 C 0.71143 0.78964 0.42024 0.0
C1792 C 0.71873 0.7679 0.40049 0.0
C1793 C 0.73728 0.76829 0.37481 0.0
C1794 C 0.71638 0.83519 0.43345 0.0
C1795 C 0.70722 0.74381 0.4067 0.0
H1796 H 0.6957 0.75725 0.5223 0.0
H1797 H 0.62527 0.80865 0.47612 0.0
H1798 H 0.74141 0.74001 0.4632 0.0
H1799 H 0.7457 0.77299 0.46767 0.0
H1800 H 0.74044 0.74998 0.50061 0.0
H1801 H 0.62851 0.82794 0.4255 0.0
H1802 H 0.65986 0.83512 0.41307 0.0
H1803 H 0.65528 0.80387 0.40324 0.0
H1804 H 0.74986 0.82884 0.38188 0.0
H1805 H 0.74289 0.75118 0.36041 0.0
H1806 H 0.72375 0.82597 0.45608 0.0
H1807 H 0.69396 0.84572 0.43668 0.0
H1808 H 0.72599 0.85147 0.42437 0.0
H1809 H 0.71499 0.73062 0.42773 0.0
H1810 H 0.71286 0.72995 0.38795 0.0
H1811 H 0.68461 0.75226 0.41026 0.0
C1812 C 0.3072 0.60959 0.45768 0.0
C1813 C 0.32412 0.58511 0.4444 0.0
C1814 C 0.30286 0.63714 0.44256 0.0
C1815 C 0.31544 0.64075 0.41308 0.0
C1816 C 0.33259 0.61613 0.39958 0.0
C1817 C 0.3368 0.58885 0.41534 0.0
C1818 C 0.28482 0.66248 0.4583 0.0
C1819 C 0.34652 0.61859 0.3683 0.0
C1820 C 0.28494 0.70973 0.36144 0.0
C1821 C 0.30291 0.72482 0.36309 0.0
C1822 C 0.28864 0.68267 0.37761 0.0
C1823 C 0.31073 0.67012 0.39636 0.0
C1824 C 0.3286 0.68552 0.39859 0.0
C1825 C 0.32462 0.71237 0.38191 0.0
C1826 C 0.26917 0.66718 0.37407 0.0
C1827 C 0.35226 0.67346 0.41836 0.0
H1828 H 0.29759 0.60727 0.48023 0.0
H1829 H 0.34975 0.57033 0.40459 0.0
H1830 H 0.29637 0.67701 0.46002 0.0
H1831 H 0.26718 0.67453 0.44483 0.0
H1832 H 0.27697 0.65633 0.48141 0.0
H1833 H 0.3581 0.59754 0.36023 0.0
H1834 H 0.33119 0.63067 0.35195 0.0
H1835 H 0.36088 0.63052 0.36834 0.0
H1836 H 0.26826 0.71874 0.34686 0.0
H1837 H 0.33881 0.72352 0.38345 0.0
H1838 H 0.25957 0.66193 0.39651 0.0
H1839 H 0.28058 0.64684 0.36443 0.0
H1840 H 0.25278 0.67981 0.35911 0.0
H1841 H 0.34489 0.6676 0.44175 0.0
H1842 H 0.36336 0.68863 0.41916 0.0
H1843 H 0.36688 0.65381 0.40969 0.0
C1844 C 0.46047 0.26298 0.43193 0.0
C1845 C 0.45998 0.2806 0.45409 0.0
C1846 C 0.43802 0.26804 0.41473 0.0
C1847 C 0.41399 0.29146 0.41945 0.0
C1848 C 0.41383 0.31039 0.44052 0.0
C1849 C 0.43676 0.30477 0.45757 0.0
C1850 C 0.43948 0.24712 0.39276 0.0
C1851 C 0.38887 0.33582 0.44617 0.0
C1852 C 0.35905 0.30551 0.36286 0.0
C1853 C 0.34241 0.29049 0.37831 0.0
C1854 C 0.38178 0.30718 0.37628 0.0
C1855 C 0.38819 0.29331 0.40571 0.0
C1856 C 0.371 0.2787 0.4214 0.0
C1857 C 0.34853 0.27757 0.40765 0.0
C1858 C 0.39922 0.32329 0.35871 0.0
C1859 C 0.37676 0.26337 0.45257 0.0
H1860 H 0.47829 0.24441 0.42857 0.0
H1861 H 0.43601 0.31863 0.47448 0.0
H1862 H 0.42536 0.23515 0.40144 0.0
H1863 H 0.43288 0.25842 0.3705 0.0
H1864 H 0.4604 0.2317 0.38936 0.0
H1865 H 0.3932 0.35076 0.45943 0.0
H1866 H 0.38098 0.34732 0.42442 0.0
H1867 H 0.37245 0.32867 0.4589 0.0
H1868 H 0.35441 0.31584 0.34035 0.0
H1869 H 0.33582 0.26603 0.42 0.0
H1870 H 0.41925 0.30811 0.35128 0.0
H1871 H 0.40325 0.33744 0.37325 0.0
H1872 H 0.3895 0.33623 0.33837 0.0
H1873 H 0.39672 0.24601 0.45144 0.0
H1874 H 0.36077 0.25408 0.46237 0.0
H1875 H 0.37818 0.27812 0.46817 0.0
C1876 C 0.65199 0.80316 0.65076 0.0
C1877 C 0.6235 0.81412 0.65577 0.0
C1878 C 0.66927 0.80796 0.66972 0.0
C1879 C 0.65787 0.82353 0.69502 0.0
C1880 C 0.62899 0.83505 0.7 0.0
C1881 C 0.6121 0.83041 0.68011 0.0
C1882 C 0.69984 0.79574 0.66299 0.0
C1883 C 0.61601 0.85127 0.72698 0.0
C1884 C 0.70892 0.80668 0.75514 0.0
C1885 C 0.71977 0.82884 0.74811 0.0
C1886 C 0.68728 0.80575 0.73957 0.0
C1887 C 0.67654 0.82727 0.71604 0.0
C1888 C 0.68654 0.85044 0.71002 0.0
C1889 C 0.708 0.8509 0.72607 0.0
C1890 C 0.67722 0.78071 0.74696 0.0
C1891 C 0.67599 0.87376 0.68512 0.0
H1892 H 0.6608 0.79036 0.63208 0.0
H1893 H 0.59007 0.83838 0.68439 0.0
H1894 H 0.70918 0.8127 0.66139 0.0
H1895 H 0.70897 0.7797 0.68169 0.0
H1896 H 0.70539 0.78551 0.64154 0.0
H1897 H 0.59339 0.86002 0.72695 0.0
H1898 H 0.62142 0.83703 0.74811 0.0
H1899 H 0.62401 0.86898 0.72741 0.0
H1900 H 0.71849 0.78909 0.7713 0.0
H1901 H 0.71645 0.868 0.72038 0.0
H1902 H 0.68501 0.76631 0.72877 0.0
H1903 H 0.65457 0.78781 0.74815 0.0
H1904 H 0.68422 0.76846 0.76876 0.0
H1905 H 0.68275 0.86517 0.66284 0.0
H1906 H 0.68352 0.89183 0.6856 0.0
H1907 H 0.65333 0.88179 0.68692 0.0
C1908 C 0.61264 0.27139 0.43535 0.0
C1909 C 0.61456 0.24786 0.45666 0.0
C1910 C 0.63622 0.27563 0.4197 0.0
C1911 C 0.66245 0.25632 0.42613 0.0
C1912 C 0.66446 0.233 0.44836 0.0
C1913 C 0.64053 0.22885 0.463 0.0
C1914 C 0.63302 0.30038 0.3957 0.0
C1915 C 0.69191 0.21228 0.45654 0.0
C1916 C 0.72156 0.25019 0.36549 0.0
C1917 C 0.73457 0.26773 0.37462 0.0
C1918 C 0.69828 0.24624 0.38207 0.0
C1919 C 0.6877 0.25985 0.40878 0.0
C1920 C 0.70111 0.277 0.41861 0.0
C1921 C 0.72422 0.28086 0.40137 0.0
C1922 C 0.6846 0.22797 0.37053 0.0
C1923 C 0.69082 0.29157 0.44716 0.0
H1924 H 0.5926 0.28598 0.43026 0.0
H1925 H 0.64208 0.21084 0.47973 0.0
H1926 H 0.64442 0.31395 0.40099 0.0
H1927 H 0.64185 0.29247 0.37348 0.0
H1928 H 0.61128 0.31363 0.3936 0.0
H1929 H 0.69005 0.19629 0.47557 0.0
H1930 H 0.70269 0.201 0.43665 0.0
H1931 H 0.70484 0.22382 0.46295 0.0
H1932 H 0.72912 0.24 0.34484 0.0
H1933 H 0.73397 0.29449 0.40871 0.0
H1934 H 0.66321 0.24077 0.36596 0.0
H1935 H 0.68377 0.21039 0.38798 0.0
H1936 H 0.69537 0.21875 0.34946 0.0
H1937 H 0.66996 0.30699 0.44471 0.0
H1938 H 0.70423 0.30304 0.45257 0.0
H1939 H 0.6894 0.27579 0.46655 0.0
C1940 C 0.83402 0.63792 0.47314 0.0
C1941 C 0.80819 0.635 0.4741 0.0
C1942 C 0.84349 0.6534 0.44832 0.0
C1943 C 0.82668 0.6662 0.42402 0.0
C1944 C 0.80165 0.66112 0.4238 0.0
C1945 C 0.79282 0.64553 0.44875 0.0
C1946 C 0.87043 0.65802 0.44929 0.0
C1947 C 0.78283 0.67449 0.3987 0.0
C1948 C 0.82671 0.73891 0.38871 0.0
C1949 C 0.84007 0.73335 0.35999 0.0
C1950 C 0.82244 0.71722 0.40955 0.0
C1951 C 0.83253 0.68887 0.40203 0.0
C1952 C 0.84656 0.68292 0.37325 0.0
C1953 C 0.84981 0.70535 0.35231 0.0
C1954 C 0.8065 0.72486 0.43944 0.0
C1955 C 0.85783 0.65296 0.36452 0.0
H1956 H 0.84594 0.62985 0.49266 0.0
H1957 H 0.77303 0.64287 0.44919 0.0
H1958 H 0.88209 0.65587 0.42684 0.0
H1959 H 0.86662 0.67988 0.45504 0.0
H1960 H 0.88314 0.64284 0.4665 0.0
H1961 H 0.76642 0.66497 0.39941 0.0
H1962 H 0.77308 0.69753 0.40096 0.0
H1963 H 0.79438 0.67228 0.37622 0.0
H1964 H 0.81874 0.76055 0.39471 0.0
H1965 H 0.86003 0.70101 0.33008 0.0
H1966 H 0.81957 0.71428 0.45834 0.0
H1967 H 0.78872 0.7172 0.44246 0.0
H1968 H 0.7989 0.7481 0.44118 0.0
H1969 H 0.87098 0.63892 0.38203 0.0
H1970 H 0.86996 0.65157 0.3423 0.0
H1971 H 0.84083 0.64473 0.3633 0.0
C1972 C 0.52256 0.81847 0.4987 0.0
C1973 C 0.51949 0.82609 0.52822 0.0
C1974 C 0.49981 0.82189 0.48295 0.0
C1975 C 0.47322 0.83291 0.49725 0.0
C1976 C 0.46994 0.84239 0.5264 0.0
C1977 C 0.49323 0.83895 0.54159 0.0
C1978 C 0.50436 0.81172 0.45183 0.0
C1979 C 0.44199 0.85416 0.54245 0.0
C1980 C 0.41821 0.84984 0.44247 0.0
C1981 C 0.41307 0.82398 0.44499 0.0
C1982 C 0.43622 0.85397 0.46103 0.0
C1983 C 0.44949 0.8317 0.48253 0.0
C1984 C 0.44286 0.80634 0.48666 0.0
C1985 C 0.42474 0.80281 0.46786 0.0
C1986 C 0.44254 0.88139 0.45609 0.0
C1987 C 0.45632 0.78212 0.50953 0.0
H1988 H 0.54292 0.80835 0.4885 0.0
H1989 H 0.49087 0.84429 0.56469 0.0
H1990 H 0.49804 0.79268 0.4528 0.0
H1991 H 0.4917 0.82828 0.43568 0.0
H1992 H 0.5261 0.8061 0.44288 0.0
H1993 H 0.4426 0.86497 0.56234 0.0
H1994 H 0.42753 0.86936 0.52684 0.0
H1995 H 0.43385 0.83657 0.55046 0.0
H1996 H 0.40942 0.8663 0.42479 0.0
H1997 H 0.42046 0.78299 0.47035 0.0
H1998 H 0.46322 0.87759 0.44435 0.0
H1999 H 0.44264 0.88933 0.47806 0.0
H2000 H 0.42758 0.89809 0.44213 0.0
H2001 H 0.4782 0.77242 0.50194 0.0
H2002 H 0.44659 0.76537 0.51251 0.0
H2003 H 0.45545 0.78995 0.5318 0.0
C2004 C 0.25293 0.46789 0.45822 0.0
C2005 C 0.2792 0.45512 0.46838 0.0
C2006 C 0.24302 0.45446 0.43868 0.0
C2007 C 0.25981 0.42779 0.42931 0.0
C2008 C 0.28579 0.41434 0.44076 0.0
C2009 C 0.29508 0.42815 0.46006 0.0
C2010 C 0.21515 0.46933 0.42712 0.0
C2011 C 0.30438 0.38574 0.43171 0.0
C2012 C 0.24125 0.37345 0.39414 0.0
C2013 C 0.2539 0.37555 0.36485 0.0
C2014 C 0.24009 0.3926 0.41485 0.0
C2015 C 0.25178 0.41427 0.40595 0.0
C2016 C 0.26147 0.41851 0.37539 0.0
C2017 C 0.26245 0.39906 0.35521 0.0
C2018 C 0.22914 0.38762 0.44709 0.0
C2019 C 0.27372 0.44162 0.36477 0.0
H2020 H 0.24057 0.48871 0.46466 0.0
H2021 H 0.31524 0.41791 0.46821 0.0
H2022 H 0.2175 0.47798 0.40321 0.0
H2023 H 0.20374 0.45425 0.42771 0.0
H2024 H 0.20285 0.48714 0.44048 0.0
H2025 H 0.32336 0.37763 0.44385 0.0
H2026 H 0.29359 0.36992 0.43641 0.0
H2027 H 0.31023 0.38738 0.40703 0.0
H2028 H 0.23427 0.35556 0.40179 0.0
H2029 H 0.27173 0.40122 0.33242 0.0
H2030 H 0.21779 0.40801 0.45664 0.0
H2031 H 0.24648 0.37613 0.4612 0.0
H2032 H 0.21546 0.37465 0.44879 0.0
H2033 H 0.26112 0.46181 0.37399 0.0
H2034 H 0.27574 0.44532 0.33969 0.0
H2035 H 0.29437 0.43541 0.37313 0.0
C2036 C 0.46977 0.21425 0.64461 0.0
C2037 C 0.46347 0.23622 0.62097 0.0
C2038 C 0.45305 0.21567 0.6719 0.0
C2039 C 0.42908 0.23942 0.67559 0.0
C2040 C 0.42263 0.26162 0.65174 0.0
C2041 C 0.43999 0.2599 0.62493 0.0
C2042 C 0.46104 0.19172 0.69679 0.0
C2043 C 0.39716 0.2871 0.65441 0.0
C2044 C 0.37094 0.23181 0.73285 0.0
C2045 C 0.37319 0.24643 0.75656 0.0
C2046 C 0.38907 0.22915 0.70662 0.0
C2047 C 0.41046 0.24088 0.70408 0.0
C2048 C 0.41343 0.2548 0.7284 0.0
C2049 C 0.39464 0.25767 0.75412 0.0
C2050 C 0.38473 0.21463 0.68113 0.0
C2051 C 0.43616 0.26719 0.727 0.0
H2052 H 0.48803 0.19603 0.64189 0.0
H2053 H 0.43482 0.27681 0.6067 0.0
H2054 H 0.46283 0.20011 0.7179 0.0
H2055 H 0.44493 0.18165 0.70168 0.0
H2056 H 0.48073 0.17518 0.69082 0.0
H2057 H 0.39489 0.30252 0.63387 0.0
H2058 H 0.37886 0.28026 0.65835 0.0
H2059 H 0.39768 0.29798 0.67421 0.0
H2060 H 0.35426 0.22337 0.7342 0.0
H2061 H 0.39658 0.26905 0.77222 0.0
H2062 H 0.40359 0.19702 0.67535 0.0
H2063 H 0.38022 0.22992 0.66059 0.0
H2064 H 0.36763 0.20597 0.68686 0.0
H2065 H 0.45615 0.2509 0.72158 0.0
H2066 H 0.43698 0.27541 0.74861 0.0
H2067 H 0.43325 0.28484 0.70865 0.0
C2068 C 0.83874 0.47539 0.66581 0.0
C2069 C 0.83486 0.47807 0.6349 0.0
C2070 C 0.835 0.45249 0.68541 0.0
C2071 C 0.828 0.43125 0.67368 0.0
C2072 C 0.82482 0.4335 0.64227 0.0
C2073 C 0.82779 0.45714 0.6234 0.0
C2074 C 0.83768 0.45152 0.71884 0.0
C2075 C 0.81798 0.41114 0.62859 0.0
C2076 C 0.84212 0.3601 0.722 0.0
C2077 C 0.81591 0.36136 0.73469 0.0
C2078 C 0.84624 0.38234 0.70158 0.0
C2079 C 0.82373 0.4069 0.69434 0.0
C2080 C 0.79721 0.40833 0.70726 0.0
C2081 C 0.79357 0.38539 0.72689 0.0
C2082 C 0.87472 0.37953 0.68773 0.0
C2083 C 0.77274 0.4344 0.70094 0.0
H2084 H 0.84356 0.4919 0.67486 0.0
H2085 H 0.82456 0.45938 0.59956 0.0
H2086 H 0.8182 0.45148 0.73175 0.0
H2087 H 0.85373 0.43165 0.72664 0.0
H2088 H 0.84288 0.46983 0.72442 0.0
H2089 H 0.79701 0.41151 0.63692 0.0
H2090 H 0.81908 0.41444 0.60347 0.0
H2091 H 0.83218 0.38972 0.63562 0.0
H2092 H 0.85946 0.34154 0.72781 0.0
H2093 H 0.7733 0.38664 0.7369 0.0
H2094 H 0.88145 0.39623 0.69481 0.0
H2095 H 0.8748 0.38263 0.66268 0.0
H2096 H 0.88979 0.35849 0.69442 0.0
H2097 H 0.77616 0.45327 0.70773 0.0
H2098 H 0.7536 0.43243 0.71322 0.0
H2099 H 0.76995 0.43834 0.67635 0.0
C2100 C 0.27973 0.58019 0.58524 0.0
C2101 C 0.30236 0.56534 0.56712 0.0
C2102 C 0.28 0.60398 0.59819 0.0
C2103 C 0.30332 0.61285 0.59241 0.0
C2104 C 0.3251 0.59928 0.57201 0.0
C2105 C 0.32436 0.5756 0.55964 0.0
C2106 C 0.25629 0.61836 0.61968 0.0
C2107 C 0.35015 0.60828 0.56505 0.0
C2108 C 0.29844 0.68194 0.62081 0.0
C2109 C 0.30823 0.67226 0.64955 0.0
C2110 C 0.29748 0.66278 0.6013 0.0
C2111 C 0.30667 0.63344 0.6109 0.0
C2112 C 0.31847 0.62348 0.63891 0.0
C2113 C 0.31908 0.64306 0.65795 0.0
C2114 C 0.28525 0.67399 0.57129 0.0
C2115 C 0.32904 0.5922 0.64957 0.0
H2116 H 0.26267 0.57229 0.59066 0.0
H2117 H 0.34158 0.56445 0.54485 0.0
H2118 H 0.26275 0.61356 0.64314 0.0
H2119 H 0.24978 0.64172 0.61427 0.0
H2120 H 0.23849 0.61118 0.6189 0.0
H2121 H 0.36309 0.59853 0.54521 0.0
H2122 H 0.34434 0.63168 0.5606 0.0
H2123 H 0.36261 0.6017 0.58492 0.0
H2124 H 0.29034 0.70455 0.61419 0.0
H2125 H 0.32636 0.63548 0.68027 0.0
H2126 H 0.26507 0.67098 0.57218 0.0
H2127 H 0.29837 0.66209 0.55281 0.0
H2128 H 0.28235 0.69692 0.56557 0.0
H2129 H 0.31188 0.58354 0.65293 0.0
H2130 H 0.33897 0.58799 0.67118 0.0
H2131 H 0.34405 0.58045 0.63221 0.0
loop_
_geom_bond_atom_site_label_1
_geom_bond_atom_site_label_2
_geom_bond_distance
_geom_bond_site_symmetry_2
_ccdc_geom_bond_type
Cu0 N1 1.999 . S
Cu0 O6 1.974 1_545 S
Cu0 N11 1.985 1_545 S
Cu0 O20 1.965 . S
N1 Cu0 1.999 . S
N1 C3 1.263 . S
N1 C5 1.389 . S
N2 C3 1.358 . S
N2 C4 1.400 . S
C3 N1 1.263 . S
C3 N2 1.358 . S
C3 H9 0.930 . S
C4 N2 1.400 . S
C4 C5 1.351 . S
C4 H21 0.930 . S
C5 N1 1.389 . S
C5 C4 1.351 . S
C5 H10 0.930 . S
O6 Cu0 1.974 1_565 S
O6 C16 1.282 . S
C7 O8 1.261 1_655 S
C7 O20 1.249 1_655 S
O8 C7 1.261 1_455 S
H9 C3 0.930 . S
H10 C5 0.930 . S
N11 Cu0 1.985 1_565 S
N11 C13 1.335 1_455 S
N11 C14 1.390 . S
N12 C13 1.345 . S
N12 C15 1.336 1_655 S
C13 N11 1.335 1_655 S
C13 N12 1.345 . S
C13 H18 0.930 . S
C14 N11 1.390 . S
C14 C15 1.346 . S
C14 H19 0.930 . S
C15 N12 1.336 1_455 S
C15 C14 1.346 . S
C15 H22 0.929 . S
C16 O6 1.282 . S
C16 O17 1.216 . S
O17 C16 1.216 . S
H18 C13 0.930 . S
H19 C14 0.930 . S
O20 Cu0 1.965 . S
O20 C7 1.249 1_455 S
H21 C4 0.930 . S
H22 C15 0.929 . S
Cu23 N24 2.002 1_455 S
Cu23 O29 1.974 1_455 S
Cu23 N34 1.985 . S
Cu23 O43 1.959 . S
N24 Cu23 2.002 1_655 S
N24 C26 1.260 . S
N24 C28 1.389 1_645 S
N25 C26 1.399 . S
N25 C27 1.382 1_545 S
C26 N24 1.260 . S
C26 N25 1.399 . S
C26 H32 0.930 . S
C27 N25 1.382 1_565 S
C27 C28 1.351 1_655 S
C27 H44 0.930 . S
C28 N24 1.389 1_465 S
C28 C27 1.351 1_455 S
C28 H33 0.930 . S
O29 Cu23 1.974 1_655 S
O29 C39 1.282 . S
C30 O31 1.261 . S
C30 O43 1.251 . S
O31 C30 1.261 . S
H32 C26 0.930 . S
H33 C28 0.930 . S
N34 Cu23 1.985 . S
N34 C36 1.335 . S
N34 C37 1.390 . S
N35 C36 1.345 . S
N35 C38 1.336 . S
C36 N34 1.335 . S
C36 N35 1.345 . S
C36 H41 0.930 . S
C37 N34 1.390 . S
C37 C38 1.346 . S
C37 H42 0.930 . S
C38 N35 1.336 . S
C38 C37 1.346 . S
C38 H45 0.929 . S
C39 O29 1.282 . S
C39 O40 1.216 . S
O40 C39 1.216 . S
H41 C36 0.930 . S
H42 C37 0.930 . S
O43 Cu23 1.959 . S
O43 C30 1.251 . S
H44 C27 0.930 . S
H45 C38 0.929 . S
Cu46 N47 1.999 . S
Cu46 O52 1.974 . S
Cu46 N57 1.985 . S
Cu46 O66 1.959 . S
N47 Cu46 1.999 . S
N47 C49 1.263 . S
N47 C51 1.389 . S
N48 C49 1.358 1_565 S
N48 C50 1.400 1_565 S
C49 N47 1.263 . S
C49 N48 1.358 1_545 S
C49 H55 0.930 . S
C50 N48 1.400 1_545 S
C50 C51 1.351 . S
C50 H67 0.930 1_554 S
C51 N47 1.389 . S
C51 C50 1.351 . S
C51 H56 0.930 . S
O52 Cu46 1.974 . S
O52 C62 1.282 . S
C53 O54 1.261 . S
C53 O66 1.251 . S
O54 C53 1.261 . S
H55 C49 0.930 . S
H56 C51 0.930 . S
N57 Cu46 1.985 . S
N57 C59 1.335 . S
N57 C60 1.390 . S
N58 C59 1.345 . S
N58 C61 1.336 . S
C59 N57 1.335 . S
C59 N58 1.345 . S
C59 H64 0.930 . S
C60 N57 1.390 . S
C60 C61 1.346 . S
C60 H65 0.930 . S
C61 N58 1.336 . S
C61 C60 1.346 . S
C61 H68 0.929 . S
C62 O52 1.282 . S
C62 O63 1.216 . S
O63 C62 1.216 . S
H64 C59 0.930 . S
H65 C60 0.930 . S
O66 Cu46 1.959 . S
O66 C53 1.251 . S
H67 C50 0.930 1_556 S
H68 C61 0.929 . S
Cu69 N70 1.999 . S
Cu69 O75 1.974 . S
Cu69 N80 1.985 . S
Cu69 O89 1.959 . S
N70 Cu69 1.999 . S
N70 C72 1.263 . S
N70 C74 1.389 . S
N71 C72 1.358 . S
N71 C73 1.400 1_554 S
C72 N70 1.263 . S
C72 N71 1.358 . S
C72 H78 0.930 . S
C73 N71 1.400 1_556 S
C73 C74 1.351 1_556 S
C73 H90 0.930 . S
C74 N70 1.389 . S
C74 C73 1.351 1_554 S
C74 H79 0.930 1_554 S
O75 Cu69 1.974 . S
O75 C85 1.282 . S
C76 O77 1.261 . S
C76 O89 1.251 . S
O77 C76 1.261 . S
H78 C72 0.930 . S
H79 C74 0.930 1_556 S
N80 Cu69 1.985 . S
N80 C82 1.335 1_455 S
N80 C83 1.390 . S
N81 C82 1.345 . S
N81 C84 1.336 1_655 S
C82 N80 1.335 1_655 S
C82 N81 1.345 . S
C82 H87 0.930 . S
C83 N80 1.390 . S
C83 C84 1.346 . S
C83 H88 0.930 . S
C84 N81 1.336 1_455 S
C84 C83 1.346 . S
C84 H91 0.929 . S
C85 O75 1.282 . S
C85 O86 1.216 . S
O86 C85 1.216 . S
H87 C82 0.930 . S
H88 C83 0.930 . S
O89 Cu69 1.959 . S
O89 C76 1.251 . S
H90 C73 0.930 . S
H91 C84 0.929 . S
Cu92 N93 1.999 1_554 S
Cu92 O98 1.974 . S
Cu92 N103 1.985 1_545 S
Cu92 O112 1.959 1_544 S
N93 Cu92 1.999 1_556 S
N93 C95 1.263 . S
N93 C97 1.389 . S
N94 C95 1.358 . S
N94 C96 1.400 . S
C95 N93 1.263 . S
C95 N94 1.358 . S
C95 H101 0.930 . S
C96 N94 1.400 . S
C96 C97 1.351 . S
C96 H113 0.930 . S
C97 N93 1.389 . S
C97 C96 1.351 . S
C97 H102 0.930 . S
O98 Cu92 1.974 . S
O98 C108 1.282 . S
C99 O100 1.261 . S
C99 O112 1.251 . S
O100 C99 1.261 . S
H101 C95 0.930 . S
H102 C97 0.930 . S
N103 Cu92 1.985 1_565 S
N103 C105 1.335 . S
N103 C106 1.390 . S
N104 C105 1.345 . S
N104 C107 1.336 . S
C105 N103 1.335 . S
C105 N104 1.345 . S
C105 H110 0.930 . S
C106 N103 1.390 . S
C106 C107 1.346 . S
C106 H111 0.930 . S
C107 N104 1.336 . S
C107 C106 1.346 . S
C107 H114 0.929 . S
C108 O98 1.282 . S
C108 O109 1.216 . S
O109 C108 1.216 . S
H110 C105 0.930 . S
H111 C106 0.930 . S
O112 Cu92 1.959 1_566 S
O112 C99 1.251 . S
H113 C96 0.930 . S
H114 C107 0.929 . S
Cu115 N116 1.999 1_454 S
Cu115 O121 1.974 1_455 S
Cu115 N126 1.985 . S
Cu115 O135 1.959 1_554 S
N116 Cu115 1.999 1_656 S
N116 C118 1.263 . S
N116 C120 1.392 . S
N117 C118 1.358 . S
N117 C119 1.400 . S
C118 N116 1.263 . S
C118 N117 1.358 . S
C118 H124 0.946 . S
C119 N117 1.400 . S
C119 C120 1.373 . S
C119 H136 0.930 . S
C120 N116 1.392 . S
C120 C119 1.373 . S
C120 H125 0.908 1_655 S
O121 Cu115 1.974 1_655 S
O121 C131 1.282 . S
C122 O123 1.261 . S
C122 O135 1.251 . S
O123 C122 1.261 . S
H124 C118 0.946 . S
H125 C120 0.908 1_455 S
N126 Cu115 1.985 . S
N126 C128 1.335 . S
N126 C129 1.390 . S
N127 C128 1.345 . S
N127 C130 1.336 . S
C128 N126 1.335 . S
C128 N127 1.345 . S
C128 H133 0.930 . S
C129 N126 1.390 . S
C129 C130 1.346 . S
C129 H134 0.930 . S
C130 N127 1.336 . S
C130 C129 1.346 . S
C130 H137 0.929 . S
C131 O121 1.282 . S
C131 O132 1.216 . S
O132 C131 1.216 . S
H133 C128 0.930 . S
H134 C129 0.930 . S
O135 Cu115 1.959 1_556 S
O135 C122 1.251 . S
H136 C119 0.930 . S
H137 C130 0.929 . S
Cu138 N139 1.999 . S
Cu138 O144 1.974 . S
Cu138 N149 1.985 . S
Cu138 O158 1.959 . S
N139 Cu138 1.999 . S
N139 C141 1.263 . S
N139 C143 1.389 . S
N140 C141 1.358 . S
N140 C142 1.400 . S
C141 N139 1.263 . S
C141 N140 1.358 . S
C141 H147 0.930 . S
C142 N140 1.400 . S
C142 C143 1.351 . S
C142 H159 0.930 . S
C143 N139 1.389 . S
C143 C142 1.351 . S
C143 H148 0.930 . S
O144 Cu138 1.974 . S
O144 C154 1.282 . S
C145 O146 1.261 . S
C145 O158 1.251 . S
O146 C145 1.261 . S
H147 C141 0.930 . S
H148 C143 0.930 . S
N149 Cu138 1.985 . S
N149 C151 1.335 . S
N149 C152 1.390 . S
N150 C151 1.345 . S
N150 C153 1.336 . S
C151 N149 1.335 . S
C151 N150 1.345 . S
C151 H156 0.930 . S
C152 N149 1.390 . S
C152 C153 1.346 . S
C152 H157 0.930 . S
C153 N150 1.336 . S
C153 C152 1.346 . S
C153 H160 0.929 . S
C154 O144 1.282 . S
C154 O155 1.216 . S
O155 C154 1.216 . S
H156 C151 0.930 . S
H157 C152 0.930 . S
O158 Cu138 1.959 . S
O158 C145 1.251 . S
H159 C142 0.930 . S
H160 C153 0.929 . S
Cu161 N162 1.999 . S
Cu161 O167 1.974 . S
Cu161 N172 1.985 . S
Cu161 O181 1.959 . S
N162 Cu161 1.999 . S
N162 C164 1.263 . S
N162 C166 1.389 . S
N163 C164 1.358 . S
N163 C165 1.400 . S
C164 N162 1.263 . S
C164 N163 1.358 . S
C164 H170 0.930 . S
C165 N163 1.400 . S
C165 C166 1.351 . S
C165 H182 0.930 . S
C166 N162 1.389 . S
C166 C165 1.351 . S
C166 H171 0.930 . S
O167 Cu161 1.974 . S
O167 C177 1.282 . S
C168 O169 1.261 . S
C168 O181 1.251 . S
O169 C168 1.261 . S
H170 C164 0.930 . S
H171 C166 0.930 . S
N172 Cu161 1.985 . S
N172 C174 1.335 . S
N172 C175 1.390 . S
N173 C174 1.345 . S
N173 C176 1.336 . S
C174 N172 1.335 . S
C174 N173 1.345 . S
C174 H179 0.930 . S
C175 N172 1.390 . S
C175 C176 1.346 . S
C175 H180 0.930 . S
C176 N173 1.336 . S
C176 C175 1.346 . S
C176 H183 0.929 . S
C177 O167 1.282 . S
C177 O178 1.216 . S
O178 C177 1.216 . S
H179 C174 0.930 . S
H180 C175 0.930 . S
O181 Cu161 1.959 . S
O181 C168 1.251 . S
H182 C165 0.930 . S
H183 C176 0.929 . S
Cu184 N185 1.999 . S
Cu184 O190 1.974 . S
Cu184 N195 1.985 . S
Cu184 O204 1.959 . S
N185 Cu184 1.999 . S
N185 C187 1.263 . S
N185 C189 1.389 . S
N186 C187 1.358 . S
N186 C188 1.400 . S
C187 N185 1.263 . S
C187 N186 1.358 . S
C187 H193 0.930 . S
C188 N186 1.400 . S
C188 C189 1.351 . S
C188 H205 0.930 . S
C189 N185 1.389 . S
C189 C188 1.351 . S
C189 H194 0.930 . S
O190 Cu184 1.974 . S
O190 C200 1.282 . S
C191 O192 1.261 . S
C191 O204 1.251 . S
O192 C191 1.261 . S
H193 C187 0.930 . S
H194 C189 0.930 . S
N195 Cu184 1.985 . S
N195 C197 1.335 . S
N195 C198 1.390 . S
N196 C197 1.345 . S
N196 C199 1.336 . S
C197 N195 1.335 . S
C197 N196 1.345 . S
C197 H202 0.930 . S
C198 N195 1.390 . S
C198 C199 1.346 . S
C198 H203 0.930 . S
C199 N196 1.336 . S
C199 C198 1.346 . S
C199 H206 0.929 . S
C200 O190 1.282 . S
C200 O201 1.216 . S
O201 C200 1.216 . S
H202 C197 0.930 . S
H203 C198 0.930 . S
O204 Cu184 1.959 . S
O204 C191 1.251 . S
H205 C188 0.930 . S
H206 C199 0.929 . S
Cu207 N208 1.999 . S
Cu207 O213 1.974 . S
Cu207 N218 1.985 . S
Cu207 O227 1.959 . S
N208 Cu207 1.999 . S
N208 C210 1.263 . S
N208 C212 1.389 . S
N209 C210 1.358 . S
N209 C211 1.400 . S
C210 N208 1.263 . S
C210 N209 1.358 . S
C210 H216 0.930 . S
C211 N209 1.400 . S
C211 C212 1.351 . S
C211 H228 0.930 . S
C212 N208 1.389 . S
C212 C211 1.351 . S
C212 H217 0.930 . S
O213 Cu207 1.974 . S
O213 C223 1.282 . S
C214 O215 1.261 . S
C214 O227 1.251 . S
O215 C214 1.261 . S
H216 C210 0.930 . S
H217 C212 0.930 . S
N218 Cu207 1.985 . S
N218 C220 1.335 . S
N218 C221 1.390 . S
N219 C220 1.345 . S
N219 C222 1.336 . S
C220 N218 1.335 . S
C220 N219 1.345 . S
C220 H225 0.930 . S
C221 N218 1.390 . S
C221 C222 1.346 . S
C221 H226 0.930 . S
C222 N219 1.336 . S
C222 C221 1.346 . S
C222 H229 0.929 . S
C223 O213 1.282 . S
C223 O224 1.216 . S
O224 C223 1.216 . S
H225 C220 0.930 . S
H226 C221 0.930 . S
O227 Cu207 1.959 . S
O227 C214 1.251 . S
H228 C211 0.930 . S
H229 C222 0.929 . S
Cu230 N231 1.999 . S
Cu230 O236 1.974 . S
Cu230 N241 1.985 . S
Cu230 O250 1.959 . S
N231 Cu230 1.999 . S
N231 C233 1.263 . S
N231 C235 1.389 . S
N232 C233 1.358 . S
N232 C234 1.400 . S
C233 N231 1.263 . S
C233 N232 1.358 . S
C233 H239 0.930 . S
C234 N232 1.400 . S
C234 C235 1.351 . S
C234 H251 0.930 . S
C235 N231 1.389 . S
C235 C234 1.351 . S
C235 H240 0.930 . S
O236 Cu230 1.974 . S
O236 C246 1.282 . S
C237 O238 1.261 . S
C237 O250 1.251 . S
O238 C237 1.261 . S
H239 C233 0.930 . S
H240 C235 0.930 . S
N241 Cu230 1.985 . S
N241 C243 1.335 . S
N241 C244 1.390 . S
N242 C243 1.345 . S
N242 C245 1.336 . S
C243 N241 1.335 . S
C243 N242 1.345 . S
C243 H248 0.930 . S
C244 N241 1.390 . S
C244 C245 1.346 . S
C244 H249 0.930 . S
C245 N242 1.336 . S
C245 C244 1.346 . S
C245 H252 0.929 . S
C246 O236 1.282 . S
C246 O247 1.216 . S
O247 C246 1.216 . S
H248 C243 0.930 . S
H249 C244 0.930 . S
O250 Cu230 1.959 . S
O250 C237 1.251 . S
H251 C234 0.930 . S
H252 C245 0.929 . S
Cu253 N254 1.999 . S
Cu253 O259 1.974 . S
Cu253 N264 1.985 . S
Cu253 O273 1.959 . S
N254 Cu253 1.999 . S
N254 C256 1.263 . S
N254 C258 1.389 . S
N255 C256 1.358 . S
N255 C257 1.400 . S
C256 N254 1.263 . S
C256 N255 1.358 . S
C256 H262 0.930 . S
C257 N255 1.400 . S
C257 C258 1.351 . S
C257 H274 0.930 . S
C258 N254 1.389 . S
C258 C257 1.351 . S
C258 H263 0.930 . S
O259 Cu253 1.974 . S
O259 C269 1.282 . S
C260 O261 1.261 . S
C260 O273 1.251 . S
O261 C260 1.261 . S
H262 C256 0.930 . S
H263 C258 0.930 . S
N264 Cu253 1.985 . S
N264 C266 1.335 . S
N264 C267 1.390 . S
N265 C266 1.345 . S
N265 C268 1.336 . S
C266 N264 1.335 . S
C266 N265 1.345 . S
C266 H271 0.930 . S
C267 N264 1.390 . S
C267 C268 1.346 . S
C267 H272 0.930 . S
C268 N265 1.336 . S
C268 C267 1.346 . S
C268 H275 0.929 . S
C269 O259 1.282 . S
C269 O270 1.216 . S
O270 C269 1.216 . S
H271 C266 0.930 . S
H272 C267 0.930 . S
O273 Cu253 1.959 . S
O273 C260 1.251 . S
H274 C257 0.930 . S
H275 C268 0.929 . S
Sm276 C278 2.846 . S
Sm276 O296 2.543 . S
Sm276 O297 2.450 . S
Sm276 O298 2.681 . S
Sm276 O299 2.464 . S
Sm276 O300 2.396 . S
Sm276 O304 2.386 . S
Sm276 O307 2.408 . S
Sm277 C287 2.846 . S
Sm277 O298 2.386 . S
Sm277 O301 2.408 . S
Sm277 O302 2.543 . S
Sm277 O303 2.450 . S
Sm277 O304 2.681 . S
Sm277 O305 2.464 . S
Sm277 O306 2.396 . S
C278 Sm276 2.846 . S
C278 C279 1.506 . S
C278 O296 1.261 . S
C278 O297 1.242 . S
C279 C278 1.506 . S
C279 C280 1.358 . S
C279 C284 1.382 . S
C280 C279 1.358 . S
C280 C281 1.385 . S
C280 H308 0.930 . S
C281 C280 1.385 . S
C281 C282 1.395 . S
C281 H309 0.929 . S
C282 C281 1.395 . S
C282 C283 1.335 . S
C283 C282 1.335 . S
C283 C284 1.398 . S
C283 H310 0.930 . S
C284 C279 1.382 . S
C284 C283 1.398 . S
C284 H311 0.929 . S
C285 O298 1.271 . S
C285 O299 1.251 . S
C286 O300 1.252 . S
C286 O301 1.272 . S
C287 Sm277 2.846 . S
C287 C288 1.506 . S
C287 O302 1.261 . S
C287 O303 1.242 . S
C288 C287 1.506 . S
C288 C289 1.358 . S
C288 C293 1.382 . S
C289 C288 1.358 . S
C289 C290 1.385 . S
C289 H312 0.930 . S
C290 C289 1.385 . S
C290 C291 1.395 . S
C290 H313 0.929 . S
C291 C290 1.395 . S
C291 C292 1.335 . S
C292 C291 1.335 . S
C292 C293 1.398 . S
C292 H314 0.930 . S
C293 C288 1.382 . S
C293 C292 1.398 . S
C293 H315 0.929 . S
C294 O304 1.271 . S
C294 O305 1.251 . S
C295 O306 1.252 . S
C295 O307 1.272 . S
O296 Sm276 2.543 . S
O296 C278 1.261 . S
O297 Sm276 2.450 . S
O297 C278 1.242 . S
O298 Sm276 2.681 . S
O298 Sm277 2.386 . S
O298 C285 1.271 . S
O299 Sm276 2.464 . S
O299 C285 1.251 . S
O300 Sm276 2.396 . S
O300 C286 1.252 . S
O301 Sm277 2.408 . S
O301 C286 1.272 . S
O302 Sm277 2.543 . S
O302 C287 1.261 . S
O303 Sm277 2.450 . S
O303 C287 1.242 . S
O304 Sm276 2.386 . S
O304 Sm277 2.681 . S
O304 C294 1.271 . S
O305 Sm277 2.464 . S
O305 C294 1.251 . S
O306 Sm277 2.396 . S
O306 C295 1.252 . S
O307 Sm276 2.408 . S
O307 C295 1.272 . S
H308 C280 0.930 . S
H309 C281 0.929 . S
H310 C283 0.930 . S
H311 C284 0.929 . S
H312 C289 0.930 . S
H313 C290 0.929 . S
H314 C292 0.930 . S
H315 C293 0.929 . S
Sm316 C318 2.846 . S
Sm316 O336 2.543 . S
Sm316 O337 2.450 . S
Sm316 O338 2.681 . S
Sm316 O339 2.464 . S
Sm316 O340 2.396 . S
Sm316 O344 2.386 . S
Sm316 O347 2.408 . S
Sm317 C327 2.846 . S
Sm317 O338 2.386 . S
Sm317 O341 2.408 . S
Sm317 O342 2.543 . S
Sm317 O343 2.450 . S
Sm317 O344 2.681 . S
Sm317 O345 2.464 . S
Sm317 O346 2.396 . S
C318 Sm316 2.846 . S
C318 C319 1.506 . S
C318 O336 1.261 . S
C318 O337 1.242 . S
C319 C318 1.506 . S
C319 C320 1.358 . S
C319 C324 1.382 . S
C320 C319 1.358 . S
C320 C321 1.385 . S
C320 H348 0.930 . S
C321 C320 1.385 . S
C321 C322 1.395 . S
C321 H349 0.929 . S
C322 C321 1.395 . S
C322 C323 1.335 . S
C323 C322 1.335 . S
C323 C324 1.398 . S
C323 H350 0.930 . S
C324 C319 1.382 . S
C324 C323 1.398 . S
C324 H351 0.929 . S
C325 O338 1.271 . S
C325 O339 1.251 . S
C326 O340 1.252 . S
C326 O341 1.272 . S
C327 Sm317 2.846 . S
C327 C328 1.506 . S
C327 O342 1.261 . S
C327 O343 1.242 . S
C328 C327 1.506 . S
C328 C329 1.358 . S
C328 C333 1.382 . S
C329 C328 1.358 . S
C329 C330 1.385 . S
C329 H352 0.930 . S
C330 C329 1.385 . S
C330 C331 1.395 . S
C330 H353 0.929 . S
C331 C330 1.395 . S
C331 C332 1.335 . S
C332 C331 1.335 . S
C332 C333 1.398 . S
C332 H354 0.930 . S
C333 C328 1.382 . S
C333 C332 1.398 . S
C333 H355 0.929 . S
C334 O344 1.271 . S
C334 O345 1.251 . S
C335 O346 1.252 . S
C335 O347 1.272 . S
O336 Sm316 2.543 . S
O336 C318 1.261 . S
O337 Sm316 2.450 . S
O337 C318 1.242 . S
O338 Sm316 2.681 . S
O338 Sm317 2.386 . S
O338 C325 1.271 . S
O339 Sm316 2.464 . S
O339 C325 1.251 . S
O340 Sm316 2.396 . S
O340 C326 1.252 . S
O341 Sm317 2.408 . S
O341 C326 1.272 . S
O342 Sm317 2.543 . S
O342 C327 1.261 . S
O343 Sm317 2.450 . S
O343 C327 1.242 . S
O344 Sm316 2.386 . S
O344 Sm317 2.681 . S
O344 C334 1.271 . S
O345 Sm317 2.464 . S
O345 C334 1.251 . S
O346 Sm317 2.396 . S
O346 C335 1.252 . S
O347 Sm316 2.408 . S
O347 C335 1.272 . S
H348 C320 0.930 . S
H349 C321 0.929 . S
H350 C323 0.930 . S
H351 C324 0.929 . S
H352 C329 0.930 . S
H353 C330 0.929 . S
H354 C332 0.930 . S
H355 C333 0.929 . S
Sm356 C358 2.846 . S
Sm356 O376 2.543 . S
Sm356 O377 2.450 . S
Sm356 O378 2.681 . S
Sm356 O379 2.464 . S
Sm356 O380 2.396 . S
Sm356 O384 2.386 . S
Sm356 O387 2.408 . S
Sm357 C367 2.846 . S
Sm357 O378 2.386 . S
Sm357 O381 2.408 . S
Sm357 O382 2.543 . S
Sm357 O383 2.450 . S
Sm357 O384 2.681 . S
Sm357 O385 2.464 . S
Sm357 O386 2.396 . S
C358 Sm356 2.846 . S
C358 C359 1.506 . S
C358 O376 1.261 . S
C358 O377 1.242 . S
C359 C358 1.506 . S
C359 C360 1.358 . S
C359 C364 1.382 . S
C360 C359 1.358 . S
C360 C361 1.385 . S
C360 H388 0.930 . S
C361 C360 1.385 . S
C361 C362 1.395 . S
C361 H389 0.929 . S
C362 C361 1.395 . S
C362 C363 1.335 . S
C363 C362 1.335 . S
C363 C364 1.398 . S
C363 H390 0.930 . S
C364 C359 1.382 . S
C364 C363 1.398 . S
C364 H391 0.929 . S
C365 O378 1.271 . S
C365 O379 1.251 . S
C366 O380 1.252 . S
C366 O381 1.272 . S
C367 Sm357 2.846 . S
C367 C368 1.506 . S
C367 O382 1.261 . S
C367 O383 1.242 . S
C368 C367 1.506 . S
C368 C369 1.358 . S
C368 C373 1.382 . S
C369 C368 1.358 . S
C369 C370 1.385 . S
C369 H392 0.930 . S
C370 C369 1.385 . S
C370 C371 1.395 . S
C370 H393 0.929 . S
C371 C370 1.395 . S
C371 C372 1.335 . S
C372 C371 1.335 . S
C372 C373 1.398 . S
C372 H394 0.930 . S
C373 C368 1.382 . S
C373 C372 1.398 . S
C373 H395 0.929 . S
C374 O384 1.271 . S
C374 O385 1.251 . S
C375 O386 1.252 . S
C375 O387 1.272 . S
O376 Sm356 2.543 . S
O376 C358 1.261 . S
O377 Sm356 2.450 . S
O377 C358 1.242 . S
O378 Sm356 2.681 . S
O378 Sm357 2.386 . S
O378 C365 1.271 . S
O379 Sm356 2.464 . S
O379 C365 1.251 . S
O380 Sm356 2.396 . S
O380 C366 1.252 . S
O381 Sm357 2.408 . S
O381 C366 1.272 . S
O382 Sm357 2.543 . S
O382 C367 1.261 . S
O383 Sm357 2.450 . S
O383 C367 1.242 . S
O384 Sm356 2.386 . S
O384 Sm357 2.681 . S
O384 C374 1.271 . S
O385 Sm357 2.464 . S
O385 C374 1.251 . S
O386 Sm357 2.396 . S
O386 C375 1.252 . S
O387 Sm356 2.408 . S
O387 C375 1.272 . S
H388 C360 0.930 . S
H389 C361 0.929 . S
H390 C363 0.930 . S
H391 C364 0.929 . S
H392 C369 0.930 . S
H393 C370 0.929 . S
H394 C372 0.930 . S
H395 C373 0.929 . S
Sm396 C398 2.846 . S
Sm396 O416 2.543 . S
Sm396 O417 2.450 . S
Sm396 O418 2.681 . S
Sm396 O419 2.464 . S
Sm396 O420 2.396 . S
Sm396 O424 2.386 . S
Sm396 O427 2.408 . S
Sm397 C407 2.846 . S
Sm397 O418 2.386 . S
Sm397 O421 2.408 . S
Sm397 O422 2.543 . S
Sm397 O423 2.450 . S
Sm397 O424 2.681 . S
Sm397 O425 2.464 . S
Sm397 O426 2.396 . S
C398 Sm396 2.846 . S
C398 C399 1.506 . S
C398 O416 1.261 . S
C398 O417 1.242 . S
C399 C398 1.506 . S
C399 C400 1.358 . S
C399 C404 1.382 . S
C400 C399 1.358 . S
C400 C401 1.385 . S
C400 H428 0.930 . S
C401 C400 1.385 . S
C401 C402 1.395 . S
C401 H429 0.929 . S
C402 C401 1.395 . S
C402 C403 1.335 . S
C403 C402 1.335 . S
C403 C404 1.398 . S
C403 H430 0.930 . S
C404 C399 1.382 . S
C404 C403 1.398 . S
C404 H431 0.929 . S
C405 O418 1.271 . S
C405 O419 1.251 . S
C406 O420 1.252 . S
C406 O421 1.272 . S
C407 Sm397 2.846 . S
C407 C408 1.506 . S
C407 O422 1.261 . S
C407 O423 1.242 . S
C408 C407 1.506 . S
C408 C409 1.358 . S
C408 C413 1.382 . S
C409 C408 1.358 . S
C409 C410 1.385 . S
C409 H432 0.930 . S
C410 C409 1.385 . S
C410 C411 1.395 . S
C410 H433 0.929 . S
C411 C410 1.395 . S
C411 C412 1.335 . S
C412 C411 1.335 . S
C412 C413 1.398 . S
C412 H434 0.930 . S
C413 C408 1.382 . S
C413 C412 1.398 . S
C413 H435 0.929 . S
C414 O424 1.271 . S
C414 O425 1.251 . S
C415 O426 1.252 . S
C415 O427 1.272 . S
O416 Sm396 2.543 . S
O416 C398 1.261 . S
O417 Sm396 2.450 . S
O417 C398 1.242 . S
O418 Sm396 2.681 . S
O418 Sm397 2.386 . S
O418 C405 1.271 . S
O419 Sm396 2.464 . S
O419 C405 1.251 . S
O420 Sm396 2.396 . S
O420 C406 1.252 . S
O421 Sm397 2.408 . S
O421 C406 1.272 . S
O422 Sm397 2.543 . S
O422 C407 1.261 . S
O423 Sm397 2.450 . S
O423 C407 1.242 . S
O424 Sm396 2.386 . S
O424 Sm397 2.681 . S
O424 C414 1.271 . S
O425 Sm397 2.464 . S
O425 C414 1.251 . S
O426 Sm397 2.396 . S
O426 C415 1.252 . S
O427 Sm396 2.408 . S
O427 C415 1.272 . S
H428 C400 0.930 . S
H429 C401 0.929 . S
H430 C403 0.930 . S
H431 C404 0.929 . S
H432 C409 0.930 . S
H433 C410 0.929 . S
H434 C412 0.930 . S
H435 C413 0.929 . S
Sm436 C438 2.846 . S
Sm436 O456 2.543 . S
Sm436 O457 2.450 . S
Sm436 O458 2.681 . S
Sm436 O459 2.464 . S
Sm436 O460 2.396 . S
Sm436 O464 2.386 . S
Sm436 O467 2.408 . S
Sm437 C447 2.846 . S
Sm437 O458 2.386 . S
Sm437 O461 2.408 . S
Sm437 O462 2.543 . S
Sm437 O463 2.450 . S
Sm437 O464 2.681 . S
Sm437 O465 2.464 . S
Sm437 O466 2.396 . S
C438 Sm436 2.846 . S
C438 C439 1.506 . S
C438 O456 1.261 . S
C438 O457 1.242 . S
C439 C438 1.506 . S
C439 C440 1.358 . S
C439 C444 1.382 . S
C440 C439 1.358 . S
C440 C441 1.385 . S
C440 H468 0.930 . S
C441 C440 1.385 . S
C441 C442 1.395 . S
C441 H469 0.929 . S
C442 C441 1.395 . S
C442 C443 1.335 . S
C443 C442 1.335 . S
C443 C444 1.398 . S
C443 H470 0.930 . S
C444 C439 1.382 . S
C444 C443 1.398 . S
C444 H471 0.929 . S
C445 O458 1.271 . S
C445 O459 1.251 . S
C446 O460 1.252 . S
C446 O461 1.272 . S
C447 Sm437 2.846 . S
C447 C448 1.506 . S
C447 O462 1.261 . S
C447 O463 1.242 . S
C448 C447 1.506 . S
C448 C449 1.358 . S
C448 C453 1.382 . S
C449 C448 1.358 . S
C449 C450 1.385 . S
C449 H472 0.930 . S
C450 C449 1.385 . S
C450 C451 1.395 . S
C450 H473 0.929 . S
C451 C450 1.395 . S
C451 C452 1.335 . S
C452 C451 1.335 . S
C452 C453 1.398 . S
C452 H474 0.930 . S
C453 C448 1.382 . S
C453 C452 1.398 . S
C453 H475 0.929 . S
C454 O464 1.271 . S
C454 O465 1.251 . S
C455 O466 1.252 . S
C455 O467 1.272 . S
O456 Sm436 2.543 . S
O456 C438 1.261 . S
O457 Sm436 2.450 . S
O457 C438 1.242 . S
O458 Sm436 2.681 . S
O458 Sm437 2.386 . S
O458 C445 1.271 . S
O459 Sm436 2.464 . S
O459 C445 1.251 . S
O460 Sm436 2.396 . S
O460 C446 1.252 . S
O461 Sm437 2.408 . S
O461 C446 1.272 . S
O462 Sm437 2.543 . S
O462 C447 1.261 . S
O463 Sm437 2.450 . S
O463 C447 1.242 . S
O464 Sm436 2.386 . S
O464 Sm437 2.681 . S
O464 C454 1.271 . S
O465 Sm437 2.464 . S
O465 C454 1.251 . S
O466 Sm437 2.396 . S
O466 C455 1.252 . S
O467 Sm436 2.408 . S
O467 C455 1.272 . S
H468 C440 0.930 . S
H469 C441 0.929 . S
H470 C443 0.930 . S
H471 C444 0.929 . S
H472 C449 0.930 . S
H473 C450 0.929 . S
H474 C452 0.930 . S
H475 C453 0.929 . S
Sm476 C478 2.846 . S
Sm476 O496 2.543 . S
Sm476 O497 2.450 . S
Sm476 O498 2.681 . S
Sm476 O499 2.464 . S
Sm476 O500 2.396 . S
Sm476 O504 2.386 . S
Sm476 O507 2.408 . S
Sm477 C487 2.846 . S
Sm477 O498 2.386 . S
Sm477 O501 2.408 . S
Sm477 O502 2.543 . S
Sm477 O503 2.450 . S
Sm477 O504 2.681 . S
Sm477 O505 2.464 . S
Sm477 O506 2.396 . S
C478 Sm476 2.846 . S
C478 C479 1.506 . S
C478 O496 1.261 . S
C478 O497 1.242 . S
C479 C478 1.506 . S
C479 C480 1.358 . S
C479 C484 1.382 . S
C480 C479 1.358 . S
C480 C481 1.385 . S
C480 H508 0.930 . S
C481 C480 1.385 . S
C481 C482 1.395 . S
C481 H509 0.929 . S
C482 C481 1.395 . S
C482 C483 1.335 . S
C483 C482 1.335 . S
C483 C484 1.398 . S
C483 H510 0.930 . S
C484 C479 1.382 . S
C484 C483 1.398 . S
C484 H511 0.929 . S
C485 O498 1.271 . S
C485 O499 1.251 . S
C486 O500 1.252 . S
C486 O501 1.272 . S
C487 Sm477 2.846 . S
C487 C488 1.506 . S
C487 O502 1.261 . S
C487 O503 1.242 . S
C488 C487 1.506 . S
C488 C489 1.358 . S
C488 C493 1.382 . S
C489 C488 1.358 . S
C489 C490 1.385 . S
C489 H512 0.930 . S
C490 C489 1.385 . S
C490 C491 1.395 . S
C490 H513 0.929 . S
C491 C490 1.395 . S
C491 C492 1.335 . S
C492 C491 1.335 . S
C492 C493 1.398 . S
C492 H514 0.930 . S
C493 C488 1.382 . S
C493 C492 1.398 . S
C493 H515 0.929 . S
C494 O504 1.271 . S
C494 O505 1.251 . S
C495 O506 1.252 . S
C495 O507 1.272 . S
O496 Sm476 2.543 . S
O496 C478 1.261 . S
O497 Sm476 2.450 . S
O497 C478 1.242 . S
O498 Sm476 2.681 . S
O498 Sm477 2.386 . S
O498 C485 1.271 . S
O499 Sm476 2.464 . S
O499 C485 1.251 . S
O500 Sm476 2.396 . S
O500 C486 1.252 . S
O501 Sm477 2.408 . S
O501 C486 1.272 . S
O502 Sm477 2.543 . S
O502 C487 1.261 . S
O503 Sm477 2.450 . S
O503 C487 1.242 . S
O504 Sm476 2.386 . S
O504 Sm477 2.681 . S
O504 C494 1.271 . S
O505 Sm477 2.464 . S
O505 C494 1.251 . S
O506 Sm477 2.396 . S
O506 C495 1.252 . S
O507 Sm476 2.408 . S
O507 C495 1.272 . S
H508 C480 0.930 . S
H509 C481 0.929 . S
H510 C483 0.930 . S
H511 C484 0.929 . S
H512 C489 0.930 . S
H513 C490 0.929 . S
H514 C492 0.930 . S
H515 C493 0.929 . S
Sm516 C518 2.846 . S
Sm516 O536 2.543 . S
Sm516 O537 2.450 . S
Sm516 O538 2.681 . S
Sm516 O539 2.464 . S
Sm516 O540 2.396 . S
Sm516 O544 2.386 . S
Sm516 O547 2.408 . S
Sm517 C527 2.846 . S
Sm517 O538 2.386 . S
Sm517 O541 2.408 . S
Sm517 O542 2.543 . S
Sm517 O543 2.450 . S
Sm517 O544 2.681 . S
Sm517 O545 2.464 . S
Sm517 O546 2.396 . S
C518 Sm516 2.846 . S
C518 C519 1.506 . S
C518 O536 1.261 . S
C518 O537 1.242 . S
C519 C518 1.506 . S
C519 C520 1.358 . S
C519 C524 1.382 . S
C520 C519 1.358 . S
C520 C521 1.385 . S
C520 H548 0.930 . S
C521 C520 1.385 . S
C521 C522 1.395 . S
C521 H549 0.929 . S
C522 C521 1.395 . S
C522 C523 1.335 . S
C523 C522 1.335 . S
C523 C524 1.398 . S
C523 H550 0.930 . S
C524 C519 1.382 . S
C524 C523 1.398 . S
C524 H551 0.929 . S
C525 O538 1.271 . S
C525 O539 1.251 . S
C526 O540 1.252 . S
C526 O541 1.272 . S
C527 Sm517 2.846 . S
C527 C528 1.506 . S
C527 O542 1.261 . S
C527 O543 1.242 . S
C528 C527 1.506 . S
C528 C529 1.358 . S
C528 C533 1.382 . S
C529 C528 1.358 . S
C529 C530 1.385 . S
C529 H552 0.930 . S
C530 C529 1.385 . S
C530 C531 1.395 . S
C530 H553 0.929 . S
C531 C530 1.395 . S
C531 C532 1.335 . S
C532 C531 1.335 . S
C532 C533 1.398 . S
C532 H554 0.930 . S
C533 C528 1.382 . S
C533 C532 1.398 . S
C533 H555 0.929 . S
C534 O544 1.271 . S
C534 O545 1.251 . S
C535 O546 1.252 . S
C535 O547 1.272 . S
O536 Sm516 2.543 . S
O536 C518 1.261 . S
O537 Sm516 2.450 . S
O537 C518 1.242 . S
O538 Sm516 2.681 . S
O538 Sm517 2.386 . S
O538 C525 1.271 . S
O539 Sm516 2.464 . S
O539 C525 1.251 . S
O540 Sm516 2.396 . S
O540 C526 1.252 . S
O541 Sm517 2.408 . S
O541 C526 1.272 . S
O542 Sm517 2.543 . S
O542 C527 1.261 . S
O543 Sm517 2.450 . S
O543 C527 1.242 . S
O544 Sm516 2.386 . S
O544 Sm517 2.681 . S
O544 C534 1.271 . S
O545 Sm517 2.464 . S
O545 C534 1.251 . S
O546 Sm517 2.396 . S
O546 C535 1.252 . S
O547 Sm516 2.408 . S
O547 C535 1.272 . S
H548 C520 0.930 . S
H549 C521 0.929 . S
H550 C523 0.930 . S
H551 C524 0.929 . S
H552 C529 0.930 . S
H553 C530 0.929 . S
H554 C532 0.930 . S
H555 C533 0.929 . S
Sm556 C558 2.846 . S
Sm556 O576 2.543 . S
Sm556 O577 2.450 . S
Sm556 O578 2.681 . S
Sm556 O579 2.464 . S
Sm556 O580 2.396 . S
Sm556 O584 2.386 . S
Sm556 O587 2.408 . S
Sm557 C567 2.846 . S
Sm557 O578 2.386 . S
Sm557 O581 2.408 . S
Sm557 O582 2.543 . S
Sm557 O583 2.450 . S
Sm557 O584 2.681 . S
Sm557 O585 2.464 . S
Sm557 O586 2.396 . S
C558 Sm556 2.846 . S
C558 C559 1.506 . S
C558 O576 1.261 . S
C558 O577 1.242 . S
C559 C558 1.506 . S
C559 C560 1.358 . S
C559 C564 1.382 . S
C560 C559 1.358 . S
C560 C561 1.385 . S
C560 H588 0.930 . S
C561 C560 1.385 . S
C561 C562 1.395 . S
C561 H589 0.929 . S
C562 C561 1.395 . S
C562 C563 1.335 . S
C563 C562 1.335 . S
C563 C564 1.398 . S
C563 H590 0.930 . S
C564 C559 1.382 . S
C564 C563 1.398 . S
C564 H591 0.929 . S
C565 O578 1.271 . S
C565 O579 1.251 . S
C566 O580 1.252 . S
C566 O581 1.272 . S
C567 Sm557 2.846 . S
C567 C568 1.506 . S
C567 O582 1.261 . S
C567 O583 1.242 . S
C568 C567 1.506 . S
C568 C569 1.358 . S
C568 C573 1.382 . S
C569 C568 1.358 . S
C569 C570 1.385 . S
C569 H592 0.930 . S
C570 C569 1.385 . S
C570 C571 1.395 . S
C570 H593 0.929 . S
C571 C570 1.395 . S
C571 C572 1.335 . S
C572 C571 1.335 . S
C572 C573 1.398 . S
C572 H594 0.930 . S
C573 C568 1.382 . S
C573 C572 1.398 . S
C573 H595 0.929 . S
C574 O584 1.271 . S
C574 O585 1.251 . S
C575 O586 1.252 . S
C575 O587 1.272 . S
O576 Sm556 2.543 . S
O576 C558 1.261 . S
O577 Sm556 2.450 . S
O577 C558 1.242 . S
O578 Sm556 2.681 . S
O578 Sm557 2.386 . S
O578 C565 1.271 . S
O579 Sm556 2.464 . S
O579 C565 1.251 . S
O580 Sm556 2.396 . S
O580 C566 1.252 . S
O581 Sm557 2.408 . S
O581 C566 1.272 . S
O582 Sm557 2.543 . S
O582 C567 1.261 . S
O583 Sm557 2.450 . S
O583 C567 1.242 . S
O584 Sm556 2.386 . S
O584 Sm557 2.681 . S
O584 C574 1.271 . S
O585 Sm557 2.464 . S
O585 C574 1.251 . S
O586 Sm557 2.396 . S
O586 C575 1.252 . S
O587 Sm556 2.408 . S
O587 C575 1.272 . S
H588 C560 0.930 . S
H589 C561 0.929 . S
H590 C563 0.930 . S
H591 C564 0.929 . S
H592 C569 0.930 . S
H593 C570 0.929 . S
H594 C572 0.930 . S
H595 C573 0.929 . S
C596 C597 1.391 . S
C596 C598 1.394 . S
C596 H612 0.931 . S
C597 C596 1.391 . S
C597 C601 1.376 . S
C598 C596 1.394 . S
C598 C599 1.369 . S
C598 C602 1.531 . S
C599 C598 1.369 . S
C599 C600 1.410 . S
C599 C607 1.503 . S
C600 C599 1.410 . S
C600 C601 1.392 . S
C600 C603 1.511 . S
C601 C597 1.376 . S
C601 C600 1.392 . S
C601 H613 0.929 . S
C602 C598 1.531 . S
C602 H614 0.960 . S
C602 H615 0.962 . S
C602 H616 0.960 . S
C603 C600 1.511 . S
C603 H617 0.961 . S
C603 H618 0.961 . S
C603 H619 0.961 . S
C604 C605 1.370 . S
C604 C606 1.363 . S
C604 H620 0.931 . S
C605 C604 1.370 . S
C605 C609 1.408 . S
C606 C604 1.363 . S
C606 C607 1.370 . S
C606 C610 1.524 . S
C607 C599 1.503 . S
C607 C606 1.370 . S
C607 C608 1.403 . S
C608 C607 1.403 . S
C608 C609 1.404 . S
C608 C611 1.539 . S
C609 C605 1.408 . S
C609 C608 1.404 . S
C609 H621 0.930 . S
C610 C606 1.524 . S
C610 H622 0.956 . S
C610 H623 0.961 . S
C610 H624 0.961 . S
C611 C608 1.539 . S
C611 H625 0.958 . S
C611 H626 0.961 . S
C611 H627 0.960 . S
H612 C596 0.931 . S
H613 C601 0.929 . S
H614 C602 0.960 . S
H615 C602 0.962 . S
H616 C602 0.960 . S
H617 C603 0.961 . S
H618 C603 0.961 . S
H619 C603 0.961 . S
H620 C604 0.931 . S
H621 C609 0.930 . S
H622 C610 0.956 . S
H623 C610 0.961 . S
H624 C610 0.961 . S
H625 C611 0.958 . S
H626 C611 0.961 . S
H627 C611 0.960 . S
C628 C629 1.391 . S
C628 C630 1.394 . S
C628 H644 0.931 . S
C629 C628 1.391 . S
C629 C633 1.376 . S
C630 C628 1.394 . S
C630 C631 1.369 . S
C630 C634 1.531 . S
C631 C630 1.369 . S
C631 C632 1.410 . S
C631 C639 1.503 . S
C632 C631 1.410 . S
C632 C633 1.392 . S
C632 C635 1.511 . S
C633 C629 1.376 . S
C633 C632 1.392 . S
C633 H645 0.929 . S
C634 C630 1.531 . S
C634 H646 0.960 . S
C634 H647 0.962 . S
C634 H648 0.960 . S
C635 C632 1.511 . S
C635 H649 0.961 . S
C635 H650 0.961 . S
C635 H651 0.961 . S
C636 C637 1.370 . S
C636 C638 1.363 . S
C636 H652 0.931 . S
C637 C636 1.370 . S
C637 C641 1.408 . S
C638 C636 1.363 . S
C638 C639 1.370 . S
C638 C642 1.524 . S
C639 C631 1.503 . S
C639 C638 1.370 . S
C639 C640 1.403 . S
C640 C639 1.403 . S
C640 C641 1.404 . S
C640 C643 1.539 . S
C641 C637 1.408 . S
C641 C640 1.404 . S
C641 H653 0.930 . S
C642 C638 1.524 . S
C642 H654 0.956 . S
C642 H655 0.961 . S
C642 H656 0.961 . S
C643 C640 1.539 . S
C643 H657 0.958 . S
C643 H658 0.961 . S
C643 H659 0.960 . S
H644 C628 0.931 . S
H645 C633 0.929 . S
H646 C634 0.960 . S
H647 C634 0.962 . S
H648 C634 0.960 . S
H649 C635 0.961 . S
H650 C635 0.961 . S
H651 C635 0.961 . S
H652 C636 0.931 . S
H653 C641 0.930 . S
H654 C642 0.956 . S
H655 C642 0.961 . S
H656 C642 0.961 . S
H657 C643 0.958 . S
H658 C643 0.961 . S
H659 C643 0.960 . S
C660 C661 1.391 . S
C660 C662 1.394 . S
C660 H676 0.931 1_655 S
C661 C660 1.391 . S
C661 C665 1.376 . S
C662 C660 1.394 . S
C662 C663 1.369 . S
C662 C666 1.531 . S
C663 C662 1.369 . S
C663 C664 1.410 . S
C663 C671 1.503 . S
C664 C663 1.410 . S
C664 C665 1.392 . S
C664 C667 1.511 . S
C665 C661 1.376 . S
C665 C664 1.392 . S
C665 H677 0.929 . S
C666 C662 1.531 . S
C666 H678 0.960 . S
C666 H679 0.963 . S
C666 H680 0.960 1_655 S
C667 C664 1.511 . S
C667 H681 0.961 . S
C667 H682 0.961 . S
C667 H683 0.961 . S
C668 C669 1.370 . S
C668 C670 1.363 . S
C668 H684 0.931 . S
C669 C668 1.370 . S
C669 C673 1.408 . S
C670 C668 1.363 . S
C670 C671 1.370 . S
C670 C674 1.524 . S
C671 C663 1.503 . S
C671 C670 1.370 . S
C671 C672 1.403 . S
C672 C671 1.403 . S
C672 C673 1.404 . S
C672 C675 1.539 . S
C673 C669 1.408 . S
C673 C672 1.404 . S
C673 H685 0.930 . S
C674 C670 1.524 . S
C674 H686 0.956 . S
C674 H687 0.961 . S
C674 H688 0.961 . S
C675 C672 1.539 . S
C675 H689 0.958 . S
C675 H690 0.961 . S
C675 H691 0.960 . S
H676 C660 0.931 1_455 S
H677 C665 0.929 . S
H678 C666 0.960 . S
H679 C666 0.963 . S
H680 C666 0.960 1_455 S
H681 C667 0.961 . S
H682 C667 0.961 . S
H683 C667 0.961 . S
H684 C668 0.931 . S
H685 C673 0.930 . S
H686 C674 0.956 . S
H687 C674 0.961 . S
H688 C674 0.961 . S
H689 C675 0.958 . S
H690 C675 0.961 . S
H691 C675 0.960 . S
C692 C693 1.391 . S
C692 C694 1.394 . S
C692 H708 0.931 . S
C693 C692 1.391 . S
C693 C697 1.376 . S
C694 C692 1.394 . S
C694 C695 1.369 . S
C694 C698 1.531 . S
C695 C694 1.369 . S
C695 C696 1.410 . S
C695 C703 1.503 . S
C696 C695 1.410 . S
C696 C697 1.392 . S
C696 C699 1.511 . S
C697 C693 1.376 . S
C697 C696 1.392 . S
C697 H709 0.929 . S
C698 C694 1.531 . S
C698 H710 0.960 . S
C698 H711 0.962 . S
C698 H712 0.960 . S
C699 C696 1.511 . S
C699 H713 0.961 . S
C699 H714 0.961 . S
C699 H715 0.961 . S
C700 C701 1.370 . S
C700 C702 1.363 . S
C700 H716 0.931 . S
C701 C700 1.370 . S
C701 C705 1.408 . S
C702 C700 1.363 . S
C702 C703 1.370 . S
C702 C706 1.524 . S
C703 C695 1.503 . S
C703 C702 1.370 . S
C703 C704 1.403 . S
C704 C703 1.403 . S
C704 C705 1.404 . S
C704 C707 1.539 . S
C705 C701 1.408 . S
C705 C704 1.404 . S
C705 H717 0.930 . S
C706 C702 1.524 . S
C706 H718 0.956 . S
C706 H719 0.961 . S
C706 H720 0.961 . S
C707 C704 1.539 . S
C707 H721 0.958 . S
C707 H722 0.961 . S
C707 H723 0.960 . S
H708 C692 0.931 . S
H709 C697 0.929 . S
H710 C698 0.960 . S
H711 C698 0.962 . S
H712 C698 0.960 . S
H713 C699 0.961 . S
H714 C699 0.961 . S
H715 C699 0.961 . S
H716 C700 0.931 . S
H717 C705 0.930 . S
H718 C706 0.956 . S
H719 C706 0.961 . S
H720 C706 0.961 . S
H721 C707 0.958 . S
H722 C707 0.961 . S
H723 C707 0.960 . S
C724 C725 1.391 . S
C724 C726 1.394 . S
C724 H740 0.931 . S
C725 C724 1.391 . S
C725 C729 1.376 . S
C726 C724 1.394 . S
C726 C727 1.369 . S
C726 C730 1.531 . S
C727 C726 1.369 . S
C727 C728 1.410 . S
C727 C735 1.503 . S
C728 C727 1.410 . S
C728 C729 1.392 . S
C728 C731 1.511 . S
C729 C725 1.376 . S
C729 C728 1.392 . S
C729 H741 0.929 . S
C730 C726 1.531 . S
C730 H742 0.960 . S
C730 H743 0.962 . S
C730 H744 0.960 . S
C731 C728 1.511 . S
C731 H745 0.961 . S
C731 H746 0.961 . S
C731 H747 0.961 . S
C732 C733 1.370 . S
C732 C734 1.363 . S
C732 H748 0.931 . S
C733 C732 1.370 . S
C733 C737 1.408 . S
C734 C732 1.363 . S
C734 C735 1.370 . S
C734 C738 1.524 . S
C735 C727 1.503 . S
C735 C734 1.370 . S
C735 C736 1.403 . S
C736 C735 1.403 . S
C736 C737 1.404 . S
C736 C739 1.539 . S
C737 C733 1.408 . S
C737 C736 1.404 . S
C737 H749 0.930 . S
C738 C734 1.524 . S
C738 H750 0.956 . S
C738 H751 0.961 . S
C738 H752 0.961 . S
C739 C736 1.539 . S
C739 H753 0.958 . S
C739 H754 0.961 . S
C739 H755 0.960 . S
H740 C724 0.931 . S
H741 C729 0.929 . S
H742 C730 0.960 . S
H743 C730 0.962 . S
H744 C730 0.960 . S
H745 C731 0.961 . S
H746 C731 0.961 . S
H747 C731 0.961 . S
H748 C732 0.931 . S
H749 C737 0.930 . S
H750 C738 0.956 . S
H751 C738 0.961 . S
H752 C738 0.961 . S
H753 C739 0.958 . S
H754 C739 0.961 . S
H755 C739 0.960 . S
C756 C757 1.391 . S
C756 C758 1.394 . S
C756 H772 0.931 . S
C757 C756 1.391 . S
C757 C761 1.376 . S
C758 C756 1.394 . S
C758 C759 1.369 . S
C758 C762 1.531 . S
C759 C758 1.369 . S
C759 C760 1.410 . S
C759 C767 1.503 . S
C760 C759 1.410 . S
C760 C761 1.392 . S
C760 C763 1.511 . S
C761 C757 1.376 . S
C761 C760 1.392 . S
C761 H773 0.929 . S
C762 C758 1.531 . S
C762 H774 0.960 . S
C762 H775 0.962 . S
C762 H776 0.960 . S
C763 C760 1.511 . S
C763 H777 0.961 . S
C763 H778 0.961 . S
C763 H779 0.961 . S
C764 C765 1.370 . S
C764 C766 1.363 . S
C764 H780 0.931 . S
C765 C764 1.370 . S
C765 C769 1.408 . S
C766 C764 1.363 . S
C766 C767 1.370 . S
C766 C770 1.524 . S
C767 C759 1.503 . S
C767 C766 1.370 . S
C767 C768 1.403 . S
C768 C767 1.403 . S
C768 C769 1.404 . S
C768 C771 1.539 . S
C769 C765 1.408 . S
C769 C768 1.404 . S
C769 H781 0.930 . S
C770 C766 1.524 . S
C770 H782 0.956 . S
C770 H783 0.961 . S
C770 H784 0.961 . S
C771 C768 1.539 . S
C771 H785 0.958 . S
C771 H786 0.961 . S
C771 H787 0.960 . S
H772 C756 0.931 . S
H773 C761 0.929 . S
H774 C762 0.960 . S
H775 C762 0.962 . S
H776 C762 0.960 . S
H777 C763 0.961 . S
H778 C763 0.961 . S
H779 C763 0.961 . S
H780 C764 0.931 . S
H781 C769 0.930 . S
H782 C770 0.956 . S
H783 C770 0.961 . S
H784 C770 0.961 . S
H785 C771 0.958 . S
H786 C771 0.961 . S
H787 C771 0.960 . S
C788 C789 1.391 . S
C788 C790 1.394 . S
C788 H804 0.931 . S
C789 C788 1.391 . S
C789 C793 1.376 . S
C790 C788 1.394 . S
C790 C791 1.369 . S
C790 C794 1.531 . S
C791 C790 1.369 . S
C791 C792 1.410 . S
C791 C799 1.503 . S
C792 C791 1.410 . S
C792 C793 1.392 . S
C792 C795 1.511 . S
C793 C789 1.376 . S
C793 C792 1.392 . S
C793 H805 0.929 . S
C794 C790 1.531 . S
C794 H806 0.960 . S
C794 H807 0.962 . S
C794 H808 0.960 . S
C795 C792 1.511 . S
C795 H809 0.961 . S
C795 H810 0.961 . S
C795 H811 0.961 . S
C796 C797 1.370 . S
C796 C798 1.363 . S
C796 H812 0.931 . S
C797 C796 1.370 . S
C797 C801 1.408 . S
C798 C796 1.363 . S
C798 C799 1.370 . S
C798 C802 1.524 . S
C799 C791 1.503 . S
C799 C798 1.370 . S
C799 C800 1.403 . S
C800 C799 1.403 . S
C800 C801 1.404 . S
C800 C803 1.539 . S
C801 C797 1.408 . S
C801 C800 1.404 . S
C801 H813 0.930 . S
C802 C798 1.524 . S
C802 H814 0.956 . S
C802 H815 0.961 . S
C802 H816 0.961 . S
C803 C800 1.539 . S
C803 H817 0.958 . S
C803 H818 0.961 . S
C803 H819 0.960 . S
H804 C788 0.931 . S
H805 C793 0.929 . S
H806 C794 0.960 . S
H807 C794 0.962 . S
H808 C794 0.960 . S
H809 C795 0.961 . S
H810 C795 0.961 . S
H811 C795 0.961 . S
H812 C796 0.931 . S
H813 C801 0.930 . S
H814 C802 0.956 . S
H815 C802 0.961 . S
H816 C802 0.961 . S
H817 C803 0.958 . S
H818 C803 0.961 . S
H819 C803 0.960 . S
C820 C821 1.391 1_545 S
C820 C822 1.394 1_545 S
C820 H836 0.931 . S
C821 C820 1.391 1_565 S
C821 C825 1.376 . S
C822 C820 1.394 1_565 S
C822 C823 1.369 . S
C822 C826 1.529 1_565 S
C823 C822 1.369 . S
C823 C824 1.410 . S
C823 C831 1.503 . S
C824 C823 1.410 . S
C824 C825 1.392 . S
C824 C827 1.511 . S
C825 C821 1.376 . S
C825 C824 1.392 . S
C825 H837 0.929 . S
C826 C822 1.529 1_545 S
C826 H838 0.936 1_545 S
C826 H839 0.975 . S
C826 H840 0.973 . S
C827 C824 1.511 . S
C827 H841 0.961 . S
C827 H842 0.961 . S
C827 H843 0.961 . S
C828 C829 1.370 . S
C828 C830 1.363 . S
C828 H844 0.931 . S
C829 C828 1.370 . S
C829 C833 1.408 . S
C830 C828 1.363 . S
C830 C831 1.370 . S
C830 C834 1.524 . S
C831 C823 1.503 . S
C831 C830 1.370 . S
C831 C832 1.403 . S
C832 C831 1.403 . S
C832 C833 1.404 . S
C832 C835 1.539 . S
C833 C829 1.408 . S
C833 C832 1.404 . S
C833 H845 0.930 . S
C834 C830 1.524 . S
C834 H846 0.956 . S
C834 H847 0.961 . S
C834 H848 0.961 . S
C835 C832 1.539 . S
C835 H849 0.958 . S
C835 H850 0.961 . S
C835 H851 0.960 . S
H836 C820 0.931 . S
H837 C825 0.929 . S
H838 C826 0.936 1_565 S
H839 C826 0.975 . S
H840 C826 0.973 . S
H841 C827 0.961 . S
H842 C827 0.961 . S
H843 C827 0.961 . S
H844 C828 0.931 . S
H845 C833 0.930 . S
H846 C834 0.956 . S
H847 C834 0.961 . S
H848 C834 0.961 . S
H849 C835 0.958 . S
H850 C835 0.961 . S
H851 C835 0.960 . S
C852 C853 1.391 . S
C852 C854 1.394 . S
C852 H868 0.931 . S
C853 C852 1.391 . S
C853 C857 1.376 . S
C854 C852 1.394 . S
C854 C855 1.369 . S
C854 C858 1.531 . S
C855 C854 1.369 . S
C855 C856 1.410 . S
C855 C863 1.503 . S
C856 C855 1.410 . S
C856 C857 1.392 . S
C856 C859 1.511 . S
C857 C853 1.376 . S
C857 C856 1.392 . S
C857 H869 0.929 . S
C858 C854 1.531 . S
C858 H870 0.960 . S
C858 H871 0.962 . S
C858 H872 0.960 . S
C859 C856 1.511 . S
C859 H873 0.961 . S
C859 H874 0.961 . S
C859 H875 0.961 . S
C860 C861 1.370 . S
C860 C862 1.363 . S
C860 H876 0.931 . S
C861 C860 1.370 . S
C861 C865 1.408 . S
C862 C860 1.363 . S
C862 C863 1.370 . S
C862 C866 1.524 . S
C863 C855 1.503 . S
C863 C862 1.370 . S
C863 C864 1.403 . S
C864 C863 1.403 . S
C864 C865 1.404 . S
C864 C867 1.539 . S
C865 C861 1.408 . S
C865 C864 1.404 . S
C865 H877 0.930 . S
C866 C862 1.524 . S
C866 H878 0.956 . S
C866 H879 0.961 . S
C866 H880 0.961 . S
C867 C864 1.539 . S
C867 H881 0.958 . S
C867 H882 0.961 . S
C867 H883 0.960 . S
H868 C852 0.931 . S
H869 C857 0.929 . S
H870 C858 0.960 . S
H871 C858 0.962 . S
H872 C858 0.960 . S
H873 C859 0.961 . S
H874 C859 0.961 . S
H875 C859 0.961 . S
H876 C860 0.931 . S
H877 C865 0.930 . S
H878 C866 0.956 . S
H879 C866 0.961 . S
H880 C866 0.961 . S
H881 C867 0.958 . S
H882 C867 0.961 . S
H883 C867 0.960 . S
C884 C885 1.391 . S
C884 C886 1.394 . S
C884 H900 0.931 . S
C885 C884 1.391 . S
C885 C889 1.376 . S
C886 C884 1.394 . S
C886 C887 1.369 . S
C886 C890 1.531 . S
C887 C886 1.369 . S
C887 C888 1.410 . S
C887 C895 1.503 . S
C888 C887 1.410 . S
C888 C889 1.392 . S
C888 C891 1.511 . S
C889 C885 1.376 . S
C889 C888 1.392 . S
C889 H901 0.929 . S
C890 C886 1.531 . S
C890 H902 0.960 . S
C890 H903 0.962 . S
C890 H904 0.960 . S
C891 C888 1.511 . S
C891 H905 0.961 . S
C891 H906 0.961 . S
C891 H907 0.961 . S
C892 C893 1.370 . S
C892 C894 1.363 . S
C892 H908 0.931 . S
C893 C892 1.370 . S
C893 C897 1.408 . S
C894 C892 1.363 . S
C894 C895 1.370 . S
C894 C898 1.524 . S
C895 C887 1.503 . S
C895 C894 1.370 . S
C895 C896 1.403 . S
C896 C895 1.403 . S
C896 C897 1.404 . S
C896 C899 1.539 . S
C897 C893 1.408 . S
C897 C896 1.404 . S
C897 H909 0.930 . S
C898 C894 1.524 . S
C898 H910 0.956 . S
C898 H911 0.961 . S
C898 H912 0.961 . S
C899 C896 1.539 . S
C899 H913 0.958 . S
C899 H914 0.961 . S
C899 H915 0.960 . S
H900 C884 0.931 . S
H901 C889 0.929 . S
H902 C890 0.960 . S
H903 C890 0.962 . S
H904 C890 0.960 . S
H905 C891 0.961 . S
H906 C891 0.961 . S
H907 C891 0.961 . S
H908 C892 0.931 . S
H909 C897 0.930 . S
H910 C898 0.956 . S
H911 C898 0.961 . S
H912 C898 0.961 . S
H913 C899 0.958 . S
H914 C899 0.961 . S
H915 C899 0.960 . S
C916 C917 1.391 . S
C916 C918 1.394 . S
C916 H932 0.931 . S
C917 C916 1.391 . S
C917 C921 1.376 . S
C918 C916 1.394 . S
C918 C919 1.369 . S
C918 C922 1.531 . S
C919 C918 1.369 . S
C919 C920 1.410 . S
C919 C927 1.503 . S
C920 C919 1.410 . S
C920 C921 1.392 . S
C920 C923 1.511 . S
C921 C917 1.376 . S
C921 C920 1.392 . S
C921 H933 0.929 . S
C922 C918 1.531 . S
C922 H934 0.960 . S
C922 H935 0.962 . S
C922 H936 0.960 . S
C923 C920 1.511 . S
C923 H937 0.961 . S
C923 H938 0.961 . S
C923 H939 0.961 . S
C924 C925 1.370 . S
C924 C926 1.363 . S
C924 H940 0.931 . S
C925 C924 1.370 . S
C925 C929 1.408 . S
C926 C924 1.363 . S
C926 C927 1.370 . S
C926 C930 1.524 . S
C927 C919 1.503 . S
C927 C926 1.370 . S
C927 C928 1.403 . S
C928 C927 1.403 . S
C928 C929 1.404 . S
C928 C931 1.539 . S
C929 C925 1.408 . S
C929 C928 1.404 . S
C929 H941 0.930 . S
C930 C926 1.524 . S
C930 H942 0.956 . S
C930 H943 0.961 . S
C930 H944 0.961 . S
C931 C928 1.539 . S
C931 H945 0.958 . S
C931 H946 0.961 . S
C931 H947 0.960 . S
H932 C916 0.931 . S
H933 C921 0.929 . S
H934 C922 0.960 . S
H935 C922 0.962 . S
H936 C922 0.960 . S
H937 C923 0.961 . S
H938 C923 0.961 . S
H939 C923 0.961 . S
H940 C924 0.931 . S
H941 C929 0.930 . S
H942 C930 0.956 . S
H943 C930 0.961 . S
H944 C930 0.961 . S
H945 C931 0.958 . S
H946 C931 0.961 . S
H947 C931 0.960 . S
C948 C949 1.391 . S
C948 C950 1.394 . S
C948 H964 0.931 . S
C949 C948 1.391 . S
C949 C953 1.376 . S
C950 C948 1.394 . S
C950 C951 1.369 . S
C950 C954 1.531 . S
C951 C950 1.369 . S
C951 C952 1.410 . S
C951 C959 1.503 . S
C952 C951 1.410 . S
C952 C953 1.392 . S
C952 C955 1.511 . S
C953 C949 1.376 . S
C953 C952 1.392 . S
C953 H965 0.929 . S
C954 C950 1.531 . S
C954 H966 0.960 . S
C954 H967 0.962 . S
C954 H968 0.960 . S
C955 C952 1.511 . S
C955 H969 0.961 . S
C955 H970 0.961 . S
C955 H971 0.961 . S
C956 C957 1.370 . S
C956 C958 1.363 . S
C956 H972 0.931 . S
C957 C956 1.370 . S
C957 C961 1.408 . S
C958 C956 1.363 . S
C958 C959 1.370 . S
C958 C962 1.524 . S
C959 C951 1.503 . S
C959 C958 1.370 . S
C959 C960 1.403 . S
C960 C959 1.403 . S
C960 C961 1.404 . S
C960 C963 1.539 . S
C961 C957 1.408 . S
C961 C960 1.404 . S
C961 H973 0.930 . S
C962 C958 1.524 . S
C962 H974 0.956 . S
C962 H975 0.961 . S
C962 H976 0.961 . S
C963 C960 1.539 . S
C963 H977 0.958 . S
C963 H978 0.961 . S
C963 H979 0.960 . S
H964 C948 0.931 . S
H965 C953 0.929 . S
H966 C954 0.960 . S
H967 C954 0.962 . S
H968 C954 0.960 . S
H969 C955 0.961 . S
H970 C955 0.961 . S
H971 C955 0.961 . S
H972 C956 0.931 . S
H973 C961 0.930 . S
H974 C962 0.956 . S
H975 C962 0.961 . S
H976 C962 0.961 . S
H977 C963 0.958 . S
H978 C963 0.961 . S
H979 C963 0.960 . S
C980 C981 1.391 . S
C980 C982 1.394 1_554 S
C980 H996 0.931 1_565 S
C981 C980 1.391 . S
C981 C985 1.376 . S
C982 C980 1.394 1_556 S
C982 C983 1.369 . S
C982 C986 1.531 . S
C983 C982 1.369 . S
C983 C984 1.410 1_556 S
C983 C991 1.503 . S
C984 C983 1.410 1_554 S
C984 C985 1.392 . S
C984 C987 1.511 . S
C985 C981 1.376 . S
C985 C984 1.392 . S
C985 H997 0.929 . S
C986 C982 1.531 . S
C986 H998 0.960 . S
C986 H999 0.962 . S
C986 H1000 0.960 1_565 S
C987 C984 1.511 . S
C987 H1001 0.961 . S
C987 H1002 0.961 . S
C987 H1003 0.961 . S
C988 C989 1.370 . S
C988 C990 1.363 . S
C988 H1004 0.931 . S
C989 C988 1.370 . S
C989 C993 1.408 . S
C990 C988 1.363 . S
C990 C991 1.370 . S
C990 C994 1.524 1_556 S
C991 C983 1.503 . S
C991 C990 1.370 . S
C991 C992 1.403 . S
C992 C991 1.403 . S
C992 C993 1.404 . S
C992 C995 1.539 . S
C993 C989 1.408 . S
C993 C992 1.404 . S
C993 H1005 0.930 . S
C994 C990 1.524 1_554 S
C994 H1006 0.956 . S
C994 H1007 0.961 . S
C994 H1008 0.961 . S
C995 C992 1.539 . S
C995 H1009 0.958 . S
C995 H1010 0.961 . S
C995 H1011 0.960 . S
H996 C980 0.931 1_545 S
H997 C985 0.929 . S
H998 C986 0.960 . S
H999 C986 0.962 . S
H1000 C986 0.960 1_545 S
H1001 C987 0.961 . S
H1002 C987 0.961 . S
H1003 C987 0.961 . S
H1004 C988 0.931 . S
H1005 C993 0.930 . S
H1006 C994 0.956 . S
H1007 C994 0.961 . S
H1008 C994 0.961 . S
H1009 C995 0.958 . S
H1010 C995 0.961 . S
H1011 C995 0.960 . S
C1012 C1013 1.391 . S
C1012 C1014 1.394 . S
C1012 H1028 0.931 . S
C1013 C1012 1.391 . S
C1013 C1017 1.376 . S
C1014 C1012 1.394 . S
C1014 C1015 1.369 . S
C1014 C1018 1.531 . S
C1015 C1014 1.369 . S
C1015 C1016 1.410 . S
C1015 C1023 1.503 . S
C1016 C1015 1.410 . S
C1016 C1017 1.392 . S
C1016 C1019 1.511 . S
C1017 C1013 1.376 . S
C1017 C1016 1.392 . S
C1017 H1029 0.929 1_556 S
C1018 C1014 1.531 . S
C1018 H1030 0.960 . S
C1018 H1031 0.962 . S
C1018 H1032 0.960 . S
C1019 C1016 1.511 . S
C1019 H1033 0.961 . S
C1019 H1034 0.961 . S
C1019 H1035 0.961 . S
C1020 C1021 1.370 . S
C1020 C1022 1.363 . S
C1020 H1036 0.931 . S
C1021 C1020 1.370 . S
C1021 C1025 1.408 . S
C1022 C1020 1.363 . S
C1022 C1023 1.370 . S
C1022 C1026 1.524 . S
C1023 C1015 1.503 . S
C1023 C1022 1.370 . S
C1023 C1024 1.403 . S
C1024 C1023 1.403 . S
C1024 C1025 1.404 . S
C1024 C1027 1.539 . S
C1025 C1021 1.408 . S
C1025 C1024 1.404 . S
C1025 H1037 0.930 . S
C1026 C1022 1.524 . S
C1026 H1038 0.956 . S
C1026 H1039 0.961 . S
C1026 H1040 0.961 . S
C1027 C1024 1.539 . S
C1027 H1041 0.958 . S
C1027 H1042 0.961 . S
C1027 H1043 0.960 . S
H1028 C1012 0.931 . S
H1029 C1017 0.929 1_554 S
H1030 C1018 0.960 . S
H1031 C1018 0.962 . S
H1032 C1018 0.960 . S
H1033 C1019 0.961 . S
H1034 C1019 0.961 . S
H1035 C1019 0.961 . S
H1036 C1020 0.931 . S
H1037 C1025 0.930 . S
H1038 C1026 0.956 . S
H1039 C1026 0.961 . S
H1040 C1026 0.961 . S
H1041 C1027 0.958 . S
H1042 C1027 0.961 . S
H1043 C1027 0.960 . S
C1044 C1045 1.391 . S
C1044 C1046 1.394 . S
C1044 H1060 0.931 . S
C1045 C1044 1.391 . S
C1045 C1049 1.376 . S
C1046 C1044 1.394 . S
C1046 C1047 1.369 . S
C1046 C1050 1.531 . S
C1047 C1046 1.369 . S
C1047 C1048 1.410 . S
C1047 C1055 1.503 . S
C1048 C1047 1.410 . S
C1048 C1049 1.392 . S
C1048 C1051 1.511 . S
C1049 C1045 1.376 . S
C1049 C1048 1.392 . S
C1049 H1061 0.929 . S
C1050 C1046 1.531 . S
C1050 H1062 0.960 . S
C1050 H1063 0.962 . S
C1050 H1064 0.960 . S
C1051 C1048 1.511 . S
C1051 H1065 0.961 . S
C1051 H1066 0.961 . S
C1051 H1067 0.961 . S
C1052 C1053 1.370 . S
C1052 C1054 1.363 . S
C1052 H1068 0.931 . S
C1053 C1052 1.370 . S
C1053 C1057 1.408 . S
C1054 C1052 1.363 . S
C1054 C1055 1.370 . S
C1054 C1058 1.524 . S
C1055 C1047 1.503 . S
C1055 C1054 1.370 . S
C1055 C1056 1.403 . S
C1056 C1055 1.403 . S
C1056 C1057 1.404 . S
C1056 C1059 1.539 . S
C1057 C1053 1.408 . S
C1057 C1056 1.404 . S
C1057 H1069 0.930 . S
C1058 C1054 1.524 . S
C1058 H1070 0.956 . S
C1058 H1071 0.961 . S
C1058 H1072 0.961 . S
C1059 C1056 1.539 . S
C1059 H1073 0.958 . S
C1059 H1074 0.961 . S
C1059 H1075 0.960 . S
H1060 C1044 0.931 . S
H1061 C1049 0.929 . S
H1062 C1050 0.960 . S
H1063 C1050 0.962 . S
H1064 C1050 0.960 . S
H1065 C1051 0.961 . S
H1066 C1051 0.961 . S
H1067 C1051 0.961 . S
H1068 C1052 0.931 . S
H1069 C1057 0.930 . S
H1070 C1058 0.956 . S
H1071 C1058 0.961 . S
H1072 C1058 0.961 . S
H1073 C1059 0.958 . S
H1074 C1059 0.961 . S
H1075 C1059 0.960 . S
C1076 C1077 1.391 . S
C1076 C1078 1.394 . S
C1076 H1092 0.931 . S
C1077 C1076 1.391 . S
C1077 C1081 1.376 . S
C1078 C1076 1.394 . S
C1078 C1079 1.369 . S
C1078 C1082 1.531 . S
C1079 C1078 1.369 . S
C1079 C1080 1.410 . S
C1079 C1087 1.503 . S
C1080 C1079 1.410 . S
C1080 C1081 1.392 . S
C1080 C1083 1.511 . S
C1081 C1077 1.376 . S
C1081 C1080 1.392 . S
C1081 H1093 0.929 . S
C1082 C1078 1.531 . S
C1082 H1094 0.960 . S
C1082 H1095 0.962 . S
C1082 H1096 0.960 . S
C1083 C1080 1.511 . S
C1083 H1097 0.961 . S
C1083 H1098 0.961 . S
C1083 H1099 0.961 . S
C1084 C1085 1.370 . S
C1084 C1086 1.363 . S
C1084 H1100 0.931 . S
C1085 C1084 1.370 . S
C1085 C1089 1.408 . S
C1086 C1084 1.363 . S
C1086 C1087 1.370 . S
C1086 C1090 1.524 . S
C1087 C1079 1.503 . S
C1087 C1086 1.370 . S
C1087 C1088 1.403 . S
C1088 C1087 1.403 . S
C1088 C1089 1.404 . S
C1088 C1091 1.539 . S
C1089 C1085 1.408 . S
C1089 C1088 1.404 . S
C1089 H1101 0.930 . S
C1090 C1086 1.524 . S
C1090 H1102 0.956 . S
C1090 H1103 0.961 . S
C1090 H1104 0.961 . S
C1091 C1088 1.539 . S
C1091 H1105 0.958 . S
C1091 H1106 0.961 . S
C1091 H1107 0.960 . S
H1092 C1076 0.931 . S
H1093 C1081 0.929 . S
H1094 C1082 0.960 . S
H1095 C1082 0.962 . S
H1096 C1082 0.960 . S
H1097 C1083 0.961 . S
H1098 C1083 0.961 . S
H1099 C1083 0.961 . S
H1100 C1084 0.931 . S
H1101 C1089 0.930 . S
H1102 C1090 0.956 . S
H1103 C1090 0.961 . S
H1104 C1090 0.961 . S
H1105 C1091 0.958 . S
H1106 C1091 0.961 . S
H1107 C1091 0.960 . S
C1108 C1109 1.391 . S
C1108 C1110 1.394 . S
C1108 H1124 0.931 . S
C1109 C1108 1.391 . S
C1109 C1113 1.376 . S
C1110 C1108 1.394 . S
C1110 C1111 1.369 . S
C1110 C1114 1.531 . S
C1111 C1110 1.369 . S
C1111 C1112 1.410 . S
C1111 C1119 1.503 . S
C1112 C1111 1.410 . S
C1112 C1113 1.392 . S
C1112 C1115 1.511 . S
C1113 C1109 1.376 . S
C1113 C1112 1.392 . S
C1113 H1125 0.929 . S
C1114 C1110 1.531 . S
C1114 H1126 0.960 . S
C1114 H1127 0.962 . S
C1114 H1128 0.960 . S
C1115 C1112 1.511 . S
C1115 H1129 0.961 . S
C1115 H1130 0.961 . S
C1115 H1131 0.961 . S
C1116 C1117 1.370 . S
C1116 C1118 1.363 . S
C1116 H1132 0.931 . S
C1117 C1116 1.370 . S
C1117 C1121 1.408 . S
C1118 C1116 1.363 . S
C1118 C1119 1.370 . S
C1118 C1122 1.524 . S
C1119 C1111 1.503 . S
C1119 C1118 1.370 . S
C1119 C1120 1.403 . S
C1120 C1119 1.403 . S
C1120 C1121 1.404 . S
C1120 C1123 1.539 . S
C1121 C1117 1.408 . S
C1121 C1120 1.404 . S
C1121 H1133 0.930 . S
C1122 C1118 1.524 . S
C1122 H1134 0.956 . S
C1122 H1135 0.961 . S
C1122 H1136 0.961 . S
C1123 C1120 1.539 . S
C1123 H1137 0.958 . S
C1123 H1138 0.961 . S
C1123 H1139 0.960 . S
H1124 C1108 0.931 . S
H1125 C1113 0.929 . S
H1126 C1114 0.960 . S
H1127 C1114 0.962 . S
H1128 C1114 0.960 . S
H1129 C1115 0.961 . S
H1130 C1115 0.961 . S
H1131 C1115 0.961 . S
H1132 C1116 0.931 . S
H1133 C1121 0.930 . S
H1134 C1122 0.956 . S
H1135 C1122 0.961 . S
H1136 C1122 0.961 . S
H1137 C1123 0.958 . S
H1138 C1123 0.961 . S
H1139 C1123 0.960 . S
C1140 C1141 1.391 . S
C1140 C1142 1.394 . S
C1140 H1156 0.931 . S
C1141 C1140 1.391 . S
C1141 C1145 1.376 . S
C1142 C1140 1.394 . S
C1142 C1143 1.369 . S
C1142 C1146 1.531 . S
C1143 C1142 1.369 . S
C1143 C1144 1.410 . S
C1143 C1151 1.503 . S
C1144 C1143 1.410 . S
C1144 C1145 1.392 . S
C1144 C1147 1.511 . S
C1145 C1141 1.376 . S
C1145 C1144 1.392 . S
C1145 H1157 0.929 . S
C1146 C1142 1.531 . S
C1146 H1158 0.960 . S
C1146 H1159 0.962 . S
C1146 H1160 0.960 . S
C1147 C1144 1.511 . S
C1147 H1161 0.961 . S
C1147 H1162 0.961 . S
C1147 H1163 0.961 . S
C1148 C1149 1.370 . S
C1148 C1150 1.363 . S
C1148 H1164 0.931 . S
C1149 C1148 1.370 . S
C1149 C1153 1.408 . S
C1150 C1148 1.363 . S
C1150 C1151 1.370 . S
C1150 C1154 1.524 . S
C1151 C1143 1.503 . S
C1151 C1150 1.370 . S
C1151 C1152 1.403 . S
C1152 C1151 1.403 . S
C1152 C1153 1.404 . S
C1152 C1155 1.539 . S
C1153 C1149 1.408 . S
C1153 C1152 1.404 . S
C1153 H1165 0.930 . S
C1154 C1150 1.524 . S
C1154 H1166 0.956 . S
C1154 H1167 0.961 . S
C1154 H1168 0.961 . S
C1155 C1152 1.539 . S
C1155 H1169 0.958 . S
C1155 H1170 0.961 . S
C1155 H1171 0.960 . S
H1156 C1140 0.931 . S
H1157 C1145 0.929 . S
H1158 C1146 0.960 . S
H1159 C1146 0.962 . S
H1160 C1146 0.960 . S
H1161 C1147 0.961 . S
H1162 C1147 0.961 . S
H1163 C1147 0.961 . S
H1164 C1148 0.931 . S
H1165 C1153 0.930 . S
H1166 C1154 0.956 . S
H1167 C1154 0.961 . S
H1168 C1154 0.961 . S
H1169 C1155 0.958 . S
H1170 C1155 0.961 . S
H1171 C1155 0.960 . S
C1172 C1173 1.391 1_556 S
C1172 C1174 1.394 . S
C1172 H1188 0.931 . S
C1173 C1172 1.391 1_554 S
C1173 C1177 1.376 . S
C1174 C1172 1.394 . S
C1174 C1175 1.369 . S
C1174 C1178 1.531 . S
C1175 C1174 1.369 . S
C1175 C1176 1.410 . S
C1175 C1183 1.503 . S
C1176 C1175 1.410 . S
C1176 C1177 1.392 1_556 S
C1176 C1179 1.511 . S
C1177 C1173 1.376 . S
C1177 C1176 1.392 1_554 S
C1177 H1189 0.929 . S
C1178 C1174 1.531 . S
C1178 H1190 0.960 . S
C1178 H1191 0.962 . S
C1178 H1192 0.960 . S
C1179 C1176 1.511 . S
C1179 H1193 0.961 . S
C1179 H1194 0.961 . S
C1179 H1195 0.961 . S
C1180 C1181 1.370 . S
C1180 C1182 1.363 . S
C1180 H1196 0.931 . S
C1181 C1180 1.370 . S
C1181 C1185 1.408 . S
C1182 C1180 1.363 . S
C1182 C1183 1.370 . S
C1182 C1186 1.524 . S
C1183 C1175 1.503 . S
C1183 C1182 1.370 . S
C1183 C1184 1.403 . S
C1184 C1183 1.403 . S
C1184 C1185 1.404 . S
C1184 C1187 1.539 . S
C1185 C1181 1.408 . S
C1185 C1184 1.404 . S
C1185 H1197 0.930 . S
C1186 C1182 1.524 . S
C1186 H1198 0.956 . S
C1186 H1199 0.961 . S
C1186 H1200 0.961 . S
C1187 C1184 1.539 . S
C1187 H1201 0.958 . S
C1187 H1202 0.961 . S
C1187 H1203 0.960 . S
H1188 C1172 0.931 . S
H1189 C1177 0.929 . S
H1190 C1178 0.960 . S
H1191 C1178 0.962 . S
H1192 C1178 0.960 . S
H1193 C1179 0.961 . S
H1194 C1179 0.961 . S
H1195 C1179 0.961 . S
H1196 C1180 0.931 . S
H1197 C1185 0.930 . S
H1198 C1186 0.956 . S
H1199 C1186 0.961 . S
H1200 C1186 0.961 . S
H1201 C1187 0.958 . S
H1202 C1187 0.961 . S
H1203 C1187 0.960 . S
C1204 C1205 1.393 1_556 S
C1204 C1206 1.391 . S
C1204 H1220 0.931 . S
C1205 C1204 1.393 1_554 S
C1205 C1209 1.376 . S
C1206 C1204 1.391 . S
C1206 C1207 1.369 . S
C1206 C1210 1.531 . S
C1207 C1206 1.369 . S
C1207 C1208 1.410 1_556 S
C1207 C1215 1.503 . S
C1208 C1207 1.410 1_554 S
C1208 C1209 1.392 . S
C1208 C1211 1.511 . S
C1209 C1205 1.376 . S
C1209 C1208 1.392 . S
C1209 H1221 0.929 1_655 S
C1210 C1206 1.531 . S
C1210 H1222 0.960 . S
C1210 H1223 0.962 . S
C1210 H1224 0.960 . S
C1211 C1208 1.511 . S
C1211 H1225 0.961 . S
C1211 H1226 0.961 . S
C1211 H1227 0.961 1_554 S
C1212 C1213 1.370 . S
C1212 C1214 1.363 . S
C1212 H1228 0.931 . S
C1213 C1212 1.370 . S
C1213 C1217 1.408 . S
C1214 C1212 1.363 . S
C1214 C1215 1.370 . S
C1214 C1218 1.524 1_556 S
C1215 C1207 1.503 . S
C1215 C1214 1.370 . S
C1215 C1216 1.403 . S
C1216 C1215 1.403 . S
C1216 C1217 1.404 . S
C1216 C1219 1.539 . S
C1217 C1213 1.408 . S
C1217 C1216 1.404 . S
C1217 H1229 0.930 . S
C1218 C1214 1.524 1_554 S
C1218 H1230 0.956 . S
C1218 H1231 0.961 . S
C1218 H1232 0.961 . S
C1219 C1216 1.539 . S
C1219 H1233 0.958 . S
C1219 H1234 0.961 . S
C1219 H1235 0.960 . S
H1220 C1204 0.931 . S
H1221 C1209 0.929 1_455 S
H1222 C1210 0.960 . S
H1223 C1210 0.962 . S
H1224 C1210 0.960 . S
H1225 C1211 0.961 . S
H1226 C1211 0.961 . S
H1227 C1211 0.961 1_556 S
H1228 C1212 0.931 . S
H1229 C1217 0.930 . S
H1230 C1218 0.956 . S
H1231 C1218 0.961 . S
H1232 C1218 0.961 . S
H1233 C1219 0.958 . S
H1234 C1219 0.961 . S
H1235 C1219 0.960 . S
C1236 C1237 1.391 . S
C1236 C1238 1.394 . S
C1236 H1252 0.931 . S
C1237 C1236 1.391 . S
C1237 C1241 1.376 . S
C1238 C1236 1.394 . S
C1238 C1239 1.369 . S
C1238 C1242 1.531 . S
C1239 C1238 1.369 . S
C1239 C1240 1.410 . S
C1239 C1247 1.503 . S
C1240 C1239 1.410 . S
C1240 C1241 1.392 . S
C1240 C1243 1.511 . S
C1241 C1237 1.376 . S
C1241 C1240 1.392 . S
C1241 H1253 0.929 . S
C1242 C1238 1.531 . S
C1242 H1254 0.960 . S
C1242 H1255 0.962 . S
C1242 H1256 0.960 . S
C1243 C1240 1.511 . S
C1243 H1257 0.961 . S
C1243 H1258 0.961 . S
C1243 H1259 0.961 . S
C1244 C1245 1.370 . S
C1244 C1246 1.363 . S
C1244 H1260 0.931 . S
C1245 C1244 1.370 . S
C1245 C1249 1.408 . S
C1246 C1244 1.363 . S
C1246 C1247 1.370 . S
C1246 C1250 1.524 . S
C1247 C1239 1.503 . S
C1247 C1246 1.370 . S
C1247 C1248 1.403 . S
C1248 C1247 1.403 . S
C1248 C1249 1.404 . S
C1248 C1251 1.539 . S
C1249 C1245 1.408 . S
C1249 C1248 1.404 . S
C1249 H1261 0.930 . S
C1250 C1246 1.524 . S
C1250 H1262 0.956 . S
C1250 H1263 0.961 . S
C1250 H1264 0.961 . S
C1251 C1248 1.539 . S
C1251 H1265 0.958 . S
C1251 H1266 0.961 . S
C1251 H1267 0.960 . S
H1252 C1236 0.931 . S
H1253 C1241 0.929 . S
H1254 C1242 0.960 . S
H1255 C1242 0.962 . S
H1256 C1242 0.960 . S
H1257 C1243 0.961 . S
H1258 C1243 0.961 . S
H1259 C1243 0.961 . S
H1260 C1244 0.931 . S
H1261 C1249 0.930 . S
H1262 C1250 0.956 . S
H1263 C1250 0.961 . S
H1264 C1250 0.961 . S
H1265 C1251 0.958 . S
H1266 C1251 0.961 . S
H1267 C1251 0.960 . S
C1268 C1269 1.391 . S
C1268 C1270 1.394 . S
C1268 H1284 0.931 . S
C1269 C1268 1.391 . S
C1269 C1273 1.376 . S
C1270 C1268 1.394 . S
C1270 C1271 1.369 . S
C1270 C1274 1.531 . S
C1271 C1270 1.369 . S
C1271 C1272 1.410 . S
C1271 C1279 1.503 . S
C1272 C1271 1.410 . S
C1272 C1273 1.392 . S
C1272 C1275 1.511 . S
C1273 C1269 1.376 . S
C1273 C1272 1.392 . S
C1273 H1285 0.929 . S
C1274 C1270 1.531 . S
C1274 H1286 0.960 . S
C1274 H1287 0.962 . S
C1274 H1288 0.960 . S
C1275 C1272 1.511 . S
C1275 H1289 0.961 . S
C1275 H1290 0.961 . S
C1275 H1291 0.961 . S
C1276 C1277 1.370 . S
C1276 C1278 1.363 . S
C1276 H1292 0.931 . S
C1277 C1276 1.370 . S
C1277 C1281 1.408 . S
C1278 C1276 1.363 . S
C1278 C1279 1.370 . S
C1278 C1282 1.524 . S
C1279 C1271 1.503 . S
C1279 C1278 1.370 . S
C1279 C1280 1.403 . S
C1280 C1279 1.403 . S
C1280 C1281 1.404 . S
C1280 C1283 1.539 . S
C1281 C1277 1.408 . S
C1281 C1280 1.404 . S
C1281 H1293 0.930 . S
C1282 C1278 1.524 . S
C1282 H1294 0.956 . S
C1282 H1295 0.961 . S
C1282 H1296 0.961 . S
C1283 C1280 1.539 . S
C1283 H1297 0.958 . S
C1283 H1298 0.961 . S
C1283 H1299 0.960 . S
H1284 C1268 0.931 . S
H1285 C1273 0.929 . S
H1286 C1274 0.960 . S
H1287 C1274 0.962 . S
H1288 C1274 0.960 . S
H1289 C1275 0.961 . S
H1290 C1275 0.961 . S
H1291 C1275 0.961 . S
H1292 C1276 0.931 . S
H1293 C1281 0.930 . S
H1294 C1282 0.956 . S
H1295 C1282 0.961 . S
H1296 C1282 0.961 . S
H1297 C1283 0.958 . S
H1298 C1283 0.961 . S
H1299 C1283 0.960 . S
C1300 C1301 1.391 . S
C1300 C1302 1.394 . S
C1300 H1316 0.931 . S
C1301 C1300 1.391 . S
C1301 C1305 1.376 . S
C1302 C1300 1.394 . S
C1302 C1303 1.369 . S
C1302 C1306 1.531 . S
C1303 C1302 1.369 . S
C1303 C1304 1.410 . S
C1303 C1311 1.503 . S
C1304 C1303 1.410 . S
C1304 C1305 1.392 . S
C1304 C1307 1.511 . S
C1305 C1301 1.376 . S
C1305 C1304 1.392 . S
C1305 H1317 0.929 . S
C1306 C1302 1.531 . S
C1306 H1318 0.960 . S
C1306 H1319 0.962 . S
C1306 H1320 0.960 . S
C1307 C1304 1.511 . S
C1307 H1321 0.961 . S
C1307 H1322 0.961 . S
C1307 H1323 0.961 . S
C1308 C1309 1.370 . S
C1308 C1310 1.363 . S
C1308 H1324 0.931 . S
C1309 C1308 1.370 . S
C1309 C1313 1.408 . S
C1310 C1308 1.363 . S
C1310 C1311 1.370 . S
C1310 C1314 1.524 . S
C1311 C1303 1.503 . S
C1311 C1310 1.370 . S
C1311 C1312 1.403 . S
C1312 C1311 1.403 . S
C1312 C1313 1.404 . S
C1312 C1315 1.539 . S
C1313 C1309 1.408 . S
C1313 C1312 1.404 . S
C1313 H1325 0.930 . S
C1314 C1310 1.524 . S
C1314 H1326 0.956 . S
C1314 H1327 0.961 . S
C1314 H1328 0.961 . S
C1315 C1312 1.539 . S
C1315 H1329 0.958 . S
C1315 H1330 0.961 . S
C1315 H1331 0.960 . S
H1316 C1300 0.931 . S
H1317 C1305 0.929 . S
H1318 C1306 0.960 . S
H1319 C1306 0.962 . S
H1320 C1306 0.960 . S
H1321 C1307 0.961 . S
H1322 C1307 0.961 . S
H1323 C1307 0.961 . S
H1324 C1308 0.931 . S
H1325 C1313 0.930 . S
H1326 C1314 0.956 . S
H1327 C1314 0.961 . S
H1328 C1314 0.961 . S
H1329 C1315 0.958 . S
H1330 C1315 0.961 . S
H1331 C1315 0.960 . S
C1332 C1333 1.391 . S
C1332 C1334 1.394 . S
C1332 H1348 0.931 . S
C1333 C1332 1.391 . S
C1333 C1337 1.376 . S
C1334 C1332 1.394 . S
C1334 C1335 1.369 . S
C1334 C1338 1.531 . S
C1335 C1334 1.369 . S
C1335 C1336 1.410 . S
C1335 C1343 1.503 . S
C1336 C1335 1.410 . S
C1336 C1337 1.392 . S
C1336 C1339 1.511 . S
C1337 C1333 1.376 . S
C1337 C1336 1.392 . S
C1337 H1349 0.929 . S
C1338 C1334 1.531 . S
C1338 H1350 0.960 . S
C1338 H1351 0.962 . S
C1338 H1352 0.960 . S
C1339 C1336 1.511 . S
C1339 H1353 0.961 . S
C1339 H1354 0.961 . S
C1339 H1355 0.961 . S
C1340 C1341 1.370 . S
C1340 C1342 1.363 . S
C1340 H1356 0.931 . S
C1341 C1340 1.370 . S
C1341 C1345 1.408 . S
C1342 C1340 1.363 . S
C1342 C1343 1.370 . S
C1342 C1346 1.524 . S
C1343 C1335 1.503 . S
C1343 C1342 1.370 . S
C1343 C1344 1.403 . S
C1344 C1343 1.403 . S
C1344 C1345 1.404 . S
C1344 C1347 1.539 . S
C1345 C1341 1.408 . S
C1345 C1344 1.404 . S
C1345 H1357 0.930 . S
C1346 C1342 1.524 . S
C1346 H1358 0.956 . S
C1346 H1359 0.961 . S
C1346 H1360 0.961 . S
C1347 C1344 1.539 . S
C1347 H1361 0.958 . S
C1347 H1362 0.961 . S
C1347 H1363 0.960 . S
H1348 C1332 0.931 . S
H1349 C1337 0.929 . S
H1350 C1338 0.960 . S
H1351 C1338 0.962 . S
H1352 C1338 0.960 . S
H1353 C1339 0.961 . S
H1354 C1339 0.961 . S
H1355 C1339 0.961 . S
H1356 C1340 0.931 . S
H1357 C1345 0.930 . S
H1358 C1346 0.956 . S
H1359 C1346 0.961 . S
H1360 C1346 0.961 . S
H1361 C1347 0.958 . S
H1362 C1347 0.961 . S
H1363 C1347 0.960 . S
C1364 C1365 1.391 . S
C1364 C1366 1.394 . S
C1364 H1380 0.931 . S
C1365 C1364 1.391 . S
C1365 C1369 1.376 . S
C1366 C1364 1.394 . S
C1366 C1367 1.369 . S
C1366 C1370 1.531 . S
C1367 C1366 1.369 . S
C1367 C1368 1.410 . S
C1367 C1375 1.503 . S
C1368 C1367 1.410 . S
C1368 C1369 1.392 . S
C1368 C1371 1.511 . S
C1369 C1365 1.376 . S
C1369 C1368 1.392 . S
C1369 H1381 0.929 . S
C1370 C1366 1.531 . S
C1370 H1382 0.960 . S
C1370 H1383 0.962 . S
C1370 H1384 0.960 . S
C1371 C1368 1.511 . S
C1371 H1385 0.961 . S
C1371 H1386 0.961 . S
C1371 H1387 0.961 . S
C1372 C1373 1.370 . S
C1372 C1374 1.363 . S
C1372 H1388 0.931 . S
C1373 C1372 1.370 . S
C1373 C1377 1.408 . S
C1374 C1372 1.363 . S
C1374 C1375 1.370 . S
C1374 C1378 1.524 . S
C1375 C1367 1.503 . S
C1375 C1374 1.370 . S
C1375 C1376 1.403 . S
C1376 C1375 1.403 . S
C1376 C1377 1.404 . S
C1376 C1379 1.539 . S
C1377 C1373 1.408 . S
C1377 C1376 1.404 . S
C1377 H1389 0.930 . S
C1378 C1374 1.524 . S
C1378 H1390 0.956 . S
C1378 H1391 0.961 . S
C1378 H1392 0.961 . S
C1379 C1376 1.539 . S
C1379 H1393 0.958 . S
C1379 H1394 0.961 . S
C1379 H1395 0.960 . S
H1380 C1364 0.931 . S
H1381 C1369 0.929 . S
H1382 C1370 0.960 . S
H1383 C1370 0.962 . S
H1384 C1370 0.960 . S
H1385 C1371 0.961 . S
H1386 C1371 0.961 . S
H1387 C1371 0.961 . S
H1388 C1372 0.931 . S
H1389 C1377 0.930 . S
H1390 C1378 0.956 . S
H1391 C1378 0.961 . S
H1392 C1378 0.961 . S
H1393 C1379 0.958 . S
H1394 C1379 0.961 . S
H1395 C1379 0.960 . S
C1396 C1397 1.391 . S
C1396 C1398 1.394 . S
C1396 H1412 0.931 . S
C1397 C1396 1.391 . S
C1397 C1401 1.376 . S
C1398 C1396 1.394 . S
C1398 C1399 1.369 . S
C1398 C1402 1.531 . S
C1399 C1398 1.369 . S
C1399 C1400 1.410 . S
C1399 C1407 1.503 . S
C1400 C1399 1.410 . S
C1400 C1401 1.392 . S
C1400 C1403 1.511 . S
C1401 C1397 1.376 . S
C1401 C1400 1.392 . S
C1401 H1413 0.929 . S
C1402 C1398 1.531 . S
C1402 H1414 0.960 . S
C1402 H1415 0.962 . S
C1402 H1416 0.960 . S
C1403 C1400 1.511 . S
C1403 H1417 0.961 . S
C1403 H1418 0.961 . S
C1403 H1419 0.961 . S
C1404 C1405 1.370 . S
C1404 C1406 1.363 . S
C1404 H1420 0.931 . S
C1405 C1404 1.370 . S
C1405 C1409 1.408 . S
C1406 C1404 1.363 . S
C1406 C1407 1.370 . S
C1406 C1410 1.524 . S
C1407 C1399 1.503 . S
C1407 C1406 1.370 . S
C1407 C1408 1.403 . S
C1408 C1407 1.403 . S
C1408 C1409 1.404 . S
C1408 C1411 1.539 . S
C1409 C1405 1.408 . S
C1409 C1408 1.404 . S
C1409 H1421 0.930 . S
C1410 C1406 1.524 . S
C1410 H1422 0.956 . S
C1410 H1423 0.961 . S
C1410 H1424 0.961 . S
C1411 C1408 1.539 . S
C1411 H1425 0.958 . S
C1411 H1426 0.961 . S
C1411 H1427 0.960 . S
H1412 C1396 0.931 . S
H1413 C1401 0.929 . S
H1414 C1402 0.960 . S
H1415 C1402 0.962 . S
H1416 C1402 0.960 . S
H1417 C1403 0.961 . S
H1418 C1403 0.961 . S
H1419 C1403 0.961 . S
H1420 C1404 0.931 . S
H1421 C1409 0.930 . S
H1422 C1410 0.956 . S
H1423 C1410 0.961 . S
H1424 C1410 0.961 . S
H1425 C1411 0.958 . S
H1426 C1411 0.961 . S
H1427 C1411 0.960 . S
C1428 C1429 1.391 . S
C1428 C1430 1.394 . S
C1428 H1444 0.931 . S
C1429 C1428 1.391 . S
C1429 C1433 1.376 . S
C1430 C1428 1.394 . S
C1430 C1431 1.369 . S
C1430 C1434 1.531 . S
C1431 C1430 1.369 . S
C1431 C1432 1.410 . S
C1431 C1439 1.503 . S
C1432 C1431 1.410 . S
C1432 C1433 1.392 . S
C1432 C1435 1.511 . S
C1433 C1429 1.376 . S
C1433 C1432 1.392 . S
C1433 H1445 0.929 . S
C1434 C1430 1.531 . S
C1434 H1446 0.960 . S
C1434 H1447 0.962 . S
C1434 H1448 0.960 . S
C1435 C1432 1.511 . S
C1435 H1449 0.961 . S
C1435 H1450 0.961 . S
C1435 H1451 0.961 . S
C1436 C1437 1.370 . S
C1436 C1438 1.363 . S
C1436 H1452 0.931 . S
C1437 C1436 1.370 . S
C1437 C1441 1.408 . S
C1438 C1436 1.363 . S
C1438 C1439 1.370 . S
C1438 C1442 1.524 . S
C1439 C1431 1.503 . S
C1439 C1438 1.370 . S
C1439 C1440 1.403 . S
C1440 C1439 1.403 . S
C1440 C1441 1.404 . S
C1440 C1443 1.539 . S
C1441 C1437 1.408 . S
C1441 C1440 1.404 . S
C1441 H1453 0.930 . S
C1442 C1438 1.524 . S
C1442 H1454 0.956 . S
C1442 H1455 0.961 . S
C1442 H1456 0.961 . S
C1443 C1440 1.539 . S
C1443 H1457 0.958 . S
C1443 H1458 0.961 . S
C1443 H1459 0.960 . S
H1444 C1428 0.931 . S
H1445 C1433 0.929 . S
H1446 C1434 0.960 . S
H1447 C1434 0.962 . S
H1448 C1434 0.960 . S
H1449 C1435 0.961 . S
H1450 C1435 0.961 . S
H1451 C1435 0.961 . S
H1452 C1436 0.931 . S
H1453 C1441 0.930 . S
H1454 C1442 0.956 . S
H1455 C1442 0.961 . S
H1456 C1442 0.961 . S
H1457 C1443 0.958 . S
H1458 C1443 0.961 . S
H1459 C1443 0.960 . S
C1460 C1461 1.391 . S
C1460 C1462 1.394 . S
C1460 H1476 0.931 . S
C1461 C1460 1.391 . S
C1461 C1465 1.376 . S
C1462 C1460 1.394 . S
C1462 C1463 1.369 . S
C1462 C1466 1.531 . S
C1463 C1462 1.369 . S
C1463 C1464 1.410 . S
C1463 C1471 1.503 . S
C1464 C1463 1.410 . S
C1464 C1465 1.392 . S
C1464 C1467 1.511 . S
C1465 C1461 1.376 . S
C1465 C1464 1.392 . S
C1465 H1477 0.929 . S
C1466 C1462 1.531 . S
C1466 H1478 0.960 . S
C1466 H1479 0.962 . S
C1466 H1480 0.960 . S
C1467 C1464 1.511 . S
C1467 H1481 0.961 . S
C1467 H1482 0.961 . S
C1467 H1483 0.961 . S
C1468 C1469 1.370 . S
C1468 C1470 1.363 . S
C1468 H1484 0.931 . S
C1469 C1468 1.370 . S
C1469 C1473 1.408 . S
C1470 C1468 1.363 . S
C1470 C1471 1.370 . S
C1470 C1474 1.524 . S
C1471 C1463 1.503 . S
C1471 C1470 1.370 . S
C1471 C1472 1.403 . S
C1472 C1471 1.403 . S
C1472 C1473 1.404 . S
C1472 C1475 1.539 . S
C1473 C1469 1.408 . S
C1473 C1472 1.404 . S
C1473 H1485 0.930 . S
C1474 C1470 1.524 . S
C1474 H1486 0.956 . S
C1474 H1487 0.961 . S
C1474 H1488 0.961 . S
C1475 C1472 1.539 . S
C1475 H1489 0.958 . S
C1475 H1490 0.961 . S
C1475 H1491 0.960 . S
H1476 C1460 0.931 . S
H1477 C1465 0.929 . S
H1478 C1466 0.960 . S
H1479 C1466 0.962 . S
H1480 C1466 0.960 . S
H1481 C1467 0.961 . S
H1482 C1467 0.961 . S
H1483 C1467 0.961 . S
H1484 C1468 0.931 . S
H1485 C1473 0.930 . S
H1486 C1474 0.956 . S
H1487 C1474 0.961 . S
H1488 C1474 0.961 . S
H1489 C1475 0.958 . S
H1490 C1475 0.961 . S
H1491 C1475 0.960 . S
C1492 C1493 1.391 . S
C1492 C1494 1.394 . S
C1492 H1508 0.931 . S
C1493 C1492 1.391 . S
C1493 C1497 1.376 . S
C1494 C1492 1.394 . S
C1494 C1495 1.369 . S
C1494 C1498 1.531 . S
C1495 C1494 1.369 . S
C1495 C1496 1.410 . S
C1495 C1503 1.503 . S
C1496 C1495 1.410 . S
C1496 C1497 1.392 . S
C1496 C1499 1.511 . S
C1497 C1493 1.376 . S
C1497 C1496 1.392 . S
C1497 H1509 0.929 . S
C1498 C1494 1.531 . S
C1498 H1510 0.960 . S
C1498 H1511 0.962 . S
C1498 H1512 0.960 . S
C1499 C1496 1.511 . S
C1499 H1513 0.961 . S
C1499 H1514 0.961 . S
C1499 H1515 0.961 . S
C1500 C1501 1.370 . S
C1500 C1502 1.363 . S
C1500 H1516 0.931 . S
C1501 C1500 1.370 . S
C1501 C1505 1.408 . S
C1502 C1500 1.363 . S
C1502 C1503 1.370 . S
C1502 C1506 1.524 . S
C1503 C1495 1.503 . S
C1503 C1502 1.370 . S
C1503 C1504 1.403 . S
C1504 C1503 1.403 . S
C1504 C1505 1.404 . S
C1504 C1507 1.539 . S
C1505 C1501 1.408 . S
C1505 C1504 1.404 . S
C1505 H1517 0.930 . S
C1506 C1502 1.524 . S
C1506 H1518 0.956 . S
C1506 H1519 0.961 . S
C1506 H1520 0.961 . S
C1507 C1504 1.539 . S
C1507 H1521 0.958 . S
C1507 H1522 0.961 . S
C1507 H1523 0.960 . S
H1508 C1492 0.931 . S
H1509 C1497 0.929 . S
H1510 C1498 0.960 . S
H1511 C1498 0.962 . S
H1512 C1498 0.960 . S
H1513 C1499 0.961 . S
H1514 C1499 0.961 . S
H1515 C1499 0.961 . S
H1516 C1500 0.931 . S
H1517 C1505 0.930 . S
H1518 C1506 0.956 . S
H1519 C1506 0.961 . S
H1520 C1506 0.961 . S
H1521 C1507 0.958 . S
H1522 C1507 0.961 . S
H1523 C1507 0.960 . S
C1524 C1525 1.391 . S
C1524 C1526 1.394 . S
C1524 H1540 0.931 . S
C1525 C1524 1.391 . S
C1525 C1529 1.376 . S
C1526 C1524 1.394 . S
C1526 C1527 1.369 . S
C1526 C1530 1.531 . S
C1527 C1526 1.369 . S
C1527 C1528 1.410 . S
C1527 C1535 1.503 . S
C1528 C1527 1.410 . S
C1528 C1529 1.392 . S
C1528 C1531 1.511 . S
C1529 C1525 1.376 . S
C1529 C1528 1.392 . S
C1529 H1541 0.929 . S
C1530 C1526 1.531 . S
C1530 H1542 0.960 . S
C1530 H1543 0.962 . S
C1530 H1544 0.960 . S
C1531 C1528 1.511 . S
C1531 H1545 0.961 . S
C1531 H1546 0.961 . S
C1531 H1547 0.961 . S
C1532 C1533 1.370 . S
C1532 C1534 1.363 . S
C1532 H1548 0.931 . S
C1533 C1532 1.370 . S
C1533 C1537 1.408 . S
C1534 C1532 1.363 . S
C1534 C1535 1.370 . S
C1534 C1538 1.524 . S
C1535 C1527 1.503 . S
C1535 C1534 1.370 . S
C1535 C1536 1.403 . S
C1536 C1535 1.403 . S
C1536 C1537 1.404 . S
C1536 C1539 1.539 . S
C1537 C1533 1.408 . S
C1537 C1536 1.404 . S
C1537 H1549 0.930 . S
C1538 C1534 1.524 . S
C1538 H1550 0.956 . S
C1538 H1551 0.961 . S
C1538 H1552 0.961 . S
C1539 C1536 1.539 . S
C1539 H1553 0.958 . S
C1539 H1554 0.961 . S
C1539 H1555 0.960 . S
H1540 C1524 0.931 . S
H1541 C1529 0.929 . S
H1542 C1530 0.960 . S
H1543 C1530 0.962 . S
H1544 C1530 0.960 . S
H1545 C1531 0.961 . S
H1546 C1531 0.961 . S
H1547 C1531 0.961 . S
H1548 C1532 0.931 . S
H1549 C1537 0.930 . S
H1550 C1538 0.956 . S
H1551 C1538 0.961 . S
H1552 C1538 0.961 . S
H1553 C1539 0.958 . S
H1554 C1539 0.961 . S
H1555 C1539 0.960 . S
C1556 C1557 1.391 . S
C1556 C1558 1.394 . S
C1556 H1572 0.931 . S
C1557 C1556 1.391 . S
C1557 C1561 1.376 . S
C1558 C1556 1.394 . S
C1558 C1559 1.369 . S
C1558 C1562 1.531 . S
C1559 C1558 1.369 . S
C1559 C1560 1.410 . S
C1559 C1567 1.503 . S
C1560 C1559 1.410 . S
C1560 C1561 1.392 . S
C1560 C1563 1.511 . S
C1561 C1557 1.376 . S
C1561 C1560 1.392 . S
C1561 H1573 0.929 . S
C1562 C1558 1.531 . S
C1562 H1574 0.960 . S
C1562 H1575 0.962 . S
C1562 H1576 0.960 . S
C1563 C1560 1.511 . S
C1563 H1577 0.961 . S
C1563 H1578 0.961 . S
C1563 H1579 0.961 . S
C1564 C1565 1.370 . S
C1564 C1566 1.363 . S
C1564 H1580 0.931 . S
C1565 C1564 1.370 . S
C1565 C1569 1.408 . S
C1566 C1564 1.363 . S
C1566 C1567 1.370 . S
C1566 C1570 1.524 . S
C1567 C1559 1.503 . S
C1567 C1566 1.370 . S
C1567 C1568 1.403 . S
C1568 C1567 1.403 . S
C1568 C1569 1.404 . S
C1568 C1571 1.539 . S
C1569 C1565 1.408 . S
C1569 C1568 1.404 . S
C1569 H1581 0.930 . S
C1570 C1566 1.524 . S
C1570 H1582 0.956 . S
C1570 H1583 0.961 . S
C1570 H1584 0.961 . S
C1571 C1568 1.539 . S
C1571 H1585 0.958 . S
C1571 H1586 0.961 . S
C1571 H1587 0.960 . S
H1572 C1556 0.931 . S
H1573 C1561 0.929 . S
H1574 C1562 0.960 . S
H1575 C1562 0.962 . S
H1576 C1562 0.960 . S
H1577 C1563 0.961 . S
H1578 C1563 0.961 . S
H1579 C1563 0.961 . S
H1580 C1564 0.931 . S
H1581 C1569 0.930 . S
H1582 C1570 0.956 . S
H1583 C1570 0.961 . S
H1584 C1570 0.961 . S
H1585 C1571 0.958 . S
H1586 C1571 0.961 . S
H1587 C1571 0.960 . S
C1588 C1589 1.391 . S
C1588 C1590 1.394 . S
C1588 H1604 0.931 . S
C1589 C1588 1.391 . S
C1589 C1593 1.376 . S
C1590 C1588 1.394 . S
C1590 C1591 1.369 . S
C1590 C1594 1.531 . S
C1591 C1590 1.369 . S
C1591 C1592 1.410 . S
C1591 C1599 1.503 . S
C1592 C1591 1.410 . S
C1592 C1593 1.392 . S
C1592 C1595 1.511 . S
C1593 C1589 1.376 . S
C1593 C1592 1.392 . S
C1593 H1605 0.929 . S
C1594 C1590 1.531 . S
C1594 H1606 0.960 . S
C1594 H1607 0.962 . S
C1594 H1608 0.960 . S
C1595 C1592 1.511 . S
C1595 H1609 0.961 . S
C1595 H1610 0.961 . S
C1595 H1611 0.961 . S
C1596 C1597 1.370 . S
C1596 C1598 1.363 . S
C1596 H1612 0.931 . S
C1597 C1596 1.370 . S
C1597 C1601 1.408 . S
C1598 C1596 1.363 . S
C1598 C1599 1.370 . S
C1598 C1602 1.524 . S
C1599 C1591 1.503 . S
C1599 C1598 1.370 . S
C1599 C1600 1.403 . S
C1600 C1599 1.403 . S
C1600 C1601 1.404 . S
C1600 C1603 1.539 . S
C1601 C1597 1.408 . S
C1601 C1600 1.404 . S
C1601 H1613 0.930 . S
C1602 C1598 1.524 . S
C1602 H1614 0.956 . S
C1602 H1615 0.961 . S
C1602 H1616 0.961 . S
C1603 C1600 1.539 . S
C1603 H1617 0.958 . S
C1603 H1618 0.961 . S
C1603 H1619 0.960 . S
H1604 C1588 0.931 . S
H1605 C1593 0.929 . S
H1606 C1594 0.960 . S
H1607 C1594 0.962 . S
H1608 C1594 0.960 . S
H1609 C1595 0.961 . S
H1610 C1595 0.961 . S
H1611 C1595 0.961 . S
H1612 C1596 0.931 . S
H1613 C1601 0.930 . S
H1614 C1602 0.956 . S
H1615 C1602 0.961 . S
H1616 C1602 0.961 . S
H1617 C1603 0.958 . S
H1618 C1603 0.961 . S
H1619 C1603 0.960 . S
C1620 C1621 1.391 . S
C1620 C1622 1.394 . S
C1620 H1636 0.931 . S
C1621 C1620 1.391 . S
C1621 C1625 1.376 . S
C1622 C1620 1.394 . S
C1622 C1623 1.369 . S
C1622 C1626 1.531 . S
C1623 C1622 1.369 . S
C1623 C1624 1.410 . S
C1623 C1631 1.503 . S
C1624 C1623 1.410 . S
C1624 C1625 1.392 . S
C1624 C1627 1.511 . S
C1625 C1621 1.376 . S
C1625 C1624 1.392 . S
C1625 H1637 0.929 . S
C1626 C1622 1.531 . S
C1626 H1638 0.960 . S
C1626 H1639 0.962 . S
C1626 H1640 0.960 . S
C1627 C1624 1.511 . S
C1627 H1641 0.961 . S
C1627 H1642 0.961 . S
C1627 H1643 0.961 . S
C1628 C1629 1.370 . S
C1628 C1630 1.363 . S
C1628 H1644 0.931 . S
C1629 C1628 1.370 . S
C1629 C1633 1.408 . S
C1630 C1628 1.363 . S
C1630 C1631 1.370 . S
C1630 C1634 1.524 . S
C1631 C1623 1.503 . S
C1631 C1630 1.370 . S
C1631 C1632 1.403 . S
C1632 C1631 1.403 . S
C1632 C1633 1.404 . S
C1632 C1635 1.539 . S
C1633 C1629 1.408 . S
C1633 C1632 1.404 . S
C1633 H1645 0.930 . S
C1634 C1630 1.524 . S
C1634 H1646 0.956 . S
C1634 H1647 0.961 . S
C1634 H1648 0.961 . S
C1635 C1632 1.539 . S
C1635 H1649 0.958 . S
C1635 H1650 0.961 . S
C1635 H1651 0.960 . S
H1636 C1620 0.931 . S
H1637 C1625 0.929 . S
H1638 C1626 0.960 . S
H1639 C1626 0.962 . S
H1640 C1626 0.960 . S
H1641 C1627 0.961 . S
H1642 C1627 0.961 . S
H1643 C1627 0.961 . S
H1644 C1628 0.931 . S
H1645 C1633 0.930 . S
H1646 C1634 0.956 . S
H1647 C1634 0.961 . S
H1648 C1634 0.961 . S
H1649 C1635 0.958 . S
H1650 C1635 0.961 . S
H1651 C1635 0.960 . S
C1652 C1653 1.391 . S
C1652 C1654 1.394 . S
C1652 H1668 0.931 . S
C1653 C1652 1.391 . S
C1653 C1657 1.376 . S
C1654 C1652 1.394 . S
C1654 C1655 1.369 . S
C1654 C1658 1.531 . S
C1655 C1654 1.369 . S
C1655 C1656 1.410 . S
C1655 C1663 1.503 . S
C1656 C1655 1.410 . S
C1656 C1657 1.392 . S
C1656 C1659 1.511 . S
C1657 C1653 1.376 . S
C1657 C1656 1.392 . S
C1657 H1669 0.929 . S
C1658 C1654 1.531 . S
C1658 H1670 0.960 . S
C1658 H1671 0.962 . S
C1658 H1672 0.960 . S
C1659 C1656 1.511 . S
C1659 H1673 0.961 . S
C1659 H1674 0.961 . S
C1659 H1675 0.961 . S
C1660 C1661 1.370 . S
C1660 C1662 1.363 . S
C1660 H1676 0.931 . S
C1661 C1660 1.370 . S
C1661 C1665 1.408 . S
C1662 C1660 1.363 . S
C1662 C1663 1.370 . S
C1662 C1666 1.524 . S
C1663 C1655 1.503 . S
C1663 C1662 1.370 . S
C1663 C1664 1.403 . S
C1664 C1663 1.403 . S
C1664 C1665 1.404 . S
C1664 C1667 1.539 . S
C1665 C1661 1.408 . S
C1665 C1664 1.404 . S
C1665 H1677 0.930 . S
C1666 C1662 1.524 . S
C1666 H1678 0.956 . S
C1666 H1679 0.961 . S
C1666 H1680 0.961 . S
C1667 C1664 1.539 . S
C1667 H1681 0.958 . S
C1667 H1682 0.961 . S
C1667 H1683 0.960 . S
H1668 C1652 0.931 . S
H1669 C1657 0.929 . S
H1670 C1658 0.960 . S
H1671 C1658 0.962 . S
H1672 C1658 0.960 . S
H1673 C1659 0.961 . S
H1674 C1659 0.961 . S
H1675 C1659 0.961 . S
H1676 C1660 0.931 . S
H1677 C1665 0.930 . S
H1678 C1666 0.956 . S
H1679 C1666 0.961 . S
H1680 C1666 0.961 . S
H1681 C1667 0.958 . S
H1682 C1667 0.961 . S
H1683 C1667 0.960 . S
C1684 C1685 1.391 . S
C1684 C1686 1.394 . S
C1684 H1700 0.931 . S
C1685 C1684 1.391 . S
C1685 C1689 1.376 . S
C1686 C1684 1.394 . S
C1686 C1687 1.369 . S
C1686 C1690 1.531 . S
C1687 C1686 1.369 . S
C1687 C1688 1.410 . S
C1687 C1695 1.503 . S
C1688 C1687 1.410 . S
C1688 C1689 1.392 . S
C1688 C1691 1.511 . S
C1689 C1685 1.376 . S
C1689 C1688 1.392 . S
C1689 H1701 0.929 . S
C1690 C1686 1.531 . S
C1690 H1702 0.960 . S
C1690 H1703 0.962 . S
C1690 H1704 0.960 . S
C1691 C1688 1.511 . S
C1691 H1705 0.961 . S
C1691 H1706 0.961 . S
C1691 H1707 0.961 . S
C1692 C1693 1.370 . S
C1692 C1694 1.363 . S
C1692 H1708 0.931 . S
C1693 C1692 1.370 . S
C1693 C1697 1.408 . S
C1694 C1692 1.363 . S
C1694 C1695 1.370 . S
C1694 C1698 1.524 . S
C1695 C1687 1.503 . S
C1695 C1694 1.370 . S
C1695 C1696 1.403 . S
C1696 C1695 1.403 . S
C1696 C1697 1.404 . S
C1696 C1699 1.539 . S
C1697 C1693 1.408 . S
C1697 C1696 1.404 . S
C1697 H1709 0.930 . S
C1698 C1694 1.524 . S
C1698 H1710 0.956 . S
C1698 H1711 0.961 . S
C1698 H1712 0.961 . S
C1699 C1696 1.539 . S
C1699 H1713 0.958 . S
C1699 H1714 0.961 . S
C1699 H1715 0.960 . S
H1700 C1684 0.931 . S
H1701 C1689 0.929 . S
H1702 C1690 0.960 . S
H1703 C1690 0.962 . S
H1704 C1690 0.960 . S
H1705 C1691 0.961 . S
H1706 C1691 0.961 . S
H1707 C1691 0.961 . S
H1708 C1692 0.931 . S
H1709 C1697 0.930 . S
H1710 C1698 0.956 . S
H1711 C1698 0.961 . S
H1712 C1698 0.961 . S
H1713 C1699 0.958 . S
H1714 C1699 0.961 . S
H1715 C1699 0.960 . S
C1716 C1717 1.391 . S
C1716 C1718 1.394 . S
C1716 H1732 0.931 . S
C1717 C1716 1.391 . S
C1717 C1721 1.376 . S
C1718 C1716 1.394 . S
C1718 C1719 1.369 . S
C1718 C1722 1.531 . S
C1719 C1718 1.369 . S
C1719 C1720 1.410 . S
C1719 C1727 1.503 . S
C1720 C1719 1.410 . S
C1720 C1721 1.392 . S
C1720 C1723 1.511 . S
C1721 C1717 1.376 . S
C1721 C1720 1.392 . S
C1721 H1733 0.929 . S
C1722 C1718 1.531 . S
C1722 H1734 0.960 . S
C1722 H1735 0.962 . S
C1722 H1736 0.960 . S
C1723 C1720 1.511 . S
C1723 H1737 0.961 . S
C1723 H1738 0.961 . S
C1723 H1739 0.961 . S
C1724 C1725 1.370 . S
C1724 C1726 1.363 . S
C1724 H1740 0.931 . S
C1725 C1724 1.370 . S
C1725 C1729 1.408 . S
C1726 C1724 1.363 . S
C1726 C1727 1.370 . S
C1726 C1730 1.524 . S
C1727 C1719 1.503 . S
C1727 C1726 1.370 . S
C1727 C1728 1.403 . S
C1728 C1727 1.403 . S
C1728 C1729 1.404 . S
C1728 C1731 1.539 . S
C1729 C1725 1.408 . S
C1729 C1728 1.404 . S
C1729 H1741 0.930 . S
C1730 C1726 1.524 . S
C1730 H1742 0.956 . S
C1730 H1743 0.961 . S
C1730 H1744 0.961 . S
C1731 C1728 1.539 . S
C1731 H1745 0.958 . S
C1731 H1746 0.961 . S
C1731 H1747 0.960 . S
H1732 C1716 0.931 . S
H1733 C1721 0.929 . S
H1734 C1722 0.960 . S
H1735 C1722 0.962 . S
H1736 C1722 0.960 . S
H1737 C1723 0.961 . S
H1738 C1723 0.961 . S
H1739 C1723 0.961 . S
H1740 C1724 0.931 . S
H1741 C1729 0.930 . S
H1742 C1730 0.956 . S
H1743 C1730 0.961 . S
H1744 C1730 0.961 . S
H1745 C1731 0.958 . S
H1746 C1731 0.961 . S
H1747 C1731 0.960 . S
C1748 C1749 1.391 . S
C1748 C1750 1.394 . S
C1748 H1764 0.931 . S
C1749 C1748 1.391 . S
C1749 C1753 1.376 . S
C1750 C1748 1.394 . S
C1750 C1751 1.369 . S
C1750 C1754 1.531 . S
C1751 C1750 1.369 . S
C1751 C1752 1.410 . S
C1751 C1759 1.503 . S
C1752 C1751 1.410 . S
C1752 C1753 1.392 . S
C1752 C1755 1.511 . S
C1753 C1749 1.376 . S
C1753 C1752 1.392 . S
C1753 H1765 0.929 . S
C1754 C1750 1.531 . S
C1754 H1766 0.960 . S
C1754 H1767 0.962 . S
C1754 H1768 0.960 . S
C1755 C1752 1.511 . S
C1755 H1769 0.961 . S
C1755 H1770 0.961 . S
C1755 H1771 0.961 . S
C1756 C1757 1.370 . S
C1756 C1758 1.363 . S
C1756 H1772 0.931 . S
C1757 C1756 1.370 . S
C1757 C1761 1.408 . S
C1758 C1756 1.363 . S
C1758 C1759 1.370 . S
C1758 C1762 1.524 . S
C1759 C1751 1.503 . S
C1759 C1758 1.370 . S
C1759 C1760 1.403 . S
C1760 C1759 1.403 . S
C1760 C1761 1.404 . S
C1760 C1763 1.539 . S
C1761 C1757 1.408 . S
C1761 C1760 1.404 . S
C1761 H1773 0.930 . S
C1762 C1758 1.524 . S
C1762 H1774 0.956 . S
C1762 H1775 0.961 . S
C1762 H1776 0.961 . S
C1763 C1760 1.539 . S
C1763 H1777 0.958 . S
C1763 H1778 0.961 . S
C1763 H1779 0.960 . S
H1764 C1748 0.931 . S
H1765 C1753 0.929 . S
H1766 C1754 0.960 . S
H1767 C1754 0.962 . S
H1768 C1754 0.960 . S
H1769 C1755 0.961 . S
H1770 C1755 0.961 . S
H1771 C1755 0.961 . S
H1772 C1756 0.931 . S
H1773 C1761 0.930 . S
H1774 C1762 0.956 . S
H1775 C1762 0.961 . S
H1776 C1762 0.961 . S
H1777 C1763 0.958 . S
H1778 C1763 0.961 . S
H1779 C1763 0.960 . S
C1780 C1781 1.391 . S
C1780 C1782 1.394 . S
C1780 H1796 0.931 . S
C1781 C1780 1.391 . S
C1781 C1785 1.376 . S
C1782 C1780 1.394 . S
C1782 C1783 1.369 . S
C1782 C1786 1.531 . S
C1783 C1782 1.369 . S
C1783 C1784 1.410 . S
C1783 C1791 1.503 . S
C1784 C1783 1.410 . S
C1784 C1785 1.392 . S
C1784 C1787 1.511 . S
C1785 C1781 1.376 . S
C1785 C1784 1.392 . S
C1785 H1797 0.929 . S
C1786 C1782 1.531 . S
C1786 H1798 0.960 . S
C1786 H1799 0.962 . S
C1786 H1800 0.960 . S
C1787 C1784 1.511 . S
C1787 H1801 0.961 . S
C1787 H1802 0.961 . S
C1787 H1803 0.961 . S
C1788 C1789 1.370 . S
C1788 C1790 1.363 . S
C1788 H1804 0.931 . S
C1789 C1788 1.370 . S
C1789 C1793 1.408 . S
C1790 C1788 1.363 . S
C1790 C1791 1.370 . S
C1790 C1794 1.524 . S
C1791 C1783 1.503 . S
C1791 C1790 1.370 . S
C1791 C1792 1.403 . S
C1792 C1791 1.403 . S
C1792 C1793 1.404 . S
C1792 C1795 1.539 . S
C1793 C1789 1.408 . S
C1793 C1792 1.404 . S
C1793 H1805 0.930 . S
C1794 C1790 1.524 . S
C1794 H1806 0.956 . S
C1794 H1807 0.961 . S
C1794 H1808 0.961 . S
C1795 C1792 1.539 . S
C1795 H1809 0.958 . S
C1795 H1810 0.961 . S
C1795 H1811 0.960 . S
H1796 C1780 0.931 . S
H1797 C1785 0.929 . S
H1798 C1786 0.960 . S
H1799 C1786 0.962 . S
H1800 C1786 0.960 . S
H1801 C1787 0.961 . S
H1802 C1787 0.961 . S
H1803 C1787 0.961 . S
H1804 C1788 0.931 . S
H1805 C1793 0.930 . S
H1806 C1794 0.956 . S
H1807 C1794 0.961 . S
H1808 C1794 0.961 . S
H1809 C1795 0.958 . S
H1810 C1795 0.961 . S
H1811 C1795 0.960 . S
C1812 C1813 1.391 . S
C1812 C1814 1.394 . S
C1812 H1828 0.931 . S
C1813 C1812 1.391 . S
C1813 C1817 1.376 . S
C1814 C1812 1.394 . S
C1814 C1815 1.369 . S
C1814 C1818 1.531 . S
C1815 C1814 1.369 . S
C1815 C1816 1.410 . S
C1815 C1823 1.503 . S
C1816 C1815 1.410 . S
C1816 C1817 1.392 . S
C1816 C1819 1.511 . S
C1817 C1813 1.376 . S
C1817 C1816 1.392 . S
C1817 H1829 0.929 . S
C1818 C1814 1.531 . S
C1818 H1830 0.960 . S
C1818 H1831 0.962 . S
C1818 H1832 0.960 . S
C1819 C1816 1.511 . S
C1819 H1833 0.961 . S
C1819 H1834 0.961 . S
C1819 H1835 0.961 . S
C1820 C1821 1.370 . S
C1820 C1822 1.363 . S
C1820 H1836 0.931 . S
C1821 C1820 1.370 . S
C1821 C1825 1.408 . S
C1822 C1820 1.363 . S
C1822 C1823 1.370 . S
C1822 C1826 1.524 . S
C1823 C1815 1.503 . S
C1823 C1822 1.370 . S
C1823 C1824 1.403 . S
C1824 C1823 1.403 . S
C1824 C1825 1.404 . S
C1824 C1827 1.539 . S
C1825 C1821 1.408 . S
C1825 C1824 1.404 . S
C1825 H1837 0.930 . S
C1826 C1822 1.524 . S
C1826 H1838 0.956 . S
C1826 H1839 0.961 . S
C1826 H1840 0.961 . S
C1827 C1824 1.539 . S
C1827 H1841 0.958 . S
C1827 H1842 0.961 . S
C1827 H1843 0.960 . S
H1828 C1812 0.931 . S
H1829 C1817 0.929 . S
H1830 C1818 0.960 . S
H1831 C1818 0.962 . S
H1832 C1818 0.960 . S
H1833 C1819 0.961 . S
H1834 C1819 0.961 . S
H1835 C1819 0.961 . S
H1836 C1820 0.931 . S
H1837 C1825 0.930 . S
H1838 C1826 0.956 . S
H1839 C1826 0.961 . S
H1840 C1826 0.961 . S
H1841 C1827 0.958 . S
H1842 C1827 0.961 . S
H1843 C1827 0.960 . S
C1844 C1845 1.391 . S
C1844 C1846 1.394 . S
C1844 H1860 0.931 . S
C1845 C1844 1.391 . S
C1845 C1849 1.376 . S
C1846 C1844 1.394 . S
C1846 C1847 1.369 . S
C1846 C1850 1.531 . S
C1847 C1846 1.369 . S
C1847 C1848 1.410 . S
C1847 C1855 1.503 . S
C1848 C1847 1.410 . S
C1848 C1849 1.392 . S
C1848 C1851 1.511 . S
C1849 C1845 1.376 . S
C1849 C1848 1.392 . S
C1849 H1861 0.929 . S
C1850 C1846 1.531 . S
C1850 H1862 0.960 . S
C1850 H1863 0.962 . S
C1850 H1864 0.960 . S
C1851 C1848 1.511 . S
C1851 H1865 0.961 . S
C1851 H1866 0.961 . S
C1851 H1867 0.961 . S
C1852 C1853 1.370 . S
C1852 C1854 1.363 . S
C1852 H1868 0.931 . S
C1853 C1852 1.370 . S
C1853 C1857 1.408 . S
C1854 C1852 1.363 . S
C1854 C1855 1.370 . S
C1854 C1858 1.524 . S
C1855 C1847 1.503 . S
C1855 C1854 1.370 . S
C1855 C1856 1.403 . S
C1856 C1855 1.403 . S
C1856 C1857 1.404 . S
C1856 C1859 1.539 . S
C1857 C1853 1.408 . S
C1857 C1856 1.404 . S
C1857 H1869 0.930 . S
C1858 C1854 1.524 . S
C1858 H1870 0.956 . S
C1858 H1871 0.961 . S
C1858 H1872 0.961 . S
C1859 C1856 1.539 . S
C1859 H1873 0.958 . S
C1859 H1874 0.961 . S
C1859 H1875 0.960 . S
H1860 C1844 0.931 . S
H1861 C1849 0.929 . S
H1862 C1850 0.960 . S
H1863 C1850 0.962 . S
H1864 C1850 0.960 . S
H1865 C1851 0.961 . S
H1866 C1851 0.961 . S
H1867 C1851 0.961 . S
H1868 C1852 0.931 . S
H1869 C1857 0.930 . S
H1870 C1858 0.956 . S
H1871 C1858 0.961 . S
H1872 C1858 0.961 . S
H1873 C1859 0.958 . S
H1874 C1859 0.961 . S
H1875 C1859 0.960 . S
C1876 C1877 1.391 . S
C1876 C1878 1.394 . S
C1876 H1892 0.931 . S
C1877 C1876 1.391 . S
C1877 C1881 1.376 . S
C1878 C1876 1.394 . S
C1878 C1879 1.369 . S
C1878 C1882 1.531 . S
C1879 C1878 1.369 . S
C1879 C1880 1.410 . S
C1879 C1887 1.503 . S
C1880 C1879 1.410 . S
C1880 C1881 1.392 . S
C1880 C1883 1.511 . S
C1881 C1877 1.376 . S
C1881 C1880 1.392 . S
C1881 H1893 0.929 . S
C1882 C1878 1.531 . S
C1882 H1894 0.960 . S
C1882 H1895 0.962 . S
C1882 H1896 0.960 . S
C1883 C1880 1.511 . S
C1883 H1897 0.961 . S
C1883 H1898 0.961 . S
C1883 H1899 0.961 . S
C1884 C1885 1.370 . S
C1884 C1886 1.363 . S
C1884 H1900 0.931 . S
C1885 C1884 1.370 . S
C1885 C1889 1.408 . S
C1886 C1884 1.363 . S
C1886 C1887 1.370 . S
C1886 C1890 1.524 . S
C1887 C1879 1.503 . S
C1887 C1886 1.370 . S
C1887 C1888 1.403 . S
C1888 C1887 1.403 . S
C1888 C1889 1.404 . S
C1888 C1891 1.539 . S
C1889 C1885 1.408 . S
C1889 C1888 1.404 . S
C1889 H1901 0.930 . S
C1890 C1886 1.524 . S
C1890 H1902 0.956 . S
C1890 H1903 0.961 . S
C1890 H1904 0.961 . S
C1891 C1888 1.539 . S
C1891 H1905 0.958 . S
C1891 H1906 0.961 . S
C1891 H1907 0.960 . S
H1892 C1876 0.931 . S
H1893 C1881 0.929 . S
H1894 C1882 0.960 . S
H1895 C1882 0.962 . S
H1896 C1882 0.960 . S
H1897 C1883 0.961 . S
H1898 C1883 0.961 . S
H1899 C1883 0.961 . S
H1900 C1884 0.931 . S
H1901 C1889 0.930 . S
H1902 C1890 0.956 . S
H1903 C1890 0.961 . S
H1904 C1890 0.961 . S
H1905 C1891 0.958 . S
H1906 C1891 0.961 . S
H1907 C1891 0.960 . S
C1908 C1909 1.391 . S
C1908 C1910 1.394 . S
C1908 H1924 0.931 . S
C1909 C1908 1.391 . S
C1909 C1913 1.376 . S
C1910 C1908 1.394 . S
C1910 C1911 1.369 . S
C1910 C1914 1.531 . S
C1911 C1910 1.369 . S
C1911 C1912 1.410 . S
C1911 C1919 1.503 . S
C1912 C1911 1.410 . S
C1912 C1913 1.392 . S
C1912 C1915 1.511 . S
C1913 C1909 1.376 . S
C1913 C1912 1.392 . S
C1913 H1925 0.929 . S
C1914 C1910 1.531 . S
C1914 H1926 0.960 . S
C1914 H1927 0.962 . S
C1914 H1928 0.960 . S
C1915 C1912 1.511 . S
C1915 H1929 0.961 . S
C1915 H1930 0.961 . S
C1915 H1931 0.961 . S
C1916 C1917 1.370 . S
C1916 C1918 1.363 . S
C1916 H1932 0.931 . S
C1917 C1916 1.370 . S
C1917 C1921 1.408 . S
C1918 C1916 1.363 . S
C1918 C1919 1.370 . S
C1918 C1922 1.524 . S
C1919 C1911 1.503 . S
C1919 C1918 1.370 . S
C1919 C1920 1.403 . S
C1920 C1919 1.403 . S
C1920 C1921 1.404 . S
C1920 C1923 1.539 . S
C1921 C1917 1.408 . S
C1921 C1920 1.404 . S
C1921 H1933 0.930 . S
C1922 C1918 1.524 . S
C1922 H1934 0.956 . S
C1922 H1935 0.961 . S
C1922 H1936 0.961 . S
C1923 C1920 1.539 . S
C1923 H1937 0.958 . S
C1923 H1938 0.961 . S
C1923 H1939 0.960 . S
H1924 C1908 0.931 . S
H1925 C1913 0.929 . S
H1926 C1914 0.960 . S
H1927 C1914 0.962 . S
H1928 C1914 0.960 . S
H1929 C1915 0.961 . S
H1930 C1915 0.961 . S
H1931 C1915 0.961 . S
H1932 C1916 0.931 . S
H1933 C1921 0.930 . S
H1934 C1922 0.956 . S
H1935 C1922 0.961 . S
H1936 C1922 0.961 . S
H1937 C1923 0.958 . S
H1938 C1923 0.961 . S
H1939 C1923 0.960 . S
C1940 C1941 1.391 . S
C1940 C1942 1.394 . S
C1940 H1956 0.931 . S
C1941 C1940 1.391 . S
C1941 C1945 1.376 . S
C1942 C1940 1.394 . S
C1942 C1943 1.369 . S
C1942 C1946 1.531 . S
C1943 C1942 1.369 . S
C1943 C1944 1.410 . S
C1943 C1951 1.503 . S
C1944 C1943 1.410 . S
C1944 C1945 1.392 . S
C1944 C1947 1.511 . S
C1945 C1941 1.376 . S
C1945 C1944 1.392 . S
C1945 H1957 0.929 . S
C1946 C1942 1.531 . S
C1946 H1958 0.960 . S
C1946 H1959 0.962 . S
C1946 H1960 0.960 . S
C1947 C1944 1.511 . S
C1947 H1961 0.961 . S
C1947 H1962 0.961 . S
C1947 H1963 0.961 . S
C1948 C1949 1.370 . S
C1948 C1950 1.363 . S
C1948 H1964 0.931 . S
C1949 C1948 1.370 . S
C1949 C1953 1.408 . S
C1950 C1948 1.363 . S
C1950 C1951 1.370 . S
C1950 C1954 1.524 . S
C1951 C1943 1.503 . S
C1951 C1950 1.370 . S
C1951 C1952 1.403 . S
C1952 C1951 1.403 . S
C1952 C1953 1.404 . S
C1952 C1955 1.539 . S
C1953 C1949 1.408 . S
C1953 C1952 1.404 . S
C1953 H1965 0.930 . S
C1954 C1950 1.524 . S
C1954 H1966 0.956 . S
C1954 H1967 0.961 . S
C1954 H1968 0.961 . S
C1955 C1952 1.539 . S
C1955 H1969 0.958 . S
C1955 H1970 0.961 . S
C1955 H1971 0.960 . S
H1956 C1940 0.931 . S
H1957 C1945 0.929 . S
H1958 C1946 0.960 . S
H1959 C1946 0.962 . S
H1960 C1946 0.960 . S
H1961 C1947 0.961 . S
H1962 C1947 0.961 . S
H1963 C1947 0.961 . S
H1964 C1948 0.931 . S
H1965 C1953 0.930 . S
H1966 C1954 0.956 . S
H1967 C1954 0.961 . S
H1968 C1954 0.961 . S
H1969 C1955 0.958 . S
H1970 C1955 0.961 . S
H1971 C1955 0.960 . S
C1972 C1973 1.391 . S
C1972 C1974 1.394 . S
C1972 H1988 0.931 . S
C1973 C1972 1.391 . S
C1973 C1977 1.376 . S
C1974 C1972 1.394 . S
C1974 C1975 1.369 . S
C1974 C1978 1.531 . S
C1975 C1974 1.369 . S
C1975 C1976 1.410 . S
C1975 C1983 1.503 . S
C1976 C1975 1.410 . S
C1976 C1977 1.392 . S
C1976 C1979 1.511 . S
C1977 C1973 1.376 . S
C1977 C1976 1.392 . S
C1977 H1989 0.929 . S
C1978 C1974 1.531 . S
C1978 H1990 0.960 . S
C1978 H1991 0.962 . S
C1978 H1992 0.960 . S
C1979 C1976 1.511 . S
C1979 H1993 0.961 . S
C1979 H1994 0.961 . S
C1979 H1995 0.961 . S
C1980 C1981 1.370 . S
C1980 C1982 1.363 . S
C1980 H1996 0.931 . S
C1981 C1980 1.370 . S
C1981 C1985 1.408 . S
C1982 C1980 1.363 . S
C1982 C1983 1.370 . S
C1982 C1986 1.524 . S
C1983 C1975 1.503 . S
C1983 C1982 1.370 . S
C1983 C1984 1.403 . S
C1984 C1983 1.403 . S
C1984 C1985 1.404 . S
C1984 C1987 1.539 . S
C1985 C1981 1.408 . S
C1985 C1984 1.404 . S
C1985 H1997 0.930 . S
C1986 C1982 1.524 . S
C1986 H1998 0.956 . S
C1986 H1999 0.961 . S
C1986 H2000 0.961 . S
C1987 C1984 1.539 . S
C1987 H2001 0.958 . S
C1987 H2002 0.961 . S
C1987 H2003 0.960 . S
H1988 C1972 0.931 . S
H1989 C1977 0.929 . S
H1990 C1978 0.960 . S
H1991 C1978 0.962 . S
H1992 C1978 0.960 . S
H1993 C1979 0.961 . S
H1994 C1979 0.961 . S
H1995 C1979 0.961 . S
H1996 C1980 0.931 . S
H1997 C1985 0.930 . S
H1998 C1986 0.956 . S
H1999 C1986 0.961 . S
H2000 C1986 0.961 . S
H2001 C1987 0.958 . S
H2002 C1987 0.961 . S
H2003 C1987 0.960 . S
C2004 C2005 1.391 . S
C2004 C2006 1.394 . S
C2004 H2020 0.931 . S
C2005 C2004 1.391 . S
C2005 C2009 1.376 . S
C2006 C2004 1.394 . S
C2006 C2007 1.369 . S
C2006 C2010 1.531 . S
C2007 C2006 1.369 . S
C2007 C2008 1.410 . S
C2007 C2015 1.503 . S
C2008 C2007 1.410 . S
C2008 C2009 1.392 . S
C2008 C2011 1.511 . S
C2009 C2005 1.376 . S
C2009 C2008 1.392 . S
C2009 H2021 0.929 . S
C2010 C2006 1.531 . S
C2010 H2022 0.960 . S
C2010 H2023 0.962 . S
C2010 H2024 0.960 . S
C2011 C2008 1.511 . S
C2011 H2025 0.961 . S
C2011 H2026 0.961 . S
C2011 H2027 0.961 . S
C2012 C2013 1.370 . S
C2012 C2014 1.363 . S
C2012 H2028 0.931 . S
C2013 C2012 1.370 . S
C2013 C2017 1.408 . S
C2014 C2012 1.363 . S
C2014 C2015 1.370 . S
C2014 C2018 1.524 . S
C2015 C2007 1.503 . S
C2015 C2014 1.370 . S
C2015 C2016 1.403 . S
C2016 C2015 1.403 . S
C2016 C2017 1.404 . S
C2016 C2019 1.539 . S
C2017 C2013 1.408 . S
C2017 C2016 1.404 . S
C2017 H2029 0.930 . S
C2018 C2014 1.524 . S
C2018 H2030 0.956 . S
C2018 H2031 0.961 . S
C2018 H2032 0.961 . S
C2019 C2016 1.539 . S
C2019 H2033 0.958 . S
C2019 H2034 0.961 . S
C2019 H2035 0.960 . S
H2020 C2004 0.931 . S
H2021 C2009 0.929 . S
H2022 C2010 0.960 . S
H2023 C2010 0.962 . S
H2024 C2010 0.960 . S
H2025 C2011 0.961 . S
H2026 C2011 0.961 . S
H2027 C2011 0.961 . S
H2028 C2012 0.931 . S
H2029 C2017 0.930 . S
H2030 C2018 0.956 . S
H2031 C2018 0.961 . S
H2032 C2018 0.961 . S
H2033 C2019 0.958 . S
H2034 C2019 0.961 . S
H2035 C2019 0.960 . S
C2036 C2037 1.391 . S
C2036 C2038 1.394 . S
C2036 H2052 0.931 . S
C2037 C2036 1.391 . S
C2037 C2041 1.376 . S
C2038 C2036 1.394 . S
C2038 C2039 1.369 . S
C2038 C2042 1.531 . S
C2039 C2038 1.369 . S
C2039 C2040 1.410 . S
C2039 C2047 1.503 . S
C2040 C2039 1.410 . S
C2040 C2041 1.392 . S
C2040 C2043 1.511 . S
C2041 C2037 1.376 . S
C2041 C2040 1.392 . S
C2041 H2053 0.929 . S
C2042 C2038 1.531 . S
C2042 H2054 0.960 . S
C2042 H2055 0.962 . S
C2042 H2056 0.960 . S
C2043 C2040 1.511 . S
C2043 H2057 0.961 . S
C2043 H2058 0.961 . S
C2043 H2059 0.961 . S
C2044 C2045 1.370 . S
C2044 C2046 1.363 . S
C2044 H2060 0.931 . S
C2045 C2044 1.370 . S
C2045 C2049 1.408 . S
C2046 C2044 1.363 . S
C2046 C2047 1.370 . S
C2046 C2050 1.524 . S
C2047 C2039 1.503 . S
C2047 C2046 1.370 . S
C2047 C2048 1.403 . S
C2048 C2047 1.403 . S
C2048 C2049 1.404 . S
C2048 C2051 1.539 . S
C2049 C2045 1.408 . S
C2049 C2048 1.404 . S
C2049 H2061 0.930 . S
C2050 C2046 1.524 . S
C2050 H2062 0.956 . S
C2050 H2063 0.961 . S
C2050 H2064 0.961 . S
C2051 C2048 1.539 . S
C2051 H2065 0.958 . S
C2051 H2066 0.961 . S
C2051 H2067 0.960 . S
H2052 C2036 0.931 . S
H2053 C2041 0.929 . S
H2054 C2042 0.960 . S
H2055 C2042 0.962 . S
H2056 C2042 0.960 . S
H2057 C2043 0.961 . S
H2058 C2043 0.961 . S
H2059 C2043 0.961 . S
H2060 C2044 0.931 . S
H2061 C2049 0.930 . S
H2062 C2050 0.956 . S
H2063 C2050 0.961 . S
H2064 C2050 0.961 . S
H2065 C2051 0.958 . S
H2066 C2051 0.961 . S
H2067 C2051 0.960 . S
C2068 C2069 1.391 . S
C2068 C2070 1.394 . S
C2068 H2084 0.931 . S
C2069 C2068 1.391 . S
C2069 C2073 1.376 . S
C2070 C2068 1.394 . S
C2070 C2071 1.369 . S
C2070 C2074 1.531 . S
C2071 C2070 1.369 . S
C2071 C2072 1.410 . S
C2071 C2079 1.503 . S
C2072 C2071 1.410 . S
C2072 C2073 1.392 . S
C2072 C2075 1.511 . S
C2073 C2069 1.376 . S
C2073 C2072 1.392 . S
C2073 H2085 0.929 . S
C2074 C2070 1.531 . S
C2074 H2086 0.960 . S
C2074 H2087 0.962 . S
C2074 H2088 0.960 . S
C2075 C2072 1.511 . S
C2075 H2089 0.961 . S
C2075 H2090 0.961 . S
C2075 H2091 0.961 . S
C2076 C2077 1.370 . S
C2076 C2078 1.363 . S
C2076 H2092 0.931 . S
C2077 C2076 1.370 . S
C2077 C2081 1.408 . S
C2078 C2076 1.363 . S
C2078 C2079 1.370 . S
C2078 C2082 1.524 . S
C2079 C2071 1.503 . S
C2079 C2078 1.370 . S
C2079 C2080 1.403 . S
C2080 C2079 1.403 . S
C2080 C2081 1.404 . S
C2080 C2083 1.539 . S
C2081 C2077 1.408 . S
C2081 C2080 1.404 . S
C2081 H2093 0.930 . S
C2082 C2078 1.524 . S
C2082 H2094 0.956 . S
C2082 H2095 0.961 . S
C2082 H2096 0.961 . S
C2083 C2080 1.539 . S
C2083 H2097 0.958 . S
C2083 H2098 0.961 . S
C2083 H2099 0.960 . S
H2084 C2068 0.931 . S
H2085 C2073 0.929 . S
H2086 C2074 0.960 . S
H2087 C2074 0.962 . S
H2088 C2074 0.960 . S
H2089 C2075 0.961 . S
H2090 C2075 0.961 . S
H2091 C2075 0.961 . S
H2092 C2076 0.931 . S
H2093 C2081 0.930 . S
H2094 C2082 0.956 . S
H2095 C2082 0.961 . S
H2096 C2082 0.961 . S
H2097 C2083 0.958 . S
H2098 C2083 0.961 . S
H2099 C2083 0.960 . S
C2100 C2101 1.391 . S
C2100 C2102 1.394 . S
C2100 H2116 0.931 . S
C2101 C2100 1.391 . S
C2101 C2105 1.376 . S
C2102 C2100 1.394 . S
C2102 C2103 1.369 . S
C2102 C2106 1.531 . S
C2103 C2102 1.369 . S
C2103 C2104 1.410 . S
C2103 C2111 1.503 . S
C2104 C2103 1.410 . S
C2104 C2105 1.392 . S
C2104 C2107 1.511 . S
C2105 C2101 1.376 . S
C2105 C2104 1.392 . S
C2105 H2117 0.929 . S
C2106 C2102 1.531 . S
C2106 H2118 0.960 . S
C2106 H2119 0.962 . S
C2106 H2120 0.960 . S
C2107 C2104 1.511 . S
C2107 H2121 0.961 . S
C2107 H2122 0.961 . S
C2107 H2123 0.961 . S
C2108 C2109 1.370 . S
C2108 C2110 1.363 . S
C2108 H2124 0.931 . S
C2109 C2108 1.370 . S
C2109 C2113 1.408 . S
C2110 C2108 1.363 . S
C2110 C2111 1.370 . S
C2110 C2114 1.524 . S
C2111 C2103 1.503 . S
C2111 C2110 1.370 . S
C2111 C2112 1.403 . S
C2112 C2111 1.403 . S
C2112 C2113 1.404 . S
C2112 C2115 1.539 . S
C2113 C2109 1.408 . S
C2113 C2112 1.404 . S
C2113 H2125 0.930 . S
C2114 C2110 1.524 . S
C2114 H2126 0.956 . S
C2114 H2127 0.961 . S
C2114 H2128 0.961 . S
C2115 C2112 1.539 . S
C2115 H2129 0.958 . S
C2115 H2130 0.961 . S
C2115 H2131 0.960 . S
H2116 C2100 0.931 . S
H2117 C2105 0.929 . S
H2118 C2106 0.960 . S
H2119 C2106 0.962 . S
H2120 C2106 0.960 . S
H2121 C2107 0.961 . S
H2122 C2107 0.961 . S
H2123 C2107 0.961 . S
H2124 C2108 0.931 . S
H2125 C2113 0.930 . S
H2126 C2114 0.956 . S
H2127 C2114 0.961 . S
H2128 C2114 0.961 . S
H2129 C2115 0.958 . S
H2130 C2115 0.961 . S
H2131 C2115 0.960 . S
C605 C282 1.345 . S
C597 N2 1.318 . S
C637 C325 2.637 . S
C629 C7 2.651 . S
C669 C371 1.727 . S
C661 N12 1.637 . S
C693 C16 1.836 . S
C701 C414 1.881 . S
C733 C454 2.741 . S
C725 C30 2.732 1_565 S
C765 C482 1.507 . S
C757 N35 1.416 . S
C789 C39 2.073 . S
C797 C525 2.006 . S
C829 C571 1.202 . S
C821 N25 1.146 1_565 S
C861 C286 1.220 . S
C853 N58 1.224 . S
C885 N81 1.971 . S
C893 C335 1.932 . S
C925 C365 1.420 . S
C917 N104 1.440 . S
C949 N127 1.265 . S
C957 C402 1.194 . S
C989 C442 0.866 . S
C981 N48 0.893 . S
C1021 C486 1.547 . S
C1013 N71 1.525 1_556 S
C1045 N94 1.342 . S
C1053 C535 1.299 . S
C1085 C565 1.924 . S
C1077 N117 1.932 . S
C1109 C85 2.537 . S
C1117 C294 2.465 . S
C1141 C122 2.438 . S
C1149 C446 2.406 . S
C1173 C53 2.118 . S
C1181 C494 2.011 . S
C1213 C531 1.385 . S
C1205 C76 1.435 1_655 S
C1245 C575 1.855 . S
C1237 C99 1.867 . S
C1277 C375 1.996 . S
C1269 C131 1.971 . S
C1309 C406 1.691 . S
C1301 C62 1.725 1_565 S
C1333 C108 1.151 . S
C1341 C331 1.123 . S
C1373 C562 1.407 . S
C1365 N140 1.415 . S
C1397 C145 2.648 . S
C1405 C445 2.629 . S
C1437 C491 1.622 . S
C1429 N150 1.470 . S
C1461 C154 1.840 . S
C1469 C534 1.904 . S
C1501 C334 2.736 . S
C1493 C168 2.755 . S
C1525 N173 1.370 . S
C1533 C362 1.364 . S
C1565 C405 2.020 . S
C1557 C177 2.057 . S
C1597 C291 1.279 . S
C1589 N163 1.148 . S
C1629 C566 1.692 . S
C1621 C200 1.659 . S
C1661 C455 2.229 . S
C1653 N219 2.248 . S
C1685 N242 1.698 . S
C1693 C485 1.670 . S
C1725 C522 1.432 . S
C1717 C269 1.503 . S
C1757 C322 1.147 . S
C1749 C191 1.224 . S
C1781 N209 1.746 . S
C1789 C366 1.819 . S
C1813 N232 1.644 . S
C1821 C415 1.605 . S
C1845 C260 2.500 . S
C1853 C285 2.435 . S
C1877 C223 2.253 . S
C1885 C574 2.175 . S
C1909 N255 1.970 . S
C1917 C326 1.989 . S
C1941 N186 1.575 . S
C1949 C374 1.579 . S
C1981 C411 1.126 . S
C1973 C214 1.121 . S
C2013 C295 1.546 . S
C2005 C237 1.526 . S
C2045 C495 1.589 . S
C2037 N265 1.464 . S
C2077 C526 1.333 . S
C2069 N196 1.344 . S
C2109 C451 0.842 . S
C2101 C246 0.844 . S
