# Generated by pormake.
# Topology anh, (6,3)-cn, num edge types: 1
# Building blocks:
#     Node 0, Type 0, BuildingBlock: BETGAK_clean_sbu_0, # of connection points: 6
#     Node 1, Type 0, BuildingBlock: BETGAK_clean_sbu_0, # of connection points: 6
#     Node 2, Type 0, BuildingBlock: BETGAK_clean_sbu_0, # of connection points: 6
#     Node 3, Type 1, BuildingBlock: OLANEW_clean_sbu_2, # of connection points: 3
#     Node 4, Type 1, BuildingBlock: OLANEW_clean_sbu_2, # of connection points: 3
#     Node 5, Type 1, BuildingBlock: OLANEW_clean_sbu_2, # of connection points: 3
#     Node 6, Type 1, BuildingBlock: OLANEW_clean_sbu_2, # of connection points: 3
#     Node 7, Type 1, BuildingBlock: OLANEW_clean_sbu_2, # of connection points: 3
#     Node 8, Type 1, BuildingBlock: OLANEW_clean_sbu_2, # of connection points: 3
#     Edge 9, Type (0, 1), BuildingBlock: OJICUG_clean_linker_0, # of connection points: 2
#     Edge 10, Type (0, 1), BuildingBlock: OJICUG_clean_linker_0, # of connection points: 2
#     Edge 11, Type (0, 1), BuildingBlock: OJICUG_clean_linker_0, # of connection points: 2
#     Edge 12, Type (0, 1), BuildingBlock: OJICUG_clean_linker_0, # of connection points: 2
#     Edge 13, Type (0, 1), BuildingBlock: OJICUG_clean_linker_0, # of connection points: 2
#     Edge 14, Type (0, 1), BuildingBlock: OJICUG_clean_linker_0, # of connection points: 2
#     Edge 15, Type (0, 1), BuildingBlock: OJICUG_clean_linker_0, # of connection points: 2
#     Edge 16, Type (0, 1), BuildingBlock: OJICUG_clean_linker_0, # of connection points: 2
#     Edge 17, Type (0, 1), BuildingBlock: OJICUG_clean_linker_0, # of connection points: 2
#     Edge 18, Type (0, 1), BuildingBlock: OJICUG_clean_linker_0, # of connection points: 2
#     Edge 19, Type (0, 1), BuildingBlock: OJICUG_clean_linker_0, # of connection points: 2
#     Edge 20, Type (0, 1), BuildingBlock: OJICUG_clean_linker_0, # of connection points: 2
#     Edge 21, Type (0, 1), BuildingBlock: OJICUG_clean_linker_0, # of connection points: 2
#     Edge 22, Type (0, 1), BuildingBlock: OJICUG_clean_linker_0, # of connection points: 2
#     Edge 23, Type (0, 1), BuildingBlock: OJICUG_clean_linker_0, # of connection points: 2
#     Edge 24, Type (0, 1), BuildingBlock: OJICUG_clean_linker_0, # of connection points: 2
#     Edge 25, Type (0, 1), BuildingBlock: OJICUG_clean_linker_0, # of connection points: 2
#     Edge 26, Type (0, 1), BuildingBlock: OJICUG_clean_linker_0, # of connection points: 2
# Relax obj value: 0.199
# Max RMSD: 0.192
# Mean RMSD: 0.124
data_MOF--net-anh--node1-BETGAK_clean_sbu_0--node2-OLANEW_clean_sbu_2--edge1-OJICUG_clean_linker_0
_symmetry_space_group_name_H-M    P1
_symmetry_Int_Tables_number       1
_symmetry_cell_setting            triclinic
loop_
_symmetry_equiv_pos_as_xyz
'x, y, z'
_cell_length_a     28.781754
_cell_length_b     32.841068
_cell_length_c     37.215702
_cell_angle_alpha  92.206047
_cell_angle_beta   89.357132
_cell_angle_gamma 132.1166
loop_
_atom_site_label
_atom_site_type_symbol
_atom_site_fract_x
_atom_site_fract_y
_atom_site_fract_z
_atom_type_partial_charge
La0 La 0.06754 0.50007 0.13123 0.0
La1 La 0.99528 0.53271 0.15252 0.0
C2 C 0.13622 0.48743 0.10156 0.0
C3 C 0.19922 0.50948 0.1099 0.0
C4 C 0.21227 0.47573 0.10386 0.0
C5 C 0.26838 0.49241 0.11656 0.0
C6 C 0.31237 0.54325 0.13536 0.0
C7 C 0.30024 0.57794 0.1403 0.0
C8 C 0.24364 0.56088 0.12797 0.0
C9 C 0.05667 0.50653 0.20102 0.0
C10 C 0.13811 0.62812 0.14173 0.0
C11 C 0.92816 0.54353 0.18677 0.0
C12 C 0.8615 0.50895 0.19492 0.0
C13 C 0.81499 0.47491 0.16821 0.0
C14 C 0.75264 0.44755 0.17541 0.0
C15 C 0.73556 0.45325 0.20958 0.0
C16 C 0.78177 0.48395 0.237 0.0
C17 C 0.84429 0.51184 0.22963 0.0
C18 C 1.00755 0.52626 0.08255 0.0
C19 C 0.92418 0.4058 0.14181 0.0
O20 O 0.09489 0.45513 0.12571 0.0
O21 O 0.13167 0.52219 0.09082 0.0
O22 O 0.06096 0.47338 0.18547 0.0
O23 O 0.06494 0.53794 0.17822 0.0
O24 O 0.13965 0.59083 0.12856 0.0
O25 O 0.08741 0.61379 0.15671 0.0
O26 O 0.94387 0.55676 0.15323 0.0
O27 O 0.95697 0.53008 0.20167 0.0
O28 O 1.0041 0.56038 0.09771 0.0
O29 O 0.99868 0.49513 0.10577 0.0
O30 O 0.92494 0.44318 0.15734 0.0
O31 O 0.97283 0.4203 0.12368 0.0
H32 H 0.17815 0.43569 0.09034 0.0
H33 H 0.27718 0.46532 0.11201 0.0
H34 H 0.33347 0.61724 0.15479 0.0
H35 H 0.23376 0.58699 0.13354 0.0
H36 H 0.8271 0.4713 0.14134 0.0
H37 H 0.71868 0.42484 0.15347 0.0
H38 H 0.77008 0.48835 0.26377 0.0
H39 H 0.87954 0.53722 0.25074 0.0
La40 La 0.59093 0.01898 0.48829 0.0
La41 La 0.5192 0.05348 0.48055 0.0
C42 C 0.63318 0.9761 0.50758 0.0
C43 C 0.61041 0.9215 0.51412 0.0
C44 C 0.6526 0.91369 0.51205 0.0
C45 C 0.63291 0.8627 0.51902 0.0
C46 C 0.57045 0.81841 0.52812 0.0
C47 C 0.52796 0.82625 0.5296 0.0
C48 C 0.54781 0.87742 0.52269 0.0
C49 C 0.58782 0.04484 0.42276 0.0
C50 C 0.44268 0.92909 0.4735 0.0
C51 C 0.48 0.10002 0.4643 0.0
C52 C 0.49917 0.15319 0.47464 0.0
C53 C 0.54581 0.18795 0.50118 0.0
C54 C 0.56193 0.23736 0.51205 0.0
C55 C 0.53161 0.2529 0.49662 0.0
C56 C 0.48547 0.21812 0.46964 0.0
C57 C 0.46942 0.1687 0.45877 0.0
C58 C 0.52463 0.02892 0.54606 0.0
C59 C 0.66895 0.14453 0.49149 0.0
O60 O 0.63075 0.98566 0.4742 0.0
O61 O 0.61536 0.99485 0.53003 0.0
O62 O 0.63577 0.05529 0.43719 0.0
O63 O 0.54291 0.01839 0.44421 0.0
O64 O 0.49217 0.9404 0.48831 0.0
O65 O 0.44632 0.96869 0.46201 0.0
O66 O 0.45727 0.06566 0.49017 0.0
O67 O 0.51968 0.10199 0.44496 0.0
O68 O 0.47634 0.01857 0.53256 0.0
O69 O 0.56843 0.05519 0.5241 0.0
O70 O 0.61669 0.13263 0.48191 0.0
O71 O 0.66904 0.10581 0.49967 0.0
H72 H 0.70113 0.94734 0.50551 0.0
H73 H 0.66712 0.85846 0.5182 0.0
H74 H 0.47939 0.79288 0.53616 0.0
H75 H 0.51453 0.88269 0.52439 0.0
H76 H 0.56904 0.17645 0.51389 0.0
H77 H 0.59706 0.2627 0.53319 0.0
H78 H 0.46181 0.22914 0.45683 0.0
H79 H 0.43336 0.14236 0.4382 0.0
La80 La 0.60613 0.58263 0.86806 0.0
La81 La 0.51706 0.46248 0.88081 0.0
C82 C 0.65839 0.67485 0.84324 0.0
C83 C 0.64001 0.70609 0.83513 0.0
C84 C 0.68087 0.76226 0.8448 0.0
C85 C 0.66457 0.79287 0.83779 0.0
C86 C 0.60701 0.768 0.82074 0.0
C87 C 0.566 0.71148 0.81116 0.0
C88 C 0.58225 0.68081 0.81836 0.0
C89 C 0.59634 0.55728 0.93547 0.0
C90 C 0.45999 0.51587 0.87988 0.0
C91 C 0.46679 0.36841 0.90045 0.0
C92 C 0.47589 0.3312 0.887 0.0
C93 C 0.47363 0.32018 0.84987 0.0
C94 C 0.48836 0.28971 0.83683 0.0
C95 C 0.50644 0.26989 0.86047 0.0
C96 C 0.50699 0.27951 0.89771 0.0
C97 C 0.49195 0.31002 0.91085 0.0
C98 C 0.52918 0.48733 0.81289 0.0
C99 C 0.66585 0.53189 0.87406 0.0
O100 O 0.66018 0.66741 0.87729 0.0
O101 O 0.63315 0.63051 0.82313 0.0
O102 O 0.64781 0.60014 0.92167 0.0
O103 O 0.55231 0.53304 0.91268 0.0
O104 O 0.51322 0.5577 0.86487 0.0
O105 O 0.45415 0.47624 0.8941 0.0
O106 O 0.44026 0.37746 0.87792 0.0
O107 O 0.51507 0.41378 0.91727 0.0
O108 O 0.47794 0.44445 0.82644 0.0
O109 O 0.57217 0.51178 0.83633 0.0
O110 O 0.60972 0.48667 0.88409 0.0
O111 O 0.67449 0.574 0.86218 0.0
H112 H 0.72545 0.78247 0.85799 0.0
H113 H 0.69686 0.83595 0.8462 0.0
H114 H 0.52162 0.69098 0.79766 0.0
H115 H 0.54968 0.63741 0.81074 0.0
H116 H 0.46183 0.33613 0.83067 0.0
H117 H 0.48625 0.28218 0.80805 0.0
H118 H 0.52106 0.26508 0.91661 0.0
H119 H 0.49452 0.31834 0.93955 0.0
O120 O 0.60546 0.06578 0.24859 0.0
Cd121 Cd 0.60802 0.06879 0.18293 0.0
O122 O 0.51026 0.98482 0.25465 0.0
Cd123 Cd 0.48482 0.95202 0.19896 0.0
O124 O 0.41345 0.87358 0.16908 0.0
C125 C 0.35892 0.85698 0.16766 0.0
O126 O 0.35097 0.88951 0.18109 0.0
C127 C 0.56064 0.02933 0.26845 0.0
C128 C 0.70813 0.1769 0.1635 0.0
O129 O 0.65433 0.16061 0.1705 0.0
O130 O 0.71439 0.14186 0.16498 0.0
O131 O 0.60809 0.54119 0.64497 0.0
Cd132 Cd 0.61753 0.54564 0.57947 0.0
O133 O 0.51461 0.51443 0.64283 0.0
Cd134 Cd 0.52493 0.54254 0.5887 0.0
O135 O 0.53616 0.60501 0.55938 0.0
C136 C 0.51118 0.62184 0.57396 0.0
O137 O 0.47929 0.59909 0.60347 0.0
C138 C 0.55837 0.52345 0.66065 0.0
C139 C 0.59031 0.45168 0.55005 0.0
O140 O 0.64648 0.4949 0.55927 0.0
O141 O 0.54713 0.45305 0.5544 0.0
O142 O 0.10528 0.51478 0.92967 0.0
Cd143 Cd 0.15355 0.50941 0.8755 0.0
O144 O 0.03942 0.52153 0.90745 0.0
Cd145 Cd 0.96197 0.52243 0.9088 0.0
O146 O 0.87889 0.51515 0.90341 0.0
C147 C 0.88197 0.55084 0.88781 0.0
O148 O 0.93595 0.59359 0.87487 0.0
C149 C 0.06425 0.51875 0.93439 0.0
C150 C 0.25478 0.51294 0.88334 0.0
O151 O 0.26444 0.5566 0.87872 0.0
O152 O 0.19767 0.46786 0.88573 0.0
O153 O 0.08212 0.57484 0.37123 0.0
Cd154 Cd 0.09445 0.59642 0.43606 0.0
O155 O 1.0117 0.48414 0.37258 0.0
Cd156 Cd 0.98535 0.46989 0.42911 0.0
O157 O 0.9049 0.40084 0.45879 0.0
C158 C 0.90382 0.36343 0.46829 0.0
O159 O 0.95371 0.36999 0.46315 0.0
C160 C 0.04829 0.5278 0.35511 0.0
C161 C 0.20787 0.70414 0.4509 0.0
O162 O 0.20487 0.66344 0.45162 0.0
O163 O 0.15735 0.69382 0.44364 0.0
O164 O 0.50423 0.96719 0.71369 0.0
Cd165 Cd 0.51205 0.961 0.77841 0.0
O166 O 0.58391 0.05671 0.71529 0.0
Cd167 Cd 0.57738 0.06802 0.77291 0.0
O168 O 0.55856 0.11001 0.8088 0.0
C169 C 0.57578 0.15377 0.7963 0.0
O170 O 0.60425 0.16972 0.76528 0.0
C171 C 0.54393 0.0116 0.69739 0.0
C172 C 0.54235 0.8977 0.79207 0.0
O173 O 0.48517 0.87592 0.79073 0.0
O174 O 0.58512 0.9493 0.78708 0.0
O175 O 0.50431 0.47922 0.09778 0.0
Cd176 Cd 0.45243 0.4405 0.15584 0.0
O177 O 0.607 0.54079 0.10818 0.0
Cd178 Cd 0.59769 0.54563 0.16557 0.0
O179 O 0.53162 0.55168 0.1854 0.0
C180 C 0.53627 0.58908 0.17175 0.0
O181 O 0.58556 0.62561 0.15247 0.0
C182 C 0.56029 0.51291 0.08635 0.0
C183 C 0.51703 0.41974 0.19339 0.0
O184 O 0.47789 0.3863 0.16817 0.0
O185 O 0.52177 0.4604 0.20243 0.0
C186 C 0.42902 0.61024 0.14243 0.0
C187 C 0.37032 0.55925 0.14995 0.0
H188 H 0.5284 0.66014 0.14392 0.0
C189 C 0.3672 0.52181 0.16952 0.0
H190 H 0.43247 0.63982 0.12749 0.0
C191 C 0.42181 0.53354 0.17929 0.0
C192 C 0.48053 0.58269 0.16923 0.0
H193 H 0.32233 0.4826 0.17618 0.0
H194 H 0.41765 0.50261 0.19281 0.0
C195 C 0.48379 0.6218 0.15187 0.0
C196 C 0.78637 0.21512 0.49503 0.0
C197 C 0.72927 0.20234 0.49082 0.0
H198 H 0.88622 0.27605 0.4915 0.0
C199 C 0.73061 0.24467 0.48294 0.0
H200 H 0.78718 0.18365 0.50123 0.0
C201 C 0.7876 0.29785 0.47749 0.0
C202 C 0.84447 0.3098 0.4796 0.0
H203 H 0.68756 0.23642 0.47975 0.0
H204 H 0.78678 0.32896 0.47013 0.0
C205 C 0.84328 0.2682 0.4894 0.0
C206 C 0.52803 0.77843 0.81639 0.0
C207 C 0.59008 0.80098 0.81302 0.0
H208 H 0.4643 0.79107 0.81244 0.0
C209 C 0.63604 0.85558 0.80243 0.0
H210 H 0.49151 0.73685 0.82499 0.0
C211 C 0.62055 0.8869 0.79573 0.0
C212 C 0.5586 0.86433 0.79915 0.0
H213 H 0.68407 0.87411 0.79889 0.0
H214 H 0.65717 0.92876 0.78763 0.0
C215 C 0.51245 0.80966 0.80941 0.0
C216 C 0.66738 0.46972 0.23288 0.0
C217 C 0.67268 0.43482 0.21448 0.0
H218 H 0.6127 0.49133 0.24137 0.0
C219 C 0.61979 0.38745 0.19592 0.0
H220 H 0.70697 0.50667 0.24741 0.0
C221 C 0.56565 0.37907 0.19201 0.0
C222 C 0.56349 0.41776 0.20683 0.0
H223 H 0.62174 0.35889 0.1823 0.0
H224 H 0.52764 0.34474 0.17503 0.0
C225 C 0.61317 0.46109 0.22923 0.0
C226 C 0.32821 0.85983 0.45763 0.0
C227 C 0.38276 0.87129 0.46843 0.0
H228 H 0.2306 0.79851 0.44394 0.0
C229 C 0.37915 0.82714 0.47402 0.0
H230 H 0.32911 0.89277 0.45323 0.0
C231 C 0.32238 0.77278 0.46849 0.0
C232 C 0.26794 0.76147 0.45755 0.0
H233 H 0.42027 0.83447 0.48225 0.0
H234 H 0.32121 0.73966 0.47273 0.0
C235 C 0.27154 0.80567 0.45239 0.0
C236 C 0.56439 0.26082 0.81521 0.0
C237 C 0.52675 0.24123 0.84578 0.0
H238 H 0.60944 0.249 0.77598 0.0
C239 C 0.50799 0.19389 0.86134 0.0
H240 H 0.58088 0.29783 0.80299 0.0
C241 C 0.52485 0.16582 0.84587 0.0
C242 C 0.56096 0.18471 0.81463 0.0
H243 H 0.47884 0.17768 0.88485 0.0
H244 H 0.50857 0.12881 0.85795 0.0
C245 C 0.58115 0.23293 0.79983 0.0
C246 C 0.57377 0.74402 0.51892 0.0
C247 C 0.55086 0.76528 0.53772 0.0
H248 H 0.57896 0.68188 0.51537 0.0
C249 C 0.51169 0.73689 0.56708 0.0
H250 H 0.60328 0.76441 0.49583 0.0
C251 C 0.49742 0.68944 0.57809 0.0
C252 C 0.52204 0.66925 0.56007 0.0
H253 H 0.4938 0.75237 0.58244 0.0
H254 H 0.46832 0.66944 0.60137 0.0
C255 C 0.55954 0.69653 0.52998 0.0
C256 C 0.71429 0.49343 0.89175 0.0
C257 C 0.72042 0.53553 0.87666 0.0
H258 H 0.75987 0.46504 0.9073 0.0
C259 C 0.77992 0.58211 0.86507 0.0
H260 H 0.66933 0.45692 0.90107 0.0
C261 C 0.83175 0.58667 0.86861 0.0
C262 C 0.82592 0.54493 0.884 0.0
H263 H 0.78676 0.61544 0.85336 0.0
H264 H 0.87668 0.62335 0.85942 0.0
C265 C 0.76635 0.49811 0.89543 0.0
C266 C 0.25558 0.70538 0.14021 0.0
C267 C 0.19554 0.68733 0.14327 0.0
H268 H 0.35484 0.77347 0.14554 0.0
C269 C 0.1904 0.72647 0.15066 0.0
H270 H 0.26115 0.67633 0.13443 0.0
C271 C 0.24368 0.7818 0.1568 0.0
C272 C 0.30369 0.79961 0.15589 0.0
H273 H 0.14493 0.71419 0.15271 0.0
H274 H 0.23753 0.8103 0.16351 0.0
C275 C 0.30923 0.76105 0.1466 0.0
C276 C 0.60926 0.35257 0.51752 0.0
C277 C 0.54701 0.30445 0.50926 0.0
H278 H 0.67179 0.43668 0.53667 0.0
C279 C 0.49934 0.30563 0.51389 0.0
H280 H 0.64724 0.35337 0.51383 0.0
C281 C 0.51346 0.35352 0.52677 0.0
C282 C 0.57561 0.40141 0.53538 0.0
H283 H 0.4508 0.26916 0.50829 0.0
H284 H 0.47549 0.35275 0.53036 0.0
C285 C 0.62338 0.40046 0.53043 0.0
C286 C 0.4175 0.56196 0.87334 0.0
C287 C 0.40761 0.51529 0.88198 0.0
H288 H 0.37792 0.59814 0.86745 0.0
C289 C 0.34719 0.46827 0.89222 0.0
H290 H 0.46333 0.59908 0.86551 0.0
C291 C 0.29783 0.46763 0.8931 0.0
C292 C 0.30771 0.51422 0.88419 0.0
H293 H 0.3377 0.43156 0.89905 0.0
H294 H 0.25178 0.43044 0.90058 0.0
C295 C 0.36841 0.56153 0.87462 0.0
C296 C 0.87018 0.30618 0.13702 0.0
C297 C 0.86753 0.34685 0.14461 0.0
H298 H 0.82208 0.22065 0.13725 0.0
C299 C 0.81106 0.3308 0.15676 0.0
H300 H 0.91304 0.3172 0.12775 0.0
C301 C 0.75877 0.27544 0.16186 0.0
C302 C 0.76202 0.23495 0.15541 0.0
H303 H 0.80735 0.36107 0.16274 0.0
H304 H 0.71629 0.26459 0.17177 0.0
C305 C 0.81811 0.25087 0.14259 0.0
C306 C 1.02722 0.48719 0.03248 0.0
C307 C 1.01859 0.52287 0.04411 0.0
H308 H 0.04915 0.45861 0.98877 0.0
C309 C 1.02167 0.55536 0.01888 0.0
H310 H 1.0242 0.46106 0.05117 0.0
C311 C 0.03424 0.55276 0.98272 0.0
C312 C 0.04513 0.51845 0.9715 0.0
H313 H 1.01494 0.58306 0.02714 0.0
H314 H 0.03767 0.57896 0.96388 0.0
C315 C 0.04126 0.48562 0.99672 0.0
C316 C 0.6338 0.078 0.36211 0.0
C317 C 0.58068 0.04556 0.3837 0.0
H318 H 0.66916 0.09897 0.30864 0.0
C319 C 0.52092 0.01071 0.36731 0.0
H320 H 0.6804 0.10534 0.37418 0.0
C321 C 0.51444 1.0063 0.32984 0.0
C322 C 0.5676 0.03744 0.30809 0.0
H323 H 0.47919 0.98524 0.38336 0.0
H324 H 0.46776 0.97784 0.3179 0.0
C325 C 0.62733 0.07438 0.32464 0.0
C326 C 0.59745 0.53184 0.75924 0.0
C327 C 0.53766 0.49807 0.77427 0.0
H328 H 0.65088 0.56559 0.71117 0.0
C329 C 0.48505 0.47285 0.75187 0.0
H330 H 0.63872 0.5516 0.77603 0.0
C331 C 0.49193 0.48127 0.71501 0.0
C332 C 0.55154 0.51436 0.6997 0.0
H333 H 0.43845 0.44668 0.76289 0.0
H334 H 0.45039 0.46136 0.69845 0.0
C335 C 0.60429 0.53951 0.72217 0.0
C336 C 0.5895 0.05666 0.60153 0.0
C337 C 0.53085 0.02115 0.58382 0.0
H338 H 0.63951 0.08194 0.65181 0.0
C339 C 0.47742 0.97973 0.60299 0.0
H340 H 0.63137 0.08891 0.58723 0.0
C341 C 0.48227 0.97471 0.6396 0.0
C342 C 0.5404 0.01207 0.65785 0.0
H343 H 0.43175 0.95168 0.58976 0.0
H344 H 0.44007 0.94319 0.65395 0.0
C345 C 0.59411 0.0527 0.63839 0.0
C346 C 0.63951 0.57528 0.99769 0.0
C347 C 0.5882 0.54368 0.97355 0.0
H348 H 0.67113 0.59013 0.05239 0.0
C349 C 0.52842 0.49987 0.98627 0.0
H350 H 0.68615 0.60911 0.98844 0.0
C351 C 0.51968 0.48899 0.02279 0.0
C352 C 0.57064 0.52158 0.0473 0.0
H353 H 0.48812 0.47464 0.96812 0.0
H354 H 0.47273 0.45558 0.03185 0.0
C355 C 0.63086 0.56429 0.03426 0.0
C356 C 0.07264 0.56098 0.25631 0.0
C357 C 0.05391 0.51244 0.24021 0.0
H358 H 0.08671 0.60443 0.30561 0.0
C359 C 0.03347 0.46933 0.26195 0.0
H360 H 0.08873 0.59485 0.24002 0.0
C361 C 1.03142 0.4744 0.29921 0.0
C362 C 0.05093 0.52314 0.31557 0.0
H363 H 1.01867 0.43145 0.25012 0.0
H364 H 1.0152 0.44027 0.31524 0.0
C365 C 0.0718 0.56653 0.29377 0.0
loop_
_geom_bond_atom_site_label_1
_geom_bond_atom_site_label_2
_geom_bond_distance
_geom_bond_site_symmetry_2
_ccdc_geom_bond_type
La0 C2 2.928 . S
La0 O20 2.521 . S
La0 O21 2.628 . S
La0 O22 2.554 . S
La0 O23 2.757 . S
La0 O24 2.470 . S
La0 O29 2.482 . S
La0 O31 2.503 1_455 S
La1 C11 2.928 . S
La1 O23 2.482 1_655 S
La1 O25 2.503 1_655 S
La1 O26 2.521 . S
La1 O27 2.628 . S
La1 O28 2.554 . S
La1 O29 2.757 1_655 S
La1 O30 2.470 . S
C2 La0 2.928 . S
C2 C3 1.503 . S
C2 O20 1.261 . S
C2 O21 1.243 . S
C3 C2 1.503 . S
C3 C4 1.394 . S
C3 C8 1.373 . S
C4 C3 1.394 . S
C4 C5 1.380 . S
C4 H32 0.930 . S
C5 C4 1.380 . S
C5 C6 1.376 . S
C5 H33 0.930 . S
C6 C5 1.376 . S
C6 C7 1.370 . S
C7 C6 1.370 . S
C7 C8 1.396 . S
C7 H34 0.929 . S
C8 C3 1.373 . S
C8 C7 1.396 . S
C8 H35 0.929 . S
C9 O22 1.240 . S
C9 O23 1.289 . S
C10 O24 1.258 . S
C10 O25 1.256 . S
C11 La1 2.928 . S
C11 C12 1.503 . S
C11 O26 1.261 . S
C11 O27 1.243 . S
C12 C11 1.503 . S
C12 C13 1.394 . S
C12 C17 1.373 . S
C13 C12 1.394 . S
C13 C14 1.380 . S
C13 H36 0.930 . S
C14 C13 1.380 . S
C14 C15 1.376 . S
C14 H37 0.930 . S
C15 C14 1.376 . S
C15 C16 1.370 . S
C16 C15 1.370 . S
C16 C17 1.396 . S
C16 H38 0.929 . S
C17 C12 1.373 . S
C17 C16 1.396 . S
C17 H39 0.929 . S
C18 O28 1.240 1_455 S
C18 O29 1.289 . S
C19 O30 1.258 . S
C19 O31 1.256 . S
O20 La0 2.521 . S
O20 C2 1.261 . S
O21 La0 2.628 . S
O21 C2 1.243 . S
O22 La0 2.554 . S
O22 C9 1.240 . S
O23 La0 2.757 . S
O23 La1 2.482 1_455 S
O23 C9 1.289 . S
O24 La0 2.470 . S
O24 C10 1.258 . S
O25 La1 2.503 1_455 S
O25 C10 1.256 . S
O26 La1 2.521 . S
O26 C11 1.261 . S
O27 La1 2.628 . S
O27 C11 1.243 . S
O28 La1 2.554 . S
O28 C18 1.240 1_655 S
O29 La0 2.482 . S
O29 La1 2.757 1_455 S
O29 C18 1.289 . S
O30 La1 2.470 . S
O30 C19 1.258 . S
O31 La0 2.503 1_655 S
O31 C19 1.256 . S
H32 C4 0.930 . S
H33 C5 0.930 . S
H34 C7 0.929 . S
H35 C8 0.929 . S
H36 C13 0.930 . S
H37 C14 0.930 . S
H38 C16 0.929 . S
H39 C17 0.929 . S
La40 C42 2.928 . S
La40 O60 2.521 . S
La40 O61 2.628 . S
La40 O62 2.554 . S
La40 O63 2.757 1_565 S
La40 O64 2.470 . S
La40 O69 2.482 . S
La40 O71 2.503 1_565 S
La41 C51 2.928 . S
La41 O63 2.482 . S
La41 O65 2.503 1_545 S
La41 O66 2.521 . S
La41 O67 2.628 . S
La41 O68 2.554 . S
La41 O69 2.757 1_545 S
La41 O70 2.470 . S
C42 La40 2.928 . S
C42 C43 1.503 . S
C42 O60 1.261 . S
C42 O61 1.243 . S
C43 C42 1.503 . S
C43 C44 1.394 . S
C43 C48 1.373 . S
C44 C43 1.394 . S
C44 C45 1.380 . S
C44 H72 0.930 . S
C45 C44 1.380 . S
C45 C46 1.376 . S
C45 H73 0.930 . S
C46 C45 1.376 . S
C46 C47 1.370 . S
C47 C46 1.370 . S
C47 C48 1.396 . S
C47 H74 0.929 . S
C48 C43 1.373 . S
C48 C47 1.396 . S
C48 H75 0.929 . S
C49 O62 1.240 1_545 S
C49 O63 1.289 . S
C50 O64 1.258 . S
C50 O65 1.256 . S
C51 La41 2.928 . S
C51 C52 1.503 . S
C51 O66 1.261 . S
C51 O67 1.243 . S
C52 C51 1.503 . S
C52 C53 1.394 . S
C52 C57 1.373 . S
C53 C52 1.394 . S
C53 C54 1.380 . S
C53 H76 0.930 . S
C54 C53 1.380 . S
C54 C55 1.376 . S
C54 H77 0.930 . S
C55 C54 1.376 . S
C55 C56 1.370 . S
C56 C55 1.370 . S
C56 C57 1.396 . S
C56 H78 0.929 . S
C57 C52 1.373 . S
C57 C56 1.396 . S
C57 H79 0.929 . S
C58 O68 1.240 . S
C58 O69 1.289 1_545 S
C59 O70 1.258 . S
C59 O71 1.256 . S
O60 La40 2.521 . S
O60 C42 1.261 . S
O61 La40 2.628 . S
O61 C42 1.243 . S
O62 La40 2.554 . S
O62 C49 1.240 1_565 S
O63 La40 2.757 1_545 S
O63 La41 2.482 . S
O63 C49 1.289 . S
O64 La40 2.470 . S
O64 C50 1.258 . S
O65 La41 2.503 1_565 S
O65 C50 1.256 . S
O66 La41 2.521 . S
O66 C51 1.261 . S
O67 La41 2.628 . S
O67 C51 1.243 . S
O68 La41 2.554 . S
O68 C58 1.240 . S
O69 La40 2.482 . S
O69 La41 2.757 1_565 S
O69 C58 1.289 1_565 S
O70 La41 2.470 . S
O70 C59 1.258 . S
O71 La40 2.503 1_545 S
O71 C59 1.256 . S
H72 C44 0.930 . S
H73 C45 0.930 . S
H74 C47 0.929 . S
H75 C48 0.929 . S
H76 C53 0.930 . S
H77 C54 0.930 . S
H78 C56 0.929 . S
H79 C57 0.929 . S
La80 C82 2.928 . S
La80 O100 2.521 . S
La80 O101 2.628 . S
La80 O102 2.554 . S
La80 O103 2.757 . S
La80 O104 2.470 . S
La80 O109 2.482 . S
La80 O111 2.503 . S
La81 C91 2.928 . S
La81 O103 2.482 . S
La81 O105 2.503 . S
La81 O106 2.521 . S
La81 O107 2.628 . S
La81 O108 2.554 . S
La81 O109 2.757 . S
La81 O110 2.470 . S
C82 La80 2.928 . S
C82 C83 1.503 . S
C82 O100 1.261 . S
C82 O101 1.243 . S
C83 C82 1.503 . S
C83 C84 1.394 . S
C83 C88 1.373 . S
C84 C83 1.394 . S
C84 C85 1.380 . S
C84 H112 0.930 . S
C85 C84 1.380 . S
C85 C86 1.376 . S
C85 H113 0.930 . S
C86 C85 1.376 . S
C86 C87 1.370 . S
C87 C86 1.370 . S
C87 C88 1.396 . S
C87 H114 0.929 . S
C88 C83 1.373 . S
C88 C87 1.396 . S
C88 H115 0.929 . S
C89 O102 1.240 . S
C89 O103 1.289 . S
C90 O104 1.258 . S
C90 O105 1.256 . S
C91 La81 2.928 . S
C91 C92 1.503 . S
C91 O106 1.261 . S
C91 O107 1.243 . S
C92 C91 1.503 . S
C92 C93 1.394 . S
C92 C97 1.373 . S
C93 C92 1.394 . S
C93 C94 1.380 . S
C93 H116 0.930 . S
C94 C93 1.380 . S
C94 C95 1.376 . S
C94 H117 0.930 . S
C95 C94 1.376 . S
C95 C96 1.370 . S
C96 C95 1.370 . S
C96 C97 1.396 . S
C96 H118 0.929 . S
C97 C92 1.373 . S
C97 C96 1.396 . S
C97 H119 0.929 . S
C98 O108 1.240 . S
C98 O109 1.289 . S
C99 O110 1.258 . S
C99 O111 1.256 . S
O100 La80 2.521 . S
O100 C82 1.261 . S
O101 La80 2.628 . S
O101 C82 1.243 . S
O102 La80 2.554 . S
O102 C89 1.240 . S
O103 La80 2.757 . S
O103 La81 2.482 . S
O103 C89 1.289 . S
O104 La80 2.470 . S
O104 C90 1.258 . S
O105 La81 2.503 . S
O105 C90 1.256 . S
O106 La81 2.521 . S
O106 C91 1.261 . S
O107 La81 2.628 . S
O107 C91 1.243 . S
O108 La81 2.554 . S
O108 C98 1.240 . S
O109 La80 2.482 . S
O109 La81 2.757 . S
O109 C98 1.289 . S
O110 La81 2.470 . S
O110 C99 1.258 . S
O111 La80 2.503 . S
O111 C99 1.256 . S
H112 C84 0.930 . S
H113 C85 0.930 . S
H114 C87 0.929 . S
H115 C88 0.929 . S
H116 C93 0.930 . S
H117 C94 0.930 . S
H118 C96 0.929 . S
H119 C97 0.929 . S
O120 Cd121 2.300 . S
O120 C127 1.275 . S
Cd121 O120 2.300 . S
Cd121 O129 2.381 . S
Cd121 O130 2.378 . S
O122 Cd123 2.385 . S
O122 C127 1.255 1_565 S
Cd123 O122 2.385 . S
Cd123 O124 2.317 . S
O124 Cd123 2.317 . S
O124 C125 1.232 . S
C125 O124 1.232 . S
C125 O126 1.218 . S
O126 C125 1.218 . S
C127 O120 1.275 . S
C127 O122 1.255 1_545 S
C128 O129 1.258 . S
C128 O130 1.256 . S
O129 Cd121 2.381 . S
O129 C128 1.258 . S
O130 Cd121 2.378 . S
O130 C128 1.256 . S
O131 Cd132 2.300 . S
O131 C138 1.275 . S
Cd132 O131 2.300 . S
Cd132 O140 2.381 . S
Cd132 O141 2.378 . S
O133 Cd134 2.385 . S
O133 C138 1.255 . S
Cd134 O133 2.385 . S
Cd134 O135 2.317 . S
O135 Cd134 2.317 . S
O135 C136 1.232 . S
C136 O135 1.232 . S
C136 O137 1.218 . S
O137 C136 1.218 . S
C138 O131 1.275 . S
C138 O133 1.255 . S
C139 O140 1.258 . S
C139 O141 1.256 . S
O140 Cd132 2.381 . S
O140 C139 1.258 . S
O141 Cd132 2.378 . S
O141 C139 1.256 . S
O142 Cd143 2.300 . S
O142 C149 1.275 . S
Cd143 O142 2.300 . S
Cd143 O151 2.381 . S
Cd143 O152 2.378 . S
O144 Cd145 2.385 . S
O144 C149 1.255 1_655 S
Cd145 O144 2.385 . S
Cd145 O146 2.317 . S
O146 Cd145 2.317 . S
O146 C147 1.232 . S
C147 O146 1.232 . S
C147 O148 1.218 . S
O148 C147 1.218 . S
C149 O142 1.275 . S
C149 O144 1.255 1_455 S
C150 O151 1.258 . S
C150 O152 1.256 . S
O151 Cd143 2.381 . S
O151 C150 1.258 . S
O152 Cd143 2.378 . S
O152 C150 1.256 . S
O153 Cd154 2.300 . S
O153 C160 1.275 1_455 S
Cd154 O153 2.300 . S
Cd154 O162 2.381 . S
Cd154 O163 2.378 . S
O155 Cd156 2.385 . S
O155 C160 1.255 . S
Cd156 O155 2.385 . S
Cd156 O157 2.317 . S
O157 Cd156 2.317 . S
O157 C158 1.232 . S
C158 O157 1.232 . S
C158 O159 1.218 . S
O159 C158 1.218 . S
C160 O153 1.275 1_655 S
C160 O155 1.255 . S
C161 O162 1.258 . S
C161 O163 1.256 . S
O162 Cd154 2.381 . S
O162 C161 1.258 . S
O163 Cd154 2.378 . S
O163 C161 1.256 . S
O164 Cd165 2.300 . S
O164 C171 1.275 1_565 S
Cd165 O164 2.300 . S
Cd165 O173 2.381 . S
Cd165 O174 2.378 . S
O166 Cd167 2.385 . S
O166 C171 1.255 . S
Cd167 O166 2.385 . S
Cd167 O168 2.317 . S
O168 Cd167 2.317 . S
O168 C169 1.232 . S
C169 O168 1.232 . S
C169 O170 1.218 . S
O170 C169 1.218 . S
C171 O164 1.275 1_545 S
C171 O166 1.255 . S
C172 O173 1.258 . S
C172 O174 1.256 . S
O173 Cd165 2.381 . S
O173 C172 1.258 . S
O174 Cd165 2.378 . S
O174 C172 1.256 . S
O175 Cd176 2.300 . S
O175 C182 1.275 . S
Cd176 O175 2.300 . S
Cd176 O184 2.381 . S
Cd176 O185 2.378 . S
O177 Cd178 2.385 . S
O177 C182 1.255 . S
Cd178 O177 2.385 . S
Cd178 O179 2.317 . S
O179 Cd178 2.317 . S
O179 C180 1.232 . S
C180 O179 1.232 . S
C180 O181 1.218 . S
O181 C180 1.218 . S
C182 O175 1.275 . S
C182 O177 1.255 . S
C183 O184 1.258 . S
C183 O185 1.256 . S
O184 Cd176 2.381 . S
O184 C183 1.258 . S
O185 Cd176 2.378 . S
O185 C183 1.256 . S
C186 C187 1.387 . S
C186 H190 0.950 . S
C186 C195 1.390 . S
C187 C186 1.387 . S
C187 C189 1.387 . S
H188 C195 0.950 . S
C189 C187 1.387 . S
C189 C191 1.390 . S
C189 H193 0.950 . S
H190 C186 0.950 . S
C191 C189 1.390 . S
C191 C192 1.387 . S
C191 H194 0.950 . S
C192 C191 1.387 . S
C192 C195 1.387 . S
H193 C189 0.950 . S
H194 C191 0.950 . S
C195 C186 1.390 . S
C195 H188 0.950 . S
C195 C192 1.387 . S
C196 C197 1.387 . S
C196 H200 0.950 . S
C196 C205 1.390 . S
C197 C196 1.387 . S
C197 C199 1.387 . S
H198 C205 0.950 . S
C199 C197 1.387 . S
C199 C201 1.390 . S
C199 H203 0.950 . S
H200 C196 0.950 . S
C201 C199 1.390 . S
C201 C202 1.387 . S
C201 H204 0.950 . S
C202 C201 1.387 . S
C202 C205 1.387 . S
H203 C199 0.950 . S
H204 C201 0.950 . S
C205 C196 1.390 . S
C205 H198 0.950 . S
C205 C202 1.387 . S
C206 C207 1.387 . S
C206 H210 0.950 . S
C206 C215 1.390 . S
C207 C206 1.387 . S
C207 C209 1.387 . S
H208 C215 0.950 . S
C209 C207 1.387 . S
C209 C211 1.390 . S
C209 H213 0.950 . S
H210 C206 0.950 . S
C211 C209 1.390 . S
C211 C212 1.387 . S
C211 H214 0.950 . S
C212 C211 1.387 . S
C212 C215 1.387 . S
H213 C209 0.950 . S
H214 C211 0.950 . S
C215 C206 1.390 . S
C215 H208 0.950 . S
C215 C212 1.387 . S
C216 C217 1.387 . S
C216 H220 0.950 . S
C216 C225 1.390 . S
C217 C216 1.387 . S
C217 C219 1.387 . S
H218 C225 0.950 . S
C219 C217 1.387 . S
C219 C221 1.390 . S
C219 H223 0.950 . S
H220 C216 0.950 . S
C221 C219 1.390 . S
C221 C222 1.387 . S
C221 H224 0.950 . S
C222 C221 1.387 . S
C222 C225 1.387 . S
H223 C219 0.950 . S
H224 C221 0.950 . S
C225 C216 1.390 . S
C225 H218 0.950 . S
C225 C222 1.387 . S
C226 C227 1.387 . S
C226 H230 0.950 . S
C226 C235 1.390 . S
C227 C226 1.387 . S
C227 C229 1.387 . S
H228 C235 0.950 . S
C229 C227 1.387 . S
C229 C231 1.390 . S
C229 H233 0.950 . S
H230 C226 0.950 . S
C231 C229 1.390 . S
C231 C232 1.387 . S
C231 H234 0.950 . S
C232 C231 1.387 . S
C232 C235 1.387 . S
H233 C229 0.950 . S
H234 C231 0.950 . S
C235 C226 1.390 . S
C235 H228 0.950 . S
C235 C232 1.387 . S
C236 C237 1.387 . S
C236 H240 0.950 . S
C236 C245 1.390 . S
C237 C236 1.387 . S
C237 C239 1.387 . S
H238 C245 0.950 . S
C239 C237 1.387 . S
C239 C241 1.390 . S
C239 H243 0.950 . S
H240 C236 0.950 . S
C241 C239 1.390 . S
C241 C242 1.387 . S
C241 H244 0.950 . S
C242 C241 1.387 . S
C242 C245 1.387 . S
H243 C239 0.950 . S
H244 C241 0.950 . S
C245 C236 1.390 . S
C245 H238 0.950 . S
C245 C242 1.387 . S
C246 C247 1.387 . S
C246 H250 0.950 . S
C246 C255 1.390 . S
C247 C246 1.387 . S
C247 C249 1.387 . S
H248 C255 0.950 . S
C249 C247 1.387 . S
C249 C251 1.390 . S
C249 H253 0.950 . S
H250 C246 0.950 . S
C251 C249 1.390 . S
C251 C252 1.387 . S
C251 H254 0.950 . S
C252 C251 1.387 . S
C252 C255 1.387 . S
H253 C249 0.950 . S
H254 C251 0.950 . S
C255 C246 1.390 . S
C255 H248 0.950 . S
C255 C252 1.387 . S
C256 C257 1.387 . S
C256 H260 0.950 . S
C256 C265 1.390 . S
C257 C256 1.387 . S
C257 C259 1.387 . S
H258 C265 0.950 . S
C259 C257 1.387 . S
C259 C261 1.390 . S
C259 H263 0.950 . S
H260 C256 0.950 . S
C261 C259 1.390 . S
C261 C262 1.387 . S
C261 H264 0.950 . S
C262 C261 1.387 . S
C262 C265 1.387 . S
H263 C259 0.950 . S
H264 C261 0.950 . S
C265 C256 1.390 . S
C265 H258 0.950 . S
C265 C262 1.387 . S
C266 C267 1.387 . S
C266 H270 0.950 . S
C266 C275 1.390 . S
C267 C266 1.387 . S
C267 C269 1.387 . S
H268 C275 0.950 . S
C269 C267 1.387 . S
C269 C271 1.390 . S
C269 H273 0.950 . S
H270 C266 0.950 . S
C271 C269 1.390 . S
C271 C272 1.387 . S
C271 H274 0.950 . S
C272 C271 1.387 . S
C272 C275 1.387 . S
H273 C269 0.950 . S
H274 C271 0.950 . S
C275 C266 1.390 . S
C275 H268 0.950 . S
C275 C272 1.387 . S
C276 C277 1.387 . S
C276 H280 0.950 . S
C276 C285 1.390 . S
C277 C276 1.387 . S
C277 C279 1.387 . S
H278 C285 0.950 . S
C279 C277 1.387 . S
C279 C281 1.390 . S
C279 H283 0.950 . S
H280 C276 0.950 . S
C281 C279 1.390 . S
C281 C282 1.387 . S
C281 H284 0.950 . S
C282 C281 1.387 . S
C282 C285 1.387 . S
H283 C279 0.950 . S
H284 C281 0.950 . S
C285 C276 1.390 . S
C285 H278 0.950 . S
C285 C282 1.387 . S
C286 C287 1.387 . S
C286 H290 0.950 . S
C286 C295 1.390 . S
C287 C286 1.387 . S
C287 C289 1.387 . S
H288 C295 0.950 . S
C289 C287 1.387 . S
C289 C291 1.390 . S
C289 H293 0.950 . S
H290 C286 0.950 . S
C291 C289 1.390 . S
C291 C292 1.387 . S
C291 H294 0.950 . S
C292 C291 1.387 . S
C292 C295 1.387 . S
H293 C289 0.950 . S
H294 C291 0.950 . S
C295 C286 1.390 . S
C295 H288 0.950 . S
C295 C292 1.387 . S
C296 C297 1.387 . S
C296 H300 0.950 . S
C296 C305 1.390 . S
C297 C296 1.387 . S
C297 C299 1.387 . S
H298 C305 0.950 . S
C299 C297 1.387 . S
C299 C301 1.390 . S
C299 H303 0.950 . S
H300 C296 0.950 . S
C301 C299 1.390 . S
C301 C302 1.387 . S
C301 H304 0.950 . S
C302 C301 1.387 . S
C302 C305 1.387 . S
H303 C299 0.950 . S
H304 C301 0.950 . S
C305 C296 1.390 . S
C305 H298 0.950 . S
C305 C302 1.387 . S
C306 C307 1.387 1_655 S
C306 H310 0.950 . S
C306 C315 1.390 . S
C307 C306 1.387 1_455 S
C307 C309 1.387 . S
H308 C315 0.950 1_556 S
C309 C307 1.387 . S
C309 C311 1.390 . S
C309 H313 0.950 . S
H310 C306 0.950 . S
C311 C309 1.390 . S
C311 C312 1.387 1_554 S
C311 H314 0.950 . S
C312 C311 1.387 1_556 S
C312 C315 1.387 1_456 S
H313 C309 0.950 . S
H314 C311 0.950 . S
C315 C306 1.390 . S
C315 H308 0.950 1_554 S
C315 C312 1.387 1_654 S
C316 C317 1.387 . S
C316 H320 0.950 . S
C316 C325 1.390 . S
C317 C316 1.387 . S
C317 C319 1.387 1_545 S
H318 C325 0.950 . S
C319 C317 1.387 1_565 S
C319 C321 1.390 . S
C319 H323 0.950 . S
H320 C316 0.950 . S
C321 C319 1.390 . S
C321 C322 1.387 1_565 S
C321 H324 0.950 . S
C322 C321 1.387 1_545 S
C322 C325 1.387 . S
H323 C319 0.950 . S
H324 C321 0.950 . S
C325 C316 1.390 . S
C325 H318 0.950 . S
C325 C322 1.387 . S
C326 C327 1.387 . S
C326 H330 0.950 . S
C326 C335 1.390 . S
C327 C326 1.387 . S
C327 C329 1.387 . S
H328 C335 0.950 . S
C329 C327 1.387 . S
C329 C331 1.390 . S
C329 H333 0.950 . S
H330 C326 0.950 . S
C331 C329 1.390 . S
C331 C332 1.387 . S
C331 H334 0.950 . S
C332 C331 1.387 . S
C332 C335 1.387 . S
H333 C329 0.950 . S
H334 C331 0.950 . S
C335 C326 1.390 . S
C335 H328 0.950 . S
C335 C332 1.387 . S
C336 C337 1.387 . S
C336 H340 0.950 . S
C336 C345 1.390 . S
C337 C336 1.387 . S
C337 C339 1.387 1_545 S
H338 C345 0.950 . S
C339 C337 1.387 1_565 S
C339 C341 1.390 . S
C339 H343 0.950 . S
H340 C336 0.950 . S
C341 C339 1.390 . S
C341 C342 1.387 1_565 S
C341 H344 0.950 . S
C342 C341 1.387 1_545 S
C342 C345 1.387 . S
H343 C339 0.950 . S
H344 C341 0.950 . S
C345 C336 1.390 . S
C345 H338 0.950 . S
C345 C342 1.387 . S
C346 C347 1.387 . S
C346 H350 0.950 . S
C346 C355 1.390 1_556 S
C347 C346 1.387 . S
C347 C349 1.387 . S
H348 C355 0.950 . S
C349 C347 1.387 . S
C349 C351 1.390 . S
C349 H353 0.950 . S
H350 C346 0.950 . S
C351 C349 1.390 . S
C351 C352 1.387 1_556 S
C351 H354 0.950 . S
C352 C351 1.387 1_554 S
C352 C355 1.387 . S
H353 C349 0.950 . S
H354 C351 0.950 . S
C355 C346 1.390 1_554 S
C355 H348 0.950 . S
C355 C352 1.387 . S
C356 C357 1.387 . S
C356 H360 0.950 . S
C356 C365 1.390 . S
C357 C356 1.387 . S
C357 C359 1.387 1_455 S
H358 C365 0.950 . S
C359 C357 1.387 1_655 S
C359 C361 1.390 . S
C359 H363 0.950 . S
H360 C356 0.950 . S
C361 C359 1.390 . S
C361 C362 1.387 . S
C361 H364 0.950 . S
C362 C361 1.387 . S
C362 C365 1.387 1_655 S
H363 C359 0.950 . S
H364 C361 0.950 . S
C365 C356 1.390 . S
C365 H358 0.950 . S
C365 C362 1.387 1_455 S
C187 C6 0.947 . S
C192 C180 0.753 . S
C197 C59 2.028 . S
C202 C158 1.749 . S
C207 C86 1.206 . S
C212 C172 1.195 . S
C217 C15 0.646 . S
C222 C183 0.487 . S
C232 C161 1.863 . S
C227 C50 1.948 . S
C242 C169 1.288 . S
C237 C95 1.412 . S
C247 C46 1.365 . S
C252 C136 1.181 . S
C257 C99 3.277 . S
C262 C147 2.940 . S
C267 C10 2.102 . S
C272 C125 1.761 . S
C282 C139 1.168 . S
C277 C55 1.158 . S
C292 C150 2.934 . S
C287 C90 3.012 . S
C297 C19 1.859 . S
C302 C128 1.831 . S
C312 C149 1.682 . S
C307 C18 1.683 . S
C317 C49 1.398 . S
C322 C127 1.373 . S
C327 C98 1.514 . S
C332 C138 1.468 . S
C342 C171 1.433 . S
C337 C58 1.441 . S
C352 C182 1.107 . S
C347 C89 1.179 . S
C357 C9 1.397 . S
C362 C160 1.361 . S
