# Generated by pormake.
# Topology gar, (4,6)-cn, num edge types: 1
# Building blocks:
#     Node 0, Type 0, BuildingBlock: UXUYUI_clean_sbu_0, # of connection points: 4
#     Node 1, Type 0, BuildingBlock: UXUYUI_clean_sbu_0, # of connection points: 4
#     Node 2, Type 0, BuildingBlock: UXUYUI_clean_sbu_0, # of connection points: 4
#     Node 3, Type 0, BuildingBlock: UXUYUI_clean_sbu_0, # of connection points: 4
#     Node 4, Type 0, BuildingBlock: UXUYUI_clean_sbu_0, # of connection points: 4
#     Node 5, Type 0, BuildingBlock: UXUYUI_clean_sbu_0, # of connection points: 4
#     Node 6, Type 0, BuildingBlock: UXUYUI_clean_sbu_0, # of connection points: 4
#     Node 7, Type 0, BuildingBlock: UXUYUI_clean_sbu_0, # of connection points: 4
#     Node 8, Type 0, BuildingBlock: UXUYUI_clean_sbu_0, # of connection points: 4
#     Node 9, Type 0, BuildingBlock: UXUYUI_clean_sbu_0, # of connection points: 4
#     Node 10, Type 0, BuildingBlock: UXUYUI_clean_sbu_0, # of connection points: 4
#     Node 11, Type 0, BuildingBlock: UXUYUI_clean_sbu_0, # of connection points: 4
#     Node 12, Type 0, BuildingBlock: UXUYUI_clean_sbu_0, # of connection points: 4
#     Node 13, Type 0, BuildingBlock: UXUYUI_clean_sbu_0, # of connection points: 4
#     Node 14, Type 0, BuildingBlock: UXUYUI_clean_sbu_0, # of connection points: 4
#     Node 15, Type 0, BuildingBlock: UXUYUI_clean_sbu_0, # of connection points: 4
#     Node 16, Type 0, BuildingBlock: UXUYUI_clean_sbu_0, # of connection points: 4
#     Node 17, Type 0, BuildingBlock: UXUYUI_clean_sbu_0, # of connection points: 4
#     Node 18, Type 0, BuildingBlock: UXUYUI_clean_sbu_0, # of connection points: 4
#     Node 19, Type 0, BuildingBlock: UXUYUI_clean_sbu_0, # of connection points: 4
#     Node 20, Type 0, BuildingBlock: UXUYUI_clean_sbu_0, # of connection points: 4
#     Node 21, Type 0, BuildingBlock: UXUYUI_clean_sbu_0, # of connection points: 4
#     Node 22, Type 0, BuildingBlock: UXUYUI_clean_sbu_0, # of connection points: 4
#     Node 23, Type 0, BuildingBlock: UXUYUI_clean_sbu_0, # of connection points: 4
#     Node 24, Type 1, BuildingBlock: BETDIP_clean_sbu_0, # of connection points: 6
#     Node 25, Type 1, BuildingBlock: BETDIP_clean_sbu_0, # of connection points: 6
#     Node 26, Type 1, BuildingBlock: BETDIP_clean_sbu_0, # of connection points: 6
#     Node 27, Type 1, BuildingBlock: BETDIP_clean_sbu_0, # of connection points: 6
#     Node 28, Type 1, BuildingBlock: BETDIP_clean_sbu_0, # of connection points: 6
#     Node 29, Type 1, BuildingBlock: BETDIP_clean_sbu_0, # of connection points: 6
#     Node 30, Type 1, BuildingBlock: BETDIP_clean_sbu_0, # of connection points: 6
#     Node 31, Type 1, BuildingBlock: BETDIP_clean_sbu_0, # of connection points: 6
#     Node 32, Type 1, BuildingBlock: BETDIP_clean_sbu_0, # of connection points: 6
#     Node 33, Type 1, BuildingBlock: BETDIP_clean_sbu_0, # of connection points: 6
#     Node 34, Type 1, BuildingBlock: BETDIP_clean_sbu_0, # of connection points: 6
#     Node 35, Type 1, BuildingBlock: BETDIP_clean_sbu_0, # of connection points: 6
#     Node 36, Type 1, BuildingBlock: BETDIP_clean_sbu_0, # of connection points: 6
#     Node 37, Type 1, BuildingBlock: BETDIP_clean_sbu_0, # of connection points: 6
#     Node 38, Type 1, BuildingBlock: BETDIP_clean_sbu_0, # of connection points: 6
#     Node 39, Type 1, BuildingBlock: BETDIP_clean_sbu_0, # of connection points: 6
#     Edge 40, Type (0, 1), BuildingBlock: AJUNOK_clean_linker_0, # of connection points: 2
#     Edge 41, Type (0, 1), BuildingBlock: AJUNOK_clean_linker_0, # of connection points: 2
#     Edge 42, Type (0, 1), BuildingBlock: AJUNOK_clean_linker_0, # of connection points: 2
#     Edge 43, Type (0, 1), BuildingBlock: AJUNOK_clean_linker_0, # of connection points: 2
#     Edge 44, Type (0, 1), BuildingBlock: AJUNOK_clean_linker_0, # of connection points: 2
#     Edge 45, Type (0, 1), BuildingBlock: AJUNOK_clean_linker_0, # of connection points: 2
#     Edge 46, Type (0, 1), BuildingBlock: AJUNOK_clean_linker_0, # of connection points: 2
#     Edge 47, Type (0, 1), BuildingBlock: AJUNOK_clean_linker_0, # of connection points: 2
#     Edge 48, Type (0, 1), BuildingBlock: AJUNOK_clean_linker_0, # of connection points: 2
#     Edge 49, Type (0, 1), BuildingBlock: AJUNOK_clean_linker_0, # of connection points: 2
#     Edge 50, Type (0, 1), BuildingBlock: AJUNOK_clean_linker_0, # of connection points: 2
#     Edge 51, Type (0, 1), BuildingBlock: AJUNOK_clean_linker_0, # of connection points: 2
#     Edge 52, Type (0, 1), BuildingBlock: AJUNOK_clean_linker_0, # of connection points: 2
#     Edge 53, Type (0, 1), BuildingBlock: AJUNOK_clean_linker_0, # of connection points: 2
#     Edge 54, Type (0, 1), BuildingBlock: AJUNOK_clean_linker_0, # of connection points: 2
#     Edge 55, Type (0, 1), BuildingBlock: AJUNOK_clean_linker_0, # of connection points: 2
#     Edge 56, Type (0, 1), BuildingBlock: AJUNOK_clean_linker_0, # of connection points: 2
#     Edge 57, Type (0, 1), BuildingBlock: AJUNOK_clean_linker_0, # of connection points: 2
#     Edge 58, Type (0, 1), BuildingBlock: AJUNOK_clean_linker_0, # of connection points: 2
#     Edge 59, Type (0, 1), BuildingBlock: AJUNOK_clean_linker_0, # of connection points: 2
#     Edge 60, Type (0, 1), BuildingBlock: AJUNOK_clean_linker_0, # of connection points: 2
#     Edge 61, Type (0, 1), BuildingBlock: AJUNOK_clean_linker_0, # of connection points: 2
#     Edge 62, Type (0, 1), BuildingBlock: AJUNOK_clean_linker_0, # of connection points: 2
#     Edge 63, Type (0, 1), BuildingBlock: AJUNOK_clean_linker_0, # of connection points: 2
#     Edge 64, Type (0, 1), BuildingBlock: AJUNOK_clean_linker_0, # of connection points: 2
#     Edge 65, Type (0, 1), BuildingBlock: AJUNOK_clean_linker_0, # of connection points: 2
#     Edge 66, Type (0, 1), BuildingBlock: AJUNOK_clean_linker_0, # of connection points: 2
#     Edge 67, Type (0, 1), BuildingBlock: AJUNOK_clean_linker_0, # of connection points: 2
#     Edge 68, Type (0, 1), BuildingBlock: AJUNOK_clean_linker_0, # of connection points: 2
#     Edge 69, Type (0, 1), BuildingBlock: AJUNOK_clean_linker_0, # of connection points: 2
#     Edge 70, Type (0, 1), BuildingBlock: AJUNOK_clean_linker_0, # of connection points: 2
#     Edge 71, Type (0, 1), BuildingBlock: AJUNOK_clean_linker_0, # of connection points: 2
#     Edge 72, Type (0, 1), BuildingBlock: AJUNOK_clean_linker_0, # of connection points: 2
#     Edge 73, Type (0, 1), BuildingBlock: AJUNOK_clean_linker_0, # of connection points: 2
#     Edge 74, Type (0, 1), BuildingBlock: AJUNOK_clean_linker_0, # of connection points: 2
#     Edge 75, Type (0, 1), BuildingBlock: AJUNOK_clean_linker_0, # of connection points: 2
#     Edge 76, Type (0, 1), BuildingBlock: AJUNOK_clean_linker_0, # of connection points: 2
#     Edge 77, Type (0, 1), BuildingBlock: AJUNOK_clean_linker_0, # of connection points: 2
#     Edge 78, Type (0, 1), BuildingBlock: AJUNOK_clean_linker_0, # of connection points: 2
#     Edge 79, Type (0, 1), BuildingBlock: AJUNOK_clean_linker_0, # of connection points: 2
#     Edge 80, Type (0, 1), BuildingBlock: AJUNOK_clean_linker_0, # of connection points: 2
#     Edge 81, Type (0, 1), BuildingBlock: AJUNOK_clean_linker_0, # of connection points: 2
#     Edge 82, Type (0, 1), BuildingBlock: AJUNOK_clean_linker_0, # of connection points: 2
#     Edge 83, Type (0, 1), BuildingBlock: AJUNOK_clean_linker_0, # of connection points: 2
#     Edge 84, Type (0, 1), BuildingBlock: AJUNOK_clean_linker_0, # of connection points: 2
#     Edge 85, Type (0, 1), BuildingBlock: AJUNOK_clean_linker_0, # of connection points: 2
#     Edge 86, Type (0, 1), BuildingBlock: AJUNOK_clean_linker_0, # of connection points: 2
#     Edge 87, Type (0, 1), BuildingBlock: AJUNOK_clean_linker_0, # of connection points: 2
#     Edge 88, Type (0, 1), BuildingBlock: AJUNOK_clean_linker_0, # of connection points: 2
#     Edge 89, Type (0, 1), BuildingBlock: AJUNOK_clean_linker_0, # of connection points: 2
#     Edge 90, Type (0, 1), BuildingBlock: AJUNOK_clean_linker_0, # of connection points: 2
#     Edge 91, Type (0, 1), BuildingBlock: AJUNOK_clean_linker_0, # of connection points: 2
#     Edge 92, Type (0, 1), BuildingBlock: AJUNOK_clean_linker_0, # of connection points: 2
#     Edge 93, Type (0, 1), BuildingBlock: AJUNOK_clean_linker_0, # of connection points: 2
#     Edge 94, Type (0, 1), BuildingBlock: AJUNOK_clean_linker_0, # of connection points: 2
#     Edge 95, Type (0, 1), BuildingBlock: AJUNOK_clean_linker_0, # of connection points: 2
#     Edge 96, Type (0, 1), BuildingBlock: AJUNOK_clean_linker_0, # of connection points: 2
#     Edge 97, Type (0, 1), BuildingBlock: AJUNOK_clean_linker_0, # of connection points: 2
#     Edge 98, Type (0, 1), BuildingBlock: AJUNOK_clean_linker_0, # of connection points: 2
#     Edge 99, Type (0, 1), BuildingBlock: AJUNOK_clean_linker_0, # of connection points: 2
#     Edge 100, Type (0, 1), BuildingBlock: AJUNOK_clean_linker_0, # of connection points: 2
#     Edge 101, Type (0, 1), BuildingBlock: AJUNOK_clean_linker_0, # of connection points: 2
#     Edge 102, Type (0, 1), BuildingBlock: AJUNOK_clean_linker_0, # of connection points: 2
#     Edge 103, Type (0, 1), BuildingBlock: AJUNOK_clean_linker_0, # of connection points: 2
#     Edge 104, Type (0, 1), BuildingBlock: AJUNOK_clean_linker_0, # of connection points: 2
#     Edge 105, Type (0, 1), BuildingBlock: AJUNOK_clean_linker_0, # of connection points: 2
#     Edge 106, Type (0, 1), BuildingBlock: AJUNOK_clean_linker_0, # of connection points: 2
#     Edge 107, Type (0, 1), BuildingBlock: AJUNOK_clean_linker_0, # of connection points: 2
#     Edge 108, Type (0, 1), BuildingBlock: AJUNOK_clean_linker_0, # of connection points: 2
#     Edge 109, Type (0, 1), BuildingBlock: AJUNOK_clean_linker_0, # of connection points: 2
#     Edge 110, Type (0, 1), BuildingBlock: AJUNOK_clean_linker_0, # of connection points: 2
#     Edge 111, Type (0, 1), BuildingBlock: AJUNOK_clean_linker_0, # of connection points: 2
#     Edge 112, Type (0, 1), BuildingBlock: AJUNOK_clean_linker_0, # of connection points: 2
#     Edge 113, Type (0, 1), BuildingBlock: AJUNOK_clean_linker_0, # of connection points: 2
#     Edge 114, Type (0, 1), BuildingBlock: AJUNOK_clean_linker_0, # of connection points: 2
#     Edge 115, Type (0, 1), BuildingBlock: AJUNOK_clean_linker_0, # of connection points: 2
#     Edge 116, Type (0, 1), BuildingBlock: AJUNOK_clean_linker_0, # of connection points: 2
#     Edge 117, Type (0, 1), BuildingBlock: AJUNOK_clean_linker_0, # of connection points: 2
#     Edge 118, Type (0, 1), BuildingBlock: AJUNOK_clean_linker_0, # of connection points: 2
#     Edge 119, Type (0, 1), BuildingBlock: AJUNOK_clean_linker_0, # of connection points: 2
#     Edge 120, Type (0, 1), BuildingBlock: AJUNOK_clean_linker_0, # of connection points: 2
#     Edge 121, Type (0, 1), BuildingBlock: AJUNOK_clean_linker_0, # of connection points: 2
#     Edge 122, Type (0, 1), BuildingBlock: AJUNOK_clean_linker_0, # of connection points: 2
#     Edge 123, Type (0, 1), BuildingBlock: AJUNOK_clean_linker_0, # of connection points: 2
#     Edge 124, Type (0, 1), BuildingBlock: AJUNOK_clean_linker_0, # of connection points: 2
#     Edge 125, Type (0, 1), BuildingBlock: AJUNOK_clean_linker_0, # of connection points: 2
#     Edge 126, Type (0, 1), BuildingBlock: AJUNOK_clean_linker_0, # of connection points: 2
#     Edge 127, Type (0, 1), BuildingBlock: AJUNOK_clean_linker_0, # of connection points: 2
#     Edge 128, Type (0, 1), BuildingBlock: AJUNOK_clean_linker_0, # of connection points: 2
#     Edge 129, Type (0, 1), BuildingBlock: AJUNOK_clean_linker_0, # of connection points: 2
#     Edge 130, Type (0, 1), BuildingBlock: AJUNOK_clean_linker_0, # of connection points: 2
#     Edge 131, Type (0, 1), BuildingBlock: AJUNOK_clean_linker_0, # of connection points: 2
#     Edge 132, Type (0, 1), BuildingBlock: AJUNOK_clean_linker_0, # of connection points: 2
#     Edge 133, Type (0, 1), BuildingBlock: AJUNOK_clean_linker_0, # of connection points: 2
#     Edge 134, Type (0, 1), BuildingBlock: AJUNOK_clean_linker_0, # of connection points: 2
#     Edge 135, Type (0, 1), BuildingBlock: AJUNOK_clean_linker_0, # of connection points: 2
# Relax obj value: 0.215
# Max RMSD: 0.301
# Mean RMSD: 0.191
data_MOF--net-gar--node1-UXUYUI_clean_sbu_0--node2-BETDIP_clean_sbu_0--edge1-AJUNOK_clean_linker_0
_symmetry_space_group_name_H-M    P1
_symmetry_Int_Tables_number       1
_symmetry_cell_setting            triclinic
loop_
_symmetry_equiv_pos_as_xyz
'x, y, z'
_cell_length_a     61.947078
_cell_length_b     55.944039
_cell_length_c     53.806683
_cell_angle_alpha  97.475647
_cell_angle_beta   99.065882
_cell_angle_gamma 100.96054
loop_
_atom_site_label
_atom_site_type_symbol
_atom_site_fract_x
_atom_site_fract_y
_atom_site_fract_z
_atom_type_partial_charge
Li0 Li 1.01309 0.31022 0.38885 0.0
Li1 Li 0.04308 0.34069 0.41519 0.0
Li2 Li 0.04989 0.31395 0.37765 0.0
Li3 Li 0.04244 0.29805 0.41666 0.0
C4 C 0.02205 0.34449 0.35516 0.0
N5 N 1.00438 0.3552 0.30847 0.0
C6 C 1.01461 0.36644 0.3538 0.0
C7 C 0.02065 0.32809 0.33274 0.0
C8 C 1.00567 0.37149 0.33002 0.0
C9 C 1.01164 0.33381 0.30933 0.0
C10 C 1.01432 0.33003 0.44599 0.0
C11 C 0.02141 0.34973 0.49005 0.0
N12 N 1.00231 0.35835 0.48555 0.0
C13 C 0.9948 0.33924 0.44182 0.0
C14 C 0.02777 0.33543 0.47033 0.0
C15 C 0.98899 0.35343 0.46205 0.0
C16 C 0.97054 0.29035 0.39477 0.0
N17 N 0.98148 0.30196 0.37818 0.0
C18 C 0.94679 0.30326 0.35242 0.0
C19 C 0.97013 0.30807 0.35702 0.0
C20 C 0.93532 0.29242 0.36998 0.0
C21 C 0.94729 0.28561 0.39117 0.0
H22 H 0.97997 0.28553 0.41136 0.0
H23 H 0.97899 0.31706 0.34394 0.0
C24 C 0.0657 0.37985 0.45564 0.0
N25 N 0.0485 0.37216 0.43539 0.0
C26 C 0.06517 0.3993 0.47449 0.0
C27 C 0.02992 0.40314 0.45043 0.0
C28 C 0.03133 0.38399 0.43191 0.0
C29 C 0.04659 0.41047 0.4725 0.0
H30 H 0.07911 0.37003 0.4579 0.0
H31 H 0.01768 0.37705 0.41587 0.0
C32 C 1.01171 0.26377 0.37122 0.0
N33 N 0.97517 0.22525 0.35246 0.0
C34 C 1.00263 0.24892 0.38763 0.0
C35 C 1.00226 0.25889 0.34523 0.0
C36 C 0.98415 0.22957 0.37778 0.0
C37 C 0.98377 0.23938 0.33613 0.0
C38 C 0.08579 0.31623 0.42589 0.0
C39 C 0.09951 0.30447 0.41249 0.0
C40 C 0.08978 0.31942 0.45255 0.0
C41 C 0.11689 0.29597 0.42599 0.0
C42 C 0.10728 0.31057 0.46535 0.0
N43 N 0.12036 0.29913 0.45192 0.0
C44 C 0.08483 0.32917 0.3513 0.0
C45 C 0.06499 0.28753 0.33881 0.0
C46 C 0.10129 0.32458 0.33741 0.0
N47 N 0.06761 0.31048 0.35237 0.0
C48 C 0.08092 0.28219 0.32457 0.0
C49 C 0.09982 0.30057 0.32473 0.0
H50 H 0.08664 0.3471 0.36268 0.0
H51 H 0.05137 0.27294 0.34049 0.0
C52 C 0.04027 0.27382 0.45895 0.0
N53 N 0.04881 0.27453 0.43726 0.0
C54 C 0.04456 0.2566 0.47446 0.0
C55 C 0.06561 0.24042 0.44446 0.0
C56 C 0.06105 0.25815 0.42959 0.0
C57 C 0.05743 0.23975 0.46727 0.0
H58 H 0.0297 0.28621 0.46393 0.0
H59 H 0.06708 0.25878 0.41184 0.0
O60 O 0.03115 0.33951 0.37829 0.0
O61 O 0.02043 0.31621 0.42632 0.0
O62 O 0.02944 0.28325 0.38064 0.0
O63 O 0.06845 0.32436 0.413 0.0
H64 H 1.01575 0.37949 0.3709 0.0
H65 H 0.02622 0.31103 0.33338 0.0
H66 H 0.9998 0.38838 0.32871 0.0
H67 H 1.01036 0.3212 0.29186 0.0
H68 H 0.03174 0.35411 0.50891 0.0
H69 H 0.98448 0.33605 0.42306 0.0
H70 H 0.04319 0.32903 0.47392 0.0
H71 H 0.974 0.36073 0.45901 0.0
H72 H 0.93782 0.30851 0.33575 0.0
H73 H 0.93877 0.27694 0.40485 0.0
H74 H 0.07883 0.40506 0.49071 0.0
H75 H 1.0153 0.4112 0.44809 0.0
H76 H 1.00949 0.25251 0.40782 0.0
H77 H 1.00901 0.27008 0.33217 0.0
H78 H 0.97688 0.21806 0.39031 0.0
H79 H 0.97625 0.23548 0.31608 0.0
H80 H 0.09669 0.30171 0.3919 0.0
H81 H 0.07926 0.32825 0.46325 0.0
H82 H 0.12758 0.28678 0.41585 0.0
H83 H 0.11041 0.31272 0.48595 0.0
H84 H 0.11568 0.33918 0.33789 0.0
H85 H 0.07941 0.26341 0.31528 0.0
H86 H 0.03737 0.256 0.49153 0.0
H87 H 0.07531 0.22737 0.43823 0.0
Li88 Li 0.0715 0.77929 0.70114 0.0
Li89 Li 0.08971 0.76177 0.73416 0.0
Li90 Li 0.06458 0.73415 0.69964 0.0
Li91 Li 0.05111 0.76254 0.7327 0.0
C92 C 0.11422 0.76482 0.69691 0.0
N93 N 0.15954 0.78031 0.69807 0.0
C94 C 0.12449 0.78984 0.70383 0.0
C95 C 0.12698 0.7477 0.69033 0.0
C96 C 0.14742 0.7973 0.70435 0.0
C97 C 0.14988 0.75589 0.6911 0.0
C98 C 0.0828 0.81105 0.75595 0.0
C99 C 0.08547 0.83099 0.79919 0.0
N100 N 0.09646 0.85241 0.79341 0.0
C101 C 0.094 0.83331 0.7504 0.0
C102 C 0.0784 0.80989 0.78051 0.0
C103 C 0.10083 0.85399 0.76962 0.0
C104 C 0.06118 0.82201 0.68647 0.0
N105 N 0.07253 0.80411 0.68091 0.0
C106 C 0.08093 0.81977 0.64366 0.0
C107 C 0.08252 0.80273 0.66019 0.0
C108 C 0.06871 0.83797 0.64853 0.0
C109 C 0.05903 0.8393 0.67038 0.0
H110 H 0.05325 0.82233 0.70301 0.0
H111 H 0.09104 0.78792 0.65607 0.0
C112 C 0.12781 0.7447 0.75212 0.0
N113 N 0.1184 0.76475 0.75443 0.0
C114 C 0.15079 0.74733 0.75986 0.0
C115 C 0.15387 0.79105 0.77284 0.0
C116 C 0.13081 0.78749 0.76534 0.0
C117 C 0.1642 0.77092 0.76948 0.0
H118 H 0.11783 0.72706 0.74224 0.0
H119 H 0.12333 0.80333 0.76608 0.0
C120 C 0.03057 0.7632 0.67457 0.0
N121 N 1.00913 0.78135 0.63442 0.0
C122 C 1.01399 0.7764 0.67826 0.0
C123 C 0.03607 0.75901 0.65039 0.0
C124 C 1.00338 0.78547 0.65773 0.0
C125 C 0.02509 0.7684 0.63036 0.0
C126 C 0.07443 0.72295 0.75624 0.0
C127 C 0.07824 0.69911 0.75118 0.0
C128 C 0.0798 0.73573 0.78124 0.0
C129 C 0.08784 0.68866 0.77121 0.0
C130 C 0.0894 0.72467 0.80076 0.0
N131 N 0.09321 0.70156 0.79538 0.0
C132 C 0.07534 0.69116 0.67764 0.0
C133 C 0.04017 0.69785 0.65876 0.0
C134 C 0.07342 0.67095 0.6587 0.0
N135 N 0.05896 0.70424 0.67709 0.0
C136 C 0.03768 0.67796 0.63929 0.0
C137 C 0.05453 0.66436 0.63903 0.0
H138 H 0.09012 0.69683 0.69247 0.0
H139 H 0.02749 0.70871 0.65878 0.0
C140 C 0.02401 0.79117 0.74996 0.0
N141 N 0.02822 0.76824 0.74999 0.0
C142 C 1.0064 0.79748 0.76051 0.0
C143 C 0.99804 0.75656 0.77158 0.0
C144 C 1.01598 0.75102 0.76078 0.0
C145 C 0.99289 0.77988 0.77093 0.0
H146 H 0.03405 0.80437 0.74111 0.0
H147 H 0.01982 0.73292 0.76045 0.0
O148 O 0.09194 0.75707 0.69723 0.0
O149 O 0.07597 0.79066 0.73729 0.0
O150 O 0.04174 0.75495 0.69465 0.0
O151 O 0.06504 0.73345 0.73684 0.0
H152 H 0.11494 0.80331 0.70922 0.0
H153 H 0.11936 0.72828 0.68491 0.0
H154 H 0.1556 0.81658 0.70991 0.0
H155 H 0.15998 0.74283 0.68625 0.0
H156 H 0.08216 0.83036 0.81827 0.0
H157 H 0.09753 0.83458 0.7315 0.0
H158 H 0.06943 0.79299 0.78507 0.0
H159 H 0.1096 0.8713 0.76561 0.0
H160 H 0.0885 0.81829 0.62685 0.0
H161 H 0.04973 0.85335 0.67477 0.0
H162 H 0.15814 0.73135 0.75693 0.0
H163 H 0.1636 0.80969 0.77935 0.0
H164 H 1.00942 0.77973 0.69677 0.0
H165 H 0.04904 0.74907 0.64726 0.0
H166 H 0.99062 0.79585 0.66035 0.0
H167 H 0.02936 0.76552 0.61163 0.0
H168 H 0.07387 0.68881 0.73198 0.0
H169 H 0.07675 0.75405 0.78551 0.0
H170 H 0.09101 0.67028 0.76756 0.0
H171 H 0.0938 0.73444 0.82018 0.0
H172 H 0.08665 0.66074 0.65926 0.0
H173 H 0.02304 0.67374 0.62422 0.0
H174 H 1.00309 0.81577 0.7601 0.0
H175 H 0.98789 0.7426 0.77953 0.0
Li176 Li 0.51945 0.81635 0.88788 0.0
Li177 Li 0.54636 0.83816 0.9224 0.0
Li178 Li 0.55712 0.81832 0.88326 0.0
Li179 Li 0.54002 0.79366 0.91303 0.0
C180 C 0.53007 0.85662 0.86984 0.0
N181 N 0.50419 0.87584 0.8342 0.0
C182 C 0.51749 0.87343 0.87776 0.0
C183 C 0.52963 0.8497 0.84383 0.0
C184 C 0.50445 0.88288 0.85944 0.0
C185 C 0.51643 0.85963 0.8261 0.0
C186 C 0.51831 0.81127 0.94869 0.0
C187 C 0.53628 0.81056 0.99171 0.0
N188 N 0.51591 0.80607 0.99866 0.0
C189 C 0.49755 0.80656 0.95628 0.0
C190 C 0.53786 0.81321 0.96657 0.0
C191 C 0.49669 0.80403 0.98161 0.0
C192 C 0.48184 0.81012 0.84606 0.0
N193 N 0.4899 0.81645 0.87158 0.0
C194 C 0.45437 0.82281 0.87929 0.0
C195 C 0.47681 0.82331 0.88805 0.0
C196 C 0.44539 0.81544 0.85325 0.0
C197 C 0.45938 0.80927 0.83643 0.0
H198 H 0.49269 0.80553 0.83319 0.0
H199 H 0.48376 0.82893 0.90812 0.0
C200 C 0.56979 0.87566 0.96641 0.0
N201 N 0.5506 0.86493 0.94942 0.0
C202 C 0.56959 0.89436 0.98631 0.0
C203 C 0.52987 0.88968 0.97133 0.0
C204 C 0.5309 0.87149 0.95164 0.0
C205 C 0.54941 0.9016 0.98881 0.0
H206 H 0.58518 0.86982 0.96463 0.0
H207 H 0.51585 0.86228 0.93815 0.0
C208 C 0.5178 0.774 0.85599 0.0
N209 N 0.48705 0.74427 0.81583 0.0
C210 C 0.49843 0.75921 0.86057 0.0
C211 C 0.52165 0.77352 0.83105 0.0
C212 C 0.48304 0.74437 0.83998 0.0
C213 C 0.50588 0.75837 0.81099 0.0
C214 C 0.59054 0.83195 0.928 0.0
C215 C 0.5972 0.85263 0.91674 0.0
C216 C 0.60553 0.82611 0.94736 0.0
C217 C 0.61883 0.86704 0.92495 0.0
C218 C 0.62701 0.84102 0.95507 0.0
N219 N 0.63316 0.86099 0.94379 0.0
C220 C 0.58693 0.83414 0.84876 0.0
C221 C 0.58297 0.79368 0.85888 0.0
C222 C 0.60192 0.82929 0.83275 0.0
N223 N 0.57789 0.8163 0.86135 0.0
C224 C 0.59763 0.78803 0.8431 0.0
C225 C 0.60732 0.80591 0.82981 0.0
H226 H 0.58255 0.852 0.85114 0.0
H227 H 0.57553 0.77998 0.86926 0.0
C228 C 0.5202 0.75219 0.93155 0.0
N229 N 0.53991 0.76528 0.92779 0.0
C230 C 0.52009 0.733 0.94562 0.0
C231 C 0.56052 0.74091 0.9511 0.0
C232 C 0.55983 0.75987 0.93679 0.0
C233 C 0.54047 0.72751 0.95585 0.0
H234 H 0.50468 0.75735 0.92455 0.0
H235 H 0.57519 0.77079 0.93353 0.0
O236 O 0.54261 0.84678 0.88744 0.0
O237 O 0.51924 0.81344 0.92376 0.0
O238 O 0.5331 0.78861 0.87584 0.0
O239 O 0.56945 0.8175 0.92037 0.0
H240 H 0.51768 0.87901 0.89782 0.0
H241 H 0.53909 0.83651 0.83738 0.0
H242 H 0.49451 0.8958 0.86527 0.0
H243 H 0.51581 0.85433 0.80589 0.0
H244 H 0.55127 0.81203 1.0057 0.0
H245 H 0.48222 0.80472 0.9427 0.0
H246 H 0.5541 0.81667 0.9612 0.0
H247 H 0.48072 0.80038 0.9877 0.0
H248 H 0.44401 0.82748 0.89284 0.0
H249 H 0.45297 0.80371 0.81615 0.0
H250 H 0.58511 0.90344 0.99914 0.0
H251 H 0.51396 0.89461 0.97268 0.0
H252 H 0.49518 0.75945 0.87975 0.0
H253 H 0.53658 0.78484 0.8272 0.0
H254 H 0.46788 0.73298 0.8432 0.0
H255 H 0.50857 0.75789 0.79157 0.0
H256 H 0.5858 0.85764 0.90194 0.0
H257 H 0.60059 0.81029 0.95643 0.0
H258 H 0.62421 0.88308 0.91639 0.0
H259 H 0.63877 0.83672 0.97005 0.0
H260 H 0.60911 0.84351 0.82276 0.0
H261 H 0.60167 0.76994 0.84166 0.0
H262 H 0.50437 0.72324 0.94935 0.0
H263 H 0.57651 0.73705 0.95878 0.0
Li264 Li 0.56745 0.27085 0.19884 0.0
Li265 Li 0.58459 0.24979 0.22862 0.0
Li266 Li 0.55775 0.22629 0.19282 0.0
Li267 Li 0.54675 0.25279 0.2292 0.0
C268 C 0.60593 0.25844 0.18588 0.0
N269 N 0.64569 0.28054 0.17335 0.0
C270 C 0.61912 0.28003 0.20106 0.0
C271 C 0.61296 0.24807 0.16431 0.0
C272 C 0.63918 0.29091 0.19445 0.0
C273 C 0.6331 0.25954 0.15828 0.0
C274 C 0.58248 0.29657 0.25733 0.0
C275 C 0.58615 0.31015 0.30253 0.0
N276 N 0.60135 0.33066 0.30099 0.0
C277 C 0.59787 0.318 0.25614 0.0
C278 C 0.57634 0.29276 0.28066 0.0
C279 C 0.60734 0.33492 0.27844 0.0
C280 C 0.56436 0.31827 0.19128 0.0
N281 N 0.5703 0.29753 0.18111 0.0
C282 C 0.57489 0.31347 0.14291 0.0
C283 C 0.57585 0.29489 0.15761 0.0
C284 C 0.56794 0.33465 0.15253 0.0
C285 C 0.56308 0.33728 0.1772 0.0
H286 H 0.55974 0.31955 0.2099 0.0
H287 H 0.57988 0.27787 0.14977 0.0
C288 C 0.62496 0.2357 0.23437 0.0
N289 N 0.61289 0.24889 0.24754 0.0
C290 C 0.64776 0.23842 0.24308 0.0
C291 C 0.64473 0.26571 0.28048 0.0
C292 C 0.62199 0.26277 0.2708 0.0
C293 C 0.65805 0.25442 0.26588 0.0
H294 H 0.61713 0.22424 0.21623 0.0
H295 H 0.61198 0.27231 0.28144 0.0
C296 C 0.52657 0.25967 0.17246 0.0
N297 N 0.50763 0.28266 0.13478 0.0
C298 C 0.51382 0.27699 0.17838 0.0
C299 C 0.52952 0.25389 0.14731 0.0
C300 C 0.50444 0.28846 0.15909 0.0
C301 C 0.51982 0.26573 0.12855 0.0
C302 C 0.5697 0.2114 0.24781 0.0
C303 C 0.58083 0.19281 0.24079 0.0
C304 C 0.56997 0.21931 0.2736 0.0
C305 C 0.59243 0.18273 0.25979 0.0
C306 C 0.58174 0.20876 0.29203 0.0
N307 N 0.59267 0.19087 0.2848 0.0
C308 C 0.56831 0.1873 0.1646 0.0
C309 C 0.53082 0.19105 0.15173 0.0
C310 C 0.56584 0.16821 0.14436 0.0
N311 N 0.55095 0.19822 0.16781 0.0
C312 C 0.52771 0.17226 0.13091 0.0
C313 C 0.54541 0.16062 0.12706 0.0
H314 H 0.58426 0.1939 0.17744 0.0
H315 H 0.51749 0.2005 0.15457 0.0
C316 C 0.52183 0.28175 0.25066 0.0
N317 N 0.52452 0.25809 0.24774 0.0
C318 C 0.50465 0.28804 0.26207 0.0
C319 C 0.49367 0.24557 0.26808 0.0
C320 C 0.51117 0.24005 0.25642 0.0
C321 C 0.49013 0.26976 0.27053 0.0
H322 H 0.53273 0.29559 0.24343 0.0
H323 H 0.51374 0.22137 0.25363 0.0
O324 O 0.58622 0.24736 0.19198 0.0
O325 O 0.57278 0.28 0.23557 0.0
O326 O 0.53659 0.2489 0.19126 0.0
O327 O 0.55873 0.22195 0.22954 0.0
H328 H 0.61402 0.2881 0.21791 0.0
H329 H 0.60291 0.23137 0.15233 0.0
H330 H 0.64958 0.30758 0.20611 0.0
H331 H 0.63874 0.25174 0.14162 0.0
H332 H 0.58167 0.30732 0.32073 0.0
H333 H 0.60236 0.32168 0.23816 0.0
H334 H 0.56427 0.2765 0.28196 0.0
H335 H 0.61936 0.35151 0.2778 0.0
H336 H 0.57854 0.31085 0.12383 0.0
H337 H 0.55788 0.35357 0.18519 0.0
H338 H 0.6574 0.22912 0.2314 0.0
H339 H 0.65194 0.27733 0.29875 0.0
H340 H 0.51135 0.28172 0.1977 0.0
H341 H 0.53965 0.24087 0.14244 0.0
H342 H 0.49469 0.30205 0.16345 0.0
H343 H 0.52216 0.26161 0.10907 0.0
H344 H 0.58069 0.1864 0.22092 0.0
H345 H 0.56119 0.23345 0.27931 0.0
H346 H 0.60127 0.16846 0.25465 0.0
H347 H 0.5822 0.2148 0.31207 0.0
H348 H 0.57981 0.15955 0.1422 0.0
H349 H 0.51186 0.16729 0.11769 0.0
H350 H 0.5024 0.30688 0.26375 0.0
H351 H 0.48255 0.231 0.27417 0.0
Li352 Li 0.0815 0.82354 0.14811 0.0
Li353 Li 0.10577 0.80274 0.18243 0.0
Li354 Li 0.07794 0.77595 0.14537 0.0
Li355 Li 0.06313 0.79931 0.18023 0.0
C356 C 0.11683 0.79747 0.12607 0.0
N357 N 0.1409 0.78698 0.08852 0.0
C358 C 0.13632 0.78859 0.13193 0.0
C359 C 0.10965 0.80121 0.1012 0.0
C360 C 0.14824 0.78334 0.11264 0.0
C361 C 0.12204 0.79573 0.08246 0.0
C362 C 0.08813 0.84586 0.20881 0.0
C363 C 0.09806 0.8587 0.25442 0.0
N364 N 0.08753 0.87777 0.25231 0.0
C365 C 0.07767 0.86577 0.20704 0.0
C366 C 0.09864 0.84243 0.23264 0.0
C367 C 0.07743 0.88162 0.22927 0.0
C368 C 0.05984 0.86233 0.13257 0.0
N369 N 0.07862 0.85332 0.13074 0.0
C370 C 0.09079 0.88562 0.10679 0.0
C371 C 0.09406 0.86473 0.11812 0.0
C372 C 0.07142 0.89523 0.10822 0.0
C373 C 0.05604 0.88318 0.12176 0.0
H374 H 0.04772 0.8534 0.14274 0.0
H375 H 0.109 0.85769 0.11675 0.0
C376 C 0.1399 0.77971 0.20591 0.0
N377 N 0.13561 0.80242 0.20348 0.0
C378 C 0.1601 0.77715 0.22033 0.0
C379 C 0.17223 0.82136 0.22871 0.0
C380 C 0.15151 0.82314 0.21446 0.0
C381 C 0.17669 0.79809 0.23211 0.0
H382 H 0.12766 0.76335 0.19648 0.0
H383 H 0.14817 0.84111 0.21224 0.0
C384 C 0.03774 0.78376 0.12246 0.0
N385 N 1.00529 0.75741 0.08194 0.0
C386 C 0.01935 0.76719 0.12684 0.0
C387 C 0.03957 0.7871 0.09754 0.0
C388 C 1.00314 0.75399 0.10607 0.0
C389 C 0.023 0.77356 0.07729 0.0
C390 C 0.0828 0.76017 0.20134 0.0
C391 C 0.08474 0.73559 0.19644 0.0
C392 C 0.08242 0.77091 0.22616 0.0
C393 C 0.08649 0.72221 0.21658 0.0
C394 C 0.08418 0.75691 0.24578 0.0
N395 N 0.08618 0.73305 0.24063 0.0
C396 C 0.08734 0.73473 0.1105 0.0
C397 C 0.05517 0.72513 0.12874 0.0
C398 C 0.08466 0.70974 0.09974 0.0
N399 N 0.07276 0.7421 0.1249 0.0
C400 C 0.05178 0.70003 0.11816 0.0
C401 C 0.06671 0.69184 0.10352 0.0
H402 H 0.10149 0.74798 0.1078 0.0
H403 H 0.04416 0.73088 0.14093 0.0
C404 C 0.02826 0.8175 0.20309 0.0
N405 N 0.03747 0.79746 0.19849 0.0
C406 C 1.00899 0.81589 0.21415 0.0
C407 C 1.00859 0.77296 0.21541 0.0
C408 C 0.0279 0.77541 0.20443 0.0
C409 C 0.9986 0.7933 0.22023 0.0
H410 H 0.03548 0.8347 0.19759 0.0
H411 H 0.03497 0.75945 0.20019 0.0
O412 O 0.10504 0.80288 0.14469 0.0
O413 O 0.08862 0.83018 0.18727 0.0
O414 O 0.05395 0.79654 0.14247 0.0
O415 O 0.08111 0.77357 0.18186 0.0
H416 H 0.14213 0.7857 0.15112 0.0
H417 H 0.09469 0.80825 0.09644 0.0
H418 H 0.16331 0.77637 0.11686 0.0
H419 H 0.11667 0.79847 0.06311 0.0
H420 H 0.10606 0.85622 0.273 0.0
H421 H 0.06968 0.86885 0.18872 0.0
H422 H 0.10729 0.82747 0.23428 0.0
H423 H 0.06923 0.89699 0.2282 0.0
H424 H 0.10329 0.89398 0.09672 0.0
H425 H 0.04121 0.88999 0.12445 0.0
H426 H 0.16277 0.75882 0.22215 0.0
H427 H 0.18446 0.83806 0.23747 0.0
H428 H 0.01771 0.76444 0.14605 0.0
H429 H 0.05366 0.79997 0.09389 0.0
H430 H 0.98886 0.741 0.10915 0.0
H431 H 0.02422 0.77589 0.05787 0.0
H432 H 0.08512 0.72701 0.17734 0.0
H433 H 0.0805 0.78974 0.23018 0.0
H434 H 0.08811 0.7032 0.2131 0.0
H435 H 0.08388 0.76498 0.26508 0.0
H436 H 0.09665 0.70444 0.08864 0.0
H437 H 0.03797 0.68701 0.12221 0.0
H438 H 1.0019 0.83206 0.21722 0.0
H439 H 1.00154 0.75523 0.22008 0.0
Li440 Li 0.52097 0.7944 0.46762 0.0
Li441 Li 0.49308 0.76621 0.42991 0.0
Li442 Li 0.51777 0.74686 0.46507 0.0
Li443 Li 0.5351 0.77026 0.43475 0.0
C444 C 0.47891 0.77405 0.48218 0.0
N445 N 0.44847 0.78774 0.51062 0.0
C446 C 0.46528 0.78971 0.4737 0.0
C447 C 0.47682 0.76504 0.50493 0.0
C448 C 0.45007 0.79651 0.48841 0.0
C449 C 0.4614 0.77226 0.51909 0.0
C450 C 0.52783 0.80873 0.41509 0.0
C451 C 0.5341 0.81436 0.37294 0.0
N452 N 0.55162 0.8335 0.38344 0.0
C453 C 0.54586 0.82845 0.42548 0.0
C454 C 0.52185 0.80159 0.38864 0.0
C455 C 0.55769 0.84075 0.40914 0.0
C456 C 0.54127 0.8397 0.50642 0.0
N457 N 0.52413 0.82819 0.48684 0.0
C458 C 0.51057 0.86587 0.48705 0.0
C459 C 0.50904 0.84098 0.47708 0.0
C460 C 0.52795 0.87825 0.50734 0.0
C461 C 0.54344 0.86467 0.51697 0.0
H462 H 0.5537 0.82985 0.51351 0.0
H463 H 0.49613 0.83209 0.46082 0.0
C464 C 0.44501 0.74758 0.40418 0.0
N465 N 0.46353 0.76632 0.4085 0.0
C466 C 0.42446 0.74992 0.38998 0.0
C467 C 0.44211 0.7908 0.38516 0.0
C468 C 0.46218 0.78774 0.39941 0.0
C469 C 0.42279 0.77171 0.37992 0.0
H470 H 0.44606 0.7308 0.41184 0.0
H471 H 0.47671 0.80279 0.40351 0.0
C472 C 0.55516 0.7786 0.49772 0.0
N473 N 0.57479 0.78523 0.54865 0.0
C474 C 0.5783 0.78122 0.5048 0.0
C475 C 0.54203 0.77933 0.51656 0.0
C476 C 0.5879 0.78456 0.53064 0.0
C477 C 0.55225 0.78271 0.54219 0.0
C478 C 0.51754 0.7223 0.41066 0.0
C479 C 0.53566 0.71232 0.41989 0.0
C480 C 0.50656 0.7149 0.38528 0.0
C481 C 0.54264 0.69516 0.40342 0.0
C482 C 0.51404 0.69767 0.36942 0.0
N483 N 0.53178 0.68825 0.37874 0.0
C484 C 0.50206 0.69639 0.47646 0.0
C485 C 0.53888 0.71522 0.49749 0.0
C486 C 0.50384 0.67433 0.48613 0.0
N487 N 0.51947 0.7165 0.48211 0.0
C488 C 0.54123 0.6937 0.50779 0.0
C489 C 0.52373 0.67255 0.502 0.0
H490 H 0.48681 0.69721 0.46399 0.0
H491 H 0.55298 0.73065 0.50142 0.0
C492 C 0.58092 0.78517 0.43018 0.0
N493 N 0.56071 0.77239 0.41641 0.0
C494 C 0.60033 0.7873 0.41947 0.0
C495 C 0.57802 0.76363 0.38015 0.0
C496 C 0.55897 0.76203 0.3916 0.0
C497 C 0.59924 0.77613 0.39418 0.0
H498 H 0.58199 0.79393 0.44958 0.0
H499 H 0.54282 0.75248 0.38056 0.0
O500 O 0.49384 0.76707 0.46801 0.0
O501 O 0.51659 0.7959 0.43078 0.0
O502 O 0.54548 0.77506 0.47247 0.0
O503 O 0.51055 0.7392 0.42643 0.0
H504 H 0.4664 0.79652 0.45595 0.0
H505 H 0.48698 0.75254 0.51155 0.0
H506 H 0.43949 0.80872 0.48212 0.0
H507 H 0.45967 0.76551 0.53678 0.0
H508 H 0.52974 0.80899 0.35243 0.0
H509 H 0.55081 0.83401 0.44595 0.0
H510 H 0.50808 0.78615 0.38035 0.0
H511 H 0.57175 0.85599 0.4169 0.0
H512 H 0.49864 0.87555 0.47826 0.0
H513 H 0.55727 0.87334 0.53241 0.0
H514 H 0.41011 0.73466 0.38656 0.0
H515 H 0.44172 0.80818 0.3785 0.0
H516 H 0.58873 0.78048 0.49049 0.0
H517 H 0.52419 0.7775 0.51147 0.0
H518 H 0.60578 0.78656 0.53638 0.0
H519 H 0.54227 0.78337 0.55695 0.0
H520 H 0.54434 0.71795 0.4395 0.0
H521 H 0.49249 0.72249 0.37791 0.0
H522 H 0.5567 0.68735 0.41025 0.0
H523 H 0.50577 0.6918 0.3497 0.0
H524 H 0.48968 0.65879 0.48124 0.0
H525 H 0.55699 0.69341 0.51966 0.0
H526 H 0.61602 0.79792 0.43089 0.0
H527 H 0.57617 0.75485 0.36055 0.0
Li528 Li 0.57868 0.3265 0.64758 0.0
Li529 Li 0.60358 0.30488 0.6806 0.0
Li530 Li 0.57554 0.27945 0.64465 0.0
Li531 Li 0.56039 0.30117 0.67824 0.0
C532 C 0.60643 0.29972 0.61844 0.0
N533 N 0.6139 0.28695 0.56961 0.0
C534 C 0.62263 0.28611 0.6143 0.0
C535 C 0.59424 0.30708 0.59775 0.0
C536 C 0.6261 0.27975 0.58948 0.0
C537 C 0.5982 0.3004 0.57321 0.0
C538 C 0.57869 0.34524 0.70553 0.0
C539 C 0.57314 0.3519 0.74903 0.0
N540 N 0.56229 0.37012 0.74363 0.0
C541 C 0.56748 0.36401 0.70038 0.0
C542 C 0.58157 0.3391 0.73001 0.0
C543 C 0.55933 0.37639 0.71993 0.0
C544 C 0.55657 0.35931 0.61834 0.0
N545 N 0.57664 0.35736 0.63173 0.0
C546 C 0.59271 0.39882 0.62595 0.0
C547 C 0.59459 0.37674 0.6355 0.0
C548 C 0.57214 0.40142 0.61219 0.0
C549 C 0.55403 0.38094 0.60829 0.0
H550 H 0.54225 0.34417 0.61575 0.0
H551 H 0.61045 0.37526 0.64625 0.0
C552 C 0.64614 0.2906 0.69097 0.0
N553 N 0.63372 0.30552 0.70136 0.0
C554 C 0.66722 0.28904 0.70415 0.0
C555 C 0.66267 0.31788 0.73914 0.0
C556 C 0.64172 0.31913 0.7251 0.0
C557 C 0.67588 0.30251 0.72888 0.0
H558 H 0.63955 0.2795 0.67242 0.0
H559 H 0.63179 0.33084 0.73339 0.0
C560 C 0.53228 0.28746 0.62405 0.0
N561 N 0.49369 0.26369 0.58982 0.0
C562 C 0.51486 0.27265 0.63231 0.0
C563 C 0.52997 0.29033 0.5984 0.0
C564 C 0.49551 0.26075 0.61471 0.0
C565 C 0.51036 0.27811 0.58139 0.0
C566 C 0.57563 0.2518 0.68254 0.0
C567 C 0.55402 0.23721 0.67473 0.0
C568 C 0.59343 0.24084 0.69054 0.0
C569 C 0.55064 0.21177 0.67452 0.0
C570 C 0.58936 0.21534 0.69013 0.0
N571 N 0.56823 0.20145 0.68214 0.0
C572 C 0.58973 0.2347 0.62748 0.0
C573 C 0.55238 0.23314 0.60846 0.0
C574 C 0.58771 0.20966 0.61744 0.0
N575 N 0.57207 0.24598 0.62346 0.0
C576 C 0.54969 0.20811 0.59792 0.0
C577 C 0.56726 0.19564 0.60294 0.0
H578 H 0.60519 0.24478 0.63974 0.0
H579 H 0.53834 0.24184 0.6053 0.0
C580 C 0.52032 0.31459 0.69201 0.0
N581 N 0.53522 0.3 0.69719 0.0
C582 C 0.50117 0.31295 0.70325 0.0
C583 C 0.51284 0.28142 0.72527 0.0
C584 C 0.53187 0.28377 0.71374 0.0
C585 C 0.4969 0.29587 0.71987 0.0
H586 H 0.52304 0.3272 0.67862 0.0
H587 H 0.54378 0.27228 0.71772 0.0
O588 O 0.60243 0.30593 0.64252 0.0
O589 O 0.5861 0.33235 0.68646 0.0
O590 O 0.55133 0.29935 0.64104 0.0
O591 O 0.5794 0.27662 0.68202 0.0
H592 H 0.63243 0.28041 0.62998 0.0
H593 H 0.58186 0.31787 0.6006 0.0
H594 H 0.63851 0.26911 0.58601 0.0
H595 H 0.5888 0.30592 0.55704 0.0
H596 H 0.57515 0.34728 0.76804 0.0
H597 H 0.56495 0.36882 0.68145 0.0
H598 H 0.58994 0.32437 0.73416 0.0
H599 H 0.55057 0.39092 0.71623 0.0
H600 H 0.60736 0.4137 0.62921 0.0
H601 H 0.53776 0.38182 0.59805 0.0
H602 H 0.67668 0.27748 0.69476 0.0
H603 H 0.66829 0.32862 0.7581 0.0
H604 H 0.5162 0.27032 0.65206 0.0
H605 H 0.54315 0.3018 0.59163 0.0
H606 H 0.48194 0.24919 0.62084 0.0
H607 H 0.50839 0.28011 0.56148 0.0
H608 H 0.54007 0.24539 0.66854 0.0
H609 H 0.61024 0.25186 0.69677 0.0
H610 H 0.53403 0.20022 0.66823 0.0
H611 H 0.603 0.20659 0.69608 0.0
H612 H 0.60178 0.20109 0.622 0.0
H613 H 0.53375 0.19849 0.5863 0.0
H614 H 0.48945 0.32447 0.69839 0.0
H615 H 0.51065 0.26835 0.73833 0.0
Li616 Li 0.01845 0.28932 0.9696 0.0
Li617 Li 0.99079 0.26166 0.9328 0.0
Li618 Li 1.01633 0.24222 0.96675 0.0
Li619 Li 0.03414 0.26611 0.9361 0.0
C620 C 0.97983 0.26793 0.9888 0.0
N621 N 0.95491 0.27924 0.02527 0.0
C622 C 0.96253 0.28032 0.98322 0.0
C623 C 0.9844 0.26122 0.0129 0.0
C624 C 0.95012 0.28587 1.00193 0.0
C625 C 0.97165 0.26715 0.0311 0.0
C626 C 1.01245 0.31294 0.92665 0.0
C627 C 0.0264 0.35062 0.91166 0.0
N628 N 1.00813 0.35916 0.91669 0.0
C629 C 0.99377 0.32202 0.93157 0.0
C630 C 0.02888 0.32727 0.91654 0.0
C631 C 0.99191 0.34547 0.92645 0.0
C632 C 0.03975 0.34099 0.98337 0.0
N633 N 0.02325 0.32383 0.98906 0.0
C634 C 1.01225 0.35628 0.01513 0.0
C635 C 1.0099 0.33113 1.00516 0.0
C636 C 0.0284 0.37454 1.0085 0.0
C637 C 0.04252 0.3663 0.99271 0.0
H638 H 0.05038 0.33511 0.97074 0.0
H639 H 0.99715 0.31761 1.01015 0.0
C640 C 0.94147 0.25129 0.91859 0.0
N641 N 0.96098 0.26025 0.91088 0.0
C642 C 0.92059 0.25266 0.90457 0.0
C643 C 0.93982 0.27181 0.87435 0.0
C644 C 0.96035 0.27029 0.88904 0.0
C645 C 0.91954 0.26317 0.88217 0.0
H646 H 0.94206 0.2434 0.93594 0.0
H647 H 0.97586 0.27751 0.88311 0.0
C648 C 0.05375 0.27084 0.99859 0.0
N649 N 0.07405 0.27035 0.04804 0.0
C650 C 0.07292 0.26111 1.00318 0.0
C651 C 0.04494 0.28032 0.01916 0.0
C652 C 0.08292 0.26102 0.02832 0.0
C653 C 0.05543 0.27992 0.04401 0.0
C654 C 1.01458 0.22254 0.90707 0.0
C655 C 0.03249 0.21063 0.90992 0.0
C656 C 1.00257 0.22219 0.8827 0.0
C657 C 0.03818 0.1986 0.88825 0.0
C658 C 1.00875 0.20991 0.86151 0.0
N659 N 0.02629 0.1985 0.8647 0.0
C660 C 1.00239 0.20005 0.99485 0.0
C661 C 0.03783 0.20297 0.98337 0.0
C662 C 1.00464 0.17859 1.00558 0.0
N663 N 0.01888 0.212 0.98391 0.0
C664 C 0.04071 0.1816 0.99376 0.0
C665 C 0.02397 0.16868 1.00503 0.0
H666 H 0.98728 0.20701 0.99519 0.0
H667 H 0.05082 0.21221 0.97453 0.0
C668 C 0.08055 0.27368 0.93237 0.0
N669 N 0.05969 0.26878 0.91767 0.0
C670 C 0.09975 0.27579 0.92129 0.0
C671 C 0.07607 0.2683 0.87985 0.0
C672 C 0.05723 0.26634 0.89176 0.0
C673 C 0.09781 0.27286 0.8946 0.0
H674 H 0.08236 0.27621 0.95289 0.0
H675 H 0.04065 0.26285 0.88024 0.0
O676 O 0.99191 0.26188 0.97062 0.0
O677 O 1.01479 0.29025 0.93198 0.0
O678 O 0.04349 0.27069 0.97408 0.0
O679 O 1.00902 0.23481 0.92798 0.0
H680 H 0.95884 0.28581 0.96476 0.0
H681 H 0.99768 0.25155 0.01752 0.0
H682 H 0.93673 0.29551 0.99789 0.0
H683 H 0.97504 0.2621 0.04984 0.0
H684 H 0.03901 0.36197 0.90391 0.0
H685 H 0.98096 0.31117 0.93948 0.0
H686 H 0.04346 0.32046 0.91268 0.0
H687 H 0.9776 0.35279 0.93028 0.0
H688 H 1.00142 0.36132 0.02794 0.0
H689 H 0.05528 0.37938 0.98694 0.0
H690 H 0.90538 0.24553 0.91118 0.0
H691 H 0.93981 0.27982 0.85708 0.0
H692 H 0.07988 0.25346 0.98752 0.0
H693 H 0.03009 0.2878 0.016 0.0
H694 H 0.09771 0.25347 0.03214 0.0
H695 H 0.04874 0.28716 0.06009 0.0
H696 H 0.04205 0.21092 0.92863 0.0
H697 H 0.9887 0.23138 0.8802 0.0
H698 H 0.05208 0.18942 0.89015 0.0
H699 H 0.99965 0.20951 0.84252 0.0
H700 H 0.99134 0.17005 0.01447 0.0
H701 H 0.05589 0.175 0.99247 0.0
H702 H 0.11604 0.28012 0.93365 0.0
H703 H 0.07361 0.26602 0.85923 0.0
Li704 Li 0.43813 0.05625 0.32123 0.0
Li705 Li 0.40399 0.02736 0.29113 0.0
Li706 Li 0.43387 0.0512 0.26667 0.0
Li707 Li 0.40492 0.07758 0.2926 0.0
C708 C 0.44138 1.00502 0.29495 0.0
N709 N 0.44912 0.95852 0.29889 0.0
C710 C 0.43818 0.99472 0.31675 0.0
C711 C 0.44864 0.99177 0.27522 0.0
C712 C 0.44214 0.97116 0.31836 0.0
C713 C 0.45244 0.96826 0.27756 0.0
C714 C 0.39082 0.04866 0.33712 0.0
C715 C 0.35599 0.04872 0.35174 0.0
N716 N 0.36243 0.0357 0.3702 0.0
C717 C 0.39714 0.03533 0.35626 0.0
C718 C 0.37014 0.05549 0.33484 0.0
C719 C 0.38253 0.02894 0.3728 0.0
C720 C 0.45386 0.06808 0.38026 0.0
N721 N 0.45853 0.05704 0.35798 0.0
C722 C 0.48787 0.04244 0.3842 0.0
C723 C 0.47549 0.04441 0.36005 0.0
C724 C 0.48332 0.05334 0.40764 0.0
C725 C 0.46587 0.06653 0.40483 0.0
H726 H 0.44045 0.078 0.37923 0.0
H727 H 0.47936 0.03526 0.34284 0.0
C728 C 0.38855 0.97079 0.27548 0.0
N729 N 0.3845 0.99059 0.29056 0.0
C730 C 0.37827 0.94588 0.27646 0.0
C731 C 0.35864 0.96088 0.30776 0.0
C732 C 0.36936 0.98556 0.30629 0.0
C733 C 0.36285 0.94003 0.29282 0.0
H734 H 0.40033 0.97409 0.26282 0.0
H735 H 0.36547 1.00063 0.31815 0.0
C736 C 0.45795 0.10143 0.29551 0.0
N737 N 0.49375 0.1385 0.29341 0.0
C738 C 0.45423 0.12293 0.28657 0.0
C739 C 0.47982 0.09873 0.30338 0.0
C740 C 0.47257 0.14148 0.28567 0.0
C741 C 0.49771 0.1177 0.30216 0.0
C742 C 0.37962 0.03271 0.24802 0.0
C743 C 0.38029 1.0143 0.22813 0.0
C744 C 0.35923 0.03433 0.25538 0.0
C745 C 0.36044 0.9979 0.21573 0.0
C746 C 0.33975 0.01759 0.24251 0.0
N747 N 0.34075 0.99987 0.22311 0.0
C748 C 0.44634 0.02808 0.2147 0.0
C749 C 0.46832 0.06758 0.23005 0.0
C750 C 0.45739 0.0258 0.19309 0.0
N751 N 0.45162 0.04879 0.23328 0.0
C752 C 0.47985 0.06594 0.20879 0.0
C753 C 0.47491 0.0447 0.18936 0.0
H754 H 0.43344 1.01273 0.21643 0.0
H755 H 0.47298 0.08432 0.244 0.0
C756 C 0.39672 0.13253 0.30944 0.0
N757 N 0.38752 0.1102 0.29368 0.0
C758 C 0.38583 0.15331 0.31047 0.0
C759 C 0.35562 0.12923 0.27912 0.0
C760 C 0.36703 0.10893 0.27858 0.0
C761 C 0.36449 0.15249 0.2954 0.0
H762 H 0.41283 0.13464 0.32167 0.0
H763 H 0.35912 0.09199 0.2656 0.0
O764 O 0.43725 0.02788 0.29287 0.0
O765 O 0.40487 0.05521 0.3208 0.0
O766 O 0.44026 0.08295 0.29627 0.0
O767 O 0.39895 0.04823 0.26119 0.0
H768 H 0.4325 1.00474 0.33215 0.0
H769 H 0.45123 0.99953 0.25825 0.0
H770 H 0.43963 0.9629 0.33506 0.0
H771 H 0.45799 0.95774 0.2624 0.0
H772 H 0.33991 0.05383 0.35018 0.0
H773 H 0.41306 0.02985 0.35823 0.0
H774 H 0.36507 0.0659 0.32016 0.0
H775 H 0.38716 0.01857 0.38766 0.0
H776 H 0.50078 0.03184 0.38436 0.0
H777 H 0.46152 0.07603 0.42153 0.0
H778 H 0.38307 0.93127 0.26478 0.0
H779 H 0.34692 0.95827 0.32061 0.0
H780 H 0.43736 0.12522 0.28035 0.0
H781 H 0.48292 0.08212 0.31028 0.0
H782 H 0.46998 0.15824 0.27879 0.0
H783 H 0.51475 0.11587 0.30816 0.0
H784 H 0.39599 1.01258 0.22248 0.0
H785 H 0.35853 0.04817 0.2711 0.0
H786 H 0.36071 0.98353 0.20031 0.0
H787 H 0.32385 0.0186 0.24803 0.0
H788 H 0.45233 1.0088 0.1795 0.0
H789 H 0.49245 0.0818 0.20756 0.0
H790 H 0.39425 0.17002 0.32357 0.0
H791 H 0.33986 0.12652 0.26609 0.0
Li792 Li 0.27377 0.18939 0.56032 0.0
Li793 Li 0.28731 0.15816 0.53608 0.0
Li794 Li 0.27124 0.18914 0.51282 0.0
Li795 Li 0.24534 0.15457 0.53269 0.0
C796 C 0.31412 0.21241 0.55646 0.0
N797 N 0.34558 0.24873 0.59018 0.0
C798 C 0.32699 0.20635 0.57753 0.0
C799 C 0.31722 0.23697 0.55257 0.0
C800 C 0.34279 0.22497 0.59437 0.0
C801 C 0.33326 0.25505 0.5698 0.0
C802 C 0.27368 0.13478 0.57339 0.0
C803 C 0.26672 0.09146 0.57647 0.0
N804 N 0.28509 0.09584 0.59533 0.0
C805 C 0.29238 0.13889 0.59294 0.0
C806 C 0.26066 0.11091 0.56515 0.0
C807 C 0.29792 0.11894 0.60373 0.0
C808 C 0.27056 0.19567 0.61283 0.0
N809 N 0.27728 0.20898 0.59487 0.0
C810 C 0.28774 0.24593 0.62643 0.0
C811 C 0.28537 0.23385 0.60119 0.0
C812 C 0.2813 0.23245 0.64539 0.0
C813 C 0.27234 0.20702 0.63811 0.0
H814 H 0.26371 0.17607 0.60758 0.0
H815 H 0.28988 0.24449 0.58673 0.0
C816 C 0.30824 0.11469 0.53537 0.0
N817 N 0.31185 0.13961 0.53609 0.0
C818 C 0.32615 0.10246 0.53658 0.0
C819 C 0.35134 0.14139 0.53843 0.0
C820 C 0.33296 0.15285 0.53708 0.0
C821 C 0.34824 0.11584 0.53862 0.0
H822 H 0.29145 0.10414 0.53386 0.0
H823 H 0.33567 0.17249 0.53701 0.0
C824 C 0.24162 0.21179 0.54643 0.0
N825 N 0.23194 0.25288 0.57295 0.0
C826 C 0.22759 0.20908 0.56429 0.0
C827 C 0.25066 0.23533 0.54195 0.0
C828 C 0.22294 0.23011 0.57755 0.0
C829 C 0.24556 0.2559 0.55556 0.0
C830 C 0.26968 0.13305 0.48994 0.0
C831 C 0.28717 0.13892 0.47676 0.0
C832 C 0.25951 0.10837 0.48919 0.0
C833 C 0.29435 0.11986 0.46313 0.0
C834 C 0.26715 0.08985 0.4753 0.0
N835 N 0.28428 0.09594 0.4627 0.0
C836 C 0.29395 0.22056 0.4813 0.0
C837 C 0.2557 0.20454 0.46376 0.0
C838 C 0.29668 0.23284 0.46037 0.0
N839 N 0.27363 0.20691 0.48295 0.0
C840 C 0.25784 0.21612 0.44217 0.0
C841 C 0.27856 0.23063 0.44022 0.0
H842 H 0.30827 0.22169 0.49607 0.0
H843 H 0.23971 0.19343 0.465 0.0
C844 C 0.20943 0.13475 0.55595 0.0
N845 N 0.21514 0.13445 0.53248 0.0
C846 C 0.18873 0.12124 0.55899 0.0
C847 C 0.17949 0.10731 0.5136 0.0
C848 C 0.20052 0.12115 0.51139 0.0
C849 C 0.1734 0.10691 0.53775 0.0
H850 H 0.22111 0.14549 0.57251 0.0
H851 H 0.20516 0.12109 0.49283 0.0
O852 O 0.29851 0.1944 0.53984 0.0
O853 O 0.26811 0.15404 0.56247 0.0
O854 O 0.24701 0.19155 0.53386 0.0
O855 O 0.26284 0.15139 0.50395 0.0
H856 H 0.32477 0.18747 0.58085 0.0
H857 H 0.30709 0.24214 0.53673 0.0
H858 H 0.35282 0.22054 0.61078 0.0
H859 H 0.33577 0.27413 0.56708 0.0
H860 H 0.25687 0.07287 0.57019 0.0
H861 H 0.30249 0.15728 0.59972 0.0
H862 H 0.24619 0.10738 0.54996 0.0
H863 H 0.31241 0.12182 0.61879 0.0
H864 H 0.29427 0.26567 0.63099 0.0
H865 H 0.26706 0.19587 0.65198 0.0
H866 H 0.32264 0.08264 0.53575 0.0
H867 H 0.36792 0.15259 0.53982 0.0
H868 H 0.22059 0.19097 0.56806 0.0
H869 H 0.26166 0.23769 0.52828 0.0
H870 H 0.21222 0.22833 0.59155 0.0
H871 H 0.2525 0.27426 0.55239 0.0
H872 H 0.29524 0.15798 0.4773 0.0
H873 H 0.24601 0.10359 0.49941 0.0
H874 H 0.30796 0.12409 0.45295 0.0
H875 H 0.25953 0.07065 0.47462 0.0
H876 H 0.31303 0.24354 0.45968 0.0
H877 H 0.24334 0.2139 0.42723 0.0
H878 H 0.18477 0.12207 0.57794 0.0
H879 H 0.16831 0.0966 0.49664 0.0
Li880 Li 0.16483 0.09136 0.83069 0.0
Li881 Li 0.13491 0.06222 0.85017 0.0
Li882 Li 0.16205 0.04681 0.82858 0.0
Li883 Li 0.13234 0.05912 0.80183 0.0
C884 C 0.18537 0.0678 0.87655 0.0
N885 N 0.2197 0.05779 0.91027 0.0
C886 C 0.18153 0.04727 0.8888 0.0
C887 C 0.20662 0.08336 0.88159 0.0
C888 C 0.19913 0.04248 0.90573 0.0
C889 C 0.22377 0.07796 0.89868 0.0
C890 C 0.11887 0.1052 0.82115 0.0
C891 C 0.08604 0.12238 0.82169 0.0
N892 N 0.09424 0.1394 0.80774 0.0
C893 C 0.12703 0.12293 0.80693 0.0
C894 C 0.09827 0.10497 0.82872 0.0
C895 C 0.11431 0.14003 0.80029 0.0
C896 C 0.19037 0.12667 0.80827 0.0
N897 N 0.18469 0.12333 0.8312 0.0
C898 C 0.20955 0.16195 0.85096 0.0
C899 C 0.19383 0.1406 0.8524 0.0
C900 C 0.21609 0.16556 0.82752 0.0
C901 C 0.20625 0.14731 0.8061 0.0
H902 H 0.18301 0.11281 0.79161 0.0
H903 H 0.18926 0.13764 0.87053 0.0
C904 C 0.11828 0.03447 0.88637 0.0
N905 N 0.11951 0.05714 0.8793 0.0
C906 C 0.10885 0.02876 0.90751 0.0
C907 C 0.10149 0.06962 0.91391 0.0
C908 C 0.11126 0.07465 0.89263 0.0
C909 C 0.10035 0.04642 0.9219 0.0
H910 H 0.12492 0.02073 0.87572 0.0
H911 H 0.11233 0.0926 0.88689 0.0
C912 C 0.18231 0.05955 0.7915 0.0
N913 N 0.21783 0.04433 0.77367 0.0
C914 C 0.17839 0.04019 0.771 0.0
C915 C 0.20434 0.07117 0.80291 0.0
C916 C 0.19656 0.03273 0.7623 0.0
C917 C 0.22205 0.06325 0.79359 0.0
C918 C 0.1075 0.02057 0.81979 0.0
C919 C 0.10172 0.99584 0.82272 0.0
C920 C 0.09064 0.03344 0.81376 0.0
C921 C 0.07914 0.98438 0.81955 0.0
C922 C 0.06826 0.02132 0.81072 0.0
N923 N 0.06302 0.99725 0.81366 0.0
C924 C 0.20221 0.02742 0.83739 0.0
C925 C 0.16866 0.99829 0.81876 0.0
C926 C 0.21452 1.00898 0.83609 0.0
N927 N 0.17968 0.02185 0.82875 0.0
C928 C 0.18033 0.97926 0.81706 0.0
C929 C 0.20361 0.98458 0.82558 0.0
H930 H 0.2108 0.04624 0.84478 0.0
H931 H 0.15082 0.99433 0.81173 0.0
C932 C 0.10275 0.06863 0.75743 0.0
N933 N 0.11389 0.05217 0.76723 0.0
C934 C 0.09268 0.06447 0.73152 0.0
C935 C 0.10511 0.02619 0.72607 0.0
C936 C 0.11459 0.03088 0.75218 0.0
C937 C 0.09413 0.04324 0.71515 0.0
H938 H 0.10204 0.08533 0.76946 0.0
H939 H 0.12325 0.01784 0.76028 0.0
O940 O 0.16841 0.07284 0.85989 0.0
O941 O 0.13121 0.08851 0.82815 0.0
O942 O 0.16474 0.06682 0.80066 0.0
O943 O 0.12957 0.03208 0.82318 0.0
H944 H 0.16524 0.03498 0.885 0.0
H945 H 0.20988 0.09931 0.87224 0.0
H946 H 0.19644 0.02655 0.91521 0.0
H947 H 0.24032 0.08976 0.90268 0.0
H948 H 0.07005 0.12238 0.82736 0.0
H949 H 0.14289 0.1233 0.80083 0.0
H950 H 0.0918 0.09147 0.83989 0.0
H951 H 0.12037 0.15379 0.78919 0.0
H952 H 0.2166 0.17542 0.86805 0.0
H953 H 0.21119 0.14846 0.78781 0.0
H954 H 0.10857 1.01068 0.91276 0.0
H955 H 0.09469 0.08374 0.92377 0.0
H956 H 0.16155 0.03089 0.76195 0.0
H957 H 0.20778 0.08576 0.81921 0.0
H958 H 0.19374 0.0177 0.74652 0.0
H959 H 0.23916 0.072 0.80237 0.0
H960 H 0.11456 0.98565 0.82757 0.0
H961 H 0.09473 0.05252 0.81138 0.0
H962 H 0.07444 0.96526 0.82182 0.0
H963 H 0.05506 0.03107 0.80602 0.0
H964 H 0.23249 1.01387 0.84262 0.0
H965 H 0.17126 0.96061 0.80909 0.0
H966 H 0.08416 0.07805 0.72429 0.0
H967 H 0.10722 1.00981 0.71445 0.0
Li968 Li 0.23761 0.89289 0.02882 0.0
Li969 Li 0.27323 0.87912 0.04005 0.0
Li970 Li 0.2695 0.91241 0.01476 0.0
Li971 Li 0.25287 0.87047 0.99553 0.0
C972 C 0.26304 0.9242 0.07191 0.0
N973 N 0.25742 0.95116 0.1163 0.0
C974 C 0.26722 0.91565 0.0951 0.0
C975 C 0.25576 0.94631 0.07125 0.0
C976 C 0.26419 0.92951 0.11733 0.0
C977 C 0.25321 0.95977 0.09391 0.0
C978 C 0.22563 0.83857 0.01433 0.0
C979 C 0.21298 0.79532 0.99643 0.0
N980 N 0.19218 0.79917 0.98839 0.0
C981 C 0.20415 0.84209 1.00567 0.0
C982 C 0.23012 0.81499 1.00951 0.0
C983 C 0.18746 0.82194 0.99269 0.0
C984 C 0.1996 0.91293 0.03014 0.0
N985 N 0.21295 0.90028 0.04313 0.0
C986 C 0.19801 0.90927 0.08079 0.0
C987 C 0.21158 0.89713 0.06753 0.0
C988 C 0.18555 0.92426 0.06847 0.0
C989 C 0.18563 0.92506 0.04249 0.0
H990 H 0.20089 0.91494 0.0107 0.0
H991 H 0.22232 0.8868 0.07732 0.0
C992 C 0.31075 0.88197 0.07891 0.0
N993 N 0.29253 0.86699 0.06317 0.0
C994 C 0.32478 0.87203 0.09575 0.0
C995 C 0.30117 0.83159 0.07922 0.0
C996 C 0.28772 0.84227 0.06279 0.0
C997 C 0.31988 0.84653 0.09614 0.0
H998 H 0.3141 0.90163 0.07873 0.0
H999 H 0.27311 0.83095 0.05012 0.0
C1000 C 0.23895 0.91778 0.9786 0.0
N1001 N 0.23946 0.95468 0.94901 0.0
C1002 C 0.2414 0.9131 0.95314 0.0
C1003 C 0.23669 0.94123 0.98897 0.0
C1004 C 0.24161 0.93199 0.9385 0.0
C1005 C 0.23703 0.95964 0.97372 0.0
C1006 C 0.30329 0.89259 0.99987 0.0
C1007 C 0.30307 0.88938 0.97361 0.0
C1008 C 0.32296 0.90471 0.01685 0.0
C1009 C 0.32258 0.89843 0.96479 0.0
C1010 C 0.34211 0.91354 1.00726 0.0
N1011 N 0.34152 0.91024 0.98165 0.0
C1012 C 0.29791 0.9584 0.03246 0.0
C1013 C 0.29435 0.94566 0.98799 0.0
C1014 C 0.31688 0.97637 0.03282 0.0
N1015 N 0.28771 0.94273 0.01053 0.0
C1016 C 0.31361 0.9631 0.98757 0.0
C1017 C 0.32581 0.97761 0.01055 0.0
H1018 H 0.29291 0.95541 0.05026 0.0
H1019 H 0.28637 0.93269 0.9709 0.0
C1020 C 0.23711 0.84348 0.94409 0.0
N1021 N 0.25058 0.84584 0.96715 0.0
C1022 C 0.24193 0.83004 0.92264 0.0
C1023 C 0.27276 0.81985 0.94974 0.0
C1024 C 0.26722 0.8332 0.97059 0.0
C1025 C 0.2609 0.81945 0.92523 0.0
H1026 H 0.22376 0.85344 0.94203 0.0
H1027 H 0.27753 0.83537 0.98927 0.0
O1028 O 0.26688 0.91146 0.05014 0.0
O1029 O 0.24233 0.85827 0.0265 0.0
O1030 O 0.23858 0.89948 0.99322 0.0
O1031 O 0.28429 0.88412 1.0089 0.0
H1032 H 0.27272 0.8985 0.09594 0.0
H1033 H 0.25243 0.95319 0.05347 0.0
H1034 H 0.26735 0.92313 0.13542 0.0
H1035 H 0.24787 0.97708 0.0937 0.0
H1036 H 0.21626 0.77702 0.99256 0.0
H1037 H 0.2004 0.8602 1.00862 0.0
H1038 H 0.2467 0.81187 0.0154 0.0
H1039 H 0.17077 0.82445 0.98592 0.0
H1040 H 0.19818 0.90803 0.10073 0.0
H1041 H 0.17628 0.93649 0.03235 0.0
H1042 H 0.33886 0.88417 0.10881 0.0
H1043 H 0.29626 0.81201 0.07955 0.0
H1044 H 0.24347 0.89523 0.94485 0.0
H1045 H 0.23489 0.94524 1.00864 0.0
H1046 H 0.24361 0.92865 0.91881 0.0
H1047 H 0.2354 0.97788 0.98154 0.0
H1048 H 0.28793 0.88041 0.96013 0.0
H1049 H 0.32338 0.90758 0.03718 0.0
H1050 H 0.32261 0.89618 0.94452 0.0
H1051 H 0.35741 0.92307 0.02018 0.0
H1052 H 0.32588 0.98728 0.05089 0.0
H1053 H 0.32019 0.96313 0.97008 0.0
H1054 H 0.23199 0.82947 0.90403 0.0
H1055 H 0.28741 0.81188 0.95257 0.0
Li1056 Li 0.30959 0.41368 0.07954 0.0
Li1057 Li 0.32595 0.38194 0.10336 0.0
Li1058 Li 0.35168 0.41493 0.0827 0.0
Li1059 Li 0.32372 0.38024 0.05533 0.0
C1060 C 0.3312 0.43885 0.12797 0.0
N1061 N 0.32489 0.47749 0.16161 0.0
C1062 C 0.31831 0.43416 0.14659 0.0
C1063 C 0.3411 0.46315 0.12662 0.0
C1064 C 0.31524 0.45396 0.16337 0.0
C1065 C 0.33765 0.48244 0.14375 0.0
C1066 C 0.28288 0.36035 0.05808 0.0
C1067 C 0.26887 0.31913 0.03443 0.0
N1068 N 0.25222 0.32712 0.02041 0.0
C1069 C 0.26563 0.36815 0.04345 0.0
C1070 C 0.28452 0.33564 0.05357 0.0
C1071 C 0.25029 0.35107 0.02451 0.0
C1072 C 0.27886 0.44164 0.05671 0.0
N1073 N 0.28505 0.43208 0.07812 0.0
C1074 C 0.25429 0.444 0.09541 0.0
C1075 C 0.27303 0.43304 0.09726 0.0
C1076 C 0.24732 0.45365 0.07336 0.0
C1077 C 0.26014 0.45255 0.05398 0.0
H1078 H 0.28807 0.4402 0.0413 0.0
H1079 H 0.2775 0.42461 0.11373 0.0
C1080 C 0.33327 0.37469 0.15759 0.0
N1081 N 0.32258 0.36423 0.13332 0.0
C1082 C 0.32899 0.36309 0.1787 0.0
C1083 C 0.30347 0.32962 0.1497 0.0
C1084 C 0.308 0.34193 0.12927 0.0
C1085 C 0.31349 0.34036 0.17511 0.0
H1086 H 0.34474 0.39245 0.16076 0.0
H1087 H 0.2995 0.33372 0.11009 0.0
C1088 C 0.33551 0.43512 0.0412 0.0
N1089 N 0.35121 0.47466 0.01827 0.0
C1090 C 0.34281 0.43114 0.01802 0.0
C1091 C 0.336 0.45917 0.0526 0.0
C1092 C 0.35076 0.45139 1.00677 0.0
C1093 C 0.34403 0.47892 0.04073 0.0
C1094 C 0.35875 0.35842 0.07596 0.0
C1095 C 0.37716 0.36068 0.06372 0.0
C1096 C 0.34973 0.33565 0.08226 0.0
C1097 C 0.38606 0.33997 0.05768 0.0
C1098 C 0.3591 0.31538 0.07591 0.0
N1099 N 0.37691 0.31794 0.06384 0.0
C1100 C 0.39537 0.45139 0.10241 0.0
C1101 C 0.38962 0.43027 0.06018 0.0
C1102 C 0.41654 0.46472 0.09995 0.0
N1103 N 0.38217 0.43464 0.08251 0.0
C1104 C 0.41043 0.44324 0.05686 0.0
C1105 C 0.42423 0.46104 0.07673 0.0
H1106 H 0.3895 0.4546 0.12019 0.0
H1107 H 0.3793 0.41663 0.04469 0.0
C1108 C 0.30569 0.36944 1.00224 0.0
N1109 N 0.31831 0.36058 0.02053 0.0
C1110 C 0.30214 0.35884 0.97642 0.0
C1111 C 0.32438 0.32975 0.98822 0.0
C1112 C 0.32736 0.3408 0.01392 0.0
C1113 C 0.31167 0.33879 0.96896 0.0
H1114 H 0.29872 0.38524 1.00766 0.0
H1115 H 0.33716 0.33362 0.02838 0.0
O1116 O 0.33435 0.41971 0.11134 0.0
O1117 O 0.29855 0.37699 0.07606 0.0
O1118 O 0.32809 0.41556 0.05277 0.0
O1119 O 0.3499 0.37849 0.08225 0.0
H1120 H 0.31052 0.41544 0.14788 0.0
H1121 H 0.35141 0.46707 0.11256 0.0
H1122 H 0.30517 0.45062 0.17777 0.0
H1123 H 0.34516 0.50135 0.14289 0.0
H1124 H 0.27003 0.29999 0.03062 0.0
H1125 H 0.26419 0.38722 0.04654 0.0
H1126 H 0.29799 0.32937 0.06438 0.0
H1127 H 0.23689 0.35687 0.013 0.0
H1128 H 0.24488 0.44414 0.11075 0.0
H1129 H 0.25565 0.45994 0.03672 0.0
H1130 H 0.33724 0.37226 0.19774 0.0
H1131 H 0.29198 0.31181 0.14552 0.0
H1132 H 0.34262 0.41263 1.00898 0.0
H1133 H 0.33014 0.46253 0.07036 0.0
H1134 H 0.35662 0.4486 0.98893 0.0
H1135 H 0.34454 0.49765 0.04937 0.0
H1136 H 0.3845 0.37818 0.05889 0.0
H1137 H 0.33561 0.33362 0.09189 0.0
H1138 H 0.40025 0.34143 0.04812 0.0
H1139 H 0.35222 0.29762 0.08059 0.0
H1140 H 0.42654 0.4782 0.11585 0.0
H1141 H 0.41569 0.43931 0.03877 0.0
H1142 H 0.29251 0.36677 0.96233 0.0
H1143 H 0.33196 0.31425 0.98346 0.0
Li1144 Li 0.86449 0.21675 0.1395 0.0
Li1145 Li 0.88117 0.18246 0.13167 0.0
Li1146 Li 0.868 0.20417 0.09788 0.0
Li1147 Li 0.83983 0.17873 0.11625 0.0
C1148 C 0.90608 0.23797 0.1416 0.0
N1149 N 0.93189 0.28109 0.17118 0.0
C1150 C 0.9223 0.23701 0.16249 0.0
C1151 C 0.90305 0.26086 0.13574 0.0
C1152 C 0.93518 0.25902 0.17719 0.0
C1153 C 0.91622 0.28245 0.15095 0.0
C1154 C 0.85522 0.18902 0.1761 0.0
C1155 C 0.87036 0.1943 0.22108 0.0
N1156 N 0.85069 0.199 0.22644 0.0
C1157 C 0.83511 0.19379 0.18205 0.0
C1158 C 0.87298 0.18922 0.19573 0.0
C1159 C 0.83318 0.19888 0.20763 0.0
C1160 C 0.84316 0.25191 0.15931 0.0
N1161 N 0.86218 0.24321 0.16416 0.0
C1162 C 0.86999 0.26372 0.20727 0.0
C1163 C 0.87597 0.24945 0.18734 0.0
C1164 C 0.84936 0.27095 0.20335 0.0
C1165 C 0.83637 0.26589 0.17875 0.0
H1166 H 0.83211 0.24615 0.14101 0.0
H1167 H 0.8905 0.24154 0.1911 0.0
C1168 C 0.9228 0.16793 0.13959 0.0
N1169 N 0.90057 0.16162 0.13986 0.0
C1170 C 0.93478 0.14951 0.13551 0.0
C1171 C 0.90095 0.11883 0.13332 0.0
C1172 C 0.88982 0.1378 0.13826 0.0
C1173 C 0.92335 0.12463 0.13029 0.0
H1174 H 0.93069 0.18694 0.13989 0.0
H1175 H 0.87197 0.13348 0.13779 0.0
C1176 C 0.83135 0.22246 0.08997 0.0
N1177 N 0.81247 0.2426 0.04983 0.0
C1178 C 0.81395 0.20792 0.07118 0.0
C1179 C 0.83896 0.24732 0.08848 0.0
C1180 C 0.80466 0.21843 0.05101 0.0
C1181 C 0.82925 0.25713 0.068 0.0
C1182 C 0.87386 0.15614 0.0821 0.0
C1183 C 0.89489 0.16831 0.07891 0.0
C1184 C 0.8653 0.13164 0.07031 0.0
C1185 C 0.90694 0.15581 0.06379 0.0
C1186 C 0.87795 0.11972 0.0555 0.0
N1187 N 0.89831 0.13196 0.05253 0.0
C1188 C 0.88566 0.23417 0.06365 0.0
C1189 C 0.85623 0.1995 0.04585 0.0
C1190 C 0.88321 0.24344 0.04075 0.0
N1191 N 0.87146 0.21323 0.066 0.0
C1192 C 0.85288 0.20829 0.02287 0.0
C1193 C 0.8657 0.23118 0.02059 0.0
H1194 H 0.89795 0.24441 0.0799 0.0
H1195 H 0.84529 0.18282 0.04838 0.0
C1196 C 0.79431 0.17004 0.11502 0.0
N1197 N 0.81114 0.15852 0.1109 0.0
C1198 C 0.77239 0.15654 0.11089 0.0
C1199 C 0.78562 0.11942 0.09897 0.0
C1200 C 0.80737 0.13372 0.10327 0.0
C1201 C 0.76784 0.13097 0.10247 0.0
H1202 H 0.79796 0.18979 0.12135 0.0
H1203 H 0.82121 0.12511 0.10047 0.0
O1204 O 0.89349 0.21662 0.12678 0.0
O1205 O 0.85738 0.18371 0.15119 0.0
O1206 O 0.84095 0.21242 0.10969 0.0
O1207 O 0.86173 0.16798 0.09688 0.0
H1208 H 0.92466 0.21952 0.16763 0.0
H1209 H 0.89055 0.26197 0.11975 0.0
H1210 H 0.9477 0.25855 0.19349 0.0
H1211 H 0.91397 0.30028 0.14667 0.0
H1212 H 0.88395 0.1945 0.23648 0.0
H1213 H 0.82121 0.19371 0.16707 0.0
H1214 H 0.88863 0.18548 0.1914 0.0
H1215 H 0.81778 0.20275 0.21254 0.0
H1216 H 0.8804 0.26718 0.22608 0.0
H1217 H 0.82009 0.27052 0.17508 0.0
H1218 H 0.95224 0.15471 0.1341 0.0
H1219 H 0.89147 0.09994 0.12934 0.0
H1220 H 0.80797 0.18859 0.07183 0.0
H1221 H 0.85225 0.25891 0.10295 0.0
H1222 H 0.79134 0.20733 0.03622 0.0
H1223 H 0.83506 0.27631 0.06656 0.0
H1224 H 0.9019 0.1872 0.08804 0.0
H1225 H 0.84908 0.12192 0.07264 0.0
H1226 H 0.9232 0.16505 0.0611 0.0
H1227 H 0.87157 0.10073 0.04633 0.0
H1228 H 0.894 0.26067 0.03935 0.0
H1229 H 0.83922 0.19821 1.00783 0.0
H1230 H 0.75915 0.16595 0.11439 0.0
H1231 H 0.78266 0.09968 0.09269 0.0
Li1232 Li 0.19282 0.54404 0.32197 0.0
Li1233 Li 0.16209 0.52033 0.34534 0.0
Li1234 Li 0.19104 0.49387 0.31906 0.0
Li1235 Li 0.15931 0.5165 0.29088 0.0
C1236 C 0.21615 0.53198 0.36817 0.0
N1237 N 0.25537 0.55108 0.40316 0.0
C1238 C 0.21712 0.55143 0.38773 0.0
C1239 C 0.23506 0.52209 0.36655 0.0
C1240 C 0.23712 0.56087 0.4052 0.0
C1241 C 0.25476 0.53205 0.38437 0.0
C1242 C 0.15944 0.56906 0.32365 0.0
C1243 C 0.15204 0.60573 0.30797 0.0
N1244 N 0.16075 0.61916 0.33157 0.0
C1245 C 0.16812 0.58318 0.34779 0.0
C1246 C 0.15117 0.58036 0.3036 0.0
C1247 C 0.16872 0.6085 0.3514 0.0
C1248 C 0.20759 0.59056 0.30017 0.0
N1249 N 0.21217 0.58051 0.32183 0.0
C1250 C 0.23822 0.61985 0.34073 0.0
C1251 C 0.2274 0.59511 0.34197 0.0
C1252 C 0.23391 0.63066 0.31852 0.0
C1253 C 0.218 0.61511 0.29819 0.0
H1254 H 0.19531 0.57967 0.2842 0.0
H1255 H 0.23121 0.58788 0.3594 0.0
C1256 C 0.12495 0.50611 0.37932 0.0
N1257 N 0.14436 0.52253 0.37858 0.0
C1258 C 0.11333 0.50782 0.40046 0.0
C1259 C 0.14129 0.54303 0.42118 0.0
C1260 C 0.15233 0.54081 0.3996 0.0
C1261 C 0.12104 0.52665 0.42234 0.0
H1262 H 0.11814 0.49126 0.36342 0.0
H1263 H 0.16746 0.55421 0.39998 0.0
C1264 C 0.21003 0.52736 0.28104 0.0
N1265 N 0.24546 0.54963 0.26073 0.0
C1266 C 0.2062 0.53392 0.2568 0.0
C1267 C 0.23188 0.53191 0.29485 0.0
C1268 C 0.22434 0.54521 0.24688 0.0
C1269 C 0.24956 0.54325 0.28429 0.0
C1270 C 0.13744 0.47063 0.30555 0.0
C1271 C 0.14 0.44801 0.29331 0.0
C1272 C 0.11603 0.47447 0.3071 0.0
C1273 C 0.12099 0.42944 0.28299 0.0
C1274 C 0.09744 0.45545 0.29653 0.0
N1275 N 0.10029 0.43352 0.2848 0.0
C1276 C 0.1989 0.43985 0.32733 0.0
C1277 C 0.22699 0.46034 0.30872 0.0
C1278 C 0.20892 0.4185 0.3268 0.0
N1279 N 0.20765 0.46084 0.31828 0.0
C1280 C 0.23755 0.43935 0.30794 0.0
C1281 C 0.22878 0.41721 0.3168 0.0
H1282 H 0.18384 0.43932 0.33524 0.0
H1283 H 0.23461 0.47636 0.30141 0.0
C1284 C 0.14429 0.53525 0.24097 0.0
N1285 N 0.13918 0.51588 0.25386 0.0
C1286 C 0.13185 0.53626 0.21648 0.0
C1287 C 0.10867 0.4973 0.21762 0.0
C1288 C 0.12157 0.49696 0.24208 0.0
C1289 C 0.11328 0.51731 0.20405 0.0
H1290 H 0.1582 0.55038 0.24965 0.0
H1291 H 0.11731 0.48125 0.25151 0.0
O1292 O 0.19673 0.52229 0.35092 0.0
O1293 O 0.15952 0.54443 0.31963 0.0
O1294 O 0.19248 0.51693 0.29145 0.0
O1295 O 0.1558 0.48911 0.31552 0.0
H1296 H 0.20271 0.55936 0.38924 0.0
H1297 H 0.23451 0.50681 0.35173 0.0
H1298 H 0.23814 0.57603 0.42034 0.0
H1299 H 0.26954 0.5246 0.38329 0.0
H1300 H 0.1458 0.61474 0.29259 0.0
H1301 H 0.17464 0.57472 0.36346 0.0
H1302 H 0.14416 0.56968 0.28489 0.0
H1303 H 0.17558 0.61968 0.36994 0.0
H1304 H 0.25013 0.63038 0.35723 0.0
H1305 H 0.21298 0.62195 0.28076 0.0
H1306 H 0.0984 0.49388 0.39962 0.0
H1307 H 0.14859 0.55806 0.43682 0.0
H1308 H 0.18946 0.53024 0.24571 0.0
H1309 H 0.23511 0.52698 0.31363 0.0
H1310 H 0.22162 0.55044 0.22816 0.0
H1311 H 0.26655 0.54702 0.29485 0.0
H1312 H 0.15648 0.44486 0.29176 0.0
H1313 H 0.11381 0.49204 0.31621 0.0
H1314 H 0.12269 0.41181 0.27349 0.0
H1315 H 0.08075 0.45815 0.29758 0.0
H1316 H 0.20105 0.40318 0.3349 0.0
H1317 H 0.25259 0.44053 0.29991 0.0
H1318 H 0.13659 0.55226 0.20759 0.0
H1319 H 0.09523 0.48156 0.20932 0.0
Li1320 Li 0.80721 0.91303 0.57683 0.0
Li1321 Li 0.82443 0.88418 0.60204 0.0
Li1322 Li 0.85053 0.91618 0.58032 0.0
Li1323 Li 0.82242 0.8799 0.55408 0.0
C1324 C 0.82809 0.94158 0.62278 0.0
N1325 N 0.81918 0.98216 0.65111 0.0
C1326 C 0.81039 0.9387 0.63609 0.0
C1327 C 0.84133 0.96504 0.62392 0.0
C1328 C 0.80612 0.95947 0.65028 0.0
C1329 C 0.83655 0.98534 0.63837 0.0
C1330 C 0.7857 0.85324 0.57429 0.0
C1331 C 0.78242 0.80913 0.5676 0.0
N1332 N 0.76276 0.80628 0.57627 0.0
C1333 C 0.76544 0.84988 0.58307 0.0
C1334 C 0.79426 0.83273 0.56647 0.0
C1335 C 0.75411 0.82598 0.58396 0.0
C1336 C 0.76112 0.91772 0.56738 0.0
N1337 N 0.7825 0.93125 0.57474 0.0
C1338 C 0.7684 0.9686 0.57886 0.0
C1339 C 0.78632 0.95635 0.58023 0.0
C1340 C 0.7461 0.9551 0.57128 0.0
C1341 C 0.74274 0.92922 0.56559 0.0
H1342 H 0.75827 0.89786 0.56265 0.0
H1343 H 0.80331 0.96699 0.58577 0.0
C1344 C 0.8378 0.85711 0.64454 0.0
N1345 N 0.82156 0.86752 0.63284 0.0
C1346 C 0.83471 0.84528 0.66583 0.0
C1347 C 0.79843 0.85524 0.66314 0.0
C1348 C 0.8022 0.86686 0.64204 0.0
C1349 C 0.81471 0.84407 0.67553 0.0
H1350 H 0.85319 0.85776 0.6373 0.0
H1351 H 0.78947 0.87532 0.63291 0.0
C1352 C 0.82303 0.91552 0.52491 0.0
N1353 N 0.81505 0.91298 0.47255 0.0
C1354 C 0.83933 0.91061 0.51089 0.0
C1355 C 0.80272 0.91927 0.51233 0.0
C1356 C 0.83494 0.90934 0.48442 0.0
C1357 C 0.79901 0.91792 0.48584 0.0
C1358 C 0.86222 0.86408 0.57671 0.0
C1359 C 0.88129 0.87168 0.56647 0.0
C1360 C 0.85741 0.84026 0.58259 0.0
C1361 C 0.89509 0.85516 0.56196 0.0
C1362 C 0.87161 0.82428 0.57777 0.0
N1363 N 0.88999 0.83199 0.56764 0.0
C1364 C 0.89929 0.93758 0.59759 0.0
C1365 C 0.88197 0.95016 0.56071 0.0
C1366 C 0.92043 0.95096 0.59514 0.0
N1367 N 0.88049 0.93721 0.58036 0.0
C1368 C 0.90269 0.9633 0.55728 0.0
C1369 C 0.92257 0.96388 0.57446 0.0
H1370 H 0.89801 0.92722 0.61312 0.0
H1371 H 0.86702 0.95 0.54725 0.0
C1372 C 0.79802 0.85653 0.50378 0.0
N1373 N 0.81765 0.85836 0.52017 0.0
C1374 C 0.79492 0.84539 0.47812 0.0
C1375 C 0.83173 0.83675 0.48663 0.0
C1376 C 0.83425 0.84839 0.51201 0.0
C1377 C 0.81198 0.83536 0.46901 0.0
H1378 H 0.78508 0.86485 0.51031 0.0
H1379 H 0.84986 0.85008 0.52481 0.0
O1380 O 0.83239 0.92156 0.60855 0.0
O1381 O 0.79719 0.87654 0.57368 0.0
O1382 O 0.82672 0.91616 0.55075 0.0
O1383 O 0.84871 0.88013 0.5816 0.0
H1384 H 0.79993 0.92068 0.63526 0.0
H1385 H 0.85508 0.96752 0.61367 0.0
H1386 H 0.79241 0.95756 0.66058 0.0
H1387 H 0.84662 1.00363 0.6394 0.0
H1388 H 0.78887 0.7931 0.56163 0.0
H1389 H 0.75865 0.86557 0.58942 0.0
H1390 H 0.80988 0.83497 0.55961 0.0
H1391 H 0.73846 0.82311 0.59081 0.0
H1392 H 0.77205 0.9885 0.584 0.0
H1393 H 0.72602 0.9179 0.55943 0.0
H1394 H 0.84769 0.83666 0.67417 0.0
H1395 H 0.78279 0.85513 0.66977 0.0
H1396 H 0.85502 0.90734 0.52031 0.0
H1397 H 0.78991 0.923 0.5229 0.0
H1398 H 0.84731 0.90531 0.47331 0.0
H1399 H 0.78334 0.92068 0.47583 0.0
H1400 H 0.88525 0.89002 0.56174 0.0
H1401 H 0.84289 0.83418 0.59084 0.0
H1402 H 0.90983 0.86073 0.5539 0.0
H1403 H 0.86805 0.80576 0.58215 0.0
H1404 H 0.93485 0.95126 0.60951 0.0
H1405 H 0.90307 0.97262 0.54089 0.0
H1406 H 0.77961 0.84558 0.46538 0.0
H1407 H 0.84536 0.82924 0.4808 0.0
Li1408 Li 0.96349 1.00441 0.30198 0.0
Li1409 Li 0.93158 0.97617 0.27372 0.0
Li1410 Li 0.96251 1.00236 0.25442 0.0
Li1411 Li 0.93522 0.02099 0.2772 0.0
C1412 C 0.98357 0.96769 0.28489 0.0
N1413 N 0.02216 0.95219 0.30234 0.0
C1414 C 0.98361 0.95181 0.30293 0.0
C1415 C 1.00315 0.97568 0.27574 0.0
C1416 C 1.00329 0.94417 0.31149 0.0
C1417 C 0.0225 0.96766 0.28481 0.0
C1418 C 0.91933 0.98582 0.31736 0.0
C1419 C 0.88391 0.96805 0.32781 0.0
N1420 N 0.8943 0.95411 0.34262 0.0
C1421 C 0.92964 0.97126 0.33266 0.0
C1422 C 0.89625 0.98417 0.31486 0.0
C1423 C 0.9167 0.95538 0.3453 0.0
C1424 C 0.97138 0.02336 0.3545 0.0
N1425 N 0.98137 1.01168 0.33715 0.0
C1426 C 1.01155 1.01046 0.37083 0.0
C1427 C 1.00148 1.00579 0.34483 0.0
C1428 C 1.00122 0.02195 0.38914 0.0
C1429 C 0.98099 0.02868 0.38052 0.0
H1430 H 0.95561 0.0283 0.34818 0.0
H1431 H 1.00975 0.99737 0.33096 0.0
C1432 C 0.88769 0.94377 0.26277 0.0
N1433 N 0.90985 0.94472 0.2709 0.0
C1434 C 0.87138 0.92349 0.26519 0.0
C1435 C 0.90082 0.9046 0.28293 0.0
C1436 C 0.91658 0.9253 0.28026 0.0
C1437 C 0.87777 0.90376 0.27604 0.0
H1438 H 0.88251 0.95928 0.25555 0.0
H1439 H 0.93417 0.9262 0.28655 0.0
C1440 C 0.98436 0.0485 0.29845 0.0
N1441 N 0.01714 0.08036 0.33503 0.0
C1442 C 0.97861 0.06631 0.31539 0.0
C1443 C 1.00676 0.04692 0.3 0.0
C1444 C 0.99543 0.08225 0.33378 0.0
C1445 C 0.0231 0.0632 0.31866 0.0
C1446 C 0.91433 1.00588 0.22956 0.0
C1447 C 0.92118 1.01605 0.20895 0.0
C1448 C 0.89304 1.00678 0.23473 0.0
C1449 C 0.90661 0.02695 0.19385 0.0
C1450 C 0.87899 0.0179 0.21924 0.0
N1451 N 0.88601 0.02766 0.19928 0.0
C1452 C 0.97292 0.98785 0.20393 0.0
C1453 C 0.99182 0.02782 0.22496 0.0
C1454 C 0.98188 0.99178 0.18191 0.0
N1455 N 0.97783 1.00585 0.22492 0.0
C1456 C 1.00117 0.03248 0.20343 0.0
C1457 C 0.99599 1.01455 0.18118 0.0
H1458 H 0.96151 0.97062 0.20397 0.0
H1459 H 0.99543 0.04206 0.24159 0.0
C1460 C 0.90603 0.04976 0.29492 0.0
N1461 N 0.91986 0.04773 0.27787 0.0
C1462 C 0.89374 0.06825 0.29524 0.0
C1463 C 0.91093 0.08309 0.26126 0.0
C1464 C 0.92289 0.06423 0.26157 0.0
C1465 C 0.89582 0.08493 0.27795 0.0
H1466 H 0.9045 0.03698 0.30826 0.0
H1467 H 0.93432 0.06247 0.2485 0.0
O1468 O 0.9644 0.975 0.27582 0.0
O1469 O 0.93156 1.00069 0.30393 0.0
O1470 O 0.96804 0.03209 0.28104 0.0
O1471 O 0.92853 0.99552 0.24485 0.0
H1472 H 0.96875 0.94568 0.31052 0.0
H1473 H 1.00343 0.98792 0.26176 0.0
H1474 H 1.00358 0.93196 0.32551 0.0
H1475 H 0.03777 0.97372 0.2779 0.0
H1476 H 0.86602 0.96647 0.32589 0.0
H1477 H 0.94736 0.97186 0.33443 0.0
H1478 H 0.88784 0.99474 0.30257 0.0
H1479 H 0.92446 0.94393 0.35709 0.0
H1480 H 0.02729 1.00516 0.37658 0.0
H1481 H 0.97228 0.03734 0.39387 0.0
H1482 H 0.85387 0.92379 0.25959 0.0
H1483 H 0.90665 0.88957 0.29071 0.0
H1484 H 0.9613 0.0676 0.31456 0.0
H1485 H 1.01144 0.03308 0.28715 0.0
H1486 H 0.99123 0.09604 0.34712 0.0
H1487 H 0.04049 0.06211 0.3202 0.0
H1488 H 0.93759 1.01569 0.20469 0.0
H1489 H 0.88768 0.99973 0.25103 0.0
H1490 H 0.91173 0.03493 0.17787 0.0
H1491 H 0.86259 0.01897 0.22322 0.0
H1492 H 0.97733 0.97734 0.16536 0.0
H1493 H 1.01243 0.05005 0.20429 0.0
H1494 H 0.88271 0.06949 0.30888 0.0
H1495 H 0.91309 0.09573 0.24777 0.0
Li1496 Li 0.35127 0.67827 0.62019 0.0
Li1497 Li 0.36141 0.65898 0.58185 0.0
Li1498 Li 0.32965 0.67732 0.58 0.0
Li1499 Li 0.32802 0.64028 0.59765 0.0
C1500 C 0.36303 0.7151 0.58212 0.0
N1501 N 0.36466 0.75764 0.56084 0.0
C1502 C 0.37068 0.71659 0.55917 0.0
C1503 C 0.35634 0.73533 0.59433 0.0
C1504 C 0.37132 0.73823 0.54868 0.0
C1505 C 0.35724 0.75665 0.58324 0.0
C1506 C 0.37511 0.64911 0.63664 0.0
C1507 C 0.38662 0.64044 0.67889 0.0
N1508 N 0.40547 0.65842 0.6821 0.0
C1509 C 0.39469 0.66737 0.64029 0.0
C1510 C 0.37109 0.6354 0.65602 0.0
C1511 C 0.4098 0.67184 0.66342 0.0
C1512 C 0.34754 0.68868 0.67022 0.0
N1513 N 0.35959 0.69723 0.65301 0.0
C1514 C 0.37083 0.73737 0.67817 0.0
C1515 C 0.37217 0.72058 0.65716 0.0
C1516 C 0.3565 0.72969 0.69473 0.0
C1517 C 0.34589 0.70469 0.69153 0.0
H1518 H 0.33749 0.67007 0.66607 0.0
H1519 H 0.38147 0.72681 0.64295 0.0
C1520 C 0.37855 0.65043 0.53765 0.0
N1521 N 0.38294 0.65087 0.56331 0.0
C1522 C 0.39039 0.63839 0.52194 0.0
C1523 C 0.41205 0.62916 0.55965 0.0
C1524 C 0.39958 0.64102 0.57457 0.0
C1525 C 0.40702 0.62719 0.53299 0.0
H1526 H 0.36473 0.65783 0.52924 0.0
H1527 H 0.40213 0.64084 0.59486 0.0
C1528 C 0.29595 0.66581 0.60829 0.0
N1529 N 0.24993 0.65509 0.60365 0.0
C1530 C 0.28229 0.65545 0.58462 0.0
C1531 C 0.28619 0.67076 0.62957 0.0
C1532 C 0.25907 0.65014 0.58268 0.0
C1533 C 0.26289 0.66523 0.62683 0.0
C1534 C 0.33058 0.62278 0.54749 0.0
C1535 C 0.32042 0.61762 0.52171 0.0
C1536 C 0.3412 0.60554 0.55816 0.0
C1537 C 0.32114 0.59538 0.50701 0.0
C1538 C 0.34159 0.58354 0.54281 0.0
N1539 N 0.33165 0.57896 0.51777 0.0
C1540 C 0.31204 0.69022 0.53441 0.0
C1541 C 0.30436 0.71382 0.57068 0.0
C1542 C 0.30242 0.70451 0.51843 0.0
N1543 N 0.31315 0.69537 0.55998 0.0
C1544 C 0.29499 0.72898 0.55539 0.0
C1545 C 0.29429 0.72445 0.52902 0.0
H1546 H 0.3195 0.67567 0.52661 0.0
H1547 H 0.30565 0.7175 0.59116 0.0
C1548 C 0.30549 0.60819 0.6254 0.0
N1549 N 0.30742 0.61184 0.60131 0.0
C1550 C 0.28652 0.59254 0.62967 0.0
C1551 C 0.27256 0.58379 0.58416 0.0
C1552 C 0.29182 0.5994 0.58075 0.0
C1553 C 0.26925 0.58123 0.60894 0.0
H1554 H 0.31766 0.61907 0.64143 0.0
H1555 H 0.29307 0.60339 0.5619 0.0
O1556 O 0.36223 0.69402 0.59264 0.0
O1557 O 0.35986 0.64491 0.61433 0.0
O1558 O 0.31878 0.67043 0.61099 0.0
O1559 O 0.33064 0.64494 0.56179 0.0
H1560 H 0.3761 0.70124 0.54956 0.0
H1561 H 0.35011 0.73443 0.61195 0.0
H1562 H 0.37715 0.7396 0.53089 0.0
H1563 H 0.35194 0.77236 0.59238 0.0
H1564 H 0.38367 0.63006 0.6941 0.0
H1565 H 0.398 0.67823 0.62552 0.0
H1566 H 0.35619 0.62101 0.65344 0.0
H1567 H 0.42493 0.68605 0.66657 0.0
H1568 H 0.37908 0.75657 0.67994 0.0
H1569 H 0.3348 0.69817 0.70407 0.0
H1570 H 0.38596 0.63686 0.50141 0.0
H1571 H 0.42442 0.62013 0.56871 0.0
H1572 H 0.28951 0.6512 0.56798 0.0
H1573 H 0.29653 0.67866 0.64806 0.0
H1574 H 0.24831 0.64198 0.56452 0.0
H1575 H 0.25512 0.66891 0.64316 0.0
H1576 H 0.31215 0.63072 0.5131 0.0
H1577 H 0.3492 0.60908 0.578 0.0
H1578 H 0.31339 0.5912 0.48703 0.0
H1579 H 0.34985 0.57013 0.55079 0.0
H1580 H 0.30249 0.70091 0.49816 0.0
H1581 H 0.2891 0.7445 0.56406 0.0
H1582 H 0.28458 0.59086 0.64907 0.0
H1583 H 0.25947 0.57574 0.56772 0.0
Li1584 Li 0.43027 0.48356 0.78267 0.0
Li1585 Li 0.4626 0.51308 0.80986 0.0
Li1586 Li 0.4333 0.5285 0.78567 0.0
Li1587 Li 0.46033 0.50939 0.76209 0.0
C1588 C 0.4169 0.51833 0.8257 0.0
N1589 N 0.38863 0.54045 0.85128 0.0
C1590 C 0.42567 0.5362 0.84747 0.0
C1591 C 0.39376 0.51166 0.817 0.0
C1592 C 0.41109 0.54716 0.86013 0.0
C1593 C 0.37975 0.52308 0.83017 0.0
C1594 C 0.47845 0.47424 0.79916 0.0
C1595 C 0.51691 0.47485 0.81655 0.0
N1596 N 0.5099 0.45869 0.83194 0.0
C1597 C 0.4716 0.45755 0.81504 0.0
C1598 C 0.50126 0.48292 0.79981 0.0
C1599 C 0.48778 0.44994 0.83152 0.0
C1600 C 0.40234 0.43389 0.76124 0.0
N1601 N 0.40926 0.45224 0.7819 0.0
C1602 C 0.38544 0.42887 0.80544 0.0
C1603 C 0.40141 0.44974 0.8039 0.0
C1604 C 0.37732 0.41003 0.7842 0.0
C1605 C 0.38627 0.41264 0.76195 0.0
H1606 H 0.40912 0.43576 0.74411 0.0
H1607 H 0.40742 0.46412 0.82035 0.0
C1608 C 0.5018 0.53048 0.85355 0.0
N1609 N 0.48058 0.51685 0.84466 0.0
C1610 C 0.51176 0.53309 0.87946 0.0
C1611 C 0.47847 0.50675 0.88646 0.0
C1612 C 0.46913 0.50481 0.86064 0.0
C1613 C 0.50005 0.52113 0.89636 0.0
H1614 H 0.51107 0.53944 0.84072 0.0
H1615 H 0.45243 0.49384 0.85338 0.0
C1616 C 0.41068 0.48771 0.73549 0.0
N1617 N 0.37895 0.45528 0.69821 0.0
C1618 C 0.41711 0.47554 0.7144 0.0
C1619 C 0.38812 0.48339 0.73762 0.0
C1620 C 0.4008 0.45924 0.69574 0.0
C1621 C 0.37233 0.4669 0.71858 0.0
C1622 C 0.48675 0.55519 0.79858 0.0
C1623 C 0.48883 0.57465 0.81854 0.0
C1624 C 0.50565 0.55148 0.78872 0.0
C1625 C 0.50982 0.59008 0.82833 0.0
C1626 C 0.52635 0.5673 0.79904 0.0
N1627 N 0.52799 0.58612 0.81846 0.0
C1628 C 0.42233 0.57389 0.80453 0.0
C1629 C 0.39868 0.55211 0.76618 0.0
C1630 C 0.40999 0.59237 0.80519 0.0
N1631 N 0.41641 0.55412 0.78537 0.0
C1632 C 0.38586 0.57018 0.76608 0.0
C1633 C 0.39133 0.59054 0.78591 0.0
H1634 H 0.43652 0.57523 0.81949 0.0
H1635 H 0.39444 0.53646 0.75094 0.0
C1636 C 0.4895 0.50031 0.72415 0.0
N1637 N 0.47398 0.51275 0.73134 0.0
C1638 C 0.49822 0.50412 0.70191 0.0
C1639 C 0.47484 0.53328 0.69468 0.0
C1640 C 0.46665 0.52899 0.71698 0.0
C1641 C 0.49089 0.5208 0.68665 0.0
H1642 H 0.4953 0.48755 0.73574 0.0
H1643 H 0.45429 0.53869 0.72287 0.0
O1644 O 0.43092 0.50779 0.81266 0.0
O1645 O 0.4629 0.48267 0.7837 0.0
O1646 O 0.42642 0.50364 0.75403 0.0
O1647 O 0.4663 0.54008 0.78846 0.0
H1648 H 0.44356 0.54188 0.85426 0.0
H1649 H 0.38671 0.49792 0.80015 0.0
H1650 H 0.41765 0.56112 0.87691 0.0
H1651 H 0.36181 0.51816 0.82358 0.0
H1652 H 0.53463 0.4815 0.81737 0.0
H1653 H 0.45399 0.45082 0.81486 0.0
H1654 H 0.5068 0.49591 0.78769 0.0
H1655 H 0.48274 0.43716 0.84406 0.0
H1656 H 0.37915 0.42776 0.82303 0.0
H1657 H 0.38103 0.39834 0.74529 0.0
H1658 H 0.52854 0.54416 0.88616 0.0
H1659 H 0.46866 0.49739 0.8987 0.0
H1660 H 0.4345 0.47852 0.71251 0.0
H1661 H 0.38287 0.4925 0.75389 0.0
H1662 H 0.40554 0.44967 0.67933 0.0
H1663 H 0.35483 0.4633 0.72004 0.0
H1664 H 0.47449 0.5777 0.82658 0.0
H1665 H 0.50439 0.53655 0.7733 0.0
H1666 H 0.51168 0.60516 0.84384 0.0
H1667 H 0.5411 0.56462 0.79161 0.0
H1668 H 0.41515 0.60803 0.82052 0.0
H1669 H 0.37163 0.56808 0.7508 0.0
H1670 H 0.51092 0.49443 0.69706 0.0
H1671 H 0.46849 0.54619 0.6837 0.0
Li1672 Li 0.66197 0.01863 0.8433 0.0
Li1673 Li 0.69247 0.04264 0.81993 0.0
Li1674 Li 0.65824 1.01435 0.78888 0.0
Li1675 Li 0.69057 0.99243 0.81816 0.0
C1676 C 0.65746 0.06678 0.82132 0.0
N1677 N 0.65494 0.11589 0.8291 0.0
C1678 C 0.65425 0.07783 0.8449 0.0
C1679 C 0.65929 0.08066 0.80166 0.0
C1680 C 0.65302 0.10268 0.84846 0.0
C1681 C 0.65802 0.10548 0.80599 0.0
C1682 C 0.71416 0.03714 0.86618 0.0
C1683 C 0.75352 0.04954 0.88447 0.0
N1684 N 0.74957 0.06951 0.89893 0.0
C1685 C 0.71052 0.05784 0.88109 0.0
C1686 C 0.73584 0.033 0.86775 0.0
C1687 C 0.72862 0.07396 0.89758 0.0
C1688 C 0.62127 1.01278 0.8738 0.0
N1689 N 0.64409 0.02041 0.87628 0.0
C1690 C 0.64495 0.03261 0.92233 0.0
C1691 C 0.65568 0.03013 0.90059 0.0
C1692 C 0.62142 0.02467 0.9206 0.0
C1693 C 0.60991 1.01465 0.89518 0.0
H1694 H 0.61142 1.00509 0.85503 0.0
H1695 H 0.67363 0.03636 0.90357 0.0
C1696 C 0.72369 0.08379 0.80089 0.0
N1697 N 0.71224 0.07914 0.8202 0.0
C1698 C 0.73488 0.10807 0.79897 0.0
C1699 C 0.72306 0.12363 0.83679 0.0
C1700 C 0.71215 0.099 0.83811 0.0
C1701 C 0.73457 0.12903 0.81673 0.0
H1702 H 0.72399 0.06874 0.78634 0.0
H1703 H 0.70298 0.09613 0.85333 0.0
C1704 C 0.63802 0.96865 0.81478 0.0
N1705 N 0.60297 0.93109 0.81786 0.0
C1706 C 0.64232 0.94713 0.82322 0.0
C1707 C 0.61595 0.97113 0.80793 0.0
C1708 C 0.62435 0.92832 0.82462 0.0
C1709 C 0.59844 0.95192 0.80963 0.0
C1710 C 0.70927 0.01831 0.77759 0.0
C1711 C 0.70607 0.02172 0.7521 0.0
C1712 C 0.73066 0.01797 0.79033 0.0
C1713 C 0.72445 0.02511 0.73987 0.0
C1714 C 0.74861 0.02143 0.77744 0.0
N1715 N 0.74517 0.02493 0.75269 0.0
C1716 C 0.64538 0.03217 0.73798 0.0
C1717 C 0.61885 0.99748 0.74159 0.0
C1718 C 0.63294 0.0338 0.71372 0.0
N1719 N 0.63838 1.01431 0.752 0.0
C1720 C 0.60592 0.99849 0.71739 0.0
C1721 C 0.61245 0.0171 0.70272 0.0
H1722 H 0.66081 0.04557 0.74555 0.0
H1723 H 0.61302 0.98301 0.752 0.0
C1724 C 0.7251 0.9587 0.83591 0.0
N1725 N 0.70732 0.95961 0.81737 0.0
C1726 C 0.73614 0.93816 0.83562 0.0
C1727 C 0.71085 0.91818 0.79755 0.0
C1728 C 0.70033 0.93919 0.79839 0.0
C1729 C 0.72956 0.9169 0.81614 0.0
H1730 H 0.731 0.97395 0.85153 0.0
H1731 H 0.68634 0.93886 0.78343 0.0
O1732 O 0.65907 0.04258 0.81769 0.0
O1733 O 0.69666 0.0215 0.84954 0.0
O1734 O 0.65536 0.9873 0.81343 0.0
O1735 O 0.69158 1.01498 0.79001 0.0
H1736 H 0.65286 0.06735 0.86033 0.0
H1737 H 0.66201 0.07247 0.78342 0.0
H1738 H 0.65061 0.1115 0.86663 0.0
H1739 H 0.65957 0.1165 0.791 0.0
H1740 H 0.77038 0.04654 0.8859 0.0
H1741 H 0.69394 0.06167 0.8796 0.0
H1742 H 0.73904 0.01728 0.85611 0.0
H1743 H 0.72603 0.09011 0.90917 0.0
H1744 H 0.65543 0.04139 0.94042 0.0
H1745 H 0.59196 1.00793 0.89157 0.0
H1746 H 0.74388 0.11018 0.78344 0.0
H1747 H 0.72187 0.13849 0.85119 0.0
H1748 H 0.65935 0.94499 0.82863 0.0
H1749 H 0.6124 0.98776 0.8015 0.0
H1750 H 0.6274 0.91154 0.83109 0.0
H1751 H 0.58126 0.95357 0.80443 0.0
H1752 H 0.68959 0.02165 0.74184 0.0
H1753 H 0.73335 1.01511 0.80997 0.0
H1754 H 0.72224 0.02785 0.72017 0.0
H1755 H 0.76528 0.02132 0.7871 0.0
H1756 H 0.63923 0.04859 0.70389 0.0
H1757 H 0.59086 0.98438 0.71018 0.0
H1758 H 0.74968 0.93897 0.85128 0.0
H1759 H 0.70436 0.90301 0.78186 0.0
Li1760 Li 0.77504 0.68709 0.06017 0.0
Li1761 Li 0.78837 0.65618 0.03544 0.0
Li1762 Li 0.77191 0.68722 0.01262 0.0
Li1763 Li 0.74645 0.65238 0.03276 0.0
C1764 C 0.81432 0.71164 0.05536 0.0
N1765 N 0.84442 0.75021 0.08777 0.0
C1766 C 0.82772 0.70716 0.07697 0.0
C1767 C 0.81615 0.73576 0.05031 0.0
C1768 C 0.84282 0.7269 0.09313 0.0
C1769 C 0.83153 0.75499 0.06688 0.0
C1770 C 0.77594 0.63245 0.07234 0.0
C1771 C 0.77027 0.58897 0.07441 0.0
N1772 N 0.78906 0.5935 0.09273 0.0
C1773 C 0.7951 0.63672 0.09129 0.0
C1774 C 0.76335 0.60842 0.06387 0.0
C1775 C 0.80149 0.61676 0.10131 0.0
C1776 C 0.77208 0.69237 0.11259 0.0
N1777 N 0.77864 0.70623 0.09497 0.0
C1778 C 0.78844 0.74269 0.12719 0.0
C1779 C 0.78642 0.73113 0.10182 0.0
C1780 C 0.78182 0.72868 0.14568 0.0
C1781 C 0.77352 0.70319 0.13797 0.0
H1782 H 0.76554 0.67275 0.10698 0.0
H1783 H 0.7909 0.74217 0.08765 0.0
C1784 C 0.80927 0.61257 0.0321 0.0
N1785 N 0.81295 0.6377 0.0351 0.0
C1786 C 0.82723 0.60041 0.0328 0.0
C1787 C 0.85266 0.63996 0.03956 0.0
C1788 C 0.83423 0.65132 0.0384 0.0
C1789 C 0.84939 0.61413 0.03675 0.0
H1790 H 0.79239 0.60181 0.0293 0.0
H1791 H 0.83704 0.67116 0.0402 0.0
C1792 C 0.74234 0.70904 0.04741 0.0
N1793 N 0.73223 0.74907 0.07535 0.0
C1794 C 0.72871 0.70545 0.06556 0.0
C1795 C 0.75074 0.73292 0.04335 0.0
C1796 C 0.72384 0.72595 0.07954 0.0
C1797 C 0.74543 0.75294 0.05768 0.0
C1798 C 0.77011 0.63138 0.98894 0.0
C1799 C 0.78775 0.6375 0.97602 0.0
C1800 C 0.75945 0.60669 0.98711 0.0
C1801 C 0.79458 0.61867 0.9616 0.0
C1802 C 0.76675 0.58841 0.97244 0.0
N1803 N 0.78404 0.59473 0.96013 0.0
C1804 C 0.79419 0.71777 0.98008 0.0
C1805 C 0.75547 0.70342 0.9642 0.0
C1806 C 0.79661 0.73004 0.95908 0.0
N1807 N 0.7738 0.70498 0.98262 0.0
C1808 C 0.75725 0.71499 0.94254 0.0
C1809 C 0.77805 0.72869 0.93974 0.0
H1810 H 0.80881 0.71826 0.99422 0.0
H1811 H 0.7394 0.69296 0.96612 0.0
C1812 C 0.71166 0.63124 0.05695 0.0
N1813 N 0.71636 0.63238 0.03317 0.0
C1814 C 0.69091 0.61815 0.06035 0.0
C1815 C 0.67962 0.60748 0.01471 0.0
C1816 C 0.70074 0.6208 0.01215 0.0
C1817 C 0.67436 0.60598 0.03913 0.0
H1818 H 0.72413 0.64061 0.07347 0.0
H1819 H 0.70461 0.62181 0.99334 0.0
O1820 O 0.79949 0.69249 0.03929 0.0
O1821 O 0.76958 0.65172 0.0621 0.0
O1822 O 0.74798 0.68933 0.03417 0.0
O1823 O 0.76356 0.64947 1.00364 0.0
H1824 H 0.82641 0.68865 0.08127 0.0
H1825 H 0.80558 0.7397 0.03404 0.0
H1826 H 0.85326 0.7237 0.10993 0.0
H1827 H 0.83308 0.77375 0.06323 0.0
H1828 H 0.76077 0.57025 0.06796 0.0
H1829 H 0.80493 0.65524 0.09814 0.0
H1830 H 0.74857 0.60478 0.04909 0.0
H1831 H 0.81634 0.61977 0.1159 0.0
H1832 H 0.79474 0.76245 0.13222 0.0
H1833 H 0.76837 0.6916 0.15154 0.0
H1834 H 0.82382 0.58047 0.03077 0.0
H1835 H 0.86936 0.65133 0.04238 0.0
H1836 H 0.72222 0.68706 0.06902 0.0
H1837 H 0.7614 0.73596 0.02943 0.0
H1838 H 0.71345 0.72349 0.09379 0.0
H1839 H 0.75188 0.77155 0.05484 0.0
H1840 H 0.79619 0.65657 0.97737 0.0
H1841 H 0.74581 0.60171 0.9971 0.0
H1842 H 0.8083 0.62309 0.95162 0.0
H1843 H 0.75874 0.56919 0.97092 0.0
H1844 H 0.81302 0.74011 0.95772 0.0
H1845 H 0.74243 0.71345 0.92825 0.0
H1846 H 0.6878 0.61776 0.07955 0.0
H1847 H 0.66771 0.59809 0.99771 0.0
Li1848 Li 0.90368 0.52635 0.79159 0.0
Li1849 Li 0.93878 0.55567 0.82157 0.0
Li1850 Li 0.90563 0.57756 0.79395 0.0
Li1851 Li 0.93445 0.55236 0.76828 0.0
C1852 C 0.89159 0.54625 0.83791 0.0
N1853 N 0.86392 0.52999 0.87061 0.0
C1854 C 0.89893 0.53297 0.85664 0.0
C1855 C 0.87022 0.55134 0.83587 0.0
C1856 C 0.88468 0.52488 0.87297 0.0
C1857 C 0.85647 0.54294 0.85256 0.0
C1858 C 0.95369 0.51481 0.79463 0.0
C1859 C 0.99165 0.51287 0.79104 0.0
N1860 N 0.98864 0.49054 0.79893 0.0
C1861 C 0.95093 0.49182 0.80262 0.0
C1862 C 0.97418 0.52544 0.78873 0.0
C1863 C 0.96883 0.47986 0.80472 0.0
C1864 C 0.86875 0.47626 0.7712 0.0
N1865 N 0.88457 0.48986 0.79137 0.0
C1866 C 0.87861 0.45411 0.81343 0.0
C1867 C 0.88939 0.47875 0.81224 0.0
C1868 C 0.86241 0.43944 0.79288 0.0
C1869 C 0.85762 0.45144 0.77159 0.0
H1870 H 0.86471 0.48442 0.75439 0.0
H1871 H 0.90215 0.48877 0.82816 0.0
C1872 C 0.95465 0.56701 0.88078 0.0
N1873 N 0.95913 0.55577 0.85847 0.0
C1874 C 0.96651 0.56523 0.90539 0.0
C1875 C 0.98806 0.54057 0.88477 0.0
C1876 C 0.97585 0.54279 0.86062 0.0
C1877 C 0.98367 0.55162 0.90822 0.0
H1878 H 0.94148 0.57727 0.87977 0.0
H1879 H 0.9798 0.5336 0.84355 0.0
C1880 C 0.8798 0.53818 0.74638 0.0
N1881 N 0.83967 0.51655 0.71396 0.0
C1882 C 0.87963 0.5273 0.72145 0.0
C1883 C 0.8596 0.53806 0.75486 0.0
C1884 C 0.85916 0.51646 0.70533 0.0
C1885 C 0.83947 0.52704 0.73817 0.0
C1886 C 0.95938 0.60033 0.79571 0.0
C1887 C 0.95679 0.61866 0.78085 0.0
C1888 C 0.98077 0.59899 0.80759 0.0
C1889 C 0.97573 0.63553 0.77825 0.0
C1890 C 0.99929 0.61619 0.8045 0.0
N1891 N 0.9964 0.63396 0.79002 0.0
C1892 C 0.86516 0.60671 0.79332 0.0
C1893 C 0.89937 0.63413 0.79743 0.0
C1894 C 0.85365 0.62691 0.79414 0.0
N1895 N 0.888 0.60996 0.79495 0.0
C1896 C 0.88841 0.65483 0.79802 0.0
C1897 C 0.8648 0.65213 0.79623 0.0
H1898 H 0.85533 0.58821 0.79148 0.0
H1899 H 0.91735 0.63787 0.79901 0.0
C1900 C 0.94505 0.53035 0.71509 0.0
N1901 N 0.95184 0.55006 0.73483 0.0
C1902 C 0.95586 0.52813 0.69331 0.0
C1903 C 0.98131 0.56609 0.71144 0.0
C1904 C 0.96994 0.56775 0.73278 0.0
C1905 C 0.97472 0.54596 0.69074 0.0
H1906 H 0.93109 0.5158 0.71602 0.0
H1907 H 0.97594 0.58355 0.74781 0.0
O1908 O 0.90528 0.55429 0.82172 0.0
O1909 O 0.93648 0.52694 0.79248 0.0
O1910 O 0.89962 0.54856 0.76263 0.0
O1911 O 0.94114 0.5834 0.79822 0.0
H1912 H 0.91537 0.52875 0.8584 0.0
H1913 H 0.86432 0.56165 0.82154 0.0
H1914 H 0.89012 0.51451 0.88749 0.0
H1915 H 0.83987 0.54673 0.85117 0.0
H1916 H 1.00762 0.52089 0.7866 0.0
H1917 H 0.93519 0.48332 0.80719 0.0
H1918 H 0.97658 0.54327 0.78259 0.0
H1919 H 0.96696 0.46207 0.81094 0.0
H1920 H 0.88349 0.44643 0.83037 0.0
H1921 H 0.84507 0.4419 0.75521 0.0
H1922 H 0.9623 0.5749 0.92208 0.0
H1923 H 1.00073 0.52966 0.88488 0.0
H1924 H 0.89513 0.52729 0.7146 0.0
H1925 H 0.8595 0.54619 0.7742 0.0
H1926 H 0.85876 0.50797 0.68597 0.0
H1927 H 0.82371 0.52675 0.74449 0.0
H1928 H 0.94035 0.61967 0.77123 0.0
H1929 H 0.98302 0.58478 0.81903 0.0
H1930 H 0.974 0.64982 0.76679 0.0
H1931 H 1.01595 0.6154 0.81357 0.0
H1932 H 0.83585 0.62229 0.79365 0.0
H1933 H 0.89875 0.67307 0.79968 0.0
H1934 H 0.94957 0.51201 0.67867 0.0
H1935 H 0.99514 0.58105 0.71118 0.0
Li1936 Li 0.74971 0.38637 0.51864 0.0
Li1937 Li 0.72345 0.41115 0.50625 0.0
Li1938 Li 0.73376 0.38628 0.47427 0.0
Li1939 Li 0.76068 0.42304 0.49597 0.0
C1940 C 0.71225 0.34958 0.49875 0.0
N1941 N 0.7016 0.29868 0.49347 0.0
C1942 C 0.69113 0.33749 0.50173 0.0
C1943 C 0.728 0.33576 0.49323 0.0
C1944 C 0.68605 0.31175 0.49896 0.0
C1945 C 0.72228 0.31006 0.49057 0.0
C1946 C 0.75071 0.43678 0.55066 0.0
C1947 C 0.75211 0.47767 0.57244 0.0
N1948 N 0.74542 0.46782 0.59251 0.0
C1949 C 0.74402 0.42705 0.57156 0.0
C1950 C 0.75494 0.46228 0.55112 0.0
C1951 C 0.74135 0.44305 0.59251 0.0
C1952 C 0.78392 0.37415 0.55158 0.0
N1953 N 0.76134 0.37006 0.54426 0.0
C1954 C 0.75571 0.34397 0.57532 0.0
C1955 C 0.74719 0.35559 0.55583 0.0
C1956 C 0.77895 0.34775 0.58321 0.0
C1957 C 0.79319 0.363 0.57115 0.0
H1958 H 0.79468 0.38622 0.54232 0.0
H1959 H 0.7293 0.35336 0.5502 0.0
C1960 C 0.70313 0.4496 0.51778 0.0
N1961 N 0.70271 0.42574 0.52039 0.0
C1962 C 0.69427 0.46431 0.53458 0.0
C1963 C 0.68336 0.42903 0.55516 0.0
C1964 C 0.69256 0.41499 0.53799 0.0
C1965 C 0.68496 0.45418 0.55401 0.0
H1966 H 0.712 0.45766 0.50406 0.0
H1967 H 0.69331 0.39616 0.54004 0.0
C1968 C 0.78308 0.38284 0.48019 0.0
N1969 N 0.81977 0.37098 0.46214 0.0
C1970 C 0.79327 0.39678 0.46376 0.0
C1971 C 0.7917 0.36294 0.48754 0.0
C1972 C 0.81167 0.39038 0.45468 0.0
C1973 C 0.8103 0.35732 0.47831 0.0
C1974 C 0.71671 0.41799 0.45157 0.0
C1975 C 0.72445 0.42429 0.42974 0.0
C1976 C 0.69414 0.4072 0.44991 0.0
C1977 C 0.70941 0.41952 0.40651 0.0
C1978 C 0.67965 0.40278 0.42634 0.0
N1979 N 0.68752 0.40896 0.40531 0.0
C1980 C 0.71084 0.34353 0.43677 0.0
C1981 C 0.74216 0.37003 0.42753 0.0
C1982 C 0.71356 0.32403 0.41932 0.0
N1983 N 0.72635 0.36519 0.44203 0.0
C1984 C 0.74558 0.35121 0.41013 0.0
C1985 C 0.73213 0.32752 0.40731 0.0
H1986 H 0.69779 0.34044 0.44787 0.0
H1987 H 0.75361 0.38774 0.43143 0.0
C1988 C 0.80182 0.45095 0.51776 0.0
N1989 N 0.78555 0.4484 0.49692 0.0
C1990 C 0.8221 0.46754 0.52013 0.0
C1991 C 0.80837 0.47894 0.47964 0.0
C1992 C 0.78815 0.46221 0.47817 0.0
C1993 C 0.82567 0.48151 0.50075 0.0
H1994 H 0.79923 0.43944 0.53216 0.0
H1995 H 0.77489 0.4596 0.46175 0.0
O1996 O 0.71739 0.37481 0.50169 0.0
O1997 O 0.75312 0.4214 0.52983 0.0
O1998 O 0.76543 0.38925 0.48994 0.0
O1999 O 0.73119 0.42178 0.47439 0.0
H2000 H 0.67879 0.34792 0.50613 0.0
H2001 H 0.74435 0.34471 0.49075 0.0
H2002 H 0.66976 0.30216 0.50118 0.0
H2003 H 0.73428 0.29916 0.48616 0.0
H2004 H 0.75516 0.49744 0.573 0.0
H2005 H 0.74067 0.40733 0.57146 0.0
H2006 H 0.76013 0.47007 0.53506 0.0
H2007 H 0.736 0.43578 0.60873 0.0
H2008 H 0.74428 0.33262 0.58457 0.0
H2009 H 0.81121 0.36625 0.57681 0.0
H2010 H 0.69551 0.48364 0.53312 0.0
H2011 H 0.67632 0.42079 0.57004 0.0
H2012 H 0.78696 0.4123 0.4579 0.0
H2013 H 0.78424 0.35198 0.50037 0.0
H2014 H 0.81957 0.40092 0.44181 0.0
H2015 H 0.81718 0.34204 0.48397 0.0
H2016 H 0.74191 0.43249 0.43066 0.0
H2017 H 0.68795 0.40208 0.46662 0.0
H2018 H 0.71512 0.4241 0.38941 0.0
H2019 H 0.66215 0.39435 0.42475 0.0
H2020 H 0.70275 0.30595 0.41723 0.0
H2021 H 0.76005 0.35449 0.40111 0.0
H2022 H 0.83525 0.46851 0.53633 0.0
H2023 H 0.81071 0.48928 0.46423 0.0
Li2024 Li 0.63822 0.56128 0.35593 0.0
Li2025 Li 0.66904 0.58623 0.3356 0.0
Li2026 Li 0.6379 0.55671 0.30892 0.0
Li2027 Li 0.66592 0.54073 0.33447 0.0
C2028 C 0.62261 0.5988 0.31949 0.0
N2029 N 0.59435 0.6223 0.29142 0.0
C2030 C 0.62976 0.61108 0.30026 0.0
C2031 C 0.60111 0.59852 0.32451 0.0
C2032 C 0.61521 0.6228 0.28623 0.0
C2033 C 0.58708 0.61054 0.31012 0.0
C2034 C 0.68164 0.58225 0.38781 0.0
C2035 C 0.71139 0.59532 0.42459 0.0
N2036 N 0.70034 0.61216 0.43415 0.0
C2037 C 0.67057 0.59969 0.39797 0.0
C2038 C 0.70218 0.57998 0.4012 0.0
C2039 C 0.6803 0.61463 0.42145 0.0
C2040 C 0.62938 0.54125 0.40019 0.0
N2041 N 0.62359 0.5585 0.38625 0.0
C2042 C 0.6 0.56905 0.41581 0.0
C2043 C 0.60923 0.57245 0.39381 0.0
C2044 C 0.6057 0.55131 0.43061 0.0
C2045 C 0.62068 0.53737 0.4223 0.0
H2046 H 0.64094 0.53044 0.39415 0.0
H2047 H 0.60486 0.58627 0.38285 0.0
C2048 C 0.69423 0.62164 0.31223 0.0
N2049 N 0.69021 0.61767 0.3357 0.0
C2050 C 0.70978 0.64233 0.30938 0.0
C2051 C 0.71639 0.6557 0.3548 0.0
C2052 C 0.701 0.63433 0.35687 0.0
C2053 C 0.72101 0.66006 0.33075 0.0
H2054 H 0.68554 0.60848 0.2955 0.0
H2055 H 0.69785 0.63118 0.37544 0.0
C2056 C 0.61401 0.51599 0.31515 0.0
N2057 N 0.57603 0.48881 0.28216 0.0
C2058 C 0.61576 0.49782 0.2956 0.0
C2059 C 0.59299 0.52033 0.31803 0.0
C2060 C 0.59634 0.48429 0.27908 0.0
C2061 C 0.57397 0.50637 0.30114 0.0
C2062 C 0.69174 0.56235 0.30341 0.0
C2063 C 0.69671 0.56066 0.27886 0.0
C2064 C 0.70914 0.56643 0.32452 0.0
C2065 C 0.71896 0.56302 0.27584 0.0
C2066 C 0.73117 0.56867 0.3207 0.0
N2067 N 0.73559 0.56693 0.29664 0.0
C2068 C 0.599 0.55516 0.26744 0.0
C2069 C 0.62988 0.54093 0.25514 0.0
C2070 C 0.58849 0.55222 0.24171 0.0
N2071 N 0.61971 0.55021 0.27375 0.0
C2072 C 0.6199 0.53746 0.22926 0.0
C2073 C 0.59912 0.54366 0.22209 0.0
H2074 H 0.59061 0.56164 0.28225 0.0
H2075 H 0.64599 0.53639 0.26036 0.0
C2076 C 0.68934 0.50911 0.3603 0.0
N2077 N 0.68226 0.5148 0.33699 0.0
C2078 C 0.7013 0.49037 0.36256 0.0
C2079 C 0.69868 0.48383 0.31684 0.0
C2080 C 0.68663 0.50255 0.31543 0.0
C2081 C 0.70606 0.47733 0.34063 0.0
H2082 H 0.68563 0.5191 0.37716 0.0
H2083 H 0.68086 0.50744 0.29711 0.0
O2084 O 0.63662 0.58724 0.33343 0.0
O2085 O 0.6722 0.56711 0.36512 0.0
O2086 O 0.63284 0.53007 0.33088 0.0
O2087 O 0.66996 0.56017 0.3066 0.0
H2088 H 0.64627 0.61133 0.29602 0.0
H2089 H 0.59523 0.5889 0.33913 0.0
H2090 H 0.62048 0.63226 0.2712 0.0
H2091 H 0.57037 0.6104 0.31373 0.0
H2092 H 0.7273 0.5938 0.43517 0.0
H2093 H 0.65474 0.60183 0.38772 0.0
H2094 H 0.7109 0.56649 0.39361 0.0
H2095 H 0.67195 0.62823 0.42953 0.0
H2096 H 0.5882 0.57997 0.42086 0.0
H2097 H 0.62585 0.52361 0.43293 0.0
H2098 H 0.71319 0.64404 0.29051 0.0
H2099 H 0.72452 0.66873 0.37191 0.0
H2100 H 0.63198 0.49444 0.29305 0.0
H2101 H 0.59144 0.53451 0.33297 0.0
H2102 H 0.59743 0.47025 0.26375 0.0
H2103 H 0.55758 0.50958 0.30303 0.0
H2104 H 0.68355 0.55775 0.26228 0.0
H2105 H 0.70579 0.56789 0.34367 0.0
H2106 H 0.72302 0.56178 0.25694 0.0
H2107 H 0.74476 0.57181 0.33687 0.0
H2108 H 0.57218 0.55661 0.23723 0.0
H2109 H 0.6287 0.53061 0.21494 0.0
H2110 H 0.7066 0.48595 0.38127 0.0
H2111 H 0.70242 0.47479 0.29948 0.0
Tb2112 Tb 0.02525 0.01649 0.03605 0.0
Tb2113 Tb 0.07198 0.04384 0.06591 0.0
C2114 C 0.98365 1.00325 0.02528 0.0
C2115 C 0.96832 1.01278 0.04033 0.0
C2116 C 0.97264 1.01451 0.06708 0.0
C2117 C 0.96327 0.03028 0.08225 0.0
C2118 C 0.94956 0.04463 0.07095 0.0
C2119 C 0.94331 0.0409 0.04421 0.0
C2120 C 0.95273 0.02514 0.02897 0.0
C2121 C 0.05737 0.02018 1.0082 0.0
C2122 C 0.03942 0.07641 0.04337 0.0
C2123 C 0.11361 0.05677 0.07618 0.0
C2124 C 0.1295 0.04515 0.09089 0.0
C2125 C 0.14999 0.04441 0.08325 0.0
C2126 C 0.16118 0.02585 0.08917 0.0
C2127 C 0.15187 1.00785 0.10263 0.0
C2128 C 0.13288 1.01042 0.11292 0.0
C2129 C 0.12172 0.02903 0.1071 0.0
C2130 C 0.04304 0.03667 0.09778 0.0
C2131 C 0.05591 0.98525 0.06509 0.0
O2132 O 0.99637 0.99017 0.03659 0.0
O2133 O 0.99497 0.01956 0.01416 0.0
O2134 O 0.05531 0.03562 0.02653 0.0
O2135 O 0.03991 1.00209 1.00414 0.0
O2136 O 0.02308 0.05612 0.03936 0.0
O2137 O 0.06048 0.07569 0.05264 0.0
O2138 O 0.10258 0.04239 0.05498 0.0
O2139 O 0.10059 0.0676 0.08879 0.0
O2140 O 0.04004 0.03074 0.07396 0.0
O2141 O 0.06376 0.04831 0.10486 0.0
O2142 O 0.07291 1.00461 0.06827 0.0
O2143 O 0.03542 0.98655 0.05452 0.0
H2144 H 0.98464 1.00525 0.07649 0.0
H2145 H 0.96811 0.03265 0.10281 0.0
H2146 H 0.93225 0.05137 0.0351 0.0
H2147 H 0.9492 0.02414 1.00844 0.0
H2148 H 0.15607 0.05646 0.07047 0.0
H2149 H 0.17576 0.02399 0.08091 0.0
H2150 H 0.12554 0.99668 0.12336 0.0
H2151 H 0.10579 0.0291 0.11298 0.0
Tb2152 Tb 0.30215 0.77589 0.27852 0.0
Tb2153 Tb 0.29652 0.7946 0.33498 0.0
C2154 C 0.2958 0.76382 0.23123 0.0
C2155 C 0.30922 0.77138 0.21248 0.0
C2156 C 0.32905 0.78956 0.22021 0.0
C2157 C 0.33966 0.80013 0.20202 0.0
C2158 C 0.33057 0.79253 0.17594 0.0
C2159 C 0.31175 0.77287 0.16836 0.0
C2160 C 0.3011 0.76239 0.18656 0.0
C2161 C 0.33946 0.77799 0.31269 0.0
C2162 C 0.31941 0.8344 0.30144 0.0
C2163 C 0.30466 0.80697 0.38248 0.0
C2164 C 0.29593 0.79759 0.40395 0.0
C2165 C 0.28908 0.77213 0.40342 0.0
C2166 C 0.2839 0.76321 0.42522 0.0
C2167 C 0.28522 0.77959 0.44785 0.0
C2168 C 0.29032 0.80514 0.44766 0.0
C2169 C 0.29584 0.81408 0.42587 0.0
C2170 C 0.25931 0.79228 0.30046 0.0
C2171 C 0.27836 0.73633 0.31152 0.0
O2172 O 0.2877 0.78146 0.24258 0.0
O2173 O 0.30448 0.75081 0.24714 0.0
O2174 O 0.3208 0.78248 0.31601 0.0
O2175 O 0.33745 0.77234 0.28816 0.0
O2176 O 0.31491 0.81642 0.2811 0.0
O2177 O 0.31463 0.82947 0.32402 0.0
O2178 O 0.31534 0.79271 0.37006 0.0
O2179 O 0.2912 0.81652 0.36729 0.0
O2180 O 0.27807 0.78803 0.29743 0.0
O2181 O 0.261 0.7978 0.325 0.0
O2182 O 0.28359 0.75387 0.33238 0.0
O2183 O 0.28262 0.74181 0.28898 0.0
H2184 H 0.33552 0.79659 0.24027 0.0
H2185 H 0.35402 0.81536 0.2083 0.0
H2186 H 0.30407 0.76703 0.14841 0.0
H2187 H 0.2858 0.74838 0.18039 0.0
H2188 H 0.28876 0.75907 0.38656 0.0
H2189 H 0.28013 0.74342 0.42474 0.0
H2190 H 0.29092 0.81819 0.46462 0.0
H2191 H 0.30079 0.83382 0.42644 0.0
Tb2192 Tb 0.57146 0.03943 0.549 0.0
Tb2193 Tb 0.52351 0.03382 0.56307 0.0
C2194 C 0.61259 0.03952 0.55013 0.0
C2195 C 0.63095 0.02627 0.55721 0.0
C2196 C 0.65264 0.04011 0.56777 0.0
C2197 C 0.67102 0.02869 0.5711 0.0
C2198 C 0.66834 1.00301 0.56385 0.0
C2199 C 0.64644 0.98899 0.55429 0.0
C2200 C 0.62801 1.00045 0.55088 0.0
C2201 C 0.54081 0.04507 0.50809 0.0
C2202 C 0.53953 0.98558 0.5425 0.0
C2203 C 0.48247 0.0334 0.56278 0.0
C2204 C 0.46358 0.04558 0.55501 0.0
C2205 C 0.4416 0.03137 0.54949 0.0
C2206 C 0.42312 0.04253 0.54571 0.0
C2207 C 0.42604 0.06832 0.54743 0.0
C2208 C 0.44812 0.08249 0.55181 0.0
C2209 C 0.46667 0.07128 0.5557 0.0
C2210 C 0.55396 0.02761 0.60383 0.0
C2211 C 0.55511 0.08774 0.56933 0.0
O2212 O 0.60517 0.05179 0.56828 0.0
O2213 O 0.59647 0.02854 0.53097 0.0
O2214 O 0.53805 0.04097 0.53037 0.0
O2215 O 0.56214 0.04667 0.50927 0.0
O2216 O 0.56013 0.9992 0.54559 0.0
O2217 O 0.52222 0.99558 0.54617 0.0
O2218 O 0.48959 0.02002 0.54519 0.0
O2219 O 0.49889 0.04597 0.58086 0.0
O2220 O 0.55688 0.03215 0.58173 0.0
O2221 O 0.53262 0.02593 0.6024 0.0
O2222 O 0.53463 0.07388 0.56612 0.0
O2223 O 0.57256 0.07807 0.56528 0.0
H2224 H 0.65552 0.06 0.57275 0.0
H2225 H 0.68746 0.0401 0.57911 0.0
H2226 H 0.64364 0.96919 0.54856 0.0
H2227 H 0.61158 0.98918 0.54257 0.0
H2228 H 0.43867 1.01156 0.54886 0.0
H2229 H 0.40645 0.03093 0.54177 0.0
H2230 H 0.45106 0.10237 0.55316 0.0
H2231 H 0.48338 0.08276 0.55988 0.0
Tb2232 Tb 0.27337 0.29359 0.80246 0.0
Tb2233 Tb 0.32062 0.28273 0.81061 0.0
C2234 C 0.23294 0.29494 0.8047 0.0
C2235 C 0.21566 0.29155 0.82135 0.0
C2236 C 0.20604 0.26805 0.82615 0.0
C2237 C 0.18771 0.26475 0.83883 0.0
C2238 C 0.17839 0.28483 0.84713 0.0
C2239 C 0.1883 0.30836 0.84271 0.0
C2240 C 0.2066 0.31165 0.83003 0.0
C2241 C 0.30584 0.3284 0.79444 0.0
C2242 C 0.30267 0.3012 0.85924 0.0
C2243 C 0.3614 0.28255 0.80921 0.0
C2244 C 0.37874 0.28286 0.79265 0.0
C2245 C 0.38218 0.30007 0.77593 0.0
C2246 C 0.40039 0.30157 0.76295 0.0
C2247 C 0.41567 0.28592 0.76627 0.0
C2248 C 0.41196 0.26864 0.78285 0.0
C2249 C 0.39381 0.26712 0.79572 0.0
C2250 C 0.28783 0.24747 0.81768 0.0
C2251 C 0.29078 0.27395 0.75381 0.0
O2252 O 0.23954 0.27541 0.79524 0.0
O2253 O 0.24949 0.31437 0.81103 0.0
O2254 O 0.30704 0.31498 0.81148 0.0
O2255 O 0.28522 0.32396 0.78243 0.0
O2256 O 0.28265 0.29622 0.84419 0.0
O2257 O 0.321 0.29956 0.8498 0.0
O2258 O 0.35365 0.30255 0.81391 0.0
O2259 O 0.34581 0.26249 0.80662 0.0
O2260 O 0.287 0.26145 0.80118 0.0
O2261 O 0.30834 0.25183 0.8301 0.0
O2262 O 0.31089 0.27806 0.76862 0.0
O2263 O 0.27268 0.27648 0.76335 0.0
H2264 H 0.21222 0.25199 0.81946 0.0
H2265 H 0.18036 0.24626 0.84131 0.0
H2266 H 0.18175 0.32429 0.84886 0.0
H2267 H 0.21332 0.32993 0.82639 0.0
H2268 H 0.37105 0.31267 0.77324 0.0
H2269 H 0.40257 0.31509 0.75036 0.0
H2270 H 0.42354 0.25671 0.78657 0.0
H2271 H 0.39192 0.25399 0.80878 0.0
Tb2272 Tb 0.04349 0.057 0.55638 0.0
Tb2273 Tb 0.05225 1.00947 0.54742 0.0
C2274 C 0.0465 0.1025 0.5691 0.0
C2275 C 0.05183 0.12349 0.55595 0.0
C2276 C 0.06241 0.12126 0.53482 0.0
C2277 C 0.06625 0.14082 0.52134 0.0
C2278 C 0.05945 0.16281 0.52877 0.0
C2279 C 0.049 0.16499 0.55009 0.0
C2280 C 0.04529 0.14545 0.56365 0.0
C2281 C 1.00727 0.02196 0.55546 0.0
C2282 C 0.0339 0.03291 0.49971 0.0
C2283 C 0.05118 0.96434 0.53508 0.0
C2284 C 0.05452 0.94515 0.55035 0.0
C2285 C 0.06751 0.9515 0.57503 0.0
C2286 C 0.06974 0.93337 0.59009 0.0
C2287 C 0.05881 0.90876 0.58077 0.0
C2288 C 0.04586 0.9024 0.55605 0.0
C2289 C 0.04373 0.92056 0.54089 0.0
C2290 C 0.0884 0.04494 0.55054 0.0
C2291 C 0.06222 0.03327 0.60428 0.0
O2292 O 0.06286 0.09136 0.57497 0.0
O2293 O 0.02767 0.08696 0.55903 0.0
O2294 O 0.0272 0.02223 0.56564 0.0
O2295 O 1.00736 0.04218 0.54629 0.0
O2296 O 0.04009 0.0544 0.51501 0.0
O2297 O 0.03492 1.01253 0.50931 0.0
O2298 O 0.03339 0.97315 0.53725 0.0
O2299 O 0.06881 0.98174 0.53618 0.0
O2300 O 0.06885 0.0444 0.53878 0.0
O2301 O 0.08793 0.02513 0.56063 0.0
O2302 O 0.05747 1.0119 0.58881 0.0
O2303 O 0.05959 0.05353 0.59504 0.0
H2304 H 0.06737 0.10426 0.52852 0.0
H2305 H 0.07425 0.13867 0.50492 0.0
H2306 H 0.04305 0.18149 0.55578 0.0
H2307 H 0.03686 0.14727 0.57976 0.0
H2308 H 0.07575 0.97048 0.58274 0.0
H2309 H 0.07965 0.93863 0.6092 0.0
H2310 H 0.03744 0.88343 0.54851 0.0
H2311 H 0.0335 0.91548 0.52194 0.0
Tb2312 Tb 0.30329 0.76695 0.7935 0.0
Tb2313 Tb 0.30929 0.82317 0.79707 0.0
C2314 C 0.29929 0.72167 0.7776 0.0
C2315 C 0.31183 0.70217 0.78139 0.0
C2316 C 0.30616 0.68036 0.76351 0.0
C2317 C 0.31898 0.66239 0.76517 0.0
C2318 C 0.3377 0.66587 0.78482 0.0
C2319 C 0.34325 0.68771 0.80291 0.0
C2320 C 0.33045 0.70578 0.80115 0.0
C2321 C 0.3017 0.79091 0.83892 0.0
C2322 C 0.34973 0.80186 0.81819 0.0
C2323 C 0.3068 0.86768 0.80079 0.0
C2324 C 0.2905 0.88267 0.80645 0.0
C2325 C 0.29829 0.90713 0.8189 0.0
C2326 C 0.28323 0.92223 0.82315 0.0
C2327 C 0.26007 0.91311 0.81494 0.0
C2328 C 0.25224 0.88831 0.80323 0.0
C2329 C 0.26733 0.87323 0.79893 0.0
C2330 C 0.32304 0.79966 0.75891 0.0
C2331 C 0.26051 0.78841 0.77999 0.0
O2332 O 0.30905 0.73936 0.76688 0.0
O2333 O 0.29029 0.73006 0.79651 0.0
O2334 O 0.29483 0.79602 0.81744 0.0
O2335 O 0.30867 0.77046 0.83529 0.0
O2336 O 0.33935 0.78028 0.80414 0.0
O2337 O 0.33935 0.82024 0.82215 0.0
O2338 O 0.3162 0.85828 0.81973 0.0
O2339 O 0.3012 0.85212 0.77921 0.0
O2340 O 0.30589 0.79267 0.76787 0.0
O2341 O 0.33327 0.82123 0.77114 0.0
O2342 O 0.27286 0.81082 0.78917 0.0
O2343 O 0.26916 0.76856 0.77768 0.0
H2344 H 0.29202 0.67741 0.74793 0.0
H2345 H 0.31429 0.64576 0.751 0.0
H2346 H 0.35782 0.69108 0.81799 0.0
H2347 H 0.33532 0.72275 0.81485 0.0
H2348 H 0.31609 0.91472 0.8249 0.0
H2349 H 0.28972 0.94127 0.83217 0.0
H2350 H 0.23447 0.88065 0.79722 0.0
H2351 H 0.26088 0.85433 0.78951 0.0
Tb2352 Tb 0.52653 0.02848 0.03576 0.0
Tb2353 Tb 0.56959 0.03944 0.07368 0.0
C2354 C 0.48934 1.00699 1.00923 0.0
C2355 C 0.46564 1.0061 1.00979 0.0
C2356 C 0.45073 0.98311 1.00412 0.0
C2357 C 0.42813 0.98152 1.00471 0.0
C2358 C 0.42011 1.00296 0.01071 0.0
C2359 C 0.43489 0.02607 0.0161 0.0
C2360 C 0.45764 0.02765 0.01581 0.0
C2361 C 0.54262 0.07572 0.05351 0.0
C2362 C 0.52427 0.03445 0.09787 0.0
C2363 C 0.60667 0.06178 0.10013 0.0
C2364 C 0.63036 0.06659 0.09809 0.0
C2365 C 0.63689 0.06678 0.07431 0.0
C2366 C 0.65947 0.0738 0.07293 0.0
C2367 C 0.67577 0.08109 0.09536 0.0
C2368 C 0.66923 0.07984 0.11909 0.0
C2369 C 0.64666 0.07263 0.12042 0.0
C2370 C 0.553 0.99239 0.05562 0.0
C2371 C 0.57199 0.03371 0.01182 0.0
O2372 O 0.50011 0.99735 0.02703 0.0
O2373 O 0.50102 0.02776 1.00515 0.0
O2374 O 0.54323 0.05777 0.06512 0.0
O2375 O 0.53033 0.06725 0.03111 0.0
O2376 O 0.51329 0.02743 0.07341 0.0
O2377 O 0.54665 0.04115 0.10208 0.0
O2378 O 0.59379 0.07217 0.08511 0.0
O2379 O 0.59737 0.03899 0.10139 0.0
O2380 O 0.55285 1.01046 0.04419 0.0
O2381 O 0.56489 1.00032 0.0784 0.0
O2382 O 0.58279 0.04046 0.03629 0.0
O2383 O 0.54961 0.02689 1.00733 0.0
H2384 H 0.45663 0.96634 0.99941 0.0
H2385 H 0.41688 0.96353 1.00056 0.0
H2386 H 0.42892 0.04274 0.02103 0.0
H2387 H 0.46893 0.04561 0.02044 0.0
H2388 H 0.62452 0.06232 0.0569 0.0
H2389 H 0.66412 0.07419 0.05438 0.0
H2390 H 0.68146 0.08548 0.13666 0.0
H2391 H 0.64186 0.0726 0.13894 0.0
Tb2392 Tb 0.27321 0.26673 0.29666 0.0
Tb2393 Tb 0.31734 0.30102 0.3195 0.0
C2394 C 0.23548 0.24096 0.29683 0.0
C2395 C 0.21243 0.24433 0.29153 0.0
C2396 C 0.1972 0.23324 0.30549 0.0
C2397 C 0.17736 0.24126 0.30664 0.0
C2398 C 0.17245 0.26033 0.29368 0.0
C2399 C 0.18669 0.2699 0.27784 0.0
C2400 C 0.20679 0.26212 0.27698 0.0
C2401 C 0.28826 0.28893 0.25957 0.0
C2402 C 0.27433 0.32658 0.31246 0.0
C2403 C 0.3573 0.32379 0.32669 0.0
C2404 C 0.37682 0.31572 0.3191 0.0
C2405 C 0.37423 0.29907 0.29638 0.0
C2406 C 0.39251 0.29054 0.28958 0.0
C2407 C 0.41363 0.29832 0.30546 0.0
C2408 C 0.41621 0.31474 0.32835 0.0
C2409 C 0.39786 0.3234 0.33513 0.0
C2410 C 0.29497 0.2817 0.35305 0.0
C2411 C 0.31682 0.24161 0.30074 0.0
O2412 O 0.24788 0.25618 0.31675 0.0
O2413 O 0.24593 0.23853 0.27751 0.0
O2414 O 0.29738 0.29137 0.28278 0.0
O2415 O 0.26983 0.27244 0.25653 0.0
O2416 O 0.26234 0.30319 0.30602 0.0
O2417 O 0.29672 0.3302 0.31759 0.0
O2418 O 0.34193 0.32602 0.30795 0.0
O2419 O 0.34877 0.31232 0.34372 0.0
O2420 O 0.29675 0.27123 0.33138 0.0
O2421 O 0.30638 0.30432 0.35652 0.0
O2422 O 0.32868 0.26495 0.30879 0.0
O2423 O 0.29441 0.238 0.29516 0.0
H2424 H 0.20144 0.21973 0.31707 0.0
H2425 H 0.16654 0.23374 0.31901 0.0
H2426 H 0.18313 0.28465 0.26775 0.0
H2427 H 0.21855 0.27117 0.26643 0.0
H2428 H 0.35805 0.29257 0.28389 0.0
H2429 H 0.39017 0.27782 0.27189 0.0
H2430 H 0.43246 0.32119 0.34069 0.0
H2431 H 0.40006 0.33604 0.35284 0.0
Tb2432 Tb 0.54439 0.55708 0.06273 0.0
Tb2433 Tb 0.55476 0.51049 0.05583 0.0
C2434 C 0.54527 0.6024 0.0732 0.0
C2435 C 0.54562 0.62145 0.05704 0.0
C2436 C 0.55049 0.6167 0.03253 0.0
C2437 C 0.5495 0.63401 0.01629 0.0
C2438 C 0.54352 0.65629 0.02431 0.0
C2439 C 0.53912 0.66132 0.04907 0.0
C2440 C 0.54006 0.64387 0.06535 0.0
C2441 C 0.50891 0.52114 0.06104 0.0
C2442 C 0.53492 0.53132 1.00654 0.0
C2443 C 0.55434 0.46544 0.04396 0.0
C2444 C 0.55422 0.44527 0.05859 0.0
C2445 C 0.54827 0.44763 0.08273 0.0
C2446 C 0.54946 0.42899 0.09736 0.0
C2447 C 0.55658 0.40781 0.08798 0.0
C2448 C 0.56239 0.40543 0.06371 0.0
C2449 C 0.56118 0.4241 0.04906 0.0
C2450 C 0.58995 0.5466 0.05666 0.0
C2451 C 0.56357 0.53543 0.11213 0.0
O2452 O 0.56314 0.59307 0.07598 0.0
O2453 O 0.52689 0.58535 0.06819 0.0
O2454 O 0.52864 0.52243 0.07278 0.0
O2455 O 0.50881 0.54054 0.05039 0.0
O2456 O 0.53964 0.55316 0.02113 0.0
O2457 O 0.53786 0.51181 0.01694 0.0
O2458 O 0.53633 0.47451 0.04197 0.0
O2459 O 0.5726 0.48265 0.04972 0.0
O2460 O 0.57007 0.54498 0.04529 0.0
O2461 O 0.59038 0.52753 0.06777 0.0
O2462 O 0.55944 0.5138 0.09725 0.0
O2463 O 0.56044 0.55513 0.10203 0.0
H2464 H 0.55486 0.59951 0.02586 0.0
H2465 H 0.5534 0.62998 0.99746 0.0
H2466 H 0.53453 0.67849 0.05557 0.0
H2467 H 0.53618 0.64771 0.08422 0.0
H2468 H 0.54304 0.46402 0.09041 0.0
H2469 H 0.54531 0.43139 0.11622 0.0
H2470 H 0.56794 0.38919 0.05619 0.0
H2471 H 0.56594 0.42219 0.03049 0.0
Tb2472 Tb 0.79286 0.24803 0.31529 0.0
Tb2473 Tb 0.79799 0.30407 0.33492 0.0
C2474 C 0.79649 0.20615 0.29574 0.0
C2475 C 0.81369 0.19254 0.28965 0.0
C2476 C 0.80862 0.17469 0.26753 0.0
C2477 C 0.823 0.15879 0.26314 0.0
C2478 C 0.84267 0.16039 0.28088 0.0
C2479 C 0.84853 0.17941 0.30213 0.0
C2480 C 0.83411 0.19535 0.30653 0.0
C2481 C 0.77321 0.25959 0.35378 0.0
C2482 C 0.83922 0.27933 0.34882 0.0
C2483 C 0.79817 0.34569 0.35907 0.0
C2484 C 0.78434 0.36436 0.35545 0.0
C2485 C 0.76081 0.35767 0.35065 0.0
C2486 C 0.74797 0.37561 0.3483 0.0
C2487 C 0.75827 0.40059 0.34979 0.0
C2488 C 0.78183 0.40717 0.35434 0.0
C2489 C 0.79469 0.38927 0.35726 0.0
C2490 C 0.80587 0.29198 0.28865 0.0
C2491 C 0.75408 0.2737 0.29836 0.0
O2492 O 0.79295 0.22348 0.28227 0.0
O2493 O 0.79604 0.21235 0.32004 0.0
O2494 O 0.7917 0.27042 0.34976 0.0
O2495 O 0.76496 0.24072 0.33593 0.0
O2496 O 0.82774 0.25836 0.33437 0.0
O2497 O 0.83064 0.29919 0.35304 0.0
O2498 O 0.78809 0.32478 0.36461 0.0
O2499 O 0.8112 0.34243 0.34248 0.0
O2500 O 0.80997 0.28192 0.30772 0.0
O2501 O 0.79809 0.31129 0.29553 0.0
O2502 O 0.76286 0.29205 0.31754 0.0
O2503 O 0.76503 0.25673 0.29097 0.0
H2504 H 0.79306 0.17237 0.25414 0.0
H2505 H 0.81835 0.14466 0.2463 0.0
H2506 H 0.86365 0.18112 0.31604 0.0
H2507 H 0.83849 0.20914 0.32364 0.0
H2508 H 0.75226 0.33863 0.34927 0.0
H2509 H 0.72995 0.36987 0.34574 0.0
H2510 H 0.79036 0.42617 0.3555 0.0
H2511 H 0.81278 0.39491 0.36093 0.0
Tb2512 Tb 0.02698 0.53645 0.53807 0.0
Tb2513 Tb 0.06832 0.53605 0.57467 0.0
C2514 C 0.98921 0.52422 0.50969 0.0
C2515 C 0.96579 0.52503 0.51056 0.0
C2516 C 0.95592 0.51835 0.53111 0.0
C2517 C 0.93298 0.51648 0.52998 0.0
C2518 C 0.91962 0.52152 0.50843 0.0
C2519 C 0.92981 0.52939 0.4885 0.0
C2520 C 0.95271 0.53109 0.48956 0.0
C2521 C 0.04948 0.58055 0.56193 0.0
C2522 C 0.02328 0.53604 0.59889 0.0
C2523 C 0.10568 0.54805 0.60392 0.0
C2524 C 0.12909 0.54644 0.60498 0.0
C2525 C 0.13883 0.54596 0.58314 0.0
C2526 C 0.16185 0.54739 0.58542 0.0
C2527 C 0.17527 0.54934 0.60954 0.0
C2528 C 0.1652 0.54829 0.63108 0.0
C2529 C 0.14225 0.5469 0.6288 0.0
C2530 C 0.04598 0.49213 0.54983 0.0
C2531 C 0.07214 0.53679 0.51387 0.0
O2532 O 0.99805 0.50928 0.5231 0.0
O2533 O 1.00291 0.54548 0.51102 0.0
O2534 O 0.04657 0.56068 0.5706 0.0
O2535 O 0.03789 0.57613 0.53892 0.0
O2536 O 1.01248 0.5325 0.57445 0.0
O2537 O 0.04563 0.53958 0.60315 0.0
O2538 O 0.09796 0.56241 0.58883 0.0
O2539 O 0.09139 0.52729 0.60302 0.0
O2540 O 0.04893 0.51236 0.54204 0.0
O2541 O 0.05757 0.49584 0.57282 0.0
O2542 O 0.08291 0.53984 0.53831 0.0
O2543 O 0.04979 0.53364 0.50956 0.0
H2544 H 0.96572 0.51368 0.54757 0.0
H2545 H 0.92554 0.50985 0.54539 0.0
H2546 H 0.91991 0.53344 0.47172 0.0
H2547 H 0.96009 0.53636 0.47357 0.0
H2548 H 0.12884 0.54543 0.56456 0.0
H2549 H 0.16932 0.54827 0.56857 0.0
H2550 H 0.17522 0.5495 0.6498 0.0
H2551 H 0.1349 0.54707 0.6458 0.0
Tb2552 Tb 0.77479 0.79067 0.30312 0.0
Tb2553 Tb 0.82175 0.7796 0.31039 0.0
C2554 C 0.73463 0.7934 0.30508 0.0
C2555 C 0.71647 0.78897 0.32034 0.0
C2556 C 0.69539 0.77454 0.30816 0.0
C2557 C 0.67712 0.77196 0.32082 0.0
C2558 C 0.67933 0.78365 0.34617 0.0
C2559 C 0.7006 0.7977 0.35861 0.0
C2560 C 0.71893 0.80037 0.34586 0.0
C2561 C 0.80718 0.82527 0.29429 0.0
C2562 C 0.80413 0.79777 0.3594 0.0
C2563 C 0.86246 0.77939 0.30847 0.0
C2564 C 0.87971 0.78098 0.29165 0.0
C2565 C 0.88934 0.80354 0.28475 0.0
C2566 C 0.90765 0.80536 0.272 0.0
C2567 C 0.91695 0.78472 0.26571 0.0
C2568 C 0.9071 0.76215 0.27237 0.0
C2569 C 0.88883 0.76034 0.28511 0.0
C2570 C 0.78952 0.74448 0.3189 0.0
C2571 C 0.79109 0.76996 0.25415 0.0
O2572 O 0.74042 0.77408 0.29384 0.0
O2573 O 0.7519 0.81174 0.3138 0.0
O2574 O 0.80847 0.812 0.3114 0.0
O2575 O 0.78656 0.82062 0.28236 0.0
O2576 O 0.78395 0.79232 0.34469 0.0
O2577 O 0.82239 0.79678 0.3496 0.0
O2578 O 0.85503 0.79922 0.31512 0.0
O2579 O 0.84661 0.75937 0.30456 0.0
O2580 O 0.78807 0.75814 0.3021 0.0
O2581 O 0.81028 0.74904 0.33057 0.0
O2582 O 0.81153 0.77483 0.26837 0.0
O2583 O 0.77335 0.77257 0.26431 0.0
H2584 H 0.69288 0.76564 0.28849 0.0
H2585 H 0.66113 0.76084 0.31065 0.0
H2586 H 0.70296 0.80729 0.37798 0.0
H2587 H 0.73486 0.81178 0.35581 0.0
H2588 H 0.8831 0.82 0.28974 0.0
H2589 H 0.91468 0.82305 0.26721 0.0
H2590 H 0.91401 0.74597 0.26854 0.0
H2591 H 0.88227 0.74283 0.29061 0.0
Tb2592 Tb 0.80321 0.27465 0.78053 0.0
Tb2593 Tb 0.79472 0.29303 0.82775 0.0
C2594 C 0.80686 0.26495 0.73453 0.0
C2595 C 0.8068 0.27846 0.71306 0.0
C2596 C 0.79913 0.30051 0.71406 0.0
C2597 C 0.79801 0.31263 0.69302 0.0
C2598 C 0.80446 0.30278 0.67067 0.0
C2599 C 0.81242 0.28086 0.66984 0.0
C2600 C 0.81368 0.26882 0.69101 0.0
C2601 C 0.83356 0.26762 0.81872 0.0
C2602 C 0.81881 0.33383 0.80018 0.0
C2603 C 0.7929 0.30105 0.87436 0.0
C2604 C 0.80296 0.29004 0.89523 0.0
C2605 C 0.81921 0.27635 0.89118 0.0
C2606 C 0.83057 0.26766 0.91135 0.0
C2607 C 0.82549 0.27206 0.93583 0.0
C2608 C 0.80837 0.28477 0.93952 0.0
C2609 C 0.79735 0.29397 0.91937 0.0
C2610 C 0.76357 0.29876 0.7897 0.0
C2611 C 0.77894 0.23393 0.80779 0.0
O2612 O 0.78793 0.26044 0.74261 0.0
O2613 O 0.82392 0.2728 0.75329 0.0
O2614 O 0.82553 0.28675 0.81745 0.0
O2615 O 0.8246 0.25211 0.79807 0.0
O2616 O 0.81282 0.31557 0.78025 0.0
O2617 O 0.81507 0.32854 0.8226 0.0
O2618 O 0.80742 0.31432 0.86384 0.0
O2619 O 0.77708 0.28615 0.85735 0.0
O2620 O 0.77237 0.28025 0.79122 0.0
O2621 O 0.77151 0.31415 0.81064 0.0
O2622 O 0.78593 0.25188 0.828 0.0
O2623 O 0.78219 0.23954 0.78533 0.0
H2624 H 0.79348 0.30802 0.73087 0.0
H2625 H 0.79135 0.32922 0.69388 0.0
H2626 H 0.81734 0.27291 0.65271 0.0
H2627 H 0.81959 0.25175 0.69 0.0
H2628 H 0.82342 0.27286 0.87247 0.0
H2629 H 0.84358 0.25786 0.90786 0.0
H2630 H 0.80348 0.28761 0.95795 0.0
H2631 H 0.78464 0.30428 0.92267 0.0
Tb2632 Tb 0.77497 0.76778 0.79525 0.0
Tb2633 Tb 0.81789 0.80043 0.82127 0.0
C2634 C 0.73602 0.74344 0.79204 0.0
C2635 C 0.71408 0.74944 0.78517 0.0
C2636 C 0.69579 0.73648 0.79369 0.0
C2637 C 0.67661 0.74607 0.79407 0.0
C2638 C 0.67559 0.76889 0.78617 0.0
C2639 C 0.69321 0.78081 0.77567 0.0
C2640 C 0.71237 0.77113 0.77517 0.0
C2641 C 0.79188 0.7902 0.75939 0.0
C2642 C 0.7759 0.82717 0.81239 0.0
C2643 C 0.85806 0.82331 0.83281 0.0
C2644 C 0.87792 0.81728 0.82418 0.0
C2645 C 0.87542 0.80041 0.80169 0.0
C2646 C 0.8941 0.79409 0.79351 0.0
C2647 C 0.91562 0.80465 0.80762 0.0
C2648 C 0.91814 0.82122 0.8304 0.0
C2649 C 0.89933 0.82754 0.83863 0.0
C2650 C 0.79338 0.78061 0.85282 0.0
C2651 C 0.81763 0.74161 0.80078 0.0
O2652 O 0.74803 0.75715 0.81309 0.0
O2653 O 0.74766 0.74085 0.77386 0.0
O2654 O 0.80052 0.79282 0.78291 0.0
O2655 O 0.77344 0.77368 0.75556 0.0
O2656 O 0.76386 0.8041 0.80399 0.0
O2657 O 0.79806 0.83021 0.81957 0.0
O2658 O 0.84329 0.82833 0.8152 0.0
O2659 O 0.84878 0.80821 0.84656 0.0
O2660 O 0.79616 0.77038 0.83147 0.0
O2661 O 0.80467 0.80327 0.85681 0.0
O2662 O 0.82945 0.7647 0.81011 0.0
O2663 O 0.79536 0.73834 0.79393 0.0
H2664 H 0.69696 0.71991 0.80178 0.0
H2665 H 0.6633 0.73658 0.80239 0.0
H2666 H 0.69268 0.79827 0.76918 0.0
H2667 H 0.72642 0.78144 0.76862 0.0
H2668 H 0.85901 0.79213 0.79036 0.0
H2669 H 0.89174 0.78092 0.77615 0.0
H2670 H 0.93463 0.82952 0.84156 0.0
H2671 H 0.90148 0.84041 0.85617 0.0
Tb2672 Tb 0.52803 0.52181 0.54107 0.0
Tb2673 Tb 0.56604 0.55247 0.57519 0.0
C2674 C 0.48825 0.50377 0.51914 0.0
C2675 C 0.47129 0.51477 0.50529 0.0
C2676 C 0.45043 0.51259 0.51277 0.0
C2677 C 0.43717 0.52946 0.50723 0.0
C2678 C 0.44468 0.54861 0.49414 0.0
C2679 C 0.46393 0.54853 0.48352 0.0
C2680 C 0.47731 0.53178 0.48921 0.0
C2681 C 0.5635 0.52939 0.51884 0.0
C2682 C 0.53659 0.58154 0.54342 0.0
C2683 C 0.60536 0.57211 0.59792 0.0
C2684 C 0.62428 0.56165 0.60802 0.0
C2685 C 0.64349 0.56578 0.59714 0.0
C2686 C 0.65779 0.54938 0.59832 0.0
C2687 C 0.6531 0.52885 0.61063 0.0
C2688 C 0.63614 0.52728 0.62519 0.0
C2689 C 0.62159 0.5435 0.62371 0.0
C2690 C 0.53038 0.54421 0.59717 0.0
C2691 C 0.55813 0.49281 0.572 0.0
O2692 O 0.49416 0.51308 0.54342 0.0
O2693 O 0.50551 0.50127 0.5086 0.0
O2694 O 0.55754 0.54501 0.53416 0.0
O2695 O 0.5493 0.5085 0.51608 0.0
O2696 O 0.52315 0.55944 0.53466 0.0
O2697 O 0.55525 0.58349 0.55989 0.0
O2698 O 0.59926 0.56683 0.57309 0.0
O2699 O 0.58815 0.56951 0.60938 0.0
O2700 O 0.53677 0.52891 0.58202 0.0
O2701 O 0.54407 0.5654 0.5996 0.0
O2702 O 0.57221 0.51475 0.57933 0.0
O2703 O 0.5385 0.49111 0.55736 0.0
H2704 H 0.44549 0.49955 0.52514 0.0
H2705 H 0.42234 0.52916 0.51561 0.0
H2706 H 0.46966 0.56291 0.47298 0.0
H2707 H 0.49326 0.53367 0.483 0.0
H2708 H 0.64602 0.57991 0.58526 0.0
H2709 H 0.6709 0.55122 0.5871 0.0
H2710 H 0.63281 0.51207 0.63556 0.0
H2711 H 0.60719 0.54036 0.63286 0.0
Tb2712 Tb 0.07173 0.53615 0.04907 0.0
Tb2713 Tb 0.02377 0.53081 0.06337 0.0
C2714 C 0.11291 0.53656 0.05001 0.0
C2715 C 0.13094 0.52227 0.05423 0.0
C2716 C 0.13717 0.51379 0.0773 0.0
C2717 C 0.1553 0.5018 0.08069 0.0
C2718 C 0.16762 0.49793 0.0611 0.0
C2719 C 0.16134 0.50663 0.03821 0.0
C2720 C 0.14332 0.51849 0.03484 0.0
C2721 C 0.04093 0.54193 1.00834 0.0
C2722 C 0.03965 0.48233 0.04241 0.0
C2723 C 0.98275 0.53057 0.06309 0.0
C2724 C 0.96422 0.54326 0.05517 0.0
C2725 C 0.94241 0.52915 0.04601 0.0
C2726 C 0.9241 0.54052 0.04149 0.0
C2727 C 0.92703 0.56645 0.04579 0.0
C2728 C 0.94903 0.58057 0.05448 0.0
C2729 C 0.96732 0.56914 0.0592 0.0
C2730 C 0.0545 0.52515 0.1042 0.0
C2731 C 0.0553 0.58466 0.06808 0.0
O2732 O 0.10508 0.54593 0.0695 0.0
O2733 O 0.09717 0.52827 0.02979 0.0
O2734 O 0.03828 0.5378 0.03065 0.0
O2735 O 0.06222 0.54336 1.00937 0.0
O2736 O 0.06025 0.49587 0.04505 0.0
O2737 O 0.02247 0.4924 0.0466 0.0
O2738 O 0.98983 0.51715 0.04548 0.0
O2739 O 0.9992 0.5428 0.08134 0.0
O2740 O 0.0572 0.52943 0.08195 0.0
O2741 O 0.03317 0.52343 0.10292 0.0
O2742 O 0.03482 0.57086 0.06529 0.0
O2743 O 0.07285 0.57481 0.06501 0.0
H2744 H 0.12818 0.51656 0.09277 0.0
H2745 H 0.15961 0.49544 0.09861 0.0
H2746 H 0.1707 0.50478 0.02294 0.0
H2747 H 0.13927 0.52518 0.01703 0.0
H2748 H 0.93939 0.50918 0.04316 0.0
H2749 H 0.9075 0.52887 0.03552 0.0
H2750 H 0.95211 0.60053 0.05796 0.0
H2751 H 0.98381 0.58056 0.06665 0.0
C2752 C 0.04804 0.14337 0.0291 0.0
C2753 C 0.02694 0.14528 0.01593 0.0
C2754 C 0.05165 0.12159 0.03843 0.0
C2755 C 0.03439 0.10023 0.03521 0.0
H2756 H 0.06211 0.15894 0.0323 0.0
H2757 H 0.06837 0.12147 0.04797 0.0
S2758 S 0.97588 0.09472 1.00166 0.0
N2759 N 0.98846 0.12309 0.99993 0.0
N2760 N 0.99505 0.08276 0.0176 0.0
C2761 C 1.01308 0.10193 0.02237 0.0
C2762 C 1.00942 0.12415 0.0128 0.0
C2763 C 0.21931 0.80446 0.24333 0.0
C2764 C 0.19791 0.79546 0.24872 0.0
C2765 C 0.23921 0.80207 0.25909 0.0
C2766 C 0.23854 0.79107 0.2812 0.0
H2767 H 0.22068 0.81348 0.22684 0.0
H2768 H 0.25522 0.80982 0.25452 0.0
S2769 S 0.18696 0.76444 0.30377 0.0
N2770 N 0.17757 0.77459 0.27754 0.0
N2771 N 0.21453 0.77094 0.30731 0.0
C2772 C 0.21726 0.78193 0.28659 0.0
C2773 C 0.19712 0.78386 0.27036 0.0
C2774 C 0.55158 0.92169 0.52165 0.0
C2775 C 0.53051 0.90536 0.51741 0.0
C2776 C 0.55426 0.94728 0.52987 0.0
C2777 C 0.53603 0.95798 0.53444 0.0
H2778 H 0.56615 0.91474 0.51803 0.0
H2779 H 0.57087 0.95877 0.53241 0.0
S2780 S 0.47744 0.92311 0.52807 0.0
N2781 N 0.49121 0.90173 0.51982 0.0
N2782 N 0.4961 0.94949 0.53499 0.0
C2783 C 0.51491 0.94174 0.53077 0.0
C2784 C 0.51219 0.91565 0.52234 0.0
C2785 C 0.46868 0.31378 0.74193 0.0
C2786 C 0.47586 0.29297 0.73112 0.0
C2787 C 0.44918 0.31141 0.7528 0.0
C2788 C 0.43581 0.28809 0.75335 0.0
H2789 H 0.47846 0.33214 0.74242 0.0
H2790 H 0.44483 0.32804 0.76136 0.0
S2791 S 0.44556 0.22781 0.72479 0.0
N2792 N 0.46682 0.24827 0.71993 0.0
N2793 N 0.43039 0.24381 0.74 0.0
C2794 C 0.44246 0.26717 0.74192 0.0
C2795 C 0.46234 0.2696 0.73095 0.0
C2796 C 0.08461 0.86978 0.62425 0.0
C2797 C 0.06576 0.85533 0.63061 0.0
C2798 C 0.08219 0.88695 0.60788 0.0
C2799 C 0.06086 0.88988 0.59712 0.0
H2800 H 0.1013 0.8681 0.63237 0.0
H2801 H 0.09708 0.89803 0.60361 0.0
S2802 S 1.00632 0.85587 0.6072 0.0
N2803 N 0.02516 0.84451 0.62453 0.0
N2804 N 0.02061 0.87691 0.59368 0.0
C2805 C 0.04189 0.87526 0.60299 0.0
C2806 C 0.04435 0.85794 0.61981 0.0
C2807 C 0.40856 0.79046 0.82967 0.0
C2808 C 0.42122 0.81289 0.844 0.0
C2809 C 0.38541 0.78698 0.82189 0.0
C2810 C 0.37407 0.8059 0.82799 0.0
H2811 H 0.41655 0.77532 0.82479 0.0
H2812 H 0.37645 0.76932 0.81083 0.0
S2813 S 0.40013 0.86856 0.86455 0.0
N2814 N 0.4212 0.85453 0.86355 0.0
N2815 N 0.3776 0.84817 0.84903 0.0
C2816 C 0.38667 0.82855 0.84224 0.0
C2817 C 0.41027 0.83201 0.85021 0.0
C2818 C 0.56005 0.13979 0.09123 0.0
C2819 C 0.54279 0.14042 0.1054 0.0
C2820 C 0.55932 0.11931 0.07285 0.0
C2821 C 0.54111 0.09917 0.06783 0.0
H2822 H 0.5746 0.15487 0.09499 0.0
H2823 H 0.57346 0.11877 0.06339 0.0
S2824 S 0.49134 0.09179 0.09861 0.0
N2825 N 0.50683 0.119 0.11264 0.0
N2826 N 0.50504 0.08115 0.0772 0.0
C2827 C 0.52323 0.10003 0.08078 0.0
C2828 C 0.52413 0.12057 0.09978 0.0
C2829 C 0.11698 0.28018 0.29076 0.0
C2830 C 0.11934 0.29345 0.3155 0.0
C2831 C 0.13458 0.27022 0.2832 0.0
C2832 C 0.15477 0.27285 0.30038 0.0
H2833 H 0.10127 0.27701 0.27744 0.0
H2834 H 0.13211 0.25967 0.26423 0.0
S2835 S 0.16944 0.30604 0.367 0.0
N2836 N 0.14366 0.309 0.35683 0.0
N2837 N 0.17647 0.29003 0.34269 0.0
C2838 C 0.15749 0.2865 0.32487 0.0
C2839 C 0.13982 0.29689 0.33242 0.0
C2840 C 1.01461 1.00158 0.1442 0.0
C2841 C 1.00553 0.01948 0.15768 0.0
C2842 C 0.02546 1.00667 0.12364 0.0
C2843 C 0.02755 0.02979 0.11552 0.0
H2844 H 1.01419 0.98381 0.15026 0.0
H2845 H 0.03312 0.99276 0.11477 0.0
S2846 S 1.00408 0.08184 0.14139 0.0
N2847 N 0.99735 0.06046 0.159 0.0
N2848 N 0.01814 0.06999 0.12104 0.0
C2849 C 0.01772 0.0474 0.12791 0.0
C2850 C 1.0066 0.04226 0.14873 0.0
C2851 C 0.27027 0.73435 0.49192 0.0
C2852 C 0.28824 0.74211 0.51262 0.0
C2853 C 0.26807 0.74804 0.47201 0.0
C2854 C 0.28407 0.76959 0.47194 0.0
H2855 H 0.2587 0.71683 0.49036 0.0
H2856 H 0.25461 0.74081 0.45575 0.0
S2857 S 0.33333 0.79824 0.52308 0.0
N2858 N 0.32111 0.77344 0.53323 0.0
N2859 N 0.31768 0.7988 0.49541 0.0
C2860 C 0.30122 0.77839 0.49353 0.0
C2861 C 0.30317 0.76465 0.51397 0.0
C2862 C 0.60702 0.02653 0.65559 0.0
C2863 C 0.59785 0.01947 0.67699 0.0
C2864 C 0.59344 0.0288 0.63197 0.0
C2865 C 0.56972 0.02446 0.62823 0.0
H2866 H 0.625 0.03017 0.65695 0.0
H2867 H 0.60169 0.03422 0.61665 0.0
S2868 S 0.53682 1.00704 0.67811 0.0
N2869 N 0.56294 1.00936 0.69218 0.0
N2870 N 0.53809 1.01324 0.64917 0.0
C2871 C 0.56051 0.01764 0.64958 0.0
C2872 C 0.57422 1.01526 0.67334 0.0
C2873 C 0.32752 0.32425 0.93042 0.0
C2874 C 0.30884 0.32789 0.94124 0.0
C2875 C 0.32538 0.31537 0.90415 0.0
C2876 C 0.30442 0.30946 0.88745 0.0
H2877 H 0.34406 0.3289 0.94225 0.0
H2878 H 0.3404 0.31342 0.89688 0.0
S2879 S 0.24991 0.31366 0.90672 0.0
N2880 N 0.2685 0.32347 0.93343 0.0
N2881 N 0.26432 0.30682 0.88448 0.0
C2882 C 0.28551 0.31237 0.89828 0.0
C2883 C 0.28775 0.32157 0.92497 0.0
C2884 C 1.01606 1.00589 0.42859 0.0
C2885 C 1.01078 0.0258 0.41714 0.0
C2886 C 0.02354 1.00847 0.4551 0.0
C2887 C 0.0264 0.03118 0.47146 0.0
H2888 H 1.01385 0.98793 0.41702 0.0
H2889 H 0.02703 0.99236 0.4628 0.0
S2890 S 1.01632 0.0896 0.45078 0.0
N2891 N 1.00983 0.06935 0.42409 0.0
N2892 N 0.0241 0.07433 0.47372 0.0
C2893 C 0.02171 0.05144 0.46013 0.0
C2894 C 1.01384 0.04872 0.43311 0.0
C2895 C 0.32585 0.74723 0.70913 0.0
C2896 C 0.34895 0.74808 0.71164 0.0
C2897 C 0.31776 0.76457 0.72403 0.0
C2898 C 0.33245 0.78335 0.74203 0.0
H2899 H 0.31389 0.73311 0.69535 0.0
H2900 H 0.29983 0.76306 0.7217 0.0
S2901 S 0.39439 0.79397 0.75587 0.0
N2902 N 0.38646 0.76942 0.73322 0.0
N2903 N 0.37116 0.80227 0.76142 0.0
C2904 C 0.35562 0.78486 0.74444 0.0
C2905 C 0.3639 0.76711 0.72921 0.0
C2906 C 0.5863 0.02903 0.94195 0.0
C2907 C 0.60916 0.027 0.94439 0.0
C2908 C 0.57479 0.03121 0.96321 0.0
C2909 C 0.58508 0.03181 0.98898 0.0
H2910 H 0.57696 0.02922 0.92325 0.0
H2911 H 0.55744 0.03263 0.95926 0.0
S2912 S 0.64382 0.0247 1.00728 0.0
N2913 N 0.64078 0.02392 0.97613 0.0
N2914 N 0.61976 0.0285 0.01488 0.0
C2915 C 0.60776 0.02948 0.99179 0.0
C2916 C 0.61948 0.02701 0.97013 0.0
C2917 C 0.32328 0.32704 0.21879 0.0
C2918 C 0.30711 0.32827 0.19745 0.0
C2919 C 0.31736 0.31491 0.23919 0.0
C2920 C 0.29501 0.30338 0.23914 0.0
H2921 H 0.34076 0.33505 0.21951 0.0
H2922 H 0.33046 0.31405 0.25473 0.0
S2923 S 0.24583 0.304 0.18988 0.0
N2924 N 0.26735 0.31888 0.17944 0.0
N2925 N 0.2565 0.29586 0.21677 0.0
C2926 C 0.2787 0.3052 0.21838 0.0
C2927 C 0.28464 0.31764 0.19788 0.0
C2928 C 0.15311 0.94387 0.07276 0.0
C2929 C 0.1749 0.94174 0.08279 0.0
C2930 C 0.14498 0.96455 0.08122 0.0
C2931 C 0.15844 0.98385 0.09982 0.0
H2932 H 0.14287 0.93028 0.05706 0.0
H2933 H 0.12876 0.96639 0.07167 0.0
S2934 S 0.21521 0.98563 0.1348 0.0
N2935 N 0.20859 0.95924 0.11473 0.0
N2936 N 0.19339 0.99856 0.12996 0.0
C2937 C 0.17946 0.98112 0.11145 0.0
C2938 C 0.18763 0.95984 0.10316 0.0
C2939 C 0.65197 0.57563 0.06151 0.0
C2940 C 0.65229 0.59123 0.0429 0.0
C2941 C 0.63182 0.56169 0.0658 0.0
C2942 C 0.61081 0.56265 0.05186 0.0
H2943 H 0.66755 0.57386 0.07273 0.0
H2944 H 0.63278 0.54992 0.08023 0.0
S2945 S 0.60183 0.6011 1.00147 0.0
N2946 N 0.62931 0.60721 0.01081 0.0
N2947 N 0.59162 0.5809 0.01875 0.0
C2948 C 0.61074 0.5783 0.03333 0.0
C2949 C 0.63136 0.5925 0.02885 0.0
C2950 C 0.73844 0.46107 0.36137 0.0
C2951 C 0.71892 0.45735 0.34266 0.0
C2952 C 0.75101 0.44275 0.36346 0.0
C2953 C 0.74461 0.41983 0.34698 0.0
H2954 H 0.74419 0.47841 0.37442 0.0
H2955 H 0.76573 0.44649 0.3784 0.0
S2956 S 0.69475 0.40068 0.29475 0.0
N2957 N 0.69351 0.42869 0.30769 0.0
N2958 N 0.71752 0.39473 0.31091 0.0
C2959 C 0.72512 0.41589 0.32815 0.0
C2960 C 0.71225 0.4345 0.32613 0.0
C2961 C 0.85917 0.49114 0.48078 0.0
C2962 C 0.84835 0.49608 0.50132 0.0
C2963 C 0.88206 0.50067 0.48278 0.0
C2964 C 0.89491 0.51553 0.50537 0.0
H2965 H 0.85024 0.47856 0.46365 0.0
H2966 H 0.88999 0.49512 0.46705 0.0
S2967 S 0.87353 0.53724 0.56293 0.0
N2968 N 0.8514 0.51909 0.54373 0.0
N2969 N 0.89452 0.53728 0.54742 0.0
C2970 C 0.88392 0.52205 0.52534 0.0
C2971 C 0.8606 0.51227 0.52333 0.0
C2972 C 0.36362 0.20052 0.30267 0.0
C2973 C 0.35202 0.17516 0.29657 0.0
C2974 C 0.3526 0.22126 0.30372 0.0
C2975 C 0.32885 0.21877 0.29891 0.0
H2976 H 0.38173 0.20466 0.3065 0.0
H2977 H 0.36308 0.23968 0.30847 0.0
S2978 S 0.28948 0.15713 0.28395 0.0
N2979 N 0.31427 0.14987 0.28699 0.0
N2980 N 0.29432 0.18757 0.28869 0.0
C2981 C 0.31703 0.19359 0.29311 0.0
C2982 C 0.32822 0.17248 0.29201 0.0
C2983 C 0.38533 0.10942 0.52731 0.0
C2984 C 0.36793 0.10342 0.54103 0.0
C2985 C 0.404 0.0982 0.5295 0.0
C2986 C 0.40614 0.08033 0.54543 0.0
H2987 H 0.38443 0.12275 0.51448 0.0
H2988 H 0.41673 0.10333 0.51834 0.0
S2989 S 0.36662 0.05976 0.58752 0.0
N2990 N 0.35515 0.07954 0.5726 0.0
N2991 N 0.38983 0.05844 0.57647 0.0
C2992 C 0.38908 0.07446 0.55956 0.0
C2993 C 0.37014 0.08594 0.55742 0.0
C2994 C 0.75813 0.69082 0.34565 0.0
C2995 C 0.7378 0.68246 0.32795 0.0
C2996 C 0.77458 0.71091 0.34268 0.0
C2997 C 0.77155 0.72357 0.32184 0.0
H2998 H 0.76163 0.68143 0.36172 0.0
H2999 H 0.78991 0.71645 0.35678 0.0
S3000 S 0.7213 0.70983 0.27031 0.0
N3001 N 0.71531 0.68969 0.28939 0.0
N3002 N 0.74671 0.72602 0.28301 0.0
C3003 C 0.75134 0.71553 0.30406 0.0
C3004 C 0.73441 0.69538 0.30728 0.0
C3005 C 0.84553 0.40498 0.81697 0.0
C3006 C 0.85092 0.41229 0.79397 0.0
C3007 C 0.83527 0.38019 0.81867 0.0
C3008 C 0.82968 0.36062 0.79754 0.0
H3009 H 0.84906 0.41868 0.83407 0.0
H3010 H 0.8317 0.37638 0.837 0.0
S3011 S 0.84114 0.36846 0.73284 0.0
N3012 N 0.85029 0.39653 0.74951 0.0
N3013 N 0.83131 0.35089 0.75267 0.0
C3014 C 0.83511 0.36755 0.77444 0.0
C3015 C 0.84551 0.39286 0.77267 0.0
C3016 C 0.08486 0.93824 0.09705 0.0
C3017 C 0.06731 0.91762 0.09606 0.0
C3018 C 0.08112 0.95956 0.08676 0.0
C3019 C 0.05969 0.96162 0.07479 0.0
H3020 H 0.10167 0.93821 0.10636 0.0
H3021 H 0.09521 0.97471 0.08836 0.0
S3022 S 1.00814 0.9121 0.06473 0.0
N3023 N 0.02772 0.90026 0.08006 0.0
N3024 N 0.02074 0.93998 0.06149 0.0
C3025 C 0.04209 0.94087 0.07307 0.0
C3026 C 0.04587 0.91914 0.08347 0.0
C3027 C 0.88661 0.28374 0.8716 0.0
C3028 C 0.89743 0.26409 0.86639 0.0
C3029 C 0.86605 0.28488 0.85634 0.0
C3030 C 0.85524 0.26625 0.83538 0.0
H3031 H 0.89421 0.29846 0.88749 0.0
H3032 H 0.85858 0.30049 0.86101 0.0
S3033 S 0.87672 0.21075 0.81395 0.0
N3034 N 0.89582 0.22576 0.83881 0.0
N3035 N 0.85739 0.22736 0.81067 0.0
C3036 C 0.86593 0.24641 0.83028 0.0
C3037 C 0.88689 0.24548 0.84559 0.0
C3038 C 0.58043 0.15792 0.58374 0.0
C3039 C 0.56398 0.16811 0.59423 0.0
C3040 C 0.57759 0.13215 0.57579 0.0
C3041 C 0.55817 0.11525 0.57794 0.0
H3042 H 0.59559 0.16999 0.58139 0.0
H3043 H 0.59071 0.12549 0.5677 0.0
S3044 S 0.51101 0.13201 0.60663 0.0
N3045 N 0.52827 0.15873 0.608 0.0
N3046 N 0.52281 0.11097 0.59309 0.0
C3047 C 0.54181 0.12524 0.58889 0.0
C3048 C 0.54473 0.15137 0.59698 0.0
C3049 C 0.61946 0.783 0.35735 0.0
C3050 C 0.61995 0.77786 0.3824 0.0
C3051 C 0.6386 0.78486 0.34596 0.0
C3052 C 0.65924 0.78173 0.35901 0.0
H3053 H 0.6042 0.78596 0.3465 0.0
H3054 H 0.63726 0.78913 0.32678 0.0
S3055 S 0.66925 0.76593 0.42416 0.0
N3056 N 0.64278 0.76825 0.41931 0.0
N3057 N 0.67855 0.77193 0.39803 0.0
C3058 C 0.65994 0.77633 0.38395 0.0
C3059 C 0.64042 0.77435 0.39555 0.0
C3060 C 0.05373 0.19552 0.47162 0.0
C3061 C 0.06083 0.22049 0.48279 0.0
C3062 C 0.05408 0.17689 0.48658 0.0
C3063 C 0.06164 0.18268 0.51316 0.0
H3064 H 0.04694 0.19039 0.45137 0.0
H3065 H 0.04753 0.1579 0.47741 0.0
S3066 S 0.08481 0.24523 0.55087 0.0
N3067 N 0.07747 0.25009 0.52139 0.0
N3068 N 0.07847 0.215 0.54959 0.0
C3069 C 0.06986 0.20756 0.52432 0.0
C3070 C 0.06937 0.22651 0.5091 0.0
C3071 C 0.69429 0.24075 0.27209 0.0
C3072 C 0.68267 0.26 0.27364 0.0
C3073 C 0.71758 0.24554 0.27893 0.0
C3074 C 0.73008 0.26974 0.28777 0.0
H3075 H 0.68527 0.22176 0.26601 0.0
H3076 H 0.72573 0.23003 0.27821 0.0
S3077 S 0.70789 0.3269 0.29306 0.0
N3078 N 0.68552 0.3044 0.28267 0.0
N3079 N 0.72939 0.31333 0.29632 0.0
C3080 C 0.71877 0.28925 0.28884 0.0
C3081 C 0.69504 0.28439 0.28162 0.0
C3082 C 0.53798 0.94132 0.99924 0.0
C3083 C 0.54884 0.92316 1.00765 0.0
C3084 C 0.53834 0.96287 0.01561 0.0
C3085 C 0.54963 0.96732 0.04111 0.0
H3086 H 0.52986 0.93936 0.9795 0.0
H3087 H 0.5305 0.97666 1.00777 0.0
S3088 S 0.57883 0.92456 0.07336 0.0
N3089 N 0.5697 0.91 0.0437 0.0
N3090 N 0.57065 0.95107 0.07464 0.0
C3091 C 0.55971 0.94889 0.05024 0.0
C3092 C 0.55935 0.92674 0.03343 0.0
C3093 C 0.96979 0.7832 0.80486 0.0
C3094 C 0.97291 0.78572 0.77994 0.0
C3095 C 0.95133 0.7897 0.81391 0.0
C3096 C 0.93535 0.7986 0.79817 0.0
H3097 H 0.98186 0.77651 0.8175 0.0
H3098 H 0.9494 0.78751 0.8332 0.0
S3099 S 0.93579 0.80811 0.73132 0.0
N3100 N 0.95838 0.79721 0.73956 0.0
N3101 N 0.92386 0.80971 0.75667 0.0
C3102 C 0.93825 0.80104 0.7732 0.0
C3103 C 0.95701 0.79452 0.76405 0.0
C3104 C 0.07623 0.01676 0.94355 0.0
C3105 C 0.09011 0.0402 0.94465 0.0
C3106 C 0.06636 1.01032 0.96433 0.0
C3107 C 0.06979 0.02695 0.98736 0.0
H3108 H 0.07256 1.00331 0.92623 0.0
H3109 H 0.05559 0.9922 0.9621 0.0
S3110 S 0.10561 0.09018 1.00114 0.0
N3111 N 0.10759 0.07968 0.97163 0.0
N3112 N 0.08871 0.06779 1.01021 0.0
C3113 C 0.0839 0.0503 0.98896 0.0
C3114 C 0.09403 0.05687 0.96779 0.0
C3115 C 0.78096 0.3108 0.60395 0.0
C3116 C 0.78801 0.3363 0.60456 0.0
C3117 C 0.78735 0.29987 0.62508 0.0
C3118 C 0.80079 0.31416 0.64757 0.0
H3119 H 0.76999 0.29933 0.58722 0.0
H3120 H 0.78091 0.2803 0.62421 0.0
S3121 S 0.82467 0.38143 0.65829 0.0
N3122 N 0.80991 0.3754 0.62897 0.0
N3123 N 0.82203 0.35474 0.66876 0.0
C3124 C 0.80862 0.33951 0.64809 0.0
C3125 C 0.80224 0.35062 0.62652 0.0
C3126 C 0.52005 0.05062 0.43699 0.0
C3127 C 0.49703 0.05131 0.4341 0.0
C3128 C 0.53327 0.04868 0.46061 0.0
C3129 C 0.52472 0.04707 0.48349 0.0
H3130 H 0.52831 0.05196 0.42078 0.0
H3131 H 0.55073 0.04842 0.4608 0.0
S3132 S 0.46545 0.04754 0.48769 0.0
N3133 N 0.46629 0.04972 0.4575 0.0
N3134 N 0.49103 0.0464 0.50121 0.0
C3135 C 0.50175 0.04771 0.48115 0.0
C3136 C 0.48812 0.04978 0.45692 0.0
C3137 C 0.80404 0.75456 0.18717 0.0
C3138 C 0.78354 0.74035 0.17287 0.0
C3139 C 0.8063 0.76419 0.21326 0.0
C3140 C 0.78805 0.76045 0.22612 0.0
H3141 H 0.81862 0.75772 0.17828 0.0
H3142 H 0.82255 0.77461 0.22345 0.0
S3143 S 0.7304 0.7255 0.19688 0.0
N3144 N 0.74447 0.72369 0.17332 0.0
N3145 N 0.74852 0.74189 0.22193 0.0
C3146 C 0.76731 0.74677 0.21177 0.0
C3147 C 0.76512 0.73671 0.18534 0.0
C3148 C 0.0884 0.06029 0.67388 0.0
C3149 C 0.08543 0.03985 0.68681 0.0
C3150 C 0.08084 0.05791 0.64743 0.0
C3151 C 0.0701 0.03491 0.63239 0.0
H3152 H 0.09698 0.07839 0.68422 0.0
H3153 H 0.08372 0.07431 0.63866 0.0
S3154 S 0.05704 0.97558 0.65654 0.0
N3155 N 0.06989 0.99578 0.68225 0.0
N3156 N 0.05637 0.99126 0.63257 0.0
C3157 C 0.06697 1.01425 0.64492 0.0
C3158 C 0.07446 0.01672 0.67201 0.0
C3159 C 0.72851 0.29109 0.37328 0.0
C3160 C 0.74029 0.30636 0.39605 0.0
C3161 C 0.7384 0.27374 0.36053 0.0
C3162 C 0.76035 0.27173 0.37015 0.0
H3163 H 0.71224 0.29355 0.36462 0.0
H3164 H 0.72954 0.2633 0.34221 0.0
S3165 S 0.79623 0.3044 0.43121 0.0
N3166 N 0.77341 0.31577 0.42953 0.0
N3167 N 0.79217 0.28376 0.40512 0.0
C3168 C 0.77133 0.28534 0.39392 0.0
C3169 C 0.76127 0.30264 0.40697 0.0
C3170 C 0.47697 0.02923 0.14104 0.0
C3171 C 0.48765 0.04221 0.16597 0.0
C3172 C 0.48836 0.02692 0.11958 0.0
C3173 C 0.5116 0.03695 0.12117 0.0
H3174 H 0.4593 0.02089 0.1378 0.0
H3175 H 0.47869 0.01692 0.10143 0.0
S3176 S 0.54844 0.0723 0.18157 0.0
N3177 N 0.52386 0.06493 0.19002 0.0
N3178 N 0.5446 0.06065 0.15101 0.0
C3179 C 0.52247 0.04983 0.14599 0.0
C3180 C 0.51085 0.05242 0.1677 0.0
C3181 C 0.79031 0.76705 0.92062 0.0
C3182 C 0.78059 0.74162 0.91703 0.0
C3183 C 0.79362 0.77948 0.89981 0.0
C3184 C 0.78784 0.76706 0.87431 0.0
H3185 H 0.79542 0.77749 0.93976 0.0
H3186 H 0.80127 0.799 0.90388 0.0
S3187 S 0.76228 0.70025 0.85432 0.0
N3188 N 0.76514 0.70447 0.88574 0.0
N3189 N 0.77199 0.7275 0.84692 0.0
C3190 C 0.77808 0.74161 0.87044 0.0
C3191 C 0.77431 0.72903 0.89164 0.0
C3192 C 0.92939 0.08135 0.12364 0.0
C3193 C 0.93297 0.10525 0.11727 0.0
C3194 C 0.93496 0.06176 0.10875 0.0
C3195 C 0.94409 0.06539 0.08688 0.0
H3196 H 0.92174 0.07765 0.1399 0.0
H3197 H 0.93158 0.04356 0.114 0.0
S3198 S 0.95884 0.12463 0.06322 0.0
N3199 N 0.94745 0.13151 0.08821 0.0
N3200 N 0.95852 0.09488 0.06092 0.0
C3201 C 0.94873 0.08933 0.08098 0.0
C3202 C 0.94307 0.10923 0.09603 0.0
C3203 C 0.4664 0.47835 0.08971 0.0
C3204 C 0.446 0.4761 0.07266 0.0
C3205 C 0.48689 0.49214 0.08561 0.0
C3206 C 0.48775 0.50469 0.06454 0.0
H3207 H 0.46658 0.46918 0.10625 0.0
H3208 H 0.50204 0.4934 0.09931 0.0
S3209 S 0.4392 0.50501 0.01437 0.0
N3210 N 0.42828 0.48783 0.03389 0.0
N3211 N 0.46624 0.51362 0.02637 0.0
C3212 C 0.46748 0.50251 0.04742 0.0
C3213 C 0.44681 0.48831 0.05141 0.0
C3214 C 0.37189 0.61971 0.76397 0.0
C3215 C 0.37779 0.6099 0.78626 0.0
C3216 C 0.35907 0.63787 0.76375 0.0
C3217 C 0.35166 0.64697 0.78581 0.0
H3218 H 0.37741 0.61349 0.7466 0.0
H3219 H 0.35508 0.64499 0.74619 0.0
S3220 S 0.36122 0.62624 0.84858 0.0
N3221 N 0.3743 0.60986 0.83065 0.0
N3222 N 0.35037 0.6441 0.83023 0.0
C3223 C 0.35732 0.63726 0.80818 0.0
C3224 C 0.37033 0.6187 0.80839 0.0
C3225 C 0.23385 0.5487 0.59767 0.0
C3226 C 0.24648 0.57082 0.6129 0.0
C3227 C 0.21089 0.54117 0.59743 0.0
C3228 C 0.1999 0.55546 0.61253 0.0
H3229 H 0.24159 0.53766 0.58512 0.0
H3230 H 0.20154 0.52447 0.58482 0.0
S3231 S 0.22523 0.615 0.65539 0.0
N3232 N 0.24619 0.60693 0.64333 0.0
N3233 N 0.2032 0.59257 0.6431 0.0
C3234 C 0.21247 0.57712 0.62849 0.0
C3235 C 0.23575 0.58485 0.62865 0.0
C3236 C 0.73016 0.86915 0.80543 0.0
C3237 C 0.74168 0.89409 0.8153 0.0
C3238 C 0.74088 0.84823 0.80479 0.0
C3239 C 0.76425 0.85021 0.81362 0.0
H3240 H 0.71233 0.8655 0.79825 0.0
H3241 H 0.73051 0.83012 0.79706 0.0
S3242 S 0.80343 0.91087 0.83986 0.0
N3243 N 0.77901 0.91864 0.83318 0.0
N3244 N 0.79848 0.88055 0.83194 0.0
C3245 C 0.77604 0.87504 0.82318 0.0
C3246 C 0.76511 0.8963 0.82403 0.0
C3247 C 0.70687 0.95798 0.57813 0.0
C3248 C 0.72648 0.96772 0.56927 0.0
C3249 C 0.68827 0.96933 0.5763 0.0
C3250 C 0.68834 0.99108 0.56563 0.0
H3251 H 0.70593 0.94153 0.58687 0.0
H3252 H 0.67378 0.96114 0.58364 0.0
S3253 S 0.73444 0.02288 0.53722 0.0
N3254 N 0.74392 0.99968 0.54772 0.0
N3255 N 0.70934 0.02095 0.54455 0.0
C3256 C 0.70768 1.0008 0.55635 0.0
C3257 C 0.72657 0.9892 0.5581 0.0
C3258 C 0.36096 0.37624 0.80712 0.0
C3259 C 0.3595 0.38813 0.78552 0.0
C3260 C 0.34381 0.3567 0.80964 0.0
C3261 C 0.32435 0.34824 0.79075 0.0
H3262 H 0.37547 0.38218 0.82235 0.0
H3263 H 0.34561 0.34855 0.82683 0.0
S3264 S 0.31216 0.37262 0.73032 0.0
N3265 N 0.33683 0.38965 0.74477 0.0
N3266 N 0.30485 0.35292 0.74941 0.0
C3267 C 0.32278 0.35965 0.7689 0.0
C3268 C 0.34027 0.3795 0.76628 0.0
C3269 C 0.25055 0.67732 0.33757 0.0
C3270 C 0.24555 0.65757 0.31658 0.0
C3271 C 0.26086 0.70219 0.33591 0.0
C3272 C 0.26713 0.70928 0.31316 0.0
H3273 H 0.24612 0.67367 0.3556 0.0
H3274 H 0.26389 0.71608 0.35281 0.0
S3275 S 0.25978 0.66494 0.2528 0.0
N3276 N 0.24937 0.64751 0.27241 0.0
N3277 N 0.26804 0.69316 0.26925 0.0
C3278 C 0.26255 0.68963 0.29217 0.0
C3279 C 0.25206 0.66436 0.29386 0.0
C3280 C 0.53573 0.64957 0.53814 0.0
C3281 C 0.52646 0.64895 0.51224 0.0
C3282 C 0.53856 0.62785 0.54805 0.0
C3283 C 0.53218 0.60426 0.53267 0.0
H3284 H 0.54069 0.66705 0.55101 0.0
H3285 H 0.54574 0.62956 0.56806 0.0
S3286 S 0.51076 0.59262 0.46277 0.0
N3287 N 0.51317 0.62264 0.47095 0.0
N3288 N 0.51856 0.58226 0.48941 0.0
C3289 C 0.52357 0.60345 0.50661 0.0
C3290 C 0.52068 0.62556 0.4965 0.0
C3291 C 0.71301 0.32213 0.75883 0.0
C3292 C 0.69848 0.30088 0.74369 0.0
C3293 C 0.73398 0.32121 0.77307 0.0
C3294 C 0.74173 0.29906 0.77289 0.0
H3295 H 0.70825 0.33982 0.75963 0.0
H3296 H 0.74424 0.33815 0.78444 0.0
S3297 S 0.71034 0.23774 0.73746 0.0
N3298 N 0.69353 0.25653 0.73042 0.0
N3299 N 0.73298 0.25517 0.75639 0.0
C3300 C 0.7276 0.27768 0.75773 0.0
C3301 C 0.70608 0.2785 0.7434 0.0
C3302 C 0.05195 0.41776 0.02569 0.0
C3303 C 0.03064 0.40186 0.01777 0.0
C3304 C 0.05458 0.44338 0.03374 0.0
C3305 C 0.03606 0.45467 0.03438 0.0
H3306 H 0.06688 0.41033 0.02585 0.0
H3307 H 0.07145 0.45443 0.03954 0.0
S3308 S 0.97643 0.42178 0.01452 0.0
N3309 N 0.99052 0.39979 1.01029 0.0
N3310 N 0.99541 0.44751 0.02571 0.0
C3311 C 1.0146 0.439 0.02655 0.0
C3312 C 1.01192 0.41285 0.01824 0.0
C3313 C 0.97536 0.80892 0.25119 0.0
C3314 C 0.97743 0.79096 0.23121 0.0
C3315 C 0.95583 0.80693 0.26194 0.0
C3316 C 0.93732 0.78691 0.25323 0.0
H3317 H 0.98915 0.82449 0.25895 0.0
H3318 H 0.95543 0.82102 0.2776 0.0
S3319 S 0.93297 0.73634 0.19936 0.0
N3320 N 0.95833 0.7534 0.2019 0.0
N3321 N 0.92188 0.74973 0.2219 0.0
C3322 C 0.93895 0.76916 0.23283 0.0
C3323 C 0.95885 0.77116 0.22191 0.0
C3324 C 0.58212 0.36354 0.12442 0.0
C3325 C 0.56473 0.35333 0.13627 0.0
C3326 C 0.57925 0.38101 0.10854 0.0
C3327 C 0.55887 0.3887 0.104 0.0
H3328 H 0.59811 0.35816 0.12767 0.0
H3329 H 0.59316 0.38883 0.10007 0.0
S3330 S 0.50757 0.36575 0.1287 0.0
N3331 N 0.52608 0.35089 0.14127 0.0
N3332 N 0.52066 0.38384 0.11132 0.0
C3333 C 0.54122 0.37829 0.11537 0.0
C3334 C 0.54416 0.36054 0.13154 0.0
C3335 C 0.89777 0.27087 0.3458 0.0
C3336 C 0.91084 0.28837 0.36621 0.0
C3337 C 0.87448 0.26738 0.34115 0.0
C3338 C 0.86352 0.28161 0.35651 0.0
H3339 H 0.90563 0.26001 0.33322 0.0
H3340 H 0.8651 0.25407 0.32475 0.0
S3341 S 0.89065 0.32937 0.41288 0.0
N3342 N 0.91164 0.31949 0.40249 0.0
N3343 N 0.86763 0.31338 0.39342 0.0
C3344 C 0.87649 0.29894 0.37727 0.0
C3345 C 0.90025 0.30219 0.38222 0.0
C3346 C 0.07089 0.64153 0.60602 0.0
C3347 C 0.05259 0.64359 0.61817 0.0
C3348 C 0.06961 0.62155 0.58676 0.0
C3349 C 0.04991 0.6033 0.57897 0.0
H3350 H 0.08636 0.65535 0.6116 0.0
H3351 H 0.0842 0.62006 0.5784 0.0
S3352 S 0.9976 0.59956 0.60489 0.0
N3353 N 1.01447 0.62507 0.62135 0.0
N3354 N 1.01182 0.58819 0.58447 0.0
C3355 C 0.03142 0.60532 0.59055 0.0
C3356 C 0.03279 0.62534 0.61032 0.0
C3357 C 0.61859 0.7774 0.79703 0.0
C3358 C 0.62376 0.79988 0.8141 0.0
C3359 C 0.63521 0.7683 0.78637 0.0
C3360 C 0.65759 0.78139 0.79234 0.0
H3361 H 0.60176 0.76614 0.79297 0.0
H3362 H 0.63076 0.75027 0.77446 0.0
S3363 S 0.67952 0.84208 0.83443 0.0
N3364 N 0.65249 0.83582 0.83512 0.0
N3365 N 0.68383 0.81875 0.81506 0.0
C3366 C 0.66271 0.80473 0.80794 0.0
C3367 C 0.64575 0.81398 0.81882 0.0
C3368 C 0.50586 0.55037 0.65826 0.0
C3369 C 0.50019 0.52592 0.66301 0.0
C3370 C 0.51491 0.5559 0.63666 0.0
C3371 C 0.51862 0.5373 0.6185 0.0
H3372 H 0.50377 0.56555 0.67169 0.0
H3373 H 0.51937 0.57508 0.63441 0.0
S3374 S 0.5057 0.47008 0.62084 0.0
N3375 N 0.49825 0.48276 0.64675 0.0
N3376 N 0.5152 0.49315 0.60645 0.0
C3377 C 0.5126 0.51271 0.62263 0.0
C3378 C 0.5035 0.50706 0.64475 0.0
C3379 C 0.85192 0.22918 0.97399 0.0
C3380 C 0.85867 0.2432 0.99863 0.0
C3381 C 0.84161 0.23883 0.95371 0.0
C3382 C 0.83779 0.26293 0.95726 0.0
H3383 H 0.854 0.21031 0.97052 0.0
H3384 H 0.83592 0.22698 0.93531 0.0
S3385 S 0.85405 0.30804 0.0175 0.0
N3386 N 0.86159 0.28282 0.02521 0.0
N3387 N 0.84333 0.30137 0.98671 0.0
C3388 C 0.84547 0.27759 0.98148 0.0
C3389 C 0.85571 0.26767 1.00223 0.0
C3390 C 0.10772 0.52843 0.15757 0.0
C3391 C 0.09865 0.5187 0.17793 0.0
C3392 C 0.09413 0.52995 0.13367 0.0
C3393 C 0.07044 0.52215 0.12856 0.0
H3394 H 0.12566 0.5349 0.16003 0.0
H3395 H 0.1023 0.5378 0.11934 0.0
S3396 S 0.03759 0.49622 0.1751 0.0
N3397 N 0.06371 0.50189 0.1905 0.0
N3398 N 0.03888 0.50447 0.14694 0.0
C3399 C 0.0613 0.5125 0.14879 0.0
C3400 C 0.07504 0.51084 0.17283 0.0
C3401 C 0.82803 0.82948 0.42855 0.0
C3402 C 0.80973 0.82458 0.44122 0.0
C3403 C 0.82627 0.82029 0.40243 0.0
C3404 C 0.80609 0.80589 0.38758 0.0
H3405 H 0.8438 0.84105 0.43874 0.0
H3406 H 0.84076 0.8251 0.39369 0.0
S3407 S 0.75361 0.78572 0.41164 0.0
N3408 N 0.77111 0.80264 0.43687 0.0
N3409 N 0.76766 0.78603 0.38801 0.0
C3410 C 0.78777 0.80042 0.40006 0.0
C3411 C 0.78961 0.80959 0.4267 0.0
C3412 C 0.5189 0.54682 0.93942 0.0
C3413 C 0.51 0.52348 0.92414 0.0
C3414 C 0.5269 0.54927 0.96592 0.0
C3415 C 0.52662 0.52845 0.97827 0.0
H3416 H 0.51919 0.56339 0.93095 0.0
H3417 H 0.53331 0.56766 0.97679 0.0
S3418 S 0.50623 0.46303 0.94645 0.0
N3419 N 0.50231 0.47915 0.92316 0.0
N3420 N 0.51718 0.48353 0.97248 0.0
C3421 C 0.51818 0.50498 0.96298 0.0
C3422 C 0.50993 0.50256 0.93612 0.0
C3423 C 0.83966 0.26429 0.24514 0.0
C3424 C 0.83927 0.27845 0.22543 0.0
C3425 C 0.82843 0.26873 0.2651 0.0
C3426 C 0.81623 0.28749 0.26622 0.0
H3427 H 0.8483 0.24917 0.24491 0.0
H3428 H 0.82948 0.25734 0.27986 0.0
S3429 S 0.81044 0.3304 0.21982 0.0
N3430 N 0.82617 0.31247 0.20844 0.0
N3431 N 0.80471 0.32077 0.24629 0.0
C3432 C 0.81574 0.302 0.24681 0.0
C3433 C 0.82731 0.29747 0.22632 0.0
C3434 C 0.11975 0.53754 0.47153 0.0
C3435 C 0.10838 0.52926 0.44568 0.0
C3436 C 0.10842 0.53983 0.493 0.0
C3437 C 0.08467 0.53449 0.49051 0.0
H3438 H 0.13787 0.54204 0.47545 0.0
H3439 H 0.11858 0.54601 0.51188 0.0
S3440 S 0.04605 0.51305 0.42751 0.0
N3441 N 0.07107 0.51638 0.41977 0.0
N3442 N 0.0504 0.52062 0.45885 0.0
C3443 C 0.07311 0.52644 0.46478 0.0
C3444 C 0.08463 0.52387 0.44301 0.0
C3445 C 0.78886 0.81519 0.69612 0.0
C3446 C 0.81008 0.83048 0.69751 0.0
C3447 C 0.7836 0.80248 0.71611 0.0
C3448 C 0.79912 0.80439 0.73891 0.0
H3449 H 0.77609 0.81274 0.6792 0.0
H3450 H 0.76695 0.79108 0.71362 0.0
S3451 S 0.85727 0.84167 0.75273 0.0
N3452 N 0.84696 0.84659 0.72405 0.0
N3453 N 0.83698 0.82266 0.76135 0.0
C3454 C 0.82047 0.81948 0.74067 0.0
C3455 C 0.82596 0.8324 0.72011 0.0
C3456 C 0.6925 0.49203 0.58658 0.0
C3457 C 0.67763 0.47032 0.57331 0.0
C3458 C 0.6849 0.51005 0.60127 0.0
C3459 C 0.66215 0.507 0.6029 0.0
H3460 H 0.70987 0.49568 0.58447 0.0
H3461 H 0.69655 0.52722 0.60988 0.0
S3462 S 0.61706 0.45218 0.57335 0.0
N3463 N 0.63982 0.44558 0.56441 0.0
N3464 N 0.62517 0.47963 0.59149 0.0
C3465 C 0.64748 0.48443 0.59128 0.0
C3466 C 0.65533 0.46603 0.57652 0.0
C3467 C 0.13094 0.09143 0.52574 0.0
C3468 C 0.15163 0.09121 0.54109 0.0
C3469 C 0.11047 0.07702 0.52912 0.0
C3470 C 0.10982 0.06147 0.54778 0.0
H3471 H 0.13052 0.10303 0.51113 0.0
H3472 H 0.09512 0.07777 0.51675 0.0
S3473 S 0.15917 0.0535 0.59251 0.0
N3474 N 0.16988 0.07352 0.57537 0.0
N3475 N 0.1319 0.04686 0.58174 0.0
C3476 C 0.13038 0.06109 0.56316 0.0
C3477 C 0.15108 0.07579 0.55983 0.0
C3478 C 0.23254 0.96254 0.84369 0.0
C3479 C 0.21671 0.96505 0.8229 0.0
C3480 C 0.2461 0.94527 0.84115 0.0
C3481 C 0.24435 0.92988 0.81773 0.0
H3482 H 0.23456 0.97413 0.86203 0.0
H3483 H 0.25818 0.94408 0.85761 0.0
S3484 S 0.20618 0.9299 0.75721 0.0
N3485 N 0.2004 0.95109 0.778 0.0
N3486 N 0.22587 0.91867 0.77321 0.0
C3487 C 0.22842 0.93204 0.79687 0.0
C3488 C 0.21462 0.94961 0.79945 0.0
C3489 C 0.36534 0.98149 0.03086 0.0
C3490 C 0.34983 0.98853 0.01268 0.0
C3491 C 0.38821 0.98733 0.03075 0.0
C3492 C 0.39643 1.00059 0.01262 0.0
H3493 H 0.35971 0.9701 0.04439 0.0
H3494 H 0.39951 0.98063 0.04434 0.0
S3495 S 0.36329 0.02516 0.96236 0.0
N3496 N 0.34446 1.01083 0.97709 0.0
N3497 N 0.38786 0.022 0.97705 0.0
C3498 C 0.3814 1.00891 0.99517 0.0
C3499 C 0.35796 1.00276 0.99512 0.0
C3500 C 0.86349 0.69971 0.80821 0.0
C3501 C 0.85242 0.67491 0.79682 0.0
C3502 C 0.85262 0.72054 0.80918 0.0
C3503 C 0.82955 0.71874 0.79889 0.0
H3504 H 0.88098 0.7033 0.81702 0.0
H3505 H 0.86263 0.73843 0.81847 0.0
S3506 S 0.79207 0.65932 0.76493 0.0
N3507 N 0.81616 0.65132 0.77334 0.0
N3508 N 0.79638 0.68913 0.77581 0.0
C3509 C 0.8183 0.69425 0.78717 0.0
C3510 C 0.82936 0.67305 0.786 0.0
C3511 C 0.88745 0.60999 0.05874 0.0
C3512 C 0.86904 0.60178 0.03838 0.0
C3513 C 0.90602 0.59868 0.06083 0.0
C3514 C 0.90723 0.57867 0.04254 0.0
H3515 H 0.88735 0.6251 0.0735 0.0
H3516 H 0.91939 0.60544 0.07725 0.0
S3517 S 0.86447 0.55177 0.98399 0.0
N3518 N 0.85385 0.5733 0.9987 0.0
N3519 N 0.88873 0.55243 1.00224 0.0
C3520 C 0.88912 0.57067 0.02173 0.0
C3521 C 0.87011 0.58208 0.01975 0.0
C3522 C 0.25316 0.19598 0.84432 0.0
C3523 C 0.23361 0.18757 0.82541 0.0
C3524 C 0.27052 0.21535 0.84176 0.0
C3525 C 0.26914 0.22718 0.82018 0.0
H3526 H 0.25538 0.18712 0.861 0.0
H3527 H 0.28521 0.22101 0.85677 0.0
S3528 S 0.22155 0.21282 0.76533 0.0
N3529 N 0.21365 0.19385 0.78485 0.0
N3530 N 0.24677 0.22866 0.77929 0.0
C3531 C 0.24972 0.21906 0.80119 0.0
C3532 C 0.23188 0.19971 0.80399 0.0
C3533 C 0.34673 0.90572 0.31785 0.0
C3534 C 0.35155 0.9129 0.29454 0.0
C3535 C 0.33661 0.88092 0.31992 0.0
C3536 C 0.33039 0.86126 0.29883 0.0
H3537 H 0.35112 0.9194 0.33502 0.0
H3538 H 0.33372 0.87717 0.33849 0.0
S3539 S 0.33755 0.86944 0.23274 0.0
N3540 N 0.34775 0.89734 0.2494 0.0
N3541 N 0.32947 0.85174 0.25327 0.0
C3542 C 0.33486 0.8682 0.27535 0.0
C3543 C 0.34515 0.89345 0.27324 0.0
C3544 C 0.55768 0.42446 0.57715 0.0
C3545 C 0.56942 0.42513 0.6021 0.0
C3546 C 0.55457 0.44624 0.56752 0.0
C3547 C 0.56314 0.47 0.58219 0.0
H3548 H 0.55085 0.40686 0.56481 0.0
H3549 H 0.54531 0.44441 0.54829 0.0
S3550 S 0.59256 0.48227 0.64975 0.0
N3551 N 0.58805 0.45197 0.6419 0.0
N3552 N 0.58224 0.49245 0.62392 0.0
C3553 C 0.57454 0.47096 0.60729 0.0
C3554 C 0.57768 0.44877 0.61714 0.0
C3555 C 0.38032 0.76837 0.37069 0.0
C3556 C 0.40145 0.77444 0.36344 0.0
C3557 C 0.36032 0.77076 0.35511 0.0
C3558 C 0.36054 0.77905 0.33146 0.0
H3559 H 0.37922 0.76163 0.38852 0.0
H3560 H 0.34454 0.76506 0.36114 0.0
S3561 S 0.41106 0.79683 0.30322 0.0
N3562 N 0.42086 0.7889 0.33058 0.0
N3563 N 0.3838 0.79325 0.30172 0.0
C3564 C 0.38151 0.78523 0.32415 0.0
C3565 C 0.40175 0.78302 0.33997 0.0
C3566 C 0.08205 0.65286 0.0961 0.0
C3567 C 0.06388 0.66479 0.09296 0.0
C3568 C 0.07937 0.62724 0.08753 0.0
C3569 C 0.05839 0.6123 0.07532 0.0
H3570 H 0.09842 0.66328 0.10589 0.0
H3571 H 0.09379 0.619 0.0911 0.0
S3572 S 1.00609 0.63508 0.05914 0.0
N3573 N 0.0246 0.65987 0.0746 0.0
N3574 N 0.01958 0.61231 0.0584 0.0
C3575 C 0.04032 0.62428 0.07116 0.0
C3576 C 0.04303 0.65026 0.07998 0.0
C3577 C 0.12063 0.28942 0.86283 0.0
C3578 C 0.11832 0.27513 0.8824 0.0
C3579 C 0.13999 0.29252 0.85176 0.0
C3580 C 0.15795 0.28127 0.85946 0.0
H3581 H 0.10749 0.29868 0.85625 0.0
H3582 H 0.14077 0.30369 0.8368 0.0
S3583 S 0.16028 0.24145 0.90954 0.0
N3584 N 0.13571 0.24907 0.9085 0.0
N3585 N 0.17198 0.25518 0.88811 0.0
C3586 C 0.15578 0.26675 0.87885 0.0
C3587 C 0.13611 0.26367 0.8902 0.0
C3588 C 0.55407 0.71564 0.9975 0.0
C3589 C 0.54097 0.70895 0.97283 0.0
C3590 C 0.55449 0.69858 0.01428 0.0
C3591 C 0.54202 0.67425 1.00676 0.0
H3592 H 0.56388 0.73427 1.00392 0.0
H3593 H 0.5649 0.70431 0.03309 0.0
S3594 S 0.50495 0.64769 0.9443 0.0
N3595 N 0.51518 0.67657 0.94171 0.0
N3596 N 0.51594 0.64436 0.97334 0.0
C3597 C 0.52879 0.66736 0.98219 0.0
C3598 C 0.52824 0.68478 0.96519 0.0
C3599 C 0.19888 0.76359 0.75436 0.0
C3600 C 0.18888 0.77501 0.77309 0.0
C3601 C 0.22216 0.76818 0.75651 0.0
C3602 C 0.23613 0.78481 0.77709 0.0
H3603 H 0.18866 0.75129 0.7377 0.0
H3604 H 0.22926 0.7589 0.74187 0.0
S3605 S 0.21863 0.81792 0.83223 0.0
N3606 N 0.19497 0.80223 0.81385 0.0
N3607 N 0.23869 0.8117 0.81722 0.0
C3608 C 0.22645 0.79625 0.796 0.0
C3609 C 0.20282 0.79116 0.79415 0.0
C3610 C 0.03705 0.45076 0.48663 0.0
C3611 C 0.04444 0.42976 0.4931 0.0
C3612 C 0.03579 0.46984 0.50542 0.0
C3613 C 0.04242 0.46907 0.53151 0.0
H3614 H 0.03292 0.45296 0.46685 0.0
H3615 H 0.0306 0.48589 0.4993 0.0
S3616 S 0.05956 0.41653 0.55873 0.0
N3617 N 0.05547 0.40772 0.52753 0.0
N3618 N 0.0542 0.44444 0.56301 0.0
C3619 C 0.04857 0.44761 0.5384 0.0
C3620 C 0.04947 0.42783 0.51916 0.0
C3621 C 0.45613 0.28726 0.26468 0.0
C3622 C 0.4704 0.2759 0.27987 0.0
C3623 C 0.43773 0.29427 0.27314 0.0
C3624 C 0.43307 0.29034 0.29717 0.0
H3625 H 0.45922 0.29077 0.24607 0.0
H3626 H 0.42723 0.30314 0.26092 0.0
S3627 S 0.46499 0.26079 0.34393 0.0
N3628 N 0.47855 0.26063 0.31982 0.0
N3629 N 0.44373 0.27389 0.33584 0.0
C3630 C 0.44706 0.27882 0.3125 0.0
C3631 C 0.46576 0.27148 0.30376 0.0
C3632 C 0.58873 0.52219 0.45832 0.0
C3633 C 0.59575 0.5466 0.454 0.0
C3634 C 0.57903 0.51701 0.4796 0.0
C3635 C 0.5759 0.53591 0.49786 0.0
H3636 H 0.59024 0.50677 0.44478 0.0
H3637 H 0.57359 0.49786 0.4815 0.0
S3638 S 0.59226 0.60312 0.49667 0.0
N3639 N 0.59959 0.59003 0.47087 0.0
N3640 N 0.58129 0.58026 0.51049 0.0
C3641 C 0.58323 0.56044 0.49417 0.0
C3642 C 0.59306 0.56576 0.47239 0.0
C3643 C 0.33269 0.84688 0.14221 0.0
C3644 C 0.33134 0.83589 0.11685 0.0
C3645 C 0.33541 0.83335 0.1621 0.0
C3646 C 0.33683 0.80845 0.15724 0.0
H3647 H 0.32915 0.86505 0.14648 0.0
H3648 H 0.33381 0.84163 0.18085 0.0
S3649 S 0.34093 0.77373 0.09532 0.0
N3650 N 0.3368 0.80073 0.08871 0.0
N3651 N 0.34163 0.7751 0.12631 0.0
C3652 C 0.33868 0.79843 0.13257 0.0
C3653 C 0.33602 0.81225 0.11229 0.0
C3654 C 0.02012 0.54775 0.93734 0.0
C3655 C 0.99729 0.5493 0.93465 0.0
C3656 C 0.03326 0.54543 0.96086 0.0
C3657 C 0.02484 0.54427 0.98387 0.0
H3658 H 0.0283 0.5487 0.92105 0.0
H3659 H 0.05056 0.54451 0.96086 0.0
S3660 S 0.96617 0.54728 0.98874 0.0
N3661 N 0.96691 0.54916 0.95847 0.0
N3662 N 0.99153 0.54513 1.002 0.0
C3663 C 1.00208 0.54582 0.98177 0.0
C3664 C 0.98852 0.54828 0.95763 0.0
C3665 C 0.26566 0.24077 0.68555 0.0
C3666 C 0.28381 0.24455 0.67261 0.0
C3667 C 0.26786 0.25094 0.71146 0.0
C3668 C 0.28845 0.26499 0.72579 0.0
H3669 H 0.24957 0.22976 0.67556 0.0
H3670 H 0.25342 0.24715 0.72049 0.0
S3671 S 0.34118 0.28058 0.70091 0.0
N3672 N 0.32302 0.26374 0.67613 0.0
N3673 N 0.32729 0.28254 0.72464 0.0
C3674 C 0.30669 0.26912 0.71298 0.0
C3675 C 0.30434 0.25904 0.6865 0.0
C3676 C 0.58775 0.51999 0.17689 0.0
C3677 C 0.589 0.54156 0.19433 0.0
C3678 C 0.57917 0.51802 0.15062 0.0
C3679 C 0.57173 0.53768 0.1404 0.0
H3680 H 0.59344 0.50442 0.18362 0.0
H3681 H 0.57871 0.50101 0.13817 0.0
S3682 S 0.5717 0.59843 0.17788 0.0
N3683 N 0.58211 0.58306 0.19936 0.0
N3684 N 0.5662 0.57955 0.15033 0.0
C3685 C 0.57283 0.55935 0.15771 0.0
C3686 C 0.58136 0.56122 0.1845 0.0
C3687 C 0.27859 0.78979 0.90026 0.0
C3688 C 0.27056 0.81174 0.90275 0.0
C3689 C 0.28939 0.78347 0.88004 0.0
C3690 C 0.29249 0.79888 0.86163 0.0
H3691 H 0.27645 0.7774 0.914 0.0
H3692 H 0.29494 0.7662 0.87858 0.0
S3693 S 0.2766 0.85954 0.86117 0.0
N3694 N 0.26823 0.84982 0.8864 0.0
N3695 N 0.28754 0.8375 0.84801 0.0
C3696 C 0.28486 0.82101 0.86424 0.0
C3697 C 0.27412 0.82754 0.88486 0.0
C3698 C 0.9759 0.53336 0.64172 0.0
C3699 C 0.98724 0.54348 0.66726 0.0
C3700 C 0.98714 0.53119 0.62015 0.0
C3701 C 1.0108 0.53844 0.62227 0.0
H3702 H 0.95787 0.52728 0.63811 0.0
H3703 H 0.97702 0.52351 0.6015 0.0
S3704 S 0.0493 0.56553 0.68437 0.0
N3705 N 0.02442 0.56045 0.69247 0.0
N3706 N 0.04492 0.55634 0.65324 0.0
C3707 C 0.02231 0.54841 0.6477 0.0
C3708 C 1.01087 0.55091 0.66953 0.0
C3709 C 0.29064 0.26892 0.42086 0.0
C3710 C 0.28148 0.24336 0.41746 0.0
C3711 C 0.29424 0.28114 0.39997 0.0
C3712 C 0.28929 0.26837 0.37463 0.0
H3713 H 0.29505 0.27963 0.4399 0.0
H3714 H 0.3014 0.30078 0.40385 0.0
S3715 S 0.26577 0.20103 0.35526 0.0
N3716 N 0.26768 0.20567 0.38656 0.0
N3717 N 0.27507 0.22829 0.34765 0.0
C3718 C 0.28017 0.24277 0.37098 0.0
C3719 C 0.27612 0.2304 0.39223 0.0
C3720 C 0.40343 0.58944 0.50131 0.0
C3721 C 0.41716 0.61063 0.51713 0.0
C3722 C 0.41262 0.56992 0.49175 0.0
C3723 C 0.43579 0.57125 0.49748 0.0
H3724 H 0.38538 0.58708 0.49809 0.0
H3725 H 0.40147 0.55308 0.48128 0.0
S3726 S 0.47873 0.62393 0.53609 0.0
N3727 N 0.45487 0.63286 0.53619 0.0
N3728 N 0.4723 0.5962 0.51849 0.0
C3729 C 0.44976 0.59322 0.51157 0.0
C3730 C 0.44038 0.61294 0.52134 0.0
C3731 C 0.9459 1.00073 0.56095 0.0
C3732 C 0.9449 0.97836 0.5707 0.0
C3733 C 0.96597 1.01431 0.5561 0.0
C3734 C 0.98639 1.00664 0.5611 0.0
H3735 H 0.93099 1.00809 0.55709 0.0
H3736 H 0.96541 0.03121 0.54846 0.0
S3737 S 0.99376 0.94954 0.58652 0.0
N3738 N 0.96677 0.94897 0.5846 0.0
N3739 N 1.00447 0.97519 0.57666 0.0
C3740 C 0.98594 0.98459 0.57123 0.0
C3741 C 0.96532 0.97039 0.57579 0.0
C3742 C 0.89207 0.12905 0.27925 0.0
C3743 C 0.882 0.10392 0.27723 0.0
C3744 C 0.87928 0.14729 0.2801 0.0
C3745 C 0.85594 0.14096 0.27852 0.0
H3746 H 0.91002 0.13469 0.28082 0.0
H3747 H 0.88769 0.16646 0.2821 0.0
S3748 S 0.82148 0.07769 0.27203 0.0
N3749 N 0.84727 0.07363 0.27278 0.0
N3750 N 0.82331 0.10777 0.27456 0.0
C3751 C 0.84566 0.11585 0.27596 0.0
C3752 C 0.85867 0.09738 0.27528 0.0
C3753 C 0.73924 0.09629 0.11045 0.0
C3754 C 0.74459 0.11655 0.09793 0.0
C3755 C 0.71692 0.08427 0.10881 0.0
C3756 C 0.69929 0.09198 0.09439 0.0
H3757 H 0.7523 0.09033 0.1224 0.0
H3758 H 0.71339 0.06918 0.11933 0.0
S3759 S 0.70479 0.14305 0.05661 0.0
N3760 N 0.73077 0.14282 0.06939 0.0
N3761 N 0.6888 0.12056 0.06663 0.0
C3762 C 0.70455 0.1116 0.08097 0.0
C3763 C 0.72722 0.12383 0.08269 0.0
C3764 C 0.26367 0.39551 0.3175 0.0
C3765 C 0.2401 0.3937 0.31573 0.0
C3766 C 0.27426 0.37449 0.31673 0.0
C3767 C 0.26236 0.34945 0.31376 0.0
H3768 H 0.27441 0.41365 0.31989 0.0
H3769 H 0.29227 0.37808 0.31836 0.0
S3770 S 0.2002 0.33275 0.30709 0.0
N3771 N 0.20537 0.36312 0.31002 0.0
N3772 N 0.2247 0.32489 0.30865 0.0
C3773 C 0.23878 0.34728 0.31173 0.0
C3774 C 0.228 0.3687 0.31271 0.0
C3775 C 0.22284 0.48143 0.08989 0.0
C3776 C 0.22654 0.46417 0.07029 0.0
C3777 C 0.20369 0.49187 0.08704 0.0
C3778 C 0.18726 0.48546 0.0645 0.0
H3779 H 0.23509 0.48734 0.10742 0.0
H3780 H 0.20203 0.50553 0.10244 0.0
S3781 S 0.18739 0.43861 1.00881 0.0
N3782 N 0.21102 0.43961 0.02842 0.0
N3783 N 0.17521 0.45882 0.02318 0.0
C3784 C 0.19042 0.46755 0.04515 0.0
C3785 C 0.20993 0.45705 0.04801 0.0
C3786 C 0.84107 0.87242 0.26214 0.0
C3787 C 0.86041 0.88299 0.2808 0.0
C3788 C 0.82409 0.85372 0.26661 0.0
C3789 C 0.82568 0.8447 0.28992 0.0
H3790 H 0.83903 0.87862 0.24383 0.0
H3791 H 0.80958 0.84624 0.25163 0.0
S3792 S 0.87192 0.86715 0.34586 0.0
N3793 N 0.87946 0.88361 0.3241 0.0
N3794 N 0.84771 0.84856 0.33234 0.0
C3795 C 0.84483 0.85511 0.3088 0.0
C3796 C 0.86212 0.87417 0.30428 0.0
C3797 C 0.7564 0.17424 0.83584 0.0
C3798 C 0.74576 0.1559 0.81424 0.0
C3799 C 0.76689 0.19893 0.83381 0.0
C3800 C 0.76753 0.20721 0.81001 0.0
H3801 H 0.75694 0.16943 0.85474 0.0
H3802 H 0.77474 0.21165 0.85123 0.0
S3803 S 0.74048 0.16808 0.74727 0.0
N3804 N 0.73549 0.14938 0.768 0.0
N3805 N 0.75507 0.19454 0.76426 0.0
C3806 C 0.75663 0.18923 0.78832 0.0
C3807 C 0.74592 0.16418 0.79038 0.0
loop_
_geom_bond_atom_site_label_1
_geom_bond_atom_site_label_2
_geom_bond_distance
_geom_bond_site_symmetry_2
_ccdc_geom_bond_type
Li0 N17 1.990 . S
Li0 O60 1.956 1_655 S
Li0 O61 1.970 . S
Li0 O62 1.961 . S
Li1 N25 1.990 . S
Li1 O60 1.970 . S
Li1 O61 1.956 1_455 S
Li1 O63 1.961 . S
Li2 N47 1.990 . S
Li2 O60 1.961 . S
Li2 O62 1.956 1_455 S
Li2 O63 1.970 . S
Li3 N53 1.990 . S
Li3 O61 1.961 1_455 S
Li3 O62 1.970 1_455 S
Li3 O63 1.956 . S
C4 C6 1.341 1_455 S
C4 C7 1.356 . S
C4 O60 1.325 . S
N5 C8 1.311 1_455 S
N5 C9 1.279 . S
C6 C4 1.341 1_655 S
C6 C8 1.353 . S
C6 H64 0.935 . S
C7 C4 1.356 . S
C7 C9 1.358 . S
C7 H65 0.930 . S
C8 N5 1.311 1_655 S
C8 C6 1.353 . S
C8 H66 0.934 . S
C9 N5 1.279 . S
C9 C7 1.358 . S
C9 H67 0.930 . S
C10 C13 1.348 . S
C10 C14 1.356 . S
C10 O61 1.325 . S
C11 N12 1.279 . S
C11 C14 1.358 . S
C11 H68 0.930 . S
N12 C11 1.279 . S
N12 C15 1.314 . S
C13 C10 1.348 . S
C13 C15 1.353 . S
C13 H69 0.929 . S
C14 C10 1.356 . S
C14 C11 1.358 . S
C14 H70 0.930 . S
C15 N12 1.314 . S
C15 C13 1.353 . S
C15 H71 0.930 . S
C16 N17 1.314 . S
C16 C21 1.353 . S
C16 H22 0.930 . S
N17 Li0 1.990 . S
N17 C16 1.314 . S
N17 C19 1.279 . S
C18 C19 1.358 . S
C18 C20 1.356 . S
C18 H72 0.930 . S
C19 N17 1.279 . S
C19 C18 1.358 . S
C19 H23 0.930 . S
C20 C18 1.356 . S
C20 C21 1.348 . S
C21 C16 1.353 . S
C21 C20 1.348 . S
C21 H73 0.929 . S
H22 C16 0.930 . S
H23 C19 0.930 . S
C24 N25 1.314 . S
C24 C26 1.353 . S
C24 H30 0.930 . S
N25 Li1 1.990 . S
N25 C24 1.314 . S
N25 C28 1.279 1_455 S
C26 C24 1.353 . S
C26 C29 1.348 . S
C26 H74 0.929 . S
C27 C28 1.358 1_455 S
C27 C29 1.354 . S
C27 H75 0.933 1_455 S
C28 N25 1.279 1_655 S
C28 C27 1.358 1_655 S
C28 H31 0.930 . S
C29 C26 1.348 . S
C29 C27 1.354 . S
H30 C24 0.930 . S
H31 C28 0.930 . S
C32 C34 1.348 . S
C32 C35 1.356 . S
C32 O62 1.325 . S
N33 C36 1.314 . S
N33 C37 1.279 . S
C34 C32 1.348 . S
C34 C36 1.353 . S
C34 H76 0.929 1_655 S
C35 C32 1.356 . S
C35 C37 1.358 . S
C35 H77 0.930 . S
C36 N33 1.314 . S
C36 C34 1.353 . S
C36 H78 0.930 . S
C37 N33 1.279 . S
C37 C35 1.358 . S
C37 H79 0.930 . S
C38 C39 1.348 . S
C38 C40 1.356 . S
C38 O63 1.325 . S
C39 C38 1.348 . S
C39 C41 1.353 . S
C39 H80 0.929 . S
C40 C38 1.356 . S
C40 C42 1.358 . S
C40 H81 0.930 . S
C41 C39 1.353 . S
C41 N43 1.314 . S
C41 H82 0.930 . S
C42 C40 1.358 . S
C42 N43 1.279 . S
C42 H83 0.930 . S
N43 C41 1.314 . S
N43 C42 1.279 . S
C44 C46 1.353 . S
C44 N47 1.314 . S
C44 H50 0.930 . S
C45 N47 1.279 . S
C45 C48 1.358 . S
C45 H51 0.930 . S
C46 C44 1.353 . S
C46 C49 1.348 . S
C46 H84 0.929 . S
N47 Li2 1.990 . S
N47 C44 1.314 . S
N47 C45 1.279 . S
C48 C45 1.358 . S
C48 C49 1.356 . S
C48 H85 0.930 . S
C49 C46 1.348 . S
C49 C48 1.356 . S
H50 C44 0.930 . S
H51 C45 0.930 . S
C52 N53 1.314 1_655 S
C52 C54 1.353 . S
C52 H58 0.930 . S
N53 Li3 1.990 . S
N53 C52 1.314 1_455 S
N53 C56 1.279 . S
C54 C52 1.353 . S
C54 C57 1.344 1_655 S
C54 H86 0.929 . S
C55 C56 1.358 . S
C55 C57 1.359 . S
C55 H87 0.930 . S
C56 N53 1.279 . S
C56 C55 1.358 . S
C56 H59 0.930 . S
C57 C54 1.344 1_455 S
C57 C55 1.359 . S
H58 C52 0.930 . S
H59 C56 0.930 . S
O60 Li0 1.956 1_455 S
O60 Li1 1.970 . S
O60 Li2 1.961 . S
O60 C4 1.325 . S
O61 Li0 1.970 . S
O61 Li1 1.956 1_655 S
O61 Li3 1.961 1_655 S
O61 C10 1.325 . S
O62 Li0 1.961 . S
O62 Li2 1.956 1_655 S
O62 Li3 1.970 1_655 S
O62 C32 1.325 . S
O63 Li1 1.961 . S
O63 Li2 1.970 . S
O63 Li3 1.956 . S
O63 C38 1.325 . S
H64 C6 0.935 . S
H65 C7 0.930 . S
H66 C8 0.934 . S
H67 C9 0.930 . S
H68 C11 0.930 . S
H69 C13 0.929 . S
H70 C14 0.930 . S
H71 C15 0.930 . S
H72 C18 0.930 . S
H73 C21 0.929 . S
H74 C26 0.929 . S
H75 C27 0.933 1_655 S
H76 C34 0.929 1_455 S
H77 C35 0.930 . S
H78 C36 0.930 . S
H79 C37 0.930 . S
H80 C39 0.929 . S
H81 C40 0.930 . S
H82 C41 0.930 . S
H83 C42 0.930 . S
H84 C46 0.929 . S
H85 C48 0.930 . S
H86 C54 0.929 . S
H87 C55 0.930 . S
Li88 N105 1.990 . S
Li88 O148 1.956 . S
Li88 O149 1.970 . S
Li88 O150 1.961 . S
Li89 N113 1.990 . S
Li89 O148 1.970 . S
Li89 O149 1.956 . S
Li89 O151 1.961 . S
Li90 N135 1.990 . S
Li90 O148 1.961 . S
Li90 O150 1.956 . S
Li90 O151 1.970 . S
Li91 N141 1.990 . S
Li91 O149 1.961 . S
Li91 O150 1.970 . S
Li91 O151 1.956 . S
C92 C94 1.348 . S
C92 C95 1.356 . S
C92 O148 1.325 . S
N93 C96 1.314 . S
N93 C97 1.279 . S
C94 C92 1.348 . S
C94 C96 1.353 . S
C94 H152 0.929 . S
C95 C92 1.356 . S
C95 C97 1.358 . S
C95 H153 0.930 . S
C96 N93 1.314 . S
C96 C94 1.353 . S
C96 H154 0.930 . S
C97 N93 1.279 . S
C97 C95 1.358 . S
C97 H155 0.930 . S
C98 C101 1.348 . S
C98 C102 1.356 . S
C98 O149 1.325 . S
C99 N100 1.279 . S
C99 C102 1.358 . S
C99 H156 0.930 . S
N100 C99 1.279 . S
N100 C103 1.314 . S
C101 C98 1.348 . S
C101 C103 1.353 . S
C101 H157 0.929 . S
C102 C98 1.356 . S
C102 C99 1.358 . S
C102 H158 0.930 . S
C103 N100 1.314 . S
C103 C101 1.353 . S
C103 H159 0.930 . S
C104 N105 1.314 . S
C104 C109 1.353 . S
C104 H110 0.930 . S
N105 Li88 1.990 . S
N105 C104 1.314 . S
N105 C107 1.279 . S
C106 C107 1.358 . S
C106 C108 1.356 . S
C106 H160 0.930 . S
C107 N105 1.279 . S
C107 C106 1.358 . S
C107 H111 0.930 . S
C108 C106 1.356 . S
C108 C109 1.348 . S
C109 C104 1.353 . S
C109 C108 1.348 . S
C109 H161 0.929 . S
H110 C104 0.930 . S
H111 C107 0.930 . S
C112 N113 1.314 . S
C112 C114 1.353 . S
C112 H118 0.930 . S
N113 Li89 1.990 . S
N113 C112 1.314 . S
N113 C116 1.279 . S
C114 C112 1.353 . S
C114 C117 1.348 . S
C114 H162 0.929 . S
C115 C116 1.358 . S
C115 C117 1.356 . S
C115 H163 0.930 . S
C116 N113 1.279 . S
C116 C115 1.358 . S
C116 H119 0.930 . S
C117 C114 1.348 . S
C117 C115 1.356 . S
H118 C112 0.930 . S
H119 C116 0.930 . S
C120 C122 1.381 . S
C120 C123 1.356 . S
C120 O150 1.325 . S
N121 C124 1.314 . S
N121 C125 1.323 . S
C122 C120 1.381 . S
C122 C124 1.327 1_455 S
C122 H164 0.923 . S
C123 C120 1.356 . S
C123 C125 1.322 1_455 S
C123 H165 0.930 . S
C124 N121 1.314 . S
C124 C122 1.327 1_655 S
C124 H166 0.930 . S
C125 N121 1.323 . S
C125 C123 1.322 1_655 S
C125 H167 0.928 . S
C126 C127 1.348 . S
C126 C128 1.356 . S
C126 O151 1.325 . S
C127 C126 1.348 . S
C127 C129 1.353 . S
C127 H168 0.929 . S
C128 C126 1.356 . S
C128 C130 1.358 . S
C128 H169 0.930 . S
C129 C127 1.353 . S
C129 N131 1.314 . S
C129 H170 0.930 . S
C130 C128 1.358 . S
C130 N131 1.279 . S
C130 H171 0.930 . S
N131 C129 1.314 . S
N131 C130 1.279 . S
C132 C134 1.353 . S
C132 N135 1.314 . S
C132 H138 0.930 . S
C133 N135 1.279 . S
C133 C136 1.358 . S
C133 H139 0.930 . S
C134 C132 1.353 . S
C134 C137 1.348 . S
C134 H172 0.929 . S
N135 Li90 1.990 . S
N135 C132 1.314 . S
N135 C133 1.279 . S
C136 C133 1.358 . S
C136 C137 1.356 . S
C136 H173 0.930 . S
C137 C134 1.348 . S
C137 C136 1.356 . S
H138 C132 0.930 . S
H139 C133 0.930 . S
C140 N141 1.314 . S
C140 C142 1.353 1_455 S
C140 H146 0.930 . S
N141 Li91 1.990 . S
N141 C140 1.314 . S
N141 C144 1.279 . S
C142 C140 1.353 1_655 S
C142 C145 1.348 . S
C142 H174 0.929 . S
C143 C144 1.358 1_655 S
C143 C145 1.356 . S
C143 H175 0.930 . S
C144 N141 1.279 . S
C144 C143 1.358 1_455 S
C144 H147 0.930 . S
C145 C142 1.348 . S
C145 C143 1.356 . S
H146 C140 0.930 . S
H147 C144 0.930 . S
O148 Li88 1.956 . S
O148 Li89 1.970 . S
O148 Li90 1.961 . S
O148 C92 1.325 . S
O149 Li88 1.970 . S
O149 Li89 1.956 . S
O149 Li91 1.961 . S
O149 C98 1.325 . S
O150 Li88 1.961 . S
O150 Li90 1.956 . S
O150 Li91 1.970 . S
O150 C120 1.325 . S
O151 Li89 1.961 . S
O151 Li90 1.970 . S
O151 Li91 1.956 . S
O151 C126 1.325 . S
H152 C94 0.929 . S
H153 C95 0.930 . S
H154 C96 0.930 . S
H155 C97 0.930 . S
H156 C99 0.930 . S
H157 C101 0.929 . S
H158 C102 0.930 . S
H159 C103 0.930 . S
H160 C106 0.930 . S
H161 C109 0.929 . S
H162 C114 0.929 . S
H163 C115 0.930 . S
H164 C122 0.923 . S
H165 C123 0.930 . S
H166 C124 0.930 . S
H167 C125 0.928 . S
H168 C127 0.929 . S
H169 C128 0.930 . S
H170 C129 0.930 . S
H171 C130 0.930 . S
H172 C134 0.929 . S
H173 C136 0.930 . S
H174 C142 0.929 . S
H175 C143 0.930 . S
Li176 N193 1.990 . S
Li176 O236 1.956 . S
Li176 O237 1.970 . S
Li176 O238 1.961 . S
Li177 N201 1.990 . S
Li177 O236 1.970 . S
Li177 O237 1.956 . S
Li177 O239 1.961 . S
Li178 N223 1.990 . S
Li178 O236 1.961 . S
Li178 O238 1.956 . S
Li178 O239 1.970 . S
Li179 N229 1.990 . S
Li179 O237 1.961 . S
Li179 O238 1.970 . S
Li179 O239 1.956 . S
C180 C182 1.348 . S
C180 C183 1.356 . S
C180 O236 1.325 . S
N181 C184 1.314 . S
N181 C185 1.279 . S
C182 C180 1.348 . S
C182 C184 1.353 . S
C182 H240 0.929 . S
C183 C180 1.356 . S
C183 C185 1.358 . S
C183 H241 0.930 . S
C184 N181 1.314 . S
C184 C182 1.353 . S
C184 H242 0.930 . S
C185 N181 1.279 . S
C185 C183 1.358 . S
C185 H243 0.930 . S
C186 C189 1.348 . S
C186 C190 1.356 . S
C186 O237 1.325 . S
C187 N188 1.279 . S
C187 C190 1.358 . S
C187 H244 0.930 . S
N188 C187 1.279 . S
N188 C191 1.314 . S
C189 C186 1.348 . S
C189 C191 1.353 . S
C189 H245 0.929 . S
C190 C186 1.356 . S
C190 C187 1.358 . S
C190 H246 0.930 . S
C191 N188 1.314 . S
C191 C189 1.353 . S
C191 H247 0.930 . S
C192 N193 1.314 . S
C192 C197 1.353 . S
C192 H198 0.930 . S
N193 Li176 1.990 . S
N193 C192 1.314 . S
N193 C195 1.279 . S
C194 C195 1.358 . S
C194 C196 1.356 . S
C194 H248 0.930 . S
C195 N193 1.279 . S
C195 C194 1.358 . S
C195 H199 0.930 . S
C196 C194 1.356 . S
C196 C197 1.348 . S
C197 C192 1.353 . S
C197 C196 1.348 . S
C197 H249 0.929 . S
H198 C192 0.930 . S
H199 C195 0.930 . S
C200 N201 1.314 . S
C200 C202 1.353 . S
C200 H206 0.930 . S
N201 Li177 1.990 . S
N201 C200 1.314 . S
N201 C204 1.279 . S
C202 C200 1.353 . S
C202 C205 1.348 . S
C202 H250 0.929 . S
C203 C204 1.358 . S
C203 C205 1.356 . S
C203 H251 0.930 . S
C204 N201 1.279 . S
C204 C203 1.358 . S
C204 H207 0.930 . S
C205 C202 1.348 . S
C205 C203 1.356 . S
H206 C200 0.930 . S
H207 C204 0.930 . S
C208 C210 1.348 . S
C208 C211 1.356 . S
C208 O238 1.325 . S
N209 C212 1.314 . S
N209 C213 1.279 . S
C210 C208 1.348 . S
C210 C212 1.353 . S
C210 H252 0.929 . S
C211 C208 1.356 . S
C211 C213 1.358 . S
C211 H253 0.930 . S
C212 N209 1.314 . S
C212 C210 1.353 . S
C212 H254 0.930 . S
C213 N209 1.279 . S
C213 C211 1.358 . S
C213 H255 0.930 . S
C214 C215 1.348 . S
C214 C216 1.356 . S
C214 O239 1.325 . S
C215 C214 1.348 . S
C215 C217 1.353 . S
C215 H256 0.929 . S
C216 C214 1.356 . S
C216 C218 1.358 . S
C216 H257 0.930 . S
C217 C215 1.353 . S
C217 N219 1.314 . S
C217 H258 0.930 . S
C218 C216 1.358 . S
C218 N219 1.279 . S
C218 H259 0.930 . S
N219 C217 1.314 . S
N219 C218 1.279 . S
C220 C222 1.353 . S
C220 N223 1.314 . S
C220 H226 0.930 . S
C221 N223 1.279 . S
C221 C224 1.358 . S
C221 H227 0.930 . S
C222 C220 1.353 . S
C222 C225 1.348 . S
C222 H260 0.929 . S
N223 Li178 1.990 . S
N223 C220 1.314 . S
N223 C221 1.279 . S
C224 C221 1.358 . S
C224 C225 1.356 . S
C224 H261 0.930 . S
C225 C222 1.348 . S
C225 C224 1.356 . S
H226 C220 0.930 . S
H227 C221 0.930 . S
C228 N229 1.314 . S
C228 C230 1.353 . S
C228 H234 0.930 . S
N229 Li179 1.990 . S
N229 C228 1.314 . S
N229 C232 1.279 . S
C230 C228 1.353 . S
C230 C233 1.348 . S
C230 H262 0.929 . S
C231 C232 1.358 . S
C231 C233 1.356 . S
C231 H263 0.930 . S
C232 N229 1.279 . S
C232 C231 1.358 . S
C232 H235 0.930 . S
C233 C230 1.348 . S
C233 C231 1.356 . S
H234 C228 0.930 . S
H235 C232 0.930 . S
O236 Li176 1.956 . S
O236 Li177 1.970 . S
O236 Li178 1.961 . S
O236 C180 1.325 . S
O237 Li176 1.970 . S
O237 Li177 1.956 . S
O237 Li179 1.961 . S
O237 C186 1.325 . S
O238 Li176 1.961 . S
O238 Li178 1.956 . S
O238 Li179 1.970 . S
O238 C208 1.325 . S
O239 Li177 1.961 . S
O239 Li178 1.970 . S
O239 Li179 1.956 . S
O239 C214 1.325 . S
H240 C182 0.929 . S
H241 C183 0.930 . S
H242 C184 0.930 . S
H243 C185 0.930 . S
H244 C187 0.930 . S
H245 C189 0.929 . S
H246 C190 0.930 . S
H247 C191 0.930 . S
H248 C194 0.930 . S
H249 C197 0.929 . S
H250 C202 0.929 . S
H251 C203 0.930 . S
H252 C210 0.929 . S
H253 C211 0.930 . S
H254 C212 0.930 . S
H255 C213 0.930 . S
H256 C215 0.929 . S
H257 C216 0.930 . S
H258 C217 0.930 . S
H259 C218 0.930 . S
H260 C222 0.929 . S
H261 C224 0.930 . S
H262 C230 0.929 . S
H263 C231 0.930 . S
Li264 N281 1.990 . S
Li264 O324 1.956 . S
Li264 O325 1.970 . S
Li264 O326 1.961 . S
Li265 N289 1.990 . S
Li265 O324 1.970 . S
Li265 O325 1.956 . S
Li265 O327 1.961 . S
Li266 N311 1.990 . S
Li266 O324 1.961 . S
Li266 O326 1.956 . S
Li266 O327 1.970 . S
Li267 N317 1.990 . S
Li267 O325 1.961 . S
Li267 O326 1.970 . S
Li267 O327 1.956 . S
C268 C270 1.348 . S
C268 C271 1.356 . S
C268 O324 1.325 . S
N269 C272 1.314 . S
N269 C273 1.279 . S
C270 C268 1.348 . S
C270 C272 1.353 . S
C270 H328 0.929 . S
C271 C268 1.356 . S
C271 C273 1.358 . S
C271 H329 0.930 . S
C272 N269 1.314 . S
C272 C270 1.353 . S
C272 H330 0.930 . S
C273 N269 1.279 . S
C273 C271 1.358 . S
C273 H331 0.930 . S
C274 C277 1.348 . S
C274 C278 1.356 . S
C274 O325 1.325 . S
C275 N276 1.279 . S
C275 C278 1.358 . S
C275 H332 0.930 . S
N276 C275 1.279 . S
N276 C279 1.314 . S
C277 C274 1.348 . S
C277 C279 1.353 . S
C277 H333 0.929 . S
C278 C274 1.356 . S
C278 C275 1.358 . S
C278 H334 0.930 . S
C279 N276 1.314 . S
C279 C277 1.353 . S
C279 H335 0.930 . S
C280 N281 1.314 . S
C280 C285 1.353 . S
C280 H286 0.930 . S
N281 Li264 1.990 . S
N281 C280 1.314 . S
N281 C283 1.279 . S
C282 C283 1.358 . S
C282 C284 1.356 . S
C282 H336 0.930 . S
C283 N281 1.279 . S
C283 C282 1.358 . S
C283 H287 0.930 . S
C284 C282 1.356 . S
C284 C285 1.348 . S
C285 C280 1.353 . S
C285 C284 1.348 . S
C285 H337 0.929 . S
H286 C280 0.930 . S
H287 C283 0.930 . S
C288 N289 1.314 . S
C288 C290 1.353 . S
C288 H294 0.930 . S
N289 Li265 1.990 . S
N289 C288 1.314 . S
N289 C292 1.279 . S
C290 C288 1.353 . S
C290 C293 1.348 . S
C290 H338 0.929 . S
C291 C292 1.358 . S
C291 C293 1.356 . S
C291 H339 0.930 . S
C292 N289 1.279 . S
C292 C291 1.358 . S
C292 H295 0.930 . S
C293 C290 1.348 . S
C293 C291 1.356 . S
H294 C288 0.930 . S
H295 C292 0.930 . S
C296 C298 1.348 . S
C296 C299 1.356 . S
C296 O326 1.325 . S
N297 C300 1.314 . S
N297 C301 1.279 . S
C298 C296 1.348 . S
C298 C300 1.353 . S
C298 H340 0.929 . S
C299 C296 1.356 . S
C299 C301 1.358 . S
C299 H341 0.930 . S
C300 N297 1.314 . S
C300 C298 1.353 . S
C300 H342 0.930 . S
C301 N297 1.279 . S
C301 C299 1.358 . S
C301 H343 0.930 . S
C302 C303 1.348 . S
C302 C304 1.356 . S
C302 O327 1.325 . S
C303 C302 1.348 . S
C303 C305 1.353 . S
C303 H344 0.929 . S
C304 C302 1.356 . S
C304 C306 1.358 . S
C304 H345 0.930 . S
C305 C303 1.353 . S
C305 N307 1.314 . S
C305 H346 0.930 . S
C306 C304 1.358 . S
C306 N307 1.279 . S
C306 H347 0.930 . S
N307 C305 1.314 . S
N307 C306 1.279 . S
C308 C310 1.353 . S
C308 N311 1.314 . S
C308 H314 0.930 . S
C309 N311 1.279 . S
C309 C312 1.358 . S
C309 H315 0.930 . S
C310 C308 1.353 . S
C310 C313 1.348 . S
C310 H348 0.929 . S
N311 Li266 1.990 . S
N311 C308 1.314 . S
N311 C309 1.279 . S
C312 C309 1.358 . S
C312 C313 1.356 . S
C312 H349 0.930 . S
C313 C310 1.348 . S
C313 C312 1.356 . S
H314 C308 0.930 . S
H315 C309 0.930 . S
C316 N317 1.314 . S
C316 C318 1.353 . S
C316 H322 0.930 . S
N317 Li267 1.990 . S
N317 C316 1.314 . S
N317 C320 1.279 . S
C318 C316 1.353 . S
C318 C321 1.348 . S
C318 H350 0.929 . S
C319 C320 1.358 . S
C319 C321 1.356 . S
C319 H351 0.930 . S
C320 N317 1.279 . S
C320 C319 1.358 . S
C320 H323 0.930 . S
C321 C318 1.348 . S
C321 C319 1.356 . S
H322 C316 0.930 . S
H323 C320 0.930 . S
O324 Li264 1.956 . S
O324 Li265 1.970 . S
O324 Li266 1.961 . S
O324 C268 1.325 . S
O325 Li264 1.970 . S
O325 Li265 1.956 . S
O325 Li267 1.961 . S
O325 C274 1.325 . S
O326 Li264 1.961 . S
O326 Li266 1.956 . S
O326 Li267 1.970 . S
O326 C296 1.325 . S
O327 Li265 1.961 . S
O327 Li266 1.970 . S
O327 Li267 1.956 . S
O327 C302 1.325 . S
H328 C270 0.929 . S
H329 C271 0.930 . S
H330 C272 0.930 . S
H331 C273 0.930 . S
H332 C275 0.930 . S
H333 C277 0.929 . S
H334 C278 0.930 . S
H335 C279 0.930 . S
H336 C282 0.930 . S
H337 C285 0.929 . S
H338 C290 0.929 . S
H339 C291 0.930 . S
H340 C298 0.929 . S
H341 C299 0.930 . S
H342 C300 0.930 . S
H343 C301 0.930 . S
H344 C303 0.929 . S
H345 C304 0.930 . S
H346 C305 0.930 . S
H347 C306 0.930 . S
H348 C310 0.929 . S
H349 C312 0.930 . S
H350 C318 0.929 . S
H351 C319 0.930 . S
Li352 N369 1.990 . S
Li352 O412 1.956 . S
Li352 O413 1.970 . S
Li352 O414 1.961 . S
Li353 N377 1.990 . S
Li353 O412 1.970 . S
Li353 O413 1.956 . S
Li353 O415 1.961 . S
Li354 N399 1.990 . S
Li354 O412 1.961 . S
Li354 O414 1.956 . S
Li354 O415 1.970 . S
Li355 N405 1.990 . S
Li355 O413 1.961 . S
Li355 O414 1.970 . S
Li355 O415 1.956 . S
C356 C358 1.348 . S
C356 C359 1.356 . S
C356 O412 1.325 . S
N357 C360 1.314 . S
N357 C361 1.279 . S
C358 C356 1.348 . S
C358 C360 1.353 . S
C358 H416 0.929 . S
C359 C356 1.356 . S
C359 C361 1.358 . S
C359 H417 0.930 . S
C360 N357 1.314 . S
C360 C358 1.353 . S
C360 H418 0.930 . S
C361 N357 1.279 . S
C361 C359 1.358 . S
C361 H419 0.930 . S
C362 C365 1.348 . S
C362 C366 1.356 . S
C362 O413 1.325 . S
C363 N364 1.279 . S
C363 C366 1.358 . S
C363 H420 0.930 . S
N364 C363 1.279 . S
N364 C367 1.314 . S
C365 C362 1.348 . S
C365 C367 1.353 . S
C365 H421 0.929 . S
C366 C362 1.356 . S
C366 C363 1.358 . S
C366 H422 0.930 . S
C367 N364 1.314 . S
C367 C365 1.353 . S
C367 H423 0.930 . S
C368 N369 1.314 . S
C368 C373 1.353 . S
C368 H374 0.930 . S
N369 Li352 1.990 . S
N369 C368 1.314 . S
N369 C371 1.279 . S
C370 C371 1.358 . S
C370 C372 1.356 . S
C370 H424 0.930 . S
C371 N369 1.279 . S
C371 C370 1.358 . S
C371 H375 0.930 . S
C372 C370 1.356 . S
C372 C373 1.348 . S
C373 C368 1.353 . S
C373 C372 1.348 . S
C373 H425 0.929 . S
H374 C368 0.930 . S
H375 C371 0.930 . S
C376 N377 1.314 . S
C376 C378 1.353 . S
C376 H382 0.930 . S
N377 Li353 1.990 . S
N377 C376 1.314 . S
N377 C380 1.279 . S
C378 C376 1.353 . S
C378 C381 1.348 . S
C378 H426 0.929 . S
C379 C380 1.358 . S
C379 C381 1.356 . S
C379 H427 0.930 . S
C380 N377 1.279 . S
C380 C379 1.358 . S
C380 H383 0.930 . S
C381 C378 1.348 . S
C381 C379 1.356 . S
H382 C376 0.930 . S
H383 C380 0.930 . S
C384 C386 1.348 1_455 S
C384 C387 1.356 . S
C384 O414 1.325 . S
N385 C388 1.314 . S
N385 C389 1.279 . S
C386 C384 1.348 1_655 S
C386 C388 1.353 . S
C386 H428 0.929 . S
C387 C384 1.356 . S
C387 C389 1.358 1_455 S
C387 H429 0.930 . S
C388 N385 1.314 . S
C388 C386 1.353 . S
C388 H430 0.930 . S
C389 N385 1.279 . S
C389 C387 1.358 1_655 S
C389 H431 0.930 . S
C390 C391 1.348 . S
C390 C392 1.356 . S
C390 O415 1.325 . S
C391 C390 1.348 . S
C391 C393 1.353 . S
C391 H432 0.929 . S
C392 C390 1.356 . S
C392 C394 1.358 . S
C392 H433 0.930 . S
C393 C391 1.353 . S
C393 N395 1.314 . S
C393 H434 0.930 . S
C394 C392 1.358 . S
C394 N395 1.279 . S
C394 H435 0.930 . S
N395 C393 1.314 . S
N395 C394 1.279 . S
C396 C398 1.353 . S
C396 N399 1.314 . S
C396 H402 0.930 . S
C397 N399 1.279 . S
C397 C400 1.358 . S
C397 H403 0.930 . S
C398 C396 1.353 . S
C398 C401 1.348 . S
C398 H436 0.929 . S
N399 Li354 1.990 . S
N399 C396 1.314 . S
N399 C397 1.279 . S
C400 C397 1.358 . S
C400 C401 1.356 . S
C400 H437 0.930 . S
C401 C398 1.348 . S
C401 C400 1.356 . S
H402 C396 0.930 . S
H403 C397 0.930 . S
C404 N405 1.314 . S
C404 C406 1.353 1_455 S
C404 H410 0.930 . S
N405 Li355 1.990 . S
N405 C404 1.314 . S
N405 C408 1.279 . S
C406 C404 1.353 1_655 S
C406 C409 1.348 . S
C406 H438 0.929 . S
C407 C408 1.358 1_655 S
C407 C409 1.356 . S
C407 H439 0.930 . S
C408 N405 1.279 . S
C408 C407 1.358 1_455 S
C408 H411 0.930 . S
C409 C406 1.348 . S
C409 C407 1.356 . S
H410 C404 0.930 . S
H411 C408 0.930 . S
O412 Li352 1.956 . S
O412 Li353 1.970 . S
O412 Li354 1.961 . S
O412 C356 1.325 . S
O413 Li352 1.970 . S
O413 Li353 1.956 . S
O413 Li355 1.961 . S
O413 C362 1.325 . S
O414 Li352 1.961 . S
O414 Li354 1.956 . S
O414 Li355 1.970 . S
O414 C384 1.325 . S
O415 Li353 1.961 . S
O415 Li354 1.970 . S
O415 Li355 1.956 . S
O415 C390 1.325 . S
H416 C358 0.929 . S
H417 C359 0.930 . S
H418 C360 0.930 . S
H419 C361 0.930 . S
H420 C363 0.930 . S
H421 C365 0.929 . S
H422 C366 0.930 . S
H423 C367 0.930 . S
H424 C370 0.930 . S
H425 C373 0.929 . S
H426 C378 0.929 . S
H427 C379 0.930 . S
H428 C386 0.929 . S
H429 C387 0.930 . S
H430 C388 0.930 . S
H431 C389 0.930 . S
H432 C391 0.929 . S
H433 C392 0.930 . S
H434 C393 0.930 . S
H435 C394 0.930 . S
H436 C398 0.929 . S
H437 C400 0.930 . S
H438 C406 0.929 . S
H439 C407 0.930 . S
Li440 N457 1.990 . S
Li440 O500 1.956 . S
Li440 O501 1.970 . S
Li440 O502 1.961 . S
Li441 N465 1.990 . S
Li441 O500 1.970 . S
Li441 O501 1.956 . S
Li441 O503 1.961 . S
Li442 N487 1.990 . S
Li442 O500 1.961 . S
Li442 O502 1.956 . S
Li442 O503 1.970 . S
Li443 N493 1.990 . S
Li443 O501 1.961 . S
Li443 O502 1.970 . S
Li443 O503 1.956 . S
C444 C446 1.348 . S
C444 C447 1.356 . S
C444 O500 1.325 . S
N445 C448 1.314 . S
N445 C449 1.279 . S
C446 C444 1.348 . S
C446 C448 1.353 . S
C446 H504 0.929 . S
C447 C444 1.356 . S
C447 C449 1.358 . S
C447 H505 0.930 . S
C448 N445 1.314 . S
C448 C446 1.353 . S
C448 H506 0.930 . S
C449 N445 1.279 . S
C449 C447 1.358 . S
C449 H507 0.930 . S
C450 C453 1.348 . S
C450 C454 1.356 . S
C450 O501 1.325 . S
C451 N452 1.279 . S
C451 C454 1.358 . S
C451 H508 0.930 . S
N452 C451 1.279 . S
N452 C455 1.314 . S
C453 C450 1.348 . S
C453 C455 1.353 . S
C453 H509 0.929 . S
C454 C450 1.356 . S
C454 C451 1.358 . S
C454 H510 0.930 . S
C455 N452 1.314 . S
C455 C453 1.353 . S
C455 H511 0.930 . S
C456 N457 1.314 . S
C456 C461 1.353 . S
C456 H462 0.930 . S
N457 Li440 1.990 . S
N457 C456 1.314 . S
N457 C459 1.279 . S
C458 C459 1.358 . S
C458 C460 1.356 . S
C458 H512 0.930 . S
C459 N457 1.279 . S
C459 C458 1.358 . S
C459 H463 0.930 . S
C460 C458 1.356 . S
C460 C461 1.348 . S
C461 C456 1.353 . S
C461 C460 1.348 . S
C461 H513 0.929 . S
H462 C456 0.930 . S
H463 C459 0.930 . S
C464 N465 1.314 . S
C464 C466 1.353 . S
C464 H470 0.930 . S
N465 Li441 1.990 . S
N465 C464 1.314 . S
N465 C468 1.279 . S
C466 C464 1.353 . S
C466 C469 1.348 . S
C466 H514 0.929 . S
C467 C468 1.358 . S
C467 C469 1.356 . S
C467 H515 0.930 . S
C468 N465 1.279 . S
C468 C467 1.358 . S
C468 H471 0.930 . S
C469 C466 1.348 . S
C469 C467 1.356 . S
H470 C464 0.930 . S
H471 C468 0.930 . S
C472 C474 1.348 . S
C472 C475 1.356 . S
C472 O502 1.325 . S
N473 C476 1.314 . S
N473 C477 1.279 . S
C474 C472 1.348 . S
C474 C476 1.353 . S
C474 H516 0.929 . S
C475 C472 1.356 . S
C475 C477 1.358 . S
C475 H517 0.930 . S
C476 N473 1.314 . S
C476 C474 1.353 . S
C476 H518 0.930 . S
C477 N473 1.279 . S
C477 C475 1.358 . S
C477 H519 0.930 . S
C478 C479 1.348 . S
C478 C480 1.356 . S
C478 O503 1.325 . S
C479 C478 1.348 . S
C479 C481 1.353 . S
C479 H520 0.929 . S
C480 C478 1.356 . S
C480 C482 1.358 . S
C480 H521 0.930 . S
C481 C479 1.353 . S
C481 N483 1.314 . S
C481 H522 0.930 . S
C482 C480 1.358 . S
C482 N483 1.279 . S
C482 H523 0.930 . S
N483 C481 1.314 . S
N483 C482 1.279 . S
C484 C486 1.353 . S
C484 N487 1.314 . S
C484 H490 0.930 . S
C485 N487 1.279 . S
C485 C488 1.358 . S
C485 H491 0.930 . S
C486 C484 1.353 . S
C486 C489 1.348 . S
C486 H524 0.929 . S
N487 Li442 1.990 . S
N487 C484 1.314 . S
N487 C485 1.279 . S
C488 C485 1.358 . S
C488 C489 1.356 . S
C488 H525 0.930 . S
C489 C486 1.348 . S
C489 C488 1.356 . S
H490 C484 0.930 . S
H491 C485 0.930 . S
C492 N493 1.314 . S
C492 C494 1.353 . S
C492 H498 0.930 . S
N493 Li443 1.990 . S
N493 C492 1.314 . S
N493 C496 1.279 . S
C494 C492 1.353 . S
C494 C497 1.348 . S
C494 H526 0.929 . S
C495 C496 1.358 . S
C495 C497 1.356 . S
C495 H527 0.930 . S
C496 N493 1.279 . S
C496 C495 1.358 . S
C496 H499 0.930 . S
C497 C494 1.348 . S
C497 C495 1.356 . S
H498 C492 0.930 . S
H499 C496 0.930 . S
O500 Li440 1.956 . S
O500 Li441 1.970 . S
O500 Li442 1.961 . S
O500 C444 1.325 . S
O501 Li440 1.970 . S
O501 Li441 1.956 . S
O501 Li443 1.961 . S
O501 C450 1.325 . S
O502 Li440 1.961 . S
O502 Li442 1.956 . S
O502 Li443 1.970 . S
O502 C472 1.325 . S
O503 Li441 1.961 . S
O503 Li442 1.970 . S
O503 Li443 1.956 . S
O503 C478 1.325 . S
H504 C446 0.929 . S
H505 C447 0.930 . S
H506 C448 0.930 . S
H507 C449 0.930 . S
H508 C451 0.930 . S
H509 C453 0.929 . S
H510 C454 0.930 . S
H511 C455 0.930 . S
H512 C458 0.930 . S
H513 C461 0.929 . S
H514 C466 0.929 . S
H515 C467 0.930 . S
H516 C474 0.929 . S
H517 C475 0.930 . S
H518 C476 0.930 . S
H519 C477 0.930 . S
H520 C479 0.929 . S
H521 C480 0.930 . S
H522 C481 0.930 . S
H523 C482 0.930 . S
H524 C486 0.929 . S
H525 C488 0.930 . S
H526 C494 0.929 . S
H527 C495 0.930 . S
Li528 N545 1.990 . S
Li528 O588 1.956 . S
Li528 O589 1.970 . S
Li528 O590 1.961 . S
Li529 N553 1.990 . S
Li529 O588 1.970 . S
Li529 O589 1.956 . S
Li529 O591 1.961 . S
Li530 N575 1.990 . S
Li530 O588 1.961 . S
Li530 O590 1.956 . S
Li530 O591 1.970 . S
Li531 N581 1.990 . S
Li531 O589 1.961 . S
Li531 O590 1.970 . S
Li531 O591 1.956 . S
C532 C534 1.348 . S
C532 C535 1.356 . S
C532 O588 1.325 . S
N533 C536 1.314 . S
N533 C537 1.279 . S
C534 C532 1.348 . S
C534 C536 1.353 . S
C534 H592 0.929 . S
C535 C532 1.356 . S
C535 C537 1.358 . S
C535 H593 0.930 . S
C536 N533 1.314 . S
C536 C534 1.353 . S
C536 H594 0.930 . S
C537 N533 1.279 . S
C537 C535 1.358 . S
C537 H595 0.930 . S
C538 C541 1.348 . S
C538 C542 1.356 . S
C538 O589 1.325 . S
C539 N540 1.279 . S
C539 C542 1.358 . S
C539 H596 0.930 . S
N540 C539 1.279 . S
N540 C543 1.314 . S
C541 C538 1.348 . S
C541 C543 1.353 . S
C541 H597 0.929 . S
C542 C538 1.356 . S
C542 C539 1.358 . S
C542 H598 0.930 . S
C543 N540 1.314 . S
C543 C541 1.353 . S
C543 H599 0.930 . S
C544 N545 1.314 . S
C544 C549 1.353 . S
C544 H550 0.930 . S
N545 Li528 1.990 . S
N545 C544 1.314 . S
N545 C547 1.279 . S
C546 C547 1.358 . S
C546 C548 1.356 . S
C546 H600 0.930 . S
C547 N545 1.279 . S
C547 C546 1.358 . S
C547 H551 0.930 . S
C548 C546 1.356 . S
C548 C549 1.348 . S
C549 C544 1.353 . S
C549 C548 1.348 . S
C549 H601 0.929 . S
H550 C544 0.930 . S
H551 C547 0.930 . S
C552 N553 1.314 . S
C552 C554 1.353 . S
C552 H558 0.930 . S
N553 Li529 1.990 . S
N553 C552 1.314 . S
N553 C556 1.279 . S
C554 C552 1.353 . S
C554 C557 1.348 . S
C554 H602 0.929 . S
C555 C556 1.358 . S
C555 C557 1.356 . S
C555 H603 0.930 . S
C556 N553 1.279 . S
C556 C555 1.358 . S
C556 H559 0.930 . S
C557 C554 1.348 . S
C557 C555 1.356 . S
H558 C552 0.930 . S
H559 C556 0.930 . S
C560 C562 1.348 . S
C560 C563 1.356 . S
C560 O590 1.325 . S
N561 C564 1.314 . S
N561 C565 1.279 . S
C562 C560 1.348 . S
C562 C564 1.353 . S
C562 H604 0.929 . S
C563 C560 1.356 . S
C563 C565 1.358 . S
C563 H605 0.930 . S
C564 N561 1.314 . S
C564 C562 1.353 . S
C564 H606 0.930 . S
C565 N561 1.279 . S
C565 C563 1.358 . S
C565 H607 0.930 . S
C566 C567 1.348 . S
C566 C568 1.356 . S
C566 O591 1.325 . S
C567 C566 1.348 . S
C567 C569 1.353 . S
C567 H608 0.929 . S
C568 C566 1.356 . S
C568 C570 1.358 . S
C568 H609 0.930 . S
C569 C567 1.353 . S
C569 N571 1.314 . S
C569 H610 0.930 . S
C570 C568 1.358 . S
C570 N571 1.279 . S
C570 H611 0.930 . S
N571 C569 1.314 . S
N571 C570 1.279 . S
C572 C574 1.353 . S
C572 N575 1.314 . S
C572 H578 0.930 . S
C573 N575 1.279 . S
C573 C576 1.358 . S
C573 H579 0.930 . S
C574 C572 1.353 . S
C574 C577 1.348 . S
C574 H612 0.929 . S
N575 Li530 1.990 . S
N575 C572 1.314 . S
N575 C573 1.279 . S
C576 C573 1.358 . S
C576 C577 1.356 . S
C576 H613 0.930 . S
C577 C574 1.348 . S
C577 C576 1.356 . S
H578 C572 0.930 . S
H579 C573 0.930 . S
C580 N581 1.314 . S
C580 C582 1.353 . S
C580 H586 0.930 . S
N581 Li531 1.990 . S
N581 C580 1.314 . S
N581 C584 1.279 . S
C582 C580 1.353 . S
C582 C585 1.348 . S
C582 H614 0.929 . S
C583 C584 1.358 . S
C583 C585 1.356 . S
C583 H615 0.930 . S
C584 N581 1.279 . S
C584 C583 1.358 . S
C584 H587 0.930 . S
C585 C582 1.348 . S
C585 C583 1.356 . S
H586 C580 0.930 . S
H587 C584 0.930 . S
O588 Li528 1.956 . S
O588 Li529 1.970 . S
O588 Li530 1.961 . S
O588 C532 1.325 . S
O589 Li528 1.970 . S
O589 Li529 1.956 . S
O589 Li531 1.961 . S
O589 C538 1.325 . S
O590 Li528 1.961 . S
O590 Li530 1.956 . S
O590 Li531 1.970 . S
O590 C560 1.325 . S
O591 Li529 1.961 . S
O591 Li530 1.970 . S
O591 Li531 1.956 . S
O591 C566 1.325 . S
H592 C534 0.929 . S
H593 C535 0.930 . S
H594 C536 0.930 . S
H595 C537 0.930 . S
H596 C539 0.930 . S
H597 C541 0.929 . S
H598 C542 0.930 . S
H599 C543 0.930 . S
H600 C546 0.930 . S
H601 C549 0.929 . S
H602 C554 0.929 . S
H603 C555 0.930 . S
H604 C562 0.929 . S
H605 C563 0.930 . S
H606 C564 0.930 . S
H607 C565 0.930 . S
H608 C567 0.929 . S
H609 C568 0.930 . S
H610 C569 0.930 . S
H611 C570 0.930 . S
H612 C574 0.929 . S
H613 C576 0.930 . S
H614 C582 0.929 . S
H615 C583 0.930 . S
Li616 N633 1.990 . S
Li616 O676 1.956 1_455 S
Li616 O677 1.970 . S
Li616 O678 1.961 . S
Li617 N641 1.990 . S
Li617 O676 1.970 . S
Li617 O677 1.956 1_655 S
Li617 O679 1.961 1_655 S
Li618 N663 1.990 . S
Li618 O676 1.961 1_455 S
Li618 O678 1.956 . S
Li618 O679 1.970 . S
Li619 N669 1.990 . S
Li619 O677 1.961 . S
Li619 O678 1.970 . S
Li619 O679 1.956 . S
C620 C622 1.348 . S
C620 C623 1.356 1_556 S
C620 O676 1.325 . S
N621 C624 1.314 1_554 S
N621 C625 1.279 . S
C622 C620 1.348 . S
C622 C624 1.353 . S
C622 H680 0.929 . S
C623 C620 1.356 1_554 S
C623 C625 1.358 . S
C623 H681 0.930 . S
C624 N621 1.314 1_556 S
C624 C622 1.353 . S
C624 H682 0.930 . S
C625 N621 1.279 . S
C625 C623 1.358 . S
C625 H683 0.930 . S
C626 C629 1.348 . S
C626 C630 1.356 . S
C626 O677 1.325 . S
C627 N628 1.279 . S
C627 C630 1.358 . S
C627 H684 0.930 . S
N628 C627 1.279 . S
N628 C631 1.314 . S
C629 C626 1.348 . S
C629 C631 1.353 . S
C629 H685 0.929 . S
C630 C626 1.356 . S
C630 C627 1.358 . S
C630 H686 0.930 . S
C631 N628 1.314 . S
C631 C629 1.353 . S
C631 H687 0.930 . S
C632 N633 1.314 1_554 S
C632 C637 1.353 . S
C632 H638 0.930 1_554 S
N633 Li616 1.990 . S
N633 C632 1.314 1_556 S
N633 C635 1.279 1_556 S
C634 C635 1.358 . S
C634 C636 1.356 . S
C634 H688 0.911 1_455 S
C635 N633 1.279 1_554 S
C635 C634 1.358 . S
C635 H639 0.930 1_455 S
C636 C634 1.356 . S
C636 C637 1.348 . S
C637 C632 1.353 . S
C637 C636 1.348 . S
C637 H689 0.929 . S
H638 C632 0.930 1_556 S
H639 C635 0.930 1_655 S
C640 N641 1.314 . S
C640 C642 1.353 . S
C640 H646 0.930 . S
N641 Li617 1.990 . S
N641 C640 1.314 . S
N641 C644 1.279 . S
C642 C640 1.353 . S
C642 C645 1.348 . S
C642 H690 0.929 . S
C643 C644 1.358 . S
C643 C645 1.356 . S
C643 H691 0.930 . S
C644 N641 1.279 . S
C644 C643 1.358 . S
C644 H647 0.930 . S
C645 C642 1.348 . S
C645 C643 1.356 . S
H646 C640 0.930 . S
H647 C644 0.930 . S
C648 C650 1.348 . S
C648 C651 1.356 1_556 S
C648 O678 1.325 . S
N649 C652 1.314 1_554 S
N649 C653 1.279 . S
C650 C648 1.348 . S
C650 C652 1.353 . S
C650 H692 0.929 . S
C651 C648 1.356 1_554 S
C651 C653 1.358 . S
C651 H693 0.930 . S
C652 N649 1.314 1_556 S
C652 C650 1.353 . S
C652 H694 0.930 . S
C653 N649 1.279 . S
C653 C651 1.358 . S
C653 H695 0.930 . S
C654 C655 1.348 . S
C654 C656 1.356 1_455 S
C654 O679 1.325 . S
C655 C654 1.348 . S
C655 C657 1.353 . S
C655 H696 0.929 . S
C656 C654 1.356 1_655 S
C656 C658 1.358 . S
C656 H697 0.930 . S
C657 C655 1.353 . S
C657 N659 1.314 1_455 S
C657 H698 0.930 . S
C658 C656 1.358 . S
C658 N659 1.279 . S
C658 H699 0.930 . S
N659 C657 1.314 1_655 S
N659 C658 1.279 . S
C660 C662 1.353 1_556 S
C660 N663 1.314 1_655 S
C660 H666 0.930 . S
C661 N663 1.279 1_554 S
C661 C664 1.358 . S
C661 H667 0.930 . S
C662 C660 1.353 1_554 S
C662 C665 1.348 1_655 S
C662 H700 0.929 . S
N663 Li618 1.990 . S
N663 C660 1.314 1_455 S
N663 C661 1.279 1_556 S
C664 C661 1.358 . S
C664 C665 1.356 . S
C664 H701 0.930 . S
C665 C662 1.348 1_455 S
C665 C664 1.356 . S
H666 C660 0.930 . S
H667 C661 0.930 . S
C668 N669 1.314 . S
C668 C670 1.353 . S
C668 H674 0.930 . S
N669 Li619 1.990 . S
N669 C668 1.314 . S
N669 C672 1.279 . S
C670 C668 1.353 . S
C670 C673 1.348 . S
C670 H702 0.929 . S
C671 C672 1.358 . S
C671 C673 1.356 . S
C671 H703 0.930 . S
C672 N669 1.279 . S
C672 C671 1.358 . S
C672 H675 0.930 . S
C673 C670 1.348 . S
C673 C671 1.356 . S
H674 C668 0.930 . S
H675 C672 0.930 . S
O676 Li616 1.956 1_655 S
O676 Li617 1.970 . S
O676 Li618 1.961 1_655 S
O676 C620 1.325 . S
O677 Li616 1.970 . S
O677 Li617 1.956 1_455 S
O677 Li619 1.961 . S
O677 C626 1.325 . S
O678 Li616 1.961 . S
O678 Li618 1.956 . S
O678 Li619 1.970 . S
O678 C648 1.325 . S
O679 Li617 1.961 1_455 S
O679 Li618 1.970 . S
O679 Li619 1.956 . S
O679 C654 1.325 . S
H680 C622 0.929 . S
H681 C623 0.930 . S
H682 C624 0.930 . S
H683 C625 0.930 . S
H684 C627 0.930 . S
H685 C629 0.929 . S
H686 C630 0.930 . S
H687 C631 0.930 . S
H688 C634 0.911 1_655 S
H689 C637 0.929 . S
H690 C642 0.929 . S
H691 C643 0.930 . S
H692 C650 0.929 . S
H693 C651 0.930 . S
H694 C652 0.930 . S
H695 C653 0.930 . S
H696 C655 0.929 . S
H697 C656 0.930 . S
H698 C657 0.930 . S
H699 C658 0.930 . S
H700 C662 0.929 . S
H701 C664 0.930 . S
H702 C670 0.929 . S
H703 C671 0.930 . S
Li704 N721 1.990 . S
Li704 O764 1.956 1_545 S
Li704 O765 1.970 . S
Li704 O766 1.961 . S
Li705 N729 1.990 . S
Li705 O764 1.970 . S
Li705 O765 1.956 1_565 S
Li705 O767 1.961 1_565 S
Li706 N751 1.990 . S
Li706 O764 1.961 1_545 S
Li706 O766 1.956 . S
Li706 O767 1.970 . S
Li707 N757 1.990 . S
Li707 O765 1.961 . S
Li707 O766 1.970 . S
Li707 O767 1.956 . S
C708 C710 1.348 . S
C708 C711 1.356 . S
C708 O764 1.325 . S
N709 C712 1.314 . S
N709 C713 1.279 . S
C710 C708 1.348 . S
C710 C712 1.353 . S
C710 H768 0.929 . S
C711 C708 1.356 . S
C711 C713 1.358 . S
C711 H769 0.922 1_565 S
C712 N709 1.314 . S
C712 C710 1.353 . S
C712 H770 0.930 . S
C713 N709 1.279 . S
C713 C711 1.358 . S
C713 H771 0.930 . S
C714 C717 1.348 . S
C714 C718 1.356 . S
C714 O765 1.325 . S
C715 N716 1.279 . S
C715 C718 1.358 . S
C715 H772 0.930 . S
N716 C715 1.279 . S
N716 C719 1.314 . S
C717 C714 1.348 . S
C717 C719 1.353 . S
C717 H773 0.929 . S
C718 C714 1.356 . S
C718 C715 1.358 . S
C718 H774 0.930 . S
C719 N716 1.314 . S
C719 C717 1.353 . S
C719 H775 0.930 . S
C720 N721 1.314 . S
C720 C725 1.353 . S
C720 H726 0.930 . S
N721 Li704 1.990 . S
N721 C720 1.314 . S
N721 C723 1.279 . S
C722 C723 1.358 . S
C722 C724 1.356 . S
C722 H776 0.930 . S
C723 N721 1.279 . S
C723 C722 1.358 . S
C723 H727 0.903 1_545 S
C724 C722 1.356 . S
C724 C725 1.348 . S
C725 C720 1.353 . S
C725 C724 1.348 . S
C725 H777 0.929 . S
H726 C720 0.930 . S
H727 C723 0.903 1_565 S
C728 N729 1.314 . S
C728 C730 1.353 . S
C728 H734 0.930 . S
N729 Li705 1.990 . S
N729 C728 1.314 . S
N729 C732 1.279 . S
C730 C728 1.353 . S
C730 C733 1.348 . S
C730 H778 0.929 . S
C731 C732 1.358 . S
C731 C733 1.356 . S
C731 H779 0.930 . S
C732 N729 1.279 . S
C732 C731 1.358 . S
C732 H735 0.930 . S
C733 C730 1.348 . S
C733 C731 1.356 . S
H734 C728 0.930 . S
H735 C732 0.930 . S
C736 C738 1.348 . S
C736 C739 1.356 . S
C736 O766 1.325 . S
N737 C740 1.314 . S
N737 C741 1.279 . S
C738 C736 1.348 . S
C738 C740 1.353 . S
C738 H780 0.929 . S
C739 C736 1.356 . S
C739 C741 1.358 . S
C739 H781 0.930 . S
C740 N737 1.314 . S
C740 C738 1.353 . S
C740 H782 0.930 . S
C741 N737 1.279 . S
C741 C739 1.358 . S
C741 H783 0.930 . S
C742 C743 1.348 . S
C742 C744 1.356 . S
C742 O767 1.325 . S
C743 C742 1.348 . S
C743 C745 1.353 . S
C743 H784 0.929 . S
C744 C742 1.356 . S
C744 C746 1.358 . S
C744 H785 0.930 . S
C745 C743 1.353 . S
C745 N747 1.314 . S
C745 H786 0.930 . S
C746 C744 1.358 . S
C746 N747 1.279 . S
C746 H787 0.930 1_545 S
N747 C745 1.314 . S
N747 C746 1.279 . S
C748 C750 1.353 . S
C748 N751 1.314 . S
C748 H754 0.930 1_545 S
C749 N751 1.279 . S
C749 C752 1.358 . S
C749 H755 0.930 . S
C750 C748 1.353 . S
C750 C753 1.348 . S
C750 H788 0.929 1_545 S
N751 Li706 1.990 . S
N751 C748 1.314 . S
N751 C749 1.279 . S
C752 C749 1.358 . S
C752 C753 1.356 . S
C752 H789 0.930 . S
C753 C750 1.348 . S
C753 C752 1.356 . S
H754 C748 0.930 1_565 S
H755 C749 0.930 . S
C756 N757 1.314 . S
C756 C758 1.353 . S
C756 H762 0.930 . S
N757 Li707 1.990 . S
N757 C756 1.314 . S
N757 C760 1.279 . S
C758 C756 1.353 . S
C758 C761 1.348 . S
C758 H790 0.929 . S
C759 C760 1.358 . S
C759 C761 1.356 . S
C759 H791 0.930 . S
C760 N757 1.279 . S
C760 C759 1.358 . S
C760 H763 0.930 . S
C761 C758 1.348 . S
C761 C759 1.356 . S
H762 C756 0.930 . S
H763 C760 0.930 . S
O764 Li704 1.956 1_565 S
O764 Li705 1.970 . S
O764 Li706 1.961 1_565 S
O764 C708 1.325 . S
O765 Li704 1.970 . S
O765 Li705 1.956 1_545 S
O765 Li707 1.961 . S
O765 C714 1.325 . S
O766 Li704 1.961 . S
O766 Li706 1.956 . S
O766 Li707 1.970 . S
O766 C736 1.325 . S
O767 Li705 1.961 1_545 S
O767 Li706 1.970 . S
O767 Li707 1.956 . S
O767 C742 1.325 . S
H768 C710 0.929 . S
H769 C711 0.922 1_545 S
H770 C712 0.930 . S
H771 C713 0.930 . S
H772 C715 0.930 . S
H773 C717 0.929 . S
H774 C718 0.930 . S
H775 C719 0.930 . S
H776 C722 0.930 . S
H777 C725 0.929 . S
H778 C730 0.929 . S
H779 C731 0.930 . S
H780 C738 0.929 . S
H781 C739 0.930 . S
H782 C740 0.930 . S
H783 C741 0.930 . S
H784 C743 0.929 . S
H785 C744 0.930 . S
H786 C745 0.930 . S
H787 C746 0.930 1_565 S
H788 C750 0.929 1_565 S
H789 C752 0.930 . S
H790 C758 0.929 . S
H791 C759 0.930 . S
Li792 N809 1.990 . S
Li792 O852 1.956 . S
Li792 O853 1.970 . S
Li792 O854 1.961 . S
Li793 N817 1.990 . S
Li793 O852 1.970 . S
Li793 O853 1.956 . S
Li793 O855 1.961 . S
Li794 N839 1.990 . S
Li794 O852 1.961 . S
Li794 O854 1.956 . S
Li794 O855 1.970 . S
Li795 N845 1.990 . S
Li795 O853 1.961 . S
Li795 O854 1.970 . S
Li795 O855 1.956 . S
C796 C798 1.348 . S
C796 C799 1.356 . S
C796 O852 1.325 . S
N797 C800 1.314 . S
N797 C801 1.279 . S
C798 C796 1.348 . S
C798 C800 1.353 . S
C798 H856 0.929 . S
C799 C796 1.356 . S
C799 C801 1.358 . S
C799 H857 0.930 . S
C800 N797 1.314 . S
C800 C798 1.353 . S
C800 H858 0.930 . S
C801 N797 1.279 . S
C801 C799 1.358 . S
C801 H859 0.930 . S
C802 C805 1.348 . S
C802 C806 1.356 . S
C802 O853 1.325 . S
C803 N804 1.279 . S
C803 C806 1.358 . S
C803 H860 0.930 . S
N804 C803 1.279 . S
N804 C807 1.314 . S
C805 C802 1.348 . S
C805 C807 1.353 . S
C805 H861 0.929 . S
C806 C802 1.356 . S
C806 C803 1.358 . S
C806 H862 0.930 . S
C807 N804 1.314 . S
C807 C805 1.353 . S
C807 H863 0.930 . S
C808 N809 1.314 . S
C808 C813 1.353 . S
C808 H814 0.930 . S
N809 Li792 1.990 . S
N809 C808 1.314 . S
N809 C811 1.279 . S
C810 C811 1.358 . S
C810 C812 1.356 . S
C810 H864 0.930 . S
C811 N809 1.279 . S
C811 C810 1.358 . S
C811 H815 0.930 . S
C812 C810 1.356 . S
C812 C813 1.348 . S
C813 C808 1.353 . S
C813 C812 1.348 . S
C813 H865 0.929 . S
H814 C808 0.930 . S
H815 C811 0.930 . S
C816 N817 1.314 . S
C816 C818 1.353 . S
C816 H822 0.930 . S
N817 Li793 1.990 . S
N817 C816 1.314 . S
N817 C820 1.279 . S
C818 C816 1.353 . S
C818 C821 1.348 . S
C818 H866 0.929 . S
C819 C820 1.358 . S
C819 C821 1.356 . S
C819 H867 0.930 . S
C820 N817 1.279 . S
C820 C819 1.358 . S
C820 H823 0.930 . S
C821 C818 1.348 . S
C821 C819 1.356 . S
H822 C816 0.930 . S
H823 C820 0.930 . S
C824 C826 1.348 . S
C824 C827 1.356 . S
C824 O854 1.325 . S
N825 C828 1.314 . S
N825 C829 1.279 . S
C826 C824 1.348 . S
C826 C828 1.353 . S
C826 H868 0.929 . S
C827 C824 1.356 . S
C827 C829 1.358 . S
C827 H869 0.930 . S
C828 N825 1.314 . S
C828 C826 1.353 . S
C828 H870 0.930 . S
C829 N825 1.279 . S
C829 C827 1.358 . S
C829 H871 0.930 . S
C830 C831 1.348 . S
C830 C832 1.356 . S
C830 O855 1.325 . S
C831 C830 1.348 . S
C831 C833 1.353 . S
C831 H872 0.929 . S
C832 C830 1.356 . S
C832 C834 1.358 . S
C832 H873 0.930 . S
C833 C831 1.353 . S
C833 N835 1.314 . S
C833 H874 0.930 . S
C834 C832 1.358 . S
C834 N835 1.279 . S
C834 H875 0.930 . S
N835 C833 1.314 . S
N835 C834 1.279 . S
C836 C838 1.353 . S
C836 N839 1.314 . S
C836 H842 0.930 . S
C837 N839 1.279 . S
C837 C840 1.358 . S
C837 H843 0.930 . S
C838 C836 1.353 . S
C838 C841 1.348 . S
C838 H876 0.929 . S
N839 Li794 1.990 . S
N839 C836 1.314 . S
N839 C837 1.279 . S
C840 C837 1.358 . S
C840 C841 1.356 . S
C840 H877 0.930 . S
C841 C838 1.348 . S
C841 C840 1.356 . S
H842 C836 0.930 . S
H843 C837 0.930 . S
C844 N845 1.314 . S
C844 C846 1.353 . S
C844 H850 0.930 . S
N845 Li795 1.990 . S
N845 C844 1.314 . S
N845 C848 1.279 . S
C846 C844 1.353 . S
C846 C849 1.348 . S
C846 H878 0.929 . S
C847 C848 1.358 . S
C847 C849 1.356 . S
C847 H879 0.930 . S
C848 N845 1.279 . S
C848 C847 1.358 . S
C848 H851 0.930 . S
C849 C846 1.348 . S
C849 C847 1.356 . S
H850 C844 0.930 . S
H851 C848 0.930 . S
O852 Li792 1.956 . S
O852 Li793 1.970 . S
O852 Li794 1.961 . S
O852 C796 1.325 . S
O853 Li792 1.970 . S
O853 Li793 1.956 . S
O853 Li795 1.961 . S
O853 C802 1.325 . S
O854 Li792 1.961 . S
O854 Li794 1.956 . S
O854 Li795 1.970 . S
O854 C824 1.325 . S
O855 Li793 1.961 . S
O855 Li794 1.970 . S
O855 Li795 1.956 . S
O855 C830 1.325 . S
H856 C798 0.929 . S
H857 C799 0.930 . S
H858 C800 0.930 . S
H859 C801 0.930 . S
H860 C803 0.930 . S
H861 C805 0.929 . S
H862 C806 0.930 . S
H863 C807 0.930 . S
H864 C810 0.930 . S
H865 C813 0.929 . S
H866 C818 0.929 . S
H867 C819 0.930 . S
H868 C826 0.929 . S
H869 C827 0.930 . S
H870 C828 0.930 . S
H871 C829 0.930 . S
H872 C831 0.929 . S
H873 C832 0.930 . S
H874 C833 0.930 . S
H875 C834 0.930 . S
H876 C838 0.929 . S
H877 C840 0.930 . S
H878 C846 0.929 . S
H879 C847 0.930 . S
Li880 N897 1.990 . S
Li880 O940 1.956 . S
Li880 O941 1.970 . S
Li880 O942 1.961 . S
Li881 N905 1.990 . S
Li881 O940 1.970 . S
Li881 O941 1.956 . S
Li881 O943 1.961 . S
Li882 N927 1.990 1_545 S
Li882 O940 1.961 . S
Li882 O942 1.956 . S
Li882 O943 1.970 . S
Li883 N933 1.990 . S
Li883 O941 1.961 . S
Li883 O942 1.970 . S
Li883 O943 1.956 . S
C884 C886 1.348 . S
C884 C887 1.356 . S
C884 O940 1.325 . S
N885 C888 1.314 . S
N885 C889 1.279 . S
C886 C884 1.348 . S
C886 C888 1.353 . S
C886 H944 0.929 . S
C887 C884 1.356 . S
C887 C889 1.358 . S
C887 H945 0.930 . S
C888 N885 1.314 . S
C888 C886 1.353 . S
C888 H946 0.930 . S
C889 N885 1.279 . S
C889 C887 1.358 . S
C889 H947 0.930 . S
C890 C893 1.348 . S
C890 C894 1.356 . S
C890 O941 1.325 . S
C891 N892 1.279 . S
C891 C894 1.358 . S
C891 H948 0.930 . S
N892 C891 1.279 . S
N892 C895 1.314 . S
C893 C890 1.348 . S
C893 C895 1.353 . S
C893 H949 0.929 . S
C894 C890 1.356 . S
C894 C891 1.358 . S
C894 H950 0.930 . S
C895 N892 1.314 . S
C895 C893 1.353 . S
C895 H951 0.930 . S
C896 N897 1.314 . S
C896 C901 1.353 . S
C896 H902 0.930 . S
N897 Li880 1.990 . S
N897 C896 1.314 . S
N897 C899 1.279 . S
C898 C899 1.358 . S
C898 C900 1.356 . S
C898 H952 0.930 . S
C899 N897 1.279 . S
C899 C898 1.358 . S
C899 H903 0.930 . S
C900 C898 1.356 . S
C900 C901 1.348 . S
C901 C896 1.353 . S
C901 C900 1.348 . S
C901 H953 0.929 . S
H902 C896 0.930 . S
H903 C899 0.930 . S
C904 N905 1.314 . S
C904 C906 1.353 . S
C904 H910 0.930 . S
N905 Li881 1.990 . S
N905 C904 1.314 . S
N905 C908 1.279 . S
C906 C904 1.353 . S
C906 C909 1.348 . S
C906 H954 0.929 . S
C907 C908 1.358 . S
C907 C909 1.356 . S
C907 H955 0.930 . S
C908 N905 1.279 . S
C908 C907 1.358 . S
C908 H911 0.930 . S
C909 C906 1.348 . S
C909 C907 1.356 . S
H910 C904 0.930 . S
H911 C908 0.930 . S
C912 C914 1.348 . S
C912 C915 1.356 . S
C912 O942 1.325 . S
N913 C916 1.314 . S
N913 C917 1.279 . S
C914 C912 1.348 . S
C914 C916 1.353 . S
C914 H956 0.929 . S
C915 C912 1.356 . S
C915 C917 1.358 . S
C915 H957 0.930 . S
C916 N913 1.314 . S
C916 C914 1.353 . S
C916 H958 0.930 . S
C917 N913 1.279 . S
C917 C915 1.358 . S
C917 H959 0.930 . S
C918 C919 1.348 . S
C918 C920 1.356 . S
C918 O943 1.325 1_565 S
C919 C918 1.348 . S
C919 C921 1.353 . S
C919 H960 0.929 . S
C920 C918 1.356 . S
C920 C922 1.358 . S
C920 H961 0.930 1_565 S
C921 C919 1.353 . S
C921 N923 1.314 . S
C921 H962 0.930 . S
C922 C920 1.358 . S
C922 N923 1.279 . S
C922 H963 0.930 . S
N923 C921 1.314 . S
N923 C922 1.279 . S
C924 C926 1.353 . S
C924 N927 1.314 . S
C924 H930 0.930 . S
C925 N927 1.279 . S
C925 C928 1.358 . S
C925 H931 0.930 . S
C926 C924 1.353 . S
C926 C929 1.348 . S
C926 H964 0.929 . S
N927 Li882 1.990 1_565 S
N927 C924 1.314 . S
N927 C925 1.279 . S
C928 C925 1.358 . S
C928 C929 1.356 . S
C928 H965 0.930 . S
C929 C926 1.348 . S
C929 C928 1.356 . S
H930 C924 0.930 . S
H931 C925 0.930 . S
C932 N933 1.314 . S
C932 C934 1.353 . S
C932 H938 0.930 . S
N933 Li883 1.990 . S
N933 C932 1.314 . S
N933 C936 1.279 . S
C934 C932 1.353 . S
C934 C937 1.348 . S
C934 H966 0.929 . S
C935 C936 1.358 . S
C935 C937 1.356 . S
C935 H967 0.930 1_545 S
C936 N933 1.279 . S
C936 C935 1.358 . S
C936 H939 0.930 1_545 S
C937 C934 1.348 . S
C937 C935 1.356 . S
H938 C932 0.930 . S
H939 C936 0.930 1_565 S
O940 Li880 1.956 . S
O940 Li881 1.970 . S
O940 Li882 1.961 . S
O940 C884 1.325 . S
O941 Li880 1.970 . S
O941 Li881 1.956 . S
O941 Li883 1.961 . S
O941 C890 1.325 . S
O942 Li880 1.961 . S
O942 Li882 1.956 . S
O942 Li883 1.970 . S
O942 C912 1.325 . S
O943 Li881 1.961 . S
O943 Li882 1.970 . S
O943 Li883 1.956 . S
O943 C918 1.325 1_545 S
H944 C886 0.929 . S
H945 C887 0.930 . S
H946 C888 0.930 . S
H947 C889 0.930 . S
H948 C891 0.930 . S
H949 C893 0.929 . S
H950 C894 0.930 . S
H951 C895 0.930 . S
H952 C898 0.930 . S
H953 C901 0.929 . S
H954 C906 0.929 . S
H955 C907 0.930 . S
H956 C914 0.929 . S
H957 C915 0.930 . S
H958 C916 0.930 . S
H959 C917 0.930 . S
H960 C919 0.929 . S
H961 C920 0.930 1_545 S
H962 C921 0.930 . S
H963 C922 0.930 . S
H964 C926 0.929 . S
H965 C928 0.930 . S
H966 C934 0.929 . S
H967 C935 0.930 1_565 S
Li968 N985 1.990 . S
Li968 O1028 1.971 . S
Li968 O1029 1.971 1_554 S
Li968 O1030 1.942 1_554 S
Li969 N993 1.990 . S
Li969 O1028 1.970 . S
Li969 O1029 1.956 1_554 S
Li969 O1031 1.961 . S
Li970 N1015 1.990 . S
Li970 O1028 1.961 . S
Li970 O1030 1.956 1_554 S
Li970 O1031 1.970 . S
Li971 N1021 1.990 . S
Li971 O1029 1.961 . S
Li971 O1030 1.970 . S
Li971 O1031 1.956 1_556 S
C972 C974 1.348 . S
C972 C975 1.356 . S
C972 O1028 1.325 . S
N973 C976 1.314 . S
N973 C977 1.279 . S
C974 C972 1.348 . S
C974 C976 1.353 . S
C974 H1032 0.929 . S
C975 C972 1.356 . S
C975 C977 1.358 . S
C975 H1033 0.930 . S
C976 N973 1.314 . S
C976 C974 1.353 . S
C976 H1034 0.930 . S
C977 N973 1.279 . S
C977 C975 1.358 . S
C977 H1035 0.930 . S
C978 C981 1.348 . S
C978 C982 1.356 . S
C978 O1029 1.325 . S
C979 N980 1.279 . S
C979 C982 1.358 . S
C979 H1036 0.930 . S
N980 C979 1.279 . S
N980 C983 1.314 . S
C981 C978 1.348 . S
C981 C983 1.353 . S
C981 H1037 0.929 1_556 S
C982 C978 1.356 . S
C982 C979 1.358 . S
C982 H1038 0.930 . S
C983 N980 1.314 . S
C983 C981 1.353 . S
C983 H1039 0.930 . S
C984 N985 1.288 1_556 S
C984 C989 1.353 . S
C984 H990 0.930 . S
N985 Li968 1.990 . S
N985 C984 1.288 1_554 S
N985 C987 1.306 . S
C986 C987 1.358 . S
C986 C988 1.356 1_554 S
C986 H1040 0.930 . S
C987 N985 1.306 . S
C987 C986 1.358 . S
C987 H991 0.930 . S
C988 C986 1.356 1_556 S
C988 C989 1.348 . S
C989 C984 1.353 . S
C989 C988 1.348 . S
C989 H1041 0.929 . S
H990 C984 0.930 . S
H991 C987 0.930 . S
C992 N993 1.314 . S
C992 C994 1.353 . S
C992 H998 0.930 . S
N993 Li969 1.990 . S
N993 C992 1.314 . S
N993 C996 1.279 . S
C994 C992 1.353 . S
C994 C997 1.348 . S
C994 H1042 0.929 . S
C995 C996 1.358 . S
C995 C997 1.356 . S
C995 H1043 0.930 . S
C996 N993 1.279 . S
C996 C995 1.358 . S
C996 H999 0.930 . S
C997 C994 1.348 . S
C997 C995 1.356 . S
H998 C992 0.930 . S
H999 C996 0.930 . S
C1000 C1002 1.348 . S
C1000 C1003 1.356 . S
C1000 O1030 1.325 . S
N1001 C1004 1.314 . S
N1001 C1005 1.279 . S
C1002 C1000 1.348 . S
C1002 C1004 1.353 . S
C1002 H1044 0.929 . S
C1003 C1000 1.356 . S
C1003 C1005 1.358 . S
C1003 H1045 0.930 . S
C1004 N1001 1.314 . S
C1004 C1002 1.353 . S
C1004 H1046 0.930 . S
C1005 N1001 1.279 . S
C1005 C1003 1.358 . S
C1005 H1047 0.930 . S
C1006 C1007 1.331 1_554 S
C1006 C1008 1.368 . S
C1006 O1031 1.328 . S
C1007 C1006 1.331 1_556 S
C1007 C1009 1.353 . S
C1007 H1048 0.929 . S
C1008 C1006 1.368 . S
C1008 C1010 1.358 . S
C1008 H1049 0.930 . S
C1009 C1007 1.353 . S
C1009 N1011 1.323 . S
C1009 H1050 0.930 . S
C1010 C1008 1.358 . S
C1010 N1011 1.269 1_554 S
C1010 H1051 0.930 . S
N1011 C1009 1.323 . S
N1011 C1010 1.269 1_556 S
C1012 C1014 1.353 . S
C1012 N1015 1.314 . S
C1012 H1018 0.930 . S
C1013 N1015 1.279 1_556 S
C1013 C1016 1.358 . S
C1013 H1019 0.930 . S
C1014 C1012 1.353 . S
C1014 C1017 1.348 . S
C1014 H1052 0.929 . S
N1015 Li970 1.990 . S
N1015 C1012 1.314 . S
N1015 C1013 1.279 1_554 S
C1016 C1013 1.358 . S
C1016 C1017 1.356 1_556 S
C1016 H1053 0.930 . S
C1017 C1014 1.348 . S
C1017 C1016 1.356 1_554 S
H1018 C1012 0.930 . S
H1019 C1013 0.930 . S
C1020 N1021 1.314 . S
C1020 C1022 1.353 . S
C1020 H1026 0.930 . S
N1021 Li971 1.990 . S
N1021 C1020 1.314 . S
N1021 C1024 1.279 . S
C1022 C1020 1.353 . S
C1022 C1025 1.348 . S
C1022 H1054 0.929 . S
C1023 C1024 1.358 . S
C1023 C1025 1.356 . S
C1023 H1055 0.930 . S
C1024 N1021 1.279 . S
C1024 C1023 1.358 . S
C1024 H1027 0.930 . S
C1025 C1022 1.348 . S
C1025 C1023 1.356 . S
H1026 C1020 0.930 . S
H1027 C1024 0.930 . S
O1028 Li968 1.971 . S
O1028 Li969 1.970 . S
O1028 Li970 1.961 . S
O1028 C972 1.325 . S
O1029 Li968 1.971 1_556 S
O1029 Li969 1.956 1_556 S
O1029 Li971 1.961 . S
O1029 C978 1.325 . S
O1030 Li968 1.942 1_556 S
O1030 Li970 1.956 1_556 S
O1030 Li971 1.970 . S
O1030 C1000 1.325 . S
O1031 Li969 1.961 . S
O1031 Li970 1.970 . S
O1031 Li971 1.956 1_554 S
O1031 C1006 1.328 . S
H1032 C974 0.929 . S
H1033 C975 0.930 . S
H1034 C976 0.930 . S
H1035 C977 0.930 . S
H1036 C979 0.930 . S
H1037 C981 0.929 1_554 S
H1038 C982 0.930 . S
H1039 C983 0.930 . S
H1040 C986 0.930 . S
H1041 C989 0.929 . S
H1042 C994 0.929 . S
H1043 C995 0.930 . S
H1044 C1002 0.929 . S
H1045 C1003 0.930 . S
H1046 C1004 0.930 . S
H1047 C1005 0.930 . S
H1048 C1007 0.929 . S
H1049 C1008 0.930 . S
H1050 C1009 0.930 . S
H1051 C1010 0.930 . S
H1052 C1014 0.929 . S
H1053 C1016 0.930 . S
H1054 C1022 0.929 . S
H1055 C1023 0.930 . S
Li1056 N1073 1.990 . S
Li1056 O1116 1.956 . S
Li1056 O1117 1.970 . S
Li1056 O1118 1.961 . S
Li1057 N1081 1.990 . S
Li1057 O1116 1.970 . S
Li1057 O1117 1.956 . S
Li1057 O1119 1.961 . S
Li1058 N1103 1.990 . S
Li1058 O1116 1.961 . S
Li1058 O1118 1.956 . S
Li1058 O1119 1.970 . S
Li1059 N1109 1.990 1_554 S
Li1059 O1117 1.961 . S
Li1059 O1118 1.970 . S
Li1059 O1119 1.956 . S
C1060 C1062 1.348 . S
C1060 C1063 1.356 . S
C1060 O1116 1.325 . S
N1061 C1064 1.314 . S
N1061 C1065 1.279 . S
C1062 C1060 1.348 . S
C1062 C1064 1.353 . S
C1062 H1120 0.929 . S
C1063 C1060 1.356 . S
C1063 C1065 1.358 . S
C1063 H1121 0.930 . S
C1064 N1061 1.314 . S
C1064 C1062 1.353 . S
C1064 H1122 0.930 . S
C1065 N1061 1.279 . S
C1065 C1063 1.358 . S
C1065 H1123 0.930 . S
C1066 C1069 1.348 . S
C1066 C1070 1.356 . S
C1066 O1117 1.325 . S
C1067 N1068 1.279 . S
C1067 C1070 1.358 . S
C1067 H1124 0.930 . S
N1068 C1067 1.279 . S
N1068 C1071 1.314 . S
C1069 C1066 1.348 . S
C1069 C1071 1.353 . S
C1069 H1125 0.929 . S
C1070 C1066 1.356 . S
C1070 C1067 1.358 . S
C1070 H1126 0.930 . S
C1071 N1068 1.314 . S
C1071 C1069 1.353 . S
C1071 H1127 0.930 . S
C1072 N1073 1.314 . S
C1072 C1077 1.353 . S
C1072 H1078 0.930 . S
N1073 Li1056 1.990 . S
N1073 C1072 1.314 . S
N1073 C1075 1.279 . S
C1074 C1075 1.358 . S
C1074 C1076 1.356 . S
C1074 H1128 0.930 . S
C1075 N1073 1.279 . S
C1075 C1074 1.358 . S
C1075 H1079 0.930 . S
C1076 C1074 1.356 . S
C1076 C1077 1.348 . S
C1077 C1072 1.353 . S
C1077 C1076 1.348 . S
C1077 H1129 0.929 . S
H1078 C1072 0.930 . S
H1079 C1075 0.930 . S
C1080 N1081 1.314 . S
C1080 C1082 1.353 . S
C1080 H1086 0.930 . S
N1081 Li1057 1.990 . S
N1081 C1080 1.314 . S
N1081 C1084 1.279 . S
C1082 C1080 1.353 . S
C1082 C1085 1.348 . S
C1082 H1130 0.929 . S
C1083 C1084 1.358 . S
C1083 C1085 1.356 . S
C1083 H1131 0.930 . S
C1084 N1081 1.279 . S
C1084 C1083 1.358 . S
C1084 H1087 0.930 . S
C1085 C1082 1.348 . S
C1085 C1083 1.356 . S
H1086 C1080 0.930 . S
H1087 C1084 0.930 . S
C1088 C1090 1.348 1_554 S
C1088 C1091 1.356 . S
C1088 O1118 1.325 . S
N1089 C1092 1.314 . S
N1089 C1093 1.279 . S
C1090 C1088 1.348 1_556 S
C1090 C1092 1.353 . S
C1090 H1132 0.929 . S
C1091 C1088 1.356 . S
C1091 C1093 1.358 1_554 S
C1091 H1133 0.930 . S
C1092 N1089 1.314 . S
C1092 C1090 1.353 . S
C1092 H1134 0.930 . S
C1093 N1089 1.279 . S
C1093 C1091 1.358 1_556 S
C1093 H1135 0.930 . S
C1094 C1095 1.348 . S
C1094 C1096 1.356 . S
C1094 O1119 1.325 . S
C1095 C1094 1.348 . S
C1095 C1097 1.353 . S
C1095 H1136 0.929 . S
C1096 C1094 1.356 . S
C1096 C1098 1.358 . S
C1096 H1137 0.930 . S
C1097 C1095 1.353 . S
C1097 N1099 1.314 . S
C1097 H1138 0.930 . S
C1098 C1096 1.358 . S
C1098 N1099 1.279 . S
C1098 H1139 0.930 . S
N1099 C1097 1.314 . S
N1099 C1098 1.279 . S
C1100 C1102 1.353 . S
C1100 N1103 1.314 . S
C1100 H1106 0.930 . S
C1101 N1103 1.279 . S
C1101 C1104 1.358 . S
C1101 H1107 0.930 . S
C1102 C1100 1.353 . S
C1102 C1105 1.348 . S
C1102 H1140 0.929 . S
N1103 Li1058 1.990 . S
N1103 C1100 1.314 . S
N1103 C1101 1.279 . S
C1104 C1101 1.358 . S
C1104 C1105 1.356 . S
C1104 H1141 0.930 . S
C1105 C1102 1.348 . S
C1105 C1104 1.356 . S
H1106 C1100 0.930 . S
H1107 C1101 0.930 . S
C1108 N1109 1.314 . S
C1108 C1110 1.353 . S
C1108 H1114 0.930 . S
N1109 Li1059 1.990 1_556 S
N1109 C1108 1.314 . S
N1109 C1112 1.279 . S
C1110 C1108 1.353 . S
C1110 C1113 1.348 . S
C1110 H1142 0.929 . S
C1111 C1112 1.358 . S
C1111 C1113 1.356 . S
C1111 H1143 0.930 . S
C1112 N1109 1.279 . S
C1112 C1111 1.358 . S
C1112 H1115 0.930 . S
C1113 C1110 1.348 . S
C1113 C1111 1.356 . S
H1114 C1108 0.930 . S
H1115 C1112 0.930 . S
O1116 Li1056 1.956 . S
O1116 Li1057 1.970 . S
O1116 Li1058 1.961 . S
O1116 C1060 1.325 . S
O1117 Li1056 1.970 . S
O1117 Li1057 1.956 . S
O1117 Li1059 1.961 . S
O1117 C1066 1.325 . S
O1118 Li1056 1.961 . S
O1118 Li1058 1.956 . S
O1118 Li1059 1.970 . S
O1118 C1088 1.325 . S
O1119 Li1057 1.961 . S
O1119 Li1058 1.970 . S
O1119 Li1059 1.956 . S
O1119 C1094 1.325 . S
H1120 C1062 0.929 . S
H1121 C1063 0.930 . S
H1122 C1064 0.930 . S
H1123 C1065 0.930 . S
H1124 C1067 0.930 . S
H1125 C1069 0.929 . S
H1126 C1070 0.930 . S
H1127 C1071 0.930 . S
H1128 C1074 0.930 . S
H1129 C1077 0.929 . S
H1130 C1082 0.929 . S
H1131 C1083 0.930 . S
H1132 C1090 0.929 . S
H1133 C1091 0.930 . S
H1134 C1092 0.930 . S
H1135 C1093 0.930 . S
H1136 C1095 0.929 . S
H1137 C1096 0.930 . S
H1138 C1097 0.930 . S
H1139 C1098 0.930 . S
H1140 C1102 0.929 . S
H1141 C1104 0.930 . S
H1142 C1110 0.929 . S
H1143 C1111 0.930 . S
Li1144 N1161 1.990 . S
Li1144 O1204 1.956 . S
Li1144 O1205 1.970 . S
Li1144 O1206 1.961 . S
Li1145 N1169 1.990 . S
Li1145 O1204 1.970 . S
Li1145 O1205 1.956 . S
Li1145 O1207 1.961 . S
Li1146 N1191 1.990 . S
Li1146 O1204 1.961 . S
Li1146 O1206 1.956 . S
Li1146 O1207 1.970 . S
Li1147 N1197 1.990 . S
Li1147 O1205 1.961 . S
Li1147 O1206 1.970 . S
Li1147 O1207 1.956 . S
C1148 C1150 1.348 . S
C1148 C1151 1.356 . S
C1148 O1204 1.325 . S
N1149 C1152 1.314 . S
N1149 C1153 1.279 . S
C1150 C1148 1.348 . S
C1150 C1152 1.353 . S
C1150 H1208 0.929 . S
C1151 C1148 1.356 . S
C1151 C1153 1.358 . S
C1151 H1209 0.930 . S
C1152 N1149 1.314 . S
C1152 C1150 1.353 . S
C1152 H1210 0.930 . S
C1153 N1149 1.279 . S
C1153 C1151 1.358 . S
C1153 H1211 0.930 . S
C1154 C1157 1.348 . S
C1154 C1158 1.356 . S
C1154 O1205 1.325 . S
C1155 N1156 1.279 . S
C1155 C1158 1.358 . S
C1155 H1212 0.930 . S
N1156 C1155 1.279 . S
N1156 C1159 1.314 . S
C1157 C1154 1.348 . S
C1157 C1159 1.353 . S
C1157 H1213 0.929 . S
C1158 C1154 1.356 . S
C1158 C1155 1.358 . S
C1158 H1214 0.930 . S
C1159 N1156 1.314 . S
C1159 C1157 1.353 . S
C1159 H1215 0.930 . S
C1160 N1161 1.314 . S
C1160 C1165 1.353 . S
C1160 H1166 0.930 . S
N1161 Li1144 1.990 . S
N1161 C1160 1.314 . S
N1161 C1163 1.279 . S
C1162 C1163 1.358 . S
C1162 C1164 1.356 . S
C1162 H1216 0.930 . S
C1163 N1161 1.279 . S
C1163 C1162 1.358 . S
C1163 H1167 0.930 . S
C1164 C1162 1.356 . S
C1164 C1165 1.348 . S
C1165 C1160 1.353 . S
C1165 C1164 1.348 . S
C1165 H1217 0.929 . S
H1166 C1160 0.930 . S
H1167 C1163 0.930 . S
C1168 N1169 1.314 . S
C1168 C1170 1.353 . S
C1168 H1174 0.930 . S
N1169 Li1145 1.990 . S
N1169 C1168 1.314 . S
N1169 C1172 1.279 . S
C1170 C1168 1.353 . S
C1170 C1173 1.348 . S
C1170 H1218 0.929 . S
C1171 C1172 1.358 . S
C1171 C1173 1.356 . S
C1171 H1219 0.930 . S
C1172 N1169 1.279 . S
C1172 C1171 1.358 . S
C1172 H1175 0.930 . S
C1173 C1170 1.348 . S
C1173 C1171 1.356 . S
H1174 C1168 0.930 . S
H1175 C1172 0.930 . S
C1176 C1178 1.348 . S
C1176 C1179 1.356 . S
C1176 O1206 1.325 . S
N1177 C1180 1.314 . S
N1177 C1181 1.279 . S
C1178 C1176 1.348 . S
C1178 C1180 1.353 . S
C1178 H1220 0.929 . S
C1179 C1176 1.356 . S
C1179 C1181 1.358 . S
C1179 H1221 0.930 . S
C1180 N1177 1.314 . S
C1180 C1178 1.353 . S
C1180 H1222 0.930 . S
C1181 N1177 1.279 . S
C1181 C1179 1.358 . S
C1181 H1223 0.930 . S
C1182 C1183 1.348 . S
C1182 C1184 1.356 . S
C1182 O1207 1.325 . S
C1183 C1182 1.348 . S
C1183 C1185 1.344 1_554 S
C1183 H1224 0.929 . S
C1184 C1182 1.356 . S
C1184 C1186 1.358 . S
C1184 H1225 0.930 . S
C1185 C1183 1.344 1_556 S
C1185 N1187 1.314 . S
C1185 H1226 0.940 . S
C1186 C1184 1.358 . S
C1186 N1187 1.279 1_554 S
C1186 H1227 0.930 . S
N1187 C1185 1.314 . S
N1187 C1186 1.279 1_556 S
C1188 C1190 1.353 . S
C1188 N1191 1.314 . S
C1188 H1194 0.930 . S
C1189 N1191 1.279 . S
C1189 C1192 1.358 . S
C1189 H1195 0.930 . S
C1190 C1188 1.353 . S
C1190 C1193 1.348 . S
C1190 H1228 0.929 . S
N1191 Li1146 1.990 . S
N1191 C1188 1.314 . S
N1191 C1189 1.279 . S
C1192 C1189 1.358 . S
C1192 C1193 1.356 . S
C1192 H1229 0.930 . S
C1193 C1190 1.348 . S
C1193 C1192 1.356 . S
H1194 C1188 0.930 . S
H1195 C1189 0.930 . S
C1196 N1197 1.314 . S
C1196 C1198 1.353 . S
C1196 H1202 0.930 . S
N1197 Li1147 1.990 . S
N1197 C1196 1.314 . S
N1197 C1200 1.279 . S
C1198 C1196 1.353 . S
C1198 C1201 1.348 . S
C1198 H1230 0.929 . S
C1199 C1200 1.358 . S
C1199 C1201 1.356 . S
C1199 H1231 0.930 . S
C1200 N1197 1.279 . S
C1200 C1199 1.358 . S
C1200 H1203 0.930 . S
C1201 C1198 1.348 . S
C1201 C1199 1.356 . S
H1202 C1196 0.930 . S
H1203 C1200 0.930 . S
O1204 Li1144 1.956 . S
O1204 Li1145 1.970 . S
O1204 Li1146 1.961 . S
O1204 C1148 1.325 . S
O1205 Li1144 1.970 . S
O1205 Li1145 1.956 . S
O1205 Li1147 1.961 . S
O1205 C1154 1.325 . S
O1206 Li1144 1.961 . S
O1206 Li1146 1.956 . S
O1206 Li1147 1.970 . S
O1206 C1176 1.325 . S
O1207 Li1145 1.961 . S
O1207 Li1146 1.970 . S
O1207 Li1147 1.956 . S
O1207 C1182 1.325 . S
H1208 C1150 0.929 . S
H1209 C1151 0.930 . S
H1210 C1152 0.930 . S
H1211 C1153 0.930 . S
H1212 C1155 0.930 . S
H1213 C1157 0.929 . S
H1214 C1158 0.930 . S
H1215 C1159 0.930 . S
H1216 C1162 0.930 . S
H1217 C1165 0.929 . S
H1218 C1170 0.929 . S
H1219 C1171 0.930 . S
H1220 C1178 0.929 . S
H1221 C1179 0.930 . S
H1222 C1180 0.930 . S
H1223 C1181 0.930 . S
H1224 C1183 0.929 . S
H1225 C1184 0.930 . S
H1226 C1185 0.940 . S
H1227 C1186 0.930 . S
H1228 C1190 0.929 . S
H1229 C1192 0.930 . S
H1230 C1198 0.929 . S
H1231 C1199 0.930 . S
Li1232 N1249 1.990 . S
Li1232 O1292 1.956 . S
Li1232 O1293 1.970 . S
Li1232 O1294 1.961 . S
Li1233 N1257 1.990 . S
Li1233 O1292 1.970 . S
Li1233 O1293 1.956 . S
Li1233 O1295 1.961 . S
Li1234 N1279 1.990 . S
Li1234 O1292 1.961 . S
Li1234 O1294 1.956 . S
Li1234 O1295 1.970 . S
Li1235 N1285 1.990 . S
Li1235 O1293 1.961 . S
Li1235 O1294 1.970 . S
Li1235 O1295 1.956 . S
C1236 C1238 1.348 . S
C1236 C1239 1.356 . S
C1236 O1292 1.325 . S
N1237 C1240 1.314 . S
N1237 C1241 1.279 . S
C1238 C1236 1.348 . S
C1238 C1240 1.353 . S
C1238 H1296 0.929 . S
C1239 C1236 1.356 . S
C1239 C1241 1.358 . S
C1239 H1297 0.930 . S
C1240 N1237 1.314 . S
C1240 C1238 1.353 . S
C1240 H1298 0.930 . S
C1241 N1237 1.279 . S
C1241 C1239 1.358 . S
C1241 H1299 0.930 . S
C1242 C1245 1.348 . S
C1242 C1246 1.356 . S
C1242 O1293 1.325 . S
C1243 N1244 1.279 . S
C1243 C1246 1.358 . S
C1243 H1300 0.930 . S
N1244 C1243 1.279 . S
N1244 C1247 1.314 . S
C1245 C1242 1.348 . S
C1245 C1247 1.353 . S
C1245 H1301 0.929 . S
C1246 C1242 1.356 . S
C1246 C1243 1.358 . S
C1246 H1302 0.930 . S
C1247 N1244 1.314 . S
C1247 C1245 1.353 . S
C1247 H1303 0.930 . S
C1248 N1249 1.314 . S
C1248 C1253 1.353 . S
C1248 H1254 0.930 . S
N1249 Li1232 1.990 . S
N1249 C1248 1.314 . S
N1249 C1251 1.279 . S
C1250 C1251 1.358 . S
C1250 C1252 1.356 . S
C1250 H1304 0.930 . S
C1251 N1249 1.279 . S
C1251 C1250 1.358 . S
C1251 H1255 0.930 . S
C1252 C1250 1.356 . S
C1252 C1253 1.348 . S
C1253 C1248 1.353 . S
C1253 C1252 1.348 . S
C1253 H1305 0.929 . S
H1254 C1248 0.930 . S
H1255 C1251 0.930 . S
C1256 N1257 1.314 . S
C1256 C1258 1.353 . S
C1256 H1262 0.930 . S
N1257 Li1233 1.990 . S
N1257 C1256 1.314 . S
N1257 C1260 1.279 . S
C1258 C1256 1.353 . S
C1258 C1261 1.348 . S
C1258 H1306 0.929 . S
C1259 C1260 1.358 . S
C1259 C1261 1.356 . S
C1259 H1307 0.930 . S
C1260 N1257 1.279 . S
C1260 C1259 1.358 . S
C1260 H1263 0.930 . S
C1261 C1258 1.348 . S
C1261 C1259 1.356 . S
H1262 C1256 0.930 . S
H1263 C1260 0.930 . S
C1264 C1266 1.348 . S
C1264 C1267 1.356 . S
C1264 O1294 1.325 . S
N1265 C1268 1.314 . S
N1265 C1269 1.279 . S
C1266 C1264 1.348 . S
C1266 C1268 1.353 . S
C1266 H1308 0.929 . S
C1267 C1264 1.356 . S
C1267 C1269 1.358 . S
C1267 H1309 0.930 . S
C1268 N1265 1.314 . S
C1268 C1266 1.353 . S
C1268 H1310 0.930 . S
C1269 N1265 1.279 . S
C1269 C1267 1.358 . S
C1269 H1311 0.930 . S
C1270 C1271 1.348 . S
C1270 C1272 1.356 . S
C1270 O1295 1.325 . S
C1271 C1270 1.348 . S
C1271 C1273 1.353 . S
C1271 H1312 0.929 . S
C1272 C1270 1.356 . S
C1272 C1274 1.358 . S
C1272 H1313 0.930 . S
C1273 C1271 1.353 . S
C1273 N1275 1.314 . S
C1273 H1314 0.930 . S
C1274 C1272 1.358 . S
C1274 N1275 1.279 . S
C1274 H1315 0.930 . S
N1275 C1273 1.314 . S
N1275 C1274 1.279 . S
C1276 C1278 1.353 . S
C1276 N1279 1.314 . S
C1276 H1282 0.930 . S
C1277 N1279 1.279 . S
C1277 C1280 1.358 . S
C1277 H1283 0.930 . S
C1278 C1276 1.353 . S
C1278 C1281 1.348 . S
C1278 H1316 0.929 . S
N1279 Li1234 1.990 . S
N1279 C1276 1.314 . S
N1279 C1277 1.279 . S
C1280 C1277 1.358 . S
C1280 C1281 1.356 . S
C1280 H1317 0.930 . S
C1281 C1278 1.348 . S
C1281 C1280 1.356 . S
H1282 C1276 0.930 . S
H1283 C1277 0.930 . S
C1284 N1285 1.314 . S
C1284 C1286 1.353 . S
C1284 H1290 0.930 . S
N1285 Li1235 1.990 . S
N1285 C1284 1.314 . S
N1285 C1288 1.279 . S
C1286 C1284 1.353 . S
C1286 C1289 1.348 . S
C1286 H1318 0.929 . S
C1287 C1288 1.358 . S
C1287 C1289 1.356 . S
C1287 H1319 0.930 . S
C1288 N1285 1.279 . S
C1288 C1287 1.358 . S
C1288 H1291 0.930 . S
C1289 C1286 1.348 . S
C1289 C1287 1.356 . S
H1290 C1284 0.930 . S
H1291 C1288 0.930 . S
O1292 Li1232 1.956 . S
O1292 Li1233 1.970 . S
O1292 Li1234 1.961 . S
O1292 C1236 1.325 . S
O1293 Li1232 1.970 . S
O1293 Li1233 1.956 . S
O1293 Li1235 1.961 . S
O1293 C1242 1.325 . S
O1294 Li1232 1.961 . S
O1294 Li1234 1.956 . S
O1294 Li1235 1.970 . S
O1294 C1264 1.325 . S
O1295 Li1233 1.961 . S
O1295 Li1234 1.970 . S
O1295 Li1235 1.956 . S
O1295 C1270 1.325 . S
H1296 C1238 0.929 . S
H1297 C1239 0.930 . S
H1298 C1240 0.930 . S
H1299 C1241 0.930 . S
H1300 C1243 0.930 . S
H1301 C1245 0.929 . S
H1302 C1246 0.930 . S
H1303 C1247 0.930 . S
H1304 C1250 0.930 . S
H1305 C1253 0.929 . S
H1306 C1258 0.929 . S
H1307 C1259 0.930 . S
H1308 C1266 0.929 . S
H1309 C1267 0.930 . S
H1310 C1268 0.930 . S
H1311 C1269 0.930 . S
H1312 C1271 0.929 . S
H1313 C1272 0.930 . S
H1314 C1273 0.930 . S
H1315 C1274 0.930 . S
H1316 C1278 0.929 . S
H1317 C1280 0.930 . S
H1318 C1286 0.929 . S
H1319 C1287 0.930 . S
Li1320 N1337 1.990 . S
Li1320 O1380 1.956 . S
Li1320 O1381 1.970 . S
Li1320 O1382 1.961 . S
Li1321 N1345 1.990 . S
Li1321 O1380 1.970 . S
Li1321 O1381 1.956 . S
Li1321 O1383 1.961 . S
Li1322 N1367 1.990 . S
Li1322 O1380 1.961 . S
Li1322 O1382 1.956 . S
Li1322 O1383 1.970 . S
Li1323 N1373 1.990 . S
Li1323 O1381 1.961 . S
Li1323 O1382 1.970 . S
Li1323 O1383 1.956 . S
C1324 C1326 1.348 . S
C1324 C1327 1.356 . S
C1324 O1380 1.325 . S
N1325 C1328 1.314 . S
N1325 C1329 1.279 . S
C1326 C1324 1.348 . S
C1326 C1328 1.353 . S
C1326 H1384 0.929 . S
C1327 C1324 1.356 . S
C1327 C1329 1.358 . S
C1327 H1385 0.930 . S
C1328 N1325 1.314 . S
C1328 C1326 1.353 . S
C1328 H1386 0.930 . S
C1329 N1325 1.279 . S
C1329 C1327 1.358 . S
C1329 H1387 0.930 . S
C1330 C1333 1.348 . S
C1330 C1334 1.356 . S
C1330 O1381 1.325 . S
C1331 N1332 1.279 . S
C1331 C1334 1.358 . S
C1331 H1388 0.930 . S
N1332 C1331 1.279 . S
N1332 C1335 1.314 . S
C1333 C1330 1.348 . S
C1333 C1335 1.353 . S
C1333 H1389 0.929 . S
C1334 C1330 1.356 . S
C1334 C1331 1.358 . S
C1334 H1390 0.930 . S
C1335 N1332 1.314 . S
C1335 C1333 1.353 . S
C1335 H1391 0.930 . S
C1336 N1337 1.314 . S
C1336 C1341 1.353 . S
C1336 H1342 0.930 . S
N1337 Li1320 1.990 . S
N1337 C1336 1.314 . S
N1337 C1339 1.279 . S
C1338 C1339 1.358 . S
C1338 C1340 1.356 . S
C1338 H1392 0.930 . S
C1339 N1337 1.279 . S
C1339 C1338 1.358 . S
C1339 H1343 0.930 . S
C1340 C1338 1.356 . S
C1340 C1341 1.348 . S
C1341 C1336 1.353 . S
C1341 C1340 1.348 . S
C1341 H1393 0.929 . S
H1342 C1336 0.930 . S
H1343 C1339 0.930 . S
C1344 N1345 1.314 . S
C1344 C1346 1.353 . S
C1344 H1350 0.930 . S
N1345 Li1321 1.990 . S
N1345 C1344 1.314 . S
N1345 C1348 1.279 . S
C1346 C1344 1.353 . S
C1346 C1349 1.348 . S
C1346 H1394 0.929 . S
C1347 C1348 1.358 . S
C1347 C1349 1.356 . S
C1347 H1395 0.930 . S
C1348 N1345 1.279 . S
C1348 C1347 1.358 . S
C1348 H1351 0.930 . S
C1349 C1346 1.348 . S
C1349 C1347 1.356 . S
H1350 C1344 0.930 . S
H1351 C1348 0.930 . S
C1352 C1354 1.348 . S
C1352 C1355 1.356 . S
C1352 O1382 1.325 . S
N1353 C1356 1.314 . S
N1353 C1357 1.279 . S
C1354 C1352 1.348 . S
C1354 C1356 1.353 . S
C1354 H1396 0.929 . S
C1355 C1352 1.356 . S
C1355 C1357 1.358 . S
C1355 H1397 0.930 . S
C1356 N1353 1.314 . S
C1356 C1354 1.353 . S
C1356 H1398 0.930 . S
C1357 N1353 1.279 . S
C1357 C1355 1.358 . S
C1357 H1399 0.930 . S
C1358 C1359 1.348 . S
C1358 C1360 1.356 . S
C1358 O1383 1.325 . S
C1359 C1358 1.348 . S
C1359 C1361 1.353 . S
C1359 H1400 0.929 . S
C1360 C1358 1.356 . S
C1360 C1362 1.358 . S
C1360 H1401 0.930 . S
C1361 C1359 1.353 . S
C1361 N1363 1.314 . S
C1361 H1402 0.930 . S
C1362 C1360 1.358 . S
C1362 N1363 1.279 . S
C1362 H1403 0.930 . S
N1363 C1361 1.314 . S
N1363 C1362 1.279 . S
C1364 C1366 1.353 . S
C1364 N1367 1.314 . S
C1364 H1370 0.930 . S
C1365 N1367 1.279 . S
C1365 C1368 1.358 . S
C1365 H1371 0.930 . S
C1366 C1364 1.353 . S
C1366 C1369 1.348 . S
C1366 H1404 0.929 . S
N1367 Li1322 1.990 . S
N1367 C1364 1.314 . S
N1367 C1365 1.279 . S
C1368 C1365 1.358 . S
C1368 C1369 1.356 . S
C1368 H1405 0.930 . S
C1369 C1366 1.348 . S
C1369 C1368 1.356 . S
H1370 C1364 0.930 . S
H1371 C1365 0.930 . S
C1372 N1373 1.314 . S
C1372 C1374 1.353 . S
C1372 H1378 0.930 . S
N1373 Li1323 1.990 . S
N1373 C1372 1.314 . S
N1373 C1376 1.279 . S
C1374 C1372 1.353 . S
C1374 C1377 1.348 . S
C1374 H1406 0.929 . S
C1375 C1376 1.358 . S
C1375 C1377 1.356 . S
C1375 H1407 0.930 . S
C1376 N1373 1.279 . S
C1376 C1375 1.358 . S
C1376 H1379 0.930 . S
C1377 C1374 1.348 . S
C1377 C1375 1.356 . S
H1378 C1372 0.930 . S
H1379 C1376 0.930 . S
O1380 Li1320 1.956 . S
O1380 Li1321 1.970 . S
O1380 Li1322 1.961 . S
O1380 C1324 1.325 . S
O1381 Li1320 1.970 . S
O1381 Li1321 1.956 . S
O1381 Li1323 1.961 . S
O1381 C1330 1.325 . S
O1382 Li1320 1.961 . S
O1382 Li1322 1.956 . S
O1382 Li1323 1.970 . S
O1382 C1352 1.325 . S
O1383 Li1321 1.961 . S
O1383 Li1322 1.970 . S
O1383 Li1323 1.956 . S
O1383 C1358 1.325 . S
H1384 C1326 0.929 . S
H1385 C1327 0.930 . S
H1386 C1328 0.930 . S
H1387 C1329 0.930 . S
H1388 C1331 0.930 . S
H1389 C1333 0.929 . S
H1390 C1334 0.930 . S
H1391 C1335 0.930 . S
H1392 C1338 0.930 . S
H1393 C1341 0.929 . S
H1394 C1346 0.929 . S
H1395 C1347 0.930 . S
H1396 C1354 0.929 . S
H1397 C1355 0.930 . S
H1398 C1356 0.930 . S
H1399 C1357 0.930 . S
H1400 C1359 0.929 . S
H1401 C1360 0.930 . S
H1402 C1361 0.930 . S
H1403 C1362 0.930 . S
H1404 C1366 0.929 . S
H1405 C1368 0.930 . S
H1406 C1374 0.929 . S
H1407 C1375 0.930 . S
Li1408 N1425 1.990 . S
Li1408 O1468 1.956 1_545 S
Li1408 O1469 1.967 . S
Li1408 O1470 1.961 . S
Li1409 N1433 1.990 . S
Li1409 O1468 1.970 . S
Li1409 O1469 1.935 1_565 S
Li1409 O1471 1.961 . S
Li1410 N1455 1.990 . S
Li1410 O1468 1.961 1_545 S
Li1410 O1470 1.956 . S
Li1410 O1471 1.970 1_545 S
Li1411 N1461 1.990 . S
Li1411 O1469 1.985 . S
Li1411 O1470 1.970 . S
Li1411 O1471 1.956 1_545 S
C1412 C1414 1.348 . S
C1412 C1415 1.356 . S
C1412 O1468 1.325 . S
N1413 C1416 1.314 . S
N1413 C1417 1.279 . S
C1414 C1412 1.348 . S
C1414 C1416 1.353 . S
C1414 H1472 0.929 . S
C1415 C1412 1.356 . S
C1415 C1417 1.358 . S
C1415 H1473 0.930 . S
C1416 N1413 1.314 . S
C1416 C1414 1.353 . S
C1416 H1474 0.930 . S
C1417 N1413 1.279 . S
C1417 C1415 1.358 . S
C1417 H1475 0.930 1_655 S
C1418 C1421 1.349 . S
C1418 C1422 1.346 1_565 S
C1418 O1469 1.324 1_565 S
C1419 N1420 1.279 . S
C1419 C1422 1.358 1_565 S
C1419 H1476 0.931 1_565 S
N1420 C1419 1.279 . S
N1420 C1423 1.314 . S
C1421 C1418 1.349 . S
C1421 C1423 1.353 . S
C1421 H1477 0.929 . S
C1422 C1418 1.346 1_545 S
C1422 C1419 1.358 1_545 S
C1422 H1478 0.941 . S
C1423 N1420 1.314 . S
C1423 C1421 1.353 . S
C1423 H1479 0.930 . S
C1424 N1425 1.314 . S
C1424 C1429 1.353 . S
C1424 H1430 0.930 . S
N1425 Li1408 1.990 . S
N1425 C1424 1.314 . S
N1425 C1427 1.279 1_545 S
C1426 C1427 1.345 1_455 S
C1426 C1428 1.354 1_565 S
C1426 H1480 0.946 . S
C1427 N1425 1.279 1_565 S
C1427 C1426 1.345 1_655 S
C1427 H1431 0.930 . S
C1428 C1426 1.354 1_545 S
C1428 C1429 1.348 1_455 S
C1429 C1424 1.353 . S
C1429 C1428 1.348 1_655 S
C1429 H1481 0.930 1_655 S
H1430 C1424 0.930 . S
H1431 C1427 0.930 . S
C1432 N1433 1.314 . S
C1432 C1434 1.353 . S
C1432 H1438 0.930 . S
N1433 Li1409 1.990 . S
N1433 C1432 1.314 . S
N1433 C1436 1.279 . S
C1434 C1432 1.353 . S
C1434 C1437 1.348 . S
C1434 H1482 0.929 . S
C1435 C1436 1.358 . S
C1435 C1437 1.356 . S
C1435 H1483 0.930 . S
C1436 N1433 1.279 . S
C1436 C1435 1.358 . S
C1436 H1439 0.930 . S
C1437 C1434 1.348 . S
C1437 C1435 1.356 . S
H1438 C1432 0.930 . S
H1439 C1436 0.930 . S
C1440 C1442 1.348 . S
C1440 C1443 1.356 . S
C1440 O1470 1.325 . S
N1441 C1444 1.314 1_455 S
N1441 C1445 1.279 . S
C1442 C1440 1.348 . S
C1442 C1444 1.353 . S
C1442 H1484 0.929 . S
C1443 C1440 1.356 . S
C1443 C1445 1.358 1_655 S
C1443 H1485 0.930 . S
C1444 N1441 1.314 1_655 S
C1444 C1442 1.353 . S
C1444 H1486 0.930 . S
C1445 N1441 1.279 . S
C1445 C1443 1.358 1_455 S
C1445 H1487 0.930 . S
C1446 C1447 1.348 . S
C1446 C1448 1.356 . S
C1446 O1471 1.325 . S
C1447 C1446 1.348 . S
C1447 C1449 1.353 . S
C1447 H1488 0.929 1_565 S
C1448 C1446 1.356 . S
C1448 C1450 1.358 . S
C1448 H1489 0.930 . S
C1449 C1447 1.353 . S
C1449 N1451 1.314 . S
C1449 H1490 0.930 . S
C1450 C1448 1.358 . S
C1450 N1451 1.279 . S
C1450 H1491 0.930 . S
N1451 C1449 1.314 . S
N1451 C1450 1.279 . S
C1452 C1454 1.353 . S
C1452 N1455 1.314 1_565 S
C1452 H1458 0.930 . S
C1453 N1455 1.279 . S
C1453 C1456 1.358 . S
C1453 H1459 0.930 . S
C1454 C1452 1.353 . S
C1454 C1457 1.312 1_565 S
C1454 H1492 0.929 . S
N1455 Li1410 1.990 . S
N1455 C1452 1.314 1_545 S
N1455 C1453 1.279 . S
C1456 C1453 1.358 . S
C1456 C1457 1.391 . S
C1456 H1493 0.934 . S
C1457 C1454 1.312 1_545 S
C1457 C1456 1.391 . S
H1458 C1452 0.930 . S
H1459 C1453 0.930 . S
C1460 N1461 1.314 . S
C1460 C1462 1.353 . S
C1460 H1466 0.930 . S
N1461 Li1411 1.990 . S
N1461 C1460 1.314 . S
N1461 C1464 1.279 . S
C1462 C1460 1.353 . S
C1462 C1465 1.348 . S
C1462 H1494 0.929 . S
C1463 C1464 1.358 . S
C1463 C1465 1.356 . S
C1463 H1495 0.930 . S
C1464 N1461 1.279 . S
C1464 C1463 1.358 . S
C1464 H1467 0.930 . S
C1465 C1462 1.348 . S
C1465 C1463 1.356 . S
H1466 C1460 0.930 . S
H1467 C1464 0.930 . S
O1468 Li1408 1.956 1_565 S
O1468 Li1409 1.970 . S
O1468 Li1410 1.961 1_565 S
O1468 C1412 1.325 . S
O1469 Li1408 1.967 . S
O1469 Li1409 1.935 1_545 S
O1469 Li1411 1.985 . S
O1469 C1418 1.324 1_545 S
O1470 Li1408 1.961 . S
O1470 Li1410 1.956 . S
O1470 Li1411 1.970 . S
O1470 C1440 1.325 . S
O1471 Li1409 1.961 . S
O1471 Li1410 1.970 1_565 S
O1471 Li1411 1.956 1_565 S
O1471 C1446 1.325 . S
H1472 C1414 0.929 . S
H1473 C1415 0.930 . S
H1474 C1416 0.930 . S
H1475 C1417 0.930 1_455 S
H1476 C1419 0.931 1_545 S
H1477 C1421 0.929 . S
H1478 C1422 0.941 . S
H1479 C1423 0.930 . S
H1480 C1426 0.946 . S
H1481 C1429 0.930 1_455 S
H1482 C1434 0.929 . S
H1483 C1435 0.930 . S
H1484 C1442 0.929 . S
H1485 C1443 0.930 . S
H1486 C1444 0.930 . S
H1487 C1445 0.930 . S
H1488 C1447 0.929 1_545 S
H1489 C1448 0.930 . S
H1490 C1449 0.930 . S
H1491 C1450 0.930 . S
H1492 C1454 0.929 . S
H1493 C1456 0.934 . S
H1494 C1462 0.929 . S
H1495 C1463 0.930 . S
Li1496 N1513 1.990 . S
Li1496 O1556 1.956 . S
Li1496 O1557 1.970 . S
Li1496 O1558 1.961 . S
Li1497 N1521 1.990 . S
Li1497 O1556 1.970 . S
Li1497 O1557 1.956 . S
Li1497 O1559 1.961 . S
Li1498 N1543 1.990 . S
Li1498 O1556 1.961 . S
Li1498 O1558 1.956 . S
Li1498 O1559 1.970 . S
Li1499 N1549 1.990 . S
Li1499 O1557 1.961 . S
Li1499 O1558 1.970 . S
Li1499 O1559 1.956 . S
C1500 C1502 1.348 . S
C1500 C1503 1.356 . S
C1500 O1556 1.325 . S
N1501 C1504 1.314 . S
N1501 C1505 1.279 . S
C1502 C1500 1.348 . S
C1502 C1504 1.353 . S
C1502 H1560 0.929 . S
C1503 C1500 1.356 . S
C1503 C1505 1.358 . S
C1503 H1561 0.930 . S
C1504 N1501 1.314 . S
C1504 C1502 1.353 . S
C1504 H1562 0.930 . S
C1505 N1501 1.279 . S
C1505 C1503 1.358 . S
C1505 H1563 0.930 . S
C1506 C1509 1.348 . S
C1506 C1510 1.356 . S
C1506 O1557 1.325 . S
C1507 N1508 1.279 . S
C1507 C1510 1.358 . S
C1507 H1564 0.930 . S
N1508 C1507 1.279 . S
N1508 C1511 1.314 . S
C1509 C1506 1.348 . S
C1509 C1511 1.353 . S
C1509 H1565 0.929 . S
C1510 C1506 1.356 . S
C1510 C1507 1.358 . S
C1510 H1566 0.930 . S
C1511 N1508 1.314 . S
C1511 C1509 1.353 . S
C1511 H1567 0.930 . S
C1512 N1513 1.314 . S
C1512 C1517 1.353 . S
C1512 H1518 0.930 . S
N1513 Li1496 1.990 . S
N1513 C1512 1.314 . S
N1513 C1515 1.279 . S
C1514 C1515 1.358 . S
C1514 C1516 1.356 . S
C1514 H1568 0.930 . S
C1515 N1513 1.279 . S
C1515 C1514 1.358 . S
C1515 H1519 0.930 . S
C1516 C1514 1.356 . S
C1516 C1517 1.348 . S
C1517 C1512 1.353 . S
C1517 C1516 1.348 . S
C1517 H1569 0.929 . S
H1518 C1512 0.930 . S
H1519 C1515 0.930 . S
C1520 N1521 1.314 . S
C1520 C1522 1.353 . S
C1520 H1526 0.930 . S
N1521 Li1497 1.990 . S
N1521 C1520 1.314 . S
N1521 C1524 1.279 . S
C1522 C1520 1.353 . S
C1522 C1525 1.348 . S
C1522 H1570 0.929 . S
C1523 C1524 1.358 . S
C1523 C1525 1.356 . S
C1523 H1571 0.930 . S
C1524 N1521 1.279 . S
C1524 C1523 1.358 . S
C1524 H1527 0.930 . S
C1525 C1522 1.348 . S
C1525 C1523 1.356 . S
H1526 C1520 0.930 . S
H1527 C1524 0.930 . S
C1528 C1530 1.348 . S
C1528 C1531 1.356 . S
C1528 O1558 1.325 . S
N1529 C1532 1.314 . S
N1529 C1533 1.279 . S
C1530 C1528 1.348 . S
C1530 C1532 1.353 . S
C1530 H1572 0.929 . S
C1531 C1528 1.356 . S
C1531 C1533 1.358 . S
C1531 H1573 0.930 . S
C1532 N1529 1.314 . S
C1532 C1530 1.353 . S
C1532 H1574 0.930 . S
C1533 N1529 1.279 . S
C1533 C1531 1.358 . S
C1533 H1575 0.930 . S
C1534 C1535 1.348 . S
C1534 C1536 1.356 . S
C1534 O1559 1.325 . S
C1535 C1534 1.348 . S
C1535 C1537 1.353 . S
C1535 H1576 0.929 . S
C1536 C1534 1.356 . S
C1536 C1538 1.358 . S
C1536 H1577 0.930 . S
C1537 C1535 1.353 . S
C1537 N1539 1.314 . S
C1537 H1578 0.930 . S
C1538 C1536 1.358 . S
C1538 N1539 1.279 . S
C1538 H1579 0.930 . S
N1539 C1537 1.314 . S
N1539 C1538 1.279 . S
C1540 C1542 1.353 . S
C1540 N1543 1.314 . S
C1540 H1546 0.930 . S
C1541 N1543 1.279 . S
C1541 C1544 1.358 . S
C1541 H1547 0.930 . S
C1542 C1540 1.353 . S
C1542 C1545 1.348 . S
C1542 H1580 0.929 . S
N1543 Li1498 1.990 . S
N1543 C1540 1.314 . S
N1543 C1541 1.279 . S
C1544 C1541 1.358 . S
C1544 C1545 1.356 . S
C1544 H1581 0.930 . S
C1545 C1542 1.348 . S
C1545 C1544 1.356 . S
H1546 C1540 0.930 . S
H1547 C1541 0.930 . S
C1548 N1549 1.314 . S
C1548 C1550 1.353 . S
C1548 H1554 0.930 . S
N1549 Li1499 1.990 . S
N1549 C1548 1.314 . S
N1549 C1552 1.279 . S
C1550 C1548 1.353 . S
C1550 C1553 1.348 . S
C1550 H1582 0.929 . S
C1551 C1552 1.358 . S
C1551 C1553 1.356 . S
C1551 H1583 0.930 . S
C1552 N1549 1.279 . S
C1552 C1551 1.358 . S
C1552 H1555 0.930 . S
C1553 C1550 1.348 . S
C1553 C1551 1.356 . S
H1554 C1548 0.930 . S
H1555 C1552 0.930 . S
O1556 Li1496 1.956 . S
O1556 Li1497 1.970 . S
O1556 Li1498 1.961 . S
O1556 C1500 1.325 . S
O1557 Li1496 1.970 . S
O1557 Li1497 1.956 . S
O1557 Li1499 1.961 . S
O1557 C1506 1.325 . S
O1558 Li1496 1.961 . S
O1558 Li1498 1.956 . S
O1558 Li1499 1.970 . S
O1558 C1528 1.325 . S
O1559 Li1497 1.961 . S
O1559 Li1498 1.970 . S
O1559 Li1499 1.956 . S
O1559 C1534 1.325 . S
H1560 C1502 0.929 . S
H1561 C1503 0.930 . S
H1562 C1504 0.930 . S
H1563 C1505 0.930 . S
H1564 C1507 0.930 . S
H1565 C1509 0.929 . S
H1566 C1510 0.930 . S
H1567 C1511 0.930 . S
H1568 C1514 0.930 . S
H1569 C1517 0.929 . S
H1570 C1522 0.929 . S
H1571 C1523 0.930 . S
H1572 C1530 0.929 . S
H1573 C1531 0.930 . S
H1574 C1532 0.930 . S
H1575 C1533 0.930 . S
H1576 C1535 0.929 . S
H1577 C1536 0.930 . S
H1578 C1537 0.930 . S
H1579 C1538 0.930 . S
H1580 C1542 0.929 . S
H1581 C1544 0.930 . S
H1582 C1550 0.929 . S
H1583 C1551 0.930 . S
Li1584 N1601 1.990 . S
Li1584 O1644 1.956 . S
Li1584 O1645 1.970 . S
Li1584 O1646 1.961 . S
Li1585 N1609 1.990 . S
Li1585 O1644 1.970 . S
Li1585 O1645 1.956 . S
Li1585 O1647 1.961 . S
Li1586 N1631 1.990 . S
Li1586 O1644 1.961 . S
Li1586 O1646 1.956 . S
Li1586 O1647 1.970 . S
Li1587 N1637 1.990 . S
Li1587 O1645 1.961 . S
Li1587 O1646 1.970 . S
Li1587 O1647 1.956 . S
C1588 C1590 1.348 . S
C1588 C1591 1.356 . S
C1588 O1644 1.325 . S
N1589 C1592 1.314 . S
N1589 C1593 1.279 . S
C1590 C1588 1.348 . S
C1590 C1592 1.353 . S
C1590 H1648 0.929 . S
C1591 C1588 1.356 . S
C1591 C1593 1.358 . S
C1591 H1649 0.930 . S
C1592 N1589 1.314 . S
C1592 C1590 1.353 . S
C1592 H1650 0.930 . S
C1593 N1589 1.279 . S
C1593 C1591 1.358 . S
C1593 H1651 0.930 . S
C1594 C1597 1.348 . S
C1594 C1598 1.356 . S
C1594 O1645 1.325 . S
C1595 N1596 1.279 . S
C1595 C1598 1.358 . S
C1595 H1652 0.930 . S
N1596 C1595 1.279 . S
N1596 C1599 1.314 . S
C1597 C1594 1.348 . S
C1597 C1599 1.353 . S
C1597 H1653 0.929 . S
C1598 C1594 1.356 . S
C1598 C1595 1.358 . S
C1598 H1654 0.930 . S
C1599 N1596 1.314 . S
C1599 C1597 1.353 . S
C1599 H1655 0.930 . S
C1600 N1601 1.314 . S
C1600 C1605 1.353 . S
C1600 H1606 0.930 . S
N1601 Li1584 1.990 . S
N1601 C1600 1.314 . S
N1601 C1603 1.279 . S
C1602 C1603 1.358 . S
C1602 C1604 1.356 . S
C1602 H1656 0.930 . S
C1603 N1601 1.279 . S
C1603 C1602 1.358 . S
C1603 H1607 0.930 . S
C1604 C1602 1.356 . S
C1604 C1605 1.348 . S
C1605 C1600 1.353 . S
C1605 C1604 1.348 . S
C1605 H1657 0.929 . S
H1606 C1600 0.930 . S
H1607 C1603 0.930 . S
C1608 N1609 1.314 . S
C1608 C1610 1.353 . S
C1608 H1614 0.930 . S
N1609 Li1585 1.990 . S
N1609 C1608 1.314 . S
N1609 C1612 1.279 . S
C1610 C1608 1.353 . S
C1610 C1613 1.348 . S
C1610 H1658 0.929 . S
C1611 C1612 1.358 . S
C1611 C1613 1.356 . S
C1611 H1659 0.930 . S
C1612 N1609 1.279 . S
C1612 C1611 1.358 . S
C1612 H1615 0.930 . S
C1613 C1610 1.348 . S
C1613 C1611 1.356 . S
H1614 C1608 0.930 . S
H1615 C1612 0.930 . S
C1616 C1618 1.348 . S
C1616 C1619 1.356 . S
C1616 O1646 1.325 . S
N1617 C1620 1.314 . S
N1617 C1621 1.279 . S
C1618 C1616 1.348 . S
C1618 C1620 1.353 . S
C1618 H1660 0.929 . S
C1619 C1616 1.356 . S
C1619 C1621 1.358 . S
C1619 H1661 0.930 . S
C1620 N1617 1.314 . S
C1620 C1618 1.353 . S
C1620 H1662 0.930 . S
C1621 N1617 1.279 . S
C1621 C1619 1.358 . S
C1621 H1663 0.930 . S
C1622 C1623 1.348 . S
C1622 C1624 1.356 . S
C1622 O1647 1.325 . S
C1623 C1622 1.348 . S
C1623 C1625 1.353 . S
C1623 H1664 0.929 . S
C1624 C1622 1.356 . S
C1624 C1626 1.358 . S
C1624 H1665 0.930 . S
C1625 C1623 1.353 . S
C1625 N1627 1.314 . S
C1625 H1666 0.930 . S
C1626 C1624 1.358 . S
C1626 N1627 1.279 . S
C1626 H1667 0.930 . S
N1627 C1625 1.314 . S
N1627 C1626 1.279 . S
C1628 C1630 1.353 . S
C1628 N1631 1.314 . S
C1628 H1634 0.930 . S
C1629 N1631 1.279 . S
C1629 C1632 1.358 . S
C1629 H1635 0.930 . S
C1630 C1628 1.353 . S
C1630 C1633 1.348 . S
C1630 H1668 0.929 . S
N1631 Li1586 1.990 . S
N1631 C1628 1.314 . S
N1631 C1629 1.279 . S
C1632 C1629 1.358 . S
C1632 C1633 1.356 . S
C1632 H1669 0.930 . S
C1633 C1630 1.348 . S
C1633 C1632 1.356 . S
H1634 C1628 0.930 . S
H1635 C1629 0.930 . S
C1636 N1637 1.314 . S
C1636 C1638 1.353 . S
C1636 H1642 0.930 . S
N1637 Li1587 1.990 . S
N1637 C1636 1.314 . S
N1637 C1640 1.279 . S
C1638 C1636 1.353 . S
C1638 C1641 1.348 . S
C1638 H1670 0.929 . S
C1639 C1640 1.358 . S
C1639 C1641 1.356 . S
C1639 H1671 0.930 . S
C1640 N1637 1.279 . S
C1640 C1639 1.358 . S
C1640 H1643 0.930 . S
C1641 C1638 1.348 . S
C1641 C1639 1.356 . S
H1642 C1636 0.930 . S
H1643 C1640 0.930 . S
O1644 Li1584 1.956 . S
O1644 Li1585 1.970 . S
O1644 Li1586 1.961 . S
O1644 C1588 1.325 . S
O1645 Li1584 1.970 . S
O1645 Li1585 1.956 . S
O1645 Li1587 1.961 . S
O1645 C1594 1.325 . S
O1646 Li1584 1.961 . S
O1646 Li1586 1.956 . S
O1646 Li1587 1.970 . S
O1646 C1616 1.325 . S
O1647 Li1585 1.961 . S
O1647 Li1586 1.970 . S
O1647 Li1587 1.956 . S
O1647 C1622 1.325 . S
H1648 C1590 0.929 . S
H1649 C1591 0.930 . S
H1650 C1592 0.930 . S
H1651 C1593 0.930 . S
H1652 C1595 0.930 . S
H1653 C1597 0.929 . S
H1654 C1598 0.930 . S
H1655 C1599 0.930 . S
H1656 C1602 0.930 . S
H1657 C1605 0.929 . S
H1658 C1610 0.929 . S
H1659 C1611 0.930 . S
H1660 C1618 0.929 . S
H1661 C1619 0.930 . S
H1662 C1620 0.930 . S
H1663 C1621 0.930 . S
H1664 C1623 0.929 . S
H1665 C1624 0.930 . S
H1666 C1625 0.930 . S
H1667 C1626 0.930 . S
H1668 C1630 0.929 . S
H1669 C1632 0.930 . S
H1670 C1638 0.929 . S
H1671 C1639 0.930 . S
Li1672 N1689 1.990 . S
Li1672 O1732 1.956 . S
Li1672 O1733 1.970 . S
Li1672 O1734 1.961 1_545 S
Li1673 N1697 1.990 . S
Li1673 O1732 1.970 . S
Li1673 O1733 1.956 . S
Li1673 O1735 1.961 . S
Li1674 N1719 1.990 . S
Li1674 O1732 1.961 . S
Li1674 O1734 1.956 1_545 S
Li1674 O1735 1.970 . S
Li1675 N1725 1.990 . S
Li1675 O1733 1.961 1_565 S
Li1675 O1734 1.970 . S
Li1675 O1735 1.956 1_565 S
C1676 C1678 1.348 . S
C1676 C1679 1.356 . S
C1676 O1732 1.325 . S
N1677 C1680 1.314 . S
N1677 C1681 1.279 . S
C1678 C1676 1.348 . S
C1678 C1680 1.353 . S
C1678 H1736 0.929 . S
C1679 C1676 1.356 . S
C1679 C1681 1.358 . S
C1679 H1737 0.930 . S
C1680 N1677 1.314 . S
C1680 C1678 1.353 . S
C1680 H1738 0.930 . S
C1681 N1677 1.279 . S
C1681 C1679 1.358 . S
C1681 H1739 0.930 . S
C1682 C1685 1.348 . S
C1682 C1686 1.356 . S
C1682 O1733 1.325 . S
C1683 N1684 1.279 . S
C1683 C1686 1.358 . S
C1683 H1740 0.930 . S
N1684 C1683 1.279 . S
N1684 C1687 1.314 . S
C1685 C1682 1.348 . S
C1685 C1687 1.353 . S
C1685 H1741 0.929 . S
C1686 C1682 1.356 . S
C1686 C1683 1.358 . S
C1686 H1742 0.930 . S
C1687 N1684 1.314 . S
C1687 C1685 1.353 . S
C1687 H1743 0.930 . S
C1688 N1689 1.290 1_565 S
C1688 C1693 1.356 . S
C1688 H1694 0.954 . S
N1689 Li1672 1.990 . S
N1689 C1688 1.290 1_545 S
N1689 C1691 1.279 . S
C1690 C1691 1.358 . S
C1690 C1692 1.356 . S
C1690 H1744 0.930 . S
C1691 N1689 1.279 . S
C1691 C1690 1.358 . S
C1691 H1695 0.930 . S
C1692 C1690 1.356 . S
C1692 C1693 1.348 1_545 S
C1693 C1688 1.356 . S
C1693 C1692 1.348 1_565 S
C1693 H1745 0.929 . S
H1694 C1688 0.954 . S
H1695 C1691 0.930 . S
C1696 N1697 1.314 . S
C1696 C1698 1.353 . S
C1696 H1702 0.930 . S
N1697 Li1673 1.990 . S
N1697 C1696 1.314 . S
N1697 C1700 1.279 . S
C1698 C1696 1.353 . S
C1698 C1701 1.348 . S
C1698 H1746 0.929 . S
C1699 C1700 1.358 . S
C1699 C1701 1.356 . S
C1699 H1747 0.930 . S
C1700 N1697 1.279 . S
C1700 C1699 1.358 . S
C1700 H1703 0.930 . S
C1701 C1698 1.348 . S
C1701 C1699 1.356 . S
H1702 C1696 0.930 . S
H1703 C1700 0.930 . S
C1704 C1706 1.348 . S
C1704 C1707 1.356 . S
C1704 O1734 1.325 . S
N1705 C1708 1.314 . S
N1705 C1709 1.279 . S
C1706 C1704 1.348 . S
C1706 C1708 1.353 . S
C1706 H1748 0.929 . S
C1707 C1704 1.356 . S
C1707 C1709 1.358 . S
C1707 H1749 0.930 . S
C1708 N1705 1.314 . S
C1708 C1706 1.353 . S
C1708 H1750 0.930 . S
C1709 N1705 1.279 . S
C1709 C1707 1.358 . S
C1709 H1751 0.930 . S
C1710 C1711 1.348 . S
C1710 C1712 1.356 . S
C1710 O1735 1.325 . S
C1711 C1710 1.348 . S
C1711 C1713 1.353 . S
C1711 H1752 0.938 . S
C1712 C1710 1.356 . S
C1712 C1714 1.358 . S
C1712 H1753 0.930 . S
C1713 C1711 1.353 . S
C1713 N1715 1.314 . S
C1713 H1754 0.930 . S
C1714 C1712 1.358 . S
C1714 N1715 1.279 . S
C1714 H1755 0.930 . S
N1715 C1713 1.314 . S
N1715 C1714 1.279 . S
C1716 C1718 1.353 . S
C1716 N1719 1.314 . S
C1716 H1722 0.930 . S
C1717 N1719 1.279 1_565 S
C1717 C1720 1.358 . S
C1717 H1723 0.930 . S
C1718 C1716 1.353 . S
C1718 C1721 1.349 1_545 S
C1718 H1756 0.929 . S
N1719 Li1674 1.990 . S
N1719 C1716 1.314 . S
N1719 C1717 1.279 1_545 S
C1720 C1717 1.358 . S
C1720 C1721 1.355 . S
C1720 H1757 0.930 . S
C1721 C1718 1.349 1_565 S
C1721 C1720 1.355 . S
H1722 C1716 0.930 . S
H1723 C1717 0.930 . S
C1724 N1725 1.314 . S
C1724 C1726 1.353 . S
C1724 H1730 0.930 . S
N1725 Li1675 1.990 . S
N1725 C1724 1.314 . S
N1725 C1728 1.279 . S
C1726 C1724 1.353 . S
C1726 C1729 1.348 . S
C1726 H1758 0.929 . S
C1727 C1728 1.358 . S
C1727 C1729 1.356 . S
C1727 H1759 0.930 . S
C1728 N1725 1.279 . S
C1728 C1727 1.358 . S
C1728 H1731 0.930 . S
C1729 C1726 1.348 . S
C1729 C1727 1.356 . S
H1730 C1724 0.930 . S
H1731 C1728 0.930 . S
O1732 Li1672 1.956 . S
O1732 Li1673 1.970 . S
O1732 Li1674 1.961 . S
O1732 C1676 1.325 . S
O1733 Li1672 1.970 . S
O1733 Li1673 1.956 . S
O1733 Li1675 1.961 1_545 S
O1733 C1682 1.325 . S
O1734 Li1672 1.961 1_565 S
O1734 Li1674 1.956 1_565 S
O1734 Li1675 1.970 . S
O1734 C1704 1.325 . S
O1735 Li1673 1.961 . S
O1735 Li1674 1.970 . S
O1735 Li1675 1.956 1_545 S
O1735 C1710 1.325 . S
H1736 C1678 0.929 . S
H1737 C1679 0.930 . S
H1738 C1680 0.930 . S
H1739 C1681 0.930 . S
H1740 C1683 0.930 . S
H1741 C1685 0.929 . S
H1742 C1686 0.930 . S
H1743 C1687 0.930 . S
H1744 C1690 0.930 . S
H1745 C1693 0.929 . S
H1746 C1698 0.929 . S
H1747 C1699 0.930 . S
H1748 C1706 0.929 . S
H1749 C1707 0.930 . S
H1750 C1708 0.930 . S
H1751 C1709 0.930 . S
H1752 C1711 0.938 . S
H1753 C1712 0.930 . S
H1754 C1713 0.930 . S
H1755 C1714 0.930 . S
H1756 C1718 0.929 . S
H1757 C1720 0.930 . S
H1758 C1726 0.929 . S
H1759 C1727 0.930 . S
Li1760 N1777 1.990 . S
Li1760 O1820 1.956 . S
Li1760 O1821 1.970 . S
Li1760 O1822 1.961 . S
Li1761 N1785 1.990 . S
Li1761 O1820 1.970 . S
Li1761 O1821 1.956 . S
Li1761 O1823 1.961 . S
Li1762 N1807 1.990 1_554 S
Li1762 O1820 1.961 . S
Li1762 O1822 1.956 . S
Li1762 O1823 1.970 . S
Li1763 N1813 1.990 . S
Li1763 O1821 1.961 . S
Li1763 O1822 1.970 . S
Li1763 O1823 1.956 . S
C1764 C1766 1.348 . S
C1764 C1767 1.356 . S
C1764 O1820 1.325 . S
N1765 C1768 1.314 . S
N1765 C1769 1.279 . S
C1766 C1764 1.348 . S
C1766 C1768 1.353 . S
C1766 H1824 0.929 . S
C1767 C1764 1.356 . S
C1767 C1769 1.358 . S
C1767 H1825 0.930 . S
C1768 N1765 1.314 . S
C1768 C1766 1.353 . S
C1768 H1826 0.930 . S
C1769 N1765 1.279 . S
C1769 C1767 1.358 . S
C1769 H1827 0.930 . S
C1770 C1773 1.348 . S
C1770 C1774 1.356 . S
C1770 O1821 1.325 . S
C1771 N1772 1.279 . S
C1771 C1774 1.358 . S
C1771 H1828 0.930 . S
N1772 C1771 1.279 . S
N1772 C1775 1.314 . S
C1773 C1770 1.348 . S
C1773 C1775 1.353 . S
C1773 H1829 0.929 . S
C1774 C1770 1.356 . S
C1774 C1771 1.358 . S
C1774 H1830 0.930 . S
C1775 N1772 1.314 . S
C1775 C1773 1.353 . S
C1775 H1831 0.930 . S
C1776 N1777 1.314 . S
C1776 C1781 1.353 . S
C1776 H1782 0.930 . S
N1777 Li1760 1.990 . S
N1777 C1776 1.314 . S
N1777 C1779 1.279 . S
C1778 C1779 1.358 . S
C1778 C1780 1.356 . S
C1778 H1832 0.930 . S
C1779 N1777 1.279 . S
C1779 C1778 1.358 . S
C1779 H1783 0.930 . S
C1780 C1778 1.356 . S
C1780 C1781 1.348 . S
C1781 C1776 1.353 . S
C1781 C1780 1.348 . S
C1781 H1833 0.929 . S
H1782 C1776 0.930 . S
H1783 C1779 0.930 . S
C1784 N1785 1.314 . S
C1784 C1786 1.353 . S
C1784 H1790 0.930 . S
N1785 Li1761 1.990 . S
N1785 C1784 1.314 . S
N1785 C1788 1.279 . S
C1786 C1784 1.353 . S
C1786 C1789 1.348 . S
C1786 H1834 0.929 . S
C1787 C1788 1.358 . S
C1787 C1789 1.356 . S
C1787 H1835 0.930 . S
C1788 N1785 1.279 . S
C1788 C1787 1.358 . S
C1788 H1791 0.930 . S
C1789 C1786 1.348 . S
C1789 C1787 1.356 . S
H1790 C1784 0.930 . S
H1791 C1788 0.930 . S
C1792 C1794 1.348 . S
C1792 C1795 1.356 . S
C1792 O1822 1.325 . S
N1793 C1796 1.314 . S
N1793 C1797 1.279 . S
C1794 C1792 1.348 . S
C1794 C1796 1.353 . S
C1794 H1836 0.929 . S
C1795 C1792 1.356 . S
C1795 C1797 1.358 . S
C1795 H1837 0.930 . S
C1796 N1793 1.314 . S
C1796 C1794 1.353 . S
C1796 H1838 0.930 . S
C1797 N1793 1.279 . S
C1797 C1795 1.358 . S
C1797 H1839 0.930 . S
C1798 C1799 1.348 . S
C1798 C1800 1.356 . S
C1798 O1823 1.325 1_556 S
C1799 C1798 1.348 . S
C1799 C1801 1.353 . S
C1799 H1840 0.929 . S
C1800 C1798 1.356 . S
C1800 C1802 1.358 . S
C1800 H1841 0.930 1_556 S
C1801 C1799 1.353 . S
C1801 N1803 1.314 . S
C1801 H1842 0.930 . S
C1802 C1800 1.358 . S
C1802 N1803 1.279 . S
C1802 H1843 0.930 . S
N1803 C1801 1.314 . S
N1803 C1802 1.279 . S
C1804 C1806 1.353 . S
C1804 N1807 1.314 . S
C1804 H1810 0.930 . S
C1805 N1807 1.279 . S
C1805 C1808 1.358 . S
C1805 H1811 0.930 . S
C1806 C1804 1.353 . S
C1806 C1809 1.348 . S
C1806 H1844 0.929 . S
N1807 Li1762 1.990 1_556 S
N1807 C1804 1.314 . S
N1807 C1805 1.279 . S
C1808 C1805 1.358 . S
C1808 C1809 1.356 . S
C1808 H1845 0.930 . S
C1809 C1806 1.348 . S
C1809 C1808 1.356 . S
H1810 C1804 0.930 . S
H1811 C1805 0.930 . S
C1812 N1813 1.314 . S
C1812 C1814 1.353 . S
C1812 H1818 0.930 . S
N1813 Li1763 1.990 . S
N1813 C1812 1.314 . S
N1813 C1816 1.279 . S
C1814 C1812 1.353 . S
C1814 C1817 1.348 . S
C1814 H1846 0.929 . S
C1815 C1816 1.358 . S
C1815 C1817 1.356 . S
C1815 H1847 0.930 1_554 S
C1816 N1813 1.279 . S
C1816 C1815 1.358 . S
C1816 H1819 0.930 1_554 S
C1817 C1814 1.348 . S
C1817 C1815 1.356 . S
H1818 C1812 0.930 . S
H1819 C1816 0.930 1_556 S
O1820 Li1760 1.956 . S
O1820 Li1761 1.970 . S
O1820 Li1762 1.961 . S
O1820 C1764 1.325 . S
O1821 Li1760 1.970 . S
O1821 Li1761 1.956 . S
O1821 Li1763 1.961 . S
O1821 C1770 1.325 . S
O1822 Li1760 1.961 . S
O1822 Li1762 1.956 . S
O1822 Li1763 1.970 . S
O1822 C1792 1.325 . S
O1823 Li1761 1.961 . S
O1823 Li1762 1.970 . S
O1823 Li1763 1.956 . S
O1823 C1798 1.325 1_554 S
H1824 C1766 0.929 . S
H1825 C1767 0.930 . S
H1826 C1768 0.930 . S
H1827 C1769 0.930 . S
H1828 C1771 0.930 . S
H1829 C1773 0.929 . S
H1830 C1774 0.930 . S
H1831 C1775 0.930 . S
H1832 C1778 0.930 . S
H1833 C1781 0.929 . S
H1834 C1786 0.929 . S
H1835 C1787 0.930 . S
H1836 C1794 0.929 . S
H1837 C1795 0.930 . S
H1838 C1796 0.930 . S
H1839 C1797 0.930 . S
H1840 C1799 0.929 . S
H1841 C1800 0.930 1_554 S
H1842 C1801 0.930 . S
H1843 C1802 0.930 . S
H1844 C1806 0.929 . S
H1845 C1808 0.930 . S
H1846 C1814 0.929 . S
H1847 C1815 0.930 1_556 S
Li1848 N1865 1.990 . S
Li1848 O1908 1.956 . S
Li1848 O1909 1.970 . S
Li1848 O1910 1.961 . S
Li1849 N1873 1.990 . S
Li1849 O1908 1.970 . S
Li1849 O1909 1.956 . S
Li1849 O1911 1.961 . S
Li1850 N1895 1.990 . S
Li1850 O1908 1.961 . S
Li1850 O1910 1.956 . S
Li1850 O1911 1.970 . S
Li1851 N1901 1.990 . S
Li1851 O1909 1.961 . S
Li1851 O1910 1.970 . S
Li1851 O1911 1.956 . S
C1852 C1854 1.348 . S
C1852 C1855 1.356 . S
C1852 O1908 1.325 . S
N1853 C1856 1.314 . S
N1853 C1857 1.279 . S
C1854 C1852 1.348 . S
C1854 C1856 1.353 . S
C1854 H1912 0.929 . S
C1855 C1852 1.356 . S
C1855 C1857 1.358 . S
C1855 H1913 0.930 . S
C1856 N1853 1.314 . S
C1856 C1854 1.353 . S
C1856 H1914 0.930 . S
C1857 N1853 1.279 . S
C1857 C1855 1.358 . S
C1857 H1915 0.930 . S
C1858 C1861 1.348 . S
C1858 C1862 1.356 . S
C1858 O1909 1.325 . S
C1859 N1860 1.279 . S
C1859 C1862 1.358 . S
C1859 H1916 0.930 . S
N1860 C1859 1.279 . S
N1860 C1863 1.314 . S
C1861 C1858 1.348 . S
C1861 C1863 1.353 . S
C1861 H1917 0.929 . S
C1862 C1858 1.356 . S
C1862 C1859 1.358 . S
C1862 H1918 0.930 . S
C1863 N1860 1.314 . S
C1863 C1861 1.353 . S
C1863 H1919 0.930 . S
C1864 N1865 1.314 . S
C1864 C1869 1.353 . S
C1864 H1870 0.930 . S
N1865 Li1848 1.990 . S
N1865 C1864 1.314 . S
N1865 C1867 1.279 . S
C1866 C1867 1.358 . S
C1866 C1868 1.356 . S
C1866 H1920 0.930 . S
C1867 N1865 1.279 . S
C1867 C1866 1.358 . S
C1867 H1871 0.930 . S
C1868 C1866 1.356 . S
C1868 C1869 1.348 . S
C1869 C1864 1.353 . S
C1869 C1868 1.348 . S
C1869 H1921 0.929 . S
H1870 C1864 0.930 . S
H1871 C1867 0.930 . S
C1872 N1873 1.314 . S
C1872 C1874 1.353 . S
C1872 H1878 0.930 . S
N1873 Li1849 1.990 . S
N1873 C1872 1.314 . S
N1873 C1876 1.279 . S
C1874 C1872 1.353 . S
C1874 C1877 1.348 . S
C1874 H1922 0.929 . S
C1875 C1876 1.358 . S
C1875 C1877 1.356 . S
C1875 H1923 0.930 . S
C1876 N1873 1.279 . S
C1876 C1875 1.358 . S
C1876 H1879 0.930 . S
C1877 C1874 1.348 . S
C1877 C1875 1.356 . S
H1878 C1872 0.930 . S
H1879 C1876 0.930 . S
C1880 C1882 1.348 . S
C1880 C1883 1.356 . S
C1880 O1910 1.325 . S
N1881 C1884 1.314 . S
N1881 C1885 1.279 . S
C1882 C1880 1.348 . S
C1882 C1884 1.353 . S
C1882 H1924 0.929 . S
C1883 C1880 1.356 . S
C1883 C1885 1.358 . S
C1883 H1925 0.930 . S
C1884 N1881 1.314 . S
C1884 C1882 1.353 . S
C1884 H1926 0.930 . S
C1885 N1881 1.279 . S
C1885 C1883 1.358 . S
C1885 H1927 0.930 . S
C1886 C1887 1.348 . S
C1886 C1888 1.356 . S
C1886 O1911 1.325 . S
C1887 C1886 1.348 . S
C1887 C1889 1.353 . S
C1887 H1928 0.929 . S
C1888 C1886 1.356 . S
C1888 C1890 1.358 . S
C1888 H1929 0.930 . S
C1889 C1887 1.353 . S
C1889 N1891 1.314 . S
C1889 H1930 0.930 . S
C1890 C1888 1.358 . S
C1890 N1891 1.279 . S
C1890 H1931 0.930 . S
N1891 C1889 1.314 . S
N1891 C1890 1.279 . S
C1892 C1894 1.353 . S
C1892 N1895 1.314 . S
C1892 H1898 0.930 . S
C1893 N1895 1.279 . S
C1893 C1896 1.358 . S
C1893 H1899 0.930 . S
C1894 C1892 1.353 . S
C1894 C1897 1.348 . S
C1894 H1932 0.929 . S
N1895 Li1850 1.990 . S
N1895 C1892 1.314 . S
N1895 C1893 1.279 . S
C1896 C1893 1.358 . S
C1896 C1897 1.356 . S
C1896 H1933 0.930 . S
C1897 C1894 1.348 . S
C1897 C1896 1.356 . S
H1898 C1892 0.930 . S
H1899 C1893 0.930 . S
C1900 N1901 1.314 . S
C1900 C1902 1.353 . S
C1900 H1906 0.930 . S
N1901 Li1851 1.990 . S
N1901 C1900 1.314 . S
N1901 C1904 1.279 . S
C1902 C1900 1.353 . S
C1902 C1905 1.348 . S
C1902 H1934 0.929 . S
C1903 C1904 1.358 . S
C1903 C1905 1.356 . S
C1903 H1935 0.930 . S
C1904 N1901 1.279 . S
C1904 C1903 1.358 . S
C1904 H1907 0.930 . S
C1905 C1902 1.348 . S
C1905 C1903 1.356 . S
H1906 C1900 0.930 . S
H1907 C1904 0.930 . S
O1908 Li1848 1.956 . S
O1908 Li1849 1.970 . S
O1908 Li1850 1.961 . S
O1908 C1852 1.325 . S
O1909 Li1848 1.970 . S
O1909 Li1849 1.956 . S
O1909 Li1851 1.961 . S
O1909 C1858 1.325 . S
O1910 Li1848 1.961 . S
O1910 Li1850 1.956 . S
O1910 Li1851 1.970 . S
O1910 C1880 1.325 . S
O1911 Li1849 1.961 . S
O1911 Li1850 1.970 . S
O1911 Li1851 1.956 . S
O1911 C1886 1.325 . S
H1912 C1854 0.929 . S
H1913 C1855 0.930 . S
H1914 C1856 0.930 . S
H1915 C1857 0.930 . S
H1916 C1859 0.930 . S
H1917 C1861 0.929 . S
H1918 C1862 0.930 . S
H1919 C1863 0.930 . S
H1920 C1866 0.930 . S
H1921 C1869 0.929 . S
H1922 C1874 0.929 . S
H1923 C1875 0.930 . S
H1924 C1882 0.929 . S
H1925 C1883 0.930 . S
H1926 C1884 0.930 . S
H1927 C1885 0.930 . S
H1928 C1887 0.929 . S
H1929 C1888 0.930 . S
H1930 C1889 0.930 . S
H1931 C1890 0.930 . S
H1932 C1894 0.929 . S
H1933 C1896 0.930 . S
H1934 C1902 0.929 . S
H1935 C1903 0.930 . S
Li1936 N1953 1.990 . S
Li1936 O1996 1.956 . S
Li1936 O1997 1.970 . S
Li1936 O1998 1.961 . S
Li1937 N1961 1.990 . S
Li1937 O1996 1.970 . S
Li1937 O1997 1.956 . S
Li1937 O1999 1.961 . S
Li1938 N1983 1.990 . S
Li1938 O1996 1.961 . S
Li1938 O1998 1.956 . S
Li1938 O1999 1.970 . S
Li1939 N1989 1.990 . S
Li1939 O1997 1.961 . S
Li1939 O1998 1.970 . S
Li1939 O1999 1.956 . S
C1940 C1942 1.348 . S
C1940 C1943 1.356 . S
C1940 O1996 1.325 . S
N1941 C1944 1.314 . S
N1941 C1945 1.279 . S
C1942 C1940 1.348 . S
C1942 C1944 1.353 . S
C1942 H2000 0.929 . S
C1943 C1940 1.356 . S
C1943 C1945 1.358 . S
C1943 H2001 0.930 . S
C1944 N1941 1.314 . S
C1944 C1942 1.353 . S
C1944 H2002 0.930 . S
C1945 N1941 1.279 . S
C1945 C1943 1.358 . S
C1945 H2003 0.930 . S
C1946 C1949 1.348 . S
C1946 C1950 1.356 . S
C1946 O1997 1.325 . S
C1947 N1948 1.279 . S
C1947 C1950 1.358 . S
C1947 H2004 0.930 . S
N1948 C1947 1.279 . S
N1948 C1951 1.314 . S
C1949 C1946 1.348 . S
C1949 C1951 1.353 . S
C1949 H2005 0.929 . S
C1950 C1946 1.356 . S
C1950 C1947 1.358 . S
C1950 H2006 0.930 . S
C1951 N1948 1.314 . S
C1951 C1949 1.353 . S
C1951 H2007 0.930 . S
C1952 N1953 1.314 . S
C1952 C1957 1.353 . S
C1952 H1958 0.930 . S
N1953 Li1936 1.990 . S
N1953 C1952 1.314 . S
N1953 C1955 1.279 . S
C1954 C1955 1.358 . S
C1954 C1956 1.356 . S
C1954 H2008 0.930 . S
C1955 N1953 1.279 . S
C1955 C1954 1.358 . S
C1955 H1959 0.930 . S
C1956 C1954 1.356 . S
C1956 C1957 1.348 . S
C1957 C1952 1.353 . S
C1957 C1956 1.348 . S
C1957 H2009 0.929 . S
H1958 C1952 0.930 . S
H1959 C1955 0.930 . S
C1960 N1961 1.314 . S
C1960 C1962 1.353 . S
C1960 H1966 0.930 . S
N1961 Li1937 1.990 . S
N1961 C1960 1.314 . S
N1961 C1964 1.279 . S
C1962 C1960 1.353 . S
C1962 C1965 1.348 . S
C1962 H2010 0.929 . S
C1963 C1964 1.358 . S
C1963 C1965 1.356 . S
C1963 H2011 0.930 . S
C1964 N1961 1.279 . S
C1964 C1963 1.358 . S
C1964 H1967 0.930 . S
C1965 C1962 1.348 . S
C1965 C1963 1.356 . S
H1966 C1960 0.930 . S
H1967 C1964 0.930 . S
C1968 C1970 1.348 . S
C1968 C1971 1.356 . S
C1968 O1998 1.325 . S
N1969 C1972 1.314 . S
N1969 C1973 1.279 . S
C1970 C1968 1.348 . S
C1970 C1972 1.353 . S
C1970 H2012 0.929 . S
C1971 C1968 1.356 . S
C1971 C1973 1.358 . S
C1971 H2013 0.930 . S
C1972 N1969 1.314 . S
C1972 C1970 1.353 . S
C1972 H2014 0.930 . S
C1973 N1969 1.279 . S
C1973 C1971 1.358 . S
C1973 H2015 0.930 . S
C1974 C1975 1.348 . S
C1974 C1976 1.356 . S
C1974 O1999 1.325 . S
C1975 C1974 1.348 . S
C1975 C1977 1.353 . S
C1975 H2016 0.929 . S
C1976 C1974 1.356 . S
C1976 C1978 1.358 . S
C1976 H2017 0.930 . S
C1977 C1975 1.353 . S
C1977 N1979 1.314 . S
C1977 H2018 0.930 . S
C1978 C1976 1.358 . S
C1978 N1979 1.279 . S
C1978 H2019 0.930 . S
N1979 C1977 1.314 . S
N1979 C1978 1.279 . S
C1980 C1982 1.353 . S
C1980 N1983 1.314 . S
C1980 H1986 0.930 . S
C1981 N1983 1.279 . S
C1981 C1984 1.358 . S
C1981 H1987 0.930 . S
C1982 C1980 1.353 . S
C1982 C1985 1.348 . S
C1982 H2020 0.929 . S
N1983 Li1938 1.990 . S
N1983 C1980 1.314 . S
N1983 C1981 1.279 . S
C1984 C1981 1.358 . S
C1984 C1985 1.356 . S
C1984 H2021 0.930 . S
C1985 C1982 1.348 . S
C1985 C1984 1.356 . S
H1986 C1980 0.930 . S
H1987 C1981 0.930 . S
C1988 N1989 1.314 . S
C1988 C1990 1.353 . S
C1988 H1994 0.930 . S
N1989 Li1939 1.990 . S
N1989 C1988 1.314 . S
N1989 C1992 1.279 . S
C1990 C1988 1.353 . S
C1990 C1993 1.348 . S
C1990 H2022 0.929 . S
C1991 C1992 1.358 . S
C1991 C1993 1.356 . S
C1991 H2023 0.930 . S
C1992 N1989 1.279 . S
C1992 C1991 1.358 . S
C1992 H1995 0.930 . S
C1993 C1990 1.348 . S
C1993 C1991 1.356 . S
H1994 C1988 0.930 . S
H1995 C1992 0.930 . S
O1996 Li1936 1.956 . S
O1996 Li1937 1.970 . S
O1996 Li1938 1.961 . S
O1996 C1940 1.325 . S
O1997 Li1936 1.970 . S
O1997 Li1937 1.956 . S
O1997 Li1939 1.961 . S
O1997 C1946 1.325 . S
O1998 Li1936 1.961 . S
O1998 Li1938 1.956 . S
O1998 Li1939 1.970 . S
O1998 C1968 1.325 . S
O1999 Li1937 1.961 . S
O1999 Li1938 1.970 . S
O1999 Li1939 1.956 . S
O1999 C1974 1.325 . S
H2000 C1942 0.929 . S
H2001 C1943 0.930 . S
H2002 C1944 0.930 . S
H2003 C1945 0.930 . S
H2004 C1947 0.930 . S
H2005 C1949 0.929 . S
H2006 C1950 0.930 . S
H2007 C1951 0.930 . S
H2008 C1954 0.930 . S
H2009 C1957 0.929 . S
H2010 C1962 0.929 . S
H2011 C1963 0.930 . S
H2012 C1970 0.929 . S
H2013 C1971 0.930 . S
H2014 C1972 0.930 . S
H2015 C1973 0.930 . S
H2016 C1975 0.929 . S
H2017 C1976 0.930 . S
H2018 C1977 0.930 . S
H2019 C1978 0.930 . S
H2020 C1982 0.929 . S
H2021 C1984 0.930 . S
H2022 C1990 0.929 . S
H2023 C1991 0.930 . S
Li2024 N2041 1.990 . S
Li2024 O2084 1.956 . S
Li2024 O2085 1.970 . S
Li2024 O2086 1.961 . S
Li2025 N2049 1.990 . S
Li2025 O2084 1.970 . S
Li2025 O2085 1.956 . S
Li2025 O2087 1.961 . S
Li2026 N2071 1.990 . S
Li2026 O2084 1.961 . S
Li2026 O2086 1.956 . S
Li2026 O2087 1.970 . S
Li2027 N2077 1.990 . S
Li2027 O2085 1.961 . S
Li2027 O2086 1.970 . S
Li2027 O2087 1.956 . S
C2028 C2030 1.348 . S
C2028 C2031 1.356 . S
C2028 O2084 1.325 . S
N2029 C2032 1.314 . S
N2029 C2033 1.279 . S
C2030 C2028 1.348 . S
C2030 C2032 1.353 . S
C2030 H2088 0.929 . S
C2031 C2028 1.356 . S
C2031 C2033 1.358 . S
C2031 H2089 0.930 . S
C2032 N2029 1.314 . S
C2032 C2030 1.353 . S
C2032 H2090 0.930 . S
C2033 N2029 1.279 . S
C2033 C2031 1.358 . S
C2033 H2091 0.930 . S
C2034 C2037 1.348 . S
C2034 C2038 1.356 . S
C2034 O2085 1.325 . S
C2035 N2036 1.279 . S
C2035 C2038 1.358 . S
C2035 H2092 0.930 . S
N2036 C2035 1.279 . S
N2036 C2039 1.314 . S
C2037 C2034 1.348 . S
C2037 C2039 1.353 . S
C2037 H2093 0.929 . S
C2038 C2034 1.356 . S
C2038 C2035 1.358 . S
C2038 H2094 0.930 . S
C2039 N2036 1.314 . S
C2039 C2037 1.353 . S
C2039 H2095 0.930 . S
C2040 N2041 1.314 . S
C2040 C2045 1.353 . S
C2040 H2046 0.930 . S
N2041 Li2024 1.990 . S
N2041 C2040 1.314 . S
N2041 C2043 1.279 . S
C2042 C2043 1.358 . S
C2042 C2044 1.356 . S
C2042 H2096 0.930 . S
C2043 N2041 1.279 . S
C2043 C2042 1.358 . S
C2043 H2047 0.930 . S
C2044 C2042 1.356 . S
C2044 C2045 1.348 . S
C2045 C2040 1.353 . S
C2045 C2044 1.348 . S
C2045 H2097 0.929 . S
H2046 C2040 0.930 . S
H2047 C2043 0.930 . S
C2048 N2049 1.314 . S
C2048 C2050 1.353 . S
C2048 H2054 0.930 . S
N2049 Li2025 1.990 . S
N2049 C2048 1.314 . S
N2049 C2052 1.279 . S
C2050 C2048 1.353 . S
C2050 C2053 1.348 . S
C2050 H2098 0.929 . S
C2051 C2052 1.358 . S
C2051 C2053 1.356 . S
C2051 H2099 0.930 . S
C2052 N2049 1.279 . S
C2052 C2051 1.358 . S
C2052 H2055 0.930 . S
C2053 C2050 1.348 . S
C2053 C2051 1.356 . S
H2054 C2048 0.930 . S
H2055 C2052 0.930 . S
C2056 C2058 1.348 . S
C2056 C2059 1.356 . S
C2056 O2086 1.325 . S
N2057 C2060 1.314 . S
N2057 C2061 1.279 . S
C2058 C2056 1.348 . S
C2058 C2060 1.353 . S
C2058 H2100 0.929 . S
C2059 C2056 1.356 . S
C2059 C2061 1.358 . S
C2059 H2101 0.930 . S
C2060 N2057 1.314 . S
C2060 C2058 1.353 . S
C2060 H2102 0.930 . S
C2061 N2057 1.279 . S
C2061 C2059 1.358 . S
C2061 H2103 0.930 . S
C2062 C2063 1.348 . S
C2062 C2064 1.356 . S
C2062 O2087 1.325 . S
C2063 C2062 1.348 . S
C2063 C2065 1.353 . S
C2063 H2104 0.929 . S
C2064 C2062 1.356 . S
C2064 C2066 1.358 . S
C2064 H2105 0.930 . S
C2065 C2063 1.353 . S
C2065 N2067 1.314 . S
C2065 H2106 0.930 . S
C2066 C2064 1.358 . S
C2066 N2067 1.279 . S
C2066 H2107 0.930 . S
N2067 C2065 1.314 . S
N2067 C2066 1.279 . S
C2068 C2070 1.353 . S
C2068 N2071 1.314 . S
C2068 H2074 0.930 . S
C2069 N2071 1.279 . S
C2069 C2072 1.358 . S
C2069 H2075 0.930 . S
C2070 C2068 1.353 . S
C2070 C2073 1.348 . S
C2070 H2108 0.929 . S
N2071 Li2026 1.990 . S
N2071 C2068 1.314 . S
N2071 C2069 1.279 . S
C2072 C2069 1.358 . S
C2072 C2073 1.356 . S
C2072 H2109 0.930 . S
C2073 C2070 1.348 . S
C2073 C2072 1.356 . S
H2074 C2068 0.930 . S
H2075 C2069 0.930 . S
C2076 N2077 1.314 . S
C2076 C2078 1.353 . S
C2076 H2082 0.930 . S
N2077 Li2027 1.990 . S
N2077 C2076 1.314 . S
N2077 C2080 1.279 . S
C2078 C2076 1.353 . S
C2078 C2081 1.348 . S
C2078 H2110 0.929 . S
C2079 C2080 1.358 . S
C2079 C2081 1.356 . S
C2079 H2111 0.930 . S
C2080 N2077 1.279 . S
C2080 C2079 1.358 . S
C2080 H2083 0.930 . S
C2081 C2078 1.348 . S
C2081 C2079 1.356 . S
H2082 C2076 0.930 . S
H2083 C2080 0.930 . S
O2084 Li2024 1.956 . S
O2084 Li2025 1.970 . S
O2084 Li2026 1.961 . S
O2084 C2028 1.325 . S
O2085 Li2024 1.970 . S
O2085 Li2025 1.956 . S
O2085 Li2027 1.961 . S
O2085 C2034 1.325 . S
O2086 Li2024 1.961 . S
O2086 Li2026 1.956 . S
O2086 Li2027 1.970 . S
O2086 C2056 1.325 . S
O2087 Li2025 1.961 . S
O2087 Li2026 1.970 . S
O2087 Li2027 1.956 . S
O2087 C2062 1.325 . S
H2088 C2030 0.929 . S
H2089 C2031 0.930 . S
H2090 C2032 0.930 . S
H2091 C2033 0.930 . S
H2092 C2035 0.930 . S
H2093 C2037 0.929 . S
H2094 C2038 0.930 . S
H2095 C2039 0.930 . S
H2096 C2042 0.930 . S
H2097 C2045 0.929 . S
H2098 C2050 0.929 . S
H2099 C2051 0.930 . S
H2100 C2058 0.929 . S
H2101 C2059 0.930 . S
H2102 C2060 0.930 . S
H2103 C2061 0.930 . S
H2104 C2063 0.929 . S
H2105 C2064 0.930 . S
H2106 C2065 0.930 . S
H2107 C2066 0.930 . S
H2108 C2070 0.929 . S
H2109 C2072 0.930 . S
H2110 C2078 0.929 . S
H2111 C2079 0.930 . S
Tb2112 C2114 2.809 1_455 S
Tb2112 O2132 2.484 1_455 S
Tb2112 O2133 2.440 1_455 S
Tb2112 O2134 2.658 . S
Tb2112 O2135 2.409 1_554 S
Tb2112 O2136 2.378 . S
Tb2112 O2140 2.325 . S
Tb2112 O2143 2.341 1_545 S
Tb2113 C2123 2.781 1_545 S
Tb2113 O2134 2.325 . S
Tb2113 O2137 2.341 . S
Tb2113 O2138 2.484 1_545 S
Tb2113 O2139 2.440 . S
Tb2113 O2140 2.658 . S
Tb2113 O2141 2.409 . S
Tb2113 O2142 2.378 1_545 S
C2114 Tb2112 2.809 1_655 S
C2114 C2115 1.514 . S
C2114 O2132 1.248 . S
C2114 O2133 1.266 . S
C2115 C2114 1.514 . S
C2115 C2116 1.359 . S
C2115 C2120 1.354 . S
C2116 C2115 1.359 . S
C2116 C2117 1.380 . S
C2116 H2144 0.929 . S
C2117 C2116 1.380 . S
C2117 C2118 1.347 . S
C2117 H2145 0.931 . S
C2118 C2117 1.347 . S
C2118 C2119 1.369 1_554 S
C2119 C2118 1.369 1_556 S
C2119 C2120 1.408 1_556 S
C2119 H2146 0.930 . S
C2120 C2115 1.354 . S
C2120 C2119 1.408 1_554 S
C2120 H2147 0.925 1_554 S
C2121 O2134 1.275 1_556 S
C2121 O2135 1.254 . S
C2122 O2136 1.236 . S
C2122 O2137 1.266 . S
C2123 Tb2113 2.781 1_565 S
C2123 C2124 1.542 . S
C2123 O2138 1.240 . S
C2123 O2139 1.248 1_565 S
C2124 C2123 1.542 . S
C2124 C2125 1.359 . S
C2124 C2129 1.348 . S
C2125 C2124 1.359 . S
C2125 C2126 1.380 . S
C2125 H2148 0.929 . S
C2126 C2125 1.380 . S
C2126 C2127 1.347 . S
C2126 H2149 0.931 . S
C2127 C2126 1.347 . S
C2127 C2128 1.369 . S
C2128 C2127 1.369 . S
C2128 C2129 1.408 . S
C2128 H2150 0.930 . S
C2129 C2124 1.348 . S
C2129 C2128 1.408 . S
C2129 H2151 0.930 . S
C2130 O2140 1.281 . S
C2130 O2141 1.254 . S
C2131 O2142 1.236 . S
C2131 O2143 1.266 . S
O2132 Tb2112 2.484 1_655 S
O2132 C2114 1.248 . S
O2133 Tb2112 2.440 1_655 S
O2133 C2114 1.266 . S
O2134 Tb2112 2.658 . S
O2134 Tb2113 2.325 . S
O2134 C2121 1.275 1_554 S
O2135 Tb2112 2.409 1_556 S
O2135 C2121 1.254 . S
O2136 Tb2112 2.378 . S
O2136 C2122 1.236 . S
O2137 Tb2113 2.341 . S
O2137 C2122 1.266 . S
O2138 Tb2113 2.484 1_565 S
O2138 C2123 1.240 . S
O2139 Tb2113 2.440 . S
O2139 C2123 1.248 1_545 S
O2140 Tb2112 2.325 . S
O2140 Tb2113 2.658 . S
O2140 C2130 1.281 . S
O2141 Tb2113 2.409 . S
O2141 C2130 1.254 . S
O2142 Tb2113 2.378 1_565 S
O2142 C2131 1.236 . S
O2143 Tb2112 2.341 1_565 S
O2143 C2131 1.266 . S
H2144 C2116 0.929 . S
H2145 C2117 0.931 . S
H2146 C2119 0.930 . S
H2147 C2120 0.925 1_556 S
H2148 C2125 0.929 . S
H2149 C2126 0.931 . S
H2150 C2128 0.930 . S
H2151 C2129 0.930 . S
Tb2152 C2154 2.809 . S
Tb2152 O2172 2.484 . S
Tb2152 O2173 2.440 . S
Tb2152 O2174 2.658 . S
Tb2152 O2175 2.409 . S
Tb2152 O2176 2.378 . S
Tb2152 O2180 2.325 . S
Tb2152 O2183 2.341 . S
Tb2153 C2163 2.809 . S
Tb2153 O2174 2.325 . S
Tb2153 O2177 2.341 . S
Tb2153 O2178 2.484 . S
Tb2153 O2179 2.440 . S
Tb2153 O2180 2.658 . S
Tb2153 O2181 2.409 . S
Tb2153 O2182 2.378 . S
C2154 Tb2152 2.809 . S
C2154 C2155 1.514 . S
C2154 O2172 1.248 . S
C2154 O2173 1.266 . S
C2155 C2154 1.514 . S
C2155 C2156 1.359 . S
C2155 C2160 1.348 . S
C2156 C2155 1.359 . S
C2156 C2157 1.380 . S
C2156 H2184 0.929 . S
C2157 C2156 1.380 . S
C2157 C2158 1.347 . S
C2157 H2185 0.931 . S
C2158 C2157 1.347 . S
C2158 C2159 1.369 . S
C2159 C2158 1.369 . S
C2159 C2160 1.408 . S
C2159 H2186 0.930 . S
C2160 C2155 1.348 . S
C2160 C2159 1.408 . S
C2160 H2187 0.930 . S
C2161 O2174 1.281 . S
C2161 O2175 1.254 . S
C2162 O2176 1.236 . S
C2162 O2177 1.266 . S
C2163 Tb2153 2.809 . S
C2163 C2164 1.514 . S
C2163 O2178 1.248 . S
C2163 O2179 1.266 . S
C2164 C2163 1.514 . S
C2164 C2165 1.359 . S
C2164 C2169 1.348 . S
C2165 C2164 1.359 . S
C2165 C2166 1.380 . S
C2165 H2188 0.929 . S
C2166 C2165 1.380 . S
C2166 C2167 1.347 . S
C2166 H2189 0.931 . S
C2167 C2166 1.347 . S
C2167 C2168 1.369 . S
C2168 C2167 1.369 . S
C2168 C2169 1.408 . S
C2168 H2190 0.930 . S
C2169 C2164 1.348 . S
C2169 C2168 1.408 . S
C2169 H2191 0.930 . S
C2170 O2180 1.281 . S
C2170 O2181 1.254 . S
C2171 O2182 1.236 . S
C2171 O2183 1.266 . S
O2172 Tb2152 2.484 . S
O2172 C2154 1.248 . S
O2173 Tb2152 2.440 . S
O2173 C2154 1.266 . S
O2174 Tb2152 2.658 . S
O2174 Tb2153 2.325 . S
O2174 C2161 1.281 . S
O2175 Tb2152 2.409 . S
O2175 C2161 1.254 . S
O2176 Tb2152 2.378 . S
O2176 C2162 1.236 . S
O2177 Tb2153 2.341 . S
O2177 C2162 1.266 . S
O2178 Tb2153 2.484 . S
O2178 C2163 1.248 . S
O2179 Tb2153 2.440 . S
O2179 C2163 1.266 . S
O2180 Tb2152 2.325 . S
O2180 Tb2153 2.658 . S
O2180 C2170 1.281 . S
O2181 Tb2153 2.409 . S
O2181 C2170 1.254 . S
O2182 Tb2153 2.378 . S
O2182 C2171 1.236 . S
O2183 Tb2152 2.341 . S
O2183 C2171 1.266 . S
H2184 C2156 0.929 . S
H2185 C2157 0.931 . S
H2186 C2159 0.930 . S
H2187 C2160 0.930 . S
H2188 C2165 0.929 . S
H2189 C2166 0.931 . S
H2190 C2168 0.930 . S
H2191 C2169 0.930 . S
Tb2192 C2194 2.809 1_545 S
Tb2192 O2212 2.484 1_545 S
Tb2192 O2213 2.440 . S
Tb2192 O2214 2.658 . S
Tb2192 O2215 2.409 . S
Tb2192 O2216 2.378 1_545 S
Tb2192 O2220 2.325 . S
Tb2192 O2223 2.341 . S
Tb2193 C2203 2.809 . S
Tb2193 O2214 2.325 . S
Tb2193 O2217 2.341 1_545 S
Tb2193 O2218 2.484 . S
Tb2193 O2219 2.440 . S
Tb2193 O2220 2.658 . S
Tb2193 O2221 2.409 . S
Tb2193 O2222 2.378 . S
C2194 Tb2192 2.809 1_565 S
C2194 C2195 1.514 . S
C2194 O2212 1.248 . S
C2194 O2213 1.266 1_565 S
C2195 C2194 1.514 . S
C2195 C2196 1.359 . S
C2195 C2200 1.348 . S
C2196 C2195 1.359 . S
C2196 C2197 1.380 . S
C2196 H2224 0.929 . S
C2197 C2196 1.380 . S
C2197 C2198 1.347 . S
C2197 H2225 0.931 . S
C2198 C2197 1.347 . S
C2198 C2199 1.369 . S
C2199 C2198 1.369 . S
C2199 C2200 1.408 . S
C2199 H2226 0.930 . S
C2200 C2195 1.348 . S
C2200 C2199 1.408 . S
C2200 H2227 0.930 . S
C2201 O2214 1.281 . S
C2201 O2215 1.254 . S
C2202 O2216 1.236 . S
C2202 O2217 1.266 . S
C2203 Tb2193 2.809 . S
C2203 C2204 1.514 . S
C2203 O2218 1.248 . S
C2203 O2219 1.266 . S
C2204 C2203 1.514 . S
C2204 C2205 1.359 . S
C2204 C2209 1.348 . S
C2205 C2204 1.359 . S
C2205 C2206 1.380 . S
C2205 H2228 0.929 . S
C2206 C2205 1.380 . S
C2206 C2207 1.347 . S
C2206 H2229 0.931 . S
C2207 C2206 1.347 . S
C2207 C2208 1.369 . S
C2208 C2207 1.369 . S
C2208 C2209 1.408 . S
C2208 H2230 0.930 . S
C2209 C2204 1.348 . S
C2209 C2208 1.408 . S
C2209 H2231 0.930 . S
C2210 O2220 1.281 . S
C2210 O2221 1.254 . S
C2211 O2222 1.236 . S
C2211 O2223 1.266 . S
O2212 Tb2192 2.484 1_565 S
O2212 C2194 1.248 . S
O2213 Tb2192 2.440 . S
O2213 C2194 1.266 1_545 S
O2214 Tb2192 2.658 . S
O2214 Tb2193 2.325 . S
O2214 C2201 1.281 . S
O2215 Tb2192 2.409 . S
O2215 C2201 1.254 . S
O2216 Tb2192 2.378 1_565 S
O2216 C2202 1.236 . S
O2217 Tb2193 2.341 1_565 S
O2217 C2202 1.266 . S
O2218 Tb2193 2.484 . S
O2218 C2203 1.248 . S
O2219 Tb2193 2.440 . S
O2219 C2203 1.266 . S
O2220 Tb2192 2.325 . S
O2220 Tb2193 2.658 . S
O2220 C2210 1.281 . S
O2221 Tb2193 2.409 . S
O2221 C2210 1.254 . S
O2222 Tb2193 2.378 . S
O2222 C2211 1.236 . S
O2223 Tb2192 2.341 . S
O2223 C2211 1.266 . S
H2224 C2196 0.929 . S
H2225 C2197 0.931 . S
H2226 C2199 0.930 . S
H2227 C2200 0.930 . S
H2228 C2205 0.929 . S
H2229 C2206 0.931 . S
H2230 C2208 0.930 . S
H2231 C2209 0.930 . S
Tb2232 C2234 2.809 . S
Tb2232 O2252 2.484 . S
Tb2232 O2253 2.440 . S
Tb2232 O2254 2.658 . S
Tb2232 O2255 2.409 . S
Tb2232 O2256 2.378 . S
Tb2232 O2260 2.325 . S
Tb2232 O2263 2.341 . S
Tb2233 C2243 2.809 . S
Tb2233 O2254 2.325 . S
Tb2233 O2257 2.341 . S
Tb2233 O2258 2.484 . S
Tb2233 O2259 2.440 . S
Tb2233 O2260 2.658 . S
Tb2233 O2261 2.409 . S
Tb2233 O2262 2.378 . S
C2234 Tb2232 2.809 . S
C2234 C2235 1.514 . S
C2234 O2252 1.248 . S
C2234 O2253 1.266 . S
C2235 C2234 1.514 . S
C2235 C2236 1.359 . S
C2235 C2240 1.348 . S
C2236 C2235 1.359 . S
C2236 C2237 1.380 . S
C2236 H2264 0.929 . S
C2237 C2236 1.380 . S
C2237 C2238 1.347 . S
C2237 H2265 0.931 . S
C2238 C2237 1.347 . S
C2238 C2239 1.369 . S
C2239 C2238 1.369 . S
C2239 C2240 1.408 . S
C2239 H2266 0.930 . S
C2240 C2235 1.348 . S
C2240 C2239 1.408 . S
C2240 H2267 0.930 . S
C2241 O2254 1.281 . S
C2241 O2255 1.254 . S
C2242 O2256 1.236 . S
C2242 O2257 1.266 . S
C2243 Tb2233 2.809 . S
C2243 C2244 1.514 . S
C2243 O2258 1.248 . S
C2243 O2259 1.266 . S
C2244 C2243 1.514 . S
C2244 C2245 1.359 . S
C2244 C2249 1.348 . S
C2245 C2244 1.359 . S
C2245 C2246 1.380 . S
C2245 H2268 0.929 . S
C2246 C2245 1.380 . S
C2246 C2247 1.347 . S
C2246 H2269 0.931 . S
C2247 C2246 1.347 . S
C2247 C2248 1.369 . S
C2248 C2247 1.369 . S
C2248 C2249 1.408 . S
C2248 H2270 0.930 . S
C2249 C2244 1.348 . S
C2249 C2248 1.408 . S
C2249 H2271 0.930 . S
C2250 O2260 1.281 . S
C2250 O2261 1.254 . S
C2251 O2262 1.236 . S
C2251 O2263 1.266 . S
O2252 Tb2232 2.484 . S
O2252 C2234 1.248 . S
O2253 Tb2232 2.440 . S
O2253 C2234 1.266 . S
O2254 Tb2232 2.658 . S
O2254 Tb2233 2.325 . S
O2254 C2241 1.281 . S
O2255 Tb2232 2.409 . S
O2255 C2241 1.254 . S
O2256 Tb2232 2.378 . S
O2256 C2242 1.236 . S
O2257 Tb2233 2.341 . S
O2257 C2242 1.266 . S
O2258 Tb2233 2.484 . S
O2258 C2243 1.248 . S
O2259 Tb2233 2.440 . S
O2259 C2243 1.266 . S
O2260 Tb2232 2.325 . S
O2260 Tb2233 2.658 . S
O2260 C2250 1.281 . S
O2261 Tb2233 2.409 . S
O2261 C2250 1.254 . S
O2262 Tb2233 2.378 . S
O2262 C2251 1.236 . S
O2263 Tb2232 2.341 . S
O2263 C2251 1.266 . S
H2264 C2236 0.929 . S
H2265 C2237 0.931 . S
H2266 C2239 0.930 . S
H2267 C2240 0.930 . S
H2268 C2245 0.929 . S
H2269 C2246 0.931 . S
H2270 C2248 0.930 . S
H2271 C2249 0.930 . S
Tb2272 C2274 2.809 . S
Tb2272 O2292 2.484 . S
Tb2272 O2293 2.440 . S
Tb2272 O2294 2.658 . S
Tb2272 O2295 2.409 1_455 S
Tb2272 O2296 2.378 . S
Tb2272 O2300 2.325 . S
Tb2272 O2303 2.341 . S
Tb2273 C2283 2.809 . S
Tb2273 O2294 2.325 1_565 S
Tb2273 O2297 2.367 . S
Tb2273 O2298 2.484 . S
Tb2273 O2299 2.440 . S
Tb2273 O2300 2.658 1_565 S
Tb2273 O2301 2.409 1_565 S
Tb2273 O2302 2.378 1_565 S
C2274 Tb2272 2.809 . S
C2274 C2275 1.514 . S
C2274 O2292 1.248 . S
C2274 O2293 1.266 . S
C2275 C2274 1.514 . S
C2275 C2276 1.359 . S
C2275 C2280 1.348 1_455 S
C2276 C2275 1.359 . S
C2276 C2277 1.380 . S
C2276 H2304 0.929 . S
C2277 C2276 1.380 . S
C2277 C2278 1.344 . S
C2277 H2305 0.931 . S
C2278 C2277 1.344 . S
C2278 C2279 1.371 1_455 S
C2279 C2278 1.371 1_655 S
C2279 C2280 1.408 . S
C2279 H2306 0.930 . S
C2280 C2275 1.348 1_655 S
C2280 C2279 1.408 . S
C2280 H2307 0.930 . S
C2281 O2294 1.281 1_655 S
C2281 O2295 1.254 . S
C2282 O2296 1.236 . S
C2282 O2297 1.220 1_545 S
C2283 Tb2273 2.809 . S
C2283 C2284 1.514 . S
C2283 O2298 1.248 . S
C2283 O2299 1.266 . S
C2284 C2283 1.514 . S
C2284 C2285 1.359 . S
C2284 C2289 1.348 . S
C2285 C2284 1.359 . S
C2285 C2286 1.380 . S
C2285 H2308 0.929 . S
C2286 C2285 1.380 . S
C2286 C2287 1.347 . S
C2286 H2309 0.931 . S
C2287 C2286 1.347 . S
C2287 C2288 1.369 . S
C2288 C2287 1.369 . S
C2288 C2289 1.408 . S
C2288 H2310 0.930 . S
C2289 C2284 1.348 . S
C2289 C2288 1.408 . S
C2289 H2311 0.930 . S
C2290 O2300 1.281 . S
C2290 O2301 1.254 . S
C2291 O2302 1.236 . S
C2291 O2303 1.266 . S
O2292 Tb2272 2.484 . S
O2292 C2274 1.248 . S
O2293 Tb2272 2.440 . S
O2293 C2274 1.266 . S
O2294 Tb2272 2.658 . S
O2294 Tb2273 2.325 1_545 S
O2294 C2281 1.281 1_455 S
O2295 Tb2272 2.409 1_655 S
O2295 C2281 1.254 . S
O2296 Tb2272 2.378 . S
O2296 C2282 1.236 . S
O2297 Tb2273 2.367 . S
O2297 C2282 1.220 1_565 S
O2298 Tb2273 2.484 . S
O2298 C2283 1.248 . S
O2299 Tb2273 2.440 . S
O2299 C2283 1.266 . S
O2300 Tb2272 2.325 . S
O2300 Tb2273 2.658 1_545 S
O2300 C2290 1.281 . S
O2301 Tb2273 2.409 1_545 S
O2301 C2290 1.254 . S
O2302 Tb2273 2.378 1_545 S
O2302 C2291 1.236 . S
O2303 Tb2272 2.341 . S
O2303 C2291 1.266 . S
H2304 C2276 0.929 . S
H2305 C2277 0.931 . S
H2306 C2279 0.930 . S
H2307 C2280 0.930 . S
H2308 C2285 0.929 . S
H2309 C2286 0.931 . S
H2310 C2288 0.930 . S
H2311 C2289 0.930 . S
Tb2312 C2314 2.809 . S
Tb2312 O2332 2.484 . S
Tb2312 O2333 2.440 . S
Tb2312 O2334 2.658 . S
Tb2312 O2335 2.409 . S
Tb2312 O2336 2.378 . S
Tb2312 O2340 2.325 . S
Tb2312 O2343 2.341 . S
Tb2313 C2323 2.809 . S
Tb2313 O2334 2.325 . S
Tb2313 O2337 2.341 . S
Tb2313 O2338 2.484 . S
Tb2313 O2339 2.440 . S
Tb2313 O2340 2.658 . S
Tb2313 O2341 2.409 . S
Tb2313 O2342 2.378 . S
C2314 Tb2312 2.809 . S
C2314 C2315 1.514 . S
C2314 O2332 1.248 . S
C2314 O2333 1.266 . S
C2315 C2314 1.514 . S
C2315 C2316 1.359 . S
C2315 C2320 1.348 . S
C2316 C2315 1.359 . S
C2316 C2317 1.380 . S
C2316 H2344 0.929 . S
C2317 C2316 1.380 . S
C2317 C2318 1.347 . S
C2317 H2345 0.931 . S
C2318 C2317 1.347 . S
C2318 C2319 1.369 . S
C2319 C2318 1.369 . S
C2319 C2320 1.408 . S
C2319 H2346 0.930 . S
C2320 C2315 1.348 . S
C2320 C2319 1.408 . S
C2320 H2347 0.930 . S
C2321 O2334 1.281 . S
C2321 O2335 1.254 . S
C2322 O2336 1.236 . S
C2322 O2337 1.266 . S
C2323 Tb2313 2.809 . S
C2323 C2324 1.514 . S
C2323 O2338 1.248 . S
C2323 O2339 1.266 . S
C2324 C2323 1.514 . S
C2324 C2325 1.359 . S
C2324 C2329 1.348 . S
C2325 C2324 1.359 . S
C2325 C2326 1.380 . S
C2325 H2348 0.929 . S
C2326 C2325 1.380 . S
C2326 C2327 1.347 . S
C2326 H2349 0.931 . S
C2327 C2326 1.347 . S
C2327 C2328 1.369 . S
C2328 C2327 1.369 . S
C2328 C2329 1.408 . S
C2328 H2350 0.930 . S
C2329 C2324 1.348 . S
C2329 C2328 1.408 . S
C2329 H2351 0.930 . S
C2330 O2340 1.281 . S
C2330 O2341 1.254 . S
C2331 O2342 1.236 . S
C2331 O2343 1.266 . S
O2332 Tb2312 2.484 . S
O2332 C2314 1.248 . S
O2333 Tb2312 2.440 . S
O2333 C2314 1.266 . S
O2334 Tb2312 2.658 . S
O2334 Tb2313 2.325 . S
O2334 C2321 1.281 . S
O2335 Tb2312 2.409 . S
O2335 C2321 1.254 . S
O2336 Tb2312 2.378 . S
O2336 C2322 1.236 . S
O2337 Tb2313 2.341 . S
O2337 C2322 1.266 . S
O2338 Tb2313 2.484 . S
O2338 C2323 1.248 . S
O2339 Tb2313 2.440 . S
O2339 C2323 1.266 . S
O2340 Tb2312 2.325 . S
O2340 Tb2313 2.658 . S
O2340 C2330 1.281 . S
O2341 Tb2313 2.409 . S
O2341 C2330 1.254 . S
O2342 Tb2313 2.378 . S
O2342 C2331 1.236 . S
O2343 Tb2312 2.341 . S
O2343 C2331 1.266 . S
H2344 C2316 0.929 . S
H2345 C2317 0.931 . S
H2346 C2319 0.930 . S
H2347 C2320 0.930 . S
H2348 C2325 0.929 . S
H2349 C2326 0.931 . S
H2350 C2328 0.930 . S
H2351 C2329 0.930 . S
Tb2352 C2354 2.809 1_545 S
Tb2352 O2372 2.484 1_545 S
Tb2352 O2373 2.440 . S
Tb2352 O2374 2.658 . S
Tb2352 O2375 2.409 . S
Tb2352 O2376 2.378 . S
Tb2352 O2380 2.325 1_545 S
Tb2352 O2383 2.341 . S
Tb2353 C2363 2.809 . S
Tb2353 O2374 2.325 . S
Tb2353 O2377 2.341 . S
Tb2353 O2378 2.484 . S
Tb2353 O2379 2.440 . S
Tb2353 O2380 2.658 1_545 S
Tb2353 O2381 2.409 1_545 S
Tb2353 O2382 2.378 . S
C2354 Tb2352 2.809 1_565 S
C2354 C2355 1.514 . S
C2354 O2372 1.248 . S
C2354 O2373 1.266 1_565 S
C2355 C2354 1.514 . S
C2355 C2356 1.359 . S
C2355 C2360 1.348 1_565 S
C2356 C2355 1.359 . S
C2356 C2357 1.380 . S
C2356 H2384 0.929 . S
C2357 C2356 1.380 . S
C2357 C2358 1.347 . S
C2357 H2385 0.931 . S
C2358 C2357 1.347 . S
C2358 C2359 1.369 . S
C2359 C2358 1.369 . S
C2359 C2360 1.408 1_565 S
C2359 H2386 0.930 1_565 S
C2360 C2355 1.348 1_545 S
C2360 C2359 1.408 1_545 S
C2360 H2387 0.930 . S
C2361 O2374 1.281 . S
C2361 O2375 1.254 . S
C2362 O2376 1.236 . S
C2362 O2377 1.266 . S
C2363 Tb2353 2.809 . S
C2363 C2364 1.514 . S
C2363 O2378 1.248 . S
C2363 O2379 1.266 . S
C2364 C2363 1.514 . S
C2364 C2365 1.359 . S
C2364 C2369 1.348 . S
C2365 C2364 1.359 . S
C2365 C2366 1.380 . S
C2365 H2388 0.929 . S
C2366 C2365 1.380 . S
C2366 C2367 1.347 . S
C2366 H2389 0.931 . S
C2367 C2366 1.347 . S
C2367 C2368 1.369 . S
C2368 C2367 1.369 . S
C2368 C2369 1.408 . S
C2368 H2390 0.930 . S
C2369 C2364 1.348 . S
C2369 C2368 1.408 . S
C2369 H2391 0.930 . S
C2370 O2380 1.281 . S
C2370 O2381 1.254 . S
C2371 O2382 1.236 . S
C2371 O2383 1.266 . S
O2372 Tb2352 2.484 1_565 S
O2372 C2354 1.248 . S
O2373 Tb2352 2.440 . S
O2373 C2354 1.266 1_545 S
O2374 Tb2352 2.658 . S
O2374 Tb2353 2.325 . S
O2374 C2361 1.281 . S
O2375 Tb2352 2.409 . S
O2375 C2361 1.254 . S
O2376 Tb2352 2.378 . S
O2376 C2362 1.236 . S
O2377 Tb2353 2.341 . S
O2377 C2362 1.266 . S
O2378 Tb2353 2.484 . S
O2378 C2363 1.248 . S
O2379 Tb2353 2.440 . S
O2379 C2363 1.266 . S
O2380 Tb2352 2.325 1_565 S
O2380 Tb2353 2.658 1_565 S
O2380 C2370 1.281 . S
O2381 Tb2353 2.409 1_565 S
O2381 C2370 1.254 . S
O2382 Tb2353 2.378 . S
O2382 C2371 1.236 . S
O2383 Tb2352 2.341 . S
O2383 C2371 1.266 . S
H2384 C2356 0.929 . S
H2385 C2357 0.931 . S
H2386 C2359 0.930 1_545 S
H2387 C2360 0.930 . S
H2388 C2365 0.929 . S
H2389 C2366 0.931 . S
H2390 C2368 0.930 . S
H2391 C2369 0.930 . S
Tb2392 C2394 2.809 . S
Tb2392 O2412 2.484 . S
Tb2392 O2413 2.440 . S
Tb2392 O2414 2.658 . S
Tb2392 O2415 2.409 . S
Tb2392 O2416 2.378 . S
Tb2392 O2420 2.325 . S
Tb2392 O2423 2.341 . S
Tb2393 C2403 2.809 . S
Tb2393 O2414 2.325 . S
Tb2393 O2417 2.341 . S
Tb2393 O2418 2.484 . S
Tb2393 O2419 2.440 . S
Tb2393 O2420 2.658 . S
Tb2393 O2421 2.409 . S
Tb2393 O2422 2.378 . S
C2394 Tb2392 2.809 . S
C2394 C2395 1.514 . S
C2394 O2412 1.248 . S
C2394 O2413 1.266 . S
C2395 C2394 1.514 . S
C2395 C2396 1.359 . S
C2395 C2400 1.348 . S
C2396 C2395 1.359 . S
C2396 C2397 1.380 . S
C2396 H2424 0.929 . S
C2397 C2396 1.380 . S
C2397 C2398 1.347 . S
C2397 H2425 0.931 . S
C2398 C2397 1.347 . S
C2398 C2399 1.369 . S
C2399 C2398 1.369 . S
C2399 C2400 1.408 . S
C2399 H2426 0.930 . S
C2400 C2395 1.348 . S
C2400 C2399 1.408 . S
C2400 H2427 0.930 . S
C2401 O2414 1.281 . S
C2401 O2415 1.254 . S
C2402 O2416 1.236 . S
C2402 O2417 1.266 . S
C2403 Tb2393 2.809 . S
C2403 C2404 1.514 . S
C2403 O2418 1.248 . S
C2403 O2419 1.266 . S
C2404 C2403 1.514 . S
C2404 C2405 1.359 . S
C2404 C2409 1.348 . S
C2405 C2404 1.359 . S
C2405 C2406 1.380 . S
C2405 H2428 0.929 . S
C2406 C2405 1.380 . S
C2406 C2407 1.347 . S
C2406 H2429 0.931 . S
C2407 C2406 1.347 . S
C2407 C2408 1.369 . S
C2408 C2407 1.369 . S
C2408 C2409 1.408 . S
C2408 H2430 0.930 . S
C2409 C2404 1.348 . S
C2409 C2408 1.408 . S
C2409 H2431 0.930 . S
C2410 O2420 1.281 . S
C2410 O2421 1.254 . S
C2411 O2422 1.236 . S
C2411 O2423 1.266 . S
O2412 Tb2392 2.484 . S
O2412 C2394 1.248 . S
O2413 Tb2392 2.440 . S
O2413 C2394 1.266 . S
O2414 Tb2392 2.658 . S
O2414 Tb2393 2.325 . S
O2414 C2401 1.281 . S
O2415 Tb2392 2.409 . S
O2415 C2401 1.254 . S
O2416 Tb2392 2.378 . S
O2416 C2402 1.236 . S
O2417 Tb2393 2.341 . S
O2417 C2402 1.266 . S
O2418 Tb2393 2.484 . S
O2418 C2403 1.248 . S
O2419 Tb2393 2.440 . S
O2419 C2403 1.266 . S
O2420 Tb2392 2.325 . S
O2420 Tb2393 2.658 . S
O2420 C2410 1.281 . S
O2421 Tb2393 2.409 . S
O2421 C2410 1.254 . S
O2422 Tb2393 2.378 . S
O2422 C2411 1.236 . S
O2423 Tb2392 2.341 . S
O2423 C2411 1.266 . S
H2424 C2396 0.929 . S
H2425 C2397 0.931 . S
H2426 C2399 0.930 . S
H2427 C2400 0.930 . S
H2428 C2405 0.929 . S
H2429 C2406 0.931 . S
H2430 C2408 0.930 . S
H2431 C2409 0.930 . S
Tb2432 C2434 2.809 . S
Tb2432 O2452 2.484 . S
Tb2432 O2453 2.440 . S
Tb2432 O2454 2.658 . S
Tb2432 O2455 2.409 . S
Tb2432 O2456 2.378 . S
Tb2432 O2460 2.325 . S
Tb2432 O2463 2.341 . S
Tb2433 C2443 2.809 . S
Tb2433 O2454 2.325 . S
Tb2433 O2457 2.341 . S
Tb2433 O2458 2.484 . S
Tb2433 O2459 2.440 . S
Tb2433 O2460 2.658 . S
Tb2433 O2461 2.409 . S
Tb2433 O2462 2.378 . S
C2434 Tb2432 2.809 . S
C2434 C2435 1.514 . S
C2434 O2452 1.248 . S
C2434 O2453 1.266 . S
C2435 C2434 1.514 . S
C2435 C2436 1.359 1_554 S
C2435 C2440 1.348 . S
C2436 C2435 1.359 1_556 S
C2436 C2437 1.380 . S
C2436 H2464 0.929 . S
C2437 C2436 1.380 . S
C2437 C2438 1.347 . S
C2437 H2465 0.931 . S
C2438 C2437 1.347 . S
C2438 C2439 1.369 . S
C2439 C2438 1.369 . S
C2439 C2440 1.408 1_556 S
C2439 H2466 0.930 . S
C2440 C2435 1.348 . S
C2440 C2439 1.408 1_554 S
C2440 H2467 0.930 . S
C2441 O2454 1.281 . S
C2441 O2455 1.254 . S
C2442 O2456 1.236 1_556 S
C2442 O2457 1.266 1_556 S
C2443 Tb2433 2.809 . S
C2443 C2444 1.514 . S
C2443 O2458 1.248 . S
C2443 O2459 1.266 . S
C2444 C2443 1.514 . S
C2444 C2445 1.359 . S
C2444 C2449 1.348 . S
C2445 C2444 1.359 . S
C2445 C2446 1.380 . S
C2445 H2468 0.929 . S
C2446 C2445 1.380 . S
C2446 C2447 1.347 . S
C2446 H2469 0.931 . S
C2447 C2446 1.347 . S
C2447 C2448 1.369 . S
C2448 C2447 1.369 . S
C2448 C2449 1.408 . S
C2448 H2470 0.930 . S
C2449 C2444 1.348 . S
C2449 C2448 1.408 . S
C2449 H2471 0.930 . S
C2450 O2460 1.281 . S
C2450 O2461 1.254 . S
C2451 O2462 1.236 . S
C2451 O2463 1.266 . S
O2452 Tb2432 2.484 . S
O2452 C2434 1.248 . S
O2453 Tb2432 2.440 . S
O2453 C2434 1.266 . S
O2454 Tb2432 2.658 . S
O2454 Tb2433 2.325 . S
O2454 C2441 1.281 . S
O2455 Tb2432 2.409 . S
O2455 C2441 1.254 . S
O2456 Tb2432 2.378 . S
O2456 C2442 1.236 1_554 S
O2457 Tb2433 2.341 . S
O2457 C2442 1.266 1_554 S
O2458 Tb2433 2.484 . S
O2458 C2443 1.248 . S
O2459 Tb2433 2.440 . S
O2459 C2443 1.266 . S
O2460 Tb2432 2.325 . S
O2460 Tb2433 2.658 . S
O2460 C2450 1.281 . S
O2461 Tb2433 2.409 . S
O2461 C2450 1.254 . S
O2462 Tb2433 2.378 . S
O2462 C2451 1.236 . S
O2463 Tb2432 2.341 . S
O2463 C2451 1.266 . S
H2464 C2436 0.929 . S
H2465 C2437 0.931 . S
H2466 C2439 0.930 . S
H2467 C2440 0.930 . S
H2468 C2445 0.929 . S
H2469 C2446 0.931 . S
H2470 C2448 0.930 . S
H2471 C2449 0.930 . S
Tb2472 C2474 2.809 . S
Tb2472 O2492 2.484 . S
Tb2472 O2493 2.440 . S
Tb2472 O2494 2.658 . S
Tb2472 O2495 2.409 . S
Tb2472 O2496 2.378 . S
Tb2472 O2500 2.325 . S
Tb2472 O2503 2.341 . S
Tb2473 C2483 2.809 . S
Tb2473 O2494 2.325 . S
Tb2473 O2497 2.341 . S
Tb2473 O2498 2.484 . S
Tb2473 O2499 2.440 . S
Tb2473 O2500 2.658 . S
Tb2473 O2501 2.409 . S
Tb2473 O2502 2.378 . S
C2474 Tb2472 2.809 . S
C2474 C2475 1.514 . S
C2474 O2492 1.248 . S
C2474 O2493 1.266 . S
C2475 C2474 1.514 . S
C2475 C2476 1.359 . S
C2475 C2480 1.348 . S
C2476 C2475 1.359 . S
C2476 C2477 1.380 . S
C2476 H2504 0.929 . S
C2477 C2476 1.380 . S
C2477 C2478 1.347 . S
C2477 H2505 0.931 . S
C2478 C2477 1.347 . S
C2478 C2479 1.369 . S
C2479 C2478 1.369 . S
C2479 C2480 1.408 . S
C2479 H2506 0.930 . S
C2480 C2475 1.348 . S
C2480 C2479 1.408 . S
C2480 H2507 0.930 . S
C2481 O2494 1.281 . S
C2481 O2495 1.254 . S
C2482 O2496 1.236 . S
C2482 O2497 1.266 . S
C2483 Tb2473 2.809 . S
C2483 C2484 1.514 . S
C2483 O2498 1.248 . S
C2483 O2499 1.266 . S
C2484 C2483 1.514 . S
C2484 C2485 1.359 . S
C2484 C2489 1.348 . S
C2485 C2484 1.359 . S
C2485 C2486 1.380 . S
C2485 H2508 0.929 . S
C2486 C2485 1.380 . S
C2486 C2487 1.347 . S
C2486 H2509 0.931 . S
C2487 C2486 1.347 . S
C2487 C2488 1.369 . S
C2488 C2487 1.369 . S
C2488 C2489 1.408 . S
C2488 H2510 0.930 . S
C2489 C2484 1.348 . S
C2489 C2488 1.408 . S
C2489 H2511 0.930 . S
C2490 O2500 1.281 . S
C2490 O2501 1.254 . S
C2491 O2502 1.236 . S
C2491 O2503 1.266 . S
O2492 Tb2472 2.484 . S
O2492 C2474 1.248 . S
O2493 Tb2472 2.440 . S
O2493 C2474 1.266 . S
O2494 Tb2472 2.658 . S
O2494 Tb2473 2.325 . S
O2494 C2481 1.281 . S
O2495 Tb2472 2.409 . S
O2495 C2481 1.254 . S
O2496 Tb2472 2.378 . S
O2496 C2482 1.236 . S
O2497 Tb2473 2.341 . S
O2497 C2482 1.266 . S
O2498 Tb2473 2.484 . S
O2498 C2483 1.248 . S
O2499 Tb2473 2.440 . S
O2499 C2483 1.266 . S
O2500 Tb2472 2.325 . S
O2500 Tb2473 2.658 . S
O2500 C2490 1.281 . S
O2501 Tb2473 2.409 . S
O2501 C2490 1.254 . S
O2502 Tb2473 2.378 . S
O2502 C2491 1.236 . S
O2503 Tb2472 2.341 . S
O2503 C2491 1.266 . S
H2504 C2476 0.929 . S
H2505 C2477 0.931 . S
H2506 C2479 0.930 . S
H2507 C2480 0.930 . S
H2508 C2485 0.929 . S
H2509 C2486 0.931 . S
H2510 C2488 0.930 . S
H2511 C2489 0.930 . S
Tb2512 C2514 2.809 1_455 S
Tb2512 O2532 2.484 1_455 S
Tb2512 O2533 2.440 1_455 S
Tb2512 O2534 2.658 . S
Tb2512 O2535 2.409 . S
Tb2512 O2536 2.378 . S
Tb2512 O2540 2.325 . S
Tb2512 O2543 2.341 . S
Tb2513 C2523 2.809 . S
Tb2513 O2534 2.325 . S
Tb2513 O2537 2.341 . S
Tb2513 O2538 2.484 . S
Tb2513 O2539 2.440 . S
Tb2513 O2540 2.658 . S
Tb2513 O2541 2.409 . S
Tb2513 O2542 2.378 . S
C2514 Tb2512 2.809 1_655 S
C2514 C2515 1.514 . S
C2514 O2532 1.248 . S
C2514 O2533 1.266 . S
C2515 C2514 1.514 . S
C2515 C2516 1.359 . S
C2515 C2520 1.348 . S
C2516 C2515 1.359 . S
C2516 C2517 1.380 . S
C2516 H2544 0.929 . S
C2517 C2516 1.380 . S
C2517 C2518 1.347 . S
C2517 H2545 0.931 . S
C2518 C2517 1.347 . S
C2518 C2519 1.369 . S
C2519 C2518 1.369 . S
C2519 C2520 1.408 . S
C2519 H2546 0.930 . S
C2520 C2515 1.348 . S
C2520 C2519 1.408 . S
C2520 H2547 0.930 . S
C2521 O2534 1.281 . S
C2521 O2535 1.254 . S
C2522 O2536 1.236 . S
C2522 O2537 1.266 . S
C2523 Tb2513 2.809 . S
C2523 C2524 1.514 . S
C2523 O2538 1.248 . S
C2523 O2539 1.266 . S
C2524 C2523 1.514 . S
C2524 C2525 1.359 . S
C2524 C2529 1.348 . S
C2525 C2524 1.359 . S
C2525 C2526 1.380 . S
C2525 H2548 0.929 . S
C2526 C2525 1.380 . S
C2526 C2527 1.347 . S
C2526 H2549 0.931 . S
C2527 C2526 1.347 . S
C2527 C2528 1.369 . S
C2528 C2527 1.369 . S
C2528 C2529 1.408 . S
C2528 H2550 0.930 . S
C2529 C2524 1.348 . S
C2529 C2528 1.408 . S
C2529 H2551 0.930 . S
C2530 O2540 1.281 . S
C2530 O2541 1.254 . S
C2531 O2542 1.236 . S
C2531 O2543 1.266 . S
O2532 Tb2512 2.484 1_655 S
O2532 C2514 1.248 . S
O2533 Tb2512 2.440 1_655 S
O2533 C2514 1.266 . S
O2534 Tb2512 2.658 . S
O2534 Tb2513 2.325 . S
O2534 C2521 1.281 . S
O2535 Tb2512 2.409 . S
O2535 C2521 1.254 . S
O2536 Tb2512 2.378 . S
O2536 C2522 1.236 . S
O2537 Tb2513 2.341 . S
O2537 C2522 1.266 . S
O2538 Tb2513 2.484 . S
O2538 C2523 1.248 . S
O2539 Tb2513 2.440 . S
O2539 C2523 1.266 . S
O2540 Tb2512 2.325 . S
O2540 Tb2513 2.658 . S
O2540 C2530 1.281 . S
O2541 Tb2513 2.409 . S
O2541 C2530 1.254 . S
O2542 Tb2513 2.378 . S
O2542 C2531 1.236 . S
O2543 Tb2512 2.341 . S
O2543 C2531 1.266 . S
H2544 C2516 0.929 . S
H2545 C2517 0.931 . S
H2546 C2519 0.930 . S
H2547 C2520 0.930 . S
H2548 C2525 0.929 . S
H2549 C2526 0.931 . S
H2550 C2528 0.930 . S
H2551 C2529 0.930 . S
Tb2552 C2554 2.809 . S
Tb2552 O2572 2.484 . S
Tb2552 O2573 2.440 . S
Tb2552 O2574 2.658 . S
Tb2552 O2575 2.409 . S
Tb2552 O2576 2.378 . S
Tb2552 O2580 2.325 . S
Tb2552 O2583 2.341 . S
Tb2553 C2563 2.809 . S
Tb2553 O2574 2.325 . S
Tb2553 O2577 2.341 . S
Tb2553 O2578 2.484 . S
Tb2553 O2579 2.440 . S
Tb2553 O2580 2.658 . S
Tb2553 O2581 2.409 . S
Tb2553 O2582 2.378 . S
C2554 Tb2552 2.809 . S
C2554 C2555 1.514 . S
C2554 O2572 1.248 . S
C2554 O2573 1.266 . S
C2555 C2554 1.514 . S
C2555 C2556 1.359 . S
C2555 C2560 1.348 . S
C2556 C2555 1.359 . S
C2556 C2557 1.380 . S
C2556 H2584 0.929 . S
C2557 C2556 1.380 . S
C2557 C2558 1.347 . S
C2557 H2585 0.931 . S
C2558 C2557 1.347 . S
C2558 C2559 1.369 . S
C2559 C2558 1.369 . S
C2559 C2560 1.408 . S
C2559 H2586 0.930 . S
C2560 C2555 1.348 . S
C2560 C2559 1.408 . S
C2560 H2587 0.930 . S
C2561 O2574 1.281 . S
C2561 O2575 1.254 . S
C2562 O2576 1.236 . S
C2562 O2577 1.266 . S
C2563 Tb2553 2.809 . S
C2563 C2564 1.514 . S
C2563 O2578 1.248 . S
C2563 O2579 1.266 . S
C2564 C2563 1.514 . S
C2564 C2565 1.359 . S
C2564 C2569 1.348 . S
C2565 C2564 1.359 . S
C2565 C2566 1.380 . S
C2565 H2588 0.929 . S
C2566 C2565 1.380 . S
C2566 C2567 1.347 . S
C2566 H2589 0.931 . S
C2567 C2566 1.347 . S
C2567 C2568 1.369 . S
C2568 C2567 1.369 . S
C2568 C2569 1.408 . S
C2568 H2590 0.930 . S
C2569 C2564 1.348 . S
C2569 C2568 1.408 . S
C2569 H2591 0.930 . S
C2570 O2580 1.281 . S
C2570 O2581 1.254 . S
C2571 O2582 1.236 . S
C2571 O2583 1.266 . S
O2572 Tb2552 2.484 . S
O2572 C2554 1.248 . S
O2573 Tb2552 2.440 . S
O2573 C2554 1.266 . S
O2574 Tb2552 2.658 . S
O2574 Tb2553 2.325 . S
O2574 C2561 1.281 . S
O2575 Tb2552 2.409 . S
O2575 C2561 1.254 . S
O2576 Tb2552 2.378 . S
O2576 C2562 1.236 . S
O2577 Tb2553 2.341 . S
O2577 C2562 1.266 . S
O2578 Tb2553 2.484 . S
O2578 C2563 1.248 . S
O2579 Tb2553 2.440 . S
O2579 C2563 1.266 . S
O2580 Tb2552 2.325 . S
O2580 Tb2553 2.658 . S
O2580 C2570 1.281 . S
O2581 Tb2553 2.409 . S
O2581 C2570 1.254 . S
O2582 Tb2553 2.378 . S
O2582 C2571 1.236 . S
O2583 Tb2552 2.341 . S
O2583 C2571 1.266 . S
H2584 C2556 0.929 . S
H2585 C2557 0.931 . S
H2586 C2559 0.930 . S
H2587 C2560 0.930 . S
H2588 C2565 0.929 . S
H2589 C2566 0.931 . S
H2590 C2568 0.930 . S
H2591 C2569 0.930 . S
Tb2592 C2594 2.809 . S
Tb2592 O2612 2.484 . S
Tb2592 O2613 2.440 . S
Tb2592 O2614 2.658 . S
Tb2592 O2615 2.409 . S
Tb2592 O2616 2.378 . S
Tb2592 O2620 2.325 . S
Tb2592 O2623 2.341 . S
Tb2593 C2603 2.809 . S
Tb2593 O2614 2.325 . S
Tb2593 O2617 2.341 . S
Tb2593 O2618 2.484 . S
Tb2593 O2619 2.440 . S
Tb2593 O2620 2.658 . S
Tb2593 O2621 2.409 . S
Tb2593 O2622 2.378 . S
C2594 Tb2592 2.809 . S
C2594 C2595 1.514 . S
C2594 O2612 1.248 . S
C2594 O2613 1.266 . S
C2595 C2594 1.514 . S
C2595 C2596 1.359 . S
C2595 C2600 1.348 . S
C2596 C2595 1.359 . S
C2596 C2597 1.380 . S
C2596 H2624 0.929 . S
C2597 C2596 1.380 . S
C2597 C2598 1.347 . S
C2597 H2625 0.931 . S
C2598 C2597 1.347 . S
C2598 C2599 1.369 . S
C2599 C2598 1.369 . S
C2599 C2600 1.408 . S
C2599 H2626 0.930 . S
C2600 C2595 1.348 . S
C2600 C2599 1.408 . S
C2600 H2627 0.930 . S
C2601 O2614 1.281 . S
C2601 O2615 1.254 . S
C2602 O2616 1.236 . S
C2602 O2617 1.266 . S
C2603 Tb2593 2.809 . S
C2603 C2604 1.514 . S
C2603 O2618 1.248 . S
C2603 O2619 1.266 . S
C2604 C2603 1.514 . S
C2604 C2605 1.359 . S
C2604 C2609 1.348 . S
C2605 C2604 1.359 . S
C2605 C2606 1.380 . S
C2605 H2628 0.929 . S
C2606 C2605 1.380 . S
C2606 C2607 1.347 . S
C2606 H2629 0.931 . S
C2607 C2606 1.347 . S
C2607 C2608 1.369 . S
C2608 C2607 1.369 . S
C2608 C2609 1.408 . S
C2608 H2630 0.930 . S
C2609 C2604 1.348 . S
C2609 C2608 1.408 . S
C2609 H2631 0.930 . S
C2610 O2620 1.281 . S
C2610 O2621 1.254 . S
C2611 O2622 1.236 . S
C2611 O2623 1.266 . S
O2612 Tb2592 2.484 . S
O2612 C2594 1.248 . S
O2613 Tb2592 2.440 . S
O2613 C2594 1.266 . S
O2614 Tb2592 2.658 . S
O2614 Tb2593 2.325 . S
O2614 C2601 1.281 . S
O2615 Tb2592 2.409 . S
O2615 C2601 1.254 . S
O2616 Tb2592 2.378 . S
O2616 C2602 1.236 . S
O2617 Tb2593 2.341 . S
O2617 C2602 1.266 . S
O2618 Tb2593 2.484 . S
O2618 C2603 1.248 . S
O2619 Tb2593 2.440 . S
O2619 C2603 1.266 . S
O2620 Tb2592 2.325 . S
O2620 Tb2593 2.658 . S
O2620 C2610 1.281 . S
O2621 Tb2593 2.409 . S
O2621 C2610 1.254 . S
O2622 Tb2593 2.378 . S
O2622 C2611 1.236 . S
O2623 Tb2592 2.341 . S
O2623 C2611 1.266 . S
H2624 C2596 0.929 . S
H2625 C2597 0.931 . S
H2626 C2599 0.930 . S
H2627 C2600 0.930 . S
H2628 C2605 0.929 . S
H2629 C2606 0.931 . S
H2630 C2608 0.930 . S
H2631 C2609 0.930 . S
Tb2632 C2634 2.809 . S
Tb2632 O2652 2.484 . S
Tb2632 O2653 2.440 . S
Tb2632 O2654 2.658 . S
Tb2632 O2655 2.409 . S
Tb2632 O2656 2.378 . S
Tb2632 O2660 2.325 . S
Tb2632 O2663 2.341 . S
Tb2633 C2643 2.809 . S
Tb2633 O2654 2.325 . S
Tb2633 O2657 2.341 . S
Tb2633 O2658 2.484 . S
Tb2633 O2659 2.440 . S
Tb2633 O2660 2.658 . S
Tb2633 O2661 2.409 . S
Tb2633 O2662 2.378 . S
C2634 Tb2632 2.809 . S
C2634 C2635 1.514 . S
C2634 O2652 1.248 . S
C2634 O2653 1.266 . S
C2635 C2634 1.514 . S
C2635 C2636 1.359 . S
C2635 C2640 1.348 . S
C2636 C2635 1.359 . S
C2636 C2637 1.380 . S
C2636 H2664 0.929 . S
C2637 C2636 1.380 . S
C2637 C2638 1.347 . S
C2637 H2665 0.931 . S
C2638 C2637 1.347 . S
C2638 C2639 1.369 . S
C2639 C2638 1.369 . S
C2639 C2640 1.408 . S
C2639 H2666 0.930 . S
C2640 C2635 1.348 . S
C2640 C2639 1.408 . S
C2640 H2667 0.930 . S
C2641 O2654 1.281 . S
C2641 O2655 1.254 . S
C2642 O2656 1.236 . S
C2642 O2657 1.266 . S
C2643 Tb2633 2.809 . S
C2643 C2644 1.514 . S
C2643 O2658 1.248 . S
C2643 O2659 1.266 . S
C2644 C2643 1.514 . S
C2644 C2645 1.359 . S
C2644 C2649 1.348 . S
C2645 C2644 1.359 . S
C2645 C2646 1.380 . S
C2645 H2668 0.929 . S
C2646 C2645 1.380 . S
C2646 C2647 1.347 . S
C2646 H2669 0.931 . S
C2647 C2646 1.347 . S
C2647 C2648 1.369 . S
C2648 C2647 1.369 . S
C2648 C2649 1.408 . S
C2648 H2670 0.930 . S
C2649 C2644 1.348 . S
C2649 C2648 1.408 . S
C2649 H2671 0.930 . S
C2650 O2660 1.281 . S
C2650 O2661 1.254 . S
C2651 O2662 1.236 . S
C2651 O2663 1.266 . S
O2652 Tb2632 2.484 . S
O2652 C2634 1.248 . S
O2653 Tb2632 2.440 . S
O2653 C2634 1.266 . S
O2654 Tb2632 2.658 . S
O2654 Tb2633 2.325 . S
O2654 C2641 1.281 . S
O2655 Tb2632 2.409 . S
O2655 C2641 1.254 . S
O2656 Tb2632 2.378 . S
O2656 C2642 1.236 . S
O2657 Tb2633 2.341 . S
O2657 C2642 1.266 . S
O2658 Tb2633 2.484 . S
O2658 C2643 1.248 . S
O2659 Tb2633 2.440 . S
O2659 C2643 1.266 . S
O2660 Tb2632 2.325 . S
O2660 Tb2633 2.658 . S
O2660 C2650 1.281 . S
O2661 Tb2633 2.409 . S
O2661 C2650 1.254 . S
O2662 Tb2633 2.378 . S
O2662 C2651 1.236 . S
O2663 Tb2632 2.341 . S
O2663 C2651 1.266 . S
H2664 C2636 0.929 . S
H2665 C2637 0.931 . S
H2666 C2639 0.930 . S
H2667 C2640 0.930 . S
H2668 C2645 0.929 . S
H2669 C2646 0.931 . S
H2670 C2648 0.930 . S
H2671 C2649 0.930 . S
Tb2672 C2674 2.809 . S
Tb2672 O2692 2.484 . S
Tb2672 O2693 2.440 . S
Tb2672 O2694 2.658 . S
Tb2672 O2695 2.409 . S
Tb2672 O2696 2.378 . S
Tb2672 O2700 2.325 . S
Tb2672 O2703 2.341 . S
Tb2673 C2683 2.809 . S
Tb2673 O2694 2.325 . S
Tb2673 O2697 2.341 . S
Tb2673 O2698 2.484 . S
Tb2673 O2699 2.440 . S
Tb2673 O2700 2.658 . S
Tb2673 O2701 2.409 . S
Tb2673 O2702 2.378 . S
C2674 Tb2672 2.809 . S
C2674 C2675 1.514 . S
C2674 O2692 1.248 . S
C2674 O2693 1.266 . S
C2675 C2674 1.514 . S
C2675 C2676 1.359 . S
C2675 C2680 1.348 . S
C2676 C2675 1.359 . S
C2676 C2677 1.380 . S
C2676 H2704 0.929 . S
C2677 C2676 1.380 . S
C2677 C2678 1.347 . S
C2677 H2705 0.931 . S
C2678 C2677 1.347 . S
C2678 C2679 1.369 . S
C2679 C2678 1.369 . S
C2679 C2680 1.408 . S
C2679 H2706 0.930 . S
C2680 C2675 1.348 . S
C2680 C2679 1.408 . S
C2680 H2707 0.930 . S
C2681 O2694 1.281 . S
C2681 O2695 1.254 . S
C2682 O2696 1.236 . S
C2682 O2697 1.266 . S
C2683 Tb2673 2.809 . S
C2683 C2684 1.514 . S
C2683 O2698 1.248 . S
C2683 O2699 1.266 . S
C2684 C2683 1.514 . S
C2684 C2685 1.359 . S
C2684 C2689 1.348 . S
C2685 C2684 1.359 . S
C2685 C2686 1.380 . S
C2685 H2708 0.929 . S
C2686 C2685 1.380 . S
C2686 C2687 1.347 . S
C2686 H2709 0.931 . S
C2687 C2686 1.347 . S
C2687 C2688 1.369 . S
C2688 C2687 1.369 . S
C2688 C2689 1.408 . S
C2688 H2710 0.930 . S
C2689 C2684 1.348 . S
C2689 C2688 1.408 . S
C2689 H2711 0.930 . S
C2690 O2700 1.281 . S
C2690 O2701 1.254 . S
C2691 O2702 1.236 . S
C2691 O2703 1.266 . S
O2692 Tb2672 2.484 . S
O2692 C2674 1.248 . S
O2693 Tb2672 2.440 . S
O2693 C2674 1.266 . S
O2694 Tb2672 2.658 . S
O2694 Tb2673 2.325 . S
O2694 C2681 1.281 . S
O2695 Tb2672 2.409 . S
O2695 C2681 1.254 . S
O2696 Tb2672 2.378 . S
O2696 C2682 1.236 . S
O2697 Tb2673 2.341 . S
O2697 C2682 1.266 . S
O2698 Tb2673 2.484 . S
O2698 C2683 1.248 . S
O2699 Tb2673 2.440 . S
O2699 C2683 1.266 . S
O2700 Tb2672 2.325 . S
O2700 Tb2673 2.658 . S
O2700 C2690 1.281 . S
O2701 Tb2673 2.409 . S
O2701 C2690 1.254 . S
O2702 Tb2673 2.378 . S
O2702 C2691 1.236 . S
O2703 Tb2672 2.341 . S
O2703 C2691 1.266 . S
H2704 C2676 0.929 . S
H2705 C2677 0.931 . S
H2706 C2679 0.930 . S
H2707 C2680 0.930 . S
H2708 C2685 0.929 . S
H2709 C2686 0.931 . S
H2710 C2688 0.930 . S
H2711 C2689 0.930 . S
Tb2712 C2714 2.809 . S
Tb2712 O2732 2.484 . S
Tb2712 O2733 2.440 . S
Tb2712 O2734 2.658 . S
Tb2712 O2735 2.409 1_554 S
Tb2712 O2736 2.378 . S
Tb2712 O2740 2.325 . S
Tb2712 O2743 2.341 . S
Tb2713 C2723 2.809 1_455 S
Tb2713 O2734 2.325 . S
Tb2713 O2737 2.341 . S
Tb2713 O2738 2.484 1_455 S
Tb2713 O2739 2.440 1_455 S
Tb2713 O2740 2.658 . S
Tb2713 O2741 2.409 . S
Tb2713 O2742 2.378 . S
C2714 Tb2712 2.809 . S
C2714 C2715 1.514 . S
C2714 O2732 1.248 . S
C2714 O2733 1.266 . S
C2715 C2714 1.514 . S
C2715 C2716 1.359 . S
C2715 C2720 1.348 . S
C2716 C2715 1.359 . S
C2716 C2717 1.380 . S
C2716 H2744 0.929 . S
C2717 C2716 1.380 . S
C2717 C2718 1.347 . S
C2717 H2745 0.931 . S
C2718 C2717 1.347 . S
C2718 C2719 1.351 1_554 S
C2719 C2718 1.351 1_556 S
C2719 C2720 1.404 1_556 S
C2719 H2746 0.952 . S
C2720 C2715 1.348 . S
C2720 C2719 1.404 1_554 S
C2720 H2747 0.930 1_554 S
C2721 O2734 1.306 . S
C2721 O2735 1.245 1_554 S
C2722 O2736 1.236 . S
C2722 O2737 1.266 . S
C2723 Tb2713 2.809 1_655 S
C2723 C2724 1.514 . S
C2723 O2738 1.248 . S
C2723 O2739 1.266 . S
C2724 C2723 1.514 . S
C2724 C2725 1.359 . S
C2724 C2729 1.348 . S
C2725 C2724 1.359 . S
C2725 C2726 1.380 . S
C2725 H2748 0.929 . S
C2726 C2725 1.380 . S
C2726 C2727 1.347 . S
C2726 H2749 0.931 . S
C2727 C2726 1.347 . S
C2727 C2728 1.369 . S
C2728 C2727 1.369 . S
C2728 C2729 1.408 . S
C2728 H2750 0.930 . S
C2729 C2724 1.348 . S
C2729 C2728 1.408 . S
C2729 H2751 0.930 . S
C2730 O2740 1.281 . S
C2730 O2741 1.254 . S
C2731 O2742 1.236 . S
C2731 O2743 1.266 . S
O2732 Tb2712 2.484 . S
O2732 C2714 1.248 . S
O2733 Tb2712 2.440 . S
O2733 C2714 1.266 . S
O2734 Tb2712 2.658 . S
O2734 Tb2713 2.325 . S
O2734 C2721 1.306 . S
O2735 Tb2712 2.409 1_556 S
O2735 C2721 1.245 1_556 S
O2736 Tb2712 2.378 . S
O2736 C2722 1.236 . S
O2737 Tb2713 2.341 . S
O2737 C2722 1.266 . S
O2738 Tb2713 2.484 1_655 S
O2738 C2723 1.248 . S
O2739 Tb2713 2.440 1_655 S
O2739 C2723 1.266 . S
O2740 Tb2712 2.325 . S
O2740 Tb2713 2.658 . S
O2740 C2730 1.281 . S
O2741 Tb2713 2.409 . S
O2741 C2730 1.254 . S
O2742 Tb2713 2.378 . S
O2742 C2731 1.236 . S
O2743 Tb2712 2.341 . S
O2743 C2731 1.266 . S
H2744 C2716 0.929 . S
H2745 C2717 0.931 . S
H2746 C2719 0.952 . S
H2747 C2720 0.930 1_556 S
H2748 C2725 0.929 . S
H2749 C2726 0.931 . S
H2750 C2728 0.930 . S
H2751 C2729 0.930 . S
C2752 C2753 1.369 . S
C2752 C2754 1.419 . S
C2752 H2756 0.930 . S
C2753 C2752 1.369 . S
C2753 C2762 1.429 . S
C2754 C2752 1.419 . S
C2754 C2755 1.363 . S
C2754 H2757 0.929 . S
C2755 C2754 1.363 . S
C2755 C2761 1.428 . S
H2756 C2752 0.930 . S
H2757 C2754 0.929 . S
S2758 N2759 1.613 . S
S2758 N2760 1.610 1_556 S
N2759 S2758 1.613 . S
N2759 C2762 1.350 1_656 S
N2760 S2758 1.610 1_554 S
N2760 C2761 1.351 1_655 S
C2761 C2755 1.428 . S
C2761 N2760 1.351 1_455 S
C2761 C2762 1.434 . S
C2762 C2753 1.429 . S
C2762 N2759 1.350 1_454 S
C2762 C2761 1.434 . S
C2763 C2764 1.369 . S
C2763 C2765 1.419 . S
C2763 H2767 0.930 . S
C2764 C2763 1.369 . S
C2764 C2773 1.429 . S
C2765 C2763 1.419 . S
C2765 C2766 1.363 . S
C2765 H2768 0.929 . S
C2766 C2765 1.363 . S
C2766 C2772 1.428 . S
H2767 C2763 0.930 . S
H2768 C2765 0.929 . S
S2769 N2770 1.613 . S
S2769 N2771 1.610 . S
N2770 S2769 1.613 . S
N2770 C2773 1.350 . S
N2771 S2769 1.610 . S
N2771 C2772 1.351 . S
C2772 C2766 1.428 . S
C2772 N2771 1.351 . S
C2772 C2773 1.434 . S
C2773 C2764 1.429 . S
C2773 N2770 1.350 . S
C2773 C2772 1.434 . S
C2774 C2775 1.369 . S
C2774 C2776 1.419 . S
C2774 H2778 0.930 . S
C2775 C2774 1.369 . S
C2775 C2784 1.429 . S
C2776 C2774 1.419 . S
C2776 C2777 1.363 . S
C2776 H2779 0.929 . S
C2777 C2776 1.363 . S
C2777 C2783 1.428 . S
H2778 C2774 0.930 . S
H2779 C2776 0.929 . S
S2780 N2781 1.613 . S
S2780 N2782 1.610 . S
N2781 S2780 1.613 . S
N2781 C2784 1.350 . S
N2782 S2780 1.610 . S
N2782 C2783 1.351 . S
C2783 C2777 1.428 . S
C2783 N2782 1.351 . S
C2783 C2784 1.434 . S
C2784 C2775 1.429 . S
C2784 N2781 1.350 . S
C2784 C2783 1.434 . S
C2785 C2786 1.369 . S
C2785 C2787 1.419 . S
C2785 H2789 0.930 . S
C2786 C2785 1.369 . S
C2786 C2795 1.429 . S
C2787 C2785 1.419 . S
C2787 C2788 1.363 . S
C2787 H2790 0.929 . S
C2788 C2787 1.363 . S
C2788 C2794 1.428 . S
H2789 C2785 0.930 . S
H2790 C2787 0.929 . S
S2791 N2792 1.613 . S
S2791 N2793 1.610 . S
N2792 S2791 1.613 . S
N2792 C2795 1.350 . S
N2793 S2791 1.610 . S
N2793 C2794 1.351 . S
C2794 C2788 1.428 . S
C2794 N2793 1.351 . S
C2794 C2795 1.434 . S
C2795 C2786 1.429 . S
C2795 N2792 1.350 . S
C2795 C2794 1.434 . S
C2796 C2797 1.369 . S
C2796 C2798 1.419 . S
C2796 H2800 0.930 . S
C2797 C2796 1.369 . S
C2797 C2806 1.429 . S
C2798 C2796 1.419 . S
C2798 C2799 1.363 . S
C2798 H2801 0.929 . S
C2799 C2798 1.363 . S
C2799 C2805 1.428 . S
H2800 C2796 0.930 . S
H2801 C2798 0.929 . S
S2802 N2803 1.613 . S
S2802 N2804 1.610 . S
N2803 S2802 1.613 . S
N2803 C2806 1.350 . S
N2804 S2802 1.610 . S
N2804 C2805 1.351 . S
C2805 C2799 1.428 . S
C2805 N2804 1.351 . S
C2805 C2806 1.434 . S
C2806 C2797 1.429 . S
C2806 N2803 1.350 . S
C2806 C2805 1.434 . S
C2807 C2808 1.369 . S
C2807 C2809 1.419 . S
C2807 H2811 0.930 . S
C2808 C2807 1.369 . S
C2808 C2817 1.429 . S
C2809 C2807 1.419 . S
C2809 C2810 1.363 . S
C2809 H2812 0.929 . S
C2810 C2809 1.363 . S
C2810 C2816 1.428 . S
H2811 C2807 0.930 . S
H2812 C2809 0.929 . S
S2813 N2814 1.613 . S
S2813 N2815 1.610 . S
N2814 S2813 1.613 . S
N2814 C2817 1.350 . S
N2815 S2813 1.610 . S
N2815 C2816 1.351 . S
C2816 C2810 1.428 . S
C2816 N2815 1.351 . S
C2816 C2817 1.434 . S
C2817 C2808 1.429 . S
C2817 N2814 1.350 . S
C2817 C2816 1.434 . S
C2818 C2819 1.369 . S
C2818 C2820 1.419 . S
C2818 H2822 0.930 . S
C2819 C2818 1.369 . S
C2819 C2828 1.429 . S
C2820 C2818 1.419 . S
C2820 C2821 1.363 . S
C2820 H2823 0.929 . S
C2821 C2820 1.363 . S
C2821 C2827 1.428 . S
H2822 C2818 0.930 . S
H2823 C2820 0.929 . S
S2824 N2825 1.613 . S
S2824 N2826 1.610 . S
N2825 S2824 1.613 . S
N2825 C2828 1.350 . S
N2826 S2824 1.610 . S
N2826 C2827 1.351 . S
C2827 C2821 1.428 . S
C2827 N2826 1.351 . S
C2827 C2828 1.434 . S
C2828 C2819 1.429 . S
C2828 N2825 1.350 . S
C2828 C2827 1.434 . S
C2829 C2830 1.369 . S
C2829 C2831 1.419 . S
C2829 H2833 0.930 . S
C2830 C2829 1.369 . S
C2830 C2839 1.429 . S
C2831 C2829 1.419 . S
C2831 C2832 1.363 . S
C2831 H2834 0.929 . S
C2832 C2831 1.363 . S
C2832 C2838 1.428 . S
H2833 C2829 0.930 . S
H2834 C2831 0.929 . S
S2835 N2836 1.613 . S
S2835 N2837 1.610 . S
N2836 S2835 1.613 . S
N2836 C2839 1.350 . S
N2837 S2835 1.610 . S
N2837 C2838 1.351 . S
C2838 C2832 1.428 . S
C2838 N2837 1.351 . S
C2838 C2839 1.434 . S
C2839 C2830 1.429 . S
C2839 N2836 1.350 . S
C2839 C2838 1.434 . S
C2840 C2841 1.369 1_565 S
C2840 C2842 1.419 1_565 S
C2840 H2844 0.930 . S
C2841 C2840 1.369 1_545 S
C2841 C2850 1.429 1_455 S
C2842 C2840 1.419 1_545 S
C2842 C2843 1.363 . S
C2842 H2845 0.929 1_545 S
C2843 C2842 1.363 . S
C2843 C2849 1.428 . S
H2844 C2840 0.930 . S
H2845 C2842 0.929 1_565 S
S2846 N2847 1.613 . S
S2846 N2848 1.610 . S
N2847 S2846 1.613 . S
N2847 C2850 1.350 . S
N2848 S2846 1.610 . S
N2848 C2849 1.351 1_655 S
C2849 C2843 1.428 . S
C2849 N2848 1.351 1_455 S
C2849 C2850 1.434 1_455 S
C2850 C2841 1.429 1_655 S
C2850 N2847 1.350 . S
C2850 C2849 1.434 1_655 S
C2851 C2852 1.369 . S
C2851 C2853 1.419 . S
C2851 H2855 0.930 . S
C2852 C2851 1.369 . S
C2852 C2861 1.429 . S
C2853 C2851 1.419 . S
C2853 C2854 1.363 . S
C2853 H2856 0.929 . S
C2854 C2853 1.363 . S
C2854 C2860 1.428 . S
H2855 C2851 0.930 . S
H2856 C2853 0.929 . S
S2857 N2858 1.613 . S
S2857 N2859 1.610 . S
N2858 S2857 1.613 . S
N2858 C2861 1.350 . S
N2859 S2857 1.610 . S
N2859 C2860 1.351 . S
C2860 C2854 1.428 . S
C2860 N2859 1.351 . S
C2860 C2861 1.434 . S
C2861 C2852 1.429 . S
C2861 N2858 1.350 . S
C2861 C2860 1.434 . S
C2862 C2863 1.369 . S
C2862 C2864 1.419 . S
C2862 H2866 0.930 . S
C2863 C2862 1.369 . S
C2863 C2872 1.429 1_545 S
C2864 C2862 1.419 . S
C2864 C2865 1.363 . S
C2864 H2867 0.929 . S
C2865 C2864 1.363 . S
C2865 C2871 1.428 1_545 S
H2866 C2862 0.930 . S
H2867 C2864 0.929 . S
S2868 N2869 1.613 . S
S2868 N2870 1.610 . S
N2869 S2868 1.613 . S
N2869 C2872 1.350 . S
N2870 S2868 1.610 . S
N2870 C2871 1.351 . S
C2871 C2865 1.428 1_565 S
C2871 N2870 1.351 . S
C2871 C2872 1.434 . S
C2872 C2863 1.429 1_565 S
C2872 N2869 1.350 . S
C2872 C2871 1.434 . S
C2873 C2874 1.369 . S
C2873 C2875 1.419 . S
C2873 H2877 0.930 . S
C2874 C2873 1.369 . S
C2874 C2883 1.429 . S
C2875 C2873 1.419 . S
C2875 C2876 1.363 . S
C2875 H2878 0.929 . S
C2876 C2875 1.363 . S
C2876 C2882 1.428 . S
H2877 C2873 0.930 . S
H2878 C2875 0.929 . S
S2879 N2880 1.613 . S
S2879 N2881 1.610 . S
N2880 S2879 1.613 . S
N2880 C2883 1.350 . S
N2881 S2879 1.610 . S
N2881 C2882 1.351 . S
C2882 C2876 1.428 . S
C2882 N2881 1.351 . S
C2882 C2883 1.434 . S
C2883 C2874 1.429 . S
C2883 N2880 1.350 . S
C2883 C2882 1.434 . S
C2884 C2885 1.359 1_565 S
C2884 C2886 1.414 . S
C2884 H2888 0.939 . S
C2885 C2884 1.359 1_545 S
C2885 C2894 1.429 . S
C2886 C2884 1.414 . S
C2886 C2887 1.335 1_565 S
C2886 H2889 0.967 . S
C2887 C2886 1.335 1_545 S
C2887 C2893 1.428 . S
H2888 C2884 0.939 . S
H2889 C2886 0.967 . S
S2890 N2891 1.613 . S
S2890 N2892 1.610 . S
N2891 S2890 1.613 . S
N2891 C2894 1.350 . S
N2892 S2890 1.610 . S
N2892 C2893 1.351 . S
C2893 C2887 1.428 . S
C2893 N2892 1.351 . S
C2893 C2894 1.434 . S
C2894 C2885 1.429 . S
C2894 N2891 1.350 . S
C2894 C2893 1.434 . S
C2895 C2896 1.369 . S
C2895 C2897 1.419 . S
C2895 H2899 0.930 . S
C2896 C2895 1.369 . S
C2896 C2905 1.429 . S
C2897 C2895 1.419 . S
C2897 C2898 1.363 . S
C2897 H2900 0.929 . S
C2898 C2897 1.363 . S
C2898 C2904 1.428 . S
H2899 C2895 0.930 . S
H2900 C2897 0.929 . S
S2901 N2902 1.613 . S
S2901 N2903 1.610 . S
N2902 S2901 1.613 . S
N2902 C2905 1.350 . S
N2903 S2901 1.610 . S
N2903 C2904 1.351 . S
C2904 C2898 1.428 . S
C2904 N2903 1.351 . S
C2904 C2905 1.434 . S
C2905 C2896 1.429 . S
C2905 N2902 1.350 . S
C2905 C2904 1.434 . S
C2906 C2907 1.369 . S
C2906 C2908 1.419 . S
C2906 H2910 0.930 1_545 S
C2907 C2906 1.369 . S
C2907 C2916 1.429 . S
C2908 C2906 1.419 . S
C2908 C2909 1.363 . S
C2908 H2911 0.929 . S
C2909 C2908 1.363 . S
C2909 C2915 1.428 . S
H2910 C2906 0.930 1_565 S
H2911 C2908 0.929 . S
S2912 N2913 1.613 . S
S2912 N2914 1.610 1_556 S
N2913 S2912 1.613 . S
N2913 C2916 1.350 . S
N2914 S2912 1.610 1_554 S
N2914 C2915 1.351 1_554 S
C2915 C2909 1.428 . S
C2915 N2914 1.351 1_556 S
C2915 C2916 1.434 . S
C2916 C2907 1.429 . S
C2916 N2913 1.350 . S
C2916 C2915 1.434 . S
C2917 C2918 1.369 . S
C2917 C2919 1.419 . S
C2917 H2921 0.930 . S
C2918 C2917 1.369 . S
C2918 C2927 1.429 . S
C2919 C2917 1.419 . S
C2919 C2920 1.363 . S
C2919 H2922 0.929 . S
C2920 C2919 1.363 . S
C2920 C2926 1.428 . S
H2921 C2917 0.930 . S
H2922 C2919 0.929 . S
S2923 N2924 1.613 . S
S2923 N2925 1.610 . S
N2924 S2923 1.613 . S
N2924 C2927 1.350 . S
N2925 S2923 1.610 . S
N2925 C2926 1.351 . S
C2926 C2920 1.428 . S
C2926 N2925 1.351 . S
C2926 C2927 1.434 . S
C2927 C2918 1.429 . S
C2927 N2924 1.350 . S
C2927 C2926 1.434 . S
C2928 C2929 1.369 . S
C2928 C2930 1.419 . S
C2928 H2932 0.930 . S
C2929 C2928 1.369 . S
C2929 C2938 1.429 . S
C2930 C2928 1.419 . S
C2930 C2931 1.363 . S
C2930 H2933 0.929 . S
C2931 C2930 1.363 . S
C2931 C2937 1.428 . S
H2932 C2928 0.930 . S
H2933 C2930 0.929 . S
S2934 N2935 1.613 . S
S2934 N2936 1.610 . S
N2935 S2934 1.613 . S
N2935 C2938 1.350 . S
N2936 S2934 1.610 . S
N2936 C2937 1.351 . S
C2937 C2931 1.428 . S
C2937 N2936 1.351 . S
C2937 C2938 1.434 . S
C2938 C2929 1.429 . S
C2938 N2935 1.350 . S
C2938 C2937 1.434 . S
C2939 C2940 1.369 . S
C2939 C2941 1.419 . S
C2939 H2943 0.930 . S
C2940 C2939 1.369 . S
C2940 C2949 1.429 . S
C2941 C2939 1.419 . S
C2941 C2942 1.363 . S
C2941 H2944 0.929 . S
C2942 C2941 1.363 . S
C2942 C2948 1.428 . S
H2943 C2939 0.930 . S
H2944 C2941 0.929 . S
S2945 N2946 1.613 . S
S2945 N2947 1.610 . S
N2946 S2945 1.613 . S
N2946 C2949 1.350 1_556 S
N2947 S2945 1.610 . S
N2947 C2948 1.351 1_556 S
C2948 C2942 1.428 . S
C2948 N2947 1.351 1_554 S
C2948 C2949 1.434 . S
C2949 C2940 1.429 . S
C2949 N2946 1.350 1_554 S
C2949 C2948 1.434 . S
C2950 C2951 1.369 . S
C2950 C2952 1.419 . S
C2950 H2954 0.930 . S
C2951 C2950 1.369 . S
C2951 C2960 1.429 . S
C2952 C2950 1.419 . S
C2952 C2953 1.363 . S
C2952 H2955 0.929 . S
C2953 C2952 1.363 . S
C2953 C2959 1.428 . S
H2954 C2950 0.930 . S
H2955 C2952 0.929 . S
S2956 N2957 1.613 . S
S2956 N2958 1.610 . S
N2957 S2956 1.613 . S
N2957 C2960 1.350 . S
N2958 S2956 1.610 . S
N2958 C2959 1.351 . S
C2959 C2953 1.428 . S
C2959 N2958 1.351 . S
C2959 C2960 1.434 . S
C2960 C2951 1.429 . S
C2960 N2957 1.350 . S
C2960 C2959 1.434 . S
C2961 C2962 1.369 . S
C2961 C2963 1.419 . S
C2961 H2965 0.930 . S
C2962 C2961 1.369 . S
C2962 C2971 1.429 . S
C2963 C2961 1.419 . S
C2963 C2964 1.363 . S
C2963 H2966 0.929 . S
C2964 C2963 1.363 . S
C2964 C2970 1.428 . S
H2965 C2961 0.930 . S
H2966 C2963 0.929 . S
S2967 N2968 1.613 . S
S2967 N2969 1.610 . S
N2968 S2967 1.613 . S
N2968 C2971 1.350 . S
N2969 S2967 1.610 . S
N2969 C2970 1.351 . S
C2970 C2964 1.428 . S
C2970 N2969 1.351 . S
C2970 C2971 1.434 . S
C2971 C2962 1.429 . S
C2971 N2968 1.350 . S
C2971 C2970 1.434 . S
C2972 C2973 1.369 . S
C2972 C2974 1.419 . S
C2972 H2976 0.930 . S
C2973 C2972 1.369 . S
C2973 C2982 1.429 . S
C2974 C2972 1.419 . S
C2974 C2975 1.363 . S
C2974 H2977 0.929 . S
C2975 C2974 1.363 . S
C2975 C2981 1.428 . S
H2976 C2972 0.930 . S
H2977 C2974 0.929 . S
S2978 N2979 1.613 . S
S2978 N2980 1.610 . S
N2979 S2978 1.613 . S
N2979 C2982 1.350 . S
N2980 S2978 1.610 . S
N2980 C2981 1.351 . S
C2981 C2975 1.428 . S
C2981 N2980 1.351 . S
C2981 C2982 1.434 . S
C2982 C2973 1.429 . S
C2982 N2979 1.350 . S
C2982 C2981 1.434 . S
C2983 C2984 1.369 . S
C2983 C2985 1.419 . S
C2983 H2987 0.930 . S
C2984 C2983 1.369 . S
C2984 C2993 1.429 . S
C2985 C2983 1.419 . S
C2985 C2986 1.363 . S
C2985 H2988 0.929 . S
C2986 C2985 1.363 . S
C2986 C2992 1.428 . S
H2987 C2983 0.930 . S
H2988 C2985 0.929 . S
S2989 N2990 1.613 . S
S2989 N2991 1.610 . S
N2990 S2989 1.613 . S
N2990 C2993 1.350 . S
N2991 S2989 1.610 . S
N2991 C2992 1.351 . S
C2992 C2986 1.428 . S
C2992 N2991 1.351 . S
C2992 C2993 1.434 . S
C2993 C2984 1.429 . S
C2993 N2990 1.350 . S
C2993 C2992 1.434 . S
C2994 C2995 1.369 . S
C2994 C2996 1.419 . S
C2994 H2998 0.930 . S
C2995 C2994 1.369 . S
C2995 C3004 1.429 . S
C2996 C2994 1.419 . S
C2996 C2997 1.363 . S
C2996 H2999 0.929 . S
C2997 C2996 1.363 . S
C2997 C3003 1.428 . S
H2998 C2994 0.930 . S
H2999 C2996 0.929 . S
S3000 N3001 1.613 . S
S3000 N3002 1.610 . S
N3001 S3000 1.613 . S
N3001 C3004 1.350 . S
N3002 S3000 1.610 . S
N3002 C3003 1.351 . S
C3003 C2997 1.428 . S
C3003 N3002 1.351 . S
C3003 C3004 1.434 . S
C3004 C2995 1.429 . S
C3004 N3001 1.350 . S
C3004 C3003 1.434 . S
C3005 C3006 1.369 . S
C3005 C3007 1.419 . S
C3005 H3009 0.930 . S
C3006 C3005 1.369 . S
C3006 C3015 1.429 . S
C3007 C3005 1.419 . S
C3007 C3008 1.363 . S
C3007 H3010 0.929 . S
C3008 C3007 1.363 . S
C3008 C3014 1.428 . S
H3009 C3005 0.930 . S
H3010 C3007 0.929 . S
S3011 N3012 1.613 . S
S3011 N3013 1.610 . S
N3012 S3011 1.613 . S
N3012 C3015 1.350 . S
N3013 S3011 1.610 . S
N3013 C3014 1.351 . S
C3014 C3008 1.428 . S
C3014 N3013 1.351 . S
C3014 C3015 1.434 . S
C3015 C3006 1.429 . S
C3015 N3012 1.350 . S
C3015 C3014 1.434 . S
C3016 C3017 1.369 . S
C3016 C3018 1.419 . S
C3016 H3020 0.930 . S
C3017 C3016 1.369 . S
C3017 C3026 1.429 . S
C3018 C3016 1.419 . S
C3018 C3019 1.363 . S
C3018 H3021 0.929 . S
C3019 C3018 1.363 . S
C3019 C3025 1.428 . S
H3020 C3016 0.930 . S
H3021 C3018 0.929 . S
S3022 N3023 1.613 1_655 S
S3022 N3024 1.610 1_655 S
N3023 S3022 1.613 1_455 S
N3023 C3026 1.350 . S
N3024 S3022 1.610 1_455 S
N3024 C3025 1.351 . S
C3025 C3019 1.428 . S
C3025 N3024 1.351 . S
C3025 C3026 1.434 . S
C3026 C3017 1.429 . S
C3026 N3023 1.350 . S
C3026 C3025 1.434 . S
C3027 C3028 1.369 . S
C3027 C3029 1.419 . S
C3027 H3031 0.930 . S
C3028 C3027 1.369 . S
C3028 C3037 1.429 . S
C3029 C3027 1.419 . S
C3029 C3030 1.363 . S
C3029 H3032 0.929 . S
C3030 C3029 1.363 . S
C3030 C3036 1.428 . S
H3031 C3027 0.930 . S
H3032 C3029 0.929 . S
S3033 N3034 1.613 . S
S3033 N3035 1.610 . S
N3034 S3033 1.613 . S
N3034 C3037 1.350 . S
N3035 S3033 1.610 . S
N3035 C3036 1.351 . S
C3036 C3030 1.428 . S
C3036 N3035 1.351 . S
C3036 C3037 1.434 . S
C3037 C3028 1.429 . S
C3037 N3034 1.350 . S
C3037 C3036 1.434 . S
C3038 C3039 1.369 . S
C3038 C3040 1.419 . S
C3038 H3042 0.930 . S
C3039 C3038 1.369 . S
C3039 C3048 1.429 . S
C3040 C3038 1.419 . S
C3040 C3041 1.363 . S
C3040 H3043 0.929 . S
C3041 C3040 1.363 . S
C3041 C3047 1.428 . S
H3042 C3038 0.930 . S
H3043 C3040 0.929 . S
S3044 N3045 1.613 . S
S3044 N3046 1.610 . S
N3045 S3044 1.613 . S
N3045 C3048 1.350 . S
N3046 S3044 1.610 . S
N3046 C3047 1.351 . S
C3047 C3041 1.428 . S
C3047 N3046 1.351 . S
C3047 C3048 1.434 . S
C3048 C3039 1.429 . S
C3048 N3045 1.350 . S
C3048 C3047 1.434 . S
C3049 C3050 1.369 . S
C3049 C3051 1.419 . S
C3049 H3053 0.930 . S
C3050 C3049 1.369 . S
C3050 C3059 1.429 . S
C3051 C3049 1.419 . S
C3051 C3052 1.363 . S
C3051 H3054 0.929 . S
C3052 C3051 1.363 . S
C3052 C3058 1.428 . S
H3053 C3049 0.930 . S
H3054 C3051 0.929 . S
S3055 N3056 1.613 . S
S3055 N3057 1.610 . S
N3056 S3055 1.613 . S
N3056 C3059 1.350 . S
N3057 S3055 1.610 . S
N3057 C3058 1.351 . S
C3058 C3052 1.428 . S
C3058 N3057 1.351 . S
C3058 C3059 1.434 . S
C3059 C3050 1.429 . S
C3059 N3056 1.350 . S
C3059 C3058 1.434 . S
C3060 C3061 1.351 1_455 S
C3060 C3062 1.419 . S
C3060 H3064 0.930 . S
C3061 C3060 1.351 1_655 S
C3061 C3070 1.444 . S
C3062 C3060 1.419 . S
C3062 C3063 1.363 1_455 S
C3062 H3065 0.929 . S
C3063 C3062 1.363 1_655 S
C3063 C3069 1.428 . S
H3064 C3060 0.930 . S
H3065 C3062 0.929 . S
S3066 N3067 1.613 . S
S3066 N3068 1.610 . S
N3067 S3066 1.613 . S
N3067 C3070 1.350 . S
N3068 S3066 1.610 . S
N3068 C3069 1.351 . S
C3069 C3063 1.428 . S
C3069 N3068 1.351 . S
C3069 C3070 1.434 . S
C3070 C3061 1.444 . S
C3070 N3067 1.350 . S
C3070 C3069 1.434 . S
C3071 C3072 1.369 . S
C3071 C3073 1.419 . S
C3071 H3075 0.930 . S
C3072 C3071 1.369 . S
C3072 C3081 1.429 . S
C3073 C3071 1.419 . S
C3073 C3074 1.363 . S
C3073 H3076 0.929 . S
C3074 C3073 1.363 . S
C3074 C3080 1.428 . S
H3075 C3071 0.930 . S
H3076 C3073 0.929 . S
S3077 N3078 1.613 . S
S3077 N3079 1.610 . S
N3078 S3077 1.613 . S
N3078 C3081 1.350 . S
N3079 S3077 1.610 . S
N3079 C3080 1.351 . S
C3080 C3074 1.428 . S
C3080 N3079 1.351 . S
C3080 C3081 1.434 . S
C3081 C3072 1.429 . S
C3081 N3078 1.350 . S
C3081 C3080 1.434 . S
C3082 C3083 1.369 . S
C3082 C3084 1.419 1_556 S
C3082 H3086 0.930 . S
C3083 C3082 1.369 . S
C3083 C3092 1.429 . S
C3084 C3082 1.419 1_554 S
C3084 C3085 1.363 . S
C3084 H3087 0.929 . S
C3085 C3084 1.363 . S
C3085 C3091 1.428 . S
H3086 C3082 0.930 . S
H3087 C3084 0.929 . S
S3088 N3089 1.613 1_554 S
S3088 N3090 1.610 . S
N3089 S3088 1.613 1_556 S
N3089 C3092 1.350 . S
N3090 S3088 1.610 . S
N3090 C3091 1.351 . S
C3091 C3085 1.428 . S
C3091 N3090 1.351 . S
C3091 C3092 1.434 1_554 S
C3092 C3083 1.429 . S
C3092 N3089 1.350 . S
C3092 C3091 1.434 1_556 S
C3093 C3094 1.369 . S
C3093 C3095 1.419 . S
C3093 H3097 0.930 . S
C3094 C3093 1.369 . S
C3094 C3103 1.429 . S
C3095 C3093 1.419 . S
C3095 C3096 1.363 . S
C3095 H3098 0.929 . S
C3096 C3095 1.363 . S
C3096 C3102 1.428 . S
H3097 C3093 0.930 . S
H3098 C3095 0.929 . S
S3099 N3100 1.613 . S
S3099 N3101 1.610 . S
N3100 S3099 1.613 . S
N3100 C3103 1.350 . S
N3101 S3099 1.610 . S
N3101 C3102 1.351 . S
C3102 C3096 1.428 . S
C3102 N3101 1.351 . S
C3102 C3103 1.434 . S
C3103 C3094 1.429 . S
C3103 N3100 1.350 . S
C3103 C3102 1.434 . S
C3104 C3105 1.369 . S
C3104 C3106 1.419 . S
C3104 H3108 0.930 . S
C3105 C3104 1.369 . S
C3105 C3114 1.429 . S
C3106 C3104 1.419 . S
C3106 C3107 1.363 . S
C3106 H3109 0.929 1_545 S
C3107 C3106 1.363 . S
C3107 C3113 1.428 . S
H3108 C3104 0.930 . S
H3109 C3106 0.929 1_565 S
S3110 N3111 1.613 . S
S3110 N3112 1.610 . S
N3111 S3110 1.613 . S
N3111 C3114 1.350 . S
N3112 S3110 1.610 . S
N3112 C3113 1.351 . S
C3113 C3107 1.428 . S
C3113 N3112 1.351 . S
C3113 C3114 1.434 . S
C3114 C3105 1.429 . S
C3114 N3111 1.350 . S
C3114 C3113 1.434 . S
C3115 C3116 1.369 . S
C3115 C3117 1.419 . S
C3115 H3119 0.930 . S
C3116 C3115 1.369 . S
C3116 C3125 1.429 . S
C3117 C3115 1.419 . S
C3117 C3118 1.363 . S
C3117 H3120 0.929 . S
C3118 C3117 1.363 . S
C3118 C3124 1.428 . S
H3119 C3115 0.930 . S
H3120 C3117 0.929 . S
S3121 N3122 1.613 . S
S3121 N3123 1.610 . S
N3122 S3121 1.613 . S
N3122 C3125 1.350 . S
N3123 S3121 1.610 . S
N3123 C3124 1.351 . S
C3124 C3118 1.428 . S
C3124 N3123 1.351 . S
C3124 C3125 1.434 . S
C3125 C3116 1.429 . S
C3125 N3122 1.350 . S
C3125 C3124 1.434 . S
C3126 C3127 1.369 . S
C3126 C3128 1.419 . S
C3126 H3130 0.930 . S
C3127 C3126 1.369 . S
C3127 C3136 1.429 . S
C3128 C3126 1.419 . S
C3128 C3129 1.363 . S
C3128 H3131 0.929 . S
C3129 C3128 1.363 . S
C3129 C3135 1.428 . S
H3130 C3126 0.930 . S
H3131 C3128 0.929 . S
S3132 N3133 1.613 . S
S3132 N3134 1.610 . S
N3133 S3132 1.613 . S
N3133 C3136 1.350 . S
N3134 S3132 1.610 . S
N3134 C3135 1.351 . S
C3135 C3129 1.428 . S
C3135 N3134 1.351 . S
C3135 C3136 1.434 . S
C3136 C3127 1.429 . S
C3136 N3133 1.350 . S
C3136 C3135 1.434 . S
C3137 C3138 1.369 . S
C3137 C3139 1.419 . S
C3137 H3141 0.930 . S
C3138 C3137 1.369 . S
C3138 C3147 1.429 . S
C3139 C3137 1.419 . S
C3139 C3140 1.363 . S
C3139 H3142 0.929 . S
C3140 C3139 1.363 . S
C3140 C3146 1.428 . S
H3141 C3137 0.930 . S
H3142 C3139 0.929 . S
S3143 N3144 1.613 . S
S3143 N3145 1.610 . S
N3144 S3143 1.613 . S
N3144 C3147 1.350 . S
N3145 S3143 1.610 . S
N3145 C3146 1.351 . S
C3146 C3140 1.428 . S
C3146 N3145 1.351 . S
C3146 C3147 1.434 . S
C3147 C3138 1.429 . S
C3147 N3144 1.350 . S
C3147 C3146 1.434 . S
C3148 C3149 1.369 . S
C3148 C3150 1.419 . S
C3148 H3152 0.930 . S
C3149 C3148 1.369 . S
C3149 C3158 1.429 . S
C3150 C3148 1.419 . S
C3150 C3151 1.363 . S
C3150 H3153 0.929 . S
C3151 C3150 1.363 . S
C3151 C3157 1.428 . S
H3152 C3148 0.930 . S
H3153 C3150 0.929 . S
S3154 N3155 1.613 . S
S3154 N3156 1.610 . S
N3155 S3154 1.613 . S
N3155 C3158 1.350 1_565 S
N3156 S3154 1.610 . S
N3156 C3157 1.351 1_565 S
C3157 C3151 1.428 . S
C3157 N3156 1.351 1_545 S
C3157 C3158 1.434 . S
C3158 C3149 1.429 . S
C3158 N3155 1.350 1_545 S
C3158 C3157 1.434 . S
C3159 C3160 1.369 . S
C3159 C3161 1.419 . S
C3159 H3163 0.930 . S
C3160 C3159 1.369 . S
C3160 C3169 1.429 . S
C3161 C3159 1.419 . S
C3161 C3162 1.363 . S
C3161 H3164 0.929 . S
C3162 C3161 1.363 . S
C3162 C3168 1.428 . S
H3163 C3159 0.930 . S
H3164 C3161 0.929 . S
S3165 N3166 1.613 . S
S3165 N3167 1.610 . S
N3166 S3165 1.613 . S
N3166 C3169 1.350 . S
N3167 S3165 1.610 . S
N3167 C3168 1.351 . S
C3168 C3162 1.428 . S
C3168 N3167 1.351 . S
C3168 C3169 1.434 . S
C3169 C3160 1.429 . S
C3169 N3166 1.350 . S
C3169 C3168 1.434 . S
C3170 C3171 1.369 . S
C3170 C3172 1.419 . S
C3170 H3174 0.930 . S
C3171 C3170 1.369 . S
C3171 C3180 1.429 . S
C3172 C3170 1.419 . S
C3172 C3173 1.363 . S
C3172 H3175 0.929 1_545 S
C3173 C3172 1.363 . S
C3173 C3179 1.428 . S
H3174 C3170 0.930 . S
H3175 C3172 0.929 1_565 S
S3176 N3177 1.613 . S
S3176 N3178 1.610 . S
N3177 S3176 1.613 . S
N3177 C3180 1.350 . S
N3178 S3176 1.610 . S
N3178 C3179 1.351 . S
C3179 C3173 1.428 . S
C3179 N3178 1.351 . S
C3179 C3180 1.434 . S
C3180 C3171 1.429 . S
C3180 N3177 1.350 . S
C3180 C3179 1.434 . S
C3181 C3182 1.369 . S
C3181 C3183 1.419 . S
C3181 H3185 0.930 . S
C3182 C3181 1.369 . S
C3182 C3191 1.429 . S
C3183 C3181 1.419 . S
C3183 C3184 1.363 . S
C3183 H3186 0.929 . S
C3184 C3183 1.363 . S
C3184 C3190 1.428 . S
H3185 C3181 0.930 . S
H3186 C3183 0.929 . S
S3187 N3188 1.613 . S
S3187 N3189 1.610 . S
N3188 S3187 1.613 . S
N3188 C3191 1.350 . S
N3189 S3187 1.610 . S
N3189 C3190 1.351 . S
C3190 C3184 1.428 . S
C3190 N3189 1.351 . S
C3190 C3191 1.434 . S
C3191 C3182 1.429 . S
C3191 N3188 1.350 . S
C3191 C3190 1.434 . S
C3192 C3193 1.369 . S
C3192 C3194 1.419 . S
C3192 H3196 0.930 . S
C3193 C3192 1.369 . S
C3193 C3202 1.429 . S
C3194 C3192 1.419 . S
C3194 C3195 1.363 . S
C3194 H3197 0.929 . S
C3195 C3194 1.363 . S
C3195 C3201 1.428 . S
H3196 C3192 0.930 . S
H3197 C3194 0.929 . S
S3198 N3199 1.613 . S
S3198 N3200 1.610 . S
N3199 S3198 1.613 . S
N3199 C3202 1.350 . S
N3200 S3198 1.610 . S
N3200 C3201 1.351 . S
C3201 C3195 1.428 . S
C3201 N3200 1.351 . S
C3201 C3202 1.434 . S
C3202 C3193 1.429 . S
C3202 N3199 1.350 . S
C3202 C3201 1.434 . S
C3203 C3204 1.369 . S
C3203 C3205 1.419 . S
C3203 H3207 0.930 . S
C3204 C3203 1.369 . S
C3204 C3213 1.429 . S
C3205 C3203 1.419 . S
C3205 C3206 1.363 . S
C3205 H3208 0.929 . S
C3206 C3205 1.363 . S
C3206 C3212 1.428 . S
H3207 C3203 0.930 . S
H3208 C3205 0.929 . S
S3209 N3210 1.613 . S
S3209 N3211 1.610 . S
N3210 S3209 1.613 . S
N3210 C3213 1.350 . S
N3211 S3209 1.610 . S
N3211 C3212 1.351 . S
C3212 C3206 1.428 . S
C3212 N3211 1.351 . S
C3212 C3213 1.434 . S
C3213 C3204 1.429 . S
C3213 N3210 1.350 . S
C3213 C3212 1.434 . S
C3214 C3215 1.369 . S
C3214 C3216 1.419 . S
C3214 H3218 0.930 . S
C3215 C3214 1.369 . S
C3215 C3224 1.429 . S
C3216 C3214 1.419 . S
C3216 C3217 1.363 . S
C3216 H3219 0.929 . S
C3217 C3216 1.363 . S
C3217 C3223 1.428 . S
H3218 C3214 0.930 . S
H3219 C3216 0.929 . S
S3220 N3221 1.613 . S
S3220 N3222 1.610 . S
N3221 S3220 1.613 . S
N3221 C3224 1.350 . S
N3222 S3220 1.610 . S
N3222 C3223 1.351 . S
C3223 C3217 1.428 . S
C3223 N3222 1.351 . S
C3223 C3224 1.434 . S
C3224 C3215 1.429 . S
C3224 N3221 1.350 . S
C3224 C3223 1.434 . S
C3225 C3226 1.369 . S
C3225 C3227 1.419 . S
C3225 H3229 0.930 . S
C3226 C3225 1.369 . S
C3226 C3235 1.429 . S
C3227 C3225 1.419 . S
C3227 C3228 1.363 . S
C3227 H3230 0.929 . S
C3228 C3227 1.363 . S
C3228 C3234 1.428 . S
H3229 C3225 0.930 . S
H3230 C3227 0.929 . S
S3231 N3232 1.613 . S
S3231 N3233 1.610 . S
N3232 S3231 1.613 . S
N3232 C3235 1.350 . S
N3233 S3231 1.610 . S
N3233 C3234 1.351 . S
C3234 C3228 1.428 . S
C3234 N3233 1.351 . S
C3234 C3235 1.434 . S
C3235 C3226 1.429 . S
C3235 N3232 1.350 . S
C3235 C3234 1.434 . S
C3236 C3237 1.369 . S
C3236 C3238 1.419 . S
C3236 H3240 0.930 . S
C3237 C3236 1.369 . S
C3237 C3246 1.429 . S
C3238 C3236 1.419 . S
C3238 C3239 1.363 . S
C3238 H3241 0.929 . S
C3239 C3238 1.363 . S
C3239 C3245 1.428 . S
H3240 C3236 0.930 . S
H3241 C3238 0.929 . S
S3242 N3243 1.613 . S
S3242 N3244 1.610 . S
N3243 S3242 1.613 . S
N3243 C3246 1.350 . S
N3244 S3242 1.610 . S
N3244 C3245 1.351 . S
C3245 C3239 1.428 . S
C3245 N3244 1.351 . S
C3245 C3246 1.434 . S
C3246 C3237 1.429 . S
C3246 N3243 1.350 . S
C3246 C3245 1.434 . S
C3247 C3248 1.369 . S
C3247 C3249 1.419 . S
C3247 H3251 0.930 . S
C3248 C3247 1.369 . S
C3248 C3257 1.429 . S
C3249 C3247 1.419 . S
C3249 C3250 1.363 . S
C3249 H3252 0.929 . S
C3250 C3249 1.363 . S
C3250 C3256 1.428 . S
H3251 C3247 0.930 . S
H3252 C3249 0.929 . S
S3253 N3254 1.613 1_545 S
S3253 N3255 1.610 1_545 S
N3254 S3253 1.613 1_565 S
N3254 C3257 1.350 . S
N3255 S3253 1.610 1_565 S
N3255 C3256 1.351 . S
C3256 C3250 1.428 . S
C3256 N3255 1.351 . S
C3256 C3257 1.434 . S
C3257 C3248 1.429 . S
C3257 N3254 1.350 . S
C3257 C3256 1.434 . S
C3258 C3259 1.369 . S
C3258 C3260 1.419 . S
C3258 H3262 0.930 . S
C3259 C3258 1.369 . S
C3259 C3268 1.429 . S
C3260 C3258 1.419 . S
C3260 C3261 1.363 . S
C3260 H3263 0.929 . S
C3261 C3260 1.363 . S
C3261 C3267 1.428 . S
H3262 C3258 0.930 . S
H3263 C3260 0.929 . S
S3264 N3265 1.613 . S
S3264 N3266 1.610 . S
N3265 S3264 1.613 . S
N3265 C3268 1.350 . S
N3266 S3264 1.610 . S
N3266 C3267 1.351 . S
C3267 C3261 1.428 . S
C3267 N3266 1.351 . S
C3267 C3268 1.434 . S
C3268 C3259 1.429 . S
C3268 N3265 1.350 . S
C3268 C3267 1.434 . S
C3269 C3270 1.369 . S
C3269 C3271 1.419 . S
C3269 H3273 0.930 . S
C3270 C3269 1.369 . S
C3270 C3279 1.429 . S
C3271 C3269 1.419 . S
C3271 C3272 1.363 . S
C3271 H3274 0.929 . S
C3272 C3271 1.363 . S
C3272 C3278 1.428 . S
H3273 C3269 0.930 . S
H3274 C3271 0.929 . S
S3275 N3276 1.613 . S
S3275 N3277 1.610 . S
N3276 S3275 1.613 . S
N3276 C3279 1.350 . S
N3277 S3275 1.610 . S
N3277 C3278 1.351 . S
C3278 C3272 1.428 . S
C3278 N3277 1.351 . S
C3278 C3279 1.434 . S
C3279 C3270 1.429 . S
C3279 N3276 1.350 . S
C3279 C3278 1.434 . S
C3280 C3281 1.369 . S
C3280 C3282 1.419 . S
C3280 H3284 0.930 . S
C3281 C3280 1.369 . S
C3281 C3290 1.429 . S
C3282 C3280 1.419 . S
C3282 C3283 1.363 . S
C3282 H3285 0.929 . S
C3283 C3282 1.363 . S
C3283 C3289 1.428 . S
H3284 C3280 0.930 . S
H3285 C3282 0.929 . S
S3286 N3287 1.613 . S
S3286 N3288 1.610 . S
N3287 S3286 1.613 . S
N3287 C3290 1.350 . S
N3288 S3286 1.610 . S
N3288 C3289 1.351 . S
C3289 C3283 1.428 . S
C3289 N3288 1.351 . S
C3289 C3290 1.434 . S
C3290 C3281 1.429 . S
C3290 N3287 1.350 . S
C3290 C3289 1.434 . S
C3291 C3292 1.369 . S
C3291 C3293 1.419 . S
C3291 H3295 0.930 . S
C3292 C3291 1.369 . S
C3292 C3301 1.429 . S
C3293 C3291 1.419 . S
C3293 C3294 1.363 . S
C3293 H3296 0.929 . S
C3294 C3293 1.363 . S
C3294 C3300 1.428 . S
H3295 C3291 0.930 . S
H3296 C3293 0.929 . S
S3297 N3298 1.613 . S
S3297 N3299 1.610 . S
N3298 S3297 1.613 . S
N3298 C3301 1.350 . S
N3299 S3297 1.610 . S
N3299 C3300 1.351 . S
C3300 C3294 1.428 . S
C3300 N3299 1.351 . S
C3300 C3301 1.434 . S
C3301 C3292 1.429 . S
C3301 N3298 1.350 . S
C3301 C3300 1.434 . S
C3302 C3303 1.369 . S
C3302 C3304 1.419 . S
C3302 H3306 0.930 . S
C3303 C3302 1.369 . S
C3303 C3312 1.429 . S
C3304 C3302 1.419 . S
C3304 C3305 1.363 . S
C3304 H3307 0.929 . S
C3305 C3304 1.363 . S
C3305 C3311 1.428 . S
H3306 C3302 0.930 . S
H3307 C3304 0.929 . S
S3308 N3309 1.613 . S
S3308 N3310 1.610 . S
N3309 S3308 1.613 . S
N3309 C3312 1.350 1_655 S
N3310 S3308 1.610 . S
N3310 C3311 1.351 1_655 S
C3311 C3305 1.428 . S
C3311 N3310 1.351 1_455 S
C3311 C3312 1.434 . S
C3312 C3303 1.429 . S
C3312 N3309 1.350 1_455 S
C3312 C3311 1.434 . S
C3313 C3314 1.369 . S
C3313 C3315 1.419 . S
C3313 H3317 0.930 . S
C3314 C3313 1.369 . S
C3314 C3323 1.429 . S
C3315 C3313 1.419 . S
C3315 C3316 1.363 . S
C3315 H3318 0.929 . S
C3316 C3315 1.363 . S
C3316 C3322 1.428 . S
H3317 C3313 0.930 . S
H3318 C3315 0.929 . S
S3319 N3320 1.613 . S
S3319 N3321 1.610 . S
N3320 S3319 1.613 . S
N3320 C3323 1.350 . S
N3321 S3319 1.610 . S
N3321 C3322 1.351 . S
C3322 C3316 1.428 . S
C3322 N3321 1.351 . S
C3322 C3323 1.434 . S
C3323 C3314 1.429 . S
C3323 N3320 1.350 . S
C3323 C3322 1.434 . S
C3324 C3325 1.369 . S
C3324 C3326 1.419 . S
C3324 H3328 0.930 . S
C3325 C3324 1.369 . S
C3325 C3334 1.429 . S
C3326 C3324 1.419 . S
C3326 C3327 1.363 . S
C3326 H3329 0.929 . S
C3327 C3326 1.363 . S
C3327 C3333 1.428 . S
H3328 C3324 0.930 . S
H3329 C3326 0.929 . S
S3330 N3331 1.613 . S
S3330 N3332 1.610 . S
N3331 S3330 1.613 . S
N3331 C3334 1.350 . S
N3332 S3330 1.610 . S
N3332 C3333 1.351 . S
C3333 C3327 1.428 . S
C3333 N3332 1.351 . S
C3333 C3334 1.434 . S
C3334 C3325 1.429 . S
C3334 N3331 1.350 . S
C3334 C3333 1.434 . S
C3335 C3336 1.369 . S
C3335 C3337 1.419 . S
C3335 H3339 0.930 . S
C3336 C3335 1.369 . S
C3336 C3345 1.429 . S
C3337 C3335 1.419 . S
C3337 C3338 1.363 . S
C3337 H3340 0.929 . S
C3338 C3337 1.363 . S
C3338 C3344 1.428 . S
H3339 C3335 0.930 . S
H3340 C3337 0.929 . S
S3341 N3342 1.613 . S
S3341 N3343 1.610 . S
N3342 S3341 1.613 . S
N3342 C3345 1.350 . S
N3343 S3341 1.610 . S
N3343 C3344 1.351 . S
C3344 C3338 1.428 . S
C3344 N3343 1.351 . S
C3344 C3345 1.434 . S
C3345 C3336 1.429 . S
C3345 N3342 1.350 . S
C3345 C3344 1.434 . S
C3346 C3347 1.369 . S
C3346 C3348 1.419 . S
C3346 H3350 0.930 . S
C3347 C3346 1.369 . S
C3347 C3356 1.429 . S
C3348 C3346 1.419 . S
C3348 C3349 1.363 . S
C3348 H3351 0.929 . S
C3349 C3348 1.363 . S
C3349 C3355 1.428 . S
H3350 C3346 0.930 . S
H3351 C3348 0.929 . S
S3352 N3353 1.613 1_655 S
S3352 N3354 1.610 . S
N3353 S3352 1.613 1_455 S
N3353 C3356 1.350 . S
N3354 S3352 1.610 . S
N3354 C3355 1.351 1_655 S
C3355 C3349 1.428 . S
C3355 N3354 1.351 1_455 S
C3355 C3356 1.434 . S
C3356 C3347 1.429 . S
C3356 N3353 1.350 . S
C3356 C3355 1.434 . S
C3357 C3358 1.369 . S
C3357 C3359 1.419 . S
C3357 H3361 0.930 . S
C3358 C3357 1.369 . S
C3358 C3367 1.429 . S
C3359 C3357 1.419 . S
C3359 C3360 1.363 . S
C3359 H3362 0.929 . S
C3360 C3359 1.363 . S
C3360 C3366 1.428 . S
H3361 C3357 0.930 . S
H3362 C3359 0.929 . S
S3363 N3364 1.613 . S
S3363 N3365 1.610 . S
N3364 S3363 1.613 . S
N3364 C3367 1.350 . S
N3365 S3363 1.610 . S
N3365 C3366 1.351 . S
C3366 C3360 1.428 . S
C3366 N3365 1.351 . S
C3366 C3367 1.434 . S
C3367 C3358 1.429 . S
C3367 N3364 1.350 . S
C3367 C3366 1.434 . S
C3368 C3369 1.369 . S
C3368 C3370 1.419 . S
C3368 H3372 0.930 . S
C3369 C3368 1.369 . S
C3369 C3378 1.429 . S
C3370 C3368 1.419 . S
C3370 C3371 1.363 . S
C3370 H3373 0.929 . S
C3371 C3370 1.363 . S
C3371 C3377 1.428 . S
H3372 C3368 0.930 . S
H3373 C3370 0.929 . S
S3374 N3375 1.613 . S
S3374 N3376 1.610 . S
N3375 S3374 1.613 . S
N3375 C3378 1.350 . S
N3376 S3374 1.610 . S
N3376 C3377 1.351 . S
C3377 C3371 1.428 . S
C3377 N3376 1.351 . S
C3377 C3378 1.434 . S
C3378 C3369 1.429 . S
C3378 N3375 1.350 . S
C3378 C3377 1.434 . S
C3379 C3380 1.369 . S
C3379 C3381 1.419 . S
C3379 H3383 0.930 . S
C3380 C3379 1.369 . S
C3380 C3389 1.429 . S
C3381 C3379 1.419 . S
C3381 C3382 1.363 . S
C3381 H3384 0.929 . S
C3382 C3381 1.363 . S
C3382 C3388 1.428 . S
H3383 C3379 0.930 . S
H3384 C3381 0.929 . S
S3385 N3386 1.613 . S
S3385 N3387 1.610 1_554 S
N3386 S3385 1.613 . S
N3386 C3389 1.350 1_554 S
N3387 S3385 1.610 1_556 S
N3387 C3388 1.351 . S
C3388 C3382 1.428 . S
C3388 N3387 1.351 . S
C3388 C3389 1.434 . S
C3389 C3380 1.429 . S
C3389 N3386 1.350 1_556 S
C3389 C3388 1.434 . S
C3390 C3391 1.369 . S
C3390 C3392 1.419 . S
C3390 H3394 0.930 . S
C3391 C3390 1.369 . S
C3391 C3400 1.429 . S
C3392 C3390 1.419 . S
C3392 C3393 1.363 . S
C3392 H3395 0.929 . S
C3393 C3392 1.363 . S
C3393 C3399 1.428 . S
H3394 C3390 0.930 . S
H3395 C3392 0.929 . S
S3396 N3397 1.613 . S
S3396 N3398 1.610 . S
N3397 S3396 1.613 . S
N3397 C3400 1.350 . S
N3398 S3396 1.610 . S
N3398 C3399 1.351 . S
C3399 C3393 1.428 . S
C3399 N3398 1.351 . S
C3399 C3400 1.434 . S
C3400 C3391 1.429 . S
C3400 N3397 1.350 . S
C3400 C3399 1.434 . S
C3401 C3402 1.369 . S
C3401 C3403 1.419 . S
C3401 H3405 0.930 . S
C3402 C3401 1.369 . S
C3402 C3411 1.429 . S
C3403 C3401 1.419 . S
C3403 C3404 1.363 . S
C3403 H3406 0.929 . S
C3404 C3403 1.363 . S
C3404 C3410 1.428 . S
H3405 C3401 0.930 . S
H3406 C3403 0.929 . S
S3407 N3408 1.613 . S
S3407 N3409 1.610 . S
N3408 S3407 1.613 . S
N3408 C3411 1.350 . S
N3409 S3407 1.610 . S
N3409 C3410 1.351 . S
C3410 C3404 1.428 . S
C3410 N3409 1.351 . S
C3410 C3411 1.434 . S
C3411 C3402 1.429 . S
C3411 N3408 1.350 . S
C3411 C3410 1.434 . S
C3412 C3413 1.369 . S
C3412 C3414 1.419 . S
C3412 H3416 0.930 . S
C3413 C3412 1.369 . S
C3413 C3422 1.429 . S
C3414 C3412 1.419 . S
C3414 C3415 1.363 . S
C3414 H3417 0.929 . S
C3415 C3414 1.363 . S
C3415 C3421 1.428 . S
H3416 C3412 0.930 . S
H3417 C3414 0.929 . S
S3418 N3419 1.613 . S
S3418 N3420 1.610 . S
N3419 S3418 1.613 . S
N3419 C3422 1.350 . S
N3420 S3418 1.610 . S
N3420 C3421 1.351 . S
C3421 C3415 1.428 . S
C3421 N3420 1.351 . S
C3421 C3422 1.434 . S
C3422 C3413 1.429 . S
C3422 N3419 1.350 . S
C3422 C3421 1.434 . S
C3423 C3424 1.369 . S
C3423 C3425 1.419 . S
C3423 H3427 0.930 . S
C3424 C3423 1.369 . S
C3424 C3433 1.429 . S
C3425 C3423 1.419 . S
C3425 C3426 1.363 . S
C3425 H3428 0.929 . S
C3426 C3425 1.363 . S
C3426 C3432 1.428 . S
H3427 C3423 0.930 . S
H3428 C3425 0.929 . S
S3429 N3430 1.613 . S
S3429 N3431 1.610 . S
N3430 S3429 1.613 . S
N3430 C3433 1.350 . S
N3431 S3429 1.610 . S
N3431 C3432 1.351 . S
C3432 C3426 1.428 . S
C3432 N3431 1.351 . S
C3432 C3433 1.434 . S
C3433 C3424 1.429 . S
C3433 N3430 1.350 . S
C3433 C3432 1.434 . S
C3434 C3435 1.369 . S
C3434 C3436 1.419 . S
C3434 H3438 0.930 . S
C3435 C3434 1.369 . S
C3435 C3444 1.429 . S
C3436 C3434 1.419 . S
C3436 C3437 1.363 . S
C3436 H3439 0.929 . S
C3437 C3436 1.363 . S
C3437 C3443 1.428 . S
H3438 C3434 0.930 . S
H3439 C3436 0.929 . S
S3440 N3441 1.613 . S
S3440 N3442 1.610 . S
N3441 S3440 1.613 . S
N3441 C3444 1.350 . S
N3442 S3440 1.610 . S
N3442 C3443 1.351 . S
C3443 C3437 1.428 . S
C3443 N3442 1.351 . S
C3443 C3444 1.434 . S
C3444 C3435 1.429 . S
C3444 N3441 1.350 . S
C3444 C3443 1.434 . S
C3445 C3446 1.369 . S
C3445 C3447 1.419 . S
C3445 H3449 0.930 . S
C3446 C3445 1.369 . S
C3446 C3455 1.429 . S
C3447 C3445 1.419 . S
C3447 C3448 1.363 . S
C3447 H3450 0.929 . S
C3448 C3447 1.363 . S
C3448 C3454 1.428 . S
H3449 C3445 0.930 . S
H3450 C3447 0.929 . S
S3451 N3452 1.613 . S
S3451 N3453 1.610 . S
N3452 S3451 1.613 . S
N3452 C3455 1.350 . S
N3453 S3451 1.610 . S
N3453 C3454 1.351 . S
C3454 C3448 1.428 . S
C3454 N3453 1.351 . S
C3454 C3455 1.434 . S
C3455 C3446 1.429 . S
C3455 N3452 1.350 . S
C3455 C3454 1.434 . S
C3456 C3457 1.369 . S
C3456 C3458 1.419 . S
C3456 H3460 0.930 . S
C3457 C3456 1.369 . S
C3457 C3466 1.429 . S
C3458 C3456 1.419 . S
C3458 C3459 1.363 . S
C3458 H3461 0.929 . S
C3459 C3458 1.363 . S
C3459 C3465 1.428 . S
H3460 C3456 0.930 . S
H3461 C3458 0.929 . S
S3462 N3463 1.613 . S
S3462 N3464 1.610 . S
N3463 S3462 1.613 . S
N3463 C3466 1.350 . S
N3464 S3462 1.610 . S
N3464 C3465 1.351 . S
C3465 C3459 1.428 . S
C3465 N3464 1.351 . S
C3465 C3466 1.434 . S
C3466 C3457 1.429 . S
C3466 N3463 1.350 . S
C3466 C3465 1.434 . S
C3467 C3468 1.369 . S
C3467 C3469 1.419 . S
C3467 H3471 0.930 . S
C3468 C3467 1.369 . S
C3468 C3477 1.429 . S
C3469 C3467 1.419 . S
C3469 C3470 1.363 . S
C3469 H3472 0.929 . S
C3470 C3469 1.363 . S
C3470 C3476 1.428 . S
H3471 C3467 0.930 . S
H3472 C3469 0.929 . S
S3473 N3474 1.613 . S
S3473 N3475 1.610 . S
N3474 S3473 1.613 . S
N3474 C3477 1.350 . S
N3475 S3473 1.610 . S
N3475 C3476 1.351 . S
C3476 C3470 1.428 . S
C3476 N3475 1.351 . S
C3476 C3477 1.434 . S
C3477 C3468 1.429 . S
C3477 N3474 1.350 . S
C3477 C3476 1.434 . S
C3478 C3479 1.369 . S
C3478 C3480 1.419 . S
C3478 H3482 0.930 . S
C3479 C3478 1.369 . S
C3479 C3488 1.429 . S
C3480 C3478 1.419 . S
C3480 C3481 1.363 . S
C3480 H3483 0.929 . S
C3481 C3480 1.363 . S
C3481 C3487 1.428 . S
H3482 C3478 0.930 . S
H3483 C3480 0.929 . S
S3484 N3485 1.613 . S
S3484 N3486 1.610 . S
N3485 S3484 1.613 . S
N3485 C3488 1.350 . S
N3486 S3484 1.610 . S
N3486 C3487 1.351 . S
C3487 C3481 1.428 . S
C3487 N3486 1.351 . S
C3487 C3488 1.434 . S
C3488 C3479 1.429 . S
C3488 N3485 1.350 . S
C3488 C3487 1.434 . S
C3489 C3490 1.369 . S
C3489 C3491 1.419 . S
C3489 H3493 0.930 . S
C3490 C3489 1.369 . S
C3490 C3499 1.429 . S
C3491 C3489 1.419 . S
C3491 C3492 1.363 . S
C3491 H3494 0.929 . S
C3492 C3491 1.363 . S
C3492 C3498 1.428 . S
H3493 C3489 0.930 . S
H3494 C3491 0.929 . S
S3495 N3496 1.613 . S
S3495 N3497 1.610 . S
N3496 S3495 1.613 . S
N3496 C3499 1.350 1_556 S
N3497 S3495 1.610 . S
N3497 C3498 1.351 1_556 S
C3498 C3492 1.428 . S
C3498 N3497 1.351 1_554 S
C3498 C3499 1.434 . S
C3499 C3490 1.429 . S
C3499 N3496 1.350 1_554 S
C3499 C3498 1.434 . S
C3500 C3501 1.369 . S
C3500 C3502 1.419 . S
C3500 H3504 0.930 . S
C3501 C3500 1.369 . S
C3501 C3510 1.429 . S
C3502 C3500 1.419 . S
C3502 C3503 1.363 . S
C3502 H3505 0.929 . S
C3503 C3502 1.363 . S
C3503 C3509 1.428 . S
H3504 C3500 0.930 . S
H3505 C3502 0.929 . S
S3506 N3507 1.613 . S
S3506 N3508 1.610 . S
N3507 S3506 1.613 . S
N3507 C3510 1.350 . S
N3508 S3506 1.610 . S
N3508 C3509 1.351 . S
C3509 C3503 1.428 . S
C3509 N3508 1.351 . S
C3509 C3510 1.434 . S
C3510 C3501 1.429 . S
C3510 N3507 1.350 . S
C3510 C3509 1.434 . S
C3511 C3512 1.369 . S
C3511 C3513 1.419 . S
C3511 H3515 0.930 . S
C3512 C3511 1.369 . S
C3512 C3521 1.429 . S
C3513 C3511 1.419 . S
C3513 C3514 1.363 . S
C3513 H3516 0.929 . S
C3514 C3513 1.363 . S
C3514 C3520 1.428 . S
H3515 C3511 0.930 . S
H3516 C3513 0.929 . S
S3517 N3518 1.613 . S
S3517 N3519 1.610 . S
N3518 S3517 1.613 . S
N3518 C3521 1.350 . S
N3519 S3517 1.610 . S
N3519 C3520 1.351 . S
C3520 C3514 1.428 . S
C3520 N3519 1.351 . S
C3520 C3521 1.434 . S
C3521 C3512 1.429 . S
C3521 N3518 1.350 . S
C3521 C3520 1.434 . S
C3522 C3523 1.369 . S
C3522 C3524 1.419 . S
C3522 H3526 0.930 . S
C3523 C3522 1.369 . S
C3523 C3532 1.429 . S
C3524 C3522 1.419 . S
C3524 C3525 1.363 . S
C3524 H3527 0.929 . S
C3525 C3524 1.363 . S
C3525 C3531 1.428 . S
H3526 C3522 0.930 . S
H3527 C3524 0.929 . S
S3528 N3529 1.613 . S
S3528 N3530 1.610 . S
N3529 S3528 1.613 . S
N3529 C3532 1.350 . S
N3530 S3528 1.610 . S
N3530 C3531 1.351 . S
C3531 C3525 1.428 . S
C3531 N3530 1.351 . S
C3531 C3532 1.434 . S
C3532 C3523 1.429 . S
C3532 N3529 1.350 . S
C3532 C3531 1.434 . S
C3533 C3534 1.369 . S
C3533 C3535 1.419 . S
C3533 H3537 0.930 . S
C3534 C3533 1.369 . S
C3534 C3543 1.429 . S
C3535 C3533 1.419 . S
C3535 C3536 1.363 . S
C3535 H3538 0.929 . S
C3536 C3535 1.363 . S
C3536 C3542 1.428 . S
H3537 C3533 0.930 . S
H3538 C3535 0.929 . S
S3539 N3540 1.613 . S
S3539 N3541 1.610 . S
N3540 S3539 1.613 . S
N3540 C3543 1.350 . S
N3541 S3539 1.610 . S
N3541 C3542 1.351 . S
C3542 C3536 1.428 . S
C3542 N3541 1.351 . S
C3542 C3543 1.434 . S
C3543 C3534 1.429 . S
C3543 N3540 1.350 . S
C3543 C3542 1.434 . S
C3544 C3545 1.369 . S
C3544 C3546 1.419 . S
C3544 H3548 0.930 . S
C3545 C3544 1.369 . S
C3545 C3554 1.429 . S
C3546 C3544 1.419 . S
C3546 C3547 1.363 . S
C3546 H3549 0.929 . S
C3547 C3546 1.363 . S
C3547 C3553 1.428 . S
H3548 C3544 0.930 . S
H3549 C3546 0.929 . S
S3550 N3551 1.613 . S
S3550 N3552 1.610 . S
N3551 S3550 1.613 . S
N3551 C3554 1.350 . S
N3552 S3550 1.610 . S
N3552 C3553 1.351 . S
C3553 C3547 1.428 . S
C3553 N3552 1.351 . S
C3553 C3554 1.434 . S
C3554 C3545 1.429 . S
C3554 N3551 1.350 . S
C3554 C3553 1.434 . S
C3555 C3556 1.369 . S
C3555 C3557 1.419 . S
C3555 H3559 0.930 . S
C3556 C3555 1.369 . S
C3556 C3565 1.429 . S
C3557 C3555 1.419 . S
C3557 C3558 1.363 . S
C3557 H3560 0.929 . S
C3558 C3557 1.363 . S
C3558 C3564 1.428 . S
H3559 C3555 0.930 . S
H3560 C3557 0.929 . S
S3561 N3562 1.613 . S
S3561 N3563 1.610 . S
N3562 S3561 1.613 . S
N3562 C3565 1.350 . S
N3563 S3561 1.610 . S
N3563 C3564 1.351 . S
C3564 C3558 1.428 . S
C3564 N3563 1.351 . S
C3564 C3565 1.434 . S
C3565 C3556 1.429 . S
C3565 N3562 1.350 . S
C3565 C3564 1.434 . S
C3566 C3567 1.369 . S
C3566 C3568 1.419 . S
C3566 H3570 0.930 . S
C3567 C3566 1.369 . S
C3567 C3576 1.429 . S
C3568 C3566 1.419 . S
C3568 C3569 1.363 . S
C3568 H3571 0.929 . S
C3569 C3568 1.363 . S
C3569 C3575 1.428 . S
H3570 C3566 0.930 . S
H3571 C3568 0.929 . S
S3572 N3573 1.613 . S
S3572 N3574 1.610 . S
N3573 S3572 1.613 . S
N3573 C3576 1.350 1_655 S
N3574 S3572 1.610 . S
N3574 C3575 1.351 1_655 S
C3575 C3569 1.428 . S
C3575 N3574 1.351 1_455 S
C3575 C3576 1.434 . S
C3576 C3567 1.429 . S
C3576 N3573 1.350 1_455 S
C3576 C3575 1.434 . S
C3577 C3578 1.369 . S
C3577 C3579 1.419 . S
C3577 H3581 0.930 . S
C3578 C3577 1.369 . S
C3578 C3587 1.429 . S
C3579 C3577 1.419 . S
C3579 C3580 1.363 . S
C3579 H3582 0.929 . S
C3580 C3579 1.363 . S
C3580 C3586 1.428 . S
H3581 C3577 0.930 . S
H3582 C3579 0.929 . S
S3583 N3584 1.613 . S
S3583 N3585 1.610 . S
N3584 S3583 1.613 . S
N3584 C3587 1.350 . S
N3585 S3583 1.610 . S
N3585 C3586 1.351 . S
C3586 C3580 1.428 . S
C3586 N3585 1.351 . S
C3586 C3587 1.434 . S
C3587 C3578 1.429 . S
C3587 N3584 1.350 . S
C3587 C3586 1.434 . S
C3588 C3589 1.369 . S
C3588 C3590 1.419 . S
C3588 H3592 0.929 1_556 S
C3589 C3588 1.369 . S
C3589 C3598 1.429 . S
C3590 C3588 1.419 . S
C3590 C3591 1.363 . S
C3590 H3593 0.929 1_556 S
C3591 C3590 1.363 . S
C3591 C3597 1.428 . S
H3592 C3588 0.929 1_554 S
H3593 C3590 0.929 1_554 S
S3594 N3595 1.613 . S
S3594 N3596 1.610 . S
N3595 S3594 1.613 . S
N3595 C3598 1.350 . S
N3596 S3594 1.610 . S
N3596 C3597 1.351 . S
C3597 C3591 1.428 . S
C3597 N3596 1.351 . S
C3597 C3598 1.434 . S
C3598 C3589 1.429 . S
C3598 N3595 1.350 . S
C3598 C3597 1.434 . S
C3599 C3600 1.369 . S
C3599 C3601 1.419 . S
C3599 H3603 0.930 . S
C3600 C3599 1.369 . S
C3600 C3609 1.429 . S
C3601 C3599 1.419 . S
C3601 C3602 1.363 . S
C3601 H3604 0.929 . S
C3602 C3601 1.363 . S
C3602 C3608 1.428 . S
H3603 C3599 0.930 . S
H3604 C3601 0.929 . S
S3605 N3606 1.613 . S
S3605 N3607 1.610 . S
N3606 S3605 1.613 . S
N3606 C3609 1.350 . S
N3607 S3605 1.610 . S
N3607 C3608 1.351 . S
C3608 C3602 1.428 . S
C3608 N3607 1.351 . S
C3608 C3609 1.434 . S
C3609 C3600 1.429 . S
C3609 N3606 1.350 . S
C3609 C3608 1.434 . S
C3610 C3611 1.369 . S
C3610 C3612 1.419 . S
C3610 H3614 0.930 . S
C3611 C3610 1.369 . S
C3611 C3620 1.429 . S
C3612 C3610 1.419 . S
C3612 C3613 1.363 . S
C3612 H3615 0.929 . S
C3613 C3612 1.363 . S
C3613 C3619 1.428 . S
H3614 C3610 0.930 . S
H3615 C3612 0.929 . S
S3616 N3617 1.613 . S
S3616 N3618 1.610 . S
N3617 S3616 1.613 . S
N3617 C3620 1.350 . S
N3618 S3616 1.610 . S
N3618 C3619 1.351 . S
C3619 C3613 1.428 . S
C3619 N3618 1.351 . S
C3619 C3620 1.434 . S
C3620 C3611 1.429 . S
C3620 N3617 1.350 . S
C3620 C3619 1.434 . S
C3621 C3622 1.369 . S
C3621 C3623 1.419 . S
C3621 H3625 0.930 . S
C3622 C3621 1.369 . S
C3622 C3631 1.429 . S
C3623 C3621 1.419 . S
C3623 C3624 1.363 . S
C3623 H3626 0.929 . S
C3624 C3623 1.363 . S
C3624 C3630 1.428 . S
H3625 C3621 0.930 . S
H3626 C3623 0.929 . S
S3627 N3628 1.613 . S
S3627 N3629 1.610 . S
N3628 S3627 1.613 . S
N3628 C3631 1.350 . S
N3629 S3627 1.610 . S
N3629 C3630 1.351 . S
C3630 C3624 1.428 . S
C3630 N3629 1.351 . S
C3630 C3631 1.434 . S
C3631 C3622 1.429 . S
C3631 N3628 1.350 . S
C3631 C3630 1.434 . S
C3632 C3633 1.369 . S
C3632 C3634 1.419 . S
C3632 H3636 0.930 . S
C3633 C3632 1.369 . S
C3633 C3642 1.429 . S
C3634 C3632 1.419 . S
C3634 C3635 1.363 . S
C3634 H3637 0.929 . S
C3635 C3634 1.363 . S
C3635 C3641 1.428 . S
H3636 C3632 0.930 . S
H3637 C3634 0.929 . S
S3638 N3639 1.613 . S
S3638 N3640 1.610 . S
N3639 S3638 1.613 . S
N3639 C3642 1.350 . S
N3640 S3638 1.610 . S
N3640 C3641 1.351 . S
C3641 C3635 1.428 . S
C3641 N3640 1.351 . S
C3641 C3642 1.434 . S
C3642 C3633 1.429 . S
C3642 N3639 1.350 . S
C3642 C3641 1.434 . S
C3643 C3644 1.369 . S
C3643 C3645 1.419 . S
C3643 H3647 0.930 . S
C3644 C3643 1.369 . S
C3644 C3653 1.429 . S
C3645 C3643 1.419 . S
C3645 C3646 1.363 . S
C3645 H3648 0.929 . S
C3646 C3645 1.363 . S
C3646 C3652 1.428 . S
H3647 C3643 0.930 . S
H3648 C3645 0.929 . S
S3649 N3650 1.613 . S
S3649 N3651 1.610 . S
N3650 S3649 1.613 . S
N3650 C3653 1.350 . S
N3651 S3649 1.610 . S
N3651 C3652 1.351 . S
C3652 C3646 1.428 . S
C3652 N3651 1.351 . S
C3652 C3653 1.434 . S
C3653 C3644 1.429 . S
C3653 N3650 1.350 . S
C3653 C3652 1.434 . S
C3654 C3655 1.369 1_455 S
C3654 C3656 1.419 . S
C3654 H3658 0.930 . S
C3655 C3654 1.369 1_655 S
C3655 C3664 1.429 . S
C3656 C3654 1.419 . S
C3656 C3657 1.363 . S
C3656 H3659 0.929 . S
C3657 C3656 1.363 . S
C3657 C3663 1.428 1_455 S
H3658 C3654 0.930 . S
H3659 C3656 0.929 . S
S3660 N3661 1.613 . S
S3660 N3662 1.610 . S
N3661 S3660 1.613 . S
N3661 C3664 1.350 . S
N3662 S3660 1.610 . S
N3662 C3663 1.351 . S
C3663 C3657 1.428 1_655 S
C3663 N3662 1.351 . S
C3663 C3664 1.434 . S
C3664 C3655 1.429 . S
C3664 N3661 1.350 . S
C3664 C3663 1.434 . S
C3665 C3666 1.369 . S
C3665 C3667 1.419 . S
C3665 H3669 0.930 . S
C3666 C3665 1.369 . S
C3666 C3675 1.429 . S
C3667 C3665 1.419 . S
C3667 C3668 1.363 . S
C3667 H3670 0.929 . S
C3668 C3667 1.363 . S
C3668 C3674 1.428 . S
H3669 C3665 0.930 . S
H3670 C3667 0.929 . S
S3671 N3672 1.613 . S
S3671 N3673 1.610 . S
N3672 S3671 1.613 . S
N3672 C3675 1.350 . S
N3673 S3671 1.610 . S
N3673 C3674 1.351 . S
C3674 C3668 1.428 . S
C3674 N3673 1.351 . S
C3674 C3675 1.434 . S
C3675 C3666 1.429 . S
C3675 N3672 1.350 . S
C3675 C3674 1.434 . S
C3676 C3677 1.369 . S
C3676 C3678 1.419 . S
C3676 H3680 0.930 . S
C3677 C3676 1.369 . S
C3677 C3686 1.429 . S
C3678 C3676 1.419 . S
C3678 C3679 1.363 . S
C3678 H3681 0.929 . S
C3679 C3678 1.363 . S
C3679 C3685 1.428 . S
H3680 C3676 0.930 . S
H3681 C3678 0.929 . S
S3682 N3683 1.613 . S
S3682 N3684 1.610 . S
N3683 S3682 1.613 . S
N3683 C3686 1.350 . S
N3684 S3682 1.610 . S
N3684 C3685 1.351 . S
C3685 C3679 1.428 . S
C3685 N3684 1.351 . S
C3685 C3686 1.434 . S
C3686 C3677 1.429 . S
C3686 N3683 1.350 . S
C3686 C3685 1.434 . S
C3687 C3688 1.369 . S
C3687 C3689 1.419 . S
C3687 H3691 0.930 . S
C3688 C3687 1.369 . S
C3688 C3697 1.429 . S
C3689 C3687 1.419 . S
C3689 C3690 1.363 . S
C3689 H3692 0.929 . S
C3690 C3689 1.363 . S
C3690 C3696 1.428 . S
H3691 C3687 0.930 . S
H3692 C3689 0.929 . S
S3693 N3694 1.613 . S
S3693 N3695 1.610 . S
N3694 S3693 1.613 . S
N3694 C3697 1.350 . S
N3695 S3693 1.610 . S
N3695 C3696 1.351 . S
C3696 C3690 1.428 . S
C3696 N3695 1.351 . S
C3696 C3697 1.434 . S
C3697 C3688 1.429 . S
C3697 N3694 1.350 . S
C3697 C3696 1.434 . S
C3698 C3699 1.369 . S
C3698 C3700 1.419 . S
C3698 H3702 0.930 . S
C3699 C3698 1.369 . S
C3699 C3708 1.429 . S
C3700 C3698 1.419 . S
C3700 C3701 1.363 . S
C3700 H3703 0.929 . S
C3701 C3700 1.363 . S
C3701 C3707 1.428 1_655 S
H3702 C3698 0.930 . S
H3703 C3700 0.929 . S
S3704 N3705 1.613 . S
S3704 N3706 1.610 . S
N3705 S3704 1.613 . S
N3705 C3708 1.350 1_455 S
N3706 S3704 1.610 . S
N3706 C3707 1.351 . S
C3707 C3701 1.428 1_455 S
C3707 N3706 1.351 . S
C3707 C3708 1.434 1_455 S
C3708 C3699 1.429 . S
C3708 N3705 1.350 1_655 S
C3708 C3707 1.434 1_655 S
C3709 C3710 1.369 . S
C3709 C3711 1.419 . S
C3709 H3713 0.930 . S
C3710 C3709 1.369 . S
C3710 C3719 1.429 . S
C3711 C3709 1.419 . S
C3711 C3712 1.363 . S
C3711 H3714 0.929 . S
C3712 C3711 1.363 . S
C3712 C3718 1.428 . S
H3713 C3709 0.930 . S
H3714 C3711 0.929 . S
S3715 N3716 1.613 . S
S3715 N3717 1.610 . S
N3716 S3715 1.613 . S
N3716 C3719 1.350 . S
N3717 S3715 1.610 . S
N3717 C3718 1.351 . S
C3718 C3712 1.428 . S
C3718 N3717 1.351 . S
C3718 C3719 1.434 . S
C3719 C3710 1.429 . S
C3719 N3716 1.350 . S
C3719 C3718 1.434 . S
C3720 C3721 1.369 . S
C3720 C3722 1.419 . S
C3720 H3724 0.930 . S
C3721 C3720 1.369 . S
C3721 C3730 1.429 . S
C3722 C3720 1.419 . S
C3722 C3723 1.363 . S
C3722 H3725 0.929 . S
C3723 C3722 1.363 . S
C3723 C3729 1.428 . S
H3724 C3720 0.930 . S
H3725 C3722 0.929 . S
S3726 N3727 1.613 . S
S3726 N3728 1.610 . S
N3727 S3726 1.613 . S
N3727 C3730 1.350 . S
N3728 S3726 1.610 . S
N3728 C3729 1.351 . S
C3729 C3723 1.428 . S
C3729 N3728 1.351 . S
C3729 C3730 1.434 . S
C3730 C3721 1.429 . S
C3730 N3727 1.350 . S
C3730 C3729 1.434 . S
C3731 C3732 1.369 . S
C3731 C3733 1.419 . S
C3731 H3735 0.930 . S
C3732 C3731 1.369 . S
C3732 C3741 1.429 . S
C3733 C3731 1.419 . S
C3733 C3734 1.363 . S
C3733 H3736 0.929 1_565 S
C3734 C3733 1.363 . S
C3734 C3740 1.428 . S
H3735 C3731 0.930 . S
H3736 C3733 0.929 1_545 S
S3737 N3738 1.613 . S
S3737 N3739 1.610 . S
N3738 S3737 1.613 . S
N3738 C3741 1.350 . S
N3739 S3737 1.610 . S
N3739 C3740 1.351 . S
C3740 C3734 1.428 . S
C3740 N3739 1.351 . S
C3740 C3741 1.434 . S
C3741 C3732 1.429 . S
C3741 N3738 1.350 . S
C3741 C3740 1.434 . S
C3742 C3743 1.369 . S
C3742 C3744 1.419 . S
C3742 H3746 0.930 . S
C3743 C3742 1.369 . S
C3743 C3752 1.429 . S
C3744 C3742 1.419 . S
C3744 C3745 1.363 . S
C3744 H3747 0.929 . S
C3745 C3744 1.363 . S
C3745 C3751 1.428 . S
H3746 C3742 0.930 . S
H3747 C3744 0.929 . S
S3748 N3749 1.613 . S
S3748 N3750 1.610 . S
N3749 S3748 1.613 . S
N3749 C3752 1.350 . S
N3750 S3748 1.610 . S
N3750 C3751 1.351 . S
C3751 C3745 1.428 . S
C3751 N3750 1.351 . S
C3751 C3752 1.434 . S
C3752 C3743 1.429 . S
C3752 N3749 1.350 . S
C3752 C3751 1.434 . S
C3753 C3754 1.369 . S
C3753 C3755 1.419 . S
C3753 H3757 0.930 . S
C3754 C3753 1.369 . S
C3754 C3763 1.429 . S
C3755 C3753 1.419 . S
C3755 C3756 1.363 . S
C3755 H3758 0.929 . S
C3756 C3755 1.363 . S
C3756 C3762 1.428 . S
H3757 C3753 0.930 . S
H3758 C3755 0.929 . S
S3759 N3760 1.613 . S
S3759 N3761 1.610 . S
N3760 S3759 1.613 . S
N3760 C3763 1.350 . S
N3761 S3759 1.610 . S
N3761 C3762 1.351 . S
C3762 C3756 1.428 . S
C3762 N3761 1.351 . S
C3762 C3763 1.434 . S
C3763 C3754 1.429 . S
C3763 N3760 1.350 . S
C3763 C3762 1.434 . S
C3764 C3765 1.369 . S
C3764 C3766 1.419 . S
C3764 H3768 0.930 . S
C3765 C3764 1.369 . S
C3765 C3774 1.429 . S
C3766 C3764 1.419 . S
C3766 C3767 1.363 . S
C3766 H3769 0.929 . S
C3767 C3766 1.363 . S
C3767 C3773 1.428 . S
H3768 C3764 0.930 . S
H3769 C3766 0.929 . S
S3770 N3771 1.613 . S
S3770 N3772 1.610 . S
N3771 S3770 1.613 . S
N3771 C3774 1.350 . S
N3772 S3770 1.610 . S
N3772 C3773 1.351 . S
C3773 C3767 1.428 . S
C3773 N3772 1.351 . S
C3773 C3774 1.434 . S
C3774 C3765 1.429 . S
C3774 N3771 1.350 . S
C3774 C3773 1.434 . S
C3775 C3776 1.369 . S
C3775 C3777 1.419 . S
C3775 H3779 0.930 . S
C3776 C3775 1.369 . S
C3776 C3785 1.429 . S
C3777 C3775 1.419 . S
C3777 C3778 1.363 . S
C3777 H3780 0.929 . S
C3778 C3777 1.363 . S
C3778 C3784 1.428 . S
H3779 C3775 0.930 . S
H3780 C3777 0.929 . S
S3781 N3782 1.613 . S
S3781 N3783 1.610 . S
N3782 S3781 1.613 . S
N3782 C3785 1.350 1_556 S
N3783 S3781 1.610 . S
N3783 C3784 1.351 1_556 S
C3784 C3778 1.428 . S
C3784 N3783 1.351 1_554 S
C3784 C3785 1.434 . S
C3785 C3776 1.429 . S
C3785 N3782 1.350 1_554 S
C3785 C3784 1.434 . S
C3786 C3787 1.369 . S
C3786 C3788 1.419 . S
C3786 H3790 0.930 . S
C3787 C3786 1.369 . S
C3787 C3796 1.429 . S
C3788 C3786 1.419 . S
C3788 C3789 1.363 . S
C3788 H3791 0.929 . S
C3789 C3788 1.363 . S
C3789 C3795 1.428 . S
H3790 C3786 0.930 . S
H3791 C3788 0.929 . S
S3792 N3793 1.613 . S
S3792 N3794 1.610 . S
N3793 S3792 1.613 . S
N3793 C3796 1.350 . S
N3794 S3792 1.610 . S
N3794 C3795 1.351 . S
C3795 C3789 1.428 . S
C3795 N3794 1.351 . S
C3795 C3796 1.434 . S
C3796 C3787 1.429 . S
C3796 N3793 1.350 . S
C3796 C3795 1.434 . S
C3797 C3798 1.369 . S
C3797 C3799 1.419 . S
C3797 H3801 0.930 . S
C3798 C3797 1.369 . S
C3798 C3807 1.429 . S
C3799 C3797 1.419 . S
C3799 C3800 1.363 . S
C3799 H3802 0.929 . S
C3800 C3799 1.363 . S
C3800 C3806 1.428 . S
H3801 C3797 0.930 . S
H3802 C3799 0.929 . S
S3803 N3804 1.613 . S
S3803 N3805 1.610 . S
N3804 S3803 1.613 . S
N3804 C3807 1.350 . S
N3805 S3803 1.610 . S
N3805 C3806 1.351 . S
C3806 C3800 1.428 . S
C3806 N3805 1.351 . S
C3806 C3807 1.434 . S
C3807 C3798 1.429 . S
C3807 N3804 1.350 . S
C3807 C3806 1.434 . S
C2753 C665 2.319 . S
C2755 C2122 2.321 . S
C2764 C381 2.034 . S
C2766 C2170 2.014 . S
C2775 C460 1.488 . S
C2777 C2202 1.582 . S
C2788 C2247 1.613 . S
C2786 C585 1.662 . S
C2797 C108 0.959 . S
C2799 C2287 0.951 . S
C2810 C2322 1.218 . S
C2808 C196 1.150 . S
C2821 C2361 1.101 . S
C2819 C313 1.113 . S
C2830 C49 1.260 . S
C2832 C2398 1.290 . S
C2843 C2130 2.048 . S
C2841 C1457 2.066 1_455 S
C2852 C1545 0.971 . S
C2854 C2167 0.949 . S
C2865 C2210 2.421 . S
C2863 C1721 2.460 1_545 S
C2876 C2242 1.369 . S
C2874 C1113 1.300 . S
C2885 C1428 1.420 . S
C2887 C2282 1.487 . S
C2898 C2330 0.935 . S
C2896 C1516 0.915 . S
C2909 C2371 1.932 1_556 S
C2907 C1692 2.043 . S
C2920 C2401 2.068 . S
C2918 C1085 2.062 . S
C2931 C2127 1.639 . S
C2929 C988 1.677 1_554 S
C2940 C1817 2.152 . S
C2942 C2450 2.108 . S
C2953 C2487 1.203 . S
C2951 C2081 1.221 . S
C2964 C2518 0.700 . S
C2962 C1993 0.676 . S
C2973 C761 2.765 . S
C2975 C2411 2.720 . S
C2984 C821 1.431 . S
C2986 C2207 1.396 . S
C2995 C2053 1.743 . S
C2997 C2570 1.751 . S
C3008 C2602 2.012 . S
C3006 C1868 1.931 . S
C3019 C2131 2.320 . S
C3017 C372 2.321 . S
C3030 C2601 2.010 . S
C3028 C645 2.026 . S
C3039 C577 1.479 . S
C3041 C2211 1.578 . S
C3050 C497 1.663 . S
C3052 C2558 1.609 . S
C3063 C2278 0.950 1_655 S
C3061 C57 0.961 1_655 S
C3072 C293 1.130 . S
C3074 C2491 1.214 . S
C3085 C2370 1.101 . S
C3083 C205 1.111 . S
C3096 C2647 1.290 . S
C3094 C145 1.253 . S
C3107 C2121 2.050 . S
C3105 C909 2.060 . S
C3118 C2598 0.958 . S
C3116 C1956 0.953 . S
C3127 C724 2.451 . S
C3129 C2201 2.420 . S
C3138 C1780 1.297 . S
C3140 C2571 1.362 . S
C3149 C937 1.416 . S
C3151 C2291 1.480 . S
C3162 C2481 0.928 . S
C3160 C1985 0.905 . S
C3171 C753 2.042 . S
C3173 C2362 1.925 . S
C3182 C1809 2.062 . S
C3184 C2650 2.068 . S
C3193 C1173 1.694 . S
C3195 C2118 1.641 . S
C3204 C1105 2.144 . S
C3206 C2441 2.105 . S
C3215 C1633 1.221 . S
C3217 C2318 1.202 . S
C3226 C1553 0.686 . S
C3228 C2527 0.694 . S
C3239 C2642 2.719 . S
C3237 C1729 2.762 . S
C3248 C1340 1.431 . S
C3250 C2198 1.392 . S
C3261 C2241 1.748 . S
C3259 C1604 1.735 . S
C3272 C2171 2.007 . S
C3270 C1252 1.927 . S
C3281 C489 2.317 . S
C3283 C2682 2.320 . S
C3294 C2610 2.013 . S
C3292 C557 2.035 . S
C3303 C636 1.484 . S
C3305 C2722 1.582 . S
C3314 C409 1.662 . S
C3316 C2567 1.612 . S
C3325 C284 0.962 . S
C3327 C2447 0.950 . S
C3338 C2482 1.222 . S
C3336 C20 1.135 . S
C3349 C2521 1.101 . S
C3347 C137 1.112 . S
C3360 C2638 1.291 . S
C3358 C225 1.256 . S
C3371 C2690 2.046 . S
C3369 C1641 2.061 . S
C3380 C1193 0.951 1_556 S
C3382 C2607 0.965 . S
C3393 C2730 2.420 . S
C3391 C1289 2.459 . S
C3404 C2562 1.369 . S
C3402 C1377 1.300 . S
C3415 C2442 1.485 . S
C3413 C1613 1.417 . S
C3424 C1164 0.932 . S
C3426 C2490 0.922 . S
C3437 C2531 1.927 . S
C3435 C1261 2.044 . S
C3446 C1349 2.065 . S
C3448 C2641 2.070 . S
C3459 C2687 1.635 . S
C3457 C1965 1.687 . S
C3468 C849 2.151 . S
C3470 C2290 2.108 . S
C3481 C2327 1.207 . S
C3479 C929 1.216 . S
C3492 C2358 0.703 . S
C3490 C1017 0.672 . S
C3503 C2651 2.718 . S
C3501 C1897 2.764 . S
C3512 C1789 1.430 . S
C3514 C2727 1.396 . S
C3525 C2250 1.749 . S
C3523 C900 1.745 . S
C3536 C2162 2.013 . S
C3534 C733 1.931 . S
C3545 C548 2.319 . S
C3547 C2691 2.317 . S
C3558 C2161 2.010 . S
C3556 C469 2.027 . S
C3567 C401 1.485 . S
C3569 C2731 1.577 . S
C3578 C673 1.664 . S
C3580 C2238 1.607 . S
C3589 C233 0.951 . S
C3591 C2438 0.955 . S
C3602 C2331 1.210 . S
C3600 C117 1.144 . S
C3611 C29 1.110 . S
C3613 C2530 1.104 . S
C3622 C321 1.262 . S
C3624 C2407 1.287 . S
C3635 C2681 2.043 . S
C3633 C2044 2.060 . S
C3644 C997 0.960 . S
C3646 C2158 0.953 . S
C3657 C2721 2.399 1_556 S
C3655 C1877 2.452 . S
C3666 C812 1.285 . S
C3668 C2251 1.364 . S
C3677 C2073 1.413 . S
C3679 C2451 1.478 . S
C3690 C2321 0.938 . S
C3688 C1025 0.900 . S
C3699 C1905 2.042 . S
C3701 C2522 1.926 1_655 S
C3712 C2410 2.068 . S
C3710 C841 2.061 . S
C3723 C2678 1.641 . S
C3721 C1525 1.694 . S
C3734 C2281 2.109 1_565 S
C3732 C1369 2.143 . S
C3743 C1465 1.222 . S
C3745 C2478 1.196 . S
C3756 C2367 0.690 . S
C3754 C1201 0.691 . S
C3765 C1281 2.761 . S
C3767 C2402 2.719 . S
C3776 C1076 1.425 . S
C3778 C2718 1.399 . S
C3789 C2561 1.749 . S
C3787 C1437 1.738 . S
C3800 C2611 2.006 . S
C3798 C1701 1.926 . S
