# Generated by pormake.
# Topology pth, (4,4)-cn, num edge types: 1
# Building blocks:
#     Node 0, Type 0, BuildingBlock: TATPOV_clean_sbu_0, # of connection points: 4
#     Node 1, Type 0, BuildingBlock: TATPOV_clean_sbu_0, # of connection points: 4
#     Node 2, Type 0, BuildingBlock: TATPOV_clean_sbu_0, # of connection points: 4
#     Node 3, Type 1, BuildingBlock: MUDLON_clean_sbu_0, # of connection points: 4
#     Node 4, Type 1, BuildingBlock: MUDLON_clean_sbu_0, # of connection points: 4
#     Node 5, Type 1, BuildingBlock: MUDLON_clean_sbu_0, # of connection points: 4
#     Edge 6, Type (0, 1), BuildingBlock: UVAHIK_clean_linker_0, # of connection points: 2
#     Edge 7, Type (0, 1), BuildingBlock: UVAHIK_clean_linker_0, # of connection points: 2
#     Edge 8, Type (0, 1), BuildingBlock: UVAHIK_clean_linker_0, # of connection points: 2
#     Edge 9, Type (0, 1), BuildingBlock: UVAHIK_clean_linker_0, # of connection points: 2
#     Edge 10, Type (0, 1), BuildingBlock: UVAHIK_clean_linker_0, # of connection points: 2
#     Edge 11, Type (0, 1), BuildingBlock: UVAHIK_clean_linker_0, # of connection points: 2
#     Edge 12, Type (0, 1), BuildingBlock: UVAHIK_clean_linker_0, # of connection points: 2
#     Edge 13, Type (0, 1), BuildingBlock: UVAHIK_clean_linker_0, # of connection points: 2
#     Edge 14, Type (0, 1), BuildingBlock: UVAHIK_clean_linker_0, # of connection points: 2
#     Edge 15, Type (0, 1), BuildingBlock: UVAHIK_clean_linker_0, # of connection points: 2
#     Edge 16, Type (0, 1), BuildingBlock: UVAHIK_clean_linker_0, # of connection points: 2
#     Edge 17, Type (0, 1), BuildingBlock: UVAHIK_clean_linker_0, # of connection points: 2
# Relax obj value: 0.071
# Max RMSD: 0.185
# Mean RMSD: 0.119
data_MOF--net-pth--node1-TATPOV_clean_sbu_0--node2-MUDLON_clean_sbu_0--edge1-UVAHIK_clean_linker_0
_symmetry_space_group_name_H-M    P1
_symmetry_Int_Tables_number       1
_symmetry_cell_setting            triclinic
loop_
_symmetry_equiv_pos_as_xyz
'x, y, z'
_cell_length_a     29.425567
_cell_length_b     29.092893
_cell_length_c     76.247771
_cell_angle_alpha  92.433179
_cell_angle_beta   92.11152
_cell_angle_gamma 120.83996
loop_
_atom_site_label
_atom_site_type_symbol
_atom_site_fract_x
_atom_site_fract_y
_atom_site_fract_z
_atom_type_partial_charge
Zn0 Zn 0.1972 0.07373 0.08003 0.0
Zn1 Zn 0.13837 0.1045 0.09622 0.0
O2 O 0.16435 0.07439 0.11603 0.0
O3 O 0.21436 0.05023 0.10247 0.0
O4 O 0.10392 0.13972 0.10918 0.0
O5 O 0.24596 0.14599 0.07122 0.0
O6 O 0.19313 0.16932 0.08301 0.0
C7 C 0.19364 0.05377 0.11634 0.0
C8 C 0.08556 0.01487 0.06729 0.0
O9 O 0.08028 0.04352 0.07926 0.0
O10 O 0.13085 0.02123 0.06502 0.0
C11 C 0.06638 0.11907 0.11944 0.0
O12 O 0.04422 0.06793 0.12224 0.0
C13 C 0.23267 0.18057 0.07394 0.0
Zn14 Zn 0.14036 0.09681 0.40412 0.0
Zn15 Zn 0.05656 0.07653 0.4224 0.0
O16 O 0.10701 0.07111 0.44062 0.0
O17 O 0.17484 0.08499 0.4256 0.0
O18 O 0.99848 0.07227 0.43689 0.0
O19 O 0.15549 0.17056 0.39858 0.0
O20 O 0.08193 0.14863 0.41132 0.0
C21 C 0.15166 0.07411 0.43983 0.0
C22 C 0.03984 1.00153 0.3908 0.0
O23 O 0.02087 0.01141 0.40424 0.0
O24 O 0.08802 0.03255 0.38773 0.0
C25 C 0.97814 0.04016 0.44894 0.0
O26 O 0.99333 0.00564 0.45178 0.0
C27 C 0.12058 0.18137 0.40273 0.0
Zn28 Zn 0.08431 0.95134 0.7648 0.0
Zn29 Zn 0.04574 0.01387 0.7564 0.0
O30 O 0.08879 0.01193 0.73569 0.0
O31 O 0.11452 0.95488 0.74121 0.0
O32 O 1.00176 0.04383 0.74645 0.0
O33 O 0.01349 0.88919 0.77057 0.0
O34 O 0.98566 0.94497 0.76598 0.0
C35 C 0.11303 0.98782 0.73124 0.0
C36 C 0.12724 0.05491 0.78651 0.0
O37 O 0.09661 0.06381 0.77683 0.0
O38 O 0.12804 0.01194 0.7838 0.0
C39 C 0.00625 0.06102 0.73116 0.0
O40 O 0.04611 0.06747 0.72218 0.0
C41 C 0.97697 0.89997 0.77085 0.0
Mg42 Mg 0.04518 0.57692 0.25927 0.0
C43 C 0.04929 0.51012 0.28594 0.0
O44 O 0.00455 0.47891 0.27648 0.0
C45 C 0.11872 0.6588 0.23379 0.0
O46 O 0.11343 0.61639 0.22495 0.0
C47 C 1.00126 0.50045 0.22444 0.0
O48 O 0.98816 0.53362 0.21804 0.0
O49 O 0.02209 0.50965 0.24006 0.0
O50 O 0.07902 0.55813 0.28183 0.0
O51 O 0.98286 0.59027 0.26821 0.0
C52 C 0.9612 0.57603 0.28272 0.0
O53 O 0.96956 0.54364 0.29191 0.0
O54 O 0.09833 0.65339 0.24853 0.0
Mg55 Mg 0.54382 0.05452 0.59118 0.0
C56 C 0.428 0.98777 0.57958 0.0
O57 O 0.42419 0.00398 0.59551 0.0
C58 C 0.5657 0.01297 0.6265 0.0
O59 O 0.52354 0.01071 0.63265 0.0
C60 C 0.52848 0.12381 0.61919 0.0
O61 O 0.56652 0.12266 0.62836 0.0
O62 O 0.51874 0.1066 0.60309 0.0
O63 O 0.47286 0.99604 0.5753 0.0
O64 O 0.60492 0.0853 0.57232 0.0
C65 C 0.61333 0.04786 0.56767 0.0
O66 O 0.58472 1.001 0.57421 0.0
O67 O 0.57732 0.02591 0.61086 0.0
Mg68 Mg 0.55448 0.57069 0.9292 0.0
C69 C 0.47506 0.45101 0.9227 0.0
O70 O 0.45389 0.46031 0.93624 0.0
C71 C 0.6679 0.62428 0.94576 0.0
O72 O 0.68015 0.63232 0.92934 0.0
C73 C 0.49997 0.58898 0.95893 0.0
O74 O 0.54948 0.62142 0.96489 0.0
O75 O 0.49068 0.57019 0.94297 0.0
O76 O 0.51949 0.48838 0.91819 0.0
O77 O 0.58492 0.61996 0.90674 0.0
C78 C 0.60277 0.60033 0.89559 0.0
O79 O 0.59968 0.55474 0.89863 0.0
O80 O 0.6194 0.59672 0.9491 0.0
C81 C 0.00807 0.13184 0.14002 0.0
C82 C 0.05008 0.15357 0.12883 0.0
C83 C 0.99456 0.16515 0.14939 0.0
C84 C 0.01498 0.30322 0.1516 0.0
H85 H 0.98076 0.27524 0.20006 0.0
C86 C 0.97398 0.44324 0.19585 0.0
C87 C 0.99647 0.45491 0.21324 0.0
C88 C 0.97285 0.40227 0.18511 0.0
C89 C 0.99049 0.28387 0.18657 0.0
H90 H 0.1104 0.22746 0.11862 0.0
H91 H 0.08776 0.28528 0.13515 0.0
H92 H 0.99444 0.21299 0.18201 0.0
H93 H 0.03459 0.43183 0.233 0.0
H94 H 0.03374 0.36189 0.2143 0.0
H95 H 0.01372 0.37551 0.15644 0.0
C96 C 0.06438 0.24246 0.13647 0.0
C97 C 0.99762 0.24764 0.17611 0.0
C98 C 0.07768 0.20922 0.12706 0.0
C99 C 0.01676 0.42395 0.21971 0.0
C100 C 0.01592 0.38337 0.20898 0.0
C101 C 0.00819 0.33963 0.1621 0.0
C102 C 0.02286 0.22102 0.14786 0.0
C103 C 0.01083 0.25725 0.15856 0.0
C104 C 0.99437 0.37218 0.19147 0.0
C105 C 0.99673 0.33094 0.17982 0.0
H106 H 0.98581 0.08913 0.14164 0.0
H107 H 0.96188 0.14704 0.15784 0.0
H108 H 0.02418 0.31154 0.13806 0.0
H109 H 0.95779 0.46612 0.19047 0.0
H110 H 0.95524 0.39434 0.17178 0.0
C111 C 0.91767 0.00864 0.47368 0.0
C112 C 0.94059 0.04429 0.46043 0.0
C113 C 0.88455 0.01426 0.48514 0.0
C114 C 0.80232 0.07619 0.49079 0.0
H115 H 0.81425 0.04985 0.53968 0.0
C116 C 0.67929 0.09976 0.54534 0.0
C117 C 0.65477 0.05542 0.55567 0.0
C118 C 0.71727 0.10443 0.53375 0.0
C119 C 0.81041 0.0573 0.52606 0.0
H120 H 0.94589 0.11339 0.44868 0.0
H121 H 0.88856 0.1235 0.46882 0.0
H122 H 0.87347 0.04526 0.51916 0.0
H123 H 0.65151 0.98179 0.56208 0.0
H124 H 0.71723 0.9902 0.54219 0.0
H125 H 0.73877 0.08788 0.49785 0.0
C126 C 0.89576 0.09084 0.47023 0.0
C127 C 0.84414 0.05437 0.51427 0.0
C128 C 0.92882 0.08513 0.45872 0.0
C129 C 0.66945 0.01647 0.55433 0.0
C130 C 0.7075 0.02143 0.54299 0.0
C131 C 0.76859 0.07935 0.50266 0.0
C132 C 0.87365 0.05581 0.48371 0.0
C133 C 0.83983 0.06261 0.4964 0.0
C134 C 0.73186 0.06531 0.53255 0.0
C135 C 0.77156 0.06878 0.52034 0.0
H136 H 0.9256 0.97654 0.47531 0.0
H137 H 0.86734 0.98583 0.49513 0.0
H138 H 0.79772 0.08253 0.4771 0.0
H139 H 0.6687 0.13034 0.54606 0.0
H140 H 0.73554 0.13877 0.52586 0.0
C141 C 0.91397 0.81139 0.78247 0.0
C142 C 0.9272 0.86379 0.77914 0.0
C143 C 0.87207 0.78038 0.79286 0.0
C144 C 0.75714 0.7735 0.81487 0.0
H145 H 0.78763 0.69217 0.8473 0.0
C146 C 0.64275 0.68174 0.87769 0.0
C147 C 0.63093 0.62923 0.88027 0.0
C148 C 0.67393 0.70969 0.86398 0.0
C149 C 0.7783 0.71434 0.83824 0.0
H150 H 0.90496 0.92369 0.78338 0.0
H151 H 0.83303 0.87034 0.8019 0.0
H152 H 0.84994 0.74033 0.82548 0.0
H153 H 0.64029 0.56406 0.86988 0.0
H154 H 0.69434 0.61262 0.84631 0.0
H155 H 0.68588 0.74823 0.82828 0.0
C156 C 0.85427 0.85264 0.79626 0.0
C157 C 0.81388 0.74171 0.8256 0.0
C158 C 0.89573 0.88338 0.78565 0.0
C159 C 0.64906 0.60466 0.86846 0.0
C160 C 0.68023 0.6325 0.85494 0.0
C161 C 0.72165 0.7464 0.82771 0.0
C162 C 0.84291 0.80132 0.80044 0.0
C163 C 0.80372 0.77136 0.81362 0.0
C164 C 0.694 0.68564 0.85275 0.0
C165 C 0.73174 0.71618 0.83942 0.0
H166 H 0.93705 0.79488 0.7775 0.0
H167 H 0.86351 0.74042 0.79534 0.0
H168 H 0.74775 0.79559 0.80581 0.0
H169 H 0.62927 0.70173 0.88653 0.0
H170 H 0.68404 0.75071 0.86259 0.0
C171 C 0.22652 1.00053 0.13139 0.0
C172 C 0.19913 0.02838 0.13215 0.0
C173 C 0.22593 0.97 0.14511 0.0
C174 C 0.14529 0.89976 0.18199 0.0
H175 H 0.2591 0.8718 0.19135 0.0
C176 C 0.13087 0.7504 0.23226 0.0
C177 C 0.14027 0.71052 0.22544 0.0
C178 C 0.14463 0.79603 0.22315 0.0
C179 C 0.22704 0.87929 0.18888 0.0
H180 H 0.15205 0.04828 0.14852 0.0
H181 H 0.15238 0.99624 0.17281 0.0
H182 H 0.27229 0.94187 0.17206 0.0
H183 H 0.17401 0.68881 0.20412 0.0
H184 H 0.19897 0.76911 0.18839 0.0
H185 H 0.10026 0.83714 0.19892 0.0
C186 C 0.17317 0.99684 0.16131 0.0
C187 C 0.23442 0.91929 0.17776 0.0
C188 C 0.17337 0.02714 0.14745 0.0
C189 C 0.16616 0.71868 0.20973 0.0
C190 C 0.18062 0.76475 0.20075 0.0
C191 C 0.13825 0.86032 0.19331 0.0
C192 C 0.19841 0.96678 0.16015 0.0
C193 C 0.19317 0.92922 0.17379 0.0
C194 C 0.16885 0.80327 0.20715 0.0
C195 C 0.17861 0.84887 0.19657 0.0
H196 H 0.24679 1.00038 0.11984 0.0
H197 H 0.24516 0.94696 0.14349 0.0
H198 H 0.11225 0.90541 0.17911 0.0
H199 H 0.11094 0.74545 0.24431 0.0
H200 H 0.1355 0.82528 0.22847 0.0
C201 C 0.15103 0.05024 0.47123 0.0
C202 C 0.17494 0.06119 0.45508 0.0
C203 C 0.1715 0.03478 0.48517 0.0
C204 C 0.25326 0.97466 0.49435 0.0
H205 H 0.27597 0.04175 0.54139 0.0
C206 C 0.39558 0.97229 0.54778 0.0
C207 C 0.38601 0.97526 0.5656 0.0
C208 C 0.36176 0.97292 0.53455 0.0
C209 C 0.2689 0.02166 0.52843 0.0
H210 H 0.23955 0.06499 0.44105 0.0
H211 H 0.27497 0.03819 0.46527 0.0
H212 H 0.23338 0.06412 0.51803 0.0
H213 H 0.33067 0.97643 0.58339 0.0
H214 H 0.27094 0.97604 0.56029 0.0
H215 H 0.28905 0.93246 0.50465 0.0
C216 C 0.24015 0.04105 0.46712 0.0
C217 C 0.24466 0.03474 0.51502 0.0
C218 C 0.22006 0.05691 0.45328 0.0
C219 C 0.33951 0.97454 0.5698 0.0
C220 C 0.30551 0.9749 0.55655 0.0
C221 C 0.27715 0.96127 0.50778 0.0
C222 C 0.21593 0.02942 0.48318 0.0
C223 C 0.23754 0.01221 0.49775 0.0
C224 C 0.31727 0.97613 0.5388 0.0
C225 C 0.28625 0.98538 0.52494 0.0
H226 H 0.11616 0.053 0.47306 0.0
H227 H 0.15189 0.02595 0.49737 0.0
H228 H 0.24742 0.95587 0.48123 0.0
H229 H 0.43099 0.97279 0.54404 0.0
H230 H 0.37239 0.97413 0.52106 0.0
C231 C 0.16447 0.14309 0.8044 0.0
C232 C 0.16256 0.09423 0.80101 0.0
C233 C 0.19855 0.17981 0.81808 0.0
C234 C 0.25179 0.235 0.85419 0.0
H235 H 0.39337 0.25803 0.86155 0.0
C236 C 0.39031 0.36462 0.91415 0.0
C237 C 0.44275 0.40239 0.91065 0.0
C238 C 0.35673 0.32377 0.90145 0.0
C239 C 0.35405 0.25221 0.85964 0.0
H240 H 0.19471 0.04557 0.80949 0.0
H241 H 0.25321 0.10899 0.83326 0.0
H242 H 0.33373 0.19603 0.83747 0.0
H243 H 0.50189 0.42493 0.89141 0.0
H244 H 0.44335 0.35388 0.86929 0.0
H245 H 0.27259 0.29219 0.8761 0.0
C246 C 0.22914 0.11945 0.82523 0.0
C247 C 0.31967 0.21631 0.84594 0.0
C248 C 0.19523 0.08289 0.81163 0.0
C249 C 0.46173 0.39653 0.89455 0.0
C250 C 0.42815 0.35568 0.88186 0.0
C251 C 0.28617 0.27087 0.86792 0.0
C252 C 0.23143 0.16844 0.8286 0.0
C253 C 0.26813 0.20727 0.84304 0.0
C254 C 0.37485 0.31969 0.88498 0.0
C255 C 0.33774 0.27995 0.8708 0.0
H256 H 0.13991 0.15311 0.79646 0.0
H257 H 0.19973 0.21745 0.82023 0.0
H258 H 0.21221 0.22858 0.85243 0.0
H259 H 0.37447 0.36775 0.92645 0.0
H260 H 0.3162 0.29599 0.9044 0.0
C261 C 0.91609 0.05125 0.73102 0.0
C262 C 0.96187 0.06346 0.72226 0.0
C263 C 0.87123 0.04562 0.72179 0.0
C264 C 0.80657 0.00838 0.67728 0.0
H265 H 0.72365 0.06903 0.69338 0.0
C266 C 0.65056 0.01371 0.63143 0.0
C267 C 0.6047 0.00894 0.63826 0.0
C268 C 0.69077 0.01647 0.64254 0.0
C269 C 0.74577 0.05097 0.68884 0.0
H270 H 0.99713 0.08215 0.69709 0.0
H271 H 0.91912 0.07223 0.68109 0.0
H272 H 0.80165 0.08497 0.71137 0.0
H273 H 0.56446 1.00139 0.66218 0.0
H274 H 0.63445 0.00499 0.68162 0.0
H275 H 0.75093 0.97383 0.65491 0.0
C276 C 0.9177 0.06636 0.69504 0.0
C277 C 0.79063 0.06039 0.69912 0.0
C278 C 0.96257 0.07244 0.70427 0.0
C279 C 0.59924 0.00505 0.65647 0.0
C280 C 0.63962 0.00765 0.66764 0.0
C281 C 0.76161 0.99854 0.66712 0.0
C282 C 0.87111 0.05161 0.70359 0.0
C283 C 0.82204 0.04 0.69327 0.0
C284 C 0.68626 0.01415 0.66082 0.0
C285 C 0.73112 0.02051 0.67257 0.0
H286 H 0.91418 0.04411 0.74487 0.0
H287 H 0.83589 0.03426 0.72872 0.0
H288 H 0.82927 0.99106 0.67262 0.0
H289 H 0.65632 0.01696 0.61749 0.0
H290 H 0.72629 0.02231 0.63678 0.0
C291 C 0.98713 0.95255 0.0607 0.0
C292 C 0.03947 0.97331 0.05593 0.0
C293 C 0.94454 0.91071 0.05023 0.0
C294 C 0.91586 0.80437 0.01507 0.0
H295 H 0.78341 0.80104 0.00686 0.0
C296 C 0.76316 0.68168 0.95693 0.0
C297 C 0.70916 0.65434 0.96028 0.0
C298 C 0.8018 0.71545 0.97011 0.0
C299 C 0.81997 0.80109 0.00922 0.0
H300 H 0.08793 0.96802 0.03608 0.0
H301 H 0.01432 0.89704 0.01773 0.0
H302 H 0.85358 0.87157 0.02689 0.0
H303 H 0.65351 0.63969 0.98029 0.0
H304 H 0.7211 0.69921 1.00321 0.0
H305 H 0.88282 0.73502 0.99688 0.0
C306 C 0.00585 0.91133 0.0298 0.0
C307 C 0.86016 0.84144 0.02072 0.0
C308 C 0.04817 0.95249 0.04029 0.0
C309 C 0.69478 0.66011 0.97727 0.0
C310 C 0.73338 0.69447 0.99037 0.0
C311 C 0.87596 0.76449 0.00344 0.0
C312 C 0.95351 0.8892 0.03474 0.0
C313 C 0.90899 0.84411 0.02358 0.0
C314 C 0.78719 0.72308 0.98685 0.0
C315 C 0.82787 0.76282 1.00022 0.0
H316 H 0.9792 0.96766 0.07271 0.0
H317 H 0.90477 0.89449 0.05449 0.0
H318 H 0.95235 0.80423 0.01728 0.0
H319 H 0.77554 0.67809 0.94399 0.0
H320 H 0.84299 0.73725 0.96699 0.0
C321 C 0.96679 0.90517 0.38526 0.0
C322 C 0.00711 0.95279 0.37891 0.0
C323 C 0.94155 0.85735 0.37444 0.0
C324 C 0.91818 0.80099 0.32836 0.0
H325 H 0.93776 0.69054 0.34746 0.0
C326 C 0.94848 0.65477 0.28492 0.0
C327 C 0.93852 0.60592 0.29119 0.0
C328 C 0.93836 0.6893 0.29505 0.0
C329 C 0.93037 0.71995 0.34193 0.0
H330 H 0.05011 0.98864 0.35602 0.0
H331 H 0.00536 0.9058 0.3371 0.0
H332 H 0.95267 0.76654 0.3666 0.0
H333 H 0.90488 0.55249 0.31214 0.0
H334 H 0.8852 0.61172 0.3295 0.0
H335 H 0.89684 0.75513 0.30361 0.0
C336 C 0.99348 0.90511 0.35042 0.0
C337 C 0.93914 0.76373 0.35298 0.0
C338 C 0.01938 0.95246 0.36129 0.0
C339 C 0.91368 0.59019 0.30705 0.0
C340 C 0.90284 0.62444 0.31708 0.0
C341 C 0.90862 0.75678 0.31735 0.0
C342 C 0.95536 0.85678 0.35699 0.0
C343 C 0.93507 0.80564 0.34616 0.0
C344 C 0.91728 0.67553 0.3116 0.0
C345 C 0.91667 0.7167 0.32383 0.0
H346 H 0.9567 0.9043 0.39881 0.0
H347 H 0.91226 0.82057 0.37981 0.0
H348 H 0.91421 0.83253 0.32282 0.0
H349 H 0.96762 0.66821 0.27276 0.0
H350 H 0.95054 0.72832 0.29036 0.0
C351 C 0.16286 0.05355 0.7089 0.0
C352 C 0.14539 0.00337 0.71571 0.0
C353 C 0.20057 0.0722 0.69625 0.0
C354 C 0.31029 0.11317 0.68179 0.0
H355 H 0.30438 0.02305 0.64176 0.0
C356 C 0.49325 0.14021 0.64678 0.0
C357 C 0.48777 0.12937 0.62842 0.0
C358 C 0.45017 0.13351 0.65598 0.0
C359 C 0.30638 0.04902 0.65275 0.0
H360 H 0.15158 0.93223 0.71386 0.0
H361 H 0.21632 0.96422 0.69149 0.0
H362 H 0.22833 0.99131 0.65981 0.0
H363 H 0.43368 0.10722 0.60522 0.0
H364 H 0.35872 0.09513 0.62132 0.0
H365 H 0.38917 0.17004 0.67509 0.0
C366 C 0.20121 0.98931 0.69604 0.0
C367 C 0.26299 0.03064 0.66315 0.0
C368 C 0.16421 0.97104 0.70888 0.0
C369 C 0.43937 0.11556 0.61937 0.0
C370 C 0.3962 0.10828 0.62859 0.0
C371 C 0.35404 0.13125 0.67153 0.0
C372 C 0.22082 0.04065 0.68993 0.0
C373 C 0.26471 0.06222 0.6779 0.0
C374 C 0.40063 0.11544 0.64704 0.0
C375 C 0.35276 0.09909 0.65701 0.0
H376 H 0.14941 0.0796 0.71394 0.0
H377 H 0.2147 0.11175 0.69166 0.0
H378 H 0.31291 0.13819 0.69317 0.0
H379 H 0.52992 0.15101 0.65417 0.0
H380 H 0.45478 0.13926 0.67021 0.0
C381 C 0.24178 0.26798 0.06591 0.0
C382 C 0.2596 0.23137 0.06496 0.0
C383 C 0.26292 0.31209 0.0555 0.0
C384 C 0.32586 0.35197 0.01376 0.0
H385 H 0.36976 0.49769 0.03025 0.0
C386 C 0.47272 0.57196 0.98985 0.0
C387 C 0.45892 0.56105 0.97164 0.0
C388 C 0.43972 0.53651 1.00181 0.0
C389 C 0.35736 0.45711 0.02545 0.0
H390 H 0.31566 0.21427 0.053 0.0
H391 H 0.35224 0.29078 0.03501 0.0
H392 H 0.33258 0.42611 0.05066 0.0
H393 H 0.39653 0.5077 0.95197 0.0
H394 H 0.33883 0.44628 0.97285 0.0
H395 H 0.35177 0.38249 0.98878 0.0
C396 C 0.3214 0.28498 0.04357 0.0
C397 C 0.33589 0.41616 0.0371 0.0
C398 C 0.30061 0.24127 0.05399 0.0
C399 C 0.40882 0.51697 0.96586 0.0
C400 C 0.37586 0.48151 0.97783 0.0
C401 C 0.34682 0.39259 1.00213 0.0
C402 C 0.30195 0.32015 0.04387 0.0
C403 C 0.32103 0.36337 0.03145 0.0
C404 C 0.39214 0.48947 0.99584 0.0
C405 C 0.36367 0.44585 0.00786 0.0
H406 H 0.21027 0.26159 0.07422 0.0
H407 H 0.24721 0.33858 0.05602 0.0
H408 H 0.31402 0.31154 0.00894 0.0
H409 H 0.5108 0.60576 0.99481 0.0
H410 H 0.45351 0.54394 0.01558 0.0
C411 C 0.07651 0.23397 0.39686 0.0
C412 C 0.12116 0.22854 0.3958 0.0
C413 C 0.07297 0.27281 0.38776 0.0
C414 C 0.14564 0.39638 0.36455 0.0
H415 H 0.01666 0.3317 0.33403 0.0
C416 C 0.11432 0.50287 0.30622 0.0
C417 C 0.06215 0.4893 0.30148 0.0
C418 C 0.12431 0.47698 0.31964 0.0
C419 C 0.05245 0.35105 0.34269 0.0
H420 H 0.19887 0.2625 0.38544 0.0
H421 H 0.19269 0.33077 0.36968 0.0
H422 H 0.02945 0.27805 0.35483 0.0
H423 H 0.98017 0.44169 0.30781 0.0
H424 H 0.99756 0.39905 0.33167 0.0
H425 H 0.16841 0.46974 0.35246 0.0
C426 C 0.16041 0.30465 0.37748 0.0
C427 C 0.05981 0.32003 0.3546 0.0
C428 C 0.16378 0.26538 0.38645 0.0
C429 C 0.02069 0.45214 0.31101 0.0
C430 C 0.03071 0.42735 0.32461 0.0
C431 C 0.13792 0.42789 0.35276 0.0
C432 C 0.11418 0.30747 0.37756 0.0
C433 C 0.10642 0.34221 0.36563 0.0
C434 C 0.08233 0.43785 0.32873 0.0
C435 C 0.09112 0.40556 0.34165 0.0
H436 H 0.04307 0.20652 0.404 0.0
H437 H 0.03712 0.27456 0.3882 0.0
H438 H 0.182 0.41442 0.37293 0.0
H439 H 0.14694 0.53141 0.29901 0.0
H440 H 0.16456 0.48603 0.32235 0.0
loop_
_geom_bond_atom_site_label_1
_geom_bond_atom_site_label_2
_geom_bond_distance
_geom_bond_site_symmetry_2
_ccdc_geom_bond_type
Zn0 O3 2.031 1_545 S
Zn0 O5 2.049 . S
Zn0 O10 2.067 . S
Zn1 O2 1.962 . S
Zn1 O4 1.986 . S
Zn1 O6 1.996 . S
Zn1 O9 1.943 . S
O2 Zn1 1.962 . S
O2 C7 1.254 . S
O3 Zn0 2.031 1_565 S
O3 C7 1.269 1_565 S
O4 Zn1 1.986 . S
O4 C11 1.262 . S
O5 Zn0 2.049 . S
O5 C13 1.260 . S
O6 Zn1 1.996 . S
O6 C13 1.257 . S
C7 O2 1.254 . S
C7 O3 1.269 1_545 S
C8 O9 1.249 . S
C8 O10 1.270 . S
O9 Zn1 1.943 . S
O9 C8 1.249 . S
O10 Zn0 2.067 . S
O10 C8 1.270 . S
C11 O4 1.262 . S
C11 O12 1.232 . S
O12 C11 1.232 . S
C13 O5 1.260 . S
C13 O6 1.257 . S
Zn14 O17 2.031 . S
Zn14 O19 2.049 . S
Zn14 O24 2.067 . S
Zn15 O16 1.962 . S
Zn15 O18 1.986 1_455 S
Zn15 O20 1.996 . S
Zn15 O23 1.943 . S
O16 Zn15 1.962 . S
O16 C21 1.254 . S
O17 Zn14 2.031 . S
O17 C21 1.269 . S
O18 Zn15 1.986 1_655 S
O18 C25 1.262 . S
O19 Zn14 2.049 . S
O19 C27 1.260 . S
O20 Zn15 1.996 . S
O20 C27 1.257 . S
C21 O16 1.254 . S
C21 O17 1.269 . S
C22 O23 1.249 . S
C22 O24 1.270 . S
O23 Zn15 1.943 . S
O23 C22 1.249 . S
O24 Zn14 2.067 . S
O24 C22 1.270 . S
C25 O18 1.262 . S
C25 O26 1.232 . S
O26 C25 1.232 . S
C27 O19 1.260 . S
C27 O20 1.257 . S
Zn28 O31 2.031 1_565 S
Zn28 O33 2.049 . S
Zn28 O38 2.067 1_565 S
Zn29 O30 1.962 1_545 S
Zn29 O32 1.986 1_455 S
Zn29 O34 1.996 1_445 S
Zn29 O37 1.943 . S
O30 Zn29 1.962 1_565 S
O30 C35 1.254 1_565 S
O31 Zn28 2.031 1_545 S
O31 C35 1.269 . S
O32 Zn29 1.986 1_655 S
O32 C39 1.262 . S
O33 Zn28 2.049 . S
O33 C41 1.260 1_455 S
O34 Zn29 1.996 1_665 S
O34 C41 1.257 . S
C35 O30 1.254 1_545 S
C35 O31 1.269 . S
C36 O37 1.249 . S
C36 O38 1.270 . S
O37 Zn29 1.943 . S
O37 C36 1.249 . S
O38 Zn28 2.067 1_545 S
O38 C36 1.270 . S
C39 O32 1.262 . S
C39 O40 1.232 1_655 S
O40 C39 1.232 1_455 S
C41 O33 1.260 1_655 S
C41 O34 1.257 . S
Mg42 O49 2.141 . S
Mg42 O50 2.048 . S
Mg42 O51 2.048 . S
Mg42 O54 2.141 . S
C43 O44 1.306 1_455 S
C43 O50 1.195 . S
O44 C43 1.306 1_655 S
C45 O46 1.245 . S
C45 O54 1.289 . S
O46 C45 1.245 . S
C47 O48 1.245 . S
C47 O49 1.289 . S
O48 C47 1.245 . S
O49 Mg42 2.141 . S
O49 C47 1.289 . S
O50 Mg42 2.048 . S
O50 C43 1.195 . S
O51 Mg42 2.048 . S
O51 C52 1.195 . S
C52 O51 1.195 . S
C52 O53 1.308 1_455 S
O53 C52 1.308 1_655 S
O54 Mg42 2.141 . S
O54 C45 1.289 . S
Mg55 O62 2.141 . S
Mg55 O63 2.048 . S
Mg55 O64 2.048 . S
Mg55 O67 2.141 . S
C56 O57 1.313 . S
C56 O63 1.195 . S
O57 C56 1.313 . S
C58 O59 1.245 1_545 S
C58 O67 1.289 . S
O59 C58 1.245 1_565 S
C60 O61 1.245 1_545 S
C60 O62 1.289 . S
O61 C60 1.245 1_565 S
O62 Mg55 2.141 . S
O62 C60 1.289 . S
O63 Mg55 2.048 . S
O63 C56 1.195 . S
O64 Mg55 2.048 . S
O64 C65 1.195 . S
C65 O64 1.195 . S
C65 O66 1.313 . S
O66 C65 1.313 . S
O67 Mg55 2.141 . S
O67 C58 1.289 . S
Mg68 O75 2.141 . S
Mg68 O76 2.048 . S
Mg68 O77 2.048 . S
Mg68 O80 2.141 . S
C69 O70 1.313 . S
C69 O76 1.195 . S
O70 C69 1.313 . S
C71 O72 1.245 . S
C71 O80 1.289 . S
O72 C71 1.245 . S
C73 O74 1.245 . S
C73 O75 1.289 . S
O74 C73 1.245 . S
O75 Mg68 2.141 . S
O75 C73 1.289 . S
O76 Mg68 2.048 . S
O76 C69 1.195 . S
O77 Mg68 2.048 . S
O77 C78 1.195 . S
C78 O77 1.195 . S
C78 O79 1.313 . S
O79 C78 1.313 . S
O80 Mg68 2.141 . S
O80 C71 1.289 . S
C81 C82 1.349 . S
C81 C83 1.327 . S
C81 H106 0.950 . S
C82 C81 1.349 . S
C82 C98 1.349 . S
C83 C81 1.327 . S
C83 C102 1.429 . S
C83 H107 0.950 . S
C84 C101 1.574 . S
C84 C103 1.368 . S
C84 H108 0.949 . S
H85 C89 0.949 . S
C86 C87 1.349 . S
C86 C88 1.327 . S
C86 H109 0.950 . S
C87 C86 1.349 . S
C87 C99 1.349 . S
C88 C86 1.327 . S
C88 C104 1.429 . S
C88 H110 0.950 . S
C89 H85 0.949 . S
C89 C97 1.574 . S
C89 C105 1.368 . S
H90 C98 0.950 . S
H91 C96 0.950 . S
H92 C97 0.949 . S
H93 C99 0.950 . S
H94 C100 0.950 . S
H95 C101 0.949 . S
C96 H91 0.950 . S
C96 C98 1.327 . S
C96 C102 1.429 . S
C97 C89 1.574 . S
C97 H92 0.949 . S
C97 C103 1.368 . S
C98 C82 1.349 . S
C98 H90 0.950 . S
C98 C96 1.327 . S
C99 C87 1.349 . S
C99 H93 0.950 . S
C99 C100 1.327 . S
C100 H94 0.950 . S
C100 C99 1.327 . S
C100 C104 1.429 . S
C101 C84 1.574 . S
C101 H95 0.949 . S
C101 C105 1.368 . S
C102 C83 1.429 . S
C102 C96 1.429 . S
C102 C103 1.523 . S
C103 C84 1.368 . S
C103 C97 1.368 . S
C103 C102 1.523 . S
C104 C88 1.429 . S
C104 C100 1.429 . S
C104 C105 1.523 . S
C105 C89 1.368 . S
C105 C101 1.368 . S
C105 C104 1.523 . S
H106 C81 0.950 . S
H107 C83 0.950 . S
H108 C84 0.949 . S
H109 C86 0.950 . S
H110 C88 0.950 . S
C111 C112 1.349 . S
C111 C113 1.327 . S
C111 H136 0.950 1_545 S
C112 C111 1.349 . S
C112 C128 1.349 . S
C113 C111 1.327 . S
C113 C132 1.429 . S
C113 H137 0.950 1_545 S
C114 C131 1.574 . S
C114 C133 1.368 . S
C114 H138 0.949 . S
H115 C119 0.949 1_565 S
C116 C117 1.349 . S
C116 C118 1.327 . S
C116 H139 0.950 . S
C117 C116 1.349 . S
C117 C129 1.349 . S
C118 C116 1.327 . S
C118 C134 1.429 . S
C118 H140 0.950 . S
C119 H115 0.949 1_545 S
C119 C127 1.574 . S
C119 C135 1.368 . S
H120 C128 0.950 . S
H121 C126 0.950 . S
H122 C127 0.949 1_565 S
H123 C129 0.950 1_565 S
H124 C130 0.950 1_565 S
H125 C131 0.949 . S
C126 H121 0.950 . S
C126 C128 1.327 . S
C126 C132 1.429 . S
C127 C119 1.574 . S
C127 H122 0.949 1_545 S
C127 C133 1.368 . S
C128 C112 1.349 . S
C128 H120 0.950 . S
C128 C126 1.327 . S
C129 C117 1.349 . S
C129 H123 0.950 1_545 S
C129 C130 1.327 . S
C130 H124 0.950 1_545 S
C130 C129 1.327 . S
C130 C134 1.429 . S
C131 C114 1.574 . S
C131 H125 0.949 . S
C131 C135 1.368 . S
C132 C113 1.429 . S
C132 C126 1.429 . S
C132 C133 1.523 . S
C133 C114 1.368 . S
C133 C127 1.368 . S
C133 C132 1.523 . S
C134 C118 1.429 . S
C134 C130 1.429 . S
C134 C135 1.523 . S
C135 C119 1.368 . S
C135 C131 1.368 . S
C135 C134 1.523 . S
H136 C111 0.950 1_565 S
H137 C113 0.950 1_565 S
H138 C114 0.949 . S
H139 C116 0.950 . S
H140 C118 0.950 . S
C141 C142 1.349 . S
C141 C143 1.327 . S
C141 H166 0.950 . S
C142 C141 1.349 . S
C142 C158 1.349 . S
C143 C141 1.327 . S
C143 C162 1.429 . S
C143 H167 0.950 . S
C144 C161 1.574 . S
C144 C163 1.368 . S
C144 H168 0.949 . S
H145 C149 0.949 . S
C146 C147 1.349 . S
C146 C148 1.327 . S
C146 H169 0.950 . S
C147 C146 1.349 . S
C147 C159 1.349 . S
C148 C146 1.327 . S
C148 C164 1.429 . S
C148 H170 0.950 . S
C149 H145 0.949 . S
C149 C157 1.574 . S
C149 C165 1.368 . S
H150 C158 0.950 . S
H151 C156 0.950 . S
H152 C157 0.949 . S
H153 C159 0.950 . S
H154 C160 0.950 . S
H155 C161 0.949 . S
C156 H151 0.950 . S
C156 C158 1.327 . S
C156 C162 1.429 . S
C157 C149 1.574 . S
C157 H152 0.949 . S
C157 C163 1.368 . S
C158 C142 1.349 . S
C158 H150 0.950 . S
C158 C156 1.327 . S
C159 C147 1.349 . S
C159 H153 0.950 . S
C159 C160 1.327 . S
C160 H154 0.950 . S
C160 C159 1.327 . S
C160 C164 1.429 . S
C161 C144 1.574 . S
C161 H155 0.949 . S
C161 C165 1.368 . S
C162 C143 1.429 . S
C162 C156 1.429 . S
C162 C163 1.523 . S
C163 C144 1.368 . S
C163 C157 1.368 . S
C163 C162 1.523 . S
C164 C148 1.429 . S
C164 C160 1.429 . S
C164 C165 1.523 . S
C165 C149 1.368 . S
C165 C161 1.368 . S
C165 C164 1.523 . S
H166 C141 0.950 . S
H167 C143 0.950 . S
H168 C144 0.949 . S
H169 C146 0.950 . S
H170 C148 0.950 . S
C171 C172 1.349 . S
C171 C173 1.327 . S
C171 H196 0.950 . S
C172 C171 1.349 . S
C172 C188 1.349 . S
C173 C171 1.327 . S
C173 C192 1.429 . S
C173 H197 0.950 . S
C174 C191 1.574 . S
C174 C193 1.368 . S
C174 H198 0.949 . S
H175 C179 0.949 . S
C176 C177 1.349 . S
C176 C178 1.327 . S
C176 H199 0.950 . S
C177 C176 1.349 . S
C177 C189 1.349 . S
C178 C176 1.327 . S
C178 C194 1.429 . S
C178 H200 0.950 . S
C179 H175 0.949 . S
C179 C187 1.574 . S
C179 C195 1.368 . S
H180 C188 0.950 1_545 S
H181 C186 0.950 . S
H182 C187 0.949 . S
H183 C189 0.950 . S
H184 C190 0.950 . S
H185 C191 0.949 . S
C186 H181 0.950 . S
C186 C188 1.327 . S
C186 C192 1.429 . S
C187 C179 1.574 . S
C187 H182 0.949 . S
C187 C193 1.368 . S
C188 C172 1.349 . S
C188 H180 0.950 1_565 S
C188 C186 1.327 . S
C189 C177 1.349 . S
C189 H183 0.950 . S
C189 C190 1.327 . S
C190 H184 0.950 . S
C190 C189 1.327 . S
C190 C194 1.429 . S
C191 C174 1.574 . S
C191 H185 0.949 . S
C191 C195 1.368 . S
C192 C173 1.429 . S
C192 C186 1.429 . S
C192 C193 1.523 . S
C193 C174 1.368 . S
C193 C187 1.368 . S
C193 C192 1.523 . S
C194 C178 1.429 . S
C194 C190 1.429 . S
C194 C195 1.523 . S
C195 C179 1.368 . S
C195 C191 1.368 . S
C195 C194 1.523 . S
H196 C171 0.950 . S
H197 C173 0.950 . S
H198 C174 0.949 . S
H199 C176 0.950 . S
H200 C178 0.950 . S
C201 C202 1.349 . S
C201 C203 1.327 . S
C201 H226 0.950 . S
C202 C201 1.349 . S
C202 C218 1.349 . S
C203 C201 1.327 . S
C203 C222 1.429 . S
C203 H227 0.950 . S
C204 C221 1.574 . S
C204 C223 1.368 . S
C204 H228 0.949 . S
H205 C209 0.949 . S
C206 C207 1.349 . S
C206 C208 1.327 . S
C206 H229 0.950 . S
C207 C206 1.349 . S
C207 C219 1.349 . S
C208 C206 1.327 . S
C208 C224 1.429 . S
C208 H230 0.950 . S
C209 H205 0.949 . S
C209 C217 1.574 . S
C209 C225 1.368 . S
H210 C218 0.950 . S
H211 C216 0.950 . S
H212 C217 0.949 . S
H213 C219 0.950 . S
H214 C220 0.950 . S
H215 C221 0.949 . S
C216 H211 0.950 . S
C216 C218 1.327 . S
C216 C222 1.429 . S
C217 C209 1.574 . S
C217 H212 0.949 . S
C217 C223 1.368 . S
C218 C202 1.349 . S
C218 H210 0.950 . S
C218 C216 1.327 . S
C219 C207 1.349 . S
C219 H213 0.950 . S
C219 C220 1.327 . S
C220 H214 0.950 . S
C220 C219 1.327 . S
C220 C224 1.429 . S
C221 C204 1.574 . S
C221 H215 0.949 . S
C221 C225 1.368 . S
C222 C203 1.429 . S
C222 C216 1.429 . S
C222 C223 1.523 . S
C223 C204 1.368 . S
C223 C217 1.368 . S
C223 C222 1.523 . S
C224 C208 1.429 . S
C224 C220 1.429 . S
C224 C225 1.523 . S
C225 C209 1.368 . S
C225 C221 1.368 . S
C225 C224 1.523 . S
H226 C201 0.950 . S
H227 C203 0.950 . S
H228 C204 0.949 . S
H229 C206 0.950 . S
H230 C208 0.950 . S
C231 C232 1.349 . S
C231 C233 1.327 . S
C231 H256 0.950 . S
C232 C231 1.349 . S
C232 C248 1.349 . S
C233 C231 1.327 . S
C233 C252 1.429 . S
C233 H257 0.950 . S
C234 C251 1.574 . S
C234 C253 1.368 . S
C234 H258 0.949 . S
H235 C239 0.949 . S
C236 C237 1.349 . S
C236 C238 1.327 . S
C236 H259 0.950 . S
C237 C236 1.349 . S
C237 C249 1.349 . S
C238 C236 1.327 . S
C238 C254 1.429 . S
C238 H260 0.950 . S
C239 H235 0.949 . S
C239 C247 1.574 . S
C239 C255 1.368 . S
H240 C248 0.950 . S
H241 C246 0.950 . S
H242 C247 0.949 . S
H243 C249 0.950 . S
H244 C250 0.950 . S
H245 C251 0.949 . S
C246 H241 0.950 . S
C246 C248 1.327 . S
C246 C252 1.429 . S
C247 C239 1.574 . S
C247 H242 0.949 . S
C247 C253 1.368 . S
C248 C232 1.349 . S
C248 H240 0.950 . S
C248 C246 1.327 . S
C249 C237 1.349 . S
C249 H243 0.950 . S
C249 C250 1.327 . S
C250 H244 0.950 . S
C250 C249 1.327 . S
C250 C254 1.429 . S
C251 C234 1.574 . S
C251 H245 0.949 . S
C251 C255 1.368 . S
C252 C233 1.429 . S
C252 C246 1.429 . S
C252 C253 1.523 . S
C253 C234 1.368 . S
C253 C247 1.368 . S
C253 C252 1.523 . S
C254 C238 1.429 . S
C254 C250 1.429 . S
C254 C255 1.523 . S
C255 C239 1.368 . S
C255 C251 1.368 . S
C255 C254 1.523 . S
H256 C231 0.950 . S
H257 C233 0.950 . S
H258 C234 0.949 . S
H259 C236 0.950 . S
H260 C238 0.950 . S
C261 C262 1.349 . S
C261 C263 1.327 . S
C261 H286 0.950 1_545 S
C262 C261 1.349 . S
C262 C278 1.349 . S
C263 C261 1.327 . S
C263 C282 1.429 . S
C263 H287 0.950 1_545 S
C264 C281 1.574 . S
C264 C283 1.368 . S
C264 H288 0.949 . S
H265 C269 0.949 1_565 S
C266 C267 1.349 . S
C266 C268 1.327 . S
C266 H289 0.950 . S
C267 C266 1.349 . S
C267 C279 1.349 . S
C268 C266 1.327 . S
C268 C284 1.429 . S
C268 H290 0.950 . S
C269 H265 0.949 1_545 S
C269 C277 1.574 . S
C269 C285 1.368 . S
H270 C278 0.950 . S
H271 C276 0.950 . S
H272 C277 0.949 1_565 S
H273 C279 0.950 1_565 S
H274 C280 0.950 1_565 S
H275 C281 0.949 . S
C276 H271 0.950 . S
C276 C278 1.327 . S
C276 C282 1.429 . S
C277 C269 1.574 . S
C277 H272 0.949 1_545 S
C277 C283 1.368 . S
C278 C262 1.349 . S
C278 H270 0.950 . S
C278 C276 1.327 . S
C279 C267 1.349 . S
C279 H273 0.950 1_545 S
C279 C280 1.327 . S
C280 H274 0.950 1_545 S
C280 C279 1.327 . S
C280 C284 1.429 . S
C281 C264 1.574 . S
C281 H275 0.949 . S
C281 C285 1.368 . S
C282 C263 1.429 . S
C282 C276 1.429 . S
C282 C283 1.523 . S
C283 C264 1.368 . S
C283 C277 1.368 . S
C283 C282 1.523 . S
C284 C268 1.429 . S
C284 C280 1.429 . S
C284 C285 1.523 . S
C285 C269 1.368 . S
C285 C281 1.368 . S
C285 C284 1.523 . S
H286 C261 0.950 1_565 S
H287 C263 0.950 1_565 S
H288 C264 0.949 . S
H289 C266 0.950 . S
H290 C268 0.950 . S
C291 C292 1.349 . S
C291 C293 1.327 . S
C291 H316 0.950 . S
C292 C291 1.349 . S
C292 C308 1.349 . S
C293 C291 1.327 . S
C293 C312 1.429 . S
C293 H317 0.950 . S
C294 C311 1.574 1_554 S
C294 C313 1.368 . S
C294 H318 0.949 . S
H295 C299 0.949 . S
C296 C297 1.349 . S
C296 C298 1.327 . S
C296 H319 0.950 . S
C297 C296 1.349 . S
C297 C309 1.349 . S
C298 C296 1.327 . S
C298 C314 1.429 . S
C298 H320 0.950 . S
C299 H295 0.949 . S
C299 C307 1.574 . S
C299 C315 1.376 . S
H300 C308 0.950 1_455 S
H301 C306 0.950 . S
H302 C307 0.949 . S
H303 C309 0.950 . S
H304 C310 0.950 1_554 S
H305 C311 0.949 . S
C306 H301 0.950 . S
C306 C308 1.327 . S
C306 C312 1.429 . S
C307 C299 1.574 . S
C307 H302 0.949 . S
C307 C313 1.368 . S
C308 C292 1.349 . S
C308 H300 0.950 1_655 S
C308 C306 1.327 . S
C309 C297 1.349 . S
C309 H303 0.950 . S
C309 C310 1.327 . S
C310 H304 0.950 1_556 S
C310 C309 1.327 . S
C310 C314 1.429 . S
C311 C294 1.574 1_556 S
C311 H305 0.949 . S
C311 C315 1.365 1_556 S
C312 C293 1.429 . S
C312 C306 1.429 . S
C312 C313 1.523 . S
C313 C294 1.368 . S
C313 C307 1.368 . S
C313 C312 1.523 . S
C314 C298 1.429 . S
C314 C310 1.429 . S
C314 C315 1.517 1_556 S
C315 C299 1.376 . S
C315 C311 1.365 1_554 S
C315 C314 1.517 1_554 S
H316 C291 0.950 . S
H317 C293 0.950 . S
H318 C294 0.949 . S
H319 C296 0.950 . S
H320 C298 0.950 . S
C321 C322 1.349 1_655 S
C321 C323 1.327 . S
C321 H346 0.950 . S
C322 C321 1.349 1_455 S
C322 C338 1.349 . S
C323 C321 1.327 . S
C323 C342 1.429 1_655 S
C323 H347 0.950 . S
C324 C341 1.574 . S
C324 C343 1.368 . S
C324 H348 0.949 . S
H325 C329 0.949 . S
C326 C327 1.349 . S
C326 C328 1.327 . S
C326 H349 0.950 . S
C327 C326 1.349 . S
C327 C339 1.349 . S
C328 C326 1.327 . S
C328 C344 1.429 . S
C328 H350 0.950 . S
C329 H325 0.949 . S
C329 C337 1.574 . S
C329 C345 1.368 1_655 S
H330 C338 0.950 1_545 S
H331 C336 0.950 . S
H332 C337 0.949 . S
H333 C339 0.950 1_655 S
H334 C340 0.950 1_655 S
H335 C341 0.949 . S
C336 H331 0.950 . S
C336 C338 1.327 . S
C336 C342 1.429 . S
C337 C329 1.574 . S
C337 H332 0.949 . S
C337 C343 1.368 1_655 S
C338 C322 1.349 . S
C338 H330 0.950 1_565 S
C338 C336 1.327 . S
C339 C327 1.349 . S
C339 H333 0.950 1_455 S
C339 C340 1.327 . S
C340 H334 0.950 1_455 S
C340 C339 1.327 . S
C340 C344 1.429 . S
C341 C324 1.574 . S
C341 H335 0.949 . S
C341 C345 1.368 . S
C342 C323 1.429 1_455 S
C342 C336 1.429 . S
C342 C343 1.523 . S
C343 C324 1.368 . S
C343 C337 1.368 1_455 S
C343 C342 1.523 . S
C344 C328 1.429 . S
C344 C340 1.429 . S
C344 C345 1.523 . S
C345 C329 1.368 1_455 S
C345 C341 1.368 . S
C345 C344 1.523 . S
H346 C321 0.950 . S
H347 C323 0.950 . S
H348 C324 0.949 . S
H349 C326 0.950 . S
H350 C328 0.950 . S
C351 C352 1.349 1_565 S
C351 C353 1.327 . S
C351 H376 0.950 . S
C352 C351 1.349 1_545 S
C352 C368 1.349 . S
C353 C351 1.327 . S
C353 C372 1.429 1_565 S
C353 H377 0.950 . S
C354 C371 1.574 . S
C354 C373 1.368 . S
C354 H378 0.949 . S
H355 C359 0.949 . S
C356 C357 1.349 . S
C356 C358 1.327 . S
C356 H379 0.950 . S
C357 C356 1.349 . S
C357 C369 1.349 . S
C358 C356 1.327 . S
C358 C374 1.429 . S
C358 H380 0.950 . S
C359 H355 0.949 . S
C359 C367 1.574 . S
C359 C375 1.368 1_565 S
H360 C368 0.950 . S
H361 C366 0.950 . S
H362 C367 0.949 . S
H363 C369 0.950 1_565 S
H364 C370 0.950 . S
H365 C371 0.949 . S
C366 H361 0.950 . S
C366 C368 1.327 . S
C366 C372 1.429 . S
C367 C359 1.574 . S
C367 H362 0.949 . S
C367 C373 1.368 1_565 S
C368 C352 1.349 . S
C368 H360 0.950 . S
C368 C366 1.327 . S
C369 C357 1.349 . S
C369 H363 0.950 1_545 S
C369 C370 1.327 1_545 S
C370 H364 0.950 . S
C370 C369 1.327 1_565 S
C370 C374 1.429 1_565 S
C371 C354 1.574 . S
C371 H365 0.949 . S
C371 C375 1.368 . S
C372 C353 1.429 1_545 S
C372 C366 1.429 . S
C372 C373 1.523 . S
C373 C354 1.368 . S
C373 C367 1.368 1_545 S
C373 C372 1.523 . S
C374 C358 1.429 . S
C374 C370 1.429 1_545 S
C374 C375 1.523 . S
C375 C359 1.368 1_545 S
C375 C371 1.368 . S
C375 C374 1.523 . S
H376 C351 0.950 . S
H377 C353 0.950 . S
H378 C354 0.949 . S
H379 C356 0.950 . S
H380 C358 0.950 . S
C381 C382 1.349 . S
C381 C383 1.327 . S
C381 H406 0.950 . S
C382 C381 1.349 . S
C382 C398 1.349 . S
C383 C381 1.327 . S
C383 C402 1.429 . S
C383 H407 0.950 . S
C384 C401 1.574 . S
C384 C403 1.368 . S
C384 H408 0.949 . S
H385 C389 0.949 . S
C386 C387 1.349 . S
C386 C388 1.327 . S
C386 H409 0.950 . S
C387 C386 1.349 . S
C387 C399 1.349 . S
C388 C386 1.327 . S
C388 C404 1.429 . S
C388 H410 0.950 . S
C389 H385 0.949 . S
C389 C397 1.574 1_556 S
C389 C405 1.377 . S
H390 C398 0.950 . S
H391 C396 0.950 . S
H392 C397 0.949 . S
H393 C399 0.950 . S
H394 C400 0.950 . S
H395 C401 0.949 . S
C396 H391 0.950 . S
C396 C398 1.327 . S
C396 C402 1.429 . S
C397 C389 1.574 1_554 S
C397 H392 0.949 . S
C397 C403 1.368 . S
C398 C382 1.349 . S
C398 H390 0.950 . S
C398 C396 1.327 . S
C399 C387 1.349 . S
C399 H393 0.950 . S
C399 C400 1.327 . S
C400 H394 0.950 . S
C400 C399 1.327 . S
C400 C404 1.429 . S
C401 C384 1.574 . S
C401 H395 0.949 . S
C401 C405 1.326 1_554 S
C402 C383 1.429 . S
C402 C396 1.429 . S
C402 C403 1.523 . S
C403 C384 1.368 . S
C403 C397 1.368 . S
C403 C402 1.523 . S
C404 C388 1.429 . S
C404 C400 1.429 . S
C404 C405 1.569 . S
C405 C389 1.377 . S
C405 C401 1.326 1_556 S
C405 C404 1.569 . S
H406 C381 0.950 . S
H407 C383 0.950 . S
H408 C384 0.949 . S
H409 C386 0.950 . S
H410 C388 0.950 . S
C411 C412 1.349 . S
C411 C413 1.327 . S
C411 H436 0.950 . S
C412 C411 1.349 . S
C412 C428 1.349 . S
C413 C411 1.327 . S
C413 C432 1.429 . S
C413 H437 0.950 . S
C414 C431 1.574 . S
C414 C433 1.368 . S
C414 H438 0.949 . S
H415 C419 0.949 . S
C416 C417 1.349 . S
C416 C418 1.327 . S
C416 H439 0.950 . S
C417 C416 1.349 . S
C417 C429 1.349 . S
C418 C416 1.327 . S
C418 C434 1.429 . S
C418 H440 0.950 . S
C419 H415 0.949 . S
C419 C427 1.574 . S
C419 C435 1.368 . S
H420 C428 0.950 . S
H421 C426 0.950 . S
H422 C427 0.949 . S
H423 C429 0.950 . S
H424 C430 0.950 . S
H425 C431 0.949 . S
C426 H421 0.950 . S
C426 C428 1.327 . S
C426 C432 1.429 . S
C427 C419 1.574 . S
C427 H422 0.949 . S
C427 C433 1.368 . S
C428 C412 1.349 . S
C428 H420 0.950 . S
C428 C426 1.327 . S
C429 C417 1.349 . S
C429 H423 0.950 . S
C429 C430 1.327 . S
C430 H424 0.950 . S
C430 C429 1.327 . S
C430 C434 1.429 . S
C431 C414 1.574 . S
C431 H425 0.949 . S
C431 C435 1.368 . S
C432 C413 1.429 . S
C432 C426 1.429 . S
C432 C433 1.523 . S
C433 C414 1.368 . S
C433 C427 1.368 . S
C433 C432 1.523 . S
C434 C418 1.429 . S
C434 C430 1.429 . S
C434 C435 1.523 . S
C435 C419 1.368 . S
C435 C431 1.368 . S
C435 C434 1.523 . S
H436 C411 0.950 . S
H437 C413 0.950 . S
H438 C414 0.949 . S
H439 C416 0.950 . S
H440 C418 0.950 . S
C87 C47 1.223 . S
C82 C11 1.216 . S
C112 C25 1.356 . S
C117 C65 1.369 . S
C142 C41 1.335 . S
C147 C78 1.398 . S
C172 C7 1.285 1_565 S
C177 C45 1.280 . S
C207 C56 1.423 . S
C202 C21 1.425 . S
C232 C36 1.382 . S
C237 C69 1.448 . S
C267 C58 1.285 . S
C262 C39 1.272 . S
C292 C8 1.301 1_665 S
C297 C71 1.362 . S
C327 C52 1.493 . S
C322 C22 1.432 1_565 S
C357 C60 1.324 . S
C352 C35 1.336 . S
C387 C73 1.313 . S
C382 C13 1.256 . S
C412 C27 1.378 . S
C417 C43 1.440 . S
