# Generated by pormake.
# Topology nia, (6,6)-cn, num edge types: 1
# Building blocks:
#     Node 0, Type 0, BuildingBlock: BETFEN_clean_sbu_0, # of connection points: 6
#     Node 1, Type 0, BuildingBlock: BETFEN_clean_sbu_0, # of connection points: 6
#     Node 2, Type 1, BuildingBlock: MIDCAF_clean_sbu_0, # of connection points: 6
#     Node 3, Type 1, BuildingBlock: MIDCAF_clean_sbu_0, # of connection points: 6
#     Edge 4, Type (0, 1), BuildingBlock: XUDNAN_clean_linker_2, # of connection points: 2
#     Edge 5, Type (0, 1), BuildingBlock: XUDNAN_clean_linker_2, # of connection points: 2
#     Edge 6, Type (0, 1), BuildingBlock: XUDNAN_clean_linker_2, # of connection points: 2
#     Edge 7, Type (0, 1), BuildingBlock: XUDNAN_clean_linker_2, # of connection points: 2
#     Edge 8, Type (0, 1), BuildingBlock: XUDNAN_clean_linker_2, # of connection points: 2
#     Edge 9, Type (0, 1), BuildingBlock: XUDNAN_clean_linker_2, # of connection points: 2
#     Edge 10, Type (0, 1), BuildingBlock: XUDNAN_clean_linker_2, # of connection points: 2
#     Edge 11, Type (0, 1), BuildingBlock: XUDNAN_clean_linker_2, # of connection points: 2
#     Edge 12, Type (0, 1), BuildingBlock: XUDNAN_clean_linker_2, # of connection points: 2
#     Edge 13, Type (0, 1), BuildingBlock: XUDNAN_clean_linker_2, # of connection points: 2
#     Edge 14, Type (0, 1), BuildingBlock: XUDNAN_clean_linker_2, # of connection points: 2
#     Edge 15, Type (0, 1), BuildingBlock: XUDNAN_clean_linker_2, # of connection points: 2
# Relax obj value: 0.219
# Max RMSD: 0.279
# Mean RMSD: 0.217
data_MOF--net-nia--node1-BETFEN_clean_sbu_0--node2-MIDCAF_clean_sbu_0--edge1-XUDNAN_clean_linker_2
_symmetry_space_group_name_H-M    P1
_symmetry_Int_Tables_number       1
_symmetry_cell_setting            triclinic
loop_
_symmetry_equiv_pos_as_xyz
'x, y, z'
_cell_length_a     28.784048
_cell_length_b     28.793011
_cell_length_c     32.628532
_cell_angle_alpha  89.384715
_cell_angle_beta   88.830888
_cell_angle_gamma 136.51849
loop_
_atom_site_label
_atom_site_type_symbol
_atom_site_fract_x
_atom_site_fract_y
_atom_site_fract_z
_atom_type_partial_charge
Pr0 Pr 0.97894 0.03915 1.00607 0.0
Pr1 Pr 0.02201 0.97579 0.04784 0.0
C2 C 0.928 0.08542 0.98452 0.0
C3 C 0.90926 0.10271 0.9502 0.0
C4 C 0.95744 0.16628 0.9296 0.0
C5 C 0.93727 0.18543 0.90146 0.0
C6 C 0.86852 0.14159 0.89345 0.0
C7 C 0.82084 0.07695 0.91274 0.0
C8 C 0.84095 0.05787 0.94086 0.0
C9 C 0.09824 0.08657 0.97346 0.0
C10 C 0.05869 0.09731 0.09478 0.0
C11 C 0.07 0.92536 0.06563 0.0
C12 C 0.08201 0.89723 0.09611 0.0
C13 C 0.09783 0.91858 0.13666 0.0
C14 C 0.11553 0.89541 0.16348 0.0
C15 C 0.11781 0.85067 0.15012 0.0
C16 C 0.10025 0.82845 0.10967 0.0
C17 C 0.08243 0.85136 0.0831 0.0
C18 C 0.90525 0.93041 0.08262 0.0
C19 C 0.94631 0.92147 0.95773 0.0
O20 O -0.00787 0.12531 0.9911 0.0
O21 O 0.89067 0.02147 0.99197 0.0
O22 O 0.0797 0.07393 1.01085 0.0
O23 O 0.057 0.08007 0.95115 0.0
O24 O 0.07847 0.0684 0.08861 0.0
O25 O 0.01413 0.08562 0.07147 0.0
O26 O 0.00808 0.88759 0.05454 0.0
O27 O 0.10628 0.98954 0.06689 0.0
O28 O 0.92147 0.94221 0.04478 0.0
O29 O 0.94553 0.93372 0.10341 0.0
O30 O 0.92458 0.94834 0.96421 0.0
O31 O -0.00883 0.93418 0.98123 0.0
H32 H 0.01046 0.2022 0.93622 0.0
H33 H 0.97532 0.23538 0.88685 0.0
H34 H 0.76739 0.0423 0.90789 0.0
H35 H 0.80247 0.00889 0.9566 0.0
H36 H 0.0978 0.95407 0.14732 0.0
H37 H 0.12809 0.91307 0.19449 0.0
H38 H 0.10271 0.79525 0.09787 0.0
H39 H 0.07096 0.83478 0.0518 0.0
Pr40 Pr 0.98378 0.04677 0.54579 0.0
Pr41 Pr 0.01313 0.96318 0.51294 0.0
C42 C 0.96027 0.12031 0.55866 0.0
C43 C 0.94517 0.14339 0.59127 0.0
C44 C 0.88581 0.09704 0.61629 0.0
C45 C 0.86745 0.11968 0.64287 0.0
C46 C 0.90827 0.18899 0.64517 0.0
C47 C 0.96949 0.23546 0.62188 0.0
C48 C -0.01243 0.21278 0.59499 0.0
C49 C 0.92446 0.93137 0.59181 0.0
C50 C 0.90423 0.9489 0.46535 0.0
C51 C 0.01292 0.87089 0.50015 0.0
C52 C 0.05372 0.86495 0.47812 0.0
C53 C 0.02715 0.82338 0.44424 0.0
C54 C 0.06478 0.81711 0.42277 0.0
C55 C 0.12972 0.8519 0.43492 0.0
C56 C 0.15607 0.89319 0.46905 0.0
C57 C 0.11858 0.89976 0.49037 0.0
C58 C 0.09548 0.0881 0.46955 0.0
C59 C 0.10087 0.07095 0.5891 0.0
O60 O 0.91272 0.05586 0.55085 0.0
O61 O 0.02155 0.14744 0.55575 0.0
O62 O 0.92976 0.9371 0.55323 0.0
O63 O 0.94565 0.98472 0.60814 0.0
O64 O 0.92031 0.91769 0.47577 0.0
O65 O 0.92892 0.00352 0.48357 0.0
O66 O 0.03783 0.90769 0.53276 0.0
O67 O 0.981 0.87746 0.47729 0.0
O68 O 0.05316 0.06409 0.49831 0.0
O69 O 0.09891 0.0463 0.46238 0.0
O70 O 0.08284 0.10038 0.57831 0.0
O71 O 0.0748 0.01434 0.57284 0.0
H72 H 0.85221 0.04317 0.61431 0.0
H73 H 0.82022 0.08288 0.66072 0.0
H74 H 0.00152 0.28913 0.62271 0.0
H75 H 0.03339 0.24941 0.57587 0.0
H76 H 0.97714 0.79577 0.43426 0.0
H77 H 0.04314 0.78538 0.39646 0.0
H78 H 0.20534 0.91965 0.4798 0.0
H79 H 0.14041 0.93191 0.5165 0.0
Zn80 Zn 0.33709 0.63043 0.20283 0.0
Zn81 Zn 0.36733 0.6459 0.36437 0.0
Zn82 Zn 0.3626 0.64028 0.28229 0.0
C83 C 0.5001 0.72896 0.32763 0.0
C84 C 0.29191 0.51328 0.34584 0.0
O85 O 0.31655 0.676 0.26659 0.0
O86 O 0.28822 0.65463 0.20165 0.0
C87 C 0.4796 0.72431 0.21237 0.0
O88 O 0.46978 0.70774 0.29352 0.0
O89 O 0.46745 0.71036 0.36139 0.0
O90 O 0.30867 0.54855 0.37647 0.0
O91 O 0.308 0.53919 0.30906 0.0
O92 O 0.43571 0.70134 0.18632 0.0
O93 O 0.46225 0.70596 0.25054 0.0
O94 O 0.2997 0.53452 0.26566 0.0
O95 O 0.28344 0.53384 0.19944 0.0
C96 C 0.27471 0.5034 0.23175 0.0
O97 O 0.32723 0.68216 0.30885 0.0
O98 O 0.33303 0.68352 0.37658 0.0
C99 C 0.29011 0.67679 0.23539 0.0
C100 C 0.31938 0.69556 0.34437 0.0
Zn101 Zn 0.67181 0.39001 0.85261 0.0
Zn102 Zn 0.62694 0.35613 0.69467 0.0
Zn103 Zn 0.64008 0.37459 0.77641 0.0
C104 C 0.71012 0.49525 0.71014 0.0
C105 C 0.49807 0.27937 0.73199 0.0
O106 O 0.68117 0.33447 0.7946 0.0
O107 O 0.71609 0.36144 0.85809 0.0
C108 C 0.73039 0.51416 0.82463 0.0
O109 O 0.69986 0.47517 0.74793 0.0
O110 O 0.68299 0.4535 0.68182 0.0
O111 O 0.52737 0.28991 0.69831 0.0
O112 O 0.53162 0.30702 0.76488 0.0
O113 O 0.72663 0.48611 0.8564 0.0
O114 O 0.70215 0.481 0.79163 0.0
O115 O 0.53996 0.30846 0.80851 0.0
O116 O 0.57537 0.32298 0.87122 0.0
C117 C 0.52747 0.29485 0.8474 0.0
O118 O 0.68549 0.34293 0.75108 0.0
O119 O 0.66859 0.32465 0.68465 0.0
C120 C 0.70746 0.33307 0.82561 0.0
C121 C 0.69354 0.32695 0.71688 0.0
H122 H 0.0714 0.72705 0.15603 0.0
H123 H 0.22162 0.9286 0.20361 0.0
H124 H 0.27235 0.89933 0.24003 0.0
H125 H 0.05788 0.63594 0.24534 0.0
H126 H 0.05103 0.58098 0.21301 0.0
H127 H 0.01856 0.61283 0.19673 0.0
H128 H 0.09175 0.66219 0.12942 0.0
H129 H 0.12406 0.63009 0.14484 0.0
H130 H 0.18166 0.71872 0.13181 0.0
H131 H 0.31826 0.85473 0.26141 0.0
H132 H 0.3534 0.79784 0.26625 0.0
H133 H 0.17391 0.62605 0.20493 0.0
C134 C 0.11431 0.76482 0.17463 0.0
C135 C 0.14232 0.83019 0.17689 0.0
C136 C 0.19834 0.87782 0.20184 0.0
C137 C 0.22776 0.86172 0.22256 0.0
C138 C 0.20038 0.79764 0.2183 0.0
C139 C 0.14446 0.74975 0.19521 0.0
C140 C 0.12881 0.68713 0.19192 0.0
C141 C 0.06 0.62558 0.21303 0.0
C142 C 0.1318 0.67381 0.14684 0.0
C143 C 0.18625 0.70825 0.21533 0.0
C144 C 0.22649 0.77174 0.2309 0.0
C145 C 0.28603 0.80424 0.25039 0.0
C146 C 0.3053 0.77139 0.25346 0.0
C147 C 0.26492 0.70666 0.23753 0.0
C148 C 0.20455 0.67473 0.21849 0.0
H149 H 0.16677 0.03909 0.61108 0.0
H150 H 0.14947 0.17311 0.63946 0.0
H151 H 0.23671 0.22742 0.69081 0.0
H152 H 0.20433 0.02486 0.71682 0.0
H153 H 0.26372 0.02539 0.69723 0.0
H154 H 0.19206 0.98954 0.66784 0.0
H155 H 0.27223 0.06924 0.60564 0.0
H156 H 0.34363 0.10449 0.63467 0.0
H157 H 0.33969 0.15909 0.61239 0.0
H158 H 0.33575 0.27686 0.73223 0.0
H159 H 0.44369 0.32266 0.75512 0.0
H160 H 0.39646 0.15688 0.70015 0.0
C161 C 0.18023 0.07891 0.62868 0.0
C162 C 0.15106 0.10165 0.62125 0.0
C163 C 0.17109 0.15476 0.64449 0.0
C164 C 0.2202 0.18555 0.67406 0.0
C165 C 0.24858 0.16246 0.68026 0.0
C166 C 0.22936 0.11037 0.65812 0.0
C167 C 0.27285 0.10009 0.66706 0.0
C168 C 0.2307 0.03085 0.68852 0.0
C169 C 0.30926 0.10881 0.62761 0.0
C170 C 0.32178 0.15674 0.69605 0.0
C171 C 0.30587 0.19104 0.70423 0.0
C172 C 0.34772 0.24939 0.72693 0.0
C173 C 0.40856 0.2747 0.74022 0.0
C174 C 0.42685 0.24178 0.73062 0.0
C175 C 0.38207 0.18125 0.70924 0.0
H176 H 0.02535 0.16115 0.11947 0.0
H177 H 0.16259 0.14691 0.14335 0.0
H178 H 0.22218 0.23927 0.19172 0.0
H179 H 0.14321 0.33254 0.11482 0.0
H180 H 0.09154 0.33906 0.13938 0.0
H181 H 0.05245 0.26426 0.11274 0.0
H182 H 0.981 0.1909 0.17855 0.0
H183 H 0.02008 0.26582 0.20551 0.0
H184 H 0.02268 0.20921 0.22562 0.0
H185 H 0.27958 0.34617 0.22621 0.0
H186 H 0.3277 0.45665 0.24503 0.0
H187 H 0.15014 0.39813 0.20324 0.0
C188 C 0.06688 0.17621 0.13561 0.0
C189 C 0.08926 0.14671 0.12755 0.0
C190 C 0.14426 0.16848 0.14907 0.0
C191 C 0.17832 0.2208 0.17676 0.0
C192 C 0.15613 0.25012 0.1831 0.0
C193 C 0.10114 0.22805 0.16346 0.0
C194 C 0.09147 0.27216 0.17234 0.0
C195 C 0.09493 0.30388 0.13246 0.0
C196 C 0.02484 0.23212 0.19698 0.0
C197 C 0.15177 0.32471 0.19821 0.0
C198 C 0.18784 0.31049 0.20471 0.0
C199 C 0.25015 0.35624 0.22312 0.0
C200 C 0.27667 0.4184 0.23452 0.0
C201 C 0.24035 0.43356 0.22834 0.0
C202 C 0.17701 0.38593 0.21024 0.0
H203 H 0.78433 0.13884 0.64143 0.0
H204 H 0.97734 0.29366 0.69794 0.0
H205 H 0.93905 0.3405 0.72814 0.0
H206 H 0.76912 0.24146 0.6107 0.0
H207 H 0.679 0.18018 0.62008 0.0
H208 H 0.71705 0.15246 0.60873 0.0
H209 H 0.66348 0.0792 0.67579 0.0
H210 H 0.62531 0.10668 0.68832 0.0
H211 H 0.67927 0.11747 0.72407 0.0
H212 H 0.88399 0.37732 0.74543 0.0
H213 H 0.81598 0.40017 0.7493 0.0
H214 H 0.66084 0.22261 0.6797 0.0
C215 C 0.81773 0.18126 0.66126 0.0
C216 C 0.88343 0.21227 0.66783 0.0
C217 C 0.92667 0.26915 0.69275 0.0
C218 C 0.90526 0.29584 0.71009 0.0
C219 C 0.84069 0.26511 0.70198 0.0
C220 C 0.79746 0.20881 0.67832 0.0
C221 C 0.73315 0.18877 0.671 0.0
C222 C 0.72412 0.19089 0.6249 0.0
C223 C 0.67165 0.1189 0.691 0.0
C224 C 0.74784 0.244 0.69293 0.0
C225 C 0.80961 0.28697 0.71121 0.0
C226 C 0.83523 0.34352 0.73169 0.0
C227 C 0.7965 0.35619 0.73365 0.0
C228 C 0.73322 0.31264 0.71513 0.0
C229 C 0.70891 0.25622 0.69435 0.0
H230 H 0.81493 0.83284 0.14186 0.0
H231 H 0.86586 0.99007 0.06619 0.0
H232 H 0.76758 0.96095 0.09645 0.0
H233 H 0.63688 0.71339 0.13258 0.0
H234 H 0.61584 0.67873 0.18423 0.0
H235 H 0.69282 0.71521 0.15862 0.0
H236 H 0.76331 0.79825 0.21802 0.0
H237 H 0.68489 0.75825 0.24335 0.0
H238 H 0.75089 0.84857 0.23393 0.0
H239 H 0.6609 0.91057 0.13153 0.0
H240 H 0.54917 0.8389 0.16701 0.0
H241 H 0.56665 0.71441 0.22133 0.0
C242 C 0.80541 0.8613 0.13202 0.0
C243 C 0.84686 0.9129 0.10113 0.0
C244 C 0.83313 0.94897 0.08872 0.0
C245 C 0.77815 0.93345 0.10628 0.0
C246 C 0.73752 0.88167 0.13632 0.0
C247 C 0.75016 0.84583 0.14899 0.0
C248 C 0.69581 0.7894 0.17964 0.0
C249 C 0.65811 0.7201 0.16274 0.0
C250 C 0.72563 0.79938 0.22122 0.0
C251 C 0.65071 0.79921 0.18233 0.0
C252 C 0.67605 0.853 0.15714 0.0
C253 C 0.64111 0.86912 0.15189 0.0
C254 C 0.5779 0.82834 0.17216 0.0
C255 C 0.55062 0.7726 0.19765 0.0
C256 C 0.58789 0.75847 0.20334 0.0
H257 H 0.83422 0.80007 0.56986 0.0
H258 H 0.96482 0.93379 0.66719 0.0
H259 H 0.92818 0.83742 0.70726 0.0
H260 H 0.69701 0.66267 0.63696 0.0
H261 H 0.6725 0.59827 0.60425 0.0
H262 H 0.71291 0.67856 0.58224 0.0
H263 H 0.80559 0.69428 0.54748 0.0
H264 H 0.76553 0.61405 0.56945 0.0
H265 H 0.85308 0.68924 0.57841 0.0
H266 H 0.88053 0.7264 0.73496 0.0
H267 H 0.81564 0.60773 0.7516 0.0
H268 H 0.7051 0.54533 0.64076 0.0
C269 C 0.85531 0.80891 0.59949 0.0
C270 C 0.9025 0.874 0.61551 0.0
C271 C 0.92844 0.88396 0.65459 0.0
C272 C 0.90821 0.82972 0.6774 0.0
C273 C 0.86116 0.76584 0.66089 0.0
C274 C 0.83429 0.75507 0.6231 0.0
C275 C 0.78131 0.68095 0.61346 0.0
C276 C 0.71183 0.65352 0.60898 0.0
C277 C 0.80268 0.66894 0.57492 0.0
C278 C 0.78254 0.65167 0.65169 0.0
C279 C 0.82974 0.7015 0.67838 0.0
C280 C 0.84203 0.68679 0.71484 0.0
C281 C 0.80398 0.61914 0.72459 0.0
C282 C 0.75258 0.56695 0.69894 0.0
C283 C 0.74293 0.58391 0.6616 0.0
H284 H 0.08308 0.7361 0.40395 0.0
H285 H 0.26612 0.94959 0.41648 0.0
H286 H 0.33333 0.93423 0.3864 0.0
H287 H 0.14542 0.67562 0.43178 0.0
H288 H 0.10165 0.60986 0.39513 0.0
H289 H 0.06673 0.63892 0.41227 0.0
H290 H 0.06321 0.66485 0.3371 0.0
H291 H 0.09984 0.63768 0.319 0.0
H292 H 0.13956 0.72107 0.30521 0.0
H293 H 0.3817 0.89339 0.36505 0.0
H294 H 0.40766 0.82972 0.35099 0.0
H295 H 0.19389 0.64406 0.34826 0.0
C296 C 0.13705 0.78008 0.39923 0.0
C297 C 0.16929 0.84403 0.41284 0.0
C298 C 0.24031 0.89989 0.40695 0.0
C299 C 0.27887 0.89184 0.38946 0.0
C300 C 0.24566 0.82786 0.37735 0.0
C301 C 0.17626 0.77305 0.38146 0.0
C302 C 0.15362 0.70879 0.3687 0.0
C303 C 0.11459 0.65518 0.40409 0.0
C304 C 0.11156 0.68147 0.33022 0.0
C305 C 0.22139 0.73537 0.35911 0.0
C306 C 0.27376 0.80446 0.36368 0.0
C307 C 0.3412 0.83968 0.36032 0.0
C308 C 0.35549 0.80328 0.35251 0.0
C309 C 0.30265 0.73276 0.34778 0.0
C310 C 0.23487 0.69837 0.35069 0.0
H311 H 0.15989 0.13592 0.89572 0.0
H312 H 0.17755 0.08695 1.01655 0.0
H313 H 0.27903 0.11836 0.99258 0.0
H314 H 0.22942 0.08712 0.83556 0.0
H315 H 0.27739 0.15793 0.79959 0.0
H316 H 0.19952 0.12277 0.82296 0.0
H317 H 0.26059 0.23904 0.8502 0.0
H318 H 0.33832 0.27551 0.82589 0.0
H319 H 0.33445 0.28478 0.88006 0.0
H320 H 0.37964 0.15912 0.95835 0.0
H321 H 0.48559 0.22346 0.91866 0.0
H322 H 0.41421 0.25957 0.82077 0.0
C323 C 0.18469 0.13084 0.91677 0.0
C324 C 0.15957 0.10676 0.95778 0.0
C325 C 0.19445 0.10288 0.98481 0.0
C326 C 0.25228 0.12076 0.97143 0.0
C327 C 0.27562 0.14381 0.93096 0.0
C328 C 0.24398 0.15025 0.90405 0.0
C329 C 0.28484 0.1839 0.86361 0.0
C330 C 0.24542 0.13502 0.82835 0.0
C331 C 0.30581 0.24973 0.85443 0.0
C332 C 0.34546 0.1977 0.87291 0.0
C333 C 0.33743 0.1719 0.9115 0.0
C334 C 0.38659 0.17947 0.92804 0.0
C335 C 0.44679 0.21641 0.9052 0.0
C336 C 0.4583 0.24666 0.86641 0.0
C337 C 0.40622 0.23578 0.84966 0.0
H338 H 0.07871 0.16998 0.47588 0.0
H339 H 0.18946 0.14483 0.40714 0.0
H340 H 0.24538 0.24662 0.36417 0.0
H341 H 0.05255 0.22897 0.38949 0.0
H342 H 0.06322 0.2885 0.41909 0.0
H343 H 0.03035 0.21255 0.44364 0.0
H344 H 0.12489 0.2837 0.49603 0.0
H345 H 0.15781 0.35984 0.47195 0.0
H346 H 0.21199 0.3494 0.47775 0.0
H347 H 0.29441 0.35475 0.33186 0.0
H348 H 0.33467 0.46306 0.31359 0.0
H349 H 0.18795 0.41511 0.40012 0.0
C350 C 0.11481 0.18604 0.4518 0.0
C351 C 0.13014 0.14993 0.44482 0.0
C352 C 0.17727 0.17206 0.41297 0.0
C353 C 0.20901 0.22956 0.38834 0.0
C354 C 0.19259 0.26395 0.39584 0.0
C355 C 0.14666 0.24312 0.42681 0.0
C356 C 0.13931 0.2901 0.42916 0.0
C357 C 0.06706 0.25279 0.41977 0.0
C358 C 0.15975 0.32269 0.47121 0.0
C359 C 0.18938 0.34146 0.39521 0.0
C360 C 0.2191 0.32505 0.37614 0.0
C361 C 0.26999 0.367 0.34564 0.0
C362 C 0.29154 0.42762 0.33467 0.0
C363 C 0.26145 0.44506 0.35342 0.0
C364 C 0.2099 0.4015 0.38419 0.0
H365 H 0.91457 0.26425 0.89592 0.0
H366 H 0.76814 0.0716 0.83737 0.0
H367 H 0.71792 0.10526 0.80643 0.0
H368 H 0.80864 0.27338 0.92533 0.0
H369 H 0.8662 0.36288 0.91572 0.0
H370 H 0.8986 0.32953 0.92671 0.0
H371 H 0.97099 0.38379 0.85873 0.0
H372 H 0.93944 0.4182 0.84749 0.0
H373 H 0.931 0.3661 0.811 0.0
H374 H 0.6732 0.15324 0.79102 0.0
H375 H 0.64187 0.21386 0.78975 0.0
H376 H 0.81804 0.37425 0.85846 0.0
C377 C 0.87365 0.23009 0.87531 0.0
C378 C 0.8455 0.16539 0.86898 0.0
C379 C 0.79037 0.12134 0.84285 0.0
C380 C 0.76177 0.14018 0.82494 0.0
C381 C 0.78921 0.20342 0.83319 0.0
C382 C 0.84461 0.24807 0.85731 0.0
C383 C 0.86088 0.31035 0.8647 0.0
C384 C 0.85838 0.31949 0.91084 0.0
C385 C 0.92966 0.37334 0.84425 0.0
C386 C 0.80373 0.29213 0.84306 0.0
C387 C 0.76363 0.23096 0.82429 0.0
C388 C 0.70523 0.20191 0.80473 0.0
C389 C 0.68766 0.23644 0.80429 0.0
C390 C 0.72805 0.29887 0.82362 0.0
C391 C 0.78674 0.32687 0.8431 0.0
H392 H 0.82906 0.97201 0.45113 0.0
H393 H 0.86771 0.86057 0.40696 0.0
H394 H 0.77998 0.8073 0.35597 0.0
H395 H 0.65671 0.84004 0.44965 0.0
H396 H 0.64317 0.88972 0.43434 0.0
H397 H 0.71713 0.92809 0.46149 0.0
H398 H 0.79277 0.01912 0.40272 0.0
H399 H 0.71865 0.98039 0.37515 0.0
H400 H 0.78439 -0.00657 0.35089 0.0
H401 H 0.67816 0.7546 0.31711 0.0
H402 H 0.5666 0.70221 0.29618 0.0
H403 H 0.59272 0.84545 0.36718 0.0
C404 C 0.82037 0.93779 0.43 0.0
C405 C 0.8555 0.92079 0.43278 0.0
C406 C 0.8414 0.87439 0.40532 0.0
C407 C 0.79208 0.84432 0.37602 0.0
C408 C 0.75739 0.86124 0.37457 0.0
C409 C 0.77085 0.90681 0.40095 0.0
C410 C 0.72086 0.90989 0.39691 0.0
C411 C 0.68218 0.89075 0.43802 0.0
C412 C 0.7563 0.97988 0.38042 0.0
C413 C 0.67536 0.85679 0.36545 0.0
C414 C 0.69825 0.83056 0.35207 0.0
C415 C 0.66094 0.77633 0.32602 0.0
C416 C 0.59791 0.74712 0.3141 0.0
C417 C 0.57251 0.7713 0.32921 0.0
C418 C 0.61241 0.82772 0.35427 0.0
H419 H 0.97599 0.85329 0.93827 0.0
H420 H 0.85153 0.87951 0.90265 0.0
H421 H 0.79525 0.78865 0.85326 0.0
H422 H -0.0128 0.80307 0.83543 0.0
H423 H 0.98217 0.74287 0.85959 0.0
H424 H 0.02222 0.81925 0.885 0.0
H425 H 0.94194 0.74799 0.94892 0.0
H426 H 0.90179 0.67182 0.92379 0.0
H427 H 0.85183 0.68358 0.94299 0.0
H428 H 0.74089 0.68323 0.81563 0.0
H429 H 0.69052 0.57103 0.79748 0.0
H430 H 0.8492 0.61414 0.85978 0.0
C431 C 0.93827 0.84145 0.91931 0.0
C432 C 0.91833 0.87368 0.92431 0.0
C433 C 0.86792 0.85572 0.89927 0.0
C434 C 0.83591 0.8044 0.87093 0.0
C435 C 0.85538 0.77208 0.86776 0.0
C436 C 0.90579 0.79036 0.89122 0.0
C437 C 0.91174 0.74271 0.88639 0.0
C438 C 0.97988 0.77917 0.86534 0.0
C439 C 0.90113 0.70957 0.92797 0.0
C440 C 0.85413 0.69228 0.85854 0.0
C441 C 0.82336 0.71091 0.84693 0.0
C442 C 0.76541 0.66885 0.8239 0.0
C443 C 0.73712 0.60537 0.8137 0.0
C444 C 0.76646 0.58473 0.82719 0.0
C445 C 0.82648 0.62945 0.8488 0.0
loop_
_geom_bond_atom_site_label_1
_geom_bond_atom_site_label_2
_geom_bond_distance
_geom_bond_site_symmetry_2
_ccdc_geom_bond_type
Pr0 C2 2.880 . S
Pr0 O20 2.562 . S
Pr0 O21 2.490 . S
Pr0 O22 2.695 1_655 S
Pr0 O23 2.512 1_655 S
Pr0 O25 2.426 1_656 S
Pr0 O28 2.436 1_546 S
Pr0 O30 2.438 1_545 S
Pr1 C11 2.880 . S
Pr1 O22 2.436 1_564 S
Pr1 O24 2.438 1_565 S
Pr1 O26 2.562 . S
Pr1 O27 2.490 . S
Pr1 O28 2.695 1_455 S
Pr1 O29 2.512 1_455 S
Pr1 O31 2.437 1_455 S
C2 Pr0 2.880 . S
C2 C3 1.491 . S
C2 O20 1.254 . S
C2 O21 1.225 . S
C3 C2 1.491 . S
C3 C4 1.392 . S
C3 C8 1.356 . S
C4 C3 1.392 . S
C4 C5 1.368 . S
C4 H32 0.929 . S
C5 C4 1.368 . S
C5 C6 1.386 . S
C5 H33 0.929 . S
C6 C5 1.386 . S
C6 C7 1.373 . S
C7 C6 1.373 . S
C7 C8 1.409 . S
C7 H34 0.931 . S
C8 C3 1.356 . S
C8 C7 1.409 . S
C8 H35 0.930 . S
C9 O22 1.270 . S
C9 O23 1.248 . S
C10 O24 1.267 . S
C10 O25 1.297 . S
C11 Pr1 2.880 . S
C11 C12 1.491 . S
C11 O26 1.254 . S
C11 O27 1.225 . S
C12 C11 1.491 . S
C12 C13 1.392 . S
C12 C17 1.356 . S
C13 C12 1.392 . S
C13 C14 1.368 . S
C13 H36 0.929 . S
C14 C13 1.368 . S
C14 C15 1.386 . S
C14 H37 0.929 . S
C15 C14 1.386 . S
C15 C16 1.373 . S
C16 C15 1.373 . S
C16 C17 1.409 . S
C16 H38 0.931 . S
C17 C12 1.356 . S
C17 C16 1.409 . S
C17 H39 0.930 . S
C18 O28 1.270 . S
C18 O29 1.248 . S
C19 O30 1.267 . S
C19 O31 1.278 1_556 S
O20 Pr0 2.562 . S
O20 C2 1.254 . S
O21 Pr0 2.490 . S
O21 C2 1.225 . S
O22 Pr0 2.695 1_455 S
O22 Pr1 2.436 1_546 S
O22 C9 1.270 . S
O23 Pr0 2.512 1_455 S
O23 C9 1.248 . S
O24 Pr1 2.438 1_545 S
O24 C10 1.267 . S
O25 Pr0 2.426 1_454 S
O25 C10 1.297 . S
O26 Pr1 2.562 . S
O26 C11 1.254 . S
O27 Pr1 2.490 . S
O27 C11 1.225 . S
O28 Pr0 2.436 1_564 S
O28 Pr1 2.695 1_655 S
O28 C18 1.270 . S
O29 Pr1 2.512 1_655 S
O29 C18 1.248 . S
O30 Pr0 2.438 1_565 S
O30 C19 1.267 . S
O31 Pr1 2.437 1_655 S
O31 C19 1.278 1_554 S
H32 C4 0.929 . S
H33 C5 0.929 . S
H34 C7 0.931 . S
H35 C8 0.930 . S
H36 C13 0.929 . S
H37 C14 0.929 . S
H38 C16 0.931 . S
H39 C17 0.930 . S
Pr40 C42 2.880 1_455 S
Pr40 O60 2.562 1_455 S
Pr40 O61 2.490 1_455 S
Pr40 O62 2.695 1_445 S
Pr40 O63 2.512 1_445 S
Pr40 O65 2.437 1_445 S
Pr40 O68 2.436 . S
Pr40 O70 2.438 . S
Pr41 C51 2.880 . S
Pr41 O62 2.436 1_455 S
Pr41 O64 2.438 1_455 S
Pr41 O66 2.562 . S
Pr41 O67 2.490 . S
Pr41 O68 2.695 1_565 S
Pr41 O69 2.512 1_565 S
Pr41 O71 2.437 1_565 S
C42 Pr40 2.880 1_655 S
C42 C43 1.491 . S
C42 O60 1.254 . S
C42 O61 1.225 . S
C43 C42 1.491 . S
C43 C44 1.392 . S
C43 C48 1.356 . S
C44 C43 1.392 . S
C44 C45 1.368 . S
C44 H72 0.929 . S
C45 C44 1.368 . S
C45 C46 1.386 . S
C45 H73 0.929 . S
C46 C45 1.386 . S
C46 C47 1.373 . S
C47 C46 1.373 . S
C47 C48 1.409 . S
C47 H74 0.931 . S
C48 C43 1.356 . S
C48 C47 1.409 . S
C48 H75 0.930 . S
C49 O62 1.270 . S
C49 O63 1.248 . S
C50 O64 1.267 . S
C50 O65 1.278 . S
C51 Pr41 2.880 . S
C51 C52 1.491 . S
C51 O66 1.254 . S
C51 O67 1.225 . S
C52 C51 1.491 . S
C52 C53 1.392 . S
C52 C57 1.356 . S
C53 C52 1.392 . S
C53 C54 1.368 . S
C53 H76 0.929 1_565 S
C54 C53 1.368 . S
C54 C55 1.386 . S
C54 H77 0.929 . S
C55 C54 1.386 . S
C55 C56 1.373 . S
C56 C55 1.373 . S
C56 C57 1.409 . S
C56 H78 0.931 . S
C57 C52 1.356 . S
C57 C56 1.409 . S
C57 H79 0.930 . S
C58 O68 1.270 . S
C58 O69 1.248 . S
C59 O70 1.267 . S
C59 O71 1.278 . S
O60 Pr40 2.562 1_655 S
O60 C42 1.254 . S
O61 Pr40 2.490 1_655 S
O61 C42 1.225 . S
O62 Pr40 2.695 1_665 S
O62 Pr41 2.436 1_655 S
O62 C49 1.270 . S
O63 Pr40 2.512 1_665 S
O63 C49 1.248 . S
O64 Pr41 2.438 1_655 S
O64 C50 1.267 . S
O65 Pr40 2.437 1_665 S
O65 C50 1.278 . S
O66 Pr41 2.562 . S
O66 C51 1.254 . S
O67 Pr41 2.490 . S
O67 C51 1.225 . S
O68 Pr40 2.436 . S
O68 Pr41 2.695 1_545 S
O68 C58 1.270 . S
O69 Pr41 2.512 1_545 S
O69 C58 1.248 . S
O70 Pr40 2.438 . S
O70 C59 1.267 . S
O71 Pr41 2.437 1_545 S
O71 C59 1.278 . S
H72 C44 0.929 . S
H73 C45 0.929 . S
H74 C47 0.931 . S
H75 C48 0.930 . S
H76 C53 0.929 1_545 S
H77 C54 0.929 . S
H78 C56 0.931 . S
H79 C57 0.930 . S
Zn80 O86 1.920 . S
Zn80 O92 1.898 . S
Zn80 O95 1.905 . S
Zn81 O89 1.905 . S
Zn81 O90 1.898 . S
Zn81 O98 1.920 . S
Zn82 O85 2.080 . S
Zn82 O88 2.114 . S
Zn82 O91 2.120 . S
Zn82 O93 2.120 . S
Zn82 O94 2.114 . S
Zn82 O97 2.080 . S
C83 O88 1.166 . S
C83 O89 1.182 . S
C84 O90 1.167 . S
C84 O91 1.299 . S
O85 Zn82 2.080 . S
O85 C99 1.305 . S
O86 Zn80 1.920 . S
O86 C99 1.234 . S
C87 O92 1.167 . S
C87 O93 1.299 . S
O88 Zn82 2.114 . S
O88 C83 1.166 . S
O89 Zn81 1.905 . S
O89 C83 1.182 . S
O90 Zn81 1.898 . S
O90 C84 1.167 . S
O91 Zn82 2.120 . S
O91 C84 1.299 . S
O92 Zn80 1.898 . S
O92 C87 1.167 . S
O93 Zn82 2.120 . S
O93 C87 1.299 . S
O94 Zn82 2.114 . S
O94 C96 1.166 . S
O95 Zn80 1.905 . S
O95 C96 1.182 . S
C96 O94 1.166 . S
C96 O95 1.182 . S
O97 Zn82 2.080 . S
O97 C100 1.305 . S
O98 Zn81 1.920 . S
O98 C100 1.234 . S
C99 O85 1.305 . S
C99 O86 1.234 . S
C100 O97 1.305 . S
C100 O98 1.234 . S
Zn101 O107 1.920 . S
Zn101 O113 1.898 . S
Zn101 O116 1.905 . S
Zn102 O110 1.905 . S
Zn102 O111 1.898 . S
Zn102 O119 1.920 . S
Zn103 O106 2.080 . S
Zn103 O109 2.114 . S
Zn103 O112 2.120 . S
Zn103 O114 2.120 . S
Zn103 O115 2.114 . S
Zn103 O118 2.080 . S
C104 O109 1.166 . S
C104 O110 1.182 . S
C105 O111 1.167 . S
C105 O112 1.299 . S
O106 Zn103 2.080 . S
O106 C120 1.305 . S
O107 Zn101 1.920 . S
O107 C120 1.234 . S
C108 O113 1.167 . S
C108 O114 1.299 . S
O109 Zn103 2.114 . S
O109 C104 1.166 . S
O110 Zn102 1.905 . S
O110 C104 1.182 . S
O111 Zn102 1.898 . S
O111 C105 1.167 . S
O112 Zn103 2.120 . S
O112 C105 1.299 . S
O113 Zn101 1.898 . S
O113 C108 1.167 . S
O114 Zn103 2.120 . S
O114 C108 1.299 . S
O115 Zn103 2.114 . S
O115 C117 1.166 . S
O116 Zn101 1.905 . S
O116 C117 1.182 . S
C117 O115 1.166 . S
C117 O116 1.182 . S
O118 Zn103 2.080 . S
O118 C121 1.305 . S
O119 Zn102 1.920 . S
O119 C121 1.234 . S
C120 O106 1.305 . S
C120 O107 1.234 . S
C121 O118 1.305 . S
C121 O119 1.234 . S
H122 C134 0.930 . S
H123 C136 0.930 . S
H124 C137 0.930 . S
H125 C141 0.959 . S
H126 C141 0.959 . S
H127 C141 0.961 . S
H128 C142 0.960 . S
H129 C142 0.961 . S
H130 C142 0.959 . S
H131 C145 0.929 . S
H132 C146 0.931 . S
H133 C148 0.930 . S
C134 H122 0.930 . S
C134 C135 1.399 . S
C134 C139 1.399 . S
C135 C134 1.399 . S
C135 C136 1.376 . S
C136 H123 0.930 . S
C136 C135 1.376 . S
C136 C137 1.388 . S
C137 H124 0.930 . S
C137 C136 1.388 . S
C137 C138 1.390 . S
C138 C137 1.390 . S
C138 C139 1.394 . S
C138 C144 1.465 . S
C139 C134 1.399 . S
C139 C138 1.394 . S
C139 C140 1.516 . S
C140 C139 1.516 . S
C140 C141 1.502 . S
C140 C142 1.561 . S
C140 C143 1.526 . S
C141 H125 0.959 . S
C141 H126 0.959 . S
C141 H127 0.961 . S
C141 C140 1.502 . S
C142 H128 0.960 . S
C142 H129 0.961 . S
C142 H130 0.959 . S
C142 C140 1.561 . S
C143 C140 1.526 . S
C143 C144 1.396 . S
C143 C148 1.390 . S
C144 C138 1.465 . S
C144 C143 1.396 . S
C144 C145 1.399 . S
C145 H131 0.929 . S
C145 C144 1.399 . S
C145 C146 1.385 . S
C146 H132 0.931 . S
C146 C145 1.385 . S
C146 C147 1.389 . S
C147 C146 1.389 . S
C147 C148 1.387 . S
C148 H133 0.930 . S
C148 C143 1.390 . S
C148 C147 1.387 . S
H149 C161 0.930 . S
H150 C163 0.930 . S
H151 C164 0.930 . S
H152 C168 0.959 . S
H153 C168 0.959 . S
H154 C168 0.961 . S
H155 C169 0.960 1_565 S
H156 C169 0.961 . S
H157 C169 0.959 . S
H158 C172 0.929 . S
H159 C173 0.931 . S
H160 C175 0.930 . S
C161 H149 0.930 . S
C161 C162 1.399 . S
C161 C166 1.399 . S
C162 C161 1.399 . S
C162 C163 1.376 . S
C163 H150 0.930 . S
C163 C162 1.376 . S
C163 C164 1.388 . S
C164 H151 0.930 . S
C164 C163 1.388 . S
C164 C165 1.390 . S
C165 C164 1.390 . S
C165 C166 1.394 . S
C165 C171 1.465 . S
C166 C161 1.399 . S
C166 C165 1.394 . S
C166 C167 1.516 . S
C167 C166 1.516 . S
C167 C168 1.502 . S
C167 C169 1.561 . S
C167 C170 1.526 . S
C168 H152 0.959 . S
C168 H153 0.959 . S
C168 H154 0.961 . S
C168 C167 1.502 . S
C169 H155 0.960 1_545 S
C169 H156 0.961 . S
C169 H157 0.959 . S
C169 C167 1.561 . S
C170 C167 1.526 . S
C170 C171 1.396 . S
C170 C175 1.390 . S
C171 C165 1.465 . S
C171 C170 1.396 . S
C171 C172 1.399 . S
C172 H158 0.929 . S
C172 C171 1.399 . S
C172 C173 1.385 . S
C173 H159 0.931 . S
C173 C172 1.385 . S
C173 C174 1.389 . S
C174 C173 1.389 . S
C174 C175 1.387 . S
C175 H160 0.930 . S
C175 C170 1.390 . S
C175 C174 1.387 . S
H176 C188 0.930 . S
H177 C190 0.930 . S
H178 C191 0.930 . S
H179 C195 0.959 . S
H180 C195 0.959 . S
H181 C195 0.961 . S
H182 C196 0.960 . S
H183 C196 0.961 . S
H184 C196 0.959 . S
H185 C199 0.929 . S
H186 C200 0.931 . S
H187 C202 0.930 . S
C188 H176 0.930 . S
C188 C189 1.399 . S
C188 C193 1.399 . S
C189 C188 1.399 . S
C189 C190 1.376 . S
C190 H177 0.930 . S
C190 C189 1.376 . S
C190 C191 1.388 . S
C191 H178 0.930 . S
C191 C190 1.388 . S
C191 C192 1.390 . S
C192 C191 1.390 . S
C192 C193 1.394 . S
C192 C198 1.465 . S
C193 C188 1.399 . S
C193 C192 1.394 . S
C193 C194 1.516 . S
C194 C193 1.516 . S
C194 C195 1.502 . S
C194 C196 1.561 . S
C194 C197 1.526 . S
C195 H179 0.959 . S
C195 H180 0.959 . S
C195 H181 0.961 . S
C195 C194 1.502 . S
C196 H182 0.960 . S
C196 H183 0.961 . S
C196 H184 0.959 . S
C196 C194 1.561 . S
C197 C194 1.526 . S
C197 C198 1.396 . S
C197 C202 1.390 . S
C198 C192 1.465 . S
C198 C197 1.396 . S
C198 C199 1.399 . S
C199 H185 0.929 . S
C199 C198 1.399 . S
C199 C200 1.385 . S
C200 H186 0.931 . S
C200 C199 1.385 . S
C200 C201 1.389 . S
C201 C200 1.389 . S
C201 C202 1.387 . S
C202 H187 0.930 . S
C202 C197 1.390 . S
C202 C201 1.387 . S
H203 C215 0.930 . S
H204 C217 0.930 . S
H205 C218 0.930 . S
H206 C222 0.959 . S
H207 C222 0.959 . S
H208 C222 0.961 . S
H209 C223 0.960 . S
H210 C223 0.961 . S
H211 C223 0.959 . S
H212 C226 0.929 . S
H213 C227 0.931 . S
H214 C229 0.930 . S
C215 H203 0.930 . S
C215 C216 1.399 . S
C215 C220 1.399 . S
C216 C215 1.399 . S
C216 C217 1.376 . S
C217 H204 0.930 . S
C217 C216 1.376 . S
C217 C218 1.388 . S
C218 H205 0.930 . S
C218 C217 1.388 . S
C218 C219 1.390 . S
C219 C218 1.390 . S
C219 C220 1.394 . S
C219 C225 1.465 . S
C220 C215 1.399 . S
C220 C219 1.394 . S
C220 C221 1.516 . S
C221 C220 1.516 . S
C221 C222 1.502 . S
C221 C223 1.561 . S
C221 C224 1.526 . S
C222 H206 0.959 . S
C222 H207 0.959 . S
C222 H208 0.961 . S
C222 C221 1.502 . S
C223 H209 0.960 . S
C223 H210 0.961 . S
C223 H211 0.959 . S
C223 C221 1.561 . S
C224 C221 1.526 . S
C224 C225 1.396 . S
C224 C229 1.390 . S
C225 C219 1.465 . S
C225 C224 1.396 . S
C225 C226 1.399 . S
C226 H212 0.929 . S
C226 C225 1.399 . S
C226 C227 1.385 . S
C227 H213 0.931 . S
C227 C226 1.385 . S
C227 C228 1.389 . S
C228 C227 1.389 . S
C228 C229 1.387 . S
C229 H214 0.930 . S
C229 C224 1.390 . S
C229 C228 1.387 . S
H230 C242 0.930 . S
H231 C244 0.930 1_545 S
H232 C245 0.930 . S
H233 C249 0.959 . S
H234 C249 0.959 . S
H235 C249 0.961 . S
H236 C250 0.960 . S
H237 C250 0.961 . S
H238 C250 0.959 . S
H239 C253 0.929 . S
H240 C254 0.931 . S
H241 C256 0.930 . S
C242 H230 0.930 . S
C242 C243 1.399 . S
C242 C247 1.399 . S
C243 C242 1.399 . S
C243 C244 1.376 . S
C244 H231 0.930 1_565 S
C244 C243 1.376 . S
C244 C245 1.388 . S
C245 H232 0.930 . S
C245 C244 1.388 . S
C245 C246 1.390 . S
C246 C245 1.390 . S
C246 C247 1.394 . S
C246 C252 1.465 . S
C247 C242 1.399 . S
C247 C246 1.394 . S
C247 C248 1.516 . S
C248 C247 1.516 . S
C248 C249 1.502 . S
C248 C250 1.561 . S
C248 C251 1.526 . S
C249 H233 0.959 . S
C249 H234 0.959 . S
C249 H235 0.961 . S
C249 C248 1.502 . S
C250 H236 0.960 . S
C250 H237 0.961 . S
C250 H238 0.959 . S
C250 C248 1.561 . S
C251 C248 1.526 . S
C251 C252 1.396 . S
C251 C256 1.390 . S
C252 C246 1.465 . S
C252 C251 1.396 . S
C252 C253 1.399 . S
C253 H239 0.929 . S
C253 C252 1.399 . S
C253 C254 1.385 . S
C254 H240 0.931 . S
C254 C253 1.385 . S
C254 C255 1.389 . S
C255 C254 1.389 . S
C255 C256 1.387 . S
C256 H241 0.930 . S
C256 C251 1.390 . S
C256 C255 1.387 . S
H257 C269 0.930 . S
H258 C271 0.930 . S
H259 C272 0.930 . S
H260 C276 0.959 . S
H261 C276 0.959 . S
H262 C276 0.961 . S
H263 C277 0.960 . S
H264 C277 0.961 . S
H265 C277 0.959 . S
H266 C280 0.929 . S
H267 C281 0.931 . S
H268 C283 0.930 . S
C269 H257 0.930 . S
C269 C270 1.399 . S
C269 C274 1.399 . S
C270 C269 1.399 . S
C270 C271 1.376 . S
C271 H258 0.930 . S
C271 C270 1.376 . S
C271 C272 1.388 . S
C272 H259 0.930 . S
C272 C271 1.388 . S
C272 C273 1.390 . S
C273 C272 1.390 . S
C273 C274 1.394 . S
C273 C279 1.465 . S
C274 C269 1.399 . S
C274 C273 1.394 . S
C274 C275 1.516 . S
C275 C274 1.516 . S
C275 C276 1.502 . S
C275 C277 1.561 . S
C275 C278 1.526 . S
C276 H260 0.959 . S
C276 H261 0.959 . S
C276 H262 0.961 . S
C276 C275 1.502 . S
C277 H263 0.960 . S
C277 H264 0.961 . S
C277 H265 0.959 . S
C277 C275 1.561 . S
C278 C275 1.526 . S
C278 C279 1.396 . S
C278 C283 1.390 . S
C279 C273 1.465 . S
C279 C278 1.396 . S
C279 C280 1.399 . S
C280 H266 0.929 . S
C280 C279 1.399 . S
C280 C281 1.385 . S
C281 H267 0.931 . S
C281 C280 1.385 . S
C281 C282 1.389 . S
C282 C281 1.389 . S
C282 C283 1.387 . S
C283 H268 0.930 . S
C283 C278 1.390 . S
C283 C282 1.387 . S
H284 C296 0.930 . S
H285 C298 0.930 . S
H286 C299 0.930 . S
H287 C303 0.959 . S
H288 C303 0.959 . S
H289 C303 0.961 . S
H290 C304 0.960 . S
H291 C304 0.961 . S
H292 C304 0.959 . S
H293 C307 0.929 . S
H294 C308 0.931 . S
H295 C310 0.930 . S
C296 H284 0.930 . S
C296 C297 1.399 . S
C296 C301 1.399 . S
C297 C296 1.399 . S
C297 C298 1.376 . S
C298 H285 0.930 . S
C298 C297 1.376 . S
C298 C299 1.388 . S
C299 H286 0.930 . S
C299 C298 1.388 . S
C299 C300 1.390 . S
C300 C299 1.390 . S
C300 C301 1.394 . S
C300 C306 1.465 . S
C301 C296 1.399 . S
C301 C300 1.394 . S
C301 C302 1.516 . S
C302 C301 1.516 . S
C302 C303 1.502 . S
C302 C304 1.561 . S
C302 C305 1.526 . S
C303 H287 0.959 . S
C303 H288 0.959 . S
C303 H289 0.961 . S
C303 C302 1.502 . S
C304 H290 0.960 . S
C304 H291 0.961 . S
C304 H292 0.959 . S
C304 C302 1.561 . S
C305 C302 1.526 . S
C305 C306 1.396 . S
C305 C310 1.390 . S
C306 C300 1.465 . S
C306 C305 1.396 . S
C306 C307 1.399 . S
C307 H293 0.929 . S
C307 C306 1.399 . S
C307 C308 1.385 . S
C308 H294 0.931 . S
C308 C307 1.385 . S
C308 C309 1.389 . S
C309 C308 1.389 . S
C309 C310 1.387 . S
C310 H295 0.930 . S
C310 C305 1.390 . S
C310 C309 1.387 . S
H311 C323 0.930 . S
H312 C325 0.930 . S
H313 C326 0.930 . S
H314 C330 0.959 . S
H315 C330 0.959 . S
H316 C330 0.961 . S
H317 C331 0.960 . S
H318 C331 0.961 . S
H319 C331 0.959 . S
H320 C334 0.929 . S
H321 C335 0.931 . S
H322 C337 0.930 . S
C323 H311 0.930 . S
C323 C324 1.399 . S
C323 C328 1.399 . S
C324 C323 1.399 . S
C324 C325 1.376 . S
C325 H312 0.930 . S
C325 C324 1.376 . S
C325 C326 1.388 . S
C326 H313 0.930 . S
C326 C325 1.388 . S
C326 C327 1.390 . S
C327 C326 1.390 . S
C327 C328 1.394 . S
C327 C333 1.465 . S
C328 C323 1.399 . S
C328 C327 1.394 . S
C328 C329 1.516 . S
C329 C328 1.516 . S
C329 C330 1.502 . S
C329 C331 1.561 . S
C329 C332 1.526 . S
C330 H314 0.959 . S
C330 H315 0.959 . S
C330 H316 0.961 . S
C330 C329 1.502 . S
C331 H317 0.960 . S
C331 H318 0.961 . S
C331 H319 0.959 . S
C331 C329 1.561 . S
C332 C329 1.526 . S
C332 C333 1.396 . S
C332 C337 1.390 . S
C333 C327 1.465 . S
C333 C332 1.396 . S
C333 C334 1.399 . S
C334 H320 0.929 . S
C334 C333 1.399 . S
C334 C335 1.385 . S
C335 H321 0.931 . S
C335 C334 1.385 . S
C335 C336 1.389 . S
C336 C335 1.389 . S
C336 C337 1.387 . S
C337 H322 0.930 . S
C337 C332 1.390 . S
C337 C336 1.387 . S
H338 C350 0.930 . S
H339 C352 0.930 . S
H340 C353 0.930 . S
H341 C357 0.959 . S
H342 C357 0.959 . S
H343 C357 0.961 . S
H344 C358 0.960 . S
H345 C358 0.961 . S
H346 C358 0.959 . S
H347 C361 0.929 . S
H348 C362 0.931 . S
H349 C364 0.930 . S
C350 H338 0.930 . S
C350 C351 1.399 . S
C350 C355 1.399 . S
C351 C350 1.399 . S
C351 C352 1.376 . S
C352 H339 0.930 . S
C352 C351 1.376 . S
C352 C353 1.388 . S
C353 H340 0.930 . S
C353 C352 1.388 . S
C353 C354 1.390 . S
C354 C353 1.390 . S
C354 C355 1.394 . S
C354 C360 1.465 . S
C355 C350 1.399 . S
C355 C354 1.394 . S
C355 C356 1.516 . S
C356 C355 1.516 . S
C356 C357 1.502 . S
C356 C358 1.561 . S
C356 C359 1.526 . S
C357 H341 0.959 . S
C357 H342 0.959 . S
C357 H343 0.961 . S
C357 C356 1.502 . S
C358 H344 0.960 . S
C358 H345 0.961 . S
C358 H346 0.959 . S
C358 C356 1.561 . S
C359 C356 1.526 . S
C359 C360 1.396 . S
C359 C364 1.390 . S
C360 C354 1.465 . S
C360 C359 1.396 . S
C360 C361 1.399 . S
C361 H347 0.929 . S
C361 C360 1.399 . S
C361 C362 1.385 . S
C362 H348 0.931 . S
C362 C361 1.385 . S
C362 C363 1.389 . S
C363 C362 1.389 . S
C363 C364 1.387 . S
C364 H349 0.930 . S
C364 C359 1.390 . S
C364 C363 1.387 . S
H365 C377 0.930 . S
H366 C379 0.930 . S
H367 C380 0.930 . S
H368 C384 0.959 . S
H369 C384 0.959 . S
H370 C384 0.961 . S
H371 C385 0.960 . S
H372 C385 0.961 . S
H373 C385 0.959 . S
H374 C388 0.929 . S
H375 C389 0.931 . S
H376 C391 0.930 . S
C377 H365 0.930 . S
C377 C378 1.399 . S
C377 C382 1.399 . S
C378 C377 1.399 . S
C378 C379 1.376 . S
C379 H366 0.930 . S
C379 C378 1.376 . S
C379 C380 1.388 . S
C380 H367 0.930 . S
C380 C379 1.388 . S
C380 C381 1.390 . S
C381 C380 1.390 . S
C381 C382 1.394 . S
C381 C387 1.465 . S
C382 C377 1.399 . S
C382 C381 1.394 . S
C382 C383 1.516 . S
C383 C382 1.516 . S
C383 C384 1.502 . S
C383 C385 1.561 . S
C383 C386 1.526 . S
C384 H368 0.959 . S
C384 H369 0.959 . S
C384 H370 0.961 . S
C384 C383 1.502 . S
C385 H371 0.960 . S
C385 H372 0.961 . S
C385 H373 0.959 . S
C385 C383 1.561 . S
C386 C383 1.526 . S
C386 C387 1.396 . S
C386 C391 1.390 . S
C387 C381 1.465 . S
C387 C386 1.396 . S
C387 C388 1.399 . S
C388 H374 0.929 . S
C388 C387 1.399 . S
C388 C389 1.385 . S
C389 H375 0.931 . S
C389 C388 1.385 . S
C389 C390 1.389 . S
C390 C389 1.389 . S
C390 C391 1.387 . S
C391 H376 0.930 . S
C391 C386 1.390 . S
C391 C390 1.387 . S
H392 C404 0.930 . S
H393 C406 0.930 . S
H394 C407 0.930 . S
H395 C411 0.959 . S
H396 C411 0.959 . S
H397 C411 0.961 . S
H398 C412 0.960 . S
H399 C412 0.961 . S
H400 C412 0.959 . S
H401 C415 0.929 . S
H402 C416 0.931 . S
H403 C418 0.930 . S
C404 H392 0.930 . S
C404 C405 1.399 . S
C404 C409 1.399 . S
C405 C404 1.399 . S
C405 C406 1.376 . S
C406 H393 0.930 . S
C406 C405 1.376 . S
C406 C407 1.388 . S
C407 H394 0.930 . S
C407 C406 1.388 . S
C407 C408 1.390 . S
C408 C407 1.390 . S
C408 C409 1.394 . S
C408 C414 1.465 . S
C409 C404 1.399 . S
C409 C408 1.394 . S
C409 C410 1.516 . S
C410 C409 1.516 . S
C410 C411 1.502 . S
C410 C412 1.561 . S
C410 C413 1.526 . S
C411 H395 0.959 . S
C411 H396 0.959 . S
C411 H397 0.961 . S
C411 C410 1.502 . S
C412 H398 0.960 . S
C412 H399 0.961 . S
C412 H400 0.959 . S
C412 C410 1.561 . S
C413 C410 1.526 . S
C413 C414 1.396 . S
C413 C418 1.390 . S
C414 C408 1.465 . S
C414 C413 1.396 . S
C414 C415 1.399 . S
C415 H401 0.929 . S
C415 C414 1.399 . S
C415 C416 1.385 . S
C416 H402 0.931 . S
C416 C415 1.385 . S
C416 C417 1.389 . S
C417 C416 1.389 . S
C417 C418 1.387 . S
C418 H403 0.930 . S
C418 C413 1.390 . S
C418 C417 1.387 . S
H419 C431 0.930 . S
H420 C433 0.930 . S
H421 C434 0.930 . S
H422 C438 0.959 . S
H423 C438 0.959 . S
H424 C438 0.961 1_455 S
H425 C439 0.960 . S
H426 C439 0.961 . S
H427 C439 0.959 . S
H428 C442 0.929 . S
H429 C443 0.931 . S
H430 C445 0.930 . S
C431 H419 0.930 . S
C431 C432 1.399 . S
C431 C436 1.399 . S
C432 C431 1.399 . S
C432 C433 1.376 . S
C433 H420 0.930 . S
C433 C432 1.376 . S
C433 C434 1.388 . S
C434 H421 0.930 . S
C434 C433 1.388 . S
C434 C435 1.390 . S
C435 C434 1.390 . S
C435 C436 1.394 . S
C435 C441 1.465 . S
C436 C431 1.399 . S
C436 C435 1.394 . S
C436 C437 1.516 . S
C437 C436 1.516 . S
C437 C438 1.502 . S
C437 C439 1.561 . S
C437 C440 1.526 . S
C438 H422 0.959 . S
C438 H423 0.959 . S
C438 H424 0.961 1_655 S
C438 C437 1.502 . S
C439 H425 0.960 . S
C439 H426 0.961 . S
C439 H427 0.959 . S
C439 C437 1.561 . S
C440 C437 1.526 . S
C440 C441 1.396 . S
C440 C445 1.390 . S
C441 C435 1.465 . S
C441 C440 1.396 . S
C441 C442 1.399 . S
C442 H428 0.929 . S
C442 C441 1.399 . S
C442 C443 1.385 . S
C443 H429 0.931 . S
C443 C442 1.385 . S
C443 C444 1.389 . S
C444 C443 1.389 . S
C444 C445 1.387 . S
C445 H430 0.930 . S
C445 C440 1.390 . S
C445 C444 1.387 . S
C135 C15 1.344 . S
C147 C99 1.321 . S
C162 C59 1.238 . S
C174 C105 1.034 . S
C189 C10 1.291 . S
C201 C96 1.204 . S
C216 C46 1.439 . S
C228 C121 1.340 . S
C243 C18 1.873 . S
C255 C87 1.756 . S
C282 C104 1.861 . S
C270 C49 1.935 . S
C297 C55 1.395 . S
C309 C100 1.241 . S
C336 C117 1.793 . S
C324 C9 1.950 . S
C363 C84 1.752 . S
C351 C58 1.862 . S
C390 C120 1.407 . S
C378 C6 1.420 . S
C417 C83 1.294 . S
C405 C50 1.307 . S
C444 C108 1.085 . S
C432 C19 1.215 . S
