# Generated by pormake.
# Topology eea, (3,6)-cn, num edge types: 1
# Building blocks:
#     Node 0, Type 0, BuildingBlock: WUSLED_clean_sbu_0, # of connection points: 3
#     Node 1, Type 0, BuildingBlock: WUSLED_clean_sbu_0, # of connection points: 3
#     Node 2, Type 0, BuildingBlock: WUSLED_clean_sbu_0, # of connection points: 3
#     Node 3, Type 0, BuildingBlock: WUSLED_clean_sbu_0, # of connection points: 3
#     Node 4, Type 0, BuildingBlock: WUSLED_clean_sbu_0, # of connection points: 3
#     Node 5, Type 0, BuildingBlock: WUSLED_clean_sbu_0, # of connection points: 3
#     Node 6, Type 0, BuildingBlock: WUSLED_clean_sbu_0, # of connection points: 3
#     Node 7, Type 0, BuildingBlock: WUSLED_clean_sbu_0, # of connection points: 3
#     Node 8, Type 0, BuildingBlock: WUSLED_clean_sbu_0, # of connection points: 3
#     Node 9, Type 0, BuildingBlock: WUSLED_clean_sbu_0, # of connection points: 3
#     Node 10, Type 0, BuildingBlock: WUSLED_clean_sbu_0, # of connection points: 3
#     Node 11, Type 0, BuildingBlock: WUSLED_clean_sbu_0, # of connection points: 3
#     Node 12, Type 0, BuildingBlock: WUSLED_clean_sbu_0, # of connection points: 3
#     Node 13, Type 0, BuildingBlock: WUSLED_clean_sbu_0, # of connection points: 3
#     Node 14, Type 0, BuildingBlock: WUSLED_clean_sbu_0, # of connection points: 3
#     Node 15, Type 0, BuildingBlock: WUSLED_clean_sbu_0, # of connection points: 3
#     Node 16, Type 0, BuildingBlock: WUSLED_clean_sbu_0, # of connection points: 3
#     Node 17, Type 0, BuildingBlock: WUSLED_clean_sbu_0, # of connection points: 3
#     Node 18, Type 1, BuildingBlock: HISSIN_clean_sbu_0, # of connection points: 6
#     Node 19, Type 1, BuildingBlock: HISSIN_clean_sbu_0, # of connection points: 6
#     Node 20, Type 1, BuildingBlock: HISSIN_clean_sbu_0, # of connection points: 6
#     Node 21, Type 1, BuildingBlock: HISSIN_clean_sbu_0, # of connection points: 6
#     Node 22, Type 1, BuildingBlock: HISSIN_clean_sbu_0, # of connection points: 6
#     Node 23, Type 1, BuildingBlock: HISSIN_clean_sbu_0, # of connection points: 6
#     Node 24, Type 1, BuildingBlock: HISSIN_clean_sbu_0, # of connection points: 6
#     Node 25, Type 1, BuildingBlock: HISSIN_clean_sbu_0, # of connection points: 6
#     Node 26, Type 1, BuildingBlock: HISSIN_clean_sbu_0, # of connection points: 6
#     Edge 27, Type (0, 1), None
#     Edge 28, Type (0, 1), None
#     Edge 29, Type (0, 1), None
#     Edge 30, Type (0, 1), None
#     Edge 31, Type (0, 1), None
#     Edge 32, Type (0, 1), None
#     Edge 33, Type (0, 1), None
#     Edge 34, Type (0, 1), None
#     Edge 35, Type (0, 1), None
#     Edge 36, Type (0, 1), None
#     Edge 37, Type (0, 1), None
#     Edge 38, Type (0, 1), None
#     Edge 39, Type (0, 1), None
#     Edge 40, Type (0, 1), None
#     Edge 41, Type (0, 1), None
#     Edge 42, Type (0, 1), None
#     Edge 43, Type (0, 1), None
#     Edge 44, Type (0, 1), None
#     Edge 45, Type (0, 1), None
#     Edge 46, Type (0, 1), None
#     Edge 47, Type (0, 1), None
#     Edge 48, Type (0, 1), None
#     Edge 49, Type (0, 1), None
#     Edge 50, Type (0, 1), None
#     Edge 51, Type (0, 1), None
#     Edge 52, Type (0, 1), None
#     Edge 53, Type (0, 1), None
#     Edge 54, Type (0, 1), None
#     Edge 55, Type (0, 1), None
#     Edge 56, Type (0, 1), None
#     Edge 57, Type (0, 1), None
#     Edge 58, Type (0, 1), None
#     Edge 59, Type (0, 1), None
#     Edge 60, Type (0, 1), None
#     Edge 61, Type (0, 1), None
#     Edge 62, Type (0, 1), None
#     Edge 63, Type (0, 1), None
#     Edge 64, Type (0, 1), None
#     Edge 65, Type (0, 1), None
#     Edge 66, Type (0, 1), None
#     Edge 67, Type (0, 1), None
#     Edge 68, Type (0, 1), None
#     Edge 69, Type (0, 1), None
#     Edge 70, Type (0, 1), None
#     Edge 71, Type (0, 1), None
#     Edge 72, Type (0, 1), None
#     Edge 73, Type (0, 1), None
#     Edge 74, Type (0, 1), None
#     Edge 75, Type (0, 1), None
#     Edge 76, Type (0, 1), None
#     Edge 77, Type (0, 1), None
#     Edge 78, Type (0, 1), None
#     Edge 79, Type (0, 1), None
#     Edge 80, Type (0, 1), None
# Relax obj value: 0.035
# Max RMSD: 0.126
# Mean RMSD: 0.104
data_MOF--net-eea--node1-WUSLED_clean_sbu_0--node2-HISSIN_clean_sbu_0--edge1-none
_symmetry_space_group_name_H-M    P1
_symmetry_Int_Tables_number       1
_symmetry_cell_setting            triclinic
loop_
_symmetry_equiv_pos_as_xyz
'x, y, z'
_cell_length_a     37.960761
_cell_length_b     38.067528
_cell_length_c     58.252268
_cell_angle_alpha  92.774361
_cell_angle_beta   92.05909
_cell_angle_gamma 120.33067
loop_
_atom_site_label
_atom_site_type_symbol
_atom_site_fract_x
_atom_site_fract_y
_atom_site_fract_z
_atom_type_partial_charge
C0 C 0.2254 0.19114 0.40004 0.0
C1 C 0.22479 0.21785 0.41728 0.0
C2 C 0.21455 0.25631 0.38816 0.0
C3 C 0.21921 0.24997 0.41141 0.0
C4 C 0.21609 0.22999 0.37092 0.0
C5 C 0.22135 0.1976 0.37684 0.0
U6 U 0.25973 0.1413 0.44327 0.0
O7 O 0.22913 0.07838 0.45387 0.0
O8 O 0.28894 0.1043 0.43912 0.0
C9 C 0.25774 0.07174 0.44652 0.0
C10 C 0.22982 0.15639 0.40619 0.0
C11 C 0.2433 0.03274 0.43281 0.0
C12 C 0.2315 0.99303 0.39639 0.0
C13 C 0.24389 0.03047 0.4087 0.0
C14 C 0.21702 0.95973 0.4321 0.0
C15 C 0.21813 0.95724 0.40798 0.0
C16 C 0.22954 0.99709 0.44435 0.0
C17 C 0.31024 0.20078 0.50138 0.0
C18 C 0.31803 0.17065 0.53564 0.0
C19 C 0.35548 0.24413 0.5341 0.0
C20 C 0.33789 0.23968 0.51186 0.0
C21 C 0.34554 0.20968 0.54632 0.0
C22 C 0.30066 0.16622 0.51332 0.0
C23 C 0.29149 0.19696 0.47814 0.0
O24 O 0.26759 0.16379 0.40855 0.0
O25 O 0.20723 0.13554 0.42264 0.0
O26 O 0.25219 0.17004 0.47488 0.0
O27 O 0.31262 0.19604 0.46098 0.0
H28 H 0.22824 0.21362 0.43531 0.0
H29 H 0.21844 0.26974 0.42515 0.0
H30 H 0.21257 0.23395 0.35286 0.0
H31 H 0.2219 0.17738 0.3633 0.0
H32 H 0.2326 0.99221 0.37783 0.0
H33 H 0.25424 0.05762 0.39943 0.0
H34 H 0.20689 0.9329 0.44163 0.0
H35 H 0.22883 0.9982 0.46294 0.0
H36 H 0.31016 0.14351 0.54448 0.0
H37 H 0.37623 0.27459 0.54192 0.0
H38 H 0.34565 0.26669 0.50289 0.0
H39 H 0.27962 0.13587 0.50544 0.0
C40 C 0.99834 0.19908 0.40663 0.0
C41 C 1.02209 0.23629 0.41984 0.0
C42 C 0.07277 0.2605 0.3909 0.0
C43 C 0.05897 0.26676 0.41204 0.0
C44 C 0.04858 0.22315 0.37774 0.0
C45 C 1.01177 0.19282 0.38554 0.0
U46 U 0.91463 0.14878 0.45011 0.0
O47 O 0.84788 0.11187 0.4427 0.0
O48 O 0.88112 0.0843 0.45786 0.0
C49 C 0.84586 0.07844 0.44934 0.0
C50 C 0.95971 0.16613 0.41441 0.0
C51 C 0.82072 0.04112 0.43406 0.0
C52 C 0.81068 0.99489 0.40078 0.0
C53 C 0.83578 0.03124 0.41461 0.0
C54 C 0.75555 0.97854 0.42571 0.0
C55 C 0.77022 0.96806 0.40623 0.0
C56 C 0.7805 1.0146 0.43941 0.0
C57 C 0.91824 0.20041 0.50903 0.0
C58 C 0.87728 0.16527 0.54066 0.0
C59 C 0.91037 0.23882 0.54109 0.0
C60 C 0.9265 0.23767 0.51999 0.0
C61 C 0.88563 0.20266 0.55177 0.0
C62 C 0.89327 0.16414 0.51946 0.0
C63 C 0.93587 0.20014 0.4868 0.0
O64 O 0.96311 0.14659 0.43156 0.0
O65 O 0.92994 0.17402 0.41626 0.0
O66 O 0.91562 0.20142 0.46839 0.0
O67 O 0.94879 0.17413 0.48385 0.0
H68 H 1.01224 0.24166 0.43621 0.0
H69 H 0.07684 0.29502 0.42273 0.0
H70 H 0.05816 0.21714 0.36144 0.0
H71 H 0.99382 0.16425 0.3751 0.0
H72 H 0.82298 0.98777 0.38594 0.0
H73 H 0.86685 0.05148 0.4102 0.0
H74 H 0.72467 0.95879 0.43057 0.0
H75 H 0.76834 0.0217 0.45435 0.0
H76 H 0.85801 0.1368 0.54823 0.0
H77 H 0.91791 0.26819 0.54923 0.0
H78 H 0.94567 0.26602 0.51226 0.0
H79 H 0.88614 0.13493 0.51124 0.0
C80 C 0.84625 0.81711 0.4045 0.0
C81 C 0.82301 0.8222 0.42115 0.0
C82 C 0.78045 0.82788 0.3909 0.0
C83 C 0.79036 0.82765 0.41439 0.0
C84 C 0.80353 0.82202 0.37437 0.0
C85 C 0.83609 0.81674 0.38113 0.0
U86 U 0.90744 0.78902 0.44605 0.0
O87 O 0.93864 0.75477 0.43823 0.0
O88 O 0.97419 0.81851 0.45267 0.0
C89 C 0.97517 0.78682 0.44342 0.0
C90 C 0.88131 0.81232 0.41089 0.0
C91 C 1.00596 0.79479 0.42642 0.0
C92 C 0.05585 0.83828 0.40004 0.0
C93 C 0.02418 0.83053 0.4145 0.0
C94 C 0.04996 0.77396 0.40849 0.0
C95 C 0.06972 0.81044 0.39733 0.0
C96 C 1.01861 0.76633 0.42285 0.0
C97 C 0.86461 0.75072 0.50518 0.0
C98 C 0.87095 0.70324 0.52914 0.0
C99 C 0.84692 0.74664 0.54511 0.0
C100 C 0.85096 0.76385 0.52398 0.0
C101 C 0.85631 0.71568 0.54789 0.0
C102 C 0.87513 0.72063 0.50801 0.0
C103 C 0.86455 0.76673 0.48255 0.0
O104 O 0.90709 0.83787 0.42759 0.0
O105 O 0.87289 0.77458 0.41243 0.0
O106 O 0.85753 0.74193 0.46424 0.0
O107 O 0.89314 0.80464 0.48014 0.0
H108 H 0.8303 0.82229 0.43931 0.0
H109 H 0.7732 0.83202 0.42756 0.0
H110 H 0.79684 0.82194 0.35613 0.0
H111 H 0.85359 0.81266 0.36806 0.0
H112 H 0.07057 0.86674 0.39183 0.0
H113 H 1.01477 0.85293 0.41682 0.0
H114 H 0.05959 0.75165 0.40676 0.0
H115 H 1.00495 0.73851 0.43171 0.0
H116 H 0.87903 0.67992 0.53077 0.0
H117 H 0.83517 0.7567 0.55904 0.0
H118 H 0.84241 0.78683 0.52215 0.0
H119 H 0.88586 0.71001 0.49379 0.0
C120 C 0.04292 0.21785 0.67042 0.0
C121 C 1.01243 0.21306 0.65408 0.0
C122 C 0.96729 0.20509 0.68472 0.0
C123 C 0.97487 0.20666 0.66117 0.0
C124 C 0.99836 0.21069 0.70097 0.0
C125 C 0.03574 0.21696 0.69386 0.0
U126 U 0.1292 0.24733 0.62895 0.0
O127 O 0.19566 0.28019 0.6376 0.0
O128 O 0.16456 0.21703 0.62217 0.0
C129 C 0.19871 0.24807 0.63184 0.0
C130 C 0.08207 0.22289 0.66361 0.0
C131 C 0.2228 0.239 0.64852 0.0
C132 C 0.23101 0.19366 0.67362 0.0
C133 C 0.20587 0.20233 0.65956 0.0
C134 C 0.28954 0.25883 0.66648 0.0
C135 C 0.27335 0.22149 0.67674 0.0
C136 C 0.26461 0.26738 0.65254 0.0
C137 C 0.12662 0.29032 0.57057 0.0
C138 C 0.15561 0.28757 0.53429 0.0
C139 C 0.14465 0.34365 0.54413 0.0
C140 C 0.12903 0.32683 0.56483 0.0
C141 C 0.15806 0.32422 0.52854 0.0
C142 C 0.14018 0.27085 0.55511 0.0
C143 C 0.10895 0.27303 0.59243 0.0
O144 O 0.08 0.19801 0.64645 0.0
O145 O 0.11198 0.26067 0.66256 0.0
O146 O 0.12774 0.29656 0.61134 0.0
O147 O 0.09722 0.23445 0.59458 0.0
H148 H 1.0175 0.21383 0.63588 0.0
H149 H 0.95169 0.20257 0.64818 0.0
H150 H 0.99372 0.20975 0.71922 0.0
H151 H 0.05898 0.22068 0.70671 0.0
H152 H 0.21766 0.16458 0.68118 0.0
H153 H 0.17356 0.17997 0.65685 0.0
H154 H 0.32194 0.28116 0.6686 0.0
H155 H 0.27833 0.29588 0.64433 0.0
H156 H 0.16603 0.27201 0.5228 0.0
H157 H 0.14554 0.37158 0.54016 0.0
H158 H 0.11853 0.3423 0.57636 0.0
H159 H 0.13883 0.2427 0.55906 0.0
C160 C 0.81897 0.83774 0.67256 0.0
C161 C 0.8021 0.80061 0.6591 0.0
C162 C 0.83131 0.77473 0.68692 0.0
C163 C 0.80814 0.76933 0.66622 0.0
C164 C 0.84803 0.81205 0.70035 0.0
C165 C 0.84185 0.84323 0.69322 0.0
U166 U 0.78436 0.88704 0.62803 0.0
O167 O 0.8138 0.95122 0.61989 0.0
O168 O 0.75247 0.92139 0.63291 0.0
C169 C 0.78361 0.95553 0.62699 0.0
C170 C 0.81337 0.87115 0.66525 0.0
C171 C 0.79522 0.99222 0.64222 0.0
C172 C 0.83219 0.03861 0.67605 0.0
C173 C 0.82135 1.00285 0.66225 0.0
C174 C 0.79045 0.05274 0.64999 0.0
C175 C 0.81691 0.06404 0.67 0.0
C176 C 0.77978 0.01727 0.63629 0.0
C177 C 0.73687 0.83331 0.56845 0.0
C178 C 0.7274 0.867 0.53631 0.0
C179 C 0.69294 0.7932 0.53454 0.0
C180 C 0.71068 0.79539 0.55644 0.0
C181 C 0.70115 0.82896 0.52415 0.0
C182 C 0.74494 0.86914 0.5583 0.0
C183 C 0.75522 0.83482 0.5915 0.0
O184 O 0.83636 0.89198 0.64894 0.0
O185 O 0.77524 0.86244 0.6621 0.0
O186 O 0.73319 0.83282 0.60882 0.0
O187 O 0.79422 0.86234 0.59555 0.0
H188 H 0.78444 0.79591 0.64303 0.0
H189 H 0.79501 0.74112 0.65536 0.0
H190 H 0.86606 0.81733 0.71633 0.0
H191 H 0.85513 0.87176 0.70382 0.0
H192 H 0.85264 0.04641 0.6913 0.0
H193 H 0.83348 0.98369 0.6671 0.0
H194 H 0.77806 0.07145 0.64468 0.0
H195 H 0.75955 1.00951 0.62092 0.0
H196 H 0.73402 0.8951 0.52893 0.0
H197 H 0.67332 0.76345 0.52558 0.0
H198 H 0.70405 0.7674 0.56398 0.0
H199 H 0.76482 0.89876 0.56736 0.0
C200 C 0.04954 0.83589 0.67164 0.0
C201 C 1.0182 0.80932 0.65515 0.0
C202 C 0.97428 0.77265 0.68558 0.0
C203 C 0.98095 0.77818 0.66204 0.0
C204 C 1.00621 0.79866 0.70203 0.0
C205 C 0.04342 0.83005 0.6951 0.0
U206 U 0.13205 0.88758 0.62861 0.0
O207 O 0.16223 0.95077 0.6183 0.0
O208 O 0.19874 0.9275 0.63445 0.0
C209 C 0.19855 0.95922 0.62659 0.0
C210 C 0.08799 0.87064 0.6647 0.0
C211 C 0.22321 0.99864 0.64035 0.0
C212 C 0.25337 0.03885 0.6769 0.0
C213 C 0.2277 1.00115 0.66451 0.0
C214 C 0.26957 0.07207 0.64119 0.0
C215 C 0.27489 0.07475 0.66536 0.0
C216 C 0.24406 0.03441 0.62885 0.0
C217 C 0.12485 0.82998 0.57099 0.0
C218 C 0.15882 0.86069 0.53662 0.0
C219 C 0.13197 0.78863 0.54038 0.0
C220 C 0.11839 0.79223 0.56192 0.0
C221 C 0.15217 0.82277 0.52739 0.0
C222 C 0.14545 0.86431 0.55825 0.0
C223 C 0.10958 0.83267 0.59361 0.0
O224 O 0.11913 0.86474 0.66325 0.0
O225 O 0.08412 0.88991 0.64752 0.0
O226 O 0.09551 0.85782 0.59596 0.0
O227 O 0.13233 0.83462 0.61172 0.0
H228 H 1.02226 0.81303 0.63694 0.0
H229 H 0.95724 0.75863 0.64884 0.0
H230 H 1.00221 0.79534 0.72027 0.0
H231 H 0.06724 0.85019 0.70811 0.0
H232 H 0.25656 0.03976 0.6955 0.0
H233 H 0.21181 0.97396 0.67377 0.0
H234 H 0.28553 0.09897 0.6317 0.0
H235 H 0.24105 0.03313 0.61022 0.0
H236 H 0.17473 0.8877 0.52721 0.0
H237 H 0.12597 0.75892 0.53372 0.0
H238 H 0.10256 0.76536 0.57147 0.0
H239 H 0.15111 0.89388 0.56498 0.0
C240 C 0.8922 0.52451 0.73337 0.0
C241 C 0.89164 0.55125 0.7506 0.0
C242 C 0.88141 0.58971 0.72148 0.0
C243 C 0.88609 0.58338 0.74473 0.0
C244 C 0.88292 0.56336 0.70424 0.0
C245 C 0.88815 0.53095 0.71017 0.0
U246 U 0.9264 0.4746 0.77662 0.0
O247 O 0.89575 0.41166 0.7872 0.0
O248 O 0.95559 0.43758 0.77249 0.0
C249 C 0.92437 0.40501 0.77987 0.0
C250 C 0.89659 0.48975 0.73952 0.0
C251 C 0.90994 0.36601 0.76617 0.0
C252 C 0.89818 0.32631 0.72975 0.0
C253 C 0.91055 0.36375 0.74206 0.0
C254 C 0.88369 0.29301 0.76545 0.0
C255 C 0.88481 0.29053 0.74134 0.0
C256 C 0.89619 0.33036 0.7777 0.0
C257 C 0.97683 0.53403 0.83476 0.0
C258 C 0.98457 0.50387 0.86902 0.0
C259 C 1.02205 0.57736 0.86749 0.0
C260 C 1.00449 0.57292 0.84524 0.0
C261 C 1.01208 0.5429 0.87971 0.0
C262 C 0.96722 0.49946 0.8467 0.0
C263 C 0.95812 0.53022 0.81151 0.0
O264 O 0.93435 0.49712 0.74191 0.0
O265 O 0.87396 0.46889 0.75596 0.0
O266 O 0.91882 0.50332 0.80823 0.0
O267 O 0.97928 0.52931 0.79437 0.0
H268 H 0.89509 0.54703 0.76864 0.0
H269 H 0.88534 0.60318 0.75846 0.0
H270 H 0.87939 0.56731 0.68618 0.0
H271 H 0.88867 0.51071 0.69663 0.0
H272 H 0.89928 0.32549 0.71119 0.0
H273 H 0.9209 0.3909 0.73279 0.0
H274 H 0.87357 0.26618 0.77499 0.0
H275 H 0.89547 0.33148 0.79629 0.0
H276 H 0.97667 0.47673 0.87787 0.0
H277 H 0.0428 0.60782 0.87531 0.0
H278 H 1.01227 0.59994 0.83627 0.0
H279 H 0.94618 0.46911 0.83881 0.0
C280 C 0.66526 0.53262 0.74001 0.0
C281 C 0.6891 0.56979 0.75325 0.0
C282 C 0.73969 0.594 0.72426 0.0
C283 C 0.72598 0.60024 0.74543 0.0
C284 C 0.71542 0.55668 0.71107 0.0
C285 C 0.67861 0.52638 0.71888 0.0
U286 U 0.5815 0.48233 0.78347 0.0
O287 O 0.51476 0.44547 0.77603 0.0
O288 O 0.54793 0.41783 0.79119 0.0
C289 C 0.5127 0.41201 0.78265 0.0
C290 C 0.62662 0.49969 0.74779 0.0
C291 C 0.48754 0.37472 0.76736 0.0
C292 C 0.47755 0.32846 0.7341 0.0
C293 C 0.50265 0.36479 0.74794 0.0
C294 C 0.42231 0.31224 0.75894 0.0
C295 C 0.43704 0.3017 0.7395 0.0
C296 C 0.44727 0.34828 0.77265 0.0
C297 C 0.58506 0.53387 0.84241 0.0
C298 C 0.54402 0.49868 0.87401 0.0
C299 C 0.57716 0.57225 0.87448 0.0
C300 C 0.59334 0.57112 0.85339 0.0
C301 C 0.55237 0.53606 0.88514 0.0
C302 C 0.56004 0.49758 0.85282 0.0
C303 C 0.60273 0.53363 0.82019 0.0
O304 O 0.62999 0.48013 0.76493 0.0
O305 O 0.59687 0.50762 0.74964 0.0
O306 O 0.58251 0.53496 0.80178 0.0
O307 O 0.61563 0.5076 0.81723 0.0
H308 H 0.67931 0.57514 0.76964 0.0
H309 H 0.74392 0.62846 0.75614 0.0
H310 H 0.72493 0.5507 0.69475 0.0
H311 H 0.66059 0.49785 0.70842 0.0
H312 H 0.48988 0.32129 0.71929 0.0
H313 H 0.53376 0.38497 0.74358 0.0
H314 H 0.3914 0.29255 0.76375 0.0
H315 H 0.43508 0.35542 0.78755 0.0
H316 H 0.52471 0.4702 0.88155 0.0
H317 H 0.58471 0.60161 0.88264 0.0
H318 H 0.61254 0.59949 0.84569 0.0
H319 H 0.5529 0.46839 0.84458 0.0
C320 C 0.51295 0.15058 0.73781 0.0
C321 C 0.48974 0.15575 0.75446 0.0
C322 C 0.4472 0.16143 0.7242 0.0
C323 C 0.45712 0.16123 0.7477 0.0
C324 C 0.47025 0.1555 0.70768 0.0
C325 C 0.50277 0.15018 0.71445 0.0
U326 U 0.57407 0.12239 0.77935 0.0
O327 O 0.60524 0.08811 0.77152 0.0
O328 O 0.64082 0.15183 0.78598 0.0
C329 C 0.64178 0.12013 0.77672 0.0
C330 C 0.54799 0.14576 0.7442 0.0
C331 C 0.67259 0.1281 0.75973 0.0
C332 C 0.7225 0.17157 0.73336 0.0
C333 C 0.69081 0.16382 0.7478 0.0
C334 C 0.71664 0.10729 0.74186 0.0
C335 C 0.7364 0.14375 0.73069 0.0
C336 C 0.68527 0.09966 0.7562 0.0
C337 C 0.53122 0.08404 0.83847 0.0
C338 C 0.5375 0.03652 0.86242 0.0
C339 C 0.51353 0.07995 0.8784 0.0
C340 C 0.51758 0.09718 0.85728 0.0
C341 C 0.52289 0.04897 0.88118 0.0
C342 C 0.5417 0.05392 0.84128 0.0
C343 C 0.53117 0.10008 0.81585 0.0
O344 O 0.57376 0.17128 0.76092 0.0
O345 O 0.53954 0.108 0.74573 0.0
O346 O 0.52414 0.07529 0.79753 0.0
O347 O 0.55978 0.13799 0.81344 0.0
H348 H 0.49704 0.15586 0.77263 0.0
H349 H 0.43998 0.16566 0.76086 0.0
H350 H 0.46354 0.1554 0.68944 0.0
H351 H 0.52025 0.14606 0.70137 0.0
H352 H 0.73721 0.20002 0.72513 0.0
H353 H 0.68138 0.18621 0.7501 0.0
H354 H 0.72629 0.08498 0.74015 0.0
H355 H 0.67161 0.07185 0.76507 0.0
H356 H 0.54557 1.01317 0.86404 0.0
H357 H 0.5018 0.09002 0.89234 0.0
H358 H 0.50906 0.12018 0.85546 0.0
H359 H 0.55242 0.0433 0.82706 0.0
C360 C 0.70952 0.55123 1.00378 0.0
C361 C 0.67901 0.54638 0.98744 0.0
C362 C 0.63388 0.53844 1.01807 0.0
C363 C 0.64144 0.53997 0.99452 0.0
C364 C 0.66496 0.54411 1.03433 0.0
C365 C 0.70235 0.55039 1.02723 0.0
U366 U 0.79587 0.58065 0.96236 0.0
O367 O 0.86232 0.61347 0.97106 0.0
O368 O 0.8312 0.5503 0.95564 0.0
C369 C 0.86535 0.58133 0.96532 0.0
C370 C 0.74867 0.55626 0.99699 0.0
C371 C 0.88941 0.57225 0.98201 0.0
C372 C 0.89761 0.52683 1.00705 0.0
C373 C 0.87248 0.53552 0.993 0.0
C374 C 0.95612 0.59209 1.00003 0.0
C375 C 0.93993 0.5547 1.01022 0.0
C376 C 0.9312 0.60066 0.98609 0.0
C377 C 0.79368 0.62368 0.90391 0.0
C378 C 0.81838 0.61873 0.86647 0.0
C379 C 0.81589 0.67911 0.87854 0.0
C380 C 0.80029 0.66232 0.89925 0.0
C381 C 0.82505 0.65752 0.86182 0.0
C382 C 0.80296 0.60202 0.88729 0.0
C383 C 0.77585 0.60638 0.92577 0.0
O384 O 0.74661 0.53136 0.97984 0.0
O385 O 0.77859 0.59404 0.99594 0.0
O386 O 0.7945 0.62988 0.94471 0.0
O387 O 0.76398 0.56777 0.92795 0.0
H388 H 0.68408 0.54712 0.96924 0.0
H389 H 0.61825 0.53583 0.98153 0.0
H390 H 0.66033 0.54321 0.05258 0.0
H391 H 0.7256 0.55417 0.04008 0.0
H392 H 0.88427 0.49771 1.01456 0.0
H393 H 0.84019 0.51312 0.99024 0.0
H394 H 0.98851 0.61445 1.00219 0.0
H395 H 0.94491 0.62921 0.97792 0.0
H396 H 0.82545 0.60142 0.85409 0.0
H397 H 0.82004 0.70875 0.87544 0.0
H398 H 0.79304 0.67952 0.91162 0.0
H399 H 0.79822 0.57213 0.8903 0.0
C400 C 0.48559 0.17103 1.00582 0.0
C401 C 0.46871 0.1339 0.99235 0.0
C402 C 0.49789 0.10799 1.02018 0.0
C403 C 0.47474 0.10261 0.99948 0.0
C404 C 0.51461 0.14531 1.03361 0.0
C405 C 0.50844 0.1765 1.02649 0.0
U406 U 0.45104 0.2204 0.96129 0.0
O407 O 0.48049 0.2846 0.95319 0.0
O408 O 0.41915 0.25474 0.96618 0.0
C409 C 0.45029 0.28889 0.96028 0.0
C410 C 0.47999 0.20444 0.99851 0.0
C411 C 0.46188 0.32556 0.97552 0.0
C412 C 0.49885 0.37194 1.00935 0.0
C413 C 0.48803 0.3362 0.99554 0.0
C414 C 0.45704 0.38604 0.98332 0.0
C415 C 0.48352 0.39735 1.00332 0.0
C416 C 0.4464 0.35059 0.96962 0.0
C417 C 0.4036 0.16677 0.90169 0.0
C418 C 0.39419 0.20052 0.86957 0.0
C419 C 0.35965 0.12672 0.86778 0.0
C420 C 0.37738 0.12887 0.88967 0.0
C421 C 0.36791 0.16251 0.8574 0.0
C422 C 0.41173 0.20263 0.89155 0.0
C423 C 0.42193 0.16823 0.92474 0.0
O424 O 0.50301 0.2253 0.98221 0.0
O425 O 0.44187 0.19574 0.99535 0.0
O426 O 0.39988 0.1662 0.94205 0.0
O427 O 0.46093 0.19574 0.92881 0.0
H428 H 0.45107 0.12921 0.97629 0.0
H429 H 0.46161 0.07441 0.98861 0.0
H430 H 0.53263 0.15058 0.0496 0.0
H431 H 0.52172 0.20503 0.03708 0.0
H432 H 0.51931 0.37975 1.0246 0.0
H433 H 0.50019 0.31706 1.00038 0.0
H434 H 0.44463 0.40473 0.97802 0.0
H435 H 0.42616 0.34282 0.95425 0.0
H436 H 0.40085 0.22864 0.8622 0.0
H437 H 0.33999 0.09698 0.8588 0.0
H438 H 0.37071 0.10086 0.8972 0.0
H439 H 0.43163 0.23223 0.90062 0.0
C440 C 0.71612 0.16909 1.00496 0.0
C441 C 0.68478 0.14253 0.98846 0.0
C442 C 0.64083 0.10586 1.01888 0.0
C443 C 0.64752 0.11139 0.99534 0.0
C444 C 0.67276 0.13184 0.03534 0.0
C445 C 0.70998 0.16323 1.02842 0.0
U446 U 0.79867 0.22078 0.96195 0.0
O447 O 0.82888 0.28397 0.95166 0.0
O448 O 0.86537 0.26069 0.96782 0.0
C449 C 0.86519 0.29242 0.95996 0.0
C450 C 0.75458 0.20384 0.99803 0.0
C451 C 0.88983 0.33183 0.97373 0.0
C452 C 0.91999 0.37201 1.01028 0.0
C453 C 0.89434 0.33432 0.99789 0.0
C454 C 0.93615 0.40527 0.97459 0.0
C455 C 0.94149 0.40793 0.99876 0.0
C456 C 0.91066 0.36761 0.96224 0.0
C457 C 0.79151 0.1632 0.90434 0.0
C458 C 0.82548 0.19392 0.86996 0.0
C459 C 0.79866 0.12187 0.87373 0.0
C460 C 0.78508 0.12545 0.89527 0.0
C461 C 0.81885 0.15601 0.86073 0.0
C462 C 0.81211 0.19753 0.8916 0.0
C463 C 0.77623 0.16589 0.92695 0.0
O464 O 0.78571 0.19792 0.99659 0.0
O465 O 0.75074 0.22311 0.98085 0.0
O466 O 0.76216 0.19104 0.9293 0.0
O467 O 0.79896 0.16782 0.94506 0.0
H468 H 0.68886 0.14626 0.97025 0.0
H469 H 0.62382 0.09186 0.98214 0.0
H470 H 0.66874 0.12852 0.05357 0.0
H471 H 0.73379 0.18336 0.04143 0.0
H472 H 0.92319 0.3729 1.02889 0.0
H473 H 0.87847 0.30711 1.00715 0.0
H474 H 0.95208 0.43218 0.96511 0.0
H475 H 0.90763 0.36636 0.94361 0.0
H476 H 0.84139 0.22093 0.86055 0.0
H477 H 0.79267 0.09216 0.86707 0.0
H478 H 0.76925 0.09859 0.90481 0.0
H479 H 0.81776 0.2271 0.89833 0.0
C480 C 0.55869 0.85774 0.06669 0.0
C481 C 0.55813 0.88449 0.08392 0.0
C482 C 0.5479 0.92293 0.05477 0.0
C483 C 0.55258 0.91662 0.07803 0.0
C484 C 0.54941 0.89657 0.03755 0.0
C485 C 0.55464 0.86417 0.04348 0.0
U486 U 0.59289 0.80785 0.10996 0.0
O487 O 0.56223 0.7449 0.12054 0.0
O488 O 0.62208 0.77083 0.10585 0.0
C489 C 0.59085 0.73826 0.11322 0.0
C490 C 0.56308 0.82298 0.07285 0.0
C491 C 0.57643 0.69926 0.09951 0.0
C492 C 0.56469 0.65958 0.06309 0.0
C493 C 0.57705 0.697 0.07541 0.0
C494 C 0.55018 0.62627 0.0988 0.0
C495 C 0.55132 0.62379 0.07468 0.0
C496 C 0.56267 0.66361 0.11104 0.0
C497 C 0.64331 0.86728 0.1681 0.0
C498 C 0.65112 0.8371 0.20234 0.0
C499 C 0.68847 0.9106 0.20085 0.0
C500 C 0.6709 0.90617 0.1786 0.0
C501 C 0.67858 0.87613 0.21304 0.0
C502 C 0.63377 0.8327 0.18001 0.0
C503 C 0.6246 0.86347 0.14485 0.0
O504 O 0.60084 0.83036 0.07525 0.0
O505 O 0.54045 0.80213 0.08929 0.0
O506 O 0.5853 0.83657 0.14157 0.0
O507 O 0.64576 0.86256 0.12771 0.0
H508 H 0.56158 0.88029 0.10195 0.0
H509 H 0.55183 0.93643 0.09176 0.0
H510 H 0.54588 0.90051 1.01949 0.0
H511 H 0.55517 0.84392 1.02995 0.0
H512 H 0.5658 0.65876 0.04453 0.0
H513 H 0.5874 0.72416 0.06613 0.0
H514 H 0.54006 0.59943 0.10832 0.0
H515 H 0.56195 0.66472 0.12964 0.0
H516 H 0.64329 0.80995 0.21116 0.0
H517 H 0.70918 0.94106 0.20869 0.0
H518 H 0.67863 0.93319 0.16965 0.0
H519 H 0.61278 0.80235 0.17211 0.0
C520 C 0.3318 0.86585 0.07329 0.0
C521 C 0.35563 0.90303 0.08652 0.0
C522 C 0.40621 0.92724 0.05753 0.0
C523 C 0.3925 0.93348 0.0787 0.0
C524 C 0.38194 0.88993 0.04434 0.0
C525 C 0.34514 0.85962 0.05216 0.0
U526 U 0.24809 0.81558 0.11678 0.0
O527 O 0.18134 0.77868 0.10936 0.0
O528 O 0.21456 0.75111 0.12453 0.0
C529 C 0.17931 0.74525 0.11601 0.0
C530 C 0.29317 0.83292 0.08108 0.0
C531 C 0.15416 0.70793 0.10073 0.0
C532 C 0.14411 0.66168 0.06745 0.0
C533 C 0.16922 0.69804 0.08128 0.0
C534 C 0.08898 0.64536 0.09239 0.0
C535 C 0.10365 0.63487 0.07291 0.0
C536 C 0.11394 0.68142 0.10609 0.0
C537 C 0.25168 0.86721 0.17569 0.0
C538 C 0.21067 0.83205 0.20731 0.0
C539 C 0.24382 0.90561 0.20776 0.0
C540 C 0.25997 0.90447 0.18667 0.0
C541 C 0.21904 0.86943 0.21843 0.0
C542 C 0.22667 0.83092 0.18611 0.0
C543 C 0.26933 0.86694 0.15347 0.0
O544 O 0.29657 0.81339 0.09823 0.0
O545 O 0.2634 0.84082 0.08293 0.0
O546 O 0.24908 0.86823 0.13506 0.0
O547 O 0.28225 0.84093 0.15052 0.0
H548 H 0.34585 0.90838 0.10291 0.0
H549 H 0.41045 0.96171 0.08941 0.0
H550 H 0.39145 0.88394 1.02802 0.0
H551 H 0.32712 0.83108 0.0417 0.0
H552 H 0.1564 0.65456 0.05261 0.0
H553 H 0.20029 0.71827 0.07687 0.0
H554 H 0.0581 0.62562 0.09724 0.0
H555 H 0.10178 0.68853 0.12102 0.0
H556 H 0.19137 0.80357 0.21486 0.0
H557 H 0.25138 0.93498 0.21592 0.0
H558 H 0.27917 0.93282 0.17896 0.0
H559 H 0.21952 0.80172 0.17788 0.0
C560 C 0.17958 0.48381 0.07119 0.0
C561 C 0.15634 0.48891 0.08784 0.0
C562 C 0.11382 0.49464 0.05758 0.0
C563 C 0.12372 0.49439 0.08108 0.0
C564 C 0.1369 0.48877 0.04106 0.0
C565 C 0.16944 0.48346 0.04782 0.0
U566 U 0.24071 0.45565 0.11274 0.0
O567 O 0.27188 0.42137 0.10492 0.0
O568 O 0.30745 0.48509 0.11937 0.0
C569 C 0.30842 0.4534 0.11011 0.0
C570 C 0.21463 0.47899 0.07758 0.0
C571 C 0.33921 0.46136 0.09311 0.0
C572 C 0.38907 0.50482 0.06672 0.0
C573 C 0.35741 0.49708 0.08118 0.0
C574 C 0.38323 0.44054 0.07521 0.0
C575 C 0.40297 0.477 0.06403 0.0
C576 C 0.35189 0.43292 0.08957 0.0
C577 C 0.19785 0.41736 0.17186 0.0
C578 C 0.20418 0.36988 0.19583 0.0
C579 C 0.18009 0.41324 0.21178 0.0
C580 C 0.18415 0.43047 0.19065 0.0
C581 C 0.1895 0.3823 0.21458 0.0
C582 C 0.20838 0.38728 0.1747 0.0
C583 C 0.1978 0.43337 0.14924 0.0
O584 O 0.2404 0.50453 0.09428 0.0
O585 O 0.20617 0.44124 0.07912 0.0
O586 O 0.19078 0.40857 0.13092 0.0
O587 O 0.22641 0.47127 0.14682 0.0
H588 H 0.16363 0.48898 0.106 0.0
H589 H 0.10655 0.49876 0.09424 0.0
H590 H 0.13022 0.48871 1.02282 0.0
H591 H 0.18694 0.47938 1.03475 0.0
H592 H 0.40377 0.53327 0.05849 0.0
H593 H 0.34798 0.51947 0.08348 0.0
H594 H 0.39288 0.41824 0.07349 0.0
H595 H 0.33824 0.40511 0.09845 0.0
H596 H 0.21228 0.34657 0.19747 0.0
H597 H 0.16832 0.42328 0.22571 0.0
H598 H 0.17559 0.45343 0.18882 0.0
H599 H 0.21915 0.37668 0.16049 0.0
C600 C 0.37622 0.88455 0.33708 0.0
C601 C 0.34572 0.87971 0.32074 0.0
C602 C 0.3006 0.87182 0.35137 0.0
C603 C 0.30816 0.87333 0.32782 0.0
C604 C 0.33169 0.87748 0.36763 0.0
C605 C 0.36906 0.88373 0.36052 0.0
U606 U 0.46255 0.9139 0.29565 0.0
O607 O 0.52899 0.94669 0.30434 0.0
O608 O 0.49785 0.88352 0.28893 0.0
C609 C 0.53201 0.91454 0.29862 0.0
C610 C 0.41536 0.88955 0.33029 0.0
C611 C 0.55604 0.90545 0.31532 0.0
C612 C 0.56422 0.86 0.34034 0.0
C613 C 0.53911 0.86869 0.32627 0.0
C614 C 0.62272 0.92531 0.33338 0.0
C615 C 0.60653 0.88789 0.34355 0.0
C616 C 0.59781 0.93388 0.31944 0.0
C617 C 0.46034 0.95694 0.2372 0.0
C618 C 0.48513 0.95205 0.19979 0.0
C619 C 0.48239 1.01231 0.2118 0.0
C620 C 0.46681 0.99553 0.23252 0.0
C621 C 0.49166 0.99078 0.19511 0.0
C622 C 0.46973 0.93534 0.22062 0.0
C623 C 0.44253 0.93964 0.25906 0.0
O624 O 0.41327 0.86464 0.31314 0.0
O625 O 0.44529 0.92731 0.32923 0.0
O626 O 0.4612 0.96314 0.278 0.0
O627 O 0.43064 0.90103 0.26125 0.0
H628 H 0.35078 0.88043 0.30254 0.0
H629 H 0.28497 0.8692 0.31483 0.0
H630 H 0.32706 0.87658 0.38588 0.0
H631 H 0.3923 0.88749 0.37338 0.0
H632 H 0.55087 0.83086 0.34783 0.0
H633 H 0.50682 0.84628 0.32349 0.0
H634 H 0.6551 0.94768 0.33558 0.0
H635 H 0.61154 0.96245 0.31129 0.0
H636 H 0.4923 0.93479 0.18743 0.0
H637 H 0.48643 0.04191 0.20868 0.0
H638 H 0.45947 1.01268 0.24487 0.0
H639 H 0.4651 0.9055 0.22365 0.0
C640 C 0.15211 0.50434 0.33927 0.0
C641 C 0.13523 0.46721 0.32579 0.0
C642 C 0.16441 0.4413 0.35362 0.0
C643 C 0.14125 0.43592 0.33292 0.0
C644 C 0.18112 0.47861 0.36706 0.0
C645 C 0.17496 0.5098 0.35993 0.0
U646 U 0.11759 0.55369 0.29472 0.0
O647 O 0.14707 0.61788 0.28658 0.0
O648 O 0.08574 0.58808 0.29959 0.0
C649 C 0.11689 0.62221 0.29367 0.0
C650 C 0.14653 0.53776 0.33195 0.0
C651 C 0.12852 0.65891 0.30889 0.0
C652 C 0.1655 0.70531 0.34271 0.0
C653 C 0.15464 0.66955 0.32892 0.0
C654 C 0.12377 0.71945 0.31664 0.0
C655 C 0.15023 0.73075 0.33665 0.0
C656 C 0.1131 0.68397 0.30296 0.0
C657 C 0.07012 0.49999 0.23513 0.0
C658 C 0.06076 0.53372 0.20298 0.0
C659 C 0.02614 0.45991 0.20124 0.0
C660 C 0.04386 0.46208 0.22314 0.0
C661 C 0.03445 0.4957 0.19083 0.0
C662 C 0.07828 0.53584 0.22497 0.0
C663 C 0.08844 0.50148 0.25819 0.0
O664 O 0.16955 0.55859 0.31565 0.0
O665 O 0.10842 0.52908 0.32879 0.0
O666 O 0.0664 0.4995 0.2755 0.0
O667 O 0.12745 0.52897 0.26225 0.0
H668 H 0.11759 0.46253 0.30973 0.0
H669 H 0.12813 0.40772 0.32205 0.0
H670 H 0.19914 0.48387 0.38304 0.0
H671 H 0.18824 0.53833 0.37053 0.0
H672 H 0.18594 0.71312 0.35797 0.0
H673 H 0.16676 0.65038 0.33378 0.0
H674 H 0.1114 0.73817 0.31133 0.0
H675 H 0.09287 0.67621 0.28758 0.0
H676 H 0.06746 0.56183 0.19559 0.0
H677 H 1.00646 0.43017 0.19228 0.0
H678 H 0.03716 0.43408 0.23069 0.0
H679 H 0.09822 0.56546 0.23403 0.0
C680 C 0.38268 0.50236 0.33833 0.0
C681 C 0.35132 0.4758 0.32185 0.0
C682 C 0.30738 0.43919 0.35228 0.0
C683 C 0.31406 0.44469 0.32874 0.0
C684 C 0.33932 0.46517 0.36873 0.0
C685 C 0.37655 0.49653 0.36179 0.0
U686 U 0.4652 0.55399 0.29529 0.0
O687 O 0.49541 0.61719 0.285 0.0
O688 O 0.53189 0.59388 0.30115 0.0
C689 C 0.53172 0.62562 0.29329 0.0
C690 C 0.42114 0.53709 0.33139 0.0
C691 C 0.55639 0.66503 0.30706 0.0
C692 C 0.58657 0.70521 0.34361 0.0
C693 C 0.56091 0.66752 0.33122 0.0
C694 C 0.60272 0.73846 0.30792 0.0
C695 C 0.60807 0.74112 0.33209 0.0
C696 C 0.57721 0.70081 0.29557 0.0
C697 C 0.45799 0.49643 0.23767 0.0
C698 C 0.4918 0.52711 0.20325 0.0
C699 C 0.46529 0.45513 0.2071 0.0
C700 C 0.4517 0.45871 0.22864 0.0
C701 C 0.48532 0.48923 0.19406 0.0
C702 C 0.47843 0.53072 0.22488 0.0
C703 C 0.44271 0.49911 0.26029 0.0
O704 O 0.45225 0.53114 0.32994 0.0
O705 O 0.41729 0.55636 0.31421 0.0
O706 O 0.42865 0.52427 0.26265 0.0
O707 O 0.46545 0.50102 0.2784 0.0
H708 H 0.35539 0.4795 0.30363 0.0
H709 H 0.29034 0.42515 0.31554 0.0
H710 H 0.33532 0.46187 0.38697 0.0
H711 H 0.40038 0.51667 0.3748 0.0
H712 H 0.58978 0.7061 0.36221 0.0
H713 H 0.54503 0.64031 0.34048 0.0
H714 H 0.61865 0.76537 0.29844 0.0
H715 H 0.57418 0.69955 0.27694 0.0
H716 H 0.50758 0.55409 0.1938 0.0
H717 H 0.45942 0.42545 0.20047 0.0
H718 H 0.436 0.43188 0.23822 0.0
H719 H 0.48396 0.56026 0.23158 0.0
Eu720 Eu 0.51076 0.99624 1.01062 0.0
Eu721 Eu 0.53579 0.03586 0.06526 0.0
C722 C 0.50557 0.07538 1.02729 0.0
C723 C 0.50149 0.99062 0.94516 0.0
C724 C 0.51873 0.03308 0.94535 0.0
C725 C 0.49906 0.98641 0.9033 0.0
C726 C 0.52595 0.05207 0.92463 0.0
C727 C 0.49179 0.96745 0.92403 0.0
C728 C 0.5162 0.02897 0.90331 0.0
C729 C 0.49461 0.97053 0.9669 0.0
O730 O 0.46727 0.99381 0.06209 0.0
O731 O 0.46015 0.95065 1.03102 0.0
C732 C 0.44616 0.95882 0.04967 0.0
O733 O 0.54141 0.9652 1.02717 0.0
O734 O 0.52501 0.06464 0.0954 0.0
O735 O 0.57287 0.0496 0.09759 0.0
O736 O 0.53147 0.9747 0.06508 0.0
C737 C 0.5404 0.95614 0.04871 0.0
O738 O 0.56973 0.05605 1.01012 0.0
O739 O 0.59543 0.0656 0.04768 0.0
O740 O 0.53092 0.08273 0.04527 0.0
O741 O 0.5275 0.97744 0.97883 0.0
O742 O 0.46834 0.97267 0.97989 0.0
O743 O 0.48781 0.04026 1.01488 0.0
C744 C 0.53677 0.04334 0.1308 0.0
C745 C 0.50786 1.00158 0.13102 0.0
C746 C 0.53694 0.05046 0.17251 0.0
C747 C 0.49354 0.98438 0.15188 0.0
C748 C 0.5513 0.06757 0.15167 0.0
C749 C 0.50774 1.00866 0.17291 0.0
C750 C 0.55156 0.06193 0.10893 0.0
C751 C 0.60029 0.07399 1.02594 0.0
H752 H 0.52674 0.05154 0.96153 0.0
H753 H 0.49063 0.96759 0.88724 0.0
H754 H 0.53958 0.08492 0.92533 0.0
H755 H 0.47854 0.93466 0.92355 0.0
H756 H 0.49615 0.98239 0.11504 0.0
H757 H 0.54894 0.06995 0.18836 0.0
H758 H 0.47074 0.95225 0.15149 0.0
H759 H 0.5737 0.09982 0.15184 0.0
Eu760 Eu 0.04775 0.53849 1.01208 0.0
Eu761 Eu 0.99868 0.50451 0.05904 0.0
C762 C 0.9698 0.44775 1.01177 0.0
C763 C 0.06314 0.55724 0.94914 0.0
C764 C 1.0215 0.52938 0.94336 0.0
C765 C 0.07151 0.5758 0.90957 0.0
C766 C 1.00503 0.52453 0.92079 0.0
C767 C 0.08802 0.58043 0.93214 0.0
C768 C 0.02982 0.54771 0.90363 0.0
C769 C 0.08047 0.56213 0.97286 0.0
O770 O 0.06036 0.50978 0.06545 0.0
O771 O 0.07369 0.5032 1.02799 0.0
C772 C 0.08067 0.50224 0.05008 0.0
O773 O 0.08949 0.58482 0.04086 0.0
O774 O 0.97457 0.45843 0.08406 0.0
O775 O 0.96911 0.51214 0.08885 0.0
O776 O 0.03914 0.57266 0.06529 0.0
C777 C 0.07643 0.5958 0.05894 0.0
O778 O 1.00675 0.56438 1.01655 0.0
O779 O 0.95574 0.51332 1.03487 0.0
O780 O 0.97616 0.44905 1.03417 0.0
O781 O 0.07436 0.58525 0.98745 0.0
O782 O 0.07412 0.52864 0.98153 0.0
O783 O 0.988 0.48101 1.00066 0.0
C784 C 0.98231 0.48603 0.12207 0.0
C785 C 1.0231 0.51607 0.12844 0.0
C786 C 0.97509 0.46352 0.16085 0.0
C787 C 0.0398 0.51974 0.15087 0.0
C788 C 0.95838 0.45999 0.13845 0.0
C789 C 1.01612 0.49321 0.1673 0.0
C790 C 0.96549 0.47998 0.09806 0.0
C791 C 0.96848 0.54396 1.0216 0.0
H792 H 1.00173 0.51143 0.95632 0.0
H793 H 0.09145 0.59385 0.89669 0.0
H794 H 0.97272 0.50309 0.91687 0.0
H795 H 0.12021 0.60208 0.93632 0.0
H796 H 0.04225 0.53618 0.11594 0.0
H797 H 0.95587 0.44292 0.17313 0.0
H798 H 0.07161 0.54259 0.15514 0.0
H799 H 0.92691 0.43651 0.13382 0.0
Eu800 Eu 0.52699 0.49438 0.0635 0.0
Eu801 Eu 0.50753 0.52614 1.01516 0.0
C802 C 0.53911 0.58414 0.06192 0.0
C803 C 0.52439 0.47696 0.12689 0.0
C804 C 0.50576 0.5004 0.13056 0.0
C805 C 0.51754 0.46151 0.16706 0.0
C806 C 0.49333 0.50458 0.15236 0.0
C807 C 0.53017 0.45754 0.14526 0.0
C808 C 0.49902 0.48516 0.1709 0.0
C809 C 0.53783 0.47289 0.10397 0.0
O810 O 0.56422 0.52236 1.0101 0.0
O811 O 0.58759 0.52828 0.04776 0.0
C812 C 0.59357 0.52992 1.02567 0.0
O813 O 0.52085 0.44785 0.03556 0.0
O814 O 0.52698 0.57177 0.98986 0.0
O815 O 0.46882 0.51565 0.98384 0.0
O816 O 0.47983 0.45802 1.01014 0.0
C817 C 0.49533 0.436 1.01712 0.0
O818 O 0.45917 0.46709 0.05763 0.0
O819 O 0.45722 0.51719 0.03858 0.0
O820 O 0.54256 0.5825 0.03961 0.0
O821 O 0.50902 0.44819 0.0885 0.0
O822 O 0.56405 0.50699 0.09566 0.0
O823 O 0.52473 0.5512 0.07328 0.0
C824 C 0.50787 0.54302 0.95164 0.0
C825 C 0.52192 0.5158 0.94695 0.0
C826 C 0.52122 0.56437 0.91264 0.0
C827 C 0.53562 0.51297 0.92527 0.0
C828 C 0.50739 0.56706 0.93429 0.0
C829 C 0.53586 0.53754 0.90788 0.0
C830 C 0.49643 0.54846 0.97497 0.0
C831 C 0.44073 0.48713 0.05228 0.0
H832 H 0.50078 0.51544 0.11654 0.0
H833 H 0.52273 0.44647 0.18099 0.0
H834 H 0.47868 0.52252 0.1546 0.0
H835 H 0.54454 0.43937 0.14276 0.0
H836 H 0.52301 0.49729 0.9602 0.0
H837 H 0.52047 0.58338 0.89961 0.0
H838 H 0.54712 0.49237 0.92237 0.0
H839 H 0.49687 0.5884 0.93759 0.0
Eu840 Eu 0.17733 0.32958 0.34402 0.0
Eu841 Eu 0.20235 0.36918 0.39868 0.0
C842 C 0.1721 0.40868 0.36072 0.0
C843 C 0.16807 0.32397 0.27856 0.0
C844 C 0.18526 0.36643 0.27875 0.0
C845 C 0.16572 0.31975 0.2367 0.0
C846 C 0.1925 0.38541 0.25803 0.0
C847 C 0.15843 0.30081 0.25744 0.0
C848 C 0.1828 0.36231 0.23671 0.0
C849 C 0.1612 0.30389 0.3003 0.0
O850 O 0.13383 0.32708 0.3955 0.0
O851 O 0.12674 0.28395 0.36442 0.0
C852 C 0.11273 0.2921 0.38307 0.0
O853 O 0.20801 0.29858 0.36057 0.0
O854 O 0.19146 0.39787 0.42884 0.0
O855 O 0.23945 0.38302 0.43099 0.0
O856 O 0.19808 0.30804 0.39849 0.0
C857 C 0.20702 0.28951 0.38211 0.0
O858 O 0.23628 0.3894 0.34354 0.0
O859 O 0.26199 0.39895 0.38109 0.0
O860 O 0.19745 0.41604 0.3787 0.0
O861 O 0.19408 0.31079 0.31224 0.0
O862 O 0.13492 0.30602 0.31329 0.0
O863 O 0.15434 0.37357 0.3483 0.0
C864 C 0.20341 0.37673 0.46425 0.0
C865 C 0.17763 0.33437 0.46478 0.0
C866 C 0.2003 0.38459 0.50567 0.0
C867 C 0.1633 0.31722 0.48565 0.0
C868 C 0.21472 0.40165 0.48483 0.0
C869 C 0.17427 0.34216 0.50637 0.0
C870 C 0.21808 0.39526 0.44235 0.0
C871 C 0.26684 0.40734 0.35935 0.0
H872 H 0.19323 0.38488 0.29493 0.0
H873 H 0.15732 0.30094 0.22065 0.0
H874 H 0.20609 0.41825 0.25872 0.0
H875 H 0.14522 0.26801 0.25696 0.0
H876 H 0.16836 0.31462 0.44902 0.0
H877 H 0.20978 0.40465 0.5213 0.0
H878 H 0.14294 0.28453 0.48549 0.0
H879 H 0.23463 0.4344 0.48477 0.0
Eu880 Eu 0.71433 0.87169 0.3454 0.0
Eu881 Eu 0.66527 0.8377 0.39237 0.0
C882 C 0.63639 0.78095 0.3451 0.0
C883 C 0.72968 0.89044 0.28246 0.0
C884 C 0.68806 0.86252 0.27667 0.0
C885 C 0.738 0.90908 0.2429 0.0
C886 C 0.67157 0.85768 0.25411 0.0
C887 C 0.75453 0.91371 0.26547 0.0
C888 C 0.69634 0.88093 0.23695 0.0
C889 C 0.74703 0.89533 0.30618 0.0
O890 O 0.72697 0.84298 0.39877 0.0
O891 O 0.7403 0.83642 0.36131 0.0
C892 C 0.74728 0.83546 0.3834 0.0
O893 O 0.75607 0.91802 0.37418 0.0
O894 O 0.64119 0.79162 0.41739 0.0
O895 O 0.63571 0.84532 0.42218 0.0
O896 O 0.70573 0.90585 0.39862 0.0
C897 C 0.74301 0.92899 0.39226 0.0
O898 O 0.67335 0.89759 0.34989 0.0
O899 O 0.62233 0.84651 0.36819 0.0
O900 O 0.64276 0.78224 0.3675 0.0
O901 O 0.74092 0.91845 0.32077 0.0
O902 O 0.74069 0.86185 0.31485 0.0
O903 O 0.65459 0.81421 0.33398 0.0
C904 C 0.64895 0.81924 0.4554 0.0
C905 C 0.68971 0.84934 0.46177 0.0
C906 C 0.64179 0.79669 0.49417 0.0
C907 C 0.70643 0.85303 0.4842 0.0
C908 C 0.62506 0.79315 0.47177 0.0
C909 C 0.6828 0.82645 0.50062 0.0
C910 C 0.63211 0.81317 0.4314 0.0
C911 C 0.63507 0.87715 0.35494 0.0
H912 H 0.66831 0.84451 0.28962 0.0
H913 H 0.75792 0.92719 0.23003 0.0
H914 H 0.63928 0.83619 0.25018 0.0
H915 H 0.78671 0.93541 0.26965 0.0
H916 H 0.70882 0.8695 0.44928 0.0
H917 H 0.62261 0.77605 0.50645 0.0
H918 H 0.73822 0.87594 0.48847 0.0
H919 H 0.59361 0.76961 0.46714 0.0
Eu920 Eu 0.19374 0.82782 0.39681 0.0
Eu921 Eu 0.17428 0.85957 0.34847 0.0
C922 C 0.2059 0.91759 0.39522 0.0
C923 C 0.1912 0.81046 0.46021 0.0
C924 C 0.17275 0.83406 0.46391 0.0
C925 C 0.18421 0.79489 0.50036 0.0
C926 C 0.16033 0.83826 0.48571 0.0
C927 C 0.19682 0.7909 0.47855 0.0
C928 C 0.16587 0.81869 0.50423 0.0
C929 C 0.2046 0.80636 0.43729 0.0
O930 O 0.23095 0.85576 0.34341 0.0
O931 O 0.25434 0.86171 0.38106 0.0
C932 C 0.2603 0.86332 0.35897 0.0
O933 O 0.18757 0.78127 0.36888 0.0
O934 O 0.19375 0.9052 0.32317 0.0
O935 O 0.13556 0.84909 0.31715 0.0
O936 O 0.14658 0.79145 0.34345 0.0
C937 C 0.16206 0.76943 0.35044 0.0
O938 O 0.12592 0.80054 0.39094 0.0
O939 O 0.12398 0.85063 0.37189 0.0
O940 O 0.20934 0.91594 0.37291 0.0
O941 O 0.17577 0.78166 0.42182 0.0
O942 O 0.23083 0.84044 0.42896 0.0
O943 O 0.19149 0.88465 0.40658 0.0
C944 C 0.1746 0.87645 0.28495 0.0
C945 C 0.18864 0.84922 0.28025 0.0
C946 C 0.18792 0.89777 0.24594 0.0
C947 C 0.20233 0.84637 0.25858 0.0
C948 C 0.17411 0.90048 0.26759 0.0
C949 C 0.20256 0.87093 0.24118 0.0
C950 C 0.16318 0.8819 0.30828 0.0
C951 C 0.10749 0.82058 0.38559 0.0
H952 H 0.16789 0.8492 0.4499 0.0
H953 H 0.18928 0.77974 0.51427 0.0
H954 H 0.14582 0.85632 0.48797 0.0
H955 H 0.21105 0.77261 0.47604 0.0
H956 H 0.18975 0.83071 0.29351 0.0
H957 H 0.18715 0.91676 0.23291 0.0
H958 H 0.21382 0.82577 0.25567 0.0
H959 H 0.1636 0.92181 0.27089 0.0
Eu960 Eu 0.84422 0.663 0.67734 0.0
Eu961 Eu 0.86927 0.70263 0.73198 0.0
C962 C 0.83901 0.74212 0.69402 0.0
C963 C 0.83493 0.65736 0.61188 0.0
C964 C 0.85214 0.69982 0.61207 0.0
C965 C 0.83251 0.65313 0.57002 0.0
C966 C 0.85936 0.7188 0.59135 0.0
C967 C 0.82524 0.63419 0.59076 0.0
C968 C 0.84962 0.6957 0.57003 0.0
C969 C 0.82806 0.63728 0.63362 0.0
O970 O 0.80075 0.66057 0.72882 0.0
O971 O 0.79363 0.6174 0.69775 0.0
C972 C 0.77965 0.62557 0.7164 0.0
O973 O 0.87491 0.63199 0.69388 0.0
O974 O 0.8585 0.73141 0.76213 0.0
O975 O 0.90634 0.71634 0.76432 0.0
O976 O 0.86497 0.64147 0.73179 0.0
C977 C 0.8739 0.62292 0.71543 0.0
O978 O 0.90318 0.72282 0.67684 0.0
O979 O 0.9289 0.73239 0.7144 0.0
O980 O 0.86437 0.74948 0.712 0.0
O981 O 0.86095 0.64419 0.64556 0.0
O982 O 0.80179 0.63942 0.64662 0.0
O983 O 0.82125 0.707 0.68161 0.0
C984 C 0.87023 0.71008 0.79752 0.0
C985 C 0.84122 0.66836 0.79773 0.0
C986 C 0.87044 0.71717 0.83924 0.0
C987 C 0.82688 0.65115 0.81858 0.0
C988 C 0.88483 0.73429 0.8184 0.0
C989 C 0.84115 0.6754 0.83962 0.0
C990 C 0.88503 0.72868 0.77566 0.0
C991 C 0.93375 0.74078 0.69265 0.0
H992 H 0.86014 0.71828 0.62825 0.0
H993 H 0.82409 0.63431 0.55397 0.0
H994 H 0.87298 0.75164 0.59204 0.0
H995 H 0.81201 0.6014 0.59029 0.0
H996 H 0.82945 0.64919 0.78174 0.0
H997 H 0.88251 0.73664 0.8551 0.0
H998 H 0.80399 0.61904 0.81818 0.0
H999 H 0.9073 0.76651 0.81858 0.0
Eu1000 Eu 0.38119 0.20531 0.67867 0.0
Eu1001 Eu 0.33208 0.17137 0.72562 0.0
C1002 C 0.30322 0.11458 0.67837 0.0
C1003 C 0.39661 0.22405 0.61574 0.0
C1004 C 0.35498 0.19618 0.60996 0.0
C1005 C 0.40497 0.24259 0.57617 0.0
C1006 C 0.3385 0.19133 0.5874 0.0
C1007 C 0.42149 0.24724 0.59874 0.0
C1008 C 0.36329 0.2145 0.57023 0.0
C1009 C 0.41395 0.22894 0.63946 0.0
O1010 O 0.39376 0.17662 0.73205 0.0
O1011 O 0.40708 0.17 0.6946 0.0
C1012 C 0.41406 0.16905 0.71669 0.0
O1013 O 0.42291 0.25164 0.70746 0.0
O1014 O 0.30793 0.12529 0.75064 0.0
O1015 O 0.30255 0.17904 0.75544 0.0
O1016 O 0.37252 0.23952 0.73185 0.0
C1017 C 0.40983 0.26264 0.72552 0.0
O1018 O 0.34017 0.23119 0.6831 0.0
O1019 O 0.28915 0.18016 0.70143 0.0
O1020 O 0.30955 0.11589 0.70077 0.0
O1021 O 0.40784 0.25208 0.65405 0.0
O1022 O 0.40759 0.19545 0.64814 0.0
O1023 O 0.32145 0.14783 0.66724 0.0
C1024 C 0.31573 0.15291 0.78865 0.0
C1025 C 0.35651 0.18297 0.79503 0.0
C1026 C 0.30854 0.13033 0.82742 0.0
C1027 C 0.37322 0.18662 0.81745 0.0
C1028 C 0.29182 0.12682 0.80503 0.0
C1029 C 0.34957 0.16005 0.83387 0.0
C1030 C 0.29889 0.14687 0.76465 0.0
C1031 C 0.3019 0.21077 0.68815 0.0
H1032 H 0.33521 0.17823 0.62293 0.0
H1033 H 0.42492 0.26064 0.56329 0.0
H1034 H 0.3062 0.16988 0.58348 0.0
H1035 H 0.45369 0.26889 0.60292 0.0
H1036 H 0.37564 0.20311 0.78254 0.0
H1037 H 0.28934 0.1097 0.8397 0.0
H1038 H 0.40502 0.2095 0.82173 0.0
H1039 H 0.26036 0.10332 0.80039 0.0
Eu1040 Eu 0.86043 0.1611 0.73016 0.0
Eu1041 Eu 0.84097 0.19285 0.68183 0.0
C1042 C 0.87259 0.25087 0.72858 0.0
C1043 C 0.85789 0.14371 0.79355 0.0
C1044 C 0.83942 0.1673 0.79726 0.0
C1045 C 0.85091 0.12815 0.83371 0.0
C1046 C 0.827 0.17149 0.81906 0.0
C1047 C 0.86353 0.12416 0.8119 0.0
C1048 C 0.83255 0.15193 0.83757 0.0
C1049 C 0.87129 0.13962 0.77063 0.0
O1050 O 0.89765 0.18905 0.67676 0.0
O1051 O 0.92103 0.19497 0.71441 0.0
C1052 C 0.92699 0.19659 0.69232 0.0
O1053 O 0.85425 0.11455 0.70223 0.0
O1054 O 0.86043 0.23847 0.65652 0.0
O1055 O 0.80224 0.18238 0.65052 0.0
O1056 O 0.81325 0.12473 0.6768 0.0
C1057 C 0.82873 0.10271 0.68379 0.0
O1058 O 0.79261 0.13384 0.72431 0.0
O1059 O 0.79067 0.18393 0.70525 0.0
O1060 O 0.87602 0.24922 0.70627 0.0
O1061 O 0.84247 0.11492 0.75517 0.0
O1062 O 0.89752 0.17371 0.76231 0.0
O1063 O 0.8582 0.21794 0.73994 0.0
C1064 C 0.84126 0.20971 0.6183 0.0
C1065 C 0.85533 0.18251 0.61361 0.0
C1066 C 0.85449 0.23097 0.57928 0.0
C1067 C 0.86899 0.17965 0.59193 0.0
C1068 C 0.84071 0.2337 0.60094 0.0
C1069 C 0.86916 0.20416 0.57453 0.0
C1070 C 0.82986 0.21518 0.64164 0.0
C1071 C 0.77418 0.15388 0.71895 0.0
H1072 H 0.83455 0.18243 0.78325 0.0
H1073 H 0.85599 0.113 0.84762 0.0
H1074 H 0.81248 0.18954 0.82132 0.0
H1075 H 0.87777 0.10588 0.80938 0.0
H1076 H 0.85648 0.16403 0.62687 0.0
H1077 H 0.85368 0.24994 0.56624 0.0
H1078 H 0.88052 0.15906 0.58903 0.0
H1079 H 0.83016 0.25501 0.60423 0.0
loop_
_geom_bond_atom_site_label_1
_geom_bond_atom_site_label_2
_geom_bond_distance
_geom_bond_site_symmetry_2
_ccdc_geom_bond_type
C0 C1 1.264 . S
C0 C5 1.479 . S
C0 C10 1.465 . S
C1 C0 1.264 . S
C1 C3 1.339 . S
C1 H28 0.931 . S
C2 C3 1.395 . S
C2 C4 1.320 . S
C3 C1 1.339 . S
C3 C2 1.395 . S
C3 H29 0.929 . S
C4 C2 1.320 . S
C4 C5 1.405 . S
C4 H30 0.930 . S
C5 C0 1.479 . S
C5 C4 1.405 . S
C5 H31 0.931 . S
U6 O7 2.454 . S
U6 O8 2.458 . S
U6 C9 2.984 . S
U6 C10 2.847 . S
U6 C23 2.882 . S
U6 O24 2.441 . S
U6 O25 2.420 . S
U6 O26 2.455 . S
U6 O27 2.449 . S
O7 U6 2.454 . S
O7 C9 1.353 . S
O8 U6 2.458 . S
O8 C9 1.286 . S
C9 U6 2.984 . S
C9 O7 1.353 . S
C9 O8 1.286 . S
C9 C11 1.363 . S
C10 C0 1.465 . S
C10 U6 2.847 . S
C10 O24 1.249 . S
C10 O25 1.202 . S
C11 C9 1.363 . S
C11 C13 1.408 . S
C11 C16 1.342 . S
C12 C13 1.310 . S
C12 C15 1.461 1_545 S
C12 H32 0.932 . S
C13 C11 1.408 . S
C13 C12 1.310 . S
C13 H33 0.930 . S
C14 C15 1.474 . S
C14 C16 1.285 1_565 S
C14 H34 0.929 . S
C15 C12 1.461 1_565 S
C15 C14 1.474 . S
C16 C11 1.342 . S
C16 C14 1.285 1_545 S
C16 H35 0.930 . S
C17 C20 1.424 . S
C17 C22 1.245 . S
C17 C23 1.428 . S
C18 C21 1.260 . S
C18 C22 1.477 . S
C18 H36 0.932 . S
C19 C20 1.384 . S
C19 C21 1.479 . S
C19 H37 0.929 . S
C20 C17 1.424 . S
C20 C19 1.384 . S
C20 H38 0.928 . S
C21 C18 1.260 . S
C21 C19 1.479 . S
C22 C17 1.245 . S
C22 C18 1.477 . S
C22 H39 0.932 . S
C23 U6 2.882 . S
C23 C17 1.428 . S
C23 O26 1.301 . S
C23 O27 1.282 . S
O24 U6 2.441 . S
O24 C10 1.249 . S
O25 U6 2.420 . S
O25 C10 1.202 . S
O26 U6 2.455 . S
O26 C23 1.301 . S
O27 U6 2.449 . S
O27 C23 1.282 . S
H28 C1 0.931 . S
H29 C3 0.929 . S
H30 C4 0.930 . S
H31 C5 0.931 . S
H32 C12 0.932 . S
H33 C13 0.930 . S
H34 C14 0.929 . S
H35 C16 0.930 . S
H36 C18 0.932 . S
H37 C19 0.929 . S
H38 C20 0.928 . S
H39 C22 0.932 . S
C40 C41 1.264 . S
C40 C45 1.479 . S
C40 C50 1.465 . S
C41 C40 1.264 . S
C41 C43 1.339 1_655 S
C41 H68 0.931 . S
C42 C43 1.395 . S
C42 C44 1.320 . S
C43 C41 1.339 1_455 S
C43 C42 1.395 . S
C43 H69 0.929 . S
C44 C42 1.320 . S
C44 C45 1.405 1_455 S
C44 H70 0.930 . S
C45 C40 1.479 . S
C45 C44 1.405 1_655 S
C45 H71 0.931 . S
U46 O47 2.454 . S
U46 O48 2.458 . S
U46 C49 2.984 . S
U46 C50 2.847 . S
U46 C63 2.882 . S
U46 O64 2.441 . S
U46 O65 2.420 . S
U46 O66 2.455 . S
U46 O67 2.449 . S
O47 U46 2.454 . S
O47 C49 1.353 . S
O48 U46 2.458 . S
O48 C49 1.286 . S
C49 U46 2.984 . S
C49 O47 1.353 . S
C49 O48 1.286 . S
C49 C51 1.363 . S
C50 C40 1.465 . S
C50 U46 2.847 . S
C50 O64 1.249 . S
C50 O65 1.202 . S
C51 C49 1.363 . S
C51 C53 1.408 . S
C51 C56 1.342 . S
C52 C53 1.309 . S
C52 C55 1.461 1_545 S
C52 H72 0.932 1_545 S
C53 C51 1.408 . S
C53 C52 1.309 . S
C53 H73 0.930 . S
C54 C55 1.474 . S
C54 C56 1.285 1_565 S
C54 H74 0.929 . S
C55 C52 1.461 1_565 S
C55 C54 1.474 . S
C56 C51 1.342 . S
C56 C54 1.285 1_545 S
C56 H75 0.930 . S
C57 C60 1.424 . S
C57 C62 1.245 . S
C57 C63 1.428 . S
C58 C61 1.260 . S
C58 C62 1.477 . S
C58 H76 0.932 . S
C59 C60 1.384 . S
C59 C61 1.479 . S
C59 H77 0.929 . S
C60 C57 1.424 . S
C60 C59 1.384 . S
C60 H78 0.928 . S
C61 C58 1.260 . S
C61 C59 1.479 . S
C62 C57 1.245 . S
C62 C58 1.477 . S
C62 H79 0.932 . S
C63 U46 2.882 . S
C63 C57 1.428 . S
C63 O66 1.301 . S
C63 O67 1.282 . S
O64 U46 2.441 . S
O64 C50 1.249 . S
O65 U46 2.420 . S
O65 C50 1.202 . S
O66 U46 2.455 . S
O66 C63 1.301 . S
O67 U46 2.449 . S
O67 C63 1.282 . S
H68 C41 0.931 . S
H69 C43 0.929 . S
H70 C44 0.930 . S
H71 C45 0.931 . S
H72 C52 0.932 1_565 S
H73 C53 0.930 . S
H74 C54 0.929 . S
H75 C56 0.930 . S
H76 C58 0.932 . S
H77 C59 0.929 . S
H78 C60 0.928 . S
H79 C62 0.932 . S
C80 C81 1.264 . S
C80 C85 1.479 . S
C80 C90 1.465 . S
C81 C80 1.264 . S
C81 C83 1.339 . S
C81 H108 0.931 . S
C82 C83 1.395 . S
C82 C84 1.320 . S
C83 C81 1.339 . S
C83 C82 1.395 . S
C83 H109 0.929 . S
C84 C82 1.320 . S
C84 C85 1.405 . S
C84 H110 0.930 . S
C85 C80 1.479 . S
C85 C84 1.405 . S
C85 H111 0.931 . S
U86 O87 2.454 . S
U86 O88 2.458 . S
U86 C89 2.984 . S
U86 C90 2.847 . S
U86 C103 2.882 . S
U86 O104 2.441 . S
U86 O105 2.420 . S
U86 O106 2.455 . S
U86 O107 2.449 . S
O87 U86 2.454 . S
O87 C89 1.353 . S
O88 U86 2.458 . S
O88 C89 1.286 . S
C89 U86 2.984 . S
C89 O87 1.353 . S
C89 O88 1.286 . S
C89 C91 1.363 . S
C90 C80 1.465 . S
C90 U86 2.847 . S
C90 O104 1.249 . S
C90 O105 1.202 . S
C91 C89 1.363 . S
C91 C93 1.408 . S
C91 C96 1.342 1_655 S
C92 C93 1.310 1_455 S
C92 C95 1.461 . S
C92 H112 0.932 . S
C93 C91 1.408 . S
C93 C92 1.310 1_655 S
C93 H113 0.930 . S
C94 C95 1.474 . S
C94 C96 1.285 . S
C94 H114 0.929 . S
C95 C92 1.461 . S
C95 C94 1.474 . S
C96 C91 1.342 1_455 S
C96 C94 1.285 . S
C96 H115 0.930 . S
C97 C100 1.424 . S
C97 C102 1.245 . S
C97 C103 1.428 . S
C98 C101 1.260 . S
C98 C102 1.477 . S
C98 H116 0.932 . S
C99 C100 1.384 . S
C99 C101 1.479 . S
C99 H117 0.929 . S
C100 C97 1.424 . S
C100 C99 1.384 . S
C100 H118 0.928 . S
C101 C98 1.260 . S
C101 C99 1.479 . S
C102 C97 1.245 . S
C102 C98 1.477 . S
C102 H119 0.932 . S
C103 U86 2.882 . S
C103 C97 1.428 . S
C103 O106 1.301 . S
C103 O107 1.282 . S
O104 U86 2.441 . S
O104 C90 1.249 . S
O105 U86 2.420 . S
O105 C90 1.202 . S
O106 U86 2.455 . S
O106 C103 1.301 . S
O107 U86 2.449 . S
O107 C103 1.282 . S
H108 C81 0.931 . S
H109 C83 0.929 . S
H110 C84 0.930 . S
H111 C85 0.931 . S
H112 C92 0.932 . S
H113 C93 0.930 . S
H114 C94 0.929 . S
H115 C96 0.930 . S
H116 C98 0.932 . S
H117 C99 0.929 . S
H118 C100 0.928 . S
H119 C102 0.932 . S
C120 C121 1.264 1_455 S
C120 C125 1.479 . S
C120 C130 1.465 . S
C121 C120 1.264 1_655 S
C121 C123 1.339 . S
C121 H148 0.931 1_655 S
C122 C123 1.395 . S
C122 C124 1.320 . S
C123 C121 1.339 . S
C123 C122 1.395 . S
C123 H149 0.929 . S
C124 C122 1.320 . S
C124 C125 1.405 1_655 S
C124 H150 0.930 . S
C125 C120 1.479 . S
C125 C124 1.405 1_455 S
C125 H151 0.931 . S
U126 O127 2.454 . S
U126 O128 2.458 . S
U126 C129 2.984 . S
U126 C130 2.847 . S
U126 C143 2.882 . S
U126 O144 2.441 . S
U126 O145 2.420 . S
U126 O146 2.455 . S
U126 O147 2.449 . S
O127 U126 2.454 . S
O127 C129 1.353 . S
O128 U126 2.458 . S
O128 C129 1.286 . S
C129 U126 2.984 . S
C129 O127 1.353 . S
C129 O128 1.286 . S
C129 C131 1.363 . S
C130 C120 1.465 . S
C130 U126 2.847 . S
C130 O144 1.249 . S
C130 O145 1.202 . S
C131 C129 1.363 . S
C131 C133 1.408 . S
C131 C136 1.342 . S
C132 C133 1.310 . S
C132 C135 1.461 . S
C132 H152 0.932 . S
C133 C131 1.408 . S
C133 C132 1.310 . S
C133 H153 0.930 . S
C134 C135 1.474 . S
C134 C136 1.285 . S
C134 H154 0.929 . S
C135 C132 1.461 . S
C135 C134 1.474 . S
C136 C131 1.342 . S
C136 C134 1.285 . S
C136 H155 0.930 . S
C137 C140 1.424 . S
C137 C142 1.245 . S
C137 C143 1.428 . S
C138 C141 1.260 . S
C138 C142 1.477 . S
C138 H156 0.932 . S
C139 C140 1.384 . S
C139 C141 1.479 . S
C139 H157 0.929 . S
C140 C137 1.424 . S
C140 C139 1.384 . S
C140 H158 0.928 . S
C141 C138 1.260 . S
C141 C139 1.479 . S
C142 C137 1.245 . S
C142 C138 1.477 . S
C142 H159 0.932 . S
C143 U126 2.882 . S
C143 C137 1.428 . S
C143 O146 1.301 . S
C143 O147 1.282 . S
O144 U126 2.441 . S
O144 C130 1.249 . S
O145 U126 2.420 . S
O145 C130 1.202 . S
O146 U126 2.455 . S
O146 C143 1.301 . S
O147 U126 2.449 . S
O147 C143 1.282 . S
H148 C121 0.931 1_455 S
H149 C123 0.929 . S
H150 C124 0.930 . S
H151 C125 0.931 . S
H152 C132 0.932 . S
H153 C133 0.930 . S
H154 C134 0.929 . S
H155 C136 0.930 . S
H156 C138 0.932 . S
H157 C139 0.929 . S
H158 C140 0.928 . S
H159 C142 0.932 . S
C160 C161 1.264 . S
C160 C165 1.479 . S
C160 C170 1.465 . S
C161 C160 1.264 . S
C161 C163 1.339 . S
C161 H188 0.931 . S
C162 C163 1.395 . S
C162 C164 1.320 . S
C163 C161 1.339 . S
C163 C162 1.395 . S
C163 H189 0.929 . S
C164 C162 1.320 . S
C164 C165 1.405 . S
C164 H190 0.930 . S
C165 C160 1.479 . S
C165 C164 1.405 . S
C165 H191 0.931 . S
U166 O167 2.454 . S
U166 O168 2.458 . S
U166 C169 2.984 . S
U166 C170 2.847 . S
U166 C183 2.882 . S
U166 O184 2.441 . S
U166 O185 2.420 . S
U166 O186 2.455 . S
U166 O187 2.449 . S
O167 U166 2.454 . S
O167 C169 1.353 . S
O168 U166 2.458 . S
O168 C169 1.286 . S
C169 U166 2.984 . S
C169 O167 1.353 . S
C169 O168 1.286 . S
C169 C171 1.363 . S
C170 C160 1.465 . S
C170 U166 2.847 . S
C170 O184 1.249 . S
C170 O185 1.202 . S
C171 C169 1.363 . S
C171 C173 1.408 . S
C171 C176 1.342 . S
C172 C173 1.310 . S
C172 C175 1.461 1_565 S
C172 H192 0.932 . S
C173 C171 1.408 . S
C173 C172 1.310 . S
C173 H193 0.930 . S
C174 C175 1.474 . S
C174 C176 1.285 1_545 S
C174 H194 0.929 . S
C175 C172 1.461 1_545 S
C175 C174 1.474 . S
C176 C171 1.342 . S
C176 C174 1.285 1_565 S
C176 H195 0.930 . S
C177 C180 1.424 . S
C177 C182 1.245 . S
C177 C183 1.428 . S
C178 C181 1.260 . S
C178 C182 1.477 . S
C178 H196 0.932 . S
C179 C180 1.384 . S
C179 C181 1.479 . S
C179 H197 0.929 . S
C180 C177 1.424 . S
C180 C179 1.384 . S
C180 H198 0.928 . S
C181 C178 1.260 . S
C181 C179 1.479 . S
C182 C177 1.245 . S
C182 C178 1.477 . S
C182 H199 0.932 . S
C183 U166 2.882 . S
C183 C177 1.428 . S
C183 O186 1.301 . S
C183 O187 1.282 . S
O184 U166 2.441 . S
O184 C170 1.249 . S
O185 U166 2.420 . S
O185 C170 1.202 . S
O186 U166 2.455 . S
O186 C183 1.301 . S
O187 U166 2.449 . S
O187 C183 1.282 . S
H188 C161 0.931 . S
H189 C163 0.929 . S
H190 C164 0.930 . S
H191 C165 0.931 . S
H192 C172 0.932 . S
H193 C173 0.930 . S
H194 C174 0.929 . S
H195 C176 0.930 . S
H196 C178 0.932 . S
H197 C179 0.929 . S
H198 C180 0.928 . S
H199 C182 0.932 . S
C200 C201 1.264 1_455 S
C200 C205 1.479 . S
C200 C210 1.465 . S
C201 C200 1.264 1_655 S
C201 C203 1.339 . S
C201 H228 0.931 . S
C202 C203 1.395 . S
C202 C204 1.320 . S
C203 C201 1.339 . S
C203 C202 1.395 . S
C203 H229 0.929 . S
C204 C202 1.320 . S
C204 C205 1.405 1_655 S
C204 H230 0.930 . S
C205 C200 1.479 . S
C205 C204 1.405 1_455 S
C205 H231 0.931 . S
U206 O207 2.454 . S
U206 O208 2.458 . S
U206 C209 2.984 . S
U206 C210 2.847 . S
U206 C223 2.882 . S
U206 O224 2.441 . S
U206 O225 2.420 . S
U206 O226 2.455 . S
U206 O227 2.449 . S
O207 U206 2.454 . S
O207 C209 1.353 . S
O208 U206 2.458 . S
O208 C209 1.286 . S
C209 U206 2.984 . S
C209 O207 1.353 . S
C209 O208 1.286 . S
C209 C211 1.363 . S
C210 C200 1.465 . S
C210 U206 2.847 . S
C210 O224 1.249 . S
C210 O225 1.202 . S
C211 C209 1.363 . S
C211 C213 1.408 . S
C211 C216 1.342 . S
C212 C213 1.310 1_545 S
C212 C215 1.461 . S
C212 H232 0.932 . S
C213 C211 1.408 . S
C213 C212 1.310 1_565 S
C213 H233 0.930 . S
C214 C215 1.474 . S
C214 C216 1.285 1_545 S
C214 H234 0.929 . S
C215 C212 1.461 . S
C215 C214 1.474 . S
C216 C211 1.342 . S
C216 C214 1.285 1_565 S
C216 H235 0.930 . S
C217 C220 1.424 . S
C217 C222 1.245 . S
C217 C223 1.428 . S
C218 C221 1.260 . S
C218 C222 1.477 . S
C218 H236 0.932 . S
C219 C220 1.384 . S
C219 C221 1.479 . S
C219 H237 0.929 . S
C220 C217 1.424 . S
C220 C219 1.384 . S
C220 H238 0.928 . S
C221 C218 1.260 . S
C221 C219 1.479 . S
C222 C217 1.245 . S
C222 C218 1.477 . S
C222 H239 0.932 . S
C223 U206 2.882 . S
C223 C217 1.428 . S
C223 O226 1.301 . S
C223 O227 1.282 . S
O224 U206 2.441 . S
O224 C210 1.249 . S
O225 U206 2.420 . S
O225 C210 1.202 . S
O226 U206 2.455 . S
O226 C223 1.301 . S
O227 U206 2.449 . S
O227 C223 1.282 . S
H228 C201 0.931 . S
H229 C203 0.929 . S
H230 C204 0.930 . S
H231 C205 0.931 . S
H232 C212 0.932 . S
H233 C213 0.930 . S
H234 C214 0.929 . S
H235 C216 0.930 . S
H236 C218 0.932 . S
H237 C219 0.929 . S
H238 C220 0.928 . S
H239 C222 0.932 . S
C240 C241 1.264 . S
C240 C245 1.479 . S
C240 C250 1.465 . S
C241 C240 1.264 . S
C241 C243 1.339 . S
C241 H268 0.931 . S
C242 C243 1.395 . S
C242 C244 1.320 . S
C243 C241 1.339 . S
C243 C242 1.395 . S
C243 H269 0.929 . S
C244 C242 1.320 . S
C244 C245 1.405 . S
C244 H270 0.930 . S
C245 C240 1.479 . S
C245 C244 1.405 . S
C245 H271 0.931 . S
U246 O247 2.454 . S
U246 O248 2.458 . S
U246 C249 2.984 . S
U246 C250 2.847 . S
U246 C263 2.882 . S
U246 O264 2.441 . S
U246 O265 2.420 . S
U246 O266 2.455 . S
U246 O267 2.449 . S
O247 U246 2.454 . S
O247 C249 1.353 . S
O248 U246 2.458 . S
O248 C249 1.286 . S
C249 U246 2.984 . S
C249 O247 1.353 . S
C249 O248 1.286 . S
C249 C251 1.363 . S
C250 C240 1.465 . S
C250 U246 2.847 . S
C250 O264 1.249 . S
C250 O265 1.202 . S
C251 C249 1.363 . S
C251 C253 1.408 . S
C251 C256 1.342 . S
C252 C253 1.310 . S
C252 C255 1.461 . S
C252 H272 0.932 . S
C253 C251 1.408 . S
C253 C252 1.310 . S
C253 H273 0.930 . S
C254 C255 1.474 . S
C254 C256 1.285 . S
C254 H274 0.929 . S
C255 C252 1.461 . S
C255 C254 1.474 . S
C256 C251 1.342 . S
C256 C254 1.285 . S
C256 H275 0.930 . S
C257 C260 1.424 . S
C257 C262 1.245 . S
C257 C263 1.428 . S
C258 C261 1.260 1_655 S
C258 C262 1.477 . S
C258 H276 0.932 . S
C259 C260 1.384 . S
C259 C261 1.479 1_655 S
C259 H277 0.929 . S
C260 C257 1.424 . S
C260 C259 1.384 . S
C260 H278 0.928 . S
C261 C258 1.260 1_455 S
C261 C259 1.479 1_455 S
C262 C257 1.245 . S
C262 C258 1.477 . S
C262 H279 0.932 . S
C263 U246 2.882 . S
C263 C257 1.428 . S
C263 O266 1.301 . S
C263 O267 1.282 . S
O264 U246 2.441 . S
O264 C250 1.249 . S
O265 U246 2.420 . S
O265 C250 1.202 . S
O266 U246 2.455 . S
O266 C263 1.301 . S
O267 U246 2.449 . S
O267 C263 1.282 . S
H268 C241 0.931 . S
H269 C243 0.929 . S
H270 C244 0.930 . S
H271 C245 0.931 . S
H272 C252 0.932 . S
H273 C253 0.930 . S
H274 C254 0.929 . S
H275 C256 0.930 . S
H276 C258 0.932 . S
H277 C259 0.929 . S
H278 C260 0.928 . S
H279 C262 0.932 . S
C280 C281 1.264 . S
C280 C285 1.479 . S
C280 C290 1.465 . S
C281 C280 1.264 . S
C281 C283 1.339 . S
C281 H308 0.931 . S
C282 C283 1.395 . S
C282 C284 1.320 . S
C283 C281 1.339 . S
C283 C282 1.395 . S
C283 H309 0.929 . S
C284 C282 1.320 . S
C284 C285 1.405 . S
C284 H310 0.930 . S
C285 C280 1.479 . S
C285 C284 1.405 . S
C285 H311 0.931 . S
U286 O287 2.454 . S
U286 O288 2.458 . S
U286 C289 2.984 . S
U286 C290 2.847 . S
U286 C303 2.882 . S
U286 O304 2.441 . S
U286 O305 2.420 . S
U286 O306 2.455 . S
U286 O307 2.449 . S
O287 U286 2.454 . S
O287 C289 1.353 . S
O288 U286 2.458 . S
O288 C289 1.286 . S
C289 U286 2.984 . S
C289 O287 1.353 . S
C289 O288 1.286 . S
C289 C291 1.363 . S
C290 C280 1.465 . S
C290 U286 2.847 . S
C290 O304 1.249 . S
C290 O305 1.202 . S
C291 C289 1.363 . S
C291 C293 1.408 . S
C291 C296 1.342 . S
C292 C293 1.310 . S
C292 C295 1.461 . S
C292 H312 0.932 . S
C293 C291 1.408 . S
C293 C292 1.310 . S
C293 H313 0.930 . S
C294 C295 1.474 . S
C294 C296 1.285 . S
C294 H314 0.929 . S
C295 C292 1.461 . S
C295 C294 1.474 . S
C296 C291 1.342 . S
C296 C294 1.285 . S
C296 H315 0.930 . S
C297 C300 1.424 . S
C297 C302 1.245 . S
C297 C303 1.428 . S
C298 C301 1.260 . S
C298 C302 1.477 . S
C298 H316 0.932 . S
C299 C300 1.384 . S
C299 C301 1.479 . S
C299 H317 0.929 . S
C300 C297 1.424 . S
C300 C299 1.384 . S
C300 H318 0.928 . S
C301 C298 1.260 . S
C301 C299 1.479 . S
C302 C297 1.245 . S
C302 C298 1.477 . S
C302 H319 0.932 . S
C303 U286 2.882 . S
C303 C297 1.428 . S
C303 O306 1.301 . S
C303 O307 1.282 . S
O304 U286 2.441 . S
O304 C290 1.249 . S
O305 U286 2.420 . S
O305 C290 1.202 . S
O306 U286 2.455 . S
O306 C303 1.301 . S
O307 U286 2.449 . S
O307 C303 1.282 . S
H308 C281 0.931 . S
H309 C283 0.929 . S
H310 C284 0.930 . S
H311 C285 0.931 . S
H312 C292 0.932 . S
H313 C293 0.930 . S
H314 C294 0.929 . S
H315 C296 0.930 . S
H316 C298 0.932 . S
H317 C299 0.929 . S
H318 C300 0.928 . S
H319 C302 0.932 . S
C320 C321 1.264 . S
C320 C325 1.479 . S
C320 C330 1.465 . S
C321 C320 1.264 . S
C321 C323 1.339 . S
C321 H348 0.931 . S
C322 C323 1.395 . S
C322 C324 1.320 . S
C323 C321 1.339 . S
C323 C322 1.395 . S
C323 H349 0.929 . S
C324 C322 1.320 . S
C324 C325 1.405 . S
C324 H350 0.930 . S
C325 C320 1.479 . S
C325 C324 1.405 . S
C325 H351 0.931 . S
U326 O327 2.454 . S
U326 O328 2.458 . S
U326 C329 2.984 . S
U326 C330 2.847 . S
U326 C343 2.882 . S
U326 O344 2.441 . S
U326 O345 2.420 . S
U326 O346 2.455 . S
U326 O347 2.449 . S
O327 U326 2.454 . S
O327 C329 1.353 . S
O328 U326 2.458 . S
O328 C329 1.286 . S
C329 U326 2.984 . S
C329 O327 1.353 . S
C329 O328 1.286 . S
C329 C331 1.363 . S
C330 C320 1.465 . S
C330 U326 2.847 . S
C330 O344 1.249 . S
C330 O345 1.202 . S
C331 C329 1.363 . S
C331 C333 1.408 . S
C331 C336 1.342 . S
C332 C333 1.310 . S
C332 C335 1.461 . S
C332 H352 0.932 . S
C333 C331 1.408 . S
C333 C332 1.310 . S
C333 H353 0.930 . S
C334 C335 1.474 . S
C334 C336 1.285 . S
C334 H354 0.929 . S
C335 C332 1.461 . S
C335 C334 1.474 . S
C336 C331 1.342 . S
C336 C334 1.285 . S
C336 H355 0.930 . S
C337 C340 1.424 . S
C337 C342 1.245 . S
C337 C343 1.428 . S
C338 C341 1.260 . S
C338 C342 1.477 . S
C338 H356 0.932 . S
C339 C340 1.384 . S
C339 C341 1.479 . S
C339 H357 0.929 . S
C340 C337 1.424 . S
C340 C339 1.384 . S
C340 H358 0.928 . S
C341 C338 1.260 . S
C341 C339 1.479 . S
C342 C337 1.245 . S
C342 C338 1.477 . S
C342 H359 0.932 . S
C343 U326 2.882 . S
C343 C337 1.428 . S
C343 O346 1.301 . S
C343 O347 1.282 . S
O344 U326 2.441 . S
O344 C330 1.249 . S
O345 U326 2.420 . S
O345 C330 1.202 . S
O346 U326 2.455 . S
O346 C343 1.301 . S
O347 U326 2.449 . S
O347 C343 1.282 . S
H348 C321 0.931 . S
H349 C323 0.929 . S
H350 C324 0.930 . S
H351 C325 0.931 . S
H352 C332 0.932 . S
H353 C333 0.930 . S
H354 C334 0.929 . S
H355 C336 0.930 . S
H356 C338 0.932 . S
H357 C339 0.929 . S
H358 C340 0.928 . S
H359 C342 0.932 . S
C360 C361 1.264 . S
C360 C365 1.479 . S
C360 C370 1.465 . S
C361 C360 1.264 . S
C361 C363 1.339 . S
C361 H388 0.931 . S
C362 C363 1.395 . S
C362 C364 1.320 . S
C363 C361 1.339 . S
C363 C362 1.395 . S
C363 H389 0.929 . S
C364 C362 1.320 . S
C364 C365 1.405 . S
C364 H390 0.930 1_556 S
C365 C360 1.479 . S
C365 C364 1.405 . S
C365 H391 0.931 . S
U366 O367 2.454 . S
U366 O368 2.458 . S
U366 C369 2.984 . S
U366 C370 2.847 . S
U366 C383 2.882 . S
U366 O384 2.441 . S
U366 O385 2.420 . S
U366 O386 2.455 . S
U366 O387 2.449 . S
O367 U366 2.454 . S
O367 C369 1.353 . S
O368 U366 2.458 . S
O368 C369 1.286 . S
C369 U366 2.984 . S
C369 O367 1.353 . S
C369 O368 1.286 . S
C369 C371 1.363 . S
C370 C360 1.465 . S
C370 U366 2.847 . S
C370 O384 1.249 . S
C370 O385 1.202 . S
C371 C369 1.363 . S
C371 C373 1.408 . S
C371 C376 1.342 . S
C372 C373 1.310 . S
C372 C375 1.461 . S
C372 H392 0.932 1_556 S
C373 C371 1.408 . S
C373 C372 1.310 . S
C373 H393 0.930 . S
C374 C375 1.474 . S
C374 C376 1.285 . S
C374 H394 0.929 . S
C375 C372 1.461 . S
C375 C374 1.474 . S
C376 C371 1.342 . S
C376 C374 1.285 . S
C376 H395 0.930 . S
C377 C380 1.424 . S
C377 C382 1.245 . S
C377 C383 1.428 . S
C378 C381 1.260 . S
C378 C382 1.477 . S
C378 H396 0.932 . S
C379 C380 1.384 . S
C379 C381 1.479 . S
C379 H397 0.929 . S
C380 C377 1.424 . S
C380 C379 1.384 . S
C380 H398 0.928 . S
C381 C378 1.260 . S
C381 C379 1.479 . S
C382 C377 1.245 . S
C382 C378 1.477 . S
C382 H399 0.932 . S
C383 U366 2.882 . S
C383 C377 1.428 . S
C383 O386 1.301 . S
C383 O387 1.282 . S
O384 U366 2.441 . S
O384 C370 1.249 . S
O385 U366 2.420 . S
O385 C370 1.202 . S
O386 U366 2.455 . S
O386 C383 1.301 . S
O387 U366 2.449 . S
O387 C383 1.282 . S
H388 C361 0.931 . S
H389 C363 0.929 . S
H390 C364 0.930 1_554 S
H391 C365 0.931 . S
H392 C372 0.932 1_554 S
H393 C373 0.930 . S
H394 C374 0.929 . S
H395 C376 0.930 . S
H396 C378 0.932 . S
H397 C379 0.929 . S
H398 C380 0.928 . S
H399 C382 0.932 . S
C400 C401 1.264 . S
C400 C405 1.479 1_556 S
C400 C410 1.465 . S
C401 C400 1.264 . S
C401 C403 1.339 . S
C401 H428 0.931 . S
C402 C403 1.411 . S
C402 C404 1.311 1_556 S
C403 C401 1.339 . S
C403 C402 1.411 . S
C403 H429 0.929 1_545 S
C404 C402 1.311 1_554 S
C404 C405 1.405 . S
C404 H430 0.930 . S
C405 C400 1.479 1_554 S
C405 C404 1.405 . S
C405 H431 0.931 . S
U406 O407 2.454 . S
U406 O408 2.458 . S
U406 C409 2.984 . S
U406 C410 2.847 . S
U406 C423 2.882 . S
U406 O424 2.441 . S
U406 O425 2.420 . S
U406 O426 2.455 . S
U406 O427 2.449 . S
O407 U406 2.454 . S
O407 C409 1.353 . S
O408 U406 2.458 . S
O408 C409 1.286 . S
C409 U406 2.984 . S
C409 O407 1.353 . S
C409 O408 1.286 . S
C409 C411 1.363 . S
C410 C400 1.465 . S
C410 U406 2.847 . S
C410 O424 1.249 . S
C410 O425 1.202 . S
C411 C409 1.363 . S
C411 C413 1.408 1_556 S
C411 C416 1.342 . S
C412 C413 1.310 . S
C412 C415 1.461 . S
C412 H432 0.932 . S
C413 C411 1.408 1_554 S
C413 C412 1.310 . S
C413 H433 0.930 . S
C414 C415 1.474 1_556 S
C414 C416 1.285 . S
C414 H434 0.929 . S
C415 C412 1.461 . S
C415 C414 1.474 1_554 S
C416 C411 1.342 . S
C416 C414 1.285 . S
C416 H435 0.930 . S
C417 C420 1.424 . S
C417 C422 1.245 . S
C417 C423 1.428 . S
C418 C421 1.260 . S
C418 C422 1.477 . S
C418 H436 0.932 . S
C419 C420 1.384 . S
C419 C421 1.479 . S
C419 H437 0.929 . S
C420 C417 1.424 . S
C420 C419 1.384 . S
C420 H438 0.928 . S
C421 C418 1.260 . S
C421 C419 1.479 . S
C422 C417 1.245 . S
C422 C418 1.477 . S
C422 H439 0.932 . S
C423 U406 2.882 . S
C423 C417 1.428 . S
C423 O426 1.301 . S
C423 O427 1.282 . S
O424 U406 2.441 . S
O424 C410 1.249 . S
O425 U406 2.420 . S
O425 C410 1.202 . S
O426 U406 2.455 . S
O426 C423 1.301 . S
O427 U406 2.449 . S
O427 C423 1.282 . S
H428 C401 0.931 . S
H429 C403 0.929 1_565 S
H430 C404 0.930 . S
H431 C405 0.931 . S
H432 C412 0.932 . S
H433 C413 0.930 . S
H434 C414 0.929 . S
H435 C416 0.930 . S
H436 C418 0.932 . S
H437 C419 0.929 . S
H438 C420 0.928 . S
H439 C422 0.932 . S
C440 C441 1.264 . S
C440 C445 1.479 . S
C440 C450 1.465 . S
C441 C440 1.264 . S
C441 C443 1.339 . S
C441 H468 0.931 . S
C442 C443 1.395 . S
C442 C444 1.320 . S
C443 C441 1.339 . S
C443 C442 1.395 . S
C443 H469 0.929 . S
C444 C442 1.320 . S
C444 C445 1.405 . S
C444 H470 0.930 1_556 S
C445 C440 1.479 . S
C445 C444 1.405 . S
C445 H471 0.931 . S
U446 O447 2.454 . S
U446 O448 2.458 . S
U446 C449 2.984 . S
U446 C450 2.847 . S
U446 C463 2.882 . S
U446 O464 2.441 . S
U446 O465 2.420 . S
U446 O466 2.455 . S
U446 O467 2.449 . S
O447 U446 2.454 . S
O447 C449 1.353 . S
O448 U446 2.458 . S
O448 C449 1.286 . S
C449 U446 2.984 . S
C449 O447 1.353 . S
C449 O448 1.286 . S
C449 C451 1.363 . S
C450 C440 1.465 . S
C450 U446 2.847 . S
C450 O464 1.249 . S
C450 O465 1.202 . S
C451 C449 1.363 . S
C451 C453 1.408 . S
C451 C456 1.342 . S
C452 C453 1.310 1_554 S
C452 C455 1.458 . S
C452 H472 0.932 . S
C453 C451 1.408 . S
C453 C452 1.310 1_556 S
C453 H473 0.930 1_556 S
C454 C455 1.479 1_556 S
C454 C456 1.285 . S
C454 H474 0.929 . S
C455 C452 1.458 . S
C455 C454 1.479 1_554 S
C456 C451 1.342 . S
C456 C454 1.285 . S
C456 H475 0.930 . S
C457 C460 1.424 . S
C457 C462 1.245 . S
C457 C463 1.428 . S
C458 C461 1.260 . S
C458 C462 1.477 . S
C458 H476 0.932 . S
C459 C460 1.384 . S
C459 C461 1.479 . S
C459 H477 0.929 . S
C460 C457 1.424 . S
C460 C459 1.384 . S
C460 H478 0.928 . S
C461 C458 1.260 . S
C461 C459 1.479 . S
C462 C457 1.245 . S
C462 C458 1.477 . S
C462 H479 0.932 . S
C463 U446 2.882 . S
C463 C457 1.428 . S
C463 O466 1.301 . S
C463 O467 1.282 . S
O464 U446 2.441 . S
O464 C450 1.249 . S
O465 U446 2.420 . S
O465 C450 1.202 . S
O466 U446 2.455 . S
O466 C463 1.301 . S
O467 U446 2.449 . S
O467 C463 1.282 . S
H468 C441 0.931 . S
H469 C443 0.929 . S
H470 C444 0.930 1_554 S
H471 C445 0.931 . S
H472 C452 0.932 . S
H473 C453 0.930 1_554 S
H474 C454 0.929 . S
H475 C456 0.930 . S
H476 C458 0.932 . S
H477 C459 0.929 . S
H478 C460 0.928 . S
H479 C462 0.932 . S
C480 C481 1.264 . S
C480 C485 1.479 . S
C480 C490 1.465 . S
C481 C480 1.264 . S
C481 C483 1.339 . S
C481 H508 0.931 . S
C482 C483 1.395 . S
C482 C484 1.320 1_554 S
C483 C481 1.339 . S
C483 C482 1.395 . S
C483 H509 0.929 . S
C484 C482 1.320 1_556 S
C484 C485 1.405 1_556 S
C484 H510 0.930 . S
C485 C480 1.479 . S
C485 C484 1.405 1_554 S
C485 H511 0.931 1_554 S
U486 O487 2.454 . S
U486 O488 2.458 . S
U486 C489 2.984 . S
U486 C490 2.847 . S
U486 C503 2.882 . S
U486 O504 2.441 . S
U486 O505 2.420 . S
U486 O506 2.455 . S
U486 O507 2.449 . S
O487 U486 2.454 . S
O487 C489 1.353 . S
O488 U486 2.458 . S
O488 C489 1.286 . S
C489 U486 2.984 . S
C489 O487 1.353 . S
C489 O488 1.286 . S
C489 C491 1.363 . S
C490 C480 1.465 . S
C490 U486 2.847 . S
C490 O504 1.249 . S
C490 O505 1.202 . S
C491 C489 1.363 . S
C491 C493 1.389 1_554 S
C491 C496 1.342 . S
C492 C493 1.319 . S
C492 C495 1.459 . S
C492 H512 0.932 . S
C493 C491 1.389 1_556 S
C493 C492 1.319 . S
C493 H513 0.940 . S
C494 C495 1.478 1_554 S
C494 C496 1.285 . S
C494 H514 0.929 . S
C495 C492 1.459 . S
C495 C494 1.478 1_556 S
C496 C491 1.342 . S
C496 C494 1.285 . S
C496 H515 0.930 . S
C497 C500 1.424 . S
C497 C502 1.245 . S
C497 C503 1.428 . S
C498 C501 1.260 . S
C498 C502 1.477 . S
C498 H516 0.932 . S
C499 C500 1.384 . S
C499 C501 1.479 . S
C499 H517 0.929 . S
C500 C497 1.424 . S
C500 C499 1.384 . S
C500 H518 0.928 . S
C501 C498 1.260 . S
C501 C499 1.479 . S
C502 C497 1.245 . S
C502 C498 1.477 . S
C502 H519 0.932 . S
C503 U486 2.882 . S
C503 C497 1.428 . S
C503 O506 1.301 . S
C503 O507 1.282 . S
O504 U486 2.441 . S
O504 C490 1.249 . S
O505 U486 2.420 . S
O505 C490 1.202 . S
O506 U486 2.455 . S
O506 C503 1.301 . S
O507 U486 2.449 . S
O507 C503 1.282 . S
H508 C481 0.931 . S
H509 C483 0.929 . S
H510 C484 0.930 . S
H511 C485 0.931 1_556 S
H512 C492 0.932 . S
H513 C493 0.940 . S
H514 C494 0.929 . S
H515 C496 0.930 . S
H516 C498 0.932 . S
H517 C499 0.929 . S
H518 C500 0.928 . S
H519 C502 0.932 . S
C520 C521 1.264 . S
C520 C525 1.479 . S
C520 C530 1.465 . S
C521 C520 1.264 . S
C521 C523 1.339 . S
C521 H548 0.931 . S
C522 C523 1.395 . S
C522 C524 1.320 . S
C523 C521 1.339 . S
C523 C522 1.395 . S
C523 H549 0.929 . S
C524 C522 1.320 . S
C524 C525 1.405 . S
C524 H550 0.930 1_554 S
C525 C520 1.479 . S
C525 C524 1.405 . S
C525 H551 0.931 . S
U526 O527 2.454 . S
U526 O528 2.458 . S
U526 C529 2.984 . S
U526 C530 2.847 . S
U526 C543 2.882 . S
U526 O544 2.441 . S
U526 O545 2.420 . S
U526 O546 2.455 . S
U526 O547 2.449 . S
O527 U526 2.454 . S
O527 C529 1.353 . S
O528 U526 2.458 . S
O528 C529 1.286 . S
C529 U526 2.984 . S
C529 O527 1.353 . S
C529 O528 1.286 . S
C529 C531 1.363 . S
C530 C520 1.465 . S
C530 U526 2.847 . S
C530 O544 1.249 . S
C530 O545 1.202 . S
C531 C529 1.363 . S
C531 C533 1.408 . S
C531 C536 1.342 . S
C532 C533 1.310 1_556 S
C532 C535 1.461 1_556 S
C532 H552 0.932 . S
C533 C531 1.408 . S
C533 C532 1.310 1_554 S
C533 H553 0.930 1_554 S
C534 C535 1.474 . S
C534 C536 1.285 . S
C534 H554 0.929 . S
C535 C532 1.461 1_554 S
C535 C534 1.474 . S
C536 C531 1.342 . S
C536 C534 1.285 . S
C536 H555 0.930 . S
C537 C540 1.424 . S
C537 C542 1.245 . S
C537 C543 1.428 . S
C538 C541 1.260 . S
C538 C542 1.477 . S
C538 H556 0.932 . S
C539 C540 1.384 . S
C539 C541 1.479 . S
C539 H557 0.929 . S
C540 C537 1.424 . S
C540 C539 1.384 . S
C540 H558 0.928 . S
C541 C538 1.260 . S
C541 C539 1.479 . S
C542 C537 1.245 . S
C542 C538 1.477 . S
C542 H559 0.932 . S
C543 U526 2.882 . S
C543 C537 1.428 . S
C543 O546 1.301 . S
C543 O547 1.282 . S
O544 U526 2.441 . S
O544 C530 1.249 . S
O545 U526 2.420 . S
O545 C530 1.202 . S
O546 U526 2.455 . S
O546 C543 1.301 . S
O547 U526 2.449 . S
O547 C543 1.282 . S
H548 C521 0.931 . S
H549 C523 0.929 . S
H550 C524 0.930 1_556 S
H551 C525 0.931 . S
H552 C532 0.932 . S
H553 C533 0.930 1_556 S
H554 C534 0.929 . S
H555 C536 0.930 . S
H556 C538 0.932 . S
H557 C539 0.929 . S
H558 C540 0.928 . S
H559 C542 0.932 . S
C560 C561 1.264 . S
C560 C565 1.479 . S
C560 C570 1.465 . S
C561 C560 1.264 . S
C561 C563 1.339 . S
C561 H588 0.931 . S
C562 C563 1.395 . S
C562 C564 1.320 . S
C563 C561 1.339 . S
C563 C562 1.395 . S
C563 H589 0.929 . S
C564 C562 1.320 . S
C564 C565 1.405 . S
C564 H590 0.930 1_554 S
C565 C560 1.479 . S
C565 C564 1.405 . S
C565 H591 0.931 . S
U566 O567 2.454 . S
U566 O568 2.458 . S
U566 C569 2.984 . S
U566 C570 2.847 . S
U566 C583 2.882 . S
U566 O584 2.441 . S
U566 O585 2.420 . S
U566 O586 2.455 . S
U566 O587 2.449 . S
O567 U566 2.454 . S
O567 C569 1.353 . S
O568 U566 2.458 . S
O568 C569 1.286 . S
C569 U566 2.984 . S
C569 O567 1.353 . S
C569 O568 1.286 . S
C569 C571 1.363 . S
C570 C560 1.465 . S
C570 U566 2.847 . S
C570 O584 1.249 . S
C570 O585 1.202 . S
C571 C569 1.363 . S
C571 C573 1.408 . S
C571 C576 1.342 . S
C572 C573 1.310 . S
C572 C575 1.461 . S
C572 H592 0.932 . S
C573 C571 1.408 . S
C573 C572 1.310 . S
C573 H593 0.930 . S
C574 C575 1.474 . S
C574 C576 1.285 . S
C574 H594 0.929 . S
C575 C572 1.461 . S
C575 C574 1.474 . S
C576 C571 1.342 . S
C576 C574 1.285 . S
C576 H595 0.930 . S
C577 C580 1.424 . S
C577 C582 1.245 . S
C577 C583 1.428 . S
C578 C581 1.260 . S
C578 C582 1.477 . S
C578 H596 0.932 . S
C579 C580 1.384 . S
C579 C581 1.479 . S
C579 H597 0.929 . S
C580 C577 1.424 . S
C580 C579 1.384 . S
C580 H598 0.928 . S
C581 C578 1.260 . S
C581 C579 1.479 . S
C582 C577 1.245 . S
C582 C578 1.477 . S
C582 H599 0.932 . S
C583 U566 2.882 . S
C583 C577 1.428 . S
C583 O586 1.301 . S
C583 O587 1.282 . S
O584 U566 2.441 . S
O584 C570 1.249 . S
O585 U566 2.420 . S
O585 C570 1.202 . S
O586 U566 2.455 . S
O586 C583 1.301 . S
O587 U566 2.449 . S
O587 C583 1.282 . S
H588 C561 0.931 . S
H589 C563 0.929 . S
H590 C564 0.930 1_556 S
H591 C565 0.931 . S
H592 C572 0.932 . S
H593 C573 0.930 . S
H594 C574 0.929 . S
H595 C576 0.930 . S
H596 C578 0.932 . S
H597 C579 0.929 . S
H598 C580 0.928 . S
H599 C582 0.932 . S
C600 C601 1.264 . S
C600 C605 1.479 . S
C600 C610 1.465 . S
C601 C600 1.264 . S
C601 C603 1.339 . S
C601 H628 0.931 . S
C602 C603 1.395 . S
C602 C604 1.320 . S
C603 C601 1.339 . S
C603 C602 1.395 . S
C603 H629 0.929 . S
C604 C602 1.320 . S
C604 C605 1.405 . S
C604 H630 0.930 . S
C605 C600 1.479 . S
C605 C604 1.405 . S
C605 H631 0.931 . S
U606 O607 2.454 . S
U606 O608 2.458 . S
U606 C609 2.984 . S
U606 C610 2.847 . S
U606 C623 2.882 . S
U606 O624 2.441 . S
U606 O625 2.420 . S
U606 O626 2.455 . S
U606 O627 2.449 . S
O607 U606 2.454 . S
O607 C609 1.353 . S
O608 U606 2.458 . S
O608 C609 1.286 . S
C609 U606 2.984 . S
C609 O607 1.353 . S
C609 O608 1.286 . S
C609 C611 1.363 . S
C610 C600 1.465 . S
C610 U606 2.847 . S
C610 O624 1.249 . S
C610 O625 1.202 . S
C611 C609 1.363 . S
C611 C613 1.408 . S
C611 C616 1.342 . S
C612 C613 1.310 . S
C612 C615 1.461 . S
C612 H632 0.932 . S
C613 C611 1.408 . S
C613 C612 1.310 . S
C613 H633 0.930 . S
C614 C615 1.474 . S
C614 C616 1.285 . S
C614 H634 0.929 . S
C615 C612 1.461 . S
C615 C614 1.474 . S
C616 C611 1.342 . S
C616 C614 1.285 . S
C616 H635 0.930 . S
C617 C620 1.424 . S
C617 C622 1.245 . S
C617 C623 1.428 . S
C618 C621 1.260 . S
C618 C622 1.477 . S
C618 H636 0.932 . S
C619 C620 1.384 . S
C619 C621 1.479 . S
C619 H637 0.929 . S
C620 C617 1.424 . S
C620 C619 1.384 . S
C620 H638 0.928 . S
C621 C618 1.260 . S
C621 C619 1.479 . S
C622 C617 1.245 . S
C622 C618 1.477 . S
C622 H639 0.932 . S
C623 U606 2.882 . S
C623 C617 1.428 . S
C623 O626 1.301 . S
C623 O627 1.282 . S
O624 U606 2.441 . S
O624 C610 1.249 . S
O625 U606 2.420 . S
O625 C610 1.202 . S
O626 U606 2.455 . S
O626 C623 1.301 . S
O627 U606 2.449 . S
O627 C623 1.282 . S
H628 C601 0.931 . S
H629 C603 0.929 . S
H630 C604 0.930 . S
H631 C605 0.931 . S
H632 C612 0.932 . S
H633 C613 0.930 . S
H634 C614 0.929 . S
H635 C616 0.930 . S
H636 C618 0.932 . S
H637 C619 0.929 . S
H638 C620 0.928 . S
H639 C622 0.932 . S
C640 C641 1.264 . S
C640 C645 1.479 . S
C640 C650 1.465 . S
C641 C640 1.264 . S
C641 C643 1.339 . S
C641 H668 0.931 . S
C642 C643 1.395 . S
C642 C644 1.320 . S
C643 C641 1.339 . S
C643 C642 1.395 . S
C643 H669 0.929 . S
C644 C642 1.320 . S
C644 C645 1.405 . S
C644 H670 0.930 . S
C645 C640 1.479 . S
C645 C644 1.405 . S
C645 H671 0.931 . S
U646 O647 2.454 . S
U646 O648 2.458 . S
U646 C649 2.984 . S
U646 C650 2.847 . S
U646 C663 2.882 1_455 S
U646 O664 2.441 . S
U646 O665 2.420 . S
U646 O666 2.455 . S
U646 O667 2.449 1_455 S
O647 U646 2.454 . S
O647 C649 1.353 . S
O648 U646 2.458 . S
O648 C649 1.286 . S
C649 U646 2.984 . S
C649 O647 1.353 . S
C649 O648 1.286 . S
C649 C651 1.363 . S
C650 C640 1.465 . S
C650 U646 2.847 . S
C650 O664 1.249 . S
C650 O665 1.202 . S
C651 C649 1.363 . S
C651 C653 1.408 . S
C651 C656 1.342 . S
C652 C653 1.310 . S
C652 C655 1.461 . S
C652 H672 0.932 . S
C653 C651 1.408 . S
C653 C652 1.310 . S
C653 H673 0.930 . S
C654 C655 1.474 . S
C654 C656 1.285 . S
C654 H674 0.929 . S
C655 C652 1.461 . S
C655 C654 1.474 . S
C656 C651 1.342 . S
C656 C654 1.285 . S
C656 H675 0.930 . S
C657 C660 1.424 . S
C657 C662 1.245 . S
C657 C663 1.428 . S
C658 C661 1.260 . S
C658 C662 1.477 . S
C658 H676 0.932 . S
C659 C660 1.384 . S
C659 C661 1.479 . S
C659 H677 0.929 . S
C660 C657 1.424 . S
C660 C659 1.384 . S
C660 H678 0.928 . S
C661 C658 1.260 . S
C661 C659 1.479 . S
C662 C657 1.245 . S
C662 C658 1.477 . S
C662 H679 0.932 . S
C663 U646 2.882 1_655 S
C663 C657 1.428 . S
C663 O666 1.301 1_655 S
C663 O667 1.282 . S
O664 U646 2.441 . S
O664 C650 1.249 . S
O665 U646 2.420 . S
O665 C650 1.202 . S
O666 U646 2.455 . S
O666 C663 1.301 1_455 S
O667 U646 2.449 1_655 S
O667 C663 1.282 . S
H668 C641 0.931 . S
H669 C643 0.929 . S
H670 C644 0.930 . S
H671 C645 0.931 . S
H672 C652 0.932 . S
H673 C653 0.930 . S
H674 C654 0.929 . S
H675 C656 0.930 . S
H676 C658 0.932 . S
H677 C659 0.929 . S
H678 C660 0.928 . S
H679 C662 0.932 . S
C680 C681 1.264 . S
C680 C685 1.479 . S
C680 C690 1.465 . S
C681 C680 1.264 . S
C681 C683 1.339 . S
C681 H708 0.931 . S
C682 C683 1.395 . S
C682 C684 1.320 . S
C683 C681 1.339 . S
C683 C682 1.395 . S
C683 H709 0.929 . S
C684 C682 1.320 . S
C684 C685 1.405 . S
C684 H710 0.930 . S
C685 C680 1.479 . S
C685 C684 1.405 . S
C685 H711 0.931 . S
U686 O687 2.454 . S
U686 O688 2.458 . S
U686 C689 2.984 . S
U686 C690 2.847 . S
U686 C703 2.882 . S
U686 O704 2.441 . S
U686 O705 2.420 . S
U686 O706 2.455 . S
U686 O707 2.449 . S
O687 U686 2.454 . S
O687 C689 1.353 . S
O688 U686 2.458 . S
O688 C689 1.286 . S
C689 U686 2.984 . S
C689 O687 1.353 . S
C689 O688 1.286 . S
C689 C691 1.363 . S
C690 C680 1.465 . S
C690 U686 2.847 . S
C690 O704 1.249 . S
C690 O705 1.202 . S
C691 C689 1.363 . S
C691 C693 1.408 . S
C691 C696 1.342 . S
C692 C693 1.310 . S
C692 C695 1.461 . S
C692 H712 0.932 . S
C693 C691 1.408 . S
C693 C692 1.310 . S
C693 H713 0.930 . S
C694 C695 1.474 . S
C694 C696 1.285 . S
C694 H714 0.929 . S
C695 C692 1.461 . S
C695 C694 1.474 . S
C696 C691 1.342 . S
C696 C694 1.285 . S
C696 H715 0.930 . S
C697 C700 1.424 . S
C697 C702 1.245 . S
C697 C703 1.428 . S
C698 C701 1.260 . S
C698 C702 1.477 . S
C698 H716 0.932 . S
C699 C700 1.384 . S
C699 C701 1.479 . S
C699 H717 0.929 . S
C700 C697 1.424 . S
C700 C699 1.384 . S
C700 H718 0.928 . S
C701 C698 1.260 . S
C701 C699 1.479 . S
C702 C697 1.245 . S
C702 C698 1.477 . S
C702 H719 0.932 . S
C703 U686 2.882 . S
C703 C697 1.428 . S
C703 O706 1.301 . S
C703 O707 1.282 . S
O704 U686 2.441 . S
O704 C690 1.249 . S
O705 U686 2.420 . S
O705 C690 1.202 . S
O706 U686 2.455 . S
O706 C703 1.301 . S
O707 U686 2.449 . S
O707 C703 1.282 . S
H708 C681 0.931 . S
H709 C683 0.929 . S
H710 C684 0.930 . S
H711 C685 0.931 . S
H712 C692 0.932 . S
H713 C693 0.930 . S
H714 C694 0.929 . S
H715 C696 0.930 . S
H716 C698 0.932 . S
H717 C699 0.929 . S
H718 C700 0.928 . S
H719 C702 0.932 . S
Eu720 C729 2.828 . S
Eu720 O731 2.396 1_556 S
Eu720 O733 2.418 . S
Eu720 O738 2.373 1_565 S
Eu720 O741 2.488 . S
Eu720 O742 2.471 1_565 S
Eu720 O743 2.349 1_565 S
Eu721 O730 2.373 1_545 S
Eu721 O734 2.488 . S
Eu721 O735 2.466 1_545 S
Eu721 O736 2.349 1_545 S
Eu721 O739 2.392 . S
Eu721 O740 2.418 . S
Eu721 C750 2.828 . S
C722 O740 1.244 1_556 S
C722 O743 1.265 . S
C723 C724 1.379 1_565 S
C723 C727 1.373 . S
C723 C729 1.505 . S
C724 C723 1.379 1_545 S
C724 C726 1.369 . S
C724 H752 0.930 . S
C725 C727 1.383 . S
C725 C728 1.382 1_565 S
C725 H753 0.930 . S
C726 C724 1.369 . S
C726 C728 1.392 . S
C726 H754 0.930 . S
C727 C723 1.373 . S
C727 C725 1.383 . S
C727 H755 0.931 . S
C728 C725 1.382 1_545 S
C728 C726 1.392 . S
C729 Eu720 2.828 . S
C729 C723 1.505 . S
C729 O741 1.249 . S
C729 O742 1.244 1_565 S
O730 Eu721 2.373 1_565 S
O730 C732 1.258 . S
O731 Eu720 2.396 1_554 S
O731 C732 1.237 . S
C732 O730 1.258 . S
C732 O731 1.237 . S
O733 Eu720 2.418 . S
O733 C737 1.244 1_556 S
O734 Eu721 2.488 . S
O734 C750 1.249 . S
O735 Eu721 2.466 1_565 S
O735 C750 1.236 1_565 S
O736 Eu721 2.349 1_565 S
O736 C737 1.265 . S
C737 O733 1.244 1_554 S
C737 O736 1.265 . S
O738 Eu720 2.373 1_545 S
O738 C751 1.258 . S
O739 Eu721 2.392 . S
O739 C751 1.242 1_554 S
O740 Eu721 2.418 . S
O740 C722 1.244 1_554 S
O741 Eu720 2.488 . S
O741 C729 1.249 . S
O742 Eu720 2.471 1_545 S
O742 C729 1.244 1_545 S
O743 Eu720 2.349 1_545 S
O743 C722 1.265 . S
C744 C745 1.379 1_545 S
C744 C748 1.373 . S
C744 C750 1.505 . S
C745 C744 1.379 1_565 S
C745 C747 1.369 . S
C745 H756 0.930 . S
C746 C748 1.383 . S
C746 C749 1.382 1_545 S
C746 H757 0.930 . S
C747 C745 1.369 . S
C747 C749 1.392 . S
C747 H758 0.930 . S
C748 C744 1.373 . S
C748 C746 1.383 . S
C748 H759 0.931 . S
C749 C746 1.382 1_565 S
C749 C747 1.392 . S
C750 Eu721 2.828 . S
C750 O734 1.249 . S
C750 O735 1.236 1_545 S
C750 C744 1.505 . S
C751 O738 1.258 . S
C751 O739 1.242 1_556 S
H752 C724 0.930 . S
H753 C725 0.930 . S
H754 C726 0.930 . S
H755 C727 0.931 . S
H756 C745 0.930 . S
H757 C746 0.930 . S
H758 C747 0.930 . S
H759 C748 0.931 . S
Eu760 C769 2.828 . S
Eu760 O771 2.392 1_556 S
Eu760 O773 2.418 . S
Eu760 O778 2.373 1_455 S
Eu760 O781 2.488 . S
Eu760 O782 2.471 1_455 S
Eu760 O783 2.349 1_455 S
Eu761 O770 2.373 1_655 S
Eu761 O774 2.488 . S
Eu761 O775 2.471 1_655 S
Eu761 O776 2.349 1_655 S
Eu761 O779 2.389 . S
Eu761 O780 2.418 . S
Eu761 C790 2.828 . S
C762 O780 1.244 1_556 S
C762 O783 1.265 . S
C763 C764 1.379 1_455 S
C763 C767 1.373 . S
C763 C769 1.505 . S
C764 C763 1.379 1_655 S
C764 C766 1.369 . S
C764 H792 0.930 . S
C765 C767 1.383 . S
C765 C768 1.382 1_455 S
C765 H793 0.930 . S
C766 C764 1.369 . S
C766 C768 1.392 . S
C766 H794 0.930 . S
C767 C763 1.373 . S
C767 C765 1.383 . S
C767 H795 0.931 . S
C768 C765 1.382 1_655 S
C768 C766 1.392 . S
C769 Eu760 2.828 . S
C769 C763 1.505 . S
C769 O781 1.249 . S
C769 O782 1.244 1_455 S
O770 Eu761 2.373 1_455 S
O770 C772 1.258 . S
O771 Eu760 2.392 1_554 S
O771 C772 1.242 . S
C772 O770 1.258 . S
C772 O771 1.242 . S
O773 Eu760 2.418 . S
O773 C777 1.244 1_556 S
O774 Eu761 2.488 . S
O774 C790 1.249 . S
O775 Eu761 2.471 1_455 S
O775 C790 1.244 1_455 S
O776 Eu761 2.349 1_455 S
O776 C777 1.265 . S
C777 O773 1.244 1_554 S
C777 O776 1.265 . S
O778 Eu760 2.373 1_655 S
O778 C791 1.258 . S
O779 Eu761 2.389 . S
O779 C791 1.246 1_554 S
O780 Eu761 2.418 . S
O780 C762 1.244 1_554 S
O781 Eu760 2.488 . S
O781 C769 1.249 . S
O782 Eu760 2.471 1_655 S
O782 C769 1.244 1_655 S
O783 Eu760 2.349 1_655 S
O783 C762 1.265 . S
C784 C785 1.379 1_655 S
C784 C788 1.373 . S
C784 C790 1.505 . S
C785 C784 1.379 1_455 S
C785 C787 1.369 . S
C785 H796 0.930 . S
C786 C788 1.383 . S
C786 C789 1.382 1_655 S
C786 H797 0.930 . S
C787 C785 1.369 . S
C787 C789 1.392 . S
C787 H798 0.930 . S
C788 C784 1.373 . S
C788 C786 1.383 . S
C788 H799 0.931 . S
C789 C786 1.382 1_455 S
C789 C787 1.392 . S
C790 Eu761 2.828 . S
C790 O774 1.249 . S
C790 O775 1.244 1_655 S
C790 C784 1.505 . S
C791 O778 1.258 . S
C791 O779 1.246 1_556 S
H792 C764 0.930 . S
H793 C765 0.930 . S
H794 C766 0.930 . S
H795 C767 0.931 . S
H796 C785 0.930 . S
H797 C786 0.930 . S
H798 C787 0.930 . S
H799 C788 0.931 . S
Eu800 C809 2.828 . S
Eu800 O811 2.392 . S
Eu800 O813 2.418 . S
Eu800 O818 2.373 . S
Eu800 O821 2.488 . S
Eu800 O822 2.471 . S
Eu800 O823 2.349 . S
Eu801 O810 2.373 . S
Eu801 O814 2.488 . S
Eu801 O815 2.471 . S
Eu801 O816 2.349 . S
Eu801 O819 2.392 1_556 S
Eu801 O820 2.418 . S
Eu801 C830 2.828 . S
C802 O820 1.244 1_554 S
C802 O823 1.265 . S
C803 C804 1.379 . S
C803 C807 1.373 . S
C803 C809 1.505 . S
C804 C803 1.379 . S
C804 C806 1.369 . S
C804 H832 0.930 . S
C805 C807 1.383 . S
C805 C808 1.382 . S
C805 H833 0.930 . S
C806 C804 1.369 . S
C806 C808 1.392 . S
C806 H834 0.930 . S
C807 C803 1.373 . S
C807 C805 1.383 . S
C807 H835 0.931 . S
C808 C805 1.382 . S
C808 C806 1.392 . S
C809 Eu800 2.828 . S
C809 C803 1.505 . S
C809 O821 1.249 . S
C809 O822 1.244 . S
O810 Eu801 2.373 . S
O810 C812 1.258 . S
O811 Eu800 2.392 . S
O811 C812 1.242 1_554 S
C812 O810 1.258 . S
C812 O811 1.242 1_556 S
O813 Eu800 2.418 . S
O813 C817 1.244 1_554 S
O814 Eu801 2.488 . S
O814 C830 1.249 . S
O815 Eu801 2.471 . S
O815 C830 1.244 . S
O816 Eu801 2.349 . S
O816 C817 1.265 . S
C817 O813 1.244 1_556 S
C817 O816 1.265 . S
O818 Eu800 2.373 . S
O818 C831 1.258 . S
O819 Eu801 2.392 1_554 S
O819 C831 1.242 . S
O820 Eu801 2.418 . S
O820 C802 1.244 1_556 S
O821 Eu800 2.488 . S
O821 C809 1.249 . S
O822 Eu800 2.471 . S
O822 C809 1.244 . S
O823 Eu800 2.349 . S
O823 C802 1.265 . S
C824 C825 1.379 . S
C824 C828 1.373 . S
C824 C830 1.505 . S
C825 C824 1.379 . S
C825 C827 1.369 . S
C825 H836 0.930 . S
C826 C828 1.383 . S
C826 C829 1.382 . S
C826 H837 0.930 . S
C827 C825 1.369 . S
C827 C829 1.392 . S
C827 H838 0.930 . S
C828 C824 1.373 . S
C828 C826 1.383 . S
C828 H839 0.931 . S
C829 C826 1.382 . S
C829 C827 1.392 . S
C830 Eu801 2.828 . S
C830 O814 1.249 . S
C830 O815 1.244 . S
C830 C824 1.505 . S
C831 O818 1.258 . S
C831 O819 1.242 . S
H832 C804 0.930 . S
H833 C805 0.930 . S
H834 C806 0.930 . S
H835 C807 0.931 . S
H836 C825 0.930 . S
H837 C826 0.930 . S
H838 C827 0.930 . S
H839 C828 0.931 . S
Eu840 C849 2.828 . S
Eu840 O851 2.392 . S
Eu840 O853 2.418 . S
Eu840 O858 2.373 . S
Eu840 O861 2.488 . S
Eu840 O862 2.471 . S
Eu840 O863 2.349 . S
Eu841 O850 2.373 . S
Eu841 O854 2.488 . S
Eu841 O855 2.471 . S
Eu841 O856 2.349 . S
Eu841 O859 2.392 . S
Eu841 O860 2.418 . S
Eu841 C870 2.828 . S
C842 O860 1.244 . S
C842 O863 1.265 . S
C843 C844 1.379 . S
C843 C847 1.373 . S
C843 C849 1.505 . S
C844 C843 1.379 . S
C844 C846 1.369 . S
C844 H872 0.930 . S
C845 C847 1.383 . S
C845 C848 1.382 . S
C845 H873 0.930 . S
C846 C844 1.369 . S
C846 C848 1.392 . S
C846 H874 0.930 . S
C847 C843 1.373 . S
C847 C845 1.383 . S
C847 H875 0.931 . S
C848 C845 1.382 . S
C848 C846 1.392 . S
C849 Eu840 2.828 . S
C849 C843 1.505 . S
C849 O861 1.249 . S
C849 O862 1.244 . S
O850 Eu841 2.373 . S
O850 C852 1.258 . S
O851 Eu840 2.392 . S
O851 C852 1.242 . S
C852 O850 1.258 . S
C852 O851 1.242 . S
O853 Eu840 2.418 . S
O853 C857 1.244 . S
O854 Eu841 2.488 . S
O854 C870 1.249 . S
O855 Eu841 2.471 . S
O855 C870 1.244 . S
O856 Eu841 2.349 . S
O856 C857 1.265 . S
C857 O853 1.244 . S
C857 O856 1.265 . S
O858 Eu840 2.373 . S
O858 C871 1.258 . S
O859 Eu841 2.392 . S
O859 C871 1.242 . S
O860 Eu841 2.418 . S
O860 C842 1.244 . S
O861 Eu840 2.488 . S
O861 C849 1.249 . S
O862 Eu840 2.471 . S
O862 C849 1.244 . S
O863 Eu840 2.349 . S
O863 C842 1.265 . S
C864 C865 1.379 . S
C864 C868 1.373 . S
C864 C870 1.505 . S
C865 C864 1.379 . S
C865 C867 1.369 . S
C865 H876 0.930 . S
C866 C868 1.383 . S
C866 C869 1.382 . S
C866 H877 0.930 . S
C867 C865 1.369 . S
C867 C869 1.392 . S
C867 H878 0.930 . S
C868 C864 1.373 . S
C868 C866 1.383 . S
C868 H879 0.931 . S
C869 C866 1.382 . S
C869 C867 1.392 . S
C870 Eu841 2.828 . S
C870 O854 1.249 . S
C870 O855 1.244 . S
C870 C864 1.505 . S
C871 O858 1.258 . S
C871 O859 1.242 . S
H872 C844 0.930 . S
H873 C845 0.930 . S
H874 C846 0.930 . S
H875 C847 0.931 . S
H876 C865 0.930 . S
H877 C866 0.930 . S
H878 C867 0.930 . S
H879 C868 0.931 . S
Eu880 C889 2.828 . S
Eu880 O891 2.392 . S
Eu880 O893 2.418 . S
Eu880 O898 2.373 . S
Eu880 O901 2.488 . S
Eu880 O902 2.471 . S
Eu880 O903 2.349 . S
Eu881 O890 2.373 . S
Eu881 O894 2.488 . S
Eu881 O895 2.471 . S
Eu881 O896 2.349 . S
Eu881 O899 2.392 . S
Eu881 O900 2.418 . S
Eu881 C910 2.828 . S
C882 O900 1.244 . S
C882 O903 1.265 . S
C883 C884 1.379 . S
C883 C887 1.373 . S
C883 C889 1.505 . S
C884 C883 1.379 . S
C884 C886 1.369 . S
C884 H912 0.930 . S
C885 C887 1.383 . S
C885 C888 1.382 . S
C885 H913 0.930 . S
C886 C884 1.369 . S
C886 C888 1.392 . S
C886 H914 0.930 . S
C887 C883 1.373 . S
C887 C885 1.383 . S
C887 H915 0.931 . S
C888 C885 1.382 . S
C888 C886 1.392 . S
C889 Eu880 2.828 . S
C889 C883 1.505 . S
C889 O901 1.249 . S
C889 O902 1.244 . S
O890 Eu881 2.373 . S
O890 C892 1.258 . S
O891 Eu880 2.392 . S
O891 C892 1.242 . S
C892 O890 1.258 . S
C892 O891 1.242 . S
O893 Eu880 2.418 . S
O893 C897 1.244 . S
O894 Eu881 2.488 . S
O894 C910 1.249 . S
O895 Eu881 2.471 . S
O895 C910 1.244 . S
O896 Eu881 2.349 . S
O896 C897 1.265 . S
C897 O893 1.244 . S
C897 O896 1.265 . S
O898 Eu880 2.373 . S
O898 C911 1.258 . S
O899 Eu881 2.392 . S
O899 C911 1.242 . S
O900 Eu881 2.418 . S
O900 C882 1.244 . S
O901 Eu880 2.488 . S
O901 C889 1.249 . S
O902 Eu880 2.471 . S
O902 C889 1.244 . S
O903 Eu880 2.349 . S
O903 C882 1.265 . S
C904 C905 1.379 . S
C904 C908 1.373 . S
C904 C910 1.505 . S
C905 C904 1.379 . S
C905 C907 1.369 . S
C905 H916 0.930 . S
C906 C908 1.383 . S
C906 C909 1.382 . S
C906 H917 0.930 . S
C907 C905 1.369 . S
C907 C909 1.392 . S
C907 H918 0.930 . S
C908 C904 1.373 . S
C908 C906 1.383 . S
C908 H919 0.931 . S
C909 C906 1.382 . S
C909 C907 1.392 . S
C910 Eu881 2.828 . S
C910 O894 1.249 . S
C910 O895 1.244 . S
C910 C904 1.505 . S
C911 O898 1.258 . S
C911 O899 1.242 . S
H912 C884 0.930 . S
H913 C885 0.930 . S
H914 C886 0.930 . S
H915 C887 0.931 . S
H916 C905 0.930 . S
H917 C906 0.930 . S
H918 C907 0.930 . S
H919 C908 0.931 . S
Eu920 C929 2.828 . S
Eu920 O931 2.392 . S
Eu920 O933 2.418 . S
Eu920 O938 2.373 . S
Eu920 O941 2.488 . S
Eu920 O942 2.471 . S
Eu920 O943 2.349 . S
Eu921 O930 2.373 . S
Eu921 O934 2.488 . S
Eu921 O935 2.471 . S
Eu921 O936 2.349 . S
Eu921 O939 2.392 . S
Eu921 O940 2.418 . S
Eu921 C950 2.828 . S
C922 O940 1.244 . S
C922 O943 1.265 . S
C923 C924 1.379 . S
C923 C927 1.373 . S
C923 C929 1.505 . S
C924 C923 1.379 . S
C924 C926 1.369 . S
C924 H952 0.930 . S
C925 C927 1.383 . S
C925 C928 1.382 . S
C925 H953 0.930 . S
C926 C924 1.369 . S
C926 C928 1.392 . S
C926 H954 0.930 . S
C927 C923 1.373 . S
C927 C925 1.383 . S
C927 H955 0.931 . S
C928 C925 1.382 . S
C928 C926 1.392 . S
C929 Eu920 2.828 . S
C929 C923 1.505 . S
C929 O941 1.249 . S
C929 O942 1.244 . S
O930 Eu921 2.373 . S
O930 C932 1.258 . S
O931 Eu920 2.392 . S
O931 C932 1.242 . S
C932 O930 1.258 . S
C932 O931 1.242 . S
O933 Eu920 2.418 . S
O933 C937 1.244 . S
O934 Eu921 2.488 . S
O934 C950 1.249 . S
O935 Eu921 2.471 . S
O935 C950 1.244 . S
O936 Eu921 2.349 . S
O936 C937 1.265 . S
C937 O933 1.244 . S
C937 O936 1.265 . S
O938 Eu920 2.373 . S
O938 C951 1.258 . S
O939 Eu921 2.392 . S
O939 C951 1.242 . S
O940 Eu921 2.418 . S
O940 C922 1.244 . S
O941 Eu920 2.488 . S
O941 C929 1.249 . S
O942 Eu920 2.471 . S
O942 C929 1.244 . S
O943 Eu920 2.349 . S
O943 C922 1.265 . S
C944 C945 1.379 . S
C944 C948 1.373 . S
C944 C950 1.505 . S
C945 C944 1.379 . S
C945 C947 1.369 . S
C945 H956 0.930 . S
C946 C948 1.383 . S
C946 C949 1.382 . S
C946 H957 0.930 . S
C947 C945 1.369 . S
C947 C949 1.392 . S
C947 H958 0.930 . S
C948 C944 1.373 . S
C948 C946 1.383 . S
C948 H959 0.931 . S
C949 C946 1.382 . S
C949 C947 1.392 . S
C950 Eu921 2.828 . S
C950 O934 1.249 . S
C950 O935 1.244 . S
C950 C944 1.505 . S
C951 O938 1.258 . S
C951 O939 1.242 . S
H952 C924 0.930 . S
H953 C925 0.930 . S
H954 C926 0.930 . S
H955 C927 0.931 . S
H956 C945 0.930 . S
H957 C946 0.930 . S
H958 C947 0.930 . S
H959 C948 0.931 . S
Eu960 C969 2.828 . S
Eu960 O971 2.392 . S
Eu960 O973 2.418 . S
Eu960 O978 2.373 . S
Eu960 O981 2.488 . S
Eu960 O982 2.471 . S
Eu960 O983 2.349 . S
Eu961 O970 2.373 . S
Eu961 O974 2.488 . S
Eu961 O975 2.471 . S
Eu961 O976 2.349 . S
Eu961 O979 2.392 . S
Eu961 O980 2.418 . S
Eu961 C990 2.828 . S
C962 O980 1.244 . S
C962 O983 1.265 . S
C963 C964 1.379 . S
C963 C967 1.373 . S
C963 C969 1.505 . S
C964 C963 1.379 . S
C964 C966 1.369 . S
C964 H992 0.930 . S
C965 C967 1.383 . S
C965 C968 1.382 . S
C965 H993 0.930 . S
C966 C964 1.369 . S
C966 C968 1.392 . S
C966 H994 0.930 . S
C967 C963 1.373 . S
C967 C965 1.383 . S
C967 H995 0.931 . S
C968 C965 1.382 . S
C968 C966 1.392 . S
C969 Eu960 2.828 . S
C969 C963 1.505 . S
C969 O981 1.249 . S
C969 O982 1.244 . S
O970 Eu961 2.373 . S
O970 C972 1.258 . S
O971 Eu960 2.392 . S
O971 C972 1.242 . S
C972 O970 1.258 . S
C972 O971 1.242 . S
O973 Eu960 2.418 . S
O973 C977 1.244 . S
O974 Eu961 2.488 . S
O974 C990 1.249 . S
O975 Eu961 2.471 . S
O975 C990 1.244 . S
O976 Eu961 2.349 . S
O976 C977 1.265 . S
C977 O973 1.244 . S
C977 O976 1.265 . S
O978 Eu960 2.373 . S
O978 C991 1.258 . S
O979 Eu961 2.392 . S
O979 C991 1.242 . S
O980 Eu961 2.418 . S
O980 C962 1.244 . S
O981 Eu960 2.488 . S
O981 C969 1.249 . S
O982 Eu960 2.471 . S
O982 C969 1.244 . S
O983 Eu960 2.349 . S
O983 C962 1.265 . S
C984 C985 1.379 . S
C984 C988 1.373 . S
C984 C990 1.505 . S
C985 C984 1.379 . S
C985 C987 1.369 . S
C985 H996 0.930 . S
C986 C988 1.383 . S
C986 C989 1.382 . S
C986 H997 0.930 . S
C987 C985 1.369 . S
C987 C989 1.392 . S
C987 H998 0.930 . S
C988 C984 1.373 . S
C988 C986 1.383 . S
C988 H999 0.931 . S
C989 C986 1.382 . S
C989 C987 1.392 . S
C990 Eu961 2.828 . S
C990 O974 1.249 . S
C990 O975 1.244 . S
C990 C984 1.505 . S
C991 O978 1.258 . S
C991 O979 1.242 . S
H992 C964 0.930 . S
H993 C965 0.930 . S
H994 C966 0.930 . S
H995 C967 0.931 . S
H996 C985 0.930 . S
H997 C986 0.930 . S
H998 C987 0.930 . S
H999 C988 0.931 . S
Eu1000 C1009 2.828 . S
Eu1000 O1011 2.392 . S
Eu1000 O1013 2.418 . S
Eu1000 O1018 2.373 . S
Eu1000 O1021 2.488 . S
Eu1000 O1022 2.471 . S
Eu1000 O1023 2.349 . S
Eu1001 O1010 2.373 . S
Eu1001 O1014 2.488 . S
Eu1001 O1015 2.471 . S
Eu1001 O1016 2.349 . S
Eu1001 O1019 2.392 . S
Eu1001 O1020 2.418 . S
Eu1001 C1030 2.828 . S
C1002 O1020 1.244 . S
C1002 O1023 1.265 . S
C1003 C1004 1.379 . S
C1003 C1007 1.373 . S
C1003 C1009 1.505 . S
C1004 C1003 1.379 . S
C1004 C1006 1.369 . S
C1004 H1032 0.930 . S
C1005 C1007 1.383 . S
C1005 C1008 1.382 . S
C1005 H1033 0.930 . S
C1006 C1004 1.369 . S
C1006 C1008 1.392 . S
C1006 H1034 0.930 . S
C1007 C1003 1.373 . S
C1007 C1005 1.383 . S
C1007 H1035 0.931 . S
C1008 C1005 1.382 . S
C1008 C1006 1.392 . S
C1009 Eu1000 2.828 . S
C1009 C1003 1.505 . S
C1009 O1021 1.249 . S
C1009 O1022 1.244 . S
O1010 Eu1001 2.373 . S
O1010 C1012 1.258 . S
O1011 Eu1000 2.392 . S
O1011 C1012 1.242 . S
C1012 O1010 1.258 . S
C1012 O1011 1.242 . S
O1013 Eu1000 2.418 . S
O1013 C1017 1.244 . S
O1014 Eu1001 2.488 . S
O1014 C1030 1.249 . S
O1015 Eu1001 2.471 . S
O1015 C1030 1.244 . S
O1016 Eu1001 2.349 . S
O1016 C1017 1.265 . S
C1017 O1013 1.244 . S
C1017 O1016 1.265 . S
O1018 Eu1000 2.373 . S
O1018 C1031 1.258 . S
O1019 Eu1001 2.392 . S
O1019 C1031 1.242 . S
O1020 Eu1001 2.418 . S
O1020 C1002 1.244 . S
O1021 Eu1000 2.488 . S
O1021 C1009 1.249 . S
O1022 Eu1000 2.471 . S
O1022 C1009 1.244 . S
O1023 Eu1000 2.349 . S
O1023 C1002 1.265 . S
C1024 C1025 1.379 . S
C1024 C1028 1.373 . S
C1024 C1030 1.505 . S
C1025 C1024 1.379 . S
C1025 C1027 1.369 . S
C1025 H1036 0.930 . S
C1026 C1028 1.383 . S
C1026 C1029 1.382 . S
C1026 H1037 0.930 . S
C1027 C1025 1.369 . S
C1027 C1029 1.392 . S
C1027 H1038 0.930 . S
C1028 C1024 1.373 . S
C1028 C1026 1.383 . S
C1028 H1039 0.931 . S
C1029 C1026 1.382 . S
C1029 C1027 1.392 . S
C1030 Eu1001 2.828 . S
C1030 O1014 1.249 . S
C1030 O1015 1.244 . S
C1030 C1024 1.505 . S
C1031 O1018 1.258 . S
C1031 O1019 1.242 . S
H1032 C1004 0.930 . S
H1033 C1005 0.930 . S
H1034 C1006 0.930 . S
H1035 C1007 0.931 . S
H1036 C1025 0.930 . S
H1037 C1026 0.930 . S
H1038 C1027 0.930 . S
H1039 C1028 0.931 . S
Eu1040 C1049 2.828 . S
Eu1040 O1051 2.392 . S
Eu1040 O1053 2.418 . S
Eu1040 O1058 2.373 . S
Eu1040 O1061 2.488 . S
Eu1040 O1062 2.471 . S
Eu1040 O1063 2.349 . S
Eu1041 O1050 2.373 . S
Eu1041 O1054 2.488 . S
Eu1041 O1055 2.471 . S
Eu1041 O1056 2.349 . S
Eu1041 O1059 2.392 . S
Eu1041 O1060 2.418 . S
Eu1041 C1070 2.828 . S
C1042 O1060 1.244 . S
C1042 O1063 1.265 . S
C1043 C1044 1.379 . S
C1043 C1047 1.373 . S
C1043 C1049 1.505 . S
C1044 C1043 1.379 . S
C1044 C1046 1.369 . S
C1044 H1072 0.930 . S
C1045 C1047 1.383 . S
C1045 C1048 1.382 . S
C1045 H1073 0.930 . S
C1046 C1044 1.369 . S
C1046 C1048 1.392 . S
C1046 H1074 0.930 . S
C1047 C1043 1.373 . S
C1047 C1045 1.383 . S
C1047 H1075 0.931 . S
C1048 C1045 1.382 . S
C1048 C1046 1.392 . S
C1049 Eu1040 2.828 . S
C1049 C1043 1.505 . S
C1049 O1061 1.249 . S
C1049 O1062 1.244 . S
O1050 Eu1041 2.373 . S
O1050 C1052 1.258 . S
O1051 Eu1040 2.392 . S
O1051 C1052 1.242 . S
C1052 O1050 1.258 . S
C1052 O1051 1.242 . S
O1053 Eu1040 2.418 . S
O1053 C1057 1.244 . S
O1054 Eu1041 2.488 . S
O1054 C1070 1.249 . S
O1055 Eu1041 2.471 . S
O1055 C1070 1.244 . S
O1056 Eu1041 2.349 . S
O1056 C1057 1.265 . S
C1057 O1053 1.244 . S
C1057 O1056 1.265 . S
O1058 Eu1040 2.373 . S
O1058 C1071 1.258 . S
O1059 Eu1041 2.392 . S
O1059 C1071 1.242 . S
O1060 Eu1041 2.418 . S
O1060 C1042 1.244 . S
O1061 Eu1040 2.488 . S
O1061 C1049 1.249 . S
O1062 Eu1040 2.471 . S
O1062 C1049 1.244 . S
O1063 Eu1040 2.349 . S
O1063 C1042 1.265 . S
C1064 C1065 1.379 . S
C1064 C1068 1.373 . S
C1064 C1070 1.505 . S
C1065 C1064 1.379 . S
C1065 C1067 1.369 . S
C1065 H1076 0.930 . S
C1066 C1068 1.383 . S
C1066 C1069 1.382 . S
C1066 H1077 0.930 . S
C1067 C1065 1.369 . S
C1067 C1069 1.392 . S
C1067 H1078 0.930 . S
C1068 C1064 1.373 . S
C1068 C1066 1.383 . S
C1068 H1079 0.931 . S
C1069 C1066 1.382 . S
C1069 C1067 1.392 . S
C1070 Eu1041 2.828 . S
C1070 O1054 1.249 . S
C1070 O1055 1.244 . S
C1070 C1064 1.505 . S
C1071 O1058 1.258 . S
C1071 O1059 1.242 . S
H1072 C1044 0.930 . S
H1073 C1045 0.930 . S
H1074 C1046 0.930 . S
H1075 C1047 0.931 . S
H1076 C1065 0.930 . S
H1077 C1066 0.930 . S
H1078 C1067 0.930 . S
H1079 C1068 0.931 . S
C522 C732 2.765 . S
C562 C772 2.396 . S
C495 C802 2.878 1_556 S
C455 C762 2.394 1_554 S
C812 C362 2.099 . S
C402 C722 2.749 . S
C751 C442 2.510 . S
C791 C375 2.271 . S
C415 C817 2.915 1_554 S
C535 C777 2.429 . S
C575 C831 1.990 . S
C737 C482 2.460 . S
C852 C42 2.765 . S
C82 C892 2.395 . S
C15 C922 2.877 . S
C695 C882 2.394 . S
C602 C932 2.098 . S
C642 C842 2.747 . S
C682 C871 2.510 . S
C615 C911 2.270 . S
C937 C655 2.915 . S
C55 C897 2.429 . S
C951 C95 1.989 . S
C2 C857 2.460 . S
C972 C282 2.765 . S
C322 C1012 2.395 . S
C1042 C255 2.877 . S
C1002 C215 2.394 . S
C1052 C122 2.098 . S
C162 C962 2.747 . S
C202 C991 2.510 . S
C135 C1031 2.271 . S
C1057 C175 2.915 . S
C295 C1017 2.429 . S
C335 C1071 1.990 . S
C242 C977 2.460 . S
C621 C749 1.359 . S
C789 C661 2.431 1_455 S
C701 C808 1.670 . S
C261 C768 2.206 1_455 S
C301 C829 1.800 . S
C728 C341 1.396 . S
C141 C869 1.359 . S
C181 C909 2.431 . S
C221 C928 1.670 . S
C501 C888 2.206 . S
C949 C541 1.799 . S
C581 C848 1.396 . S
C381 C989 1.359 . S
C421 C1029 2.431 . S
C1048 C461 1.670 . S
C21 C1008 2.206 . S
C61 C1069 1.799 . S
C101 C968 1.396 . S
