# Generated by pormake.
# Topology cor, (4,6)-cn, num edge types: 1
# Building blocks:
#     Node 0, Type 0, BuildingBlock: CEKHIL_clean_sbu_0, # of connection points: 4
#     Node 1, Type 0, BuildingBlock: CEKHIL_clean_sbu_0, # of connection points: 4
#     Node 2, Type 0, BuildingBlock: CEKHIL_clean_sbu_0, # of connection points: 4
#     Node 3, Type 0, BuildingBlock: CEKHIL_clean_sbu_0, # of connection points: 4
#     Node 4, Type 0, BuildingBlock: CEKHIL_clean_sbu_0, # of connection points: 4
#     Node 5, Type 0, BuildingBlock: CEKHIL_clean_sbu_0, # of connection points: 4
#     Node 6, Type 0, BuildingBlock: CEKHIL_clean_sbu_0, # of connection points: 4
#     Node 7, Type 0, BuildingBlock: CEKHIL_clean_sbu_0, # of connection points: 4
#     Node 8, Type 0, BuildingBlock: CEKHIL_clean_sbu_0, # of connection points: 4
#     Node 9, Type 0, BuildingBlock: CEKHIL_clean_sbu_0, # of connection points: 4
#     Node 10, Type 0, BuildingBlock: CEKHIL_clean_sbu_0, # of connection points: 4
#     Node 11, Type 0, BuildingBlock: CEKHIL_clean_sbu_0, # of connection points: 4
#     Node 12, Type 0, BuildingBlock: CEKHIL_clean_sbu_0, # of connection points: 4
#     Node 13, Type 0, BuildingBlock: CEKHIL_clean_sbu_0, # of connection points: 4
#     Node 14, Type 0, BuildingBlock: CEKHIL_clean_sbu_0, # of connection points: 4
#     Node 15, Type 0, BuildingBlock: CEKHIL_clean_sbu_0, # of connection points: 4
#     Node 16, Type 0, BuildingBlock: CEKHIL_clean_sbu_0, # of connection points: 4
#     Node 17, Type 0, BuildingBlock: CEKHIL_clean_sbu_0, # of connection points: 4
#     Node 18, Type 1, BuildingBlock: MIDCAF_clean_sbu_0, # of connection points: 6
#     Node 19, Type 1, BuildingBlock: MIDCAF_clean_sbu_0, # of connection points: 6
#     Node 20, Type 1, BuildingBlock: MIDCAF_clean_sbu_0, # of connection points: 6
#     Node 21, Type 1, BuildingBlock: MIDCAF_clean_sbu_0, # of connection points: 6
#     Node 22, Type 1, BuildingBlock: MIDCAF_clean_sbu_0, # of connection points: 6
#     Node 23, Type 1, BuildingBlock: MIDCAF_clean_sbu_0, # of connection points: 6
#     Node 24, Type 1, BuildingBlock: MIDCAF_clean_sbu_0, # of connection points: 6
#     Node 25, Type 1, BuildingBlock: MIDCAF_clean_sbu_0, # of connection points: 6
#     Node 26, Type 1, BuildingBlock: MIDCAF_clean_sbu_0, # of connection points: 6
#     Node 27, Type 1, BuildingBlock: MIDCAF_clean_sbu_0, # of connection points: 6
#     Node 28, Type 1, BuildingBlock: MIDCAF_clean_sbu_0, # of connection points: 6
#     Node 29, Type 1, BuildingBlock: MIDCAF_clean_sbu_0, # of connection points: 6
#     Edge 30, Type (0, 1), BuildingBlock: OJICUG_clean_linker_0, # of connection points: 2
#     Edge 31, Type (0, 1), BuildingBlock: OJICUG_clean_linker_0, # of connection points: 2
#     Edge 32, Type (0, 1), BuildingBlock: OJICUG_clean_linker_0, # of connection points: 2
#     Edge 33, Type (0, 1), BuildingBlock: OJICUG_clean_linker_0, # of connection points: 2
#     Edge 34, Type (0, 1), BuildingBlock: OJICUG_clean_linker_0, # of connection points: 2
#     Edge 35, Type (0, 1), BuildingBlock: OJICUG_clean_linker_0, # of connection points: 2
#     Edge 36, Type (0, 1), BuildingBlock: OJICUG_clean_linker_0, # of connection points: 2
#     Edge 37, Type (0, 1), BuildingBlock: OJICUG_clean_linker_0, # of connection points: 2
#     Edge 38, Type (0, 1), BuildingBlock: OJICUG_clean_linker_0, # of connection points: 2
#     Edge 39, Type (0, 1), BuildingBlock: OJICUG_clean_linker_0, # of connection points: 2
#     Edge 40, Type (0, 1), BuildingBlock: OJICUG_clean_linker_0, # of connection points: 2
#     Edge 41, Type (0, 1), BuildingBlock: OJICUG_clean_linker_0, # of connection points: 2
#     Edge 42, Type (0, 1), BuildingBlock: OJICUG_clean_linker_0, # of connection points: 2
#     Edge 43, Type (0, 1), BuildingBlock: OJICUG_clean_linker_0, # of connection points: 2
#     Edge 44, Type (0, 1), BuildingBlock: OJICUG_clean_linker_0, # of connection points: 2
#     Edge 45, Type (0, 1), BuildingBlock: OJICUG_clean_linker_0, # of connection points: 2
#     Edge 46, Type (0, 1), BuildingBlock: OJICUG_clean_linker_0, # of connection points: 2
#     Edge 47, Type (0, 1), BuildingBlock: OJICUG_clean_linker_0, # of connection points: 2
#     Edge 48, Type (0, 1), BuildingBlock: OJICUG_clean_linker_0, # of connection points: 2
#     Edge 49, Type (0, 1), BuildingBlock: OJICUG_clean_linker_0, # of connection points: 2
#     Edge 50, Type (0, 1), BuildingBlock: OJICUG_clean_linker_0, # of connection points: 2
#     Edge 51, Type (0, 1), BuildingBlock: OJICUG_clean_linker_0, # of connection points: 2
#     Edge 52, Type (0, 1), BuildingBlock: OJICUG_clean_linker_0, # of connection points: 2
#     Edge 53, Type (0, 1), BuildingBlock: OJICUG_clean_linker_0, # of connection points: 2
#     Edge 54, Type (0, 1), BuildingBlock: OJICUG_clean_linker_0, # of connection points: 2
#     Edge 55, Type (0, 1), BuildingBlock: OJICUG_clean_linker_0, # of connection points: 2
#     Edge 56, Type (0, 1), BuildingBlock: OJICUG_clean_linker_0, # of connection points: 2
#     Edge 57, Type (0, 1), BuildingBlock: OJICUG_clean_linker_0, # of connection points: 2
#     Edge 58, Type (0, 1), BuildingBlock: OJICUG_clean_linker_0, # of connection points: 2
#     Edge 59, Type (0, 1), BuildingBlock: OJICUG_clean_linker_0, # of connection points: 2
#     Edge 60, Type (0, 1), BuildingBlock: OJICUG_clean_linker_0, # of connection points: 2
#     Edge 61, Type (0, 1), BuildingBlock: OJICUG_clean_linker_0, # of connection points: 2
#     Edge 62, Type (0, 1), BuildingBlock: OJICUG_clean_linker_0, # of connection points: 2
#     Edge 63, Type (0, 1), BuildingBlock: OJICUG_clean_linker_0, # of connection points: 2
#     Edge 64, Type (0, 1), BuildingBlock: OJICUG_clean_linker_0, # of connection points: 2
#     Edge 65, Type (0, 1), BuildingBlock: OJICUG_clean_linker_0, # of connection points: 2
#     Edge 66, Type (0, 1), BuildingBlock: OJICUG_clean_linker_0, # of connection points: 2
#     Edge 67, Type (0, 1), BuildingBlock: OJICUG_clean_linker_0, # of connection points: 2
#     Edge 68, Type (0, 1), BuildingBlock: OJICUG_clean_linker_0, # of connection points: 2
#     Edge 69, Type (0, 1), BuildingBlock: OJICUG_clean_linker_0, # of connection points: 2
#     Edge 70, Type (0, 1), BuildingBlock: OJICUG_clean_linker_0, # of connection points: 2
#     Edge 71, Type (0, 1), BuildingBlock: OJICUG_clean_linker_0, # of connection points: 2
#     Edge 72, Type (0, 1), BuildingBlock: OJICUG_clean_linker_0, # of connection points: 2
#     Edge 73, Type (0, 1), BuildingBlock: OJICUG_clean_linker_0, # of connection points: 2
#     Edge 74, Type (0, 1), BuildingBlock: OJICUG_clean_linker_0, # of connection points: 2
#     Edge 75, Type (0, 1), BuildingBlock: OJICUG_clean_linker_0, # of connection points: 2
#     Edge 76, Type (0, 1), BuildingBlock: OJICUG_clean_linker_0, # of connection points: 2
#     Edge 77, Type (0, 1), BuildingBlock: OJICUG_clean_linker_0, # of connection points: 2
#     Edge 78, Type (0, 1), BuildingBlock: OJICUG_clean_linker_0, # of connection points: 2
#     Edge 79, Type (0, 1), BuildingBlock: OJICUG_clean_linker_0, # of connection points: 2
#     Edge 80, Type (0, 1), BuildingBlock: OJICUG_clean_linker_0, # of connection points: 2
#     Edge 81, Type (0, 1), BuildingBlock: OJICUG_clean_linker_0, # of connection points: 2
#     Edge 82, Type (0, 1), BuildingBlock: OJICUG_clean_linker_0, # of connection points: 2
#     Edge 83, Type (0, 1), BuildingBlock: OJICUG_clean_linker_0, # of connection points: 2
#     Edge 84, Type (0, 1), BuildingBlock: OJICUG_clean_linker_0, # of connection points: 2
#     Edge 85, Type (0, 1), BuildingBlock: OJICUG_clean_linker_0, # of connection points: 2
#     Edge 86, Type (0, 1), BuildingBlock: OJICUG_clean_linker_0, # of connection points: 2
#     Edge 87, Type (0, 1), BuildingBlock: OJICUG_clean_linker_0, # of connection points: 2
#     Edge 88, Type (0, 1), BuildingBlock: OJICUG_clean_linker_0, # of connection points: 2
#     Edge 89, Type (0, 1), BuildingBlock: OJICUG_clean_linker_0, # of connection points: 2
#     Edge 90, Type (0, 1), BuildingBlock: OJICUG_clean_linker_0, # of connection points: 2
#     Edge 91, Type (0, 1), BuildingBlock: OJICUG_clean_linker_0, # of connection points: 2
#     Edge 92, Type (0, 1), BuildingBlock: OJICUG_clean_linker_0, # of connection points: 2
#     Edge 93, Type (0, 1), BuildingBlock: OJICUG_clean_linker_0, # of connection points: 2
#     Edge 94, Type (0, 1), BuildingBlock: OJICUG_clean_linker_0, # of connection points: 2
#     Edge 95, Type (0, 1), BuildingBlock: OJICUG_clean_linker_0, # of connection points: 2
#     Edge 96, Type (0, 1), BuildingBlock: OJICUG_clean_linker_0, # of connection points: 2
#     Edge 97, Type (0, 1), BuildingBlock: OJICUG_clean_linker_0, # of connection points: 2
#     Edge 98, Type (0, 1), BuildingBlock: OJICUG_clean_linker_0, # of connection points: 2
#     Edge 99, Type (0, 1), BuildingBlock: OJICUG_clean_linker_0, # of connection points: 2
#     Edge 100, Type (0, 1), BuildingBlock: OJICUG_clean_linker_0, # of connection points: 2
#     Edge 101, Type (0, 1), BuildingBlock: OJICUG_clean_linker_0, # of connection points: 2
# Relax obj value: 0.112
# Max RMSD: 0.162
# Mean RMSD: 0.107
data_MOF--net-cor--node1-CEKHIL_clean_sbu_0--node2-MIDCAF_clean_sbu_0--edge1-OJICUG_clean_linker_0
_symmetry_space_group_name_H-M    P1
_symmetry_Int_Tables_number       1
_symmetry_cell_setting            triclinic
loop_
_symmetry_equiv_pos_as_xyz
'x, y, z'
_cell_length_a     28.295603
_cell_length_b     28.143512
_cell_length_c     73.025805
_cell_angle_alpha  90.770371
_cell_angle_beta   89.560337
_cell_angle_gamma 120.78649
loop_
_atom_site_label
_atom_site_type_symbol
_atom_site_fract_x
_atom_site_fract_y
_atom_site_fract_z
_atom_type_partial_charge
Co0 Co 0.72735 0.01577 0.2593 0.0
O1 O 0.69479 0.04243 0.24199 0.0
O2 O 0.76151 0.09502 0.26144 0.0
C3 C 0.65026 0.94301 0.27093 0.0
O4 O 0.76962 0.00423 0.27936 0.0
Co5 Co 0.71746 0.90185 0.2541 0.0
O6 O 0.74475 0.9146 0.27982 0.0
C7 C 0.79318 0.99326 0.23038 0.0
C8 C 0.72931 0.09175 0.24826 0.0
C9 C 0.7689 0.96291 0.28701 0.0
O10 O 0.78431 0.02593 0.24036 0.0
O11 O 0.76706 0.94077 0.23259 0.0
O12 O 0.66644 0.99305 0.27659 0.0
O13 O 0.67629 0.9396 0.25676 0.0
Co14 Co 0.02079 0.73252 0.25782 0.0
O15 O 0.05038 0.69805 0.27294 0.0
O16 O 0.10079 0.77163 0.25596 0.0
C17 C 0.95037 0.65575 0.24498 0.0
O18 O 0.0026 0.77776 0.24019 0.0
Co19 Co 0.90311 0.7092 0.26685 0.0
O20 O 0.91219 0.7477 0.24329 0.0
C21 C 0.99337 0.77196 0.29264 0.0
C22 C 0.09898 0.7369 0.26799 0.0
C23 C 0.95812 0.77634 0.23503 0.0
O24 O 0.02728 0.78056 0.27951 0.0
O25 O 0.9414 0.73932 0.29095 0.0
O26 O -0.00027 0.67616 0.23827 0.0
O27 O 0.94761 0.67771 0.26023 0.0
Co28 Co 0.30452 0.31429 0.2608 0.0
O29 O 0.36402 0.34506 0.2431 0.0
O30 O 0.34844 0.28044 0.26324 0.0
C31 C 0.31039 0.39249 0.27159 0.0
O32 O 0.25079 0.27432 0.28148 0.0
Co33 Co 0.20042 0.32285 0.2563 0.0
O34 O 0.18601 0.29788 0.28227 0.0
C35 C 0.21827 0.2505 0.23146 0.0
C36 C 0.37786 0.31117 0.24973 0.0
C37 C 0.21094 0.27581 0.28953 0.0
O38 O 0.25632 0.25556 0.24227 0.0
O39 O 0.1941 0.27819 0.23363 0.0
O40 O 0.34425 0.37769 0.27744 0.0
O41 O 0.2802 0.36427 0.2578 0.0
Co42 Co 0.31159 0.01582 0.76366 0.0
O43 O 0.3463 0.98819 0.77949 0.0
O44 O 0.27484 0.93656 0.76145 0.0
C45 C 0.38665 0.08749 0.75093 0.0
O46 O 0.26606 0.02899 0.74529 0.0
Co47 Co 0.32534 0.13057 0.77089 0.0
O48 O 0.29111 0.11872 0.74617 0.0
C49 C 0.25857 0.04013 0.79616 0.0
C50 C 0.30866 0.93913 0.77392 0.0
C51 C 0.26533 0.07081 0.73869 0.0
O52 O 0.26015 0.00687 0.78431 0.0
O53 O 0.28615 0.09275 0.79426 0.0
O54 O 0.36843 0.0374 0.74484 0.0
O55 O 0.36405 0.09123 0.76594 0.0
Co56 Co 0.01109 0.30518 0.76232 0.0
O57 O 0.98259 0.33879 0.74648 0.0
O58 O 0.93126 0.26551 0.76358 0.0
C59 C 0.07978 0.38164 0.77553 0.0
O60 O 0.02853 0.26158 0.78079 0.0
Co61 Co 0.12895 0.32855 0.75416 0.0
O62 O 0.11981 0.29514 0.77875 0.0
C63 C 0.04035 0.26486 0.72803 0.0
C64 C 0.93383 0.29978 0.75122 0.0
C65 C 0.07374 0.26656 0.78693 0.0
O66 O 0.00619 0.25642 0.74105 0.0
O67 O 0.09226 0.2975 0.72988 0.0
O68 O 0.02976 0.36147 0.78159 0.0
O69 O 0.0842 0.36019 0.76038 0.0
Co70 Co 0.71895 0.71574 0.76294 0.0
O71 O 0.65696 0.68164 0.77948 0.0
O72 O 0.67541 0.74991 0.76049 0.0
C73 C 0.71545 0.63987 0.75109 0.0
O74 O 0.77634 0.75953 0.74353 0.0
Co75 Co 0.82223 0.70731 0.76915 0.0
O76 O 0.84165 0.73667 0.74372 0.0
C77 C 0.79648 0.77191 0.79491 0.0
C78 C 0.64445 0.71707 0.77338 0.0
C79 C 0.81783 0.75948 0.73617 0.0
O80 O 0.76287 0.77072 0.78293 0.0
O81 O 0.8212 0.74471 0.79284 0.0
O82 O 0.68252 0.65553 0.74498 0.0
O83 O 0.74298 0.66556 0.76564 0.0
Co84 Co 0.38492 0.34168 0.59256 0.0
O85 O 0.35102 0.36887 0.57586 0.0
O86 O 0.42648 0.42175 0.59185 0.0
C87 C 0.30951 0.27888 0.60778 0.0
O88 O 0.43051 0.33028 0.61176 0.0
Co89 Co 0.35942 0.22041 0.59119 0.0
O90 O 0.39599 0.23919 0.61556 0.0
C91 C 0.42592 0.29622 0.56194 0.0
C92 C 0.39053 0.41846 0.58014 0.0
C93 C 0.42689 0.2893 0.62074 0.0
O94 O 0.42956 0.3369 0.5715 0.0
O95 O 0.39603 0.2457 0.56674 0.0
O96 O 0.33222 0.33112 0.612 0.0
O97 O 0.32841 0.26782 0.59321 0.0
Co98 Co 0.69988 0.06742 0.58771 0.0
O99 O 0.71747 0.02949 0.60595 0.0
O100 O 0.77754 0.09466 0.58749 0.0
C101 C 0.6243 0.99194 0.57591 0.0
O102 O 0.6994 0.11502 0.56685 0.0
Co103 Co 0.59146 0.06893 0.58817 0.0
O104 O 0.61335 0.09735 0.56276 0.0
C105 C 0.67322 0.12256 0.61784 0.0
C106 C 0.76838 0.06097 0.60085 0.0
C107 C 0.66305 0.11841 0.55739 0.0
O108 O 0.71029 0.12387 0.60717 0.0
O109 O 0.62226 0.09781 0.61339 0.0
O110 O 0.67318 0.00422 0.57045 0.0
O111 O 0.62347 0.02259 0.589 0.0
Co112 Co 0.96327 0.64706 0.5891 0.0
O113 O 0.02631 0.68117 0.57257 0.0
O114 O 0.99864 0.60384 0.58768 0.0
C115 C 0.97954 0.72285 0.60503 0.0
O116 O 0.90504 0.60039 0.60826 0.0
Co117 Co 0.86942 0.6734 0.59041 0.0
O118 O 0.85228 0.63676 0.61468 0.0
C119 C 0.87847 0.61313 0.55864 0.0
C120 C 0.03396 0.64062 0.57654 0.0
C121 C 0.87029 0.60491 0.61861 0.0
O122 O 0.91339 0.60557 0.56756 0.0
O123 O 0.85909 0.64239 0.56492 0.0
O124 O 0.00685 0.69852 0.60886 0.0
O125 O 0.94858 0.70444 0.59072 0.0
Co126 Co 0.97669 0.36559 0.09578 0.0
O127 O 0.01186 0.33408 0.10955 0.0
O128 O 0.93646 0.28573 0.09294 0.0
C129 C 0.05154 0.43625 0.08238 0.0
O130 O 0.93009 0.38438 0.07948 0.0
Co131 Co 0.00134 0.48353 0.10615 0.0
O132 O 0.95726 0.4743 0.08387 0.0
C133 C 0.9362 0.39194 0.13111 0.0
C134 C 0.97216 0.28596 0.10415 0.0
C135 C 0.9288 0.42823 0.07541 0.0
O136 O 0.93083 0.35821 0.11811 0.0
O137 O 0.96775 0.4444 0.12977 0.0
O138 O 0.02969 0.3865 0.07551 0.0
O139 O 0.03254 0.43946 0.09818 0.0
Co140 Co 0.67415 0.6459 0.09576 0.0
O141 O 0.64932 0.68157 0.07913 0.0
O142 O 0.5954 0.61321 0.0977 0.0
C143 C 0.74796 0.7214 0.10781 0.0
O144 O 0.68468 0.60025 0.11504 0.0
Co145 Co 0.78623 0.65357 0.0897 0.0
O146 O 0.7731 0.62231 0.11484 0.0
C147 C 0.69523 0.58687 0.0643 0.0
C148 C 0.59986 0.64682 0.08484 0.0
C149 C 0.72542 0.59861 0.12216 0.0
O150 O 0.66272 0.5911 0.0757 0.0
O151 O 0.74749 0.61278 0.06653 0.0
O152 O 0.69886 0.70604 0.11387 0.0
O153 O 0.74965 0.69544 0.09331 0.0
Co154 Co 0.39234 0.06729 0.09489 0.0
O155 O 0.32617 0.03149 0.1095 0.0
O156 O 0.35341 0.10701 0.09319 0.0
C157 C 0.38579 0.99224 0.0809 0.0
O158 O 0.45687 0.11435 0.07774 0.0
Co159 Co 0.48687 0.04462 0.10241 0.0
O160 O 0.51537 0.08249 0.07856 0.0
C161 C 0.45902 0.104 0.12968 0.0
C162 C 0.31811 0.07101 0.10462 0.0
C163 C 0.49842 0.11215 0.07135 0.0
O164 O 0.43309 0.11314 0.11714 0.0
O165 O 0.47892 0.07257 0.12705 0.0
O166 O 0.35766 0.01344 0.07468 0.0
O167 O 0.40988 0.01221 0.09639 0.0
Co168 Co 0.05457 0.68451 0.92874 0.0
O169 O 0.02407 0.71756 0.91347 0.0
O170 O 0.09897 0.76458 0.93042 0.0
C171 C 0.97717 0.61889 0.94241 0.0
O172 O 0.0961 0.6631 0.94654 0.0
Co173 Co 0.02214 0.56308 0.92021 0.0
O174 O 0.05885 0.57072 0.9441 0.0
C175 C 0.09323 0.65005 0.89468 0.0
C176 C 0.06532 0.76519 0.91848 0.0
C177 C 0.09008 0.61691 0.95216 0.0
O178 O 0.10057 0.68585 0.90718 0.0
O179 O 0.05871 0.59832 0.89645 0.0
O180 O 0.00101 0.66971 0.94842 0.0
O181 O 0.99571 0.61215 0.92698 0.0
Co182 Co 0.34668 0.38812 0.93177 0.0
O183 O 0.37131 0.35213 0.94834 0.0
O184 O 0.42512 0.4207 0.92979 0.0
C185 C 0.27251 0.31369 0.91963 0.0
O186 O 0.33649 0.4339 0.91252 0.0
Co187 Co 0.23587 0.38239 0.93826 0.0
O188 O 0.24844 0.41293 0.91299 0.0
C189 C 0.32715 0.44595 0.96378 0.0
C190 C 0.42078 0.38742 0.94275 0.0
C191 C 0.29579 0.43559 0.90543 0.0
O192 O 0.35906 0.44301 0.95183 0.0
O193 O 0.2748 0.42017 0.96182 0.0
O194 O 0.32147 0.32827 0.9136 0.0
O195 O 0.27112 0.3393 0.93427 0.0
Co196 Co 0.64454 0.98128 0.92475 0.0
O197 O 0.70762 0.00857 0.90887 0.0
O198 O 0.68006 0.93862 0.92794 0.0
C199 C 0.65849 0.06251 0.93557 0.0
O200 O 0.58262 0.94368 0.94368 0.0
Co201 Co 0.55376 0.00879 0.9163 0.0
O202 O 0.52737 0.97914 0.9413 0.0
C203 C 0.57282 0.93765 0.89131 0.0
C204 C 0.71408 0.96937 0.91519 0.0
C205 C 0.5435 0.9506 0.94977 0.0
O206 O 0.59832 0.92972 0.90432 0.0
O207 O 0.55638 0.97232 0.89274 0.0
O208 O 0.6851 0.04093 0.94278 0.0
O209 O 0.63108 0.03822 0.92095 0.0
Co210 Co 0.64584 0.69981 0.42888 0.0
O211 O 0.68547 0.6754 0.44362 0.0
O212 O 0.61179 0.61989 0.42718 0.0
C213 C 0.71828 0.77059 0.4152 0.0
O214 O 0.59752 0.71391 0.41131 0.0
Co215 Co 0.66424 0.81622 0.43802 0.0
O216 O 0.62875 0.8053 0.41371 0.0
C217 C 0.60077 0.72526 0.46337 0.0
C218 C 0.64997 0.62547 0.43844 0.0
C219 C 0.60016 0.75865 0.40556 0.0
O220 O 0.59787 0.69138 0.45079 0.0
O221 O 0.63015 0.77782 0.46167 0.0
O222 O 0.69922 0.72057 0.40897 0.0
O223 O 0.69829 0.77447 0.43072 0.0
Co224 Co 0.33684 0.97282 0.43012 0.0
O225 O 0.308 0.00221 0.41284 0.0
O226 O 0.25783 0.93198 0.43145 0.0
C227 C 0.40357 0.05295 0.44214 0.0
O228 O 0.35265 0.93282 0.45002 0.0
Co229 Co 0.45368 0.99322 0.4248 0.0
O230 O 0.44272 0.96118 0.44979 0.0
C231 C 0.36768 0.92391 0.39833 0.0
C232 C 0.25973 0.96347 0.41823 0.0
C233 C 0.39521 0.93502 0.45721 0.0
O234 O 0.33286 0.92016 0.41043 0.0
O235 O 0.41966 0.9554 0.40061 0.0
O236 O 0.35316 0.03211 0.44779 0.0
O237 O 0.41029 0.02858 0.42804 0.0
Co238 Co 0.05777 0.38267 0.42949 0.0
O239 O 0.99397 0.34366 0.44503 0.0
O240 O 0.0113 0.41417 0.42741 0.0
C241 C 0.05692 0.30923 0.41714 0.0
O242 O 0.11842 0.43015 0.41086 0.0
Co243 Co 0.1602 0.37255 0.43699 0.0
O244 O 0.18133 0.40385 0.41196 0.0
C245 C 0.12797 0.43094 0.46322 0.0
C246 C 0.97924 0.37763 0.43937 0.0
C247 C 0.16026 0.42893 0.4041 0.0
O248 O 0.09833 0.43449 0.45065 0.0
O249 O 0.1518 0.40293 0.46107 0.0
O250 O 0.02455 0.32497 0.41057 0.0
O251 O 0.08222 0.33353 0.43207 0.0
Zn252 Zn 0.01051 0.02006 0.11916 0.0
Zn253 Zn 0.03074 0.06348 0.20359 0.0
Zn254 Zn 0.01425 0.02713 0.1533 0.0
C255 C 0.97585 0.93981 0.1856 0.0
C256 C 0.10987 0.0702 0.18055 0.0
O257 O 0.98045 0.07866 0.14286 0.0
O258 O 0.98281 0.06954 0.11287 0.0
C259 C 0.94185 0.9125 0.13319 0.0
O260 O 0.97583 0.94818 0.16824 0.0
O261 O 0.9961 0.97962 0.19722 0.0
O262 O 0.07275 0.03232 0.19016 0.0
O263 O 0.09817 0.07374 0.16386 0.0
O264 O 0.95837 0.93948 0.11851 0.0
O265 O 0.95962 0.93724 0.14875 0.0
O266 O 0.10102 0.06068 0.1443 0.0
O267 O 0.08907 0.04747 0.11441 0.0
C268 C 0.12056 0.063 0.12813 0.0
O269 O 0.96826 0.0658 0.16238 0.0
O270 O 0.02048 0.11106 0.18559 0.0
C271 C 0.97354 0.09132 0.12658 0.0
C272 C 0.97346 0.08783 0.17828 0.0
Zn273 Zn 0.03244 0.02322 0.33556 0.0
Zn274 Zn 0.01446 0.01531 0.39898 0.0
Zn275 Zn 0.01905 0.0161 0.36524 0.0
C276 C 0.06373 0.12452 0.39034 0.0
C277 C 0.90639 0.95549 0.38715 0.0
O278 O 0.05188 0.96245 0.35642 0.0
O279 O 0.01127 0.94736 0.32961 0.0
C280 C 0.1108 0.11688 0.3439 0.0
O281 O 0.05492 0.10271 0.37422 0.0
O282 O 0.05223 0.09468 0.40429 0.0
O283 O 0.93441 0.97424 0.40159 0.0
O284 O 0.93034 0.96649 0.37144 0.0
O285 O 0.11223 0.07871 0.3352 0.0
O286 O 0.07164 0.1037 0.35556 0.0
O287 O 0.93783 0.98253 0.35238 0.0
O288 O 0.97716 0.04564 0.33113 0.0
C289 C 0.9339 0.01007 0.33914 0.0
O290 O 0.06558 0.97743 0.37502 0.0
O291 O 0.05332 0.97674 0.40497 0.0
C292 C 0.03459 0.93419 0.34142 0.0
C293 C 0.07425 0.96642 0.39132 0.0
Zn294 Zn 0.0171 0.01828 0.90299 0.0
Zn295 Zn 0.01432 0.0077 0.83604 0.0
Zn296 Zn 0.01704 0.01593 0.86821 0.0
C297 C 0.0634 0.11721 0.83974 0.0
C298 C 0.90846 0.94882 0.84261 0.0
O299 O 0.05848 0.97116 0.87818 0.0
O300 O 0.04946 0.97283 0.90822 0.0
C301 C 0.07971 0.12784 0.89172 0.0
O302 O 0.0483 0.10087 0.85634 0.0
O303 O 0.06078 0.08343 0.82776 0.0
O304 O 0.93745 0.97762 0.82946 0.0
O305 O 0.93055 0.95646 0.8586 0.0
O306 O 0.06456 0.09847 0.90588 0.0
O307 O 0.06353 0.10515 0.87578 0.0
O308 O 0.92962 0.97461 0.87756 0.0
O309 O 0.93825 0.9858 0.9076 0.0
C310 C 0.90806 0.96962 0.89358 0.0
O311 O 0.07401 0.98766 0.85882 0.0
O312 O 0.0444 0.9595 0.83076 0.0
C313 C 0.06443 0.9568 0.89433 0.0
C314 C 0.07835 0.96794 0.84325 0.0
Zn315 Zn 0.99808 0.01283 0.68908 0.0
Zn316 Zn 0.02549 0.0175 0.62759 0.0
Zn317 Zn 0.01415 0.01762 0.65975 0.0
C318 C 0.99876 0.91381 0.63801 0.0
C319 C 0.12554 0.09968 0.64023 0.0
O320 O 0.9783 0.07027 0.66586 0.0
O321 O 0.01853 0.08945 0.69284 0.0
C322 C 0.92208 0.91764 0.68098 0.0
O323 O 0.98492 0.9305 0.65244 0.0
O324 O 0.02244 0.94634 0.62492 0.0
O325 O 0.09763 0.08449 0.62571 0.0
O326 O 0.10383 0.0753 0.65543 0.0
O327 O 0.91857 0.95627 0.68848 0.0
O328 O 0.96283 0.93036 0.67005 0.0
O329 O 0.09487 0.05462 0.67354 0.0
O330 O 0.05408 0.99247 0.69502 0.0
C331 C 0.09791 0.02793 0.68725 0.0
O332 O 0.96143 0.04784 0.64824 0.0
O333 O 0.96245 0.02314 0.61947 0.0
C334 C 0.99586 0.10111 0.68034 0.0
C335 C 0.94364 0.04125 0.63164 0.0
Zn336 Zn 0.69415 0.36743 0.51375 0.0
Zn337 Zn 0.67807 0.35073 0.45453 0.0
Zn338 Zn 0.68191 0.35667 0.4846 0.0
C339 C 0.77654 0.36315 0.46281 0.0
C340 C 0.59159 0.25466 0.46701 0.0
O341 O 0.59955 0.31702 0.49725 0.0
O342 O 0.63697 0.38915 0.51571 0.0
C343 C 0.7712 0.45948 0.5019 0.0
O344 O 0.7467 0.33752 0.47684 0.0
O345 O 0.75823 0.38321 0.45147 0.0
O346 O 0.62963 0.26954 0.45535 0.0
O347 O 0.59647 0.28926 0.47963 0.0
O348 O 0.7738 0.42081 0.50933 0.0
O349 O 0.72837 0.44641 0.49214 0.0
O350 O 0.72104 0.30831 0.49326 0.0
O351 O 0.67185 0.29057 0.51844 0.0
C352 C 0.69869 0.27817 0.50755 0.0
O353 O 0.69788 0.43887 0.47501 0.0
O354 O 0.64558 0.39761 0.45109 0.0
C355 C 0.59403 0.34829 0.50907 0.0
C356 C 0.66898 0.43949 0.46152 0.0
Zn357 Zn 0.68171 0.34673 0.7308 0.0
Zn358 Zn 0.68763 0.3487 0.66868 0.0
Zn359 Zn 0.68351 0.34636 0.6978 0.0
C360 C 0.59327 0.33922 0.6735 0.0
C361 C 0.77013 0.44204 0.67404 0.0
O362 O 0.73583 0.31138 0.70647 0.0
O363 O 0.72952 0.31762 0.73647 0.0
C364 C 0.57299 0.27699 0.72113 0.0
O365 O 0.59876 0.3108 0.68617 0.0
O366 O 0.63595 0.376 0.66558 0.0
O367 O 0.76791 0.40069 0.66629 0.0
O368 O 0.73421 0.43329 0.68661 0.0
O369 O 0.60306 0.29689 0.7351 0.0
O370 O 0.5943 0.29146 0.70501 0.0
O371 O 0.71779 0.43501 0.70557 0.0
O372 O 0.71074 0.42546 0.73559 0.0
C373 C 0.72285 0.45589 0.72176 0.0
O374 O 0.71832 0.29497 0.68742 0.0
O375 O 0.65974 0.26977 0.66463 0.0
C376 C 0.74894 0.30538 0.72284 0.0
C377 C 0.69241 0.26187 0.6739 0.0
Zn378 Zn 0.68555 0.35573 0.23491 0.0
Zn379 Zn 0.67218 0.3383 0.17165 0.0
Zn380 Zn 0.68007 0.34917 0.20124 0.0
C381 C 0.68145 0.43391 0.17502 0.0
C382 C 0.58247 0.25333 0.18178 0.0
O383 O 0.71545 0.29734 0.20968 0.0
O384 O 0.70553 0.2993 0.23969 0.0
C385 C 0.75743 0.46214 0.22108 0.0
O386 O 0.7112 0.43086 0.18774 0.0
O387 O 0.64439 0.38962 0.16769 0.0
O388 O 0.62136 0.25791 0.172 0.0
O389 O 0.59212 0.29231 0.19332 0.0
O390 O 0.74442 0.4344 0.23561 0.0
O391 O 0.73425 0.43881 0.20582 0.0
O392 O 0.59385 0.31659 0.21081 0.0
O393 O 0.60938 0.33688 0.2403 0.0
C394 C 0.57649 0.31941 0.22694 0.0
O395 O 0.73492 0.31838 0.19211 0.0
O396 O 0.74967 0.36441 0.16651 0.0
C397 C 0.71791 0.28057 0.22584 0.0
C398 C 0.76411 0.34038 0.17764 0.0
Zn399 Zn 0.63171 0.33536 0.04409 0.0
Zn400 Zn 0.68747 0.36029 0.95959 0.0
Zn401 Zn 0.68127 0.35098 0.99234 0.0
C402 C 0.65584 0.25155 0.96424 0.0
C403 C 0.79305 0.43256 0.9728 0.0
O404 O 0.64011 0.39027 1.00748 0.0
O405 O 0.58538 0.36201 0.03202 0.0
C406 C 0.63548 0.2654 0.01633 0.0
O407 O 0.65677 0.26689 0.98102 0.0
O408 O 0.66691 0.28544 0.95148 0.0
O409 O 0.76535 0.41651 0.95823 0.0
O410 O 0.77001 0.41201 0.98827 0.0
O411 O 0.65784 0.31295 0.02318 0.0
O412 O 0.64393 0.26315 0.99933 0.0
O413 O 0.75699 0.3943 1.00795 0.0
O414 O 0.71606 0.37497 0.03545 0.0
C415 C 0.75969 0.39635 0.02558 0.0
O416 O 0.62332 0.37827 0.98508 0.0
O417 O 0.635 0.38441 0.95518 0.0
C418 C 0.60997 0.39719 0.01943 0.0
C419 C 0.61102 0.3882 0.96925 0.0
Zn420 Zn 0.35383 0.68959 0.85334 0.0
Zn421 Zn 0.3401 0.67312 0.79032 0.0
Zn422 Zn 0.34534 0.67962 0.82374 0.0
C423 C 0.4487 0.71075 0.79761 0.0
C424 C 0.26988 0.56681 0.80354 0.0
O425 O 0.29171 0.7115 0.83315 0.0
O426 O 0.27643 0.66451 0.85855 0.0
C427 C 0.44362 0.775 0.84322 0.0
O428 O 0.43132 0.71245 0.81386 0.0
O429 O 0.41581 0.6936 0.78428 0.0
O430 O 0.28329 0.59471 0.78906 0.0
O431 O 0.29165 0.59008 0.81895 0.0
O432 O 0.40564 0.76942 0.8537 0.0
O433 O 0.4334 0.73692 0.83123 0.0
O434 O 0.3132 0.59773 0.83736 0.0
O435 O 0.38088 0.63776 0.85714 0.0
C436 C 0.34259 0.59386 0.85003 0.0
O437 O 0.30996 0.73105 0.81526 0.0
O438 O 0.31829 0.72737 0.78522 0.0
C439 C 0.26258 0.68952 0.84763 0.0
C440 C 0.30651 0.74668 0.79903 0.0
Zn441 Zn 0.34694 0.69851 0.06425 0.0
Zn442 Zn 0.35976 0.68614 0.99772 0.0
Zn443 Zn 0.35008 0.6937 0.02999 0.0
C444 C 0.24889 0.6332 1.00223 0.0
C445 C 0.40804 0.7955 1.00127 0.0
O446 O 0.40076 0.6609 0.04195 0.0
O447 O 0.39769 0.67454 0.07167 0.0
C448 C 0.23926 0.62748 0.05407 0.0
O449 O 0.2654 0.65321 0.01847 0.0
O450 O 0.28289 0.63522 0.99057 0.0
O451 O 0.38849 0.75994 0.98862 0.0
O452 O 0.39981 0.78006 0.01816 0.0
O453 O 0.26879 0.64655 0.06819 0.0
O454 O 0.26117 0.64245 0.03805 0.0
O455 O 0.38572 0.78306 0.03688 0.0
O456 O 0.37215 0.77699 0.06683 0.0
C457 C 0.3875 0.80568 0.05254 0.0
O458 O 0.38373 0.63861 0.02317 0.0
O459 O 0.41025 0.65869 0.99454 0.0
C460 C 0.41587 0.65931 0.05845 0.0
C461 C 0.4037 0.62988 1.0084 0.0
Zn462 Zn 0.34658 0.68529 0.56891 0.0
Zn463 Zn 0.34048 0.67753 0.50479 0.0
Zn464 Zn 0.34642 0.68198 0.53451 0.0
C465 C 0.35227 0.77287 0.51025 0.0
C466 C 0.24955 0.59075 0.51271 0.0
O467 O 0.3792 0.62773 0.54243 0.0
O468 O 0.36387 0.62522 0.57224 0.0
C469 C 0.42501 0.79258 0.5561 0.0
O470 O 0.38103 0.76646 0.52254 0.0
O471 O 0.31425 0.73046 0.50238 0.0
O472 O 0.28821 0.59838 0.5022 0.0
O473 O 0.25899 0.6262 0.52563 0.0
O474 O 0.40847 0.76398 0.57048 0.0
O475 O 0.40308 0.7707 0.54054 0.0
O476 O 0.25877 0.65058 0.54257 0.0
O477 O 0.26902 0.66817 0.57233 0.0
C478 C 0.23872 0.6529 0.55828 0.0
O479 O 0.39979 0.65016 0.52475 0.0
O480 O 0.41843 0.70292 0.50061 0.0
C481 C 0.37832 0.60818 0.55841 0.0
C482 C 0.43072 0.67523 0.51088 0.0
Zn483 Zn 0.3518 0.68873 0.28961 0.0
Zn484 Zn 0.33802 0.69436 0.35528 0.0
Zn485 Zn 0.34844 0.69038 0.3237 0.0
C486 C 0.44793 0.74643 0.35236 0.0
C487 C 0.28976 0.58638 0.35166 0.0
O488 O 0.29929 0.72676 0.31229 0.0
O489 O 0.30485 0.71755 0.28243 0.0
C490 C 0.4604 0.75486 0.30005 0.0
O491 O 0.43252 0.72642 0.33604 0.0
O492 O 0.41366 0.74739 0.36324 0.0
O493 O 0.31302 0.62123 0.36432 0.0
O494 O 0.29583 0.60279 0.33487 0.0
O495 O 0.43078 0.73729 0.28592 0.0
O496 O 0.43816 0.74003 0.31605 0.0
O497 O 0.31043 0.60122 0.3158 0.0
O498 O 0.32234 0.60965 0.28582 0.0
C499 C 0.30699 0.57962 0.29981 0.0
O500 O 0.3181 0.74764 0.33187 0.0
O501 O 0.28306 0.7163 0.35897 0.0
C502 C 0.28591 0.73137 0.2958 0.0
C503 C 0.29537 0.75176 0.34674 0.0
C504 C 0.17523 0.21412 0.20058 0.0
C505 C 0.19902 0.20825 0.21661 0.0
H506 H 0.13072 0.17569 0.17585 0.0
C507 C 0.20118 0.15988 0.21883 0.0
H508 H 0.17356 0.25123 0.1984 0.0
C509 C 0.17588 0.11641 0.2061 0.0
C510 C 0.14937 0.12101 0.19063 0.0
H511 H 0.21934 0.15416 0.23098 0.0
H512 H 0.17439 0.07793 0.20887 0.0
C513 C 0.15132 0.17117 0.18756 0.0
C514 C 0.88002 0.07358 0.2179 0.0
C515 C 0.83734 0.01801 0.21626 0.0
H516 H 0.9566 0.13872 0.20725 0.0
C517 C 0.83841 0.98631 0.20137 0.0
H518 H 0.88071 0.09916 0.22923 0.0
C519 C 0.88134 0.00951 0.18852 0.0
C520 C 0.92477 0.06459 0.19053 0.0
H521 H 0.80619 0.94346 0.19968 0.0
H522 H 0.8815 0.98373 0.1774 0.0
C523 C 0.92353 0.09632 0.20532 0.0
C524 C 0.91339 0.81626 0.21579 0.0
C525 C 0.95948 0.81099 0.21943 0.0
H526 H 0.88188 0.86066 0.20161 0.0
C527 C 0.0068 0.8411 0.20859 0.0
H528 H 0.87594 0.79366 0.22371 0.0
C529 C 0.0092 0.87829 0.19545 0.0
C530 C 0.96452 0.88631 0.19286 0.0
H531 H 0.04288 0.83794 0.21084 0.0
H532 H 0.04773 0.90424 0.18838 0.0
C533 C 0.91615 0.85391 0.20284 0.0
C534 C 0.22096 0.22641 0.31604 0.0
C535 C 0.19128 0.24723 0.30731 0.0
H536 H 0.21876 0.16945 0.33559 0.0
C537 C 0.14076 0.23607 0.31493 0.0
H538 H 0.26067 0.23535 0.3109 0.0
C539 C 0.11733 0.19907 0.32948 0.0
C540 C 0.14406 0.17272 0.33644 0.0
H541 H 0.11731 0.25231 0.30876 0.0
H542 H 0.07576 0.1863 0.33374 0.0
C543 C 0.19749 0.18944 0.33044 0.0
C544 C 0.80324 0.92975 0.31271 0.0
C545 C 0.8019 0.9732 0.30383 0.0
H546 H 0.846 0.90759 0.33179 0.0
C547 C 0.83664 0.0277 0.31013 0.0
H548 H 0.77635 0.88719 0.30842 0.0
C549 C 0.87613 0.03908 0.32345 0.0
C550 C 0.88115 0.99623 0.33093 0.0
H551 H 0.83618 0.06214 0.30387 0.0
H552 H 0.90561 0.08187 0.32687 0.0
C553 C 0.84253 0.94123 0.32628 0.0
C554 C 0.9787 0.79456 0.32469 0.0
C555 C 0.01395 0.80596 0.30959 0.0
H556 H 0.96074 0.82785 0.34844 0.0
C557 C 0.0663 0.85415 0.31 0.0
H558 H 0.93871 0.75704 0.32509 0.0
C559 C 0.07917 0.89423 0.32366 0.0
C560 C 0.03993 0.88646 0.33698 0.0
H561 H 0.095 0.86367 0.2988 0.0
H562 H 0.11629 0.9343 0.3222 0.0
C563 C 0.99187 0.83452 0.33838 0.0
C564 C 0.83851 0.80553 0.82612 0.0
C565 C 0.81075 0.80997 0.81094 0.0
H566 H 0.88844 0.8463 0.84962 0.0
C567 C 0.80103 0.85423 0.81051 0.0
H568 H 0.84549 0.77124 0.82713 0.0
C569 C 0.82546 0.89711 0.82349 0.0
C570 C 0.85942 0.89614 0.83724 0.0
H571 H 0.77891 0.85849 0.79921 0.0
H572 H 0.82336 0.93405 0.82144 0.0
C573 C 0.86194 0.84793 0.83932 0.0
C574 C 0.22182 0.04881 0.82677 0.0
C575 C 0.2193 0.01599 0.81169 0.0
H576 H 0.1792 0.05691 0.84984 0.0
C577 C 0.17572 0.96064 0.81078 0.0
H578 H 0.25535 0.09122 0.8281 0.0
C579 C 0.13208 0.94102 0.82324 0.0
C580 C 0.13164 0.97598 0.83705 0.0
H581 H 0.17281 0.93379 0.79953 0.0
H582 H 0.09612 0.90049 0.82092 0.0
C583 C 0.17867 0.02868 0.83949 0.0
C584 C 0.02537 0.20564 0.81422 0.0
C585 C 0.07342 0.23697 0.80381 0.0
H586 H 0.9857 0.14463 0.83513 0.0
C587 C 0.12179 0.23818 0.80926 0.0
H588 H 0.98762 0.20426 0.81064 0.0
C589 C 0.12071 0.20455 0.82338 0.0
C590 C 0.07162 0.16966 0.83268 0.0
H591 H 0.15999 0.2624 0.80185 0.0
H592 H 0.15707 0.20203 0.82588 0.0
C593 C 0.02461 0.17248 0.82857 0.0
C594 C 0.89129 0.80101 0.71176 0.0
C595 C 0.83988 0.7894 0.71869 0.0
H596 H 0.95763 0.85029 0.69329 0.0
C597 C 0.81083 0.8098 0.70932 0.0
H598 H 0.91438 0.78516 0.71845 0.0
C599 C 0.83519 0.8461 0.69478 0.0
C600 C 0.88906 0.86276 0.68926 0.0
H601 H 0.77055 0.8006 0.71392 0.0
H602 H 0.81394 0.86532 0.689 0.0
C603 C 0.91571 0.83746 0.6971 0.0
C604 C 0.19451 0.00775 0.71596 0.0
C605 C 0.23 0.06176 0.72254 0.0
H606 H 0.12519 0.9551 0.69911 0.0
C607 C 0.22831 0.10595 0.71435 0.0
H608 H 0.19503 0.97273 0.72171 0.0
C609 C 0.18873 0.09569 0.70099 0.0
C610 C 0.15012 0.04114 0.69583 0.0
H611 H 0.25563 0.14817 0.7189 0.0
H612 H 0.1854 0.12985 0.6959 0.0
C613 C 0.15477 0.99758 0.70286 0.0
C614 C 0.96621 0.18467 0.71022 0.0
C615 C 0.01982 0.23099 0.71103 0.0
H616 H 0.91373 0.10549 0.69774 0.0
C617 C 0.05555 0.24089 0.69618 0.0
H618 H 0.93701 0.1765 0.72115 0.0
C619 C 0.04117 0.20085 0.68241 0.0
C620 C 0.99159 0.15005 0.68358 0.0
H621 H 0.09653 0.27707 0.69603 0.0
H622 H 0.07242 0.20599 0.67263 0.0
C623 C 0.95214 0.1445 0.69649 0.0
C624 C 0.88429 0.5617 0.53121 0.0
C625 C 0.85733 0.58473 0.5407 0.0
H626 H 0.87892 0.50608 0.51 0.0
C627 C 0.80822 0.57785 0.5333 0.0
H628 H 0.92286 0.56742 0.53619 0.0
C629 C 0.7832 0.54296 0.51812 0.0
C630 C 0.80707 0.51466 0.51009 0.0
H631 H 0.78681 0.5959 0.54006 0.0
H632 H 0.74243 0.53333 0.51408 0.0
C633 C 0.85966 0.52752 0.51594 0.0
C634 C 0.4631 0.26563 0.53571 0.0
C635 C 0.46099 0.30832 0.54536 0.0
H636 H 0.50658 0.24476 0.516 0.0
C637 C 0.49597 0.36317 0.53986 0.0
H638 H 0.43619 0.22274 0.53937 0.0
C639 C 0.53569 0.37546 0.52637 0.0
C640 C 0.54133 0.33328 0.51804 0.0
H641 H 0.4949 0.39704 0.54667 0.0
H642 H 0.56466 0.4185 0.52338 0.0
C643 C 0.50293 0.27803 0.52212 0.0
C644 C 0.73275 0.19925 0.53882 0.0
C645 C 0.68 0.15195 0.54043 0.0
H646 H 0.7819 0.27764 0.52571 0.0
C647 C 0.64125 0.14062 0.5266 0.0
H648 H 0.76367 0.20897 0.54919 0.0
C649 C 0.65268 0.17889 0.51272 0.0
C650 C 0.70247 0.22987 0.51266 0.0
H651 H 0.60058 0.10405 0.52725 0.0
H652 H 0.61967 0.17186 0.50356 0.0
C653 C 0.74374 0.23815 0.5251 0.0
C654 C 0.80383 0.5649 0.64523 0.0
C655 C 0.84969 0.57076 0.63544 0.0
H656 H 0.74302 0.52007 0.66596 0.0
C657 C 0.8753 0.54245 0.64167 0.0
H658 H 0.78355 0.58677 0.641 0.0
C659 C 0.85289 0.50554 0.65618 0.0
C660 C 0.80411 0.49563 0.66481 0.0
H661 H 0.91143 0.54687 0.63483 0.0
H662 H 0.87133 0.4813 0.6597 0.0
C663 C 0.78115 0.52752 0.65979 0.0
C664 C 0.46334 0.25766 0.64642 0.0
C665 C 0.462 0.30075 0.63721 0.0
H666 H 0.50556 0.23602 0.66596 0.0
C667 C 0.49668 0.35536 0.64336 0.0
H668 H 0.43657 0.21494 0.64227 0.0
C669 C 0.53531 0.36706 0.6571 0.0
C670 C 0.54023 0.32455 0.66504 0.0
H671 H 0.49615 0.38952 0.63692 0.0
H672 H 0.56436 0.40997 0.66051 0.0
C673 C 0.50216 0.26949 0.66026 0.0
C674 C 0.65087 0.13227 0.65026 0.0
C675 C 0.68892 0.15208 0.63575 0.0
H676 H 0.62514 0.15187 0.6754 0.0
C677 C 0.73826 0.20291 0.63799 0.0
H678 H 0.61303 0.09263 0.64911 0.0
C679 C 0.74543 0.23672 0.65331 0.0
C680 C 0.70357 0.21981 0.66654 0.0
H681 H 0.76859 0.21895 0.62712 0.0
H682 H 0.78006 0.27879 0.65349 0.0
C683 C 0.65844 0.16562 0.66559 0.0
C684 C 0.47292 0.18567 0.14851 0.0
C685 C 0.47202 0.13529 0.14724 0.0
H686 H 0.50766 0.26412 0.16233 0.0
C687 C 0.49087 0.11866 0.16221 0.0
H688 H 0.45774 0.19924 0.13737 0.0
C689 C 0.51801 0.15529 0.17672 0.0
C690 C 0.52745 0.20927 0.17632 0.0
H691 H 0.48926 0.07936 0.16193 0.0
H692 H 0.53875 0.14427 0.18674 0.0
C693 C 0.50042 0.22246 0.16305 0.0
C694 C 0.85274 0.31653 0.14698 0.0
C695 C 0.89944 0.37016 0.14732 0.0
H696 H 0.77181 0.2631 0.15768 0.0
C697 C 0.90639 0.40527 0.16226 0.0
H698 H 0.84634 0.28804 0.13584 0.0
C699 C 0.86415 0.3901 0.17505 0.0
C700 C 0.81428 0.33986 0.17305 0.0
H701 H 0.94233 0.44641 0.1632 0.0
H702 H 0.86774 0.4207 0.18501 0.0
C703 C 0.81034 0.30163 0.15972 0.0
C704 C 0.66184 0.52921 0.14505 0.0
C705 C 0.71568 0.56445 0.1387 0.0
H706 H 0.60912 0.46078 0.16208 0.0
C707 C 0.7594 0.56346 0.1475 0.0
H708 H 0.6272 0.52918 0.13883 0.0
C709 C 0.74894 0.52474 0.1612 0.0
C710 C 0.69461 0.4861 0.16615 0.0
H711 H 0.80151 0.59062 0.14317 0.0
H712 H 0.78288 0.52194 0.1667 0.0
C713 C 0.65145 0.49029 0.15852 0.0
C714 C 0.57219 0.14211 0.04719 0.0
C715 C 0.52899 0.14636 0.05527 0.0
H716 H 0.63927 0.17599 0.02795 0.0
C717 C 0.51651 0.18479 0.04812 0.0
H718 H 0.58262 0.11253 0.05216 0.0
C719 C 0.54868 0.22047 0.03415 0.0
C720 C 0.59362 0.21825 0.0269 0.0
H721 H 0.4833 0.18892 0.05379 0.0
H722 H 0.53998 0.25165 0.02958 0.0
C723 C 0.60422 0.17778 0.03313 0.0
C724 C 0.87484 0.38614 0.04644 0.0
C725 C 0.89099 0.42506 0.06084 0.0
H726 H 0.82179 0.34857 0.0232 0.0
C727 C 0.86916 0.46013 0.06161 0.0
H728 H 0.89128 0.35889 0.0454 0.0
C729 C 0.82919 0.45378 0.04907 0.0
C730 C 0.81167 0.41361 0.03512 0.0
H731 H 0.8807 0.49052 0.07253 0.0
H732 H 0.81006 0.4785 0.05077 0.0
C733 C 0.83587 0.38087 0.03357 0.0
C734 C 0.70419 0.5414 0.03563 0.0
C735 C 0.67064 0.5465 0.04887 0.0
H736 H 0.71018 0.49067 0.01481 0.0
C737 C 0.61349 0.5091 0.0482 0.0
H738 H 0.74817 0.5702 0.03544 0.0
C739 C 0.59156 0.46352 0.03624 0.0
C740 C 0.62624 0.45457 0.02467 0.0
H741 H 0.5861 0.51239 0.05788 0.0
H742 H 0.54836 0.4323 0.03741 0.0
C743 C 0.68211 0.49615 0.02352 0.0
C744 C 0.53505 0.91423 0.85946 0.0
C745 C 0.5567 0.9018 0.87472 0.0
H746 H 0.48385 0.88218 0.83575 0.0
C747 C 0.55672 0.85183 0.87466 0.0
H748 H 0.53583 0.95305 0.85877 0.0
C749 C 0.52787 0.81166 0.86111 0.0
C750 C 0.4986 0.82102 0.8476 0.0
H751 H 0.57411 0.84143 0.886 0.0
H752 H 0.52177 0.77068 0.8628 0.0
C753 C 0.50649 0.87418 0.84595 0.0
C754 C 0.12141 0.63085 0.8641 0.0
C755 C 0.13035 0.66826 0.8785 0.0
H756 H 0.15741 0.61055 0.84171 0.0
C757 C 0.17858 0.72077 0.87829 0.0
H758 H 0.0843 0.59047 0.86359 0.0
C759 C 0.22011 0.73246 0.86547 0.0
C760 C 0.21376 0.69212 0.85261 0.0
H761 H 0.18655 0.75094 0.88901 0.0
H762 H 0.25955 0.7703 0.86704 0.0
C763 C 0.1628 0.64277 0.85126 0.0
C764 C 0.26209 0.47049 0.8799 0.0
C765 C 0.30521 0.46769 0.88839 0.0
H766 H 0.23995 0.51192 0.86022 0.0
C767 C 0.35846 0.49861 0.88101 0.0
H768 H 0.22038 0.44657 0.88502 0.0
C769 C 0.36932 0.53543 0.86677 0.0
C770 C 0.32721 0.54184 0.85942 0.0
H771 H 0.39257 0.49696 0.88693 0.0
H772 H 0.41156 0.562 0.86241 0.0
C773 C 0.273 0.50717 0.86546 0.0
C774 C 0.46169 0.91498 0.97078 0.0
C775 C 0.51368 0.92201 0.96678 0.0
H776 H 0.38685 0.86983 0.9861 0.0
C777 C 0.53499 0.89857 0.97863 0.0
H778 H 0.44414 0.93299 0.96213 0.0
C779 C 0.5027 0.86419 0.99291 0.0
C780 C 0.44826 0.8518 0.99539 0.0
H781 H 0.57527 0.904 0.97621 0.0
H782 H 0.51795 0.84199 1.00052 0.0
C783 C 0.42914 0.87981 0.98483 0.0
C784 C 0.14902 0.66247 0.98006 0.0
C785 C 0.12235 0.61669 0.96809 0.0
H786 H 0.20858 0.70187 1.00152 0.0
C787 C 0.12872 0.57087 0.97097 0.0
H788 H 0.14431 0.69802 0.97843 0.0
C789 C 0.16531 0.57314 0.98416 0.0
C790 C 0.19528 0.62063 0.99508 0.0
H791 H 0.10841 0.53458 0.96217 0.0
H792 H 0.17361 0.53963 0.98479 0.0
C793 C 0.18484 0.66416 0.99357 0.0
C794 C 0.40883 0.52604 0.97899 0.0
C795 C 0.35267 0.48495 0.97947 0.0
H796 H 0.47123 0.6054 0.98905 0.0
C797 C 0.32054 0.48506 0.99424 0.0
H798 H 0.43524 0.52662 0.96807 0.0
C799 C 0.34216 0.52927 1.00677 0.0
C800 C 0.39558 0.57484 1.00435 0.0
H801 H 0.27756 0.45321 0.99532 0.0
H802 H 0.31444 0.53135 0.01664 0.0
C803 C 0.43003 0.57074 0.99129 0.0
C804 C 0.13923 0.51426 0.48027 0.0
C805 C 0.14042 0.46493 0.48014 0.0
H806 H 0.17209 0.59471 0.4925 0.0
C807 C 0.16116 0.45221 0.49557 0.0
H808 H 0.12272 0.52486 0.46872 0.0
C809 C 0.18787 0.49161 0.50942 0.0
C810 C 0.19507 0.54452 0.50788 0.0
H811 H 0.16129 0.41382 0.49613 0.0
H812 H 0.21 0.48357 0.51981 0.0
C813 C 0.16647 0.5539 0.49412 0.0
C814 C 0.51653 0.65024 0.4791 0.0
C815 C 0.56403 0.70328 0.47959 0.0
H816 H 0.43556 0.59771 0.48998 0.0
C817 C 0.57218 0.73792 0.49478 0.0
H818 H 0.50918 0.62222 0.46772 0.0
C819 C 0.53057 0.72299 0.5078 0.0
C820 C 0.47998 0.67347 0.50578 0.0
H821 H 0.60877 0.77859 0.49581 0.0
H822 H 0.53527 0.75338 0.51803 0.0
C823 C 0.47466 0.63559 0.49207 0.0
C824 C 0.43137 0.89872 0.48153 0.0
C825 C 0.38777 0.90291 0.4741 0.0
H826 H 0.45456 0.85468 0.49974 0.0
C827 C 0.3355 0.87263 0.48223 0.0
H828 H 0.47239 0.92205 0.4758 0.0
C829 C 0.3257 0.83477 0.49601 0.0
C830 C 0.36791 0.82655 0.5021 0.0
H831 H 0.30113 0.87545 0.47719 0.0
H832 H 0.28391 0.80851 0.50084 0.0
C833 C 0.4215 0.86085 0.49547 0.0
C834 C 0.23696 0.46403 0.3809 0.0
C835 C 0.18731 0.45949 0.38694 0.0
H836 H 0.30819 0.5069 0.36375 0.0
C837 C 0.16585 0.4864 0.37686 0.0
H838 H 0.25458 0.44328 0.38806 0.0
C839 C 0.19604 0.52133 0.36235 0.0
C840 C 0.24847 0.53053 0.35775 0.0
H841 H 0.12739 0.4832 0.38084 0.0
H842 H 0.18123 0.54607 0.35616 0.0
C843 C 0.2673 0.49945 0.36659 0.0
C844 C 0.53907 0.71037 0.37797 0.0
C845 C 0.56807 0.7576 0.38922 0.0
H846 H 0.47976 0.67103 0.35635 0.0
C847 C 0.56532 0.80496 0.38501 0.0
H848 H 0.54065 0.67343 0.38061 0.0
C849 C 0.53096 0.80362 0.37112 0.0
C850 C 0.49924 0.75541 0.36071 0.0
H851 H 0.58735 0.84253 0.39314 0.0
H852 H 0.52604 0.83905 0.36941 0.0
C853 C 0.50518 0.70942 0.36378 0.0
C854 C 0.28967 0.84841 0.38013 0.0
C855 C 0.34624 0.88774 0.38171 0.0
H856 H 0.22784 0.77457 0.36671 0.0
C857 C 0.38175 0.88989 0.36773 0.0
H858 H 0.26068 0.84619 0.39035 0.0
C859 C 0.36217 0.84979 0.3537 0.0
C860 C 0.307 0.80622 0.35361 0.0
H861 H 0.4253 0.92033 0.36824 0.0
H862 H 0.3917 0.84909 0.34433 0.0
C863 C 0.27036 0.80797 0.36629 0.0
C864 C 0.25251 0.10568 0.10294 0.0
C865 C 0.27174 0.07547 0.11217 0.0
H866 H 0.18926 0.12589 0.10103 0.0
C867 C 0.24555 0.04862 0.12852 0.0
H868 H 0.27207 0.12715 0.09041 0.0
C869 C 0.19919 0.04952 0.13497 0.0
C870 C 0.17763 0.0763 0.12495 0.0
H871 H 0.26001 0.02567 0.13609 0.0
H872 H 0.17793 0.02592 0.147 0.0
C873 C 0.20549 0.10546 0.10913 0.0
C874 C 0.9366 0.18412 0.10133 0.0
C875 C 0.96691 0.23411 0.11108 0.0
H876 H 0.91452 0.0992 0.09877 0.0
C877 C 0.99278 0.23432 0.12751 0.0
H878 H 0.91585 0.1825 0.08873 0.0
C879 C 0.99047 0.1861 0.13361 0.0
C880 C 0.96329 0.13707 0.12317 0.0
H881 H 0.01579 0.27208 0.13549 0.0
H882 H 0.01301 0.1882 0.14582 0.0
C883 C 0.93543 0.13633 0.10718 0.0
C884 C 0.7969 0.79314 0.13268 0.0
C885 C 0.79883 0.76391 0.11717 0.0
H886 H 0.84248 0.86316 0.15069 0.0
C887 C 0.85037 0.77743 0.10999 0.0
H888 H 0.75779 0.78317 0.13867 0.0
C889 C 0.89848 0.82242 0.117 0.0
C890 C 0.89629 0.85474 0.13142 0.0
H891 H 0.8535 0.75526 0.09825 0.0
H892 H 0.93714 0.83468 0.11016 0.0
C893 C 0.8454 0.83825 0.1398 0.0
C894 C 0.04229 0.24439 0.39101 0.0
C895 C 0.0677 0.26918 0.40774 0.0
H896 H 0.02338 0.17901 0.37167 0.0
C897 C 0.1022 0.2536 0.41608 0.0
H898 H 0.01632 0.25646 0.38414 0.0
C899 C 0.10654 0.20999 0.40892 0.0
C900 C 0.0768 0.18152 0.39324 0.0
H901 H 0.12324 0.27271 0.4288 0.0
H902 H 0.12957 0.1956 0.41648 0.0
C903 C 0.04712 0.20085 0.38371 0.0
C904 C 0.78264 0.81469 0.38876 0.0
C905 C 0.7584 0.8198 0.40498 0.0
H906 H 0.84899 0.856 0.36958 0.0
C907 C 0.77529 0.87269 0.41206 0.0
H908 H 0.76961 0.77437 0.38282 0.0
C909 C 0.81981 0.91912 0.40434 0.0
C910 C 0.8482 0.9134 0.38944 0.0
H911 H 0.75656 0.87805 0.4243 0.0
H912 H 0.8353 0.9589 0.41109 0.0
C913 C 0.82735 0.86143 0.38097 0.0
C914 C 0.15828 0.92405 0.41807 0.0
C915 C 0.20944 0.95522 0.40942 0.0
H916 H 0.07388 0.90203 0.41865 0.0
C917 C 0.21246 0.98023 0.39257 0.0
H918 H 0.15465 0.90361 0.43092 0.0
C919 C 0.16587 0.97801 0.38527 0.0
C920 C 0.11604 0.95163 0.39494 0.0
H921 H 0.2513 0.00352 0.38541 0.0
H922 H 0.17011 0.00106 0.37299 0.0
C923 C 0.11199 0.92263 0.41096 0.0
C924 C 0.77659 0.93129 0.91817 0.0
C925 C 0.75784 0.96022 0.90794 0.0
H926 H 0.83915 0.91059 0.92129 0.0
C927 C 0.78294 0.98252 0.89098 0.0
H928 H 0.75773 0.91316 0.93117 0.0
C929 C 0.82852 0.97949 0.88502 0.0
C930 C 0.85039 0.95511 0.89611 0.0
H931 H 0.76869 0.00423 0.88263 0.0
H932 H 0.84938 0.00041 0.87255 0.0
C933 C 0.8228 0.92928 0.9124 0.0
C934 C 0.04848 0.81608 0.89382 0.0
C935 C 0.07369 0.81719 0.91052 0.0
H936 H 0.02835 0.86099 0.87497 0.0
C937 C 0.10498 0.86796 0.91975 0.0
H938 H 0.02482 0.77767 0.88623 0.0
C939 C 0.10675 0.91551 0.91332 0.0
C940 C 0.07844 0.91357 0.89729 0.0
H941 H 0.1253 0.87027 0.93253 0.0
H942 H 0.12744 0.9531 0.92151 0.0
C943 C 0.05133 0.86398 0.88717 0.0
C944 C 0.22362 0.2475 0.89342 0.0
C945 C 0.2216 0.27323 0.90983 0.0
H946 H 0.17826 0.1816 0.87399 0.0
C947 C 0.17003 0.25837 0.91732 0.0
H948 H 0.26275 0.25874 0.88716 0.0
C949 C 0.12194 0.21493 0.90967 0.0
C950 C 0.12427 0.18569 0.89429 0.0
H951 H 0.16689 0.278 0.92975 0.0
H952 H 0.08325 0.20106 0.91672 0.0
C953 C 0.17519 0.20413 0.88565 0.0
C954 C 0.02147 0.79623 0.62958 0.0
C955 C 0.97892 0.76518 0.61703 0.0
H956 H 0.06056 0.86893 0.64677 0.0
C957 C 0.93696 0.7775 0.61497 0.0
H958 H 0.05421 0.78751 0.63147 0.0
C959 C 0.93973 0.82261 0.62411 0.0
C960 C 0.98468 0.85651 0.63534 0.0
H961 H 0.90333 0.75423 0.60554 0.0
H962 H 0.90929 0.83388 0.6211 0.0
C963 C 0.02467 0.84216 0.63854 0.0
C964 C 0.23946 0.24397 0.63325 0.0
C965 C 0.26952 0.23425 0.61982 0.0
H966 H 0.16926 0.20699 0.65121 0.0
C967 C 0.25903 0.18015 0.61719 0.0
H968 H 0.24697 0.28533 0.63567 0.0
C969 C 0.21635 0.1361 0.62653 0.0
C970 C 0.18263 0.14495 0.63849 0.0
H971 H 0.28164 0.17106 0.60714 0.0
H972 H 0.20611 0.09438 0.62295 0.0
C973 C 0.19582 0.19939 0.64243 0.0
C974 C 0.80734 0.03422 0.62702 0.0
C975 C 0.81429 0.05977 0.60995 0.0
H976 H 0.84427 0.01002 0.64782 0.0
C977 C 0.86608 0.08469 0.60147 0.0
H978 H 0.76798 0.01525 0.63397 0.0
C979 C 0.90909 0.08147 0.6093 0.0
C980 C 0.90177 0.05432 0.62599 0.0
H981 H 0.87294 0.10505 0.58841 0.0
H982 H 0.94779 0.0987 0.60198 0.0
C983 C 0.85104 0.03192 0.63508 0.0
C984 C 0.91413 0.41262 0.44014 0.0
C985 C 0.92881 0.37519 0.44646 0.0
H986 H 0.85552 0.43865 0.44069 0.0
C987 C 0.89484 0.33563 0.45954 0.0
H988 H 0.93954 0.44394 0.43028 0.0
C989 C 0.84615 0.3326 0.46568 0.0
C990 C 0.83064 0.36889 0.45874 0.0
H991 H 0.90538 0.30644 0.4648 0.0
H992 H 0.81992 0.30087 0.47531 0.0
C993 C 0.86582 0.40951 0.44619 0.0
C994 C 0.69378 0.58561 0.45816 0.0
C995 C 0.65343 0.57783 0.44524 0.0
H996 H 0.73032 0.5481 0.47373 0.0
C997 C 0.61691 0.52424 0.43878 0.0
H998 H 0.7224 0.6265 0.46352 0.0
C999 C 0.62153 0.47975 0.44461 0.0
C1000 C 0.66272 0.48742 0.45712 0.0
H1001 H 0.58518 0.51666 0.42898 0.0
H1002 H 0.59292 0.43911 0.43904 0.0
C1003 C 0.69827 0.54078 0.4641 0.0
C1004 C 0.5037 0.11129 0.44801 0.0
C1005 C 0.45047 0.10099 0.45122 0.0
H1006 H 0.58965 0.16686 0.45131 0.0
C1007 C 0.44331 0.13816 0.46235 0.0
H1008 H 0.51056 0.08297 0.43984 0.0
C1009 C 0.48923 0.18719 0.46893 0.0
C1010 C 0.54253 0.19904 0.4645 0.0
H1011 H 0.40246 0.13077 0.46518 0.0
H1012 H 0.48309 0.21705 0.47645 0.0
C1013 C 0.54905 0.15939 0.45468 0.0
C1014 C 0.69703 0.57357 0.72482 0.0
C1015 C 0.72487 0.59908 0.74123 0.0
H1016 H 0.67657 0.50853 0.70505 0.0
C1017 C 0.76114 0.58416 0.74853 0.0
H1018 H 0.66943 0.58484 0.7187 0.0
C1019 C 0.76568 0.54128 0.74061 0.0
C1020 C 0.73441 0.5126 0.72513 0.0
H1021 H 0.78394 0.60357 0.76096 0.0
H1022 H 0.79057 0.52771 0.74742 0.0
C1023 C 0.70192 0.53068 0.71678 0.0
C1024 C 0.44442 0.19014 0.74773 0.0
C1025 C 0.42791 0.13713 0.74081 0.0
H1026 H 0.50255 0.27691 0.7462 0.0
C1027 C 0.45263 0.13239 0.7246 0.0
H1028 H 0.42569 0.19542 0.75998 0.0
C1029 C 0.49629 0.1796 0.71644 0.0
C1030 C 0.51586 0.23207 0.72442 0.0
H1031 H 0.44025 0.09209 0.71878 0.0
H1032 H 0.51776 0.1745 0.70493 0.0
C1033 C 0.48792 0.23699 0.73966 0.0
C1034 C 0.88908 0.32211 0.72585 0.0
C1035 C 0.8842 0.29388 0.74222 0.0
H1036 H 0.84882 0.34576 0.70622 0.0
C1037 C 0.83184 0.26117 0.74995 0.0
H1038 H 0.92881 0.34694 0.71936 0.0
C1039 C 0.78621 0.26049 0.74237 0.0
C1040 C 0.79171 0.29158 0.7267 0.0
H1041 H 0.82658 0.23845 0.76239 0.0
H1042 H 0.74704 0.2382 0.74941 0.0
C1043 C 0.84315 0.32063 0.71807 0.0
C1044 C 0.44652 0.28108 0.25265 0.0
C1045 C 0.42495 0.30754 0.24242 0.0
H1046 H 0.51132 0.26359 0.25551 0.0
C1047 C 0.44954 0.33109 0.22552 0.0
H1048 H 0.42836 0.26217 0.26564 0.0
C1049 C 0.49642 0.33042 0.21944 0.0
C1050 C 0.51986 0.30712 0.23035 0.0
H1051 H 0.43342 0.35122 0.21724 0.0
H1052 H 0.51635 0.35129 0.20686 0.0
C1053 C 0.49375 0.28143 0.24678 0.0
C1054 C 0.70474 0.14007 0.22459 0.0
C1055 C 0.73197 0.14198 0.2409 0.0
H1056 H 0.68071 0.1838 0.2065 0.0
C1057 C 0.76103 0.19245 0.2505 0.0
H1058 H 0.68247 0.10189 0.21678 0.0
C1059 C 0.75981 0.23887 0.24467 0.0
C1060 C 0.73049 0.23638 0.22889 0.0
H1061 H 0.78279 0.19556 0.26302 0.0
H1062 H 0.77993 0.27626 0.25298 0.0
C1063 C 0.7044 0.18709 0.21854 0.0
C1064 C 0.84836 0.59848 0.24315 0.0
C1065 C 0.89983 0.61249 0.23574 0.0
H1066 H 0.76193 0.54025 0.2436 0.0
C1067 C 0.9017 0.58268 0.22041 0.0
H1068 H 0.84516 0.62092 0.25478 0.0
C1069 C 0.85319 0.53647 0.21376 0.0
C1070 C 0.80258 0.51991 0.22239 0.0
H1071 H 0.94075 0.59288 0.2143 0.0
H1072 H 0.85594 0.511 0.20304 0.0
C1073 C 0.80038 0.55268 0.23658 0.0
C1074 C 0.67561 0.12877 0.96178 0.0
C1075 C 0.65363 0.10742 0.94434 0.0
H1076 H 0.69192 0.19105 0.98226 0.0
C1077 C 0.62586 0.12919 0.93499 0.0
H1078 H 0.69655 0.11219 0.96939 0.0
C1079 C 0.62293 0.17344 0.94233 0.0
C1080 C 0.64728 0.19683 0.95927 0.0
H1081 H 0.60785 0.11332 0.92163 0.0
H1082 H 0.6036 0.19103 0.93433 0.0
C1083 C 0.6722 0.17316 0.96926 0.0
C1084 C 0.92385 0.51753 0.94829 0.0
C1085 C 0.93675 0.57113 0.95339 0.0
H1086 H 0.8696 0.43071 0.95168 0.0
C1087 C 0.9094 0.57775 0.96851 0.0
H1088 H 0.94442 0.51071 0.9369 0.0
C1089 C 0.86612 0.53122 0.97712 0.0
C1090 C 0.8504 0.47773 0.97082 0.0
H1091 H 0.91892 0.61864 0.97289 0.0
H1092 H 0.84176 0.53712 0.98741 0.0
C1093 C 0.88157 0.47149 0.95701 0.0
C1094 C 0.52265 0.42969 0.94453 0.0
C1095 C 0.47022 0.39201 0.9514 0.0
H1096 H 0.60884 0.45925 0.94541 0.0
C1097 C 0.46597 0.3597 0.9666 0.0
H1098 H 0.52759 0.4559 0.93307 0.0
C1099 C 0.51308 0.36258 0.97399 0.0
C1100 C 0.56494 0.39752 0.96617 0.0
H1101 H 0.42615 0.33093 0.9724 0.0
H1102 H 0.50846 0.3347 0.98486 0.0
C1103 C 0.56935 0.43223 0.95178 0.0
C1104 C 0.57758 0.74958 0.77141 0.0
C1105 C 0.59809 0.7211 0.78102 0.0
H1106 H 0.51411 0.76929 0.76947 0.0
C1107 C 0.57369 0.69653 0.79783 0.0
H1108 H 0.59581 0.7694 0.75853 0.0
C1109 C 0.52775 0.69801 0.80439 0.0
C1110 C 0.50514 0.72321 0.79405 0.0
H1111 H 0.58922 0.675 0.80566 0.0
H1112 H 0.5077 0.67617 0.81682 0.0
C1113 C 0.53122 0.75008 0.77776 0.0
C1114 C 0.33071 0.89073 0.79813 0.0
C1115 C 0.30272 0.88838 0.78197 0.0
H1116 H 0.35173 0.84612 0.81686 0.0
C1117 C 0.26859 0.8368 0.77353 0.0
H1118 H 0.35662 0.92983 0.80511 0.0
C1119 C 0.26572 0.78924 0.78028 0.0
C1120 C 0.29605 0.79201 0.79581 0.0
H1121 H 0.24595 0.83348 0.76121 0.0
H1122 H 0.24206 0.75065 0.77276 0.0
C1123 C 0.32707 0.84276 0.80509 0.0
C1124 C 0.12524 0.45033 0.80138 0.0
C1125 C 0.12902 0.42196 0.78596 0.0
H1126 H 0.16931 0.51916 0.81993 0.0
C1127 C 0.18121 0.43409 0.77987 0.0
H1128 H 0.0855 0.44131 0.8065 0.0
C1129 C 0.2286 0.47716 0.78782 0.0
C1130 C 0.2249 0.50929 0.80193 0.0
H1131 H 0.18574 0.41254 0.76824 0.0
H1132 H 0.26811 0.48882 0.78174 0.0
C1133 C 0.1731 0.49401 0.80932 0.0
C1134 C 0.43229 0.9378 0.07707 0.0
C1135 C 0.39433 0.95161 0.07052 0.0
H1136 H 0.46181 0.88154 0.07562 0.0
C1137 C 0.36355 0.9243 0.05476 0.0
H1138 H 0.45733 0.95844 0.08899 0.0
C1139 C 0.3669 0.88026 0.04686 0.0
C1140 C 0.40116 0.86338 0.05465 0.0
H1141 H 0.33444 0.93451 0.04926 0.0
H1142 H 0.33896 0.85622 0.03588 0.0
C1143 C 0.43568 0.89428 0.06922 0.0
C1144 C 0.11005 0.5389 0.08006 0.0
C1145 C 0.093 0.48641 0.07252 0.0
H1146 H 0.16876 0.62559 0.07941 0.0
C1147 C 0.11765 0.4829 0.05612 0.0
H1148 H 0.09143 0.54335 0.09248 0.0
C1149 C 0.16189 0.53069 0.04841 0.0
C1150 C 0.18193 0.58247 0.05702 0.0
H1151 H 0.1049 0.44303 0.04985 0.0
H1152 H 0.18337 0.52646 0.03673 0.0
C1153 C 0.1539 0.58626 0.07241 0.0
C1154 C 0.55412 0.6698 0.05986 0.0
C1155 C 0.55078 0.64444 0.07672 0.0
H1156 H 0.5126 0.69229 0.04031 0.0
C1157 C 0.50001 0.61693 0.08585 0.0
H1158 H 0.59255 0.69063 0.05236 0.0
C1159 C 0.45464 0.61809 0.07899 0.0
C1160 C 0.45858 0.64567 0.06263 0.0
H1161 H 0.49589 0.59655 0.09874 0.0
H1162 H 0.41696 0.59944 0.08693 0.0
C1163 C 0.5082 0.66997 0.05278 0.0
C1164 C 0.11359 0.6683 0.55467 0.0
C1165 C 0.08265 0.63816 0.56996 0.0
H1166 H 0.18663 0.69467 0.53842 0.0
C1167 C 0.10045 0.60753 0.57979 0.0
H1168 H 0.10087 0.69214 0.54677 0.0
C1169 C 0.1497 0.60982 0.57523 0.0
C1170 C 0.18161 0.64133 0.56036 0.0
H1171 H 0.07774 0.5839 0.59164 0.0
H1172 H 0.1639 0.58839 0.58375 0.0
C1173 C 0.16231 0.66928 0.54977 0.0
C1174 C 0.3632 0.46641 0.5571 0.0
C1175 C 0.39324 0.46891 0.57276 0.0
H1176 H 0.33675 0.5097 0.53972 0.0
C1177 C 0.42411 0.51993 0.58195 0.0
H1178 H 0.33924 0.42779 0.54964 0.0
C1179 C 0.42205 0.56629 0.57642 0.0
C1180 C 0.39043 0.56337 0.56123 0.0
H1181 H 0.44775 0.52344 0.59402 0.0
H1182 H 0.44361 0.60408 0.58449 0.0
C1183 C 0.36229 0.51342 0.55127 0.0
C1184 C 0.57098 0.91321 0.55329 0.0
C1185 C 0.57214 0.94529 0.56843 0.0
H1186 H 0.52194 0.83982 0.53693 0.0
C1187 C 0.52234 0.93075 0.57734 0.0
H1188 H 0.60857 0.92355 0.54607 0.0
C1189 C 0.47342 0.88316 0.57223 0.0
C1190 C 0.4726 0.84947 0.55778 0.0
H1191 H 0.52145 0.95462 0.58896 0.0
H1192 H 0.43655 0.87116 0.58018 0.0
C1193 C 0.52137 0.86578 0.54791 0.0
C1194 C 0.33096 0.46085 0.29741 0.0
C1195 C 0.30208 0.43438 0.28125 0.0
H1196 H 0.35291 0.52719 0.31678 0.0
C1197 C 0.26555 0.44914 0.27403 0.0
H1198 H 0.35877 0.44976 0.30347 0.0
C1199 C 0.26177 0.49271 0.28176 0.0
C1200 C 0.29394 0.5222 0.297 0.0
H1201 H 0.242 0.42905 0.26179 0.0
H1202 H 0.23683 0.50622 0.27496 0.0
C1203 C 0.32674 0.50436 0.30528 0.0
C1204 C 0.58261 0.89844 0.29689 0.0
C1205 C 0.60785 0.89336 0.28086 0.0
H1206 H 0.51663 0.85712 0.31633 0.0
C1207 C 0.59088 0.84013 0.27403 0.0
H1208 H 0.59528 0.93886 0.30267 0.0
C1209 C 0.54652 0.79355 0.28199 0.0
C1210 C 0.51829 0.79889 0.29708 0.0
H1211 H 0.60989 0.83455 0.2619 0.0
H1212 H 0.53151 0.75355 0.27546 0.0
C1213 C 0.53829 0.85155 0.30498 0.0
C1214 C 0.20082 0.77253 0.268 0.0
C1215 C 0.14926 0.74236 0.27652 0.0
H1216 H 0.28514 0.79346 0.26774 0.0
C1217 C 0.14578 0.71642 0.29329 0.0
H1218 H 0.20509 0.79337 0.2552 0.0
C1219 C 0.19213 0.71802 0.30083 0.0
C1220 C 0.24273 0.74471 0.29157 0.0
H1221 H 0.10677 0.69354 0.30038 0.0
H1222 H 0.18735 0.6949 0.31314 0.0
C1223 C 0.24681 0.7731 0.27532 0.0
loop_
_geom_bond_atom_site_label_1
_geom_bond_atom_site_label_2
_geom_bond_distance
_geom_bond_site_symmetry_2
_ccdc_geom_bond_type
Co0 O1 2.216 . S
Co0 O2 2.091 . S
Co0 O4 2.004 . S
Co0 O10 2.021 . S
Co0 O12 2.137 1_545 S
Co0 O13 2.244 1_545 S
O1 Co0 2.216 . S
O1 C8 1.247 . S
O2 Co0 2.091 . S
O2 C8 1.261 . S
C3 O12 1.247 . S
C3 O13 1.272 . S
O4 Co0 2.004 . S
O4 C9 1.259 . S
Co5 O6 2.061 . S
Co5 O11 2.052 . S
Co5 O13 2.135 . S
O6 Co5 2.061 . S
O6 C9 1.235 1_565 S
C7 O10 1.238 . S
C7 O11 1.241 1_545 S
C8 O1 1.247 . S
C8 O2 1.261 . S
C9 O4 1.259 . S
C9 O6 1.235 1_545 S
O10 Co0 2.021 . S
O10 C7 1.238 . S
O11 Co5 2.052 . S
O11 C7 1.241 1_565 S
O12 Co0 2.137 1_565 S
O12 C3 1.247 . S
O13 Co0 2.244 1_565 S
O13 C3 1.272 . S
O13 Co5 2.135 . S
Co14 O15 2.216 . S
Co14 O16 2.091 . S
Co14 O18 2.004 . S
Co14 O24 2.021 . S
Co14 O26 2.137 1_455 S
Co14 O27 2.244 1_455 S
O15 Co14 2.216 . S
O15 C22 1.247 . S
O16 Co14 2.091 . S
O16 C22 1.261 . S
C17 O26 1.247 . S
C17 O27 1.272 . S
O18 Co14 2.004 . S
O18 C23 1.259 . S
Co19 O20 2.061 . S
Co19 O25 2.052 . S
Co19 O27 2.135 . S
O20 Co19 2.061 . S
O20 C23 1.235 1_655 S
C21 O24 1.238 1_655 S
C21 O25 1.241 . S
C22 O15 1.247 . S
C22 O16 1.261 . S
C23 O18 1.259 . S
C23 O20 1.235 1_455 S
O24 Co14 2.021 . S
O24 C21 1.238 1_455 S
O25 Co19 2.052 . S
O25 C21 1.241 . S
O26 Co14 2.137 1_655 S
O26 C17 1.247 . S
O27 Co14 2.244 1_655 S
O27 C17 1.272 . S
O27 Co19 2.135 . S
Co28 O29 2.216 . S
Co28 O30 2.091 . S
Co28 O32 2.004 . S
Co28 O38 2.021 . S
Co28 O40 2.137 . S
Co28 O41 2.244 . S
O29 Co28 2.216 . S
O29 C36 1.247 . S
O30 Co28 2.091 . S
O30 C36 1.261 . S
C31 O40 1.247 . S
C31 O41 1.272 . S
O32 Co28 2.004 . S
O32 C37 1.259 . S
Co33 O34 2.061 . S
Co33 O39 2.052 . S
Co33 O41 2.135 . S
O34 Co33 2.061 . S
O34 C37 1.235 . S
C35 O38 1.238 . S
C35 O39 1.241 . S
C36 O29 1.247 . S
C36 O30 1.261 . S
C37 O32 1.259 . S
C37 O34 1.235 . S
O38 Co28 2.021 . S
O38 C35 1.238 . S
O39 Co33 2.052 . S
O39 C35 1.241 . S
O40 Co28 2.137 . S
O40 C31 1.247 . S
O41 Co28 2.244 . S
O41 C31 1.272 . S
O41 Co33 2.135 . S
Co42 O43 2.216 1_545 S
Co42 O44 2.091 1_545 S
Co42 O46 2.004 1_545 S
Co42 O52 2.021 . S
Co42 O54 2.137 . S
Co42 O55 2.244 . S
O43 Co42 2.216 1_565 S
O43 C50 1.247 . S
O44 Co42 2.091 1_565 S
O44 C50 1.261 . S
C45 O54 1.247 . S
C45 O55 1.272 . S
O46 Co42 2.004 1_565 S
O46 C51 1.259 1_565 S
Co47 O48 2.061 . S
Co47 O53 2.052 . S
Co47 O55 2.135 . S
O48 Co47 2.061 . S
O48 C51 1.235 . S
C49 O52 1.238 . S
C49 O53 1.241 . S
C50 O43 1.247 . S
C50 O44 1.261 . S
C51 O46 1.259 1_545 S
C51 O48 1.235 . S
O52 Co42 2.021 . S
O52 C49 1.238 . S
O53 Co47 2.052 . S
O53 C49 1.241 . S
O54 Co42 2.137 . S
O54 C45 1.247 . S
O55 Co42 2.244 . S
O55 C45 1.272 . S
O55 Co47 2.135 . S
Co56 O57 2.216 1_455 S
Co56 O58 2.091 1_455 S
Co56 O60 2.004 1_455 S
Co56 O66 2.021 1_455 S
Co56 O68 2.137 . S
Co56 O69 2.244 . S
O57 Co56 2.216 1_655 S
O57 C64 1.247 . S
O58 Co56 2.091 1_655 S
O58 C64 1.261 . S
C59 O68 1.247 . S
C59 O69 1.272 . S
O60 Co56 2.004 1_655 S
O60 C65 1.259 1_655 S
Co61 O62 2.061 . S
Co61 O67 2.052 . S
Co61 O69 2.135 . S
O62 Co61 2.061 . S
O62 C65 1.235 . S
C63 O66 1.238 1_455 S
C63 O67 1.241 . S
C64 O57 1.247 . S
C64 O58 1.261 . S
C65 O60 1.259 1_455 S
C65 O62 1.235 . S
O66 Co56 2.021 1_655 S
O66 C63 1.238 1_655 S
O67 Co61 2.052 . S
O67 C63 1.241 . S
O68 Co56 2.137 . S
O68 C59 1.247 . S
O69 Co56 2.244 . S
O69 C59 1.272 . S
O69 Co61 2.135 . S
Co70 O71 2.216 . S
Co70 O72 2.091 . S
Co70 O74 2.004 . S
Co70 O80 2.021 . S
Co70 O82 2.137 . S
Co70 O83 2.244 . S
O71 Co70 2.216 . S
O71 C78 1.247 . S
O72 Co70 2.091 . S
O72 C78 1.261 . S
C73 O82 1.247 . S
C73 O83 1.272 . S
O74 Co70 2.004 . S
O74 C79 1.259 . S
Co75 O76 2.061 . S
Co75 O81 2.052 . S
Co75 O83 2.135 . S
O76 Co75 2.061 . S
O76 C79 1.235 . S
C77 O80 1.238 . S
C77 O81 1.241 . S
C78 O71 1.247 . S
C78 O72 1.261 . S
C79 O74 1.259 . S
C79 O76 1.235 . S
O80 Co70 2.021 . S
O80 C77 1.238 . S
O81 Co75 2.052 . S
O81 C77 1.241 . S
O82 Co70 2.137 . S
O82 C73 1.247 . S
O83 Co70 2.244 . S
O83 C73 1.272 . S
O83 Co75 2.135 . S
Co84 O85 2.216 . S
Co84 O86 2.091 . S
Co84 O88 2.004 . S
Co84 O94 2.021 . S
Co84 O96 2.137 . S
Co84 O97 2.244 . S
O85 Co84 2.216 . S
O85 C92 1.247 . S
O86 Co84 2.091 . S
O86 C92 1.261 . S
C87 O96 1.247 . S
C87 O97 1.272 . S
O88 Co84 2.004 . S
O88 C93 1.259 . S
Co89 O90 2.061 . S
Co89 O95 2.052 . S
Co89 O97 2.135 . S
O90 Co89 2.061 . S
O90 C93 1.235 . S
C91 O94 1.238 . S
C91 O95 1.241 . S
C92 O85 1.247 . S
C92 O86 1.261 . S
C93 O88 1.259 . S
C93 O90 1.235 . S
O94 Co84 2.021 . S
O94 C91 1.238 . S
O95 Co89 2.052 . S
O95 C91 1.241 . S
O96 Co84 2.137 . S
O96 C87 1.247 . S
O97 Co84 2.244 . S
O97 C87 1.272 . S
O97 Co89 2.135 . S
Co98 O99 2.216 . S
Co98 O100 2.091 . S
Co98 O102 2.004 . S
Co98 O108 2.021 . S
Co98 O110 2.137 1_545 S
Co98 O111 2.244 . S
O99 Co98 2.216 . S
O99 C106 1.247 . S
O100 Co98 2.091 . S
O100 C106 1.261 . S
C101 O110 1.247 . S
C101 O111 1.272 1_565 S
O102 Co98 2.004 . S
O102 C107 1.259 . S
Co103 O104 2.061 . S
Co103 O109 2.052 . S
Co103 O111 2.135 . S
O104 Co103 2.061 . S
O104 C107 1.235 . S
C105 O108 1.238 . S
C105 O109 1.241 . S
C106 O99 1.247 . S
C106 O100 1.261 . S
C107 O102 1.259 . S
C107 O104 1.235 . S
O108 Co98 2.021 . S
O108 C105 1.238 . S
O109 Co103 2.052 . S
O109 C105 1.241 . S
O110 Co98 2.137 1_565 S
O110 C101 1.247 . S
O111 Co98 2.244 . S
O111 C101 1.272 1_545 S
O111 Co103 2.135 . S
Co112 O113 2.216 1_655 S
Co112 O114 2.091 1_655 S
Co112 O116 2.004 . S
Co112 O122 2.021 . S
Co112 O124 2.137 1_655 S
Co112 O125 2.244 . S
O113 Co112 2.216 1_455 S
O113 C120 1.247 . S
O114 Co112 2.091 1_455 S
O114 C120 1.261 . S
C115 O124 1.247 1_655 S
C115 O125 1.272 . S
O116 Co112 2.004 . S
O116 C121 1.259 . S
Co117 O118 2.061 . S
Co117 O123 2.052 . S
Co117 O125 2.135 . S
O118 Co117 2.061 . S
O118 C121 1.235 . S
C119 O122 1.238 . S
C119 O123 1.241 . S
C120 O113 1.247 . S
C120 O114 1.261 . S
C121 O116 1.259 . S
C121 O118 1.235 . S
O122 Co112 2.021 . S
O122 C119 1.238 . S
O123 Co117 2.052 . S
O123 C119 1.241 . S
O124 Co112 2.137 1_455 S
O124 C115 1.247 1_455 S
O125 Co112 2.244 . S
O125 C115 1.272 . S
O125 Co117 2.135 . S
Co126 O127 2.216 1_655 S
Co126 O128 2.091 . S
Co126 O130 2.004 . S
Co126 O136 2.021 . S
Co126 O138 2.137 1_655 S
Co126 O139 2.244 1_655 S
O127 Co126 2.216 1_455 S
O127 C134 1.247 1_455 S
O128 Co126 2.091 . S
O128 C134 1.261 . S
C129 O138 1.247 . S
C129 O139 1.272 . S
O130 Co126 2.004 . S
O130 C135 1.259 . S
Co131 O132 2.061 . S
Co131 O137 2.052 . S
Co131 O139 2.135 1_655 S
O132 Co131 2.061 . S
O132 C135 1.235 . S
C133 O136 1.238 . S
C133 O137 1.241 . S
C134 O127 1.247 1_655 S
C134 O128 1.261 . S
C135 O130 1.259 . S
C135 O132 1.235 . S
O136 Co126 2.021 . S
O136 C133 1.238 . S
O137 Co131 2.052 . S
O137 C133 1.241 . S
O138 Co126 2.137 1_455 S
O138 C129 1.247 . S
O139 Co126 2.244 1_455 S
O139 C129 1.272 . S
O139 Co131 2.135 1_455 S
Co140 O141 2.216 . S
Co140 O142 2.091 . S
Co140 O144 2.004 . S
Co140 O150 2.021 . S
Co140 O152 2.137 . S
Co140 O153 2.244 . S
O141 Co140 2.216 . S
O141 C148 1.247 . S
O142 Co140 2.091 . S
O142 C148 1.261 . S
C143 O152 1.247 . S
C143 O153 1.272 . S
O144 Co140 2.004 . S
O144 C149 1.259 . S
Co145 O146 2.061 . S
Co145 O151 2.052 . S
Co145 O153 2.135 . S
O146 Co145 2.061 . S
O146 C149 1.235 . S
C147 O150 1.238 . S
C147 O151 1.241 . S
C148 O141 1.247 . S
C148 O142 1.261 . S
C149 O144 1.259 . S
C149 O146 1.235 . S
O150 Co140 2.021 . S
O150 C147 1.238 . S
O151 Co145 2.052 . S
O151 C147 1.241 . S
O152 Co140 2.137 . S
O152 C143 1.247 . S
O153 Co140 2.244 . S
O153 C143 1.272 . S
O153 Co145 2.135 . S
Co154 O155 2.216 . S
Co154 O156 2.091 . S
Co154 O158 2.004 . S
Co154 O164 2.021 . S
Co154 O166 2.137 1_545 S
Co154 O167 2.244 . S
O155 Co154 2.216 . S
O155 C162 1.247 . S
O156 Co154 2.091 . S
O156 C162 1.261 . S
C157 O166 1.247 . S
C157 O167 1.272 1_565 S
O158 Co154 2.004 . S
O158 C163 1.259 . S
Co159 O160 2.061 . S
Co159 O165 2.052 . S
Co159 O167 2.135 . S
O160 Co159 2.061 . S
O160 C163 1.235 . S
C161 O164 1.238 . S
C161 O165 1.241 . S
C162 O155 1.247 . S
C162 O156 1.261 . S
C163 O158 1.259 . S
C163 O160 1.235 . S
O164 Co154 2.021 . S
O164 C161 1.238 . S
O165 Co159 2.052 . S
O165 C161 1.241 . S
O166 Co154 2.137 1_565 S
O166 C157 1.247 . S
O167 Co154 2.244 . S
O167 C157 1.272 1_545 S
O167 Co159 2.135 . S
Co168 O169 2.216 . S
Co168 O170 2.091 . S
Co168 O172 2.004 . S
Co168 O178 2.021 . S
Co168 O180 2.137 1_455 S
Co168 O181 2.244 . S
O169 Co168 2.216 . S
O169 C176 1.247 . S
O170 Co168 2.091 . S
O170 C176 1.261 . S
C171 O180 1.247 . S
C171 O181 1.272 1_655 S
O172 Co168 2.004 . S
O172 C177 1.259 . S
Co173 O174 2.061 . S
Co173 O179 2.052 . S
Co173 O181 2.135 . S
O174 Co173 2.061 . S
O174 C177 1.235 . S
C175 O178 1.238 . S
C175 O179 1.241 . S
C176 O169 1.247 . S
C176 O170 1.261 . S
C177 O172 1.259 . S
C177 O174 1.235 . S
O178 Co168 2.021 . S
O178 C175 1.238 . S
O179 Co173 2.052 . S
O179 C175 1.241 . S
O180 Co168 2.137 1_655 S
O180 C171 1.247 . S
O181 Co168 2.244 . S
O181 C171 1.272 1_455 S
O181 Co173 2.135 . S
Co182 O183 2.216 . S
Co182 O184 2.091 . S
Co182 O186 2.004 . S
Co182 O192 2.021 . S
Co182 O194 2.137 . S
Co182 O195 2.244 . S
O183 Co182 2.216 . S
O183 C190 1.247 . S
O184 Co182 2.091 . S
O184 C190 1.261 . S
C185 O194 1.247 . S
C185 O195 1.272 . S
O186 Co182 2.004 . S
O186 C191 1.259 . S
Co187 O188 2.061 . S
Co187 O193 2.052 . S
Co187 O195 2.135 . S
O188 Co187 2.061 . S
O188 C191 1.235 . S
C189 O192 1.238 . S
C189 O193 1.241 . S
C190 O183 1.247 . S
C190 O184 1.261 . S
C191 O186 1.259 . S
C191 O188 1.235 . S
O192 Co182 2.021 . S
O192 C189 1.238 . S
O193 Co187 2.052 . S
O193 C189 1.241 . S
O194 Co182 2.137 . S
O194 C185 1.247 . S
O195 Co182 2.244 . S
O195 C185 1.272 . S
O195 Co187 2.135 . S
Co196 O197 2.216 1_565 S
Co196 O198 2.091 . S
Co196 O200 2.004 . S
Co196 O206 2.021 . S
Co196 O208 2.137 1_565 S
Co196 O209 2.244 1_565 S
O197 Co196 2.216 1_545 S
O197 C204 1.247 1_545 S
O198 Co196 2.091 . S
O198 C204 1.261 . S
C199 O208 1.247 . S
C199 O209 1.272 . S
O200 Co196 2.004 . S
O200 C205 1.259 . S
Co201 O202 2.061 . S
Co201 O207 2.052 . S
Co201 O209 2.135 1_565 S
O202 Co201 2.061 . S
O202 C205 1.235 . S
C203 O206 1.238 . S
C203 O207 1.241 . S
C204 O197 1.247 1_565 S
C204 O198 1.261 . S
C205 O200 1.259 . S
C205 O202 1.235 . S
O206 Co196 2.021 . S
O206 C203 1.238 . S
O207 Co201 2.052 . S
O207 C203 1.241 . S
O208 Co196 2.137 1_545 S
O208 C199 1.247 . S
O209 Co196 2.244 1_545 S
O209 C199 1.272 . S
O209 Co201 2.135 1_545 S
Co210 O211 2.216 . S
Co210 O212 2.091 . S
Co210 O214 2.004 . S
Co210 O220 2.021 . S
Co210 O222 2.137 . S
Co210 O223 2.244 . S
O211 Co210 2.216 . S
O211 C218 1.247 . S
O212 Co210 2.091 . S
O212 C218 1.261 . S
C213 O222 1.247 . S
C213 O223 1.272 . S
O214 Co210 2.004 . S
O214 C219 1.259 . S
Co215 O216 2.061 . S
Co215 O221 2.052 . S
Co215 O223 2.135 . S
O216 Co215 2.061 . S
O216 C219 1.235 . S
C217 O220 1.238 . S
C217 O221 1.241 . S
C218 O211 1.247 . S
C218 O212 1.261 . S
C219 O214 1.259 . S
C219 O216 1.235 . S
O220 Co210 2.021 . S
O220 C217 1.238 . S
O221 Co215 2.052 . S
O221 C217 1.241 . S
O222 Co210 2.137 . S
O222 C213 1.247 . S
O223 Co210 2.244 . S
O223 C213 1.272 . S
O223 Co215 2.135 . S
Co224 O225 2.216 1_565 S
Co224 O226 2.091 . S
Co224 O228 2.004 . S
Co224 O234 2.021 . S
Co224 O236 2.137 1_565 S
Co224 O237 2.244 1_565 S
O225 Co224 2.216 1_545 S
O225 C232 1.247 1_545 S
O226 Co224 2.091 . S
O226 C232 1.261 . S
C227 O236 1.247 . S
C227 O237 1.272 . S
O228 Co224 2.004 . S
O228 C233 1.259 . S
Co229 O230 2.061 . S
Co229 O235 2.052 . S
Co229 O237 2.135 1_565 S
O230 Co229 2.061 . S
O230 C233 1.235 . S
C231 O234 1.238 . S
C231 O235 1.241 . S
C232 O225 1.247 1_565 S
C232 O226 1.261 . S
C233 O228 1.259 . S
C233 O230 1.235 . S
O234 Co224 2.021 . S
O234 C231 1.238 . S
O235 Co229 2.052 . S
O235 C231 1.241 . S
O236 Co224 2.137 1_545 S
O236 C227 1.247 . S
O237 Co224 2.244 1_545 S
O237 C227 1.272 . S
O237 Co229 2.135 1_545 S
Co238 O239 2.216 1_455 S
Co238 O240 2.091 1_455 S
Co238 O242 2.004 . S
Co238 O248 2.021 . S
Co238 O250 2.137 . S
Co238 O251 2.244 . S
O239 Co238 2.216 1_655 S
O239 C246 1.247 . S
O240 Co238 2.091 1_655 S
O240 C246 1.261 . S
C241 O250 1.247 . S
C241 O251 1.272 . S
O242 Co238 2.004 . S
O242 C247 1.259 . S
Co243 O244 2.061 . S
Co243 O249 2.052 . S
Co243 O251 2.135 . S
O244 Co243 2.061 . S
O244 C247 1.235 . S
C245 O248 1.238 . S
C245 O249 1.241 . S
C246 O239 1.247 . S
C246 O240 1.261 . S
C247 O242 1.259 . S
C247 O244 1.235 . S
O248 Co238 2.021 . S
O248 C245 1.238 . S
O249 Co243 2.052 . S
O249 C245 1.241 . S
O250 Co238 2.137 . S
O250 C241 1.247 . S
O251 Co238 2.244 . S
O251 C241 1.272 . S
O251 Co243 2.135 . S
Zn252 O258 1.920 1_455 S
Zn252 O264 1.898 1_445 S
Zn252 O267 1.905 . S
Zn253 O261 1.905 1_445 S
Zn253 O262 1.898 . S
Zn253 O270 1.920 1_455 S
Zn254 O257 2.080 . S
Zn254 O260 2.114 1_545 S
Zn254 O263 2.120 . S
Zn254 O265 2.120 1_445 S
Zn254 O266 2.114 . S
Zn254 O269 2.080 1_455 S
C255 O260 1.166 1_655 S
C255 O261 1.182 . S
C256 O262 1.167 . S
C256 O263 1.299 . S
O257 Zn254 2.080 . S
O257 C271 1.305 1_455 S
O258 Zn252 1.920 1_655 S
O258 C271 1.234 . S
C259 O264 1.167 . S
C259 O265 1.299 . S
O260 Zn254 2.114 1_565 S
O260 C255 1.166 1_455 S
O261 Zn253 1.905 1_665 S
O261 C255 1.182 . S
O262 Zn253 1.898 . S
O262 C256 1.167 . S
O263 Zn254 2.120 . S
O263 C256 1.299 . S
O264 Zn252 1.898 1_665 S
O264 C259 1.167 . S
O265 Zn254 2.120 1_665 S
O265 C259 1.299 . S
O266 Zn254 2.114 . S
O266 C268 1.166 . S
O267 Zn252 1.905 . S
O267 C268 1.182 . S
C268 O266 1.166 . S
C268 O267 1.182 . S
O269 Zn254 2.080 1_655 S
O269 C272 1.305 . S
O270 Zn253 1.920 1_655 S
O270 C272 1.234 . S
C271 O257 1.305 1_655 S
C271 O258 1.234 . S
C272 O269 1.305 . S
C272 O270 1.234 . S
Zn273 O279 1.920 1_545 S
Zn273 O285 1.898 . S
Zn273 O288 1.905 1_445 S
Zn274 O282 1.905 . S
Zn274 O283 1.898 1_445 S
Zn274 O291 1.920 1_545 S
Zn275 O278 2.080 1_545 S
Zn275 O281 2.114 . S
Zn275 O284 2.120 1_445 S
Zn275 O286 2.120 . S
Zn275 O287 2.114 1_455 S
Zn275 O290 2.080 . S
C276 O281 1.166 . S
C276 O282 1.182 . S
C277 O283 1.167 . S
C277 O284 1.299 . S
O278 Zn275 2.080 1_565 S
O278 C292 1.305 . S
O279 Zn273 1.920 1_565 S
O279 C292 1.234 . S
C280 O285 1.167 . S
C280 O286 1.299 . S
O281 Zn275 2.114 . S
O281 C276 1.166 . S
O282 Zn274 1.905 . S
O282 C276 1.182 . S
O283 Zn274 1.898 1_665 S
O283 C277 1.167 . S
O284 Zn275 2.120 1_665 S
O284 C277 1.299 . S
O285 Zn273 1.898 . S
O285 C280 1.167 . S
O286 Zn275 2.120 . S
O286 C280 1.299 . S
O287 Zn275 2.114 1_655 S
O287 C289 1.166 . S
O288 Zn273 1.905 1_665 S
O288 C289 1.182 1_565 S
C289 O287 1.166 . S
C289 O288 1.182 1_545 S
O290 Zn275 2.080 . S
O290 C293 1.305 1_545 S
O291 Zn274 1.920 1_565 S
O291 C293 1.234 . S
C292 O278 1.305 . S
C292 O279 1.234 . S
C293 O290 1.305 1_565 S
C293 O291 1.234 . S
Zn294 O300 1.920 1_545 S
Zn294 O306 1.898 . S
Zn294 O309 1.905 1_445 S
Zn295 O303 1.905 . S
Zn295 O304 1.898 1_445 S
Zn295 O312 1.920 1_545 S
Zn296 O299 2.080 1_545 S
Zn296 O302 2.114 . S
Zn296 O305 2.120 1_445 S
Zn296 O307 2.120 . S
Zn296 O308 2.114 1_455 S
Zn296 O311 2.080 . S
C297 O302 1.166 . S
C297 O303 1.182 . S
C298 O304 1.167 . S
C298 O305 1.299 . S
O299 Zn296 2.080 1_565 S
O299 C313 1.305 . S
O300 Zn294 1.920 1_565 S
O300 C313 1.234 . S
C301 O306 1.167 . S
C301 O307 1.299 . S
O302 Zn296 2.114 . S
O302 C297 1.166 . S
O303 Zn295 1.905 . S
O303 C297 1.182 . S
O304 Zn295 1.898 1_665 S
O304 C298 1.167 . S
O305 Zn296 2.120 1_665 S
O305 C298 1.299 . S
O306 Zn294 1.898 . S
O306 C301 1.167 . S
O307 Zn296 2.120 . S
O307 C301 1.299 . S
O308 Zn296 2.114 1_655 S
O308 C310 1.166 1_545 S
O309 Zn294 1.905 1_665 S
O309 C310 1.182 . S
C310 O308 1.166 1_565 S
C310 O309 1.182 . S
O311 Zn296 2.080 . S
O311 C314 1.305 . S
O312 Zn295 1.920 1_565 S
O312 C314 1.234 1_565 S
C313 O299 1.305 . S
C313 O300 1.234 . S
C314 O311 1.305 . S
C314 O312 1.234 1_545 S
Zn315 O321 1.920 1_455 S
Zn315 O327 1.898 1_445 S
Zn315 O330 1.905 . S
Zn316 O324 1.905 1_445 S
Zn316 O325 1.898 . S
Zn316 O333 1.920 1_455 S
Zn317 O320 2.080 . S
Zn317 O323 2.114 1_545 S
Zn317 O326 2.120 . S
Zn317 O328 2.120 1_445 S
Zn317 O329 2.114 . S
Zn317 O332 2.080 1_455 S
C318 O323 1.166 1_655 S
C318 O324 1.182 . S
C319 O325 1.167 . S
C319 O326 1.299 . S
O320 Zn317 2.080 . S
O320 C334 1.305 . S
O321 Zn315 1.920 1_655 S
O321 C334 1.234 1_655 S
C322 O327 1.167 . S
C322 O328 1.299 . S
O323 Zn317 2.114 1_565 S
O323 C318 1.166 1_455 S
O324 Zn316 1.905 1_665 S
O324 C318 1.182 . S
O325 Zn316 1.898 . S
O325 C319 1.167 . S
O326 Zn317 2.120 . S
O326 C319 1.299 . S
O327 Zn315 1.898 1_665 S
O327 C322 1.167 . S
O328 Zn317 2.120 1_665 S
O328 C322 1.299 . S
O329 Zn317 2.114 . S
O329 C331 1.166 . S
O330 Zn315 1.905 . S
O330 C331 1.182 . S
C331 O329 1.166 . S
C331 O330 1.182 . S
O332 Zn317 2.080 1_655 S
O332 C335 1.305 . S
O333 Zn316 1.920 1_655 S
O333 C335 1.234 . S
C334 O320 1.305 . S
C334 O321 1.234 1_455 S
C335 O332 1.305 . S
C335 O333 1.234 . S
Zn336 O342 1.920 . S
Zn336 O348 1.898 . S
Zn336 O351 1.905 . S
Zn337 O345 1.905 . S
Zn337 O346 1.898 . S
Zn337 O354 1.920 . S
Zn338 O341 2.080 . S
Zn338 O344 2.114 . S
Zn338 O347 2.120 . S
Zn338 O349 2.120 . S
Zn338 O350 2.114 . S
Zn338 O353 2.080 . S
C339 O344 1.166 . S
C339 O345 1.182 . S
C340 O346 1.167 . S
C340 O347 1.299 . S
O341 Zn338 2.080 . S
O341 C355 1.305 . S
O342 Zn336 1.920 . S
O342 C355 1.234 . S
C343 O348 1.167 . S
C343 O349 1.299 . S
O344 Zn338 2.114 . S
O344 C339 1.166 . S
O345 Zn337 1.905 . S
O345 C339 1.182 . S
O346 Zn337 1.898 . S
O346 C340 1.167 . S
O347 Zn338 2.120 . S
O347 C340 1.299 . S
O348 Zn336 1.898 . S
O348 C343 1.167 . S
O349 Zn338 2.120 . S
O349 C343 1.299 . S
O350 Zn338 2.114 . S
O350 C352 1.166 . S
O351 Zn336 1.905 . S
O351 C352 1.182 . S
C352 O350 1.166 . S
C352 O351 1.182 . S
O353 Zn338 2.080 . S
O353 C356 1.305 . S
O354 Zn337 1.920 . S
O354 C356 1.234 . S
C355 O341 1.305 . S
C355 O342 1.234 . S
C356 O353 1.305 . S
C356 O354 1.234 . S
Zn357 O363 1.920 . S
Zn357 O369 1.898 . S
Zn357 O372 1.905 . S
Zn358 O366 1.905 . S
Zn358 O367 1.898 . S
Zn358 O375 1.920 . S
Zn359 O362 2.080 . S
Zn359 O365 2.114 . S
Zn359 O368 2.120 . S
Zn359 O370 2.120 . S
Zn359 O371 2.114 . S
Zn359 O374 2.080 . S
C360 O365 1.166 . S
C360 O366 1.182 . S
C361 O367 1.167 . S
C361 O368 1.299 . S
O362 Zn359 2.080 . S
O362 C376 1.305 . S
O363 Zn357 1.920 . S
O363 C376 1.234 . S
C364 O369 1.167 . S
C364 O370 1.299 . S
O365 Zn359 2.114 . S
O365 C360 1.166 . S
O366 Zn358 1.905 . S
O366 C360 1.182 . S
O367 Zn358 1.898 . S
O367 C361 1.167 . S
O368 Zn359 2.120 . S
O368 C361 1.299 . S
O369 Zn357 1.898 . S
O369 C364 1.167 . S
O370 Zn359 2.120 . S
O370 C364 1.299 . S
O371 Zn359 2.114 . S
O371 C373 1.166 . S
O372 Zn357 1.905 . S
O372 C373 1.182 . S
C373 O371 1.166 . S
C373 O372 1.182 . S
O374 Zn359 2.080 . S
O374 C377 1.305 . S
O375 Zn358 1.920 . S
O375 C377 1.234 . S
C376 O362 1.305 . S
C376 O363 1.234 . S
C377 O374 1.305 . S
C377 O375 1.234 . S
Zn378 O384 1.920 . S
Zn378 O390 1.898 . S
Zn378 O393 1.905 . S
Zn379 O387 1.905 . S
Zn379 O388 1.898 . S
Zn379 O396 1.920 . S
Zn380 O383 2.080 . S
Zn380 O386 2.114 . S
Zn380 O389 2.120 . S
Zn380 O391 2.120 . S
Zn380 O392 2.114 . S
Zn380 O395 2.080 . S
C381 O386 1.166 . S
C381 O387 1.182 . S
C382 O388 1.167 . S
C382 O389 1.299 . S
O383 Zn380 2.080 . S
O383 C397 1.305 . S
O384 Zn378 1.920 . S
O384 C397 1.234 . S
C385 O390 1.167 . S
C385 O391 1.299 . S
O386 Zn380 2.114 . S
O386 C381 1.166 . S
O387 Zn379 1.905 . S
O387 C381 1.182 . S
O388 Zn379 1.898 . S
O388 C382 1.167 . S
O389 Zn380 2.120 . S
O389 C382 1.299 . S
O390 Zn378 1.898 . S
O390 C385 1.167 . S
O391 Zn380 2.120 . S
O391 C385 1.299 . S
O392 Zn380 2.114 . S
O392 C394 1.166 . S
O393 Zn378 1.905 . S
O393 C394 1.182 . S
C394 O392 1.166 . S
C394 O393 1.182 . S
O395 Zn380 2.080 . S
O395 C398 1.305 . S
O396 Zn379 1.920 . S
O396 C398 1.234 . S
C397 O383 1.305 . S
C397 O384 1.234 . S
C398 O395 1.305 . S
C398 O396 1.234 . S
Zn399 O405 1.920 . S
Zn399 O411 1.898 . S
Zn399 O414 1.905 . S
Zn400 O408 1.905 . S
Zn400 O409 1.898 . S
Zn400 O417 1.920 . S
Zn401 O404 2.112 . S
Zn401 O407 2.114 . S
Zn401 O410 2.120 . S
Zn401 O412 2.120 . S
Zn401 O413 2.114 . S
Zn401 O416 2.080 . S
C402 O407 1.166 . S
C402 O408 1.182 . S
C403 O409 1.167 . S
C403 O410 1.299 . S
O404 Zn401 2.112 . S
O404 C418 1.263 1_556 S
O405 Zn399 1.920 . S
O405 C418 1.234 . S
C406 O411 1.167 . S
C406 O412 1.299 1_554 S
O407 Zn401 2.114 . S
O407 C402 1.166 . S
O408 Zn400 1.905 . S
O408 C402 1.182 . S
O409 Zn400 1.898 . S
O409 C403 1.167 . S
O410 Zn401 2.120 . S
O410 C403 1.299 . S
O411 Zn399 1.898 . S
O411 C406 1.167 . S
O412 Zn401 2.120 . S
O412 C406 1.299 1_556 S
O413 Zn401 2.114 . S
O413 C415 1.166 1_556 S
O414 Zn399 1.905 . S
O414 C415 1.182 . S
C415 O413 1.166 1_554 S
C415 O414 1.182 . S
O416 Zn401 2.080 . S
O416 C419 1.305 . S
O417 Zn400 1.920 . S
O417 C419 1.234 . S
C418 O404 1.263 1_554 S
C418 O405 1.234 . S
C419 O416 1.305 . S
C419 O417 1.234 . S
Zn420 O426 1.920 . S
Zn420 O432 1.898 . S
Zn420 O435 1.905 . S
Zn421 O429 1.905 . S
Zn421 O430 1.898 . S
Zn421 O438 1.920 . S
Zn422 O425 2.080 . S
Zn422 O428 2.114 . S
Zn422 O431 2.120 . S
Zn422 O433 2.120 . S
Zn422 O434 2.114 . S
Zn422 O437 2.080 . S
C423 O428 1.166 . S
C423 O429 1.182 . S
C424 O430 1.167 . S
C424 O431 1.299 . S
O425 Zn422 2.080 . S
O425 C439 1.305 . S
O426 Zn420 1.920 . S
O426 C439 1.234 . S
C427 O432 1.167 . S
C427 O433 1.299 . S
O428 Zn422 2.114 . S
O428 C423 1.166 . S
O429 Zn421 1.905 . S
O429 C423 1.182 . S
O430 Zn421 1.898 . S
O430 C424 1.167 . S
O431 Zn422 2.120 . S
O431 C424 1.299 . S
O432 Zn420 1.898 . S
O432 C427 1.167 . S
O433 Zn422 2.120 . S
O433 C427 1.299 . S
O434 Zn422 2.114 . S
O434 C436 1.166 . S
O435 Zn420 1.905 . S
O435 C436 1.182 . S
C436 O434 1.166 . S
C436 O435 1.182 . S
O437 Zn422 2.080 . S
O437 C440 1.305 . S
O438 Zn421 1.920 . S
O438 C440 1.234 . S
C439 O425 1.305 . S
C439 O426 1.234 . S
C440 O437 1.305 . S
C440 O438 1.234 . S
Zn441 O447 1.920 . S
Zn441 O453 1.898 . S
Zn441 O456 1.905 . S
Zn442 O450 1.905 . S
Zn442 O451 1.898 . S
Zn442 O459 1.920 . S
Zn443 O446 2.080 . S
Zn443 O449 2.114 . S
Zn443 O452 2.120 . S
Zn443 O454 2.120 . S
Zn443 O455 2.114 . S
Zn443 O458 2.112 . S
C444 O449 1.166 1_556 S
C444 O450 1.182 . S
C445 O451 1.167 . S
C445 O452 1.299 1_556 S
O446 Zn443 2.080 . S
O446 C460 1.305 . S
O447 Zn441 1.920 . S
O447 C460 1.234 . S
C448 O453 1.167 . S
C448 O454 1.299 . S
O449 Zn443 2.114 . S
O449 C444 1.166 1_554 S
O450 Zn442 1.905 . S
O450 C444 1.182 . S
O451 Zn442 1.898 . S
O451 C445 1.167 . S
O452 Zn443 2.120 . S
O452 C445 1.299 1_554 S
O453 Zn441 1.898 . S
O453 C448 1.167 . S
O454 Zn443 2.120 . S
O454 C448 1.299 . S
O455 Zn443 2.114 . S
O455 C457 1.166 . S
O456 Zn441 1.905 . S
O456 C457 1.182 . S
C457 O455 1.166 . S
C457 O456 1.182 . S
O458 Zn443 2.112 . S
O458 C461 1.263 1_554 S
O459 Zn442 1.920 . S
O459 C461 1.234 . S
C460 O446 1.305 . S
C460 O447 1.234 . S
C461 O458 1.263 1_556 S
C461 O459 1.234 . S
Zn462 O468 1.920 . S
Zn462 O474 1.898 . S
Zn462 O477 1.905 . S
Zn463 O471 1.905 . S
Zn463 O472 1.898 . S
Zn463 O480 1.920 . S
Zn464 O467 2.080 . S
Zn464 O470 2.114 . S
Zn464 O473 2.120 . S
Zn464 O475 2.120 . S
Zn464 O476 2.114 . S
Zn464 O479 2.080 . S
C465 O470 1.166 . S
C465 O471 1.182 . S
C466 O472 1.167 . S
C466 O473 1.299 . S
O467 Zn464 2.080 . S
O467 C481 1.305 . S
O468 Zn462 1.920 . S
O468 C481 1.234 . S
C469 O474 1.167 . S
C469 O475 1.299 . S
O470 Zn464 2.114 . S
O470 C465 1.166 . S
O471 Zn463 1.905 . S
O471 C465 1.182 . S
O472 Zn463 1.898 . S
O472 C466 1.167 . S
O473 Zn464 2.120 . S
O473 C466 1.299 . S
O474 Zn462 1.898 . S
O474 C469 1.167 . S
O475 Zn464 2.120 . S
O475 C469 1.299 . S
O476 Zn464 2.114 . S
O476 C478 1.166 . S
O477 Zn462 1.905 . S
O477 C478 1.182 . S
C478 O476 1.166 . S
C478 O477 1.182 . S
O479 Zn464 2.080 . S
O479 C482 1.305 . S
O480 Zn463 1.920 . S
O480 C482 1.234 . S
C481 O467 1.305 . S
C481 O468 1.234 . S
C482 O479 1.305 . S
C482 O480 1.234 . S
Zn483 O489 1.920 . S
Zn483 O495 1.898 . S
Zn483 O498 1.905 . S
Zn484 O492 1.905 . S
Zn484 O493 1.898 . S
Zn484 O501 1.920 . S
Zn485 O488 2.080 . S
Zn485 O491 2.114 . S
Zn485 O494 2.120 . S
Zn485 O496 2.120 . S
Zn485 O497 2.114 . S
Zn485 O500 2.080 . S
C486 O491 1.166 . S
C486 O492 1.182 . S
C487 O493 1.167 . S
C487 O494 1.299 . S
O488 Zn485 2.080 . S
O488 C502 1.305 . S
O489 Zn483 1.920 . S
O489 C502 1.234 . S
C490 O495 1.167 . S
C490 O496 1.299 . S
O491 Zn485 2.114 . S
O491 C486 1.166 . S
O492 Zn484 1.905 . S
O492 C486 1.182 . S
O493 Zn484 1.898 . S
O493 C487 1.167 . S
O494 Zn485 2.120 . S
O494 C487 1.299 . S
O495 Zn483 1.898 . S
O495 C490 1.167 . S
O496 Zn485 2.120 . S
O496 C490 1.299 . S
O497 Zn485 2.114 . S
O497 C499 1.166 . S
O498 Zn483 1.905 . S
O498 C499 1.182 . S
C499 O497 1.166 . S
C499 O498 1.182 . S
O500 Zn485 2.080 . S
O500 C503 1.305 . S
O501 Zn484 1.920 . S
O501 C503 1.234 . S
C502 O488 1.305 . S
C502 O489 1.234 . S
C503 O500 1.305 . S
C503 O501 1.234 . S
C504 C505 1.387 . S
C504 H508 0.950 . S
C504 C513 1.390 . S
C505 C504 1.387 . S
C505 C507 1.387 . S
H506 C513 0.950 . S
C507 C505 1.387 . S
C507 C509 1.390 . S
C507 H511 0.950 . S
H508 C504 0.950 . S
C509 C507 1.390 . S
C509 C510 1.387 . S
C509 H512 0.950 . S
C510 C509 1.387 . S
C510 C513 1.387 . S
H511 C507 0.950 . S
H512 C509 0.950 . S
C513 C504 1.390 . S
C513 H506 0.950 . S
C513 C510 1.387 . S
C514 C515 1.387 . S
C514 H518 0.950 . S
C514 C523 1.390 . S
C515 C514 1.387 . S
C515 C517 1.387 1_545 S
H516 C523 0.950 . S
C517 C515 1.387 1_565 S
C517 C519 1.390 . S
C517 H521 0.950 . S
H518 C514 0.950 . S
C519 C517 1.390 . S
C519 C520 1.387 1_565 S
C519 H522 0.950 . S
C520 C519 1.387 1_545 S
C520 C523 1.387 . S
H521 C517 0.950 . S
H522 C519 0.950 . S
C523 C514 1.390 . S
C523 H516 0.950 . S
C523 C520 1.387 . S
C524 C525 1.387 1_655 S
C524 H528 0.950 . S
C524 C533 1.390 . S
C525 C524 1.387 1_455 S
C525 C527 1.387 . S
H526 C533 0.950 . S
C527 C525 1.387 . S
C527 C529 1.390 . S
C527 H531 0.950 . S
H528 C524 0.950 . S
C529 C527 1.390 . S
C529 C530 1.387 1_455 S
C529 H532 0.950 . S
C530 C529 1.387 1_655 S
C530 C533 1.387 . S
H531 C527 0.950 . S
H532 C529 0.950 . S
C533 C524 1.390 . S
C533 H526 0.950 . S
C533 C530 1.387 . S
C534 C535 1.387 . S
C534 H538 0.950 . S
C534 C543 1.390 . S
C535 C534 1.387 . S
C535 C537 1.387 . S
H536 C543 0.950 . S
C537 C535 1.387 . S
C537 C539 1.390 . S
C537 H541 0.950 . S
H538 C534 0.950 . S
C539 C537 1.390 . S
C539 C540 1.387 . S
C539 H542 0.950 . S
C540 C539 1.387 . S
C540 C543 1.387 . S
H541 C537 0.950 . S
H542 C539 0.950 . S
C543 C534 1.390 . S
C543 H536 0.950 . S
C543 C540 1.387 . S
C544 C545 1.387 1_565 S
C544 H548 0.950 . S
C544 C553 1.390 . S
C545 C544 1.387 1_545 S
C545 C547 1.387 . S
H546 C553 0.950 . S
C547 C545 1.387 . S
C547 C549 1.390 . S
C547 H551 0.950 . S
H548 C544 0.950 . S
C549 C547 1.390 . S
C549 C550 1.387 . S
C549 H552 0.950 . S
C550 C549 1.387 . S
C550 C553 1.387 1_545 S
H551 C547 0.950 . S
H552 C549 0.950 . S
C553 C544 1.390 . S
C553 H546 0.950 . S
C553 C550 1.387 1_565 S
C554 C555 1.387 . S
C554 H558 0.950 1_455 S
C554 C563 1.390 . S
C555 C554 1.387 . S
C555 C557 1.387 . S
H556 C563 0.950 . S
C557 C555 1.387 . S
C557 C559 1.390 . S
C557 H561 0.950 . S
H558 C554 0.950 1_655 S
C559 C557 1.390 . S
C559 C560 1.387 . S
C559 H562 0.950 . S
C560 C559 1.387 . S
C560 C563 1.387 . S
H561 C557 0.950 . S
H562 C559 0.950 . S
C563 C554 1.390 . S
C563 H556 0.950 . S
C563 C560 1.387 . S
C564 C565 1.387 . S
C564 H568 0.950 . S
C564 C573 1.390 . S
C565 C564 1.387 . S
C565 C567 1.387 . S
H566 C573 0.950 . S
C567 C565 1.387 . S
C567 C569 1.390 . S
C567 H571 0.950 . S
H568 C564 0.950 . S
C569 C567 1.390 . S
C569 C570 1.387 . S
C569 H572 0.950 . S
C570 C569 1.387 . S
C570 C573 1.387 . S
H571 C567 0.950 . S
H572 C569 0.950 . S
C573 C564 1.390 . S
C573 H566 0.950 . S
C573 C570 1.387 . S
C574 C575 1.387 . S
C574 H578 0.950 . S
C574 C583 1.390 . S
C575 C574 1.387 . S
C575 C577 1.387 1_545 S
H576 C583 0.950 . S
C577 C575 1.387 1_565 S
C577 C579 1.390 . S
C577 H581 0.950 . S
H578 C574 0.950 . S
C579 C577 1.390 . S
C579 C580 1.387 1_565 S
C579 H582 0.950 . S
C580 C579 1.387 1_545 S
C580 C583 1.387 . S
H581 C577 0.950 . S
H582 C579 0.950 . S
C583 C574 1.390 . S
C583 H576 0.950 . S
C583 C580 1.387 . S
C584 C585 1.387 . S
C584 H588 0.950 . S
C584 C593 1.390 . S
C585 C584 1.387 . S
C585 C587 1.387 . S
H586 C593 0.950 . S
C587 C585 1.387 . S
C587 C589 1.390 . S
C587 H591 0.950 . S
H588 C584 0.950 . S
C589 C587 1.390 . S
C589 C590 1.387 . S
C589 H592 0.950 . S
C590 C589 1.387 . S
C590 C593 1.387 . S
H591 C587 0.950 . S
H592 C589 0.950 . S
C593 C584 1.390 . S
C593 H586 0.950 . S
C593 C590 1.387 . S
C594 C595 1.387 . S
C594 H598 0.950 . S
C594 C603 1.390 . S
C595 C594 1.387 . S
C595 C597 1.387 . S
H596 C603 0.950 . S
C597 C595 1.387 . S
C597 C599 1.390 . S
C597 H601 0.950 . S
H598 C594 0.950 . S
C599 C597 1.390 . S
C599 C600 1.387 . S
C599 H602 0.950 . S
C600 C599 1.387 . S
C600 C603 1.387 . S
H601 C597 0.950 . S
H602 C599 0.950 . S
C603 C594 1.390 . S
C603 H596 0.950 . S
C603 C600 1.387 . S
C604 C605 1.387 1_565 S
C604 H608 0.950 . S
C604 C613 1.390 . S
C605 C604 1.387 1_545 S
C605 C607 1.387 . S
H606 C613 0.950 . S
C607 C605 1.387 . S
C607 C609 1.390 . S
C607 H611 0.950 . S
H608 C604 0.950 . S
C609 C607 1.390 . S
C609 C610 1.387 . S
C609 H612 0.950 . S
C610 C609 1.387 . S
C610 C613 1.387 1_545 S
H611 C607 0.950 . S
H612 C609 0.950 . S
C613 C604 1.390 . S
C613 H606 0.950 . S
C613 C610 1.387 1_565 S
C614 C615 1.387 1_655 S
C614 H618 0.950 . S
C614 C623 1.390 . S
C615 C614 1.387 1_455 S
C615 C617 1.387 . S
H616 C623 0.950 . S
C617 C615 1.387 . S
C617 C619 1.390 . S
C617 H621 0.950 . S
H618 C614 0.950 . S
C619 C617 1.390 . S
C619 C620 1.387 . S
C619 H622 0.950 . S
C620 C619 1.387 . S
C620 C623 1.387 1_455 S
H621 C617 0.950 . S
H622 C619 0.950 . S
C623 C614 1.390 . S
C623 H616 0.950 . S
C623 C620 1.387 1_655 S
C624 C625 1.387 . S
C624 H628 0.950 . S
C624 C633 1.390 . S
C625 C624 1.387 . S
C625 C627 1.387 . S
H626 C633 0.950 . S
C627 C625 1.387 . S
C627 C629 1.390 . S
C627 H631 0.950 . S
H628 C624 0.950 . S
C629 C627 1.390 . S
C629 C630 1.387 . S
C629 H632 0.950 . S
C630 C629 1.387 . S
C630 C633 1.387 . S
H631 C627 0.950 . S
H632 C629 0.950 . S
C633 C624 1.390 . S
C633 H626 0.950 . S
C633 C630 1.387 . S
C634 C635 1.387 . S
C634 H638 0.950 . S
C634 C643 1.390 . S
C635 C634 1.387 . S
C635 C637 1.387 . S
H636 C643 0.950 . S
C637 C635 1.387 . S
C637 C639 1.390 . S
C637 H641 0.950 . S
H638 C634 0.950 . S
C639 C637 1.390 . S
C639 C640 1.387 . S
C639 H642 0.950 . S
C640 C639 1.387 . S
C640 C643 1.387 . S
H641 C637 0.950 . S
H642 C639 0.950 . S
C643 C634 1.390 . S
C643 H636 0.950 . S
C643 C640 1.387 . S
C644 C645 1.387 . S
C644 H648 0.950 . S
C644 C653 1.390 . S
C645 C644 1.387 . S
C645 C647 1.387 . S
H646 C653 0.950 . S
C647 C645 1.387 . S
C647 C649 1.390 . S
C647 H651 0.950 . S
H648 C644 0.950 . S
C649 C647 1.390 . S
C649 C650 1.387 . S
C649 H652 0.950 . S
C650 C649 1.387 . S
C650 C653 1.387 . S
H651 C647 0.950 . S
H652 C649 0.950 . S
C653 C644 1.390 . S
C653 H646 0.950 . S
C653 C650 1.387 . S
C654 C655 1.387 . S
C654 H658 0.950 . S
C654 C663 1.390 . S
C655 C654 1.387 . S
C655 C657 1.387 . S
H656 C663 0.950 . S
C657 C655 1.387 . S
C657 C659 1.390 . S
C657 H661 0.950 . S
H658 C654 0.950 . S
C659 C657 1.390 . S
C659 C660 1.387 . S
C659 H662 0.950 . S
C660 C659 1.387 . S
C660 C663 1.387 . S
H661 C657 0.950 . S
H662 C659 0.950 . S
C663 C654 1.390 . S
C663 H656 0.950 . S
C663 C660 1.387 . S
C664 C665 1.387 . S
C664 H668 0.950 . S
C664 C673 1.390 . S
C665 C664 1.387 . S
C665 C667 1.387 . S
H666 C673 0.950 . S
C667 C665 1.387 . S
C667 C669 1.390 . S
C667 H671 0.950 . S
H668 C664 0.950 . S
C669 C667 1.390 . S
C669 C670 1.387 . S
C669 H672 0.950 . S
C670 C669 1.387 . S
C670 C673 1.387 . S
H671 C667 0.950 . S
H672 C669 0.950 . S
C673 C664 1.390 . S
C673 H666 0.950 . S
C673 C670 1.387 . S
C674 C675 1.387 . S
C674 H678 0.950 . S
C674 C683 1.390 . S
C675 C674 1.387 . S
C675 C677 1.387 . S
H676 C683 0.950 . S
C677 C675 1.387 . S
C677 C679 1.390 . S
C677 H681 0.950 . S
H678 C674 0.950 . S
C679 C677 1.390 . S
C679 C680 1.387 . S
C679 H682 0.950 . S
C680 C679 1.387 . S
C680 C683 1.387 . S
H681 C677 0.950 . S
H682 C679 0.950 . S
C683 C674 1.390 . S
C683 H676 0.950 . S
C683 C680 1.387 . S
C684 C685 1.387 . S
C684 H688 0.950 . S
C684 C693 1.390 . S
C685 C684 1.387 . S
C685 C687 1.387 . S
H686 C693 0.950 . S
C687 C685 1.387 . S
C687 C689 1.390 . S
C687 H691 0.950 . S
H688 C684 0.950 . S
C689 C687 1.390 . S
C689 C690 1.387 . S
C689 H692 0.950 . S
C690 C689 1.387 . S
C690 C693 1.387 . S
H691 C687 0.950 . S
H692 C689 0.950 . S
C693 C684 1.390 . S
C693 H686 0.950 . S
C693 C690 1.387 . S
C694 C695 1.387 . S
C694 H698 0.950 . S
C694 C703 1.390 . S
C695 C694 1.387 . S
C695 C697 1.387 . S
H696 C703 0.950 . S
C697 C695 1.387 . S
C697 C699 1.390 . S
C697 H701 0.950 . S
H698 C694 0.950 . S
C699 C697 1.390 . S
C699 C700 1.387 . S
C699 H702 0.950 . S
C700 C699 1.387 . S
C700 C703 1.387 . S
H701 C697 0.950 . S
H702 C699 0.950 . S
C703 C694 1.390 . S
C703 H696 0.950 . S
C703 C700 1.387 . S
C704 C705 1.387 . S
C704 H708 0.950 . S
C704 C713 1.390 . S
C705 C704 1.387 . S
C705 C707 1.387 . S
H706 C713 0.950 . S
C707 C705 1.387 . S
C707 C709 1.390 . S
C707 H711 0.950 . S
H708 C704 0.950 . S
C709 C707 1.390 . S
C709 C710 1.387 . S
C709 H712 0.950 . S
C710 C709 1.387 . S
C710 C713 1.387 . S
H711 C707 0.950 . S
H712 C709 0.950 . S
C713 C704 1.390 . S
C713 H706 0.950 . S
C713 C710 1.387 . S
C714 C715 1.387 . S
C714 H718 0.950 . S
C714 C723 1.390 . S
C715 C714 1.387 . S
C715 C717 1.387 . S
H716 C723 0.950 . S
C717 C715 1.387 . S
C717 C719 1.390 . S
C717 H721 0.950 . S
H718 C714 0.950 . S
C719 C717 1.390 . S
C719 C720 1.387 . S
C719 H722 0.950 1_554 S
C720 C719 1.387 . S
C720 C723 1.387 . S
H721 C717 0.950 . S
H722 C719 0.950 1_556 S
C723 C714 1.390 . S
C723 H716 0.950 . S
C723 C720 1.387 . S
C724 C725 1.387 . S
C724 H728 0.950 . S
C724 C733 1.390 . S
C725 C724 1.387 . S
C725 C727 1.387 . S
H726 C733 0.950 . S
C727 C725 1.387 . S
C727 C729 1.390 . S
C727 H731 0.950 . S
H728 C724 0.950 . S
C729 C727 1.390 . S
C729 C730 1.387 . S
C729 H732 0.950 . S
C730 C729 1.387 . S
C730 C733 1.387 . S
H731 C727 0.950 . S
H732 C729 0.950 . S
C733 C724 1.390 . S
C733 H726 0.950 . S
C733 C730 1.387 . S
C734 C735 1.387 . S
C734 H738 0.950 . S
C734 C743 1.390 . S
C735 C734 1.387 . S
C735 C737 1.387 . S
H736 C743 0.950 . S
C737 C735 1.387 . S
C737 C739 1.390 . S
C737 H741 0.950 . S
H738 C734 0.950 . S
C739 C737 1.390 . S
C739 C740 1.387 . S
C739 H742 0.950 . S
C740 C739 1.387 . S
C740 C743 1.387 . S
H741 C737 0.950 . S
H742 C739 0.950 . S
C743 C734 1.390 . S
C743 H736 0.950 . S
C743 C740 1.387 . S
C744 C745 1.387 . S
C744 H748 0.950 . S
C744 C753 1.390 . S
C745 C744 1.387 . S
C745 C747 1.387 . S
H746 C753 0.950 . S
C747 C745 1.387 . S
C747 C749 1.390 . S
C747 H751 0.950 . S
H748 C744 0.950 . S
C749 C747 1.390 . S
C749 C750 1.387 . S
C749 H752 0.950 . S
C750 C749 1.387 . S
C750 C753 1.387 . S
H751 C747 0.950 . S
H752 C749 0.950 . S
C753 C744 1.390 . S
C753 H746 0.950 . S
C753 C750 1.387 . S
C754 C755 1.387 . S
C754 H758 0.950 . S
C754 C763 1.390 . S
C755 C754 1.387 . S
C755 C757 1.387 . S
H756 C763 0.950 . S
C757 C755 1.387 . S
C757 C759 1.390 . S
C757 H761 0.950 . S
H758 C754 0.950 . S
C759 C757 1.390 . S
C759 C760 1.387 . S
C759 H762 0.950 . S
C760 C759 1.387 . S
C760 C763 1.387 . S
H761 C757 0.950 . S
H762 C759 0.950 . S
C763 C754 1.390 . S
C763 H756 0.950 . S
C763 C760 1.387 . S
C764 C765 1.387 . S
C764 H768 0.950 . S
C764 C773 1.390 . S
C765 C764 1.387 . S
C765 C767 1.387 . S
H766 C773 0.950 . S
C767 C765 1.387 . S
C767 C769 1.390 . S
C767 H771 0.950 . S
H768 C764 0.950 . S
C769 C767 1.390 . S
C769 C770 1.387 . S
C769 H772 0.950 . S
C770 C769 1.387 . S
C770 C773 1.387 . S
H771 C767 0.950 . S
H772 C769 0.950 . S
C773 C764 1.390 . S
C773 H766 0.950 . S
C773 C770 1.387 . S
C774 C775 1.387 . S
C774 H778 0.950 . S
C774 C783 1.390 . S
C775 C774 1.387 . S
C775 C777 1.387 . S
H776 C783 0.950 1_554 S
C777 C775 1.387 . S
C777 C779 1.390 . S
C777 H781 0.950 . S
H778 C774 0.950 . S
C779 C777 1.390 . S
C779 C780 1.387 . S
C779 H782 0.950 . S
C780 C779 1.387 . S
C780 C783 1.387 . S
H781 C777 0.950 . S
H782 C779 0.950 . S
C783 C774 1.390 . S
C783 H776 0.950 1_556 S
C783 C780 1.387 . S
C784 C785 1.387 . S
C784 H788 0.950 . S
C784 C793 1.390 . S
C785 C784 1.387 . S
C785 C787 1.387 . S
H786 C793 0.950 . S
C787 C785 1.387 . S
C787 C789 1.390 . S
C787 H791 0.950 . S
H788 C784 0.950 . S
C789 C787 1.390 . S
C789 C790 1.387 . S
C789 H792 0.950 . S
C790 C789 1.387 . S
C790 C793 1.387 . S
H791 C787 0.950 . S
H792 C789 0.950 . S
C793 C784 1.390 . S
C793 H786 0.950 . S
C793 C790 1.387 . S
C794 C795 1.387 . S
C794 H798 0.950 . S
C794 C803 1.390 . S
C795 C794 1.387 . S
C795 C797 1.387 . S
H796 C803 0.950 . S
C797 C795 1.387 . S
C797 C799 1.390 . S
C797 H801 0.950 . S
H798 C794 0.950 . S
C799 C797 1.390 . S
C799 C800 1.387 . S
C799 H802 0.950 . S
C800 C799 1.387 . S
C800 C803 1.387 . S
H801 C797 0.950 . S
H802 C799 0.950 . S
C803 C794 1.390 . S
C803 H796 0.950 . S
C803 C800 1.387 . S
C804 C805 1.387 . S
C804 H808 0.950 . S
C804 C813 1.390 . S
C805 C804 1.387 . S
C805 C807 1.387 . S
H806 C813 0.950 . S
C807 C805 1.387 . S
C807 C809 1.390 . S
C807 H811 0.950 . S
H808 C804 0.950 . S
C809 C807 1.390 . S
C809 C810 1.387 . S
C809 H812 0.950 . S
C810 C809 1.387 . S
C810 C813 1.387 . S
H811 C807 0.950 . S
H812 C809 0.950 . S
C813 C804 1.390 . S
C813 H806 0.950 . S
C813 C810 1.387 . S
C814 C815 1.387 . S
C814 H818 0.950 . S
C814 C823 1.390 . S
C815 C814 1.387 . S
C815 C817 1.387 . S
H816 C823 0.950 . S
C817 C815 1.387 . S
C817 C819 1.390 . S
C817 H821 0.950 . S
H818 C814 0.950 . S
C819 C817 1.390 . S
C819 C820 1.387 . S
C819 H822 0.950 . S
C820 C819 1.387 . S
C820 C823 1.387 . S
H821 C817 0.950 . S
H822 C819 0.950 . S
C823 C814 1.390 . S
C823 H816 0.950 . S
C823 C820 1.387 . S
C824 C825 1.387 . S
C824 H828 0.950 . S
C824 C833 1.390 . S
C825 C824 1.387 . S
C825 C827 1.387 . S
H826 C833 0.950 . S
C827 C825 1.387 . S
C827 C829 1.390 . S
C827 H831 0.950 . S
H828 C824 0.950 . S
C829 C827 1.390 . S
C829 C830 1.387 . S
C829 H832 0.950 . S
C830 C829 1.387 . S
C830 C833 1.387 . S
H831 C827 0.950 . S
H832 C829 0.950 . S
C833 C824 1.390 . S
C833 H826 0.950 . S
C833 C830 1.387 . S
C834 C835 1.387 . S
C834 H838 0.950 . S
C834 C843 1.390 . S
C835 C834 1.387 . S
C835 C837 1.387 . S
H836 C843 0.950 . S
C837 C835 1.387 . S
C837 C839 1.390 . S
C837 H841 0.950 . S
H838 C834 0.950 . S
C839 C837 1.390 . S
C839 C840 1.387 . S
C839 H842 0.950 . S
C840 C839 1.387 . S
C840 C843 1.387 . S
H841 C837 0.950 . S
H842 C839 0.950 . S
C843 C834 1.390 . S
C843 H836 0.950 . S
C843 C840 1.387 . S
C844 C845 1.387 . S
C844 H848 0.950 . S
C844 C853 1.390 . S
C845 C844 1.387 . S
C845 C847 1.387 . S
H846 C853 0.950 . S
C847 C845 1.387 . S
C847 C849 1.390 . S
C847 H851 0.950 . S
H848 C844 0.950 . S
C849 C847 1.390 . S
C849 C850 1.387 . S
C849 H852 0.950 . S
C850 C849 1.387 . S
C850 C853 1.387 . S
H851 C847 0.950 . S
H852 C849 0.950 . S
C853 C844 1.390 . S
C853 H846 0.950 . S
C853 C850 1.387 . S
C854 C855 1.387 . S
C854 H858 0.950 . S
C854 C863 1.390 . S
C855 C854 1.387 . S
C855 C857 1.387 . S
H856 C863 0.950 . S
C857 C855 1.387 . S
C857 C859 1.390 . S
C857 H861 0.950 . S
H858 C854 0.950 . S
C859 C857 1.390 . S
C859 C860 1.387 . S
C859 H862 0.950 . S
C860 C859 1.387 . S
C860 C863 1.387 . S
H861 C857 0.950 . S
H862 C859 0.950 . S
C863 C854 1.390 . S
C863 H856 0.950 . S
C863 C860 1.387 . S
C864 C865 1.387 . S
C864 H868 0.950 . S
C864 C873 1.390 . S
C865 C864 1.387 . S
C865 C867 1.387 1_545 S
H866 C873 0.950 . S
C867 C865 1.387 1_565 S
C867 C869 1.377 1_565 S
C867 H871 0.950 . S
H868 C864 0.950 . S
C869 C867 1.377 1_545 S
C869 C870 1.412 . S
C869 H872 0.939 1_545 S
C870 C869 1.412 . S
C870 C873 1.387 . S
H871 C867 0.950 . S
H872 C869 0.939 1_565 S
C873 C864 1.390 . S
C873 H866 0.950 . S
C873 C870 1.387 . S
C874 C875 1.387 . S
C874 H878 0.950 . S
C874 C883 1.390 . S
C875 C874 1.387 . S
C875 C877 1.387 1_655 S
H876 C883 0.950 . S
C877 C875 1.387 1_455 S
C877 C879 1.390 . S
C877 H881 0.950 . S
H878 C874 0.950 . S
C879 C877 1.390 . S
C879 C880 1.387 1_455 S
C879 H882 0.950 . S
C880 C879 1.387 1_655 S
C880 C883 1.387 . S
H881 C877 0.950 . S
H882 C879 0.950 . S
C883 C874 1.390 . S
C883 H876 0.950 . S
C883 C880 1.387 . S
C884 C885 1.387 . S
C884 H888 0.950 . S
C884 C893 1.390 . S
C885 C884 1.387 . S
C885 C887 1.387 . S
H886 C893 0.950 . S
C887 C885 1.387 . S
C887 C889 1.390 . S
C887 H891 0.950 . S
H888 C884 0.950 . S
C889 C887 1.390 . S
C889 C890 1.387 . S
C889 H892 0.950 . S
C890 C889 1.387 . S
C890 C893 1.387 . S
H891 C887 0.950 . S
H892 C889 0.950 . S
C893 C884 1.390 . S
C893 H886 0.950 . S
C893 C890 1.387 . S
C894 C895 1.387 . S
C894 H898 0.950 . S
C894 C903 1.390 . S
C895 C894 1.387 . S
C895 C897 1.387 . S
H896 C903 0.950 . S
C897 C895 1.387 . S
C897 C899 1.390 . S
C897 H901 0.950 . S
H898 C894 0.950 . S
C899 C897 1.390 . S
C899 C900 1.387 . S
C899 H902 0.950 . S
C900 C899 1.387 . S
C900 C903 1.387 . S
H901 C897 0.950 . S
H902 C899 0.950 . S
C903 C894 1.390 . S
C903 H896 0.950 . S
C903 C900 1.387 . S
C904 C905 1.387 . S
C904 H908 0.950 . S
C904 C913 1.390 . S
C905 C904 1.387 . S
C905 C907 1.387 . S
H906 C913 0.950 . S
C907 C905 1.387 . S
C907 C909 1.390 . S
C907 H911 0.950 . S
H908 C904 0.950 . S
C909 C907 1.390 . S
C909 C910 1.387 . S
C909 H912 0.950 . S
C910 C909 1.387 . S
C910 C913 1.387 . S
H911 C907 0.950 . S
H912 C909 0.950 . S
C913 C904 1.390 . S
C913 H906 0.950 . S
C913 C910 1.387 . S
C914 C915 1.387 . S
C914 H918 0.950 . S
C914 C923 1.390 . S
C915 C914 1.387 . S
C915 C917 1.387 1_565 S
H916 C923 0.950 . S
C917 C915 1.387 1_545 S
C917 C919 1.390 . S
C917 H921 0.950 . S
H918 C914 0.950 . S
C919 C917 1.390 . S
C919 C920 1.387 1_545 S
C919 H922 0.950 . S
C920 C919 1.387 1_565 S
C920 C923 1.387 . S
H921 C917 0.950 . S
H922 C919 0.950 . S
C923 C914 1.390 . S
C923 H916 0.950 . S
C923 C920 1.387 . S
C924 C925 1.385 . S
C924 H928 0.950 . S
C924 C933 1.390 . S
C925 C924 1.385 . S
C925 C927 1.389 1_565 S
H926 C933 0.950 . S
C927 C925 1.389 1_545 S
C927 C929 1.390 . S
C927 H931 0.950 . S
H928 C924 0.950 . S
C929 C927 1.390 . S
C929 C930 1.387 1_545 S
C929 H932 0.950 . S
C930 C929 1.387 1_565 S
C930 C933 1.387 . S
H931 C927 0.950 . S
H932 C929 0.950 . S
C933 C924 1.390 . S
C933 H926 0.950 . S
C933 C930 1.387 . S
C934 C935 1.387 . S
C934 H938 0.950 1_455 S
C934 C943 1.390 . S
C935 C934 1.387 . S
C935 C937 1.387 . S
H936 C943 0.950 1_655 S
C937 C935 1.387 . S
C937 C939 1.390 . S
C937 H941 0.950 . S
H938 C934 0.950 1_655 S
C939 C937 1.390 . S
C939 C940 1.387 . S
C939 H942 0.950 . S
C940 C939 1.387 . S
C940 C943 1.387 . S
H941 C937 0.950 . S
H942 C939 0.950 . S
C943 C934 1.390 . S
C943 H936 0.950 1_455 S
C943 C940 1.387 . S
C944 C945 1.387 . S
C944 H948 0.950 . S
C944 C953 1.390 . S
C945 C944 1.387 . S
C945 C947 1.387 . S
H946 C953 0.950 . S
C947 C945 1.387 . S
C947 C949 1.390 . S
C947 H951 0.950 . S
H948 C944 0.950 . S
C949 C947 1.390 . S
C949 C950 1.387 . S
C949 H952 0.950 . S
C950 C949 1.387 . S
C950 C953 1.387 . S
H951 C947 0.950 . S
H952 C949 0.950 . S
C953 C944 1.390 . S
C953 H946 0.950 . S
C953 C950 1.387 . S
C954 C955 1.387 1_455 S
C954 H958 0.950 . S
C954 C963 1.390 . S
C955 C954 1.387 1_655 S
C955 C957 1.387 . S
H956 C963 0.950 . S
C957 C955 1.387 . S
C957 C959 1.390 . S
C957 H961 0.950 . S
H958 C954 0.950 . S
C959 C957 1.390 . S
C959 C960 1.387 . S
C959 H962 0.950 . S
C960 C959 1.387 . S
C960 C963 1.387 1_655 S
H961 C957 0.950 . S
H962 C959 0.950 . S
C963 C954 1.390 . S
C963 H956 0.950 . S
C963 C960 1.387 1_455 S
C964 C965 1.387 . S
C964 H968 0.950 . S
C964 C973 1.390 . S
C965 C964 1.387 . S
C965 C967 1.387 . S
H966 C973 0.950 . S
C967 C965 1.387 . S
C967 C969 1.390 . S
C967 H971 0.950 . S
H968 C964 0.950 . S
C969 C967 1.390 . S
C969 C970 1.387 . S
C969 H972 0.950 . S
C970 C969 1.387 . S
C970 C973 1.387 . S
H971 C967 0.950 . S
H972 C969 0.950 . S
C973 C964 1.390 . S
C973 H966 0.950 . S
C973 C970 1.387 . S
C974 C975 1.383 1_565 S
C974 H978 0.952 . S
C974 C983 1.392 1_565 S
C975 C974 1.383 1_545 S
C975 C977 1.387 . S
H976 C983 0.950 1_565 S
C977 C975 1.387 . S
C977 C979 1.390 . S
C977 H981 0.950 . S
H978 C974 0.952 . S
C979 C977 1.390 . S
C979 C980 1.387 . S
C979 H982 0.950 . S
C980 C979 1.387 . S
C980 C983 1.387 . S
H981 C977 0.950 . S
H982 C979 0.950 . S
C983 C974 1.392 1_545 S
C983 H976 0.950 1_545 S
C983 C980 1.387 . S
C984 C985 1.387 . S
C984 H988 0.950 . S
C984 C993 1.390 . S
C985 C984 1.387 . S
C985 C987 1.387 . S
H986 C993 0.950 . S
C987 C985 1.387 . S
C987 C989 1.390 . S
C987 H991 0.950 . S
H988 C984 0.950 . S
C989 C987 1.390 . S
C989 C990 1.387 . S
C989 H992 0.950 . S
C990 C989 1.387 . S
C990 C993 1.387 . S
H991 C987 0.950 . S
H992 C989 0.950 . S
C993 C984 1.390 . S
C993 H986 0.950 . S
C993 C990 1.387 . S
C994 C995 1.387 . S
C994 H998 0.950 . S
C994 C1003 1.390 . S
C995 C994 1.387 . S
C995 C997 1.387 . S
H996 C1003 0.950 . S
C997 C995 1.387 . S
C997 C999 1.390 . S
C997 H1001 0.950 . S
H998 C994 0.950 . S
C999 C997 1.390 . S
C999 C1000 1.387 . S
C999 H1002 0.950 . S
C1000 C999 1.387 . S
C1000 C1003 1.387 . S
H1001 C997 0.950 . S
H1002 C999 0.950 . S
C1003 C994 1.390 . S
C1003 H996 0.950 . S
C1003 C1000 1.387 . S
C1004 C1005 1.387 . S
C1004 H1008 0.950 . S
C1004 C1013 1.390 . S
C1005 C1004 1.387 . S
C1005 C1007 1.387 . S
H1006 C1013 0.950 . S
C1007 C1005 1.387 . S
C1007 C1009 1.390 . S
C1007 H1011 0.950 . S
H1008 C1004 0.950 . S
C1009 C1007 1.390 . S
C1009 C1010 1.387 . S
C1009 H1012 0.950 . S
C1010 C1009 1.387 . S
C1010 C1013 1.387 . S
H1011 C1007 0.950 . S
H1012 C1009 0.950 . S
C1013 C1004 1.390 . S
C1013 H1006 0.950 . S
C1013 C1010 1.387 . S
C1014 C1015 1.387 . S
C1014 H1018 0.950 . S
C1014 C1023 1.390 . S
C1015 C1014 1.387 . S
C1015 C1017 1.387 . S
H1016 C1023 0.950 . S
C1017 C1015 1.387 . S
C1017 C1019 1.390 . S
C1017 H1021 0.950 . S
H1018 C1014 0.950 . S
C1019 C1017 1.390 . S
C1019 C1020 1.387 . S
C1019 H1022 0.950 . S
C1020 C1019 1.387 . S
C1020 C1023 1.387 . S
H1021 C1017 0.950 . S
H1022 C1019 0.950 . S
C1023 C1014 1.390 . S
C1023 H1016 0.950 . S
C1023 C1020 1.387 . S
C1024 C1025 1.387 . S
C1024 H1028 0.950 . S
C1024 C1033 1.390 . S
C1025 C1024 1.387 . S
C1025 C1027 1.387 . S
H1026 C1033 0.950 . S
C1027 C1025 1.387 . S
C1027 C1029 1.390 . S
C1027 H1031 0.950 . S
H1028 C1024 0.950 . S
C1029 C1027 1.390 . S
C1029 C1030 1.387 . S
C1029 H1032 0.950 . S
C1030 C1029 1.387 . S
C1030 C1033 1.387 . S
H1031 C1027 0.950 . S
H1032 C1029 0.950 . S
C1033 C1024 1.390 . S
C1033 H1026 0.950 . S
C1033 C1030 1.387 . S
C1034 C1035 1.387 . S
C1034 H1038 0.950 . S
C1034 C1043 1.390 . S
C1035 C1034 1.387 . S
C1035 C1037 1.387 . S
H1036 C1043 0.950 . S
C1037 C1035 1.387 . S
C1037 C1039 1.390 . S
C1037 H1041 0.950 . S
H1038 C1034 0.950 . S
C1039 C1037 1.390 . S
C1039 C1040 1.387 . S
C1039 H1042 0.950 . S
C1040 C1039 1.387 . S
C1040 C1043 1.387 . S
H1041 C1037 0.950 . S
H1042 C1039 0.950 . S
C1043 C1034 1.390 . S
C1043 H1036 0.950 . S
C1043 C1040 1.387 . S
C1044 C1045 1.387 . S
C1044 H1048 0.950 . S
C1044 C1053 1.390 . S
C1045 C1044 1.387 . S
C1045 C1047 1.387 . S
H1046 C1053 0.950 . S
C1047 C1045 1.387 . S
C1047 C1049 1.390 . S
C1047 H1051 0.950 . S
H1048 C1044 0.950 . S
C1049 C1047 1.390 . S
C1049 C1050 1.387 . S
C1049 H1052 0.950 . S
C1050 C1049 1.387 . S
C1050 C1053 1.387 . S
H1051 C1047 0.950 . S
H1052 C1049 0.950 . S
C1053 C1044 1.390 . S
C1053 H1046 0.950 . S
C1053 C1050 1.387 . S
C1054 C1055 1.387 . S
C1054 H1058 0.950 . S
C1054 C1063 1.390 . S
C1055 C1054 1.387 . S
C1055 C1057 1.387 . S
H1056 C1063 0.950 . S
C1057 C1055 1.387 . S
C1057 C1059 1.390 . S
C1057 H1061 0.950 . S
H1058 C1054 0.950 . S
C1059 C1057 1.390 . S
C1059 C1060 1.387 . S
C1059 H1062 0.950 . S
C1060 C1059 1.387 . S
C1060 C1063 1.387 . S
H1061 C1057 0.950 . S
H1062 C1059 0.950 . S
C1063 C1054 1.390 . S
C1063 H1056 0.950 . S
C1063 C1060 1.387 . S
C1064 C1065 1.387 . S
C1064 H1068 0.950 . S
C1064 C1073 1.390 . S
C1065 C1064 1.387 . S
C1065 C1067 1.387 . S
H1066 C1073 0.950 . S
C1067 C1065 1.387 . S
C1067 C1069 1.390 . S
C1067 H1071 0.950 . S
H1068 C1064 0.950 . S
C1069 C1067 1.390 . S
C1069 C1070 1.387 . S
C1069 H1072 0.950 . S
C1070 C1069 1.387 . S
C1070 C1073 1.387 . S
H1071 C1067 0.950 . S
H1072 C1069 0.950 . S
C1073 C1064 1.390 . S
C1073 H1066 0.950 . S
C1073 C1070 1.387 . S
C1074 C1075 1.387 . S
C1074 H1078 0.950 . S
C1074 C1083 1.390 . S
C1075 C1074 1.387 . S
C1075 C1077 1.387 . S
H1076 C1083 0.950 . S
C1077 C1075 1.387 . S
C1077 C1079 1.390 . S
C1077 H1081 0.950 . S
H1078 C1074 0.950 . S
C1079 C1077 1.390 . S
C1079 C1080 1.387 . S
C1079 H1082 0.950 . S
C1080 C1079 1.387 . S
C1080 C1083 1.387 . S
H1081 C1077 0.950 . S
H1082 C1079 0.950 . S
C1083 C1074 1.390 . S
C1083 H1076 0.950 . S
C1083 C1080 1.387 . S
C1084 C1085 1.387 . S
C1084 H1088 0.950 . S
C1084 C1093 1.390 . S
C1085 C1084 1.387 . S
C1085 C1087 1.387 . S
H1086 C1093 0.950 . S
C1087 C1085 1.387 . S
C1087 C1089 1.390 . S
C1087 H1091 0.950 . S
H1088 C1084 0.950 . S
C1089 C1087 1.390 . S
C1089 C1090 1.387 . S
C1089 H1092 0.950 . S
C1090 C1089 1.387 . S
C1090 C1093 1.387 . S
H1091 C1087 0.950 . S
H1092 C1089 0.950 . S
C1093 C1084 1.390 . S
C1093 H1086 0.950 . S
C1093 C1090 1.387 . S
C1094 C1095 1.387 . S
C1094 H1098 0.950 . S
C1094 C1103 1.390 . S
C1095 C1094 1.387 . S
C1095 C1097 1.387 . S
H1096 C1103 0.950 . S
C1097 C1095 1.387 . S
C1097 C1099 1.390 . S
C1097 H1101 0.950 . S
H1098 C1094 0.950 . S
C1099 C1097 1.390 . S
C1099 C1100 1.387 . S
C1099 H1102 0.950 . S
C1100 C1099 1.387 . S
C1100 C1103 1.387 . S
H1101 C1097 0.950 . S
H1102 C1099 0.950 . S
C1103 C1094 1.390 . S
C1103 H1096 0.950 . S
C1103 C1100 1.387 . S
C1104 C1105 1.387 . S
C1104 H1108 0.950 . S
C1104 C1113 1.390 . S
C1105 C1104 1.387 . S
C1105 C1107 1.387 . S
H1106 C1113 0.950 . S
C1107 C1105 1.387 . S
C1107 C1109 1.390 . S
C1107 H1111 0.950 . S
H1108 C1104 0.950 . S
C1109 C1107 1.390 . S
C1109 C1110 1.387 . S
C1109 H1112 0.950 . S
C1110 C1109 1.387 . S
C1110 C1113 1.387 . S
H1111 C1107 0.950 . S
H1112 C1109 0.950 . S
C1113 C1104 1.390 . S
C1113 H1106 0.950 . S
C1113 C1110 1.387 . S
C1114 C1115 1.387 . S
C1114 H1118 0.950 . S
C1114 C1123 1.390 . S
C1115 C1114 1.387 . S
C1115 C1117 1.387 . S
H1116 C1123 0.950 . S
C1117 C1115 1.387 . S
C1117 C1119 1.390 . S
C1117 H1121 0.950 . S
H1118 C1114 0.950 . S
C1119 C1117 1.390 . S
C1119 C1120 1.387 . S
C1119 H1122 0.950 . S
C1120 C1119 1.387 . S
C1120 C1123 1.387 . S
H1121 C1117 0.950 . S
H1122 C1119 0.950 . S
C1123 C1114 1.390 . S
C1123 H1116 0.950 . S
C1123 C1120 1.387 . S
C1124 C1125 1.387 . S
C1124 H1128 0.950 . S
C1124 C1133 1.390 . S
C1125 C1124 1.387 . S
C1125 C1127 1.387 . S
H1126 C1133 0.950 . S
C1127 C1125 1.387 . S
C1127 C1129 1.390 . S
C1127 H1131 0.950 . S
H1128 C1124 0.950 . S
C1129 C1127 1.390 . S
C1129 C1130 1.387 . S
C1129 H1132 0.950 . S
C1130 C1129 1.387 . S
C1130 C1133 1.387 . S
H1131 C1127 0.950 . S
H1132 C1129 0.950 . S
C1133 C1124 1.390 . S
C1133 H1126 0.950 . S
C1133 C1130 1.387 . S
C1134 C1135 1.387 . S
C1134 H1138 0.950 . S
C1134 C1143 1.390 . S
C1135 C1134 1.387 . S
C1135 C1137 1.387 . S
H1136 C1143 0.950 . S
C1137 C1135 1.387 . S
C1137 C1139 1.390 . S
C1137 H1141 0.950 . S
H1138 C1134 0.950 . S
C1139 C1137 1.390 . S
C1139 C1140 1.387 . S
C1139 H1142 0.950 . S
C1140 C1139 1.387 . S
C1140 C1143 1.387 . S
H1141 C1137 0.950 . S
H1142 C1139 0.950 . S
C1143 C1134 1.390 . S
C1143 H1136 0.950 . S
C1143 C1140 1.387 . S
C1144 C1145 1.387 . S
C1144 H1148 0.950 . S
C1144 C1153 1.390 . S
C1145 C1144 1.387 . S
C1145 C1147 1.387 . S
H1146 C1153 0.950 . S
C1147 C1145 1.387 . S
C1147 C1149 1.390 . S
C1147 H1151 0.950 . S
H1148 C1144 0.950 . S
C1149 C1147 1.390 . S
C1149 C1150 1.387 . S
C1149 H1152 0.950 . S
C1150 C1149 1.387 . S
C1150 C1153 1.387 . S
H1151 C1147 0.950 . S
H1152 C1149 0.950 . S
C1153 C1144 1.390 . S
C1153 H1146 0.950 . S
C1153 C1150 1.387 . S
C1154 C1155 1.387 . S
C1154 H1158 0.950 . S
C1154 C1163 1.390 . S
C1155 C1154 1.387 . S
C1155 C1157 1.387 . S
H1156 C1163 0.950 . S
C1157 C1155 1.387 . S
C1157 C1159 1.390 . S
C1157 H1161 0.950 . S
H1158 C1154 0.950 . S
C1159 C1157 1.390 . S
C1159 C1160 1.387 . S
C1159 H1162 0.950 . S
C1160 C1159 1.387 . S
C1160 C1163 1.387 . S
H1161 C1157 0.950 . S
H1162 C1159 0.950 . S
C1163 C1154 1.390 . S
C1163 H1156 0.950 . S
C1163 C1160 1.387 . S
C1164 C1165 1.387 . S
C1164 H1168 0.950 . S
C1164 C1173 1.390 . S
C1165 C1164 1.387 . S
C1165 C1167 1.387 . S
H1166 C1173 0.950 . S
C1167 C1165 1.387 . S
C1167 C1169 1.390 . S
C1167 H1171 0.950 . S
H1168 C1164 0.950 . S
C1169 C1167 1.390 . S
C1169 C1170 1.387 . S
C1169 H1172 0.950 . S
C1170 C1169 1.387 . S
C1170 C1173 1.387 . S
H1171 C1167 0.950 . S
H1172 C1169 0.950 . S
C1173 C1164 1.390 . S
C1173 H1166 0.950 . S
C1173 C1170 1.387 . S
C1174 C1175 1.387 . S
C1174 H1178 0.950 . S
C1174 C1183 1.390 . S
C1175 C1174 1.387 . S
C1175 C1177 1.387 . S
H1176 C1183 0.950 . S
C1177 C1175 1.387 . S
C1177 C1179 1.390 . S
C1177 H1181 0.950 . S
H1178 C1174 0.950 . S
C1179 C1177 1.390 . S
C1179 C1180 1.387 . S
C1179 H1182 0.950 . S
C1180 C1179 1.387 . S
C1180 C1183 1.387 . S
H1181 C1177 0.950 . S
H1182 C1179 0.950 . S
C1183 C1174 1.390 . S
C1183 H1176 0.950 . S
C1183 C1180 1.387 . S
C1184 C1185 1.387 . S
C1184 H1188 0.950 . S
C1184 C1193 1.390 . S
C1185 C1184 1.387 . S
C1185 C1187 1.387 . S
H1186 C1193 0.950 . S
C1187 C1185 1.387 . S
C1187 C1189 1.390 . S
C1187 H1191 0.950 . S
H1188 C1184 0.950 . S
C1189 C1187 1.390 . S
C1189 C1190 1.387 . S
C1189 H1192 0.950 . S
C1190 C1189 1.387 . S
C1190 C1193 1.387 . S
H1191 C1187 0.950 . S
H1192 C1189 0.950 . S
C1193 C1184 1.390 . S
C1193 H1186 0.950 . S
C1193 C1190 1.387 . S
C1194 C1195 1.387 . S
C1194 H1198 0.950 . S
C1194 C1203 1.390 . S
C1195 C1194 1.387 . S
C1195 C1197 1.387 . S
H1196 C1203 0.950 . S
C1197 C1195 1.387 . S
C1197 C1199 1.390 . S
C1197 H1201 0.950 . S
H1198 C1194 0.950 . S
C1199 C1197 1.390 . S
C1199 C1200 1.387 . S
C1199 H1202 0.950 . S
C1200 C1199 1.387 . S
C1200 C1203 1.387 . S
H1201 C1197 0.950 . S
H1202 C1199 0.950 . S
C1203 C1194 1.390 . S
C1203 H1196 0.950 . S
C1203 C1200 1.387 . S
C1204 C1205 1.387 . S
C1204 H1208 0.950 . S
C1204 C1213 1.390 . S
C1205 C1204 1.387 . S
C1205 C1207 1.387 . S
H1206 C1213 0.950 . S
C1207 C1205 1.387 . S
C1207 C1209 1.390 . S
C1207 H1211 0.950 . S
H1208 C1204 0.950 . S
C1209 C1207 1.390 . S
C1209 C1210 1.387 . S
C1209 H1212 0.950 . S
C1210 C1209 1.387 . S
C1210 C1213 1.387 . S
H1211 C1207 0.950 . S
H1212 C1209 0.950 . S
C1213 C1204 1.390 . S
C1213 H1206 0.950 . S
C1213 C1210 1.387 . S
C1214 C1215 1.387 . S
C1214 H1218 0.950 . S
C1214 C1223 1.390 . S
C1215 C1214 1.387 . S
C1215 C1217 1.387 . S
H1216 C1223 0.950 . S
C1217 C1215 1.387 . S
C1217 C1219 1.390 . S
C1217 H1221 0.950 . S
H1218 C1214 0.950 . S
C1219 C1217 1.390 . S
C1219 C1220 1.387 . S
C1219 H1222 0.950 . S
C1220 C1219 1.387 . S
C1220 C1223 1.387 . S
H1221 C1217 0.950 . S
H1222 C1219 0.950 . S
C1223 C1214 1.390 . S
C1223 H1216 0.950 . S
C1223 C1220 1.387 . S
C505 C35 1.383 . S
C510 C256 1.182 . S
C515 C7 1.391 . S
C520 C272 1.182 . S
C530 C255 1.178 . S
C525 C23 1.344 . S
C540 C280 1.159 . S
C535 C37 1.336 . S
C545 C9 1.361 . S
C550 C289 1.189 . S
C560 C292 1.182 . S
C555 C21 1.380 1_455 S
C565 C77 1.383 . S
C570 C298 1.179 . S
C580 C314 1.183 . S
C575 C49 1.391 . S
C590 C297 1.182 . S
C585 C65 1.346 . S
C595 C79 1.336 . S
C600 C322 1.161 . S
C610 C331 1.189 . S
C605 C51 1.361 . S
C620 C334 1.182 . S
C615 C63 1.380 . S
C630 C343 1.178 . S
C625 C119 1.384 . S
C640 C355 1.189 . S
C635 C91 1.389 . S
C650 C352 1.184 . S
C645 C107 1.345 . S
C655 C121 1.336 . S
C660 C361 1.156 . S
C670 C360 1.189 . S
C665 C93 1.361 . S
C675 C105 1.380 . S
C680 C377 1.183 . S
C690 C382 1.180 . S
C685 C161 1.383 . S
C700 C398 1.188 . S
C695 C133 1.389 . S
C705 C149 1.346 . S
C710 C381 1.179 . S
C720 C406 1.160 . S
C715 C163 1.339 . S
C730 C415 1.189 . S
C725 C135 1.360 . S
C735 C147 1.382 . S
C740 C418 1.177 . S
C745 C203 1.383 . S
C750 C427 1.180 . S
C760 C439 1.189 . S
C755 C175 1.389 . S
C770 C436 1.177 . S
C765 C191 1.345 . S
C775 C205 1.339 . S
C780 C445 1.160 . S
C790 C444 1.196 . S
C785 C177 1.361 . S
C795 C189 1.382 . S
C800 C461 1.177 . S
C810 C466 1.181 . S
C805 C245 1.383 . S
C820 C482 1.189 . S
C815 C217 1.389 . S
C825 C233 1.344 . S
C830 C465 1.183 . S
C840 C487 1.161 . S
C835 C247 1.339 . S
C850 C486 1.189 . S
C845 C219 1.361 . S
C860 C503 1.181 . S
C855 C231 1.381 . S
C870 C268 1.500 . S
C865 C162 1.599 . S
C875 C134 1.598 . S
C880 C271 1.490 . S
C890 C259 1.455 . S
C885 C143 1.575 . S
C895 C241 1.608 . S
C900 C276 1.507 . S
C905 C213 1.608 . S
C910 C277 1.491 . S
C920 C293 1.513 . S
C915 C232 1.610 . S
C930 C310 1.504 . S
C925 C204 1.600 . S
C940 C313 1.490 . S
C935 C176 1.598 . S
C945 C185 1.575 . S
C950 C301 1.455 . S
C960 C318 1.505 . S
C955 C115 1.608 . S
C965 C87 1.607 . S
C970 C319 1.488 . S
C975 C106 1.610 . S
C980 C335 1.513 . S
C985 C246 1.600 . S
C990 C339 1.501 . S
C995 C218 1.599 . S
C1000 C356 1.494 . S
C1010 C340 1.455 . S
C1005 C227 1.575 . S
C1020 C373 1.507 . S
C1015 C73 1.608 . S
C1030 C364 1.487 . S
C1025 C45 1.607 . S
C1035 C64 1.609 . S
C1040 C376 1.517 . S
C1050 C394 1.504 . S
C1045 C36 1.599 . S
C1060 C397 1.491 . S
C1055 C8 1.598 . S
C1065 C17 1.575 . S
C1070 C385 1.457 . S
C1080 C402 1.505 . S
C1075 C199 1.607 . S
C1090 C403 1.490 . S
C1085 C171 1.608 . S
C1100 C419 1.517 . S
C1095 C190 1.609 . S
C1110 C423 1.501 . S
C1105 C78 1.600 . S
C1120 C440 1.493 . S
C1115 C50 1.599 . S
C1125 C59 1.575 . S
C1130 C424 1.456 . S
C1135 C157 1.608 . S
C1140 C457 1.504 . S
C1145 C129 1.607 . S
C1150 C448 1.487 . S
C1160 C460 1.517 . S
C1155 C148 1.609 . S
C1165 C120 1.599 . S
C1170 C478 1.500 . S
C1175 C92 1.598 . S
C1180 C481 1.491 . S
C1190 C469 1.454 . S
C1185 C101 1.574 . S
C1200 C499 1.505 . S
C1195 C31 1.607 . S
C1210 C490 1.487 . S
C1205 C3 1.607 . S
C1215 C22 1.609 . S
C1220 C502 1.517 . S
