# Generated by pormake.
# Topology csq, (4,8)-cn, num edge types: 1
# Building blocks:
#     Node 0, Type 0, BuildingBlock: MUDLON_clean_sbu_0, # of connection points: 4
#     Node 1, Type 0, BuildingBlock: MUDLON_clean_sbu_0, # of connection points: 4
#     Node 2, Type 0, BuildingBlock: MUDLON_clean_sbu_0, # of connection points: 4
#     Node 3, Type 0, BuildingBlock: MUDLON_clean_sbu_0, # of connection points: 4
#     Node 4, Type 0, BuildingBlock: MUDLON_clean_sbu_0, # of connection points: 4
#     Node 5, Type 0, BuildingBlock: MUDLON_clean_sbu_0, # of connection points: 4
#     Node 6, Type 1, BuildingBlock: TAGTUT_clean_sbu_1, # of connection points: 8
#     Node 7, Type 1, BuildingBlock: TAGTUT_clean_sbu_1, # of connection points: 8
#     Node 8, Type 1, BuildingBlock: TAGTUT_clean_sbu_1, # of connection points: 8
#     Edge 9, Type (0, 1), BuildingBlock: EZIPEK_clean_linker_0, # of connection points: 2
#     Edge 10, Type (0, 1), BuildingBlock: EZIPEK_clean_linker_0, # of connection points: 2
#     Edge 11, Type (0, 1), BuildingBlock: EZIPEK_clean_linker_0, # of connection points: 2
#     Edge 12, Type (0, 1), BuildingBlock: EZIPEK_clean_linker_0, # of connection points: 2
#     Edge 13, Type (0, 1), BuildingBlock: EZIPEK_clean_linker_0, # of connection points: 2
#     Edge 14, Type (0, 1), BuildingBlock: EZIPEK_clean_linker_0, # of connection points: 2
#     Edge 15, Type (0, 1), BuildingBlock: EZIPEK_clean_linker_0, # of connection points: 2
#     Edge 16, Type (0, 1), BuildingBlock: EZIPEK_clean_linker_0, # of connection points: 2
#     Edge 17, Type (0, 1), BuildingBlock: EZIPEK_clean_linker_0, # of connection points: 2
#     Edge 18, Type (0, 1), BuildingBlock: EZIPEK_clean_linker_0, # of connection points: 2
#     Edge 19, Type (0, 1), BuildingBlock: EZIPEK_clean_linker_0, # of connection points: 2
#     Edge 20, Type (0, 1), BuildingBlock: EZIPEK_clean_linker_0, # of connection points: 2
#     Edge 21, Type (0, 1), BuildingBlock: EZIPEK_clean_linker_0, # of connection points: 2
#     Edge 22, Type (0, 1), BuildingBlock: EZIPEK_clean_linker_0, # of connection points: 2
#     Edge 23, Type (0, 1), BuildingBlock: EZIPEK_clean_linker_0, # of connection points: 2
#     Edge 24, Type (0, 1), BuildingBlock: EZIPEK_clean_linker_0, # of connection points: 2
#     Edge 25, Type (0, 1), BuildingBlock: EZIPEK_clean_linker_0, # of connection points: 2
#     Edge 26, Type (0, 1), BuildingBlock: EZIPEK_clean_linker_0, # of connection points: 2
#     Edge 27, Type (0, 1), BuildingBlock: EZIPEK_clean_linker_0, # of connection points: 2
#     Edge 28, Type (0, 1), BuildingBlock: EZIPEK_clean_linker_0, # of connection points: 2
#     Edge 29, Type (0, 1), BuildingBlock: EZIPEK_clean_linker_0, # of connection points: 2
#     Edge 30, Type (0, 1), BuildingBlock: EZIPEK_clean_linker_0, # of connection points: 2
#     Edge 31, Type (0, 1), BuildingBlock: EZIPEK_clean_linker_0, # of connection points: 2
#     Edge 32, Type (0, 1), BuildingBlock: EZIPEK_clean_linker_0, # of connection points: 2
# Relax obj value: 0.062
# Max RMSD: 0.133
# Mean RMSD: 0.096
data_MOF--net-csq--node1-MUDLON_clean_sbu_0--node2-TAGTUT_clean_sbu_1--edge1-EZIPEK_clean_linker_0
_symmetry_space_group_name_H-M    P1
_symmetry_Int_Tables_number       1
_symmetry_cell_setting            triclinic
loop_
_symmetry_equiv_pos_as_xyz
'x, y, z'
_cell_length_a     37.300478
_cell_length_b     36.902916
_cell_length_c     15.252135
_cell_angle_alpha  92.062042
_cell_angle_beta   93.644263
_cell_angle_gamma 119.48747
loop_
_atom_site_label
_atom_site_type_symbol
_atom_site_fract_x
_atom_site_fract_y
_atom_site_fract_z
_atom_type_partial_charge
Mg0 Mg 0.24922 0.48989 0.21124 0.0
C1 C 0.20868 0.45963 0.01981 0.0
O2 O 0.24627 0.47002 1.002 0.0
C3 C 0.29506 0.47886 0.3568 0.0
O4 O 0.31421 0.51873 0.34284 0.0
C5 C 0.19111 0.4969 0.31898 0.0
O6 O 0.17255 0.45831 0.28343 0.0
O7 O 0.22735 0.52216 0.29818 0.0
O8 O 0.20065 0.46045 0.0998 0.0
O9 O 0.30791 0.52087 0.14996 0.0
C10 C 0.31669 0.49329 0.12286 0.0
O11 O 0.29202 0.45428 0.13875 0.0
O12 O 0.26194 0.45446 0.30814 0.0
Mg13 Mg 0.782 0.24571 0.1978 0.0
C14 C 0.83492 0.26156 0.04252 0.0
O15 O 0.7997 0.23799 0.99497 0.0
C16 C 0.76826 0.20924 0.37794 0.0
O17 O 0.78989 0.2488 0.40677 0.0
C18 C 0.82981 0.33939 0.24097 0.0
O19 O 0.83185 0.34003 0.1555 0.0
O20 O 0.80456 0.30566 0.27296 0.0
O21 O 0.83631 0.26227 0.12625 0.0
O22 O 0.72777 0.21926 0.10078 0.0
C23 C 0.72227 0.18531 0.06282 0.0
O24 O 0.74862 0.17262 0.0858 0.0
O25 O 0.7644 0.19905 0.29568 0.0
Mg26 Mg 0.50595 0.74012 0.07126 0.0
C27 C 0.55701 0.80286 0.22668 0.0
O28 O 0.58416 0.79378 0.19694 0.0
C29 C 0.53352 0.71868 0.90484 0.0
O30 O 0.5623 0.75782 0.92364 0.0
C31 C 0.52739 0.82467 0.98824 0.0
O32 O 0.56449 0.83415 0.02181 0.0
O33 O 0.49724 0.78826 0.99489 0.0
O34 O 0.51938 0.78203 0.19507 0.0
O35 O 0.51039 0.68917 0.14722 0.0
C36 C 0.48502 0.65077 0.12378 0.0
O37 O 0.45658 0.64089 0.05793 0.0
O38 O 0.50158 0.70313 0.94684 0.0
Mg39 Mg 0.7717 0.53924 0.10428 0.0
C40 C 0.73644 0.53785 0.92738 0.0
O41 O 0.73002 0.50004 0.93842 0.0
C42 C 0.82727 0.55806 0.26402 0.0
O43 O 0.81477 0.51902 0.23814 0.0
C44 C 0.70819 0.48691 0.23714 0.0
O45 O 0.73173 0.47052 0.25577 0.0
O46 O 0.71445 0.50871 0.17109 0.0
O47 O 0.7538 0.56484 0.9932 0.0
O48 O 0.80475 0.5121 0.03737 0.0
C49 C 0.83167 0.53935 0.99225 0.0
O50 O 0.83526 0.57661 0.99298 0.0
O51 O 0.81584 0.57879 0.21581 0.0
Mg52 Mg 0.23936 0.79191 0.12551 0.0
C53 C 0.22021 0.70804 0.02582 0.0
O54 O 0.25839 0.72624 1.00395 0.0
C55 C 0.32261 0.82431 0.25011 0.0
O56 O 0.33352 0.80318 0.19758 0.0
C57 C 0.18221 0.75982 0.24834 0.0
O58 O 0.21046 0.74861 0.26087 0.0
O59 O 0.1863 0.78494 0.18951 0.0
O60 O 0.20996 0.72633 0.08239 0.0
O61 O 0.25643 0.82638 1.00667 0.0
C62 C 0.29169 0.83595 0.981 0.0
O63 O 0.31568 0.82564 0.02758 0.0
O64 O 0.28782 0.82234 0.23451 0.0
Mg65 Mg 0.47942 0.23939 0.22758 0.0
C66 C 0.45288 0.25436 0.40098 0.0
O67 O 0.46515 0.22843 0.42763 0.0
C68 C 0.43729 0.19561 0.05257 0.0
O69 O 0.46223 0.23368 0.0316 0.0
C70 C 0.52644 0.33128 0.20611 0.0
O71 O 0.52833 0.33202 0.29238 0.0
O72 O 0.51351 0.29662 0.16144 0.0
O73 O 0.45034 0.25954 0.31965 0.0
O74 O 0.51062 0.21104 0.29883 0.0
C75 C 0.51558 0.18307 0.25929 0.0
O76 O 0.51119 0.17871 0.17275 0.0
O77 O 0.43584 0.1895 0.13383 0.0
C78 C 0.96171 0.39448 0.86741 0.0
C79 C 0.08232 0.45549 0.78421 0.0
C80 C 0.07197 0.59739 0.80683 0.0
Mg81 Mg 0.99588 0.42218 0.68639 0.0
O82 O 0.99577 0.47033 0.72969 0.0
Mg83 Mg 0.02474 0.49742 0.84854 0.0
Mg84 Mg 0.01445 0.52037 0.66069 0.0
O85 O 0.03263 0.57056 0.59205 0.0
Mg86 Mg 0.02662 0.61501 0.63817 0.0
Mg87 Mg 1.00409 0.54343 0.47294 0.0
C88 C 0.95612 0.44289 0.51352 0.0
C89 C 0.07583 0.51938 0.51492 0.0
O90 O 0.98346 0.4323 0.90155 0.0
O91 O 0.96057 0.38396 0.78588 0.0
O92 O 0.07418 0.47913 0.832 0.0
O93 O 0.05817 0.43246 0.71745 0.0
O94 O 0.96367 0.41726 0.55544 0.0
O95 O 0.97029 0.48102 0.54273 0.0
C96 C 0.95478 0.52365 0.80817 0.0
O97 O 0.96332 0.52883 0.7275 0.0
O98 O 0.97447 0.51317 0.86333 0.0
O99 O 0.04393 0.6098 0.42372 0.0
O100 O 0.05925 0.65641 0.53972 0.0
O101 O 0.95309 0.55935 0.48785 0.0
C102 C 0.06201 0.64753 0.45921 0.0
O103 O 0.96299 0.60086 0.60796 0.0
O104 O 0.06094 0.62118 0.76703 0.0
C105 C 0.94157 0.57962 0.537 0.0
O106 O 0.05946 0.55963 0.77747 0.0
O107 O 0.06616 0.51291 0.59469 0.0
O108 O 0.05618 0.52992 0.45957 0.0
C109 C 0.4431 0.07034 0.84005 0.0
C110 C 0.39075 0.94451 0.74233 0.0
C111 C 0.53816 0.95712 0.79479 0.0
Mg112 Mg 0.44046 0.02688 0.65954 0.0
O113 O 0.49079 0.03566 0.71675 0.0
Mg114 Mg 0.48828 0.01035 0.83183 0.0
Mg115 Mg 0.51963 0.01163 0.65169 0.0
O116 O 0.54795 0.98746 0.58514 0.0
Mg117 Mg 0.59677 0.99051 0.63525 0.0
Mg118 Mg 0.54869 0.01104 0.46859 0.0
C119 C 0.49971 0.06316 0.50318 0.0
C120 C 0.45301 0.9452 0.49435 0.0
O121 O 0.46272 0.05391 0.87911 0.0
O122 O 0.43176 0.06393 0.75727 0.0
O123 O 0.42183 0.9586 0.79953 0.0
O124 O 0.39134 0.96325 0.67307 0.0
O125 O 0.46605 0.05524 0.53704 0.0
O126 O 0.5247 0.05173 0.53689 0.0
C127 C 0.58466 0.07689 0.81266 0.0
O128 O 0.58057 0.06383 0.73126 0.0
O129 O 0.55456 0.0616 0.86087 0.0
O130 O 0.56926 0.96449 0.41795 0.0
O131 O 0.59696 0.94819 0.53565 0.0
O132 O 0.61627 0.06224 0.49801 0.0
C133 C 0.58457 0.94343 0.45367 0.0
O134 O 0.64761 0.05302 0.61823 0.0
O135 O 0.57037 0.96284 0.75731 0.0
C136 C 0.64794 0.07399 0.55289 0.0
O137 O 0.51452 0.97098 0.76468 0.0
O138 O 0.45855 0.95897 0.57539 0.0
O139 O 0.48197 0.96018 0.44338 0.0
C140 C 0.5154 0.54349 0.33803 0.0
C141 C 0.59759 0.50186 0.46296 0.0
C142 C 0.46326 0.39138 0.61664 0.0
Mg143 Mg 0.56446 0.56087 0.5208 0.0
O144 O 0.51351 0.51477 0.54027 0.0
Mg145 Mg 0.49338 0.4621 0.46354 0.0
Mg146 Mg 0.50759 0.49257 0.65808 0.0
O147 O 0.50359 0.47155 0.77784 0.0
Mg148 Mg 0.45648 0.42531 0.8102 0.0
Mg149 Mg 0.52982 0.52453 0.85667 0.0
C150 C 0.55046 0.59322 0.70704 0.0
C151 C 0.60241 0.52714 0.74681 0.0
O152 O 0.49697 0.50387 0.34683 0.0
O153 O 0.54219 0.57063 0.3966 0.0
O154 O 0.55967 0.4735 0.44528 0.0
O155 O 0.60667 0.53788 0.49698 0.0
O156 O 0.56878 0.60132 0.63566 0.0
O157 O 0.52581 0.55589 0.72626 0.0
C158 C 0.41626 0.4614 0.55321 0.0
O159 O 0.43745 0.47431 0.62922 0.0
O160 O 0.4312 0.45411 0.486 0.0
O161 O 0.53348 0.48443 0.97077 0.0
O162 O 0.4869 0.41744 0.92579 0.0
O163 O 0.46721 0.51343 0.89849 0.0
C164 C 0.51594 0.44493 0.98034 0.0
O165 O 0.41658 0.44848 0.85589 0.0
O166 O 0.44794 0.38477 0.69173 0.0
C167 C 0.42932 0.48483 0.89394 0.0
O168 O 0.48856 0.42837 0.59489 0.0
O169 O 0.57729 0.51125 0.67706 0.0
O170 O 0.59089 0.53456 0.81877 0.0
C171 C 0.16562 0.54466 0.3796 0.0
C172 C 0.16964 0.50845 0.38493 0.0
C173 C 0.1154 0.481 0.48739 0.0
C174 C 0.11211 0.51756 0.48378 0.0
N175 N 0.14409 0.58975 0.4505 0.0
N176 N 0.15917 0.45045 0.46935 0.0
C177 C 0.14069 0.55128 0.43795 0.0
C178 C 0.14808 0.47937 0.4474 0.0
N179 N 0.18296 0.57133 0.31549 0.0
N180 N 0.08593 0.4467 0.52312 0.0
H181 H 0.18422 0.44967 0.44441 0.0
H182 H 0.14673 0.43077 0.51972 0.0
H183 H 0.06043 0.44587 0.54923 0.0
H184 H 0.08479 0.4179 0.51915 0.0
H185 H 0.17678 0.5954 0.30295 0.0
H186 H 0.20055 0.56746 0.26967 0.0
H187 H 0.16678 0.61629 0.42459 0.0
H188 H 0.1272 0.59592 0.49481 0.0
C189 C 0.74671 0.14131 0.44684 0.0
C190 C 0.74272 0.17737 0.43825 0.0
C191 C 0.68727 0.1503 0.53763 0.0
C192 C 0.68638 0.11156 0.53297 0.0
N193 N 0.71405 0.06877 0.48096 0.0
N194 N 0.70537 0.21408 0.46778 0.0
C195 C 0.71625 0.10685 0.48823 0.0
C196 C 0.71248 0.18175 0.48292 0.0
N197 N 0.77987 0.14025 0.41632 0.0
N198 N 0.66336 0.15659 0.59372 0.0
H199 H 0.72147 0.23691 0.42513 0.0
H200 H 0.68075 0.21617 0.49103 0.0
H201 H 0.64465 0.13375 0.63415 0.0
H202 H 0.66526 0.18542 0.60661 0.0
H203 H 0.78669 0.11657 0.42789 0.0
H204 H 0.80274 0.16509 0.38622 0.0
H205 H 0.73137 0.06177 0.43968 0.0
H206 H 0.69315 0.0433 0.51288 0.0
C207 C 0.52266 0.61093 0.15364 0.0
C208 C 0.48862 0.61711 0.16716 0.0
C209 C 0.46546 0.56461 0.2759 0.0
C210 C 0.50074 0.56016 0.26587 0.0
N211 N 0.55671 0.57004 0.18227 0.0
N212 N 0.42181 0.59222 0.22226 0.0
C213 C 0.5273 0.58042 0.20007 0.0
C214 C 0.45794 0.59118 0.22164 0.0
N215 N 0.55073 0.63469 0.09734 0.0
N216 N 0.44071 0.54565 0.34144 0.0
H217 H 0.41596 0.61274 0.18707 0.0
H218 H 0.39633 0.57066 0.25233 0.0
H219 H 0.44412 0.52465 0.38022 0.0
H220 H 0.41787 0.55195 0.36024 0.0
H221 H 0.5785 0.63509 0.09067 0.0
H222 H 0.54678 0.65542 0.05874 0.0
H223 H 0.57543 0.58099 0.13078 0.0
H224 H 0.55992 0.54733 0.21524 0.0
C225 C 0.8934 0.60945 0.35623 0.0
C226 C 0.85244 0.57523 0.35065 0.0
C227 C 0.86701 0.55423 0.49368 0.0
C228 C 0.90854 0.58621 0.49556 0.0
N229 N 0.95799 0.65243 0.44748 0.0
N230 N 0.79662 0.52594 0.4285 0.0
C231 C 0.9203 0.61697 0.43362 0.0
C232 C 0.83804 0.5513 0.42467 0.0
N233 N 0.90768 0.63254 0.28549 0.0
N234 N 0.85595 0.52546 0.55511 0.0
H235 H 0.7751 0.52512 0.38045 0.0
H236 H 0.78377 0.50973 0.48308 0.0
H237 H 0.87655 0.52837 0.60822 0.0
H238 H 0.82729 0.49828 0.55142 0.0
H239 H 0.9387 0.65427 0.28156 0.0
H240 H 0.88889 0.62845 0.22827 0.0
H241 H 0.96742 0.6776 0.40852 0.0
H242 H 0.97818 0.65812 0.50342 0.0
C243 C 0.36047 0.89569 0.33198 0.0
C244 C 0.35213 0.85361 0.32361 0.0
C245 C 0.40488 0.86971 0.44651 0.0
C246 C 0.41232 0.91126 0.45495 0.0
N247 N 0.38778 0.95923 0.42757 0.0
N248 N 0.35854 0.79811 0.38849 0.0
C249 C 0.38665 0.92253 0.40522 0.0
C250 C 0.37192 0.83978 0.38584 0.0
N251 N 0.34633 0.91125 0.26676 0.0
N252 N 0.43018 0.85929 0.49454 0.0
H253 H 0.3338 0.77534 0.34668 0.0
H254 H 0.36927 0.78587 0.43738 0.0
H255 H 0.45321 0.88012 0.54227 0.0
H256 H 0.42953 0.83091 0.48433 0.0
H257 H 0.35512 0.94277 0.26624 0.0
H258 H 0.32976 0.89402 0.20823 0.0
H259 H 0.36731 0.96773 0.39809 0.0
H260 H 0.40642 0.97886 0.48215 0.0
C261 C 0.41793 0.289 0.47295 0.0
C262 C 0.45425 0.28646 0.46392 0.0
C263 C 0.4951 0.35037 0.56149 0.0
C264 C 0.45943 0.35473 0.56478 0.0
N265 N 0.38501 0.32175 0.54943 0.0
N266 N 0.5284 0.31644 0.49149 0.0
C267 C 0.42021 0.3222 0.52782 0.0
C268 C 0.49305 0.31732 0.50685 0.0
N269 N 0.38146 0.26014 0.42721 0.0
N270 N 0.53022 0.37628 0.61529 0.0
H271 H 0.52894 0.29355 0.45057 0.0
H272 H 0.55804 0.34007 0.51393 0.0
H273 H 0.53279 0.40018 0.65841 0.0
H274 H 0.55562 0.37183 0.62435 0.0
H275 H 0.3551 0.26311 0.42116 0.0
H276 H 0.3781 0.23397 0.39087 0.0
H277 H 0.35528 0.29704 0.53174 0.0
H278 H 0.38544 0.34439 0.59281 0.0
C279 C 0.53549 0.89651 0.99105 0.0
C280 C 0.52107 0.85685 0.94499 0.0
C281 C 0.50009 0.88148 0.81496 0.0
C282 C 0.5224 0.92285 0.85459 0.0
N283 N 0.5583 0.97033 0.98166 0.0
N284 N 0.49177 0.81214 0.80996 0.0
C285 C 0.53885 0.93047 0.94359 0.0
C286 C 0.50303 0.8491 0.85663 0.0
N287 N 0.54495 0.90126 0.08029 0.0
N288 N 0.47687 0.87346 0.73631 0.0
H289 H 0.49455 0.78791 0.83642 0.0
H290 H 0.48299 0.80676 0.74248 0.0
H291 H 0.47426 0.8967 0.70444 0.0
H292 H 0.45689 0.84344 0.70764 0.0
H293 H 0.55288 0.92844 0.11888 0.0
H294 H 0.54111 0.87651 0.11712 0.0
H295 H 0.57565 0.9794 0.04264 0.0
H296 H 0.55759 0.99461 0.94999 0.0
C297 C 0.71147 0.58072 0.84131 0.0
C298 C 0.716 0.54488 0.84661 0.0
C299 C 0.65646 0.50548 0.73754 0.0
C300 C 0.64626 0.53741 0.74926 0.0
N301 N 0.67121 0.61058 0.77655 0.0
N302 N 0.70999 0.48655 0.75776 0.0
C303 C 0.67659 0.57708 0.78909 0.0
C304 C 0.69406 0.51145 0.78062 0.0
N305 N 0.74032 0.61765 0.88511 0.0
N306 N 0.6295 0.46883 0.69019 0.0
H307 H 0.73938 0.49317 0.78337 0.0
H308 H 0.69681 0.46331 0.7061 0.0
H309 H 0.60313 0.46459 0.65306 0.0
H310 H 0.63299 0.44249 0.68936 0.0
H311 H 0.73691 0.6439 0.89212 0.0
H312 H 0.76899 0.62245 0.91112 0.0
H313 H 0.69197 0.641 0.80157 0.0
H314 H 0.64657 0.60778 0.73461 0.0
C315 C 0.15337 0.63976 1.00505 0.0
C316 C 0.18578 0.67406 0.96734 0.0
C317 C 0.14704 0.64801 0.82258 0.0
C318 C 0.11174 0.61931 0.86264 0.0
N319 N 0.08022 0.58748 0.99235 0.0
N320 N 0.2072 0.71608 0.84177 0.0
C321 C 0.11463 0.61461 0.95404 0.0
C322 C 0.1814 0.67938 0.87618 0.0
N323 N 0.15977 0.63139 0.0893 0.0
N324 N 0.14755 0.64579 0.73301 0.0
H325 H 0.22968 0.74239 0.87986 0.0
H326 H 0.20247 0.72229 0.77721 0.0
H327 H 0.12301 0.62275 0.69111 0.0
H328 H 0.17407 0.66399 0.70164 0.0
H329 H 0.13866 0.60499 0.11828 0.0
H330 H 0.18798 0.64905 0.12742 0.0
H331 H 0.07919 0.58576 0.06021 0.0
H332 H 0.05184 0.5684 0.95591 0.0
C333 C 0.40445 0.11777 0.01116 0.0
C334 C 0.42309 0.15942 0.98563 0.0
C335 C 0.4494 0.14068 0.86044 0.0
C336 C 0.43506 0.1002 0.8903 0.0
N337 N 0.39051 0.04643 0.98018 0.0
N338 N 0.43926 0.20046 0.86012 0.0
C339 C 0.40987 0.08744 0.96175 0.0
C340 C 0.43774 0.16764 0.90158 0.0
N341 N 0.38065 0.10738 0.08042 0.0
N342 N 0.47615 0.1545 0.79634 0.0
H343 H 0.42707 0.2182 0.88614 0.0
H344 H 0.44707 0.20609 0.79563 0.0
H345 H 0.48769 0.13683 0.76726 0.0
H346 H 0.49023 0.18524 0.7788 0.0
H347 H 0.36926 0.07916 0.10932 0.0
H348 H 0.37099 0.12721 0.10721 0.0
H349 H 0.37053 0.03427 0.02912 0.0
H350 H 0.39295 0.02353 0.9432 0.0
C351 C 0.37696 0.4841 0.10031 0.0
C352 C 0.35289 0.50235 0.07274 0.0
C353 C 0.385 0.51638 0.93247 0.0
C354 C 0.40269 0.49111 0.95414 0.0
N355 N 0.41562 0.45037 0.0591 0.0
N356 N 0.33455 0.53749 0.96304 0.0
C357 C 0.3989 0.47504 0.03847 0.0
C358 C 0.35759 0.51969 0.98951 0.0
N359 N 0.37931 0.47617 0.18679 0.0
N360 N 0.39462 0.53734 0.85776 0.0
H361 H 0.31641 0.54308 1.00447 0.0
H362 H 0.3322 0.54542 0.89895 0.0
H363 H 0.41352 0.53447 0.81372 0.0
H364 H 0.38641 0.55973 0.84256 0.0
H365 H 0.39932 0.46657 0.2138 0.0
H366 H 0.36439 0.48367 0.23388 0.0
H367 H 0.4096 0.43362 0.11496 0.0
H368 H 0.43349 0.44425 0.01767 0.0
C369 C 0.85923 0.32475 0.95648 0.0
C370 C 0.86846 0.29678 1.00169 0.0
C371 C 0.94138 0.33858 0.97342 0.0
C372 C 0.9308 0.36298 0.91939 0.0
N373 N 0.87964 0.37804 0.85265 0.0
N374 N 0.91722 0.27481 0.04867 0.0
C375 C 0.88972 0.35569 0.90903 0.0
C376 C 0.90938 0.30328 1.00967 0.0
N377 N 0.82208 0.32328 0.96254 0.0
N378 N 0.982 0.34947 0.99045 0.0
H379 H 0.89448 0.24864 0.07565 0.0
H380 H 0.94536 0.27531 0.04878 0.0
H381 H 0.00585 0.37502 0.96413 0.0
H382 H 0.99239 0.33548 0.03574 0.0
H383 H 0.8156 0.34586 0.93958 0.0
H384 H 0.799 0.30224 0.99886 0.0
H385 H 0.84931 0.3703 0.83288 0.0
H386 H 0.90145 0.40295 0.82082 0.0
C387 C 0.84922 0.50297 0.87174 0.0
C388 C 0.86208 0.5324 0.94603 0.0
C389 C 0.93429 0.56214 0.91216 0.0
C390 C 0.92205 0.53042 0.8432 0.0
N391 N 0.86853 0.46737 0.76314 0.0
N392 N 0.9175 0.58418 0.04757 0.0
C393 C 0.87961 0.50003 0.8241 0.0
C394 C 0.90485 0.56043 0.96901 0.0
N395 N 0.80806 0.47863 0.84523 0.0
N396 N 0.97423 0.59432 0.9225 0.0
H397 H 0.89694 0.58254 0.09267 0.0
H398 H 0.9484 0.60214 0.07229 0.0
H399 H 0.99637 0.5967 0.88103 0.0
H400 H 0.98433 0.62057 0.96607 0.0
H401 H 0.7968 0.46031 0.78574 0.0
H402 H 0.78506 0.47863 0.88055 0.0
H403 H 0.83891 0.4415 0.75359 0.0
H404 H 0.88972 0.46495 0.72541 0.0
C405 C 0.30712 0.89675 0.88775 0.0
C406 C 0.30659 0.85841 0.89988 0.0
C407 C 0.34997 0.87056 0.77697 0.0
C408 C 0.35201 0.90948 0.76851 0.0
N409 N 0.32222 0.95324 0.79325 0.0
N410 N 0.31774 0.80359 0.83987 0.0
C411 C 0.32643 0.91992 0.81549 0.0
C412 C 0.32469 0.84352 0.83875 0.0
N413 N 0.2929 0.9132 0.94928 0.0
N414 N 0.37417 0.86072 0.72909 0.0
H415 H 0.29985 0.78305 0.88463 0.0
H416 H 0.32676 0.78965 0.79205 0.0
H417 H 0.39104 0.87921 0.68018 0.0
H418 H 0.37873 0.83551 0.7398 0.0
H419 H 0.29723 0.94331 0.94914 0.0
H420 H 0.27997 0.89855 1.00525 0.0
H421 H 0.30137 0.9606 0.81997 0.0
H422 H 0.33654 0.97084 0.74116 0.0
C423 C 0.50872 0.38841 0.18152 0.0
C424 C 0.5321 0.36861 0.1607 0.0
C425 C 0.55555 0.41039 0.03323 0.0
C426 C 0.53109 0.42877 0.05277 0.0
N427 N 0.49651 0.44649 0.15888 0.0
N428 N 0.58626 0.36895 0.08201 0.0
C429 C 0.51211 0.42176 0.13215 0.0
C430 C 0.55839 0.38238 0.09142 0.0
N431 N 0.4805 0.37321 0.24262 0.0
N432 N 0.57462 0.41852 0.95699 0.0
H433 H 0.58925 0.34877 0.12423 0.0
H434 H 0.60887 0.38065 0.03796 0.0
H435 H 0.57496 0.44075 0.91604 0.0
H436 H 0.58868 0.40237 0.93275 0.0
H437 H 0.45975 0.38375 0.25322 0.0
H438 H 0.47458 0.34732 0.27715 0.0
H439 H 0.48499 0.44524 0.21976 0.0
H440 H 0.49925 0.47129 0.12349 0.0
C441 C 0.14128 0.41684 0.92639 0.0
C442 C 0.17826 0.45541 0.94687 0.0
C443 C 0.15712 0.48624 0.82835 0.0
C444 C 0.11741 0.45048 0.81937 0.0
N445 N 0.0705 0.38116 0.85991 0.0
N446 N 0.22061 0.52842 0.92198 0.0
C447 C 0.10936 0.41519 0.86702 0.0
C448 C 0.18639 0.49042 0.89801 0.0
N449 N 0.1369 0.3818 0.9631 0.0
N450 N 0.16634 0.51642 0.77057 0.0
H451 H 0.24224 0.53346 0.97445 0.0
H452 H 0.22579 0.55591 0.89489 0.0
H453 H 0.14503 0.5135 0.71902 0.0
H454 H 0.19587 0.54182 0.76817 0.0
H455 H 0.11253 0.35189 0.94417 0.0
H456 H 0.15962 0.38221 1.00741 0.0
H457 H 0.06123 0.3569 0.90134 0.0
H458 H 0.04664 0.37798 0.81519 0.0
C459 C 0.67598 0.177 0.92343 0.0
C460 C 0.68736 0.15932 0.99429 0.0
C461 C 0.64272 0.08987 0.91993 0.0
C462 C 0.62577 0.10644 0.85888 0.0
N463 N 0.62384 0.16595 0.80508 0.0
N464 N 0.67173 0.09708 0.0691 0.0
C465 C 0.64178 0.15017 0.86109 0.0
C466 C 0.6681 0.11519 0.99493 0.0
N467 N 0.69857 0.21873 0.913 0.0
N468 N 0.63445 0.04968 0.90614 0.0
H469 H 0.68664 0.11417 0.1289 0.0
H470 H 0.65535 0.06491 0.07421 0.0
H471 H 0.61711 0.03116 0.84942 0.0
H472 H 0.64862 0.03687 0.94536 0.0
H473 H 0.69381 0.23229 0.85796 0.0
H474 H 0.72456 0.23925 0.95477 0.0
H475 H 0.63102 0.19708 0.81009 0.0
H476 H 0.60014 0.14713 0.7564 0.0
C477 C 0.51429 0.66926 0.7716 0.0
C478 C 0.54131 0.69042 0.84844 0.0
C479 C 0.57427 0.64736 0.83367 0.0
C480 C 0.54853 0.62749 0.75499 0.0
N481 N 0.49692 0.62146 0.64226 0.0
N482 N 0.60101 0.70427 0.94684 0.0
C483 C 0.51944 0.63913 0.72178 0.0
C484 C 0.57277 0.68116 0.87726 0.0
N485 N 0.48323 0.67752 0.74736 0.0
N486 N 0.59871 0.63256 0.86895 0.0
H487 H 0.59924 0.72677 0.98652 0.0
H488 H 0.62768 0.70263 0.96309 0.0
H489 H 0.6007 0.60812 0.83799 0.0
H490 H 0.61444 0.64208 0.93163 0.0
H491 H 0.45908 0.65959 0.69921 0.0
H492 H 0.48043 0.70155 0.77841 0.0
H493 H 0.47868 0.63176 0.60947 0.0
H494 H 0.49809 0.59771 0.60565 0.0
C495 C 0.48461 0.108 0.29655 0.0
C496 C 0.51706 0.15029 0.31094 0.0
C497 C 0.54405 0.13317 0.4446 0.0
C498 C 0.51162 0.09098 0.42962 0.0
N499 N 0.46017 0.03603 0.32825 0.0
N500 N 0.58343 0.20038 0.38437 0.0
C501 C 0.48504 0.07772 0.35085 0.0
C502 C 0.54875 0.16193 0.38035 0.0
N503 N 0.45164 0.09708 0.23593 0.0
N504 N 0.56873 0.14648 0.52235 0.0
H505 H 0.5877 0.22193 0.33794 0.0
H506 H 0.60943 0.20932 0.42827 0.0
H507 H 0.56695 0.12656 0.57068 0.0
H508 H 0.58938 0.17779 0.54145 0.0
H509 H 0.42522 0.06769 0.22991 0.0
H510 H 0.44858 0.11819 0.19712 0.0
H511 H 0.44248 0.02404 0.26786 0.0
H512 H 0.46108 0.01352 0.36629 0.0
C513 C 0.31963 0.42959 0.4121 0.0
C514 C 0.31394 0.46455 0.42712 0.0
C515 C 0.36699 0.49067 0.55349 0.0
C516 C 0.3743 0.45698 0.53502 0.0
N517 N 0.34567 0.38649 0.47314 0.0
N518 N 0.31929 0.51722 0.5336 0.0
C519 C 0.34598 0.42356 0.47387 0.0
C520 C 0.33327 0.49126 0.50543 0.0
N521 N 0.30315 0.40404 0.33624 0.0
N522 N 0.39346 0.52352 0.61163 0.0
H523 H 0.29372 0.51711 0.50115 0.0
H524 H 0.32991 0.53501 0.59383 0.0
H525 H 0.4175 0.52405 0.65107 0.0
H526 H 0.39253 0.55125 0.61787 0.0
H527 H 0.31124 0.38171 0.31805 0.0
H528 H 0.28377 0.40662 0.28803 0.0
H529 H 0.32364 0.35965 0.4353 0.0
H530 H 0.36505 0.38208 0.51814 0.0
C531 C 0.90532 0.38043 0.29754 0.0
C532 C 0.86409 0.37298 0.30067 0.0
C533 C 0.88556 0.41888 0.43671 0.0
C534 C 0.9265 0.42581 0.43359 0.0
N535 N 0.97789 0.42341 0.35041 0.0
N536 N 0.8174 0.39287 0.3595 0.0
C537 C 0.93715 0.41001 0.3601 0.0
C538 C 0.85505 0.39484 0.36591 0.0
N539 N 0.91375 0.35726 0.23915 0.0
N540 N 0.8752 0.43312 0.50949 0.0
H541 H 0.79454 0.37544 0.30832 0.0
H542 H 0.8102 0.41132 0.39977 0.0
H543 H 0.89662 0.45152 0.56196 0.0
H544 H 0.84492 0.42476 0.52051 0.0
H545 H 0.94199 0.35783 0.24126 0.0
H546 H 0.89178 0.33479 0.1926 0.0
H547 H 0.98821 0.4165 0.29369 0.0
H548 H 1.00174 0.44498 0.39583 0.0
C549 C 0.59997 0.87987 0.27442 0.0
C550 C 0.57001 0.83863 0.29246 0.0
C551 C 0.55138 0.86652 0.41867 0.0
C552 C 0.58154 0.90754 0.4013 0.0
N553 N 0.6404 0.95321 0.32642 0.0
N554 N 0.52611 0.79228 0.39466 0.0
C555 C 0.6077 0.91419 0.33337 0.0
C556 C 0.54849 0.83187 0.36878 0.0
N557 N 0.61953 0.88668 0.19896 0.0
N558 N 0.52417 0.86067 0.48005 0.0
H559 H 0.52425 0.7663 0.3605 0.0
H560 H 0.51305 0.78565 0.45447 0.0
H561 H 0.52494 0.88512 0.51818 0.0
H562 H 0.4987 0.83179 0.4885 0.0
H563 H 0.6368 0.91615 0.17622 0.0
H564 H 0.61681 0.86288 0.1557 0.0
H565 H 0.66341 0.9594 0.28455 0.0
H566 H 0.64652 0.97903 0.36822 0.0
C567 C 0.6465 0.45223 0.32616 0.0
C568 C 0.68198 0.48904 0.30503 0.0
C569 C 0.67111 0.52912 0.42251 0.0
C570 C 0.63114 0.49485 0.4291 0.0
N571 N 0.59176 0.42005 0.42391 0.0
N572 N 0.72867 0.56341 0.33464 0.0
C573 C 0.62186 0.45503 0.39147 0.0
C574 C 0.69451 0.52771 0.3538 0.0
N575 N 0.63562 0.41499 0.28142 0.0
N576 N 0.68848 0.56111 0.48709 0.0
H577 H 0.74855 0.56394 0.28925 0.0
H578 H 0.73587 0.59301 0.36033 0.0
H579 H 0.67492 0.55962 0.54557 0.0
H580 H 0.7189 0.58548 0.48966 0.0
H581 H 0.60861 0.38731 0.28829 0.0
H582 H 0.65289 0.41199 0.23339 0.0
H583 H 0.58523 0.38996 0.40503 0.0
H584 H 0.57713 0.42159 0.47882 0.0
C585 C 0.10653 0.71257 0.26506 0.0
C586 C 0.14696 0.7417 0.30307 0.0
C587 C 0.13101 0.7108 0.444 0.0
C588 C 0.09005 0.68203 0.40741 0.0
N589 N 0.03566 0.66373 0.29096 0.0
N590 N 0.19233 0.77764 0.43373 0.0
C591 C 0.07671 0.6856 0.32035 0.0
C592 C 0.15699 0.74409 0.39471 0.0
N593 N 0.09728 0.70875 0.17596 0.0
N594 N 0.14667 0.70445 0.52183 0.0
H595 H 0.21182 0.80244 0.39816 0.0
H596 H 0.19965 0.78275 0.50178 0.0
H597 H 0.13048 0.6784 0.55708 0.0
H598 H 0.17762 0.72254 0.54626 0.0
H599 H 0.07003 0.68444 0.14377 0.0
H600 H 0.11784 0.72858 0.13361 0.0
H601 H 0.02383 0.66797 0.23088 0.0
H602 H 0.01296 0.64445 0.33043 0.0
loop_
_geom_bond_atom_site_label_1
_geom_bond_atom_site_label_2
_geom_bond_distance
_geom_bond_site_symmetry_2
_ccdc_geom_bond_type
Mg0 O7 2.141 . S
Mg0 O8 2.048 . S
Mg0 O9 2.048 . S
Mg0 O12 2.141 . S
C1 O2 1.313 . S
C1 O8 1.195 . S
O2 C1 1.313 . S
C3 O4 1.245 . S
C3 O12 1.289 . S
O4 C3 1.245 . S
C5 O6 1.245 . S
C5 O7 1.289 . S
O6 C5 1.245 . S
O7 Mg0 2.141 . S
O7 C5 1.289 . S
O8 Mg0 2.048 . S
O8 C1 1.195 . S
O9 Mg0 2.048 . S
O9 C10 1.195 . S
C10 O9 1.195 . S
C10 O11 1.313 . S
O11 C10 1.313 . S
O12 Mg0 2.141 . S
O12 C3 1.289 . S
Mg13 O20 2.141 . S
Mg13 O21 2.048 . S
Mg13 O22 2.048 . S
Mg13 O25 2.141 . S
C14 O15 1.313 . S
C14 O21 1.195 . S
O15 C14 1.313 . S
C16 O17 1.245 . S
C16 O25 1.289 . S
O17 C16 1.245 . S
C18 O19 1.245 . S
C18 O20 1.289 . S
O19 C18 1.245 . S
O20 Mg13 2.141 . S
O20 C18 1.289 . S
O21 Mg13 2.048 . S
O21 C14 1.195 . S
O22 Mg13 2.048 . S
O22 C23 1.195 . S
C23 O22 1.195 . S
C23 O24 1.313 . S
O24 C23 1.313 . S
O25 Mg13 2.141 . S
O25 C16 1.289 . S
Mg26 O33 2.141 1_554 S
Mg26 O34 2.048 . S
Mg26 O35 2.048 . S
Mg26 O38 2.141 1_554 S
C27 O28 1.313 . S
C27 O34 1.195 . S
O28 C27 1.313 . S
C29 O30 1.245 . S
C29 O38 1.289 . S
O30 C29 1.245 . S
C31 O32 1.245 . S
C31 O33 1.289 . S
O32 C31 1.245 . S
O33 Mg26 2.141 1_556 S
O33 C31 1.289 . S
O34 Mg26 2.048 . S
O34 C27 1.195 . S
O35 Mg26 2.048 . S
O35 C36 1.195 . S
C36 O35 1.195 . S
C36 O37 1.313 . S
O37 C36 1.313 . S
O38 Mg26 2.141 1_556 S
O38 C29 1.289 . S
Mg39 O46 2.141 . S
Mg39 O47 2.044 1_554 S
Mg39 O48 2.048 . S
Mg39 O51 2.141 . S
C40 O41 1.313 . S
C40 O47 1.199 . S
O41 C40 1.313 . S
C42 O43 1.245 . S
C42 O51 1.289 . S
O43 C42 1.245 . S
C44 O45 1.245 . S
C44 O46 1.289 . S
O45 C44 1.245 . S
O46 Mg39 2.141 . S
O46 C44 1.289 . S
O47 Mg39 2.044 1_556 S
O47 C40 1.199 . S
O48 Mg39 2.048 . S
O48 C49 1.195 1_554 S
C49 O48 1.195 1_556 S
C49 O50 1.313 . S
O50 C49 1.313 . S
O51 Mg39 2.141 . S
O51 C42 1.289 . S
Mg52 O59 2.141 . S
Mg52 O60 2.048 . S
Mg52 O61 2.048 . S
Mg52 O64 2.141 . S
C53 O54 1.313 . S
C53 O60 1.195 1_556 S
O54 C53 1.313 . S
C55 O56 1.245 . S
C55 O64 1.289 . S
O56 C55 1.245 . S
C57 O58 1.245 . S
C57 O59 1.289 . S
O58 C57 1.245 . S
O59 Mg52 2.141 . S
O59 C57 1.289 . S
O60 Mg52 2.048 . S
O60 C53 1.195 1_554 S
O61 Mg52 2.048 . S
O61 C62 1.195 1_554 S
C62 O61 1.195 1_556 S
C62 O63 1.313 . S
O63 C62 1.313 . S
O64 Mg52 2.141 . S
O64 C55 1.289 . S
Mg65 O72 2.141 . S
Mg65 O73 2.048 . S
Mg65 O74 2.048 . S
Mg65 O77 2.141 . S
C66 O67 1.313 . S
C66 O73 1.195 . S
O67 C66 1.313 . S
C68 O69 1.245 . S
C68 O77 1.289 . S
O69 C68 1.245 . S
C70 O71 1.245 . S
C70 O72 1.289 . S
O71 C70 1.245 . S
O72 Mg65 2.141 . S
O72 C70 1.289 . S
O73 Mg65 2.048 . S
O73 C66 1.195 . S
O74 Mg65 2.048 . S
O74 C75 1.195 . S
C75 O74 1.195 . S
C75 O76 1.313 . S
O76 C75 1.313 . S
O77 Mg65 2.141 . S
O77 C68 1.289 . S
C78 O90 1.241 . S
C78 O91 1.280 . S
C79 O92 1.277 . S
C79 O93 1.245 . S
C80 O104 1.247 . S
C80 O106 1.289 . S
Mg81 O82 1.926 . S
Mg81 O91 1.984 . S
Mg81 O93 1.988 1_655 S
Mg81 O94 2.061 . S
O82 Mg81 1.926 . S
O82 Mg83 1.986 1_655 S
O82 Mg84 1.917 1_655 S
Mg83 O82 1.986 1_455 S
Mg83 O90 2.042 1_455 S
Mg83 O92 2.041 . S
Mg83 O98 2.038 1_455 S
Mg83 O106 2.238 . S
Mg84 O82 1.917 1_455 S
Mg84 O85 1.917 . S
Mg84 O95 2.106 1_455 S
Mg84 O97 2.079 1_455 S
Mg84 O106 2.106 . S
Mg84 O107 2.079 . S
O85 Mg84 1.917 . S
O85 Mg86 1.926 . S
O85 Mg87 1.986 . S
Mg86 O85 1.926 . S
Mg86 O100 1.984 . S
Mg86 O103 1.988 1_455 S
Mg86 O104 2.061 . S
Mg87 O85 1.986 . S
Mg87 O95 2.238 1_455 S
Mg87 O99 2.042 . S
Mg87 O101 2.041 1_455 S
Mg87 O108 2.038 . S
C88 O94 1.247 . S
C88 O95 1.289 . S
C89 O107 1.245 . S
C89 O108 1.274 . S
O90 C78 1.241 . S
O90 Mg83 2.042 1_655 S
O91 C78 1.280 . S
O91 Mg81 1.984 . S
O92 C79 1.277 . S
O92 Mg83 2.041 . S
O93 C79 1.245 . S
O93 Mg81 1.988 1_455 S
O94 Mg81 2.061 . S
O94 C88 1.247 . S
O95 Mg84 2.106 1_655 S
O95 Mg87 2.238 1_655 S
O95 C88 1.289 . S
C96 O97 1.245 . S
C96 O98 1.274 . S
O97 Mg84 2.079 1_655 S
O97 C96 1.245 . S
O98 Mg83 2.038 1_655 S
O98 C96 1.274 . S
O99 Mg87 2.042 . S
O99 C102 1.241 . S
O100 Mg86 1.984 . S
O100 C102 1.280 . S
O101 Mg87 2.041 1_655 S
O101 C105 1.277 . S
C102 O99 1.241 . S
C102 O100 1.280 . S
O103 Mg86 1.988 1_655 S
O103 C105 1.245 . S
O104 C80 1.247 . S
O104 Mg86 2.061 . S
C105 O101 1.277 . S
C105 O103 1.245 . S
O106 C80 1.289 . S
O106 Mg83 2.238 . S
O106 Mg84 2.106 . S
O107 Mg84 2.079 . S
O107 C89 1.245 . S
O108 Mg87 2.038 . S
O108 C89 1.274 . S
C109 O121 1.241 . S
C109 O122 1.280 . S
C110 O123 1.277 . S
C110 O124 1.245 . S
C111 O135 1.247 . S
C111 O137 1.289 . S
Mg112 O113 1.926 . S
Mg112 O122 1.984 . S
Mg112 O124 1.988 1_545 S
Mg112 O125 2.061 . S
O113 Mg112 1.926 . S
O113 Mg114 1.986 . S
O113 Mg115 1.917 . S
Mg114 O113 1.986 . S
Mg114 O121 2.042 . S
Mg114 O123 2.041 1_545 S
Mg114 O129 2.038 . S
Mg114 O137 2.238 1_545 S
Mg115 O113 1.917 . S
Mg115 O116 1.917 1_545 S
Mg115 O126 2.106 . S
Mg115 O128 2.079 . S
Mg115 O137 2.106 1_545 S
Mg115 O138 2.079 1_545 S
O116 Mg115 1.917 1_565 S
O116 Mg117 1.926 . S
O116 Mg118 1.986 1_565 S
Mg117 O116 1.926 . S
Mg117 O131 1.984 . S
Mg117 O134 1.988 1_565 S
Mg117 O135 2.061 . S
Mg118 O116 1.986 1_545 S
Mg118 O126 2.238 . S
Mg118 O130 2.042 1_545 S
Mg118 O132 2.041 . S
Mg118 O139 2.038 1_545 S
C119 O125 1.247 . S
C119 O126 1.289 . S
C120 O138 1.245 . S
C120 O139 1.274 . S
O121 C109 1.241 . S
O121 Mg114 2.042 . S
O122 C109 1.280 . S
O122 Mg112 1.984 . S
O123 C110 1.277 . S
O123 Mg114 2.041 1_565 S
O124 C110 1.245 . S
O124 Mg112 1.988 1_565 S
O125 Mg112 2.061 . S
O125 C119 1.247 . S
O126 Mg115 2.106 . S
O126 Mg118 2.238 . S
O126 C119 1.289 . S
C127 O128 1.245 . S
C127 O129 1.274 . S
O128 Mg115 2.079 . S
O128 C127 1.245 . S
O129 Mg114 2.038 . S
O129 C127 1.274 . S
O130 Mg118 2.042 1_565 S
O130 C133 1.241 . S
O131 Mg117 1.984 . S
O131 C133 1.280 . S
O132 Mg118 2.041 . S
O132 C136 1.277 . S
C133 O130 1.241 . S
C133 O131 1.280 . S
O134 Mg117 1.988 1_545 S
O134 C136 1.245 . S
O135 C111 1.247 . S
O135 Mg117 2.061 . S
C136 O132 1.277 . S
C136 O134 1.245 . S
O137 C111 1.289 . S
O137 Mg114 2.238 1_565 S
O137 Mg115 2.106 1_565 S
O138 Mg115 2.079 1_565 S
O138 C120 1.245 . S
O139 Mg118 2.038 1_565 S
O139 C120 1.274 . S
C140 O152 1.241 . S
C140 O153 1.280 . S
C141 O154 1.277 . S
C141 O155 1.245 . S
C142 O166 1.247 . S
C142 O168 1.289 . S
Mg143 O144 1.926 . S
Mg143 O153 1.984 . S
Mg143 O155 1.988 . S
Mg143 O156 2.061 . S
O144 Mg143 1.926 . S
O144 Mg145 1.986 . S
O144 Mg146 1.917 . S
Mg145 O144 1.986 . S
Mg145 O152 2.042 . S
Mg145 O154 2.041 . S
Mg145 O160 2.038 . S
Mg145 O168 2.238 . S
Mg146 O144 1.917 . S
Mg146 O147 1.917 . S
Mg146 O157 2.106 . S
Mg146 O159 2.079 . S
Mg146 O168 2.106 . S
Mg146 O169 2.079 . S
O147 Mg146 1.917 . S
O147 Mg148 1.926 . S
O147 Mg149 1.986 . S
Mg148 O147 1.926 . S
Mg148 O162 1.984 . S
Mg148 O165 1.988 . S
Mg148 O166 2.061 . S
Mg149 O147 1.986 . S
Mg149 O157 2.238 . S
Mg149 O161 2.042 . S
Mg149 O163 2.041 . S
Mg149 O170 2.038 . S
C150 O156 1.247 . S
C150 O157 1.289 . S
C151 O169 1.245 . S
C151 O170 1.274 . S
O152 C140 1.241 . S
O152 Mg145 2.042 . S
O153 C140 1.280 . S
O153 Mg143 1.984 . S
O154 C141 1.277 . S
O154 Mg145 2.041 . S
O155 C141 1.245 . S
O155 Mg143 1.988 . S
O156 Mg143 2.061 . S
O156 C150 1.247 . S
O157 Mg146 2.106 . S
O157 Mg149 2.238 . S
O157 C150 1.289 . S
C158 O159 1.245 . S
C158 O160 1.274 . S
O159 Mg146 2.079 . S
O159 C158 1.245 . S
O160 Mg145 2.038 . S
O160 C158 1.274 . S
O161 Mg149 2.042 . S
O161 C164 1.241 . S
O162 Mg148 1.984 . S
O162 C164 1.280 . S
O163 Mg149 2.041 . S
O163 C167 1.277 . S
C164 O161 1.241 . S
C164 O162 1.280 . S
O165 Mg148 1.988 . S
O165 C167 1.245 . S
O166 C142 1.247 . S
O166 Mg148 2.061 . S
C167 O163 1.277 . S
C167 O165 1.245 . S
O168 C142 1.289 . S
O168 Mg145 2.238 . S
O168 Mg146 2.106 . S
O169 Mg146 2.079 . S
O169 C151 1.245 . S
O170 Mg149 2.038 . S
O170 C151 1.274 . S
C171 C172 1.363 . S
C171 C177 1.379 . S
C171 N179 1.356 . S
C172 C171 1.363 . S
C172 C178 1.363 . S
C173 C174 1.363 . S
C173 C178 1.379 . S
C173 N180 1.356 . S
C174 C173 1.363 . S
C174 C177 1.363 . S
N175 C177 1.356 . S
N175 H187 0.984 . S
N175 H188 0.985 . S
N176 C178 1.356 . S
N176 H181 0.984 . S
N176 H182 0.985 . S
C177 C171 1.379 . S
C177 C174 1.363 . S
C177 N175 1.356 . S
C178 C172 1.363 . S
C178 C173 1.379 . S
C178 N176 1.356 . S
N179 C171 1.356 . S
N179 H185 0.984 . S
N179 H186 0.984 . S
N180 C173 1.356 . S
N180 H183 0.984 . S
N180 H184 0.985 . S
H181 N176 0.984 . S
H182 N176 0.985 . S
H183 N180 0.984 . S
H184 N180 0.985 . S
H185 N179 0.984 . S
H186 N179 0.984 . S
H187 N175 0.984 . S
H188 N175 0.985 . S
C189 C190 1.363 . S
C189 C195 1.379 . S
C189 N197 1.356 . S
C190 C189 1.363 . S
C190 C196 1.363 . S
C191 C192 1.363 . S
C191 C196 1.379 . S
C191 N198 1.356 . S
C192 C191 1.363 . S
C192 C195 1.363 . S
N193 C195 1.356 . S
N193 H205 0.984 . S
N193 H206 0.985 . S
N194 C196 1.356 . S
N194 H199 0.984 . S
N194 H200 0.985 . S
C195 C189 1.379 . S
C195 C192 1.363 . S
C195 N193 1.356 . S
C196 C190 1.363 . S
C196 C191 1.379 . S
C196 N194 1.356 . S
N197 C189 1.356 . S
N197 H203 0.984 . S
N197 H204 0.984 . S
N198 C191 1.356 . S
N198 H201 0.984 . S
N198 H202 0.985 . S
H199 N194 0.984 . S
H200 N194 0.985 . S
H201 N198 0.984 . S
H202 N198 0.985 . S
H203 N197 0.984 . S
H204 N197 0.984 . S
H205 N193 0.984 . S
H206 N193 0.985 . S
C207 C208 1.363 . S
C207 C213 1.379 . S
C207 N215 1.356 . S
C208 C207 1.363 . S
C208 C214 1.363 . S
C209 C210 1.363 . S
C209 C214 1.379 . S
C209 N216 1.356 . S
C210 C209 1.363 . S
C210 C213 1.363 . S
N211 C213 1.356 . S
N211 H223 0.984 . S
N211 H224 0.985 . S
N212 C214 1.356 . S
N212 H217 0.984 . S
N212 H218 0.985 . S
C213 C207 1.379 . S
C213 C210 1.363 . S
C213 N211 1.356 . S
C214 C208 1.363 . S
C214 C209 1.379 . S
C214 N212 1.356 . S
N215 C207 1.356 . S
N215 H221 0.984 . S
N215 H222 0.984 . S
N216 C209 1.356 . S
N216 H219 0.984 . S
N216 H220 0.985 . S
H217 N212 0.984 . S
H218 N212 0.985 . S
H219 N216 0.984 . S
H220 N216 0.985 . S
H221 N215 0.984 . S
H222 N215 0.984 . S
H223 N211 0.984 . S
H224 N211 0.985 . S
C225 C226 1.363 . S
C225 C231 1.379 . S
C225 N233 1.356 . S
C226 C225 1.363 . S
C226 C232 1.363 . S
C227 C228 1.363 . S
C227 C232 1.379 . S
C227 N234 1.356 . S
C228 C227 1.363 . S
C228 C231 1.363 . S
N229 C231 1.356 . S
N229 H241 0.984 . S
N229 H242 0.985 . S
N230 C232 1.356 . S
N230 H235 0.984 . S
N230 H236 0.985 . S
C231 C225 1.379 . S
C231 C228 1.363 . S
C231 N229 1.356 . S
C232 C226 1.363 . S
C232 C227 1.379 . S
C232 N230 1.356 . S
N233 C225 1.356 . S
N233 H239 0.984 . S
N233 H240 0.984 . S
N234 C227 1.356 . S
N234 H237 0.984 . S
N234 H238 0.985 . S
H235 N230 0.984 . S
H236 N230 0.985 . S
H237 N234 0.984 . S
H238 N234 0.985 . S
H239 N233 0.984 . S
H240 N233 0.984 . S
H241 N229 0.984 . S
H242 N229 0.985 . S
C243 C244 1.363 . S
C243 C249 1.379 . S
C243 N251 1.356 . S
C244 C243 1.363 . S
C244 C250 1.363 . S
C245 C246 1.363 . S
C245 C250 1.379 . S
C245 N252 1.356 . S
C246 C245 1.363 . S
C246 C249 1.363 . S
N247 C249 1.356 . S
N247 H259 0.984 . S
N247 H260 0.985 . S
N248 C250 1.356 . S
N248 H253 0.984 . S
N248 H254 0.985 . S
C249 C243 1.379 . S
C249 C246 1.363 . S
C249 N247 1.356 . S
C250 C244 1.363 . S
C250 C245 1.379 . S
C250 N248 1.356 . S
N251 C243 1.356 . S
N251 H257 0.984 . S
N251 H258 0.984 . S
N252 C245 1.356 . S
N252 H255 0.984 . S
N252 H256 0.985 . S
H253 N248 0.984 . S
H254 N248 0.985 . S
H255 N252 0.984 . S
H256 N252 0.985 . S
H257 N251 0.984 . S
H258 N251 0.984 . S
H259 N247 0.984 . S
H260 N247 0.985 . S
C261 C262 1.363 . S
C261 C267 1.379 . S
C261 N269 1.356 . S
C262 C261 1.363 . S
C262 C268 1.363 . S
C263 C264 1.363 . S
C263 C268 1.379 . S
C263 N270 1.356 . S
C264 C263 1.363 . S
C264 C267 1.363 . S
N265 C267 1.356 . S
N265 H277 0.984 . S
N265 H278 0.985 . S
N266 C268 1.356 . S
N266 H271 0.984 . S
N266 H272 0.985 . S
C267 C261 1.379 . S
C267 C264 1.363 . S
C267 N265 1.356 . S
C268 C262 1.363 . S
C268 C263 1.379 . S
C268 N266 1.356 . S
N269 C261 1.356 . S
N269 H275 0.984 . S
N269 H276 0.984 . S
N270 C263 1.356 . S
N270 H273 0.984 . S
N270 H274 0.985 . S
H271 N266 0.984 . S
H272 N266 0.985 . S
H273 N270 0.984 . S
H274 N270 0.985 . S
H275 N269 0.984 . S
H276 N269 0.984 . S
H277 N265 0.984 . S
H278 N265 0.985 . S
C279 C280 1.363 . S
C279 C285 1.379 . S
C279 N287 1.356 . S
C280 C279 1.363 . S
C280 C286 1.363 . S
C281 C282 1.363 . S
C281 C286 1.379 . S
C281 N288 1.356 . S
C282 C281 1.363 . S
C282 C285 1.363 . S
N283 C285 1.356 . S
N283 H295 0.984 . S
N283 H296 0.985 . S
N284 C286 1.356 . S
N284 H289 0.984 . S
N284 H290 0.985 . S
C285 C279 1.379 . S
C285 C282 1.363 . S
C285 N283 1.356 . S
C286 C280 1.363 . S
C286 C281 1.379 . S
C286 N284 1.356 . S
N287 C279 1.356 . S
N287 H293 0.984 1_556 S
N287 H294 0.984 . S
N288 C281 1.356 . S
N288 H291 0.984 . S
N288 H292 0.985 . S
H289 N284 0.984 . S
H290 N284 0.985 . S
H291 N288 0.984 . S
H292 N288 0.985 . S
H293 N287 0.984 1_554 S
H294 N287 0.984 . S
H295 N283 0.984 . S
H296 N283 0.985 . S
C297 C298 1.363 . S
C297 C303 1.379 . S
C297 N305 1.356 . S
C298 C297 1.363 . S
C298 C304 1.363 . S
C299 C300 1.363 . S
C299 C304 1.379 . S
C299 N306 1.356 . S
C300 C299 1.363 . S
C300 C303 1.363 . S
N301 C303 1.356 . S
N301 H313 0.984 . S
N301 H314 0.985 . S
N302 C304 1.356 . S
N302 H307 0.984 . S
N302 H308 0.985 . S
C303 C297 1.379 . S
C303 C300 1.363 . S
C303 N301 1.356 . S
C304 C298 1.363 . S
C304 C299 1.379 . S
C304 N302 1.356 . S
N305 C297 1.356 . S
N305 H311 0.984 . S
N305 H312 0.984 . S
N306 C299 1.356 . S
N306 H309 0.984 . S
N306 H310 0.985 . S
H307 N302 0.984 . S
H308 N302 0.985 . S
H309 N306 0.984 . S
H310 N306 0.985 . S
H311 N305 0.984 . S
H312 N305 0.984 . S
H313 N301 0.984 . S
H314 N301 0.985 . S
C315 C316 1.363 . S
C315 C321 1.379 . S
C315 N323 1.356 1_556 S
C316 C315 1.363 . S
C316 C322 1.363 . S
C317 C318 1.363 . S
C317 C322 1.379 . S
C317 N324 1.356 . S
C318 C317 1.363 . S
C318 C321 1.363 . S
N319 C321 1.356 . S
N319 H331 0.984 . S
N319 H332 0.985 . S
N320 C322 1.356 . S
N320 H325 0.984 . S
N320 H326 0.985 . S
C321 C315 1.379 . S
C321 C318 1.363 . S
C321 N319 1.356 . S
C322 C316 1.363 . S
C322 C317 1.379 . S
C322 N320 1.356 . S
N323 C315 1.356 1_554 S
N323 H329 0.984 . S
N323 H330 0.984 . S
N324 C317 1.356 . S
N324 H327 0.984 . S
N324 H328 0.985 . S
H325 N320 0.984 . S
H326 N320 0.985 . S
H327 N324 0.984 . S
H328 N324 0.985 . S
H329 N323 0.984 . S
H330 N323 0.984 . S
H331 N319 0.984 . S
H332 N319 0.985 . S
C333 C334 1.363 . S
C333 C339 1.379 . S
C333 N341 1.356 . S
C334 C333 1.363 . S
C334 C340 1.363 1_554 S
C335 C336 1.363 . S
C335 C340 1.379 . S
C335 N342 1.356 . S
C336 C335 1.363 . S
C336 C339 1.363 1_556 S
N337 C339 1.356 . S
N337 H349 0.984 . S
N337 H350 0.985 1_554 S
N338 C340 1.356 . S
N338 H343 0.984 1_556 S
N338 H344 0.985 . S
C339 C333 1.379 . S
C339 C336 1.363 1_554 S
C339 N337 1.356 . S
C340 C334 1.363 1_556 S
C340 C335 1.379 . S
C340 N338 1.356 . S
N341 C333 1.356 . S
N341 H347 0.984 . S
N341 H348 0.984 . S
N342 C335 1.356 . S
N342 H345 0.984 . S
N342 H346 0.985 . S
H343 N338 0.984 1_554 S
H344 N338 0.985 . S
H345 N342 0.984 . S
H346 N342 0.985 . S
H347 N341 0.984 . S
H348 N341 0.984 . S
H349 N337 0.984 . S
H350 N337 0.985 1_556 S
C351 C352 1.363 . S
C351 C357 1.379 . S
C351 N359 1.356 . S
C352 C351 1.363 . S
C352 C358 1.363 . S
C353 C354 1.363 . S
C353 C358 1.379 . S
C353 N360 1.356 . S
C354 C353 1.363 . S
C354 C357 1.363 . S
N355 C357 1.356 . S
N355 H367 0.984 . S
N355 H368 0.985 . S
N356 C358 1.356 1_554 S
N356 H361 0.984 . S
N356 H362 0.985 . S
C357 C351 1.379 . S
C357 C354 1.363 . S
C357 N355 1.356 . S
C358 C352 1.363 . S
C358 C353 1.379 . S
C358 N356 1.356 1_556 S
N359 C351 1.356 . S
N359 H365 0.984 . S
N359 H366 0.984 1_556 S
N360 C353 1.356 . S
N360 H363 0.984 . S
N360 H364 0.985 . S
H361 N356 0.984 . S
H362 N356 0.985 . S
H363 N360 0.984 . S
H364 N360 0.985 . S
H365 N359 0.984 . S
H366 N359 0.984 1_554 S
H367 N355 0.984 . S
H368 N355 0.985 . S
C369 C370 1.363 1_554 S
C369 C375 1.379 1_554 S
C369 N377 1.356 . S
C370 C369 1.363 1_556 S
C370 C376 1.363 . S
C371 C372 1.363 . S
C371 C376 1.379 . S
C371 N378 1.356 . S
C372 C371 1.363 . S
C372 C375 1.363 . S
N373 C375 1.356 . S
N373 H385 0.984 1_556 S
N373 H386 0.985 . S
N374 C376 1.356 . S
N374 H379 0.984 . S
N374 H380 0.985 . S
C375 C369 1.379 1_556 S
C375 C372 1.363 . S
C375 N373 1.356 . S
C376 C370 1.363 . S
C376 C371 1.379 . S
C376 N374 1.356 . S
N377 C369 1.356 . S
N377 H383 0.984 . S
N377 H384 0.984 . S
N378 C371 1.356 . S
N378 H381 0.984 . S
N378 H382 0.985 . S
H379 N374 0.984 . S
H380 N374 0.985 . S
H381 N378 0.984 . S
H382 N378 0.985 . S
H383 N377 0.984 . S
H384 N377 0.984 . S
H385 N373 0.984 1_554 S
H386 N373 0.985 . S
C387 C388 1.363 . S
C387 C393 1.379 . S
C387 N395 1.356 . S
C388 C387 1.363 . S
C388 C394 1.363 . S
C389 C390 1.363 . S
C389 C394 1.379 . S
C389 N396 1.356 . S
C390 C389 1.363 . S
C390 C393 1.363 . S
N391 C393 1.356 . S
N391 H403 0.984 . S
N391 H404 0.985 . S
N392 C394 1.356 . S
N392 H397 0.984 . S
N392 H398 0.985 . S
C393 C387 1.379 . S
C393 C390 1.363 . S
C393 N391 1.356 . S
C394 C388 1.363 . S
C394 C389 1.379 . S
C394 N392 1.356 . S
N395 C387 1.356 . S
N395 H401 0.984 1_556 S
N395 H402 0.984 . S
N396 C389 1.356 . S
N396 H399 0.984 . S
N396 H400 0.985 . S
H397 N392 0.984 . S
H398 N392 0.985 . S
H399 N396 0.984 . S
H400 N396 0.985 . S
H401 N395 0.984 1_554 S
H402 N395 0.984 . S
H403 N391 0.984 . S
H404 N391 0.985 . S
C405 C406 1.363 . S
C405 C411 1.379 . S
C405 N413 1.356 1_556 S
C406 C405 1.363 . S
C406 C412 1.363 . S
C407 C408 1.363 . S
C407 C412 1.379 . S
C407 N414 1.356 . S
C408 C407 1.363 . S
C408 C411 1.363 . S
N409 C411 1.356 . S
N409 H421 0.984 . S
N409 H422 0.985 . S
N410 C412 1.356 . S
N410 H415 0.984 . S
N410 H416 0.985 . S
C411 C405 1.379 . S
C411 C408 1.363 . S
C411 N409 1.356 . S
C412 C406 1.363 . S
C412 C407 1.379 . S
C412 N410 1.356 . S
N413 C405 1.356 1_554 S
N413 H419 0.984 . S
N413 H420 0.984 . S
N414 C407 1.356 . S
N414 H417 0.984 . S
N414 H418 0.985 . S
H415 N410 0.984 . S
H416 N410 0.985 . S
H417 N414 0.984 . S
H418 N414 0.985 . S
H419 N413 0.984 . S
H420 N413 0.984 . S
H421 N409 0.984 . S
H422 N409 0.985 . S
C423 C424 1.363 . S
C423 C429 1.379 . S
C423 N431 1.356 . S
C424 C423 1.363 . S
C424 C430 1.363 1_554 S
C425 C426 1.363 . S
C425 C430 1.379 . S
C425 N432 1.356 . S
C426 C425 1.363 . S
C426 C429 1.363 1_556 S
N427 C429 1.356 . S
N427 H439 0.984 . S
N427 H440 0.985 1_554 S
N428 C430 1.356 . S
N428 H433 0.984 1_556 S
N428 H434 0.985 . S
C429 C423 1.379 . S
C429 C426 1.363 1_554 S
C429 N427 1.356 . S
C430 C424 1.363 1_556 S
C430 C425 1.379 . S
C430 N428 1.356 . S
N431 C423 1.356 . S
N431 H437 0.984 . S
N431 H438 0.984 . S
N432 C425 1.356 . S
N432 H435 0.984 . S
N432 H436 0.985 . S
H433 N428 0.984 1_554 S
H434 N428 0.985 . S
H435 N432 0.984 . S
H436 N432 0.985 . S
H437 N431 0.984 . S
H438 N431 0.984 . S
H439 N427 0.984 . S
H440 N427 0.985 1_556 S
C441 C442 1.363 . S
C441 C447 1.379 1_554 S
C441 N449 1.356 . S
C442 C441 1.363 . S
C442 C448 1.363 1_554 S
C443 C444 1.363 . S
C443 C448 1.379 . S
C443 N450 1.356 . S
C444 C443 1.363 . S
C444 C447 1.363 . S
N445 C447 1.356 . S
N445 H457 0.984 1_556 S
N445 H458 0.985 . S
N446 C448 1.356 . S
N446 H451 0.984 . S
N446 H452 0.985 . S
C447 C441 1.379 1_556 S
C447 C444 1.363 . S
C447 N445 1.356 . S
C448 C442 1.363 1_556 S
C448 C443 1.379 . S
C448 N446 1.356 . S
N449 C441 1.356 . S
N449 H455 0.984 . S
N449 H456 0.984 . S
N450 C443 1.356 . S
N450 H453 0.984 . S
N450 H454 0.985 . S
H451 N446 0.984 . S
H452 N446 0.985 . S
H453 N450 0.984 . S
H454 N450 0.985 . S
H455 N449 0.984 . S
H456 N449 0.984 . S
H457 N445 0.984 1_554 S
H458 N445 0.985 . S
C459 C460 1.363 . S
C459 C465 1.379 . S
C459 N467 1.356 . S
C460 C459 1.363 . S
C460 C466 1.363 . S
C461 C462 1.363 . S
C461 C466 1.379 . S
C461 N468 1.356 . S
C462 C461 1.363 . S
C462 C465 1.363 . S
N463 C465 1.356 . S
N463 H475 0.984 . S
N463 H476 0.985 . S
N464 C466 1.356 . S
N464 H469 0.984 . S
N464 H470 0.985 . S
C465 C459 1.379 . S
C465 C462 1.363 . S
C465 N463 1.356 . S
C466 C460 1.363 . S
C466 C461 1.379 . S
C466 N464 1.356 . S
N467 C459 1.356 . S
N467 H473 0.984 . S
N467 H474 0.984 1_556 S
N468 C461 1.356 . S
N468 H471 0.984 . S
N468 H472 0.985 . S
H469 N464 0.984 . S
H470 N464 0.985 . S
H471 N468 0.984 . S
H472 N468 0.985 . S
H473 N467 0.984 . S
H474 N467 0.984 1_554 S
H475 N463 0.984 . S
H476 N463 0.985 . S
C477 C478 1.363 . S
C477 C483 1.379 . S
C477 N485 1.356 . S
C478 C477 1.363 . S
C478 C484 1.363 . S
C479 C480 1.363 . S
C479 C484 1.379 . S
C479 N486 1.356 . S
C480 C479 1.363 . S
C480 C483 1.363 . S
N481 C483 1.356 . S
N481 H493 0.984 . S
N481 H494 0.985 . S
N482 C484 1.356 . S
N482 H487 0.984 . S
N482 H488 0.985 1_556 S
C483 C477 1.379 . S
C483 C480 1.363 . S
C483 N481 1.356 . S
C484 C478 1.363 . S
C484 C479 1.379 . S
C484 N482 1.356 . S
N485 C477 1.356 . S
N485 H491 0.984 . S
N485 H492 0.984 . S
N486 C479 1.356 . S
N486 H489 0.984 . S
N486 H490 0.985 . S
H487 N482 0.984 . S
H488 N482 0.985 1_554 S
H489 N486 0.984 . S
H490 N486 0.985 . S
H491 N485 0.984 . S
H492 N485 0.984 . S
H493 N481 0.984 . S
H494 N481 0.985 . S
C495 C496 1.363 . S
C495 C501 1.379 . S
C495 N503 1.356 . S
C496 C495 1.363 . S
C496 C502 1.363 . S
C497 C498 1.363 . S
C497 C502 1.379 . S
C497 N504 1.356 . S
C498 C497 1.363 . S
C498 C501 1.363 . S
N499 C501 1.356 . S
N499 H511 0.984 . S
N499 H512 0.985 . S
N500 C502 1.356 . S
N500 H505 0.984 . S
N500 H506 0.985 . S
C501 C495 1.379 . S
C501 C498 1.363 . S
C501 N499 1.356 . S
C502 C496 1.363 . S
C502 C497 1.379 . S
C502 N500 1.356 . S
N503 C495 1.356 . S
N503 H509 0.984 . S
N503 H510 0.984 . S
N504 C497 1.356 . S
N504 H507 0.984 . S
N504 H508 0.985 . S
H505 N500 0.984 . S
H506 N500 0.985 . S
H507 N504 0.984 . S
H508 N504 0.985 . S
H509 N503 0.984 . S
H510 N503 0.984 . S
H511 N499 0.984 . S
H512 N499 0.985 . S
C513 C514 1.363 . S
C513 C519 1.379 . S
C513 N521 1.356 . S
C514 C513 1.363 . S
C514 C520 1.363 . S
C515 C516 1.363 . S
C515 C520 1.379 . S
C515 N522 1.356 . S
C516 C515 1.363 . S
C516 C519 1.363 . S
N517 C519 1.356 . S
N517 H529 0.984 . S
N517 H530 0.985 . S
N518 C520 1.356 . S
N518 H523 0.984 . S
N518 H524 0.985 . S
C519 C513 1.379 . S
C519 C516 1.363 . S
C519 N517 1.356 . S
C520 C514 1.363 . S
C520 C515 1.379 . S
C520 N518 1.356 . S
N521 C513 1.356 . S
N521 H527 0.984 . S
N521 H528 0.984 . S
N522 C515 1.356 . S
N522 H525 0.984 . S
N522 H526 0.985 . S
H523 N518 0.984 . S
H524 N518 0.985 . S
H525 N522 0.984 . S
H526 N522 0.985 . S
H527 N521 0.984 . S
H528 N521 0.984 . S
H529 N517 0.984 . S
H530 N517 0.985 . S
C531 C532 1.363 . S
C531 C537 1.379 . S
C531 N539 1.356 . S
C532 C531 1.363 . S
C532 C538 1.363 . S
C533 C534 1.363 . S
C533 C538 1.379 . S
C533 N540 1.356 . S
C534 C533 1.363 . S
C534 C537 1.363 . S
N535 C537 1.356 . S
N535 H547 0.984 . S
N535 H548 0.985 . S
N536 C538 1.356 . S
N536 H541 0.984 . S
N536 H542 0.985 . S
C537 C531 1.379 . S
C537 C534 1.363 . S
C537 N535 1.356 . S
C538 C532 1.363 . S
C538 C533 1.379 . S
C538 N536 1.356 . S
N539 C531 1.356 . S
N539 H545 0.984 . S
N539 H546 0.984 . S
N540 C533 1.356 . S
N540 H543 0.984 . S
N540 H544 0.985 . S
H541 N536 0.984 . S
H542 N536 0.985 . S
H543 N540 0.984 . S
H544 N540 0.985 . S
H545 N539 0.984 . S
H546 N539 0.984 . S
H547 N535 0.984 . S
H548 N535 0.985 . S
C549 C550 1.363 . S
C549 C555 1.379 . S
C549 N557 1.356 . S
C550 C549 1.363 . S
C550 C556 1.363 . S
C551 C552 1.363 . S
C551 C556 1.379 . S
C551 N558 1.356 . S
C552 C551 1.363 . S
C552 C555 1.363 . S
N553 C555 1.356 . S
N553 H565 0.984 . S
N553 H566 0.985 . S
N554 C556 1.356 . S
N554 H559 0.984 . S
N554 H560 0.985 . S
C555 C549 1.379 . S
C555 C552 1.363 . S
C555 N553 1.356 . S
C556 C550 1.363 . S
C556 C551 1.379 . S
C556 N554 1.356 . S
N557 C549 1.356 . S
N557 H563 0.984 . S
N557 H564 0.984 . S
N558 C551 1.356 . S
N558 H561 0.984 . S
N558 H562 0.985 . S
H559 N554 0.984 . S
H560 N554 0.985 . S
H561 N558 0.984 . S
H562 N558 0.985 . S
H563 N557 0.984 . S
H564 N557 0.984 . S
H565 N553 0.984 . S
H566 N553 0.985 . S
C567 C568 1.363 . S
C567 C573 1.379 . S
C567 N575 1.356 . S
C568 C567 1.363 . S
C568 C574 1.363 . S
C569 C570 1.363 . S
C569 C574 1.379 . S
C569 N576 1.356 . S
C570 C569 1.363 . S
C570 C573 1.363 . S
N571 C573 1.356 . S
N571 H583 0.984 . S
N571 H584 0.985 . S
N572 C574 1.356 . S
N572 H577 0.984 . S
N572 H578 0.985 . S
C573 C567 1.379 . S
C573 C570 1.363 . S
C573 N571 1.356 . S
C574 C568 1.363 . S
C574 C569 1.379 . S
C574 N572 1.356 . S
N575 C567 1.356 . S
N575 H581 0.984 . S
N575 H582 0.984 . S
N576 C569 1.356 . S
N576 H579 0.984 . S
N576 H580 0.985 . S
H577 N572 0.984 . S
H578 N572 0.985 . S
H579 N576 0.984 . S
H580 N576 0.985 . S
H581 N575 0.984 . S
H582 N575 0.984 . S
H583 N571 0.984 . S
H584 N571 0.985 . S
C585 C586 1.363 . S
C585 C591 1.379 . S
C585 N593 1.356 . S
C586 C585 1.363 . S
C586 C592 1.363 . S
C587 C588 1.363 . S
C587 C592 1.379 . S
C587 N594 1.356 . S
C588 C587 1.363 . S
C588 C591 1.363 . S
N589 C591 1.356 . S
N589 H601 0.984 . S
N589 H602 0.985 . S
N590 C592 1.356 . S
N590 H595 0.984 . S
N590 H596 0.985 . S
C591 C585 1.379 . S
C591 C588 1.363 . S
C591 N589 1.356 . S
C592 C586 1.363 . S
C592 C587 1.379 . S
C592 N590 1.356 . S
N593 C585 1.356 . S
N593 H599 0.984 . S
N593 H600 0.984 . S
N594 C587 1.356 . S
N594 H597 0.984 . S
N594 H598 0.985 . S
H595 N590 0.984 . S
H596 N590 0.985 . S
H597 N594 0.984 . S
H598 N594 0.985 . S
H599 N593 0.984 . S
H600 N593 0.984 . S
H601 N589 0.984 . S
H602 N589 0.985 . S
C172 C5 1.795 . S
C174 C89 1.691 . S
C190 C16 1.459 . S
C192 C136 1.447 . S
C210 C140 1.639 . S
C208 C36 1.710 . S
C228 C105 1.382 . S
C226 C42 1.410 . S
C244 C55 1.677 . S
C246 C120 1.636 . S
C264 C142 1.140 . S
C262 C66 1.156 . S
C282 C111 1.413 . S
C280 C31 1.483 . S
C298 C40 1.426 . S
C300 C151 1.415 . S
C318 C80 1.415 . S
C316 C53 1.452 . S
C334 C68 1.315 . S
C336 C109 1.295 . S
C352 C10 1.807 1_556 S
C354 C167 1.739 . S
C372 C78 1.428 . S
C370 C14 1.445 1_556 S
C390 C96 1.766 . S
C388 C49 1.805 . S
C408 C110 1.514 . S
C406 C62 1.530 . S
C426 C164 1.583 . S
C424 C70 1.617 . S
C444 C79 1.436 . S
C442 C1 1.486 . S
C462 C127 1.696 . S
C460 C23 1.746 1_556 S
C478 C29 1.107 . S
C480 C150 1.066 . S
C498 C119 1.487 . S
C496 C75 1.520 . S
C516 C158 1.341 . S
C514 C3 1.409 . S
C534 C88 1.357 . S
C532 C18 1.380 . S
C552 C133 1.350 . S
C550 C27 1.401 . S
C568 C44 1.727 . S
C570 C141 1.684 . S
C586 C57 1.372 . S
C588 C102 1.363 . S
