# Generated by pormake.
# Topology zzz, (3,6)-cn, num edge types: 1
# Building blocks:
#     Node 0, Type 0, BuildingBlock: OLANEW_clean_sbu_2, # of connection points: 3
#     Node 1, Type 0, BuildingBlock: OLANEW_clean_sbu_2, # of connection points: 3
#     Node 2, Type 0, BuildingBlock: OLANEW_clean_sbu_2, # of connection points: 3
#     Node 3, Type 0, BuildingBlock: OLANEW_clean_sbu_2, # of connection points: 3
#     Node 4, Type 0, BuildingBlock: OLANEW_clean_sbu_2, # of connection points: 3
#     Node 5, Type 0, BuildingBlock: OLANEW_clean_sbu_2, # of connection points: 3
#     Node 6, Type 0, BuildingBlock: OLANEW_clean_sbu_2, # of connection points: 3
#     Node 7, Type 0, BuildingBlock: OLANEW_clean_sbu_2, # of connection points: 3
#     Node 8, Type 1, BuildingBlock: KUMBOL_clean_sbu_0, # of connection points: 6
#     Node 9, Type 1, BuildingBlock: KUMBOL_clean_sbu_0, # of connection points: 6
#     Node 10, Type 1, BuildingBlock: KUMBOL_clean_sbu_0, # of connection points: 6
#     Node 11, Type 1, BuildingBlock: KUMBOL_clean_sbu_0, # of connection points: 6
#     Edge 12, Type (0, 1), None
#     Edge 13, Type (0, 1), None
#     Edge 14, Type (0, 1), None
#     Edge 15, Type (0, 1), None
#     Edge 16, Type (0, 1), None
#     Edge 17, Type (0, 1), None
#     Edge 18, Type (0, 1), None
#     Edge 19, Type (0, 1), None
#     Edge 20, Type (0, 1), None
#     Edge 21, Type (0, 1), None
#     Edge 22, Type (0, 1), None
#     Edge 23, Type (0, 1), None
#     Edge 24, Type (0, 1), None
#     Edge 25, Type (0, 1), None
#     Edge 26, Type (0, 1), None
#     Edge 27, Type (0, 1), None
#     Edge 28, Type (0, 1), None
#     Edge 29, Type (0, 1), None
#     Edge 30, Type (0, 1), None
#     Edge 31, Type (0, 1), None
#     Edge 32, Type (0, 1), None
#     Edge 33, Type (0, 1), None
#     Edge 34, Type (0, 1), None
#     Edge 35, Type (0, 1), None
# Relax obj value: 0.281
# Max RMSD: 0.209
# Mean RMSD: 0.128
data_MOF--net-zzz--node1-OLANEW_clean_sbu_2--node2-KUMBOL_clean_sbu_0--edge1-none
_symmetry_space_group_name_H-M    P1
_symmetry_Int_Tables_number       1
_symmetry_cell_setting            triclinic
loop_
_symmetry_equiv_pos_as_xyz
'x, y, z'
_cell_length_a     27.470904
_cell_length_b     27.520394
_cell_length_c     8.4256239
_cell_angle_alpha  91.153072
_cell_angle_beta   90.892533
_cell_angle_gamma 90.772925
loop_
_atom_site_label
_atom_site_type_symbol
_atom_site_fract_x
_atom_site_fract_y
_atom_site_fract_z
_atom_type_partial_charge
O0 O 0.67745 0.52114 0.16625 0.0
Cd1 Cd 0.63911 0.44356 0.21697 0.0
O2 O 0.73729 0.57388 0.17918 0.0
Cd3 Cd 0.80529 0.57713 0.31498 0.0
O4 O 0.85336 0.53893 0.47735 0.0
C5 C 0.86725 0.55492 0.61316 0.0
O6 O 0.85298 0.59779 0.66366 0.0
C7 C 0.72268 0.5301 0.16636 0.0
C8 C 0.54583 0.46302 0.10639 0.0
O9 O 0.58436 0.47919 0.04596 0.0
O10 O 0.54985 0.43794 0.23014 0.0
O11 O 0.97523 0.71936 0.14599 0.0
Cd12 Cd 0.03429 0.66822 0.04266 0.0
O13 O 0.96325 0.783 0.29138 0.0
Cd14 Cd -0.01717 0.83731 0.46971 0.0
O15 O 0.93063 0.84072 0.67556 0.0
C16 C 0.93261 0.87943 0.75966 0.0
O17 O 0.92852 0.83864 0.67849 0.0
C18 C -0.01113 0.76158 0.18916 0.0
C19 C 0.00836 0.57172 0.03254 0.0
O20 O -0.01506 0.60286 0.95256 0.0
O21 O 0.04182 0.58673 0.12896 0.0
O22 O 0.76002 0.03907 0.1965 0.0
Cd23 Cd 0.82626 0.00513 0.32426 0.0
O24 O 0.72809 0.03625 0.43148 0.0
Cd25 Cd 0.67143 0.03914 0.60733 0.0
O26 O 0.65226 0.96566 0.71091 0.0
C27 C 0.60893 0.9486 0.71878 0.0
O28 O 0.65383 0.9643 0.71351 0.0
C29 C 0.72619 0.05003 0.28878 0.0
C30 C 0.89779 0.00493 0.10753 0.0
O31 O 0.87905 0.04504 0.15143 0.0
O32 O 0.87786 0.96517 0.14735 0.0
O33 O 0.53199 0.76427 0.1983 0.0
Cd34 Cd 0.45515 0.80636 0.2192 0.0
O35 O 0.56828 0.70424 0.31422 0.0
Cd36 Cd 0.55381 0.65378 0.50516 0.0
O37 O 0.56829 0.64666 0.75895 0.0
C38 C 0.55838 0.61224 0.8517 0.0
O39 O 0.57721 0.61354 0.99584 0.0
C40 C 0.53081 0.72117 0.24727 0.0
C41 C 0.46333 0.89205 0.05599 0.0
O42 O 0.42987 0.86089 0.01897 0.0
O43 O 0.49317 0.88161 0.16586 0.0
O44 O 0.26363 0.44954 0.48595 0.0
Cd45 Cd 0.33064 0.39881 0.50438 0.0
O46 O 0.22456 0.39316 0.34819 0.0
Cd47 Cd 0.17216 0.37207 0.16633 0.0
O48 O 0.11576 0.40436 0.02755 0.0
C49 C 0.11604 0.41597 0.88274 0.0
O50 O 0.15177 0.40293 0.78998 0.0
C51 C 0.22822 0.43699 0.39772 0.0
C52 C 0.40645 0.4653 0.45824 0.0
O53 O 0.36753 0.47754 0.52496 0.0
O54 O 0.40827 0.4221 0.40011 0.0
O55 O -0.00773 0.25479 0.50266 0.0
Cd56 Cd 0.05925 0.30609 0.56679 0.0
O57 O 0.04307 0.22347 0.33635 0.0
Cd58 Cd 0.0784 0.18947 0.13068 0.0
O59 O 0.03718 0.14564 0.95818 0.0
C60 C 0.05368 0.10791 0.89126 0.0
O61 O 0.10014 0.09835 0.90102 0.0
C62 C -0.00077 0.22789 0.38309 0.0
C63 C 0.0124 0.39229 0.51243 0.0
O64 O 0.00262 0.36481 0.6264 0.0
O65 O 0.04742 0.38008 0.42221 0.0
O66 O 0.203 0.97628 0.27045 0.0
Cd67 Cd 0.1321 0.08195 0.17602 0.0
O68 O 0.27147 0.00749 0.36954 0.0
Cd69 Cd 0.31252 0.02876 0.16416 0.0
O70 O 0.34404 -0.00056 0.95036 0.0
C71 C 0.37156 0.02345 0.8609 0.0
O72 O 0.37709 0.07056 0.88193 0.0
C73 C 0.24555 0.97031 0.33328 0.0
C74 C 0.08756 0.07135 0.27328 0.0
O75 O 0.07867 0.02998 0.37387 0.0
O76 O 0.06285 0.11094 0.23436 0.0
O77 O 0.41455 0.25629 0.26453 0.0
Cd78 Cd 0.42153 0.17574 0.12536 0.0
O79 O 0.41555 0.29205 0.03388 0.0
Cd80 Cd 0.37387 0.25578 0.8463 0.0
O81 O 0.41978 0.31918 0.78234 0.0
C82 C 0.39912 0.36019 0.78171 0.0
O83 O 0.35177 0.36147 0.8 0.0
C84 C 0.42684 0.29226 0.18039 0.0
C85 C 0.4036 0.08676 0.24292 0.0
O86 O 0.44595 0.07241 0.32256 0.0
O87 O 0.3863 0.12301 0.172 0.0
Gd88 Gd 0.95645 0.01968 0.62875 0.0
Gd89 Gd 0.04613 0.96955 0.86711 0.0
C90 C 0.1544 0.04107 0.3918 0.0
C91 C 0.21618 0.06347 0.18808 0.0
C92 C 0.14977 0.00703 0.04595 0.0
C93 C 0.12158 0.00156 0.18856 0.0
C94 C 0.19583 0.03555 0.05066 0.0
C95 C 0.19818 0.06554 0.3499 0.0
C96 C 0.10789 0.08381 0.53258 0.0
C97 C 0.03299 0.08461 0.46932 0.0
N98 N 0.05618 0.0062 0.14609 0.0
C99 C 0.01055 0.04164 0.26029 0.0
H100 H 0.97834 0.05263 0.20075 0.0
C101 C 0.15426 -0.00025 0.76503 0.0
N102 N 0.12763 -0.002 0.89914 0.0
C103 C 0.20123 0.01937 0.76741 0.0
C104 C 0.22086 0.03917 0.90756 0.0
H105 H 0.13885 -0.01446 0.65516 0.0
H106 H 0.21471 0.09127 0.434 0.0
H107 H 0.00782 0.95019 0.33415 0.0
H108 H 0.12299 0.11061 0.61538 0.0
H109 H 0.01001 0.1107 0.52649 0.0
H110 H 0.2478 0.08639 0.16837 0.0
H111 H 0.84628 0.04952 0.78321 0.0
H112 H 0.90435 0.84652 0.15963 0.0
H113 H -0.01633 0.88919 0.14204 0.0
H114 H 0.76753 0.86894 0.49095 0.0
H115 H 0.22176 0.02098 0.6592 0.0
H116 H 0.25585 0.05775 0.90337 0.0
H117 H 0.82609 0.83655 0.30073 0.0
H118 H 0.76494 0.01318 0.81209 0.0
N119 N 0.94012 0.95241 0.45178 0.0
C120 C 0.91432 0.87504 0.24505 0.0
C121 C 0.95902 0.89873 0.23409 0.0
C122 C 0.88252 0.88952 0.36369 0.0
C123 C 0.89594 0.92967 0.46416 0.0
C124 C 0.97216 0.93558 0.34249 0.0
N125 N 0.87572 -0.01221 0.66108 0.0
C126 C 0.86321 0.94741 0.57325 0.0
C127 C 0.7926 -0.00646 0.74813 0.0
C128 C 0.78132 0.94896 0.67507 0.0
C129 C 0.8394 0.01342 0.73416 0.0
C130 C 0.81595 0.92639 0.58063 0.0
H131 H 0.74499 0.93371 0.684 0.0
O132 O 0.9236 0.09163 0.60761 0.0
O133 O 0.03033 0.03558 0.74001 0.0
O134 O 0.97689 0.97933 0.01709 0.0
O135 O 0.92514 0.02665 0.86479 0.0
O136 O 0.97476 0.08524 0.78369 0.0
O137 O 0.92798 0.04481 0.40564 0.0
O138 O 0.08673 0.90305 0.80289 0.0
O139 O 0.97082 0.95643 0.77985 0.0
O140 O 0.0388 -0.00061 0.56727 0.0
O141 O 0.04256 -0.00242 0.57933 0.0
O142 O 0.01727 0.89929 0.75368 0.0
O143 O 0.07052 0.92215 0.04828 0.0
C144 C 0.01963 0.0746 0.81136 0.0
C145 C 0.80352 0.88544 0.48594 0.0
C146 C 0.83673 0.86712 0.37732 0.0
C147 C 0.91196 0.08579 0.45912 0.0
C148 C 0.91051 0.12981 0.35966 0.0
C149 C 0.86665 0.15515 0.34541 0.0
C150 C 0.95321 0.1533 0.31319 0.0
C151 C 0.9559 0.20353 0.30926 0.0
C152 C 0.86745 0.20411 0.30256 0.0
C153 C 0.91213 0.22911 0.29534 0.0
C154 C 0.93634 0.00514 0.99566 0.0
C155 C 0.97304 0.91303 0.73619 0.0
C156 C 0.09081 0.89104 0.95266 0.0
C157 C 0.08671 0.84005 1.0056 0.0
C158 C 0.1288 0.81849 0.06751 0.0
C159 C 0.04112 0.81885 0.03864 0.0
C160 C 0.03729 0.78024 0.14544 0.0
C161 C 0.12528 0.77804 0.16523 0.0
C162 C 0.07969 0.7594 0.20629 0.0
C163 C 0.07082 0.0077 0.43713 0.0
H164 H 0.83233 0.13798 0.37505 0.0
H165 H -0.01447 0.13439 0.29917 0.0
H166 H 0.83373 0.22379 0.29251 0.0
H167 H 0.91257 0.26841 0.28932 0.0
H168 H 0.16435 0.83455 0.04745 0.0
H169 H 0.00853 0.83318 0.98486 0.0
H170 H 0.15799 0.76223 0.214 0.0
H171 H 0.07748 0.72911 0.28624 0.0
Gd172 Gd 0.46605 0.94402 0.57424 0.0
Gd173 Gd 0.50128 0.04003 0.82532 0.0
C174 C 0.45737 0.14631 0.35051 0.0
C175 C 0.51266 0.20559 0.2364 0.0
C176 C 0.49642 0.13898 0.02757 0.0
C177 C 0.47843 0.11029 0.14111 0.0
C178 C 0.51342 0.18612 0.07455 0.0
C179 C 0.48318 0.1897 0.36557 0.0
C180 C 0.4079 0.10887 0.50308 0.0
C181 C 0.38681 0.03497 0.43119 0.0
N182 N 0.45834 0.04866 0.09082 0.0
C183 C 0.41807 0.00774 0.20972 0.0
H184 H 0.40525 0.974 0.15653 0.0
C185 C 0.50127 0.15563 0.75429 0.0
N186 N 0.49062 0.12417 0.87121 0.0
C187 C 0.5221 0.2011 0.79207 0.0
C188 C 0.53014 0.21501 0.95091 0.0
H189 H 0.50193 0.14209 0.63392 0.0
H190 H 0.48053 0.21193 0.47211 0.0
H191 H 0.52367 -0.00755 0.26105 0.0
H192 H 0.39484 0.12564 0.61116 0.0
H193 H 0.35918 0.01554 0.49419 0.0
H194 H 0.53264 0.23896 0.26022 0.0
H195 H 0.44387 0.83129 0.7347 0.0
H196 H 0.64452 0.90339 0.14132 0.0
H197 H 0.59085 0.96883 0.07826 0.0
H198 H 0.63589 0.77421 0.50415 0.0
H199 H 0.53502 0.22424 0.69883 0.0
H200 H 0.54993 0.24817 0.97511 0.0
H201 H 0.66331 0.83249 0.30718 0.0
H202 H 0.48835 0.75671 0.78861 0.0
N203 N 0.53431 0.93222 0.4082 0.0
C204 C 0.6145 0.91148 0.21917 0.0
C205 C 0.58458 0.95019 0.18631 0.0
C206 C 0.60339 0.88169 0.3448 0.0
C207 C 0.5616 0.89189 0.43507 0.0
C208 C 0.54606 0.962 0.28713 0.0
N209 N 0.50268 0.86624 0.61561 0.0
C210 C 0.54579 0.85851 0.54385 0.0
C211 C 0.50536 0.78527 0.72145 0.0
C212 C 0.55185 0.77917 0.6622 0.0
C213 C 0.48026 0.82789 0.68987 0.0
C214 C 0.57177 0.81496 0.56675 0.0
H215 H 0.57081 0.74557 0.68302 0.0
O216 O 0.40648 0.89146 0.56677 0.0
O217 O 0.43969 0.01309 0.6873 0.0
O218 O 0.47919 0.97698 0.9852 0.0
O219 O 0.48467 0.9136 0.8056 0.0
O220 O 0.39778 0.9509 0.72079 0.0
O221 O 0.43065 0.92271 0.35171 0.0
O222 O 0.56602 0.08657 0.81376 0.0
O223 O 0.52597 0.96853 0.7352 0.0
O224 O 0.47588 0.0291 0.51569 0.0
O225 O 0.47738 0.03389 0.53043 0.0
O226 O 0.57189 0.02655 0.69793 0.0
O227 O 0.55325 0.0395 0.01931 0.0
C228 C 0.40215 -0.00325 0.75144 0.0
C229 C 0.61538 0.80709 0.48669 0.0
C230 C 0.63096 0.84024 0.37471 0.0
C231 C 0.40136 0.89092 0.41383 0.0
C232 C 0.35043 0.88518 0.35599 0.0
C233 C 0.32691 0.83954 0.35563 0.0
C234 C 0.32273 0.92582 0.32828 0.0
C235 C 0.27164 0.92373 0.32026 0.0
C236 C 0.27616 0.83601 0.33231 0.0
C237 C 0.24825 0.87815 0.31791 0.0
C238 C 0.47466 0.93012 0.9464 0.0
C239 C 0.5675 0.98008 0.68911 0.0
C240 C 0.58008 0.07318 0.95558 0.0
C241 C 0.62512 0.09206 0.03008 0.0
C242 C 0.63468 0.14229 0.03433 0.0
C243 C 0.65337 0.06166 0.1239 0.0
C244 C 0.6886 0.08129 0.22823 0.0
C245 C 0.66981 0.16206 0.13945 0.0
C246 C 0.69642 0.13166 0.23766 0.0
C247 C 0.46936 0.05938 0.38208 0.0
H248 H 0.34746 0.80698 0.37812 0.0
H249 H 0.3412 0.95979 0.32162 0.0
H250 H 0.25823 0.80074 0.33312 0.0
H251 H 0.20893 0.87523 0.31069 0.0
H252 H 0.614 0.16636 0.96056 0.0
H253 H 0.64922 0.02275 0.11312 0.0
H254 H 0.6767 0.20088 0.14388 0.0
H255 H 0.72514 0.14708 0.31354 0.0
Gd256 Gd 0.42657 0.52091 0.86907 0.0
Gd257 Gd 0.53 0.45954 0.66889 0.0
C258 C 0.69307 0.46292 0.77433 0.0
C259 C 0.71991 0.53384 0.63042 0.0
C260 C 0.63483 0.50807 0.61808 0.0
C261 C 0.64477 0.47185 0.72504 0.0
C262 C 0.67216 0.54015 0.5723 0.0
C263 C 0.7306 0.49429 0.72681 0.0
C264 C 0.70217 0.42185 0.8653 0.0
C265 C 0.66353 0.39095 0.90394 0.0
N266 N 0.60739 0.4435 0.77359 0.0
C267 C 0.61615 0.40237 0.85546 0.0
H268 H 0.58612 0.3786 0.88036 0.0
C269 C 0.57753 0.54615 0.45046 0.0
N270 N 0.58851 0.51191 0.55952 0.0
C271 C 0.61351 0.57884 0.40151 0.0
C272 C 0.66054 0.57682 0.46642 0.0
H273 H 0.5408 0.54931 0.40473 0.0
H274 H 0.76807 0.48765 0.76048 0.0
H275 H 0.39476 0.60477 0.60499 0.0
H276 H 0.73888 0.41307 0.90283 0.0
H277 H 0.6702 0.35833 0.97012 0.0
H278 H 0.74924 0.55769 0.59433 0.0
H279 H 0.39015 0.4337 0.1114 0.0
H280 H 0.23886 0.60371 0.56054 0.0
H281 H 0.31735 0.64173 0.5061 0.0
H282 H 0.19085 0.476 0.89829 0.0
H283 H 0.60483 0.60611 0.31532 0.0
H284 H 0.68794 0.60283 0.4304 0.0
H285 H 0.19146 0.54184 0.70788 0.0
H286 H 0.31425 0.38938 0.17659 0.0
N287 N 0.35798 0.54926 0.72817 0.0
C288 C 0.27195 0.58785 0.60693 0.0
C289 C 0.31683 0.6088 0.57294 0.0
C290 C 0.27016 0.54793 0.70559 0.0
C291 C 0.31422 0.52974 0.76769 0.0
C292 C 0.35997 0.58823 0.6309 0.0
N293 N 0.35591 0.47804 0.94109 0.0
C294 C 0.31337 0.49216 0.87372 0.0
C295 C 0.31345 0.41848 0.09216 0.0
C296 C 0.26984 0.43094 0.01711 0.0
C297 C 0.35615 0.44384 0.05673 0.0
C298 C 0.26899 0.46993 0.91351 0.0
H299 H 0.23672 0.4116 0.04378 0.0
O300 O 0.41061 0.55067 0.10303 0.0
O301 O 0.49384 0.47971 0.88777 0.0
O302 O 0.47586 0.40593 0.77993 0.0
O303 O 0.40186 0.44653 0.78463 0.0
O304 O 0.46319 0.49405 0.10024 0.0
O305 O 0.42077 0.59904 0.90409 0.0
O306 O 0.57316 0.41437 0.51867 0.0
O307 O 0.46319 0.50297 0.63786 0.0
O308 O 0.48425 0.57111 0.76424 0.0
O309 O 0.55426 0.52683 0.80543 0.0
O310 O 0.49045 0.47284 0.43747 0.0
O311 O 0.5192 0.38065 0.66736 0.0
C312 C 0.49951 0.47384 0.03226 0.0
C313 C 0.2252 0.4888 0.85519 0.0
C314 C 0.22565 0.52744 0.75057 0.0
C315 C 0.41027 0.59536 0.05394 0.0
C316 C 0.42647 0.63424 0.16582 0.0
C317 C 0.39476 0.64798 0.28608 0.0
C318 C 0.4709 0.65914 0.15253 0.0
C319 C 0.48412 0.69614 0.26296 0.0
C320 C 0.40765 0.68509 0.39538 0.0
C321 C 0.4524 0.70903 0.38428 0.0
C322 C 0.42729 0.40624 0.77726 0.0
C323 C 0.45179 0.49139 0.49623 0.0
C324 C 0.54995 0.37442 0.55296 0.0
C325 C 0.53484 0.34552 0.41342 0.0
C326 C 0.57042 0.33841 0.29865 0.0
C327 C 0.48586 0.33243 0.37885 0.0
C328 C 0.47241 0.31913 0.22207 0.0
C329 C 0.55662 0.32865 0.14323 0.0
C330 C 0.50761 0.32302 0.10264 0.0
C331 C 0.53156 0.56869 0.79753 0.0
H332 H 0.35969 0.63005 0.2918 0.0
H333 H 0.49457 0.65044 0.0556 0.0
H334 H 0.38302 0.69565 0.48835 0.0
H335 H 0.46193 0.73786 0.46834 0.0
H336 H 0.60864 0.34523 0.32595 0.0
H337 H 0.4587 0.33339 0.47059 0.0
H338 H 0.58432 0.3237 0.05556 0.0
H339 H 0.49855 0.3153 0.97918 0.0
Gd340 Gd 0.9534 0.43965 0.86862 0.0
Gd341 Gd 0.02391 0.53082 0.62366 0.0
C342 C 0.06208 0.68848 0.74242 0.0
C343 C -0.0048 0.73012 0.61528 0.0
C344 C 6e-05 0.64246 0.59314 0.0
C345 C 0.04075 0.64352 0.6942 0.0
C346 C 0.97669 0.68581 0.55404 0.0
C347 C 0.03878 0.7318 0.70355 0.0
C348 C 0.10546 0.68846 0.83205 0.0
C349 C 0.1246 0.64436 0.88139 0.0
N350 N 0.05985 0.60087 0.74315 0.0
C351 C 0.10067 0.60069 0.83856 0.0
H352 H 0.11585 0.56664 0.87576 0.0
C353 C 0.95033 0.59776 0.40858 0.0
N354 N -0.01632 0.59919 0.53096 0.0
C355 C 0.9242 0.63943 0.37257 0.0
C356 C 0.93609 0.68328 0.45121 0.0
H357 H 0.94128 0.5635 0.34934 0.0
H358 H 0.05378 0.76668 0.74265 0.0
H359 H 0.86452 0.41752 0.60166 0.0
H360 H 0.12354 0.72223 0.86767 0.0
H361 H 0.15765 0.64403 0.95294 0.0
H362 H 0.97687 0.7633 0.59044 0.0
H363 H 0.02689 0.38954 0.13734 0.0
H364 H 0.83766 0.26477 0.55185 0.0
H365 H 0.81967 0.3468 0.47337 0.0
H366 H 0.95589 0.19771 0.90105 0.0
H367 H 0.89484 0.63767 0.28539 0.0
H368 H 0.91529 0.71536 0.42514 0.0
H369 H 0.88929 0.20853 0.7077 0.0
H370 H 0.05843 0.30799 0.20212 0.0
N371 N 0.91124 0.3739 0.73596 0.0
C372 C 0.85878 0.2948 0.60284 0.0
C373 C 0.84836 0.34183 0.55976 0.0
C374 C 0.89576 0.28721 0.71304 0.0
C375 C 0.92094 0.32804 0.78027 0.0
C376 C 0.8745 0.38123 0.62953 0.0
N377 N 0.97841 0.36235 0.95803 0.0
C378 C 0.95656 0.32213 0.89194 0.0
C379 C 0.02921 0.31166 0.11585 0.0
C380 C 0.00852 0.27073 0.03995 0.0
C381 C 0.0116 0.35746 0.07888 0.0
C382 C 0.97034 0.27519 0.93367 0.0
H383 H 0.02034 0.23522 0.0646 0.0
O384 O 0.92366 0.44027 0.1079 0.0
O385 O 0.00162 0.50382 0.85451 0.0
O386 O 0.07744 0.48445 0.76301 0.0
O387 O 0.03186 0.41788 0.85659 0.0
O388 O 0.97744 0.49035 0.0768 0.0
O389 O 0.87715 0.45531 0.8997 0.0
O390 O 0.04438 0.52919 0.37579 0.0
O391 O 0.97988 0.46294 0.63505 0.0
O392 O 0.91039 0.48445 0.69312 0.0
O393 O 0.94989 0.55874 0.69103 0.0
O394 O 0.01461 0.47341 0.42789 0.0
O395 O 0.09665 0.55088 0.5641 0.0
C396 C 0.00178 0.52049 0.99309 0.0
C397 C 0.94603 0.23413 0.86749 0.0
C398 C 0.90817 0.24021 0.75815 0.0
C399 C 0.88044 0.45106 0.05295 0.0
C400 C 0.8381 0.45861 0.15451 0.0
C401 C 0.83422 0.43374 0.29633 0.0
C402 C 0.80014 0.48891 0.10741 0.0
C403 C 0.75761 0.49187 0.19748 0.0
C404 C 0.79147 0.43656 0.38491 0.0
C405 C 0.75248 0.46344 0.33107 0.0
C406 C 0.07324 0.43983 0.82081 0.0
C407 C -0.007 0.44129 0.51077 0.0
C408 C 0.08843 0.54515 0.41196 0.0
C409 C 0.12954 0.52709 0.32381 0.0
C410 C 0.15423 0.56073 0.23054 0.0
C411 C 0.15177 0.48353 0.36632 0.0
C412 C 0.20034 0.47604 0.32675 0.0
C413 C 0.20236 0.55301 0.19011 0.0
C414 C 0.22593 0.51199 0.2443 0.0
C415 C 0.90952 0.53237 0.68661 0.0
H416 H 0.86402 0.41136 0.33375 0.0
H417 H 0.80407 0.51094 1.00323 0.0
H418 H 0.78759 0.41854 0.49637 0.0
H419 H 0.71941 0.46413 0.39871 0.0
H420 H 0.13781 0.59506 0.20141 0.0
H421 H 0.13339 0.45858 0.44424 0.0
H422 H 0.22227 0.5802 0.12527 0.0
H423 H 0.26466 0.50894 0.22522 0.0
loop_
_geom_bond_atom_site_label_1
_geom_bond_atom_site_label_2
_geom_bond_distance
_geom_bond_site_symmetry_2
_ccdc_geom_bond_type
O0 Cd1 2.300 . S
O0 C7 1.275 . S
Cd1 O0 2.300 . S
Cd1 O9 2.381 . S
Cd1 O10 2.378 . S
O2 Cd3 2.385 . S
O2 C7 1.255 . S
Cd3 O2 2.385 . S
Cd3 O4 2.317 . S
O4 Cd3 2.317 . S
O4 C5 1.232 . S
C5 O4 1.232 . S
C5 O6 1.218 . S
O6 C5 1.218 . S
C7 O0 1.275 . S
C7 O2 1.255 . S
C8 O9 1.258 . S
C8 O10 1.256 . S
O9 Cd1 2.381 . S
O9 C8 1.258 . S
O10 Cd1 2.378 . S
O10 C8 1.256 . S
O11 Cd12 2.300 . S
O11 C18 1.275 . S
Cd12 O11 2.300 . S
Cd12 O20 2.381 . S
Cd12 O21 2.378 1_655 S
O13 Cd14 2.385 . S
O13 C18 1.255 1_455 S
Cd14 O13 2.385 . S
Cd14 O15 2.317 . S
O15 Cd14 2.317 . S
O15 C16 1.232 1_455 S
C16 O15 1.232 1_655 S
C16 O17 1.218 1_655 S
O17 C16 1.218 1_455 S
C18 O11 1.275 . S
C18 O13 1.255 1_655 S
C19 O20 1.258 . S
C19 O21 1.256 1_655 S
O20 Cd12 2.381 . S
O20 C19 1.258 . S
O21 Cd12 2.378 1_455 S
O21 C19 1.256 1_455 S
O22 Cd23 2.300 1_565 S
O22 C29 1.275 . S
Cd23 O22 2.300 1_545 S
Cd23 O31 2.381 1_545 S
Cd23 O32 2.378 . S
O24 Cd25 2.385 . S
O24 C29 1.255 1_545 S
Cd25 O24 2.385 . S
Cd25 O26 2.317 . S
O26 Cd25 2.317 . S
O26 C27 1.232 1_545 S
C27 O26 1.232 1_565 S
C27 O28 1.218 1_565 S
O28 C27 1.218 1_545 S
C29 O22 1.275 . S
C29 O24 1.255 1_565 S
C30 O31 1.258 . S
C30 O32 1.256 1_565 S
O31 Cd23 2.381 1_565 S
O31 C30 1.258 . S
O32 Cd23 2.378 . S
O32 C30 1.256 1_545 S
O33 Cd34 2.300 . S
O33 C40 1.275 . S
Cd34 O33 2.300 . S
Cd34 O42 2.381 . S
Cd34 O43 2.378 . S
O35 Cd36 2.385 . S
O35 C40 1.255 . S
Cd36 O35 2.385 . S
Cd36 O37 2.317 . S
O37 Cd36 2.317 . S
O37 C38 1.232 . S
C38 O37 1.232 . S
C38 O39 1.218 . S
O39 C38 1.218 . S
C40 O33 1.275 . S
C40 O35 1.255 . S
C41 O42 1.258 . S
C41 O43 1.256 . S
O42 Cd34 2.381 . S
O42 C41 1.258 . S
O43 Cd34 2.378 . S
O43 C41 1.256 . S
O44 Cd45 2.300 . S
O44 C51 1.275 . S
Cd45 O44 2.300 . S
Cd45 O53 2.381 . S
Cd45 O54 2.378 . S
O46 Cd47 2.385 1_554 S
O46 C51 1.255 . S
Cd47 O46 2.385 1_556 S
Cd47 O48 2.317 . S
O48 Cd47 2.317 . S
O48 C49 1.232 . S
C49 O48 1.232 . S
C49 O50 1.218 . S
O50 C49 1.218 . S
C51 O44 1.275 . S
C51 O46 1.255 . S
C52 O53 1.258 . S
C52 O54 1.256 . S
O53 Cd45 2.381 . S
O53 C52 1.258 . S
O54 Cd45 2.378 . S
O54 C52 1.256 . S
O55 Cd56 2.300 . S
O55 C62 1.275 . S
Cd56 O55 2.300 . S
Cd56 O64 2.381 . S
Cd56 O65 2.378 . S
O57 Cd58 2.385 1_554 S
O57 C62 1.255 . S
Cd58 O57 2.385 1_556 S
Cd58 O59 2.317 . S
O59 Cd58 2.317 . S
O59 C60 1.232 . S
C60 O59 1.232 . S
C60 O61 1.218 . S
O61 C60 1.218 . S
C62 O55 1.275 . S
C62 O57 1.255 . S
C63 O64 1.258 . S
C63 O65 1.256 . S
O64 Cd56 2.381 . S
O64 C63 1.258 . S
O65 Cd56 2.378 . S
O65 C63 1.256 . S
O66 Cd67 2.300 . S
O66 C73 1.275 . S
Cd67 O66 2.300 . S
Cd67 O75 2.381 . S
Cd67 O76 2.378 . S
O68 Cd69 2.385 1_554 S
O68 C73 1.255 . S
Cd69 O68 2.385 1_556 S
Cd69 O70 2.317 . S
O70 Cd69 2.317 . S
O70 C71 1.232 . S
C71 O70 1.232 . S
C71 O72 1.218 . S
O72 C71 1.218 . S
C73 O66 1.275 . S
C73 O68 1.255 . S
C74 O75 1.258 . S
C74 O76 1.256 . S
O75 Cd67 2.381 . S
O75 C74 1.258 . S
O76 Cd67 2.378 . S
O76 C74 1.256 . S
O77 Cd78 2.300 . S
O77 C84 1.275 . S
Cd78 O77 2.300 . S
Cd78 O86 2.381 . S
Cd78 O87 2.378 . S
O79 Cd80 2.385 1_554 S
O79 C84 1.255 . S
Cd80 O79 2.385 1_556 S
Cd80 O81 2.317 . S
O81 Cd80 2.317 . S
O81 C82 1.232 . S
C82 O81 1.232 . S
C82 O83 1.218 . S
O83 C82 1.218 . S
C84 O77 1.275 . S
C84 O79 1.255 . S
C85 O86 1.258 . S
C85 O87 1.256 . S
O86 Cd78 2.381 . S
O86 C85 1.258 . S
O87 Cd78 2.378 . S
O87 C85 1.256 . S
Gd88 N119 2.661 1_545 S
Gd88 N125 2.601 . S
Gd88 O132 2.545 . S
Gd88 O133 2.606 1_655 S
Gd88 O135 2.429 . S
Gd88 O136 2.545 . S
Gd88 O137 2.412 . S
Gd88 O139 2.362 1_545 S
Gd88 O140 2.324 1_655 S
Gd88 C147 2.828 . S
Gd89 N98 2.661 1_566 S
Gd89 N102 2.601 1_565 S
Gd89 O133 2.362 1_565 S
Gd89 O134 2.324 1_455 S
Gd89 O138 2.545 . S
Gd89 O139 2.606 1_455 S
Gd89 O141 2.429 . S
Gd89 O142 2.545 . S
Gd89 O143 2.412 1_556 S
Gd89 C156 2.828 1_556 S
C90 C93 1.417 . S
C90 C95 1.431 . S
C90 C96 1.412 . S
C91 C94 1.437 . S
C91 C95 1.317 . S
C91 H110 0.929 . S
C92 C93 1.426 . S
C92 C94 1.413 . S
C92 N102 1.359 1_554 S
C93 C90 1.417 . S
C93 C92 1.426 . S
C93 N98 1.350 . S
C94 C91 1.437 . S
C94 C92 1.413 . S
C94 C104 1.391 . S
C95 C90 1.431 . S
C95 C91 1.317 . S
C95 H106 0.930 . S
C96 C90 1.412 . S
C96 C97 1.355 . S
C96 H108 0.930 . S
C97 C96 1.355 . S
C97 C99 1.402 . S
C97 H109 0.930 1_455 S
N98 Gd89 2.661 1_544 S
N98 C93 1.350 . S
N98 C99 1.307 . S
C99 C97 1.402 . S
C99 N98 1.307 . S
C99 H100 0.930 1_455 S
H100 C99 0.930 1_655 S
C101 N102 1.334 1_565 S
C101 C103 1.394 . S
C101 H105 0.930 . S
N102 Gd89 2.601 1_545 S
N102 C92 1.359 1_556 S
N102 C101 1.334 1_545 S
C103 C101 1.394 . S
C103 C104 1.359 1_566 S
C103 H115 0.930 . S
C104 C94 1.391 . S
C104 C103 1.359 1_544 S
C104 H116 0.929 . S
H105 C101 0.930 . S
H106 C95 0.930 . S
H107 C124 0.930 1_455 S
H108 C96 0.930 . S
H109 C97 0.930 1_655 S
H110 C91 0.929 . S
H111 C129 0.930 . S
H112 C120 0.930 . S
H113 C121 0.930 1_455 S
H114 C145 0.929 . S
H115 C103 0.930 . S
H116 C104 0.929 . S
H117 C146 0.930 . S
H118 C127 0.930 . S
N119 Gd88 2.661 1_565 S
N119 C123 1.350 . S
N119 C124 1.307 . S
C120 H112 0.930 . S
C120 C121 1.355 . S
C120 C122 1.412 . S
C121 H113 0.930 1_655 S
C121 C120 1.355 . S
C121 C124 1.402 . S
C122 C120 1.412 . S
C122 C123 1.417 . S
C122 C146 1.431 . S
C123 N119 1.350 . S
C123 C122 1.417 . S
C123 C126 1.426 . S
C124 H107 0.930 1_655 S
C124 N119 1.307 . S
C124 C121 1.402 . S
N125 Gd88 2.601 . S
N125 C126 1.359 1_545 S
N125 C129 1.334 . S
C126 C123 1.426 . S
C126 N125 1.359 1_565 S
C126 C130 1.413 . S
C127 H118 0.930 . S
C127 C128 1.359 1_545 S
C127 C129 1.394 . S
C128 C127 1.359 1_565 S
C128 C130 1.391 . S
C128 H131 0.929 . S
C129 H111 0.930 . S
C129 N125 1.334 . S
C129 C127 1.394 . S
C130 C126 1.413 . S
C130 C128 1.391 . S
C130 C145 1.437 . S
H131 C128 0.929 . S
O132 Gd88 2.545 . S
O132 C147 1.258 . S
O133 Gd88 2.606 1_455 S
O133 Gd89 2.362 1_545 S
O133 C144 1.284 . S
O134 Gd89 2.324 1_655 S
O134 C154 1.254 1_565 S
O135 Gd88 2.429 . S
O135 C154 1.268 . S
O136 Gd88 2.545 . S
O136 C144 1.250 1_655 S
O137 Gd88 2.412 . S
O137 C147 1.252 . S
O138 Gd89 2.545 . S
O138 C156 1.258 1_556 S
O139 Gd88 2.362 1_565 S
O139 Gd89 2.606 1_655 S
O139 C155 1.284 . S
O140 Gd88 2.324 1_455 S
O140 C163 1.254 . S
O141 Gd89 2.429 . S
O141 C163 1.268 1_565 S
O142 Gd89 2.545 . S
O142 C155 1.250 1_455 S
O143 Gd89 2.412 1_554 S
O143 C156 1.252 . S
C144 O133 1.284 . S
C144 O136 1.250 1_455 S
C145 H114 0.929 . S
C145 C130 1.437 . S
C145 C146 1.317 . S
C146 H117 0.930 . S
C146 C122 1.431 . S
C146 C145 1.317 . S
C147 Gd88 2.828 . S
C147 O132 1.258 . S
C147 O137 1.252 . S
C147 C148 1.497 . S
C148 C147 1.497 . S
C148 C149 1.395 . S
C148 C150 1.380 . S
C149 C148 1.395 . S
C149 C152 1.398 . S
C149 H164 0.930 . S
C150 C148 1.380 . S
C150 C151 1.391 . S
C150 H165 0.930 . S
C151 C150 1.391 . S
C151 C153 1.387 . S
C152 C149 1.398 . S
C152 C153 1.380 . S
C152 H166 0.930 . S
C153 C151 1.387 . S
C153 C152 1.380 . S
C153 H167 0.930 . S
C154 O134 1.254 1_545 S
C154 O135 1.268 . S
C155 O139 1.284 . S
C155 O142 1.250 1_655 S
C156 Gd89 2.828 1_554 S
C156 O138 1.258 1_554 S
C156 O143 1.252 . S
C156 C157 1.497 . S
C157 C156 1.497 . S
C157 C158 1.395 . S
C157 C159 1.380 . S
C158 C157 1.395 . S
C158 C161 1.398 . S
C158 H168 0.930 . S
C159 C157 1.380 . S
C159 C160 1.391 . S
C159 H169 0.930 . S
C160 C159 1.391 . S
C160 C162 1.387 . S
C161 C158 1.398 . S
C161 C162 1.380 . S
C161 H170 0.930 . S
C162 C160 1.387 . S
C162 C161 1.380 . S
C162 H171 0.930 . S
C163 O140 1.254 . S
C163 O141 1.268 1_545 S
H164 C149 0.930 . S
H165 C150 0.930 . S
H166 C152 0.930 . S
H167 C153 0.930 . S
H168 C158 0.930 . S
H169 C159 0.930 . S
H170 C161 0.930 . S
H171 C162 0.930 . S
Gd172 N203 2.661 . S
Gd172 N209 2.601 . S
Gd172 O216 2.545 . S
Gd172 O217 2.606 1_565 S
Gd172 O219 2.429 . S
Gd172 O220 2.545 . S
Gd172 O221 2.412 . S
Gd172 O223 2.362 . S
Gd172 O224 2.324 1_565 S
Gd172 C231 2.828 . S
Gd173 N182 2.661 1_556 S
Gd173 N186 2.601 1_556 S
Gd173 O217 2.362 . S
Gd173 O218 2.324 1_545 S
Gd173 O222 2.545 . S
Gd173 O223 2.606 1_545 S
Gd173 O225 2.429 . S
Gd173 O226 2.545 . S
Gd173 O227 2.412 1_556 S
Gd173 C240 2.828 1_556 S
C174 C177 1.417 . S
C174 C179 1.431 . S
C174 C180 1.412 . S
C175 C178 1.437 . S
C175 C179 1.317 . S
C175 H194 0.929 . S
C176 C177 1.426 . S
C176 C178 1.413 . S
C176 N186 1.359 . S
C177 C174 1.417 . S
C177 C176 1.426 . S
C177 N182 1.350 . S
C178 C175 1.437 . S
C178 C176 1.413 . S
C178 C188 1.391 . S
C179 C174 1.431 . S
C179 C175 1.317 . S
C179 H190 0.930 . S
C180 C174 1.412 . S
C180 C181 1.355 . S
C180 H192 0.930 . S
C181 C180 1.355 . S
C181 C183 1.402 . S
C181 H193 0.930 1_545 S
N182 Gd173 2.661 1_554 S
N182 C177 1.350 . S
N182 C183 1.307 . S
C183 C181 1.402 . S
C183 N182 1.307 . S
C183 H184 0.930 1_545 S
H184 C183 0.930 1_565 S
C185 N186 1.334 1_556 S
C185 C187 1.394 . S
C185 H189 0.930 . S
N186 Gd173 2.601 1_554 S
N186 C176 1.359 . S
N186 C185 1.334 1_554 S
C187 C185 1.394 . S
C187 C188 1.359 1_556 S
C187 H199 0.930 . S
C188 C178 1.391 . S
C188 C187 1.359 1_554 S
C188 H200 0.929 . S
H189 C185 0.930 . S
H190 C179 0.930 . S
H191 C208 0.911 1_545 S
H192 C180 0.930 . S
H193 C181 0.930 1_565 S
H194 C175 0.929 . S
H195 C213 0.930 . S
H196 C204 0.930 . S
H197 C205 0.930 1_545 S
H198 C229 0.929 . S
H199 C187 0.930 . S
H200 C188 0.929 . S
H201 C230 0.930 . S
H202 C211 0.930 . S
N203 Gd172 2.661 . S
N203 C207 1.350 . S
N203 C208 1.324 . S
C204 H196 0.930 . S
C204 C205 1.355 . S
C204 C206 1.412 . S
C205 H197 0.930 1_565 S
C205 C204 1.355 . S
C205 C208 1.403 . S
C206 C204 1.412 . S
C206 C207 1.417 . S
C206 C230 1.431 . S
C207 N203 1.350 . S
C207 C206 1.417 . S
C207 C210 1.426 . S
C208 H191 0.911 1_565 S
C208 N203 1.324 . S
C208 C205 1.403 . S
N209 Gd172 2.601 . S
N209 C210 1.359 . S
N209 C213 1.334 . S
C210 C207 1.426 . S
C210 N209 1.359 . S
C210 C214 1.413 . S
C211 H202 0.930 . S
C211 C212 1.359 . S
C211 C213 1.394 . S
C212 C211 1.359 . S
C212 C214 1.391 . S
C212 H215 0.929 . S
C213 H195 0.930 . S
C213 N209 1.334 . S
C213 C211 1.394 . S
C214 C210 1.413 . S
C214 C212 1.391 . S
C214 C229 1.437 . S
H215 C212 0.929 . S
O216 Gd172 2.545 . S
O216 C231 1.258 . S
O217 Gd172 2.606 1_545 S
O217 Gd173 2.362 . S
O217 C228 1.284 . S
O218 Gd173 2.324 1_565 S
O218 C238 1.254 . S
O219 Gd172 2.429 . S
O219 C238 1.268 . S
O220 Gd172 2.545 . S
O220 C228 1.250 1_565 S
O221 Gd172 2.412 . S
O221 C231 1.252 . S
O222 Gd173 2.545 . S
O222 C240 1.258 1_556 S
O223 Gd172 2.362 . S
O223 Gd173 2.606 1_565 S
O223 C239 1.284 . S
O224 Gd172 2.324 1_545 S
O224 C247 1.254 . S
O225 Gd173 2.429 . S
O225 C247 1.268 . S
O226 Gd173 2.545 . S
O226 C239 1.250 1_545 S
O227 Gd173 2.412 1_554 S
O227 C240 1.252 . S
C228 O217 1.284 . S
C228 O220 1.250 1_545 S
C229 H198 0.929 . S
C229 C214 1.437 . S
C229 C230 1.317 . S
C230 H201 0.930 . S
C230 C206 1.431 . S
C230 C229 1.317 . S
C231 Gd172 2.828 . S
C231 O216 1.258 . S
C231 O221 1.252 . S
C231 C232 1.497 . S
C232 C231 1.497 . S
C232 C233 1.395 . S
C232 C234 1.380 . S
C233 C232 1.395 . S
C233 C236 1.398 . S
C233 H248 0.930 . S
C234 C232 1.380 . S
C234 C235 1.391 . S
C234 H249 0.930 . S
C235 C234 1.391 . S
C235 C237 1.387 . S
C236 C233 1.398 . S
C236 C237 1.380 . S
C236 H250 0.930 . S
C237 C235 1.387 . S
C237 C236 1.380 . S
C237 H251 0.930 . S
C238 O218 1.254 . S
C238 O219 1.268 . S
C239 O223 1.284 . S
C239 O226 1.250 1_565 S
C240 Gd173 2.828 1_554 S
C240 O222 1.258 1_554 S
C240 O227 1.252 . S
C240 C241 1.497 . S
C241 C240 1.497 . S
C241 C242 1.395 . S
C241 C243 1.380 . S
C242 C241 1.395 . S
C242 C245 1.398 . S
C242 H252 0.930 . S
C243 C241 1.380 . S
C243 C244 1.391 . S
C243 H253 0.930 . S
C244 C243 1.391 . S
C244 C246 1.387 . S
C245 C242 1.398 . S
C245 C246 1.380 . S
C245 H254 0.930 . S
C246 C244 1.387 . S
C246 C245 1.380 . S
C246 H255 0.930 . S
C247 O224 1.254 . S
C247 O225 1.268 . S
H248 C233 0.930 . S
H249 C234 0.930 . S
H250 C236 0.930 . S
H251 C237 0.930 . S
H252 C242 0.930 . S
H253 C243 0.930 . S
H254 C245 0.930 . S
H255 C246 0.930 . S
Gd256 N287 2.661 . S
Gd256 N293 2.602 . S
Gd256 O300 2.545 1_556 S
Gd256 O301 2.606 . S
Gd256 O303 2.429 . S
Gd256 O304 2.545 1_556 S
Gd256 O305 2.412 1_556 S
Gd256 O307 2.362 . S
Gd256 O308 2.324 . S
Gd256 C315 2.828 1_556 S
Gd257 N266 2.661 . S
Gd257 N270 2.601 . S
Gd257 O301 2.362 . S
Gd257 O302 2.324 . S
Gd257 O306 2.545 . S
Gd257 O307 2.606 . S
Gd257 O309 2.429 . S
Gd257 O310 2.545 . S
Gd257 O311 2.412 . S
Gd257 C324 2.828 . S
C258 C261 1.417 . S
C258 C263 1.431 . S
C258 C264 1.412 . S
C259 C262 1.437 . S
C259 C263 1.317 . S
C259 H278 0.929 . S
C260 C261 1.426 . S
C260 C262 1.413 . S
C260 N270 1.359 . S
C261 C258 1.417 . S
C261 C260 1.426 . S
C261 N266 1.350 . S
C262 C259 1.437 . S
C262 C260 1.413 . S
C262 C272 1.391 . S
C263 C258 1.431 . S
C263 C259 1.317 . S
C263 H274 0.930 . S
C264 C258 1.412 . S
C264 C265 1.355 . S
C264 H276 0.930 . S
C265 C264 1.355 . S
C265 C267 1.402 . S
C265 H277 0.930 1_556 S
N266 Gd257 2.661 . S
N266 C261 1.350 . S
N266 C267 1.307 . S
C267 C265 1.402 . S
C267 N266 1.307 . S
C267 H268 0.930 . S
H268 C267 0.930 . S
C269 N270 1.334 . S
C269 C271 1.394 . S
C269 H273 0.930 . S
N270 Gd257 2.601 . S
N270 C260 1.359 . S
N270 C269 1.334 . S
C271 C269 1.394 . S
C271 C272 1.359 . S
C271 H283 0.930 . S
C272 C262 1.391 . S
C272 C271 1.359 . S
C272 H284 0.929 . S
H273 C269 0.930 . S
H274 C263 0.930 . S
H275 C292 0.930 . S
H276 C264 0.930 . S
H277 C265 0.930 1_554 S
H278 C259 0.929 . S
H279 C297 0.930 . S
H280 C288 0.930 . S
H281 C289 0.930 . S
H282 C313 0.929 . S
H283 C271 0.930 . S
H284 C272 0.929 . S
H285 C314 0.930 . S
H286 C295 0.930 . S
N287 Gd256 2.661 . S
N287 C291 1.350 . S
N287 C292 1.307 . S
C288 H280 0.930 . S
C288 C289 1.355 . S
C288 C290 1.412 . S
C289 H281 0.930 . S
C289 C288 1.355 . S
C289 C292 1.402 . S
C290 C288 1.412 . S
C290 C291 1.417 . S
C290 C314 1.431 . S
C291 N287 1.350 . S
C291 C290 1.417 . S
C291 C294 1.426 . S
C292 H275 0.930 . S
C292 N287 1.307 . S
C292 C289 1.402 . S
N293 Gd256 2.602 . S
N293 C294 1.361 . S
N293 C297 1.331 1_556 S
C294 C291 1.426 . S
C294 N293 1.361 . S
C294 C298 1.413 . S
C295 H286 0.930 . S
C295 C296 1.359 . S
C295 C297 1.394 . S
C296 C295 1.359 . S
C296 C298 1.391 1_554 S
C296 H299 0.929 . S
C297 H279 0.930 . S
C297 N293 1.331 1_554 S
C297 C295 1.394 . S
C298 C294 1.413 . S
C298 C296 1.391 1_556 S
C298 C313 1.437 . S
H299 C296 0.929 . S
O300 Gd256 2.545 1_554 S
O300 C315 1.258 . S
O301 Gd256 2.606 . S
O301 Gd257 2.362 . S
O301 C312 1.284 . S
O302 Gd257 2.324 . S
O302 C322 1.254 . S
O303 Gd256 2.429 . S
O303 C322 1.268 . S
O304 Gd256 2.545 1_554 S
O304 C312 1.250 1_554 S
O305 Gd256 2.412 1_554 S
O305 C315 1.252 . S
O306 Gd257 2.545 . S
O306 C324 1.258 . S
O307 Gd256 2.362 . S
O307 Gd257 2.606 . S
O307 C323 1.284 . S
O308 Gd256 2.324 . S
O308 C331 1.254 . S
O309 Gd257 2.429 . S
O309 C331 1.268 . S
O310 Gd257 2.545 . S
O310 C323 1.250 . S
O311 Gd257 2.412 . S
O311 C324 1.252 . S
C312 O301 1.284 . S
C312 O304 1.250 1_556 S
C313 H282 0.929 . S
C313 C298 1.437 . S
C313 C314 1.317 . S
C314 H285 0.930 . S
C314 C290 1.431 . S
C314 C313 1.317 . S
C315 Gd256 2.828 1_554 S
C315 O300 1.258 . S
C315 O305 1.252 . S
C315 C316 1.497 . S
C316 C315 1.497 . S
C316 C317 1.395 . S
C316 C318 1.380 . S
C317 C316 1.395 . S
C317 C320 1.398 . S
C317 H332 0.930 . S
C318 C316 1.380 . S
C318 C319 1.391 . S
C318 H333 0.930 . S
C319 C318 1.391 . S
C319 C321 1.387 . S
C320 C317 1.398 . S
C320 C321 1.380 . S
C320 H334 0.930 . S
C321 C319 1.387 . S
C321 C320 1.380 . S
C321 H335 0.930 . S
C322 O302 1.254 . S
C322 O303 1.268 . S
C323 O307 1.284 . S
C323 O310 1.250 . S
C324 Gd257 2.828 . S
C324 O306 1.258 . S
C324 O311 1.252 . S
C324 C325 1.497 . S
C325 C324 1.497 . S
C325 C326 1.395 . S
C325 C327 1.380 . S
C326 C325 1.395 . S
C326 C329 1.398 1_554 S
C326 H336 0.930 . S
C327 C325 1.380 . S
C327 C328 1.391 . S
C327 H337 0.930 . S
C328 C327 1.391 . S
C328 C330 1.387 1_554 S
C329 C326 1.398 1_556 S
C329 C330 1.380 . S
C329 H338 0.930 . S
C330 C328 1.387 1_556 S
C330 C329 1.380 . S
C330 H339 0.930 . S
C331 O308 1.254 . S
C331 O309 1.268 . S
H332 C317 0.930 . S
H333 C318 0.930 . S
H334 C320 0.930 . S
H335 C321 0.930 . S
H336 C326 0.930 . S
H337 C327 0.930 . S
H338 C329 0.930 . S
H339 C330 0.930 . S
Gd340 N371 2.661 . S
Gd340 N377 2.600 1_655 S
Gd340 O384 2.545 1_556 S
Gd340 O385 2.607 . S
Gd340 O387 2.429 1_655 S
Gd340 O388 2.545 1_556 S
Gd340 O389 2.412 1_556 S
Gd340 O391 2.362 1_655 S
Gd340 O392 2.324 . S
Gd340 C399 2.828 1_556 S
Gd341 N350 2.661 . S
Gd341 N354 2.601 . S
Gd341 O385 2.361 1_455 S
Gd341 O386 2.324 . S
Gd341 O390 2.545 . S
Gd341 O391 2.606 . S
Gd341 O393 2.429 1_455 S
Gd341 O394 2.545 . S
Gd341 O395 2.412 . S
Gd341 C408 2.828 . S
C342 C345 1.417 . S
C342 C347 1.431 . S
C342 C348 1.412 . S
C343 C346 1.437 . S
C343 C347 1.317 . S
C343 H362 0.929 . S
C344 C345 1.426 . S
C344 C346 1.413 . S
C344 N354 1.359 . S
C345 C342 1.417 . S
C345 C344 1.426 . S
C345 N350 1.350 . S
C346 C343 1.437 . S
C346 C344 1.413 . S
C346 C356 1.391 1_455 S
C347 C342 1.431 . S
C347 C343 1.317 . S
C347 H358 0.930 . S
C348 C342 1.412 . S
C348 C349 1.355 . S
C348 H360 0.930 . S
C349 C348 1.355 . S
C349 C351 1.402 . S
C349 H361 0.930 1_556 S
N350 Gd341 2.661 . S
N350 C345 1.350 . S
N350 C351 1.307 . S
C351 C349 1.402 . S
C351 N350 1.307 . S
C351 H352 0.930 . S
H352 C351 0.930 . S
C353 N354 1.334 1_655 S
C353 C355 1.394 . S
C353 H357 0.930 . S
N354 Gd341 2.601 . S
N354 C344 1.359 . S
N354 C353 1.334 1_455 S
C355 C353 1.394 . S
C355 C356 1.359 . S
C355 H367 0.930 . S
C356 C346 1.391 1_655 S
C356 C355 1.359 . S
C356 H368 0.929 . S
H357 C353 0.930 . S
H358 C347 0.930 . S
H359 C376 0.930 . S
H360 C348 0.930 . S
H361 C349 0.930 1_554 S
H362 C343 0.929 . S
H363 C381 0.930 . S
H364 C372 0.930 . S
H365 C373 0.930 . S
H366 C397 0.929 . S
H367 C355 0.930 . S
H368 C356 0.929 . S
H369 C398 0.930 . S
H370 C379 0.930 . S
N371 Gd340 2.661 . S
N371 C375 1.350 . S
N371 C376 1.307 . S
C372 H364 0.930 . S
C372 C373 1.355 . S
C372 C374 1.412 . S
C373 H365 0.930 . S
C373 C372 1.355 . S
C373 C376 1.402 . S
C374 C372 1.412 . S
C374 C375 1.417 . S
C374 C398 1.431 . S
C375 N371 1.350 . S
C375 C374 1.417 . S
C375 C378 1.426 . S
C376 H359 0.930 . S
C376 N371 1.307 . S
C376 C373 1.402 . S
N377 Gd340 2.600 1_455 S
N377 C378 1.357 1_455 S
N377 C381 1.338 1_556 S
C378 C375 1.426 . S
C378 N377 1.357 1_655 S
C378 C382 1.413 . S
C379 H370 0.930 . S
C379 C380 1.359 . S
C379 C381 1.394 . S
C380 C379 1.359 . S
C380 C382 1.391 1_454 S
C380 H383 0.929 . S
C381 H363 0.930 . S
C381 N377 1.338 1_554 S
C381 C379 1.394 . S
C382 C378 1.413 . S
C382 C380 1.391 1_656 S
C382 C397 1.437 . S
H383 C380 0.929 . S
O384 Gd340 2.545 1_554 S
O384 C399 1.258 . S
O385 Gd340 2.607 . S
O385 Gd341 2.361 1_655 S
O385 C396 1.285 . S
O386 Gd341 2.324 . S
O386 C406 1.254 . S
O387 Gd340 2.429 1_455 S
O387 C406 1.268 . S
O388 Gd340 2.545 1_554 S
O388 C396 1.250 1_554 S
O389 Gd340 2.412 1_554 S
O389 C399 1.252 . S
O390 Gd341 2.545 . S
O390 C408 1.258 . S
O391 Gd340 2.362 1_455 S
O391 Gd341 2.606 . S
O391 C407 1.284 . S
O392 Gd340 2.324 . S
O392 C415 1.254 . S
O393 Gd341 2.429 1_655 S
O393 C415 1.268 . S
O394 Gd341 2.545 . S
O394 C407 1.250 . S
O395 Gd341 2.412 . S
O395 C408 1.252 . S
C396 O385 1.285 . S
C396 O388 1.250 1_556 S
C397 H366 0.929 . S
C397 C382 1.437 . S
C397 C398 1.317 . S
C398 H369 0.930 . S
C398 C374 1.431 . S
C398 C397 1.317 . S
C399 Gd340 2.828 1_554 S
C399 O384 1.258 . S
C399 O389 1.252 . S
C399 C400 1.497 . S
C400 C399 1.497 . S
C400 C401 1.395 . S
C400 C402 1.380 . S
C401 C400 1.395 . S
C401 C404 1.398 . S
C401 H416 0.930 . S
C402 C400 1.380 . S
C402 C403 1.391 . S
C402 H417 0.930 . S
C403 C402 1.391 . S
C403 C405 1.387 . S
C404 C401 1.398 . S
C404 C405 1.380 . S
C404 H418 0.930 . S
C405 C403 1.387 . S
C405 C404 1.380 . S
C405 H419 0.930 . S
C406 O386 1.254 . S
C406 O387 1.268 . S
C407 O391 1.284 . S
C407 O394 1.250 . S
C408 Gd341 2.828 . S
C408 O390 1.258 . S
C408 O395 1.252 . S
C408 C409 1.497 . S
C409 C408 1.497 . S
C409 C410 1.395 . S
C409 C411 1.380 . S
C410 C409 1.395 . S
C410 C413 1.398 1_554 S
C410 H420 0.930 . S
C411 C409 1.380 . S
C411 C412 1.391 . S
C411 H421 0.930 . S
C412 C411 1.391 . S
C412 C414 1.387 1_554 S
C413 C410 1.398 1_556 S
C413 C414 1.380 . S
C413 H422 0.930 . S
C414 C412 1.387 1_556 S
C414 C413 1.380 . S
C414 H423 0.930 . S
C415 O392 1.254 . S
C415 O393 1.268 . S
H416 C401 0.930 . S
H417 C402 0.930 . S
H418 C404 0.930 . S
H419 C405 0.930 . S
H420 C410 0.930 . S
H421 C411 0.930 . S
H422 C413 0.930 . S
H423 C414 0.930 . S
C74 C163 3.374 . S
C247 C85 3.384 . S
C323 C52 3.090 . S
C407 C63 3.085 . S
C154 C30 3.303 1_546 S
C41 C238 3.306 1_554 S
C8 C312 3.033 1_554 S
C19 C396 3.037 1_554 S
C151 C62 2.848 1_655 S
C235 C73 2.807 1_565 S
C328 C84 2.803 . S
C51 C412 2.843 . S
C18 C160 2.375 1_655 S
C244 C29 2.335 1_545 S
C319 C40 2.390 . S
C7 C403 2.428 . S
C60 C144 3.314 . S
C71 C228 3.279 . S
C322 C82 3.563 . S
C406 C49 3.590 . S
C16 C155 3.101 . S
C239 C27 3.108 . S
C331 C38 3.421 . S
C5 C415 3.414 . S
