# Generated by pormake.
# Topology gar, (4,6)-cn, num edge types: 1
# Building blocks:
#     Node 0, Type 0, BuildingBlock: KUFVIS_clean_sbu_0, # of connection points: 4
#     Node 1, Type 0, BuildingBlock: KUFVIS_clean_sbu_0, # of connection points: 4
#     Node 2, Type 0, BuildingBlock: KUFVIS_clean_sbu_0, # of connection points: 4
#     Node 3, Type 0, BuildingBlock: KUFVIS_clean_sbu_0, # of connection points: 4
#     Node 4, Type 0, BuildingBlock: KUFVIS_clean_sbu_0, # of connection points: 4
#     Node 5, Type 0, BuildingBlock: KUFVIS_clean_sbu_0, # of connection points: 4
#     Node 6, Type 0, BuildingBlock: KUFVIS_clean_sbu_0, # of connection points: 4
#     Node 7, Type 0, BuildingBlock: KUFVIS_clean_sbu_0, # of connection points: 4
#     Node 8, Type 0, BuildingBlock: KUFVIS_clean_sbu_0, # of connection points: 4
#     Node 9, Type 0, BuildingBlock: KUFVIS_clean_sbu_0, # of connection points: 4
#     Node 10, Type 0, BuildingBlock: KUFVIS_clean_sbu_0, # of connection points: 4
#     Node 11, Type 0, BuildingBlock: KUFVIS_clean_sbu_0, # of connection points: 4
#     Node 12, Type 0, BuildingBlock: KUFVIS_clean_sbu_0, # of connection points: 4
#     Node 13, Type 0, BuildingBlock: KUFVIS_clean_sbu_0, # of connection points: 4
#     Node 14, Type 0, BuildingBlock: KUFVIS_clean_sbu_0, # of connection points: 4
#     Node 15, Type 0, BuildingBlock: KUFVIS_clean_sbu_0, # of connection points: 4
#     Node 16, Type 0, BuildingBlock: KUFVIS_clean_sbu_0, # of connection points: 4
#     Node 17, Type 0, BuildingBlock: KUFVIS_clean_sbu_0, # of connection points: 4
#     Node 18, Type 0, BuildingBlock: KUFVIS_clean_sbu_0, # of connection points: 4
#     Node 19, Type 0, BuildingBlock: KUFVIS_clean_sbu_0, # of connection points: 4
#     Node 20, Type 0, BuildingBlock: KUFVIS_clean_sbu_0, # of connection points: 4
#     Node 21, Type 0, BuildingBlock: KUFVIS_clean_sbu_0, # of connection points: 4
#     Node 22, Type 0, BuildingBlock: KUFVIS_clean_sbu_0, # of connection points: 4
#     Node 23, Type 0, BuildingBlock: KUFVIS_clean_sbu_0, # of connection points: 4
#     Node 24, Type 1, BuildingBlock: BETDEL_clean_sbu_0, # of connection points: 6
#     Node 25, Type 1, BuildingBlock: BETDEL_clean_sbu_0, # of connection points: 6
#     Node 26, Type 1, BuildingBlock: BETDEL_clean_sbu_0, # of connection points: 6
#     Node 27, Type 1, BuildingBlock: BETDEL_clean_sbu_0, # of connection points: 6
#     Node 28, Type 1, BuildingBlock: BETDEL_clean_sbu_0, # of connection points: 6
#     Node 29, Type 1, BuildingBlock: BETDEL_clean_sbu_0, # of connection points: 6
#     Node 30, Type 1, BuildingBlock: BETDEL_clean_sbu_0, # of connection points: 6
#     Node 31, Type 1, BuildingBlock: BETDEL_clean_sbu_0, # of connection points: 6
#     Node 32, Type 1, BuildingBlock: BETDEL_clean_sbu_0, # of connection points: 6
#     Node 33, Type 1, BuildingBlock: BETDEL_clean_sbu_0, # of connection points: 6
#     Node 34, Type 1, BuildingBlock: BETDEL_clean_sbu_0, # of connection points: 6
#     Node 35, Type 1, BuildingBlock: BETDEL_clean_sbu_0, # of connection points: 6
#     Node 36, Type 1, BuildingBlock: BETDEL_clean_sbu_0, # of connection points: 6
#     Node 37, Type 1, BuildingBlock: BETDEL_clean_sbu_0, # of connection points: 6
#     Node 38, Type 1, BuildingBlock: BETDEL_clean_sbu_0, # of connection points: 6
#     Node 39, Type 1, BuildingBlock: BETDEL_clean_sbu_0, # of connection points: 6
#     Edge 40, Type (0, 1), BuildingBlock: OJICUG_clean_linker_0, # of connection points: 2
#     Edge 41, Type (0, 1), BuildingBlock: OJICUG_clean_linker_0, # of connection points: 2
#     Edge 42, Type (0, 1), BuildingBlock: OJICUG_clean_linker_0, # of connection points: 2
#     Edge 43, Type (0, 1), BuildingBlock: OJICUG_clean_linker_0, # of connection points: 2
#     Edge 44, Type (0, 1), BuildingBlock: OJICUG_clean_linker_0, # of connection points: 2
#     Edge 45, Type (0, 1), BuildingBlock: OJICUG_clean_linker_0, # of connection points: 2
#     Edge 46, Type (0, 1), BuildingBlock: OJICUG_clean_linker_0, # of connection points: 2
#     Edge 47, Type (0, 1), BuildingBlock: OJICUG_clean_linker_0, # of connection points: 2
#     Edge 48, Type (0, 1), BuildingBlock: OJICUG_clean_linker_0, # of connection points: 2
#     Edge 49, Type (0, 1), BuildingBlock: OJICUG_clean_linker_0, # of connection points: 2
#     Edge 50, Type (0, 1), BuildingBlock: OJICUG_clean_linker_0, # of connection points: 2
#     Edge 51, Type (0, 1), BuildingBlock: OJICUG_clean_linker_0, # of connection points: 2
#     Edge 52, Type (0, 1), BuildingBlock: OJICUG_clean_linker_0, # of connection points: 2
#     Edge 53, Type (0, 1), BuildingBlock: OJICUG_clean_linker_0, # of connection points: 2
#     Edge 54, Type (0, 1), BuildingBlock: OJICUG_clean_linker_0, # of connection points: 2
#     Edge 55, Type (0, 1), BuildingBlock: OJICUG_clean_linker_0, # of connection points: 2
#     Edge 56, Type (0, 1), BuildingBlock: OJICUG_clean_linker_0, # of connection points: 2
#     Edge 57, Type (0, 1), BuildingBlock: OJICUG_clean_linker_0, # of connection points: 2
#     Edge 58, Type (0, 1), BuildingBlock: OJICUG_clean_linker_0, # of connection points: 2
#     Edge 59, Type (0, 1), BuildingBlock: OJICUG_clean_linker_0, # of connection points: 2
#     Edge 60, Type (0, 1), BuildingBlock: OJICUG_clean_linker_0, # of connection points: 2
#     Edge 61, Type (0, 1), BuildingBlock: OJICUG_clean_linker_0, # of connection points: 2
#     Edge 62, Type (0, 1), BuildingBlock: OJICUG_clean_linker_0, # of connection points: 2
#     Edge 63, Type (0, 1), BuildingBlock: OJICUG_clean_linker_0, # of connection points: 2
#     Edge 64, Type (0, 1), BuildingBlock: OJICUG_clean_linker_0, # of connection points: 2
#     Edge 65, Type (0, 1), BuildingBlock: OJICUG_clean_linker_0, # of connection points: 2
#     Edge 66, Type (0, 1), BuildingBlock: OJICUG_clean_linker_0, # of connection points: 2
#     Edge 67, Type (0, 1), BuildingBlock: OJICUG_clean_linker_0, # of connection points: 2
#     Edge 68, Type (0, 1), BuildingBlock: OJICUG_clean_linker_0, # of connection points: 2
#     Edge 69, Type (0, 1), BuildingBlock: OJICUG_clean_linker_0, # of connection points: 2
#     Edge 70, Type (0, 1), BuildingBlock: OJICUG_clean_linker_0, # of connection points: 2
#     Edge 71, Type (0, 1), BuildingBlock: OJICUG_clean_linker_0, # of connection points: 2
#     Edge 72, Type (0, 1), BuildingBlock: OJICUG_clean_linker_0, # of connection points: 2
#     Edge 73, Type (0, 1), BuildingBlock: OJICUG_clean_linker_0, # of connection points: 2
#     Edge 74, Type (0, 1), BuildingBlock: OJICUG_clean_linker_0, # of connection points: 2
#     Edge 75, Type (0, 1), BuildingBlock: OJICUG_clean_linker_0, # of connection points: 2
#     Edge 76, Type (0, 1), BuildingBlock: OJICUG_clean_linker_0, # of connection points: 2
#     Edge 77, Type (0, 1), BuildingBlock: OJICUG_clean_linker_0, # of connection points: 2
#     Edge 78, Type (0, 1), BuildingBlock: OJICUG_clean_linker_0, # of connection points: 2
#     Edge 79, Type (0, 1), BuildingBlock: OJICUG_clean_linker_0, # of connection points: 2
#     Edge 80, Type (0, 1), BuildingBlock: OJICUG_clean_linker_0, # of connection points: 2
#     Edge 81, Type (0, 1), BuildingBlock: OJICUG_clean_linker_0, # of connection points: 2
#     Edge 82, Type (0, 1), BuildingBlock: OJICUG_clean_linker_0, # of connection points: 2
#     Edge 83, Type (0, 1), BuildingBlock: OJICUG_clean_linker_0, # of connection points: 2
#     Edge 84, Type (0, 1), BuildingBlock: OJICUG_clean_linker_0, # of connection points: 2
#     Edge 85, Type (0, 1), BuildingBlock: OJICUG_clean_linker_0, # of connection points: 2
#     Edge 86, Type (0, 1), BuildingBlock: OJICUG_clean_linker_0, # of connection points: 2
#     Edge 87, Type (0, 1), BuildingBlock: OJICUG_clean_linker_0, # of connection points: 2
#     Edge 88, Type (0, 1), BuildingBlock: OJICUG_clean_linker_0, # of connection points: 2
#     Edge 89, Type (0, 1), BuildingBlock: OJICUG_clean_linker_0, # of connection points: 2
#     Edge 90, Type (0, 1), BuildingBlock: OJICUG_clean_linker_0, # of connection points: 2
#     Edge 91, Type (0, 1), BuildingBlock: OJICUG_clean_linker_0, # of connection points: 2
#     Edge 92, Type (0, 1), BuildingBlock: OJICUG_clean_linker_0, # of connection points: 2
#     Edge 93, Type (0, 1), BuildingBlock: OJICUG_clean_linker_0, # of connection points: 2
#     Edge 94, Type (0, 1), BuildingBlock: OJICUG_clean_linker_0, # of connection points: 2
#     Edge 95, Type (0, 1), BuildingBlock: OJICUG_clean_linker_0, # of connection points: 2
#     Edge 96, Type (0, 1), BuildingBlock: OJICUG_clean_linker_0, # of connection points: 2
#     Edge 97, Type (0, 1), BuildingBlock: OJICUG_clean_linker_0, # of connection points: 2
#     Edge 98, Type (0, 1), BuildingBlock: OJICUG_clean_linker_0, # of connection points: 2
#     Edge 99, Type (0, 1), BuildingBlock: OJICUG_clean_linker_0, # of connection points: 2
#     Edge 100, Type (0, 1), BuildingBlock: OJICUG_clean_linker_0, # of connection points: 2
#     Edge 101, Type (0, 1), BuildingBlock: OJICUG_clean_linker_0, # of connection points: 2
#     Edge 102, Type (0, 1), BuildingBlock: OJICUG_clean_linker_0, # of connection points: 2
#     Edge 103, Type (0, 1), BuildingBlock: OJICUG_clean_linker_0, # of connection points: 2
#     Edge 104, Type (0, 1), BuildingBlock: OJICUG_clean_linker_0, # of connection points: 2
#     Edge 105, Type (0, 1), BuildingBlock: OJICUG_clean_linker_0, # of connection points: 2
#     Edge 106, Type (0, 1), BuildingBlock: OJICUG_clean_linker_0, # of connection points: 2
#     Edge 107, Type (0, 1), BuildingBlock: OJICUG_clean_linker_0, # of connection points: 2
#     Edge 108, Type (0, 1), BuildingBlock: OJICUG_clean_linker_0, # of connection points: 2
#     Edge 109, Type (0, 1), BuildingBlock: OJICUG_clean_linker_0, # of connection points: 2
#     Edge 110, Type (0, 1), BuildingBlock: OJICUG_clean_linker_0, # of connection points: 2
#     Edge 111, Type (0, 1), BuildingBlock: OJICUG_clean_linker_0, # of connection points: 2
#     Edge 112, Type (0, 1), BuildingBlock: OJICUG_clean_linker_0, # of connection points: 2
#     Edge 113, Type (0, 1), BuildingBlock: OJICUG_clean_linker_0, # of connection points: 2
#     Edge 114, Type (0, 1), BuildingBlock: OJICUG_clean_linker_0, # of connection points: 2
#     Edge 115, Type (0, 1), BuildingBlock: OJICUG_clean_linker_0, # of connection points: 2
#     Edge 116, Type (0, 1), BuildingBlock: OJICUG_clean_linker_0, # of connection points: 2
#     Edge 117, Type (0, 1), BuildingBlock: OJICUG_clean_linker_0, # of connection points: 2
#     Edge 118, Type (0, 1), BuildingBlock: OJICUG_clean_linker_0, # of connection points: 2
#     Edge 119, Type (0, 1), BuildingBlock: OJICUG_clean_linker_0, # of connection points: 2
#     Edge 120, Type (0, 1), BuildingBlock: OJICUG_clean_linker_0, # of connection points: 2
#     Edge 121, Type (0, 1), BuildingBlock: OJICUG_clean_linker_0, # of connection points: 2
#     Edge 122, Type (0, 1), BuildingBlock: OJICUG_clean_linker_0, # of connection points: 2
#     Edge 123, Type (0, 1), BuildingBlock: OJICUG_clean_linker_0, # of connection points: 2
#     Edge 124, Type (0, 1), BuildingBlock: OJICUG_clean_linker_0, # of connection points: 2
#     Edge 125, Type (0, 1), BuildingBlock: OJICUG_clean_linker_0, # of connection points: 2
#     Edge 126, Type (0, 1), BuildingBlock: OJICUG_clean_linker_0, # of connection points: 2
#     Edge 127, Type (0, 1), BuildingBlock: OJICUG_clean_linker_0, # of connection points: 2
#     Edge 128, Type (0, 1), BuildingBlock: OJICUG_clean_linker_0, # of connection points: 2
#     Edge 129, Type (0, 1), BuildingBlock: OJICUG_clean_linker_0, # of connection points: 2
#     Edge 130, Type (0, 1), BuildingBlock: OJICUG_clean_linker_0, # of connection points: 2
#     Edge 131, Type (0, 1), BuildingBlock: OJICUG_clean_linker_0, # of connection points: 2
#     Edge 132, Type (0, 1), BuildingBlock: OJICUG_clean_linker_0, # of connection points: 2
#     Edge 133, Type (0, 1), BuildingBlock: OJICUG_clean_linker_0, # of connection points: 2
#     Edge 134, Type (0, 1), BuildingBlock: OJICUG_clean_linker_0, # of connection points: 2
#     Edge 135, Type (0, 1), BuildingBlock: OJICUG_clean_linker_0, # of connection points: 2
# Relax obj value: 0.148
# Max RMSD: 0.282
# Mean RMSD: 0.144
data_MOF--net-gar--node1-KUFVIS_clean_sbu_0--node2-BETDEL_clean_sbu_0--edge1-OJICUG_clean_linker_0
_symmetry_space_group_name_H-M    P1
_symmetry_Int_Tables_number       1
_symmetry_cell_setting            triclinic
loop_
_symmetry_equiv_pos_as_xyz
'x, y, z'
_cell_length_a     40.656255
_cell_length_b     38.354558
_cell_length_c     40.557923
_cell_angle_alpha  95.095763
_cell_angle_beta   92.127286
_cell_angle_gamma 100.7477
loop_
_atom_site_label
_atom_site_type_symbol
_atom_site_fract_x
_atom_site_fract_y
_atom_site_fract_z
_atom_type_partial_charge
Mn0 Mn 0.03387 0.27326 0.41723 0.0
Mn1 Mn 0.02494 0.31911 0.35081 0.0
C2 C 0.982 0.28733 0.40215 0.0
C3 C 0.03244 0.2216 0.44455 0.0
C4 C 0.05373 0.3547 0.4183 0.0
O5 O 0.07555 0.26622 0.39129 0.0
O6 O 0.0668 0.29947 0.35012 0.0
C7 C 0.01625 0.25697 0.30002 0.0
N8 N 1.0054 0.28616 0.31392 0.0
C9 C 0.95895 0.27721 0.27353 0.0
C10 C 0.96984 0.24729 0.25861 0.0
C11 C 0.99852 0.23703 0.27204 0.0
C12 C 0.97749 0.29587 0.30154 0.0
H13 H 0.03822 0.24886 0.31019 0.0
C14 C 0.08372 0.27929 0.36406 0.0
O15 O 0.04994 0.25209 0.45663 0.0
O16 O 0.01719 0.2206 0.41562 0.0
N17 N 0.98544 0.33934 0.34643 0.0
C18 C 0.97716 0.36778 0.36456 0.0
C19 C 0.94936 0.38175 0.35418 0.0
C20 C 0.9303 0.36636 0.32521 0.0
C21 C 0.93905 0.33694 0.30703 0.0
C22 C 0.96735 0.32454 0.31833 0.0
H23 H 0.9911 0.37915 0.38719 0.0
O24 O 0.98883 0.28107 0.43231 0.0
O25 O 1.00534 0.28502 0.3815 0.0
O26 O 0.05389 0.32579 0.43146 0.0
O27 O 0.0437 0.35537 0.38811 0.0
C28 C 0.92054 0.31914 0.27838 0.0
C29 C 0.93027 0.28907 0.26184 0.0
H30 H 0.95627 0.23187 0.23699 0.0
H31 H 1.00698 0.21383 0.26079 0.0
H32 H 0.94248 0.40412 0.36866 0.0
H33 H 0.90873 0.37705 0.31743 0.0
H34 H 0.89852 0.32808 0.2691 0.0
H35 H 0.91549 0.27524 0.24016 0.0
Mn36 Mn 0.99902 0.76078 0.62666 0.0
Mn37 Mn 0.03426 0.8226 0.68818 0.0
C38 C 0.05516 0.76572 0.64341 0.0
C39 C 0.97384 0.70322 0.60532 0.0
C40 C 0.0196 0.84045 0.61812 0.0
O41 O 0.95818 0.77208 0.6508 0.0
O42 O 0.98445 0.81345 0.69105 0.0
C43 C 0.01619 0.78202 0.74585 0.0
N44 N 0.04003 0.80006 0.72765 0.0
C45 C 0.0843 0.78935 0.76418 0.0
C46 C 0.06022 0.7709 0.78343 0.0
C47 C 0.02602 0.76723 0.77421 0.0
C48 C 0.07301 0.80396 0.73643 0.0
H49 H 0.98987 0.77882 0.73876 0.0
C50 C 0.95783 0.79381 0.67671 0.0
O51 O 0.97136 0.73064 0.58948 0.0
O52 O 0.98798 0.70967 0.63502 0.0
N53 N 0.08215 0.83299 0.68863 0.0
C54 C 0.10219 0.84945 0.66618 0.0
C55 C 0.1371 0.85362 0.6708 0.0
C56 C 0.15102 0.84076 0.69836 0.0
C57 C 0.12995 0.82467 0.72161 0.0
C58 C 0.09532 0.82145 0.71579 0.0
H59 H 0.09165 0.8585 0.64445 0.0
O60 O 0.04437 0.75278 0.61351 0.0
O61 O 0.03304 0.77669 0.66209 0.0
O62 O 1.00636 0.80879 0.60659 0.0
O63 O 0.03048 0.84847 0.64835 0.0
C64 C 0.14181 0.81037 0.74956 0.0
C65 C 0.11905 0.79296 0.77094 0.0
H66 H 0.06772 0.7591 0.80512 0.0
H67 H 0.00728 0.75284 0.78883 0.0
H68 H 0.15322 0.86589 0.65272 0.0
H69 H 0.17783 0.84235 0.70066 0.0
H70 H 0.16831 0.81182 0.75448 0.0
H71 H 0.12856 0.78173 0.79209 0.0
Mn72 Mn 0.53149 0.77467 0.91598 0.0
Mn73 Mn 0.52122 0.82165 0.85063 0.0
C74 C 0.47888 0.78685 0.90092 0.0
C75 C 0.53134 0.72244 0.94247 0.0
C76 C 0.54826 0.85663 0.91881 0.0
O77 O 0.57381 0.77003 0.88997 0.0
O78 O 0.56439 0.80453 0.84999 0.0
C79 C 0.5157 0.76105 0.79861 0.0
N80 N 0.5032 0.78888 0.81311 0.0
C81 C 0.45676 0.77831 0.77257 0.0
C82 C 0.46927 0.74969 0.75713 0.0
C83 C 0.49878 0.74093 0.77031 0.0
C84 C 0.47451 0.79715 0.80093 0.0
H85 H 0.53839 0.75419 0.80854 0.0
C86 C 0.58211 0.78483 0.86354 0.0
O87 O 0.54805 0.75313 0.95504 0.0
O88 O 0.51641 0.72157 0.91342 0.0
N89 N 0.48056 0.83986 0.84634 0.0
C90 C 0.47119 0.86762 0.86455 0.0
C91 C 0.44263 0.88032 0.85423 0.0
C92 C 0.424 0.86444 0.82517 0.0
C93 C 0.43397 0.83583 0.80682 0.0
C94 C 0.46296 0.82467 0.8181 0.0
H95 H 0.48493 0.87951 0.88716 0.0
O96 O 0.48581 0.78019 0.93092 0.0
O97 O 0.50258 0.78607 0.88041 0.0
O98 O 0.54966 0.82759 0.93139 0.0
O99 O 0.53828 0.85752 0.88865 0.0
C100 C 0.41616 0.81779 0.7779 0.0
C101 C 0.42732 0.78879 0.761 0.0
H102 H 0.45636 0.73419 0.73522 0.0
H103 H 0.50852 0.71879 0.75861 0.0
H104 H 0.43488 0.90214 0.86876 0.0
H105 H 0.40189 0.8742 0.81737 0.0
H106 H 0.39367 0.82583 0.76863 0.0
H107 H 0.41312 0.77481 0.73906 0.0
Mn108 Mn 0.50287 0.26643 0.13201 0.0
Mn109 Mn 0.43995 0.25347 0.07305 0.0
C110 C 0.48045 0.20968 0.10715 0.0
C111 C 0.55877 0.27183 0.15078 0.0
C112 C 0.43073 0.27392 0.14585 0.0
O113 O 0.50766 0.31583 0.1138 0.0
O114 O 0.46663 0.30226 0.07268 0.0
C115 C 0.47777 0.25697 0.01198 0.0
N116 N 0.45514 0.23833 0.03099 0.0
C117 C 0.44747 0.18635 0.99154 0.0
C118 C 0.47051 0.20509 0.97149 0.0
C119 C 0.48568 0.24056 0.98174 0.0
C120 C 0.44003 0.20432 0.02113 0.0
H121 H 0.48992 0.28404 0.01992 0.0
C122 C 0.49162 0.32361 0.08826 0.0
O123 O 0.53664 0.28222 0.16961 0.0
O124 O 0.54937 0.26184 0.11991 0.0
N125 N 0.41415 0.20604 0.07135 0.0
C126 C 0.39458 0.19077 0.09474 0.0
C127 C 0.37885 0.15477 0.08902 0.0
C128 C 0.38363 0.13474 0.05948 0.0
C129 C 0.40398 0.15097 0.03583 0.0
C130 C 0.41855 0.18712 0.04262 0.0
H131 H 0.39126 0.20582 0.11775 0.0
O132 O 0.49392 0.21369 0.13709 0.0
O133 O 0.47827 0.23895 0.09443 0.0
O134 O 0.46052 0.2729 0.15591 0.0
O135 O 0.42071 0.26835 0.11528 0.0
C136 C 0.41127 0.13237 1.00631 0.0
C137 C 0.43271 0.15012 0.98401 0.0
H138 H 0.47715 0.19232 0.94843 0.0
H139 H 0.5037 0.25511 0.96653 0.0
H140 H 0.36336 0.14237 0.1075 0.0
H141 H 0.37185 0.10684 0.05537 0.0
H142 H 0.40116 0.10419 1.00088 0.0
H143 H 0.43841 0.13538 0.96159 0.0
Mn144 Mn 0.0618 0.79371 0.15839 0.0
Mn145 Mn 1.00056 0.76219 0.09855 0.0
C146 C 0.05615 0.73561 0.13181 0.0
C147 C 0.11451 0.82106 0.18342 0.0
C148 C 0.98758 0.77131 0.17107 0.0
O149 O 0.05045 0.83985 0.14208 0.0
O150 O 0.01021 0.81474 0.10262 0.0
C151 C 0.03389 0.78606 0.03848 0.0
N152 N 0.01726 0.75958 0.05525 0.0
C153 C 0.00951 0.71792 1.00638 0.0
C154 C 0.02669 0.74466 0.98851 0.0
C155 C 0.03924 0.77879 1.00473 0.0
C156 C 1.0058 0.72651 0.04009 0.0
H157 H 0.0426 0.81257 0.05068 0.0
C158 C 0.02868 0.84195 0.11885 0.0
O159 O 0.08712 0.81949 0.19863 0.0
O160 O 0.11149 0.80858 0.15224 0.0
N161 N 0.98863 0.7117 0.09189 0.0
C162 C 0.97563 0.68831 0.11357 0.0
C163 C 0.96377 0.65251 0.10195 0.0
C164 C 0.96459 0.6416 0.06811 0.0
C165 C 0.97785 0.66629 0.04631 0.0
C166 C 0.99047 0.7012 0.05953 0.0
H167 H 0.97463 0.69688 0.13951 0.0
O168 O 0.06924 0.7434 0.16192 0.0
O169 O 0.04557 0.76136 0.11856 0.0
O170 O 0.01771 0.78356 0.1808 0.0
O171 O 0.97835 0.76239 0.14081 0.0
C172 C 0.97889 0.65775 0.01201 0.0
C173 C 0.99531 0.68327 0.99206 0.0
H174 H 0.03033 0.73933 0.96235 0.0
H175 H 0.05242 0.7996 0.99109 0.0
H176 H 0.95374 0.63347 0.1189 0.0
H177 H 0.95553 0.61412 0.05932 0.0
H178 H 0.96668 0.63176 1.00088 0.0
H179 H 0.99662 0.67609 0.96577 0.0
Mn180 Mn 0.4995 0.76248 0.3824 0.0
Mn181 Mn 0.49224 0.80572 0.3136 0.0
C182 C 0.44689 0.76047 0.35644 0.0
C183 C 0.51126 0.71558 0.41161 0.0
C184 C 0.49975 0.84315 0.38283 0.0
O185 O 0.54716 0.77087 0.36688 0.0
O186 O 0.5391 0.80212 0.32415 0.0
C187 C 0.51071 0.74813 0.26839 0.0
N188 N 0.48935 0.77069 0.27635 0.0
C189 C 0.45455 0.74894 0.22682 0.0
C190 C 0.47628 0.72568 0.21799 0.0
C191 C 0.50437 0.72512 0.239 0.0
C192 C 0.46175 0.77065 0.25682 0.0
H193 H 0.53242 0.74759 0.28431 0.0
C194 C 0.55786 0.78808 0.34275 0.0
O195 O 0.51588 0.74809 0.42502 0.0
O196 O 0.49895 0.7098 0.38105 0.0
N197 N 0.44915 0.81217 0.29758 0.0
C198 C 0.43255 0.83852 0.30796 0.0
C199 C 0.40562 0.84476 0.28818 0.0
C200 C 0.39583 0.82411 0.25797 0.0
C201 C 0.41372 0.79781 0.24727 0.0
C202 C 0.44106 0.79343 0.26751 0.0
H203 H 0.44038 0.85532 0.33072 0.0
O204 O 0.44977 0.75431 0.38732 0.0
O205 O 0.47463 0.76681 0.34113 0.0
O206 O 0.50344 0.81543 0.39652 0.0
O207 O 0.49423 0.84318 0.35153 0.0
C208 C 0.40606 0.77646 0.21688 0.0
C209 C 0.42621 0.75166 0.20687 0.0
H210 H 0.47168 0.70821 0.19514 0.0
H211 H 0.52123 0.70718 0.23245 0.0
H212 H 0.39297 0.86603 0.2957 0.0
H213 H 0.37495 0.82915 0.24293 0.0
H214 H 0.38482 0.77902 0.20096 0.0
H215 H 0.42005 0.73529 0.18349 0.0
Mn216 Mn 0.56733 0.29723 0.65372 0.0
Mn217 Mn 0.50972 0.27094 0.59009 0.0
C218 C 0.55941 0.23907 0.62753 0.0
C219 C 0.61944 0.32214 0.68064 0.0
C220 C 0.49255 0.28445 0.66125 0.0
O221 O 0.55909 0.34459 0.63688 0.0
O222 O 0.52577 0.32241 0.59085 0.0
C223 C 0.54904 0.28403 0.53095 0.0
N224 N 0.52852 0.2614 0.54869 0.0
C225 C 0.51949 0.21533 0.50329 0.0
C226 C 0.54066 0.23801 0.48447 0.0
C227 C 0.55578 0.27239 0.49849 0.0
C228 C 0.51451 0.22806 0.53574 0.0
H229 H 0.55976 0.31083 0.54139 0.0
C230 C 0.54237 0.34826 0.61024 0.0
O231 O 0.59157 0.32181 0.69483 0.0
O232 O 0.61732 0.30983 0.64943 0.0
N233 N 0.49184 0.22125 0.58708 0.0
C234 C 0.47411 0.20205 0.60948 0.0
C235 C 0.45917 0.16637 0.60024 0.0
C236 C 0.4617 0.15142 0.56781 0.0
C237 C 0.47948 0.17204 0.54509 0.0
C238 C 0.49506 0.20683 0.55612 0.0
H239 H 0.47146 0.21383 0.63417 0.0
O240 O 0.57186 0.24616 0.65791 0.0
O241 O 0.55169 0.26588 0.61365 0.0
O242 O 0.52206 0.28846 0.67369 0.0
O243 O 0.48551 0.27964 0.63023 0.0
C244 C 0.48198 0.15961 0.51185 0.0
C245 C 0.50247 0.18093 0.49102 0.0
H246 H 0.5454 0.22935 0.45923 0.0
H247 H 0.57205 0.29009 0.4841 0.0
H248 H 0.44543 0.15059 0.61788 0.0
H249 H 0.45038 0.12397 0.5608 0.0
H250 H 0.46753 0.13404 0.50221 0.0
H251 H 0.50465 0.17089 0.46556 0.0
Mn252 Mn 0.99829 0.2596 0.88603 0.0
Mn253 Mn 0.99291 0.30342 0.8173 0.0
C254 C 0.94635 0.25743 0.85853 0.0
C255 C 0.00945 0.21302 0.91592 0.0
C256 C 0.99886 0.34033 0.88654 0.0
O257 O 0.04631 0.26775 0.87162 0.0
O258 O 0.0396 0.29991 0.82914 0.0
C259 C 0.01278 0.24658 0.77225 0.0
N260 N 0.99113 0.26892 0.77982 0.0
C261 C 0.9579 0.24803 0.72917 0.0
C262 C 0.97996 0.22502 0.72073 0.0
C263 C 0.0074 0.22413 0.74249 0.0
C264 C 0.96416 0.26922 0.75952 0.0
H265 H 0.03401 0.24582 0.78873 0.0
C266 C 0.05772 0.28549 0.84809 0.0
O267 O 0.01358 0.24555 0.9291 0.0
O268 O 0.99774 0.20692 0.88514 0.0
N269 N 0.95016 0.30985 0.80029 0.0
C270 C 0.93287 0.3356 0.81071 0.0
C271 C 0.90627 0.34188 0.79046 0.0
C272 C 0.89761 0.32192 0.75971 0.0
C273 C 0.91617 0.2962 0.74906 0.0
C274 C 0.94306 0.2917 0.76986 0.0
H275 H 0.93984 0.35185 0.83391 0.0
O276 O 0.94836 0.25143 0.88953 0.0
O277 O 0.97458 0.264 0.84408 0.0
O278 O 1.00219 0.31251 0.90019 0.0
O279 O 0.99386 0.34057 0.85523 0.0
C280 C 0.90952 0.27543 0.71828 0.0
C281 C 0.93012 0.251 0.70853 0.0
H282 H 0.97609 0.20796 0.69762 0.0
H283 H 0.02451 0.20636 0.73624 0.0
H284 H 0.89297 0.36261 0.79806 0.0
H285 H 0.87699 0.32697 0.7443 0.0
H286 H 0.88866 0.2781 0.70189 0.0
H287 H 0.9247 0.23505 0.68487 0.0
Mn288 Mn 0.42467 0.04946 0.29987 0.0
Mn289 Mn 0.37548 0.04131 0.36515 0.0
C290 C 0.40986 0.99511 0.32206 0.0
C291 C 0.4352 0.04737 0.24401 0.0
C292 C 0.44795 0.07976 0.37029 0.0
O293 O 0.3999 0.09091 0.29792 0.0
O294 O 0.36551 0.07974 0.33982 0.0
C295 C 0.30948 0.0174 0.32848 0.0
N296 N 0.33286 0.01202 0.35146 0.0
C297 C 0.29808 0.9572 0.36367 0.0
C298 C 0.27354 0.96235 0.34037 0.0
C299 C 0.27934 0.99251 0.3226 0.0
C300 C 0.32773 0.98282 0.36834 0.0
H301 H 0.31381 0.04041 0.31462 0.0
C302 C 0.37484 0.09613 0.31464 0.0
O303 O 0.45576 0.06692 0.26635 0.0
O304 O 0.40728 0.02992 0.25381 0.0
N305 N 0.3821 1.00343 0.39094 0.0
C306 C 0.40912 1.00105 0.41094 0.0
C307 C 0.40732 0.97237 0.43047 0.0
C308 C 0.37797 0.94625 0.42905 0.0
C309 C 0.35054 0.94913 0.4082 0.0
C310 C 0.35354 0.97863 0.38971 0.0
H311 H 0.43174 0.02109 0.41232 0.0
O312 O 0.43719 1.00197 0.30621 0.0
O313 O 0.39395 0.02107 0.32589 0.0
O314 O 0.45342 0.07297 0.34014 0.0
O315 O 0.4192 0.07085 0.38208 0.0
C316 C 0.32059 0.92348 0.40452 0.0
C317 C 0.29447 0.9274 0.3821 0.0
H318 H 0.25027 0.94319 0.33573 0.0
H319 H 0.26061 0.99656 0.3044 0.0
H320 H 0.42845 0.97042 0.4467 0.0
H321 H 0.37685 0.924 0.44391 0.0
H322 H 0.31762 0.90032 0.41837 0.0
H323 H 0.27181 0.90717 0.37903 0.0
Mn324 Mn 0.26331 0.16784 0.5042 0.0
Mn325 Mn 0.25146 0.10442 0.43881 0.0
C326 C 0.2096 0.13703 0.48663 0.0
C327 C 0.26995 0.1868 0.56213 0.0
C328 C 0.27071 0.18371 0.43048 0.0
O329 O 0.30925 0.15195 0.50214 0.0
O330 O 0.2974 0.10884 0.45909 0.0
C331 C 0.25535 0.03963 0.47232 0.0
N332 N 0.23777 0.05798 0.45312 0.0
C333 C 0.19081 0.0089 0.44606 0.0
C334 C 0.20843 0.98951 0.46575 0.0
C335 C 0.24084 0.00495 0.47892 0.0
C336 C 0.2067 0.04321 0.44 0.0
H337 H 0.28026 0.05135 0.48255 0.0
C338 C 0.317 0.12654 0.48282 0.0
O339 O 0.27974 0.20821 0.53988 0.0
O340 O 0.25802 0.15396 0.55098 0.0
N341 N 0.20721 0.0975 0.41836 0.0
C342 C 0.19266 0.12071 0.40197 0.0
C343 C 0.15959 0.10998 0.38856 0.0
C344 C 0.14187 0.07552 0.39211 0.0
C345 C 0.15736 0.0521 0.40908 0.0
C346 C 0.19043 0.06423 0.42178 0.0
H347 H 0.20606 0.14731 0.39935 0.0
O348 O 0.21382 0.16892 0.50191 0.0
O349 O 0.23687 0.12548 0.48035 0.0
O350 O 0.27055 0.19455 0.46132 0.0
O351 O 0.26492 0.15067 0.42002 0.0
C352 C 0.14105 0.01749 0.41451 0.0
C353 C 0.15778 0.99587 0.4329 0.0
H354 H 0.1972 0.96287 0.47115 0.0
H355 H 0.25457 0.99017 0.49419 0.0
H356 H 0.14775 0.12827 0.37565 0.0
H357 H 0.11628 0.06743 0.38196 0.0
H358 H 0.11546 0.00742 0.40503 0.0
H359 H 0.14481 0.96949 0.43728 0.0
Mn360 Mn 0.15745 0.02593 0.79917 0.0
Mn361 Mn 0.2146 0.03875 0.86358 0.0
C362 C 0.18784 0.0828 0.81684 0.0
C363 C 0.1388 0.02082 0.74309 0.0
C364 C 0.13932 0.02207 0.8723 0.0
O365 O 0.17078 0.9765 0.79897 0.0
O366 O 0.20752 0.98806 0.8438 0.0
C367 C 0.27567 0.02589 0.83044 0.0
N368 N 0.25927 0.04814 0.8487 0.0
C369 C 0.30834 0.09481 0.85408 0.0
C370 C 0.32567 0.07237 0.83535 0.0
C371 C 0.30927 0.03774 0.82353 0.0
C372 C 0.27502 0.08134 0.86065 0.0
H373 H 0.26332 0.99923 0.82125 0.0
C374 C 0.19242 0.96734 0.81888 0.0
O375 O 0.11895 0.01041 0.76603 0.0
O376 O 0.1704 0.03081 0.75208 0.0
N377 N 0.22418 0.08724 0.88292 0.0
C378 C 0.20326 0.1065 0.89843 0.0
C379 C 0.21543 0.1422 0.91054 0.0
C380 C 0.24891 0.15783 0.90639 0.0
C381 C 0.26987 0.13766 0.88995 0.0
C382 C 0.25637 0.10213 0.87853 0.0
H383 H 0.17733 0.09491 0.90102 0.0
O384 O 0.15761 0.07871 0.80365 0.0
O385 O 0.19792 0.0535 0.82203 0.0
O386 O 0.13106 0.01854 0.84143 0.0
O387 O 0.1699 0.03025 0.88325 0.0
C388 C 0.3034 0.15167 0.88382 0.0
C389 C 0.32267 0.13021 0.86603 0.0
H390 H 0.35152 0.08151 0.82973 0.0
H391 H 0.32249 0.02024 0.80908 0.0
H392 H 0.19896 0.15772 0.9228 0.0
H393 H 0.25814 0.18547 0.91554 0.0
H394 H 0.31451 0.17904 0.89239 0.0
H395 H 0.34835 0.14136 0.86127 0.0
Mn396 Mn 0.26777 0.89046 1.00039 0.0
Mn397 Mn 0.27269 0.94722 0.94083 0.0
C398 C 0.31824 0.91325 0.97965 0.0
C399 C 0.26978 0.87551 0.05431 0.0
C400 C 0.24587 0.86813 0.92789 0.0
O401 O 0.22498 0.91071 1.0051 0.0
O402 O 0.23196 0.94924 0.96539 0.0
C403 C 0.28139 0.01684 0.98129 0.0
N404 N 0.29324 0.99439 0.95875 0.0
C405 C 0.342 0.03901 0.95197 0.0
C406 C 0.33009 0.06269 0.97483 0.0
C407 C 0.29976 0.05148 0.98967 0.0
C408 C 0.32245 0.0049 0.94435 0.0
H409 H 0.25797 0.00851 0.99261 0.0
C410 C 0.21647 0.93553 0.98948 0.0
O411 O 0.25421 0.85331 0.03035 0.0
O412 O 0.28246 0.9076 0.04746 0.0
N413 N 0.31233 0.94785 0.91658 0.0
C414 C 0.32072 0.92147 0.89564 0.0
C415 C 0.35103 0.92795 0.87969 0.0
C416 C 0.3723 0.96149 0.88529 0.0
C417 C 0.3631 0.98825 0.90687 0.0
C418 C 0.33261 0.98024 0.9221 0.0
H419 H 0.30456 0.89559 0.89132 0.0
O420 O 0.31431 0.88297 0.99245 0.0
O421 O 0.29235 0.9282 0.97838 0.0
O422 O 0.25067 0.86083 0.95729 0.0
O423 O 0.25196 0.89963 0.91902 0.0
C424 C 0.38316 0.02244 0.91415 0.0
C425 C 0.37253 0.04786 0.93654 0.0
H426 H 0.3439 0.08957 0.98114 0.0
H427 H 0.29047 0.06959 1.0074 0.0
H428 H 0.35804 0.90709 0.86321 0.0
H429 H 0.39573 0.96633 0.87305 0.0
H430 H 0.40686 0.02942 0.90274 0.0
H431 H 0.38817 0.07404 0.94187 0.0
Mn432 Mn 0.28819 0.38282 0.04181 0.0
Mn433 Mn 0.30926 0.45625 0.99975 0.0
C434 C 0.34427 0.41347 0.04152 0.0
C435 C 0.27171 0.35163 0.08907 0.0
C436 C 0.29657 0.38117 0.96565 0.0
O437 O 0.24235 0.39867 0.03558 0.0
O438 O 0.26102 0.44387 1.00535 0.0
C439 C 0.29091 0.50632 0.05288 0.0
N440 N 0.31365 0.49709 0.03152 0.0
C441 C 0.35368 0.5503 0.05033 0.0
C442 C 0.33064 0.56045 0.07238 0.0
C443 C 0.29918 0.53825 0.07378 0.0
C444 C 0.34425 0.51783 0.03058 0.0
H445 H 0.26665 0.48948 0.05405 0.0
C446 C 0.23748 0.42432 0.01884 0.0
O447 O 0.26692 0.33663 0.05896 0.0
O448 O 0.28517 0.38537 0.09199 0.0
N449 N 0.3552 0.47342 0.99186 0.0
C450 C 0.37327 0.46147 0.96712 0.0
C451 C 0.40455 0.48159 0.96102 0.0
C452 C 0.41657 0.51426 0.9799 0.0
C453 C 0.39706 0.52682 1.00427 0.0
C454 C 0.3659 0.50575 1.00896 0.0
H455 H 0.36382 0.4369 0.95196 0.0
O456 O 0.33749 0.38026 0.04749 0.0
O457 O 0.31854 0.42794 0.03599 0.0
O458 O 0.28738 0.36598 0.99155 0.0
O459 O 0.30623 0.4149 0.96583 0.0
C460 C 0.40709 0.55969 0.0237 0.0
C461 C 0.38554 0.57124 0.04701 0.0
H462 H 0.33682 0.58522 0.08832 0.0
H463 H 0.28127 0.54582 0.09079 0.0
H464 H 0.41917 0.47192 0.94173 0.0
H465 H 0.44057 0.5298 0.97532 0.0
H466 H 0.43126 0.57633 0.02084 0.0
H467 H 0.39352 0.59651 0.0619 0.0
Mn468 Mn 0.77298 0.16477 0.05453 0.0
Mn469 Mn 0.74178 0.09587 0.99717 0.0
C470 C 0.71536 0.14405 0.04711 0.0
C471 C 0.79372 0.1903 0.10724 0.0
C472 C 0.76776 0.17088 0.98015 0.0
O473 O 0.81379 0.1411 0.04542 0.0
O474 O 0.78819 0.09455 1.01008 0.0
C475 C 0.7426 0.03668 0.03918 0.0
N476 N 0.72564 0.05411 0.01849 0.0
C477 C 0.67528 0.01015 0.01954 0.0
C478 C 0.69215 0.99157 0.04076 0.0
C479 C 0.72593 0.00503 0.05078 0.0
C480 C 0.69305 0.04179 1.0092 0.0
H481 H 0.76863 0.04682 0.04672 0.0
C482 C 0.81377 0.11184 0.02739 0.0
O483 O 0.80111 0.20652 0.08109 0.0
O484 O 0.77589 0.15819 0.10275 0.0
N485 N 0.69648 0.09321 0.982 0.0
C486 C 0.68397 0.11469 0.96178 0.0
C487 C 0.65063 0.10515 0.94937 0.0
C488 C 0.63079 0.07341 0.95743 0.0
C489 C 0.64435 0.05125 0.97778 0.0
C490 C 0.67776 0.06222 0.9894 0.0
H491 H 0.69929 0.13887 0.95508 0.0
O492 O 0.72706 0.17628 0.06033 0.0
O493 O 0.73748 0.12507 0.03861 0.0
O494 O 0.77447 0.18487 1.00974 0.0
O495 O 0.75709 0.13761 0.97248 0.0
C496 C 0.62621 0.0189 0.98719 0.0
C497 C 0.64152 0.99859 1.0083 0.0
H498 H 0.67941 0.96703 0.04957 0.0
H499 H 0.73913 0.99092 0.06722 0.0
H500 H 0.64024 0.12213 0.93354 0.0
H501 H 0.6052 0.06686 0.94793 0.0
H502 H 0.60043 0.00935 0.97878 0.0
H503 H 0.6271 0.9741 0.01569 0.0
Mn504 Mn 0.12693 0.5325 0.23588 0.0
Mn505 Mn 0.19386 0.56464 0.28921 0.0
C506 C 0.15072 0.59283 0.241 0.0
C507 C 0.10161 0.50705 0.1852 0.0
C508 C 0.12304 0.54394 0.31013 0.0
O509 O 0.14505 0.48757 0.24525 0.0
O510 O 0.19127 0.51447 0.27645 0.0
C511 C 0.24753 0.55629 0.24346 0.0
N512 N 0.2333 0.57706 0.26554 0.0
C513 C 0.27903 0.62643 0.26413 0.0
C514 C 0.29432 0.60567 0.24141 0.0
C515 C 0.27835 0.57049 0.23083 0.0
C516 C 0.24796 0.61109 0.27521 0.0
H517 H 0.23549 0.52908 0.23571 0.0
C518 C 0.1725 0.48703 0.26153 0.0
O519 O 0.08591 0.50383 0.21226 0.0
O520 O 0.13278 0.52359 0.18783 0.0
N521 N 0.20019 0.61375 0.30457 0.0
C522 C 0.18203 0.62985 0.32675 0.0
C523 C 0.19464 0.66479 0.34041 0.0
C524 C 0.22604 0.68233 0.33169 0.0
C525 C 0.24472 0.66502 0.30938 0.0
C526 C 0.23076 0.63027 0.2965 0.0
H527 H 0.15825 0.61605 0.33418 0.0
O528 O 0.12006 0.5821 0.22906 0.0
O529 O 0.16651 0.56828 0.24917 0.0
O530 O 0.10893 0.53674 0.28138 0.0
O531 O 0.15464 0.55286 0.31601 0.0
C532 C 0.27649 0.68072 0.29931 0.0
C533 C 0.29341 0.66166 0.27636 0.0
H534 H 0.31829 0.61644 0.23194 0.0
H535 H 0.28995 0.55428 0.21328 0.0
H536 H 0.18036 0.67809 0.35779 0.0
H537 H 0.23516 0.70922 0.34206 0.0
H538 H 0.28813 0.7075 0.30863 0.0
H539 H 0.31752 0.67426 0.26845 0.0
Mn540 Mn 0.78774 0.88525 0.54593 0.0
Mn541 Mn 0.81191 0.95514 0.50062 0.0
C542 C 0.84501 0.91228 0.54498 0.0
C543 C 0.77001 0.85809 0.59461 0.0
C544 C 0.79119 0.87893 0.46983 0.0
O545 O 0.74353 0.90502 0.53873 0.0
O546 O 0.76539 0.95233 0.51207 0.0
C547 C 0.80858 0.01409 0.55211 0.0
N548 N 0.82588 0.99833 0.52888 0.0
C549 C 0.87396 0.04566 0.53934 0.0
C550 C 0.85638 0.06292 0.56276 0.0
C551 C 0.82361 0.04693 0.56932 0.0
C552 C 0.85752 0.01321 0.52268 0.0
H553 H 0.78363 1.00158 0.55765 0.0
C554 C 0.74118 0.93404 0.52579 0.0
O555 O 0.76374 0.84155 0.56519 0.0
O556 O 0.78532 0.89119 0.59592 0.0
N557 N 0.85691 0.96134 0.48797 0.0
C558 C 0.87124 0.93943 0.4671 0.0
C559 C 0.9052 0.94917 0.46118 0.0
C560 C 0.92357 0.98151 0.47634 0.0
C561 C 0.90764 0.00511 0.49531 0.0
C562 C 0.87393 0.99358 0.50095 0.0
H563 H 0.85731 0.9141 0.45615 0.0
O564 O 0.83632 0.87969 0.55239 0.0
O565 O 0.82026 0.92783 0.53803 0.0
O566 O 0.78645 0.86463 0.49689 0.0
O567 O 0.79885 0.91247 0.46847 0.0
C568 C 0.92439 0.03828 0.51094 0.0
C569 C 0.90755 0.05868 0.53277 0.0
H570 H 0.86806 0.08804 0.57635 0.0
H571 H 0.81006 0.05976 0.58776 0.0
H572 H 0.91756 0.93106 0.44644 0.0
H573 H 0.95032 0.98609 0.47591 0.0
H574 H 0.95047 0.04788 0.50721 0.0
H575 H 0.921 0.0837 0.54523 0.0
Mn576 Mn 0.89564 0.02856 0.23566 0.0
Mn577 Mn 0.82663 1.00437 0.27967 0.0
C578 C 0.87072 0.96808 0.23637 0.0
C579 C 0.92563 0.04679 0.18895 0.0
C580 C 0.89743 0.02428 0.31096 0.0
O581 O 0.87728 0.07591 0.24381 0.0
O582 O 0.83051 0.05411 0.26906 0.0
C583 C 0.77664 0.00665 0.2252 0.0
N584 N 0.78796 0.98948 0.24999 0.0
C585 C 0.74094 0.9408 0.2401 0.0
C586 C 0.72815 0.95851 0.21519 0.0
C587 C 0.74632 0.99137 0.20741 0.0
C588 C 0.77155 0.95711 0.25656 0.0
H589 H 0.79085 0.03159 0.21884 0.0
C590 C 0.8492 0.07929 0.25621 0.0
O591 O 0.93848 0.05381 0.21894 0.0
O592 O 0.89437 0.03054 0.18577 0.0
N593 N 0.81758 0.95677 0.29239 0.0
C594 C 0.83372 0.94273 0.3166 0.0
C595 C 0.81891 0.9099 0.32734 0.0
C596 C 0.78737 0.89222 0.31362 0.0
C597 C 0.771 0.9073 0.28916 0.0
C598 C 0.78685 0.94018 0.27961 0.0
H599 H 0.85754 0.9566 0.32795 0.0
O600 O 0.90166 0.97725 0.22867 0.0
O601 O 0.85494 0.99414 0.24271 0.0
O602 O 0.91173 0.02984 0.28408 0.0
O603 O 0.86556 0.01767 0.31272 0.0
C604 C 0.73953 0.891 0.27391 0.0
C605 C 0.72472 0.90748 0.24904 0.0
H606 H 0.70467 0.94688 0.20156 0.0
H607 H 0.73697 0.0049 0.18779 0.0
H608 H 0.83157 0.89845 0.34641 0.0
H609 H 0.77584 0.86713 0.32202 0.0
H610 H 0.72671 0.86559 0.28087 0.0
H611 H 0.70085 0.89432 0.23699 0.0
Mn612 Mn 0.27592 0.66749 0.55227 0.0
Mn613 Mn 0.24477 0.5993 0.49415 0.0
C614 C 0.21837 0.64627 0.54515 0.0
C615 C 0.29663 0.69271 0.60504 0.0
C616 C 0.2693 0.67499 0.4782 0.0
O617 O 0.31695 0.64434 0.54263 0.0
O618 O 0.29173 0.59879 0.50602 0.0
C619 C 0.24795 0.53954 0.53495 0.0
N620 N 0.23002 0.55692 0.51511 0.0
C621 C 0.18023 0.51246 0.51761 0.0
C622 C 0.19816 0.49394 0.53791 0.0
C623 C 0.23214 0.50766 0.54675 0.0
C624 C 0.19724 0.54427 0.50687 0.0
H625 H 0.27411 0.54992 0.54171 0.0
C626 C 0.3172 0.61569 0.52377 0.0
O627 O 0.30379 0.70923 0.57902 0.0
O628 O 0.27917 0.66044 0.60037 0.0
N629 N 0.19898 0.5958 0.48011 0.0
C630 C 0.18534 0.61723 0.4607 0.0
C631 C 0.15151 0.60757 0.44983 0.0
C632 C 0.13232 0.57579 0.45862 0.0
C633 C 0.1471 0.55354 0.47782 0.0
C634 C 0.18093 0.56461 0.48792 0.0
H635 H 0.20009 0.64156 0.45362 0.0
O636 O 0.22989 0.67844 0.55858 0.0
O637 O 0.24063 0.62762 0.5362 0.0
O638 O 0.27688 0.68827 0.50787 0.0
O639 O 0.25857 0.64182 0.46996 0.0
C640 C 0.12966 0.52114 0.48775 0.0
C641 C 0.14611 0.50077 0.5078 0.0
H642 H 0.18605 0.46928 0.54697 0.0
H643 H 0.24614 0.49361 0.56252 0.0
H644 H 0.14019 0.62462 0.43483 0.0
H645 H 0.10621 0.56929 0.45079 0.0
H646 H 0.10355 0.51165 0.48058 0.0
H647 H 0.13224 0.47621 0.5156 0.0
Mn648 Mn 0.39462 0.5276 0.73187 0.0
Mn649 Mn 0.32535 0.50561 0.77591 0.0
C650 C 0.36858 0.46736 0.73314 0.0
C651 C 0.42515 0.54566 0.68527 0.0
C652 C 0.39598 0.52632 0.80739 0.0
O653 O 0.37668 0.57535 0.73938 0.0
O654 O 0.32843 0.55432 0.76273 0.0
C655 C 0.27451 0.50397 0.72119 0.0
N656 N 0.28649 0.48861 0.74692 0.0
C657 C 0.23954 0.43965 0.74031 0.0
C658 C 0.22603 0.45555 0.71447 0.0
C659 C 0.24386 0.48761 0.70455 0.0
C660 C 0.27043 0.45694 0.75554 0.0
H661 H 0.28847 0.52826 0.71326 0.0
C662 C 0.34791 0.579 0.75 0.0
O663 O 0.43779 0.55231 0.71533 0.0
O664 O 0.39386 0.52948 0.68186 0.0
N665 N 0.3174 0.45899 0.7908 0.0
C666 C 0.33467 0.44624 0.81502 0.0
C667 C 0.32074 0.414 0.82732 0.0
C668 C 0.28888 0.39553 0.81518 0.0
C669 C 0.27138 0.40934 0.79058 0.0
C670 C 0.28652 0.44158 0.77927 0.0
H671 H 0.35875 0.46066 0.82519 0.0
O672 O 0.39959 0.47578 0.72534 0.0
O673 O 0.35352 0.49399 0.73925 0.0
O674 O 0.41057 0.52905 0.78036 0.0
O675 O 0.36413 0.52136 0.80897 0.0
C676 C 0.23948 0.39239 0.77686 0.0
C677 C 0.22378 0.40719 0.75136 0.0
H678 H 0.2023 0.4431 0.70173 0.0
H679 H 0.23397 0.49969 0.68419 0.0
H680 H 0.3344 0.40376 0.84643 0.0
H681 H 0.27805 0.37083 0.82487 0.0
H682 H 0.22701 0.36781 0.78557 0.0
H683 H 0.19961 0.3934 0.74044 0.0
Mn684 Mn 0.62635 0.02678 0.73033 0.0
Mn685 Mn 0.69352 0.05659 0.78392 0.0
C686 C 0.65184 0.08664 0.73553 0.0
C687 C 0.60063 1.00173 0.67964 0.0
C688 C 0.62237 0.03724 0.80447 0.0
O689 O 0.64252 0.98103 0.74036 0.0
O690 O 0.69015 0.00629 0.77054 0.0
C691 C 0.74756 0.04838 0.7386 0.0
N692 N 0.73334 0.06902 0.76079 0.0
C693 C 0.77973 0.11801 0.76062 0.0
C694 C 0.79499 0.09737 0.73775 0.0
C695 C 0.7787 0.06247 0.7265 0.0
C696 C 0.74836 0.10281 0.77115 0.0
H697 H 0.73526 0.02137 0.73037 0.0
C698 C 0.66981 0.97947 0.7564 0.0
O699 O 0.58486 0.99928 0.70671 0.0
O700 O 0.63211 0.01725 0.68224 0.0
N701 N 0.70035 0.10557 0.80006 0.0
C702 C 0.68215 0.12157 0.82226 0.0
C703 C 0.69505 0.1562 0.8366 0.0
C704 C 0.72677 0.17354 0.82851 0.0
C705 C 0.74543 0.15637 0.80609 0.0
C706 C 0.73119 0.1219 0.79255 0.0
H707 H 0.65812 0.10793 0.82923 0.0
O708 O 0.6212 0.07684 0.72328 0.0
O709 O 0.66671 0.06141 0.74383 0.0
O710 O 0.60827 0.03182 0.77567 0.0
O711 O 0.65403 0.04476 0.81038 0.0
C712 C 0.77748 0.17193 0.79658 0.0
C713 C 0.79441 0.15298 0.77352 0.0
H714 H 0.81919 0.10801 0.72869 0.0
H715 H 0.79028 0.04636 0.70885 0.0
H716 H 0.68075 0.16938 0.85405 0.0
H717 H 0.7362 0.20015 0.83954 0.0
H718 H 0.78931 0.19854 0.80647 0.0
H719 H 0.81878 0.16546 0.76607 0.0
Mn720 Mn 0.76594 0.66504 1.00938 0.0
Mn721 Mn 0.75213 0.60062 0.9449 0.0
C722 C 0.71166 0.63483 0.99283 0.0
C723 C 0.77388 0.68528 0.06664 0.0
C724 C 0.77032 0.67966 0.93533 0.0
O725 O 0.8114 0.64887 1.00711 0.0
O726 O 0.7993 0.60724 0.96298 0.0
C727 C 0.76057 0.53779 0.97963 0.0
N728 N 0.74128 0.55444 0.96047 0.0
C729 C 0.6966 0.50302 0.9549 0.0
C730 C 0.71603 0.48533 0.9745 0.0
C731 C 0.74814 0.50281 0.98693 0.0
C732 C 0.71043 0.53774 0.94816 0.0
H733 H 0.78528 0.55102 0.98926 0.0
C734 C 0.8192 0.62453 0.98669 0.0
O735 O 0.78348 0.70605 0.04386 0.0
O736 O 0.7612 0.65235 0.05636 0.0
N737 N 0.70707 0.59103 0.9261 0.0
C738 C 0.69042 0.61285 0.91006 0.0
C739 C 0.65737 0.59994 0.89733 0.0
C740 C 0.64178 0.56477 0.90125 0.0
C741 C 0.65933 0.54288 0.91801 0.0
C742 C 0.69229 0.55715 0.93 0.0
H743 H 0.70207 0.64004 0.90744 0.0
O744 O 0.71666 0.66706 1.00746 0.0
O745 O 0.73848 0.62225 0.98664 0.0
O746 O 0.77352 0.69086 0.96619 0.0
O747 O 0.76226 0.64657 0.9252 0.0
C748 C 0.64513 0.50777 0.924 0.0
C749 C 0.66377 0.48783 0.94238 0.0
H750 H 0.70645 0.45844 0.98038 0.0
H751 H 0.76327 0.48936 1.00213 0.0
H752 H 0.64387 0.61712 0.88472 0.0
H753 H 0.61617 0.55502 0.89168 0.0
H754 H 0.6197 0.49603 0.91504 0.0
H755 H 0.6524 0.46104 0.94722 0.0
Mn756 Mn 0.92742 0.54279 0.7995 0.0
Mn757 Mn 0.87666 0.54175 0.86358 0.0
C758 C 0.90732 0.49051 0.8229 0.0
C759 C 0.94142 0.53784 0.74476 0.0
C760 C 0.95071 0.57269 0.87029 0.0
O761 O 0.9068 0.58664 0.79467 0.0
O762 O 0.87352 0.58261 0.83834 0.0
C763 C 0.81119 0.52767 0.82533 0.0
N764 N 0.83237 0.51806 0.8482 0.0
C765 C 0.79192 0.46577 0.85698 0.0
C766 C 0.76967 0.4752 0.83362 0.0
C767 C 0.77939 0.50626 0.8177 0.0
C768 C 0.82333 0.48811 0.86353 0.0
H769 H 0.81847 0.55146 0.81294 0.0
C770 C 0.88445 0.59691 0.81254 0.0
O771 O 0.96147 0.55655 0.76791 0.0
O772 O 0.9118 0.52282 0.75296 0.0
N773 N 0.877 0.5021 0.88908 0.0
C774 C 0.90171 0.49616 0.91031 0.0
C775 C 0.89586 0.46628 0.92844 0.0
C776 C 0.86471 0.44281 0.92456 0.0
C777 C 0.83961 0.44954 0.90269 0.0
C778 C 0.84676 0.47997 0.88555 0.0
H779 H 0.92567 0.51414 0.91351 0.0
O780 O 0.93558 0.49425 0.80838 0.0
O781 O 0.89349 0.51815 0.82491 0.0
O782 O 0.95564 0.56578 0.84008 0.0
O783 O 0.92189 0.5656 0.88223 0.0
C784 C 0.808 0.42692 0.8968 0.0
C785 C 0.78424 0.43494 0.87384 0.0
H786 H 0.74513 0.45873 0.82764 0.0
H787 H 0.7624 0.51367 0.79957 0.0
H788 H 0.91531 0.46133 0.94536 0.0
H789 H 0.8604 0.41962 0.93837 0.0
H790 H 0.80184 0.40308 0.90951 0.0
H791 H 0.76016 0.41715 0.86925 0.0
Mn792 Mn 0.76486 0.39872 0.5059 0.0
Mn793 Mn 0.78205 0.45728 0.44855 0.0
C794 C 0.81839 0.41443 0.4883 0.0
C795 C 0.7621 0.38229 0.55954 0.0
C796 C 0.74706 0.38053 0.43201 0.0
O797 O 0.72568 0.42574 0.50856 0.0
O798 O 0.74164 0.46565 0.4716 0.0
C799 C 0.79914 0.52455 0.49297 0.0
N800 N 0.80792 0.50127 0.46905 0.0
C801 C 0.86272 0.53786 0.46738 0.0
C802 C 0.85415 0.56227 0.49184 0.0
C803 C 0.82223 0.55555 0.50471 0.0
C804 C 0.83863 0.50746 0.45654 0.0
H805 H 0.77476 0.51948 0.50317 0.0
C806 C 0.72264 0.45365 0.49425 0.0
O807 O 0.74508 0.36238 0.53486 0.0
O808 O 0.77834 0.41344 0.55362 0.0
N809 N 0.82173 0.45235 0.4258 0.0
C810 C 0.82684 0.42529 0.40359 0.0
C811 C 0.85782 0.4276 0.38891 0.0
C812 C 0.88318 0.45775 0.39705 0.0
C813 C 0.87732 0.48536 0.41981 0.0
C814 C 0.84585 0.48169 0.43349 0.0
H815 H 0.80752 0.40202 0.39713 0.0
O816 O 0.8094 0.38417 0.50052 0.0
O817 O 0.79559 0.43357 0.48598 0.0
O818 O 0.74808 0.37181 0.4614 0.0
O819 O 0.75676 0.41231 0.42445 0.0
C820 C 0.90174 0.516 0.42999 0.0
C821 C 0.89447 0.54218 0.45382 0.0
H822 H 0.87198 0.58609 0.50114 0.0
H823 H 0.81549 0.57416 0.52374 0.0
H824 H 0.86219 0.40612 0.37145 0.0
H825 H 0.90716 0.45927 0.38592 0.0
H826 H 0.92637 0.51944 0.42003 0.0
H827 H 0.91361 0.56537 0.46181 0.0
Mn828 Mn 0.65504 0.52536 0.29752 0.0
Mn829 Mn 0.71301 0.53941 0.36139 0.0
C830 C 0.68233 0.58283 0.31708 0.0
C831 C 0.63679 0.52073 0.24142 0.0
C832 C 0.63818 0.51697 0.37025 0.0
O833 O 0.67076 0.47683 0.29643 0.0
O834 O 0.70993 0.49052 0.33914 0.0
C835 C 0.77466 0.53638 0.32532 0.0
N836 N 0.75679 0.55475 0.34597 0.0
C837 C 0.80122 0.60641 0.35133 0.0
C838 C 0.8201 0.58798 0.33022 0.0
C839 C 0.80676 0.55281 0.31719 0.0
C840 C 0.76953 0.58851 0.35889 0.0
H841 H 0.76448 0.50944 0.31501 0.0
C842 C 0.69444 0.46919 0.3149 0.0
O843 O 0.61708 0.50872 0.26394 0.0
O844 O 0.66814 0.53206 0.2508 0.0
N845 N 0.71845 0.58658 0.38343 0.0
C846 C 0.69626 0.60141 0.40178 0.0
C847 C 0.70535 0.63693 0.41571 0.0
C848 C 0.7371 0.65684 0.4106 0.0
C849 C 0.75953 0.64101 0.39167 0.0
C850 C 0.74921 0.60539 0.37866 0.0
H851 H 0.67171 0.58637 0.40557 0.0
O852 O 0.65239 0.57754 0.30302 0.0
O853 O 0.69403 0.55428 0.32119 0.0
O854 O 0.62934 0.51617 0.33969 0.0
O855 O 0.66891 0.52467 0.38085 0.0
C856 C 0.79144 0.65941 0.38463 0.0
C857 C 0.8123 0.6421 0.36452 0.0
H858 H 0.84474 0.60067 0.32362 0.0
H859 H 0.82113 0.53845 0.30078 0.0
H860 H 0.68785 0.649 0.43018 0.0
H861 H 0.74389 0.68435 0.42111 0.0
H862 H 0.80004 0.68701 0.39424 0.0
H863 H 0.83662 0.65666 0.35897 0.0
Dy864 Dy 0.98854 0.0234 0.01327 0.0
C865 C 0.1191 0.01933 0.02698 0.0
C866 C 0.92934 0.04469 0.02103 0.0
Dy867 Dy 0.06492 0.04879 0.03905 0.0
O868 O 0.93267 0.0162 1.00191 0.0
O869 O 0.95779 0.06025 0.03556 0.0
O870 O 1.0033 0.9954 0.96513 0.0
O871 O 0.03598 0.03695 0.99255 0.0
C872 C 0.03415 0.01374 0.96824 0.0
C873 C 0.01934 0.06033 0.08325 0.0
O874 O 0.05957 0.09676 1.01126 0.0
O875 O 1.00215 0.07871 0.99687 0.0
O876 O 0.1207 0.04874 0.04688 0.0
O877 O 0.08898 0.00763 0.0145 0.0
O878 O 0.05044 0.07817 0.08623 0.0
O879 O 0.01727 0.03609 0.05978 0.0
O880 O 0.99424 0.97532 0.0403 0.0
O881 O 0.05068 0.99458 0.05782 0.0
C882 C 0.03074 0.10229 0.9975 0.0
C883 C 0.02249 0.97025 0.05554 0.0
Dy884 Dy 0.28734 0.79824 0.24072 0.0
C885 C 0.27139 0.7665 0.37293 0.0
C886 C 0.29111 0.82495 0.18097 0.0
Dy887 Dy 0.26585 0.79585 0.31484 0.0
O888 O 0.28484 0.84196 0.20835 0.0
O889 O 0.29589 0.79316 0.18614 0.0
O890 O 0.32516 0.76309 0.24892 0.0
O891 O 0.31132 0.79513 0.28824 0.0
C892 C 0.32721 0.77054 0.28106 0.0
C893 C 0.22701 0.82381 0.27324 0.0
O894 O 0.30237 0.84705 0.32188 0.0
O895 O 0.31017 0.8527 0.26557 0.0
O896 O 0.25177 0.78923 0.36798 0.0
O897 O 0.28694 0.76034 0.34643 0.0
O898 O 0.22805 0.83164 0.3055 0.0
O899 O 0.24306 0.79935 0.26716 0.0
O900 O 0.24733 0.74887 0.23375 0.0
O901 O 0.23695 0.74356 0.28958 0.0
C902 C 0.31486 0.86515 0.29743 0.0
C903 C 0.23258 0.73128 0.25764 0.0
Dy904 Dy 0.5718 0.03541 0.511 0.0
C905 C 0.43106 0.05903 0.50753 0.0
C906 C 0.62562 1.0031 0.52063 0.0
Dy907 Dy 0.4918 0.03762 0.51548 0.0
O908 O 0.6275 0.03615 0.51395 0.0
O909 O 0.59446 0.98803 0.52225 0.0
O910 O 0.5781 0.07165 0.4693 0.0
O911 O 0.53102 0.04345 0.48031 0.0
C912 C 0.54559 0.06803 0.46457 0.0
C913 C 0.52204 0.00759 0.56251 0.0
O914 O 0.48843 0.98818 0.48018 0.0
O915 O 0.54516 0.98334 0.48399 0.0
O916 O 0.44769 0.0597 0.53569 0.0
O917 O 0.447 0.04523 0.48409 0.0
O918 O 0.48961 0.99907 0.55588 0.0
O919 O 0.53386 0.03282 0.54652 0.0
O920 O 0.57313 0.08397 0.54738 0.0
O921 O 0.51896 0.09349 0.53396 0.0
C922 C 0.51345 0.97124 0.47313 0.0
C923 C 0.54954 0.10404 0.54865 0.0
Dy924 Dy 0.24397 0.27535 0.7671 0.0
C925 C 0.38164 0.28476 0.74469 0.0
C926 C 0.18059 0.27581 0.78623 0.0
Dy927 Dy 0.32088 0.26834 0.77023 0.0
O928 O 0.20099 0.30302 0.77718 0.0
O929 O 0.194 0.24761 0.78282 0.0
O930 O 0.2573 0.31908 0.73334 0.0
O931 O 0.29262 0.31107 0.76939 0.0
C932 C 0.28823 0.32861 0.74525 0.0
C933 C 0.2808 0.20818 0.78589 0.0
O934 O 0.3198 0.2987 0.82024 0.0
O935 O 0.26132 0.29075 0.82121 0.0
O936 O 0.37666 0.26915 0.77198 0.0
O937 O 0.35396 0.29196 0.73274 0.0
O938 O 0.31335 0.21157 0.78558 0.0
O939 O 0.27338 0.23647 0.77716 0.0
O940 O 0.24417 0.2425 0.71801 0.0
O941 O 0.30248 0.25092 0.71686 0.0
C942 C 0.29192 0.30119 0.83594 0.0
C943 C 0.272 0.24007 0.70229 0.0
Dy944 Dy 0.0192 0.01023 0.48398 0.0
C945 C 0.08249 0.04829 0.61648 0.0
C946 C 0.98176 0.01044 0.42591 0.0
Dy947 Dy 0.04296 0.03819 0.55892 0.0
O948 O 1.00031 0.9868 0.43123 0.0
O949 O 0.98351 0.03258 0.45212 0.0
O950 O 0.07322 0.01336 0.47118 0.0
O951 O 0.06131 0.04726 0.50974 0.0
C952 C 0.08539 0.03753 0.49536 0.0
C953 C 0.97884 1.0 0.55572 0.0
O954 O 0.03795 0.09093 0.54028 0.0
O955 O 0.00875 0.06582 0.4907 0.0
O956 O 0.05424 0.0593 0.61265 0.0
O957 O 0.0901 0.03393 0.58822 0.0
O958 O 0.99411 0.0172 0.58263 0.0
O959 O 0.9979 0.00701 0.5323 0.0
O960 O 0.01676 0.9588 0.50824 0.0
O961 O 0.05859 0.98584 0.54705 0.0
C962 C 0.02099 0.0938 0.51216 0.0
C963 C 0.03814 0.95682 0.53345 0.0
Dy964 Dy 0.30011 0.78696 0.79585 0.0
C965 C 0.17906 0.74357 0.70458 0.0
C966 C 0.34892 0.79782 0.84612 0.0
Dy967 Dy 0.23189 0.75591 0.75109 0.0
O968 O 0.34714 0.81905 0.82294 0.0
O969 O 0.32353 0.77147 0.84191 0.0
O970 O 0.33127 0.78388 0.75081 0.0
O971 O 0.2811 0.78677 0.74496 0.0
C972 C 0.306 0.7805 0.72942 0.0
C973 C 0.22533 0.76268 0.81684 0.0
O974 O 0.26002 0.70927 0.74542 0.0
O975 O 0.30416 0.72999 0.78536 0.0
O976 O 0.18245 0.72387 0.72863 0.0
O977 O 0.20528 0.76887 0.7051 0.0
O978 O 0.20061 0.76023 0.79508 0.0
O979 O 0.25045 0.75586 0.80192 0.0
O980 O 0.27312 0.83283 0.8042 0.0
O981 O 0.23209 0.81528 0.7609 0.0
C982 C 0.28806 0.70564 0.7622 0.0
C983 C 0.24756 0.83882 0.78544 0.0
Dy984 Dy 0.51044 0.0215 0.05395 0.0
C985 C 0.54316 0.03121 0.91748 0.0
C986 C 0.48824 0.02615 0.11609 0.0
Dy987 Dy 0.51836 0.04015 0.97735 0.0
O988 O 0.50821 0.0513 0.10333 0.0
O989 O 0.48135 0.9975 0.09532 0.0
O990 O 0.54081 0.97746 0.04513 0.0
O991 O 0.51517 0.99457 1.0061 0.0
C992 C 0.53575 0.97521 0.01288 0.0
C993 C 0.49889 0.09192 0.01634 0.0
O994 O 0.46842 0.00492 0.97287 0.0
O995 O 0.45829 0.00791 0.0297 0.0
O996 O 0.5168 0.04552 0.92248 0.0
O997 O 0.55509 0.02223 0.94481 0.0
O998 O 0.50394 0.09472 0.98495 0.0
O999 O 0.50418 0.06214 0.02298 0.0
O1000 O 0.56071 0.05781 0.05854 0.0
O1001 O 0.56826 0.06539 1.00234 0.0
C1002 C 0.44863 0.99898 0.9978 0.0
C1003 C 0.57853 0.07093 0.03415 0.0
Dy1004 Dy 0.26497 0.31227 0.27012 0.0
C1005 C 0.27488 0.16525 0.26023 0.0
C1006 C 0.24391 0.37278 0.25976 0.0
Dy1007 Dy 0.26129 0.23128 0.25516 0.0
O1008 O 0.27022 0.37168 0.27904 0.0
O1009 O 0.23041 0.34148 0.24597 0.0
O1010 O 0.26745 0.30832 0.3255 0.0
O1011 O 0.28594 0.27133 0.29394 0.0
C1012 C 0.27838 0.2784 0.32357 0.0
C1013 C 0.24839 0.2646 0.20134 0.0
O1014 O 0.21308 0.23014 0.28221 0.0
O1015 O 0.21374 0.29118 0.28573 0.0
O1016 O 0.28162 0.18388 0.2354 0.0
O1017 O 0.25723 0.18129 0.28051 0.0
O1018 O 0.25561 0.2329 0.19931 0.0
O1019 O 0.24212 0.27227 0.23116 0.0
O1020 O 0.31054 0.3122 0.24047 0.0
O1021 O 0.31586 0.25516 0.25118 0.0
C1022 C 0.19963 0.25845 0.29111 0.0
C1023 C 0.3271 0.28547 0.2383 0.0
Dy1024 Dy 0.51667 0.51555 0.982 0.0
C1025 C 0.5801 0.54963 0.11557 0.0
C1026 C 0.48101 0.51556 0.9228 0.0
Dy1027 Dy 0.54046 0.54003 0.05829 0.0
O1028 O 0.48905 0.4872 0.93404 0.0
O1029 O 0.49302 0.54302 0.94341 0.0
O1030 O 0.57078 0.51782 0.96939 0.0
O1031 O 0.55953 0.54985 1.00946 0.0
C1032 C 0.58339 0.53992 0.99494 0.0
C1033 C 0.47513 0.50599 0.05221 0.0
O1034 O 0.53724 0.59289 0.03887 0.0
O1035 O 0.4993 0.56702 0.99551 0.0
O1036 O 0.55181 0.56073 0.11203 0.0
O1037 O 0.58767 0.53543 0.08717 0.0
O1038 O 0.49 0.52129 0.0801 0.0
O1039 O 0.49548 0.51279 0.02994 0.0
O1040 O 0.51329 0.46289 1.00325 0.0
O1041 O 0.54986 0.48414 0.04911 0.0
C1042 C 0.5167 0.5957 0.01321 0.0
C1043 C 0.53089 0.45746 0.03007 0.0
Dy1044 Dy 0.80403 0.29058 0.29808 0.0
C1045 C 0.68116 0.24459 0.21122 0.0
C1046 C 0.85345 0.3036 0.34784 0.0
Dy1047 Dy 0.73427 0.25681 0.25694 0.0
O1048 O 0.85245 0.32236 0.32259 0.0
O1049 O 0.82686 0.27866 0.34594 0.0
O1050 O 0.83341 0.28366 0.25215 0.0
O1051 O 0.78305 0.28627 0.2476 0.0
C1052 C 0.80724 0.27879 0.23164 0.0
C1053 C 0.72996 0.27119 0.32258 0.0
O1054 O 0.76117 0.20932 0.25407 0.0
O1055 O 0.80799 0.23317 0.2901 0.0
O1056 O 0.68322 0.22703 0.23712 0.0
O1057 O 0.70896 0.26717 0.20936 0.0
O1058 O 0.70461 0.26654 0.30124 0.0
O1059 O 0.75442 0.26203 0.30795 0.0
O1060 O 0.77779 0.33738 0.30257 0.0
O1061 O 0.7345 0.31604 0.26204 0.0
C1062 C 0.79029 0.20702 0.26954 0.0
C1063 C 0.75116 0.34152 0.28419 0.0
Dy1064 Dy 0.01733 0.5173 0.55574 0.0
C1065 C 0.0441 0.53503 0.42334 0.0
C1066 C 0.99827 0.51429 0.61911 0.0
Dy1067 Dy 0.01845 0.53716 0.48356 0.0
O1068 O 0.98508 0.49169 0.59432 0.0
O1069 O 0.02283 0.53713 0.60951 0.0
O1070 O 0.04961 0.4756 0.54472 0.0
O1071 O 0.01885 0.48909 0.50767 0.0
C1072 C 0.04182 0.47216 0.51297 0.0
C1073 C 0.98955 0.57919 0.52428 0.0
O1074 O 0.97209 0.49566 0.48008 0.0
O1075 O 0.96368 0.50469 0.53618 0.0
O1076 O 0.01806 0.54931 0.42996 0.0
O1077 O 0.05536 0.52294 0.44931 0.0
O1078 O 0.98254 0.57453 0.49227 0.0
O1079 O 0.01434 0.5651 0.5314 0.0
O1080 O 0.06734 0.55389 0.56007 0.0
O1081 O 0.06819 0.56832 0.50547 0.0
C1082 C 0.95285 0.4916 0.50554 0.0
C1083 C 0.08212 0.57081 0.53592 0.0
Dy1084 Dy 0.74698 0.77624 0.26815 0.0
C1085 C 0.88196 0.76081 0.26153 0.0
C1086 C 0.68264 0.77503 0.28506 0.0
Dy1087 Dy 0.81787 0.76497 0.27637 0.0
O1088 O 0.69832 0.79629 0.26503 0.0
O1089 O 0.70144 0.75343 0.29404 0.0
O1090 O 0.76214 0.8188 0.23408 0.0
O1091 O 0.79596 0.81205 0.2723 0.0
C1092 C 0.79266 0.82837 0.24698 0.0
C1093 C 0.77188 0.71424 0.2986 0.0
O1094 O 0.81738 0.79483 0.32671 0.0
O1095 O 0.76045 0.79534 0.32195 0.0
O1096 O 0.85689 0.73419 0.25963 0.0
O1097 O 0.87239 0.78964 0.27347 0.0
O1098 O 0.80256 0.72306 0.31108 0.0
O1099 O 0.76904 0.72954 0.27262 0.0
O1100 O 0.74743 0.74212 0.22039 0.0
O1101 O 0.80524 0.75587 0.2208 0.0
C1102 C 0.78946 0.80197 0.33954 0.0
C1103 C 0.77574 0.74242 0.20511 0.0
Dy1104 Dy 0.78777 0.29387 0.73986 0.0
C1105 C 0.77069 0.25864 0.87196 0.0
C1106 C 0.78887 0.32345 0.68127 0.0
Dy1107 Dy 0.76603 0.28855 0.81416 0.0
O1108 O 0.78587 0.33982 0.71001 0.0
O1109 O 0.79227 0.29074 0.68441 0.0
O1110 O 0.82749 0.26053 0.74739 0.0
O1111 O 0.81145 0.28993 0.78726 0.0
C1112 C 0.82846 0.26648 0.7797 0.0
C1113 C 0.72707 0.31697 0.77333 0.0
O1114 O 0.8019 0.34011 0.82225 0.0
O1115 O 0.80848 0.34832 0.76619 0.0
O1116 O 0.75201 0.28227 0.86721 0.0
O1117 O 0.78592 0.25176 0.84538 0.0
O1118 O 0.72752 0.32378 0.80565 0.0
O1119 O 0.74355 0.29304 0.76672 0.0
O1120 O 0.74871 0.2436 0.73218 0.0
O1121 O 0.73831 0.23638 0.78776 0.0
C1122 C 0.81322 0.35969 0.79832 0.0
C1123 C 0.73427 0.22496 0.75561 0.0
Dy1124 Dy 0.77386 0.81757 0.78095 0.0
C1125 C 0.7924 0.68312 0.77477 0.0
C1126 C 0.74978 0.87626 0.7694 0.0
Dy1127 Dy 0.76158 0.7361 0.75924 0.0
O1128 O 0.76858 0.87409 0.7958 0.0
O1129 O 0.74604 0.84752 0.74945 0.0
O1130 O 0.79724 0.81004 0.83145 0.0
O1131 O 0.7622 0.76973 0.80486 0.0
C1132 C 0.78207 0.7766 0.83021 0.0
C1133 C 0.75143 0.7766 0.71025 0.0
O1134 O 0.71132 0.73677 0.78235 0.0
O1135 O 0.71866 0.79876 0.78866 0.0
O1136 O 0.76881 0.67877 0.75089 0.0
O1137 O 0.79762 0.71505 0.7895 0.0
O1138 O 0.73685 0.7429 0.70943 0.0
O1139 O 0.77202 0.7839 0.73506 0.0
O1140 O 0.82493 0.81772 0.76038 0.0
O1141 O 0.81507 0.75641 0.74551 0.0
C1142 C 0.69976 0.76671 0.79029 0.0
C1143 C 0.83498 0.78846 0.74755 0.0
Dy1144 Dy 0.49148 0.5256 0.51068 0.0
C1145 C 0.63224 0.54473 0.5418 0.0
C1146 C 0.43271 0.54793 0.51819 0.0
Dy1147 Dy 0.56682 0.55319 0.53687 0.0
O1148 O 0.43533 0.51797 0.50093 0.0
O1149 O 0.46165 0.56438 0.53112 0.0
O1150 O 0.50502 0.49275 0.46558 0.0
O1151 O 0.53954 0.53595 0.48952 0.0
C1152 C 0.53654 0.50926 0.4682 0.0
C1153 C 0.5197 0.56319 0.58036 0.0
O1154 O 0.56012 0.60042 0.50883 0.0
O1155 O 0.5048 0.5779 0.48912 0.0
O1156 O 0.60932 0.5338 0.56191 0.0
O1157 O 0.62016 0.56409 0.52138 0.0
O1158 O 0.54967 0.58338 0.5824 0.0
O1159 O 0.51921 0.53834 0.55793 0.0
O1160 O 0.49908 0.48046 0.53988 0.0
O1161 O 0.557 0.49335 0.53729 0.0
C1162 C 0.53228 0.60298 0.4914 0.0
C1163 C 0.52916 0.47223 0.54493 0.0
Dy1164 Dy 0.07374 0.53315 0.01351 0.0
C1165 C 0.93408 0.55783 1.00775 0.0
C1166 C 0.12648 0.4988 0.02099 0.0
Dy1167 Dy 0.99442 0.53645 0.01717 0.0
O1168 O 0.12807 0.52921 1.00831 0.0
O1169 O 0.09645 0.48786 0.03034 0.0
O1170 O 0.08073 0.56998 0.97276 0.0
O1171 O 0.0333 0.54026 0.98148 0.0
C1172 C 0.04835 0.56556 0.96677 0.0
C1173 C 0.0243 0.50818 0.06577 0.0
O1174 O 0.98963 0.48594 0.98339 0.0
O1175 O 0.0462 0.48085 0.98725 0.0
O1176 O 0.94653 0.55123 0.03607 0.0
O1177 O 0.95404 0.55142 0.9847 0.0
O1178 O 0.99198 0.49921 0.05874 0.0
O1179 O 0.03618 0.53268 0.04902 0.0
O1180 O 0.07598 0.58273 0.04914 0.0
O1181 O 0.02172 0.59233 0.0359 0.0
C1182 C 0.0144 0.46861 0.97668 0.0
C1183 C 0.05244 0.60297 0.05042 0.0
C1184 C 0.00742 0.14863 0.92425 0.0
C1185 C 0.01797 0.1847 0.93559 0.0
H1186 H 1.0037 0.09452 0.93512 0.0
C1187 C 0.03604 0.19363 0.96659 0.0
H1188 H 0.9937 0.14081 0.90053 0.0
C1189 C 0.0423 0.167 0.98632 0.0
C1190 C 0.03014 0.13104 0.97557 0.0
H1191 H 0.04483 0.22128 0.97592 0.0
H1192 H 0.05517 0.17453 1.01049 0.0
C1193 C 0.01323 0.12217 0.9441 0.0
C1194 C 0.14804 0.84715 0.23585 0.0
C1195 C 0.14698 0.83056 0.20321 0.0
H1196 H 0.17437 0.85854 0.28371 0.0
C1197 C 0.17502 0.81712 0.19269 0.0
H1198 H 0.12681 0.8579 0.24474 0.0
C1199 C 0.20205 0.81725 0.21518 0.0
C1200 C 0.20186 0.83116 0.24857 0.0
H1201 H 0.17497 0.80396 0.16792 0.0
H1202 H 0.22215 0.80431 0.20684 0.0
C1203 C 0.17525 0.84754 0.25829 0.0
C1204 C 0.48566 0.90405 0.39797 0.0
C1205 C 0.50248 0.87649 0.40526 0.0
H1206 H 0.47534 0.95573 0.41425 0.0
C1207 C 0.52138 0.88006 0.43556 0.0
H1208 H 0.47078 0.90205 0.37494 0.0
C1209 C 0.52389 0.91041 0.45779 0.0
C1210 C 0.50708 0.93785 0.45074 0.0
H1211 H 0.53477 0.85948 0.44201 0.0
H1212 H 0.53928 0.91256 0.48055 0.0
C1213 C 0.48775 0.93443 0.4207 0.0
C1214 C 0.43623 0.29724 0.67257 0.0
C1215 C 0.4652 0.28607 0.68376 0.0
H1216 H 0.38772 0.30669 0.68366 0.0
C1217 C 0.46774 0.27679 0.71646 0.0
H1218 H 0.43382 0.30505 0.64769 0.0
C1219 C 0.441 0.27734 0.73717 0.0
C1220 C 0.41181 0.28784 0.72553 0.0
H1221 H 0.48996 0.26818 0.72568 0.0
H1222 H 0.44286 0.26889 0.76184 0.0
C1223 C 0.40997 0.29845 0.69333 0.0
C1224 C 1.00715 0.86516 0.56377 0.0
C1225 C 0.02448 0.8691 0.59513 0.0
H1226 H 0.99776 0.8895 0.51929 0.0
C1227 C 0.04765 0.90077 0.60429 0.0
H1228 H 0.98921 0.84101 0.55579 0.0
C1229 C 0.05314 0.92782 0.5832 0.0
C1230 C 0.03512 0.92473 0.55235 0.0
H1231 H 0.06173 0.90489 0.62795 0.0
H1232 H 0.071 0.95182 0.59191 0.0
C1233 C 0.01219 0.89284 0.54272 0.0
C1234 C 0.42923 0.76541 0.86198 0.0
C1235 C 0.44425 0.78827 0.88951 0.0
H1236 H 0.3871 0.75085 0.82694 0.0
C1237 C 0.42623 0.81247 0.90508 0.0
H1238 H 0.44231 0.746 0.85003 0.0
C1239 C 0.39482 0.81589 0.89132 0.0
C1240 C 0.38074 0.7941 0.86273 0.0
H1241 H 0.43721 0.83001 0.92668 0.0
H1242 H 0.3819 0.8358 0.90258 0.0
C1243 C 0.39771 0.76815 0.84884 0.0
C1244 C 0.47156 0.1433 0.09151 0.0
C1245 C 0.48421 0.17843 0.08483 0.0
H1246 H 0.46572 0.08763 0.07419 0.0
C1247 C 0.50274 0.18437 0.05665 0.0
H1248 H 0.45777 0.13814 0.11346 0.0
C1249 C 0.50692 0.15606 0.03441 0.0
C1250 C 0.49362 0.12103 0.04037 0.0
H1251 H 0.51393 0.21116 0.05162 0.0
H1252 H 0.52093 0.16162 0.01265 0.0
C1253 C 0.47621 0.11462 0.06924 0.0
C1254 C 0.11611 0.27942 0.31261 0.0
C1255 C 0.11244 0.26957 0.3452 0.0
H1256 H 0.14562 0.28239 0.27006 0.0
C1257 C 0.13596 0.25078 0.3581 0.0
H1258 H 0.09853 0.29334 0.30116 0.0
C1259 C 0.16325 0.24396 0.33944 0.0
C1260 C 0.16725 0.25547 0.3075 0.0
H1261 H 0.13394 0.24248 0.38289 0.0
H1262 H 0.18217 0.23157 0.35069 0.0
C1263 C 0.14297 0.27263 0.29429 0.0
C1264 C 0.94002 0.03259 0.12983 0.0
C1265 C 0.94727 0.05372 0.16025 0.0
H1266 H 0.95739 0.01716 0.0825 0.0
C1267 C 0.97767 0.07879 0.16435 0.0
H1268 H 0.91722 0.01263 0.12594 0.0
C1269 C 1.00049 0.08211 0.13899 0.0
C1270 C 0.99385 0.05995 0.10907 0.0
H1271 H 0.9842 0.0954 0.18754 0.0
H1272 H 0.02383 0.1012 0.14327 0.0
C1273 C 0.96319 0.03528 0.10484 0.0
C1274 C 0.2848 0.69099 0.42203 0.0
C1275 C 0.27132 0.69961 0.45221 0.0
H1276 H 0.29652 0.70633 0.37399 0.0
C1277 C 0.25869 0.73138 0.45699 0.0
H1278 H 0.2947 0.66672 0.41784 0.0
C1279 C 0.25865 0.75369 0.43141 0.0
C1280 C 0.2722 0.74497 0.40121 0.0
H1281 H 0.24793 0.73835 0.48014 0.0
H1282 H 0.248 0.77751 0.43518 0.0
C1283 C 0.28584 0.71379 0.39705 0.0
C1284 C 0.59657 0.00861 0.61987 0.0
C1285 C 0.58184 0.99384 0.64726 0.0
H1286 H 0.58863 0.02653 0.57309 0.0
C1287 C 0.54747 0.97797 0.64469 0.0
H1288 H 0.62279 0.02132 0.62106 0.0
C1289 C 0.52772 0.9795 0.61587 0.0
C1290 C 0.54216 0.99748 0.5898 0.0
H1291 H 0.53545 0.9664 0.66562 0.0
H1292 H 0.50102 0.96904 0.61502 0.0
C1293 C 0.57684 0.01117 0.59195 0.0
C1294 C 0.3243 0.36287 0.91405 0.0
C1295 C 0.29621 0.3587 0.93363 0.0
H1296 H 0.34557 0.34714 0.86867 0.0
C1297 C 0.26758 0.33354 0.92183 0.0
H1298 H 0.34696 0.38154 0.92262 0.0
C1299 C 0.26649 0.31432 0.8905 0.0
C1300 C 0.29438 0.31898 0.87056 0.0
H1301 H 0.24557 0.32964 0.93634 0.0
H1302 H 0.24357 0.29605 0.88174 0.0
C1303 C 0.3236 0.34286 0.88318 0.0
C1304 C 0.91051 0.03123 0.3727 0.0
C1305 C 0.91903 0.02106 0.34055 0.0
H1306 H 0.92416 0.03632 0.4247 0.0
C1307 C 0.94777 0.00562 0.3367 0.0
H1308 H 0.88843 0.0428 0.37652 0.0
C1309 C 0.96758 1.00062 0.36437 0.0
C1310 C 0.95959 0.01187 0.39638 0.0
H1311 H 0.95465 0.99685 0.31223 0.0
H1312 H 0.9896 0.98891 0.36066 0.0
C1313 C 0.93092 0.0273 0.40024 0.0
C1314 C 0.27173 0.71585 0.65475 0.0
C1315 C 0.30062 0.71305 0.63787 0.0
H1316 H 0.25082 0.74034 0.6956 0.0
C1317 C 0.33153 0.73373 0.65036 0.0
H1318 H 0.24746 0.70086 0.64517 0.0
C1319 C 0.33345 0.75599 0.68013 0.0
C1320 C 0.30423 0.75913 0.69681 0.0
H1321 H 0.35407 0.73255 0.63721 0.0
H1322 H 0.35763 0.77094 0.68993 0.0
C1323 C 0.2735 0.73917 0.68336 0.0
C1324 C 0.56971 0.04496 0.83106 0.0
C1325 C 0.60086 0.03407 0.83243 0.0
H1326 H 0.52658 0.05287 0.85762 0.0
C1327 C 0.6113 0.01978 0.86065 0.0
H1328 H 0.56124 0.05593 0.80928 0.0
C1329 C 0.59121 0.01706 0.88752 0.0
C1330 C 0.56089 0.02962 0.88696 0.0
H1331 H 0.63495 0.01065 0.86191 0.0
H1332 H 0.60007 0.00616 0.90918 0.0
C1333 C 0.5499 0.04309 0.85845 0.0
C1334 C 0.2515 0.29328 0.11338 0.0
C1335 C 0.26368 0.33038 0.1183 0.0
H1336 H 0.23719 0.24406 0.13533 0.0
C1337 C 0.26947 0.3461 0.15127 0.0
H1338 H 0.24688 0.27993 0.08852 0.0
C1339 C 0.26363 0.32531 0.17829 0.0
C1340 C 0.2517 0.28816 0.17331 0.0
H1341 H 0.27931 0.37441 0.15624 0.0
H1342 H 0.27023 0.33826 0.20292 0.0
C1343 C 0.24587 0.27258 0.14035 0.0
C1344 C 0.16409 0.95678 0.97878 0.0
C1345 C 0.18964 0.95315 1.00142 0.0
H1346 H 0.12213 0.9809 0.96943 0.0
C1347 C 0.19332 0.97298 0.03272 0.0
H1348 H 0.16147 0.94256 0.95422 0.0
C1349 C 0.17152 0.9964 0.04111 0.0
C1350 C 0.14577 0.99967 0.01832 0.0
H1351 H 0.21377 0.97137 0.05007 0.0
H1352 H 0.17433 0.01123 0.06537 0.0
C1353 C 0.14213 0.97938 0.98731 0.0
C1354 C 0.67655 0.57704 1.00483 0.0
C1355 C 0.67858 0.61083 0.99314 0.0
H1356 H 0.64486 0.52756 0.01355 0.0
C1357 C 0.64884 0.62169 0.98356 0.0
H1358 H 0.69898 0.5686 0.01373 0.0
C1359 C 0.61786 0.59845 0.98414 0.0
C1360 C 0.61614 0.56408 0.99442 0.0
H1361 H 0.64963 0.64786 0.97518 0.0
H1362 H 0.59521 0.6072 0.97629 0.0
C1363 C 0.64568 0.55364 1.00497 0.0
C1364 C 0.73551 0.42932 0.32585 0.0
C1365 C 0.7076 0.43555 0.30701 0.0
H1366 H 0.77132 0.39598 0.33319 0.0
C1367 C 0.69469 0.41077 0.27983 0.0
H1368 H 0.74651 0.4476 0.34697 0.0
C1369 C 0.70921 0.38069 0.27191 0.0
C1370 C 0.73725 0.3748 0.29073 0.0
H1371 H 0.67349 0.41464 0.26457 0.0
H1372 H 0.6983 0.36198 0.25106 0.0
C1373 C 0.75017 0.39968 0.31774 0.0
C1374 C 0.87833 0.42085 0.47402 0.0
C1375 C 0.85326 0.4325 0.49235 0.0
H1376 H 0.93028 0.43196 0.46295 0.0
C1377 C 0.86122 0.4627 0.51537 0.0
H1378 H 0.87245 0.39731 0.45645 0.0
C1379 C 0.89376 0.48184 0.51951 0.0
C1380 C 0.91872 0.4713 0.50034 0.0
H1381 H 0.84209 0.47168 0.53005 0.0
H1382 H 0.89927 0.50528 0.53726 0.0
C1383 C 0.91103 0.44068 0.47758 0.0
C1384 C 0.35205 0.12523 0.26821 0.0
C1385 C 0.35066 0.11618 0.301 0.0
H1386 H 0.32806 0.14656 0.22887 0.0
C1387 C 0.32235 0.12052 0.31884 0.0
H1388 H 0.37303 0.12145 0.2535 0.0
C1389 C 0.29609 0.13336 0.30428 0.0
C1390 C 0.29784 0.14312 0.27188 0.0
H1391 H 0.32006 0.11339 0.34402 0.0
H1392 H 0.27497 0.13693 0.31887 0.0
C1393 C 0.32586 0.13864 0.25379 0.0
C1394 C 0.36275 0.09549 0.46332 0.0
C1395 C 0.34856 0.11321 0.48947 0.0
H1396 H 0.39908 0.06423 0.44865 0.0
C1397 C 0.36147 0.11247 0.52202 0.0
H1398 H 0.35314 0.09493 0.43796 0.0
C1399 C 0.38752 0.09393 0.52818 0.0
C1400 C 0.40178 0.07649 0.50189 0.0
H1401 H 0.35045 0.12483 0.54282 0.0
H1402 H 0.39615 0.09292 0.55357 0.0
C1403 C 0.38897 0.07752 0.46945 0.0
C1404 C 0.73517 0.61648 0.29777 0.0
C1405 C 0.70557 0.61692 0.31456 0.0
H1406 H 0.77951 0.64711 0.28008 0.0
C1407 C 0.69785 0.64981 0.3263 0.0
H1408 H 0.74129 0.59149 0.28773 0.0
C1409 C 0.71987 0.68171 0.32187 0.0
C1410 C 0.74935 0.68104 0.30497 0.0
H1411 H 0.67505 0.65079 0.33904 0.0
H1412 H 0.7139 0.70679 0.33171 0.0
C1413 C 0.75695 0.6482 0.29322 0.0
C1414 C 0.88385 0.42973 0.83923 0.0
C1415 C 0.88436 0.45627 0.81764 0.0
H1416 H 0.85854 0.37858 0.85138 0.0
C1417 C 0.86027 0.45174 0.79117 0.0
H1418 H 0.9023 0.43296 0.85975 0.0
C1419 C 0.83628 0.42075 0.78575 0.0
C1420 C 0.83541 0.39412 0.80725 0.0
H1421 H 0.86011 0.47227 0.77448 0.0
H1422 H 0.81856 0.41749 0.76456 0.0
C1423 C 0.85862 0.39916 0.83471 0.0
C1424 C 0.05272 0.90564 0.11034 0.0
C1425 C 0.02559 0.87686 0.10708 0.0
H1426 H 0.07321 0.95726 0.09634 0.0
C1427 C 0.99649 0.87991 0.08827 0.0
H1428 H 0.07554 0.9041 0.12433 0.0
C1429 C 0.99507 0.91031 0.07197 0.0
C1430 C 0.02278 0.9384 0.07392 0.0
H1431 H 0.97498 0.85824 0.08532 0.0
H1432 H 0.97257 0.91136 0.05724 0.0
C1433 C 0.05139 0.93597 0.09386 0.0
C1434 C 0.89076 0.2757 0.85316 0.0
C1435 C 0.91355 0.25524 0.84077 0.0
H1436 H 0.84617 0.29587 0.84314 0.0
C1437 C 0.90533 0.23381 0.81059 0.0
H1438 H 0.89633 0.29197 0.87665 0.0
C1439 C 0.87628 0.2355 0.79151 0.0
C1440 C 0.85514 0.25876 0.80235 0.0
H1441 H 0.92221 0.21707 0.80101 0.0
H1442 H 0.87147 0.22026 0.76746 0.0
C1443 C 0.86198 0.27776 0.83397 0.0
C1444 C 0.54627 0.172 0.62156 0.0
C1445 C 0.55926 0.20412 0.60851 0.0
H1446 H 0.53259 0.11491 0.61228 0.0
C1447 C 0.57214 0.20274 0.57678 0.0
H1448 H 0.53653 0.1723 0.64606 0.0
C1449 C 0.57018 0.17002 0.55763 0.0
C1450 C 0.55572 0.13809 0.57009 0.0
H1451 H 0.58307 0.22709 0.56648 0.0
H1452 H 0.57903 0.16977 0.53276 0.0
C1453 C 0.5441 0.13927 0.60231 0.0
C1454 C 0.60529 0.81052 0.3081 0.0
C1455 C 0.59203 0.7876 0.33166 0.0
H1456 H 0.64401 0.82408 0.27447 0.0
C1457 C 0.60938 0.76101 0.34022 0.0
H1458 H 0.59256 0.83132 0.3009 0.0
C1459 C 0.63865 0.75664 0.32465 0.0
C1460 C 0.65112 0.77886 0.30036 0.0
H1461 H 0.59966 0.74266 0.35792 0.0
H1462 H 0.65137 0.73567 0.33142 0.0
C1463 C 0.63453 0.80618 0.29262 0.0
C1464 C 1.0024 0.16076 0.45478 0.0
C1465 C 0.0283 0.19007 0.4639 0.0
H1466 H 0.97865 0.10836 0.46406 0.0
C1467 C 0.04933 0.1893 0.49216 0.0
H1468 H 0.98532 0.16074 0.43363 0.0
C1469 C 0.0456 0.15896 0.50979 0.0
C1470 C 0.02053 0.12901 0.49967 0.0
H1471 H 0.06933 0.21169 0.50005 0.0
H1472 H 0.06338 0.1583 0.53018 0.0
C1473 C 0.9984 0.13083 0.47255 0.0
C1474 C 0.61982 0.26779 0.14768 0.0
C1475 C 0.59056 0.26491 0.16542 0.0
H1476 H 0.67199 0.26393 0.1486 0.0
C1477 C 0.59086 0.25253 0.19702 0.0
H1478 H 0.62012 0.27681 0.12312 0.0
C1479 C 0.6198 0.24351 0.21079 0.0
C1480 C 0.64944 0.24771 0.19372 0.0
H1481 H 0.56847 0.24933 0.211 0.0
H1482 H 0.61934 0.2347 0.23545 0.0
C1483 C 0.64928 0.26001 0.16206 0.0
C1484 C 0.56385 0.89149 0.97519 0.0
C1485 C 0.55223 0.89007 0.94175 0.0
H1486 H 0.56888 0.92017 0.02387 0.0
C1487 C 0.5387 0.91888 0.93187 0.0
H1488 H 0.57448 0.86985 0.98383 0.0
C1489 C 0.53314 0.94585 0.95516 0.0
C1490 C 0.54405 0.94715 0.98857 0.0
H1491 H 0.53016 0.91958 0.90643 0.0
H1492 H 0.51881 0.96486 0.94701 0.0
C1493 C 0.56037 0.92014 0.99824 0.0
C1494 C 0.89889 0.76502 0.68729 0.0
C1495 C 0.9256 0.79421 0.69319 0.0
H1496 H 0.85022 0.74013 0.69999 0.0
C1497 C 0.92215 0.82221 0.71713 0.0
H1498 H 0.90062 0.74282 0.66938 0.0
C1499 C 0.89282 0.82086 0.73476 0.0
C1500 C 0.86656 0.79108 0.72944 0.0
H1501 H 0.94226 0.84514 0.72243 0.0
H1502 H 0.89095 0.84278 0.75292 0.0
C1503 C 0.87002 0.76335 0.70528 0.0
C1504 C 0.08117 0.99501 0.88986 0.0
C1505 C 0.11224 0.01863 0.89671 0.0
H1506 H 0.0325 0.97394 0.90718 0.0
C1507 C 0.11694 0.04014 0.92706 0.0
H1508 H 0.07654 0.9781 0.86668 0.0
C1509 C 0.09138 0.03874 0.94947 0.0
C1510 C 0.06069 0.01449 0.94329 0.0
H1511 H 0.14024 0.05878 0.93333 0.0
H1512 H 0.09592 0.05675 0.97195 0.0
C1513 C 0.05589 0.99259 0.91307 0.0
C1514 C 0.77982 0.39008 0.61997 0.0
C1515 C 0.76726 0.36759 0.59132 0.0
H1516 H 0.79644 0.39347 0.67116 0.0
C1517 C 0.76271 0.33041 0.59231 0.0
H1518 H 0.78384 0.41879 0.6198 0.0
C1519 C 0.77101 0.31601 0.62125 0.0
C1520 C 0.78328 0.3385 0.6499 0.0
H1521 H 0.75351 0.31239 0.57046 0.0
H1522 H 0.76718 0.2873 0.62139 0.0
C1523 C 0.78731 0.37562 0.64917 0.0
C1524 C 0.50951 0.08624 0.38365 0.0
C1525 C 0.47759 0.09118 0.39359 0.0
H1526 H 0.55733 0.07521 0.39926 0.0
C1527 C 0.47314 0.09872 0.42733 0.0
H1528 H 0.51405 0.08085 0.35772 0.0
C1529 C 0.49787 0.09503 0.45063 0.0
C1530 C 0.52752 0.08503 0.44085 0.0
H1531 H 0.44941 0.10376 0.43582 0.0
H1532 H 0.49274 0.09642 0.47642 0.0
C1533 C 0.53445 0.08309 0.40732 0.0
C1534 C 0.79939 0.72867 0.11534 0.0
C1535 C 0.77503 0.69915 0.10235 0.0
H1536 H 0.8191 0.7649 0.15797 0.0
C1537 C 0.75068 0.68408 0.12345 0.0
H1538 H 0.81842 0.74098 0.09977 0.0
C1539 C 0.75035 0.69857 0.15654 0.0
C1540 C 0.775 0.72779 0.16964 0.0
H1541 H 0.73136 0.66154 0.11416 0.0
H1542 H 0.73112 0.6865 0.17203 0.0
C1543 C 0.79973 0.7424 0.14869 0.0
C1544 C 0.14449 0.02905 0.68215 0.0
C1545 C 0.12495 0.02694 0.71008 0.0
H1546 H 0.14623 0.0371 0.63031 0.0
C1547 C 0.09214 0.03364 0.70709 0.0
H1548 H 0.16994 0.02439 0.68375 0.0
C1549 C 0.07918 0.04232 0.67711 0.0
C1550 C 0.0983 0.04364 0.64899 0.0
H1551 H 0.07656 0.03284 0.72821 0.0
H1552 H 0.05372 0.04701 0.67573 0.0
C1553 C 0.13105 0.03667 0.65171 0.0
C1554 C 0.7601 0.32463 0.40463 0.0
C1555 C 0.74047 0.35126 0.40521 0.0
H1556 H 0.77224 0.27822 0.37787 0.0
C1557 C 0.71635 0.35029 0.37951 0.0
H1558 H 0.77907 0.32509 0.42425 0.0
C1559 C 0.71193 0.32299 0.35356 0.0
C1560 C 0.7326 0.29721 0.35216 0.0
H1561 H 0.70109 0.37062 0.37943 0.0
H1562 H 0.69325 0.32303 0.33382 0.0
C1563 C 0.75647 0.29804 0.3781 0.0
C1564 C 0.47079 0.06893 0.19897 0.0
C1565 C 0.44543 0.043 0.20971 0.0
H1566 H 0.50415 0.08369 0.16099 0.0
C1567 C 0.43333 0.01152 0.18898 0.0
H1568 H 0.48056 0.09345 0.21445 0.0
C1569 C 0.44738 0.00561 0.15842 0.0
C1570 C 0.47336 0.0313 0.14822 0.0
H1571 H 0.41402 0.99098 0.1969 0.0
H1572 H 0.43812 0.98098 0.14294 0.0
C1573 C 0.48447 0.06322 0.16847 0.0
C1574 C 0.79336 0.74052 0.91493 0.0
C1575 C 0.77425 0.70558 0.90927 0.0
H1576 H 0.81173 0.7902 0.89442 0.0
C1577 C 0.75834 0.6949 0.87758 0.0
H1578 H 0.80604 0.74979 0.93892 0.0
C1579 C 0.76085 0.71814 0.85268 0.0
C1580 C 0.78044 0.7527 0.85781 0.0
H1581 H 0.74333 0.66845 0.87193 0.0
H1582 H 0.74732 0.70872 0.82913 0.0
C1583 C 0.79672 0.76367 0.88937 0.0
C1584 C 0.84292 0.06356 1.00504 0.0
C1585 C 0.8438 0.0951 0.0263 0.0
H1586 H 0.86901 0.02269 0.98698 0.0
C1587 C 0.87273 0.10885 0.04664 0.0
H1588 H 0.82103 0.05189 0.98899 0.0
C1589 C 0.90018 0.09166 0.04544 0.0
C1590 C 0.89919 0.0605 0.02388 0.0
H1591 H 0.87417 0.13274 0.06344 0.0
H1592 H 0.92238 0.10305 0.06119 0.0
C1593 C 0.87029 0.04648 1.00389 0.0
C1594 C 0.40394 0.42748 0.02505 0.0
C1595 C 0.37873 0.43486 0.04576 0.0
H1596 H 0.45301 0.44574 1.00866 0.0
C1597 C 0.38593 0.46465 0.06945 0.0
H1598 H 0.399 0.4046 1.00665 0.0
C1599 C 0.41737 0.4874 0.07157 0.0
C1600 C 0.44187 0.48162 0.04925 0.0
H1601 H 0.36695 0.47072 0.08594 0.0
H1602 H 0.42212 0.51024 0.09001 0.0
C1603 C 0.4349 0.4512 0.02615 0.0
C1604 C 0.35405 0.64641 0.75638 0.0
C1605 C 0.33438 0.6125 0.74764 0.0
H1606 H 0.35471 0.70223 0.76814 0.0
C1607 C 0.29957 0.61007 0.74089 0.0
H1608 H 0.38073 0.64935 0.76205 0.0
C1609 C 0.28461 0.64028 0.7439 0.0
C1610 C 0.30386 0.67379 0.75473 0.0
H1611 H 0.28343 0.58446 0.73426 0.0
H1612 H 0.25774 0.63707 0.73935 0.0
C1613 C 0.33892 0.67661 0.7602 0.0
C1614 C 0.15763 0.64411 0.53071 0.0
C1615 C 0.18274 0.62989 0.54638 0.0
H1616 H 0.1057 0.63564 0.51426 0.0
C1617 C 0.17375 0.59896 0.56265 0.0
H1618 H 0.16404 0.6683 0.51853 0.0
C1619 C 0.14041 0.58094 0.56116 0.0
C1620 C 0.11576 0.59322 0.54274 0.0
H1621 H 0.19275 0.58802 0.5755 0.0
H1622 H 0.13436 0.55619 0.57254 0.0
C1623 C 0.12441 0.62548 0.52831 0.0
C1624 C 0.69311 0.94024 0.79091 0.0
C1625 C 0.681 0.94599 0.7593 0.0
H1626 H 0.72616 0.91509 0.81879 0.0
C1627 C 0.69058 0.92753 0.73109 0.0
H1628 H 0.68632 0.95484 0.81296 0.0
C1629 C 0.71366 0.90516 0.73447 0.0
C1630 C 0.72767 0.90169 0.76598 0.0
H1631 H 0.68229 0.93247 0.70653 0.0
H1632 H 0.72132 0.8914 0.7124 0.0
C1633 C 0.71662 0.91857 0.79423 0.0
C1634 C 0.67835 0.93171 0.53247 0.0
C1635 C 0.71057 0.9505 0.52724 0.0
H1636 H 0.62575 0.93365 0.53426 0.0
C1637 C 0.71411 0.9869 0.52165 0.0
H1638 H 0.67458 0.90384 0.53686 0.0
C1639 C 0.68668 1.00372 0.52035 0.0
C1640 C 0.65451 0.98492 0.5244 0.0
H1641 H 0.73829 1.00283 0.51769 0.0
H1642 H 0.69073 0.03149 0.51549 0.0
C1643 C 0.65047 0.9488 0.53091 0.0
C1644 C 0.36282 0.40589 0.752 0.0
C1645 C 0.35092 0.42974 0.73236 0.0
H1646 H 0.35181 0.35539 0.77225 0.0
C1647 C 0.32067 0.41802 0.71329 0.0
H1648 H 0.38626 0.41417 0.76663 0.0
C1649 C 0.30125 0.38418 0.71592 0.0
C1650 C 0.31154 0.36151 0.73796 0.0
H1651 H 0.31132 0.43567 0.6974 0.0
H1652 H 0.27728 0.37664 0.7021 0.0
C1653 C 0.34307 0.37226 0.75516 0.0
C1654 C 0.19741 0.63708 0.2231 0.0
C1655 C 0.16808 0.62982 0.24048 0.0
H1656 H 0.24086 0.67577 0.2146 0.0
C1657 C 0.15734 0.65756 0.25931 0.0
H1658 H 0.20572 0.61595 0.20802 0.0
C1659 C 0.17786 0.69137 0.26385 0.0
C1660 C 0.20854 0.69793 0.2485 0.0
H1661 H 0.13454 0.65241 0.27253 0.0
H1662 H 0.17046 0.71195 0.28039 0.0
C1663 C 0.21737 0.67115 0.22675 0.0
C1664 C 0.53839 0.69505 0.46146 0.0
C1665 C 0.51963 0.6868 0.43081 0.0
H1666 H 0.55798 0.67501 0.50461 0.0
C1667 C 0.50816 0.65089 0.41932 0.0
H1668 H 0.54788 0.72255 0.4709 0.0
C1669 C 0.51377 0.62397 0.43869 0.0
C1670 C 0.53143 0.63214 0.46985 0.0
H1671 H 0.49388 0.64357 0.39584 0.0
H1672 H 0.50359 0.59652 0.42951 0.0
C1673 C 0.54449 0.66793 0.4807 0.0
C1674 C 0.67866 0.31508 0.69161 0.0
C1675 C 0.65113 0.32977 0.70153 0.0
H1676 H 0.72388 0.29908 0.70688 0.0
C1677 C 0.65152 0.34553 0.7344 0.0
H1678 H 0.67906 0.30253 0.66666 0.0
C1679 C 0.67747 0.34381 0.7576 0.0
C1680 C 0.70337 0.32613 0.74834 0.0
H1681 H 0.63064 0.35721 0.74279 0.0
H1682 H 0.6761 0.35423 0.78311 0.0
C1683 C 0.70435 0.31306 0.71484 0.0
C1684 C 0.9834 0.40019 0.90312 0.0
C1685 C 1.00201 0.37366 0.90894 0.0
H1686 H 0.97187 0.45095 0.9208 0.0
C1687 C 0.02316 0.37813 0.93784 0.0
H1688 H 0.96667 0.39733 0.88124 0.0
C1689 C 0.02625 0.40854 0.96009 0.0
C1690 C 0.00773 0.43504 0.9545 0.0
H1691 H 0.03787 0.35823 0.94307 0.0
H1692 H 0.04338 0.41142 0.98171 0.0
C1693 C 0.98597 0.43054 0.92598 0.0
C1694 C 0.96486 0.79157 0.22444 0.0
C1695 C 0.96217 0.76703 0.19611 0.0
H1696 H 0.94103 0.80904 0.26764 0.0
C1697 C 0.93466 0.73862 0.1916 0.0
H1698 H 0.98588 0.81373 0.22844 0.0
C1699 C 0.90992 0.73517 0.21461 0.0
C1700 C 0.91164 0.76074 0.24195 0.0
H1701 H 0.93201 0.71926 0.17009 0.0
H1702 H 0.88848 0.71354 0.20991 0.0
C1703 C 0.93943 0.7888 0.24693 0.0
C1704 C 0.48874 0.36323 0.04256 0.0
C1705 C 0.5032 0.35784 0.07346 0.0
H1706 H 0.48692 0.39763 1.00417 0.0
C1707 C 0.52916 0.38456 0.08851 0.0
H1708 H 0.46895 0.34329 0.02972 0.0
C1709 C 0.53947 0.41623 0.07357 0.0
C1710 C 0.52429 0.4218 0.04307 0.0
H1711 H 0.54117 0.38129 0.11201 0.0
H1712 H 0.55875 0.43675 0.08645 0.0
C1713 C 0.49928 0.3945 0.02754 0.0
C1714 C 0.932 0.26783 0.36334 0.0
C1715 C 0.9477 0.29019 0.39089 0.0
H1716 H 0.88979 0.25504 0.3283 0.0
C1717 C 0.93069 0.31531 0.40656 0.0
H1718 H 0.94423 0.24769 0.35137 0.0
C1719 C 0.89967 0.32004 0.39291 0.0
C1720 C 0.88504 0.29883 0.36419 0.0
H1721 H 0.94219 0.33246 0.42819 0.0
H1722 H 0.88751 0.34053 0.40431 0.0
C1723 C 0.90093 0.27202 0.3502 0.0
C1724 C 0.95587 0.66105 0.55436 0.0
C1725 C 0.96895 0.66712 0.58742 0.0
H1726 H 0.95172 0.62786 0.50838 0.0
C1727 C 0.98376 0.64079 0.60077 0.0
H1728 H 0.94419 0.68076 0.54339 0.0
C1729 C 0.98866 0.61097 0.58054 0.0
C1730 C 0.97837 0.60658 0.54677 0.0
H1731 H 0.99407 0.64454 0.62613 0.0
H1732 H 1.00226 0.59248 0.59092 0.0
C1733 C 0.96035 0.63086 0.53425 0.0
C1734 C 0.62377 0.8007 0.82066 0.0
C1735 C 0.61239 0.77843 0.84539 0.0
H1736 H 0.6589 0.81361 0.78369 0.0
C1737 C 0.62866 0.7496 0.84995 0.0
H1738 H 0.61214 0.82313 0.81599 0.0
C1739 C 0.65581 0.7438 0.83057 0.0
C1740 C 0.66726 0.76679 0.80636 0.0
H1741 H 0.62045 0.73159 0.86839 0.0
H1742 H 0.66864 0.72228 0.83542 0.0
C1743 C 0.65059 0.79505 0.80169 0.0
C1744 C 0.47703 0.5791 0.66144 0.0
C1745 C 0.44695 0.55353 0.6568 0.0
H1746 H 0.52311 0.60293 0.641 0.0
C1747 C 0.44018 0.53308 0.62599 0.0
H1748 H 0.48319 0.59527 0.68491 0.0
C1749 C 0.46353 0.53688 0.60118 0.0
C1750 C 0.49391 0.56196 0.60599 0.0
H1751 H 0.41762 0.51285 0.62162 0.0
H1752 H 0.45808 0.51932 0.57845 0.0
C1753 C 0.50001 0.58353 0.63626 0.0
C1754 C 0.78278 0.18425 0.92312 0.0
C1755 C 0.77044 0.19467 0.95344 0.0
H1756 H 0.79356 0.19716 0.8741 0.0
C1757 C 0.75907 0.22721 0.9575 0.0
H1758 H 0.79167 0.15932 0.91943 0.0
C1759 C 0.7591 0.24848 0.93113 0.0
C1760 C 0.77141 0.23791 0.90078 0.0
H1761 H 0.74914 0.23558 0.98069 0.0
H1762 H 0.74944 0.27297 0.93441 0.0
C1763 C 0.78384 0.20597 0.89726 0.0
C1764 C 0.04885 0.48209 0.14988 0.0
C1765 C 0.08307 0.49853 0.15273 0.0
H1766 H 1.00286 0.47137 0.11932 0.0
C1767 C 0.09801 0.51289 0.12528 0.0
H1768 H 0.03667 0.47086 0.17088 0.0
C1769 C 0.07863 0.51429 0.09684 0.0
C1770 C 0.0441 0.49975 0.09418 0.0
H1771 H 0.12411 0.52601 0.12664 0.0
H1772 H 0.09064 0.52919 0.07779 0.0
C1773 C 0.02946 0.4824 0.12052 0.0
C1774 C 0.76177 0.85191 0.41587 0.0
C1775 C 0.7896 0.85598 0.43821 0.0
H1776 H 0.73972 0.83145 0.36779 0.0
C1777 C 0.81749 0.84148 0.42842 0.0
H1778 H 0.74022 0.86335 0.42261 0.0
C1779 C 0.8177 0.8237 0.39654 0.0
C1780 C 0.78982 0.81975 0.37396 0.0
H1781 H 0.83952 0.84482 0.44511 0.0
H1782 H 0.83974 0.81336 0.38952 0.0
C1783 C 0.76169 0.8337 0.38436 0.0
C1784 C 0.41781 0.54658 0.86629 0.0
C1785 C 0.41693 0.5234 0.83742 0.0
H1786 H 0.4395 0.56258 0.91562 0.0
C1787 C 0.43646 0.49662 0.8371 0.0
H1788 H 0.4029 0.56726 0.86726 0.0
C1789 C 0.45658 0.49312 0.86507 0.0
C1790 C 0.45841 0.51712 0.89354 0.0
H1791 H 0.43589 0.47813 0.81517 0.0
H1792 H 0.47132 0.47231 0.86413 0.0
C1793 C 0.4388 0.54385 0.89386 0.0
C1794 C 0.7713 0.21091 0.1596 0.0
C1795 C 0.79897 0.21051 0.1402 0.0
H1796 H 0.75194 0.23373 0.20232 0.0
C1797 C 0.82958 0.23324 0.15055 0.0
H1798 H 0.74721 0.19427 0.15179 0.0
C1799 C 0.83247 0.25541 0.18046 0.0
C1800 C 0.80436 0.25645 0.19945 0.0
H1801 H 0.85115 0.23382 0.13556 0.0
H1802 H 0.85645 0.27217 0.18841 0.0
C1803 C 0.77385 0.23414 0.18839 0.0
C1804 C 0.11129 0.52416 0.36519 0.0
C1805 C 0.10167 0.54074 0.33813 0.0
H1806 H 0.09935 0.50782 0.41264 0.0
C1807 C 0.07148 0.55363 0.33789 0.0
H1808 H 0.1342 0.51355 0.3655 0.0
C1809 C 0.05176 0.55127 0.36538 0.0
C1810 C 0.06185 0.53521 0.39272 0.0
H1811 H 0.06373 0.56637 0.3169 0.0
H1812 H 0.02917 0.56242 0.36551 0.0
C1813 C 0.09122 0.52082 0.392 0.0
C1814 C 0.77977 0.85191 0.6556 0.0
C1815 C 0.76263 0.83884 0.62496 0.0
H1816 H 0.79061 0.84231 0.70572 0.0
C1817 C 0.74041 0.80562 0.62303 0.0
H1818 H 0.79741 0.87705 0.65803 0.0
C1819 C 0.73579 0.78591 0.65082 0.0
C1820 C 0.75369 0.79856 0.68121 0.0
H1821 H 0.72686 0.79455 0.59982 0.0
H1822 H 0.71884 0.76033 0.64824 0.0
C1823 C 0.77573 0.83189 0.68309 0.0
C1824 C 0.68149 0.46991 0.53555 0.0
C1825 C 0.69907 0.47662 0.50685 0.0
H1826 H 0.64752 0.48701 0.56996 0.0
C1827 C 0.69684 0.5081 0.49203 0.0
H1828 H 0.68306 0.44643 0.54807 0.0
C1829 C 0.67715 0.53169 0.505 0.0
C1830 C 0.65886 0.52444 0.53302 0.0
H1831 H 0.71029 0.51469 0.47016 0.0
H1832 H 0.67523 0.55495 0.49225 0.0
C1833 C 0.66162 0.49356 0.54848 0.0
C1834 C 0.14676 0.12053 0.47875 0.0
C1835 C 0.17751 0.11172 0.48809 0.0
H1836 H 0.09323 0.10335 0.47349 0.0
C1837 C 0.17756 0.07887 0.50107 0.0
H1838 H 0.14599 0.14597 0.46938 0.0
C1839 C 0.14767 0.05438 0.50293 0.0
C1840 C 0.11709 0.06281 0.49285 0.0
H1841 H 0.20085 0.07206 0.50976 0.0
H1842 H 0.14844 0.02907 0.51256 0.0
C1843 C 0.11674 0.0962 0.48108 0.0
C1844 C 0.22797 0.92253 0.83287 0.0
C1845 C 0.20438 0.9329 0.81111 0.0
H1846 H 0.26046 0.88585 0.84174 0.0
C1847 C 0.19594 0.91236 0.78044 0.0
H1848 H 0.23566 0.93771 0.8566 0.0
C1849 C 0.21069 0.88265 0.77187 0.0
C1850 C 0.23396 0.87216 0.79365 0.0
H1851 H 0.17862 0.91973 0.76258 0.0
H1852 H 0.20431 0.86818 0.74786 0.0
C1853 C 0.24262 0.89284 0.8242 0.0
C1854 C 0.3778 0.92552 0.96446 0.0
C1855 C 0.35132 0.9358 0.98144 0.0
H1856 H 0.43006 0.93911 0.95544 0.0
C1857 C 0.35665 0.96766 1.00247 0.0
H1858 H 0.37397 0.90081 0.94841 0.0
C1859 C 0.38832 0.98889 1.007 0.0
C1860 C 0.41488 0.97875 0.99015 0.0
H1861 H 0.33641 0.97567 0.01612 0.0
H1862 H 0.39217 0.01297 0.02395 0.0
C1863 C 0.4095 0.9474 0.96832 0.0
C1864 C 0.8512 0.61778 0.76805 0.0
C1865 C 0.8652 0.62242 0.80079 0.0
H1866 H 0.81542 0.63257 0.73398 0.0
C1867 C 0.85385 0.6456 0.82442 0.0
H1868 H 0.85891 0.59905 0.74971 0.0
C1869 C 0.82874 0.66356 0.81578 0.0
C1870 C 0.81427 0.65871 0.78334 0.0
H1871 H 0.86369 0.64893 0.84996 0.0
H1872 H 0.82071 0.68155 0.83462 0.0
C1873 C 0.82567 0.63585 0.75934 0.0
C1874 C 0.86647 0.59693 0.96544 0.0
C1875 C 0.85102 0.61158 0.99241 0.0
H1876 H 0.90444 0.5684 0.94924 0.0
C1877 C 0.86299 0.60811 0.02472 0.0
H1878 H 0.85752 0.59859 0.94023 0.0
C1879 C 0.88926 0.58967 0.02985 0.0
C1880 C 0.90472 0.57519 1.0028 0.0
H1881 H 0.85104 0.6182 0.04601 0.0
H1882 H 0.8974 0.58675 0.055 0.0
C1883 C 0.89316 0.57929 0.97058 0.0
C1884 C 0.20416 0.14966 0.81722 0.0
C1885 C 0.21249 0.1157 0.81239 0.0
H1886 H 0.21994 0.20586 0.81387 0.0
C1887 C 0.24353 0.11276 0.79929 0.0
H1888 H 0.18031 0.15274 0.82697 0.0
C1889 C 0.26591 0.14295 0.79162 0.0
C1890 C 0.25738 0.17678 0.79577 0.0
H1891 H 0.2502 0.08687 0.79401 0.0
H1892 H 0.28951 0.13962 0.7814 0.0
C1893 C 0.22655 0.17996 0.8092 0.0
C1894 C 0.36578 0.95482 0.28792 0.0
C1895 C 0.38866 0.95994 0.31546 0.0
H1896 H 0.32406 0.92097 0.26106 0.0
C1897 C 0.38683 0.93404 0.33784 0.0
H1898 H 0.36647 0.97485 0.27064 0.0
C1899 C 0.36101 0.90398 0.33345 0.0
C1900 C 0.33841 0.89884 0.3055 0.0
H1901 H 0.40439 0.93767 0.35915 0.0
H1902 H 0.35972 0.88403 0.35091 0.0
C1903 C 0.34114 0.9244 0.28277 0.0
C1904 C 0.56857 0.40647 0.59072 0.0
C1905 C 0.54015 0.38365 0.60006 0.0
H1906 H 0.58736 0.45185 0.56511 0.0
C1907 C 0.50819 0.39057 0.59194 0.0
H1908 H 0.59338 0.40106 0.59583 0.0
C1909 C 0.50453 0.41917 0.57399 0.0
C1910 C 0.53282 0.44133 0.5634 0.0
H1911 H 0.48585 0.37281 0.59836 0.0
H1912 H 0.47951 0.42345 0.56793 0.0
C1913 C 0.56494 0.43505 0.57251 0.0
C1914 C 0.40406 0.73679 0.31014 0.0
C1915 C 0.41367 0.7588 0.33978 0.0
H1916 H 0.36875 0.72307 0.26823 0.0
C1917 C 0.3919 0.7803 0.3526 0.0
H1918 H 0.42019 0.71937 0.30024 0.0
C1919 C 0.36267 0.78266 0.33425 0.0
C1920 C 0.35435 0.76288 0.30315 0.0
H1921 H 0.39862 0.79709 0.37568 0.0
H1922 H 0.3477 0.80156 0.34358 0.0
C1923 C 0.37457 0.73877 0.29197 0.0
C1924 C 0.05258 0.66886 0.12591 0.0
C1925 C 0.05852 0.70159 0.11201 0.0
H1926 H 0.046 0.61173 0.11696 0.0
C1927 C 0.06667 0.70171 0.07857 0.0
H1928 H 0.04672 0.66796 0.15169 0.0
C1929 C 0.06605 0.66967 0.05871 0.0
C1930 C 0.05843 0.6369 0.07219 0.0
H1931 H 0.0726 0.72663 0.06748 0.0
H1932 H 0.07059 0.67047 0.03261 0.0
C1933 C 0.0523 0.63677 0.1061 0.0
C1934 C 0.10863 0.3134 0.82127 0.0
C1935 C 0.09198 0.28503 0.8377 0.0
H1936 H 0.14952 0.33245 0.79181 0.0
C1937 C 0.10528 0.25377 0.83797 0.0
H1938 H 0.09872 0.33768 0.82045 0.0
C1939 C 0.13393 0.25043 0.82076 0.0
C1940 C 0.14981 0.27844 0.80344 0.0
H1941 H 0.09255 0.23125 0.84989 0.0
H1942 H 0.14348 0.22587 0.82079 0.0
C1943 C 0.13738 0.31023 0.80449 0.0
C1944 C 0.5479 0.68997 0.99017 0.0
C1945 C 0.52714 0.69073 0.96172 0.0
H1946 H 0.56088 0.65959 0.02912 0.0
C1947 C 0.50104 0.66153 0.95273 0.0
H1948 H 0.56805 0.71224 0.99799 0.0
C1949 C 0.49628 0.63198 0.97111 0.0
C1950 C 0.51788 0.63034 0.99874 0.0
H1951 H 0.48415 0.66147 0.93142 0.0
H1952 H 0.47614 0.60984 0.9629 0.0
C1953 C 0.54349 0.66 1.00834 0.0
C1954 C 0.11721 0.76742 0.64209 0.0
C1955 C 0.08685 0.75776 0.65735 0.0
H1956 H 0.17066 0.77105 0.64558 0.0
C1957 C 0.08653 0.73859 0.68534 0.0
H1958 H 0.11793 0.78136 0.61997 0.0
C1959 C 0.11637 0.73144 0.69923 0.0
C1960 C 0.14719 0.74381 0.68567 0.0
H1961 H 0.06323 0.72979 0.69693 0.0
H1962 H 0.11551 0.71816 0.72175 0.0
C1963 C 0.14725 0.7612 0.65654 0.0
C1964 C 0.07077 0.38967 0.47419 0.0
C1965 C 0.05873 0.38838 0.44091 0.0
H1966 H 0.07599 0.41789 0.52301 0.0
C1967 C 0.04518 0.41726 0.43129 0.0
H1968 H 0.08155 0.36801 0.48258 0.0
C1969 C 0.03943 0.44386 0.45487 0.0
C1970 C 0.05039 0.44476 0.48822 0.0
H1971 H 0.03659 0.41814 0.4059 0.0
H1972 H 0.02489 0.46276 0.44697 0.0
C1973 C 0.06728 0.41804 0.49747 0.0
C1974 C 0.38065 0.2991 0.16418 0.0
C1975 C 0.4061 0.28005 0.17097 0.0
H1976 H 0.33657 0.31704 0.18084 0.0
C1977 C 0.40699 0.2655 0.20158 0.0
H1978 H 0.37932 0.31067 0.14086 0.0
C1979 C 0.38205 0.26842 0.22414 0.0
C1980 C 0.35635 0.28706 0.21716 0.0
H1981 H 0.42615 0.25049 0.20748 0.0
H1982 H 0.38249 0.25545 0.24678 0.0
C1983 C 0.35636 0.30305 0.18724 0.0
C1984 C 0.62031 0.51234 0.42902 0.0
C1985 C 0.61155 0.51076 0.39492 0.0
H1986 H 0.60326 0.51145 0.47844 0.0
C1987 C 0.57713 0.50507 0.38506 0.0
H1988 H 0.64634 0.51613 0.43767 0.0
C1989 C 0.55247 0.50264 0.40871 0.0
C1990 C 0.56162 0.50608 0.44277 0.0
H1991 H 0.5692 0.50352 0.3591 0.0
H1992 H 0.52638 0.49966 0.40039 0.0
C1993 C 0.59569 0.51002 0.45251 0.0
C1994 C 0.28361 0.88729 0.11541 0.0
C1995 C 0.27561 0.86315 0.08694 0.0
H1996 H 0.29464 0.89378 0.16795 0.0
C1997 C 0.27446 0.8266 0.08942 0.0
H1998 H 0.28486 0.91559 0.11406 0.0
C1999 C 0.281 0.81432 0.11986 0.0
C2000 C 0.28807 0.83829 0.14844 0.0
H2001 H 0.26879 0.80744 0.06774 0.0
H2002 H 0.27956 0.78599 0.12119 0.0
C2003 C 0.28936 0.87485 0.14607 0.0
C2004 C 0.01078 0.57187 0.88365 0.0
C2005 C 0.98083 0.58273 0.89297 0.0
H2006 H 0.05682 0.55806 0.90069 0.0
C2007 C 0.97876 0.59723 0.92557 0.0
H2008 H 0.01338 0.5608 0.85857 0.0
C2009 C 1.00429 0.59633 0.94922 0.0
C2010 C 0.03151 0.58066 0.94079 0.0
H2011 H 0.95645 0.60659 0.9333 0.0
H2012 H 1.00143 0.6043 0.97485 0.0
C2013 C 0.03593 0.57053 0.90759 0.0
C2014 C 0.29435 0.22941 0.6118 0.0
C2015 C 0.27049 0.19977 0.59819 0.0
H2016 H 0.31374 0.26469 0.65504 0.0
C2017 C 0.24633 0.1837 0.61911 0.0
H2018 H 0.31321 0.24255 0.59651 0.0
C2019 C 0.24588 0.19721 0.65262 0.0
C2020 C 0.27025 0.22644 0.66631 0.0
H2021 H 0.22735 0.16103 0.6094 0.0
H2022 H 0.22696 0.18432 0.66798 0.0
C2023 C 0.29458 0.24213 0.64542 0.0
C2024 C 0.64252 0.53047 0.18083 0.0
C2025 C 0.62283 0.5272 0.20859 0.0
H2026 H 0.64429 0.53976 0.12926 0.0
C2027 C 0.58977 0.53315 0.20569 0.0
H2028 H 0.66818 0.52643 0.18239 0.0
C2029 C 0.57669 0.54224 0.17593 0.0
C2030 C 0.59598 0.54467 0.14794 0.0
H2031 H 0.57408 0.53148 0.22673 0.0
H2032 H 0.55104 0.54634 0.17459 0.0
C2033 C 0.62898 0.53845 0.15057 0.0
C2034 C 0.25678 0.81158 0.89999 0.0
C2035 C 0.23719 0.83819 0.90213 0.0
H2036 H 0.268 0.76606 0.87107 0.0
C2037 C 0.2113 0.83721 0.87821 0.0
H2038 H 0.2769 0.81193 0.91838 0.0
C2039 C 0.20595 0.81076 0.85163 0.0
C2040 C 0.22717 0.78569 0.8481 0.0
H2041 H 0.19591 0.85747 0.87956 0.0
H2042 H 0.18654 0.81139 0.83277 0.0
C2043 C 0.25196 0.78562 0.87295 0.0
C2044 C 0.98439 0.55337 0.70422 0.0
C2045 C 0.95393 0.5322 0.7115 0.0
H2046 H 0.02245 0.56363 0.6697 0.0
C2047 C 0.93813 0.50425 0.68822 0.0
H2048 H 0.99722 0.57515 0.72163 0.0
C2049 C 0.95295 0.49746 0.65824 0.0
C2050 C 0.98362 0.51859 0.65139 0.0
H2051 H 0.91482 0.48733 0.69341 0.0
H2052 H 0.94036 0.47599 0.6404 0.0
C2053 C 0.99906 0.54661 0.67457 0.0
C2054 C 0.26482 0.24263 0.40857 0.0
C2055 C 0.27597 0.20997 0.40467 0.0
H2056 H 0.25636 0.28922 0.38617 0.0
C2057 C 0.28973 0.20106 0.37429 0.0
H2058 H 0.25385 0.25042 0.43134 0.0
C2059 C 0.29158 0.22356 0.34843 0.0
C2060 C 0.27907 0.25542 0.35179 0.0
H2061 H 0.29901 0.17641 0.37045 0.0
H2062 H 0.30252 0.21578 0.32566 0.0
C2063 C 0.26614 0.26485 0.38248 0.0
C2064 C 0.34592 0.56644 0.50263 0.0
C2065 C 0.34725 0.59884 0.52275 0.0
H2066 H 0.37158 0.52472 0.48574 0.0
C2067 C 0.37662 0.61332 0.54223 0.0
H2068 H 0.32367 0.55412 0.48735 0.0
C2069 C 0.40405 0.59605 0.54124 0.0
C2070 C 0.40261 0.56398 0.52084 0.0
H2071 H 0.37845 0.63788 0.55817 0.0
H2072 H 0.42658 0.60804 0.55628 0.0
C2073 C 0.37325 0.54922 0.50176 0.0
C2074 C 0.88747 0.96445 0.57091 0.0
C2075 C 0.88025 0.93224 0.55026 0.0
H2076 H 0.92423 0.01074 0.58885 0.0
C2077 C 0.90676 0.92022 0.53435 0.0
H2078 H 0.86779 0.97384 0.58439 0.0
C2079 C 0.93893 0.94196 0.53606 0.0
C2080 C 0.94545 0.97561 0.55457 0.0
H2081 H 0.90215 0.89505 0.51897 0.0
H2082 H 0.95827 0.93274 0.52214 0.0
C2083 C 0.91979 0.9856 0.57343 0.0
C2084 C 0.80016 0.11037 0.25212 0.0
C2085 C 0.83533 0.11281 0.25543 0.0
H2086 H 0.75846 0.13759 0.25317 0.0
C2087 C 0.85552 0.14688 0.26135 0.0
H2088 H 0.7836 0.08467 0.24777 0.0
C2089 C 0.84075 0.17735 0.26549 0.0
C2090 C 0.80549 0.1746 0.26303 0.0
H2091 H 0.88251 0.14988 0.26429 0.0
H2092 H 0.85703 0.20317 0.27097 0.0
C2093 C 0.78551 0.14077 0.25534 0.0
C2094 C 0.65525 0.14284 0.03095 0.0
C2095 C 0.67951 0.12824 0.04752 0.0
H2096 H 0.60383 0.13516 0.01297 0.0
C2097 C 0.66948 0.09744 0.06377 0.0
H2098 H 0.66246 0.16688 0.01872 0.0
C2099 C 0.63592 0.07995 0.06142 0.0
C2100 C 0.61218 0.09271 0.04222 0.0
H2101 H 0.68783 0.08619 0.07725 0.0
H2102 H 0.62899 0.05527 0.07273 0.0
C2103 C 0.62187 0.12476 0.02772 0.0
C2104 C 0.18236 0.42889 0.23495 0.0
C2105 C 0.1864 0.45454 0.26228 0.0
H2106 H 0.19874 0.38287 0.2124 0.0
C2107 C 0.20955 0.45291 0.28862 0.0
H2108 H 0.16511 0.42993 0.21421 0.0
C2109 C 0.22966 0.42743 0.28691 0.0
C2110 C 0.22626 0.40241 0.25934 0.0
H2111 H 0.213 0.47227 0.31022 0.0
H2112 H 0.24728 0.42684 0.30748 0.0
C2113 C 0.2021 0.4027 0.23362 0.0
C2114 C 0.20022 0.45981 0.9926 0.0
C2115 C 0.20492 0.43686 0.01704 0.0
H2116 H 0.1731 0.49812 0.97571 0.0
C2117 C 0.18178 0.43261 0.042 0.0
H2118 H 0.21714 0.46358 0.97264 0.0
C2119 C 0.15568 0.45227 0.04317 0.0
C2120 C 0.153 0.47708 0.02 0.0
H2121 H 0.18477 0.41557 0.06136 0.0
H2122 H 0.13843 0.44913 0.06289 0.0
C2123 C 0.17514 0.48005 0.99443 0.0
C2124 C 0.82399 0.91811 0.21566 0.0
C2125 C 0.85388 0.93026 0.23513 0.0
H2126 H 0.78139 0.87605 0.20377 0.0
C2127 C 0.8662 0.90661 0.25469 0.0
H2128 H 0.81439 0.93567 0.19982 0.0
C2129 C 0.84699 0.87264 0.25749 0.0
C2130 C 0.81568 0.86149 0.24001 0.0
H2131 H 0.88945 0.91528 0.26958 0.0
H2132 H 0.85588 0.85586 0.27456 0.0
C2133 C 0.80518 0.88395 0.21787 0.0
C2134 C 0.69958 0.13106 0.71942 0.0
C2135 C 0.66981 0.12357 0.73611 0.0
H2136 H 0.7434 0.16992 0.71222 0.0
C2137 C 0.65886 0.15106 0.7551 0.0
H2138 H 0.70805 0.11015 0.70419 0.0
C2139 C 0.67944 0.18477 0.76044 0.0
C2140 C 0.71046 0.19158 0.74574 0.0
H2141 H 0.63571 0.14576 0.76776 0.0
H2142 H 0.67176 0.20512 0.77705 0.0
C2143 C 0.71965 0.1651 0.72389 0.0
loop_
_geom_bond_atom_site_label_1
_geom_bond_atom_site_label_2
_geom_bond_distance
_geom_bond_site_symmetry_2
_ccdc_geom_bond_type
Mn0 O5 2.095 . S
Mn0 O15 2.162 . S
Mn0 O16 2.297 . S
Mn0 O24 2.385 1_455 S
Mn0 O25 2.209 . S
Mn0 O26 2.094 . S
Mn1 O6 2.121 . S
Mn1 N8 2.257 . S
Mn1 N17 2.282 1_455 S
Mn1 O25 2.215 . S
Mn1 O27 2.117 . S
C2 O24 1.234 . S
C2 O25 1.283 1_655 S
C3 O15 1.281 . S
C3 O16 1.236 . S
C4 O26 1.240 . S
C4 O27 1.264 . S
O5 Mn0 2.095 . S
O5 C14 1.250 . S
O6 Mn1 2.121 . S
O6 C14 1.258 . S
C7 N8 1.326 . S
C7 C11 1.460 . S
C7 H13 0.929 . S
N8 Mn1 2.257 . S
N8 C7 1.326 . S
N8 C12 1.362 1_455 S
C9 C10 1.258 . S
C9 C12 1.431 . S
C9 C29 1.449 . S
C10 C9 1.258 . S
C10 C11 1.477 1_655 S
C10 H30 0.931 . S
C11 C7 1.460 . S
C11 C10 1.477 1_455 S
C11 H31 0.930 . S
C12 N8 1.362 1_655 S
C12 C9 1.431 . S
C12 C22 1.476 . S
H13 C7 0.929 . S
C14 O5 1.250 . S
C14 O6 1.258 . S
O15 Mn0 2.162 . S
O15 C3 1.281 . S
O16 Mn0 2.297 . S
O16 C3 1.236 . S
N17 Mn1 2.282 1_655 S
N17 C18 1.328 . S
N17 C22 1.318 . S
C18 N17 1.328 . S
C18 C19 1.457 . S
C18 H23 0.929 . S
C19 C18 1.457 . S
C19 C20 1.291 . S
C19 H32 0.931 . S
C20 C19 1.291 . S
C20 C21 1.373 . S
C20 H33 0.929 . S
C21 C20 1.373 . S
C21 C22 1.396 . S
C21 C28 1.403 . S
C22 C12 1.476 . S
C22 N17 1.318 . S
C22 C21 1.396 . S
H23 C18 0.929 . S
O24 Mn0 2.385 1_655 S
O24 C2 1.234 . S
O25 Mn0 2.209 . S
O25 Mn1 2.215 . S
O25 C2 1.283 1_455 S
O26 Mn0 2.094 . S
O26 C4 1.240 . S
O27 Mn1 2.117 . S
O27 C4 1.264 . S
C28 C21 1.403 . S
C28 C29 1.399 . S
C28 H34 0.929 . S
C29 C9 1.449 . S
C29 C28 1.399 . S
C29 H35 0.930 . S
H30 C10 0.931 . S
H31 C11 0.930 . S
H32 C19 0.931 . S
H33 C20 0.929 . S
H34 C28 0.929 . S
H35 C29 0.930 . S
Mn36 O41 2.095 1_455 S
Mn36 O51 2.162 1_455 S
Mn36 O52 2.297 . S
Mn36 O60 2.385 . S
Mn36 O61 2.209 . S
Mn36 O62 2.094 . S
Mn37 O42 2.121 1_455 S
Mn37 N44 2.257 . S
Mn37 N53 2.282 . S
Mn37 O61 2.215 . S
Mn37 O63 2.117 . S
C38 O60 1.234 . S
C38 O61 1.283 . S
C39 O51 1.278 . S
C39 O52 1.236 1_655 S
C40 O62 1.240 . S
C40 O63 1.264 . S
O41 Mn36 2.095 1_655 S
O41 C50 1.250 . S
O42 Mn37 2.121 1_655 S
O42 C50 1.258 . S
C43 N44 1.326 . S
C43 C47 1.460 . S
C43 H49 0.929 1_455 S
N44 Mn37 2.257 . S
N44 C43 1.326 . S
N44 C48 1.362 . S
C45 C46 1.258 . S
C45 C48 1.431 . S
C45 C65 1.449 . S
C46 C45 1.258 . S
C46 C47 1.477 . S
C46 H66 0.931 . S
C47 C43 1.460 . S
C47 C46 1.477 . S
C47 H67 0.930 . S
C48 N44 1.362 . S
C48 C45 1.431 . S
C48 C58 1.476 . S
H49 C43 0.929 1_655 S
C50 O41 1.250 . S
C50 O42 1.258 . S
O51 Mn36 2.162 1_655 S
O51 C39 1.278 . S
O52 Mn36 2.297 . S
O52 C39 1.236 1_455 S
N53 Mn37 2.282 . S
N53 C54 1.328 . S
N53 C58 1.318 . S
C54 N53 1.328 . S
C54 C55 1.457 . S
C54 H59 0.929 . S
C55 C54 1.457 . S
C55 C56 1.291 . S
C55 H68 0.931 . S
C56 C55 1.291 . S
C56 C57 1.373 . S
C56 H69 0.929 . S
C57 C56 1.373 . S
C57 C58 1.396 . S
C57 C64 1.403 . S
C58 C48 1.476 . S
C58 N53 1.318 . S
C58 C57 1.396 . S
H59 C54 0.929 . S
O60 Mn36 2.385 . S
O60 C38 1.234 . S
O61 Mn36 2.209 . S
O61 Mn37 2.215 . S
O61 C38 1.283 . S
O62 Mn36 2.094 . S
O62 C40 1.240 . S
O63 Mn37 2.117 . S
O63 C40 1.264 . S
C64 C57 1.403 . S
C64 C65 1.399 . S
C64 H70 0.929 . S
C65 C45 1.449 . S
C65 C64 1.399 . S
C65 H71 0.930 . S
H66 C46 0.931 . S
H67 C47 0.930 . S
H68 C55 0.931 . S
H69 C56 0.929 . S
H70 C64 0.929 . S
H71 C65 0.930 . S
Mn72 O77 2.095 . S
Mn72 O87 2.162 . S
Mn72 O88 2.297 . S
Mn72 O96 2.385 . S
Mn72 O97 2.209 . S
Mn72 O98 2.094 . S
Mn73 O78 2.121 . S
Mn73 N80 2.257 . S
Mn73 N89 2.282 . S
Mn73 O97 2.215 . S
Mn73 O99 2.117 . S
C74 O96 1.234 . S
C74 O97 1.283 . S
C75 O87 1.281 . S
C75 O88 1.236 . S
C76 O98 1.240 . S
C76 O99 1.264 . S
O77 Mn72 2.095 . S
O77 C86 1.250 . S
O78 Mn73 2.121 . S
O78 C86 1.258 . S
C79 N80 1.326 . S
C79 C83 1.460 . S
C79 H85 0.929 . S
N80 Mn73 2.257 . S
N80 C79 1.326 . S
N80 C84 1.362 . S
C81 C82 1.258 . S
C81 C84 1.431 . S
C81 C101 1.449 . S
C82 C81 1.258 . S
C82 C83 1.477 . S
C82 H102 0.931 . S
C83 C79 1.460 . S
C83 C82 1.477 . S
C83 H103 0.930 . S
C84 N80 1.362 . S
C84 C81 1.431 . S
C84 C94 1.476 . S
H85 C79 0.929 . S
C86 O77 1.250 . S
C86 O78 1.258 . S
O87 Mn72 2.162 . S
O87 C75 1.281 . S
O88 Mn72 2.297 . S
O88 C75 1.236 . S
N89 Mn73 2.282 . S
N89 C90 1.328 . S
N89 C94 1.318 . S
C90 N89 1.328 . S
C90 C91 1.457 . S
C90 H95 0.929 . S
C91 C90 1.457 . S
C91 C92 1.291 . S
C91 H104 0.931 . S
C92 C91 1.291 . S
C92 C93 1.373 . S
C92 H105 0.929 . S
C93 C92 1.373 . S
C93 C94 1.396 . S
C93 C100 1.403 . S
C94 C84 1.476 . S
C94 N89 1.318 . S
C94 C93 1.396 . S
H95 C90 0.929 . S
O96 Mn72 2.385 . S
O96 C74 1.234 . S
O97 Mn72 2.209 . S
O97 Mn73 2.215 . S
O97 C74 1.283 . S
O98 Mn72 2.094 . S
O98 C76 1.240 . S
O99 Mn73 2.117 . S
O99 C76 1.264 . S
C100 C93 1.403 . S
C100 C101 1.399 . S
C100 H106 0.929 . S
C101 C81 1.449 . S
C101 C100 1.399 . S
C101 H107 0.930 . S
H102 C82 0.931 . S
H103 C83 0.930 . S
H104 C91 0.931 . S
H105 C92 0.929 . S
H106 C100 0.929 . S
H107 C101 0.930 . S
Mn108 O113 2.095 . S
Mn108 O123 2.162 . S
Mn108 O124 2.297 . S
Mn108 O132 2.385 . S
Mn108 O133 2.209 . S
Mn108 O134 2.094 . S
Mn109 O114 2.121 . S
Mn109 N116 2.257 . S
Mn109 N125 2.282 . S
Mn109 O133 2.215 . S
Mn109 O135 2.117 . S
C110 O132 1.234 . S
C110 O133 1.283 . S
C111 O123 1.281 . S
C111 O124 1.236 . S
C112 O134 1.240 . S
C112 O135 1.264 . S
O113 Mn108 2.095 . S
O113 C122 1.250 . S
O114 Mn109 2.121 . S
O114 C122 1.258 . S
C115 N116 1.326 . S
C115 C119 1.460 1_554 S
C115 H121 0.929 . S
N116 Mn109 2.257 . S
N116 C115 1.326 . S
N116 C120 1.362 . S
C117 C118 1.258 . S
C117 C120 1.431 1_556 S
C117 C137 1.449 . S
C118 C117 1.258 . S
C118 C119 1.477 . S
C118 H138 0.931 . S
C119 C115 1.460 1_556 S
C119 C118 1.477 . S
C119 H139 0.930 . S
C120 N116 1.362 . S
C120 C117 1.431 1_554 S
C120 C130 1.476 . S
H121 C115 0.929 . S
C122 O113 1.250 . S
C122 O114 1.258 . S
O123 Mn108 2.162 . S
O123 C111 1.281 . S
O124 Mn108 2.297 . S
O124 C111 1.236 . S
N125 Mn109 2.282 . S
N125 C126 1.328 . S
N125 C130 1.318 . S
C126 N125 1.328 . S
C126 C127 1.457 . S
C126 H131 0.929 . S
C127 C126 1.457 . S
C127 C128 1.291 . S
C127 H140 0.931 . S
C128 C127 1.291 . S
C128 C129 1.373 . S
C128 H141 0.929 . S
C129 C128 1.373 . S
C129 C130 1.396 . S
C129 C136 1.403 1_554 S
C130 C120 1.476 . S
C130 N125 1.318 . S
C130 C129 1.396 . S
H131 C126 0.929 . S
O132 Mn108 2.385 . S
O132 C110 1.234 . S
O133 Mn108 2.209 . S
O133 Mn109 2.215 . S
O133 C110 1.283 . S
O134 Mn108 2.094 . S
O134 C112 1.240 . S
O135 Mn109 2.117 . S
O135 C112 1.264 . S
C136 C129 1.403 1_556 S
C136 C137 1.399 . S
C136 H142 0.929 . S
C137 C117 1.449 . S
C137 C136 1.399 . S
C137 H143 0.930 . S
H138 C118 0.931 . S
H139 C119 0.930 . S
H140 C127 0.931 . S
H141 C128 0.929 . S
H142 C136 0.929 . S
H143 C137 0.930 . S
Mn144 O149 2.095 . S
Mn144 O159 2.162 . S
Mn144 O160 2.297 . S
Mn144 O168 2.385 . S
Mn144 O169 2.209 . S
Mn144 O170 2.066 1_455 S
Mn145 O150 2.121 1_655 S
Mn145 N152 2.257 . S
Mn145 N161 2.282 . S
Mn145 O169 2.215 1_655 S
Mn145 O171 2.117 . S
C146 O168 1.234 . S
C146 O169 1.283 . S
C147 O159 1.281 . S
C147 O160 1.236 . S
C148 O170 1.270 . S
C148 O171 1.264 . S
O149 Mn144 2.095 . S
O149 C158 1.250 . S
O150 Mn145 2.121 1_455 S
O150 C158 1.258 . S
C151 N152 1.326 1_456 S
C151 C155 1.460 1_455 S
C151 H157 0.929 1_556 S
N152 Mn145 2.257 . S
N152 C151 1.326 1_654 S
N152 C156 1.362 . S
C153 C154 1.258 . S
C153 C156 1.431 1_556 S
C153 C173 1.449 . S
C154 C153 1.258 . S
C154 C155 1.477 . S
C154 H174 0.931 . S
C155 C151 1.460 1_655 S
C155 C154 1.477 . S
C155 H175 0.930 1_655 S
C156 N152 1.362 . S
C156 C153 1.431 1_554 S
C156 C166 1.476 . S
H157 C151 0.929 1_554 S
C158 O149 1.250 . S
C158 O150 1.258 . S
O159 Mn144 2.162 . S
O159 C147 1.281 . S
O160 Mn144 2.297 . S
O160 C147 1.236 . S
N161 Mn145 2.282 . S
N161 C162 1.328 . S
N161 C166 1.318 . S
C162 N161 1.328 . S
C162 C163 1.457 . S
C162 H167 0.929 . S
C163 C162 1.457 . S
C163 C164 1.291 . S
C163 H176 0.931 . S
C164 C163 1.291 . S
C164 C165 1.373 . S
C164 H177 0.929 . S
C165 C164 1.373 . S
C165 C166 1.396 . S
C165 C172 1.403 1_554 S
C166 C156 1.476 . S
C166 N161 1.318 . S
C166 C165 1.396 . S
H167 C162 0.929 . S
O168 Mn144 2.385 . S
O168 C146 1.234 . S
O169 Mn144 2.209 . S
O169 Mn145 2.215 1_455 S
O169 C146 1.283 . S
O170 Mn144 2.066 1_655 S
O170 C148 1.270 . S
O171 Mn145 2.117 . S
O171 C148 1.264 . S
C172 C165 1.403 1_556 S
C172 C173 1.399 . S
C172 H178 0.929 . S
C173 C153 1.449 . S
C173 C172 1.399 . S
C173 H179 0.930 . S
H174 C154 0.931 . S
H175 C155 0.930 1_455 S
H176 C163 0.931 . S
H177 C164 0.929 . S
H178 C172 0.929 . S
H179 C173 0.930 . S
Mn180 O185 2.095 . S
Mn180 O195 2.162 . S
Mn180 O196 2.297 . S
Mn180 O204 2.385 . S
Mn180 O205 2.209 . S
Mn180 O206 2.094 . S
Mn181 O186 2.121 . S
Mn181 N188 2.257 . S
Mn181 N197 2.282 . S
Mn181 O205 2.215 . S
Mn181 O207 2.117 . S
C182 O204 1.234 . S
C182 O205 1.283 . S
C183 O195 1.281 . S
C183 O196 1.236 . S
C184 O206 1.240 . S
C184 O207 1.264 . S
O185 Mn180 2.095 . S
O185 C194 1.250 . S
O186 Mn181 2.121 . S
O186 C194 1.258 . S
C187 N188 1.326 . S
C187 C191 1.460 . S
C187 H193 0.929 . S
N188 Mn181 2.257 . S
N188 C187 1.326 . S
N188 C192 1.362 . S
C189 C190 1.258 . S
C189 C192 1.431 . S
C189 C209 1.449 . S
C190 C189 1.258 . S
C190 C191 1.477 . S
C190 H210 0.931 . S
C191 C187 1.460 . S
C191 C190 1.477 . S
C191 H211 0.930 . S
C192 N188 1.362 . S
C192 C189 1.431 . S
C192 C202 1.476 . S
H193 C187 0.929 . S
C194 O185 1.250 . S
C194 O186 1.258 . S
O195 Mn180 2.162 . S
O195 C183 1.281 . S
O196 Mn180 2.297 . S
O196 C183 1.236 . S
N197 Mn181 2.282 . S
N197 C198 1.328 . S
N197 C202 1.318 . S
C198 N197 1.328 . S
C198 C199 1.457 . S
C198 H203 0.929 . S
C199 C198 1.457 . S
C199 C200 1.291 . S
C199 H212 0.931 . S
C200 C199 1.291 . S
C200 C201 1.373 . S
C200 H213 0.929 . S
C201 C200 1.373 . S
C201 C202 1.396 . S
C201 C208 1.403 . S
C202 C192 1.476 . S
C202 N197 1.318 . S
C202 C201 1.396 . S
H203 C198 0.929 . S
O204 Mn180 2.385 . S
O204 C182 1.234 . S
O205 Mn180 2.209 . S
O205 Mn181 2.215 . S
O205 C182 1.283 . S
O206 Mn180 2.094 . S
O206 C184 1.240 . S
O207 Mn181 2.117 . S
O207 C184 1.264 . S
C208 C201 1.403 . S
C208 C209 1.399 . S
C208 H214 0.929 . S
C209 C189 1.449 . S
C209 C208 1.399 . S
C209 H215 0.930 . S
H210 C190 0.931 . S
H211 C191 0.930 . S
H212 C199 0.931 . S
H213 C200 0.929 . S
H214 C208 0.929 . S
H215 C209 0.930 . S
Mn216 O221 2.095 . S
Mn216 O231 2.162 . S
Mn216 O232 2.297 . S
Mn216 O240 2.385 . S
Mn216 O241 2.209 . S
Mn216 O242 2.094 . S
Mn217 O222 2.121 . S
Mn217 N224 2.257 . S
Mn217 N233 2.282 . S
Mn217 O241 2.215 . S
Mn217 O243 2.117 . S
C218 O240 1.234 . S
C218 O241 1.283 . S
C219 O231 1.281 . S
C219 O232 1.236 . S
C220 O242 1.240 . S
C220 O243 1.264 . S
O221 Mn216 2.095 . S
O221 C230 1.250 . S
O222 Mn217 2.121 . S
O222 C230 1.258 . S
C223 N224 1.326 . S
C223 C227 1.460 . S
C223 H229 0.929 . S
N224 Mn217 2.257 . S
N224 C223 1.326 . S
N224 C228 1.362 . S
C225 C226 1.258 . S
C225 C228 1.431 . S
C225 C245 1.449 . S
C226 C225 1.258 . S
C226 C227 1.477 . S
C226 H246 0.931 . S
C227 C223 1.460 . S
C227 C226 1.477 . S
C227 H247 0.930 . S
C228 N224 1.362 . S
C228 C225 1.431 . S
C228 C238 1.476 . S
H229 C223 0.929 . S
C230 O221 1.250 . S
C230 O222 1.258 . S
O231 Mn216 2.162 . S
O231 C219 1.281 . S
O232 Mn216 2.297 . S
O232 C219 1.236 . S
N233 Mn217 2.282 . S
N233 C234 1.328 . S
N233 C238 1.318 . S
C234 N233 1.328 . S
C234 C235 1.457 . S
C234 H239 0.929 . S
C235 C234 1.457 . S
C235 C236 1.291 . S
C235 H248 0.931 . S
C236 C235 1.291 . S
C236 C237 1.373 . S
C236 H249 0.929 . S
C237 C236 1.373 . S
C237 C238 1.396 . S
C237 C244 1.403 . S
C238 C228 1.476 . S
C238 N233 1.318 . S
C238 C237 1.396 . S
H239 C234 0.929 . S
O240 Mn216 2.385 . S
O240 C218 1.234 . S
O241 Mn216 2.209 . S
O241 Mn217 2.215 . S
O241 C218 1.283 . S
O242 Mn216 2.094 . S
O242 C220 1.240 . S
O243 Mn217 2.117 . S
O243 C220 1.264 . S
C244 C237 1.403 . S
C244 C245 1.399 . S
C244 H250 0.929 . S
C245 C225 1.449 . S
C245 C244 1.399 . S
C245 H251 0.930 . S
H246 C226 0.931 . S
H247 C227 0.930 . S
H248 C235 0.931 . S
H249 C236 0.929 . S
H250 C244 0.929 . S
H251 C245 0.930 . S
Mn252 O257 2.095 1_655 S
Mn252 O267 2.162 . S
Mn252 O268 2.297 . S
Mn252 O276 2.385 . S
Mn252 O277 2.209 . S
Mn252 O278 2.094 1_655 S
Mn253 O258 2.129 . S
Mn253 N260 2.255 1_455 S
Mn253 N269 2.274 1_455 S
Mn253 O277 2.212 1_455 S
Mn253 O279 2.117 . S
C254 O276 1.234 . S
C254 O277 1.283 . S
C255 O267 1.281 . S
C255 O268 1.236 . S
C256 O278 1.240 . S
C256 O279 1.264 . S
O257 Mn252 2.095 1_455 S
O257 C266 1.250 . S
O258 Mn253 2.129 . S
O258 C266 1.258 . S
C259 N260 1.313 1_455 S
C259 C263 1.455 1_455 S
C259 H265 0.948 . S
N260 Mn253 2.255 1_655 S
N260 C259 1.313 1_655 S
N260 C264 1.362 . S
C261 C262 1.258 . S
C261 C264 1.431 . S
C261 C281 1.449 . S
C262 C261 1.258 . S
C262 C263 1.477 . S
C262 H282 0.931 . S
C263 C259 1.455 1_655 S
C263 C262 1.477 . S
C263 H283 0.925 1_655 S
C264 N260 1.362 . S
C264 C261 1.431 . S
C264 C274 1.476 . S
H265 C259 0.948 . S
C266 O257 1.250 . S
C266 O258 1.258 . S
O267 Mn252 2.162 . S
O267 C255 1.281 . S
O268 Mn252 2.297 . S
O268 C255 1.236 . S
N269 Mn253 2.274 1_655 S
N269 C270 1.328 . S
N269 C274 1.318 . S
C270 N269 1.328 . S
C270 C271 1.457 . S
C270 H275 0.929 . S
C271 C270 1.457 . S
C271 C272 1.291 . S
C271 H284 0.931 . S
C272 C271 1.291 . S
C272 C273 1.373 . S
C272 H285 0.929 . S
C273 C272 1.373 . S
C273 C274 1.396 . S
C273 C280 1.403 . S
C274 C264 1.476 . S
C274 N269 1.318 . S
C274 C273 1.396 . S
H275 C270 0.929 . S
O276 Mn252 2.385 . S
O276 C254 1.234 . S
O277 Mn252 2.209 . S
O277 Mn253 2.212 1_655 S
O277 C254 1.283 . S
O278 Mn252 2.094 1_455 S
O278 C256 1.240 . S
O279 Mn253 2.117 . S
O279 C256 1.264 . S
C280 C273 1.403 . S
C280 C281 1.399 . S
C280 H286 0.929 . S
C281 C261 1.449 . S
C281 C280 1.399 . S
C281 H287 0.930 . S
H282 C262 0.931 . S
H283 C263 0.925 1_455 S
H284 C271 0.931 . S
H285 C272 0.929 . S
H286 C280 0.929 . S
H287 C281 0.930 . S
Mn288 O293 2.095 . S
Mn288 O303 2.162 . S
Mn288 O304 2.297 . S
Mn288 O312 2.385 1_545 S
Mn288 O313 2.209 1_545 S
Mn288 O314 2.094 . S
Mn289 O294 2.121 . S
Mn289 N296 2.257 1_545 S
Mn289 N305 2.282 1_545 S
Mn289 O313 2.215 1_545 S
Mn289 O315 2.117 . S
C290 O312 1.234 . S
C290 O313 1.283 . S
C291 O303 1.281 . S
C291 O304 1.236 . S
C292 O314 1.240 . S
C292 O315 1.264 . S
O293 Mn288 2.095 . S
O293 C302 1.250 . S
O294 Mn289 2.121 . S
O294 C302 1.258 . S
C295 N296 1.315 1_545 S
C295 C299 1.455 1_545 S
C295 H301 0.945 . S
N296 Mn289 2.257 1_565 S
N296 C295 1.315 1_565 S
N296 C300 1.362 . S
C297 C298 1.258 . S
C297 C300 1.431 . S
C297 C317 1.449 . S
C298 C297 1.258 . S
C298 C299 1.477 . S
C298 H318 0.931 . S
C299 C295 1.455 1_565 S
C299 C298 1.477 . S
C299 H319 0.930 . S
C300 N296 1.362 . S
C300 C297 1.431 . S
C300 C310 1.476 . S
H301 C295 0.945 . S
C302 O293 1.250 . S
C302 O294 1.258 . S
O303 Mn288 2.162 . S
O303 C291 1.281 . S
O304 Mn288 2.297 . S
O304 C291 1.236 . S
N305 Mn289 2.282 1_565 S
N305 C306 1.328 . S
N305 C310 1.318 . S
C306 N305 1.328 . S
C306 C307 1.457 . S
C306 H311 0.929 . S
C307 C306 1.457 . S
C307 C308 1.291 . S
C307 H320 0.931 . S
C308 C307 1.291 . S
C308 C309 1.373 . S
C308 H321 0.929 . S
C309 C308 1.373 . S
C309 C310 1.396 . S
C309 C316 1.403 . S
C310 C300 1.476 . S
C310 N305 1.318 . S
C310 C309 1.396 . S
H311 C306 0.929 . S
O312 Mn288 2.385 1_565 S
O312 C290 1.234 . S
O313 Mn288 2.209 1_565 S
O313 Mn289 2.215 1_565 S
O313 C290 1.283 . S
O314 Mn288 2.094 . S
O314 C292 1.240 . S
O315 Mn289 2.117 . S
O315 C292 1.264 . S
C316 C309 1.403 . S
C316 C317 1.399 . S
C316 H322 0.929 . S
C317 C297 1.449 . S
C317 C316 1.399 . S
C317 H323 0.930 . S
H318 C298 0.931 . S
H319 C299 0.930 . S
H320 C307 0.931 . S
H321 C308 0.929 . S
H322 C316 0.929 . S
H323 C317 0.930 . S
Mn324 O329 2.095 . S
Mn324 O339 2.162 . S
Mn324 O340 2.297 . S
Mn324 O348 2.385 . S
Mn324 O349 2.209 . S
Mn324 O350 2.094 . S
Mn325 O330 2.121 . S
Mn325 N332 2.257 . S
Mn325 N341 2.282 . S
Mn325 O349 2.215 . S
Mn325 O351 2.117 . S
C326 O348 1.234 . S
C326 O349 1.283 . S
C327 O339 1.281 . S
C327 O340 1.236 . S
C328 O350 1.240 . S
C328 O351 1.264 . S
O329 Mn324 2.095 . S
O329 C338 1.250 . S
O330 Mn325 2.121 . S
O330 C338 1.258 . S
C331 N332 1.326 . S
C331 C335 1.460 . S
C331 H337 0.929 . S
N332 Mn325 2.257 . S
N332 C331 1.326 . S
N332 C336 1.362 . S
C333 C334 1.258 1_545 S
C333 C336 1.431 . S
C333 C353 1.449 . S
C334 C333 1.258 1_565 S
C334 C335 1.477 1_565 S
C334 H354 0.931 . S
C335 C331 1.460 . S
C335 C334 1.477 1_545 S
C335 H355 0.930 1_545 S
C336 N332 1.362 . S
C336 C333 1.431 . S
C336 C346 1.476 . S
H337 C331 0.929 . S
C338 O329 1.250 . S
C338 O330 1.258 . S
O339 Mn324 2.162 . S
O339 C327 1.281 . S
O340 Mn324 2.297 . S
O340 C327 1.236 . S
N341 Mn325 2.282 . S
N341 C342 1.328 . S
N341 C346 1.318 . S
C342 N341 1.328 . S
C342 C343 1.457 . S
C342 H347 0.929 . S
C343 C342 1.457 . S
C343 C344 1.291 . S
C343 H356 0.931 . S
C344 C343 1.291 . S
C344 C345 1.373 . S
C344 H357 0.929 . S
C345 C344 1.373 . S
C345 C346 1.396 . S
C345 C352 1.403 . S
C346 C336 1.476 . S
C346 N341 1.318 . S
C346 C345 1.396 . S
H347 C342 0.929 . S
O348 Mn324 2.385 . S
O348 C326 1.234 . S
O349 Mn324 2.209 . S
O349 Mn325 2.215 . S
O349 C326 1.283 . S
O350 Mn324 2.094 . S
O350 C328 1.240 . S
O351 Mn325 2.117 . S
O351 C328 1.264 . S
C352 C345 1.403 . S
C352 C353 1.402 . S
C352 H358 0.929 . S
C353 C333 1.449 . S
C353 C352 1.402 . S
C353 H359 0.927 1_545 S
H354 C334 0.931 . S
H355 C335 0.930 1_565 S
H356 C343 0.931 . S
H357 C344 0.929 . S
H358 C352 0.929 . S
H359 C353 0.927 1_565 S
Mn360 O365 2.098 . S
Mn360 O375 2.161 . S
Mn360 O376 2.298 . S
Mn360 O384 2.382 1_565 S
Mn360 O385 2.207 1_565 S
Mn360 O386 2.094 . S
Mn361 O366 2.121 1_545 S
Mn361 N368 2.257 . S
Mn361 N377 2.282 . S
Mn361 O385 2.215 . S
Mn361 O387 2.117 . S
C362 O384 1.234 . S
C362 O385 1.283 . S
C363 O375 1.281 . S
C363 O376 1.235 . S
C364 O386 1.242 1_545 S
C364 O387 1.264 . S
O365 Mn360 2.098 . S
O365 C374 1.250 . S
O366 Mn361 2.121 1_565 S
O366 C374 1.258 . S
C367 N368 1.326 . S
C367 C371 1.460 . S
C367 H373 0.929 1_545 S
N368 Mn361 2.257 . S
N368 C367 1.326 . S
N368 C372 1.362 . S
C369 C370 1.258 . S
C369 C372 1.431 . S
C369 C389 1.449 . S
C370 C369 1.258 . S
C370 C371 1.477 . S
C370 H390 0.931 . S
C371 C367 1.460 . S
C371 C370 1.477 . S
C371 H391 0.930 . S
C372 N368 1.362 . S
C372 C369 1.431 . S
C372 C382 1.476 . S
H373 C367 0.929 1_565 S
C374 O365 1.250 . S
C374 O366 1.258 . S
O375 Mn360 2.161 . S
O375 C363 1.281 . S
O376 Mn360 2.298 . S
O376 C363 1.235 . S
N377 Mn361 2.282 . S
N377 C378 1.328 . S
N377 C382 1.318 . S
C378 N377 1.328 . S
C378 C379 1.457 . S
C378 H383 0.929 . S
C379 C378 1.457 . S
C379 C380 1.291 . S
C379 H392 0.931 . S
C380 C379 1.291 . S
C380 C381 1.373 . S
C380 H393 0.929 . S
C381 C380 1.373 . S
C381 C382 1.396 . S
C381 C388 1.403 . S
C382 C372 1.476 . S
C382 N377 1.318 . S
C382 C381 1.396 . S
H383 C378 0.929 . S
O384 Mn360 2.382 1_545 S
O384 C362 1.234 . S
O385 Mn360 2.207 1_545 S
O385 Mn361 2.215 . S
O385 C362 1.283 . S
O386 Mn360 2.094 . S
O386 C364 1.242 1_565 S
O387 Mn361 2.117 . S
O387 C364 1.264 . S
C388 C381 1.403 . S
C388 C389 1.399 . S
C388 H394 0.929 . S
C389 C369 1.449 . S
C389 C388 1.399 . S
C389 H395 0.930 . S
H390 C370 0.931 . S
H391 C371 0.930 . S
H392 C379 0.931 . S
H393 C380 0.929 . S
H394 C388 0.929 . S
H395 C389 0.930 . S
Mn396 O401 2.095 . S
Mn396 O411 2.162 . S
Mn396 O412 2.297 . S
Mn396 O420 2.385 . S
Mn396 O421 2.209 . S
Mn396 O422 2.094 1_554 S
Mn397 O402 2.121 . S
Mn397 N404 2.257 1_565 S
Mn397 N413 2.282 . S
Mn397 O421 2.215 1_556 S
Mn397 O423 2.117 . S
C398 O420 1.234 . S
C398 O421 1.283 . S
C399 O411 1.281 . S
C399 O412 1.236 . S
C400 O422 1.240 . S
C400 O423 1.264 . S
O401 Mn396 2.095 . S
O401 C410 1.250 . S
O402 Mn397 2.121 . S
O402 C410 1.258 1_556 S
C403 N404 1.326 . S
C403 C407 1.460 . S
C403 H409 0.929 1_556 S
N404 Mn397 2.257 1_545 S
N404 C403 1.326 . S
N404 C408 1.362 . S
C405 C406 1.258 . S
C405 C408 1.431 . S
C405 C425 1.449 . S
C406 C405 1.258 . S
C406 C407 1.477 . S
C406 H426 0.931 . S
C407 C403 1.460 . S
C407 C406 1.477 . S
C407 H427 0.930 1_556 S
C408 N404 1.362 . S
C408 C405 1.431 . S
C408 C418 1.476 . S
H409 C403 0.929 1_554 S
C410 O401 1.250 . S
C410 O402 1.258 1_554 S
O411 Mn396 2.162 . S
O411 C399 1.281 . S
O412 Mn396 2.297 . S
O412 C399 1.236 . S
N413 Mn397 2.282 . S
N413 C414 1.328 . S
N413 C418 1.318 1_565 S
C414 N413 1.328 . S
C414 C415 1.457 . S
C414 H419 0.929 . S
C415 C414 1.457 . S
C415 C416 1.291 . S
C415 H428 0.931 . S
C416 C415 1.291 . S
C416 C417 1.373 1_565 S
C416 H429 0.929 . S
C417 C416 1.373 1_545 S
C417 C418 1.396 . S
C417 C424 1.403 . S
C418 C408 1.476 . S
C418 N413 1.318 1_545 S
C418 C417 1.396 . S
H419 C414 0.929 . S
O420 Mn396 2.385 . S
O420 C398 1.234 . S
O421 Mn396 2.209 . S
O421 Mn397 2.215 1_554 S
O421 C398 1.283 . S
O422 Mn396 2.094 1_556 S
O422 C400 1.240 . S
O423 Mn397 2.117 . S
O423 C400 1.264 . S
C424 C417 1.403 . S
C424 C425 1.399 . S
C424 H430 0.929 . S
C425 C405 1.449 . S
C425 C424 1.399 . S
C425 H431 0.930 . S
H426 C406 0.931 . S
H427 C407 0.930 1_554 S
H428 C415 0.931 . S
H429 C416 0.929 . S
H430 C424 0.929 . S
H431 C425 0.930 . S
Mn432 O437 2.095 . S
Mn432 O447 2.162 . S
Mn432 O448 2.297 . S
Mn432 O456 2.385 . S
Mn432 O457 2.209 . S
Mn432 O458 2.094 1_554 S
Mn433 O438 2.121 . S
Mn433 N440 2.257 . S
Mn433 N449 2.282 . S
Mn433 O457 2.215 1_556 S
Mn433 O459 2.117 . S
C434 O456 1.234 . S
C434 O457 1.283 . S
C435 O447 1.281 . S
C435 O448 1.236 . S
C436 O458 1.240 . S
C436 O459 1.264 . S
O437 Mn432 2.095 . S
O437 C446 1.250 . S
O438 Mn433 2.121 . S
O438 C446 1.258 1_556 S
C439 N440 1.326 . S
C439 C443 1.460 . S
C439 H445 0.929 1_556 S
N440 Mn433 2.257 . S
N440 C439 1.326 . S
N440 C444 1.362 . S
C441 C442 1.258 . S
C441 C444 1.431 . S
C441 C461 1.449 . S
C442 C441 1.258 . S
C442 C443 1.477 . S
C442 H462 0.931 . S
C443 C439 1.460 . S
C443 C442 1.477 . S
C443 H463 0.930 1_556 S
C444 N440 1.362 . S
C444 C441 1.431 . S
C444 C454 1.476 . S
H445 C439 0.929 1_554 S
C446 O437 1.250 . S
C446 O438 1.258 1_554 S
O447 Mn432 2.162 . S
O447 C435 1.281 . S
O448 Mn432 2.297 . S
O448 C435 1.236 . S
N449 Mn433 2.282 . S
N449 C450 1.328 . S
N449 C454 1.318 . S
C450 N449 1.328 . S
C450 C451 1.457 . S
C450 H455 0.929 . S
C451 C450 1.457 . S
C451 C452 1.291 . S
C451 H464 0.931 . S
C452 C451 1.291 . S
C452 C453 1.373 . S
C452 H465 0.929 . S
C453 C452 1.373 . S
C453 C454 1.396 . S
C453 C460 1.403 . S
C454 C444 1.476 . S
C454 N449 1.318 . S
C454 C453 1.396 . S
H455 C450 0.929 . S
O456 Mn432 2.385 . S
O456 C434 1.234 . S
O457 Mn432 2.209 . S
O457 Mn433 2.215 1_554 S
O457 C434 1.283 . S
O458 Mn432 2.094 1_556 S
O458 C436 1.240 . S
O459 Mn433 2.117 . S
O459 C436 1.264 . S
C460 C453 1.403 . S
C460 C461 1.399 . S
C460 H466 0.929 . S
C461 C441 1.449 . S
C461 C460 1.399 . S
C461 H467 0.930 . S
H462 C442 0.931 . S
H463 C443 0.930 1_554 S
H464 C451 0.931 . S
H465 C452 0.929 . S
H466 C460 0.929 . S
H467 C461 0.930 . S
Mn468 O473 2.098 . S
Mn468 O483 2.162 . S
Mn468 O484 2.297 . S
Mn468 O492 2.385 . S
Mn468 O493 2.209 1_554 S
Mn468 O494 2.094 1_554 S
Mn469 O474 2.121 . S
Mn469 N476 2.257 . S
Mn469 N485 2.282 . S
Mn469 O493 2.215 . S
Mn469 O495 2.117 . S
C470 O492 1.234 . S
C470 O493 1.283 1_554 S
C471 O483 1.281 . S
C471 O484 1.236 . S
C472 O494 1.240 . S
C472 O495 1.264 . S
O473 Mn468 2.098 . S
O473 C482 1.249 1_554 S
O474 Mn469 2.121 . S
O474 C482 1.258 . S
C475 N476 1.326 . S
C475 C479 1.460 1_545 S
C475 H481 0.929 . S
N476 Mn469 2.257 . S
N476 C475 1.326 . S
N476 C480 1.362 . S
C477 C478 1.258 . S
C477 C480 1.431 1_565 S
C477 C497 1.449 . S
C478 C477 1.258 . S
C478 C479 1.477 . S
C478 H498 0.931 . S
C479 C475 1.460 1_565 S
C479 C478 1.477 . S
C479 H499 0.930 . S
C480 N476 1.362 . S
C480 C477 1.431 1_545 S
C480 C490 1.476 . S
H481 C475 0.929 . S
C482 O473 1.249 1_556 S
C482 O474 1.258 . S
O483 Mn468 2.162 . S
O483 C471 1.281 . S
O484 Mn468 2.297 . S
O484 C471 1.236 . S
N485 Mn469 2.282 . S
N485 C486 1.328 . S
N485 C490 1.318 . S
C486 N485 1.328 . S
C486 C487 1.457 . S
C486 H491 0.929 . S
C487 C486 1.457 . S
C487 C488 1.291 . S
C487 H500 0.931 . S
C488 C487 1.291 . S
C488 C489 1.373 . S
C488 H501 0.929 . S
C489 C488 1.373 . S
C489 C490 1.396 . S
C489 C496 1.403 1_545 S
C490 C480 1.476 . S
C490 N485 1.318 . S
C490 C489 1.396 . S
H491 C486 0.929 . S
O492 Mn468 2.385 . S
O492 C470 1.234 . S
O493 Mn468 2.209 1_556 S
O493 Mn469 2.215 . S
O493 C470 1.283 1_556 S
O494 Mn468 2.094 1_556 S
O494 C472 1.240 . S
O495 Mn469 2.117 . S
O495 C472 1.264 . S
C496 C489 1.403 1_565 S
C496 C497 1.399 . S
C496 H502 0.929 . S
C497 C477 1.449 . S
C497 C496 1.399 . S
C497 H503 0.930 . S
H498 C478 0.931 . S
H499 C479 0.930 . S
H500 C487 0.931 . S
H501 C488 0.929 . S
H502 C496 0.929 . S
H503 C497 0.930 . S
Mn504 O509 2.095 . S
Mn504 O519 2.162 . S
Mn504 O520 2.297 . S
Mn504 O528 2.385 . S
Mn504 O529 2.209 . S
Mn504 O530 2.094 . S
Mn505 O510 2.121 . S
Mn505 N512 2.257 . S
Mn505 N521 2.282 . S
Mn505 O529 2.215 . S
Mn505 O531 2.117 . S
C506 O528 1.234 . S
C506 O529 1.283 . S
C507 O519 1.281 . S
C507 O520 1.236 . S
C508 O530 1.240 . S
C508 O531 1.264 . S
O509 Mn504 2.095 . S
O509 C518 1.250 . S
O510 Mn505 2.121 . S
O510 C518 1.258 . S
C511 N512 1.326 . S
C511 C515 1.460 . S
C511 H517 0.929 . S
N512 Mn505 2.257 . S
N512 C511 1.326 . S
N512 C516 1.362 . S
C513 C514 1.258 . S
C513 C516 1.431 . S
C513 C533 1.449 . S
C514 C513 1.258 . S
C514 C515 1.477 . S
C514 H534 0.931 . S
C515 C511 1.460 . S
C515 C514 1.477 . S
C515 H535 0.930 . S
C516 N512 1.362 . S
C516 C513 1.431 . S
C516 C526 1.476 . S
H517 C511 0.929 . S
C518 O509 1.250 . S
C518 O510 1.258 . S
O519 Mn504 2.162 . S
O519 C507 1.281 . S
O520 Mn504 2.297 . S
O520 C507 1.236 . S
N521 Mn505 2.282 . S
N521 C522 1.328 . S
N521 C526 1.318 . S
C522 N521 1.328 . S
C522 C523 1.457 . S
C522 H527 0.929 . S
C523 C522 1.457 . S
C523 C524 1.291 . S
C523 H536 0.931 . S
C524 C523 1.291 . S
C524 C525 1.373 . S
C524 H537 0.929 . S
C525 C524 1.373 . S
C525 C526 1.396 . S
C525 C532 1.403 . S
C526 C516 1.476 . S
C526 N521 1.318 . S
C526 C525 1.396 . S
H527 C522 0.929 . S
O528 Mn504 2.385 . S
O528 C506 1.234 . S
O529 Mn504 2.209 . S
O529 Mn505 2.215 . S
O529 C506 1.283 . S
O530 Mn504 2.094 . S
O530 C508 1.240 . S
O531 Mn505 2.117 . S
O531 C508 1.264 . S
C532 C525 1.403 . S
C532 C533 1.399 . S
C532 H538 0.929 . S
C533 C513 1.449 . S
C533 C532 1.399 . S
C533 H539 0.930 . S
H534 C514 0.931 . S
H535 C515 0.930 . S
H536 C523 0.931 . S
H537 C524 0.929 . S
H538 C532 0.929 . S
H539 C533 0.930 . S
Mn540 O545 2.095 . S
Mn540 O555 2.162 . S
Mn540 O556 2.297 . S
Mn540 O564 2.385 . S
Mn540 O565 2.209 . S
Mn540 O566 2.094 . S
Mn541 O546 2.121 . S
Mn541 N548 2.257 . S
Mn541 N557 2.282 . S
Mn541 O565 2.215 . S
Mn541 O567 2.117 . S
C542 O564 1.234 . S
C542 O565 1.283 . S
C543 O555 1.281 . S
C543 O556 1.236 . S
C544 O566 1.240 . S
C544 O567 1.264 . S
O545 Mn540 2.095 . S
O545 C554 1.250 . S
O546 Mn541 2.121 . S
O546 C554 1.258 . S
C547 N548 1.326 1_545 S
C547 C551 1.460 . S
C547 H553 0.928 1_545 S
N548 Mn541 2.257 . S
N548 C547 1.326 1_565 S
N548 C552 1.362 . S
C549 C550 1.258 . S
C549 C552 1.431 1_545 S
C549 C569 1.449 . S
C550 C549 1.258 . S
C550 C551 1.477 . S
C550 H570 0.931 . S
C551 C547 1.460 . S
C551 C550 1.477 . S
C551 H571 0.930 . S
C552 N548 1.362 . S
C552 C549 1.431 1_565 S
C552 C562 1.476 . S
H553 C547 0.928 1_565 S
C554 O545 1.250 . S
C554 O546 1.258 . S
O555 Mn540 2.162 . S
O555 C543 1.281 . S
O556 Mn540 2.297 . S
O556 C543 1.236 . S
N557 Mn541 2.282 . S
N557 C558 1.328 . S
N557 C562 1.318 . S
C558 N557 1.328 . S
C558 C559 1.457 . S
C558 H563 0.929 . S
C559 C558 1.457 . S
C559 C560 1.291 . S
C559 H572 0.931 . S
C560 C559 1.291 . S
C560 C561 1.373 . S
C560 H573 0.929 . S
C561 C560 1.373 . S
C561 C562 1.396 . S
C561 C568 1.403 1_565 S
C562 C552 1.476 . S
C562 N557 1.318 . S
C562 C561 1.396 . S
H563 C558 0.929 . S
O564 Mn540 2.385 . S
O564 C542 1.234 . S
O565 Mn540 2.209 . S
O565 Mn541 2.215 . S
O565 C542 1.283 . S
O566 Mn540 2.094 . S
O566 C544 1.240 . S
O567 Mn541 2.117 . S
O567 C544 1.264 . S
C568 C561 1.403 1_545 S
C568 C569 1.399 . S
C568 H574 0.929 . S
C569 C549 1.449 . S
C569 C568 1.399 . S
C569 H575 0.930 . S
H570 C550 0.931 . S
H571 C551 0.930 . S
H572 C559 0.931 . S
H573 C560 0.929 . S
H574 C568 0.929 . S
H575 C569 0.930 . S
Mn576 O581 2.095 . S
Mn576 O591 2.162 . S
Mn576 O592 2.297 . S
Mn576 O600 2.385 1_545 S
Mn576 O601 2.209 . S
Mn576 O602 2.094 . S
Mn577 O582 2.121 . S
Mn577 N584 2.257 . S
Mn577 N593 2.282 1_545 S
Mn577 O601 2.215 . S
Mn577 O603 2.117 . S
C578 O600 1.234 . S
C578 O601 1.283 1_565 S
C579 O591 1.281 . S
C579 O592 1.236 . S
C580 O602 1.240 . S
C580 O603 1.264 . S
O581 Mn576 2.095 . S
O581 C590 1.250 . S
O582 Mn577 2.121 . S
O582 C590 1.258 . S
C583 N584 1.326 . S
C583 C587 1.460 . S
C583 H589 0.929 . S
N584 Mn577 2.257 . S
N584 C583 1.326 . S
N584 C588 1.362 1_545 S
C585 C586 1.258 . S
C585 C588 1.431 . S
C585 C605 1.449 . S
C586 C585 1.258 . S
C586 C587 1.477 1_565 S
C586 H606 0.931 . S
C587 C583 1.460 . S
C587 C586 1.477 1_545 S
C587 H607 0.930 . S
C588 N584 1.362 1_565 S
C588 C585 1.431 . S
C588 C598 1.476 . S
H589 C583 0.929 . S
C590 O581 1.250 . S
C590 O582 1.258 . S
O591 Mn576 2.162 . S
O591 C579 1.281 . S
O592 Mn576 2.297 . S
O592 C579 1.236 . S
N593 Mn577 2.282 1_565 S
N593 C594 1.328 . S
N593 C598 1.318 . S
C594 N593 1.328 . S
C594 C595 1.457 . S
C594 H599 0.929 . S
C595 C594 1.457 . S
C595 C596 1.291 . S
C595 H608 0.931 . S
C596 C595 1.291 . S
C596 C597 1.373 . S
C596 H609 0.929 . S
C597 C596 1.373 . S
C597 C598 1.396 . S
C597 C604 1.403 . S
C598 C588 1.476 . S
C598 N593 1.318 . S
C598 C597 1.396 . S
H599 C594 0.929 . S
O600 Mn576 2.385 1_565 S
O600 C578 1.234 . S
O601 Mn576 2.209 . S
O601 Mn577 2.215 . S
O601 C578 1.283 1_545 S
O602 Mn576 2.094 . S
O602 C580 1.240 . S
O603 Mn577 2.117 . S
O603 C580 1.264 . S
C604 C597 1.403 . S
C604 C605 1.399 . S
C604 H610 0.929 . S
C605 C585 1.449 . S
C605 C604 1.399 . S
C605 H611 0.930 . S
H606 C586 0.931 . S
H607 C587 0.930 . S
H608 C595 0.931 . S
H609 C596 0.929 . S
H610 C604 0.929 . S
H611 C605 0.930 . S
Mn612 O617 2.095 . S
Mn612 O627 2.162 . S
Mn612 O628 2.297 . S
Mn612 O636 2.385 . S
Mn612 O637 2.209 . S
Mn612 O638 2.094 . S
Mn613 O618 2.121 . S
Mn613 N620 2.257 . S
Mn613 N629 2.282 . S
Mn613 O637 2.215 . S
Mn613 O639 2.117 . S
C614 O636 1.234 . S
C614 O637 1.283 . S
C615 O627 1.281 . S
C615 O628 1.236 . S
C616 O638 1.240 . S
C616 O639 1.264 . S
O617 Mn612 2.095 . S
O617 C626 1.250 . S
O618 Mn613 2.121 . S
O618 C626 1.258 . S
C619 N620 1.326 . S
C619 C623 1.460 . S
C619 H625 0.929 . S
N620 Mn613 2.257 . S
N620 C619 1.326 . S
N620 C624 1.362 . S
C621 C622 1.258 . S
C621 C624 1.431 . S
C621 C641 1.449 . S
C622 C621 1.258 . S
C622 C623 1.477 . S
C622 H642 0.931 . S
C623 C619 1.460 . S
C623 C622 1.477 . S
C623 H643 0.930 . S
C624 N620 1.362 . S
C624 C621 1.431 . S
C624 C634 1.476 . S
H625 C619 0.929 . S
C626 O617 1.250 . S
C626 O618 1.258 . S
O627 Mn612 2.162 . S
O627 C615 1.281 . S
O628 Mn612 2.297 . S
O628 C615 1.236 . S
N629 Mn613 2.282 . S
N629 C630 1.328 . S
N629 C634 1.318 . S
C630 N629 1.328 . S
C630 C631 1.457 . S
C630 H635 0.929 . S
C631 C630 1.457 . S
C631 C632 1.291 . S
C631 H644 0.931 . S
C632 C631 1.291 . S
C632 C633 1.373 . S
C632 H645 0.929 . S
C633 C632 1.373 . S
C633 C634 1.396 . S
C633 C640 1.403 . S
C634 C624 1.476 . S
C634 N629 1.318 . S
C634 C633 1.396 . S
H635 C630 0.929 . S
O636 Mn612 2.385 . S
O636 C614 1.234 . S
O637 Mn612 2.209 . S
O637 Mn613 2.215 . S
O637 C614 1.283 . S
O638 Mn612 2.094 . S
O638 C616 1.240 . S
O639 Mn613 2.117 . S
O639 C616 1.264 . S
C640 C633 1.403 . S
C640 C641 1.399 . S
C640 H646 0.929 . S
C641 C621 1.449 . S
C641 C640 1.399 . S
C641 H647 0.930 . S
H642 C622 0.931 . S
H643 C623 0.930 . S
H644 C631 0.931 . S
H645 C632 0.929 . S
H646 C640 0.929 . S
H647 C641 0.930 . S
Mn648 O653 2.095 . S
Mn648 O663 2.162 . S
Mn648 O664 2.297 . S
Mn648 O672 2.385 . S
Mn648 O673 2.209 . S
Mn648 O674 2.094 . S
Mn649 O654 2.121 . S
Mn649 N656 2.257 . S
Mn649 N665 2.282 . S
Mn649 O673 2.215 . S
Mn649 O675 2.117 . S
C650 O672 1.234 . S
C650 O673 1.283 . S
C651 O663 1.281 . S
C651 O664 1.236 . S
C652 O674 1.240 . S
C652 O675 1.264 . S
O653 Mn648 2.095 . S
O653 C662 1.250 . S
O654 Mn649 2.121 . S
O654 C662 1.258 . S
C655 N656 1.326 . S
C655 C659 1.460 . S
C655 H661 0.929 . S
N656 Mn649 2.257 . S
N656 C655 1.326 . S
N656 C660 1.362 . S
C657 C658 1.258 . S
C657 C660 1.431 . S
C657 C677 1.449 . S
C658 C657 1.258 . S
C658 C659 1.477 . S
C658 H678 0.931 . S
C659 C655 1.460 . S
C659 C658 1.477 . S
C659 H679 0.930 . S
C660 N656 1.362 . S
C660 C657 1.431 . S
C660 C670 1.476 . S
H661 C655 0.929 . S
C662 O653 1.250 . S
C662 O654 1.258 . S
O663 Mn648 2.162 . S
O663 C651 1.281 . S
O664 Mn648 2.297 . S
O664 C651 1.236 . S
N665 Mn649 2.282 . S
N665 C666 1.328 . S
N665 C670 1.318 . S
C666 N665 1.328 . S
C666 C667 1.457 . S
C666 H671 0.929 . S
C667 C666 1.457 . S
C667 C668 1.291 . S
C667 H680 0.931 . S
C668 C667 1.291 . S
C668 C669 1.373 . S
C668 H681 0.929 . S
C669 C668 1.373 . S
C669 C670 1.396 . S
C669 C676 1.403 . S
C670 C660 1.476 . S
C670 N665 1.318 . S
C670 C669 1.396 . S
H671 C666 0.929 . S
O672 Mn648 2.385 . S
O672 C650 1.234 . S
O673 Mn648 2.209 . S
O673 Mn649 2.215 . S
O673 C650 1.283 . S
O674 Mn648 2.094 . S
O674 C652 1.240 . S
O675 Mn649 2.117 . S
O675 C652 1.264 . S
C676 C669 1.403 . S
C676 C677 1.399 . S
C676 H682 0.929 . S
C677 C657 1.449 . S
C677 C676 1.399 . S
C677 H683 0.930 . S
H678 C658 0.931 . S
H679 C659 0.930 . S
H680 C667 0.931 . S
H681 C668 0.929 . S
H682 C676 0.929 . S
H683 C677 0.930 . S
Mn684 O689 2.095 1_545 S
Mn684 O699 2.162 . S
Mn684 O700 2.297 . S
Mn684 O708 2.385 . S
Mn684 O709 2.209 . S
Mn684 O710 2.094 . S
Mn685 O690 2.121 1_545 S
Mn685 N692 2.257 . S
Mn685 N701 2.282 . S
Mn685 O709 2.215 . S
Mn685 O711 2.117 . S
C686 O708 1.234 . S
C686 O709 1.283 . S
C687 O699 1.281 . S
C687 O700 1.236 . S
C688 O710 1.240 . S
C688 O711 1.264 . S
O689 Mn684 2.095 1_565 S
O689 C698 1.250 . S
O690 Mn685 2.121 1_565 S
O690 C698 1.258 . S
C691 N692 1.326 . S
C691 C695 1.460 . S
C691 H697 0.929 . S
N692 Mn685 2.257 . S
N692 C691 1.326 . S
N692 C696 1.362 . S
C693 C694 1.258 . S
C693 C696 1.431 . S
C693 C713 1.449 . S
C694 C693 1.258 . S
C694 C695 1.477 . S
C694 H714 0.931 . S
C695 C691 1.460 . S
C695 C694 1.477 . S
C695 H715 0.930 . S
C696 N692 1.362 . S
C696 C693 1.431 . S
C696 C706 1.476 . S
H697 C691 0.929 . S
C698 O689 1.250 . S
C698 O690 1.258 . S
O699 Mn684 2.162 . S
O699 C687 1.281 . S
O700 Mn684 2.297 . S
O700 C687 1.236 . S
N701 Mn685 2.282 . S
N701 C702 1.328 . S
N701 C706 1.318 . S
C702 N701 1.328 . S
C702 C703 1.457 . S
C702 H707 0.929 . S
C703 C702 1.457 . S
C703 C704 1.291 . S
C703 H716 0.931 . S
C704 C703 1.291 . S
C704 C705 1.373 . S
C704 H717 0.929 . S
C705 C704 1.373 . S
C705 C706 1.396 . S
C705 C712 1.403 . S
C706 C696 1.476 . S
C706 N701 1.318 . S
C706 C705 1.396 . S
H707 C702 0.929 . S
O708 Mn684 2.385 . S
O708 C686 1.234 . S
O709 Mn684 2.209 . S
O709 Mn685 2.215 . S
O709 C686 1.283 . S
O710 Mn684 2.094 . S
O710 C688 1.240 . S
O711 Mn685 2.117 . S
O711 C688 1.264 . S
C712 C705 1.403 . S
C712 C713 1.399 . S
C712 H718 0.929 . S
C713 C693 1.449 . S
C713 C712 1.399 . S
C713 H719 0.930 . S
H714 C694 0.931 . S
H715 C695 0.930 . S
H716 C703 0.931 . S
H717 C704 0.929 . S
H718 C712 0.929 . S
H719 C713 0.930 . S
Mn720 O725 2.095 . S
Mn720 O735 2.162 . S
Mn720 O736 2.297 . S
Mn720 O744 2.385 . S
Mn720 O745 2.209 1_554 S
Mn720 O746 2.094 1_554 S
Mn721 O726 2.121 . S
Mn721 N728 2.257 . S
Mn721 N737 2.282 . S
Mn721 O745 2.215 . S
Mn721 O747 2.117 . S
C722 O744 1.234 . S
C722 O745 1.283 1_554 S
C723 O735 1.281 . S
C723 O736 1.236 . S
C724 O746 1.240 . S
C724 O747 1.264 . S
O725 Mn720 2.095 . S
O725 C734 1.250 1_554 S
O726 Mn721 2.121 . S
O726 C734 1.258 . S
C727 N728 1.326 . S
C727 C731 1.460 . S
C727 H733 0.929 . S
N728 Mn721 2.257 . S
N728 C727 1.326 . S
N728 C732 1.362 . S
C729 C730 1.258 . S
C729 C732 1.431 . S
C729 C749 1.449 . S
C730 C729 1.258 . S
C730 C731 1.477 . S
C730 H750 0.931 . S
C731 C727 1.460 . S
C731 C730 1.477 . S
C731 H751 0.930 . S
C732 N728 1.362 . S
C732 C729 1.431 . S
C732 C742 1.476 . S
H733 C727 0.929 . S
C734 O725 1.250 1_556 S
C734 O726 1.258 . S
O735 Mn720 2.162 . S
O735 C723 1.281 . S
O736 Mn720 2.297 . S
O736 C723 1.236 . S
N737 Mn721 2.282 . S
N737 C738 1.328 . S
N737 C742 1.318 . S
C738 N737 1.328 . S
C738 C739 1.457 . S
C738 H743 0.929 . S
C739 C738 1.457 . S
C739 C740 1.291 . S
C739 H752 0.931 . S
C740 C739 1.291 . S
C740 C741 1.373 . S
C740 H753 0.929 . S
C741 C740 1.373 . S
C741 C742 1.396 . S
C741 C748 1.403 . S
C742 C732 1.476 . S
C742 N737 1.318 . S
C742 C741 1.396 . S
H743 C738 0.929 . S
O744 Mn720 2.385 . S
O744 C722 1.234 . S
O745 Mn720 2.209 1_556 S
O745 Mn721 2.215 . S
O745 C722 1.283 1_556 S
O746 Mn720 2.094 1_556 S
O746 C724 1.240 . S
O747 Mn721 2.117 . S
O747 C724 1.264 . S
C748 C741 1.403 . S
C748 C749 1.399 . S
C748 H754 0.929 . S
C749 C729 1.449 . S
C749 C748 1.399 . S
C749 H755 0.930 . S
H750 C730 0.931 . S
H751 C731 0.930 . S
H752 C739 0.931 . S
H753 C740 0.929 . S
H754 C748 0.929 . S
H755 C749 0.930 . S
Mn756 O761 2.095 . S
Mn756 O771 2.162 . S
Mn756 O772 2.297 . S
Mn756 O780 2.385 . S
Mn756 O781 2.209 . S
Mn756 O782 2.094 . S
Mn757 O762 2.121 . S
Mn757 N764 2.257 . S
Mn757 N773 2.282 . S
Mn757 O781 2.215 . S
Mn757 O783 2.117 . S
C758 O780 1.234 . S
C758 O781 1.283 . S
C759 O771 1.281 . S
C759 O772 1.236 . S
C760 O782 1.240 . S
C760 O783 1.264 . S
O761 Mn756 2.095 . S
O761 C770 1.250 . S
O762 Mn757 2.121 . S
O762 C770 1.258 . S
C763 N764 1.326 . S
C763 C767 1.460 . S
C763 H769 0.929 . S
N764 Mn757 2.257 . S
N764 C763 1.326 . S
N764 C768 1.362 . S
C765 C766 1.258 . S
C765 C768 1.431 . S
C765 C785 1.449 . S
C766 C765 1.258 . S
C766 C767 1.477 . S
C766 H786 0.931 . S
C767 C763 1.460 . S
C767 C766 1.477 . S
C767 H787 0.930 . S
C768 N764 1.362 . S
C768 C765 1.431 . S
C768 C778 1.476 . S
H769 C763 0.929 . S
C770 O761 1.250 . S
C770 O762 1.258 . S
O771 Mn756 2.162 . S
O771 C759 1.281 . S
O772 Mn756 2.297 . S
O772 C759 1.236 . S
N773 Mn757 2.282 . S
N773 C774 1.328 . S
N773 C778 1.318 . S
C774 N773 1.328 . S
C774 C775 1.457 . S
C774 H779 0.929 . S
C775 C774 1.457 . S
C775 C776 1.291 . S
C775 H788 0.931 . S
C776 C775 1.291 . S
C776 C777 1.373 . S
C776 H789 0.929 . S
C777 C776 1.373 . S
C777 C778 1.396 . S
C777 C784 1.403 . S
C778 C768 1.476 . S
C778 N773 1.318 . S
C778 C777 1.396 . S
H779 C774 0.929 . S
O780 Mn756 2.385 . S
O780 C758 1.234 . S
O781 Mn756 2.209 . S
O781 Mn757 2.215 . S
O781 C758 1.283 . S
O782 Mn756 2.094 . S
O782 C760 1.240 . S
O783 Mn757 2.117 . S
O783 C760 1.264 . S
C784 C777 1.403 . S
C784 C785 1.399 . S
C784 H790 0.929 . S
C785 C765 1.449 . S
C785 C784 1.399 . S
C785 H791 0.930 . S
H786 C766 0.931 . S
H787 C767 0.930 . S
H788 C775 0.931 . S
H789 C776 0.929 . S
H790 C784 0.929 . S
H791 C785 0.930 . S
Mn792 O797 2.095 . S
Mn792 O807 2.162 . S
Mn792 O808 2.297 . S
Mn792 O816 2.385 . S
Mn792 O817 2.209 . S
Mn792 O818 2.094 . S
Mn793 O798 2.121 . S
Mn793 N800 2.257 . S
Mn793 N809 2.282 . S
Mn793 O817 2.215 . S
Mn793 O819 2.117 . S
C794 O816 1.234 . S
C794 O817 1.283 . S
C795 O807 1.281 . S
C795 O808 1.236 . S
C796 O818 1.240 . S
C796 O819 1.264 . S
O797 Mn792 2.095 . S
O797 C806 1.250 . S
O798 Mn793 2.121 . S
O798 C806 1.258 . S
C799 N800 1.326 . S
C799 C803 1.460 . S
C799 H805 0.929 . S
N800 Mn793 2.257 . S
N800 C799 1.326 . S
N800 C804 1.362 . S
C801 C802 1.258 . S
C801 C804 1.431 . S
C801 C821 1.449 . S
C802 C801 1.258 . S
C802 C803 1.477 . S
C802 H822 0.931 . S
C803 C799 1.460 . S
C803 C802 1.477 . S
C803 H823 0.930 . S
C804 N800 1.362 . S
C804 C801 1.431 . S
C804 C814 1.476 . S
H805 C799 0.929 . S
C806 O797 1.250 . S
C806 O798 1.258 . S
O807 Mn792 2.162 . S
O807 C795 1.281 . S
O808 Mn792 2.297 . S
O808 C795 1.236 . S
N809 Mn793 2.282 . S
N809 C810 1.328 . S
N809 C814 1.318 . S
C810 N809 1.328 . S
C810 C811 1.457 . S
C810 H815 0.929 . S
C811 C810 1.457 . S
C811 C812 1.291 . S
C811 H824 0.931 . S
C812 C811 1.291 . S
C812 C813 1.373 . S
C812 H825 0.929 . S
C813 C812 1.373 . S
C813 C814 1.396 . S
C813 C820 1.403 . S
C814 C804 1.476 . S
C814 N809 1.318 . S
C814 C813 1.396 . S
H815 C810 0.929 . S
O816 Mn792 2.385 . S
O816 C794 1.234 . S
O817 Mn792 2.209 . S
O817 Mn793 2.215 . S
O817 C794 1.283 . S
O818 Mn792 2.094 . S
O818 C796 1.240 . S
O819 Mn793 2.117 . S
O819 C796 1.264 . S
C820 C813 1.403 . S
C820 C821 1.399 . S
C820 H826 0.929 . S
C821 C801 1.449 . S
C821 C820 1.399 . S
C821 H827 0.930 . S
H822 C802 0.931 . S
H823 C803 0.930 . S
H824 C811 0.931 . S
H825 C812 0.929 . S
H826 C820 0.929 . S
H827 C821 0.930 . S
Mn828 O833 2.095 . S
Mn828 O843 2.162 . S
Mn828 O844 2.297 . S
Mn828 O852 2.385 . S
Mn828 O853 2.209 . S
Mn828 O854 2.094 . S
Mn829 O834 2.121 . S
Mn829 N836 2.257 . S
Mn829 N845 2.282 . S
Mn829 O853 2.215 . S
Mn829 O855 2.117 . S
C830 O852 1.234 . S
C830 O853 1.283 . S
C831 O843 1.281 . S
C831 O844 1.236 . S
C832 O854 1.240 . S
C832 O855 1.264 . S
O833 Mn828 2.095 . S
O833 C842 1.250 . S
O834 Mn829 2.121 . S
O834 C842 1.258 . S
C835 N836 1.326 . S
C835 C839 1.460 . S
C835 H841 0.929 . S
N836 Mn829 2.257 . S
N836 C835 1.326 . S
N836 C840 1.362 . S
C837 C838 1.258 . S
C837 C840 1.431 . S
C837 C857 1.449 . S
C838 C837 1.258 . S
C838 C839 1.477 . S
C838 H858 0.931 . S
C839 C835 1.460 . S
C839 C838 1.477 . S
C839 H859 0.930 . S
C840 N836 1.362 . S
C840 C837 1.431 . S
C840 C850 1.476 . S
H841 C835 0.929 . S
C842 O833 1.250 . S
C842 O834 1.258 . S
O843 Mn828 2.162 . S
O843 C831 1.281 . S
O844 Mn828 2.297 . S
O844 C831 1.236 . S
N845 Mn829 2.282 . S
N845 C846 1.328 . S
N845 C850 1.318 . S
C846 N845 1.328 . S
C846 C847 1.457 . S
C846 H851 0.929 . S
C847 C846 1.457 . S
C847 C848 1.291 . S
C847 H860 0.931 . S
C848 C847 1.291 . S
C848 C849 1.373 . S
C848 H861 0.929 . S
C849 C848 1.373 . S
C849 C850 1.396 . S
C849 C856 1.403 . S
C850 C840 1.476 . S
C850 N845 1.318 . S
C850 C849 1.396 . S
H851 C846 0.929 . S
O852 Mn828 2.385 . S
O852 C830 1.234 . S
O853 Mn828 2.209 . S
O853 Mn829 2.215 . S
O853 C830 1.283 . S
O854 Mn828 2.094 . S
O854 C832 1.240 . S
O855 Mn829 2.117 . S
O855 C832 1.264 . S
C856 C849 1.403 . S
C856 C857 1.399 . S
C856 H862 0.929 . S
C857 C837 1.449 . S
C857 C856 1.399 . S
C857 H863 0.930 . S
H858 C838 0.931 . S
H859 C839 0.930 . S
H860 C847 0.931 . S
H861 C848 0.929 . S
H862 C856 0.929 . S
H863 C857 0.930 . S
Dy864 O868 2.411 . S
Dy864 O869 2.512 1_556 S
Dy864 O870 2.400 1_545 S
Dy864 O871 2.661 1_655 S
Dy864 O875 2.350 . S
Dy864 O879 2.317 1_556 S
Dy864 O880 2.327 1_546 S
C865 O876 1.185 1_565 S
C865 O877 1.355 . S
C866 O868 1.185 . S
C866 O869 1.355 1_556 S
Dy867 O871 2.310 1_554 S
Dy867 O874 2.351 . S
Dy867 O876 2.398 . S
Dy867 O877 2.491 1_545 S
Dy867 O878 2.403 . S
Dy867 O879 2.664 1_455 S
Dy867 O881 2.326 1_545 S
O868 Dy864 2.411 . S
O868 C866 1.185 . S
O869 Dy864 2.512 1_554 S
O869 C866 1.355 1_554 S
O870 Dy864 2.400 1_565 S
O870 C872 1.254 1_655 S
O871 Dy864 2.661 1_455 S
O871 Dy867 2.310 1_556 S
O871 C872 1.268 1_545 S
C872 O870 1.254 1_455 S
C872 O871 1.268 1_565 S
C873 O878 1.254 . S
C873 O879 1.268 1_455 S
O874 Dy867 2.351 . S
O874 C882 1.249 1_554 S
O875 Dy864 2.350 . S
O875 C882 1.267 1_655 S
O876 C865 1.185 1_545 S
O876 Dy867 2.398 . S
O877 C865 1.355 . S
O877 Dy867 2.491 1_565 S
O878 Dy867 2.403 . S
O878 C873 1.254 . S
O879 Dy864 2.317 1_554 S
O879 Dy867 2.664 1_655 S
O879 C873 1.268 1_655 S
O880 Dy864 2.327 1_564 S
O880 C883 1.249 1_655 S
O881 Dy867 2.326 1_565 S
O881 C883 1.267 . S
C882 O874 1.249 1_556 S
C882 O875 1.267 1_455 S
C883 O880 1.249 1_455 S
C883 O881 1.267 . S
Dy884 O888 2.398 . S
Dy884 O889 2.491 . S
Dy884 O890 2.403 . S
Dy884 O891 2.664 . S
Dy884 O895 2.326 . S
Dy884 O899 2.310 . S
Dy884 O900 2.351 . S
C885 O896 1.185 . S
C885 O897 1.355 . S
C886 O888 1.185 . S
C886 O889 1.355 . S
Dy887 O891 2.310 . S
Dy887 O894 2.351 . S
Dy887 O896 2.398 . S
Dy887 O897 2.491 . S
Dy887 O898 2.403 . S
Dy887 O899 2.664 . S
Dy887 O901 2.326 . S
O888 Dy884 2.398 . S
O888 C886 1.185 . S
O889 Dy884 2.491 . S
O889 C886 1.355 . S
O890 Dy884 2.403 . S
O890 C892 1.254 . S
O891 Dy884 2.664 . S
O891 Dy887 2.310 . S
O891 C892 1.268 . S
C892 O890 1.254 . S
C892 O891 1.268 . S
C893 O898 1.254 . S
C893 O899 1.268 . S
O894 Dy887 2.351 . S
O894 C902 1.249 . S
O895 Dy884 2.326 . S
O895 C902 1.267 . S
O896 C885 1.185 . S
O896 Dy887 2.398 . S
O897 C885 1.355 . S
O897 Dy887 2.491 . S
O898 Dy887 2.403 . S
O898 C893 1.254 . S
O899 Dy884 2.310 . S
O899 Dy887 2.664 . S
O899 C893 1.268 . S
O900 Dy884 2.351 . S
O900 C903 1.249 . S
O901 Dy887 2.326 . S
O901 C903 1.267 . S
C902 O894 1.249 . S
C902 O895 1.267 . S
C903 O900 1.249 . S
C903 O901 1.267 . S
Dy904 O908 2.398 . S
Dy904 O909 2.491 1_545 S
Dy904 O910 2.403 . S
Dy904 O911 2.664 . S
Dy904 O915 2.326 1_545 S
Dy904 O919 2.310 . S
Dy904 O920 2.351 . S
C905 O916 1.185 . S
C905 O917 1.355 . S
C906 O908 1.185 1_565 S
C906 O909 1.355 . S
Dy907 O911 2.310 . S
Dy907 O914 2.351 1_545 S
Dy907 O916 2.398 . S
Dy907 O917 2.491 . S
Dy907 O918 2.403 . S
Dy907 O919 2.664 . S
Dy907 O921 2.326 . S
O908 Dy904 2.398 . S
O908 C906 1.185 1_545 S
O909 Dy904 2.491 1_565 S
O909 C906 1.355 . S
O910 Dy904 2.403 . S
O910 C912 1.254 . S
O911 Dy904 2.664 . S
O911 Dy907 2.310 . S
O911 C912 1.268 . S
C912 O910 1.254 . S
C912 O911 1.268 . S
C913 O918 1.254 . S
C913 O919 1.268 . S
O914 Dy907 2.351 1_565 S
O914 C922 1.249 . S
O915 Dy904 2.326 1_565 S
O915 C922 1.267 . S
O916 C905 1.185 . S
O916 Dy907 2.398 . S
O917 C905 1.355 . S
O917 Dy907 2.491 . S
O918 Dy907 2.403 . S
O918 C913 1.254 . S
O919 Dy904 2.310 . S
O919 Dy907 2.664 . S
O919 C913 1.268 . S
O920 Dy904 2.351 . S
O920 C923 1.249 . S
O921 Dy907 2.326 . S
O921 C923 1.267 . S
C922 O914 1.249 . S
C922 O915 1.267 . S
C923 O920 1.249 . S
C923 O921 1.267 . S
Dy924 O928 2.398 . S
Dy924 O929 2.491 . S
Dy924 O930 2.403 . S
Dy924 O931 2.664 . S
Dy924 O935 2.326 . S
Dy924 O939 2.310 . S
Dy924 O940 2.351 . S
C925 O936 1.185 . S
C925 O937 1.355 . S
C926 O928 1.185 . S
C926 O929 1.355 . S
Dy927 O931 2.310 . S
Dy927 O934 2.351 . S
Dy927 O936 2.398 . S
Dy927 O937 2.491 . S
Dy927 O938 2.403 . S
Dy927 O939 2.664 . S
Dy927 O941 2.326 . S
O928 Dy924 2.398 . S
O928 C926 1.185 . S
O929 Dy924 2.491 . S
O929 C926 1.355 . S
O930 Dy924 2.403 . S
O930 C932 1.254 . S
O931 Dy924 2.664 . S
O931 Dy927 2.310 . S
O931 C932 1.268 . S
C932 O930 1.254 . S
C932 O931 1.268 . S
C933 O938 1.254 . S
C933 O939 1.268 . S
O934 Dy927 2.351 . S
O934 C942 1.249 . S
O935 Dy924 2.326 . S
O935 C942 1.267 . S
O936 C925 1.185 . S
O936 Dy927 2.398 . S
O937 C925 1.355 . S
O937 Dy927 2.491 . S
O938 Dy927 2.403 . S
O938 C933 1.254 . S
O939 Dy924 2.310 . S
O939 Dy927 2.664 . S
O939 C933 1.268 . S
O940 Dy924 2.351 . S
O940 C943 1.249 . S
O941 Dy927 2.326 . S
O941 C943 1.267 . S
C942 O934 1.249 . S
C942 O935 1.267 . S
C943 O940 1.249 . S
C943 O941 1.267 . S
Dy944 O948 2.398 . S
Dy944 O949 2.491 1_455 S
Dy944 O950 2.403 . S
Dy944 O951 2.664 . S
Dy944 O955 2.326 . S
Dy944 O959 2.310 1_455 S
Dy944 O960 2.351 1_545 S
C945 O956 1.185 . S
C945 O957 1.355 . S
C946 O948 1.185 1_655 S
C946 O949 1.355 . S
Dy947 O951 2.310 . S
Dy947 O954 2.351 . S
Dy947 O956 2.398 . S
Dy947 O957 2.491 . S
Dy947 O958 2.403 1_455 S
Dy947 O959 2.664 1_455 S
Dy947 O961 2.326 1_545 S
O948 Dy944 2.398 . S
O948 C946 1.185 1_455 S
O949 Dy944 2.491 1_655 S
O949 C946 1.355 . S
O950 Dy944 2.403 . S
O950 C952 1.254 . S
O951 Dy944 2.664 . S
O951 Dy947 2.310 . S
O951 C952 1.268 . S
C952 O950 1.254 . S
C952 O951 1.268 . S
C953 O958 1.254 . S
C953 O959 1.268 . S
O954 Dy947 2.351 . S
O954 C962 1.249 . S
O955 Dy944 2.326 . S
O955 C962 1.267 . S
O956 C945 1.185 . S
O956 Dy947 2.398 . S
O957 C945 1.355 . S
O957 Dy947 2.491 . S
O958 Dy947 2.403 1_655 S
O958 C953 1.254 . S
O959 Dy944 2.310 1_655 S
O959 Dy947 2.664 1_655 S
O959 C953 1.268 . S
O960 Dy944 2.351 1_565 S
O960 C963 1.249 . S
O961 Dy947 2.326 1_565 S
O961 C963 1.267 . S
C962 O954 1.249 . S
C962 O955 1.267 . S
C963 O960 1.249 . S
C963 O961 1.267 . S
Dy964 O968 2.398 . S
Dy964 O969 2.491 . S
Dy964 O970 2.403 . S
Dy964 O971 2.664 . S
Dy964 O975 2.326 . S
Dy964 O979 2.310 . S
Dy964 O980 2.351 . S
C965 O976 1.185 . S
C965 O977 1.355 . S
C966 O968 1.185 . S
C966 O969 1.355 . S
Dy967 O971 2.310 . S
Dy967 O974 2.351 . S
Dy967 O976 2.398 . S
Dy967 O977 2.491 . S
Dy967 O978 2.403 . S
Dy967 O979 2.664 . S
Dy967 O981 2.326 . S
O968 Dy964 2.398 . S
O968 C966 1.185 . S
O969 Dy964 2.491 . S
O969 C966 1.355 . S
O970 Dy964 2.403 . S
O970 C972 1.254 . S
O971 Dy964 2.664 . S
O971 Dy967 2.310 . S
O971 C972 1.268 . S
C972 O970 1.254 . S
C972 O971 1.268 . S
C973 O978 1.254 . S
C973 O979 1.268 . S
O974 Dy967 2.351 . S
O974 C982 1.249 . S
O975 Dy964 2.326 . S
O975 C982 1.267 . S
O976 C965 1.185 . S
O976 Dy967 2.398 . S
O977 C965 1.355 . S
O977 Dy967 2.491 . S
O978 Dy967 2.403 . S
O978 C973 1.254 . S
O979 Dy964 2.310 . S
O979 Dy967 2.664 . S
O979 C973 1.268 . S
O980 Dy964 2.351 . S
O980 C983 1.249 . S
O981 Dy967 2.326 . S
O981 C983 1.267 . S
C982 O974 1.249 . S
C982 O975 1.267 . S
C983 O980 1.249 . S
C983 O981 1.267 . S
Dy984 O988 2.398 1_545 S
Dy984 O989 2.491 . S
Dy984 O990 2.403 1_545 S
Dy984 O991 2.664 1_544 S
Dy984 O995 2.326 1_545 S
Dy984 O999 2.310 . S
Dy984 O1000 2.351 . S
C985 O996 1.185 . S
C985 O997 1.355 . S
C986 O988 1.179 1_545 S
C986 O989 1.363 . S
Dy987 O991 2.310 1_545 S
Dy987 O994 2.351 . S
Dy987 O996 2.398 . S
Dy987 O997 2.491 . S
Dy987 O998 2.403 . S
Dy987 O999 2.664 1_556 S
Dy987 O1001 2.326 . S
O988 Dy984 2.398 1_565 S
O988 C986 1.179 1_565 S
O989 Dy984 2.491 . S
O989 C986 1.363 . S
O990 Dy984 2.403 1_565 S
O990 C992 1.254 1_554 S
O991 Dy984 2.664 1_566 S
O991 Dy987 2.310 1_565 S
O991 C992 1.268 . S
C992 O990 1.254 1_556 S
C992 O991 1.268 . S
C993 O998 1.254 1_554 S
C993 O999 1.268 . S
O994 Dy987 2.351 . S
O994 C1002 1.249 1_556 S
O995 Dy984 2.326 1_565 S
O995 C1002 1.267 1_565 S
O996 C985 1.185 . S
O996 Dy987 2.398 . S
O997 C985 1.355 . S
O997 Dy987 2.491 . S
O998 Dy987 2.403 . S
O998 C993 1.254 1_556 S
O999 Dy984 2.310 . S
O999 Dy987 2.664 1_554 S
O999 C993 1.268 . S
O1000 Dy984 2.351 . S
O1000 C1003 1.249 . S
O1001 Dy987 2.326 . S
O1001 C1003 1.267 1_556 S
C1002 O994 1.249 1_554 S
C1002 O995 1.267 1_545 S
C1003 O1000 1.249 . S
C1003 O1001 1.267 1_554 S
Dy1004 O1008 2.398 . S
Dy1004 O1009 2.491 . S
Dy1004 O1010 2.403 . S
Dy1004 O1011 2.664 . S
Dy1004 O1015 2.326 . S
Dy1004 O1019 2.310 . S
Dy1004 O1020 2.351 . S
C1005 O1016 1.185 . S
C1005 O1017 1.355 . S
C1006 O1008 1.185 . S
C1006 O1009 1.355 . S
Dy1007 O1011 2.310 . S
Dy1007 O1014 2.351 . S
Dy1007 O1016 2.398 . S
Dy1007 O1017 2.491 . S
Dy1007 O1018 2.403 . S
Dy1007 O1019 2.664 . S
Dy1007 O1021 2.326 . S
O1008 Dy1004 2.398 . S
O1008 C1006 1.185 . S
O1009 Dy1004 2.491 . S
O1009 C1006 1.355 . S
O1010 Dy1004 2.403 . S
O1010 C1012 1.254 . S
O1011 Dy1004 2.664 . S
O1011 Dy1007 2.310 . S
O1011 C1012 1.268 . S
C1012 O1010 1.254 . S
C1012 O1011 1.268 . S
C1013 O1018 1.254 . S
C1013 O1019 1.268 . S
O1014 Dy1007 2.351 . S
O1014 C1022 1.249 . S
O1015 Dy1004 2.326 . S
O1015 C1022 1.267 . S
O1016 C1005 1.185 . S
O1016 Dy1007 2.398 . S
O1017 C1005 1.355 . S
O1017 Dy1007 2.491 . S
O1018 Dy1007 2.403 . S
O1018 C1013 1.254 . S
O1019 Dy1004 2.310 . S
O1019 Dy1007 2.664 . S
O1019 C1013 1.268 . S
O1020 Dy1004 2.351 . S
O1020 C1023 1.249 . S
O1021 Dy1007 2.326 . S
O1021 C1023 1.267 . S
C1022 O1014 1.249 . S
C1022 O1015 1.267 . S
C1023 O1020 1.249 . S
C1023 O1021 1.267 . S
Dy1024 O1028 2.398 . S
Dy1024 O1029 2.491 . S
Dy1024 O1030 2.403 . S
Dy1024 O1031 2.664 1_556 S
Dy1024 O1035 2.326 . S
Dy1024 O1039 2.310 1_556 S
Dy1024 O1040 2.376 . S
C1025 O1036 1.185 . S
C1025 O1037 1.355 . S
C1026 O1028 1.185 . S
C1026 O1029 1.355 . S
Dy1027 O1031 2.310 . S
Dy1027 O1034 2.351 . S
Dy1027 O1036 2.398 . S
Dy1027 O1037 2.491 . S
Dy1027 O1038 2.403 . S
Dy1027 O1039 2.664 . S
Dy1027 O1041 2.326 . S
O1028 Dy1024 2.398 . S
O1028 C1026 1.185 . S
O1029 Dy1024 2.491 . S
O1029 C1026 1.355 . S
O1030 Dy1024 2.403 . S
O1030 C1032 1.254 . S
O1031 Dy1024 2.664 1_554 S
O1031 Dy1027 2.310 . S
O1031 C1032 1.268 1_554 S
C1032 O1030 1.254 . S
C1032 O1031 1.268 1_556 S
C1033 O1038 1.254 . S
C1033 O1039 1.268 . S
O1034 Dy1027 2.351 . S
O1034 C1042 1.249 1_554 S
O1035 Dy1024 2.326 . S
O1035 C1042 1.267 . S
O1036 C1025 1.185 . S
O1036 Dy1027 2.398 . S
O1037 C1025 1.355 . S
O1037 Dy1027 2.491 . S
O1038 Dy1027 2.403 . S
O1038 C1033 1.254 . S
O1039 Dy1024 2.310 1_554 S
O1039 Dy1027 2.664 . S
O1039 C1033 1.268 . S
O1040 Dy1024 2.376 . S
O1040 C1043 1.214 1_556 S
O1041 Dy1027 2.326 . S
O1041 C1043 1.267 . S
C1042 O1034 1.249 1_556 S
C1042 O1035 1.267 . S
C1043 O1040 1.214 1_554 S
C1043 O1041 1.267 . S
Dy1044 O1048 2.398 . S
Dy1044 O1049 2.491 . S
Dy1044 O1050 2.403 . S
Dy1044 O1051 2.664 . S
Dy1044 O1055 2.326 . S
Dy1044 O1059 2.310 . S
Dy1044 O1060 2.351 . S
C1045 O1056 1.185 . S
C1045 O1057 1.355 . S
C1046 O1048 1.185 . S
C1046 O1049 1.355 . S
Dy1047 O1051 2.310 . S
Dy1047 O1054 2.351 . S
Dy1047 O1056 2.398 . S
Dy1047 O1057 2.491 . S
Dy1047 O1058 2.403 . S
Dy1047 O1059 2.664 . S
Dy1047 O1061 2.326 . S
O1048 Dy1044 2.398 . S
O1048 C1046 1.185 . S
O1049 Dy1044 2.491 . S
O1049 C1046 1.355 . S
O1050 Dy1044 2.403 . S
O1050 C1052 1.254 . S
O1051 Dy1044 2.664 . S
O1051 Dy1047 2.310 . S
O1051 C1052 1.268 . S
C1052 O1050 1.254 . S
C1052 O1051 1.268 . S
C1053 O1058 1.254 . S
C1053 O1059 1.268 . S
O1054 Dy1047 2.351 . S
O1054 C1062 1.249 . S
O1055 Dy1044 2.326 . S
O1055 C1062 1.267 . S
O1056 C1045 1.185 . S
O1056 Dy1047 2.398 . S
O1057 C1045 1.355 . S
O1057 Dy1047 2.491 . S
O1058 Dy1047 2.403 . S
O1058 C1053 1.254 . S
O1059 Dy1044 2.310 . S
O1059 Dy1047 2.664 . S
O1059 C1053 1.268 . S
O1060 Dy1044 2.351 . S
O1060 C1063 1.249 . S
O1061 Dy1047 2.326 . S
O1061 C1063 1.267 . S
C1062 O1054 1.249 . S
C1062 O1055 1.267 . S
C1063 O1060 1.249 . S
C1063 O1061 1.267 . S
Dy1064 O1068 2.398 . S
Dy1064 O1069 2.491 1_455 S
Dy1064 O1070 2.403 . S
Dy1064 O1071 2.664 . S
Dy1064 O1075 2.326 1_455 S
Dy1064 O1079 2.310 . S
Dy1064 O1080 2.351 . S
C1065 O1076 1.185 . S
C1065 O1077 1.355 . S
C1066 O1068 1.185 1_655 S
C1066 O1069 1.355 . S
Dy1067 O1071 2.310 . S
Dy1067 O1074 2.351 1_455 S
Dy1067 O1076 2.398 . S
Dy1067 O1077 2.491 . S
Dy1067 O1078 2.403 . S
Dy1067 O1079 2.664 . S
Dy1067 O1081 2.326 . S
O1068 Dy1064 2.398 . S
O1068 C1066 1.185 1_455 S
O1069 Dy1064 2.491 1_655 S
O1069 C1066 1.355 . S
O1070 Dy1064 2.403 . S
O1070 C1072 1.254 . S
O1071 Dy1064 2.664 . S
O1071 Dy1067 2.310 . S
O1071 C1072 1.268 . S
C1072 O1070 1.254 . S
C1072 O1071 1.268 . S
C1073 O1078 1.254 . S
C1073 O1079 1.268 . S
O1074 Dy1067 2.351 1_655 S
O1074 C1082 1.249 . S
O1075 Dy1064 2.326 1_655 S
O1075 C1082 1.267 . S
O1076 C1065 1.185 . S
O1076 Dy1067 2.398 . S
O1077 C1065 1.355 . S
O1077 Dy1067 2.491 . S
O1078 Dy1067 2.403 . S
O1078 C1073 1.254 . S
O1079 Dy1064 2.310 . S
O1079 Dy1067 2.664 . S
O1079 C1073 1.268 . S
O1080 Dy1064 2.351 . S
O1080 C1083 1.249 . S
O1081 Dy1067 2.326 . S
O1081 C1083 1.267 . S
C1082 O1074 1.249 . S
C1082 O1075 1.267 . S
C1083 O1080 1.249 . S
C1083 O1081 1.267 . S
Dy1084 O1088 2.398 . S
Dy1084 O1089 2.491 . S
Dy1084 O1090 2.403 . S
Dy1084 O1091 2.664 . S
Dy1084 O1095 2.326 . S
Dy1084 O1099 2.310 . S
Dy1084 O1100 2.351 . S
C1085 O1096 1.185 . S
C1085 O1097 1.355 . S
C1086 O1088 1.185 . S
C1086 O1089 1.355 . S
Dy1087 O1091 2.310 . S
Dy1087 O1094 2.351 . S
Dy1087 O1096 2.398 . S
Dy1087 O1097 2.491 . S
Dy1087 O1098 2.403 . S
Dy1087 O1099 2.664 . S
Dy1087 O1101 2.326 . S
O1088 Dy1084 2.398 . S
O1088 C1086 1.185 . S
O1089 Dy1084 2.491 . S
O1089 C1086 1.355 . S
O1090 Dy1084 2.403 . S
O1090 C1092 1.254 . S
O1091 Dy1084 2.664 . S
O1091 Dy1087 2.310 . S
O1091 C1092 1.268 . S
C1092 O1090 1.254 . S
C1092 O1091 1.268 . S
C1093 O1098 1.254 . S
C1093 O1099 1.268 . S
O1094 Dy1087 2.351 . S
O1094 C1102 1.249 . S
O1095 Dy1084 2.326 . S
O1095 C1102 1.267 . S
O1096 C1085 1.185 . S
O1096 Dy1087 2.398 . S
O1097 C1085 1.355 . S
O1097 Dy1087 2.491 . S
O1098 Dy1087 2.403 . S
O1098 C1093 1.254 . S
O1099 Dy1084 2.310 . S
O1099 Dy1087 2.664 . S
O1099 C1093 1.268 . S
O1100 Dy1084 2.351 . S
O1100 C1103 1.249 . S
O1101 Dy1087 2.326 . S
O1101 C1103 1.267 . S
C1102 O1094 1.249 . S
C1102 O1095 1.267 . S
C1103 O1100 1.249 . S
C1103 O1101 1.267 . S
Dy1104 O1108 2.398 . S
Dy1104 O1109 2.491 . S
Dy1104 O1110 2.403 . S
Dy1104 O1111 2.664 . S
Dy1104 O1115 2.326 . S
Dy1104 O1119 2.310 . S
Dy1104 O1120 2.351 . S
C1105 O1116 1.185 . S
C1105 O1117 1.355 . S
C1106 O1108 1.185 . S
C1106 O1109 1.355 . S
Dy1107 O1111 2.310 . S
Dy1107 O1114 2.351 . S
Dy1107 O1116 2.398 . S
Dy1107 O1117 2.491 . S
Dy1107 O1118 2.403 . S
Dy1107 O1119 2.664 . S
Dy1107 O1121 2.326 . S
O1108 Dy1104 2.398 . S
O1108 C1106 1.185 . S
O1109 Dy1104 2.491 . S
O1109 C1106 1.355 . S
O1110 Dy1104 2.403 . S
O1110 C1112 1.254 . S
O1111 Dy1104 2.664 . S
O1111 Dy1107 2.310 . S
O1111 C1112 1.268 . S
C1112 O1110 1.254 . S
C1112 O1111 1.268 . S
C1113 O1118 1.254 . S
C1113 O1119 1.268 . S
O1114 Dy1107 2.351 . S
O1114 C1122 1.249 . S
O1115 Dy1104 2.326 . S
O1115 C1122 1.267 . S
O1116 C1105 1.185 . S
O1116 Dy1107 2.398 . S
O1117 C1105 1.355 . S
O1117 Dy1107 2.491 . S
O1118 Dy1107 2.403 . S
O1118 C1113 1.254 . S
O1119 Dy1104 2.310 . S
O1119 Dy1107 2.664 . S
O1119 C1113 1.268 . S
O1120 Dy1104 2.351 . S
O1120 C1123 1.249 . S
O1121 Dy1107 2.326 . S
O1121 C1123 1.267 . S
C1122 O1114 1.249 . S
C1122 O1115 1.267 . S
C1123 O1120 1.249 . S
C1123 O1121 1.267 . S
Dy1124 O1128 2.398 . S
Dy1124 O1129 2.491 . S
Dy1124 O1130 2.403 . S
Dy1124 O1131 2.664 . S
Dy1124 O1135 2.326 . S
Dy1124 O1139 2.310 . S
Dy1124 O1140 2.351 . S
C1125 O1136 1.185 . S
C1125 O1137 1.355 . S
C1126 O1128 1.185 . S
C1126 O1129 1.355 . S
Dy1127 O1131 2.310 . S
Dy1127 O1134 2.351 . S
Dy1127 O1136 2.398 . S
Dy1127 O1137 2.491 . S
Dy1127 O1138 2.403 . S
Dy1127 O1139 2.664 . S
Dy1127 O1141 2.326 . S
O1128 Dy1124 2.398 . S
O1128 C1126 1.185 . S
O1129 Dy1124 2.491 . S
O1129 C1126 1.355 . S
O1130 Dy1124 2.403 . S
O1130 C1132 1.254 . S
O1131 Dy1124 2.664 . S
O1131 Dy1127 2.310 . S
O1131 C1132 1.268 . S
C1132 O1130 1.254 . S
C1132 O1131 1.268 . S
C1133 O1138 1.254 . S
C1133 O1139 1.268 . S
O1134 Dy1127 2.351 . S
O1134 C1142 1.249 . S
O1135 Dy1124 2.326 . S
O1135 C1142 1.267 . S
O1136 C1125 1.185 . S
O1136 Dy1127 2.398 . S
O1137 C1125 1.355 . S
O1137 Dy1127 2.491 . S
O1138 Dy1127 2.403 . S
O1138 C1133 1.254 . S
O1139 Dy1124 2.310 . S
O1139 Dy1127 2.664 . S
O1139 C1133 1.268 . S
O1140 Dy1124 2.351 . S
O1140 C1143 1.249 . S
O1141 Dy1127 2.326 . S
O1141 C1143 1.267 . S
C1142 O1134 1.249 . S
C1142 O1135 1.267 . S
C1143 O1140 1.249 . S
C1143 O1141 1.267 . S
Dy1144 O1148 2.398 . S
Dy1144 O1149 2.491 . S
Dy1144 O1150 2.403 . S
Dy1144 O1151 2.664 . S
Dy1144 O1155 2.326 . S
Dy1144 O1159 2.310 . S
Dy1144 O1160 2.351 . S
C1145 O1156 1.185 . S
C1145 O1157 1.355 . S
C1146 O1148 1.185 . S
C1146 O1149 1.355 . S
Dy1147 O1151 2.310 . S
Dy1147 O1154 2.351 . S
Dy1147 O1156 2.398 . S
Dy1147 O1157 2.491 . S
Dy1147 O1158 2.403 . S
Dy1147 O1159 2.664 . S
Dy1147 O1161 2.326 . S
O1148 Dy1144 2.398 . S
O1148 C1146 1.185 . S
O1149 Dy1144 2.491 . S
O1149 C1146 1.355 . S
O1150 Dy1144 2.403 . S
O1150 C1152 1.254 . S
O1151 Dy1144 2.664 . S
O1151 Dy1147 2.310 . S
O1151 C1152 1.268 . S
C1152 O1150 1.254 . S
C1152 O1151 1.268 . S
C1153 O1158 1.254 . S
C1153 O1159 1.268 . S
O1154 Dy1147 2.351 . S
O1154 C1162 1.249 . S
O1155 Dy1144 2.326 . S
O1155 C1162 1.267 . S
O1156 C1145 1.185 . S
O1156 Dy1147 2.398 . S
O1157 C1145 1.355 . S
O1157 Dy1147 2.491 . S
O1158 Dy1147 2.403 . S
O1158 C1153 1.254 . S
O1159 Dy1144 2.310 . S
O1159 Dy1147 2.664 . S
O1159 C1153 1.268 . S
O1160 Dy1144 2.351 . S
O1160 C1163 1.249 . S
O1161 Dy1147 2.326 . S
O1161 C1163 1.267 . S
C1162 O1154 1.249 . S
C1162 O1155 1.267 . S
C1163 O1160 1.249 . S
C1163 O1161 1.267 . S
Dy1164 O1168 2.398 . S
Dy1164 O1169 2.491 1_556 S
Dy1164 O1170 2.403 . S
Dy1164 O1171 2.664 . S
Dy1164 O1175 2.326 . S
Dy1164 O1179 2.310 1_556 S
Dy1164 O1180 2.351 1_556 S
C1165 O1176 1.185 . S
C1165 O1177 1.355 . S
C1166 O1168 1.185 . S
C1166 O1169 1.355 1_556 S
Dy1167 O1171 2.310 1_654 S
Dy1167 O1174 2.351 . S
Dy1167 O1176 2.398 . S
Dy1167 O1177 2.491 . S
Dy1167 O1178 2.403 . S
Dy1167 O1179 2.664 1_655 S
Dy1167 O1181 2.326 1_655 S
O1168 Dy1164 2.398 . S
O1168 C1166 1.185 . S
O1169 Dy1164 2.491 1_554 S
O1169 C1166 1.355 1_554 S
O1170 Dy1164 2.403 . S
O1170 C1172 1.254 . S
O1171 Dy1164 2.664 . S
O1171 Dy1167 2.310 1_456 S
O1171 C1172 1.268 . S
C1172 O1170 1.254 . S
C1172 O1171 1.268 . S
C1173 O1178 1.254 1_455 S
C1173 O1179 1.268 . S
O1174 Dy1167 2.351 . S
O1174 C1182 1.249 1_654 S
O1175 Dy1164 2.326 . S
O1175 C1182 1.267 . S
O1176 C1165 1.185 . S
O1176 Dy1167 2.398 . S
O1177 C1165 1.355 . S
O1177 Dy1167 2.491 . S
O1178 Dy1167 2.403 . S
O1178 C1173 1.254 1_655 S
O1179 Dy1164 2.310 1_554 S
O1179 Dy1167 2.664 1_455 S
O1179 C1173 1.268 . S
O1180 Dy1164 2.351 1_554 S
O1180 C1183 1.249 . S
O1181 Dy1167 2.326 1_455 S
O1181 C1183 1.267 . S
C1182 O1174 1.249 1_456 S
C1182 O1175 1.267 . S
C1183 O1180 1.249 . S
C1183 O1181 1.267 . S
C1184 C1185 1.387 . S
C1184 H1188 0.950 . S
C1184 C1193 1.390 . S
C1185 C1184 1.387 . S
C1185 C1187 1.387 1_655 S
H1186 C1193 0.950 . S
C1187 C1185 1.387 1_455 S
C1187 C1189 1.390 . S
C1187 H1191 0.950 . S
H1188 C1184 0.950 . S
C1189 C1187 1.390 . S
C1189 C1190 1.387 . S
C1189 H1192 0.950 . S
C1190 C1189 1.387 . S
C1190 C1193 1.387 1_455 S
H1191 C1187 0.950 . S
H1192 C1189 0.950 . S
C1193 C1184 1.390 . S
C1193 H1186 0.950 . S
C1193 C1190 1.387 1_655 S
C1194 C1195 1.387 . S
C1194 H1198 0.950 . S
C1194 C1203 1.390 . S
C1195 C1194 1.387 . S
C1195 C1197 1.387 . S
H1196 C1203 0.950 . S
C1197 C1195 1.387 . S
C1197 C1199 1.390 . S
C1197 H1201 0.950 . S
H1198 C1194 0.950 . S
C1199 C1197 1.390 . S
C1199 C1200 1.387 . S
C1199 H1202 0.950 . S
C1200 C1199 1.387 . S
C1200 C1203 1.387 . S
H1201 C1197 0.950 . S
H1202 C1199 0.950 . S
C1203 C1194 1.390 . S
C1203 H1196 0.950 . S
C1203 C1200 1.387 . S
C1204 C1205 1.387 . S
C1204 H1208 0.950 . S
C1204 C1213 1.390 . S
C1205 C1204 1.387 . S
C1205 C1207 1.387 . S
H1206 C1213 0.950 . S
C1207 C1205 1.387 . S
C1207 C1209 1.390 . S
C1207 H1211 0.950 . S
H1208 C1204 0.950 . S
C1209 C1207 1.390 . S
C1209 C1210 1.387 . S
C1209 H1212 0.950 . S
C1210 C1209 1.387 . S
C1210 C1213 1.387 . S
H1211 C1207 0.950 . S
H1212 C1209 0.950 . S
C1213 C1204 1.390 . S
C1213 H1206 0.950 . S
C1213 C1210 1.387 . S
C1214 C1215 1.387 . S
C1214 H1218 0.950 . S
C1214 C1223 1.390 . S
C1215 C1214 1.387 . S
C1215 C1217 1.387 . S
H1216 C1223 0.950 . S
C1217 C1215 1.387 . S
C1217 C1219 1.390 . S
C1217 H1221 0.950 . S
H1218 C1214 0.950 . S
C1219 C1217 1.390 . S
C1219 C1220 1.387 . S
C1219 H1222 0.950 . S
C1220 C1219 1.387 . S
C1220 C1223 1.387 . S
H1221 C1217 0.950 . S
H1222 C1219 0.950 . S
C1223 C1214 1.390 . S
C1223 H1216 0.950 . S
C1223 C1220 1.387 . S
C1224 C1225 1.387 . S
C1224 H1228 0.950 . S
C1224 C1233 1.390 . S
C1225 C1224 1.387 . S
C1225 C1227 1.387 . S
H1226 C1233 0.950 . S
C1227 C1225 1.387 . S
C1227 C1229 1.390 . S
C1227 H1231 0.950 . S
H1228 C1224 0.950 . S
C1229 C1227 1.390 . S
C1229 C1230 1.387 . S
C1229 H1232 0.950 . S
C1230 C1229 1.387 . S
C1230 C1233 1.387 . S
H1231 C1227 0.950 . S
H1232 C1229 0.950 . S
C1233 C1224 1.390 . S
C1233 H1226 0.950 . S
C1233 C1230 1.387 . S
C1234 C1235 1.387 . S
C1234 H1238 0.950 . S
C1234 C1243 1.390 . S
C1235 C1234 1.387 . S
C1235 C1237 1.387 . S
H1236 C1243 0.950 . S
C1237 C1235 1.387 . S
C1237 C1239 1.390 . S
C1237 H1241 0.950 . S
H1238 C1234 0.950 . S
C1239 C1237 1.390 . S
C1239 C1240 1.387 . S
C1239 H1242 0.950 . S
C1240 C1239 1.387 . S
C1240 C1243 1.387 . S
H1241 C1237 0.950 . S
H1242 C1239 0.950 . S
C1243 C1234 1.390 . S
C1243 H1236 0.950 . S
C1243 C1240 1.387 . S
C1244 C1245 1.387 . S
C1244 H1248 0.950 . S
C1244 C1253 1.390 . S
C1245 C1244 1.387 . S
C1245 C1247 1.387 . S
H1246 C1253 0.950 . S
C1247 C1245 1.387 . S
C1247 C1249 1.390 . S
C1247 H1251 0.950 . S
H1248 C1244 0.950 . S
C1249 C1247 1.390 . S
C1249 C1250 1.387 . S
C1249 H1252 0.950 . S
C1250 C1249 1.387 . S
C1250 C1253 1.387 . S
H1251 C1247 0.950 . S
H1252 C1249 0.950 . S
C1253 C1244 1.390 . S
C1253 H1246 0.950 . S
C1253 C1250 1.387 . S
C1254 C1255 1.387 . S
C1254 H1258 0.950 . S
C1254 C1263 1.390 . S
C1255 C1254 1.387 . S
C1255 C1257 1.387 . S
H1256 C1263 0.950 . S
C1257 C1255 1.387 . S
C1257 C1259 1.390 . S
C1257 H1261 0.950 . S
H1258 C1254 0.950 . S
C1259 C1257 1.390 . S
C1259 C1260 1.387 . S
C1259 H1262 0.950 . S
C1260 C1259 1.387 . S
C1260 C1263 1.387 . S
H1261 C1257 0.950 . S
H1262 C1259 0.950 . S
C1263 C1254 1.390 . S
C1263 H1256 0.950 . S
C1263 C1260 1.387 . S
C1264 C1265 1.387 . S
C1264 H1268 0.950 1_545 S
C1264 C1273 1.390 . S
C1265 C1264 1.387 . S
C1265 C1267 1.387 . S
H1266 C1273 0.950 1_565 S
C1267 C1265 1.387 . S
C1267 C1269 1.390 . S
C1267 H1271 0.950 . S
H1268 C1264 0.950 1_565 S
C1269 C1267 1.390 . S
C1269 C1270 1.387 . S
C1269 H1272 0.950 . S
C1270 C1269 1.387 . S
C1270 C1273 1.387 . S
H1271 C1267 0.950 . S
H1272 C1269 0.950 . S
C1273 C1264 1.390 . S
C1273 H1266 0.950 1_545 S
C1273 C1270 1.387 . S
C1274 C1275 1.387 . S
C1274 H1278 0.950 . S
C1274 C1283 1.390 . S
C1275 C1274 1.387 . S
C1275 C1277 1.387 . S
H1276 C1283 0.950 . S
C1277 C1275 1.387 . S
C1277 C1279 1.390 . S
C1277 H1281 0.950 . S
H1278 C1274 0.950 . S
C1279 C1277 1.390 . S
C1279 C1280 1.387 . S
C1279 H1282 0.950 . S
C1280 C1279 1.387 . S
C1280 C1283 1.387 . S
H1281 C1277 0.950 . S
H1282 C1279 0.950 . S
C1283 C1274 1.390 . S
C1283 H1276 0.950 . S
C1283 C1280 1.387 . S
C1284 C1285 1.387 . S
C1284 H1288 0.950 . S
C1284 C1293 1.390 . S
C1285 C1284 1.387 . S
C1285 C1287 1.387 1_545 S
H1286 C1293 0.950 . S
C1287 C1285 1.387 1_565 S
C1287 C1289 1.390 . S
C1287 H1291 0.950 . S
H1288 C1284 0.950 . S
C1289 C1287 1.390 . S
C1289 C1290 1.387 1_565 S
C1289 H1292 0.950 . S
C1290 C1289 1.387 1_545 S
C1290 C1293 1.387 . S
H1291 C1287 0.950 . S
H1292 C1289 0.950 . S
C1293 C1284 1.390 . S
C1293 H1286 0.950 . S
C1293 C1290 1.387 . S
C1294 C1295 1.387 . S
C1294 H1298 0.950 . S
C1294 C1303 1.390 . S
C1295 C1294 1.387 . S
C1295 C1297 1.387 . S
H1296 C1303 0.950 . S
C1297 C1295 1.387 . S
C1297 C1299 1.390 . S
C1297 H1301 0.950 . S
H1298 C1294 0.950 . S
C1299 C1297 1.390 . S
C1299 C1300 1.387 . S
C1299 H1302 0.950 . S
C1300 C1299 1.387 . S
C1300 C1303 1.387 . S
H1301 C1297 0.950 . S
H1302 C1299 0.950 . S
C1303 C1294 1.390 . S
C1303 H1296 0.950 . S
C1303 C1300 1.387 . S
C1304 C1305 1.387 . S
C1304 H1308 0.950 . S
C1304 C1313 1.390 . S
C1305 C1304 1.387 . S
C1305 C1307 1.387 . S
H1306 C1313 0.950 . S
C1307 C1305 1.387 . S
C1307 C1309 1.390 . S
C1307 H1311 0.950 . S
H1308 C1304 0.950 . S
C1309 C1307 1.390 . S
C1309 C1310 1.387 . S
C1309 H1312 0.950 1_545 S
C1310 C1309 1.387 . S
C1310 C1313 1.387 . S
H1311 C1307 0.950 . S
H1312 C1309 0.950 1_565 S
C1313 C1304 1.390 . S
C1313 H1306 0.950 . S
C1313 C1310 1.387 . S
C1314 C1315 1.387 . S
C1314 H1318 0.950 . S
C1314 C1323 1.390 . S
C1315 C1314 1.387 . S
C1315 C1317 1.387 . S
H1316 C1323 0.950 . S
C1317 C1315 1.387 . S
C1317 C1319 1.390 . S
C1317 H1321 0.950 . S
H1318 C1314 0.950 . S
C1319 C1317 1.390 . S
C1319 C1320 1.387 . S
C1319 H1322 0.950 . S
C1320 C1319 1.387 . S
C1320 C1323 1.387 . S
H1321 C1317 0.950 . S
H1322 C1319 0.950 . S
C1323 C1314 1.390 . S
C1323 H1316 0.950 . S
C1323 C1320 1.387 . S
C1324 C1325 1.387 . S
C1324 H1328 0.950 . S
C1324 C1333 1.390 . S
C1325 C1324 1.387 . S
C1325 C1327 1.387 . S
H1326 C1333 0.950 . S
C1327 C1325 1.387 . S
C1327 C1329 1.390 . S
C1327 H1331 0.950 1_545 S
H1328 C1324 0.950 . S
C1329 C1327 1.390 . S
C1329 C1330 1.387 . S
C1329 H1332 0.950 . S
C1330 C1329 1.387 . S
C1330 C1333 1.387 . S
H1331 C1327 0.950 1_565 S
H1332 C1329 0.950 . S
C1333 C1324 1.390 . S
C1333 H1326 0.950 . S
C1333 C1330 1.387 . S
C1334 C1335 1.387 . S
C1334 H1338 0.950 . S
C1334 C1343 1.390 . S
C1335 C1334 1.387 . S
C1335 C1337 1.387 . S
H1336 C1343 0.950 . S
C1337 C1335 1.387 . S
C1337 C1339 1.390 . S
C1337 H1341 0.950 . S
H1338 C1334 0.950 . S
C1339 C1337 1.390 . S
C1339 C1340 1.387 . S
C1339 H1342 0.950 . S
C1340 C1339 1.387 . S
C1340 C1343 1.387 . S
H1341 C1337 0.950 . S
H1342 C1339 0.950 . S
C1343 C1334 1.390 . S
C1343 H1336 0.950 . S
C1343 C1340 1.387 . S
C1344 C1345 1.387 1_556 S
C1344 H1348 0.950 . S
C1344 C1353 1.390 1_556 S
C1345 C1344 1.387 1_554 S
C1345 C1347 1.387 . S
H1346 C1353 0.950 1_556 S
C1347 C1345 1.387 . S
C1347 C1349 1.390 . S
C1347 H1351 0.950 . S
H1348 C1344 0.950 . S
C1349 C1347 1.390 . S
C1349 C1350 1.387 . S
C1349 H1352 0.950 . S
C1350 C1349 1.387 . S
C1350 C1353 1.387 . S
H1351 C1347 0.950 . S
H1352 C1349 0.950 . S
C1353 C1344 1.390 1_554 S
C1353 H1346 0.950 1_554 S
C1353 C1350 1.387 . S
C1354 C1355 1.387 . S
C1354 H1358 0.950 . S
C1354 C1363 1.390 . S
C1355 C1354 1.387 . S
C1355 C1357 1.387 1_554 S
H1356 C1363 0.950 . S
C1357 C1355 1.387 1_556 S
C1357 C1359 1.390 . S
C1357 H1361 0.950 . S
H1358 C1354 0.950 . S
C1359 C1357 1.390 . S
C1359 C1360 1.387 1_556 S
C1359 H1362 0.950 . S
C1360 C1359 1.387 1_554 S
C1360 C1363 1.387 . S
H1361 C1357 0.950 . S
H1362 C1359 0.950 . S
C1363 C1354 1.390 . S
C1363 H1356 0.950 . S
C1363 C1360 1.387 . S
C1364 C1365 1.387 . S
C1364 H1368 0.950 . S
C1364 C1373 1.390 . S
C1365 C1364 1.387 . S
C1365 C1367 1.387 . S
H1366 C1373 0.950 . S
C1367 C1365 1.387 . S
C1367 C1369 1.390 . S
C1367 H1371 0.950 . S
H1368 C1364 0.950 . S
C1369 C1367 1.390 . S
C1369 C1370 1.387 . S
C1369 H1372 0.950 . S
C1370 C1369 1.387 . S
C1370 C1373 1.387 . S
H1371 C1367 0.950 . S
H1372 C1369 0.950 . S
C1373 C1364 1.390 . S
C1373 H1366 0.950 . S
C1373 C1370 1.387 . S
C1374 C1375 1.387 . S
C1374 H1378 0.950 . S
C1374 C1383 1.390 . S
C1375 C1374 1.387 . S
C1375 C1377 1.387 . S
H1376 C1383 0.950 . S
C1377 C1375 1.387 . S
C1377 C1379 1.390 . S
C1377 H1381 0.950 . S
H1378 C1374 0.950 . S
C1379 C1377 1.390 . S
C1379 C1380 1.387 . S
C1379 H1382 0.950 . S
C1380 C1379 1.387 . S
C1380 C1383 1.387 . S
H1381 C1377 0.950 . S
H1382 C1379 0.950 . S
C1383 C1374 1.390 . S
C1383 H1376 0.950 . S
C1383 C1380 1.387 . S
C1384 C1385 1.387 . S
C1384 H1388 0.950 . S
C1384 C1393 1.390 . S
C1385 C1384 1.387 . S
C1385 C1387 1.387 . S
H1386 C1393 0.950 . S
C1387 C1385 1.387 . S
C1387 C1389 1.390 . S
C1387 H1391 0.950 . S
H1388 C1384 0.950 . S
C1389 C1387 1.390 . S
C1389 C1390 1.387 . S
C1389 H1392 0.950 . S
C1390 C1389 1.387 . S
C1390 C1393 1.387 . S
H1391 C1387 0.950 . S
H1392 C1389 0.950 . S
C1393 C1384 1.390 . S
C1393 H1386 0.950 . S
C1393 C1390 1.387 . S
C1394 C1395 1.387 . S
C1394 H1398 0.950 . S
C1394 C1403 1.390 . S
C1395 C1394 1.387 . S
C1395 C1397 1.387 . S
H1396 C1403 0.950 . S
C1397 C1395 1.387 . S
C1397 C1399 1.390 . S
C1397 H1401 0.950 . S
H1398 C1394 0.950 . S
C1399 C1397 1.390 . S
C1399 C1400 1.387 . S
C1399 H1402 0.950 . S
C1400 C1399 1.387 . S
C1400 C1403 1.387 . S
H1401 C1397 0.950 . S
H1402 C1399 0.950 . S
C1403 C1394 1.390 . S
C1403 H1396 0.950 . S
C1403 C1400 1.387 . S
C1404 C1405 1.387 . S
C1404 H1408 0.950 . S
C1404 C1413 1.390 . S
C1405 C1404 1.387 . S
C1405 C1407 1.387 . S
H1406 C1413 0.950 . S
C1407 C1405 1.387 . S
C1407 C1409 1.390 . S
C1407 H1411 0.950 . S
H1408 C1404 0.950 . S
C1409 C1407 1.390 . S
C1409 C1410 1.387 . S
C1409 H1412 0.950 . S
C1410 C1409 1.387 . S
C1410 C1413 1.387 . S
H1411 C1407 0.950 . S
H1412 C1409 0.950 . S
C1413 C1404 1.390 . S
C1413 H1406 0.950 . S
C1413 C1410 1.387 . S
C1414 C1415 1.387 . S
C1414 H1418 0.950 . S
C1414 C1423 1.390 . S
C1415 C1414 1.387 . S
C1415 C1417 1.387 . S
H1416 C1423 0.950 . S
C1417 C1415 1.387 . S
C1417 C1419 1.390 . S
C1417 H1421 0.950 . S
H1418 C1414 0.950 . S
C1419 C1417 1.390 . S
C1419 C1420 1.387 . S
C1419 H1422 0.950 . S
C1420 C1419 1.387 . S
C1420 C1423 1.387 . S
H1421 C1417 0.950 . S
H1422 C1419 0.950 . S
C1423 C1414 1.390 . S
C1423 H1416 0.950 . S
C1423 C1420 1.387 . S
C1424 C1425 1.387 . S
C1424 H1428 0.950 . S
C1424 C1433 1.390 . S
C1425 C1424 1.387 . S
C1425 C1427 1.387 . S
H1426 C1433 0.950 . S
C1427 C1425 1.387 . S
C1427 C1429 1.390 . S
C1427 H1431 0.949 1_455 S
H1428 C1424 0.950 . S
C1429 C1427 1.390 . S
C1429 C1430 1.387 . S
C1429 H1432 0.950 1_455 S
C1430 C1429 1.387 . S
C1430 C1433 1.387 . S
H1431 C1427 0.949 1_655 S
H1432 C1429 0.950 1_655 S
C1433 C1424 1.390 . S
C1433 H1426 0.950 . S
C1433 C1430 1.387 . S
C1434 C1435 1.387 . S
C1434 H1438 0.950 . S
C1434 C1443 1.390 . S
C1435 C1434 1.387 . S
C1435 C1437 1.387 . S
H1436 C1443 0.950 . S
C1437 C1435 1.387 . S
C1437 C1439 1.390 . S
C1437 H1441 0.950 . S
H1438 C1434 0.950 . S
C1439 C1437 1.390 . S
C1439 C1440 1.387 . S
C1439 H1442 0.950 . S
C1440 C1439 1.387 . S
C1440 C1443 1.387 . S
H1441 C1437 0.950 . S
H1442 C1439 0.950 . S
C1443 C1434 1.390 . S
C1443 H1436 0.950 . S
C1443 C1440 1.387 . S
C1444 C1445 1.387 . S
C1444 H1448 0.950 . S
C1444 C1453 1.390 . S
C1445 C1444 1.387 . S
C1445 C1447 1.387 . S
H1446 C1453 0.950 . S
C1447 C1445 1.387 . S
C1447 C1449 1.390 . S
C1447 H1451 0.950 . S
H1448 C1444 0.950 . S
C1449 C1447 1.390 . S
C1449 C1450 1.387 . S
C1449 H1452 0.950 . S
C1450 C1449 1.387 . S
C1450 C1453 1.387 . S
H1451 C1447 0.950 . S
H1452 C1449 0.950 . S
C1453 C1444 1.390 . S
C1453 H1446 0.950 . S
C1453 C1450 1.387 . S
C1454 C1455 1.387 . S
C1454 H1458 0.950 . S
C1454 C1463 1.390 . S
C1455 C1454 1.387 . S
C1455 C1457 1.387 . S
H1456 C1463 0.950 . S
C1457 C1455 1.387 . S
C1457 C1459 1.390 . S
C1457 H1461 0.950 . S
H1458 C1454 0.950 . S
C1459 C1457 1.390 . S
C1459 C1460 1.387 . S
C1459 H1462 0.950 . S
C1460 C1459 1.387 . S
C1460 C1463 1.387 . S
H1461 C1457 0.950 . S
H1462 C1459 0.950 . S
C1463 C1454 1.390 . S
C1463 H1456 0.950 . S
C1463 C1460 1.387 . S
C1464 C1465 1.387 . S
C1464 H1468 0.950 . S
C1464 C1473 1.390 . S
C1465 C1464 1.387 . S
C1465 C1467 1.387 1_455 S
H1466 C1473 0.950 . S
C1467 C1465 1.387 1_655 S
C1467 C1469 1.390 . S
C1467 H1471 0.950 . S
H1468 C1464 0.950 . S
C1469 C1467 1.390 . S
C1469 C1470 1.387 1_655 S
C1469 H1472 0.950 . S
C1470 C1469 1.387 1_455 S
C1470 C1473 1.387 . S
H1471 C1467 0.950 . S
H1472 C1469 0.950 . S
C1473 C1464 1.390 . S
C1473 H1466 0.950 . S
C1473 C1470 1.387 . S
C1474 C1475 1.387 . S
C1474 H1478 0.950 . S
C1474 C1483 1.390 . S
C1475 C1474 1.387 . S
C1475 C1477 1.387 . S
H1476 C1483 0.950 . S
C1477 C1475 1.387 . S
C1477 C1479 1.390 . S
C1477 H1481 0.950 . S
H1478 C1474 0.950 . S
C1479 C1477 1.390 . S
C1479 C1480 1.387 . S
C1479 H1482 0.950 . S
C1480 C1479 1.387 . S
C1480 C1483 1.387 . S
H1481 C1477 0.950 . S
H1482 C1479 0.950 . S
C1483 C1474 1.390 . S
C1483 H1476 0.950 . S
C1483 C1480 1.387 . S
C1484 C1485 1.387 . S
C1484 H1488 0.950 . S
C1484 C1493 1.390 . S
C1485 C1484 1.387 . S
C1485 C1487 1.387 . S
H1486 C1493 0.950 . S
C1487 C1485 1.387 . S
C1487 C1489 1.390 . S
C1487 H1491 0.950 . S
H1488 C1484 0.950 . S
C1489 C1487 1.390 . S
C1489 C1490 1.387 . S
C1489 H1492 0.950 . S
C1490 C1489 1.387 . S
C1490 C1493 1.387 . S
H1491 C1487 0.950 . S
H1492 C1489 0.950 . S
C1493 C1484 1.390 . S
C1493 H1486 0.950 . S
C1493 C1490 1.387 . S
C1494 C1495 1.387 . S
C1494 H1498 0.950 . S
C1494 C1503 1.390 . S
C1495 C1494 1.387 . S
C1495 C1497 1.387 . S
H1496 C1503 0.950 . S
C1497 C1495 1.387 . S
C1497 C1499 1.390 . S
C1497 H1501 0.950 . S
H1498 C1494 0.950 . S
C1499 C1497 1.390 . S
C1499 C1500 1.387 . S
C1499 H1502 0.950 . S
C1500 C1499 1.387 . S
C1500 C1503 1.387 . S
H1501 C1497 0.950 . S
H1502 C1499 0.950 . S
C1503 C1494 1.390 . S
C1503 H1496 0.950 . S
C1503 C1500 1.387 . S
C1504 C1505 1.387 . S
C1504 H1508 0.950 . S
C1504 C1513 1.390 . S
C1505 C1504 1.387 . S
C1505 C1507 1.387 1_565 S
H1506 C1513 0.950 . S
C1507 C1505 1.387 1_545 S
C1507 C1509 1.390 . S
C1507 H1511 0.950 . S
H1508 C1504 0.950 . S
C1509 C1507 1.390 . S
C1509 C1510 1.387 1_545 S
C1509 H1512 0.950 . S
C1510 C1509 1.387 1_565 S
C1510 C1513 1.387 . S
H1511 C1507 0.950 . S
H1512 C1509 0.950 . S
C1513 C1504 1.390 . S
C1513 H1506 0.950 . S
C1513 C1510 1.387 . S
C1514 C1515 1.387 . S
C1514 H1518 0.950 . S
C1514 C1523 1.390 . S
C1515 C1514 1.387 . S
C1515 C1517 1.387 . S
H1516 C1523 0.950 . S
C1517 C1515 1.387 . S
C1517 C1519 1.390 . S
C1517 H1521 0.950 . S
H1518 C1514 0.950 . S
C1519 C1517 1.390 . S
C1519 C1520 1.387 . S
C1519 H1522 0.950 . S
C1520 C1519 1.387 . S
C1520 C1523 1.387 . S
H1521 C1517 0.950 . S
H1522 C1519 0.950 . S
C1523 C1514 1.390 . S
C1523 H1516 0.950 . S
C1523 C1520 1.387 . S
C1524 C1525 1.387 . S
C1524 H1528 0.950 1_545 S
C1524 C1533 1.390 . S
C1525 C1524 1.387 . S
C1525 C1527 1.387 . S
H1526 C1533 0.950 1_565 S
C1527 C1525 1.387 . S
C1527 C1529 1.390 . S
C1527 H1531 0.950 . S
H1528 C1524 0.950 1_565 S
C1529 C1527 1.390 . S
C1529 C1530 1.387 . S
C1529 H1532 0.950 . S
C1530 C1529 1.387 . S
C1530 C1533 1.387 . S
H1531 C1527 0.950 . S
H1532 C1529 0.950 . S
C1533 C1524 1.390 . S
C1533 H1526 0.950 1_545 S
C1533 C1530 1.387 . S
C1534 C1535 1.387 . S
C1534 H1538 0.950 . S
C1534 C1543 1.390 . S
C1535 C1534 1.387 . S
C1535 C1537 1.387 . S
H1536 C1543 0.950 . S
C1537 C1535 1.387 . S
C1537 C1539 1.390 . S
C1537 H1541 0.950 . S
H1538 C1534 0.950 . S
C1539 C1537 1.390 . S
C1539 C1540 1.387 . S
C1539 H1542 0.950 . S
C1540 C1539 1.387 . S
C1540 C1543 1.387 . S
H1541 C1537 0.950 . S
H1542 C1539 0.950 . S
C1543 C1534 1.390 . S
C1543 H1536 0.950 . S
C1543 C1540 1.387 . S
C1544 C1545 1.387 1_545 S
C1544 H1548 0.950 . S
C1544 C1553 1.390 . S
C1545 C1544 1.387 1_565 S
C1545 C1547 1.387 . S
H1546 C1553 0.950 . S
C1547 C1545 1.387 . S
C1547 C1549 1.390 . S
C1547 H1551 0.950 . S
H1548 C1544 0.950 . S
C1549 C1547 1.390 . S
C1549 C1550 1.387 1_565 S
C1549 H1552 0.950 . S
C1550 C1549 1.387 1_545 S
C1550 C1553 1.387 . S
H1551 C1547 0.950 . S
H1552 C1549 0.950 . S
C1553 C1544 1.390 . S
C1553 H1546 0.950 . S
C1553 C1550 1.387 . S
C1554 C1555 1.387 . S
C1554 H1558 0.950 . S
C1554 C1563 1.390 . S
C1555 C1554 1.387 . S
C1555 C1557 1.387 . S
H1556 C1563 0.950 . S
C1557 C1555 1.387 . S
C1557 C1559 1.390 . S
C1557 H1561 0.950 . S
H1558 C1554 0.950 . S
C1559 C1557 1.390 . S
C1559 C1560 1.387 . S
C1559 H1562 0.950 . S
C1560 C1559 1.387 . S
C1560 C1563 1.387 . S
H1561 C1557 0.950 . S
H1562 C1559 0.950 . S
C1563 C1554 1.390 . S
C1563 H1556 0.950 . S
C1563 C1560 1.387 . S
C1564 C1565 1.387 . S
C1564 H1568 0.950 . S
C1564 C1573 1.390 . S
C1565 C1564 1.387 . S
C1565 C1567 1.387 1_545 S
H1566 C1573 0.950 . S
C1567 C1565 1.387 1_565 S
C1567 C1569 1.390 . S
C1567 H1571 0.950 . S
H1568 C1564 0.950 . S
C1569 C1567 1.390 . S
C1569 C1570 1.387 . S
C1569 H1572 0.950 . S
C1570 C1569 1.387 . S
C1570 C1573 1.387 1_565 S
H1571 C1567 0.950 . S
H1572 C1569 0.950 . S
C1573 C1564 1.390 . S
C1573 H1566 0.950 . S
C1573 C1570 1.387 1_545 S
C1574 C1575 1.387 . S
C1574 H1578 0.950 . S
C1574 C1583 1.390 . S
C1575 C1574 1.387 . S
C1575 C1577 1.387 . S
H1576 C1583 0.950 . S
C1577 C1575 1.387 . S
C1577 C1579 1.390 . S
C1577 H1581 0.950 . S
H1578 C1574 0.950 . S
C1579 C1577 1.390 . S
C1579 C1580 1.387 . S
C1579 H1582 0.950 . S
C1580 C1579 1.387 . S
C1580 C1583 1.387 . S
H1581 C1577 0.950 . S
H1582 C1579 0.950 . S
C1583 C1574 1.390 . S
C1583 H1576 0.950 . S
C1583 C1580 1.387 . S
C1584 C1585 1.387 . S
C1584 H1588 0.950 . S
C1584 C1593 1.390 . S
C1585 C1584 1.387 . S
C1585 C1587 1.387 1_556 S
H1586 C1593 0.950 . S
C1587 C1585 1.387 1_554 S
C1587 C1589 1.390 1_554 S
C1587 H1591 0.950 . S
H1588 C1584 0.950 . S
C1589 C1587 1.390 1_556 S
C1589 C1590 1.387 . S
C1589 H1592 0.950 1_556 S
C1590 C1589 1.387 . S
C1590 C1593 1.387 . S
H1591 C1587 0.950 . S
H1592 C1589 0.950 1_554 S
C1593 C1584 1.390 . S
C1593 H1586 0.950 . S
C1593 C1590 1.387 . S
C1594 C1595 1.387 1_556 S
C1594 H1598 0.950 . S
C1594 C1603 1.390 . S
C1595 C1594 1.387 1_554 S
C1595 C1597 1.387 . S
H1596 C1603 0.950 . S
C1597 C1595 1.387 . S
C1597 C1599 1.390 . S
C1597 H1601 0.950 . S
H1598 C1594 0.950 . S
C1599 C1597 1.390 . S
C1599 C1600 1.387 . S
C1599 H1602 0.950 . S
C1600 C1599 1.387 . S
C1600 C1603 1.387 1_554 S
H1601 C1597 0.950 . S
H1602 C1599 0.950 . S
C1603 C1594 1.390 . S
C1603 H1596 0.950 . S
C1603 C1600 1.387 1_556 S
C1604 C1605 1.387 . S
C1604 H1608 0.950 . S
C1604 C1613 1.390 . S
C1605 C1604 1.387 . S
C1605 C1607 1.387 . S
H1606 C1613 0.950 . S
C1607 C1605 1.387 . S
C1607 C1609 1.390 . S
C1607 H1611 0.950 . S
H1608 C1604 0.950 . S
C1609 C1607 1.390 . S
C1609 C1610 1.387 . S
C1609 H1612 0.950 . S
C1610 C1609 1.387 . S
C1610 C1613 1.387 . S
H1611 C1607 0.950 . S
H1612 C1609 0.950 . S
C1613 C1604 1.390 . S
C1613 H1606 0.950 . S
C1613 C1610 1.387 . S
C1614 C1615 1.387 . S
C1614 H1618 0.950 . S
C1614 C1623 1.390 . S
C1615 C1614 1.387 . S
C1615 C1617 1.387 . S
H1616 C1623 0.950 . S
C1617 C1615 1.387 . S
C1617 C1619 1.390 . S
C1617 H1621 0.950 . S
H1618 C1614 0.950 . S
C1619 C1617 1.390 . S
C1619 C1620 1.387 . S
C1619 H1622 0.950 . S
C1620 C1619 1.387 . S
C1620 C1623 1.387 . S
H1621 C1617 0.950 . S
H1622 C1619 0.950 . S
C1623 C1614 1.390 . S
C1623 H1616 0.950 . S
C1623 C1620 1.387 . S
C1624 C1625 1.387 . S
C1624 H1628 0.950 . S
C1624 C1633 1.390 . S
C1625 C1624 1.387 . S
C1625 C1627 1.387 . S
H1626 C1633 0.950 . S
C1627 C1625 1.387 . S
C1627 C1629 1.390 . S
C1627 H1631 0.950 . S
H1628 C1624 0.950 . S
C1629 C1627 1.390 . S
C1629 C1630 1.387 . S
C1629 H1632 0.950 . S
C1630 C1629 1.387 . S
C1630 C1633 1.387 . S
H1631 C1627 0.950 . S
H1632 C1629 0.950 . S
C1633 C1624 1.390 . S
C1633 H1626 0.950 . S
C1633 C1630 1.387 . S
C1634 C1635 1.387 . S
C1634 H1638 0.950 . S
C1634 C1643 1.390 . S
C1635 C1634 1.387 . S
C1635 C1637 1.387 . S
H1636 C1643 0.950 . S
C1637 C1635 1.387 . S
C1637 C1639 1.390 . S
C1637 H1641 0.950 . S
H1638 C1634 0.950 . S
C1639 C1637 1.390 . S
C1639 C1640 1.387 . S
C1639 H1642 0.950 . S
C1640 C1639 1.387 . S
C1640 C1643 1.387 . S
H1641 C1637 0.950 . S
H1642 C1639 0.950 . S
C1643 C1634 1.390 . S
C1643 H1636 0.950 . S
C1643 C1640 1.387 . S
C1644 C1645 1.387 . S
C1644 H1648 0.950 . S
C1644 C1653 1.390 . S
C1645 C1644 1.387 . S
C1645 C1647 1.387 . S
H1646 C1653 0.950 . S
C1647 C1645 1.387 . S
C1647 C1649 1.390 . S
C1647 H1651 0.950 . S
H1648 C1644 0.950 . S
C1649 C1647 1.390 . S
C1649 C1650 1.387 . S
C1649 H1652 0.950 . S
C1650 C1649 1.387 . S
C1650 C1653 1.387 . S
H1651 C1647 0.950 . S
H1652 C1649 0.950 . S
C1653 C1644 1.390 . S
C1653 H1646 0.950 . S
C1653 C1650 1.387 . S
C1654 C1655 1.387 . S
C1654 H1658 0.950 . S
C1654 C1663 1.390 . S
C1655 C1654 1.387 . S
C1655 C1657 1.387 . S
H1656 C1663 0.950 . S
C1657 C1655 1.387 . S
C1657 C1659 1.390 . S
C1657 H1661 0.950 . S
H1658 C1654 0.950 . S
C1659 C1657 1.390 . S
C1659 C1660 1.387 . S
C1659 H1662 0.950 . S
C1660 C1659 1.387 . S
C1660 C1663 1.387 . S
H1661 C1657 0.950 . S
H1662 C1659 0.950 . S
C1663 C1654 1.390 . S
C1663 H1656 0.950 . S
C1663 C1660 1.387 . S
C1664 C1665 1.387 . S
C1664 H1668 0.950 . S
C1664 C1673 1.390 . S
C1665 C1664 1.387 . S
C1665 C1667 1.387 . S
H1666 C1673 0.950 . S
C1667 C1665 1.387 . S
C1667 C1669 1.390 . S
C1667 H1671 0.950 . S
H1668 C1664 0.950 . S
C1669 C1667 1.390 . S
C1669 C1670 1.387 . S
C1669 H1672 0.950 . S
C1670 C1669 1.387 . S
C1670 C1673 1.387 . S
H1671 C1667 0.950 . S
H1672 C1669 0.950 . S
C1673 C1664 1.390 . S
C1673 H1666 0.950 . S
C1673 C1670 1.387 . S
C1674 C1675 1.387 . S
C1674 H1678 0.950 . S
C1674 C1683 1.390 . S
C1675 C1674 1.387 . S
C1675 C1677 1.387 . S
H1676 C1683 0.950 . S
C1677 C1675 1.387 . S
C1677 C1679 1.390 . S
C1677 H1681 0.950 . S
H1678 C1674 0.950 . S
C1679 C1677 1.390 . S
C1679 C1680 1.387 . S
C1679 H1682 0.950 . S
C1680 C1679 1.387 . S
C1680 C1683 1.387 . S
H1681 C1677 0.950 . S
H1682 C1679 0.950 . S
C1683 C1674 1.390 . S
C1683 H1676 0.950 . S
C1683 C1680 1.387 . S
C1684 C1685 1.387 1_655 S
C1684 H1688 0.950 . S
C1684 C1693 1.390 . S
C1685 C1684 1.387 1_455 S
C1685 C1687 1.387 . S
H1686 C1693 0.950 . S
C1687 C1685 1.387 . S
C1687 C1689 1.390 . S
C1687 H1691 0.950 . S
H1688 C1684 0.950 . S
C1689 C1687 1.390 . S
C1689 C1690 1.387 . S
C1689 H1692 0.950 . S
C1690 C1689 1.387 . S
C1690 C1693 1.387 1_455 S
H1691 C1687 0.950 . S
H1692 C1689 0.950 . S
C1693 C1684 1.390 . S
C1693 H1686 0.950 . S
C1693 C1690 1.387 1_655 S
C1694 C1695 1.387 . S
C1694 H1698 0.950 . S
C1694 C1703 1.390 . S
C1695 C1694 1.387 . S
C1695 C1697 1.387 . S
H1696 C1703 0.950 . S
C1697 C1695 1.387 . S
C1697 C1699 1.390 . S
C1697 H1701 0.950 . S
H1698 C1694 0.950 . S
C1699 C1697 1.390 . S
C1699 C1700 1.387 . S
C1699 H1702 0.950 . S
C1700 C1699 1.387 . S
C1700 C1703 1.387 . S
H1701 C1697 0.950 . S
H1702 C1699 0.950 . S
C1703 C1694 1.390 . S
C1703 H1696 0.950 . S
C1703 C1700 1.387 . S
C1704 C1705 1.387 . S
C1704 H1708 0.950 . S
C1704 C1713 1.390 . S
C1705 C1704 1.387 . S
C1705 C1707 1.387 . S
H1706 C1713 0.950 . S
C1707 C1705 1.387 . S
C1707 C1709 1.390 . S
C1707 H1711 0.950 . S
H1708 C1704 0.950 . S
C1709 C1707 1.390 . S
C1709 C1710 1.387 . S
C1709 H1712 0.950 . S
C1710 C1709 1.387 . S
C1710 C1713 1.387 . S
H1711 C1707 0.950 . S
H1712 C1709 0.950 . S
C1713 C1704 1.390 . S
C1713 H1706 0.950 . S
C1713 C1710 1.387 . S
C1714 C1715 1.387 . S
C1714 H1718 0.950 . S
C1714 C1723 1.390 . S
C1715 C1714 1.387 . S
C1715 C1717 1.387 . S
H1716 C1723 0.950 . S
C1717 C1715 1.387 . S
C1717 C1719 1.390 . S
C1717 H1721 0.950 . S
H1718 C1714 0.950 . S
C1719 C1717 1.390 . S
C1719 C1720 1.387 . S
C1719 H1722 0.950 . S
C1720 C1719 1.387 . S
C1720 C1723 1.387 . S
H1721 C1717 0.950 . S
H1722 C1719 0.950 . S
C1723 C1714 1.390 . S
C1723 H1716 0.950 . S
C1723 C1720 1.387 . S
C1724 C1725 1.387 . S
C1724 H1728 0.950 . S
C1724 C1733 1.390 . S
C1725 C1724 1.387 . S
C1725 C1727 1.387 1_455 S
H1726 C1733 0.950 . S
C1727 C1725 1.387 1_655 S
C1727 C1729 1.390 . S
C1727 H1731 0.950 . S
H1728 C1724 0.950 . S
C1729 C1727 1.390 . S
C1729 C1730 1.387 1_655 S
C1729 H1732 0.950 . S
C1730 C1729 1.387 1_455 S
C1730 C1733 1.387 . S
H1731 C1727 0.950 . S
H1732 C1729 0.950 . S
C1733 C1724 1.390 . S
C1733 H1726 0.950 . S
C1733 C1730 1.387 . S
C1734 C1735 1.387 . S
C1734 H1738 0.950 . S
C1734 C1743 1.390 . S
C1735 C1734 1.387 . S
C1735 C1737 1.387 . S
H1736 C1743 0.950 . S
C1737 C1735 1.387 . S
C1737 C1739 1.390 . S
C1737 H1741 0.950 . S
H1738 C1734 0.950 . S
C1739 C1737 1.390 . S
C1739 C1740 1.387 . S
C1739 H1742 0.950 . S
C1740 C1739 1.387 . S
C1740 C1743 1.387 . S
H1741 C1737 0.950 . S
H1742 C1739 0.950 . S
C1743 C1734 1.390 . S
C1743 H1736 0.950 . S
C1743 C1740 1.387 . S
C1744 C1745 1.387 . S
C1744 H1748 0.950 . S
C1744 C1753 1.390 . S
C1745 C1744 1.387 . S
C1745 C1747 1.387 . S
H1746 C1753 0.950 . S
C1747 C1745 1.387 . S
C1747 C1749 1.390 . S
C1747 H1751 0.950 . S
H1748 C1744 0.950 . S
C1749 C1747 1.390 . S
C1749 C1750 1.387 . S
C1749 H1752 0.950 . S
C1750 C1749 1.387 . S
C1750 C1753 1.387 . S
H1751 C1747 0.950 . S
H1752 C1749 0.950 . S
C1753 C1744 1.390 . S
C1753 H1746 0.950 . S
C1753 C1750 1.387 . S
C1754 C1755 1.387 . S
C1754 H1758 0.950 . S
C1754 C1763 1.390 . S
C1755 C1754 1.387 . S
C1755 C1757 1.387 . S
H1756 C1763 0.950 . S
C1757 C1755 1.387 . S
C1757 C1759 1.390 . S
C1757 H1761 0.950 . S
H1758 C1754 0.950 . S
C1759 C1757 1.390 . S
C1759 C1760 1.387 . S
C1759 H1762 0.950 . S
C1760 C1759 1.387 . S
C1760 C1763 1.387 . S
H1761 C1757 0.950 . S
H1762 C1759 0.950 . S
C1763 C1754 1.390 . S
C1763 H1756 0.950 . S
C1763 C1760 1.387 . S
C1764 C1765 1.387 . S
C1764 H1768 0.950 . S
C1764 C1773 1.390 . S
C1765 C1764 1.387 . S
C1765 C1767 1.387 . S
H1766 C1773 0.950 . S
C1767 C1765 1.387 . S
C1767 C1769 1.390 . S
C1767 H1771 0.950 . S
H1768 C1764 0.950 . S
C1769 C1767 1.390 . S
C1769 C1770 1.387 . S
C1769 H1772 0.950 . S
C1770 C1769 1.387 . S
C1770 C1773 1.387 . S
H1771 C1767 0.950 . S
H1772 C1769 0.950 . S
C1773 C1764 1.390 . S
C1773 H1766 0.950 . S
C1773 C1770 1.387 . S
C1774 C1775 1.387 . S
C1774 H1778 0.950 . S
C1774 C1783 1.390 . S
C1775 C1774 1.387 . S
C1775 C1777 1.387 . S
H1776 C1783 0.950 . S
C1777 C1775 1.387 . S
C1777 C1779 1.390 . S
C1777 H1781 0.950 . S
H1778 C1774 0.950 . S
C1779 C1777 1.390 . S
C1779 C1780 1.387 . S
C1779 H1782 0.950 . S
C1780 C1779 1.387 . S
C1780 C1783 1.387 . S
H1781 C1777 0.950 . S
H1782 C1779 0.950 . S
C1783 C1774 1.390 . S
C1783 H1776 0.950 . S
C1783 C1780 1.387 . S
C1784 C1785 1.387 . S
C1784 H1788 0.950 . S
C1784 C1793 1.390 . S
C1785 C1784 1.387 . S
C1785 C1787 1.387 . S
H1786 C1793 0.950 . S
C1787 C1785 1.387 . S
C1787 C1789 1.390 . S
C1787 H1791 0.950 . S
H1788 C1784 0.950 . S
C1789 C1787 1.390 . S
C1789 C1790 1.387 . S
C1789 H1792 0.950 . S
C1790 C1789 1.387 . S
C1790 C1793 1.387 . S
H1791 C1787 0.950 . S
H1792 C1789 0.950 . S
C1793 C1784 1.390 . S
C1793 H1786 0.950 . S
C1793 C1790 1.387 . S
C1794 C1795 1.387 . S
C1794 H1798 0.950 . S
C1794 C1803 1.390 . S
C1795 C1794 1.387 . S
C1795 C1797 1.387 . S
H1796 C1803 0.950 . S
C1797 C1795 1.387 . S
C1797 C1799 1.390 . S
C1797 H1801 0.950 . S
H1798 C1794 0.950 . S
C1799 C1797 1.390 . S
C1799 C1800 1.387 . S
C1799 H1802 0.950 . S
C1800 C1799 1.387 . S
C1800 C1803 1.387 . S
H1801 C1797 0.950 . S
H1802 C1799 0.950 . S
C1803 C1794 1.390 . S
C1803 H1796 0.950 . S
C1803 C1800 1.387 . S
C1804 C1805 1.387 . S
C1804 H1808 0.950 . S
C1804 C1813 1.390 . S
C1805 C1804 1.387 . S
C1805 C1807 1.387 . S
H1806 C1813 0.950 . S
C1807 C1805 1.387 . S
C1807 C1809 1.390 . S
C1807 H1811 0.950 . S
H1808 C1804 0.950 . S
C1809 C1807 1.390 . S
C1809 C1810 1.387 . S
C1809 H1812 0.950 . S
C1810 C1809 1.387 . S
C1810 C1813 1.387 . S
H1811 C1807 0.950 . S
H1812 C1809 0.950 . S
C1813 C1804 1.390 . S
C1813 H1806 0.950 . S
C1813 C1810 1.387 . S
C1814 C1815 1.387 . S
C1814 H1818 0.950 . S
C1814 C1823 1.390 . S
C1815 C1814 1.387 . S
C1815 C1817 1.387 . S
H1816 C1823 0.950 . S
C1817 C1815 1.387 . S
C1817 C1819 1.390 . S
C1817 H1821 0.950 . S
H1818 C1814 0.950 . S
C1819 C1817 1.390 . S
C1819 C1820 1.387 . S
C1819 H1822 0.950 . S
C1820 C1819 1.387 . S
C1820 C1823 1.387 . S
H1821 C1817 0.950 . S
H1822 C1819 0.950 . S
C1823 C1814 1.390 . S
C1823 H1816 0.950 . S
C1823 C1820 1.387 . S
C1824 C1825 1.387 . S
C1824 H1828 0.950 . S
C1824 C1833 1.390 . S
C1825 C1824 1.387 . S
C1825 C1827 1.387 . S
H1826 C1833 0.950 . S
C1827 C1825 1.387 . S
C1827 C1829 1.390 . S
C1827 H1831 0.950 . S
H1828 C1824 0.950 . S
C1829 C1827 1.390 . S
C1829 C1830 1.387 . S
C1829 H1832 0.950 . S
C1830 C1829 1.387 . S
C1830 C1833 1.387 . S
H1831 C1827 0.950 . S
H1832 C1829 0.950 . S
C1833 C1824 1.390 . S
C1833 H1826 0.950 . S
C1833 C1830 1.387 . S
C1834 C1835 1.387 . S
C1834 H1838 0.950 . S
C1834 C1843 1.390 . S
C1835 C1834 1.387 . S
C1835 C1837 1.387 . S
H1836 C1843 0.950 . S
C1837 C1835 1.387 . S
C1837 C1839 1.390 . S
C1837 H1841 0.950 . S
H1838 C1834 0.950 . S
C1839 C1837 1.390 . S
C1839 C1840 1.387 . S
C1839 H1842 0.950 . S
C1840 C1839 1.387 . S
C1840 C1843 1.387 . S
H1841 C1837 0.950 . S
H1842 C1839 0.950 . S
C1843 C1834 1.390 . S
C1843 H1836 0.950 . S
C1843 C1840 1.387 . S
C1844 C1845 1.387 . S
C1844 H1848 0.950 . S
C1844 C1853 1.390 . S
C1845 C1844 1.387 . S
C1845 C1847 1.387 . S
H1846 C1853 0.950 . S
C1847 C1845 1.387 . S
C1847 C1849 1.390 . S
C1847 H1851 0.950 . S
H1848 C1844 0.950 . S
C1849 C1847 1.390 . S
C1849 C1850 1.387 . S
C1849 H1852 0.950 . S
C1850 C1849 1.387 . S
C1850 C1853 1.387 . S
H1851 C1847 0.950 . S
H1852 C1849 0.950 . S
C1853 C1844 1.390 . S
C1853 H1846 0.950 . S
C1853 C1850 1.387 . S
C1854 C1855 1.387 1_556 S
C1854 H1858 0.950 . S
C1854 C1863 1.390 . S
C1855 C1854 1.387 1_554 S
C1855 C1857 1.387 . S
H1856 C1863 0.950 . S
C1857 C1855 1.387 . S
C1857 C1859 1.390 1_565 S
C1857 H1861 0.950 . S
H1858 C1854 0.950 . S
C1859 C1857 1.390 1_545 S
C1859 C1860 1.387 1_545 S
C1859 H1862 0.950 . S
C1860 C1859 1.387 1_565 S
C1860 C1863 1.387 1_554 S
H1861 C1857 0.950 . S
H1862 C1859 0.950 . S
C1863 C1854 1.390 . S
C1863 H1856 0.950 . S
C1863 C1860 1.387 1_556 S
C1864 C1865 1.387 . S
C1864 H1868 0.950 . S
C1864 C1873 1.390 . S
C1865 C1864 1.387 . S
C1865 C1867 1.387 . S
H1866 C1873 0.950 . S
C1867 C1865 1.387 . S
C1867 C1869 1.390 . S
C1867 H1871 0.950 . S
H1868 C1864 0.950 . S
C1869 C1867 1.390 . S
C1869 C1870 1.387 . S
C1869 H1872 0.950 . S
C1870 C1869 1.387 . S
C1870 C1873 1.387 . S
H1871 C1867 0.950 . S
H1872 C1869 0.950 . S
C1873 C1864 1.390 . S
C1873 H1866 0.950 . S
C1873 C1870 1.387 . S
C1874 C1875 1.387 1_556 S
C1874 H1878 0.950 . S
C1874 C1883 1.390 . S
C1875 C1874 1.387 1_554 S
C1875 C1877 1.387 . S
H1876 C1883 0.950 . S
C1877 C1875 1.387 . S
C1877 C1879 1.390 . S
C1877 H1881 0.950 . S
H1878 C1874 0.950 . S
C1879 C1877 1.390 . S
C1879 C1880 1.387 . S
C1879 H1882 0.950 . S
C1880 C1879 1.387 . S
C1880 C1883 1.387 1_554 S
H1881 C1877 0.950 . S
H1882 C1879 0.950 . S
C1883 C1874 1.390 . S
C1883 H1876 0.950 . S
C1883 C1880 1.387 1_556 S
C1884 C1885 1.387 . S
C1884 H1888 0.950 . S
C1884 C1893 1.390 . S
C1885 C1884 1.387 . S
C1885 C1887 1.387 . S
H1886 C1893 0.950 . S
C1887 C1885 1.387 . S
C1887 C1889 1.390 . S
C1887 H1891 0.950 . S
H1888 C1884 0.950 . S
C1889 C1887 1.390 . S
C1889 C1890 1.387 . S
C1889 H1892 0.950 . S
C1890 C1889 1.387 . S
C1890 C1893 1.387 . S
H1891 C1887 0.950 . S
H1892 C1889 0.950 . S
C1893 C1884 1.390 . S
C1893 H1886 0.950 . S
C1893 C1890 1.387 . S
C1894 C1895 1.387 . S
C1894 H1898 0.950 . S
C1894 C1903 1.390 . S
C1895 C1894 1.387 . S
C1895 C1897 1.387 . S
H1896 C1903 0.950 . S
C1897 C1895 1.387 . S
C1897 C1899 1.390 . S
C1897 H1901 0.950 . S
H1898 C1894 0.950 . S
C1899 C1897 1.390 . S
C1899 C1900 1.387 . S
C1899 H1902 0.950 . S
C1900 C1899 1.387 . S
C1900 C1903 1.387 . S
H1901 C1897 0.950 . S
H1902 C1899 0.950 . S
C1903 C1894 1.390 . S
C1903 H1896 0.950 . S
C1903 C1900 1.387 . S
C1904 C1905 1.387 . S
C1904 H1908 0.950 . S
C1904 C1913 1.390 . S
C1905 C1904 1.387 . S
C1905 C1907 1.387 . S
H1906 C1913 0.950 . S
C1907 C1905 1.387 . S
C1907 C1909 1.390 . S
C1907 H1911 0.950 . S
H1908 C1904 0.950 . S
C1909 C1907 1.390 . S
C1909 C1910 1.387 . S
C1909 H1912 0.950 . S
C1910 C1909 1.387 . S
C1910 C1913 1.387 . S
H1911 C1907 0.950 . S
H1912 C1909 0.950 . S
C1913 C1904 1.390 . S
C1913 H1906 0.950 . S
C1913 C1910 1.387 . S
C1914 C1915 1.387 . S
C1914 H1918 0.950 . S
C1914 C1923 1.390 . S
C1915 C1914 1.387 . S
C1915 C1917 1.387 . S
H1916 C1923 0.950 . S
C1917 C1915 1.387 . S
C1917 C1919 1.390 . S
C1917 H1921 0.950 . S
H1918 C1914 0.950 . S
C1919 C1917 1.390 . S
C1919 C1920 1.387 . S
C1919 H1922 0.950 . S
C1920 C1919 1.387 . S
C1920 C1923 1.387 . S
H1921 C1917 0.950 . S
H1922 C1919 0.950 . S
C1923 C1914 1.390 . S
C1923 H1916 0.950 . S
C1923 C1920 1.387 . S
C1924 C1925 1.387 . S
C1924 H1928 0.950 . S
C1924 C1933 1.390 . S
C1925 C1924 1.387 . S
C1925 C1927 1.387 . S
H1926 C1933 0.950 . S
C1927 C1925 1.387 . S
C1927 C1929 1.390 . S
C1927 H1931 0.950 1_455 S
H1928 C1924 0.950 . S
C1929 C1927 1.390 . S
C1929 C1930 1.387 . S
C1929 H1932 0.950 1_455 S
C1930 C1929 1.387 . S
C1930 C1933 1.387 . S
H1931 C1927 0.950 1_655 S
H1932 C1929 0.950 1_655 S
C1933 C1924 1.390 . S
C1933 H1926 0.950 . S
C1933 C1930 1.387 . S
C1934 C1935 1.387 . S
C1934 H1938 0.950 . S
C1934 C1943 1.390 . S
C1935 C1934 1.387 . S
C1935 C1937 1.387 . S
H1936 C1943 0.950 . S
C1937 C1935 1.387 . S
C1937 C1939 1.390 . S
C1937 H1941 0.950 . S
H1938 C1934 0.950 . S
C1939 C1937 1.390 . S
C1939 C1940 1.387 . S
C1939 H1942 0.950 . S
C1940 C1939 1.387 . S
C1940 C1943 1.387 . S
H1941 C1937 0.950 . S
H1942 C1939 0.950 . S
C1943 C1934 1.390 . S
C1943 H1936 0.950 . S
C1943 C1940 1.387 . S
C1944 C1945 1.387 . S
C1944 H1948 0.950 . S
C1944 C1953 1.390 . S
C1945 C1944 1.387 . S
C1945 C1947 1.387 . S
H1946 C1953 0.950 . S
C1947 C1945 1.387 . S
C1947 C1949 1.390 . S
C1947 H1951 0.950 . S
H1948 C1944 0.950 . S
C1949 C1947 1.390 . S
C1949 C1950 1.387 . S
C1949 H1952 0.950 . S
C1950 C1949 1.387 . S
C1950 C1953 1.387 . S
H1951 C1947 0.950 . S
H1952 C1949 0.950 . S
C1953 C1944 1.390 . S
C1953 H1946 0.950 . S
C1953 C1950 1.387 . S
C1954 C1955 1.387 . S
C1954 H1958 0.950 . S
C1954 C1963 1.390 . S
C1955 C1954 1.387 . S
C1955 C1957 1.387 . S
H1956 C1963 0.950 . S
C1957 C1955 1.387 . S
C1957 C1959 1.390 . S
C1957 H1961 0.950 . S
H1958 C1954 0.950 . S
C1959 C1957 1.390 . S
C1959 C1960 1.387 . S
C1959 H1962 0.950 . S
C1960 C1959 1.387 . S
C1960 C1963 1.387 . S
H1961 C1957 0.950 . S
H1962 C1959 0.950 . S
C1963 C1954 1.390 . S
C1963 H1956 0.950 . S
C1963 C1960 1.387 . S
C1964 C1965 1.387 . S
C1964 H1968 0.950 . S
C1964 C1973 1.390 . S
C1965 C1964 1.387 . S
C1965 C1967 1.387 . S
H1966 C1973 0.950 . S
C1967 C1965 1.387 . S
C1967 C1969 1.390 . S
C1967 H1971 0.950 1_455 S
H1968 C1964 0.950 . S
C1969 C1967 1.390 . S
C1969 C1970 1.387 . S
C1969 H1972 0.950 1_455 S
C1970 C1969 1.387 . S
C1970 C1973 1.387 . S
H1971 C1967 0.950 1_655 S
H1972 C1969 0.950 1_655 S
C1973 C1964 1.390 . S
C1973 H1966 0.950 . S
C1973 C1970 1.387 . S
C1974 C1975 1.387 . S
C1974 H1978 0.950 . S
C1974 C1983 1.390 . S
C1975 C1974 1.387 . S
C1975 C1977 1.387 . S
H1976 C1983 0.950 . S
C1977 C1975 1.387 . S
C1977 C1979 1.390 . S
C1977 H1981 0.950 . S
H1978 C1974 0.950 . S
C1979 C1977 1.390 . S
C1979 C1980 1.387 . S
C1979 H1982 0.950 . S
C1980 C1979 1.387 . S
C1980 C1983 1.387 . S
H1981 C1977 0.950 . S
H1982 C1979 0.950 . S
C1983 C1974 1.390 . S
C1983 H1976 0.950 . S
C1983 C1980 1.387 . S
C1984 C1985 1.387 . S
C1984 H1988 0.950 . S
C1984 C1993 1.390 . S
C1985 C1984 1.387 . S
C1985 C1987 1.387 . S
H1986 C1993 0.950 . S
C1987 C1985 1.387 . S
C1987 C1989 1.390 . S
C1987 H1991 0.950 . S
H1988 C1984 0.950 . S
C1989 C1987 1.390 . S
C1989 C1990 1.387 . S
C1989 H1992 0.950 . S
C1990 C1989 1.387 . S
C1990 C1993 1.387 . S
H1991 C1987 0.950 . S
H1992 C1989 0.950 . S
C1993 C1984 1.390 . S
C1993 H1986 0.950 . S
C1993 C1990 1.387 . S
C1994 C1995 1.387 . S
C1994 H1998 0.950 . S
C1994 C2003 1.390 . S
C1995 C1994 1.387 . S
C1995 C1997 1.387 . S
H1996 C2003 0.950 . S
C1997 C1995 1.387 . S
C1997 C1999 1.390 . S
C1997 H2001 0.950 . S
H1998 C1994 0.950 . S
C1999 C1997 1.390 . S
C1999 C2000 1.387 . S
C1999 H2002 0.950 . S
C2000 C1999 1.387 . S
C2000 C2003 1.387 . S
H2001 C1997 0.950 . S
H2002 C1999 0.950 . S
C2003 C1994 1.390 . S
C2003 H1996 0.950 . S
C2003 C2000 1.387 . S
C2004 C2005 1.387 . S
C2004 H2008 0.950 . S
C2004 C2013 1.390 . S
C2005 C2004 1.387 . S
C2005 C2007 1.387 . S
H2006 C2013 0.950 . S
C2007 C2005 1.387 . S
C2007 C2009 1.390 . S
C2007 H2011 0.950 . S
H2008 C2004 0.950 . S
C2009 C2007 1.390 . S
C2009 C2010 1.387 . S
C2009 H2012 0.950 . S
C2010 C2009 1.387 . S
C2010 C2013 1.387 . S
H2011 C2007 0.950 . S
H2012 C2009 0.950 . S
C2013 C2004 1.390 . S
C2013 H2006 0.950 . S
C2013 C2010 1.387 . S
C2014 C2015 1.387 . S
C2014 H2018 0.950 . S
C2014 C2023 1.390 . S
C2015 C2014 1.387 . S
C2015 C2017 1.387 . S
H2016 C2023 0.950 . S
C2017 C2015 1.387 . S
C2017 C2019 1.390 . S
C2017 H2021 0.950 . S
H2018 C2014 0.950 . S
C2019 C2017 1.390 . S
C2019 C2020 1.387 . S
C2019 H2022 0.950 . S
C2020 C2019 1.387 . S
C2020 C2023 1.387 . S
H2021 C2017 0.950 . S
H2022 C2019 0.950 . S
C2023 C2014 1.390 . S
C2023 H2016 0.950 . S
C2023 C2020 1.387 . S
C2024 C2025 1.387 . S
C2024 H2028 0.950 . S
C2024 C2033 1.390 . S
C2025 C2024 1.387 . S
C2025 C2027 1.387 . S
H2026 C2033 0.950 . S
C2027 C2025 1.387 . S
C2027 C2029 1.390 . S
C2027 H2031 0.950 . S
H2028 C2024 0.950 . S
C2029 C2027 1.390 . S
C2029 C2030 1.387 . S
C2029 H2032 0.950 . S
C2030 C2029 1.387 . S
C2030 C2033 1.387 . S
H2031 C2027 0.950 . S
H2032 C2029 0.950 . S
C2033 C2024 1.390 . S
C2033 H2026 0.950 . S
C2033 C2030 1.387 . S
C2034 C2035 1.387 . S
C2034 H2038 0.950 . S
C2034 C2043 1.390 . S
C2035 C2034 1.387 . S
C2035 C2037 1.387 . S
H2036 C2043 0.950 . S
C2037 C2035 1.387 . S
C2037 C2039 1.390 . S
C2037 H2041 0.950 . S
H2038 C2034 0.950 . S
C2039 C2037 1.390 . S
C2039 C2040 1.387 . S
C2039 H2042 0.950 . S
C2040 C2039 1.387 . S
C2040 C2043 1.387 . S
H2041 C2037 0.950 . S
H2042 C2039 0.950 . S
C2043 C2034 1.390 . S
C2043 H2036 0.950 . S
C2043 C2040 1.387 . S
C2044 C2045 1.387 . S
C2044 H2048 0.950 . S
C2044 C2053 1.390 . S
C2045 C2044 1.387 . S
C2045 C2047 1.387 . S
H2046 C2053 0.950 . S
C2047 C2045 1.387 . S
C2047 C2049 1.390 . S
C2047 H2051 0.950 . S
H2048 C2044 0.950 . S
C2049 C2047 1.390 . S
C2049 C2050 1.387 . S
C2049 H2052 0.950 . S
C2050 C2049 1.387 . S
C2050 C2053 1.387 . S
H2051 C2047 0.950 . S
H2052 C2049 0.950 . S
C2053 C2044 1.390 . S
C2053 H2046 0.950 . S
C2053 C2050 1.387 . S
C2054 C2055 1.387 . S
C2054 H2058 0.950 . S
C2054 C2063 1.390 . S
C2055 C2054 1.387 . S
C2055 C2057 1.387 . S
H2056 C2063 0.950 . S
C2057 C2055 1.387 . S
C2057 C2059 1.390 . S
C2057 H2061 0.950 . S
H2058 C2054 0.950 . S
C2059 C2057 1.390 . S
C2059 C2060 1.387 . S
C2059 H2062 0.950 . S
C2060 C2059 1.387 . S
C2060 C2063 1.387 . S
H2061 C2057 0.950 . S
H2062 C2059 0.950 . S
C2063 C2054 1.390 . S
C2063 H2056 0.950 . S
C2063 C2060 1.387 . S
C2064 C2065 1.387 . S
C2064 H2068 0.950 . S
C2064 C2073 1.390 . S
C2065 C2064 1.387 . S
C2065 C2067 1.387 . S
H2066 C2073 0.950 . S
C2067 C2065 1.387 . S
C2067 C2069 1.390 . S
C2067 H2071 0.950 . S
H2068 C2064 0.950 . S
C2069 C2067 1.390 . S
C2069 C2070 1.387 . S
C2069 H2072 0.950 . S
C2070 C2069 1.387 . S
C2070 C2073 1.387 . S
H2071 C2067 0.950 . S
H2072 C2069 0.950 . S
C2073 C2064 1.390 . S
C2073 H2066 0.950 . S
C2073 C2070 1.387 . S
C2074 C2075 1.387 . S
C2074 H2078 0.950 . S
C2074 C2083 1.390 . S
C2075 C2074 1.387 . S
C2075 C2077 1.387 . S
H2076 C2083 0.950 . S
C2077 C2075 1.387 . S
C2077 C2079 1.390 . S
C2077 H2081 0.950 . S
H2078 C2074 0.950 . S
C2079 C2077 1.390 . S
C2079 C2080 1.387 . S
C2079 H2082 0.950 . S
C2080 C2079 1.387 . S
C2080 C2083 1.387 . S
H2081 C2077 0.950 . S
H2082 C2079 0.950 . S
C2083 C2074 1.390 . S
C2083 H2076 0.950 . S
C2083 C2080 1.387 . S
C2084 C2085 1.387 . S
C2084 H2088 0.950 . S
C2084 C2093 1.390 . S
C2085 C2084 1.387 . S
C2085 C2087 1.387 . S
H2086 C2093 0.950 . S
C2087 C2085 1.387 . S
C2087 C2089 1.390 . S
C2087 H2091 0.950 . S
H2088 C2084 0.950 . S
C2089 C2087 1.390 . S
C2089 C2090 1.387 . S
C2089 H2092 0.950 . S
C2090 C2089 1.387 . S
C2090 C2093 1.387 . S
H2091 C2087 0.950 . S
H2092 C2089 0.950 . S
C2093 C2084 1.390 . S
C2093 H2086 0.950 . S
C2093 C2090 1.387 . S
C2094 C2095 1.387 1_556 S
C2094 H2098 0.950 . S
C2094 C2103 1.390 . S
C2095 C2094 1.387 1_554 S
C2095 C2097 1.387 . S
H2096 C2103 0.950 . S
C2097 C2095 1.387 . S
C2097 C2099 1.390 . S
C2097 H2101 0.950 . S
H2098 C2094 0.950 . S
C2099 C2097 1.390 . S
C2099 C2100 1.387 . S
C2099 H2102 0.950 . S
C2100 C2099 1.387 . S
C2100 C2103 1.387 1_554 S
H2101 C2097 0.950 . S
H2102 C2099 0.950 . S
C2103 C2094 1.390 . S
C2103 H2096 0.950 . S
C2103 C2100 1.387 1_556 S
C2104 C2105 1.387 . S
C2104 H2108 0.950 . S
C2104 C2113 1.390 . S
C2105 C2104 1.387 . S
C2105 C2107 1.387 . S
H2106 C2113 0.950 . S
C2107 C2105 1.387 . S
C2107 C2109 1.390 . S
C2107 H2111 0.950 . S
H2108 C2104 0.950 . S
C2109 C2107 1.390 . S
C2109 C2110 1.387 . S
C2109 H2112 0.950 . S
C2110 C2109 1.387 . S
C2110 C2113 1.387 . S
H2111 C2107 0.950 . S
H2112 C2109 0.950 . S
C2113 C2104 1.390 . S
C2113 H2106 0.950 . S
C2113 C2110 1.387 . S
C2114 C2115 1.387 1_556 S
C2114 H2118 0.950 . S
C2114 C2123 1.390 . S
C2115 C2114 1.387 1_554 S
C2115 C2117 1.387 . S
H2116 C2123 0.950 . S
C2117 C2115 1.387 . S
C2117 C2119 1.390 . S
C2117 H2121 0.950 . S
H2118 C2114 0.950 . S
C2119 C2117 1.390 . S
C2119 C2120 1.387 1_554 S
C2119 H2122 0.950 . S
C2120 C2119 1.387 1_556 S
C2120 C2123 1.387 . S
H2121 C2117 0.950 . S
H2122 C2119 0.950 . S
C2123 C2114 1.390 . S
C2123 H2116 0.950 . S
C2123 C2120 1.387 . S
C2124 C2125 1.387 . S
C2124 H2128 0.950 . S
C2124 C2133 1.390 . S
C2125 C2124 1.387 . S
C2125 C2127 1.387 . S
H2126 C2133 0.950 . S
C2127 C2125 1.387 . S
C2127 C2129 1.390 . S
C2127 H2131 0.950 . S
H2128 C2124 0.950 . S
C2129 C2127 1.390 . S
C2129 C2130 1.387 . S
C2129 H2132 0.950 . S
C2130 C2129 1.387 . S
C2130 C2133 1.387 . S
H2131 C2127 0.950 . S
H2132 C2129 0.950 . S
C2133 C2124 1.390 . S
C2133 H2126 0.950 . S
C2133 C2130 1.387 . S
C2134 C2135 1.387 . S
C2134 H2138 0.950 . S
C2134 C2143 1.390 . S
C2135 C2134 1.387 . S
C2135 C2137 1.387 . S
H2136 C2143 0.950 . S
C2137 C2135 1.387 . S
C2137 C2139 1.390 . S
C2137 H2141 0.950 . S
H2138 C2134 0.950 . S
C2139 C2137 1.390 . S
C2139 C2140 1.387 . S
C2139 H2142 0.950 . S
C2140 C2139 1.387 . S
C2140 C2143 1.387 . S
H2141 C2137 0.950 . S
H2142 C2139 0.950 . S
C2143 C2134 1.390 . S
C2143 H2136 0.950 . S
C2143 C2140 1.387 . S
C1185 C255 1.610 . S
C1190 C882 1.572 . S
C1195 C147 1.629 . S
C1200 C893 1.651 . S
C1205 C184 1.181 . S
C1210 C922 1.136 . S
C1220 C925 1.434 . S
C1215 C220 1.444 . S
C1225 C40 1.612 . S
C1230 C963 1.529 . S
C1240 C966 1.233 . S
C1235 C74 1.227 . S
C1250 C993 1.565 . S
C1245 C110 1.562 . S
C1255 C14 1.625 . S
C1260 C1022 1.583 . S
C1270 C873 1.643 1_655 S
C1265 C579 1.630 . S
C1275 C616 1.099 . S
C1280 C885 1.079 . S
C1290 C913 1.569 . S
C1285 C687 1.571 . S
C1300 C942 1.326 . S
C1295 C436 1.316 . S
C1305 C580 1.198 . S
C1310 C946 1.219 . S
C1320 C972 1.593 . S
C1315 C615 1.611 . S
C1330 C985 0.968 . S
C1325 C688 0.981 . S
C1340 C1013 1.663 . S
C1335 C435 1.677 . S
C1350 C865 1.531 . S
C1345 C410 1.564 . S
C1355 C722 1.783 . S
C1360 C1032 1.748 1_554 S
C1370 C1063 1.642 . S
C1365 C842 1.718 . S
C1380 C1082 1.094 . S
C1375 C794 1.104 . S
C1385 C302 1.498 . S
C1390 C1005 1.473 . S
C1395 C338 1.563 . S
C1400 C905 1.551 . S
C1405 C830 1.650 . S
C1410 C1093 1.648 . S
C1420 C1122 1.074 . S
C1415 C758 1.111 . S
C1430 C883 1.560 . S
C1425 C158 1.504 . S
C1440 C1112 1.684 . S
C1435 C254 1.679 . S
C1445 C218 1.195 . S
C1450 C923 1.136 . S
C1455 C194 1.363 . S
C1460 C1086 1.427 . S
C1470 C962 1.519 . S
C1465 C3 1.592 . S
C1475 C111 1.152 . S
C1480 C1045 1.161 . S
C1490 C992 1.521 . S
C1485 C76 1.512 . S
C1500 C1143 1.647 . S
C1495 C50 1.656 . S
C1510 C872 1.628 . S
C1505 C364 1.626 1_565 S
C1520 C1106 1.106 . S
C1515 C795 1.138 . S
C1525 C292 1.542 . S
C1530 C912 1.537 . S
C1535 C723 1.281 . S
C1540 C1103 1.266 . S
C1545 C363 1.208 . S
C1550 C945 1.226 . S
C1560 C1053 1.593 . S
C1555 C796 1.617 . S
C1565 C291 0.956 . S
C1570 C986 0.938 1_565 S
C1575 C724 1.673 . S
C1580 C1132 1.662 . S
C1585 C482 1.473 . S
C1590 C866 1.544 . S
C1595 C434 1.762 . S
C1600 C1033 1.731 . S
C1605 C662 1.587 . S
C1610 C982 1.615 . S
C1615 C614 1.097 . S
C1620 C1083 1.082 . S
C1630 C1126 1.455 . S
C1625 C698 1.353 . S
C1635 C554 1.471 . S
C1640 C906 1.583 . S
C1650 C932 1.615 . S
C1645 C650 1.610 . S
C1660 C903 1.065 . S
C1655 C506 1.138 . S
C1665 C183 1.609 . S
C1670 C1162 1.574 . S
C1680 C1113 1.650 . S
C1675 C219 1.626 . S
C1685 C256 1.180 . S
C1690 C1182 1.135 . S
C1695 C148 1.443 . S
C1700 C1085 1.432 . S
C1705 C122 1.623 . S
C1710 C1043 1.577 . S
C1720 C1046 1.192 . S
C1715 C2 1.190 . S
C1730 C1073 1.479 . S
C1725 C39 1.464 1_455 S
C1740 C1142 1.644 . S
C1735 C86 1.683 . S
C1750 C1153 1.659 . S
C1745 C651 1.646 . S
C1755 C472 1.103 . S
C1760 C1105 1.083 . S
C1770 C1173 1.558 . S
C1765 C507 1.564 . S
C1780 C1102 1.326 . S
C1775 C544 1.318 . S
C1790 C1026 1.233 . S
C1785 C652 1.209 . S
C1795 C471 1.597 . S
C1800 C1052 1.583 . S
C1810 C1065 0.947 . S
C1805 C508 0.959 . S
C1815 C543 1.690 . S
C1820 C1133 1.678 . S
C1830 C1145 1.548 . S
C1825 C806 1.583 . S
C1835 C326 1.762 . S
C1840 C952 1.727 . S
C1850 C983 1.613 . S
C1845 C374 1.694 . S
C1860 C1002 1.108 1_565 S
C1855 C398 1.127 . S
C1870 C1125 1.455 . S
C1865 C770 1.479 . S
C1875 C734 1.554 1_554 S
C1880 C1165 1.542 . S
C1890 C933 1.637 . S
C1885 C362 1.635 . S
C1900 C902 1.088 . S
C1895 C290 1.131 . S
C1905 C230 1.508 . S
C1910 C1163 1.559 . S
C1920 C892 1.689 . S
C1915 C182 1.683 . S
C1925 C146 1.190 . S
C1930 C1183 1.132 . S
C1935 C266 1.363 . S
C1940 C926 1.427 . S
C1945 C75 1.645 . S
C1950 C1042 1.571 . S
C1960 C965 1.231 . S
C1955 C38 1.228 . S
C1965 C4 1.459 . S
C1970 C1072 1.470 . S
C1975 C112 1.700 . S
C1980 C1023 1.586 . S
C1990 C1152 1.631 . S
C1985 C832 1.630 . S
C1995 C399 1.149 . S
C2000 C886 1.116 . S
C2010 C1172 1.533 1_655 S
C2005 C760 1.538 . S
C2015 C327 1.281 . S
C2020 C943 1.268 . S
C2025 C831 1.216 . S
C2030 C1025 1.235 . S
C2040 C973 1.598 . S
C2035 C400 1.620 . S
C2045 C759 0.976 . S
C2050 C1066 0.954 . S
C2060 C1012 1.666 . S
C2055 C328 1.675 . S
C2070 C1146 1.557 . S
C2065 C626 1.485 . S
C2080 C953 1.735 1_565 S
C2075 C542 1.768 . S
C2085 C590 1.566 . S
C2090 C1062 1.592 . S
C2100 C1003 1.090 . S
C2095 C470 1.100 . S
C2105 C518 1.339 . S
C2110 C1006 1.433 . S
C2115 C446 1.459 . S
C2120 C1166 1.571 . S
C2130 C1092 1.622 . S
C2125 C578 1.617 . S
C2140 C1123 1.046 . S
C2135 C686 1.116 . S
