# Generated by pormake.
# Topology ocu, (6,8)-cn, num edge types: 1
# Building blocks:
#     Node 0, Type 0, BuildingBlock: KUMJIN_clean_sbu_1, # of connection points: 6
#     Node 1, Type 0, BuildingBlock: KUMJIN_clean_sbu_1, # of connection points: 6
#     Node 2, Type 0, BuildingBlock: KUMJIN_clean_sbu_1, # of connection points: 6
#     Node 3, Type 0, BuildingBlock: KUMJIN_clean_sbu_1, # of connection points: 6
#     Node 4, Type 0, BuildingBlock: KUMJIN_clean_sbu_1, # of connection points: 6
#     Node 5, Type 0, BuildingBlock: KUMJIN_clean_sbu_1, # of connection points: 6
#     Node 6, Type 0, BuildingBlock: KUMJIN_clean_sbu_1, # of connection points: 6
#     Node 7, Type 0, BuildingBlock: KUMJIN_clean_sbu_1, # of connection points: 6
#     Node 8, Type 1, BuildingBlock: VETTIZ_charged_sbu_0, # of connection points: 8
#     Node 9, Type 1, BuildingBlock: VETTIZ_charged_sbu_0, # of connection points: 8
#     Node 10, Type 1, BuildingBlock: VETTIZ_charged_sbu_0, # of connection points: 8
#     Node 11, Type 1, BuildingBlock: VETTIZ_charged_sbu_0, # of connection points: 8
#     Node 12, Type 1, BuildingBlock: VETTIZ_charged_sbu_0, # of connection points: 8
#     Node 13, Type 1, BuildingBlock: VETTIZ_charged_sbu_0, # of connection points: 8
#     Edge 14, Type (0, 1), BuildingBlock: XUDNAN_clean_linker_2, # of connection points: 2
#     Edge 15, Type (0, 1), BuildingBlock: XUDNAN_clean_linker_2, # of connection points: 2
#     Edge 16, Type (0, 1), BuildingBlock: XUDNAN_clean_linker_2, # of connection points: 2
#     Edge 17, Type (0, 1), BuildingBlock: XUDNAN_clean_linker_2, # of connection points: 2
#     Edge 18, Type (0, 1), BuildingBlock: XUDNAN_clean_linker_2, # of connection points: 2
#     Edge 19, Type (0, 1), BuildingBlock: XUDNAN_clean_linker_2, # of connection points: 2
#     Edge 20, Type (0, 1), BuildingBlock: XUDNAN_clean_linker_2, # of connection points: 2
#     Edge 21, Type (0, 1), BuildingBlock: XUDNAN_clean_linker_2, # of connection points: 2
#     Edge 22, Type (0, 1), BuildingBlock: XUDNAN_clean_linker_2, # of connection points: 2
#     Edge 23, Type (0, 1), BuildingBlock: XUDNAN_clean_linker_2, # of connection points: 2
#     Edge 24, Type (0, 1), BuildingBlock: XUDNAN_clean_linker_2, # of connection points: 2
#     Edge 25, Type (0, 1), BuildingBlock: XUDNAN_clean_linker_2, # of connection points: 2
#     Edge 26, Type (0, 1), BuildingBlock: XUDNAN_clean_linker_2, # of connection points: 2
#     Edge 27, Type (0, 1), BuildingBlock: XUDNAN_clean_linker_2, # of connection points: 2
#     Edge 28, Type (0, 1), BuildingBlock: XUDNAN_clean_linker_2, # of connection points: 2
#     Edge 29, Type (0, 1), BuildingBlock: XUDNAN_clean_linker_2, # of connection points: 2
#     Edge 30, Type (0, 1), BuildingBlock: XUDNAN_clean_linker_2, # of connection points: 2
#     Edge 31, Type (0, 1), BuildingBlock: XUDNAN_clean_linker_2, # of connection points: 2
#     Edge 32, Type (0, 1), BuildingBlock: XUDNAN_clean_linker_2, # of connection points: 2
#     Edge 33, Type (0, 1), BuildingBlock: XUDNAN_clean_linker_2, # of connection points: 2
#     Edge 34, Type (0, 1), BuildingBlock: XUDNAN_clean_linker_2, # of connection points: 2
#     Edge 35, Type (0, 1), BuildingBlock: XUDNAN_clean_linker_2, # of connection points: 2
#     Edge 36, Type (0, 1), BuildingBlock: XUDNAN_clean_linker_2, # of connection points: 2
#     Edge 37, Type (0, 1), BuildingBlock: XUDNAN_clean_linker_2, # of connection points: 2
#     Edge 38, Type (0, 1), BuildingBlock: XUDNAN_clean_linker_2, # of connection points: 2
#     Edge 39, Type (0, 1), BuildingBlock: XUDNAN_clean_linker_2, # of connection points: 2
#     Edge 40, Type (0, 1), BuildingBlock: XUDNAN_clean_linker_2, # of connection points: 2
#     Edge 41, Type (0, 1), BuildingBlock: XUDNAN_clean_linker_2, # of connection points: 2
#     Edge 42, Type (0, 1), BuildingBlock: XUDNAN_clean_linker_2, # of connection points: 2
#     Edge 43, Type (0, 1), BuildingBlock: XUDNAN_clean_linker_2, # of connection points: 2
#     Edge 44, Type (0, 1), BuildingBlock: XUDNAN_clean_linker_2, # of connection points: 2
#     Edge 45, Type (0, 1), BuildingBlock: XUDNAN_clean_linker_2, # of connection points: 2
#     Edge 46, Type (0, 1), BuildingBlock: XUDNAN_clean_linker_2, # of connection points: 2
#     Edge 47, Type (0, 1), BuildingBlock: XUDNAN_clean_linker_2, # of connection points: 2
#     Edge 48, Type (0, 1), BuildingBlock: XUDNAN_clean_linker_2, # of connection points: 2
#     Edge 49, Type (0, 1), BuildingBlock: XUDNAN_clean_linker_2, # of connection points: 2
#     Edge 50, Type (0, 1), BuildingBlock: XUDNAN_clean_linker_2, # of connection points: 2
#     Edge 51, Type (0, 1), BuildingBlock: XUDNAN_clean_linker_2, # of connection points: 2
#     Edge 52, Type (0, 1), BuildingBlock: XUDNAN_clean_linker_2, # of connection points: 2
#     Edge 53, Type (0, 1), BuildingBlock: XUDNAN_clean_linker_2, # of connection points: 2
#     Edge 54, Type (0, 1), BuildingBlock: XUDNAN_clean_linker_2, # of connection points: 2
#     Edge 55, Type (0, 1), BuildingBlock: XUDNAN_clean_linker_2, # of connection points: 2
#     Edge 56, Type (0, 1), BuildingBlock: XUDNAN_clean_linker_2, # of connection points: 2
#     Edge 57, Type (0, 1), BuildingBlock: XUDNAN_clean_linker_2, # of connection points: 2
#     Edge 58, Type (0, 1), BuildingBlock: XUDNAN_clean_linker_2, # of connection points: 2
#     Edge 59, Type (0, 1), BuildingBlock: XUDNAN_clean_linker_2, # of connection points: 2
#     Edge 60, Type (0, 1), BuildingBlock: XUDNAN_clean_linker_2, # of connection points: 2
#     Edge 61, Type (0, 1), BuildingBlock: XUDNAN_clean_linker_2, # of connection points: 2
# Relax obj value: 0.071
# Max RMSD: 0.135
# Mean RMSD: 0.101
data_MOF--net-ocu--node1-KUMJIN_clean_sbu_1--node2-VETTIZ_charged_sbu_0--edge1-XUDNAN_clean_linker_2
_symmetry_space_group_name_H-M    P1
_symmetry_Int_Tables_number       1
_symmetry_cell_setting            triclinic
loop_
_symmetry_equiv_pos_as_xyz
'x, y, z'
_cell_length_a     39.066755
_cell_length_b     39.702531
_cell_length_c     41.51101
_cell_angle_alpha  100.3133
_cell_angle_beta   79.938631
_cell_angle_gamma 104.33175
loop_
_atom_site_label
_atom_site_type_symbol
_atom_site_fract_x
_atom_site_fract_y
_atom_site_fract_z
_atom_type_partial_charge
Eu0 Eu 0.23687 0.25722 0.24034 0.0
C1 C 0.33436 0.34414 0.35104 0.0
N2 N 0.3434 0.33046 0.3191 0.0
C3 C 0.39042 0.38142 0.31167 0.0
C4 C 0.35294 0.37749 0.36438 0.0
C5 C 0.37171 0.34802 0.29968 0.0
C6 C 0.38085 0.39635 0.34407 0.0
C7 C 0.29773 0.33748 0.40426 0.0
C8 C 0.30681 0.32446 0.37075 0.0
C9 C 0.31608 0.37078 0.41748 0.0
C10 C 0.34344 0.39079 0.39756 0.0
Eu11 Eu 0.30902 0.27437 0.30174 0.0
N12 N 0.28831 0.29298 0.357 0.0
C13 C 0.27029 0.31669 0.42341 0.0
C14 C 0.26268 0.27197 0.37578 0.0
C15 C 0.25293 0.28364 0.40917 0.0
H16 H 0.38048 0.33623 0.27509 0.0
H17 H 0.23233 0.267 0.42398 0.0
H18 H 0.17081 0.19065 0.26737 0.0
H19 H 0.3181 0.265 0.12002 0.0
H20 H 0.25033 0.24598 0.36524 0.0
H21 H 0.26263 0.3257 0.44928 0.0
H22 H 0.29457 0.28741 0.17717 0.0
H23 H 0.41252 0.39544 0.29605 0.0
H24 H 0.30932 0.38131 0.44311 0.0
H25 H 0.35739 0.41641 0.40818 0.0
H26 H 0.14574 0.12867 0.24794 0.0
H27 H 0.39563 0.42214 0.35336 0.0
H28 H 0.2958 0.20312 0.09677 0.0
N29 N 0.20891 0.19801 0.22427 0.0
C30 C 0.22052 0.18389 0.19307 0.0
C31 C 0.16698 0.14382 0.23239 0.0
C32 C 0.20619 0.14867 0.18069 0.0
C33 C 0.18174 0.17891 0.24356 0.0
C34 C 0.17944 0.12853 0.20096 0.0
N35 N 0.26087 0.23837 0.18606 0.0
C36 C 0.28538 0.26028 0.16725 0.0
C37 C 0.25923 0.19089 0.14088 0.0
C38 C 0.24678 0.20475 0.17327 0.0
C39 C 0.28555 0.21279 0.12178 0.0
C40 C 0.29839 0.24773 0.13491 0.0
H41 H 0.16783 0.10134 0.19237 0.0
H42 H 0.20814 0.10765 0.13867 0.0
H43 H 0.25442 0.14462 0.10384 0.0
O44 O 0.2251 0.29595 0.21489 0.0
O45 O 0.28115 0.22398 0.22697 0.0
O46 O 0.33075 0.25848 0.24859 0.0
O47 O 0.1832 0.25192 0.22903 0.0
O48 O 0.27687 0.30986 0.24326 0.0
O49 O 0.32832 0.29907 0.25506 0.0
O50 O 0.31834 0.22757 0.31663 0.0
O51 O 0.26811 0.30931 0.31689 0.0
O52 O 0.21806 0.28635 0.29031 0.0
O53 O 0.35853 0.27606 0.31977 0.0
O54 O 0.2659 0.2242 0.29636 0.0
O55 O 0.21503 0.23832 0.28979 0.0
C56 C 0.31622 0.23252 0.22724 0.0
C57 C 0.17576 0.27886 0.18476 0.0
C58 C 0.15147 0.30931 0.15101 0.0
C59 C 0.14212 0.27751 0.13002 0.0
C60 C 0.16631 0.24736 0.1635 0.0
C61 C 0.14944 0.24677 0.13632 0.0
C62 C 0.1682 0.30974 0.17848 0.0
C63 C 0.31163 0.31707 0.24213 0.0
C64 C 0.19168 0.28002 0.21463 0.0
C65 C 0.21877 0.1347 0.14851 0.0
C66 C 0.24511 0.15577 0.12864 0.0
C67 C 0.23544 0.30942 0.31227 0.0
C68 C 0.37858 0.22375 0.30604 0.0
C69 C 0.41385 0.18137 0.30703 0.0
C70 C 0.43165 0.18778 0.2755 0.0
C71 C 0.39709 0.23033 0.27485 0.0
C72 C 0.38713 0.19942 0.32218 0.0
C73 C 0.42335 0.21225 0.2596 0.0
C74 C 0.23159 0.22194 0.30457 0.0
C75 C 0.35091 0.2427 0.32202 0.0
H76 H 0.12869 0.27635 0.10898 0.0
H77 H 0.1716 0.22323 0.16808 0.0
H78 H 0.14181 0.22235 0.12018 0.0
H79 H 0.1754 0.3341 0.19493 0.0
H80 H 0.45268 0.17457 0.26356 0.0
H81 H 0.39153 0.24978 0.26255 0.0
H82 H 0.37312 0.19463 0.34647 0.0
H83 H 0.43765 0.21755 0.2356 0.0
Eu84 Eu 0.75096 0.29706 0.27782 0.0
C85 C 0.87643 0.24043 0.19676 0.0
N86 N 0.84408 0.2203 0.20681 0.0
C87 C 0.8441 0.18435 0.15399 0.0
C88 C 0.89367 0.2335 0.16432 0.0
C89 C 0.82785 0.19241 0.18627 0.0
C90 C 0.8771 0.20505 0.14291 0.0
C91 C 0.92514 0.29027 0.20865 0.0
C92 C 0.89178 0.26877 0.21871 0.0
C93 C 0.9421 0.28376 0.17617 0.0
C94 C 0.92646 0.25544 0.15411 0.0
Eu95 Eu 0.81952 0.23506 0.26164 0.0
N96 N 0.87452 0.27493 0.24993 0.0
C97 C 0.94094 0.31717 0.2318 0.0
C98 C 0.89165 0.29853 0.27332 0.0
C99 C 0.92449 0.32076 0.26449 0.0
H100 H 0.80262 0.17611 0.19496 0.0
H101 H 0.93753 0.33997 0.2831 0.0
H102 H 0.78406 0.37361 0.32393 0.0
H103 H 0.6231 0.20439 0.29708 0.0
H104 H 0.88127 0.29918 0.29903 0.0
H105 H 0.96656 0.33424 0.22506 0.0
H106 H 0.68198 0.22856 0.26715 0.0
H107 H 0.83119 0.16219 0.13771 0.0
H108 H 0.96758 0.30023 0.16797 0.0
H109 H 0.93996 0.25071 0.12917 0.0
H110 H 0.7683 0.40678 0.37841 0.0
H111 H 0.88952 0.19888 0.11779 0.0
H112 H 0.6027 0.23458 0.35195 0.0
N113 N 0.738 0.33193 0.32878 0.0
C114 C 0.70637 0.31978 0.34712 0.0
C115 C 0.75076 0.38225 0.37 0.0
C116 C 0.69589 0.3384 0.37804 0.0
C117 C 0.75982 0.36312 0.33932 0.0
C118 C 0.71875 0.36974 0.38955 0.0
N119 N 0.69527 0.27101 0.30525 0.0
C120 C 0.67352 0.24161 0.29122 0.0
C121 C 0.65062 0.27607 0.35267 0.0
C122 C 0.68407 0.28884 0.33474 0.0
C123 C 0.62863 0.24522 0.33896 0.0
C124 C 0.64008 0.22801 0.30804 0.0
H125 H 0.71171 0.38474 0.41323 0.0
H126 H 0.65445 0.33925 0.42018 0.0
H127 H 0.61476 0.28485 0.39787 0.0
O128 O 0.71977 0.29943 0.23986 0.0
O129 O 0.74139 0.25699 0.31487 0.0
O130 O 0.7658 0.21099 0.28648 0.0
O131 O 0.7369 0.34619 0.27358 0.0
O132 O 0.74323 0.25209 0.23443 0.0
O133 O 0.76664 0.20684 0.24382 0.0
O134 O 0.85267 0.22317 0.2934 0.0
O135 O 0.81467 0.26446 0.22139 0.0
O136 O 0.80628 0.31654 0.2505 0.0
O137 O 0.83342 0.18385 0.25331 0.0
O138 O 0.81479 0.27206 0.3102 0.0
O139 O 0.80486 0.3214 0.29582 0.0
C140 C 0.74569 0.22441 0.31164 0.0
C141 C 0.72982 0.35317 0.21976 0.0
C142 C 0.71189 0.38514 0.1826 0.0
C143 C 0.74618 0.38834 0.16423 0.0
C144 C 0.76355 0.35662 0.20093 0.0
C145 C 0.77162 0.37391 0.17325 0.0
C146 C 0.70396 0.36736 0.21052 0.0
C147 C 0.74515 0.21873 0.22948 0.0
C148 C 0.72082 0.33288 0.2477 0.0
C149 C 0.66288 0.32537 0.39631 0.0
C150 C 0.64025 0.2944 0.3836 0.0
C151 C 0.81955 0.29848 0.22368 0.0
C152 C 0.85699 0.16418 0.29452 0.0
C153 C 0.88283 0.14739 0.33691 0.0
C154 C 0.87575 0.1124 0.32145 0.0
C155 C 0.84998 0.12897 0.27945 0.0
C156 C 0.87354 0.17324 0.32338 0.0
C157 C 0.85939 0.10329 0.29288 0.0
C158 C 0.81717 0.30619 0.31557 0.0
C159 C 0.85291 0.19194 0.27716 0.0
H160 H 0.75355 0.40227 0.143 0.0
H161 H 0.78338 0.34552 0.20751 0.0
H162 H 0.79761 0.37592 0.15861 0.0
H163 H 0.67756 0.36387 0.22467 0.0
H164 H 0.88322 0.09219 0.33137 0.0
H165 H 0.8383 0.12142 0.25668 0.0
H166 H 0.8798 0.20034 0.33503 0.0
H167 H 0.85447 0.07635 0.28083 0.0
Eu168 Eu 0.77493 0.74361 0.28899 0.0
C169 C 0.87499 0.83445 0.18494 0.0
N170 N 0.86167 0.84523 0.21663 0.0
C171 C 0.91722 0.88549 0.22495 0.0
C172 C 0.91048 0.84879 0.17219 0.0
C173 C 0.88191 0.87061 0.23658 0.0
C174 C 0.93159 0.87453 0.19265 0.0
C175 C 0.86703 0.79602 0.13281 0.0
C176 C 0.85342 0.8082 0.16538 0.0
C177 C 0.90225 0.81061 0.12002 0.0
C178 C 0.92389 0.83686 0.13963 0.0
Eu179 Eu 0.80141 0.81975 0.23226 0.0
N180 N 0.81976 0.79346 0.17873 0.0
C181 C 0.84492 0.76921 0.11415 0.0
C182 C 0.79772 0.76818 0.16038 0.0
C183 C 0.81009 0.75537 0.12795 0.0
H184 H 0.8707 0.88013 0.26118 0.0
H185 H 0.79267 0.73503 0.11352 0.0
H186 H 0.71518 0.67443 0.25811 0.0
H187 H 0.7735 0.81642 0.4136 0.0
H188 H 0.77054 0.75815 0.17045 0.0
H189 H 0.85442 0.75916 0.08902 0.0
H190 H 0.79913 0.79972 0.35593 0.0
H191 H 0.93323 0.90564 0.2408 0.0
H192 H 0.91314 0.80158 0.09503 0.0
H193 H 0.95108 0.84765 0.12943 0.0
H194 H 0.65344 0.64235 0.27424 0.0
H195 H 0.95898 0.88617 0.18373 0.0
H196 H 0.71176 0.78745 0.43414 0.0
N197 N 0.71658 0.71082 0.30222 0.0
C198 C 0.70004 0.71966 0.33313 0.0
C199 C 0.66605 0.66434 0.29084 0.0
C200 C 0.66528 0.70132 0.34389 0.0
C201 C 0.7007 0.68295 0.28148 0.0
C202 C 0.6481 0.67378 0.32207 0.0
N203 N 0.75203 0.76331 0.34359 0.0
C204 C 0.77202 0.78766 0.36443 0.0
C205 C 0.7028 0.75456 0.38742 0.0
C206 C 0.71849 0.74613 0.35463 0.0
C207 C 0.72281 0.78035 0.40872 0.0
C208 C 0.75763 0.79684 0.3972 0.0
H209 H 0.62139 0.65906 0.3294 0.0
H210 H 0.62239 0.69673 0.38486 0.0
H211 H 0.65527 0.74324 0.42298 0.0
O212 O 0.81423 0.73214 0.31466 0.0
O213 O 0.74128 0.78682 0.30394 0.0
O214 O 0.77588 0.8371 0.28388 0.0
O215 O 0.77388 0.68978 0.29379 0.0
O216 O 0.82835 0.78155 0.28601 0.0
O217 O 0.82081 0.83561 0.28216 0.0
O218 O 0.76649 0.8356 0.20476 0.0
O219 O 0.83584 0.77877 0.22252 0.0
O220 O 0.7996 0.72668 0.23608 0.0
O221 O 0.81299 0.87308 0.22072 0.0
O222 O 0.74621 0.7839 0.2335 0.0
O223 O 0.75508 0.7307 0.23988 0.0
C224 C 0.74751 0.82096 0.30206 0.0
C225 C 0.79685 0.67993 0.33908 0.0
C226 C 0.8213 0.64495 0.36801 0.0
C227 C 0.7886 0.63879 0.38913 0.0
C228 C 0.76482 0.67408 0.36071 0.0
C229 C 0.76081 0.65361 0.38567 0.0
C230 C 0.82513 0.66583 0.34305 0.0
C231 C 0.83439 0.81528 0.29563 0.0
C232 C 0.80058 0.69841 0.31076 0.0
C233 C 0.64914 0.71043 0.37623 0.0
C234 C 0.66789 0.73688 0.39796 0.0
C235 C 0.82897 0.74425 0.22022 0.0
C236 C 0.76403 0.89562 0.21481 0.0
C237 C 0.71879 0.92177 0.20213 0.0
C238 C 0.72459 0.94794 0.2294 0.0
C239 C 0.77031 0.92258 0.24156 0.0
C240 C 0.73844 0.89559 0.1949 0.0
C241 C 0.75034 0.94832 0.24898 0.0
C242 C 0.73696 0.74953 0.22988 0.0
C243 C 0.7846 0.86808 0.20654 0.0
H244 H 0.78421 0.62217 0.40815 0.0
H245 H 0.74271 0.68461 0.35787 0.0
H246 H 0.73588 0.64874 0.40207 0.0
H247 H 0.85001 0.67113 0.32657 0.0
H248 H 0.70959 0.96834 0.23517 0.0
H249 H 0.79015 0.92342 0.25712 0.0
H250 H 0.734 0.87545 0.17369 0.0
H251 H 0.75493 0.96871 0.26989 0.0
Eu252 Eu 0.2565 0.78247 0.2787 0.0
C253 C 0.32639 0.68627 0.32642 0.0
N254 N 0.34163 0.71687 0.3141 0.0
C255 C 0.37504 0.73705 0.35991 0.0
C256 C 0.33377 0.68062 0.35686 0.0
C257 C 0.36741 0.74114 0.32937 0.0
C258 C 0.35751 0.70704 0.37414 0.0
C259 C 0.29187 0.62629 0.31783 0.0
C260 C 0.30527 0.65952 0.30745 0.0
C261 C 0.29825 0.62094 0.34858 0.0
C262 C 0.31872 0.6482 0.36827 0.0
Eu263 Eu 0.32531 0.72137 0.26274 0.0
N264 N 0.2988 0.66564 0.2782 0.0
C265 C 0.27315 0.59923 0.2966 0.0
C266 C 0.28059 0.63947 0.25734 0.0
C267 C 0.26724 0.60592 0.26634 0.0
H268 H 0.38306 0.76335 0.31786 0.0
H269 H 0.25272 0.58518 0.24985 0.0
H270 H 0.2246 0.77496 0.20832 0.0
H271 H 0.29063 0.90228 0.36663 0.0
H272 H 0.2765 0.64468 0.23378 0.0
H273 H 0.26337 0.57302 0.30322 0.0
H274 H 0.26932 0.83874 0.34973 0.0
H275 H 0.39515 0.75662 0.372 0.0
H276 H 0.28799 0.59564 0.35711 0.0
H277 H 0.32393 0.6435 0.39169 0.0
H278 H 0.22388 0.81202 0.16629 0.0
H279 H 0.3639 0.70372 0.39758 0.0
H280 H 0.30143 0.94351 0.32584 0.0
N281 N 0.25294 0.81702 0.23928 0.0
C282 C 0.26509 0.85218 0.24604 0.0
C283 C 0.23595 0.82363 0.18842 0.0
C284 C 0.26485 0.87455 0.22331 0.0
C285 C 0.23669 0.80266 0.21192 0.0
C286 C 0.25068 0.8597 0.19387 0.0
N287 N 0.27105 0.84347 0.29911 0.0
C288 C 0.27498 0.85629 0.33139 0.0
C289 C 0.28597 0.90249 0.28568 0.0
C290 C 0.275 0.86585 0.27687 0.0
C291 C 0.2928 0.91555 0.31809 0.0
C292 C 0.28667 0.89237 0.34119 0.0
H293 H 0.24998 0.87596 0.17574 0.0
H294 H 0.27804 0.92858 0.21395 0.0
H295 H 0.29702 0.95308 0.2685 0.0
O296 O 0.20833 0.79907 0.30393 0.0
O297 O 0.29557 0.78788 0.23098 0.0
O298 O 0.34423 0.77482 0.24554 0.0
O299 O 0.20471 0.74658 0.27701 0.0
O300 O 0.29549 0.7925 0.31682 0.0
O301 O 0.34586 0.77813 0.28588 0.0
O302 O 0.34368 0.68941 0.2181 0.0
O303 O 0.26845 0.70413 0.28895 0.0
O304 O 0.26403 0.75595 0.31982 0.0
O305 O 0.37972 0.71289 0.25379 0.0
O306 O 0.29404 0.71428 0.2196 0.0
O307 O 0.24208 0.73076 0.2449 0.0
C308 C 0.33008 0.78998 0.22716 0.0
C309 C 0.16747 0.75228 0.32761 0.0
C310 C 0.13773 0.76202 0.38378 0.0
C311 C 0.13037 0.72608 0.38562 0.0
C312 C 0.1599 0.71607 0.3294 0.0
C313 C 0.14143 0.70325 0.35833 0.0
C314 C 0.1558 0.77475 0.35464 0.0
C315 C 0.33043 0.79739 0.31061 0.0
C316 C 0.18837 0.76746 0.29849 0.0
C317 C 0.27747 0.91094 0.23126 0.0
C318 C 0.28827 0.92488 0.26233 0.0
C319 C 0.25683 0.72167 0.31681 0.0
C320 C 0.40136 0.71756 0.19743 0.0
C321 C 0.40988 0.73522 0.14239 0.0
C322 C 0.44056 0.76046 0.15062 0.0
C323 C 0.43257 0.74223 0.20467 0.0
C324 C 0.39099 0.71361 0.16605 0.0
C325 C 0.4521 0.76339 0.18125 0.0
C326 C 0.26023 0.71406 0.22034 0.0
C327 C 0.37684 0.69901 0.22324 0.0
H328 H 0.11569 0.71576 0.40772 0.0
H329 H 0.16839 0.69774 0.30872 0.0
H330 H 0.1355 0.67559 0.35959 0.0
H331 H 0.16018 0.80244 0.3527 0.0
H332 H 0.45597 0.77782 0.13337 0.0
H333 H 0.44125 0.74598 0.22871 0.0
H334 H 0.36817 0.69294 0.1601 0.0
H335 H 0.47583 0.7828 0.18716 0.0
Eu336 Eu 0.25296 0.80911 0.77199 0.0
C337 C 0.36273 0.72206 0.69486 0.0
N338 N 0.32964 0.70893 0.71016 0.0
C339 C 0.31924 0.66344 0.66423 0.0
C340 C 0.37514 0.70663 0.66308 0.0
C341 C 0.30806 0.67976 0.69568 0.0
C342 C 0.35285 0.67706 0.64774 0.0
C343 C 0.41861 0.76557 0.69579 0.0
C344 C 0.38415 0.75124 0.71101 0.0
C345 C 0.4309 0.75055 0.66394 0.0
C346 C 0.40924 0.72115 0.64764 0.0
Eu347 Eu 0.31205 0.73923 0.7622 0.0
N348 N 0.37118 0.7657 0.74154 0.0
C349 C 0.43977 0.7944 0.71317 0.0
C350 C 0.39258 0.79221 0.75938 0.0
C351 C 0.42687 0.80743 0.74531 0.0
H352 H 0.2824 0.66877 0.70857 0.0
H353 H 0.44349 0.82891 0.75942 0.0
H354 H 0.27899 0.86454 0.8388 0.0
H355 H 0.1199 0.73139 0.75087 0.0
H356 H 0.38382 0.80116 0.7847 0.0
H357 H 0.46639 0.80622 0.70232 0.0
H358 H 0.18264 0.75936 0.73505 0.0
H359 H 0.30197 0.64036 0.65276 0.0
H360 H 0.45723 0.76132 0.65178 0.0
H361 H 0.41918 0.70975 0.62314 0.0
H362 H 0.25452 0.88084 0.89691 0.0
H363 H 0.36141 0.66443 0.62332 0.0
H364 H 0.092 0.74168 0.80898 0.0
N365 N 0.23126 0.82835 0.82713 0.0
C366 C 0.19648 0.81432 0.83761 0.0
C367 C 0.23799 0.86197 0.88054 0.0
C368 C 0.18135 0.82306 0.87052 0.0
C369 C 0.25188 0.85246 0.84771 0.0
C370 C 0.20265 0.84704 0.89207 0.0
N371 N 0.19193 0.78181 0.78405 0.0
C372 C 0.17165 0.76241 0.76068 0.0
C373 C 0.14009 0.77572 0.82559 0.0
C374 C 0.17633 0.79037 0.81549 0.0
C375 C 0.11992 0.75345 0.80222 0.0
C376 C 0.13562 0.74733 0.76947 0.0
H377 H 0.192 0.85438 0.91757 0.0
H378 H 0.13358 0.81379 0.90614 0.0
H379 H 0.09737 0.77267 0.86674 0.0
O380 O 0.2316 0.82788 0.73496 0.0
O381 O 0.24707 0.77709 0.81409 0.0
O382 O 0.25522 0.72419 0.78629 0.0
O383 O 0.24836 0.86377 0.7789 0.0
O384 O 0.24644 0.76527 0.72729 0.0
O385 O 0.25766 0.71785 0.74512 0.0
O386 O 0.33801 0.72827 0.80078 0.0
O387 O 0.31938 0.77115 0.71939 0.0
O388 O 0.30938 0.82398 0.74622 0.0
O389 O 0.31372 0.68571 0.76584 0.0
O390 O 0.31816 0.78373 0.80622 0.0
O391 O 0.30782 0.83099 0.78744 0.0
C392 C 0.24076 0.74286 0.81167 0.0
C393 C 0.22527 0.88803 0.7397 0.0
C394 C 0.19485 0.9079 0.70272 0.0
C395 C 0.20595 0.94265 0.71801 0.0
C396 C 0.23595 0.92282 0.75477 0.0
C397 C 0.2264 0.94998 0.74383 0.0
C398 C 0.20494 0.8807 0.71349 0.0
C399 C 0.24258 0.73103 0.72571 0.0
C400 C 0.23526 0.85949 0.75135 0.0
C401 C 0.14563 0.80755 0.88089 0.0
C402 C 0.12503 0.78404 0.85847 0.0
C403 C 0.32326 0.80519 0.72044 0.0
C404 C 0.36199 0.67732 0.78824 0.0
C405 C 0.39708 0.65092 0.81548 0.0
C406 C 0.41471 0.63948 0.78454 0.0
C407 C 0.38027 0.66615 0.75747 0.0
C408 C 0.37077 0.66997 0.8173 0.0
C409 C 0.40645 0.64727 0.75571 0.0
C410 C 0.32229 0.81787 0.80724 0.0
C411 C 0.33234 0.69465 0.79034 0.0
H412 H 0.19901 0.96422 0.70983 0.0
H413 H 0.25178 0.92907 0.77491 0.0
H414 H 0.23483 0.97679 0.75542 0.0
H415 H 0.19627 0.85383 0.702 0.0
H416 H 0.43514 0.62484 0.78278 0.0
H417 H 0.37398 0.67155 0.73478 0.0
H418 H 0.35688 0.67859 0.84117 0.0
H419 H 0.42026 0.63851 0.73192 0.0
Eu420 Eu 0.28032 0.23758 0.80051 0.0
C421 C 0.3643 0.31576 0.69503 0.0
N422 N 0.34681 0.32902 0.72402 0.0
C423 C 0.40012 0.37225 0.73487 0.0
C424 C 0.4011 0.32902 0.68599 0.0
C425 C 0.3635 0.35886 0.74227 0.0
C426 C 0.41922 0.35669 0.70704 0.0
C427 C 0.36149 0.27952 0.64127 0.0
C428 C 0.34477 0.2913 0.67275 0.0
C429 C 0.39848 0.29108 0.63313 0.0
C430 C 0.41825 0.31569 0.65546 0.0
Eu431 Eu 0.28523 0.30217 0.73468 0.0
N432 N 0.30901 0.28027 0.68123 0.0
C433 C 0.3403 0.25747 0.61849 0.0
C434 C 0.2879 0.26082 0.65849 0.0
C435 C 0.30327 0.24864 0.62692 0.0
H436 H 0.3487 0.3729 0.76234 0.0
H437 H 0.28658 0.23244 0.60918 0.0
H438 H 0.19899 0.18645 0.79185 0.0
H439 H 0.33287 0.31331 0.91198 0.0
H440 H 0.25935 0.25411 0.66516 0.0
H441 H 0.35215 0.24801 0.594 0.0
H442 H 0.33594 0.28695 0.85343 0.0
H443 H 0.41339 0.39509 0.7502 0.0
H444 H 0.41187 0.28204 0.60919 0.0
H445 H 0.44656 0.32534 0.64831 0.0
H446 H 0.14193 0.16709 0.82627 0.0
H447 H 0.44747 0.36756 0.70099 0.0
H448 H 0.27615 0.30021 0.94952 0.0
N449 N 0.22374 0.21974 0.83116 0.0
C450 C 0.22077 0.23126 0.86418 0.0
C451 C 0.16378 0.18531 0.83725 0.0
C452 C 0.18861 0.22055 0.885 0.0
C453 C 0.1961 0.19665 0.81762 0.0
C454 C 0.15996 0.19735 0.87109 0.0
N455 N 0.2806 0.26373 0.85642 0.0
C456 C 0.31056 0.28326 0.8689 0.0
C457 C 0.2471 0.26737 0.91109 0.0
C458 C 0.24971 0.25446 0.87701 0.0
C459 C 0.2771 0.28967 0.92351 0.0
C460 C 0.3091 0.2973 0.90237 0.0
H461 H 0.13484 0.18854 0.88624 0.0
H462 H 0.16135 0.2259 0.93514 0.0
H463 H 0.21253 0.26685 0.95803 0.0
O464 O 0.31433 0.21592 0.82328 0.0
O465 O 0.23789 0.27139 0.81252 0.0
O466 O 0.25735 0.32109 0.78615 0.0
O467 O 0.27314 0.18054 0.79713 0.0
O468 O 0.32819 0.28268 0.79433 0.0
O469 O 0.30443 0.32581 0.78318 0.0
O470 O 0.24129 0.31377 0.71541 0.0
O471 O 0.30168 0.24919 0.71686 0.0
O472 O 0.32783 0.24276 0.75942 0.0
O473 O 0.29326 0.34858 0.71102 0.0
O474 O 0.23489 0.26057 0.7427 0.0
O475 O 0.25204 0.21351 0.75573 0.0
C476 C 0.23606 0.3035 0.80913 0.0
C477 C 0.28984 0.16273 0.84301 0.0
C478 C 0.31355 0.13647 0.88044 0.0
C479 C 0.27936 0.1288 0.89872 0.0
C480 C 0.25578 0.15469 0.8612 0.0
C481 C 0.25066 0.13785 0.88904 0.0
C482 C 0.31846 0.1536 0.85272 0.0
C483 C 0.32603 0.31549 0.79805 0.0
C484 C 0.29768 0.18355 0.81578 0.0
C485 C 0.18588 0.23369 0.91882 0.0
C486 C 0.215 0.25711 0.93182 0.0
C487 C 0.32451 0.23602 0.72791 0.0
C488 C 0.24444 0.37439 0.72114 0.0
C489 C 0.2116 0.41625 0.71389 0.0
C490 C 0.21732 0.43442 0.74539 0.0
C491 C 0.25069 0.39308 0.75241 0.0
C492 C 0.22514 0.38616 0.70181 0.0
C493 C 0.23733 0.42309 0.76434 0.0
C494 C 0.23196 0.22672 0.74115 0.0
C495 C 0.25993 0.34399 0.70782 0.0
H496 H 0.2747 0.11541 0.92016 0.0
H497 H 0.23334 0.16164 0.85418 0.0
H498 H 0.22442 0.13183 0.90317 0.0
H499 H 0.34491 0.16077 0.83907 0.0
H500 H 0.20743 0.45801 0.75475 0.0
H501 H 0.26652 0.38488 0.76725 0.0
H502 H 0.22126 0.37241 0.67721 0.0
H503 H 0.24276 0.43777 0.7882 0.0
Eu504 Eu 0.7396 0.3093 0.76666 0.0
C505 C 0.79877 0.19282 0.81486 0.0
N506 N 0.81655 0.22634 0.81192 0.0
C507 C 0.84041 0.23089 0.86239 0.0
C508 C 0.80111 0.17696 0.84197 0.0
C509 C 0.83772 0.24525 0.83481 0.0
C510 C 0.82188 0.19662 0.86609 0.0
C511 C 0.76211 0.13839 0.7915 0.0
C512 C 0.77947 0.17391 0.78993 0.0
C513 C 0.76334 0.12283 0.81898 0.0
C514 C 0.78321 0.14193 0.84391 0.0
Eu515 Eu 0.80955 0.24986 0.76568 0.0
N516 N 0.78011 0.18924 0.76296 0.0
C517 C 0.74575 0.11892 0.76456 0.0
C518 C 0.76822 0.16885 0.73518 0.0
C519 C 0.74961 0.134 0.73593 0.0
H520 H 0.85321 0.27121 0.83139 0.0
H521 H 0.73928 0.11848 0.71406 0.0
H522 H 0.69104 0.26853 0.7058 0.0
H523 H 0.80539 0.44847 0.78778 0.0
H524 H 0.77405 0.17865 0.71189 0.0
H525 H 0.73203 0.09166 0.76485 0.0
H526 H 0.7742 0.39046 0.80369 0.0
H527 H 0.8571 0.2461 0.88054 0.0
H528 H 0.75007 0.09566 0.82061 0.0
H529 H 0.78477 0.12927 0.86451 0.0
H530 H 0.68639 0.27542 0.64888 0.0
H531 H 0.82424 0.1854 0.88734 0.0
H532 H 0.8106 0.45878 0.72986 0.0
N533 N 0.72912 0.31633 0.71397 0.0
C534 C 0.7461 0.34708 0.70269 0.0
C535 C 0.70373 0.29559 0.66355 0.0
C536 C 0.7439 0.35265 0.6706 0.0
C537 C 0.7069 0.29136 0.69554 0.0
C538 C 0.72282 0.32614 0.65077 0.0
N539 N 0.7659 0.36707 0.75475 0.0
C540 C 0.77803 0.39415 0.7781 0.0
C541 C 0.78177 0.40614 0.71355 0.0
C542 C 0.76515 0.37325 0.72374 0.0
C543 C 0.79757 0.4331 0.73665 0.0
C544 C 0.79486 0.42732 0.7693 0.0
H545 H 0.72033 0.3294 0.62599 0.0
H546 H 0.76124 0.38925 0.6349 0.0
H547 H 0.79425 0.43623 0.67263 0.0
O548 O 0.71195 0.33882 0.80769 0.0
O549 O 0.78291 0.30617 0.72269 0.0
O550 O 0.82711 0.30429 0.75026 0.0
O551 O 0.68397 0.31088 0.76695 0.0
O552 O 0.77801 0.331 0.80618 0.0
O553 O 0.82403 0.30113 0.79902 0.0
O554 O 0.84285 0.23149 0.72135 0.0
O555 O 0.76838 0.25098 0.81185 0.0
O556 O 0.72156 0.25904 0.79005 0.0
O557 O 0.86514 0.24987 0.76702 0.0
O558 O 0.77527 0.23908 0.72337 0.0
O559 O 0.72179 0.25135 0.74824 0.0
C560 C 0.81674 0.31342 0.72553 0.0
C561 C 0.65384 0.30598 0.82109 0.0
C562 C 0.63544 0.29271 0.87762 0.0
C563 C 0.60887 0.2642 0.86644 0.0
C564 C 0.6271 0.27738 0.81027 0.0
C565 C 0.60467 0.25677 0.83295 0.0
C566 C 0.65717 0.31374 0.85478 0.0
C567 C 0.80806 0.32641 0.81387 0.0
C568 C 0.68093 0.32561 0.79763 0.0
C569 C 0.76222 0.38462 0.65963 0.0
C570 C 0.78108 0.41134 0.68109 0.0
C571 C 0.7341 0.24817 0.81277 0.0
C572 C 0.89963 0.26875 0.71847 0.0
C573 C 0.94143 0.28162 0.66927 0.0
C574 C 0.94918 0.31733 0.68218 0.0
C575 C 0.9074 0.30465 0.73141 0.0
C576 C 0.91661 0.25762 0.6876 0.0
C577 C 0.93185 0.32881 0.71314 0.0
C578 C 0.74035 0.23393 0.72466 0.0
C579 C 0.87183 0.24284 0.73515 0.0
H580 H 0.59124 0.24792 0.8836 0.0
H581 H 0.62402 0.27047 0.78433 0.0
H582 H 0.58429 0.23464 0.82445 0.0
H583 H 0.67666 0.33679 0.86328 0.0
H584 H 0.96882 0.33601 0.66863 0.0
H585 H 0.8945 0.3141 0.7554 0.0
H586 H 0.91098 0.22978 0.67817 0.0
H587 H 0.93762 0.3564 0.72314 0.0
Eu588 Eu 0.74942 0.76322 0.7422 0.0
C589 C 0.84911 0.86255 0.83929 0.0
N590 N 0.8591 0.84244 0.81064 0.0
C591 C 0.90762 0.88992 0.79602 0.0
C592 C 0.86724 0.89788 0.84653 0.0
C593 C 0.88925 0.85491 0.79015 0.0
C594 C 0.89612 0.91172 0.82396 0.0
C595 C 0.814 0.86643 0.89382 0.0
C596 C 0.82271 0.84705 0.86282 0.0
C597 C 0.83062 0.90212 0.90024 0.0
C598 C 0.85711 0.91781 0.87665 0.0
Eu599 Eu 0.82475 0.78423 0.80311 0.0
N600 N 0.80675 0.81247 0.85603 0.0
C601 C 0.78981 0.849 0.91791 0.0
C602 C 0.78576 0.7946 0.88031 0.0
C603 C 0.77621 0.8128 0.91135 0.0
H604 H 0.89942 0.83794 0.76923 0.0
H605 H 0.7584 0.79894 0.93017 0.0
H606 H 0.68535 0.69718 0.77421 0.0
H607 H 0.81923 0.76668 0.6171 0.0
H608 H 0.77532 0.76659 0.87501 0.0
H609 H 0.78246 0.86301 0.94204 0.0
H610 H 0.79971 0.79126 0.67477 0.0
H611 H 0.93089 0.89994 0.77919 0.0
H612 H 0.824 0.91755 0.9238 0.0
H613 H 0.87053 0.94508 0.88243 0.0
H614 H 0.66092 0.63448 0.75828 0.0
H615 H 0.91069 0.93873 0.82863 0.0
H616 H 0.79777 0.70378 0.59743 0.0
N617 N 0.72199 0.70293 0.72995 0.0
C618 C 0.73172 0.68769 0.69866 0.0
C619 C 0.6812 0.64898 0.74145 0.0
C620 C 0.71721 0.65196 0.68804 0.0
C621 C 0.69592 0.68452 0.75077 0.0
C622 C 0.69218 0.63251 0.7101 0.0
N623 N 0.77033 0.74213 0.68774 0.0
C624 C 0.79173 0.76351 0.66661 0.0
C625 C 0.76607 0.69288 0.64423 0.0
C626 C 0.7561 0.7079 0.6769 0.0
C627 C 0.78966 0.71427 0.6228 0.0
C628 C 0.80212 0.74983 0.63391 0.0
H629 H 0.68051 0.60501 0.70287 0.0
H630 H 0.71697 0.60941 0.64724 0.0
H631 H 0.75953 0.64525 0.60889 0.0
O632 O 0.73335 0.79566 0.7118 0.0
O633 O 0.79203 0.7295 0.73132 0.0
O634 O 0.84485 0.75879 0.75174 0.0
O635 O 0.69424 0.75336 0.73442 0.0
O636 O 0.7925 0.81377 0.73904 0.0
O637 O 0.84357 0.80428 0.75349 0.0
O638 O 0.83359 0.7397 0.8228 0.0
O639 O 0.77474 0.80681 0.82309 0.0
O640 O 0.73556 0.80291 0.78595 0.0
O641 O 0.87156 0.78928 0.82672 0.0
O642 O 0.78307 0.73388 0.79728 0.0
O643 O 0.73037 0.74508 0.79253 0.0
C644 C 0.82653 0.73295 0.73244 0.0
C645 C 0.67172 0.78318 0.70019 0.0
C646 C 0.63921 0.82139 0.68491 0.0
C647 C 0.61516 0.79176 0.6717 0.0
C648 C 0.64745 0.75376 0.68696 0.0
C649 C 0.61939 0.7581 0.67262 0.0
C650 C 0.66785 0.81712 0.69881 0.0
C651 C 0.82744 0.81922 0.73658 0.0
C652 C 0.70034 0.77812 0.71608 0.0
C653 C 0.72776 0.63683 0.65572 0.0
C654 C 0.75201 0.65724 0.63386 0.0
C655 C 0.74692 0.81474 0.81467 0.0
C656 C 0.89404 0.73887 0.82261 0.0
C657 C 0.92655 0.69791 0.83378 0.0
C658 C 0.95403 0.70954 0.80869 0.0
C659 C 0.92126 0.74904 0.797 0.0
C660 C 0.89665 0.71321 0.84097 0.0
C661 C 0.95134 0.73488 0.79058 0.0
C662 C 0.74904 0.73079 0.80732 0.0
C663 C 0.86426 0.75671 0.83162 0.0
H664 H 0.59311 0.79475 0.66066 0.0
H665 H 0.65024 0.72743 0.68769 0.0
H666 H 0.60078 0.73535 0.66237 0.0
H667 H 0.68647 0.83998 0.70903 0.0
H668 H 0.97796 0.69928 0.80319 0.0
H669 H 0.9197 0.76864 0.78252 0.0
H670 H 0.87548 0.70516 0.86056 0.0
H671 H 0.97282 0.74377 0.77162 0.0
Fe672 Fe 0.03495 0.06268 0.52914 0.0
O673 O 0.99961 0.02177 0.50925 0.0
Fe674 Fe 0.11205 0.03034 0.51784 0.0
Fe675 Fe 0.94737 1.01297 0.52631 0.0
O676 O 0.06118 0.02667 0.5324 0.0
O677 O 0.06024 0.02335 0.53315 0.0
O678 O 0.99834 1.01803 0.51066 0.0
Fe679 Fe 1.02457 0.98224 0.51462 0.0
C680 C 0.97825 0.06339 0.58352 0.0
O681 O 1.00247 0.09503 0.52182 0.0
O682 O 0.95323 0.05571 0.50257 0.0
O683 O 0.05108 0.98864 0.46823 0.0
O684 O 0.10626 0.99339 0.47705 0.0
O685 O 0.11751 0.06902 0.48913 0.0
O686 O 0.06287 0.07244 0.48306 0.0
O687 O 0.94391 0.97494 0.48649 0.0
O688 O 0.98444 0.94375 0.4924 0.0
C689 C 0.09646 0.07817 0.47398 0.0
O690 O 0.05646 0.94955 0.52232 0.0
O691 O 0.10462 0.98867 0.54335 0.0
O692 O 1.00728 0.05369 0.57444 0.0
O693 O 0.95214 0.04938 0.56766 0.0
C694 C 0.97421 0.0868 0.50678 0.0
C695 C 0.95837 0.94805 0.47882 0.0
C696 C 0.96488 0.96659 0.56992 0.0
O697 O 0.94304 0.97311 0.55382 0.0
O698 O 0.99841 0.97519 0.5616 0.0
C699 C 0.08151 0.98164 0.45903 0.0
O700 O 0.11536 0.06876 0.55731 0.0
O701 O 0.07398 0.10025 0.55363 0.0
C702 C 0.08315 0.95797 0.53931 0.0
C703 C 0.09958 0.09462 0.56695 0.0
Fe704 Fe 0.52784 0.98078 1.01575 0.0
O705 O 0.55943 0.0234 0.9982 0.0
Fe706 Fe 0.44741 1.0067 0.04399 0.0
Fe707 Fe 0.61176 0.03436 0.99616 0.0
O708 O 0.49949 1.01496 0.04185 0.0
O709 O 0.4999 1.01878 0.04311 0.0
O710 O 0.55972 0.02707 0.99921 0.0
Fe711 Fe 0.53134 0.06136 0.02501 0.0
C712 C 0.58919 0.98803 0.05158 0.0
O713 O 0.56329 0.95042 0.98547 0.0
O714 O 0.60734 0.99099 0.9594 0.0
O715 O 0.50282 0.05324 0.98607 0.0
O716 O 0.44761 0.04124 1.01281 0.0
O717 O 0.44417 0.96605 1.00461 0.0
O718 O 0.49889 0.97184 0.97661 0.0
O719 O 0.6109 0.0727 0.96883 0.0
O720 O 0.56815 0.10087 1.00041 0.0
C721 C 0.46521 0.96112 0.978 0.0
O722 O 0.49552 0.09149 0.05548 0.0
O723 O 0.45036 0.05048 0.08012 0.0
O724 O 0.55631 0.98793 0.05425 0.0
O725 O 0.61158 0.99928 0.02751 0.0
C726 C 0.59113 0.95882 0.9632 0.0
C727 C 0.59488 0.0987 0.97675 0.0
C728 C 0.59511 0.08075 0.06226 0.0
O729 O 0.61583 0.07413 0.03581 0.0
O730 O 0.56118 0.07179 0.06398 0.0
C731 C 0.46985 0.05263 0.98887 0.0
O732 O 0.44832 0.96923 0.07179 0.0
O733 O 0.49054 0.94087 0.03977 0.0
C734 C 0.46686 0.08274 0.07692 0.0
C735 C 0.46382 0.94294 0.06352 0.0
Fe736 Fe 0.03706 0.5631 0.02317 0.0
O737 O 1.00292 0.52204 0.04108 0.0
Fe738 Fe 0.11399 0.53049 0.99369 0.0
Fe739 Fe 0.9506 0.51435 0.04194 0.0
O740 O 0.06258 0.52653 0.99742 0.0
O741 O 0.06173 0.52273 0.99564 0.0
O742 O 1.00205 0.51815 0.03924 0.0
Fe743 Fe 1.02749 0.48153 1.01333 0.0
C744 C 0.97545 0.58883 0.07499 0.0
O745 O 1.00915 0.55648 0.98434 0.0
O746 O 0.95356 0.5505 1.01004 0.0
O747 O 0.06051 0.44854 0.98297 0.0
O748 O 0.10683 0.48733 0.95719 0.0
O749 O 0.11544 0.56954 0.9662 0.0
O750 O 0.0755 0.60069 0.99849 0.0
O751 O 0.94396 0.47397 1.00283 0.0
O752 O 0.99791 0.47352 0.97432 0.0
C753 C 0.10097 0.59663 0.97418 0.0
O754 O 0.0559 0.48722 0.0521 0.0
O755 O 0.11114 0.49451 0.02503 0.0
O756 O 1.00394 0.59606 0.0531 0.0
O757 O 0.95726 0.55725 0.07827 0.0
C758 C 0.97742 0.55976 0.98615 0.0
C759 C 0.96391 0.46552 0.97648 0.0
C760 C 0.96266 0.44832 0.0621 0.0
O761 O 0.94892 0.47587 0.06994 0.0
O762 O 0.98795 0.44384 0.03756 0.0
C763 C 0.08871 0.45568 0.9607 0.0
O764 O 0.12056 0.57044 0.03285 0.0
O765 O 0.06716 0.57249 0.06207 0.0
C766 C 0.08818 0.48494 0.0494 0.0
C767 C 0.10123 0.57973 0.05933 0.0
Fe768 Fe 0.53588 0.51868 0.98633 0.0
O769 O 0.55762 0.55023 0.02409 0.0
Fe770 Fe 0.44906 0.48552 0.02119 0.0
Fe771 Fe 0.60845 0.56057 0.02872 0.0
O772 O 0.50048 0.49652 0.02162 0.0
O773 O 0.50027 0.49605 0.0249 0.0
O774 O 0.55716 0.55027 0.02707 0.0
Fe775 Fe 0.52027 0.52984 0.06223 0.0
C776 C 0.59774 0.48762 0.9907 0.0
O777 O 0.5768 0.54594 0.95403 0.0
O778 O 0.61278 0.58608 0.98857 0.0
O779 O 0.49027 0.56367 0.05669 0.0
O780 O 0.43867 0.52521 0.0574 0.0
O781 O 0.45229 0.51863 0.98628 0.0
O782 O 0.5065 0.55402 0.98426 0.0
O783 O 0.59545 0.59927 0.06542 0.0
O784 O 0.5463 0.56863 0.09662 0.0
C785 C 0.4745 0.54635 0.9782 0.0
O786 O 0.47896 0.50309 0.09429 0.0
O787 O 0.44702 0.45847 0.05993 0.0
O788 O 0.56501 0.48361 0.98817 0.0
O789 O 0.61856 0.51773 0.99556 0.0
C790 C 0.60194 0.5738 0.96006 0.0
C791 C 0.57291 0.59537 0.09221 0.0
C792 C 0.58172 0.50412 0.07492 0.0
O793 O 0.6041 0.53131 0.0663 0.0
O794 O 0.54976 0.49597 0.06872 0.0
C795 C 0.45662 0.5564 0.05713 0.0
O796 O 0.4621 0.44867 0.9825 0.0
O797 O 0.50719 0.48277 0.95101 0.0
C798 C 0.45682 0.47281 0.0886 0.0
C799 C 0.48015 0.45613 0.95441 0.0
Fe800 Fe 0.03497 0.44431 0.51706 0.0
O801 O 0.04414 0.49558 0.5196 0.0
Fe802 Fe 0.03621 0.51694 0.47897 0.0
Fe803 Fe 1.0234 0.52667 0.55794 0.0
O804 O 0.04573 0.49532 0.51566 0.0
O805 O 1.01375 0.54733 0.51757 0.0
O806 O 1.01244 0.5479 0.52197 0.0
Fe807 Fe 1.02465 0.59952 0.52318 0.0
C808 C 0.96957 0.46016 0.56624 0.0
O809 O 0.0661 0.45882 0.55434 0.0
O810 O 0.04095 0.50097 0.58998 0.0
O811 O 0.0688 0.60332 0.48868 0.0
O812 O 0.08561 0.55222 0.47798 0.0
O813 O 0.0636 0.48147 0.44442 0.0
O814 O 0.07556 0.44647 0.47813 0.0
O815 O 0.07244 0.56068 0.55789 0.0
O816 O 0.05697 0.61101 0.5609 0.0
C817 C 0.08027 0.45866 0.45036 0.0
O818 O 0.99687 0.58741 0.48374 0.0
O819 O 1.02009 0.54444 0.44711 0.0
O820 O 0.9923 0.44164 0.5542 0.0
O821 O 0.97439 0.49185 0.56119 0.0
C822 C 0.0625 0.47949 0.58214 0.0
C823 C 0.07697 0.59332 0.56809 0.0
C824 C 0.97968 0.58486 0.58829 0.0
O825 O 0.99766 0.56273 0.59326 0.0
O826 O 0.9824 0.59643 0.56051 0.0
C827 C 0.09166 0.5851 0.47673 0.0
O828 O 0.98752 0.48125 0.47489 0.0
O829 O 1.00034 0.43158 0.48217 0.0
C830 C 1.00003 0.56747 0.45536 0.0
C831 C 0.98139 0.44775 0.47118 0.0
Fe832 Fe 0.53747 0.94355 0.51539 0.0
O833 O 0.54529 0.99503 0.52133 0.0
Fe834 Fe 0.54019 1.0179 0.48074 0.0
Fe835 Fe 0.52092 0.0241 0.55937 0.0
O836 O 0.54734 0.99496 0.51738 0.0
O837 O 0.51503 0.04658 0.51846 0.0
O838 O 0.51264 0.04648 0.52264 0.0
Fe839 Fe 0.52428 0.09829 0.52418 0.0
C840 C 0.4679 0.95462 0.56046 0.0
O841 O 0.56371 0.95591 0.5563 0.0
O842 O 0.53593 0.99652 0.59174 0.0
O843 O 0.56989 0.10339 0.49092 0.0
O844 O 0.58864 0.05371 0.48305 0.0
O845 O 0.56911 0.98339 0.44638 0.0
O846 O 0.58139 0.94834 0.47952 0.0
O847 O 0.56952 0.05913 0.56309 0.0
O848 O 0.55427 0.10937 0.5632 0.0
C849 C 0.58561 0.96005 0.45157 0.0
O850 O 0.49878 0.08691 0.48299 0.0
O851 O 0.52685 0.04634 0.44811 0.0
O852 O 0.49198 0.93782 0.54838 0.0
O853 O 0.47219 0.98749 0.55948 0.0
C854 C 0.55672 0.97417 0.58503 0.0
C855 C 0.57452 0.09222 0.57075 0.0
C856 C 0.47506 0.08185 0.58736 0.0
O857 O 0.49197 0.05934 0.59379 0.0
O858 O 0.48052 0.09389 0.55948 0.0
C859 C 0.59352 0.08589 0.47938 0.0
O860 O 0.49248 0.98263 0.47458 0.0
O861 O 0.50675 0.93224 0.47665 0.0
C862 C 0.50727 0.06975 0.45411 0.0
C863 C 0.48796 0.9495 0.46682 0.0
H864 H 0.17745 0.22732 0.35612 0.0
H865 H 0.23877 0.15473 0.29789 0.0
H866 H 0.20601 0.10879 0.332 0.0
H867 H 0.18024 0.20031 0.43313 0.0
H868 H 0.13633 0.20607 0.45146 0.0
H869 H 0.16156 0.23215 0.42032 0.0
H870 H 0.10959 0.21088 0.38533 0.0
H871 H 0.08412 0.18455 0.41625 0.0
H872 H 0.09268 0.16444 0.374 0.0
H873 H 0.16985 0.072 0.37353 0.0
H874 H 0.13455 0.04683 0.42238 0.0
H875 H 0.09681 0.14274 0.45648 0.0
C876 C 0.18333 0.20147 0.35029 0.0
C877 C 0.2103 0.19427 0.32417 0.0
C878 C 0.21817 0.16063 0.31775 0.0
C879 C 0.1996 0.13438 0.3369 0.0
C880 C 0.17355 0.14232 0.36279 0.0
C881 C 0.16557 0.17511 0.36982 0.0
C882 C 0.13874 0.17751 0.40106 0.0
C883 C 0.1552 0.20567 0.42809 0.0
C884 C 0.10423 0.18477 0.39371 0.0
C885 C 0.13252 0.14077 0.41017 0.0
C886 C 0.15291 0.12104 0.38754 0.0
C887 C 0.15348 0.08702 0.3912 0.0
C888 C 0.13328 0.0729 0.41897 0.0
C889 C 0.11249 0.09253 0.4428 0.0
C890 C 0.11169 0.12681 0.43813 0.0
H891 H 0.85488 0.12457 0.39497 0.0
H892 H 0.94924 0.18793 0.34592 0.0
H893 H 0.98132 0.19112 0.39342 0.0
H894 H 0.87002 0.16483 0.48409 0.0
H895 H 0.85284 0.12221 0.49717 0.0
H896 H 0.83529 0.13362 0.46418 0.0
H897 H 0.84988 0.07808 0.42607 0.0
H898 H 0.86763 0.06676 0.4586 0.0
H899 H 0.89496 0.07201 0.41928 0.0
H900 H 1.00627 0.17489 0.43964 0.0
H901 H 1.02064 0.1415 0.47863 0.0
H902 H 0.90891 0.09058 0.49754 0.0
C903 C 0.88181 0.14035 0.39504 0.0
C904 C 0.89969 0.15619 0.36731 0.0
C905 C 0.93514 0.17602 0.36741 0.0
C906 C 0.95343 0.178 0.39427 0.0
C907 C 0.93548 0.16057 0.42087 0.0
C908 C 0.90012 0.14268 0.4216 0.0
C909 C 0.88811 0.1217 0.45004 0.0
C910 C 0.85989 0.13649 0.47537 0.0
C911 C 0.87439 0.08235 0.43775 0.0
C912 C 0.92275 0.12838 0.46388 0.0
C913 C 0.94973 0.15154 0.44748 0.0
C914 C 0.98509 0.15766 0.45335 0.0
C915 C 0.99304 0.13868 0.47559 0.0
C916 C 0.96576 0.11364 0.49108 0.0
C917 C 0.93019 0.10979 0.48617 0.0
H918 H 0.84615 0.88175 0.32939 0.0
H919 H 0.87764 0.78226 0.31757 0.0
H920 H 0.91423 0.8053 0.36269 0.0
H921 H 0.93133 0.93756 0.34838 0.0
H922 H 0.91054 0.96798 0.37821 0.0
H923 H 0.88846 0.94394 0.34369 0.0
H924 H 0.83267 0.92012 0.3841 0.0
H925 H 0.85463 0.94383 0.41875 0.0
H926 H 0.83737 0.89705 0.41617 0.0
H927 H 0.94504 0.83853 0.41155 0.0
H928 H 0.9685 0.88037 0.45888 0.0
H929 H 0.91698 0.95706 0.43642 0.0
C930 C 0.86129 0.86506 0.33584 0.0
C931 C 0.85915 0.83037 0.32 0.0
C932 C 0.87886 0.80904 0.32949 0.0
C933 C 0.89977 0.82183 0.35506 0.0
C934 C 0.90078 0.856 0.37067 0.0
C935 C 0.88224 0.87736 0.36126 0.0
C936 C 0.88676 0.91263 0.38261 0.0
C937 C 0.9054 0.94227 0.36199 0.0
C938 C 0.85072 0.91874 0.40152 0.0
C939 C 0.91051 0.90764 0.40558 0.0
C940 C 0.91843 0.87493 0.39848 0.0
C941 C 0.93928 0.8644 0.41724 0.0
C942 C 0.95248 0.88823 0.44399 0.0
C943 C 0.94464 0.92193 0.45141 0.0
C944 C 0.92343 0.93146 0.43175 0.0
H945 H 0.17373 0.82419 0.41175 0.0
H946 H 0.06823 0.75661 0.40949 0.0
H947 H 0.04156 0.80835 0.42633 0.0
H948 H 0.15422 0.89526 0.476 0.0
H949 H 0.18131 0.92972 0.45372 0.0
H950 H 0.19348 0.88803 0.44871 0.0
H951 H 0.19445 0.87917 0.38626 0.0
H952 H 0.18346 0.92111 0.3891 0.0
H953 H 0.15614 0.88218 0.36915 0.0
H954 H 1.02784 0.8668 0.42941 0.0
H955 H 1.02613 0.92944 0.43795 0.0
H956 H 0.14137 0.95807 0.43249 0.0
C957 C 0.14495 0.82026 0.41697 0.0
C958 C 0.12284 0.78681 0.40946 0.0
C959 C 0.08538 0.78217 0.41561 0.0
C960 C 0.07012 0.81144 0.42441 0.0
C961 C 0.09297 0.84456 0.42681 0.0
C962 C 0.12958 0.84915 0.42412 0.0
C963 C 0.14854 0.88714 0.42337 0.0
C964 C 0.17061 0.90091 0.45218 0.0
C965 C 0.17201 0.89266 0.38999 0.0
C966 C 0.11672 0.90325 0.42711 0.0
C967 C 0.08504 0.87824 0.42818 0.0
C968 C 0.05231 0.88681 0.42979 0.0
C969 C 0.05167 0.92238 0.43407 0.0
C970 C 0.08345 0.94839 0.43764 0.0
C971 C 0.11655 0.93862 0.43084 0.0
H972 H 0.13714 0.93396 0.70193 0.0
H973 H 0.20264 0.86566 0.64291 0.0
H974 H 0.16942 0.85995 0.59584 0.0
H975 H 0.05277 0.89352 0.66362 0.0
H976 H 0.04338 0.9362 0.6661 0.0
H977 H 0.06617 0.92759 0.69693 0.0
H978 H 0.11816 0.98082 0.68479 0.0
H979 H 0.09551 0.9896 0.65427 0.0
H980 H 0.1403 0.9829 0.64304 0.0
H981 H 0.13616 0.87036 0.55267 0.0
H982 H 0.10976 0.89928 0.51774 0.0
H983 H 0.06912 0.96244 0.60492 0.0
C984 C 0.14394 0.91717 0.67931 0.0
C985 C 0.17238 0.90034 0.67592 0.0
C986 C 0.18059 0.8785 0.64605 0.0
C987 C 0.1618 0.87503 0.61926 0.0
C988 C 0.1346 0.89313 0.62305 0.0
C989 C 0.12563 0.91362 0.65252 0.0
C990 C 0.0993 0.93453 0.64926 0.0
C991 C 0.06326 0.92221 0.67022 0.0
C992 C 0.11424 0.97428 0.65834 0.0
C993 C 0.09654 0.92449 0.61282 0.0
C994 C 0.11606 0.89967 0.59819 0.0
C995 C 0.12023 0.88921 0.564 0.0
C996 C 0.1054 0.90569 0.54431 0.0
C997 C 0.0877 0.93271 0.55893 0.0
C998 C 0.08196 0.94114 0.59351 0.0
H999 H 0.20079 0.24314 0.69357 0.0
H1000 H 0.20738 0.15577 0.74032 0.0
H1001 H 0.16363 0.11634 0.70688 0.0
H1002 H 0.10881 0.21522 0.6756 0.0
H1003 H 0.11995 0.22715 0.63454 0.0
H1004 H 0.14609 0.25097 0.66659 0.0
H1005 H 0.20357 0.23774 0.63038 0.0
H1006 H 0.17789 0.21428 0.59805 0.0
H1007 H 0.20555 0.19289 0.61422 0.0
H1008 H 0.11995 0.0868 0.66998 0.0
H1009 H 0.09268 0.06296 0.61945 0.0
H1010 H 0.12322 0.16598 0.58779 0.0
C1011 C 0.19264 0.21582 0.69717 0.0
C1012 C 0.20625 0.20285 0.72075 0.0
C1013 C 0.19606 0.16668 0.72366 0.0
C1014 C 0.17122 0.14406 0.70475 0.0
C1015 C 0.15794 0.15782 0.68218 0.0
C1016 C 0.16931 0.19247 0.67723 0.0
C1017 C 0.15615 0.19881 0.64699 0.0
C1018 C 0.13127 0.22458 0.65652 0.0
C1019 C 0.18766 0.21166 0.62087 0.0
C1020 C 0.13571 0.16206 0.63568 0.0
C1021 C 0.13604 0.13943 0.65738 0.0
C1022 C 0.11963 0.10409 0.65268 0.0
C1023 C 0.10418 0.09091 0.624 0.0
C1024 C 0.10637 0.11272 0.59985 0.0
C1025 C 0.12101 0.14904 0.60615 0.0
H1026 H 0.91519 0.24009 0.61657 0.0
H1027 H 1.01281 0.28732 0.65823 0.0
H1028 H 0.03753 0.23621 0.63224 0.0
H1029 H 0.90543 0.16828 0.64462 0.0
H1030 H 0.88528 0.13755 0.61207 0.0
H1031 H 0.88099 0.18223 0.61827 0.0
H1032 H 0.90927 0.18911 0.55754 0.0
H1033 H 0.91142 0.14361 0.55134 0.0
H1034 H 0.95113 0.17676 0.54177 0.0
H1035 H 0.04222 0.17424 0.62165 0.0
H1036 H 0.0324 0.10948 0.6134 0.0
H1037 H 0.92833 0.10125 0.58544 0.0
C1038 C 0.94286 0.24072 0.61766 0.0
C1039 C 0.96212 0.26704 0.63939 0.0
C1040 C 0.99788 0.26732 0.64139 0.0
C1041 C 1.01187 0.23803 0.62713 0.0
C1042 C 0.98969 0.20938 0.61087 0.0
C1043 C 0.95613 0.21081 0.60519 0.0
C1044 C 0.93414 0.17459 0.59477 0.0
C1045 C 0.89947 0.16521 0.61888 0.0
C1046 C 0.92609 0.17081 0.55921 0.0
C1047 C 0.95982 0.15275 0.59714 0.0
C1048 C 0.99182 0.17304 0.60599 0.0
C1049 C 1.01786 0.15811 0.61325 0.0
C1050 C 1.0119 0.12142 0.60904 0.0
C1051 C 0.98023 0.10037 0.59772 0.0
C1052 C 0.95328 0.11646 0.59338 0.0
H1053 H 0.86053 0.81005 0.67229 0.0
H1054 H 0.8457 0.88951 0.75653 0.0
H1055 H 0.88395 0.93541 0.72443 0.0
H1056 H 0.94905 0.84693 0.63759 0.0
H1057 H 0.94036 0.83668 0.59527 0.0
H1058 H 0.91437 0.80972 0.62547 0.0
H1059 H 0.85646 0.82016 0.61103 0.0
H1060 H 0.88203 0.84693 0.58068 0.0
H1061 H 0.85119 0.8643 0.61312 0.0
H1062 H 0.92361 0.97274 0.6826 0.0
H1063 H 0.95579 0.99931 0.63296 0.0
H1064 H 0.93886 0.89651 0.57397 0.0
C1065 C 0.86477 0.83717 0.68376 0.0
C1066 C 0.84988 0.84638 0.71684 0.0
C1067 C 0.85687 0.88203 0.73123 0.0
C1068 C 0.87858 0.9082 0.71318 0.0
C1069 C 0.89237 0.89839 0.68041 0.0
C1070 C 0.88509 0.86379 0.66559 0.0
C1071 C 0.90061 0.86065 0.62923 0.0
C1072 C 0.92772 0.8371 0.62145 0.0
C1073 C 0.8708 0.84724 0.60722 0.0
C1074 C 0.91862 0.89867 0.62611 0.0
C1075 C 0.91379 0.92001 0.65599 0.0
C1076 C 0.9275 0.95624 0.65913 0.0
C1077 C 0.94588 0.9711 0.63092 0.0
C1078 C 0.95015 0.94985 0.59996 0.0
C1079 C 0.93647 0.91318 0.59757 0.0
H1080 H 0.30588 0.16513 0.18809 0.0
H1081 H 0.38576 0.26131 0.20765 0.0
H1082 H 0.43166 0.23435 0.1721 0.0
H1083 H 0.36003 0.10428 0.18593 0.0
H1084 H 0.34333 0.07419 0.15126 0.0
H1085 H 0.31553 0.10107 0.17739 0.0
H1086 H 0.30693 0.12513 0.12641 0.0
H1087 H 0.33515 0.09892 0.09983 0.0
H1088 H 0.3453 0.1458 0.10016 0.0
H1089 H 0.47095 0.19668 0.13558 0.0
H1090 H 0.49908 0.15108 0.09976 0.0
H1091 H 0.39566 0.0786 0.10227 0.0
C1092 C 0.33292 0.18062 0.1846 0.0
C1093 C 0.34187 0.21542 0.20167 0.0
C1094 C 0.37781 0.2345 0.19583 0.0
C1095 C 0.40437 0.21943 0.17537 0.0
C1096 C 0.39512 0.18501 0.15985 0.0
C1097 C 0.36019 0.16588 0.16373 0.0
C1098 C 0.35789 0.12936 0.14362 0.0
C1099 C 0.34334 0.10053 0.1659 0.0
C1100 C 0.33496 0.12452 0.11585 0.0
C1101 C 0.39698 0.13064 0.12935 0.0
C1102 C 0.4179 0.16326 0.13859 0.0
C1103 C 0.45472 0.17103 0.12812 0.0
C1104 C 0.47059 0.14493 0.10769 0.0
C1105 C 0.44996 0.11096 0.0982 0.0
C1106 C 0.41252 0.10405 0.10932 0.0
H1107 H 0.85223 0.36879 0.22257 0.0
H1108 H 0.83478 0.26742 0.16058 0.0
H1109 H 0.87465 0.29352 0.11444 0.0
H1110 H 0.85097 0.41918 0.15596 0.0
H1111 H 0.88291 0.45565 0.17342 0.0
H1112 H 0.85303 0.42649 0.19983 0.0
H1113 H 0.91062 0.41894 0.21989 0.0
H1114 H 0.93912 0.44541 0.1904 0.0
H1115 H 0.94349 0.40121 0.19014 0.0
H1116 H 0.91694 0.33035 0.07471 0.0
H1117 H 0.95146 0.37723 0.04203 0.0
H1118 H 0.93723 0.45537 0.12781 0.0
C1119 C 0.85678 0.35217 0.19926 0.0
C1120 C 0.8413 0.31578 0.19559 0.0
C1121 C 0.84733 0.2951 0.16444 0.0
C1122 C 0.86981 0.30971 0.13793 0.0
C1123 C 0.88531 0.34542 0.1425 0.0
C1124 C 0.87836 0.36661 0.17208 0.0
C1125 C 0.8966 0.40466 0.16963 0.0
C1126 C 0.86921 0.42781 0.17507 0.0
C1127 C 0.9241 0.41835 0.19396 0.0
C1128 C 0.9146 0.40141 0.1341 0.0
C1129 C 0.9083 0.36694 0.11905 0.0
C1130 C 0.92198 0.3575 0.08616 0.0
C1131 C 0.9417 0.3842 0.06784 0.0
C1132 C 0.94683 0.41981 0.08235 0.0
C1133 C 0.93359 0.42831 0.11605 0.0
H1134 H 0.73394 0.95059 0.14554 0.0
H1135 H 0.6469 0.89718 0.21117 0.0
H1136 H 0.60345 0.90576 0.17799 0.0
H1137 H 0.6923 1.01592 0.13647 0.0
H1138 H 0.70966 1.0184 0.09359 0.0
H1139 H 0.73441 1.00462 0.11962 0.0
H1140 H 0.73539 0.94646 0.07991 0.0
H1141 H 0.71162 0.96034 0.05304 0.0
H1142 H 0.69408 0.91881 0.06822 0.0
H1143 H 0.56989 0.92575 0.14106 0.0
H1144 H 0.5486 0.95186 0.10076 0.0
H1145 H 0.65819 0.99113 0.05883 0.0
C1146 C 0.70573 0.94008 0.15232 0.0
C1147 C 0.69336 0.92305 0.18047 0.0
C1148 C 0.65647 0.91011 0.18939 0.0
C1149 C 0.63178 0.9149 0.17077 0.0
C1150 C 0.6447 0.93267 0.14349 0.0
C1151 C 0.68084 0.94474 0.13409 0.0
C1152 C 0.68774 0.96476 0.10499 0.0
C1153 C 0.70717 1.00319 0.11423 0.0
C1154 C 0.70843 0.94648 0.07475 0.0
C1155 C 0.64989 0.96224 0.0996 0.0
C1156 C 0.62541 0.94379 0.12209 0.0
C1157 C 0.58882 0.93977 0.12298 0.0
C1158 C 0.57699 0.95472 0.10003 0.0
C1159 C 0.6017 0.97312 0.07634 0.0
C1160 C 0.63858 0.97679 0.07627 0.0
H1161 H 0.21801 0.64717 0.2098 0.0
H1162 H 0.25959 0.74299 0.16622 0.0
H1163 H 0.21915 0.72065 0.12366 0.0
H1164 H 0.21268 0.59044 0.12809 0.0
H1165 H 0.1736 0.55964 0.14346 0.0
H1166 H 0.20545 0.58348 0.17071 0.0
H1167 H 0.15493 0.60636 0.21094 0.0
H1168 H 0.12308 0.58302 0.18356 0.0
H1169 H 0.12811 0.62968 0.19602 0.0
H1170 H 0.17143 0.68987 0.08833 0.0
H1171 H 0.12797 0.64818 0.05534 0.0
H1172 H 0.12059 0.56897 0.11727 0.0
C1173 C 0.21901 0.66302 0.19082 0.0
C1174 C 0.2416 0.69703 0.19141 0.0
C1175 C 0.24223 0.71708 0.16632 0.0
C1176 C 0.21927 0.70462 0.14214 0.0
C1177 C 0.1965 0.67148 0.14273 0.0
C1178 C 0.19703 0.65038 0.16567 0.0
C1179 C 0.1714 0.61485 0.15926 0.0
C1180 C 0.192 0.58535 0.14982 0.0
C1181 C 0.14268 0.60811 0.18924 0.0
C1182 C 0.15539 0.61981 0.12997 0.0
C1183 C 0.17014 0.65287 0.12113 0.0
C1184 C 0.15983 0.6639 0.09497 0.0
C1185 C 0.13481 0.6402 0.07659 0.0
C1186 C 0.12022 0.60578 0.08428 0.0
C1187 C 0.13048 0.59552 0.11152 0.0
H1188 H 0.32955 0.81598 0.87192 0.0
H1189 H 0.37099 0.87586 0.79038 0.0
H1190 H 0.41378 0.9173 0.82425 0.0
H1191 H 0.33324 0.89222 0.93475 0.0
H1192 H 0.34504 0.87173 0.96536 0.0
H1193 H 0.31926 0.84532 0.93409 0.0
H1194 H 0.36617 0.80711 0.91658 0.0
H1195 H 0.39215 0.83343 0.94776 0.0
H1196 H 0.41226 0.82784 0.9052 0.0
H1197 H 0.45398 0.95099 0.86625 0.0
H1198 H 0.4831 0.97905 0.91584 0.0
H1199 H 0.41162 0.90162 0.97232 0.0
C1200 C 0.34786 0.83771 0.86125 0.0
C1201 C 0.3473 0.84256 0.82841 0.0
C1202 C 0.37103 0.87171 0.81547 0.0
C1203 C 0.39556 0.89526 0.83446 0.0
C1204 C 0.39557 0.88985 0.86672 0.0
C1205 C 0.3719 0.86219 0.88028 0.0
C1206 C 0.37593 0.86384 0.91632 0.0
C1207 C 0.34131 0.86857 0.93897 0.0
C1208 C 0.38731 0.83111 0.92177 0.0
C1209 C 0.40567 0.89653 0.92076 0.0
C1210 C 0.41706 0.91073 0.89164 0.0
C1211 C 0.44509 0.94025 0.88926 0.0
C1212 C 0.46161 0.95592 0.91745 0.0
C1213 C 0.44953 0.94259 0.94783 0.0
C1214 C 0.4212 0.91248 0.94941 0.0
H1215 H 0.22787 0.37343 0.81935 0.0
H1216 H 0.1815 0.273 0.85343 0.0
H1217 H 0.14052 0.30002 0.89603 0.0
H1218 H 0.22145 0.42983 0.89562 0.0
H1219 H 0.20666 0.46284 0.88041 0.0
H1220 H 0.23339 0.43595 0.85275 0.0
H1221 H 0.18335 0.41435 0.8135 0.0
H1222 H 0.15957 0.44413 0.84075 0.0
H1223 H 0.13837 0.39838 0.83142 0.0
H1224 H 0.10284 0.33869 0.93581 0.0
H1225 H 0.07311 0.38507 0.96778 0.0
H1226 H 0.14053 0.45976 0.90586 0.0
C1227 C 0.20905 0.35699 0.83557 0.0
C1228 C 0.20942 0.32083 0.83342 0.0
C1229 C 0.1836 0.30077 0.85528 0.0
C1230 C 0.15952 0.31593 0.8794 0.0
C1231 C 0.16019 0.35146 0.88114 0.0
C1232 C 0.18387 0.37165 0.85937 0.0
C1233 C 0.17782 0.40893 0.86572 0.0
C1234 C 0.21186 0.43599 0.87412 0.0
C1235 C 0.16401 0.41698 0.83611 0.0
C1236 C 0.14854 0.40691 0.89527 0.0
C1237 C 0.13818 0.37336 0.90346 0.0
C1238 C 0.11076 0.36501 0.92937 0.0
C1239 C 0.09373 0.39156 0.94733 0.0
C1240 C 0.10402 0.42635 0.93956 0.0
C1241 C 0.13177 0.43366 0.91283 0.0
H1242 H 0.7455 0.22483 0.86887 0.0
H1243 H 0.66352 0.22125 0.80915 0.0
H1244 H 0.61858 0.18821 0.84798 0.0
H1245 H 0.71263 0.13773 0.88672 0.0
H1246 H 0.72079 0.14529 0.92913 0.0
H1247 H 0.74853 0.17293 0.9006 0.0
H1248 H 0.73579 0.22897 0.93496 0.0
H1249 H 0.70952 0.20345 0.96618 0.0
H1250 H 0.69035 0.23239 0.94952 0.0
H1251 H 0.58115 0.15786 0.89443 0.0
H1252 H 0.55676 0.12051 0.93872 0.0
H1253 H 0.66254 0.13843 0.96601 0.0
C1254 C 0.71806 0.21735 0.86412 0.0
C1255 C 0.708 0.22689 0.83635 0.0
C1256 C 0.67188 0.21562 0.83074 0.0
C1257 C 0.64602 0.19669 0.85268 0.0
C1258 C 0.65639 0.18894 0.88036 0.0
C1259 C 0.69166 0.19808 0.88582 0.0
C1260 C 0.69574 0.18385 0.91629 0.0
C1261 C 0.72087 0.15835 0.90757 0.0
C1262 C 0.7086 0.21397 0.94334 0.0
C1263 C 0.65757 0.1648 0.9264 0.0
C1264 C 0.6351 0.16902 0.90593 0.0
C1265 C 0.59853 0.15421 0.91053 0.0
C1266 C 0.58481 0.13333 0.9359 0.0
C1267 C 0.60775 0.12692 0.95579 0.0
C1268 C 0.64445 0.1433 0.95126 0.0
H1269 H 0.90976 0.6931 0.9011 0.0
H1270 H 0.95084 0.63905 0.80726 0.0
H1271 H 0.96589 0.5972 0.83641 0.0
H1272 H 0.97333 0.68481 0.94757 0.0
H1273 H 0.94316 0.67591 0.98474 0.0
H1274 H 0.93304 0.70116 0.95712 0.0
H1275 H 0.87213 0.65771 0.95218 0.0
H1276 H 0.88182 0.63254 0.98018 0.0
H1277 H 0.87055 0.61147 0.94001 0.0
H1278 H 0.98688 0.56896 0.87481 0.0
H1279 H 1.0005 0.54555 0.92099 0.0
H1280 H 0.93757 0.60939 0.99065 0.0
C1281 C 0.9211 0.67194 0.88668 0.0
C1282 C 0.92993 0.66993 0.85184 0.0
C1283 C 0.94485 0.64185 0.83395 0.0
C1284 C 0.95333 0.61777 0.85026 0.0
C1285 C 0.94588 0.62139 0.88452 0.0
C1286 C 0.92915 0.64698 0.90263 0.0
C1287 C 0.92456 0.64465 0.93942 0.0
C1288 C 0.94472 0.67865 0.95831 0.0
C1289 C 0.8849 0.63607 0.95378 0.0
C1290 C 0.94185 0.61414 0.93887 0.0
C1291 C 0.95462 0.60183 0.90687 0.0
C1292 C 0.97573 0.5772 0.89989 0.0
C1293 C 0.98338 0.56412 0.92626 0.0
C1294 C 0.9685 0.57425 0.9591 0.0
C1295 C 0.94766 0.59985 0.96555 0.0
H1296 H 0.16789 0.33629 0.0929 0.0
H1297 H 0.11633 0.35496 0.19363 0.0
H1298 H 0.09764 0.40558 0.18015 0.0
H1299 H 0.19959 0.42969 0.08148 0.0
H1300 H 0.19221 0.42043 0.0388 0.0
H1301 H 0.20362 0.38786 0.0576 0.0
H1302 H 0.14676 0.343 0.04072 0.0
H1303 H 0.13503 0.37552 0.02224 0.0
H1304 H 0.10386 0.35398 0.05371 0.0
H1305 H 0.07783 0.4491 0.1528 0.0
H1306 H 0.0642 0.48518 0.11567 0.0
H1307 H 0.13268 0.44005 0.0345 0.0
C1308 C 0.15303 0.35133 0.1122 0.0
C1309 C 0.1433 0.3417 0.1442 0.0
C1310 C 0.12409 0.36207 0.16895 0.0
C1311 C 0.11333 0.39076 0.1615 0.0
C1312 C 0.12265 0.39905 0.12937 0.0
C1313 C 0.14268 0.38027 0.10533 0.0
C1314 C 0.14855 0.39374 0.0725 0.0
C1315 C 0.18836 0.40883 0.06199 0.0
C1316 C 0.13259 0.36485 0.04573 0.0
C1317 C 0.12791 0.42241 0.08146 0.0
C1318 C 0.11296 0.42511 0.1143 0.0
C1319 C 0.09013 0.44776 0.12727 0.0
C1320 C 0.08244 0.46804 0.10606 0.0
C1321 C 0.09802 0.46585 0.07251 0.0
C1322 C 0.12129 0.44302 0.06031 0.0
H1323 H 0.24704 0.73116 0.87295 0.0
H1324 H 0.17357 0.70986 0.80121 0.0
H1325 H 0.12657 0.67692 0.8393 0.0
H1326 H 0.22119 0.64442 0.89333 0.0
H1327 H 0.22754 0.6573 0.93615 0.0
H1328 H 0.25321 0.68393 0.90564 0.0
H1329 H 0.23078 0.73783 0.93912 0.0
H1330 H 0.20457 0.71119 0.96952 0.0
H1331 H 0.18351 0.73546 0.94912 0.0
H1332 H 0.08829 0.64493 0.88447 0.0
H1333 H 0.06444 0.60804 0.92913 0.0
H1334 H 0.1651 0.64338 0.96828 0.0
C1335 C 0.2207 0.72024 0.86584 0.0
C1336 C 0.21293 0.72449 0.83511 0.0
C1337 C 0.1791 0.70826 0.82546 0.0
C1338 C 0.15243 0.68939 0.84685 0.0
C1339 C 0.1606 0.68591 0.87728 0.0
C1340 C 0.19418 0.70014 0.88644 0.0
C1341 C 0.19748 0.6885 0.9184 0.0
C1342 C 0.22657 0.66728 0.91304 0.0
C1343 C 0.2045 0.72014 0.94566 0.0
C1344 C 0.1606 0.66547 0.92568 0.0
C1345 C 0.13947 0.66503 0.90207 0.0
C1346 C 0.10451 0.64518 0.90318 0.0
C1347 C 0.09112 0.62453 0.92864 0.0
C1348 C 0.11292 0.62346 0.95208 0.0
C1349 C 0.14789 0.64438 0.95081 0.0
H1350 H 0.33053 0.14244 0.9428 0.0
H1351 H 0.36567 0.10835 0.83967 0.0
H1352 H 0.41565 0.09028 0.85572 0.0
H1353 H 0.42071 0.17269 0.96915 0.0
H1354 H 0.40519 0.1568 1.00836 0.0
H1355 H 0.37552 0.17203 0.98848 0.0
H1356 H 0.32987 0.11233 0.99101 0.0
H1357 H 0.35931 0.09721 1.01102 0.0
H1358 H 0.34405 0.07223 0.97344 0.0
H1359 H 0.4583 0.07041 0.88356 0.0
H1360 H 0.48748 0.04811 0.92143 0.0
H1361 H 0.42263 0.09378 1.0054 0.0
C1362 C 0.34887 0.13139 0.92358 0.0
C1363 C 0.34425 0.12681 0.89003 0.0
C1364 C 0.36899 0.11251 0.86555 0.0
C1365 C 0.39748 0.10221 0.87439 0.0
C1366 C 0.40099 0.10664 0.90777 0.0
C1367 C 0.37737 0.121 0.93196 0.0
C1368 C 0.38508 0.12027 0.96618 0.0
C1369 C 0.39736 0.15768 0.98408 0.0
C1370 C 0.35266 0.09924 0.98658 0.0
C1371 C 0.41539 0.10154 0.95746 0.0
C1372 C 0.42496 0.09466 0.92371 0.0
C1373 C 0.45133 0.07602 0.91005 0.0
C1374 C 0.46772 0.06348 0.93159 0.0
C1375 C 0.45686 0.06911 0.96604 0.0
C1376 C 0.43109 0.08901 0.97902 0.0
H1377 H 0.83583 0.31604 0.86708 0.0
H1378 H 0.8307 0.39728 0.81232 0.0
H1379 H 0.86995 0.4409 0.84739 0.0
H1380 H 0.84317 0.36616 0.94726 0.0
H1381 H 0.87664 0.34643 0.95633 0.0
H1382 H 0.84545 0.32192 0.92876 0.0
H1383 H 0.89775 0.31155 0.88334 0.0
H1384 H 0.92916 0.33605 0.91077 0.0
H1385 H 0.93137 0.34865 0.87072 0.0
H1386 H 0.91005 0.476 0.88858 0.0
H1387 H 0.94805 0.49966 0.93269 0.0
H1388 H 0.93473 0.39545 0.95686 0.0
C1389 C 0.84289 0.34299 0.86248 0.0
C1390 C 0.8285 0.35336 0.83766 0.0
C1391 C 0.83881 0.38894 0.8325 0.0
C1392 C 0.86208 0.41384 0.85186 0.0
C1393 C 0.87597 0.40266 0.87579 0.0
C1394 C 0.86705 0.368 0.88101 0.0
C1395 C 0.88738 0.36264 0.90716 0.0
C1396 C 0.86161 0.34846 0.93663 0.0
C1397 C 0.91292 0.33827 0.8921 0.0
C1398 C 0.90806 0.39998 0.9167 0.0
C1399 C 0.90126 0.42251 0.89797 0.0
C1400 C 0.91618 0.45843 0.9028 0.0
C1401 C 0.93825 0.47173 0.92756 0.0
C1402 C 0.94587 0.44943 0.94698 0.0
C1403 C 0.93045 0.41298 0.9415 0.0
H1404 H 0.72652 0.87747 0.81684 0.0
H1405 H 0.71186 0.79067 0.87163 0.0
H1406 H 0.66901 0.81637 0.91422 0.0
H1407 H 0.72291 0.94446 0.88969 0.0
H1408 H 0.70002 0.96919 0.87172 0.0
H1409 H 0.72917 0.94373 0.84552 0.0
H1410 H 0.6776 0.91074 0.81222 0.0
H1411 H 0.64824 0.93597 0.83846 0.0
H1412 H 0.63614 0.88867 0.83357 0.0
H1413 H 0.62464 0.85068 0.94998 0.0
H1414 H 0.58909 0.89365 0.97877 0.0
H1415 H 0.63486 0.96033 0.90286 0.0
C1416 C 0.71442 0.86407 0.83796 0.0
C1417 C 0.72293 0.83216 0.84106 0.0
C1418 C 0.70639 0.81542 0.86901 0.0
C1419 C 0.68169 0.82971 0.89322 0.0
C1420 C 0.67375 0.86112 0.88947 0.0
C1421 C 0.69009 0.87841 0.86278 0.0
C1422 C 0.67777 0.91244 0.86525 0.0
C1423 C 0.70935 0.94434 0.86823 0.0
C1424 C 0.65882 0.91191 0.83561 0.0
C1425 C 0.65167 0.91141 0.89717 0.0
C1426 C 0.64939 0.88137 0.91058 0.0
C1427 C 0.62645 0.87434 0.93967 0.0
C1428 C 0.60601 0.89884 0.95578 0.0
C1429 C 0.60875 0.93052 0.94324 0.0
C1430 C 0.63188 0.93647 0.91327 0.0
H1431 H 0.82449 0.672 0.19968 0.0
H1432 H 0.89561 0.77412 0.19201 0.0
H1433 H 0.93917 0.74653 0.15358 0.0
H1434 H 0.89596 0.62773 0.20008 0.0
H1435 H 0.87517 0.58732 0.1767 0.0
H1436 H 0.84806 0.61505 0.20262 0.0
H1437 H 0.81806 0.61739 0.15242 0.0
H1438 H 0.84514 0.58973 0.12637 0.0
H1439 H 0.84541 0.63179 0.11555 0.0
H1440 H 0.97596 0.70792 0.11468 0.0
H1441 H 1.00344 0.66073 0.08114 0.0
H1442 H 0.91151 0.58311 0.11673 0.0
C1443 C 0.84919 0.68855 0.18992 0.0
C1444 C 0.85566 0.72567 0.19829 0.0
C1445 C 0.88888 0.74596 0.18523 0.0
C1446 C 0.91425 0.73042 0.16348 0.0
C1447 C 0.90695 0.69408 0.15536 0.0
C1448 C 0.87545 0.67326 0.16849 0.0
C1449 C 0.87512 0.63464 0.15652 0.0
C1450 C 0.87348 0.61503 0.18572 0.0
C1451 C 0.84409 0.61738 0.13652 0.0
C1452 C 0.91104 0.63724 0.13456 0.0
C1453 C 0.92893 0.67177 0.1341 0.0
C1454 C 0.96229 0.68071 0.11509 0.0
C1455 C 0.97781 0.65368 0.09609 0.0
C1456 C 0.96018 0.61793 0.09628 0.0
C1457 C 0.92626 0.60998 0.11604 0.0
H1458 H 0.31489 0.82914 0.18385 0.0
H1459 H 0.40244 0.80279 0.21805 0.0
H1460 H 0.44492 0.83474 0.17685 0.0
H1461 H 0.3464 0.82784 0.09809 0.0
H1462 H 0.33443 0.86787 0.09431 0.0
H1463 H 0.30966 0.84167 0.12555 0.0
H1464 H 0.32231 0.89537 0.17033 0.0
H1465 H 0.34732 0.92207 0.13975 0.0
H1466 H 0.36753 0.91843 0.17447 0.0
H1467 H 0.47776 0.8627 0.12717 0.0
H1468 H 0.50088 0.90262 0.08484 0.0
H1469 H 0.39432 0.91845 0.08813 0.0
C1470 C 0.34289 0.82972 0.18245 0.0
C1471 C 0.35494 0.81172 0.20327 0.0
C1472 C 0.39214 0.81466 0.20141 0.0
C1473 C 0.41663 0.83278 0.17804 0.0
C1474 C 0.40383 0.8484 0.15671 0.0
C1475 C 0.36807 0.84858 0.15966 0.0
C1476 C 0.36236 0.87181 0.13663 0.0
C1477 C 0.33669 0.85103 0.11219 0.0
C1478 C 0.34913 0.90383 0.15648 0.0
C1479 C 0.40011 0.88285 0.11925 0.0
C1480 C 0.42356 0.86865 0.1309 0.0
C1481 C 0.45979 0.8746 0.11825 0.0
C1482 C 0.47269 0.89707 0.09408 0.0
C1483 C 0.44956 0.91394 0.08357 0.0
C1484 C 0.4127 0.90604 0.09588 0.0
H1485 H 0.6966 0.23031 0.19278 0.0
H1486 H 0.74048 0.14802 0.21526 0.0
H1487 H 0.70388 0.10459 0.17801 0.0
H1488 H 0.60596 0.17553 0.1882 0.0
H1489 H 0.59842 0.1948 0.15465 0.0
H1490 H 0.62751 0.22049 0.18372 0.0
H1491 H 0.67853 0.23377 0.13568 0.0
H1492 H 0.64957 0.20834 0.1065 0.0
H1493 H 0.69178 0.19788 0.10709 0.0
H1494 H 0.66574 0.07005 0.13681 0.0
H1495 H 0.62763 0.04626 0.093 0.0
H1496 H 0.60472 0.14826 0.097 0.0
C1497 C 0.69844 0.20315 0.18994 0.0
C1498 C 0.72197 0.19289 0.20696 0.0
C1499 C 0.72322 0.15694 0.20248 0.0
C1500 C 0.70229 0.13186 0.18141 0.0
C1501 C 0.67962 0.14274 0.16507 0.0
C1502 C 0.67729 0.17743 0.16904 0.0
C1503 C 0.65065 0.18163 0.14801 0.0
C1504 C 0.61875 0.19385 0.16996 0.0
C1505 C 0.66873 0.2069 0.12283 0.0
C1506 C 0.63937 0.14408 0.13099 0.0
C1507 C 0.65631 0.1222 0.14161 0.0
C1508 C 0.65182 0.08676 0.12874 0.0
C1509 C 0.62991 0.07335 0.10399 0.0
C1510 C 0.61236 0.095 0.09239 0.0
C1511 C 0.6169 0.13086 0.10625 0.0
H1512 H 0.678 0.71515 0.83529 0.0
H1513 H 0.77907 0.68516 0.82842 0.0
H1514 H 0.75033 0.63931 0.86287 0.0
H1515 H 0.64647 0.70221 0.91892 0.0
H1516 H 0.60069 0.68381 0.91254 0.0
H1517 H 0.62886 0.71407 0.88624 0.0
H1518 H 0.61493 0.66812 0.83473 0.0
H1519 H 0.58686 0.63764 0.86098 0.0
H1520 H 0.62321 0.62496 0.8321 0.0
H1521 H 0.71275 0.59804 0.89845 0.0
H1522 H 0.66768 0.56509 0.93756 0.0
H1523 H 0.58928 0.61903 0.92217 0.0
C1524 C 0.69395 0.69871 0.84082 0.0
C1525 C 0.73084 0.70378 0.82884 0.0
C1526 C 0.75087 0.68206 0.83716 0.0
C1527 C 0.73473 0.65562 0.85657 0.0
C1528 C 0.69838 0.65089 0.86743 0.0
C1529 C 0.6781 0.67176 0.86009 0.0
C1530 C 0.63959 0.66128 0.87594 0.0
C1531 C 0.62825 0.69218 0.89984 0.0
C1532 C 0.61467 0.64716 0.84935 0.0
C1533 C 0.64191 0.63213 0.89421 0.0
C1534 C 0.6761 0.62637 0.8883 0.0
C1535 C 0.68576 0.60189 0.903 0.0
C1536 C 0.66003 0.58323 0.925 0.0
C1537 C 0.62514 0.58913 0.93214 0.0
C1538 C 0.61564 0.61351 0.91629 0.0
H1539 H 0.37627 0.58996 0.84258 0.0
H1540 H 0.44208 0.69539 0.85492 0.0
H1541 H 0.46667 0.68119 0.90072 0.0
H1542 H 0.3568 0.5802 0.93197 0.0
H1543 H 0.35853 0.53445 0.92375 0.0
H1544 H 0.34422 0.55396 0.8939 0.0
H1545 H 0.39283 0.53323 0.84925 0.0
H1546 H 0.40763 0.5143 0.87914 0.0
H1547 H 0.4388 0.54624 0.85636 0.0
H1548 H 0.49112 0.6524 0.93758 0.0
H1549 H 0.50596 0.61491 0.97215 0.0
H1550 H 0.41977 0.52984 0.94018 0.0
C1551 C 0.39522 0.61016 0.85558 0.0
C1552 C 0.40737 0.64377 0.84564 0.0
C1553 C 0.43247 0.66962 0.86259 0.0
C1554 C 0.44658 0.66173 0.88843 0.0
C1555 C 0.43482 0.62804 0.8972 0.0
C1556 C 0.40908 0.60288 0.88186 0.0
C1557 C 0.40178 0.56848 0.89561 0.0
C1558 C 0.36302 0.55872 0.91231 0.0
C1559 C 0.41081 0.53883 0.86848 0.0
C1560 C 0.42773 0.57817 0.92075 0.0
C1561 C 0.44695 0.61241 0.92078 0.0
C1562 C 0.47526 0.62605 0.93897 0.0
C1563 C 0.48362 0.60445 0.95834 0.0
C1564 C 0.46361 0.56955 0.9595 0.0
C1565 C 0.43509 0.55652 0.9406 0.0
H1566 H 0.39343 0.31757 0.81078 0.0
H1567 H 0.30771 0.37355 0.83328 0.0
H1568 H 0.343 0.41946 0.86974 0.0
H1569 H 0.41633 0.33263 0.89079 0.0
H1570 H 0.46389 0.33913 0.87878 0.0
H1571 H 0.434 0.31223 0.85108 0.0
H1572 H 0.46446 0.35085 0.80539 0.0
H1573 H 0.49448 0.37811 0.83297 0.0
H1574 H 0.46758 0.39757 0.81379 0.0
H1575 H 0.38087 0.45311 0.90834 0.0
H1576 H 0.42145 0.47552 0.94887 0.0
H1577 H 0.48832 0.40367 0.9012 0.0
C1578 C 0.38249 0.33977 0.82324 0.0
C1579 C 0.34809 0.34236 0.81931 0.0
C1580 C 0.33422 0.37145 0.83585 0.0
C1581 C 0.35405 0.39764 0.85648 0.0
C1582 C 0.38779 0.39444 0.85996 0.0
C1583 C 0.40214 0.36645 0.84397 0.0
C1584 C 0.43821 0.3688 0.85425 0.0
C1585 C 0.43808 0.33627 0.86965 0.0
C1586 C 0.46796 0.37415 0.82484 0.0
C1587 C 0.44085 0.40155 0.87976 0.0
C1588 C 0.41148 0.41588 0.88193 0.0
C1589 C 0.40487 0.44337 0.9059 0.0
C1590 C 0.42866 0.45653 0.9286 0.0
C1591 C 0.45947 0.44331 0.92677 0.0
C1592 C 0.46591 0.41542 0.90196 0.0
H1593 H 0.57982 0.29656 0.92544 0.0
H1594 H 0.69496 0.31881 0.90915 0.0
H1595 H 0.69702 0.36751 0.95495 0.0
H1596 H 0.56881 0.36749 0.92572 0.0
H1597 H 0.53236 0.37191 0.95826 0.0
H1598 H 0.53778 0.32924 0.93955 0.0
H1599 H 0.54108 0.31239 0.99622 0.0
H1600 H 0.53416 0.35509 1.01556 0.0
H1601 H 0.57202 0.3404 0.02254 0.0
H1602 H 0.68786 0.42604 0.97835 0.0
H1603 H 0.66732 0.48142 0.98667 0.0
H1604 H 0.55785 0.42185 0.99124 0.0
C1605 C 0.60529 0.30989 0.93335 0.0
C1606 C 0.63707 0.30508 0.91325 0.0
C1607 C 0.67018 0.32286 0.92394 0.0
C1608 C 0.67158 0.35059 0.95006 0.0
C1609 C 0.63961 0.35897 0.96592 0.0
C1610 C 0.60679 0.33783 0.95922 0.0
C1611 C 0.57677 0.35621 0.97363 0.0
C1612 C 0.55266 0.35624 0.94772 0.0
C1613 C 0.55472 0.34006 1.0038 0.0
C1614 C 0.59822 0.3925 0.98405 0.0
C1615 C 0.63427 0.39351 0.98078 0.0
C1616 C 0.65959 0.42538 0.98237 0.0
C1617 C 0.6478 0.45672 0.98654 0.0
C1618 C 0.61106 0.45572 0.98885 0.0
C1619 C 0.58618 0.42335 0.9892 0.0
H1620 H 0.70033 0.38761 0.1195 0.0
H1621 H 0.6627 0.41841 0.22284 0.0
H1622 H 0.62079 0.4473 0.20609 0.0
H1623 H 0.70203 0.46703 0.09298 0.0
H1624 H 0.68766 0.44728 0.05357 0.0
H1625 H 0.71136 0.42526 0.07352 0.0
H1626 H 0.65961 0.37007 0.07035 0.0
H1627 H 0.63536 0.39205 0.05082 0.0
H1628 H 0.61494 0.37384 0.08812 0.0
H1629 H 0.58586 0.47651 0.17811 0.0
H1630 H 0.56267 0.50541 0.14092 0.0
H1631 H 0.62591 0.45865 0.05659 0.0
C1632 C 0.68326 0.40032 0.13871 0.0
C1633 C 0.68488 0.40058 0.17258 0.0
C1634 C 0.66163 0.41723 0.19676 0.0
C1635 C 0.6378 0.43386 0.18748 0.0
C1636 C 0.63742 0.4336 0.15392 0.0
C1637 C 0.65956 0.41725 0.1299 0.0
C1638 C 0.65567 0.42266 0.0956 0.0
C1639 C 0.6913 0.4417 0.0779 0.0
C1640 C 0.6405 0.38756 0.07502 0.0
C1641 C 0.62885 0.44569 0.10415 0.0
C1642 C 0.61803 0.45109 0.13786 0.0
C1643 C 0.59389 0.47215 0.15167 0.0
C1644 C 0.58081 0.48835 0.13048 0.0
C1645 C 0.59236 0.48375 0.0961 0.0
C1646 C 0.61647 0.46209 0.08278 0.0
H1647 H 0.72085 0.68067 0.2031 0.0
H1648 H 0.68425 0.77763 0.21699 0.0
H1649 H 0.63227 0.74627 0.18864 0.0
H1650 H 0.6977 0.64813 0.12503 0.0
H1651 H 0.68366 0.60292 0.13199 0.0
H1652 H 0.71651 0.63284 0.15486 0.0
H1653 H 0.67733 0.61785 0.20999 0.0
H1654 H 0.64453 0.5877 0.18694 0.0
H1655 H 0.6317 0.62238 0.21746 0.0
H1656 H 0.58778 0.70546 0.15445 0.0
H1657 H 0.55542 0.65839 0.11551 0.0
H1658 H 0.61816 0.58779 0.12982 0.0
C1659 C 0.70135 0.69516 0.20122 0.0
C1660 C 0.706 0.73133 0.21299 0.0
C1661 C 0.68091 0.74975 0.20839 0.0
C1662 C 0.65121 0.73214 0.19261 0.0
C1663 C 0.64693 0.69617 0.18212 0.0
C1664 C 0.6713 0.6779 0.18634 0.0
C1665 C 0.66184 0.63982 0.17136 0.0
C1666 C 0.69168 0.63041 0.1442 0.0
C1667 C 0.65334 0.61552 0.19804 0.0
C1668 C 0.62875 0.6397 0.15721 0.0
C1669 C 0.6204 0.67237 0.16375 0.0
C1670 C 0.59326 0.67949 0.14999 0.0
C1671 C 0.57488 0.65273 0.12822 0.0
C1672 C 0.5837 0.61959 0.12108 0.0
C1673 C 0.61016 0.61269 0.13631 0.0
H1674 H 0.45596 0.74234 0.08537 0.0
H1675 H 0.34405 0.70721 0.11945 0.0
H1676 H 0.34056 0.65658 0.07596 0.0
H1677 H 0.4505 0.68027 0.99145 0.0
H1678 H 0.49543 0.67844 0.9951 0.0
H1679 H 0.4809 0.71897 1.008 0.0
H1680 H 0.50364 0.71989 0.06365 0.0
H1681 H 0.51349 0.67781 0.05096 0.0
H1682 H 0.48284 0.68493 0.0881 0.0
H1683 H 0.35597 0.60027 0.06087 0.0
H1684 H 0.38486 0.55274 0.06376 0.0
H1685 H 0.4883 0.61992 0.03883 0.0
C1686 C 0.43025 0.72524 0.08228 0.0
C1687 C 0.40141 0.72606 0.10774 0.0
C1688 C 0.3675 0.70523 0.10156 0.0
C1689 C 0.36523 0.67633 0.07659 0.0
C1690 C 0.39675 0.67036 0.05717 0.0
C1691 C 0.42848 0.69575 0.05803 0.0
C1692 C 0.46016 0.68027 0.04203 0.0
C1693 C 0.47239 0.68998 1.00702 0.0
C1694 C 0.49172 0.69132 0.06252 0.0
C1695 C 0.44269 0.64174 0.0408 0.0
C1696 C 0.40582 0.63634 0.04708 0.0
C1697 C 0.38459 0.60401 0.05445 0.0
C1698 C 0.40125 0.57731 0.05677 0.0
C1699 C 0.43884 0.5833 0.05228 0.0
C1700 C 0.45949 0.61515 0.04271 0.0
H1701 H 0.35711 0.31128 0.18488 0.0
H1702 H 0.31462 0.38654 0.26028 0.0
H1703 H 0.35205 0.43526 0.23123 0.0
H1704 H 0.44668 0.36339 0.16605 0.0
H1705 H 0.44893 0.34923 0.12213 0.0
H1706 H 0.42187 0.32061 0.15053 0.0
H1707 H 0.36728 0.31552 0.1216 0.0
H1708 H 0.39353 0.34438 0.09321 0.0
H1709 H 0.35356 0.35461 0.11776 0.0
H1710 H 0.39408 0.4752 0.19456 0.0
H1711 H 0.4311 0.50418 0.14827 0.0
H1712 H 0.44053 0.40249 0.09307 0.0
C1713 C 0.35581 0.33809 0.19511 0.0
C1714 C 0.3332 0.34563 0.22458 0.0
C1715 C 0.33182 0.38068 0.23754 0.0
C1716 C 0.35308 0.40833 0.22137 0.0
C1717 C 0.37488 0.40016 0.19205 0.0
C1718 C 0.37588 0.36587 0.17865 0.0
C1719 C 0.39899 0.36414 0.14529 0.0
C1720 C 0.43102 0.34842 0.14607 0.0
C1721 C 0.377 0.34346 0.11785 0.0
C1722 C 0.41065 0.40284 0.14199 0.0
C1723 C 0.39718 0.42314 0.16965 0.0
C1724 C 0.40465 0.45963 0.17269 0.0
C1725 C 0.42577 0.47584 0.14641 0.0
C1726 C 0.43834 0.45546 0.11725 0.0
C1727 C 0.43097 0.41855 0.11513 0.0
H1728 H 0.89968 0.73273 0.71778 0.0
H1729 H 0.79525 0.6697 0.69964 0.0
H1730 H 0.82292 0.62505 0.66349 0.0
H1731 H 0.94667 0.71238 0.63639 0.0
H1732 H 0.98657 0.70919 0.65077 0.0
H1733 H 0.95873 0.73703 0.67523 0.0
H1734 H 0.95359 0.70446 0.72461 0.0
H1735 H 0.98091 0.6759 0.70062 0.0
H1736 H 0.93714 0.65755 0.72075 0.0
H1737 H 0.86147 0.58609 0.62894 0.0
H1738 H 0.90871 0.55774 0.59626 0.0
H1739 H 0.98933 0.64337 0.63628 0.0
C1740 C 0.88261 0.70957 0.70618 0.0
C1741 C 0.84487 0.7057 0.71111 0.0
C1742 C 0.82395 0.67449 0.69559 0.0
C1743 C 0.83953 0.64845 0.67522 0.0
C1744 C 0.87648 0.65309 0.67078 0.0
C1745 C 0.89789 0.68281 0.6858 0.0
C1746 C 0.93704 0.68081 0.67667 0.0
C1747 C 0.95851 0.71168 0.65868 0.0
C1748 C 0.95313 0.67956 0.70751 0.0
C1749 C 0.93418 0.64585 0.65377 0.0
C1750 C 0.89885 0.63013 0.65117 0.0
C1751 C 0.88919 0.59796 0.63123 0.0
C1752 C 0.9162 0.58174 0.61304 0.0
C1753 C 0.95267 0.59743 0.61471 0.0
C1754 C 0.96167 0.62996 0.63553 0.0
H1755 H 0.3583 0.87464 0.72065 0.0
H1756 H 0.33292 0.77608 0.65557 0.0
H1757 H 0.3608 0.80653 0.60728 0.0
H1758 H 0.34577 0.93262 0.6682 0.0
H1759 H 0.38378 0.96688 0.67842 0.0
H1760 H 0.36052 0.93795 0.70797 0.0
H1761 H 0.41946 0.92111 0.71182 0.0
H1762 H 0.44297 0.95023 0.68256 0.0
H1763 H 0.4453 0.90466 0.67463 0.0
H1764 H 0.38927 0.84771 0.56602 0.0
H1765 H 0.4276 0.8938 0.53487 0.0
H1766 H 0.43895 0.96564 0.62612 0.0
C1767 C 0.35853 0.85951 0.69619 0.0
C1768 C 0.34282 0.823 0.6918 0.0
C1769 C 0.3445 0.80401 0.65952 0.0
C1770 C 0.36006 0.82117 0.63193 0.0
C1771 C 0.37441 0.8573 0.63701 0.0
C1772 C 0.3747 0.87612 0.66837 0.0
C1773 C 0.39448 0.91417 0.66701 0.0
C1774 C 0.36964 0.93939 0.68125 0.0
C1775 C 0.42752 0.92306 0.68506 0.0
C1776 C 0.40493 0.91392 0.62991 0.0
C1777 C 0.39243 0.8809 0.61316 0.0
C1778 C 0.39906 0.87365 0.57887 0.0
C1779 C 0.42045 0.90019 0.56131 0.0
C1780 C 0.43542 0.93366 0.57787 0.0
C1781 C 0.42672 0.94086 0.61263 0.0
H1782 H 0.14209 0.42134 0.72116 0.0
H1783 H 0.24346 0.4427 0.65797 0.0
H1784 H 0.21665 0.46919 0.62186 0.0
H1785 H 0.08908 0.3949 0.65533 0.0
H1786 H 0.05263 0.41359 0.67756 0.0
H1787 H 0.08079 0.39934 0.69983 0.0
H1788 H 0.0938 0.46147 0.73397 0.0
H1789 H 0.06624 0.47606 0.71117 0.0
H1790 H 0.11197 0.49927 0.71286 0.0
H1791 H 0.18 0.49194 0.59274 0.0
H1792 H 0.13246 0.50053 0.56528 0.0
H1793 H 0.05294 0.46207 0.64496 0.0
C1794 C 0.15848 0.43199 0.69985 0.0
C1795 C 0.19478 0.43072 0.69228 0.0
C1796 C 0.21563 0.44392 0.66399 0.0
C1797 C 0.20073 0.45918 0.64363 0.0
C1798 C 0.16497 0.46064 0.65192 0.0
C1799 C 0.14382 0.44677 0.67886 0.0
C1800 C 0.10534 0.44883 0.68021 0.0
C1801 C 0.08051 0.41198 0.67809 0.0
C1802 C 0.09365 0.47284 0.71141 0.0
C1803 C 0.10811 0.4653 0.64935 0.0
C1804 C 0.14304 0.4727 0.63406 0.0
C1805 C 0.15259 0.4865 0.60447 0.0
C1806 C 0.12552 0.49135 0.58916 0.0
C1807 C 0.08945 0.48217 0.60333 0.0
C1808 C 0.08053 0.46998 0.63424 0.0
H1809 H 0.66788 0.2083 0.7242 0.0
H1810 H 0.76998 0.20605 0.66362 0.0
H1811 H 0.73888 0.16794 0.61872 0.0
H1812 H 0.62059 0.12036 0.69643 0.0
H1813 H 0.57949 0.13309 0.69598 0.0
H1814 H 0.60977 0.15777 0.72434 0.0
H1815 H 0.61198 0.21482 0.7013 0.0
H1816 H 0.5816 0.19039 0.67293 0.0
H1817 H 0.62414 0.21642 0.65758 0.0
H1818 H 0.6961 0.12861 0.58044 0.0
H1819 H 0.6454 0.09645 0.55029 0.0
H1820 H 0.57128 0.13024 0.63294 0.0
C1821 C 0.6838 0.19967 0.70156 0.0
C1822 C 0.7216 0.20997 0.69778 0.0
C1823 C 0.74114 0.19823 0.6675 0.0
C1824 C 0.72366 0.17663 0.64175 0.0
C1825 C 0.68644 0.16739 0.6462 0.0
C1826 C 0.66673 0.17898 0.67522 0.0
C1827 C 0.62701 0.16726 0.67297 0.0
C1828 C 0.60811 0.14319 0.69897 0.0
C1829 C 0.6102 0.19912 0.67639 0.0
C1830 C 0.62738 0.14708 0.63821 0.0
C1831 C 0.66194 0.14697 0.62338 0.0
C1832 C 0.669 0.12887 0.59173 0.0
C1833 C 0.6401 0.11065 0.57479 0.0
C1834 C 0.60461 0.11127 0.58914 0.0
C1835 C 0.59825 0.1298 0.62125 0.0
H1836 H 0.85647 0.37625 0.32504 0.0
H1837 H 0.81964 0.2815 0.37132 0.0
H1838 H 0.85464 0.30919 0.41649 0.0
H1839 H 0.94535 0.39603 0.3441 0.0
H1840 H 0.95042 0.44301 0.35309 0.0
H1841 H 0.92019 0.4175 0.325 0.0
H1842 H 0.86857 0.44292 0.36048 0.0
H1843 H 0.89873 0.46862 0.38862 0.0
H1844 H 0.85852 0.43912 0.40392 0.0
H1845 H 0.89615 0.34352 0.45434 0.0
H1846 H 0.94172 0.3845 0.4848 0.0
H1847 H 0.9536 0.45987 0.41739 0.0
C1848 C 0.85511 0.3618 0.34518 0.0
C1849 C 0.83491 0.32656 0.34456 0.0
C1850 C 0.83468 0.30835 0.37103 0.0
C1851 C 0.85453 0.3239 0.39695 0.0
C1852 C 0.87468 0.35806 0.39657 0.0
C1853 C 0.87511 0.37712 0.37166 0.0
C1854 C 0.90066 0.41306 0.37722 0.0
C1855 C 0.93095 0.41766 0.34812 0.0
C1856 C 0.88041 0.44269 0.38289 0.0
C1857 C 0.91467 0.41068 0.40875 0.0
C1858 C 0.89902 0.37858 0.41925 0.0
C1859 C 0.90826 0.36895 0.44665 0.0
C1860 C 0.9343 0.39248 0.46383 0.0
C1861 C 0.95111 0.42567 0.45391 0.0
C1862 C 0.94076 0.43504 0.42608 0.0
H1863 H 0.70038 0.81557 0.36255 0.0
H1864 H 0.73634 0.878 0.28276 0.0
H1865 H 0.69987 0.91973 0.31099 0.0
H1866 H 0.60898 0.82876 0.37848 0.0
H1867 H 0.60546 0.83153 0.4227 0.0
H1868 H 0.63415 0.80587 0.39601 0.0
H1869 H 0.68741 0.84126 0.42584 0.0
H1870 H 0.65897 0.86704 0.45261 0.0
H1871 H 0.699 0.88845 0.42876 0.0
H1872 H 0.65928 0.95599 0.34827 0.0
H1873 H 0.61843 0.98334 0.39199 0.0
H1874 H 0.60829 0.89863 0.44868 0.0
C1875 C 0.70048 0.83786 0.35099 0.0
C1876 C 0.7222 0.8436 0.32029 0.0
C1877 C 0.72098 0.87334 0.30637 0.0
C1878 C 0.69999 0.89718 0.32222 0.0
C1879 C 0.6796 0.89134 0.35254 0.0
C1880 C 0.67953 0.86237 0.36688 0.0
C1881 C 0.65524 0.86277 0.39994 0.0
C1882 C 0.62411 0.8303 0.39923 0.0
C1883 C 0.67643 0.86502 0.42847 0.0
C1884 C 0.64214 0.89644 0.40183 0.0
C1885 C 0.65634 0.9124 0.3741 0.0
C1886 C 0.64798 0.94367 0.37014 0.0
C1887 C 0.62462 0.9591 0.39513 0.0
C1888 C 0.60994 0.94363 0.42413 0.0
C1889 C 0.61905 0.91168 0.42713 0.0
H1890 H 0.22039 0.6516 0.31757 0.0
H1891 H 0.24734 0.75138 0.38079 0.0
H1892 H 0.2135 0.7243 0.42883 0.0
H1893 H 0.12727 0.61903 0.3591 0.0
H1894 H 0.13547 0.57594 0.35013 0.0
H1895 H 0.15949 0.60835 0.32423 0.0
H1896 H 0.21252 0.58568 0.33817 0.0
H1897 H 0.18693 0.56266 0.37099 0.0
H1898 H 0.22489 0.59765 0.37943 0.0
H1899 H 0.17612 0.68861 0.46989 0.0
H1900 H 0.13124 0.64681 0.50127 0.0
H1901 H 0.1255 0.56901 0.41343 0.0
C1902 C 0.21955 0.66749 0.34164 0.0
C1903 C 0.23697 0.70368 0.34536 0.0
C1904 C 0.23451 0.72373 0.37717 0.0
C1905 C 0.21543 0.70852 0.40474 0.0
C1906 C 0.19871 0.67305 0.40038 0.0
C1907 C 0.20012 0.6526 0.3697 0.0
C1908 C 0.17817 0.61525 0.37242 0.0
C1909 C 0.14846 0.60421 0.35013 0.0
C1910 C 0.20221 0.58882 0.36482 0.0
C1911 C 0.16303 0.61881 0.40887 0.0
C1912 C 0.17616 0.65214 0.42453 0.0
C1913 C 0.16592 0.66232 0.45797 0.0
C1914 C 0.14065 0.63828 0.47567 0.0
C1915 C 0.1255 0.60444 0.46001 0.0
C1916 C 0.13751 0.59425 0.4263 0.0
H1917 H 0.43011 0.19418 0.36995 0.0
H1918 H 0.42274 0.11483 0.28331 0.0
H1919 H 0.44587 0.07659 0.31121 0.0
H1920 H 0.5117 0.18351 0.38758 0.0
H1921 H 0.50014 0.19056 0.43185 0.0
H1922 H 0.48066 0.21066 0.40618 0.0
H1923 H 0.41716 0.18167 0.43192 0.0
H1924 H 0.43643 0.16203 0.45814 0.0
H1925 H 0.40512 0.13478 0.43183 0.0
H1926 H 0.47257 0.04819 0.34827 0.0
H1927 H 0.49767 0.03134 0.39247 0.0
H1928 H 0.48796 0.13058 0.45313 0.0
C1929 C 0.43274 0.16848 0.35712 0.0
C1930 C 0.4246 0.15726 0.3246 0.0
C1931 C 0.42905 0.12381 0.30825 0.0
C1932 C 0.44209 0.10197 0.32389 0.0
C1933 C 0.45068 0.11414 0.35574 0.0
C1934 C 0.44599 0.14657 0.37221 0.0
C1935 C 0.45843 0.15418 0.40575 0.0
C1936 C 0.48958 0.18664 0.40794 0.0
C1937 C 0.42743 0.15839 0.43354 0.0
C1938 C 0.47064 0.12092 0.40564 0.0
C1939 C 0.46614 0.09807 0.37667 0.0
C1940 C 0.47605 0.06581 0.37116 0.0
C1941 C 0.49041 0.05651 0.39626 0.0
C1942 C 0.49437 0.0794 0.42637 0.0
C1943 C 0.48475 0.11212 0.43066 0.0
H1944 H 0.66845 0.86204 0.63714 0.0
H1945 H 0.59506 0.8567 0.72794 0.0
H1946 H 0.57383 0.90718 0.71775 0.0
H1947 H 0.68559 0.96173 0.6367 0.0
H1948 H 0.68583 0.95468 0.59254 0.0
H1949 H 0.70221 0.92557 0.6117 0.0
H1950 H 0.65824 0.87248 0.5844 0.0
H1951 H 0.64144 0.90123 0.56559 0.0
H1952 H 0.61121 0.8718 0.5916 0.0
H1953 H 0.55074 0.94742 0.69104 0.0
H1954 H 0.52947 0.97424 0.65096 0.0
H1955 H 0.6192 0.95457 0.57844 0.0
C1956 C 0.64933 0.87291 0.65563 0.0
C1957 C 0.6338 0.85641 0.6836 0.0
C1958 C 0.60764 0.86982 0.70674 0.0
C1959 C 0.59551 0.89841 0.70112 0.0
C1960 C 0.61007 0.91328 0.67235 0.0
C1961 C 0.63692 0.90131 0.65023 0.0
C1962 C 0.64407 0.91752 0.61875 0.0
C1963 C 0.68166 0.9413 0.61471 0.0
C1964 C 0.63836 0.88907 0.58834 0.0
C1965 C 0.61581 0.93885 0.62581 0.0
C1966 C 0.59678 0.93671 0.65701 0.0
C1967 C 0.56621 0.95034 0.66699 0.0
C1968 C 0.55432 0.96562 0.64416 0.0
C1969 C 0.57285 0.96663 0.61177 0.0
C1970 C 0.60471 0.95444 0.6032 0.0
H1971 H 0.69753 0.23581 0.36905 0.0
H1972 H 0.75111 0.15705 0.30954 0.0
H1973 H 0.72176 0.11536 0.3478 0.0
H1974 H 0.70052 0.21155 0.44896 0.0
H1975 H 0.65663 0.21814 0.46631 0.0
H1976 H 0.68278 0.24325 0.43475 0.0
H1977 H 0.63114 0.22215 0.40034 0.0
H1978 H 0.60467 0.19545 0.43034 0.0
H1979 H 0.61443 0.17586 0.38808 0.0
H1980 H 0.68568 0.08038 0.39114 0.0
H1981 H 0.64243 0.05445 0.43606 0.0
H1982 H 0.61213 0.15462 0.46843 0.0
C1983 C 0.70296 0.20982 0.36401 0.0
C1984 C 0.72666 0.20008 0.33589 0.0
C1985 C 0.7331 0.16563 0.33061 0.0
C1986 C 0.7166 0.14147 0.35235 0.0
C1987 C 0.69349 0.15173 0.37962 0.0
C1988 C 0.68644 0.18497 0.38558 0.0
C1989 C 0.65953 0.18849 0.41648 0.0
C1990 C 0.67586 0.21706 0.44321 0.0
C1991 C 0.62541 0.19587 0.40828 0.0
C1992 C 0.65266 0.15211 0.42648 0.0
C1993 C 0.67268 0.13139 0.40498 0.0
C1994 C 0.67002 0.09643 0.40843 0.0
C1995 C 0.64557 0.08195 0.4342 0.0
C1996 C 0.62401 0.1024 0.45614 0.0
C1997 C 0.62837 0.13819 0.4524 0.0
H1998 H 0.83915 0.63645 0.42614 0.0
H1999 H 0.87185 0.61996 0.32013 0.0
H2000 H 0.92114 0.59516 0.32911 0.0
H2001 H 0.92442 0.65987 0.45086 0.0
H2002 H 0.91042 0.63732 0.48657 0.0
H2003 H 0.87896 0.65428 0.47091 0.0
H2004 H 0.83693 0.59212 0.46556 0.0
H2005 H 0.86845 0.57501 0.48107 0.0
H2006 H 0.85372 0.5555 0.44175 0.0
H2007 H 0.96922 0.57318 0.35197 0.0
H2008 H 1.00874 0.55846 0.38613 0.0
H2009 H 0.93672 0.58407 0.47425 0.0
C2010 C 0.85604 0.62706 0.40458 0.0
C2011 C 0.85125 0.62998 0.37246 0.0
C2012 C 0.87508 0.61837 0.34514 0.0
C2013 C 0.90301 0.60394 0.34994 0.0
C2014 C 0.90642 0.60092 0.38212 0.0
C2015 C 0.88327 0.61211 0.40882 0.0
C2016 C 0.89186 0.60639 0.44102 0.0
C2017 C 0.90203 0.64155 0.46364 0.0
C2018 C 0.8609 0.58072 0.45835 0.0
C2019 C 0.92354 0.59029 0.42851 0.0
C2020 C 0.93219 0.58739 0.3946 0.0
C2021 C 0.96236 0.57509 0.37854 0.0
C2022 C 0.98453 0.5666 0.39798 0.0
C2023 C 0.97602 0.57057 0.43282 0.0
C2024 C 0.94442 0.58125 0.4477 0.0
H2025 H 0.33598 0.80449 0.37718 0.0
H2026 H 0.3784 0.85321 0.28885 0.0
H2027 H 0.42085 0.89882 0.32006 0.0
H2028 H 0.34642 0.88576 0.43727 0.0
H2029 H 0.35999 0.86635 0.46765 0.0
H2030 H 0.33051 0.83945 0.43946 0.0
H2031 H 0.3741 0.79812 0.42082 0.0
H2032 H 0.40399 0.82491 0.44857 0.0
H2033 H 0.41996 0.8159 0.40519 0.0
H2034 H 0.45861 0.93939 0.36083 0.0
H2035 H 0.49317 0.96869 0.4066 0.0
H2036 H 0.43155 0.89086 0.46776 0.0
C2037 C 0.35382 0.82522 0.36472 0.0
C2038 C 0.35353 0.82585 0.33074 0.0
C2039 C 0.37795 0.85262 0.31493 0.0
C2040 C 0.40213 0.87859 0.33248 0.0
C2041 C 0.40214 0.87716 0.36584 0.0
C2042 C 0.37891 0.85096 0.38179 0.0
C2043 C 0.38624 0.85432 0.41725 0.0
C2044 C 0.35386 0.86192 0.44187 0.0
C2045 C 0.39671 0.82134 0.42328 0.0
C2046 C 0.41757 0.88598 0.4185 0.0
C2047 C 0.42564 0.89922 0.38877 0.0
C2048 C 0.45263 0.92907 0.38411 0.0
C2049 C 0.47206 0.94564 0.41028 0.0
C2050 C 0.46518 0.93202 0.44063 0.0
C2051 C 0.43755 0.90169 0.44473 0.0
H2052 H 0.16823 0.32309 0.31097 0.0
H2053 H 0.26098 0.35887 0.3625 0.0
H2054 H 0.23233 0.40169 0.39995 0.0
H2055 H 0.1538 0.41327 0.31696 0.0
H2056 H 0.1059 0.39927 0.3215 0.0
H2057 H 0.13314 0.37008 0.29832 0.0
H2058 H 0.10147 0.32269 0.33559 0.0
H2059 H 0.07413 0.35164 0.35882 0.0
H2060 H 0.10047 0.33336 0.3798 0.0
H2061 H 0.19468 0.44092 0.43243 0.0
H2062 H 0.14827 0.47225 0.4604 0.0
H2063 H 0.07827 0.41528 0.38883 0.0
C2064 C 0.18245 0.3398 0.33024 0.0
C2065 C 0.21687 0.33613 0.33426 0.0
C2066 C 0.23444 0.35947 0.35941 0.0
C2067 C 0.21844 0.38459 0.38067 0.0
C2068 C 0.18486 0.38744 0.37614 0.0
C2069 C 0.16698 0.36597 0.35148 0.0
C2070 C 0.13126 0.37564 0.35205 0.0
C2071 C 0.131 0.39042 0.32031 0.0
C2072 C 0.09998 0.34394 0.35687 0.0
C2073 C 0.13126 0.40448 0.38195 0.0
C2074 C 0.16304 0.41122 0.39475 0.0
C2075 C 0.16991 0.43623 0.42234 0.0
C2076 C 0.14345 0.45426 0.43788 0.0
C2077 C 0.10996 0.44731 0.42635 0.0
C2078 C 0.104 0.42227 0.39757 0.0
H2079 H 0.38666 0.21402 0.73288 0.0
H2080 H 0.30393 0.19752 0.67056 0.0
H2081 H 0.33158 0.15419 0.63193 0.0
H2082 H 0.45905 0.20668 0.66525 0.0
H2083 H 0.48136 0.18373 0.68582 0.0
H2084 H 0.45497 0.21325 0.70975 0.0
H2085 H 0.41759 0.16336 0.74205 0.0
H2086 H 0.44384 0.13365 0.71812 0.0
H2087 H 0.39603 0.12262 0.71967 0.0
H2088 H 0.36548 0.11053 0.60089 0.0
H2089 H 0.40924 0.07578 0.57392 0.0
H2090 H 0.47482 0.12058 0.65198 0.0
C2091 C 0.37433 0.20115 0.71115 0.0
C2092 C 0.34281 0.20965 0.70499 0.0
C2093 C 0.32803 0.19222 0.67597 0.0
C2094 C 0.34345 0.16711 0.65388 0.0
C2095 C 0.37403 0.15914 0.66072 0.0
C2096 C 0.38981 0.17591 0.68831 0.0
C2097 C 0.42367 0.16296 0.68852 0.0
C2098 C 0.45673 0.19347 0.68725 0.0
C2099 C 0.42007 0.14457 0.71891 0.0
C2100 C 0.42439 0.13653 0.65671 0.0
C2101 C 0.39485 0.13447 0.6417 0.0
C2102 C 0.38864 0.11193 0.61249 0.0
C2103 C 0.41359 0.09184 0.59751 0.0
C2104 C 0.44531 0.09438 0.61094 0.0
C2105 C 0.45045 0.11687 0.64146 0.0
H2106 H 0.83866 0.30748 0.65901 0.0
H2107 H 0.84962 0.37945 0.75007 0.0
H2108 H 0.88468 0.42693 0.71829 0.0
H2109 H 0.93099 0.34048 0.62268 0.0
H2110 H 0.91953 0.33206 0.58137 0.0
H2111 H 0.89384 0.30542 0.61192 0.0
H2112 H 0.83651 0.32098 0.60049 0.0
H2113 H 0.86259 0.34857 0.57083 0.0
H2114 H 0.83418 0.36643 0.60528 0.0
H2115 H 0.91502 0.46752 0.67546 0.0
H2116 H 0.9507 0.49446 0.62729 0.0
H2117 H 0.92732 0.3938 0.56514 0.0
C2118 C 0.84856 0.33329 0.67211 0.0
C2119 C 0.84084 0.34032 0.7068 0.0
C2120 C 0.85493 0.37392 0.7234 0.0
C2121 C 0.87469 0.401 0.70554 0.0
C2122 C 0.88114 0.39358 0.67116 0.0
C2123 C 0.86962 0.36018 0.65475 0.0
C2124 C 0.8833 0.35814 0.61812 0.0
C2125 C 0.90839 0.33251 0.60793 0.0
C2126 C 0.85229 0.34792 0.59747 0.0
C2127 C 0.90349 0.39583 0.61626 0.0
C2128 C 0.90127 0.41605 0.64701 0.0
C2129 C 0.91715 0.45186 0.65132 0.0
C2130 C 0.93696 0.46706 0.62375 0.0
C2131 C 0.94138 0.44632 0.59245 0.0
C2132 C 0.92397 0.41036 0.5887 0.0
H2133 H 0.20967 0.74412 0.67575 0.0
H2134 H 0.21928 0.6603 0.72574 0.0
H2135 H 0.18053 0.61747 0.6899 0.0
H2136 H 0.1154 0.70906 0.66918 0.0
H2137 H 0.11783 0.72233 0.62936 0.0
H2138 H 0.1484 0.74701 0.6575 0.0
H2139 H 0.20176 0.7386 0.61264 0.0
H2140 H 0.17144 0.71384 0.58431 0.0
H2141 H 0.20537 0.69486 0.59358 0.0
H2142 H 0.14211 0.58283 0.64847 0.0
H2143 H 0.10164 0.55888 0.6068 0.0
H2144 H 0.11059 0.66391 0.58502 0.0
C2145 C 0.2037 0.71675 0.6791 0.0
C2146 C 0.21846 0.7058 0.7034 0.0
C2147 C 0.20938 0.66964 0.707 0.0
C2148 C 0.18706 0.64493 0.6868 0.0
C2149 C 0.17315 0.65649 0.66321 0.0
C2150 C 0.18059 0.69154 0.65945 0.0
C2151 C 0.16033 0.69673 0.6331 0.0
C2152 C 0.13392 0.72017 0.64819 0.0
C2153 C 0.18628 0.71191 0.60419 0.0
C2154 C 0.14081 0.65906 0.62248 0.0
C2155 C 0.14906 0.63642 0.64012 0.0
C2156 C 0.13536 0.60034 0.63459 0.0
C2157 C 0.11247 0.5869 0.61058 0.0
C2158 C 0.10285 0.60927 0.5923 0.0
C2159 C 0.11726 0.64602 0.59853 0.0
loop_
_geom_bond_atom_site_label_1
_geom_bond_atom_site_label_2
_geom_bond_distance
_geom_bond_site_symmetry_2
_ccdc_geom_bond_type
Eu0 N29 2.600 . S
Eu0 N35 2.562 . S
Eu0 O44 2.462 . S
Eu0 O45 2.373 . S
Eu0 O47 2.432 . S
Eu0 O48 2.291 . S
Eu0 O52 2.335 . S
Eu0 O55 2.372 . S
Eu0 C64 2.787 . S
C1 N2 1.365 . S
C1 C4 1.405 . S
C1 C8 1.448 . S
N2 C1 1.365 . S
N2 C5 1.319 . S
N2 Eu11 2.600 . S
C3 C5 1.397 . S
C3 C6 1.367 . S
C3 H23 0.931 . S
C4 C1 1.405 . S
C4 C6 1.403 . S
C4 C10 1.439 . S
C5 N2 1.319 . S
C5 C3 1.397 . S
C5 H16 0.930 . S
C6 C3 1.367 . S
C6 C4 1.403 . S
C6 H27 0.929 . S
C7 C8 1.430 . S
C7 C9 1.387 . S
C7 C13 1.404 . S
C8 C1 1.448 . S
C8 C7 1.430 . S
C8 N12 1.351 . S
C9 C7 1.387 . S
C9 C10 1.374 . S
C9 H24 0.931 . S
C10 C4 1.439 . S
C10 C9 1.374 . S
C10 H25 0.931 . S
Eu11 N2 2.600 . S
Eu11 N12 2.562 . S
Eu11 O46 2.335 . S
Eu11 O49 2.372 . S
Eu11 O50 2.462 . S
Eu11 O51 2.373 . S
Eu11 O53 2.432 . S
Eu11 O54 2.291 . S
Eu11 C75 2.787 . S
N12 C8 1.351 . S
N12 Eu11 2.562 . S
N12 C14 1.325 . S
C13 C7 1.404 . S
C13 C15 1.366 . S
C13 H21 0.930 . S
C14 N12 1.325 . S
C14 C15 1.416 . S
C14 H20 0.929 . S
C15 C13 1.366 . S
C15 C14 1.416 . S
C15 H17 0.930 . S
H16 C5 0.930 . S
H17 C15 0.930 . S
H18 C33 0.930 . S
H19 C40 0.930 . S
H20 C14 0.929 . S
H21 C13 0.930 . S
H22 C36 0.929 . S
H23 C3 0.931 . S
H24 C9 0.931 . S
H25 C10 0.931 . S
H26 C31 0.931 . S
H27 C6 0.929 . S
H28 C39 0.930 . S
N29 Eu0 2.600 . S
N29 C30 1.365 . S
N29 C33 1.319 . S
C30 N29 1.365 . S
C30 C32 1.405 . S
C30 C38 1.448 . S
C31 H26 0.931 . S
C31 C33 1.397 . S
C31 C34 1.367 . S
C32 C30 1.405 . S
C32 C34 1.403 . S
C32 C65 1.439 . S
C33 H18 0.930 . S
C33 N29 1.319 . S
C33 C31 1.397 . S
C34 C31 1.367 . S
C34 C32 1.403 . S
C34 H41 0.929 . S
N35 Eu0 2.562 . S
N35 C36 1.325 . S
N35 C38 1.351 . S
C36 H22 0.929 . S
C36 N35 1.325 . S
C36 C40 1.416 . S
C37 C38 1.430 . S
C37 C39 1.404 . S
C37 C66 1.387 . S
C38 C30 1.448 . S
C38 N35 1.351 . S
C38 C37 1.430 . S
C39 H28 0.930 . S
C39 C37 1.404 . S
C39 C40 1.366 . S
C40 H19 0.930 . S
C40 C36 1.416 . S
C40 C39 1.366 . S
H41 C34 0.929 . S
H42 C65 0.931 . S
H43 C66 0.931 . S
O44 Eu0 2.462 . S
O44 C64 1.252 . S
O45 Eu0 2.373 . S
O45 C56 1.249 . S
O46 Eu11 2.335 . S
O46 C56 1.264 . S
O47 Eu0 2.432 . S
O47 C64 1.268 . S
O48 Eu0 2.291 . S
O48 C63 1.255 . S
O49 Eu11 2.372 . S
O49 C63 1.257 . S
O50 Eu11 2.462 . S
O50 C75 1.252 . S
O51 Eu11 2.373 . S
O51 C67 1.249 . S
O52 Eu0 2.335 . S
O52 C67 1.264 . S
O53 Eu11 2.432 . S
O53 C75 1.268 . S
O54 Eu11 2.291 . S
O54 C74 1.255 . S
O55 Eu0 2.372 . S
O55 C74 1.257 . S
C56 O45 1.249 . S
C56 O46 1.264 . S
C57 C60 1.382 . S
C57 C62 1.390 . S
C57 C64 1.506 . S
C58 C59 1.398 . S
C58 C62 1.392 . S
C59 C58 1.398 . S
C59 C61 1.372 . S
C59 H76 0.931 . S
C60 C57 1.382 . S
C60 C61 1.390 . S
C60 H77 0.931 . S
C61 C59 1.372 . S
C61 C60 1.390 . S
C61 H78 0.929 . S
C62 C57 1.390 . S
C62 C58 1.392 . S
C62 H79 0.930 . S
C63 O48 1.255 . S
C63 O49 1.257 . S
C64 Eu0 2.787 . S
C64 O44 1.252 . S
C64 O47 1.268 . S
C64 C57 1.506 . S
C65 C32 1.439 . S
C65 H42 0.931 . S
C65 C66 1.374 . S
C66 C37 1.387 . S
C66 H43 0.931 . S
C66 C65 1.374 . S
C67 O51 1.249 . S
C67 O52 1.264 . S
C68 C71 1.382 . S
C68 C72 1.390 . S
C68 C75 1.506 . S
C69 C70 1.398 . S
C69 C72 1.392 . S
C70 C69 1.398 . S
C70 C73 1.372 . S
C70 H80 0.931 . S
C71 C68 1.382 . S
C71 C73 1.390 . S
C71 H81 0.931 . S
C72 C68 1.390 . S
C72 C69 1.392 . S
C72 H82 0.930 . S
C73 C70 1.372 . S
C73 C71 1.390 . S
C73 H83 0.929 . S
C74 O54 1.255 . S
C74 O55 1.257 . S
C75 Eu11 2.787 . S
C75 O50 1.252 . S
C75 O53 1.268 . S
C75 C68 1.506 . S
H76 C59 0.931 . S
H77 C60 0.931 . S
H78 C61 0.929 . S
H79 C62 0.930 . S
H80 C70 0.931 . S
H81 C71 0.931 . S
H82 C72 0.930 . S
H83 C73 0.929 . S
Eu84 N113 2.600 . S
Eu84 N119 2.562 . S
Eu84 O128 2.462 . S
Eu84 O129 2.373 . S
Eu84 O131 2.432 . S
Eu84 O132 2.291 . S
Eu84 O136 2.335 . S
Eu84 O139 2.372 . S
Eu84 C148 2.787 . S
C85 N86 1.365 . S
C85 C88 1.405 . S
C85 C92 1.448 . S
N86 C85 1.365 . S
N86 C89 1.319 . S
N86 Eu95 2.600 . S
C87 C89 1.397 . S
C87 C90 1.367 . S
C87 H107 0.931 . S
C88 C85 1.405 . S
C88 C90 1.403 . S
C88 C94 1.439 . S
C89 N86 1.319 . S
C89 C87 1.397 . S
C89 H100 0.930 . S
C90 C87 1.367 . S
C90 C88 1.403 . S
C90 H111 0.929 . S
C91 C92 1.430 . S
C91 C93 1.387 . S
C91 C97 1.404 . S
C92 C85 1.448 . S
C92 C91 1.430 . S
C92 N96 1.351 . S
C93 C91 1.387 . S
C93 C94 1.374 . S
C93 H108 0.931 . S
C94 C88 1.439 . S
C94 C93 1.374 . S
C94 H109 0.931 . S
Eu95 N86 2.600 . S
Eu95 N96 2.562 . S
Eu95 O130 2.335 . S
Eu95 O133 2.372 . S
Eu95 O134 2.462 . S
Eu95 O135 2.373 . S
Eu95 O137 2.432 . S
Eu95 O138 2.291 . S
Eu95 C159 2.787 . S
N96 C92 1.351 . S
N96 Eu95 2.562 . S
N96 C98 1.325 . S
C97 C91 1.404 . S
C97 C99 1.366 . S
C97 H105 0.930 . S
C98 N96 1.325 . S
C98 C99 1.416 . S
C98 H104 0.929 . S
C99 C97 1.366 . S
C99 C98 1.416 . S
C99 H101 0.930 . S
H100 C89 0.930 . S
H101 C99 0.930 . S
H102 C117 0.930 . S
H103 C124 0.930 . S
H104 C98 0.929 . S
H105 C97 0.930 . S
H106 C120 0.929 . S
H107 C87 0.931 . S
H108 C93 0.931 . S
H109 C94 0.931 . S
H110 C115 0.931 . S
H111 C90 0.929 . S
H112 C123 0.930 . S
N113 Eu84 2.600 . S
N113 C114 1.365 . S
N113 C117 1.319 . S
C114 N113 1.365 . S
C114 C116 1.405 . S
C114 C122 1.448 . S
C115 H110 0.931 . S
C115 C117 1.397 . S
C115 C118 1.367 . S
C116 C114 1.405 . S
C116 C118 1.403 . S
C116 C149 1.439 . S
C117 H102 0.930 . S
C117 N113 1.319 . S
C117 C115 1.397 . S
C118 C115 1.367 . S
C118 C116 1.403 . S
C118 H125 0.929 . S
N119 Eu84 2.562 . S
N119 C120 1.325 . S
N119 C122 1.351 . S
C120 H106 0.929 . S
C120 N119 1.325 . S
C120 C124 1.416 . S
C121 C122 1.430 . S
C121 C123 1.404 . S
C121 C150 1.387 . S
C122 C114 1.448 . S
C122 N119 1.351 . S
C122 C121 1.430 . S
C123 H112 0.930 . S
C123 C121 1.404 . S
C123 C124 1.366 . S
C124 H103 0.930 . S
C124 C120 1.416 . S
C124 C123 1.366 . S
H125 C118 0.929 . S
H126 C149 0.931 . S
H127 C150 0.931 . S
O128 Eu84 2.462 . S
O128 C148 1.252 . S
O129 Eu84 2.373 . S
O129 C140 1.249 . S
O130 Eu95 2.335 . S
O130 C140 1.264 . S
O131 Eu84 2.432 . S
O131 C148 1.268 . S
O132 Eu84 2.291 . S
O132 C147 1.255 . S
O133 Eu95 2.372 . S
O133 C147 1.257 . S
O134 Eu95 2.462 . S
O134 C159 1.252 . S
O135 Eu95 2.373 . S
O135 C151 1.249 . S
O136 Eu84 2.335 . S
O136 C151 1.264 . S
O137 Eu95 2.432 . S
O137 C159 1.268 . S
O138 Eu95 2.291 . S
O138 C158 1.255 . S
O139 Eu84 2.372 . S
O139 C158 1.257 . S
C140 O129 1.249 . S
C140 O130 1.264 . S
C141 C144 1.382 . S
C141 C146 1.390 . S
C141 C148 1.506 . S
C142 C143 1.398 . S
C142 C146 1.392 . S
C143 C142 1.398 . S
C143 C145 1.372 . S
C143 H160 0.931 . S
C144 C141 1.382 . S
C144 C145 1.390 . S
C144 H161 0.931 . S
C145 C143 1.372 . S
C145 C144 1.390 . S
C145 H162 0.929 . S
C146 C141 1.390 . S
C146 C142 1.392 . S
C146 H163 0.930 . S
C147 O132 1.255 . S
C147 O133 1.257 . S
C148 Eu84 2.787 . S
C148 O128 1.252 . S
C148 O131 1.268 . S
C148 C141 1.506 . S
C149 C116 1.439 . S
C149 H126 0.931 . S
C149 C150 1.374 . S
C150 C121 1.387 . S
C150 H127 0.931 . S
C150 C149 1.374 . S
C151 O135 1.249 . S
C151 O136 1.264 . S
C152 C155 1.382 . S
C152 C156 1.390 . S
C152 C159 1.506 . S
C153 C154 1.398 . S
C153 C156 1.392 . S
C154 C153 1.398 . S
C154 C157 1.372 . S
C154 H164 0.931 . S
C155 C152 1.382 . S
C155 C157 1.390 . S
C155 H165 0.931 . S
C156 C152 1.390 . S
C156 C153 1.392 . S
C156 H166 0.930 . S
C157 C154 1.372 . S
C157 C155 1.390 . S
C157 H167 0.929 . S
C158 O138 1.255 . S
C158 O139 1.257 . S
C159 Eu95 2.787 . S
C159 O134 1.252 . S
C159 O137 1.268 . S
C159 C152 1.506 . S
H160 C143 0.931 . S
H161 C144 0.931 . S
H162 C145 0.929 . S
H163 C146 0.930 . S
H164 C154 0.931 . S
H165 C155 0.931 . S
H166 C156 0.930 . S
H167 C157 0.929 . S
Eu168 N197 2.600 . S
Eu168 N203 2.562 . S
Eu168 O212 2.462 . S
Eu168 O213 2.373 . S
Eu168 O215 2.432 . S
Eu168 O216 2.291 . S
Eu168 O220 2.335 . S
Eu168 O223 2.372 . S
Eu168 C232 2.787 . S
C169 N170 1.365 . S
C169 C172 1.405 . S
C169 C176 1.448 . S
N170 C169 1.365 . S
N170 C173 1.319 . S
N170 Eu179 2.600 . S
C171 C173 1.397 . S
C171 C174 1.367 . S
C171 H191 0.931 . S
C172 C169 1.405 . S
C172 C174 1.403 . S
C172 C178 1.439 . S
C173 N170 1.319 . S
C173 C171 1.397 . S
C173 H184 0.930 . S
C174 C171 1.367 . S
C174 C172 1.403 . S
C174 H195 0.929 . S
C175 C176 1.430 . S
C175 C177 1.387 . S
C175 C181 1.404 . S
C176 C169 1.448 . S
C176 C175 1.430 . S
C176 N180 1.351 . S
C177 C175 1.387 . S
C177 C178 1.374 . S
C177 H192 0.931 . S
C178 C172 1.439 . S
C178 C177 1.374 . S
C178 H193 0.931 . S
Eu179 N170 2.600 . S
Eu179 N180 2.562 . S
Eu179 O214 2.335 . S
Eu179 O217 2.372 . S
Eu179 O218 2.462 . S
Eu179 O219 2.373 . S
Eu179 O221 2.432 . S
Eu179 O222 2.291 . S
Eu179 C243 2.787 . S
N180 C176 1.351 . S
N180 Eu179 2.562 . S
N180 C182 1.325 . S
C181 C175 1.404 . S
C181 C183 1.366 . S
C181 H189 0.930 . S
C182 N180 1.325 . S
C182 C183 1.416 . S
C182 H188 0.929 . S
C183 C181 1.366 . S
C183 C182 1.416 . S
C183 H185 0.930 . S
H184 C173 0.930 . S
H185 C183 0.930 . S
H186 C201 0.930 . S
H187 C208 0.930 . S
H188 C182 0.929 . S
H189 C181 0.930 . S
H190 C204 0.929 . S
H191 C171 0.931 . S
H192 C177 0.931 . S
H193 C178 0.931 . S
H194 C199 0.931 . S
H195 C174 0.929 . S
H196 C207 0.930 . S
N197 Eu168 2.600 . S
N197 C198 1.365 . S
N197 C201 1.319 . S
C198 N197 1.365 . S
C198 C200 1.405 . S
C198 C206 1.448 . S
C199 H194 0.931 . S
C199 C201 1.397 . S
C199 C202 1.367 . S
C200 C198 1.405 . S
C200 C202 1.403 . S
C200 C233 1.439 . S
C201 H186 0.930 . S
C201 N197 1.319 . S
C201 C199 1.397 . S
C202 C199 1.367 . S
C202 C200 1.403 . S
C202 H209 0.929 . S
N203 Eu168 2.562 . S
N203 C204 1.325 . S
N203 C206 1.351 . S
C204 H190 0.929 . S
C204 N203 1.325 . S
C204 C208 1.416 . S
C205 C206 1.430 . S
C205 C207 1.404 . S
C205 C234 1.387 . S
C206 C198 1.448 . S
C206 N203 1.351 . S
C206 C205 1.430 . S
C207 H196 0.930 . S
C207 C205 1.404 . S
C207 C208 1.366 . S
C208 H187 0.930 . S
C208 C204 1.416 . S
C208 C207 1.366 . S
H209 C202 0.929 . S
H210 C233 0.931 . S
H211 C234 0.931 . S
O212 Eu168 2.462 . S
O212 C232 1.252 . S
O213 Eu168 2.373 . S
O213 C224 1.249 . S
O214 Eu179 2.335 . S
O214 C224 1.264 . S
O215 Eu168 2.432 . S
O215 C232 1.268 . S
O216 Eu168 2.291 . S
O216 C231 1.255 . S
O217 Eu179 2.372 . S
O217 C231 1.257 . S
O218 Eu179 2.462 . S
O218 C243 1.252 . S
O219 Eu179 2.373 . S
O219 C235 1.249 . S
O220 Eu168 2.335 . S
O220 C235 1.264 . S
O221 Eu179 2.432 . S
O221 C243 1.268 . S
O222 Eu179 2.291 . S
O222 C242 1.255 . S
O223 Eu168 2.372 . S
O223 C242 1.257 . S
C224 O213 1.249 . S
C224 O214 1.264 . S
C225 C228 1.382 . S
C225 C230 1.390 . S
C225 C232 1.506 . S
C226 C227 1.398 . S
C226 C230 1.392 . S
C227 C226 1.398 . S
C227 C229 1.372 . S
C227 H244 0.931 . S
C228 C225 1.382 . S
C228 C229 1.390 . S
C228 H245 0.931 . S
C229 C227 1.372 . S
C229 C228 1.390 . S
C229 H246 0.929 . S
C230 C225 1.390 . S
C230 C226 1.392 . S
C230 H247 0.930 . S
C231 O216 1.255 . S
C231 O217 1.257 . S
C232 Eu168 2.787 . S
C232 O212 1.252 . S
C232 O215 1.268 . S
C232 C225 1.506 . S
C233 C200 1.439 . S
C233 H210 0.931 . S
C233 C234 1.374 . S
C234 C205 1.387 . S
C234 H211 0.931 . S
C234 C233 1.374 . S
C235 O219 1.249 . S
C235 O220 1.264 . S
C236 C239 1.382 . S
C236 C240 1.390 . S
C236 C243 1.506 . S
C237 C238 1.398 . S
C237 C240 1.392 . S
C238 C237 1.398 . S
C238 C241 1.372 . S
C238 H248 0.931 . S
C239 C236 1.382 . S
C239 C241 1.390 . S
C239 H249 0.931 . S
C240 C236 1.390 . S
C240 C237 1.392 . S
C240 H250 0.930 . S
C241 C238 1.372 . S
C241 C239 1.390 . S
C241 H251 0.929 . S
C242 O222 1.255 . S
C242 O223 1.257 . S
C243 Eu179 2.787 . S
C243 O218 1.252 . S
C243 O221 1.268 . S
C243 C236 1.506 . S
H244 C227 0.931 . S
H245 C228 0.931 . S
H246 C229 0.929 . S
H247 C230 0.930 . S
H248 C238 0.931 . S
H249 C239 0.931 . S
H250 C240 0.930 . S
H251 C241 0.929 . S
Eu252 N281 2.600 . S
Eu252 N287 2.562 . S
Eu252 O296 2.462 . S
Eu252 O297 2.373 . S
Eu252 O299 2.432 . S
Eu252 O300 2.291 . S
Eu252 O304 2.335 . S
Eu252 O307 2.372 . S
Eu252 C316 2.787 . S
C253 N254 1.365 . S
C253 C256 1.405 . S
C253 C260 1.448 . S
N254 C253 1.365 . S
N254 C257 1.319 . S
N254 Eu263 2.600 . S
C255 C257 1.397 . S
C255 C258 1.367 . S
C255 H275 0.931 . S
C256 C253 1.405 . S
C256 C258 1.403 . S
C256 C262 1.439 . S
C257 N254 1.319 . S
C257 C255 1.397 . S
C257 H268 0.930 . S
C258 C255 1.367 . S
C258 C256 1.403 . S
C258 H279 0.929 . S
C259 C260 1.430 . S
C259 C261 1.387 . S
C259 C265 1.404 . S
C260 C253 1.448 . S
C260 C259 1.430 . S
C260 N264 1.351 . S
C261 C259 1.387 . S
C261 C262 1.374 . S
C261 H276 0.931 . S
C262 C256 1.439 . S
C262 C261 1.374 . S
C262 H277 0.931 . S
Eu263 N254 2.600 . S
Eu263 N264 2.562 . S
Eu263 O298 2.335 . S
Eu263 O301 2.372 . S
Eu263 O302 2.462 . S
Eu263 O303 2.373 . S
Eu263 O305 2.432 . S
Eu263 O306 2.291 . S
Eu263 C327 2.787 . S
N264 C260 1.351 . S
N264 Eu263 2.562 . S
N264 C266 1.325 . S
C265 C259 1.404 . S
C265 C267 1.366 . S
C265 H273 0.930 . S
C266 N264 1.325 . S
C266 C267 1.416 . S
C266 H272 0.929 . S
C267 C265 1.366 . S
C267 C266 1.416 . S
C267 H269 0.930 . S
H268 C257 0.930 . S
H269 C267 0.930 . S
H270 C285 0.930 . S
H271 C292 0.930 . S
H272 C266 0.929 . S
H273 C265 0.930 . S
H274 C288 0.929 . S
H275 C255 0.931 . S
H276 C261 0.931 . S
H277 C262 0.931 . S
H278 C283 0.931 . S
H279 C258 0.929 . S
H280 C291 0.930 . S
N281 Eu252 2.600 . S
N281 C282 1.365 . S
N281 C285 1.319 . S
C282 N281 1.365 . S
C282 C284 1.405 . S
C282 C290 1.448 . S
C283 H278 0.931 . S
C283 C285 1.397 . S
C283 C286 1.367 . S
C284 C282 1.405 . S
C284 C286 1.403 . S
C284 C317 1.439 . S
C285 H270 0.930 . S
C285 N281 1.319 . S
C285 C283 1.397 . S
C286 C283 1.367 . S
C286 C284 1.403 . S
C286 H293 0.929 . S
N287 Eu252 2.562 . S
N287 C288 1.325 . S
N287 C290 1.351 . S
C288 H274 0.929 . S
C288 N287 1.325 . S
C288 C292 1.416 . S
C289 C290 1.430 . S
C289 C291 1.404 . S
C289 C318 1.387 . S
C290 C282 1.448 . S
C290 N287 1.351 . S
C290 C289 1.430 . S
C291 H280 0.930 . S
C291 C289 1.404 . S
C291 C292 1.366 . S
C292 H271 0.930 . S
C292 C288 1.416 . S
C292 C291 1.366 . S
H293 C286 0.929 . S
H294 C317 0.931 . S
H295 C318 0.931 . S
O296 Eu252 2.462 . S
O296 C316 1.252 . S
O297 Eu252 2.373 . S
O297 C308 1.249 . S
O298 Eu263 2.335 . S
O298 C308 1.264 . S
O299 Eu252 2.432 . S
O299 C316 1.268 . S
O300 Eu252 2.291 . S
O300 C315 1.255 . S
O301 Eu263 2.372 . S
O301 C315 1.257 . S
O302 Eu263 2.462 . S
O302 C327 1.252 . S
O303 Eu263 2.373 . S
O303 C319 1.249 . S
O304 Eu252 2.335 . S
O304 C319 1.264 . S
O305 Eu263 2.432 . S
O305 C327 1.268 . S
O306 Eu263 2.291 . S
O306 C326 1.255 . S
O307 Eu252 2.372 . S
O307 C326 1.257 . S
C308 O297 1.249 . S
C308 O298 1.264 . S
C309 C312 1.382 . S
C309 C314 1.390 . S
C309 C316 1.506 . S
C310 C311 1.398 . S
C310 C314 1.392 . S
C311 C310 1.398 . S
C311 C313 1.372 . S
C311 H328 0.931 . S
C312 C309 1.382 . S
C312 C313 1.390 . S
C312 H329 0.931 . S
C313 C311 1.372 . S
C313 C312 1.390 . S
C313 H330 0.929 . S
C314 C309 1.390 . S
C314 C310 1.392 . S
C314 H331 0.930 . S
C315 O300 1.255 . S
C315 O301 1.257 . S
C316 Eu252 2.787 . S
C316 O296 1.252 . S
C316 O299 1.268 . S
C316 C309 1.506 . S
C317 C284 1.439 . S
C317 H294 0.931 . S
C317 C318 1.374 . S
C318 C289 1.387 . S
C318 H295 0.931 . S
C318 C317 1.374 . S
C319 O303 1.249 . S
C319 O304 1.264 . S
C320 C323 1.382 . S
C320 C324 1.390 . S
C320 C327 1.506 . S
C321 C322 1.398 . S
C321 C324 1.392 . S
C322 C321 1.398 . S
C322 C325 1.372 . S
C322 H332 0.931 . S
C323 C320 1.382 . S
C323 C325 1.390 . S
C323 H333 0.931 . S
C324 C320 1.390 . S
C324 C321 1.392 . S
C324 H334 0.930 . S
C325 C322 1.372 . S
C325 C323 1.390 . S
C325 H335 0.929 . S
C326 O306 1.255 . S
C326 O307 1.257 . S
C327 Eu263 2.787 . S
C327 O302 1.252 . S
C327 O305 1.268 . S
C327 C320 1.506 . S
H328 C311 0.931 . S
H329 C312 0.931 . S
H330 C313 0.929 . S
H331 C314 0.930 . S
H332 C322 0.931 . S
H333 C323 0.931 . S
H334 C324 0.930 . S
H335 C325 0.929 . S
Eu336 N365 2.600 . S
Eu336 N371 2.562 . S
Eu336 O380 2.462 . S
Eu336 O381 2.373 . S
Eu336 O383 2.432 . S
Eu336 O384 2.291 . S
Eu336 O388 2.335 . S
Eu336 O391 2.372 . S
Eu336 C400 2.787 . S
C337 N338 1.365 . S
C337 C340 1.405 . S
C337 C344 1.448 . S
N338 C337 1.365 . S
N338 C341 1.319 . S
N338 Eu347 2.600 . S
C339 C341 1.397 . S
C339 C342 1.367 . S
C339 H359 0.931 . S
C340 C337 1.405 . S
C340 C342 1.403 . S
C340 C346 1.439 . S
C341 N338 1.319 . S
C341 C339 1.397 . S
C341 H352 0.930 . S
C342 C339 1.367 . S
C342 C340 1.403 . S
C342 H363 0.929 . S
C343 C344 1.430 . S
C343 C345 1.387 . S
C343 C349 1.404 . S
C344 C337 1.448 . S
C344 C343 1.430 . S
C344 N348 1.351 . S
C345 C343 1.387 . S
C345 C346 1.374 . S
C345 H360 0.931 . S
C346 C340 1.439 . S
C346 C345 1.374 . S
C346 H361 0.931 . S
Eu347 N338 2.600 . S
Eu347 N348 2.562 . S
Eu347 O382 2.335 . S
Eu347 O385 2.372 . S
Eu347 O386 2.462 . S
Eu347 O387 2.373 . S
Eu347 O389 2.432 . S
Eu347 O390 2.291 . S
Eu347 C411 2.787 . S
N348 C344 1.351 . S
N348 Eu347 2.562 . S
N348 C350 1.325 . S
C349 C343 1.404 . S
C349 C351 1.366 . S
C349 H357 0.930 . S
C350 N348 1.325 . S
C350 C351 1.416 . S
C350 H356 0.929 . S
C351 C349 1.366 . S
C351 C350 1.416 . S
C351 H353 0.930 . S
H352 C341 0.930 . S
H353 C351 0.930 . S
H354 C369 0.930 . S
H355 C376 0.930 . S
H356 C350 0.929 . S
H357 C349 0.930 . S
H358 C372 0.929 . S
H359 C339 0.931 . S
H360 C345 0.931 . S
H361 C346 0.931 . S
H362 C367 0.931 . S
H363 C342 0.929 . S
H364 C375 0.930 . S
N365 Eu336 2.600 . S
N365 C366 1.365 . S
N365 C369 1.319 . S
C366 N365 1.365 . S
C366 C368 1.405 . S
C366 C374 1.448 . S
C367 H362 0.931 . S
C367 C369 1.397 . S
C367 C370 1.367 . S
C368 C366 1.405 . S
C368 C370 1.403 . S
C368 C401 1.439 . S
C369 H354 0.930 . S
C369 N365 1.319 . S
C369 C367 1.397 . S
C370 C367 1.367 . S
C370 C368 1.403 . S
C370 H377 0.929 . S
N371 Eu336 2.562 . S
N371 C372 1.325 . S
N371 C374 1.351 . S
C372 H358 0.929 . S
C372 N371 1.325 . S
C372 C376 1.416 . S
C373 C374 1.430 . S
C373 C375 1.404 . S
C373 C402 1.387 . S
C374 C366 1.448 . S
C374 N371 1.351 . S
C374 C373 1.430 . S
C375 H364 0.930 . S
C375 C373 1.404 . S
C375 C376 1.366 . S
C376 H355 0.930 . S
C376 C372 1.416 . S
C376 C375 1.366 . S
H377 C370 0.929 . S
H378 C401 0.931 . S
H379 C402 0.931 . S
O380 Eu336 2.462 . S
O380 C400 1.252 . S
O381 Eu336 2.373 . S
O381 C392 1.249 . S
O382 Eu347 2.335 . S
O382 C392 1.264 . S
O383 Eu336 2.432 . S
O383 C400 1.268 . S
O384 Eu336 2.291 . S
O384 C399 1.255 . S
O385 Eu347 2.372 . S
O385 C399 1.257 . S
O386 Eu347 2.462 . S
O386 C411 1.252 . S
O387 Eu347 2.373 . S
O387 C403 1.249 . S
O388 Eu336 2.335 . S
O388 C403 1.264 . S
O389 Eu347 2.432 . S
O389 C411 1.268 . S
O390 Eu347 2.291 . S
O390 C410 1.255 . S
O391 Eu336 2.372 . S
O391 C410 1.257 . S
C392 O381 1.249 . S
C392 O382 1.264 . S
C393 C396 1.382 . S
C393 C398 1.390 . S
C393 C400 1.506 . S
C394 C395 1.398 . S
C394 C398 1.392 . S
C395 C394 1.398 . S
C395 C397 1.372 . S
C395 H412 0.931 . S
C396 C393 1.382 . S
C396 C397 1.390 . S
C396 H413 0.931 . S
C397 C395 1.372 . S
C397 C396 1.390 . S
C397 H414 0.929 . S
C398 C393 1.390 . S
C398 C394 1.392 . S
C398 H415 0.930 . S
C399 O384 1.255 . S
C399 O385 1.257 . S
C400 Eu336 2.787 . S
C400 O380 1.252 . S
C400 O383 1.268 . S
C400 C393 1.506 . S
C401 C368 1.439 . S
C401 H378 0.931 . S
C401 C402 1.374 . S
C402 C373 1.387 . S
C402 H379 0.931 . S
C402 C401 1.374 . S
C403 O387 1.249 . S
C403 O388 1.264 . S
C404 C407 1.382 . S
C404 C408 1.390 . S
C404 C411 1.506 . S
C405 C406 1.398 . S
C405 C408 1.392 . S
C406 C405 1.398 . S
C406 C409 1.372 . S
C406 H416 0.931 . S
C407 C404 1.382 . S
C407 C409 1.390 . S
C407 H417 0.931 . S
C408 C404 1.390 . S
C408 C405 1.392 . S
C408 H418 0.930 . S
C409 C406 1.372 . S
C409 C407 1.390 . S
C409 H419 0.929 . S
C410 O390 1.255 . S
C410 O391 1.257 . S
C411 Eu347 2.787 . S
C411 O386 1.252 . S
C411 O389 1.268 . S
C411 C404 1.506 . S
H412 C395 0.931 . S
H413 C396 0.931 . S
H414 C397 0.929 . S
H415 C398 0.930 . S
H416 C406 0.931 . S
H417 C407 0.931 . S
H418 C408 0.930 . S
H419 C409 0.929 . S
Eu420 N449 2.600 . S
Eu420 N455 2.562 . S
Eu420 O464 2.462 . S
Eu420 O465 2.373 . S
Eu420 O467 2.432 . S
Eu420 O468 2.291 . S
Eu420 O472 2.335 . S
Eu420 O475 2.372 . S
Eu420 C484 2.787 . S
C421 N422 1.365 . S
C421 C424 1.405 . S
C421 C428 1.448 . S
N422 C421 1.365 . S
N422 C425 1.319 . S
N422 Eu431 2.600 . S
C423 C425 1.397 . S
C423 C426 1.367 . S
C423 H443 0.931 . S
C424 C421 1.405 . S
C424 C426 1.403 . S
C424 C430 1.439 . S
C425 N422 1.319 . S
C425 C423 1.397 . S
C425 H436 0.930 . S
C426 C423 1.367 . S
C426 C424 1.403 . S
C426 H447 0.929 . S
C427 C428 1.430 . S
C427 C429 1.387 . S
C427 C433 1.404 . S
C428 C421 1.448 . S
C428 C427 1.430 . S
C428 N432 1.351 . S
C429 C427 1.387 . S
C429 C430 1.374 . S
C429 H444 0.931 . S
C430 C424 1.439 . S
C430 C429 1.374 . S
C430 H445 0.931 . S
Eu431 N422 2.600 . S
Eu431 N432 2.562 . S
Eu431 O466 2.335 . S
Eu431 O469 2.372 . S
Eu431 O470 2.462 . S
Eu431 O471 2.373 . S
Eu431 O473 2.432 . S
Eu431 O474 2.291 . S
Eu431 C495 2.787 . S
N432 C428 1.351 . S
N432 Eu431 2.562 . S
N432 C434 1.325 . S
C433 C427 1.404 . S
C433 C435 1.366 . S
C433 H441 0.930 . S
C434 N432 1.325 . S
C434 C435 1.416 . S
C434 H440 0.929 . S
C435 C433 1.366 . S
C435 C434 1.416 . S
C435 H437 0.930 . S
H436 C425 0.930 . S
H437 C435 0.930 . S
H438 C453 0.930 . S
H439 C460 0.930 . S
H440 C434 0.929 . S
H441 C433 0.930 . S
H442 C456 0.929 . S
H443 C423 0.931 . S
H444 C429 0.931 . S
H445 C430 0.931 . S
H446 C451 0.931 . S
H447 C426 0.929 . S
H448 C459 0.930 . S
N449 Eu420 2.600 . S
N449 C450 1.365 . S
N449 C453 1.319 . S
C450 N449 1.365 . S
C450 C452 1.405 . S
C450 C458 1.448 . S
C451 H446 0.931 . S
C451 C453 1.397 . S
C451 C454 1.367 . S
C452 C450 1.405 . S
C452 C454 1.403 . S
C452 C485 1.439 . S
C453 H438 0.930 . S
C453 N449 1.319 . S
C453 C451 1.397 . S
C454 C451 1.367 . S
C454 C452 1.403 . S
C454 H461 0.929 . S
N455 Eu420 2.562 . S
N455 C456 1.325 . S
N455 C458 1.351 . S
C456 H442 0.929 . S
C456 N455 1.325 . S
C456 C460 1.416 . S
C457 C458 1.430 . S
C457 C459 1.404 . S
C457 C486 1.387 . S
C458 C450 1.448 . S
C458 N455 1.351 . S
C458 C457 1.430 . S
C459 H448 0.930 . S
C459 C457 1.404 . S
C459 C460 1.366 . S
C460 H439 0.930 . S
C460 C456 1.416 . S
C460 C459 1.366 . S
H461 C454 0.929 . S
H462 C485 0.931 . S
H463 C486 0.931 . S
O464 Eu420 2.462 . S
O464 C484 1.252 . S
O465 Eu420 2.373 . S
O465 C476 1.249 . S
O466 Eu431 2.335 . S
O466 C476 1.264 . S
O467 Eu420 2.432 . S
O467 C484 1.268 . S
O468 Eu420 2.291 . S
O468 C483 1.255 . S
O469 Eu431 2.372 . S
O469 C483 1.257 . S
O470 Eu431 2.462 . S
O470 C495 1.252 . S
O471 Eu431 2.373 . S
O471 C487 1.249 . S
O472 Eu420 2.335 . S
O472 C487 1.264 . S
O473 Eu431 2.432 . S
O473 C495 1.268 . S
O474 Eu431 2.291 . S
O474 C494 1.255 . S
O475 Eu420 2.372 . S
O475 C494 1.257 . S
C476 O465 1.249 . S
C476 O466 1.264 . S
C477 C480 1.382 . S
C477 C482 1.390 . S
C477 C484 1.506 . S
C478 C479 1.398 . S
C478 C482 1.392 . S
C479 C478 1.398 . S
C479 C481 1.372 . S
C479 H496 0.931 . S
C480 C477 1.382 . S
C480 C481 1.390 . S
C480 H497 0.931 . S
C481 C479 1.372 . S
C481 C480 1.390 . S
C481 H498 0.929 . S
C482 C477 1.390 . S
C482 C478 1.392 . S
C482 H499 0.930 . S
C483 O468 1.255 . S
C483 O469 1.257 . S
C484 Eu420 2.787 . S
C484 O464 1.252 . S
C484 O467 1.268 . S
C484 C477 1.506 . S
C485 C452 1.439 . S
C485 H462 0.931 . S
C485 C486 1.374 . S
C486 C457 1.387 . S
C486 H463 0.931 . S
C486 C485 1.374 . S
C487 O471 1.249 . S
C487 O472 1.264 . S
C488 C491 1.382 . S
C488 C492 1.390 . S
C488 C495 1.506 . S
C489 C490 1.398 . S
C489 C492 1.392 . S
C490 C489 1.398 . S
C490 C493 1.372 . S
C490 H500 0.931 . S
C491 C488 1.382 . S
C491 C493 1.390 . S
C491 H501 0.931 . S
C492 C488 1.390 . S
C492 C489 1.392 . S
C492 H502 0.930 . S
C493 C490 1.372 . S
C493 C491 1.390 . S
C493 H503 0.929 . S
C494 O474 1.255 . S
C494 O475 1.257 . S
C495 Eu431 2.787 . S
C495 O470 1.252 . S
C495 O473 1.268 . S
C495 C488 1.506 . S
H496 C479 0.931 . S
H497 C480 0.931 . S
H498 C481 0.929 . S
H499 C482 0.930 . S
H500 C490 0.931 . S
H501 C491 0.931 . S
H502 C492 0.930 . S
H503 C493 0.929 . S
Eu504 N533 2.600 . S
Eu504 N539 2.562 . S
Eu504 O548 2.462 . S
Eu504 O549 2.373 . S
Eu504 O551 2.432 . S
Eu504 O552 2.291 . S
Eu504 O556 2.335 . S
Eu504 O559 2.372 . S
Eu504 C568 2.787 . S
C505 N506 1.365 . S
C505 C508 1.405 . S
C505 C512 1.448 . S
N506 C505 1.365 . S
N506 C509 1.319 . S
N506 Eu515 2.600 . S
C507 C509 1.397 . S
C507 C510 1.367 . S
C507 H527 0.931 . S
C508 C505 1.405 . S
C508 C510 1.403 . S
C508 C514 1.439 . S
C509 N506 1.319 . S
C509 C507 1.397 . S
C509 H520 0.930 . S
C510 C507 1.367 . S
C510 C508 1.403 . S
C510 H531 0.929 . S
C511 C512 1.430 . S
C511 C513 1.387 . S
C511 C517 1.404 . S
C512 C505 1.448 . S
C512 C511 1.430 . S
C512 N516 1.351 . S
C513 C511 1.387 . S
C513 C514 1.374 . S
C513 H528 0.931 . S
C514 C508 1.439 . S
C514 C513 1.374 . S
C514 H529 0.931 . S
Eu515 N506 2.600 . S
Eu515 N516 2.562 . S
Eu515 O550 2.335 . S
Eu515 O553 2.372 . S
Eu515 O554 2.462 . S
Eu515 O555 2.373 . S
Eu515 O557 2.432 . S
Eu515 O558 2.291 . S
Eu515 C579 2.787 . S
N516 C512 1.351 . S
N516 Eu515 2.562 . S
N516 C518 1.325 . S
C517 C511 1.404 . S
C517 C519 1.366 . S
C517 H525 0.930 . S
C518 N516 1.325 . S
C518 C519 1.416 . S
C518 H524 0.929 . S
C519 C517 1.366 . S
C519 C518 1.416 . S
C519 H521 0.930 . S
H520 C509 0.930 . S
H521 C519 0.930 . S
H522 C537 0.930 . S
H523 C544 0.930 . S
H524 C518 0.929 . S
H525 C517 0.930 . S
H526 C540 0.929 . S
H527 C507 0.931 . S
H528 C513 0.931 . S
H529 C514 0.931 . S
H530 C535 0.931 . S
H531 C510 0.929 . S
H532 C543 0.930 . S
N533 Eu504 2.600 . S
N533 C534 1.365 . S
N533 C537 1.319 . S
C534 N533 1.365 . S
C534 C536 1.405 . S
C534 C542 1.448 . S
C535 H530 0.931 . S
C535 C537 1.397 . S
C535 C538 1.367 . S
C536 C534 1.405 . S
C536 C538 1.403 . S
C536 C569 1.439 . S
C537 H522 0.930 . S
C537 N533 1.319 . S
C537 C535 1.397 . S
C538 C535 1.367 . S
C538 C536 1.403 . S
C538 H545 0.929 . S
N539 Eu504 2.562 . S
N539 C540 1.325 . S
N539 C542 1.351 . S
C540 H526 0.929 . S
C540 N539 1.325 . S
C540 C544 1.416 . S
C541 C542 1.430 . S
C541 C543 1.404 . S
C541 C570 1.387 . S
C542 C534 1.448 . S
C542 N539 1.351 . S
C542 C541 1.430 . S
C543 H532 0.930 . S
C543 C541 1.404 . S
C543 C544 1.366 . S
C544 H523 0.930 . S
C544 C540 1.416 . S
C544 C543 1.366 . S
H545 C538 0.929 . S
H546 C569 0.931 . S
H547 C570 0.931 . S
O548 Eu504 2.462 . S
O548 C568 1.252 . S
O549 Eu504 2.373 . S
O549 C560 1.249 . S
O550 Eu515 2.335 . S
O550 C560 1.264 . S
O551 Eu504 2.432 . S
O551 C568 1.268 . S
O552 Eu504 2.291 . S
O552 C567 1.255 . S
O553 Eu515 2.372 . S
O553 C567 1.257 . S
O554 Eu515 2.462 . S
O554 C579 1.252 . S
O555 Eu515 2.373 . S
O555 C571 1.249 . S
O556 Eu504 2.335 . S
O556 C571 1.264 . S
O557 Eu515 2.432 . S
O557 C579 1.268 . S
O558 Eu515 2.291 . S
O558 C578 1.255 . S
O559 Eu504 2.372 . S
O559 C578 1.257 . S
C560 O549 1.249 . S
C560 O550 1.264 . S
C561 C564 1.382 . S
C561 C566 1.390 . S
C561 C568 1.506 . S
C562 C563 1.398 . S
C562 C566 1.392 . S
C563 C562 1.398 . S
C563 C565 1.372 . S
C563 H580 0.931 . S
C564 C561 1.382 . S
C564 C565 1.390 . S
C564 H581 0.931 . S
C565 C563 1.372 . S
C565 C564 1.390 . S
C565 H582 0.929 . S
C566 C561 1.390 . S
C566 C562 1.392 . S
C566 H583 0.930 . S
C567 O552 1.255 . S
C567 O553 1.257 . S
C568 Eu504 2.787 . S
C568 O548 1.252 . S
C568 O551 1.268 . S
C568 C561 1.506 . S
C569 C536 1.439 . S
C569 H546 0.931 . S
C569 C570 1.374 . S
C570 C541 1.387 . S
C570 H547 0.931 . S
C570 C569 1.374 . S
C571 O555 1.249 . S
C571 O556 1.264 . S
C572 C575 1.382 . S
C572 C576 1.390 . S
C572 C579 1.506 . S
C573 C574 1.398 . S
C573 C576 1.392 . S
C574 C573 1.398 . S
C574 C577 1.372 . S
C574 H584 0.931 . S
C575 C572 1.382 . S
C575 C577 1.390 . S
C575 H585 0.931 . S
C576 C572 1.390 . S
C576 C573 1.392 . S
C576 H586 0.930 . S
C577 C574 1.372 . S
C577 C575 1.390 . S
C577 H587 0.929 . S
C578 O558 1.255 . S
C578 O559 1.257 . S
C579 Eu515 2.787 . S
C579 O554 1.252 . S
C579 O557 1.268 . S
C579 C572 1.506 . S
H580 C563 0.931 . S
H581 C564 0.931 . S
H582 C565 0.929 . S
H583 C566 0.930 . S
H584 C574 0.931 . S
H585 C575 0.931 . S
H586 C576 0.930 . S
H587 C577 0.929 . S
Eu588 N617 2.600 . S
Eu588 N623 2.562 . S
Eu588 O632 2.462 . S
Eu588 O633 2.373 . S
Eu588 O635 2.432 . S
Eu588 O636 2.291 . S
Eu588 O640 2.335 . S
Eu588 O643 2.372 . S
Eu588 C652 2.787 . S
C589 N590 1.365 . S
C589 C592 1.405 . S
C589 C596 1.448 . S
N590 C589 1.365 . S
N590 C593 1.319 . S
N590 Eu599 2.600 . S
C591 C593 1.397 . S
C591 C594 1.367 . S
C591 H611 0.931 . S
C592 C589 1.405 . S
C592 C594 1.403 . S
C592 C598 1.439 . S
C593 N590 1.319 . S
C593 C591 1.397 . S
C593 H604 0.930 . S
C594 C591 1.367 . S
C594 C592 1.403 . S
C594 H615 0.929 . S
C595 C596 1.430 . S
C595 C597 1.387 . S
C595 C601 1.404 . S
C596 C589 1.448 . S
C596 C595 1.430 . S
C596 N600 1.351 . S
C597 C595 1.387 . S
C597 C598 1.374 . S
C597 H612 0.931 . S
C598 C592 1.439 . S
C598 C597 1.374 . S
C598 H613 0.931 . S
Eu599 N590 2.600 . S
Eu599 N600 2.562 . S
Eu599 O634 2.335 . S
Eu599 O637 2.372 . S
Eu599 O638 2.462 . S
Eu599 O639 2.373 . S
Eu599 O641 2.432 . S
Eu599 O642 2.291 . S
Eu599 C663 2.787 . S
N600 C596 1.351 . S
N600 Eu599 2.562 . S
N600 C602 1.325 . S
C601 C595 1.404 . S
C601 C603 1.366 . S
C601 H609 0.930 . S
C602 N600 1.325 . S
C602 C603 1.416 . S
C602 H608 0.929 . S
C603 C601 1.366 . S
C603 C602 1.416 . S
C603 H605 0.930 . S
H604 C593 0.930 . S
H605 C603 0.930 . S
H606 C621 0.930 . S
H607 C628 0.930 . S
H608 C602 0.929 . S
H609 C601 0.930 . S
H610 C624 0.929 . S
H611 C591 0.931 . S
H612 C597 0.931 . S
H613 C598 0.931 . S
H614 C619 0.931 . S
H615 C594 0.929 . S
H616 C627 0.930 . S
N617 Eu588 2.600 . S
N617 C618 1.365 . S
N617 C621 1.319 . S
C618 N617 1.365 . S
C618 C620 1.405 . S
C618 C626 1.448 . S
C619 H614 0.931 . S
C619 C621 1.397 . S
C619 C622 1.367 . S
C620 C618 1.405 . S
C620 C622 1.403 . S
C620 C653 1.439 . S
C621 H606 0.930 . S
C621 N617 1.319 . S
C621 C619 1.397 . S
C622 C619 1.367 . S
C622 C620 1.403 . S
C622 H629 0.929 . S
N623 Eu588 2.562 . S
N623 C624 1.325 . S
N623 C626 1.351 . S
C624 H610 0.929 . S
C624 N623 1.325 . S
C624 C628 1.416 . S
C625 C626 1.430 . S
C625 C627 1.404 . S
C625 C654 1.387 . S
C626 C618 1.448 . S
C626 N623 1.351 . S
C626 C625 1.430 . S
C627 H616 0.930 . S
C627 C625 1.404 . S
C627 C628 1.366 . S
C628 H607 0.930 . S
C628 C624 1.416 . S
C628 C627 1.366 . S
H629 C622 0.929 . S
H630 C653 0.931 . S
H631 C654 0.931 . S
O632 Eu588 2.462 . S
O632 C652 1.252 . S
O633 Eu588 2.373 . S
O633 C644 1.249 . S
O634 Eu599 2.335 . S
O634 C644 1.264 . S
O635 Eu588 2.432 . S
O635 C652 1.268 . S
O636 Eu588 2.291 . S
O636 C651 1.255 . S
O637 Eu599 2.372 . S
O637 C651 1.257 . S
O638 Eu599 2.462 . S
O638 C663 1.252 . S
O639 Eu599 2.373 . S
O639 C655 1.249 . S
O640 Eu588 2.335 . S
O640 C655 1.264 . S
O641 Eu599 2.432 . S
O641 C663 1.268 . S
O642 Eu599 2.291 . S
O642 C662 1.255 . S
O643 Eu588 2.372 . S
O643 C662 1.257 . S
C644 O633 1.249 . S
C644 O634 1.264 . S
C645 C648 1.382 . S
C645 C650 1.390 . S
C645 C652 1.506 . S
C646 C647 1.398 . S
C646 C650 1.392 . S
C647 C646 1.398 . S
C647 C649 1.372 . S
C647 H664 0.931 . S
C648 C645 1.382 . S
C648 C649 1.390 . S
C648 H665 0.931 . S
C649 C647 1.372 . S
C649 C648 1.390 . S
C649 H666 0.929 . S
C650 C645 1.390 . S
C650 C646 1.392 . S
C650 H667 0.930 . S
C651 O636 1.255 . S
C651 O637 1.257 . S
C652 Eu588 2.787 . S
C652 O632 1.252 . S
C652 O635 1.268 . S
C652 C645 1.506 . S
C653 C620 1.439 . S
C653 H630 0.931 . S
C653 C654 1.374 . S
C654 C625 1.387 . S
C654 H631 0.931 . S
C654 C653 1.374 . S
C655 O639 1.249 . S
C655 O640 1.264 . S
C656 C659 1.382 . S
C656 C660 1.390 . S
C656 C663 1.506 . S
C657 C658 1.398 . S
C657 C660 1.392 . S
C658 C657 1.398 . S
C658 C661 1.372 . S
C658 H668 0.931 . S
C659 C656 1.382 . S
C659 C661 1.390 . S
C659 H669 0.931 . S
C660 C656 1.390 . S
C660 C657 1.392 . S
C660 H670 0.930 . S
C661 C658 1.372 . S
C661 C659 1.390 . S
C661 H671 0.929 . S
C662 O642 1.255 . S
C662 O643 1.257 . S
C663 Eu599 2.787 . S
C663 O638 1.252 . S
C663 O641 1.268 . S
C663 C656 1.506 . S
H664 C647 0.931 . S
H665 C648 0.931 . S
H666 C649 0.929 . S
H667 C650 0.930 . S
H668 C658 0.931 . S
H669 C659 0.931 . S
H670 C660 0.930 . S
H671 C661 0.929 . S
Fe672 O673 1.886 1_455 S
Fe672 O676 1.715 . S
Fe672 O681 2.077 1_455 S
Fe672 O686 1.935 . S
Fe672 O692 2.077 1_455 S
Fe672 O701 1.935 . S
O673 Fe672 1.886 1_655 S
O673 Fe675 1.715 1_545 S
Fe674 O676 1.886 . S
Fe674 O677 1.715 1_545 S
Fe674 O684 1.935 1_545 S
Fe674 O685 2.077 . S
Fe674 O691 1.935 1_545 S
Fe674 O700 2.077 . S
Fe675 O673 1.715 1_565 S
Fe675 O678 1.886 . S
Fe675 O682 1.935 1_565 S
Fe675 O687 2.077 . S
Fe675 O693 1.935 1_565 S
Fe675 O697 2.077 . S
O676 Fe672 1.715 . S
O676 Fe674 1.886 . S
O677 Fe674 1.715 1_565 S
O677 Fe679 1.886 1_455 S
O678 Fe675 1.886 . S
O678 Fe679 1.715 . S
Fe679 O677 1.886 1_655 S
Fe679 O678 1.715 . S
Fe679 O683 2.077 1_655 S
Fe679 O688 1.935 . S
Fe679 O690 2.077 1_655 S
Fe679 O698 1.935 . S
C680 O692 1.381 . S
C680 O693 1.421 . S
O681 Fe672 2.077 1_655 S
O681 C694 1.381 . S
O682 Fe675 1.935 1_545 S
O682 C694 1.421 . S
O683 Fe679 2.077 1_455 S
O683 C699 1.381 . S
O684 Fe674 1.935 1_565 S
O684 C699 1.421 . S
O685 Fe674 2.077 . S
O685 C689 1.381 . S
O686 Fe672 1.935 . S
O686 C689 1.421 . S
O687 Fe675 2.077 . S
O687 C695 1.381 . S
O688 Fe679 1.935 . S
O688 C695 1.421 . S
C689 O685 1.381 . S
C689 O686 1.421 . S
O690 Fe679 2.077 1_455 S
O690 C702 1.381 . S
O691 Fe674 1.935 1_565 S
O691 C702 1.421 . S
O692 Fe672 2.077 1_655 S
O692 C680 1.381 . S
O693 Fe675 1.935 1_545 S
O693 C680 1.421 . S
C694 O681 1.381 . S
C694 O682 1.421 . S
C695 O687 1.381 . S
C695 O688 1.421 . S
C696 O697 1.381 . S
C696 O698 1.421 . S
O697 Fe675 2.077 . S
O697 C696 1.381 . S
O698 Fe679 1.935 . S
O698 C696 1.421 . S
C699 O683 1.381 . S
C699 O684 1.421 . S
O700 Fe674 2.077 . S
O700 C703 1.381 . S
O701 Fe672 1.935 . S
O701 C703 1.421 . S
C702 O690 1.381 . S
C702 O691 1.421 . S
C703 O700 1.381 . S
C703 O701 1.421 . S
Fe704 O705 1.886 . S
Fe704 O708 1.715 . S
Fe704 O713 2.077 . S
Fe704 O718 1.935 . S
Fe704 O724 2.077 1_556 S
Fe704 O733 1.935 1_556 S
O705 Fe704 1.886 . S
O705 Fe707 1.715 1_565 S
Fe706 O708 1.886 1_554 S
Fe706 O709 1.715 1_565 S
Fe706 O716 1.935 1_564 S
Fe706 O717 2.077 1_554 S
Fe706 O723 1.935 1_565 S
Fe706 O732 2.077 . S
Fe707 O705 1.715 1_545 S
Fe707 O710 1.887 1_556 S
Fe707 O714 1.935 1_545 S
Fe707 O719 2.077 . S
Fe707 O725 1.935 1_546 S
Fe707 O729 2.077 1_556 S
O708 Fe704 1.715 . S
O708 Fe706 1.886 1_556 S
O709 Fe706 1.715 1_545 S
O709 Fe711 1.886 . S
O710 Fe707 1.887 1_554 S
O710 Fe711 1.714 . S
Fe711 O709 1.886 . S
Fe711 O710 1.714 . S
Fe711 O715 2.077 1_554 S
Fe711 O720 1.935 1_554 S
Fe711 O722 2.077 . S
Fe711 O730 1.935 . S
C712 O724 1.381 . S
C712 O725 1.421 . S
O713 Fe704 2.077 . S
O713 C726 1.381 . S
O714 Fe707 1.935 1_565 S
O714 C726 1.421 . S
O715 Fe711 2.077 1_556 S
O715 C731 1.381 . S
O716 Fe706 1.935 1_546 S
O716 C731 1.421 . S
O717 Fe706 2.077 1_556 S
O717 C721 1.381 . S
O718 Fe704 1.935 . S
O718 C721 1.421 . S
O719 Fe707 2.077 . S
O719 C727 1.381 . S
O720 Fe711 1.935 1_556 S
O720 C727 1.421 . S
C721 O717 1.381 . S
C721 O718 1.421 . S
O722 Fe711 2.077 . S
O722 C734 1.381 . S
O723 Fe706 1.935 1_545 S
O723 C734 1.421 . S
O724 Fe704 2.077 1_554 S
O724 C712 1.381 . S
O725 Fe707 1.935 1_564 S
O725 C712 1.421 . S
C726 O713 1.381 . S
C726 O714 1.421 . S
C727 O719 1.381 . S
C727 O720 1.421 . S
C728 O729 1.381 . S
C728 O730 1.421 . S
O729 Fe707 2.077 1_554 S
O729 C728 1.381 . S
O730 Fe711 1.935 . S
O730 C728 1.421 . S
C731 O715 1.381 . S
C731 O716 1.421 . S
O732 Fe706 2.077 . S
O732 C735 1.381 . S
O733 Fe704 1.935 1_554 S
O733 C735 1.421 . S
C734 O722 1.381 . S
C734 O723 1.421 . S
C735 O732 1.381 . S
C735 O733 1.421 . S
Fe736 O737 1.886 1_455 S
Fe736 O740 1.714 . S
Fe736 O745 2.077 1_454 S
Fe736 O750 1.935 1_554 S
Fe736 O756 2.077 1_455 S
Fe736 O765 1.935 . S
O737 Fe736 1.886 1_655 S
O737 Fe739 1.715 . S
Fe738 O740 1.887 1_556 S
Fe738 O741 1.715 . S
Fe738 O748 1.935 . S
Fe738 O749 2.077 . S
Fe738 O755 1.935 1_556 S
Fe738 O764 2.077 1_556 S
Fe739 O737 1.715 . S
Fe739 O742 1.886 1_554 S
Fe739 O746 1.935 1_554 S
Fe739 O751 2.077 1_554 S
Fe739 O757 1.935 . S
Fe739 O761 2.077 . S
O740 Fe736 1.714 . S
O740 Fe738 1.887 1_554 S
O741 Fe738 1.715 . S
O741 Fe743 1.886 1_455 S
O742 Fe739 1.886 1_556 S
O742 Fe743 1.715 . S
Fe743 O741 1.886 1_655 S
Fe743 O742 1.715 . S
Fe743 O747 2.077 1_655 S
Fe743 O752 1.935 . S
Fe743 O754 2.077 1_656 S
Fe743 O762 1.935 1_556 S
C744 O756 1.381 . S
C744 O757 1.421 . S
O745 Fe736 2.077 1_656 S
O745 C758 1.381 . S
O746 Fe739 1.935 1_556 S
O746 C758 1.421 . S
O747 Fe743 2.077 1_455 S
O747 C763 1.381 . S
O748 Fe738 1.935 . S
O748 C763 1.421 . S
O749 Fe738 2.077 . S
O749 C753 1.381 . S
O750 Fe736 1.935 1_556 S
O750 C753 1.421 . S
O751 Fe739 2.077 1_556 S
O751 C759 1.381 . S
O752 Fe743 1.935 . S
O752 C759 1.421 . S
C753 O749 1.381 . S
C753 O750 1.421 . S
O754 Fe743 2.077 1_454 S
O754 C766 1.381 . S
O755 Fe738 1.935 1_554 S
O755 C766 1.421 . S
O756 Fe736 2.077 1_655 S
O756 C744 1.381 . S
O757 Fe739 1.935 . S
O757 C744 1.421 . S
C758 O745 1.381 . S
C758 O746 1.421 . S
C759 O751 1.381 . S
C759 O752 1.421 . S
C760 O761 1.381 . S
C760 O762 1.421 . S
O761 Fe739 2.077 . S
O761 C760 1.381 . S
O762 Fe743 1.935 1_554 S
O762 C760 1.421 . S
C763 O747 1.381 . S
C763 O748 1.421 . S
O764 Fe738 2.077 1_554 S
O764 C767 1.381 . S
O765 Fe736 1.935 . S
O765 C767 1.421 . S
C766 O754 1.381 . S
C766 O755 1.421 . S
C767 O764 1.381 . S
C767 O765 1.421 . S
Fe768 O769 1.886 . S
Fe768 O772 1.715 . S
Fe768 O777 2.077 . S
Fe768 O782 1.935 . S
Fe768 O788 2.077 . S
Fe768 O797 1.935 . S
O769 Fe768 1.886 . S
O769 Fe771 1.715 . S
Fe770 O772 1.886 1_554 S
Fe770 O773 1.715 . S
Fe770 O780 1.935 . S
Fe770 O781 2.077 1_554 S
Fe770 O787 1.935 . S
Fe770 O796 2.077 1_554 S
Fe771 O769 1.715 . S
Fe771 O774 1.886 1_556 S
Fe771 O778 1.935 . S
Fe771 O783 2.077 1_556 S
Fe771 O789 1.935 . S
Fe771 O793 2.077 1_556 S
O772 Fe768 1.715 . S
O772 Fe770 1.886 1_556 S
O773 Fe770 1.715 . S
O773 Fe775 1.886 . S
O774 Fe771 1.886 1_554 S
O774 Fe775 1.715 . S
Fe775 O773 1.886 . S
Fe775 O774 1.715 . S
Fe775 O779 2.077 . S
Fe775 O784 1.935 . S
Fe775 O786 2.077 . S
Fe775 O794 1.935 . S
C776 O788 1.381 . S
C776 O789 1.421 . S
O777 Fe768 2.077 . S
O777 C790 1.381 . S
O778 Fe771 1.935 . S
O778 C790 1.421 . S
O779 Fe775 2.077 . S
O779 C795 1.381 . S
O780 Fe770 1.935 . S
O780 C795 1.421 . S
O781 Fe770 2.077 1_556 S
O781 C785 1.381 . S
O782 Fe768 1.935 . S
O782 C785 1.421 . S
O783 Fe771 2.077 1_554 S
O783 C791 1.381 . S
O784 Fe775 1.935 . S
O784 C791 1.421 . S
C785 O781 1.381 . S
C785 O782 1.421 . S
O786 Fe775 2.077 . S
O786 C798 1.381 . S
O787 Fe770 1.935 . S
O787 C798 1.421 . S
O788 Fe768 2.077 . S
O788 C776 1.381 . S
O789 Fe771 1.935 . S
O789 C776 1.421 . S
C790 O777 1.381 . S
C790 O778 1.421 . S
C791 O783 1.381 . S
C791 O784 1.421 . S
C792 O793 1.381 . S
C792 O794 1.421 . S
O793 Fe771 2.077 1_554 S
O793 C792 1.381 . S
O794 Fe775 1.935 . S
O794 C792 1.421 . S
C795 O779 1.381 . S
C795 O780 1.421 . S
O796 Fe770 2.077 1_556 S
O796 C799 1.381 . S
O797 Fe768 1.935 . S
O797 C799 1.421 . S
C798 O786 1.381 . S
C798 O787 1.421 . S
C799 O796 1.381 . S
C799 O797 1.421 . S
Fe800 O801 1.886 . S
Fe800 O804 1.715 . S
Fe800 O809 2.077 1_655 S
Fe800 O814 1.935 1_655 S
Fe800 O820 2.077 . S
Fe800 O829 1.935 . S
O801 Fe800 1.886 . S
O801 Fe803 1.715 . S
Fe802 O804 1.886 1_455 S
Fe802 O805 1.715 . S
Fe802 O812 1.935 . S
Fe802 O813 2.077 . S
Fe802 O819 1.935 1_455 S
Fe802 O828 2.077 1_455 S
Fe803 O801 1.715 . S
Fe803 O806 1.886 1_655 S
Fe803 O810 1.935 1_655 S
Fe803 O815 2.077 1_655 S
Fe803 O821 1.935 . S
Fe803 O825 2.077 . S
O804 Fe800 1.715 . S
O804 Fe802 1.886 1_655 S
O805 Fe802 1.715 . S
O805 Fe807 1.886 . S
O806 Fe803 1.886 1_455 S
O806 Fe807 1.715 . S
Fe807 O805 1.886 . S
Fe807 O806 1.715 . S
Fe807 O811 2.077 . S
Fe807 O816 1.935 . S
Fe807 O818 2.077 1_455 S
Fe807 O826 1.935 1_455 S
C808 O820 1.381 . S
C808 O821 1.421 . S
O809 Fe800 2.077 1_455 S
O809 C822 1.381 . S
O810 Fe803 1.935 1_455 S
O810 C822 1.421 . S
O811 Fe807 2.077 . S
O811 C827 1.381 . S
O812 Fe802 1.935 . S
O812 C827 1.421 . S
O813 Fe802 2.077 . S
O813 C817 1.381 . S
O814 Fe800 1.935 1_455 S
O814 C817 1.421 . S
O815 Fe803 2.077 1_455 S
O815 C823 1.381 . S
O816 Fe807 1.935 . S
O816 C823 1.421 . S
C817 O813 1.381 . S
C817 O814 1.421 . S
O818 Fe807 2.077 1_655 S
O818 C830 1.381 . S
O819 Fe802 1.935 1_655 S
O819 C830 1.421 . S
O820 Fe800 2.077 . S
O820 C808 1.381 . S
O821 Fe803 1.935 . S
O821 C808 1.421 . S
C822 O809 1.381 . S
C822 O810 1.421 . S
C823 O815 1.381 . S
C823 O816 1.421 . S
C824 O825 1.381 . S
C824 O826 1.421 . S
O825 Fe803 2.077 . S
O825 C824 1.381 . S
O826 Fe807 1.935 1_655 S
O826 C824 1.421 . S
C827 O811 1.381 . S
C827 O812 1.421 . S
O828 Fe802 2.077 1_655 S
O828 C831 1.381 . S
O829 Fe800 1.935 . S
O829 C831 1.421 . S
C830 O818 1.381 . S
C830 O819 1.421 . S
C831 O828 1.381 . S
C831 O829 1.421 . S
Fe832 O833 1.886 . S
Fe832 O836 1.715 . S
Fe832 O841 2.077 . S
Fe832 O846 1.935 . S
Fe832 O852 2.077 . S
Fe832 O861 1.935 . S
O833 Fe832 1.886 . S
O833 Fe835 1.715 1_565 S
Fe834 O836 1.886 . S
Fe834 O837 1.715 1_565 S
Fe834 O844 1.935 1_565 S
Fe834 O845 2.077 . S
Fe834 O851 1.935 1_565 S
Fe834 O860 2.077 . S
Fe835 O833 1.715 1_545 S
Fe835 O838 1.886 . S
Fe835 O842 1.935 1_545 S
Fe835 O847 2.077 . S
Fe835 O853 1.935 1_545 S
Fe835 O857 2.077 . S
O836 Fe832 1.715 . S
O836 Fe834 1.886 . S
O837 Fe834 1.715 1_545 S
O837 Fe839 1.886 . S
O838 Fe835 1.886 . S
O838 Fe839 1.715 . S
Fe839 O837 1.886 . S
Fe839 O838 1.715 . S
Fe839 O843 2.077 . S
Fe839 O848 1.935 . S
Fe839 O850 2.077 . S
Fe839 O858 1.935 . S
C840 O852 1.381 . S
C840 O853 1.421 . S
O841 Fe832 2.077 . S
O841 C854 1.381 . S
O842 Fe835 1.935 1_565 S
O842 C854 1.421 . S
O843 Fe839 2.077 . S
O843 C859 1.381 . S
O844 Fe834 1.935 1_545 S
O844 C859 1.421 . S
O845 Fe834 2.077 . S
O845 C849 1.381 . S
O846 Fe832 1.935 . S
O846 C849 1.421 . S
O847 Fe835 2.077 . S
O847 C855 1.381 . S
O848 Fe839 1.935 . S
O848 C855 1.421 . S
C849 O845 1.381 . S
C849 O846 1.421 . S
O850 Fe839 2.077 . S
O850 C862 1.381 . S
O851 Fe834 1.935 1_545 S
O851 C862 1.421 . S
O852 Fe832 2.077 . S
O852 C840 1.381 . S
O853 Fe835 1.935 1_565 S
O853 C840 1.421 . S
C854 O841 1.381 . S
C854 O842 1.421 . S
C855 O847 1.381 . S
C855 O848 1.421 . S
C856 O857 1.381 . S
C856 O858 1.421 . S
O857 Fe835 2.077 . S
O857 C856 1.381 . S
O858 Fe839 1.935 . S
O858 C856 1.421 . S
C859 O843 1.381 . S
C859 O844 1.421 . S
O860 Fe834 2.077 . S
O860 C863 1.381 . S
O861 Fe832 1.935 . S
O861 C863 1.421 . S
C862 O850 1.381 . S
C862 O851 1.421 . S
C863 O860 1.381 . S
C863 O861 1.421 . S
H864 C876 0.930 . S
H865 C878 0.930 . S
H866 C879 0.930 . S
H867 C883 0.959 . S
H868 C883 0.959 . S
H869 C883 0.961 . S
H870 C884 0.960 . S
H871 C884 0.961 . S
H872 C884 0.959 . S
H873 C887 0.929 . S
H874 C888 0.931 . S
H875 C890 0.930 . S
C876 H864 0.930 . S
C876 C877 1.399 . S
C876 C881 1.399 . S
C877 C876 1.399 . S
C877 C878 1.376 . S
C878 H865 0.930 . S
C878 C877 1.376 . S
C878 C879 1.388 . S
C879 H866 0.930 . S
C879 C878 1.388 . S
C879 C880 1.390 . S
C880 C879 1.390 . S
C880 C881 1.394 . S
C880 C886 1.465 . S
C881 C876 1.399 . S
C881 C880 1.394 . S
C881 C882 1.516 . S
C882 C881 1.516 . S
C882 C883 1.502 . S
C882 C884 1.561 . S
C882 C885 1.526 . S
C883 H867 0.959 . S
C883 H868 0.959 . S
C883 H869 0.961 . S
C883 C882 1.502 . S
C884 H870 0.960 . S
C884 H871 0.961 . S
C884 H872 0.959 . S
C884 C882 1.561 . S
C885 C882 1.526 . S
C885 C886 1.396 . S
C885 C890 1.390 . S
C886 C880 1.465 . S
C886 C885 1.396 . S
C886 C887 1.399 . S
C887 H873 0.929 . S
C887 C886 1.399 . S
C887 C888 1.385 . S
C888 H874 0.931 . S
C888 C887 1.385 . S
C888 C889 1.389 . S
C889 C888 1.389 . S
C889 C890 1.387 . S
C890 H875 0.930 . S
C890 C885 1.390 . S
C890 C889 1.387 . S
H891 C903 0.930 . S
H892 C905 0.930 . S
H893 C906 0.930 . S
H894 C910 0.959 . S
H895 C910 0.959 . S
H896 C910 0.961 . S
H897 C911 0.960 . S
H898 C911 0.961 . S
H899 C911 0.959 . S
H900 C914 0.929 . S
H901 C915 0.931 . S
H902 C917 0.930 . S
C903 H891 0.930 . S
C903 C904 1.399 . S
C903 C908 1.399 . S
C904 C903 1.399 . S
C904 C905 1.376 . S
C905 H892 0.930 . S
C905 C904 1.376 . S
C905 C906 1.388 . S
C906 H893 0.930 . S
C906 C905 1.388 . S
C906 C907 1.390 . S
C907 C906 1.390 . S
C907 C908 1.394 . S
C907 C913 1.465 . S
C908 C903 1.399 . S
C908 C907 1.394 . S
C908 C909 1.516 . S
C909 C908 1.516 . S
C909 C910 1.502 . S
C909 C911 1.561 . S
C909 C912 1.526 . S
C910 H894 0.959 . S
C910 H895 0.959 . S
C910 H896 0.961 . S
C910 C909 1.502 . S
C911 H897 0.960 . S
C911 H898 0.961 . S
C911 H899 0.959 . S
C911 C909 1.561 . S
C912 C909 1.526 . S
C912 C913 1.396 . S
C912 C917 1.390 . S
C913 C907 1.465 . S
C913 C912 1.396 . S
C913 C914 1.399 . S
C914 H900 0.929 . S
C914 C913 1.399 . S
C914 C915 1.385 . S
C915 H901 0.931 . S
C915 C914 1.385 . S
C915 C916 1.389 . S
C916 C915 1.389 . S
C916 C917 1.387 . S
C917 H902 0.930 . S
C917 C912 1.390 . S
C917 C916 1.387 . S
H918 C930 0.930 . S
H919 C932 0.930 . S
H920 C933 0.930 . S
H921 C937 0.959 . S
H922 C937 0.959 . S
H923 C937 0.961 . S
H924 C938 0.960 . S
H925 C938 0.961 . S
H926 C938 0.959 . S
H927 C941 0.929 . S
H928 C942 0.931 . S
H929 C944 0.930 . S
C930 H918 0.930 . S
C930 C931 1.399 . S
C930 C935 1.399 . S
C931 C930 1.399 . S
C931 C932 1.376 . S
C932 H919 0.930 . S
C932 C931 1.376 . S
C932 C933 1.388 . S
C933 H920 0.930 . S
C933 C932 1.388 . S
C933 C934 1.390 . S
C934 C933 1.390 . S
C934 C935 1.394 . S
C934 C940 1.465 . S
C935 C930 1.399 . S
C935 C934 1.394 . S
C935 C936 1.516 . S
C936 C935 1.516 . S
C936 C937 1.502 . S
C936 C938 1.561 . S
C936 C939 1.526 . S
C937 H921 0.959 . S
C937 H922 0.959 . S
C937 H923 0.961 . S
C937 C936 1.502 . S
C938 H924 0.960 . S
C938 H925 0.961 . S
C938 H926 0.959 . S
C938 C936 1.561 . S
C939 C936 1.526 . S
C939 C940 1.396 . S
C939 C944 1.390 . S
C940 C934 1.465 . S
C940 C939 1.396 . S
C940 C941 1.399 . S
C941 H927 0.929 . S
C941 C940 1.399 . S
C941 C942 1.385 . S
C942 H928 0.931 . S
C942 C941 1.385 . S
C942 C943 1.389 . S
C943 C942 1.389 . S
C943 C944 1.387 . S
C944 H929 0.930 . S
C944 C939 1.390 . S
C944 C943 1.387 . S
H945 C957 0.930 . S
H946 C959 0.930 . S
H947 C960 0.930 . S
H948 C964 0.959 . S
H949 C964 0.959 . S
H950 C964 0.961 . S
H951 C965 0.960 . S
H952 C965 0.961 . S
H953 C965 0.959 . S
H954 C968 0.929 . S
H955 C969 0.931 . S
H956 C971 0.930 . S
C957 H945 0.930 . S
C957 C958 1.399 . S
C957 C962 1.399 . S
C958 C957 1.399 . S
C958 C959 1.376 . S
C959 H946 0.930 . S
C959 C958 1.376 . S
C959 C960 1.388 . S
C960 H947 0.930 . S
C960 C959 1.388 . S
C960 C961 1.390 . S
C961 C960 1.390 . S
C961 C962 1.394 . S
C961 C967 1.465 . S
C962 C957 1.399 . S
C962 C961 1.394 . S
C962 C963 1.516 . S
C963 C962 1.516 . S
C963 C964 1.502 . S
C963 C965 1.561 . S
C963 C966 1.526 . S
C964 H948 0.959 . S
C964 H949 0.959 . S
C964 H950 0.961 . S
C964 C963 1.502 . S
C965 H951 0.960 . S
C965 H952 0.961 . S
C965 H953 0.959 . S
C965 C963 1.561 . S
C966 C963 1.526 . S
C966 C967 1.396 . S
C966 C971 1.390 . S
C967 C961 1.465 . S
C967 C966 1.396 . S
C967 C968 1.399 . S
C968 H954 0.929 . S
C968 C967 1.399 . S
C968 C969 1.385 . S
C969 H955 0.931 . S
C969 C968 1.385 . S
C969 C970 1.389 . S
C970 C969 1.389 . S
C970 C971 1.387 . S
C971 H956 0.930 . S
C971 C966 1.390 . S
C971 C970 1.387 . S
H972 C984 0.930 . S
H973 C986 0.930 . S
H974 C987 0.930 . S
H975 C991 0.959 . S
H976 C991 0.959 . S
H977 C991 0.961 . S
H978 C992 0.960 . S
H979 C992 0.961 . S
H980 C992 0.959 . S
H981 C995 0.929 . S
H982 C996 0.931 . S
H983 C998 0.930 . S
C984 H972 0.930 . S
C984 C985 1.399 . S
C984 C989 1.399 . S
C985 C984 1.399 . S
C985 C986 1.376 . S
C986 H973 0.930 . S
C986 C985 1.376 . S
C986 C987 1.388 . S
C987 H974 0.930 . S
C987 C986 1.388 . S
C987 C988 1.390 . S
C988 C987 1.390 . S
C988 C989 1.394 . S
C988 C994 1.465 . S
C989 C984 1.399 . S
C989 C988 1.394 . S
C989 C990 1.516 . S
C990 C989 1.516 . S
C990 C991 1.502 . S
C990 C992 1.561 . S
C990 C993 1.526 . S
C991 H975 0.959 . S
C991 H976 0.959 . S
C991 H977 0.961 . S
C991 C990 1.502 . S
C992 H978 0.960 . S
C992 H979 0.961 . S
C992 H980 0.959 . S
C992 C990 1.561 . S
C993 C990 1.526 . S
C993 C994 1.396 . S
C993 C998 1.390 . S
C994 C988 1.465 . S
C994 C993 1.396 . S
C994 C995 1.399 . S
C995 H981 0.929 . S
C995 C994 1.399 . S
C995 C996 1.385 . S
C996 H982 0.931 . S
C996 C995 1.385 . S
C996 C997 1.389 . S
C997 C996 1.389 . S
C997 C998 1.387 . S
C998 H983 0.930 . S
C998 C993 1.390 . S
C998 C997 1.387 . S
H999 C1011 0.930 . S
H1000 C1013 0.930 . S
H1001 C1014 0.930 . S
H1002 C1018 0.959 . S
H1003 C1018 0.959 . S
H1004 C1018 0.961 . S
H1005 C1019 0.960 . S
H1006 C1019 0.961 . S
H1007 C1019 0.959 . S
H1008 C1022 0.929 . S
H1009 C1023 0.931 . S
H1010 C1025 0.930 . S
C1011 H999 0.930 . S
C1011 C1012 1.399 . S
C1011 C1016 1.399 . S
C1012 C1011 1.399 . S
C1012 C1013 1.376 . S
C1013 H1000 0.930 . S
C1013 C1012 1.376 . S
C1013 C1014 1.388 . S
C1014 H1001 0.930 . S
C1014 C1013 1.388 . S
C1014 C1015 1.390 . S
C1015 C1014 1.390 . S
C1015 C1016 1.394 . S
C1015 C1021 1.465 . S
C1016 C1011 1.399 . S
C1016 C1015 1.394 . S
C1016 C1017 1.516 . S
C1017 C1016 1.516 . S
C1017 C1018 1.502 . S
C1017 C1019 1.561 . S
C1017 C1020 1.526 . S
C1018 H1002 0.959 . S
C1018 H1003 0.959 . S
C1018 H1004 0.961 . S
C1018 C1017 1.502 . S
C1019 H1005 0.960 . S
C1019 H1006 0.961 . S
C1019 H1007 0.959 . S
C1019 C1017 1.561 . S
C1020 C1017 1.526 . S
C1020 C1021 1.396 . S
C1020 C1025 1.390 . S
C1021 C1015 1.465 . S
C1021 C1020 1.396 . S
C1021 C1022 1.399 . S
C1022 H1008 0.929 . S
C1022 C1021 1.399 . S
C1022 C1023 1.385 . S
C1023 H1009 0.931 . S
C1023 C1022 1.385 . S
C1023 C1024 1.389 . S
C1024 C1023 1.389 . S
C1024 C1025 1.387 . S
C1025 H1010 0.930 . S
C1025 C1020 1.390 . S
C1025 C1024 1.387 . S
H1026 C1038 0.930 . S
H1027 C1040 0.930 . S
H1028 C1041 0.930 . S
H1029 C1045 0.959 . S
H1030 C1045 0.959 . S
H1031 C1045 0.961 . S
H1032 C1046 0.960 . S
H1033 C1046 0.961 . S
H1034 C1046 0.959 . S
H1035 C1049 0.929 . S
H1036 C1050 0.931 . S
H1037 C1052 0.930 . S
C1038 H1026 0.930 . S
C1038 C1039 1.399 . S
C1038 C1043 1.399 . S
C1039 C1038 1.399 . S
C1039 C1040 1.376 . S
C1040 H1027 0.930 . S
C1040 C1039 1.376 . S
C1040 C1041 1.388 . S
C1041 H1028 0.930 . S
C1041 C1040 1.388 . S
C1041 C1042 1.390 . S
C1042 C1041 1.390 . S
C1042 C1043 1.394 . S
C1042 C1048 1.465 . S
C1043 C1038 1.399 . S
C1043 C1042 1.394 . S
C1043 C1044 1.516 . S
C1044 C1043 1.516 . S
C1044 C1045 1.502 . S
C1044 C1046 1.561 . S
C1044 C1047 1.526 . S
C1045 H1029 0.959 . S
C1045 H1030 0.959 . S
C1045 H1031 0.961 . S
C1045 C1044 1.502 . S
C1046 H1032 0.960 . S
C1046 H1033 0.961 . S
C1046 H1034 0.959 . S
C1046 C1044 1.561 . S
C1047 C1044 1.526 . S
C1047 C1048 1.396 . S
C1047 C1052 1.390 . S
C1048 C1042 1.465 . S
C1048 C1047 1.396 . S
C1048 C1049 1.399 . S
C1049 H1035 0.929 . S
C1049 C1048 1.399 . S
C1049 C1050 1.385 . S
C1050 H1036 0.931 . S
C1050 C1049 1.385 . S
C1050 C1051 1.389 . S
C1051 C1050 1.389 . S
C1051 C1052 1.387 . S
C1052 H1037 0.930 . S
C1052 C1047 1.390 . S
C1052 C1051 1.387 . S
H1053 C1065 0.930 . S
H1054 C1067 0.930 . S
H1055 C1068 0.930 . S
H1056 C1072 0.959 . S
H1057 C1072 0.959 . S
H1058 C1072 0.961 . S
H1059 C1073 0.960 . S
H1060 C1073 0.961 . S
H1061 C1073 0.959 . S
H1062 C1076 0.929 . S
H1063 C1077 0.931 . S
H1064 C1079 0.930 . S
C1065 H1053 0.930 . S
C1065 C1066 1.399 . S
C1065 C1070 1.399 . S
C1066 C1065 1.399 . S
C1066 C1067 1.376 . S
C1067 H1054 0.930 . S
C1067 C1066 1.376 . S
C1067 C1068 1.388 . S
C1068 H1055 0.930 . S
C1068 C1067 1.388 . S
C1068 C1069 1.390 . S
C1069 C1068 1.390 . S
C1069 C1070 1.394 . S
C1069 C1075 1.465 . S
C1070 C1065 1.399 . S
C1070 C1069 1.394 . S
C1070 C1071 1.516 . S
C1071 C1070 1.516 . S
C1071 C1072 1.502 . S
C1071 C1073 1.561 . S
C1071 C1074 1.526 . S
C1072 H1056 0.959 . S
C1072 H1057 0.959 . S
C1072 H1058 0.961 . S
C1072 C1071 1.502 . S
C1073 H1059 0.960 . S
C1073 H1060 0.961 . S
C1073 H1061 0.959 . S
C1073 C1071 1.561 . S
C1074 C1071 1.526 . S
C1074 C1075 1.396 . S
C1074 C1079 1.390 . S
C1075 C1069 1.465 . S
C1075 C1074 1.396 . S
C1075 C1076 1.399 . S
C1076 H1062 0.929 . S
C1076 C1075 1.399 . S
C1076 C1077 1.385 . S
C1077 H1063 0.931 . S
C1077 C1076 1.385 . S
C1077 C1078 1.389 . S
C1078 C1077 1.389 . S
C1078 C1079 1.387 . S
C1079 H1064 0.930 . S
C1079 C1074 1.390 . S
C1079 C1078 1.387 . S
H1080 C1092 0.930 . S
H1081 C1094 0.930 . S
H1082 C1095 0.930 . S
H1083 C1099 0.959 . S
H1084 C1099 0.959 . S
H1085 C1099 0.961 . S
H1086 C1100 0.960 . S
H1087 C1100 0.961 . S
H1088 C1100 0.959 . S
H1089 C1103 0.929 . S
H1090 C1104 0.931 . S
H1091 C1106 0.930 . S
C1092 H1080 0.930 . S
C1092 C1093 1.399 . S
C1092 C1097 1.399 . S
C1093 C1092 1.399 . S
C1093 C1094 1.376 . S
C1094 H1081 0.930 . S
C1094 C1093 1.376 . S
C1094 C1095 1.388 . S
C1095 H1082 0.930 . S
C1095 C1094 1.388 . S
C1095 C1096 1.390 . S
C1096 C1095 1.390 . S
C1096 C1097 1.394 . S
C1096 C1102 1.465 . S
C1097 C1092 1.399 . S
C1097 C1096 1.394 . S
C1097 C1098 1.516 . S
C1098 C1097 1.516 . S
C1098 C1099 1.502 . S
C1098 C1100 1.561 . S
C1098 C1101 1.526 . S
C1099 H1083 0.959 . S
C1099 H1084 0.959 . S
C1099 H1085 0.961 . S
C1099 C1098 1.502 . S
C1100 H1086 0.960 . S
C1100 H1087 0.961 . S
C1100 H1088 0.959 . S
C1100 C1098 1.561 . S
C1101 C1098 1.526 . S
C1101 C1102 1.396 . S
C1101 C1106 1.390 . S
C1102 C1096 1.465 . S
C1102 C1101 1.396 . S
C1102 C1103 1.399 . S
C1103 H1089 0.929 . S
C1103 C1102 1.399 . S
C1103 C1104 1.385 . S
C1104 H1090 0.931 . S
C1104 C1103 1.385 . S
C1104 C1105 1.389 . S
C1105 C1104 1.389 . S
C1105 C1106 1.387 . S
C1106 H1091 0.930 . S
C1106 C1101 1.390 . S
C1106 C1105 1.387 . S
H1107 C1119 0.930 . S
H1108 C1121 0.930 . S
H1109 C1122 0.930 . S
H1110 C1126 0.959 . S
H1111 C1126 0.959 . S
H1112 C1126 0.961 . S
H1113 C1127 0.960 . S
H1114 C1127 0.961 . S
H1115 C1127 0.959 . S
H1116 C1130 0.929 . S
H1117 C1131 0.931 . S
H1118 C1133 0.930 . S
C1119 H1107 0.930 . S
C1119 C1120 1.399 . S
C1119 C1124 1.399 . S
C1120 C1119 1.399 . S
C1120 C1121 1.376 . S
C1121 H1108 0.930 . S
C1121 C1120 1.376 . S
C1121 C1122 1.388 . S
C1122 H1109 0.930 . S
C1122 C1121 1.388 . S
C1122 C1123 1.390 . S
C1123 C1122 1.390 . S
C1123 C1124 1.394 . S
C1123 C1129 1.465 . S
C1124 C1119 1.399 . S
C1124 C1123 1.394 . S
C1124 C1125 1.516 . S
C1125 C1124 1.516 . S
C1125 C1126 1.502 . S
C1125 C1127 1.561 . S
C1125 C1128 1.526 . S
C1126 H1110 0.959 . S
C1126 H1111 0.959 . S
C1126 H1112 0.961 . S
C1126 C1125 1.502 . S
C1127 H1113 0.960 . S
C1127 H1114 0.961 . S
C1127 H1115 0.959 . S
C1127 C1125 1.561 . S
C1128 C1125 1.526 . S
C1128 C1129 1.396 . S
C1128 C1133 1.390 . S
C1129 C1123 1.465 . S
C1129 C1128 1.396 . S
C1129 C1130 1.399 . S
C1130 H1116 0.929 . S
C1130 C1129 1.399 . S
C1130 C1131 1.385 . S
C1131 H1117 0.931 . S
C1131 C1130 1.385 . S
C1131 C1132 1.389 . S
C1132 C1131 1.389 . S
C1132 C1133 1.387 . S
C1133 H1118 0.930 . S
C1133 C1128 1.390 . S
C1133 C1132 1.387 . S
H1134 C1146 0.930 . S
H1135 C1148 0.930 . S
H1136 C1149 0.930 . S
H1137 C1153 0.959 . S
H1138 C1153 0.959 . S
H1139 C1153 0.961 . S
H1140 C1154 0.960 . S
H1141 C1154 0.961 . S
H1142 C1154 0.959 . S
H1143 C1157 0.929 . S
H1144 C1158 0.931 . S
H1145 C1160 0.930 . S
C1146 H1134 0.930 . S
C1146 C1147 1.399 . S
C1146 C1151 1.399 . S
C1147 C1146 1.399 . S
C1147 C1148 1.376 . S
C1148 H1135 0.930 . S
C1148 C1147 1.376 . S
C1148 C1149 1.388 . S
C1149 H1136 0.930 . S
C1149 C1148 1.388 . S
C1149 C1150 1.390 . S
C1150 C1149 1.390 . S
C1150 C1151 1.394 . S
C1150 C1156 1.465 . S
C1151 C1146 1.399 . S
C1151 C1150 1.394 . S
C1151 C1152 1.516 . S
C1152 C1151 1.516 . S
C1152 C1153 1.502 . S
C1152 C1154 1.561 . S
C1152 C1155 1.526 . S
C1153 H1137 0.959 . S
C1153 H1138 0.959 . S
C1153 H1139 0.961 . S
C1153 C1152 1.502 . S
C1154 H1140 0.960 . S
C1154 H1141 0.961 . S
C1154 H1142 0.959 . S
C1154 C1152 1.561 . S
C1155 C1152 1.526 . S
C1155 C1156 1.396 . S
C1155 C1160 1.390 . S
C1156 C1150 1.465 . S
C1156 C1155 1.396 . S
C1156 C1157 1.399 . S
C1157 H1143 0.929 . S
C1157 C1156 1.399 . S
C1157 C1158 1.385 . S
C1158 H1144 0.931 . S
C1158 C1157 1.385 . S
C1158 C1159 1.389 . S
C1159 C1158 1.389 . S
C1159 C1160 1.387 . S
C1160 H1145 0.930 . S
C1160 C1155 1.390 . S
C1160 C1159 1.387 . S
H1161 C1173 0.930 . S
H1162 C1175 0.930 . S
H1163 C1176 0.930 . S
H1164 C1180 0.959 . S
H1165 C1180 0.959 . S
H1166 C1180 0.961 . S
H1167 C1181 0.960 . S
H1168 C1181 0.961 . S
H1169 C1181 0.959 . S
H1170 C1184 0.929 . S
H1171 C1185 0.931 . S
H1172 C1187 0.930 . S
C1173 H1161 0.930 . S
C1173 C1174 1.399 . S
C1173 C1178 1.399 . S
C1174 C1173 1.399 . S
C1174 C1175 1.376 . S
C1175 H1162 0.930 . S
C1175 C1174 1.376 . S
C1175 C1176 1.388 . S
C1176 H1163 0.930 . S
C1176 C1175 1.388 . S
C1176 C1177 1.390 . S
C1177 C1176 1.390 . S
C1177 C1178 1.394 . S
C1177 C1183 1.465 . S
C1178 C1173 1.399 . S
C1178 C1177 1.394 . S
C1178 C1179 1.516 . S
C1179 C1178 1.516 . S
C1179 C1180 1.502 . S
C1179 C1181 1.561 . S
C1179 C1182 1.526 . S
C1180 H1164 0.959 . S
C1180 H1165 0.959 . S
C1180 H1166 0.961 . S
C1180 C1179 1.502 . S
C1181 H1167 0.960 . S
C1181 H1168 0.961 . S
C1181 H1169 0.959 . S
C1181 C1179 1.561 . S
C1182 C1179 1.526 . S
C1182 C1183 1.396 . S
C1182 C1187 1.390 . S
C1183 C1177 1.465 . S
C1183 C1182 1.396 . S
C1183 C1184 1.399 . S
C1184 H1170 0.929 . S
C1184 C1183 1.399 . S
C1184 C1185 1.385 . S
C1185 H1171 0.931 . S
C1185 C1184 1.385 . S
C1185 C1186 1.389 . S
C1186 C1185 1.389 . S
C1186 C1187 1.387 . S
C1187 H1172 0.930 . S
C1187 C1182 1.390 . S
C1187 C1186 1.387 . S
H1188 C1200 0.930 . S
H1189 C1202 0.930 . S
H1190 C1203 0.930 . S
H1191 C1207 0.959 . S
H1192 C1207 0.959 . S
H1193 C1207 0.961 . S
H1194 C1208 0.960 . S
H1195 C1208 0.961 . S
H1196 C1208 0.959 . S
H1197 C1211 0.929 . S
H1198 C1212 0.931 . S
H1199 C1214 0.930 . S
C1200 H1188 0.930 . S
C1200 C1201 1.399 . S
C1200 C1205 1.399 . S
C1201 C1200 1.399 . S
C1201 C1202 1.376 . S
C1202 H1189 0.930 . S
C1202 C1201 1.376 . S
C1202 C1203 1.388 . S
C1203 H1190 0.930 . S
C1203 C1202 1.388 . S
C1203 C1204 1.390 . S
C1204 C1203 1.390 . S
C1204 C1205 1.394 . S
C1204 C1210 1.465 . S
C1205 C1200 1.399 . S
C1205 C1204 1.394 . S
C1205 C1206 1.516 . S
C1206 C1205 1.516 . S
C1206 C1207 1.502 . S
C1206 C1208 1.561 . S
C1206 C1209 1.526 . S
C1207 H1191 0.959 . S
C1207 H1192 0.959 . S
C1207 H1193 0.961 . S
C1207 C1206 1.502 . S
C1208 H1194 0.960 . S
C1208 H1195 0.961 . S
C1208 H1196 0.959 . S
C1208 C1206 1.561 . S
C1209 C1206 1.526 . S
C1209 C1210 1.396 . S
C1209 C1214 1.390 . S
C1210 C1204 1.465 . S
C1210 C1209 1.396 . S
C1210 C1211 1.399 . S
C1211 H1197 0.929 . S
C1211 C1210 1.399 . S
C1211 C1212 1.385 . S
C1212 H1198 0.931 . S
C1212 C1211 1.385 . S
C1212 C1213 1.389 . S
C1213 C1212 1.389 . S
C1213 C1214 1.387 . S
C1214 H1199 0.930 . S
C1214 C1209 1.390 . S
C1214 C1213 1.387 . S
H1215 C1227 0.930 . S
H1216 C1229 0.930 . S
H1217 C1230 0.930 . S
H1218 C1234 0.959 . S
H1219 C1234 0.959 . S
H1220 C1234 0.961 . S
H1221 C1235 0.960 . S
H1222 C1235 0.961 . S
H1223 C1235 0.959 . S
H1224 C1238 0.929 . S
H1225 C1239 0.931 . S
H1226 C1241 0.930 . S
C1227 H1215 0.930 . S
C1227 C1228 1.399 . S
C1227 C1232 1.399 . S
C1228 C1227 1.399 . S
C1228 C1229 1.376 . S
C1229 H1216 0.930 . S
C1229 C1228 1.376 . S
C1229 C1230 1.388 . S
C1230 H1217 0.930 . S
C1230 C1229 1.388 . S
C1230 C1231 1.390 . S
C1231 C1230 1.390 . S
C1231 C1232 1.394 . S
C1231 C1237 1.465 . S
C1232 C1227 1.399 . S
C1232 C1231 1.394 . S
C1232 C1233 1.516 . S
C1233 C1232 1.516 . S
C1233 C1234 1.502 . S
C1233 C1235 1.561 . S
C1233 C1236 1.526 . S
C1234 H1218 0.959 . S
C1234 H1219 0.959 . S
C1234 H1220 0.961 . S
C1234 C1233 1.502 . S
C1235 H1221 0.960 . S
C1235 H1222 0.961 . S
C1235 H1223 0.959 . S
C1235 C1233 1.561 . S
C1236 C1233 1.526 . S
C1236 C1237 1.396 . S
C1236 C1241 1.390 . S
C1237 C1231 1.465 . S
C1237 C1236 1.396 . S
C1237 C1238 1.399 . S
C1238 H1224 0.929 . S
C1238 C1237 1.399 . S
C1238 C1239 1.385 . S
C1239 H1225 0.931 . S
C1239 C1238 1.385 . S
C1239 C1240 1.389 . S
C1240 C1239 1.389 . S
C1240 C1241 1.387 . S
C1241 H1226 0.930 . S
C1241 C1236 1.390 . S
C1241 C1240 1.387 . S
H1242 C1254 0.930 . S
H1243 C1256 0.930 . S
H1244 C1257 0.930 . S
H1245 C1261 0.959 . S
H1246 C1261 0.959 . S
H1247 C1261 0.961 . S
H1248 C1262 0.960 . S
H1249 C1262 0.961 . S
H1250 C1262 0.959 . S
H1251 C1265 0.929 . S
H1252 C1266 0.931 . S
H1253 C1268 0.930 . S
C1254 H1242 0.930 . S
C1254 C1255 1.399 . S
C1254 C1259 1.399 . S
C1255 C1254 1.399 . S
C1255 C1256 1.376 . S
C1256 H1243 0.930 . S
C1256 C1255 1.376 . S
C1256 C1257 1.388 . S
C1257 H1244 0.930 . S
C1257 C1256 1.388 . S
C1257 C1258 1.390 . S
C1258 C1257 1.390 . S
C1258 C1259 1.394 . S
C1258 C1264 1.465 . S
C1259 C1254 1.399 . S
C1259 C1258 1.394 . S
C1259 C1260 1.516 . S
C1260 C1259 1.516 . S
C1260 C1261 1.502 . S
C1260 C1262 1.561 . S
C1260 C1263 1.526 . S
C1261 H1245 0.959 . S
C1261 H1246 0.959 . S
C1261 H1247 0.961 . S
C1261 C1260 1.502 . S
C1262 H1248 0.960 . S
C1262 H1249 0.961 . S
C1262 H1250 0.959 . S
C1262 C1260 1.561 . S
C1263 C1260 1.526 . S
C1263 C1264 1.396 . S
C1263 C1268 1.390 . S
C1264 C1258 1.465 . S
C1264 C1263 1.396 . S
C1264 C1265 1.399 . S
C1265 H1251 0.929 . S
C1265 C1264 1.399 . S
C1265 C1266 1.385 . S
C1266 H1252 0.931 . S
C1266 C1265 1.385 . S
C1266 C1267 1.389 . S
C1267 C1266 1.389 . S
C1267 C1268 1.387 . S
C1268 H1253 0.930 . S
C1268 C1263 1.390 . S
C1268 C1267 1.387 . S
H1269 C1281 0.930 . S
H1270 C1283 0.930 . S
H1271 C1284 0.930 . S
H1272 C1288 0.959 . S
H1273 C1288 0.959 . S
H1274 C1288 0.961 . S
H1275 C1289 0.960 . S
H1276 C1289 0.961 . S
H1277 C1289 0.959 . S
H1278 C1292 0.929 . S
H1279 C1293 0.931 . S
H1280 C1295 0.930 . S
C1281 H1269 0.930 . S
C1281 C1282 1.399 . S
C1281 C1286 1.399 . S
C1282 C1281 1.399 . S
C1282 C1283 1.376 . S
C1283 H1270 0.930 . S
C1283 C1282 1.376 . S
C1283 C1284 1.388 . S
C1284 H1271 0.930 . S
C1284 C1283 1.388 . S
C1284 C1285 1.390 . S
C1285 C1284 1.390 . S
C1285 C1286 1.394 . S
C1285 C1291 1.465 . S
C1286 C1281 1.399 . S
C1286 C1285 1.394 . S
C1286 C1287 1.516 . S
C1287 C1286 1.516 . S
C1287 C1288 1.502 . S
C1287 C1289 1.561 . S
C1287 C1290 1.526 . S
C1288 H1272 0.959 . S
C1288 H1273 0.959 . S
C1288 H1274 0.961 . S
C1288 C1287 1.502 . S
C1289 H1275 0.960 . S
C1289 H1276 0.961 . S
C1289 H1277 0.959 . S
C1289 C1287 1.561 . S
C1290 C1287 1.526 . S
C1290 C1291 1.396 . S
C1290 C1295 1.390 . S
C1291 C1285 1.465 . S
C1291 C1290 1.396 . S
C1291 C1292 1.399 . S
C1292 H1278 0.929 . S
C1292 C1291 1.399 . S
C1292 C1293 1.385 . S
C1293 H1279 0.931 . S
C1293 C1292 1.385 . S
C1293 C1294 1.389 . S
C1294 C1293 1.389 . S
C1294 C1295 1.387 . S
C1295 H1280 0.930 . S
C1295 C1290 1.390 . S
C1295 C1294 1.387 . S
H1296 C1308 0.930 . S
H1297 C1310 0.930 . S
H1298 C1311 0.930 . S
H1299 C1315 0.959 . S
H1300 C1315 0.959 . S
H1301 C1315 0.961 . S
H1302 C1316 0.960 . S
H1303 C1316 0.961 . S
H1304 C1316 0.959 . S
H1305 C1319 0.929 . S
H1306 C1320 0.931 . S
H1307 C1322 0.930 . S
C1308 H1296 0.930 . S
C1308 C1309 1.399 . S
C1308 C1313 1.399 . S
C1309 C1308 1.399 . S
C1309 C1310 1.376 . S
C1310 H1297 0.930 . S
C1310 C1309 1.376 . S
C1310 C1311 1.388 . S
C1311 H1298 0.930 . S
C1311 C1310 1.388 . S
C1311 C1312 1.390 . S
C1312 C1311 1.390 . S
C1312 C1313 1.394 . S
C1312 C1318 1.465 . S
C1313 C1308 1.399 . S
C1313 C1312 1.394 . S
C1313 C1314 1.516 . S
C1314 C1313 1.516 . S
C1314 C1315 1.502 . S
C1314 C1316 1.561 . S
C1314 C1317 1.526 . S
C1315 H1299 0.959 . S
C1315 H1300 0.959 . S
C1315 H1301 0.961 . S
C1315 C1314 1.502 . S
C1316 H1302 0.960 . S
C1316 H1303 0.961 . S
C1316 H1304 0.959 . S
C1316 C1314 1.561 . S
C1317 C1314 1.526 . S
C1317 C1318 1.396 . S
C1317 C1322 1.390 . S
C1318 C1312 1.465 . S
C1318 C1317 1.396 . S
C1318 C1319 1.399 . S
C1319 H1305 0.929 . S
C1319 C1318 1.399 . S
C1319 C1320 1.385 . S
C1320 H1306 0.931 . S
C1320 C1319 1.385 . S
C1320 C1321 1.389 . S
C1321 C1320 1.389 . S
C1321 C1322 1.387 . S
C1322 H1307 0.930 . S
C1322 C1317 1.390 . S
C1322 C1321 1.387 . S
H1323 C1335 0.930 . S
H1324 C1337 0.930 . S
H1325 C1338 0.930 . S
H1326 C1342 0.959 . S
H1327 C1342 0.959 . S
H1328 C1342 0.961 . S
H1329 C1343 0.960 . S
H1330 C1343 0.961 . S
H1331 C1343 0.959 . S
H1332 C1346 0.929 . S
H1333 C1347 0.931 . S
H1334 C1349 0.930 . S
C1335 H1323 0.930 . S
C1335 C1336 1.399 . S
C1335 C1340 1.399 . S
C1336 C1335 1.399 . S
C1336 C1337 1.376 . S
C1337 H1324 0.930 . S
C1337 C1336 1.376 . S
C1337 C1338 1.388 . S
C1338 H1325 0.930 . S
C1338 C1337 1.388 . S
C1338 C1339 1.390 . S
C1339 C1338 1.390 . S
C1339 C1340 1.394 . S
C1339 C1345 1.465 . S
C1340 C1335 1.399 . S
C1340 C1339 1.394 . S
C1340 C1341 1.516 . S
C1341 C1340 1.516 . S
C1341 C1342 1.502 . S
C1341 C1343 1.561 . S
C1341 C1344 1.526 . S
C1342 H1326 0.959 . S
C1342 H1327 0.959 . S
C1342 H1328 0.961 . S
C1342 C1341 1.502 . S
C1343 H1329 0.960 . S
C1343 H1330 0.961 . S
C1343 H1331 0.959 . S
C1343 C1341 1.561 . S
C1344 C1341 1.526 . S
C1344 C1345 1.396 . S
C1344 C1349 1.390 . S
C1345 C1339 1.465 . S
C1345 C1344 1.396 . S
C1345 C1346 1.399 . S
C1346 H1332 0.929 . S
C1346 C1345 1.399 . S
C1346 C1347 1.385 . S
C1347 H1333 0.931 . S
C1347 C1346 1.385 . S
C1347 C1348 1.389 . S
C1348 C1347 1.389 . S
C1348 C1349 1.387 . S
C1349 H1334 0.930 . S
C1349 C1344 1.390 . S
C1349 C1348 1.387 . S
H1350 C1362 0.930 . S
H1351 C1364 0.930 . S
H1352 C1365 0.930 . S
H1353 C1369 0.959 . S
H1354 C1369 0.959 . S
H1355 C1369 0.961 . S
H1356 C1370 0.960 . S
H1357 C1370 0.961 . S
H1358 C1370 0.959 . S
H1359 C1373 0.929 . S
H1360 C1374 0.931 . S
H1361 C1376 0.930 . S
C1362 H1350 0.930 . S
C1362 C1363 1.399 . S
C1362 C1367 1.399 . S
C1363 C1362 1.399 . S
C1363 C1364 1.376 . S
C1364 H1351 0.930 . S
C1364 C1363 1.376 . S
C1364 C1365 1.388 . S
C1365 H1352 0.930 . S
C1365 C1364 1.388 . S
C1365 C1366 1.390 . S
C1366 C1365 1.390 . S
C1366 C1367 1.394 . S
C1366 C1372 1.465 . S
C1367 C1362 1.399 . S
C1367 C1366 1.394 . S
C1367 C1368 1.516 . S
C1368 C1367 1.516 . S
C1368 C1369 1.502 . S
C1368 C1370 1.561 . S
C1368 C1371 1.526 . S
C1369 H1353 0.959 . S
C1369 H1354 0.959 . S
C1369 H1355 0.961 . S
C1369 C1368 1.502 . S
C1370 H1356 0.960 . S
C1370 H1357 0.961 . S
C1370 H1358 0.959 . S
C1370 C1368 1.561 . S
C1371 C1368 1.526 . S
C1371 C1372 1.396 . S
C1371 C1376 1.390 . S
C1372 C1366 1.465 . S
C1372 C1371 1.396 . S
C1372 C1373 1.399 . S
C1373 H1359 0.929 . S
C1373 C1372 1.399 . S
C1373 C1374 1.385 . S
C1374 H1360 0.931 . S
C1374 C1373 1.385 . S
C1374 C1375 1.389 . S
C1375 C1374 1.389 . S
C1375 C1376 1.387 . S
C1376 H1361 0.930 . S
C1376 C1371 1.390 . S
C1376 C1375 1.387 . S
H1377 C1389 0.930 . S
H1378 C1391 0.930 . S
H1379 C1392 0.930 . S
H1380 C1396 0.959 . S
H1381 C1396 0.959 . S
H1382 C1396 0.961 . S
H1383 C1397 0.960 . S
H1384 C1397 0.961 . S
H1385 C1397 0.959 . S
H1386 C1400 0.929 . S
H1387 C1401 0.931 . S
H1388 C1403 0.930 . S
C1389 H1377 0.930 . S
C1389 C1390 1.399 . S
C1389 C1394 1.399 . S
C1390 C1389 1.399 . S
C1390 C1391 1.376 . S
C1391 H1378 0.930 . S
C1391 C1390 1.376 . S
C1391 C1392 1.388 . S
C1392 H1379 0.930 . S
C1392 C1391 1.388 . S
C1392 C1393 1.390 . S
C1393 C1392 1.390 . S
C1393 C1394 1.394 . S
C1393 C1399 1.465 . S
C1394 C1389 1.399 . S
C1394 C1393 1.394 . S
C1394 C1395 1.516 . S
C1395 C1394 1.516 . S
C1395 C1396 1.502 . S
C1395 C1397 1.561 . S
C1395 C1398 1.526 . S
C1396 H1380 0.959 . S
C1396 H1381 0.959 . S
C1396 H1382 0.961 . S
C1396 C1395 1.502 . S
C1397 H1383 0.960 . S
C1397 H1384 0.961 . S
C1397 H1385 0.959 . S
C1397 C1395 1.561 . S
C1398 C1395 1.526 . S
C1398 C1399 1.396 . S
C1398 C1403 1.390 . S
C1399 C1393 1.465 . S
C1399 C1398 1.396 . S
C1399 C1400 1.399 . S
C1400 H1386 0.929 . S
C1400 C1399 1.399 . S
C1400 C1401 1.385 . S
C1401 H1387 0.931 . S
C1401 C1400 1.385 . S
C1401 C1402 1.389 . S
C1402 C1401 1.389 . S
C1402 C1403 1.387 . S
C1403 H1388 0.930 . S
C1403 C1398 1.390 . S
C1403 C1402 1.387 . S
H1404 C1416 0.930 . S
H1405 C1418 0.930 . S
H1406 C1419 0.930 . S
H1407 C1423 0.959 . S
H1408 C1423 0.959 . S
H1409 C1423 0.961 . S
H1410 C1424 0.960 . S
H1411 C1424 0.961 . S
H1412 C1424 0.959 . S
H1413 C1427 0.929 . S
H1414 C1428 0.931 . S
H1415 C1430 0.930 . S
C1416 H1404 0.930 . S
C1416 C1417 1.399 . S
C1416 C1421 1.399 . S
C1417 C1416 1.399 . S
C1417 C1418 1.376 . S
C1418 H1405 0.930 . S
C1418 C1417 1.376 . S
C1418 C1419 1.388 . S
C1419 H1406 0.930 . S
C1419 C1418 1.388 . S
C1419 C1420 1.390 . S
C1420 C1419 1.390 . S
C1420 C1421 1.394 . S
C1420 C1426 1.465 . S
C1421 C1416 1.399 . S
C1421 C1420 1.394 . S
C1421 C1422 1.516 . S
C1422 C1421 1.516 . S
C1422 C1423 1.502 . S
C1422 C1424 1.561 . S
C1422 C1425 1.526 . S
C1423 H1407 0.959 . S
C1423 H1408 0.959 . S
C1423 H1409 0.961 . S
C1423 C1422 1.502 . S
C1424 H1410 0.960 . S
C1424 H1411 0.961 . S
C1424 H1412 0.959 . S
C1424 C1422 1.561 . S
C1425 C1422 1.526 . S
C1425 C1426 1.396 . S
C1425 C1430 1.390 . S
C1426 C1420 1.465 . S
C1426 C1425 1.396 . S
C1426 C1427 1.399 . S
C1427 H1413 0.929 . S
C1427 C1426 1.399 . S
C1427 C1428 1.385 . S
C1428 H1414 0.931 . S
C1428 C1427 1.385 . S
C1428 C1429 1.389 . S
C1429 C1428 1.389 . S
C1429 C1430 1.387 . S
C1430 H1415 0.930 . S
C1430 C1425 1.390 . S
C1430 C1429 1.387 . S
H1431 C1443 0.930 . S
H1432 C1445 0.930 . S
H1433 C1446 0.930 . S
H1434 C1450 0.959 . S
H1435 C1450 0.959 . S
H1436 C1450 0.961 . S
H1437 C1451 0.960 . S
H1438 C1451 0.961 . S
H1439 C1451 0.959 . S
H1440 C1454 0.929 . S
H1441 C1455 0.931 . S
H1442 C1457 0.930 . S
C1443 H1431 0.930 . S
C1443 C1444 1.399 . S
C1443 C1448 1.399 . S
C1444 C1443 1.399 . S
C1444 C1445 1.376 . S
C1445 H1432 0.930 . S
C1445 C1444 1.376 . S
C1445 C1446 1.388 . S
C1446 H1433 0.930 . S
C1446 C1445 1.388 . S
C1446 C1447 1.390 . S
C1447 C1446 1.390 . S
C1447 C1448 1.394 . S
C1447 C1453 1.465 . S
C1448 C1443 1.399 . S
C1448 C1447 1.394 . S
C1448 C1449 1.516 . S
C1449 C1448 1.516 . S
C1449 C1450 1.502 . S
C1449 C1451 1.561 . S
C1449 C1452 1.526 . S
C1450 H1434 0.959 . S
C1450 H1435 0.959 . S
C1450 H1436 0.961 . S
C1450 C1449 1.502 . S
C1451 H1437 0.960 . S
C1451 H1438 0.961 . S
C1451 H1439 0.959 . S
C1451 C1449 1.561 . S
C1452 C1449 1.526 . S
C1452 C1453 1.396 . S
C1452 C1457 1.390 . S
C1453 C1447 1.465 . S
C1453 C1452 1.396 . S
C1453 C1454 1.399 . S
C1454 H1440 0.929 . S
C1454 C1453 1.399 . S
C1454 C1455 1.385 . S
C1455 H1441 0.931 . S
C1455 C1454 1.385 . S
C1455 C1456 1.389 . S
C1456 C1455 1.389 . S
C1456 C1457 1.387 . S
C1457 H1442 0.930 . S
C1457 C1452 1.390 . S
C1457 C1456 1.387 . S
H1458 C1470 0.930 . S
H1459 C1472 0.930 . S
H1460 C1473 0.930 . S
H1461 C1477 0.959 . S
H1462 C1477 0.959 . S
H1463 C1477 0.961 . S
H1464 C1478 0.960 . S
H1465 C1478 0.961 . S
H1466 C1478 0.959 . S
H1467 C1481 0.929 . S
H1468 C1482 0.931 . S
H1469 C1484 0.930 . S
C1470 H1458 0.930 . S
C1470 C1471 1.399 . S
C1470 C1475 1.399 . S
C1471 C1470 1.399 . S
C1471 C1472 1.376 . S
C1472 H1459 0.930 . S
C1472 C1471 1.376 . S
C1472 C1473 1.388 . S
C1473 H1460 0.930 . S
C1473 C1472 1.388 . S
C1473 C1474 1.390 . S
C1474 C1473 1.390 . S
C1474 C1475 1.394 . S
C1474 C1480 1.465 . S
C1475 C1470 1.399 . S
C1475 C1474 1.394 . S
C1475 C1476 1.516 . S
C1476 C1475 1.516 . S
C1476 C1477 1.502 . S
C1476 C1478 1.561 . S
C1476 C1479 1.526 . S
C1477 H1461 0.959 . S
C1477 H1462 0.959 . S
C1477 H1463 0.961 . S
C1477 C1476 1.502 . S
C1478 H1464 0.960 . S
C1478 H1465 0.961 . S
C1478 H1466 0.959 . S
C1478 C1476 1.561 . S
C1479 C1476 1.526 . S
C1479 C1480 1.396 . S
C1479 C1484 1.390 . S
C1480 C1474 1.465 . S
C1480 C1479 1.396 . S
C1480 C1481 1.399 . S
C1481 H1467 0.929 . S
C1481 C1480 1.399 . S
C1481 C1482 1.385 . S
C1482 H1468 0.931 . S
C1482 C1481 1.385 . S
C1482 C1483 1.389 . S
C1483 C1482 1.389 . S
C1483 C1484 1.387 . S
C1484 H1469 0.930 . S
C1484 C1479 1.390 . S
C1484 C1483 1.387 . S
H1485 C1497 0.930 . S
H1486 C1499 0.930 . S
H1487 C1500 0.930 . S
H1488 C1504 0.959 . S
H1489 C1504 0.959 . S
H1490 C1504 0.961 . S
H1491 C1505 0.960 . S
H1492 C1505 0.961 . S
H1493 C1505 0.959 . S
H1494 C1508 0.929 . S
H1495 C1509 0.931 . S
H1496 C1511 0.930 . S
C1497 H1485 0.930 . S
C1497 C1498 1.399 . S
C1497 C1502 1.399 . S
C1498 C1497 1.399 . S
C1498 C1499 1.376 . S
C1499 H1486 0.930 . S
C1499 C1498 1.376 . S
C1499 C1500 1.388 . S
C1500 H1487 0.930 . S
C1500 C1499 1.388 . S
C1500 C1501 1.390 . S
C1501 C1500 1.390 . S
C1501 C1502 1.394 . S
C1501 C1507 1.465 . S
C1502 C1497 1.399 . S
C1502 C1501 1.394 . S
C1502 C1503 1.516 . S
C1503 C1502 1.516 . S
C1503 C1504 1.502 . S
C1503 C1505 1.561 . S
C1503 C1506 1.526 . S
C1504 H1488 0.959 . S
C1504 H1489 0.959 . S
C1504 H1490 0.961 . S
C1504 C1503 1.502 . S
C1505 H1491 0.960 . S
C1505 H1492 0.961 . S
C1505 H1493 0.959 . S
C1505 C1503 1.561 . S
C1506 C1503 1.526 . S
C1506 C1507 1.396 . S
C1506 C1511 1.390 . S
C1507 C1501 1.465 . S
C1507 C1506 1.396 . S
C1507 C1508 1.399 . S
C1508 H1494 0.929 . S
C1508 C1507 1.399 . S
C1508 C1509 1.385 . S
C1509 H1495 0.931 . S
C1509 C1508 1.385 . S
C1509 C1510 1.389 . S
C1510 C1509 1.389 . S
C1510 C1511 1.387 . S
C1511 H1496 0.930 . S
C1511 C1506 1.390 . S
C1511 C1510 1.387 . S
H1512 C1524 0.930 . S
H1513 C1526 0.930 . S
H1514 C1527 0.930 . S
H1515 C1531 0.959 . S
H1516 C1531 0.959 . S
H1517 C1531 0.961 . S
H1518 C1532 0.960 . S
H1519 C1532 0.961 . S
H1520 C1532 0.959 . S
H1521 C1535 0.929 . S
H1522 C1536 0.931 . S
H1523 C1538 0.930 . S
C1524 H1512 0.930 . S
C1524 C1525 1.399 . S
C1524 C1529 1.399 . S
C1525 C1524 1.399 . S
C1525 C1526 1.376 . S
C1526 H1513 0.930 . S
C1526 C1525 1.376 . S
C1526 C1527 1.388 . S
C1527 H1514 0.930 . S
C1527 C1526 1.388 . S
C1527 C1528 1.390 . S
C1528 C1527 1.390 . S
C1528 C1529 1.394 . S
C1528 C1534 1.465 . S
C1529 C1524 1.399 . S
C1529 C1528 1.394 . S
C1529 C1530 1.516 . S
C1530 C1529 1.516 . S
C1530 C1531 1.502 . S
C1530 C1532 1.561 . S
C1530 C1533 1.526 . S
C1531 H1515 0.959 . S
C1531 H1516 0.959 . S
C1531 H1517 0.961 . S
C1531 C1530 1.502 . S
C1532 H1518 0.960 . S
C1532 H1519 0.961 . S
C1532 H1520 0.959 . S
C1532 C1530 1.561 . S
C1533 C1530 1.526 . S
C1533 C1534 1.396 . S
C1533 C1538 1.390 . S
C1534 C1528 1.465 . S
C1534 C1533 1.396 . S
C1534 C1535 1.399 . S
C1535 H1521 0.929 . S
C1535 C1534 1.399 . S
C1535 C1536 1.385 . S
C1536 H1522 0.931 . S
C1536 C1535 1.385 . S
C1536 C1537 1.389 . S
C1537 C1536 1.389 . S
C1537 C1538 1.387 . S
C1538 H1523 0.930 . S
C1538 C1533 1.390 . S
C1538 C1537 1.387 . S
H1539 C1551 0.930 . S
H1540 C1553 0.930 . S
H1541 C1554 0.930 . S
H1542 C1558 0.959 . S
H1543 C1558 0.959 . S
H1544 C1558 0.961 . S
H1545 C1559 0.960 . S
H1546 C1559 0.961 . S
H1547 C1559 0.959 . S
H1548 C1562 0.929 . S
H1549 C1563 0.931 . S
H1550 C1565 0.930 . S
C1551 H1539 0.930 . S
C1551 C1552 1.399 . S
C1551 C1556 1.399 . S
C1552 C1551 1.399 . S
C1552 C1553 1.376 . S
C1553 H1540 0.930 . S
C1553 C1552 1.376 . S
C1553 C1554 1.388 . S
C1554 H1541 0.930 . S
C1554 C1553 1.388 . S
C1554 C1555 1.390 . S
C1555 C1554 1.390 . S
C1555 C1556 1.394 . S
C1555 C1561 1.465 . S
C1556 C1551 1.399 . S
C1556 C1555 1.394 . S
C1556 C1557 1.516 . S
C1557 C1556 1.516 . S
C1557 C1558 1.502 . S
C1557 C1559 1.561 . S
C1557 C1560 1.526 . S
C1558 H1542 0.959 . S
C1558 H1543 0.959 . S
C1558 H1544 0.961 . S
C1558 C1557 1.502 . S
C1559 H1545 0.960 . S
C1559 H1546 0.961 . S
C1559 H1547 0.959 . S
C1559 C1557 1.561 . S
C1560 C1557 1.526 . S
C1560 C1561 1.396 . S
C1560 C1565 1.390 . S
C1561 C1555 1.465 . S
C1561 C1560 1.396 . S
C1561 C1562 1.399 . S
C1562 H1548 0.929 . S
C1562 C1561 1.399 . S
C1562 C1563 1.385 . S
C1563 H1549 0.931 . S
C1563 C1562 1.385 . S
C1563 C1564 1.389 . S
C1564 C1563 1.389 . S
C1564 C1565 1.387 . S
C1565 H1550 0.930 . S
C1565 C1560 1.390 . S
C1565 C1564 1.387 . S
H1566 C1578 0.930 . S
H1567 C1580 0.930 . S
H1568 C1581 0.930 . S
H1569 C1585 0.959 . S
H1570 C1585 0.959 . S
H1571 C1585 0.961 . S
H1572 C1586 0.960 . S
H1573 C1586 0.961 . S
H1574 C1586 0.959 . S
H1575 C1589 0.929 . S
H1576 C1590 0.931 . S
H1577 C1592 0.930 . S
C1578 H1566 0.930 . S
C1578 C1579 1.399 . S
C1578 C1583 1.399 . S
C1579 C1578 1.399 . S
C1579 C1580 1.376 . S
C1580 H1567 0.930 . S
C1580 C1579 1.376 . S
C1580 C1581 1.388 . S
C1581 H1568 0.930 . S
C1581 C1580 1.388 . S
C1581 C1582 1.390 . S
C1582 C1581 1.390 . S
C1582 C1583 1.394 . S
C1582 C1588 1.465 . S
C1583 C1578 1.399 . S
C1583 C1582 1.394 . S
C1583 C1584 1.516 . S
C1584 C1583 1.516 . S
C1584 C1585 1.502 . S
C1584 C1586 1.561 . S
C1584 C1587 1.526 . S
C1585 H1569 0.959 . S
C1585 H1570 0.959 . S
C1585 H1571 0.961 . S
C1585 C1584 1.502 . S
C1586 H1572 0.960 . S
C1586 H1573 0.961 . S
C1586 H1574 0.959 . S
C1586 C1584 1.561 . S
C1587 C1584 1.526 . S
C1587 C1588 1.396 . S
C1587 C1592 1.390 . S
C1588 C1582 1.465 . S
C1588 C1587 1.396 . S
C1588 C1589 1.399 . S
C1589 H1575 0.929 . S
C1589 C1588 1.399 . S
C1589 C1590 1.385 . S
C1590 H1576 0.931 . S
C1590 C1589 1.385 . S
C1590 C1591 1.389 . S
C1591 C1590 1.389 . S
C1591 C1592 1.387 . S
C1592 H1577 0.930 . S
C1592 C1587 1.390 . S
C1592 C1591 1.387 . S
H1593 C1605 0.930 . S
H1594 C1607 0.930 . S
H1595 C1608 0.930 . S
H1596 C1612 0.959 . S
H1597 C1612 0.959 . S
H1598 C1612 0.961 . S
H1599 C1613 0.960 . S
H1600 C1613 0.961 . S
H1601 C1613 0.959 . S
H1602 C1616 0.929 . S
H1603 C1617 0.931 . S
H1604 C1619 0.930 . S
C1605 H1593 0.930 . S
C1605 C1606 1.399 . S
C1605 C1610 1.399 . S
C1606 C1605 1.399 . S
C1606 C1607 1.376 . S
C1607 H1594 0.930 . S
C1607 C1606 1.376 . S
C1607 C1608 1.388 . S
C1608 H1595 0.930 . S
C1608 C1607 1.388 . S
C1608 C1609 1.390 . S
C1609 C1608 1.390 . S
C1609 C1610 1.394 . S
C1609 C1615 1.465 . S
C1610 C1605 1.399 . S
C1610 C1609 1.394 . S
C1610 C1611 1.516 . S
C1611 C1610 1.516 . S
C1611 C1612 1.502 . S
C1611 C1613 1.561 . S
C1611 C1614 1.526 . S
C1612 H1596 0.959 . S
C1612 H1597 0.959 . S
C1612 H1598 0.961 . S
C1612 C1611 1.502 . S
C1613 H1599 0.960 . S
C1613 H1600 0.961 . S
C1613 H1601 0.959 . S
C1613 C1611 1.561 . S
C1614 C1611 1.526 . S
C1614 C1615 1.396 . S
C1614 C1619 1.390 . S
C1615 C1609 1.465 . S
C1615 C1614 1.396 . S
C1615 C1616 1.399 . S
C1616 H1602 0.929 . S
C1616 C1615 1.399 . S
C1616 C1617 1.385 . S
C1617 H1603 0.931 . S
C1617 C1616 1.385 . S
C1617 C1618 1.389 . S
C1618 C1617 1.389 . S
C1618 C1619 1.387 . S
C1619 H1604 0.930 . S
C1619 C1614 1.390 . S
C1619 C1618 1.387 . S
H1620 C1632 0.930 . S
H1621 C1634 0.930 . S
H1622 C1635 0.930 . S
H1623 C1639 0.959 . S
H1624 C1639 0.959 . S
H1625 C1639 0.961 . S
H1626 C1640 0.960 . S
H1627 C1640 0.961 . S
H1628 C1640 0.959 . S
H1629 C1643 0.929 . S
H1630 C1644 0.931 . S
H1631 C1646 0.930 . S
C1632 H1620 0.930 . S
C1632 C1633 1.399 . S
C1632 C1637 1.399 . S
C1633 C1632 1.399 . S
C1633 C1634 1.376 . S
C1634 H1621 0.930 . S
C1634 C1633 1.376 . S
C1634 C1635 1.388 . S
C1635 H1622 0.930 . S
C1635 C1634 1.388 . S
C1635 C1636 1.390 . S
C1636 C1635 1.390 . S
C1636 C1637 1.394 . S
C1636 C1642 1.465 . S
C1637 C1632 1.399 . S
C1637 C1636 1.394 . S
C1637 C1638 1.516 . S
C1638 C1637 1.516 . S
C1638 C1639 1.502 . S
C1638 C1640 1.561 . S
C1638 C1641 1.526 . S
C1639 H1623 0.959 . S
C1639 H1624 0.959 . S
C1639 H1625 0.961 . S
C1639 C1638 1.502 . S
C1640 H1626 0.960 . S
C1640 H1627 0.961 . S
C1640 H1628 0.959 . S
C1640 C1638 1.561 . S
C1641 C1638 1.526 . S
C1641 C1642 1.396 . S
C1641 C1646 1.390 . S
C1642 C1636 1.465 . S
C1642 C1641 1.396 . S
C1642 C1643 1.399 . S
C1643 H1629 0.929 . S
C1643 C1642 1.399 . S
C1643 C1644 1.385 . S
C1644 H1630 0.931 . S
C1644 C1643 1.385 . S
C1644 C1645 1.389 . S
C1645 C1644 1.389 . S
C1645 C1646 1.387 . S
C1646 H1631 0.930 . S
C1646 C1641 1.390 . S
C1646 C1645 1.387 . S
H1647 C1659 0.930 . S
H1648 C1661 0.930 . S
H1649 C1662 0.930 . S
H1650 C1666 0.959 . S
H1651 C1666 0.959 . S
H1652 C1666 0.961 . S
H1653 C1667 0.960 . S
H1654 C1667 0.961 . S
H1655 C1667 0.959 . S
H1656 C1670 0.929 . S
H1657 C1671 0.931 . S
H1658 C1673 0.930 . S
C1659 H1647 0.930 . S
C1659 C1660 1.399 . S
C1659 C1664 1.399 . S
C1660 C1659 1.399 . S
C1660 C1661 1.376 . S
C1661 H1648 0.930 . S
C1661 C1660 1.376 . S
C1661 C1662 1.388 . S
C1662 H1649 0.930 . S
C1662 C1661 1.388 . S
C1662 C1663 1.390 . S
C1663 C1662 1.390 . S
C1663 C1664 1.394 . S
C1663 C1669 1.465 . S
C1664 C1659 1.399 . S
C1664 C1663 1.394 . S
C1664 C1665 1.516 . S
C1665 C1664 1.516 . S
C1665 C1666 1.502 . S
C1665 C1667 1.561 . S
C1665 C1668 1.526 . S
C1666 H1650 0.959 . S
C1666 H1651 0.959 . S
C1666 H1652 0.961 . S
C1666 C1665 1.502 . S
C1667 H1653 0.960 . S
C1667 H1654 0.961 . S
C1667 H1655 0.959 . S
C1667 C1665 1.561 . S
C1668 C1665 1.526 . S
C1668 C1669 1.396 . S
C1668 C1673 1.390 . S
C1669 C1663 1.465 . S
C1669 C1668 1.396 . S
C1669 C1670 1.399 . S
C1670 H1656 0.929 . S
C1670 C1669 1.399 . S
C1670 C1671 1.385 . S
C1671 H1657 0.931 . S
C1671 C1670 1.385 . S
C1671 C1672 1.389 . S
C1672 C1671 1.389 . S
C1672 C1673 1.387 . S
C1673 H1658 0.930 . S
C1673 C1668 1.390 . S
C1673 C1672 1.387 . S
H1674 C1686 0.930 . S
H1675 C1688 0.930 . S
H1676 C1689 0.930 . S
H1677 C1693 0.959 . S
H1678 C1693 0.959 . S
H1679 C1693 0.961 . S
H1680 C1694 0.960 . S
H1681 C1694 0.961 . S
H1682 C1694 0.959 . S
H1683 C1697 0.929 . S
H1684 C1698 0.931 . S
H1685 C1700 0.930 . S
C1686 H1674 0.930 . S
C1686 C1687 1.399 . S
C1686 C1691 1.399 . S
C1687 C1686 1.399 . S
C1687 C1688 1.376 . S
C1688 H1675 0.930 . S
C1688 C1687 1.376 . S
C1688 C1689 1.388 . S
C1689 H1676 0.930 . S
C1689 C1688 1.388 . S
C1689 C1690 1.390 . S
C1690 C1689 1.390 . S
C1690 C1691 1.394 . S
C1690 C1696 1.465 . S
C1691 C1686 1.399 . S
C1691 C1690 1.394 . S
C1691 C1692 1.516 . S
C1692 C1691 1.516 . S
C1692 C1693 1.502 . S
C1692 C1694 1.561 . S
C1692 C1695 1.526 . S
C1693 H1677 0.959 . S
C1693 H1678 0.959 . S
C1693 H1679 0.961 . S
C1693 C1692 1.502 . S
C1694 H1680 0.960 . S
C1694 H1681 0.961 . S
C1694 H1682 0.959 . S
C1694 C1692 1.561 . S
C1695 C1692 1.526 . S
C1695 C1696 1.396 . S
C1695 C1700 1.390 . S
C1696 C1690 1.465 . S
C1696 C1695 1.396 . S
C1696 C1697 1.399 . S
C1697 H1683 0.929 . S
C1697 C1696 1.399 . S
C1697 C1698 1.385 . S
C1698 H1684 0.931 . S
C1698 C1697 1.385 . S
C1698 C1699 1.389 . S
C1699 C1698 1.389 . S
C1699 C1700 1.387 . S
C1700 H1685 0.930 . S
C1700 C1695 1.390 . S
C1700 C1699 1.387 . S
H1701 C1713 0.930 . S
H1702 C1715 0.930 . S
H1703 C1716 0.930 . S
H1704 C1720 0.959 . S
H1705 C1720 0.959 . S
H1706 C1720 0.961 . S
H1707 C1721 0.960 . S
H1708 C1721 0.961 . S
H1709 C1721 0.959 . S
H1710 C1724 0.929 . S
H1711 C1725 0.931 . S
H1712 C1727 0.930 . S
C1713 H1701 0.930 . S
C1713 C1714 1.399 . S
C1713 C1718 1.399 . S
C1714 C1713 1.399 . S
C1714 C1715 1.376 . S
C1715 H1702 0.930 . S
C1715 C1714 1.376 . S
C1715 C1716 1.388 . S
C1716 H1703 0.930 . S
C1716 C1715 1.388 . S
C1716 C1717 1.390 . S
C1717 C1716 1.390 . S
C1717 C1718 1.394 . S
C1717 C1723 1.465 . S
C1718 C1713 1.399 . S
C1718 C1717 1.394 . S
C1718 C1719 1.516 . S
C1719 C1718 1.516 . S
C1719 C1720 1.502 . S
C1719 C1721 1.561 . S
C1719 C1722 1.526 . S
C1720 H1704 0.959 . S
C1720 H1705 0.959 . S
C1720 H1706 0.961 . S
C1720 C1719 1.502 . S
C1721 H1707 0.960 . S
C1721 H1708 0.961 . S
C1721 H1709 0.959 . S
C1721 C1719 1.561 . S
C1722 C1719 1.526 . S
C1722 C1723 1.396 . S
C1722 C1727 1.390 . S
C1723 C1717 1.465 . S
C1723 C1722 1.396 . S
C1723 C1724 1.399 . S
C1724 H1710 0.929 . S
C1724 C1723 1.399 . S
C1724 C1725 1.385 . S
C1725 H1711 0.931 . S
C1725 C1724 1.385 . S
C1725 C1726 1.389 . S
C1726 C1725 1.389 . S
C1726 C1727 1.387 . S
C1727 H1712 0.930 . S
C1727 C1722 1.390 . S
C1727 C1726 1.387 . S
H1728 C1740 0.930 . S
H1729 C1742 0.930 . S
H1730 C1743 0.930 . S
H1731 C1747 0.959 . S
H1732 C1747 0.959 . S
H1733 C1747 0.961 . S
H1734 C1748 0.960 . S
H1735 C1748 0.961 . S
H1736 C1748 0.959 . S
H1737 C1751 0.929 . S
H1738 C1752 0.931 . S
H1739 C1754 0.930 . S
C1740 H1728 0.930 . S
C1740 C1741 1.399 . S
C1740 C1745 1.399 . S
C1741 C1740 1.399 . S
C1741 C1742 1.376 . S
C1742 H1729 0.930 . S
C1742 C1741 1.376 . S
C1742 C1743 1.388 . S
C1743 H1730 0.930 . S
C1743 C1742 1.388 . S
C1743 C1744 1.390 . S
C1744 C1743 1.390 . S
C1744 C1745 1.394 . S
C1744 C1750 1.465 . S
C1745 C1740 1.399 . S
C1745 C1744 1.394 . S
C1745 C1746 1.516 . S
C1746 C1745 1.516 . S
C1746 C1747 1.502 . S
C1746 C1748 1.561 . S
C1746 C1749 1.526 . S
C1747 H1731 0.959 . S
C1747 H1732 0.959 . S
C1747 H1733 0.961 . S
C1747 C1746 1.502 . S
C1748 H1734 0.960 . S
C1748 H1735 0.961 . S
C1748 H1736 0.959 . S
C1748 C1746 1.561 . S
C1749 C1746 1.526 . S
C1749 C1750 1.396 . S
C1749 C1754 1.390 . S
C1750 C1744 1.465 . S
C1750 C1749 1.396 . S
C1750 C1751 1.399 . S
C1751 H1737 0.929 . S
C1751 C1750 1.399 . S
C1751 C1752 1.385 . S
C1752 H1738 0.931 . S
C1752 C1751 1.385 . S
C1752 C1753 1.389 . S
C1753 C1752 1.389 . S
C1753 C1754 1.387 . S
C1754 H1739 0.930 . S
C1754 C1749 1.390 . S
C1754 C1753 1.387 . S
H1755 C1767 0.930 . S
H1756 C1769 0.930 . S
H1757 C1770 0.930 . S
H1758 C1774 0.959 . S
H1759 C1774 0.959 . S
H1760 C1774 0.961 . S
H1761 C1775 0.960 . S
H1762 C1775 0.961 . S
H1763 C1775 0.959 . S
H1764 C1778 0.929 . S
H1765 C1779 0.931 . S
H1766 C1781 0.930 . S
C1767 H1755 0.930 . S
C1767 C1768 1.399 . S
C1767 C1772 1.399 . S
C1768 C1767 1.399 . S
C1768 C1769 1.376 . S
C1769 H1756 0.930 . S
C1769 C1768 1.376 . S
C1769 C1770 1.388 . S
C1770 H1757 0.930 . S
C1770 C1769 1.388 . S
C1770 C1771 1.390 . S
C1771 C1770 1.390 . S
C1771 C1772 1.394 . S
C1771 C1777 1.465 . S
C1772 C1767 1.399 . S
C1772 C1771 1.394 . S
C1772 C1773 1.516 . S
C1773 C1772 1.516 . S
C1773 C1774 1.502 . S
C1773 C1775 1.561 . S
C1773 C1776 1.526 . S
C1774 H1758 0.959 . S
C1774 H1759 0.959 . S
C1774 H1760 0.961 . S
C1774 C1773 1.502 . S
C1775 H1761 0.960 . S
C1775 H1762 0.961 . S
C1775 H1763 0.959 . S
C1775 C1773 1.561 . S
C1776 C1773 1.526 . S
C1776 C1777 1.396 . S
C1776 C1781 1.390 . S
C1777 C1771 1.465 . S
C1777 C1776 1.396 . S
C1777 C1778 1.399 . S
C1778 H1764 0.929 . S
C1778 C1777 1.399 . S
C1778 C1779 1.385 . S
C1779 H1765 0.931 . S
C1779 C1778 1.385 . S
C1779 C1780 1.389 . S
C1780 C1779 1.389 . S
C1780 C1781 1.387 . S
C1781 H1766 0.930 . S
C1781 C1776 1.390 . S
C1781 C1780 1.387 . S
H1782 C1794 0.930 . S
H1783 C1796 0.930 . S
H1784 C1797 0.930 . S
H1785 C1801 0.959 . S
H1786 C1801 0.959 . S
H1787 C1801 0.961 . S
H1788 C1802 0.960 . S
H1789 C1802 0.961 . S
H1790 C1802 0.959 . S
H1791 C1805 0.929 . S
H1792 C1806 0.931 . S
H1793 C1808 0.930 . S
C1794 H1782 0.930 . S
C1794 C1795 1.399 . S
C1794 C1799 1.399 . S
C1795 C1794 1.399 . S
C1795 C1796 1.376 . S
C1796 H1783 0.930 . S
C1796 C1795 1.376 . S
C1796 C1797 1.388 . S
C1797 H1784 0.930 . S
C1797 C1796 1.388 . S
C1797 C1798 1.390 . S
C1798 C1797 1.390 . S
C1798 C1799 1.394 . S
C1798 C1804 1.465 . S
C1799 C1794 1.399 . S
C1799 C1798 1.394 . S
C1799 C1800 1.516 . S
C1800 C1799 1.516 . S
C1800 C1801 1.502 . S
C1800 C1802 1.561 . S
C1800 C1803 1.526 . S
C1801 H1785 0.959 . S
C1801 H1786 0.959 . S
C1801 H1787 0.961 . S
C1801 C1800 1.502 . S
C1802 H1788 0.960 . S
C1802 H1789 0.961 . S
C1802 H1790 0.959 . S
C1802 C1800 1.561 . S
C1803 C1800 1.526 . S
C1803 C1804 1.396 . S
C1803 C1808 1.390 . S
C1804 C1798 1.465 . S
C1804 C1803 1.396 . S
C1804 C1805 1.399 . S
C1805 H1791 0.929 . S
C1805 C1804 1.399 . S
C1805 C1806 1.385 . S
C1806 H1792 0.931 . S
C1806 C1805 1.385 . S
C1806 C1807 1.389 . S
C1807 C1806 1.389 . S
C1807 C1808 1.387 . S
C1808 H1793 0.930 . S
C1808 C1803 1.390 . S
C1808 C1807 1.387 . S
H1809 C1821 0.930 . S
H1810 C1823 0.930 . S
H1811 C1824 0.930 . S
H1812 C1828 0.959 . S
H1813 C1828 0.959 . S
H1814 C1828 0.961 . S
H1815 C1829 0.960 . S
H1816 C1829 0.961 . S
H1817 C1829 0.959 . S
H1818 C1832 0.929 . S
H1819 C1833 0.931 . S
H1820 C1835 0.930 . S
C1821 H1809 0.930 . S
C1821 C1822 1.399 . S
C1821 C1826 1.399 . S
C1822 C1821 1.399 . S
C1822 C1823 1.376 . S
C1823 H1810 0.930 . S
C1823 C1822 1.376 . S
C1823 C1824 1.388 . S
C1824 H1811 0.930 . S
C1824 C1823 1.388 . S
C1824 C1825 1.390 . S
C1825 C1824 1.390 . S
C1825 C1826 1.394 . S
C1825 C1831 1.465 . S
C1826 C1821 1.399 . S
C1826 C1825 1.394 . S
C1826 C1827 1.516 . S
C1827 C1826 1.516 . S
C1827 C1828 1.502 . S
C1827 C1829 1.561 . S
C1827 C1830 1.526 . S
C1828 H1812 0.959 . S
C1828 H1813 0.959 . S
C1828 H1814 0.961 . S
C1828 C1827 1.502 . S
C1829 H1815 0.960 . S
C1829 H1816 0.961 . S
C1829 H1817 0.959 . S
C1829 C1827 1.561 . S
C1830 C1827 1.526 . S
C1830 C1831 1.396 . S
C1830 C1835 1.390 . S
C1831 C1825 1.465 . S
C1831 C1830 1.396 . S
C1831 C1832 1.399 . S
C1832 H1818 0.929 . S
C1832 C1831 1.399 . S
C1832 C1833 1.385 . S
C1833 H1819 0.931 . S
C1833 C1832 1.385 . S
C1833 C1834 1.389 . S
C1834 C1833 1.389 . S
C1834 C1835 1.387 . S
C1835 H1820 0.930 . S
C1835 C1830 1.390 . S
C1835 C1834 1.387 . S
H1836 C1848 0.930 . S
H1837 C1850 0.930 . S
H1838 C1851 0.930 . S
H1839 C1855 0.959 . S
H1840 C1855 0.959 . S
H1841 C1855 0.961 . S
H1842 C1856 0.960 . S
H1843 C1856 0.961 . S
H1844 C1856 0.959 . S
H1845 C1859 0.929 . S
H1846 C1860 0.931 . S
H1847 C1862 0.930 . S
C1848 H1836 0.930 . S
C1848 C1849 1.399 . S
C1848 C1853 1.399 . S
C1849 C1848 1.399 . S
C1849 C1850 1.376 . S
C1850 H1837 0.930 . S
C1850 C1849 1.376 . S
C1850 C1851 1.388 . S
C1851 H1838 0.930 . S
C1851 C1850 1.388 . S
C1851 C1852 1.390 . S
C1852 C1851 1.390 . S
C1852 C1853 1.394 . S
C1852 C1858 1.465 . S
C1853 C1848 1.399 . S
C1853 C1852 1.394 . S
C1853 C1854 1.516 . S
C1854 C1853 1.516 . S
C1854 C1855 1.502 . S
C1854 C1856 1.561 . S
C1854 C1857 1.526 . S
C1855 H1839 0.959 . S
C1855 H1840 0.959 . S
C1855 H1841 0.961 . S
C1855 C1854 1.502 . S
C1856 H1842 0.960 . S
C1856 H1843 0.961 . S
C1856 H1844 0.959 . S
C1856 C1854 1.561 . S
C1857 C1854 1.526 . S
C1857 C1858 1.396 . S
C1857 C1862 1.390 . S
C1858 C1852 1.465 . S
C1858 C1857 1.396 . S
C1858 C1859 1.399 . S
C1859 H1845 0.929 . S
C1859 C1858 1.399 . S
C1859 C1860 1.385 . S
C1860 H1846 0.931 . S
C1860 C1859 1.385 . S
C1860 C1861 1.389 . S
C1861 C1860 1.389 . S
C1861 C1862 1.387 . S
C1862 H1847 0.930 . S
C1862 C1857 1.390 . S
C1862 C1861 1.387 . S
H1863 C1875 0.930 . S
H1864 C1877 0.930 . S
H1865 C1878 0.930 . S
H1866 C1882 0.959 . S
H1867 C1882 0.959 . S
H1868 C1882 0.961 . S
H1869 C1883 0.960 . S
H1870 C1883 0.961 . S
H1871 C1883 0.959 . S
H1872 C1886 0.929 . S
H1873 C1887 0.931 . S
H1874 C1889 0.930 . S
C1875 H1863 0.930 . S
C1875 C1876 1.399 . S
C1875 C1880 1.399 . S
C1876 C1875 1.399 . S
C1876 C1877 1.376 . S
C1877 H1864 0.930 . S
C1877 C1876 1.376 . S
C1877 C1878 1.388 . S
C1878 H1865 0.930 . S
C1878 C1877 1.388 . S
C1878 C1879 1.390 . S
C1879 C1878 1.390 . S
C1879 C1880 1.394 . S
C1879 C1885 1.465 . S
C1880 C1875 1.399 . S
C1880 C1879 1.394 . S
C1880 C1881 1.516 . S
C1881 C1880 1.516 . S
C1881 C1882 1.502 . S
C1881 C1883 1.561 . S
C1881 C1884 1.526 . S
C1882 H1866 0.959 . S
C1882 H1867 0.959 . S
C1882 H1868 0.961 . S
C1882 C1881 1.502 . S
C1883 H1869 0.960 . S
C1883 H1870 0.961 . S
C1883 H1871 0.959 . S
C1883 C1881 1.561 . S
C1884 C1881 1.526 . S
C1884 C1885 1.396 . S
C1884 C1889 1.390 . S
C1885 C1879 1.465 . S
C1885 C1884 1.396 . S
C1885 C1886 1.399 . S
C1886 H1872 0.929 . S
C1886 C1885 1.399 . S
C1886 C1887 1.385 . S
C1887 H1873 0.931 . S
C1887 C1886 1.385 . S
C1887 C1888 1.389 . S
C1888 C1887 1.389 . S
C1888 C1889 1.387 . S
C1889 H1874 0.930 . S
C1889 C1884 1.390 . S
C1889 C1888 1.387 . S
H1890 C1902 0.930 . S
H1891 C1904 0.930 . S
H1892 C1905 0.930 . S
H1893 C1909 0.959 . S
H1894 C1909 0.959 . S
H1895 C1909 0.961 . S
H1896 C1910 0.960 . S
H1897 C1910 0.961 . S
H1898 C1910 0.959 . S
H1899 C1913 0.929 . S
H1900 C1914 0.931 . S
H1901 C1916 0.930 . S
C1902 H1890 0.930 . S
C1902 C1903 1.399 . S
C1902 C1907 1.399 . S
C1903 C1902 1.399 . S
C1903 C1904 1.376 . S
C1904 H1891 0.930 . S
C1904 C1903 1.376 . S
C1904 C1905 1.388 . S
C1905 H1892 0.930 . S
C1905 C1904 1.388 . S
C1905 C1906 1.390 . S
C1906 C1905 1.390 . S
C1906 C1907 1.394 . S
C1906 C1912 1.465 . S
C1907 C1902 1.399 . S
C1907 C1906 1.394 . S
C1907 C1908 1.516 . S
C1908 C1907 1.516 . S
C1908 C1909 1.502 . S
C1908 C1910 1.561 . S
C1908 C1911 1.526 . S
C1909 H1893 0.959 . S
C1909 H1894 0.959 . S
C1909 H1895 0.961 . S
C1909 C1908 1.502 . S
C1910 H1896 0.960 . S
C1910 H1897 0.961 . S
C1910 H1898 0.959 . S
C1910 C1908 1.561 . S
C1911 C1908 1.526 . S
C1911 C1912 1.396 . S
C1911 C1916 1.390 . S
C1912 C1906 1.465 . S
C1912 C1911 1.396 . S
C1912 C1913 1.399 . S
C1913 H1899 0.929 . S
C1913 C1912 1.399 . S
C1913 C1914 1.385 . S
C1914 H1900 0.931 . S
C1914 C1913 1.385 . S
C1914 C1915 1.389 . S
C1915 C1914 1.389 . S
C1915 C1916 1.387 . S
C1916 H1901 0.930 . S
C1916 C1911 1.390 . S
C1916 C1915 1.387 . S
H1917 C1929 0.930 . S
H1918 C1931 0.930 . S
H1919 C1932 0.930 . S
H1920 C1936 0.959 . S
H1921 C1936 0.959 . S
H1922 C1936 0.961 . S
H1923 C1937 0.960 . S
H1924 C1937 0.961 . S
H1925 C1937 0.959 . S
H1926 C1940 0.929 . S
H1927 C1941 0.931 . S
H1928 C1943 0.930 . S
C1929 H1917 0.930 . S
C1929 C1930 1.399 . S
C1929 C1934 1.399 . S
C1930 C1929 1.399 . S
C1930 C1931 1.376 . S
C1931 H1918 0.930 . S
C1931 C1930 1.376 . S
C1931 C1932 1.388 . S
C1932 H1919 0.930 . S
C1932 C1931 1.388 . S
C1932 C1933 1.390 . S
C1933 C1932 1.390 . S
C1933 C1934 1.394 . S
C1933 C1939 1.465 . S
C1934 C1929 1.399 . S
C1934 C1933 1.394 . S
C1934 C1935 1.516 . S
C1935 C1934 1.516 . S
C1935 C1936 1.502 . S
C1935 C1937 1.561 . S
C1935 C1938 1.526 . S
C1936 H1920 0.959 . S
C1936 H1921 0.959 . S
C1936 H1922 0.961 . S
C1936 C1935 1.502 . S
C1937 H1923 0.960 . S
C1937 H1924 0.961 . S
C1937 H1925 0.959 . S
C1937 C1935 1.561 . S
C1938 C1935 1.526 . S
C1938 C1939 1.396 . S
C1938 C1943 1.390 . S
C1939 C1933 1.465 . S
C1939 C1938 1.396 . S
C1939 C1940 1.399 . S
C1940 H1926 0.929 . S
C1940 C1939 1.399 . S
C1940 C1941 1.385 . S
C1941 H1927 0.931 . S
C1941 C1940 1.385 . S
C1941 C1942 1.389 . S
C1942 C1941 1.389 . S
C1942 C1943 1.387 . S
C1943 H1928 0.930 . S
C1943 C1938 1.390 . S
C1943 C1942 1.387 . S
H1944 C1956 0.930 . S
H1945 C1958 0.930 . S
H1946 C1959 0.930 . S
H1947 C1963 0.959 . S
H1948 C1963 0.959 . S
H1949 C1963 0.961 . S
H1950 C1964 0.960 . S
H1951 C1964 0.961 . S
H1952 C1964 0.959 . S
H1953 C1967 0.929 . S
H1954 C1968 0.931 . S
H1955 C1970 0.930 . S
C1956 H1944 0.930 . S
C1956 C1957 1.399 . S
C1956 C1961 1.399 . S
C1957 C1956 1.399 . S
C1957 C1958 1.376 . S
C1958 H1945 0.930 . S
C1958 C1957 1.376 . S
C1958 C1959 1.388 . S
C1959 H1946 0.930 . S
C1959 C1958 1.388 . S
C1959 C1960 1.390 . S
C1960 C1959 1.390 . S
C1960 C1961 1.394 . S
C1960 C1966 1.465 . S
C1961 C1956 1.399 . S
C1961 C1960 1.394 . S
C1961 C1962 1.516 . S
C1962 C1961 1.516 . S
C1962 C1963 1.502 . S
C1962 C1964 1.561 . S
C1962 C1965 1.526 . S
C1963 H1947 0.959 . S
C1963 H1948 0.959 . S
C1963 H1949 0.961 . S
C1963 C1962 1.502 . S
C1964 H1950 0.960 . S
C1964 H1951 0.961 . S
C1964 H1952 0.959 . S
C1964 C1962 1.561 . S
C1965 C1962 1.526 . S
C1965 C1966 1.396 . S
C1965 C1970 1.390 . S
C1966 C1960 1.465 . S
C1966 C1965 1.396 . S
C1966 C1967 1.399 . S
C1967 H1953 0.929 . S
C1967 C1966 1.399 . S
C1967 C1968 1.385 . S
C1968 H1954 0.931 . S
C1968 C1967 1.385 . S
C1968 C1969 1.389 . S
C1969 C1968 1.389 . S
C1969 C1970 1.387 . S
C1970 H1955 0.930 . S
C1970 C1965 1.390 . S
C1970 C1969 1.387 . S
H1971 C1983 0.930 . S
H1972 C1985 0.930 . S
H1973 C1986 0.930 . S
H1974 C1990 0.959 . S
H1975 C1990 0.959 . S
H1976 C1990 0.961 . S
H1977 C1991 0.960 . S
H1978 C1991 0.961 . S
H1979 C1991 0.959 . S
H1980 C1994 0.929 . S
H1981 C1995 0.931 . S
H1982 C1997 0.930 . S
C1983 H1971 0.930 . S
C1983 C1984 1.399 . S
C1983 C1988 1.399 . S
C1984 C1983 1.399 . S
C1984 C1985 1.376 . S
C1985 H1972 0.930 . S
C1985 C1984 1.376 . S
C1985 C1986 1.388 . S
C1986 H1973 0.930 . S
C1986 C1985 1.388 . S
C1986 C1987 1.390 . S
C1987 C1986 1.390 . S
C1987 C1988 1.394 . S
C1987 C1993 1.465 . S
C1988 C1983 1.399 . S
C1988 C1987 1.394 . S
C1988 C1989 1.516 . S
C1989 C1988 1.516 . S
C1989 C1990 1.502 . S
C1989 C1991 1.561 . S
C1989 C1992 1.526 . S
C1990 H1974 0.959 . S
C1990 H1975 0.959 . S
C1990 H1976 0.961 . S
C1990 C1989 1.502 . S
C1991 H1977 0.960 . S
C1991 H1978 0.961 . S
C1991 H1979 0.959 . S
C1991 C1989 1.561 . S
C1992 C1989 1.526 . S
C1992 C1993 1.396 . S
C1992 C1997 1.390 . S
C1993 C1987 1.465 . S
C1993 C1992 1.396 . S
C1993 C1994 1.399 . S
C1994 H1980 0.929 . S
C1994 C1993 1.399 . S
C1994 C1995 1.385 . S
C1995 H1981 0.931 . S
C1995 C1994 1.385 . S
C1995 C1996 1.389 . S
C1996 C1995 1.389 . S
C1996 C1997 1.387 . S
C1997 H1982 0.930 . S
C1997 C1992 1.390 . S
C1997 C1996 1.387 . S
H1998 C2010 0.930 . S
H1999 C2012 0.930 . S
H2000 C2013 0.930 . S
H2001 C2017 0.959 . S
H2002 C2017 0.959 . S
H2003 C2017 0.961 . S
H2004 C2018 0.960 . S
H2005 C2018 0.961 . S
H2006 C2018 0.959 . S
H2007 C2021 0.929 . S
H2008 C2022 0.931 . S
H2009 C2024 0.930 . S
C2010 H1998 0.930 . S
C2010 C2011 1.399 . S
C2010 C2015 1.399 . S
C2011 C2010 1.399 . S
C2011 C2012 1.376 . S
C2012 H1999 0.930 . S
C2012 C2011 1.376 . S
C2012 C2013 1.388 . S
C2013 H2000 0.930 . S
C2013 C2012 1.388 . S
C2013 C2014 1.390 . S
C2014 C2013 1.390 . S
C2014 C2015 1.394 . S
C2014 C2020 1.465 . S
C2015 C2010 1.399 . S
C2015 C2014 1.394 . S
C2015 C2016 1.516 . S
C2016 C2015 1.516 . S
C2016 C2017 1.502 . S
C2016 C2018 1.561 . S
C2016 C2019 1.526 . S
C2017 H2001 0.959 . S
C2017 H2002 0.959 . S
C2017 H2003 0.961 . S
C2017 C2016 1.502 . S
C2018 H2004 0.960 . S
C2018 H2005 0.961 . S
C2018 H2006 0.959 . S
C2018 C2016 1.561 . S
C2019 C2016 1.526 . S
C2019 C2020 1.396 . S
C2019 C2024 1.390 . S
C2020 C2014 1.465 . S
C2020 C2019 1.396 . S
C2020 C2021 1.399 . S
C2021 H2007 0.929 . S
C2021 C2020 1.399 . S
C2021 C2022 1.385 . S
C2022 H2008 0.931 . S
C2022 C2021 1.385 . S
C2022 C2023 1.389 . S
C2023 C2022 1.389 . S
C2023 C2024 1.387 . S
C2024 H2009 0.930 . S
C2024 C2019 1.390 . S
C2024 C2023 1.387 . S
H2025 C2037 0.930 . S
H2026 C2039 0.930 . S
H2027 C2040 0.930 . S
H2028 C2044 0.959 . S
H2029 C2044 0.959 . S
H2030 C2044 0.961 . S
H2031 C2045 0.960 . S
H2032 C2045 0.961 . S
H2033 C2045 0.959 . S
H2034 C2048 0.929 . S
H2035 C2049 0.931 . S
H2036 C2051 0.930 . S
C2037 H2025 0.930 . S
C2037 C2038 1.399 . S
C2037 C2042 1.399 . S
C2038 C2037 1.399 . S
C2038 C2039 1.376 . S
C2039 H2026 0.930 . S
C2039 C2038 1.376 . S
C2039 C2040 1.388 . S
C2040 H2027 0.930 . S
C2040 C2039 1.388 . S
C2040 C2041 1.390 . S
C2041 C2040 1.390 . S
C2041 C2042 1.394 . S
C2041 C2047 1.465 . S
C2042 C2037 1.399 . S
C2042 C2041 1.394 . S
C2042 C2043 1.516 . S
C2043 C2042 1.516 . S
C2043 C2044 1.502 . S
C2043 C2045 1.561 . S
C2043 C2046 1.526 . S
C2044 H2028 0.959 . S
C2044 H2029 0.959 . S
C2044 H2030 0.961 . S
C2044 C2043 1.502 . S
C2045 H2031 0.960 . S
C2045 H2032 0.961 . S
C2045 H2033 0.959 . S
C2045 C2043 1.561 . S
C2046 C2043 1.526 . S
C2046 C2047 1.396 . S
C2046 C2051 1.390 . S
C2047 C2041 1.465 . S
C2047 C2046 1.396 . S
C2047 C2048 1.399 . S
C2048 H2034 0.929 . S
C2048 C2047 1.399 . S
C2048 C2049 1.385 . S
C2049 H2035 0.931 . S
C2049 C2048 1.385 . S
C2049 C2050 1.389 . S
C2050 C2049 1.389 . S
C2050 C2051 1.387 . S
C2051 H2036 0.930 . S
C2051 C2046 1.390 . S
C2051 C2050 1.387 . S
H2052 C2064 0.930 . S
H2053 C2066 0.930 . S
H2054 C2067 0.930 . S
H2055 C2071 0.959 . S
H2056 C2071 0.959 . S
H2057 C2071 0.961 . S
H2058 C2072 0.960 . S
H2059 C2072 0.961 . S
H2060 C2072 0.959 . S
H2061 C2075 0.929 . S
H2062 C2076 0.931 . S
H2063 C2078 0.930 . S
C2064 H2052 0.930 . S
C2064 C2065 1.399 . S
C2064 C2069 1.399 . S
C2065 C2064 1.399 . S
C2065 C2066 1.376 . S
C2066 H2053 0.930 . S
C2066 C2065 1.376 . S
C2066 C2067 1.388 . S
C2067 H2054 0.930 . S
C2067 C2066 1.388 . S
C2067 C2068 1.390 . S
C2068 C2067 1.390 . S
C2068 C2069 1.394 . S
C2068 C2074 1.465 . S
C2069 C2064 1.399 . S
C2069 C2068 1.394 . S
C2069 C2070 1.516 . S
C2070 C2069 1.516 . S
C2070 C2071 1.502 . S
C2070 C2072 1.561 . S
C2070 C2073 1.526 . S
C2071 H2055 0.959 . S
C2071 H2056 0.959 . S
C2071 H2057 0.961 . S
C2071 C2070 1.502 . S
C2072 H2058 0.960 . S
C2072 H2059 0.961 . S
C2072 H2060 0.959 . S
C2072 C2070 1.561 . S
C2073 C2070 1.526 . S
C2073 C2074 1.396 . S
C2073 C2078 1.390 . S
C2074 C2068 1.465 . S
C2074 C2073 1.396 . S
C2074 C2075 1.399 . S
C2075 H2061 0.929 . S
C2075 C2074 1.399 . S
C2075 C2076 1.385 . S
C2076 H2062 0.931 . S
C2076 C2075 1.385 . S
C2076 C2077 1.389 . S
C2077 C2076 1.389 . S
C2077 C2078 1.387 . S
C2078 H2063 0.930 . S
C2078 C2073 1.390 . S
C2078 C2077 1.387 . S
H2079 C2091 0.930 . S
H2080 C2093 0.930 . S
H2081 C2094 0.930 . S
H2082 C2098 0.959 . S
H2083 C2098 0.959 . S
H2084 C2098 0.961 . S
H2085 C2099 0.960 . S
H2086 C2099 0.961 . S
H2087 C2099 0.959 . S
H2088 C2102 0.929 . S
H2089 C2103 0.931 . S
H2090 C2105 0.930 . S
C2091 H2079 0.930 . S
C2091 C2092 1.399 . S
C2091 C2096 1.399 . S
C2092 C2091 1.399 . S
C2092 C2093 1.376 . S
C2093 H2080 0.930 . S
C2093 C2092 1.376 . S
C2093 C2094 1.388 . S
C2094 H2081 0.930 . S
C2094 C2093 1.388 . S
C2094 C2095 1.390 . S
C2095 C2094 1.390 . S
C2095 C2096 1.394 . S
C2095 C2101 1.465 . S
C2096 C2091 1.399 . S
C2096 C2095 1.394 . S
C2096 C2097 1.516 . S
C2097 C2096 1.516 . S
C2097 C2098 1.502 . S
C2097 C2099 1.561 . S
C2097 C2100 1.526 . S
C2098 H2082 0.959 . S
C2098 H2083 0.959 . S
C2098 H2084 0.961 . S
C2098 C2097 1.502 . S
C2099 H2085 0.960 . S
C2099 H2086 0.961 . S
C2099 H2087 0.959 . S
C2099 C2097 1.561 . S
C2100 C2097 1.526 . S
C2100 C2101 1.396 . S
C2100 C2105 1.390 . S
C2101 C2095 1.465 . S
C2101 C2100 1.396 . S
C2101 C2102 1.399 . S
C2102 H2088 0.929 . S
C2102 C2101 1.399 . S
C2102 C2103 1.385 . S
C2103 H2089 0.931 . S
C2103 C2102 1.385 . S
C2103 C2104 1.389 . S
C2104 C2103 1.389 . S
C2104 C2105 1.387 . S
C2105 H2090 0.930 . S
C2105 C2100 1.390 . S
C2105 C2104 1.387 . S
H2106 C2118 0.930 . S
H2107 C2120 0.930 . S
H2108 C2121 0.930 . S
H2109 C2125 0.959 . S
H2110 C2125 0.959 . S
H2111 C2125 0.961 . S
H2112 C2126 0.960 . S
H2113 C2126 0.961 . S
H2114 C2126 0.959 . S
H2115 C2129 0.929 . S
H2116 C2130 0.931 . S
H2117 C2132 0.930 . S
C2118 H2106 0.930 . S
C2118 C2119 1.399 . S
C2118 C2123 1.399 . S
C2119 C2118 1.399 . S
C2119 C2120 1.376 . S
C2120 H2107 0.930 . S
C2120 C2119 1.376 . S
C2120 C2121 1.388 . S
C2121 H2108 0.930 . S
C2121 C2120 1.388 . S
C2121 C2122 1.390 . S
C2122 C2121 1.390 . S
C2122 C2123 1.394 . S
C2122 C2128 1.465 . S
C2123 C2118 1.399 . S
C2123 C2122 1.394 . S
C2123 C2124 1.516 . S
C2124 C2123 1.516 . S
C2124 C2125 1.502 . S
C2124 C2126 1.561 . S
C2124 C2127 1.526 . S
C2125 H2109 0.959 . S
C2125 H2110 0.959 . S
C2125 H2111 0.961 . S
C2125 C2124 1.502 . S
C2126 H2112 0.960 . S
C2126 H2113 0.961 . S
C2126 H2114 0.959 . S
C2126 C2124 1.561 . S
C2127 C2124 1.526 . S
C2127 C2128 1.396 . S
C2127 C2132 1.390 . S
C2128 C2122 1.465 . S
C2128 C2127 1.396 . S
C2128 C2129 1.399 . S
C2129 H2115 0.929 . S
C2129 C2128 1.399 . S
C2129 C2130 1.385 . S
C2130 H2116 0.931 . S
C2130 C2129 1.385 . S
C2130 C2131 1.389 . S
C2131 C2130 1.389 . S
C2131 C2132 1.387 . S
C2132 H2117 0.930 . S
C2132 C2127 1.390 . S
C2132 C2131 1.387 . S
H2133 C2145 0.930 . S
H2134 C2147 0.930 . S
H2135 C2148 0.930 . S
H2136 C2152 0.959 . S
H2137 C2152 0.959 . S
H2138 C2152 0.961 . S
H2139 C2153 0.960 . S
H2140 C2153 0.961 . S
H2141 C2153 0.959 . S
H2142 C2156 0.929 . S
H2143 C2157 0.931 . S
H2144 C2159 0.930 . S
C2145 H2133 0.930 . S
C2145 C2146 1.399 . S
C2145 C2150 1.399 . S
C2146 C2145 1.399 . S
C2146 C2147 1.376 . S
C2147 H2134 0.930 . S
C2147 C2146 1.376 . S
C2147 C2148 1.388 . S
C2148 H2135 0.930 . S
C2148 C2147 1.388 . S
C2148 C2149 1.390 . S
C2149 C2148 1.390 . S
C2149 C2150 1.394 . S
C2149 C2155 1.465 . S
C2150 C2145 1.399 . S
C2150 C2149 1.394 . S
C2150 C2151 1.516 . S
C2151 C2150 1.516 . S
C2151 C2152 1.502 . S
C2151 C2153 1.561 . S
C2151 C2154 1.526 . S
C2152 H2136 0.959 . S
C2152 H2137 0.959 . S
C2152 H2138 0.961 . S
C2152 C2151 1.502 . S
C2153 H2139 0.960 . S
C2153 H2140 0.961 . S
C2153 H2141 0.959 . S
C2153 C2151 1.561 . S
C2154 C2151 1.526 . S
C2154 C2155 1.396 . S
C2154 C2159 1.390 . S
C2155 C2149 1.465 . S
C2155 C2154 1.396 . S
C2155 C2156 1.399 . S
C2156 H2142 0.929 . S
C2156 C2155 1.399 . S
C2156 C2157 1.385 . S
C2157 H2143 0.931 . S
C2157 C2156 1.385 . S
C2157 C2158 1.389 . S
C2158 C2157 1.389 . S
C2158 C2159 1.387 . S
C2159 H2144 0.930 . S
C2159 C2154 1.390 . S
C2159 C2158 1.387 . S
C889 C689 1.673 . S
C877 C74 1.645 . S
C916 C694 1.288 . S
C904 C153 1.139 . S
C943 C695 1.584 . S
C931 C231 1.587 . S
C958 C310 0.850 . S
C970 C699 0.543 . S
C985 C394 1.212 . S
C997 C702 1.207 . S
C1024 C703 1.610 . S
C1012 C494 1.549 . S
C1039 C573 0.834 . S
C1051 C680 0.631 . S
C1066 C651 1.660 . S
C1078 C696 1.674 . S
C1105 C734 2.370 . S
C1093 C56 2.431 . S
C1120 C151 1.569 . S
C1132 C760 1.508 . S
C1159 C712 1.257 . S
C1147 C237 1.249 . S
C1186 C767 1.552 . S
C1174 C326 1.514 . S
C1201 C410 1.547 . S
C1213 C721 1.590 . S
C1240 C763 2.331 . S
C1228 C476 2.425 . S
C1255 C571 1.602 . S
C1267 C727 1.575 . S
C1282 C657 1.230 . S
C1294 C758 1.261 . S
C1309 C58 1.129 . S
C1321 C766 1.271 . S
C1336 C392 1.579 . S
C1348 C753 1.561 . S
C1375 C731 1.249 . S
C1363 C478 1.121 . S
C1402 C759 1.571 . S
C1390 C567 1.541 . S
C1417 C655 2.436 . S
C1429 C726 2.331 . S
C1444 C235 2.426 . S
C1456 C744 2.331 . S
C1483 C735 1.547 . S
C1471 C308 1.602 . S
C1498 C147 1.572 . S
C1510 C728 1.553 . S
C1525 C662 1.611 . S
C1537 C790 1.603 . S
C1552 C405 1.213 . S
C1564 C785 1.265 . S
C1591 C799 1.544 . S
C1579 C483 1.541 . S
C1618 C776 0.284 . S
C1606 C562 0.947 . S
C1633 C142 1.098 . S
C1645 C792 1.183 . S
C1672 C791 1.557 . S
C1660 C242 1.587 . S
C1687 C321 0.749 . S
C1699 C795 0.497 . S
C1714 C63 1.633 . S
C1726 C798 1.547 . S
C1741 C644 2.447 . S
C1753 C824 2.414 . S
C1780 C840 1.509 . S
C1768 C403 1.579 . S
C1795 C489 1.195 . S
C1807 C822 1.281 . S
C1822 C578 1.576 . S
C1834 C855 1.580 . S
C1861 C831 1.525 . S
C1849 C158 1.578 . S
C1876 C224 2.452 . S
C1888 C849 2.405 . S
C1915 C827 1.472 . S
C1903 C319 1.577 . S
C1942 C862 1.274 . S
C1930 C69 1.256 . S
C1969 C854 1.222 . S
C1957 C646 1.152 . S
C1984 C140 1.585 . S
C1996 C859 1.487 . S
C2011 C226 1.149 . S
C2023 C830 1.240 . S
C2050 C863 1.534 . S
C2038 C315 1.528 . S
C2065 C67 2.443 . S
C2077 C817 2.391 . S
C2092 C487 2.455 . S
C2104 C856 2.396 . S
C2131 C808 1.493 . S
C2119 C560 1.570 . S
C2158 C823 1.521 . S
C2146 C399 1.528 . S
