# Generated by pormake.
# Topology gar, (4,6)-cn, num edge types: 1
# Building blocks:
#     Node 0, Type 0, BuildingBlock: GALJAG_clean_sbu_0, # of connection points: 4
#     Node 1, Type 0, BuildingBlock: GALJAG_clean_sbu_0, # of connection points: 4
#     Node 2, Type 0, BuildingBlock: GALJAG_clean_sbu_0, # of connection points: 4
#     Node 3, Type 0, BuildingBlock: GALJAG_clean_sbu_0, # of connection points: 4
#     Node 4, Type 0, BuildingBlock: GALJAG_clean_sbu_0, # of connection points: 4
#     Node 5, Type 0, BuildingBlock: GALJAG_clean_sbu_0, # of connection points: 4
#     Node 6, Type 0, BuildingBlock: GALJAG_clean_sbu_0, # of connection points: 4
#     Node 7, Type 0, BuildingBlock: GALJAG_clean_sbu_0, # of connection points: 4
#     Node 8, Type 0, BuildingBlock: GALJAG_clean_sbu_0, # of connection points: 4
#     Node 9, Type 0, BuildingBlock: GALJAG_clean_sbu_0, # of connection points: 4
#     Node 10, Type 0, BuildingBlock: GALJAG_clean_sbu_0, # of connection points: 4
#     Node 11, Type 0, BuildingBlock: GALJAG_clean_sbu_0, # of connection points: 4
#     Node 12, Type 0, BuildingBlock: GALJAG_clean_sbu_0, # of connection points: 4
#     Node 13, Type 0, BuildingBlock: GALJAG_clean_sbu_0, # of connection points: 4
#     Node 14, Type 0, BuildingBlock: GALJAG_clean_sbu_0, # of connection points: 4
#     Node 15, Type 0, BuildingBlock: GALJAG_clean_sbu_0, # of connection points: 4
#     Node 16, Type 0, BuildingBlock: GALJAG_clean_sbu_0, # of connection points: 4
#     Node 17, Type 0, BuildingBlock: GALJAG_clean_sbu_0, # of connection points: 4
#     Node 18, Type 0, BuildingBlock: GALJAG_clean_sbu_0, # of connection points: 4
#     Node 19, Type 0, BuildingBlock: GALJAG_clean_sbu_0, # of connection points: 4
#     Node 20, Type 0, BuildingBlock: GALJAG_clean_sbu_0, # of connection points: 4
#     Node 21, Type 0, BuildingBlock: GALJAG_clean_sbu_0, # of connection points: 4
#     Node 22, Type 0, BuildingBlock: GALJAG_clean_sbu_0, # of connection points: 4
#     Node 23, Type 0, BuildingBlock: GALJAG_clean_sbu_0, # of connection points: 4
#     Node 24, Type 1, BuildingBlock: KUMBUR_clean_sbu_0, # of connection points: 6
#     Node 25, Type 1, BuildingBlock: KUMBUR_clean_sbu_0, # of connection points: 6
#     Node 26, Type 1, BuildingBlock: KUMBUR_clean_sbu_0, # of connection points: 6
#     Node 27, Type 1, BuildingBlock: KUMBUR_clean_sbu_0, # of connection points: 6
#     Node 28, Type 1, BuildingBlock: KUMBUR_clean_sbu_0, # of connection points: 6
#     Node 29, Type 1, BuildingBlock: KUMBUR_clean_sbu_0, # of connection points: 6
#     Node 30, Type 1, BuildingBlock: KUMBUR_clean_sbu_0, # of connection points: 6
#     Node 31, Type 1, BuildingBlock: KUMBUR_clean_sbu_0, # of connection points: 6
#     Node 32, Type 1, BuildingBlock: KUMBUR_clean_sbu_0, # of connection points: 6
#     Node 33, Type 1, BuildingBlock: KUMBUR_clean_sbu_0, # of connection points: 6
#     Node 34, Type 1, BuildingBlock: KUMBUR_clean_sbu_0, # of connection points: 6
#     Node 35, Type 1, BuildingBlock: KUMBUR_clean_sbu_0, # of connection points: 6
#     Node 36, Type 1, BuildingBlock: KUMBUR_clean_sbu_0, # of connection points: 6
#     Node 37, Type 1, BuildingBlock: KUMBUR_clean_sbu_0, # of connection points: 6
#     Node 38, Type 1, BuildingBlock: KUMBUR_clean_sbu_0, # of connection points: 6
#     Node 39, Type 1, BuildingBlock: KUMBUR_clean_sbu_0, # of connection points: 6
#     Edge 40, Type (0, 1), BuildingBlock: AJUNOK_clean_linker_0, # of connection points: 2
#     Edge 41, Type (0, 1), BuildingBlock: AJUNOK_clean_linker_0, # of connection points: 2
#     Edge 42, Type (0, 1), BuildingBlock: AJUNOK_clean_linker_0, # of connection points: 2
#     Edge 43, Type (0, 1), BuildingBlock: AJUNOK_clean_linker_0, # of connection points: 2
#     Edge 44, Type (0, 1), BuildingBlock: AJUNOK_clean_linker_0, # of connection points: 2
#     Edge 45, Type (0, 1), BuildingBlock: AJUNOK_clean_linker_0, # of connection points: 2
#     Edge 46, Type (0, 1), BuildingBlock: AJUNOK_clean_linker_0, # of connection points: 2
#     Edge 47, Type (0, 1), BuildingBlock: AJUNOK_clean_linker_0, # of connection points: 2
#     Edge 48, Type (0, 1), BuildingBlock: AJUNOK_clean_linker_0, # of connection points: 2
#     Edge 49, Type (0, 1), BuildingBlock: AJUNOK_clean_linker_0, # of connection points: 2
#     Edge 50, Type (0, 1), BuildingBlock: AJUNOK_clean_linker_0, # of connection points: 2
#     Edge 51, Type (0, 1), BuildingBlock: AJUNOK_clean_linker_0, # of connection points: 2
#     Edge 52, Type (0, 1), BuildingBlock: AJUNOK_clean_linker_0, # of connection points: 2
#     Edge 53, Type (0, 1), BuildingBlock: AJUNOK_clean_linker_0, # of connection points: 2
#     Edge 54, Type (0, 1), BuildingBlock: AJUNOK_clean_linker_0, # of connection points: 2
#     Edge 55, Type (0, 1), BuildingBlock: AJUNOK_clean_linker_0, # of connection points: 2
#     Edge 56, Type (0, 1), BuildingBlock: AJUNOK_clean_linker_0, # of connection points: 2
#     Edge 57, Type (0, 1), BuildingBlock: AJUNOK_clean_linker_0, # of connection points: 2
#     Edge 58, Type (0, 1), BuildingBlock: AJUNOK_clean_linker_0, # of connection points: 2
#     Edge 59, Type (0, 1), BuildingBlock: AJUNOK_clean_linker_0, # of connection points: 2
#     Edge 60, Type (0, 1), BuildingBlock: AJUNOK_clean_linker_0, # of connection points: 2
#     Edge 61, Type (0, 1), BuildingBlock: AJUNOK_clean_linker_0, # of connection points: 2
#     Edge 62, Type (0, 1), BuildingBlock: AJUNOK_clean_linker_0, # of connection points: 2
#     Edge 63, Type (0, 1), BuildingBlock: AJUNOK_clean_linker_0, # of connection points: 2
#     Edge 64, Type (0, 1), BuildingBlock: AJUNOK_clean_linker_0, # of connection points: 2
#     Edge 65, Type (0, 1), BuildingBlock: AJUNOK_clean_linker_0, # of connection points: 2
#     Edge 66, Type (0, 1), BuildingBlock: AJUNOK_clean_linker_0, # of connection points: 2
#     Edge 67, Type (0, 1), BuildingBlock: AJUNOK_clean_linker_0, # of connection points: 2
#     Edge 68, Type (0, 1), BuildingBlock: AJUNOK_clean_linker_0, # of connection points: 2
#     Edge 69, Type (0, 1), BuildingBlock: AJUNOK_clean_linker_0, # of connection points: 2
#     Edge 70, Type (0, 1), BuildingBlock: AJUNOK_clean_linker_0, # of connection points: 2
#     Edge 71, Type (0, 1), BuildingBlock: AJUNOK_clean_linker_0, # of connection points: 2
#     Edge 72, Type (0, 1), BuildingBlock: AJUNOK_clean_linker_0, # of connection points: 2
#     Edge 73, Type (0, 1), BuildingBlock: AJUNOK_clean_linker_0, # of connection points: 2
#     Edge 74, Type (0, 1), BuildingBlock: AJUNOK_clean_linker_0, # of connection points: 2
#     Edge 75, Type (0, 1), BuildingBlock: AJUNOK_clean_linker_0, # of connection points: 2
#     Edge 76, Type (0, 1), BuildingBlock: AJUNOK_clean_linker_0, # of connection points: 2
#     Edge 77, Type (0, 1), BuildingBlock: AJUNOK_clean_linker_0, # of connection points: 2
#     Edge 78, Type (0, 1), BuildingBlock: AJUNOK_clean_linker_0, # of connection points: 2
#     Edge 79, Type (0, 1), BuildingBlock: AJUNOK_clean_linker_0, # of connection points: 2
#     Edge 80, Type (0, 1), BuildingBlock: AJUNOK_clean_linker_0, # of connection points: 2
#     Edge 81, Type (0, 1), BuildingBlock: AJUNOK_clean_linker_0, # of connection points: 2
#     Edge 82, Type (0, 1), BuildingBlock: AJUNOK_clean_linker_0, # of connection points: 2
#     Edge 83, Type (0, 1), BuildingBlock: AJUNOK_clean_linker_0, # of connection points: 2
#     Edge 84, Type (0, 1), BuildingBlock: AJUNOK_clean_linker_0, # of connection points: 2
#     Edge 85, Type (0, 1), BuildingBlock: AJUNOK_clean_linker_0, # of connection points: 2
#     Edge 86, Type (0, 1), BuildingBlock: AJUNOK_clean_linker_0, # of connection points: 2
#     Edge 87, Type (0, 1), BuildingBlock: AJUNOK_clean_linker_0, # of connection points: 2
#     Edge 88, Type (0, 1), BuildingBlock: AJUNOK_clean_linker_0, # of connection points: 2
#     Edge 89, Type (0, 1), BuildingBlock: AJUNOK_clean_linker_0, # of connection points: 2
#     Edge 90, Type (0, 1), BuildingBlock: AJUNOK_clean_linker_0, # of connection points: 2
#     Edge 91, Type (0, 1), BuildingBlock: AJUNOK_clean_linker_0, # of connection points: 2
#     Edge 92, Type (0, 1), BuildingBlock: AJUNOK_clean_linker_0, # of connection points: 2
#     Edge 93, Type (0, 1), BuildingBlock: AJUNOK_clean_linker_0, # of connection points: 2
#     Edge 94, Type (0, 1), BuildingBlock: AJUNOK_clean_linker_0, # of connection points: 2
#     Edge 95, Type (0, 1), BuildingBlock: AJUNOK_clean_linker_0, # of connection points: 2
#     Edge 96, Type (0, 1), BuildingBlock: AJUNOK_clean_linker_0, # of connection points: 2
#     Edge 97, Type (0, 1), BuildingBlock: AJUNOK_clean_linker_0, # of connection points: 2
#     Edge 98, Type (0, 1), BuildingBlock: AJUNOK_clean_linker_0, # of connection points: 2
#     Edge 99, Type (0, 1), BuildingBlock: AJUNOK_clean_linker_0, # of connection points: 2
#     Edge 100, Type (0, 1), BuildingBlock: AJUNOK_clean_linker_0, # of connection points: 2
#     Edge 101, Type (0, 1), BuildingBlock: AJUNOK_clean_linker_0, # of connection points: 2
#     Edge 102, Type (0, 1), BuildingBlock: AJUNOK_clean_linker_0, # of connection points: 2
#     Edge 103, Type (0, 1), BuildingBlock: AJUNOK_clean_linker_0, # of connection points: 2
#     Edge 104, Type (0, 1), BuildingBlock: AJUNOK_clean_linker_0, # of connection points: 2
#     Edge 105, Type (0, 1), BuildingBlock: AJUNOK_clean_linker_0, # of connection points: 2
#     Edge 106, Type (0, 1), BuildingBlock: AJUNOK_clean_linker_0, # of connection points: 2
#     Edge 107, Type (0, 1), BuildingBlock: AJUNOK_clean_linker_0, # of connection points: 2
#     Edge 108, Type (0, 1), BuildingBlock: AJUNOK_clean_linker_0, # of connection points: 2
#     Edge 109, Type (0, 1), BuildingBlock: AJUNOK_clean_linker_0, # of connection points: 2
#     Edge 110, Type (0, 1), BuildingBlock: AJUNOK_clean_linker_0, # of connection points: 2
#     Edge 111, Type (0, 1), BuildingBlock: AJUNOK_clean_linker_0, # of connection points: 2
#     Edge 112, Type (0, 1), BuildingBlock: AJUNOK_clean_linker_0, # of connection points: 2
#     Edge 113, Type (0, 1), BuildingBlock: AJUNOK_clean_linker_0, # of connection points: 2
#     Edge 114, Type (0, 1), BuildingBlock: AJUNOK_clean_linker_0, # of connection points: 2
#     Edge 115, Type (0, 1), BuildingBlock: AJUNOK_clean_linker_0, # of connection points: 2
#     Edge 116, Type (0, 1), BuildingBlock: AJUNOK_clean_linker_0, # of connection points: 2
#     Edge 117, Type (0, 1), BuildingBlock: AJUNOK_clean_linker_0, # of connection points: 2
#     Edge 118, Type (0, 1), BuildingBlock: AJUNOK_clean_linker_0, # of connection points: 2
#     Edge 119, Type (0, 1), BuildingBlock: AJUNOK_clean_linker_0, # of connection points: 2
#     Edge 120, Type (0, 1), BuildingBlock: AJUNOK_clean_linker_0, # of connection points: 2
#     Edge 121, Type (0, 1), BuildingBlock: AJUNOK_clean_linker_0, # of connection points: 2
#     Edge 122, Type (0, 1), BuildingBlock: AJUNOK_clean_linker_0, # of connection points: 2
#     Edge 123, Type (0, 1), BuildingBlock: AJUNOK_clean_linker_0, # of connection points: 2
#     Edge 124, Type (0, 1), BuildingBlock: AJUNOK_clean_linker_0, # of connection points: 2
#     Edge 125, Type (0, 1), BuildingBlock: AJUNOK_clean_linker_0, # of connection points: 2
#     Edge 126, Type (0, 1), BuildingBlock: AJUNOK_clean_linker_0, # of connection points: 2
#     Edge 127, Type (0, 1), BuildingBlock: AJUNOK_clean_linker_0, # of connection points: 2
#     Edge 128, Type (0, 1), BuildingBlock: AJUNOK_clean_linker_0, # of connection points: 2
#     Edge 129, Type (0, 1), BuildingBlock: AJUNOK_clean_linker_0, # of connection points: 2
#     Edge 130, Type (0, 1), BuildingBlock: AJUNOK_clean_linker_0, # of connection points: 2
#     Edge 131, Type (0, 1), BuildingBlock: AJUNOK_clean_linker_0, # of connection points: 2
#     Edge 132, Type (0, 1), BuildingBlock: AJUNOK_clean_linker_0, # of connection points: 2
#     Edge 133, Type (0, 1), BuildingBlock: AJUNOK_clean_linker_0, # of connection points: 2
#     Edge 134, Type (0, 1), BuildingBlock: AJUNOK_clean_linker_0, # of connection points: 2
#     Edge 135, Type (0, 1), BuildingBlock: AJUNOK_clean_linker_0, # of connection points: 2
# Relax obj value: 0.157
# Max RMSD: 0.347
# Mean RMSD: 0.173
data_MOF--net-gar--node1-GALJAG_clean_sbu_0--node2-KUMBUR_clean_sbu_0--edge1-AJUNOK_clean_linker_0
_symmetry_space_group_name_H-M    P1
_symmetry_Int_Tables_number       1
_symmetry_cell_setting            triclinic
loop_
_symmetry_equiv_pos_as_xyz
'x, y, z'
_cell_length_a     47.311052
_cell_length_b     41.575934
_cell_length_c     41.647201
_cell_angle_alpha  100.49129
_cell_angle_beta   94.356002
_cell_angle_gamma 101.5488
loop_
_atom_site_label
_atom_site_type_symbol
_atom_site_fract_x
_atom_site_fract_y
_atom_site_fract_z
_atom_type_partial_charge
In0 In 0.1529 0.34936 0.39673 0.0
O1 O 0.17147 0.33074 0.35079 0.0
O2 O 0.20052 0.35618 0.39377 0.0
C3 C 0.10855 0.35844 0.3601 0.0
C4 C 0.1417 0.29797 0.42597 0.0
C5 C 0.14835 0.40246 0.44047 0.0
O6 O 0.13287 0.37867 0.36532 0.0
O7 O 0.10728 0.33198 0.37126 0.0
O8 O 0.13951 0.37288 0.44405 0.0
O9 O 0.16305 0.40541 0.4167 0.0
C10 C 0.19726 0.34159 0.36397 0.0
O11 O 0.16272 0.32263 0.43699 0.0
O12 O 0.12801 0.29853 0.39892 0.0
In13 In 1.01143 0.76946 0.67846 0.0
O14 O 1.00209 0.79232 0.63559 0.0
O15 O 0.03029 0.82302 0.67727 0.0
C16 C 1.00979 0.7109 0.64007 0.0
C17 C 0.06201 0.7682 0.70954 0.0
C18 C 0.96512 0.77253 0.70916 0.0
O19 O 1.01153 0.7373 0.62887 0.0
O20 O 1.00645 0.71379 0.67007 0.0
O21 O 0.9901 0.78739 0.72309 0.0
O22 O 0.96394 0.75724 0.67994 0.0
C23 C 0.01903 0.82009 0.64808 0.0
O24 O 0.03803 0.75536 0.71816 0.0
O25 O 0.06052 0.78362 0.6863 0.0
In26 In 0.65053 0.85004 0.89733 0.0
O27 O 0.66749 0.82417 0.85333 0.0
O28 O 0.69766 0.86088 0.88903 0.0
C29 C 0.60097 0.85098 0.86439 0.0
C30 C 0.6392 0.80018 0.92873 0.0
C31 C 0.65372 0.90983 0.93452 0.0
O32 O 0.62283 0.84666 0.8499 0.0
O33 O 0.60417 0.85438 0.89518 0.0
O34 O 0.65479 0.88429 0.94647 0.0
O35 O 0.65552 0.90625 0.90403 0.0
C36 C 0.69334 0.83988 0.86213 0.0
O37 O 0.66267 0.82196 0.93568 0.0
O38 O 0.62258 0.80256 0.90469 0.0
In39 In 0.51521 0.26956 0.18154 0.0
O40 O 0.52547 0.24853 0.13157 0.0
O41 O 0.50629 0.21385 0.15975 0.0
C42 C 0.52079 0.32068 0.15146 0.0
C43 C 0.46828 0.26696 0.21248 0.0
C44 C 0.56384 0.26456 0.2146 0.0
O45 O 0.50194 0.29386 0.14105 0.0
O46 O 0.53422 0.32307 0.17953 0.0
O47 O 0.54016 0.24369 0.21264 0.0
O48 O 0.56249 0.28945 0.20172 0.0
C49 C 0.51674 0.21845 0.13358 0.0
O50 O 0.49242 0.28457 0.22658 0.0
O51 O 0.46829 0.25297 0.18309 0.0
In52 In 0.13128 0.83579 0.13205 0.0
O53 O 0.13374 0.78752 0.09078 0.0
O54 O 0.1136 0.78002 0.13283 0.0
C55 C 0.12541 0.89284 0.10408 0.0
C56 C 0.08327 0.83626 0.16324 0.0
C57 C 0.18203 0.84148 0.17426 0.0
O58 O 0.11998 0.86305 0.08736 0.0
O59 O 0.13579 0.8938 0.13321 0.0
O60 O 0.15673 0.83759 0.18261 0.0
O61 O 0.18254 0.84403 0.14433 0.0
C62 C 0.12109 0.76615 0.10635 0.0
O63 O 0.10864 0.84927 0.17727 0.0
O64 O 0.08206 0.82366 0.13306 0.0
In65 In 0.53247 0.78619 0.45319 0.0
O66 O 0.55593 0.77589 0.40685 0.0
O67 O 0.58193 0.80041 0.45149 0.0
C68 C 0.47771 0.78272 0.41835 0.0
C69 C 0.53994 0.72882 0.47988 0.0
C70 C 0.5421 0.85422 0.48455 0.0
O71 O 0.50122 0.78387 0.40568 0.0
O72 O 0.48105 0.78103 0.44849 0.0
O73 O 0.53461 0.83032 0.49948 0.0
O74 O 0.54493 0.84377 0.45485 0.0
C75 C 0.58128 0.78871 0.42122 0.0
O76 O 0.54353 0.75831 0.49676 0.0
O77 O 0.53037 0.72763 0.45037 0.0
In78 In 0.62977 0.33381 0.63147 0.0
O79 O 0.63313 0.28526 0.59121 0.0
O80 O 0.6109 0.27834 0.63201 0.0
C81 C 0.62475 0.39045 0.60244 0.0
C82 C 0.58401 0.33322 0.66655 0.0
C83 C 0.68165 0.33946 0.67138 0.0
O84 O 0.61327 0.36046 0.58841 0.0
O85 O 0.64027 0.39118 0.62876 0.0
O86 O 0.65912 0.34719 0.68208 0.0
O87 O 0.67892 0.33129 0.6402 0.0
C88 C 0.61971 0.26417 0.60654 0.0
O89 O 0.61002 0.34196 0.67962 0.0
O90 O 0.58097 0.32586 0.63553 0.0
In91 In 0.03341 0.28762 0.95632 0.0
O92 O 0.04222 0.25746 0.99977 0.0
O93 O 0.03442 0.23037 0.95154 0.0
C94 C 0.04473 0.35612 0.98555 0.0
C95 C 0.08132 0.29045 0.9232 0.0
C96 C 0.97849 0.28415 0.92189 0.0
O97 O 0.03446 0.33328 1.00074 0.0
O98 O 0.04995 0.34424 0.9571 0.0
O99 O 1.00031 0.27747 0.90858 0.0
O100 O 0.98333 0.29019 0.95297 0.0
C101 C 0.04167 0.22946 0.98113 0.0
O102 O 0.0556 0.28117 0.90893 0.0
O103 O 0.08285 0.299 0.9541 0.0
In104 In 0.44754 0.05145 0.33261 0.0
O105 O 0.4731 0.06667 0.29358 0.0
O106 O 0.43728 1.02462 0.27988 0.0
C107 C 0.49076 0.06583 0.37828 0.0
C108 C 0.41624 0.09577 0.33006 0.0
C109 C 0.41587 0.99586 0.34308 0.0
O110 O 0.48924 0.04264 0.35382 0.0
O111 O 0.47098 0.08197 0.3785 0.0
O112 O 0.40904 1.0237 0.35162 0.0
O113 O 0.43948 0.99653 0.3307 0.0
C114 C 0.45828 0.04364 0.2712 0.0
O115 O 0.40781 0.07 0.34169 0.0
O116 O 0.44207 0.10079 0.32325 0.0
In117 In 0.30751 0.21159 0.52521 0.0
O118 O 0.30759 0.2569 0.56937 0.0
O119 O 0.30985 0.20945 0.57955 0.0
C120 C 0.31482 0.2359 0.46796 0.0
C121 C 0.35617 0.18776 0.53067 0.0
C122 C 0.2528 0.17218 0.5175 0.0
O123 O 0.32053 0.25468 0.49631 0.0
O124 O 0.30455 0.20571 0.46864 0.0
O125 O 0.27532 0.16021 0.51686 0.0
O126 O 0.25799 0.20382 0.52134 0.0
C127 C 0.30946 0.23953 0.59132 0.0
O128 O 0.33244 0.16978 0.51585 0.0
O129 O 0.35561 0.21788 0.54178 0.0
In130 In 0.20758 0.03201 0.78983 0.0
O131 O 0.16361 0.0354 0.75278 0.0
O132 O 0.19892 0.02816 0.72941 0.0
C133 C 0.1762 0.03357 0.85134 0.0
C134 C 0.24181 0.97569 0.78877 0.0
C135 C 0.24356 0.0993 0.79487 0.0
O136 O 0.16673 1.01469 0.82311 0.0
O137 O 0.20104 0.05083 0.84875 0.0
O138 O 0.25082 0.07229 0.78286 0.0
O139 O 0.21915 0.09262 0.80534 0.0
C140 C 0.17335 0.03296 0.72492 0.0
O141 O 0.24499 1.00244 0.81051 0.0
O142 O 0.221 0.97634 0.76767 0.0
In143 In 0.36179 0.96611 0.02154 0.0
O144 O 0.35312 0.91849 0.0402 0.0
O145 O 0.37091 0.96459 0.07434 0.0
C146 C 0.35267 0.92698 0.96476 0.0
C147 C 0.3219 0.99965 0.03534 0.0
C148 C 0.41591 0.99265 1.0153 0.0
O149 O 0.34026 0.91839 0.98863 0.0
O150 O 0.36716 0.9566 0.96863 0.0
O151 O 0.39563 1.00765 1.01097 0.0
O152 O 0.40894 0.96535 0.02485 0.0
C153 C 0.36223 0.9332 0.06943 0.0
O154 O 0.34616 1.00612 0.05242 0.0
O155 O 0.31838 0.97792 1.00918 0.0
In156 In 0.35952 0.40323 0.05186 0.0
O157 O 0.3516 0.35816 0.07905 0.0
O158 O 0.35043 0.40598 0.10582 0.0
C159 C 0.35602 0.37556 0.98592 0.0
C160 C 0.31161 0.42857 0.04802 0.0
C161 C 0.41529 0.44187 0.06071 0.0
O162 O 0.35493 0.35748 1.00747 0.0
O163 O 0.35886 0.40631 0.99789 0.0
O164 O 0.39298 0.45413 0.0605 0.0
O165 O 0.40952 0.41037 0.05816 0.0
C166 C 0.34706 0.37517 0.1059 0.0
O167 O 0.33592 0.44589 0.06202 0.0
O168 O 0.3115 0.39842 0.03598 0.0
In169 In 0.80149 0.1444 0.05178 0.0
O170 O 0.81412 0.09456 0.05098 0.0
O171 O 0.84679 0.13878 0.05376 0.0
C172 C 0.74568 0.12273 0.05616 0.0
C173 C 0.81273 0.19274 0.10285 0.0
C174 C 0.80693 0.17168 0.99944 0.0
O175 O 0.75826 0.10898 0.03349 0.0
O176 O 0.76158 0.14565 0.07759 0.0
O177 O 0.82356 0.18288 0.02573 0.0
O178 O 0.7885 0.14505 0.99894 0.0
C179 C 0.84074 0.10769 0.05197 0.0
O180 O 0.80142 0.19629 0.07566 0.0
O181 O 0.81782 0.16423 0.10442 0.0
In182 In 0.23339 0.57077 0.23938 0.0
O183 O 0.26532 0.54051 0.22048 0.0
O184 O 0.23371 0.52153 0.25041 0.0
C185 C 0.27023 0.62822 0.24499 0.0
C186 C 0.18971 0.54758 0.19368 0.0
C187 C 0.21058 0.59421 0.29214 0.0
O188 O 0.27528 0.6065 0.26099 0.0
O189 O 0.24833 0.61909 0.22351 0.0
O190 O 0.20567 0.60228 0.26492 0.0
O191 O 0.22683 0.57364 0.29291 0.0
C192 C 0.25432 0.51684 0.23405 0.0
O193 O 0.18895 0.54096 0.22185 0.0
O194 O 0.21311 0.56539 0.1882 0.0
In195 In 0.86021 0.90031 0.55052 0.0
O196 O 0.85122 0.8552 0.57804 0.0
O197 O 0.85132 0.90368 0.60416 0.0
C198 C 0.85713 0.8734 0.4848 0.0
C199 C 0.81217 0.92594 0.5445 0.0
C200 C 0.91607 0.93919 0.55953 0.0
O201 O 0.85567 0.85489 0.50601 0.0
O202 O 0.86031 0.90412 0.49708 0.0
O203 O 0.89338 0.95074 0.5601 0.0
O204 O 0.91092 0.90759 0.55611 0.0
C205 C 0.84715 0.87293 0.60473 0.0
O206 O 0.83597 0.94298 0.56014 0.0
O207 O 0.81249 0.89592 0.53242 0.0
In208 In 0.96307 0.08328 0.29018 0.0
O209 O 1.00471 0.09664 0.2576 0.0
O210 O 0.96746 0.06687 0.23055 0.0
C211 C 0.99614 0.08088 0.35486 0.0
C212 C 0.93176 0.14149 0.29163 0.0
C213 C 0.92664 1.01599 0.28285 0.0
O214 O 1.00731 0.08402 0.32847 0.0
O215 O 0.96946 0.0812 0.34936 0.0
O216 O 0.91889 0.04292 0.29412 0.0
O217 O 0.95184 1.02283 0.27405 0.0
C218 C 0.99366 0.0809 0.22876 0.0
O219 O 0.91989 0.11046 0.28656 0.0
O220 O 0.95912 0.14355 0.29616 0.0
In221 In 0.3074 0.64929 0.55378 0.0
O222 O 0.32438 0.60237 0.55617 0.0
O223 O 0.35442 0.64911 0.5631 0.0
C224 C 0.25003 0.6293 0.55393 0.0
C225 C 0.31397 0.69776 0.60501 0.0
C226 C 0.31084 0.66926 0.49709 0.0
O227 O 0.26577 0.60856 0.54557 0.0
O228 O 0.26346 0.65935 0.56255 0.0
O229 O 0.32731 0.68381 0.52285 0.0
O230 O 0.29427 0.64207 0.49915 0.0
C231 C 0.35063 0.61798 0.56063 0.0
O232 O 0.31614 0.70322 0.57646 0.0
O233 O 0.30945 0.66737 0.60793 0.0
In234 In 0.46151 0.58413 0.78928 0.0
O235 O 0.41823 0.61189 0.78823 0.0
O236 O 0.45752 0.64442 0.79294 0.0
C237 C 0.42392 0.51733 0.78374 0.0
C238 C 0.4923 0.5832 0.72791 0.0
C239 C 0.49693 0.58209 0.85288 0.0
O240 O 0.4198 0.54424 0.80067 0.0
O241 O 0.44569 0.52405 0.76835 0.0
O242 O 0.49862 0.56619 0.82431 0.0
O243 O 0.47896 0.60067 0.8496 0.0
C244 C 0.43014 0.64279 0.79088 0.0
O245 O 0.50422 0.59382 0.75752 0.0
O246 O 0.46512 0.57387 0.72891 0.0
In247 In 0.73709 0.07144 0.74197 0.0
O248 O 0.76844 0.0423 0.71944 0.0
O249 O 0.73824 1.02082 0.74935 0.0
C250 C 0.77238 0.13003 0.7489 0.0
C251 C 0.69335 0.06376 0.69778 0.0
C252 C 0.71062 0.07558 0.79547 0.0
O253 O 0.77839 0.10796 0.76384 0.0
O254 O 0.74996 0.12115 0.7282 0.0
O255 O 0.70205 0.05221 0.77078 0.0
O256 O 0.73499 0.09436 0.79487 0.0
C257 C 0.75839 1.01745 0.73184 0.0
O258 O 0.69542 0.08288 0.72534 0.0
O259 O 0.7152 0.05175 0.69122 0.0
In260 In 0.80432 0.71305 0.02391 0.0
O261 O 0.82642 0.66913 0.018 0.0
O262 O 0.85222 0.71738 0.04023 0.0
C263 C 0.75035 0.67137 1.01283 0.0
C264 C 0.80827 0.74225 0.08982 0.0
C265 C 0.81358 0.73644 0.96685 0.0
O266 O 0.77373 0.66124 1.01281 0.0
O267 O 0.75398 0.70295 0.01729 0.0
O268 O 0.80257 0.75197 0.99011 0.0
O269 O 0.8198 0.7099 0.97264 0.0
C270 C 0.85104 0.68639 0.03101 0.0
O271 O 0.8146 0.76015 0.06865 0.0
O272 O 0.79908 0.71163 0.07723 0.0
In273 In 0.94972 0.55574 0.83154 0.0
O274 O 0.90881 0.57029 0.84498 0.0
O275 O 0.93815 0.60278 0.82218 0.0
C276 C 0.91835 0.49693 0.83621 0.0
C277 C 0.96363 0.55322 0.77062 0.0
C278 C 0.99276 0.57111 0.87861 0.0
O279 O 0.91126 0.52399 0.84742 0.0
O280 O 0.94215 0.49964 0.82401 0.0
O281 O 0.99073 0.5472 0.85469 0.0
O282 O 0.97277 0.58697 0.87864 0.0
C283 C 0.91361 0.59583 0.83232 0.0
O284 O 0.97841 0.57423 0.79472 0.0
O285 O 0.94159 0.53429 0.77751 0.0
In286 In 0.86143 0.46937 0.52193 0.0
O287 O 0.85129 0.42374 0.54272 0.0
O288 O 0.87113 0.47014 0.57559 0.0
C289 C 0.85239 0.4238 0.46934 0.0
C290 C 0.81869 0.50104 0.52405 0.0
C291 C 0.9143 0.50343 0.51734 0.0
O292 O 0.8693 0.42238 0.49372 0.0
O293 O 0.84005 0.44831 0.47224 0.0
O294 O 0.90164 0.50843 0.54282 0.0
O295 O 0.89999 0.48149 0.49383 0.0
C296 C 0.86126 0.43897 0.57146 0.0
O297 O 0.84299 0.51324 0.51584 0.0
O298 O 0.81589 0.47224 0.53049 0.0
In299 In 0.70653 0.53385 0.28805 0.0
O300 O 0.75072 0.50939 0.29738 0.0
O301 O 0.71443 0.4748 0.27526 0.0
C302 C 0.74247 0.60079 0.2939 0.0
C303 C 0.67254 0.53572 0.22343 0.0
C304 C 0.67492 0.53686 0.34951 0.0
O305 O 0.72661 0.59182 0.31518 0.0
O306 O 0.74114 0.57621 0.27056 0.0
O307 O 0.66468 0.51897 0.32105 0.0
O308 O 0.70051 0.55234 0.34707 0.0
C309 C 0.74128 0.47834 0.28522 0.0
O310 O 0.66265 0.53759 0.25122 0.0
O311 O 0.6982 0.53133 0.22786 0.0
Tb312 Tb 0.05424 0.03955 0.0199 0.0
C313 C 0.13507 0.16322 0.09424 0.0
C314 C 0.15038 0.19327 0.0519 0.0
C315 C 0.15354 0.22378 0.10792 0.0
C316 C 0.13878 0.16297 0.06185 0.0
C317 C 0.14191 0.19378 0.11761 0.0
C318 C 0.15801 0.22348 0.07514 0.0
C319 C 0.12836 0.16267 0.15938 0.0
N320 N 0.12577 0.13351 0.1032 0.0
C321 C 0.12486 0.13311 0.1361 0.0
C322 C 0.13728 0.19328 0.1502 0.0
Tb323 Tb 0.11737 0.08521 0.06244 0.0
N324 N 0.13137 0.13317 0.04016 0.0
C325 C 0.13461 0.133 1.0075 0.0
C326 C 0.15416 0.19249 0.01895 0.0
C327 C 0.14595 0.16224 0.99663 0.0
H328 H 0.12111 0.10977 0.14471 0.0
H329 H 0.14801 0.16138 0.97079 0.0
H330 H 0.16724 0.24677 0.06795 0.0
H331 H 0.12547 0.16168 0.18474 0.0
H332 H 0.1272 0.11118 0.98847 0.0
H333 H 0.02671 0.95519 0.10433 0.0
H334 H 0.16302 0.21513 1.01042 0.0
H335 H 0.04439 0.02657 0.93883 0.0
H336 H 0.04912 1.00716 0.08991 0.0
H337 H 0.02115 0.98053 0.89274 0.0
H338 H 0.15941 0.24728 0.12565 0.0
H339 H 1.00313 0.90616 0.06114 0.0
H340 H 0.98944 0.88117 1.00145 0.0
H341 H 0.14152 0.21623 0.16866 0.0
H342 H 0.98966 0.88732 0.94412 0.0
N343 N 0.03971 0.98961 0.03757 0.0
C344 C 0.03926 0.98684 0.06996 0.0
C345 C 1.01325 0.92933 0.0543 0.0
C346 C 1.01309 0.93206 0.0214 0.0
C347 C 0.02649 0.95687 0.07867 0.0
C348 C 0.02658 0.96282 1.01373 0.0
H349 H 1.00024 0.92461 0.90333 0.0
N350 N 0.03866 0.99653 0.97528 0.0
C351 C 0.02287 0.97598 0.91751 0.0
C352 C 0.02632 0.96634 0.98149 0.0
C353 C 0.03633 1.0019 0.94375 0.0
C354 C 1.01104 0.9445 0.92358 0.0
C355 C 1.01243 0.93941 0.95586 0.0
O356 O 0.02294 0.05338 0.99005 0.0
O357 O 0.07673 0.09199 0.03995 0.0
O358 O 0.08487 0.08575 0.10083 0.0
O359 O 0.04221 0.05482 0.07154 0.0
O360 O 0.06306 0.07821 0.99077 0.0
O361 O 1.0131 0.0387 0.03587 0.0
O362 O 0.15077 0.08803 0.09933 0.0
O363 O 0.09508 0.0327 0.0432 0.0
O364 O 0.08615 0.03033 0.98209 0.0
O365 O 0.12819 0.06596 1.00997 0.0
O366 O 0.11049 0.04671 0.09185 0.0
O367 O 0.15717 0.07588 0.0481 0.0
C368 C 0.07337 0.10388 1.01382 0.0
C369 C 0.97373 0.03275 0.99529 0.0
C370 C 0.92414 0.03788 0.99879 0.0
C371 C 0.95212 0.04093 1.01393 0.0
C372 C 0.9168 1.0218 0.96558 0.0
C373 C 0.96651 1.01687 0.96208 0.0
C374 C 0.93786 1.01053 0.94757 0.0
C375 C 0.05663 0.07218 0.1003 0.0
C376 C 1.00343 0.04802 1.00978 0.0
C377 C 0.99968 0.90858 0.96334 0.0
C378 C 0.99977 0.90499 0.99604 0.0
C379 C 0.09971 1.0208 0.06923 0.0
C380 C 0.19913 0.09407 0.08717 0.0
C381 C 0.21715 0.07426 0.07329 0.0
C382 C 0.24609 0.08037 0.08601 0.0
C383 C 0.25777 0.10772 0.11178 0.0
C384 C 0.2105 0.12165 0.11294 0.0
C385 C 0.23999 0.12864 0.12488 0.0
C386 C 0.11406 0.04559 0.98179 0.0
C387 C 0.1683 0.08015 0.07846 0.0
H388 H 0.95781 0.05253 0.03977 0.0
H389 H 0.89525 1.01921 0.9532 0.0
H390 H 0.98291 1.0108 0.94696 0.0
H391 H 0.93235 0.99869 0.92186 0.0
H392 H 0.20812 0.05233 0.05404 0.0
H393 H 0.28041 0.11268 0.12169 0.0
H394 H 0.1965 0.13681 0.12447 0.0
H395 H 0.24887 0.14961 0.14487 0.0
Tb396 Tb 0.34317 0.80803 0.26816 0.0
C397 C 0.30062 0.89964 0.36487 0.0
C398 C 0.34406 0.9314 0.4001 0.0
C399 C 0.30305 0.95717 0.39306 0.0
C400 C 0.32832 0.90115 0.37943 0.0
C401 C 0.28738 0.92736 0.37268 0.0
C402 C 0.33145 0.95932 0.40639 0.0
C403 C 0.2428 0.89352 0.34263 0.0
N404 N 0.286 0.87069 0.34465 0.0
C405 C 0.25666 0.86694 0.33553 0.0
C406 C 0.25836 0.92411 0.36079 0.0
Tb407 Tb 0.30899 0.82607 0.34023 0.0
N408 N 0.3398 0.87332 0.37357 0.0
C409 C 0.36721 0.87502 0.38858 0.0
C410 C 0.37205 0.93289 0.41421 0.0
C411 C 0.38359 0.90456 0.40848 0.0
H412 H 0.24313 0.84307 0.32327 0.0
H413 H 0.40529 0.90539 0.41943 0.0
H414 H 0.3433 0.98256 0.42213 0.0
H415 H 0.21987 0.89006 0.33473 0.0
H416 H 0.37793 0.85465 0.38571 0.0
H417 H 0.24743 0.72503 0.19132 0.0
H418 H 0.38485 0.95572 0.42979 0.0
H419 H 0.41128 0.79813 0.27708 0.0
H420 H 0.2721 0.7729 0.23173 0.0
H421 H 0.43879 0.75567 0.2601 0.0
H422 H 0.29327 0.97863 0.39898 0.0
H423 H 0.27264 0.68043 0.17069 0.0
H424 H 0.31743 0.65792 0.17223 0.0
H425 H 0.24745 0.94464 0.36664 0.0
H426 H 0.3689 0.66526 0.19231 0.0
N427 N 0.31412 0.76045 0.23325 0.0
C428 C 0.28516 0.75617 0.22225 0.0
C429 C 0.28443 0.70264 0.18802 0.0
C430 C 0.31345 0.70599 0.19978 0.0
C431 C 0.27024 0.72782 0.19941 0.0
C432 C 0.32788 0.7354 0.22257 0.0
H433 H 0.4141 0.70129 0.22502 0.0
N434 N 0.36982 0.76743 0.25623 0.0
C435 C 0.41552 0.75014 0.25337 0.0
C436 C 0.35654 0.73896 0.23457 0.0
C437 C 0.39946 0.77399 0.26377 0.0
C438 C 0.40157 0.71969 0.23342 0.0
C439 C 0.3719 0.71403 0.22315 0.0
O440 O 0.38455 0.83886 0.26772 0.0
O441 O 0.34188 0.84363 0.3123 0.0
O442 O 0.28096 0.82921 0.29482 0.0
O443 O 0.30517 0.8237 0.24799 0.0
O444 O 0.34053 0.85984 0.26879 0.0
O445 O 0.35509 0.81388 0.22233 0.0
O446 O 0.26657 0.80298 0.34548 0.0
O447 O 0.31028 0.79002 0.29681 0.0
O448 O 0.37081 0.80002 0.31112 0.0
O449 O 0.34737 0.80784 0.35878 0.0
O450 O 0.30791 0.77343 0.34077 0.0
O451 O 0.29701 0.8302 0.3879 0.0
C452 C 0.34133 0.86891 0.30008 0.0
C453 C 0.40002 0.84862 0.21557 0.0
C454 C 0.40677 0.87732 0.17091 0.0
C455 C 0.38843 0.86061 0.18978 0.0
C456 C 0.43696 0.8821 0.17738 0.0
C457 C 0.43021 0.85351 0.2228 0.0
C458 C 0.44868 0.87015 0.20349 0.0
C459 C 0.28265 0.83031 0.26312 0.0
C460 C 0.38018 0.83304 0.23575 0.0
C461 C 0.35751 0.68472 0.20102 0.0
C462 C 0.32829 0.68064 0.18946 0.0
C463 C 0.30958 0.76487 0.30976 0.0
C464 C 0.25601 0.792 0.39648 0.0
C465 C 0.27028 0.76926 0.40725 0.0
C466 C 0.25711 0.74875 0.42712 0.0
C467 C 0.22918 0.75014 0.4356 0.0
C468 C 0.22816 0.79392 0.40484 0.0
C469 C 0.21468 0.7728 0.42433 0.0
C470 C 0.36992 0.80063 0.34325 0.0
C471 C 0.27024 0.81437 0.37711 0.0
H472 H 0.36506 0.85746 0.18462 0.0
H473 H 0.45124 0.89525 0.16257 0.0
H474 H 0.43937 0.84457 0.24323 0.0
H475 H 0.47199 0.87398 0.20887 0.0
H476 H 0.29198 0.76815 0.401 0.0
H477 H 0.21906 0.73445 0.45149 0.0
H478 H 0.21703 0.81181 0.3965 0.0
H479 H 0.19327 0.77434 0.43106 0.0
Tb480 Tb 0.61635 0.05665 0.53389 0.0
C481 C 0.51598 1.00764 0.5996 0.0
C482 C 0.49037 0.96094 0.55683 0.0
C483 C 0.48657 0.95879 0.61439 0.0
C484 C 0.50907 0.99282 0.56651 0.0
C485 C 0.50415 0.99122 0.62383 0.0
C486 C 0.47976 0.94365 0.58098 0.0
C487 C 0.52558 0.04141 0.66455 0.0
N488 N 0.5332 0.03894 0.60794 0.0
C489 C 0.5368 0.05673 0.63964 0.0
C490 C 0.50959 1.00831 0.6567 0.0
Tb491 Tb 0.54993 0.06085 0.56492 0.0
N492 N 0.51955 1.01032 0.54381 0.0
C493 C 0.51073 0.9984 0.51104 0.0
C494 C 0.48227 0.94783 0.52321 0.0
C495 C 0.49208 0.9669 0.50025 0.0
H496 H 0.549 0.08238 0.64573 0.0
H497 H 0.4855 0.95722 0.47425 0.0
H498 H 0.46562 0.91894 0.57404 0.0
H499 H 0.52916 0.05516 0.68973 0.0
H500 H 0.51841 1.01298 0.49325 0.0
H501 H 0.68715 0.16425 0.6154 0.0
H502 H 0.46795 0.92338 0.51477 0.0
H503 H 0.61652 0.03295 0.45208 0.0
H504 H 0.65841 0.10694 0.60073 0.0
H505 H 0.62885 0.06013 0.40571 0.0
H506 H 0.47753 0.94554 0.63268 0.0
H507 H 0.69421 0.19902 0.57324 0.0
H508 H 0.68753 0.20287 0.51384 0.0
H509 H 0.50081 0.99656 0.67605 0.0
H510 H 0.67132 0.17442 0.45634 0.0
N511 N 0.64677 0.10884 0.55042 0.0
C512 C 0.66046 0.12145 0.58176 0.0
C513 C 0.68112 0.17372 0.56653 0.0
C514 C 0.66927 0.15979 0.534 0.0
C515 C 0.67722 0.15417 0.59036 0.0
C516 C 0.6522 0.12678 0.5266 0.0
H517 H 0.65012 0.12093 0.41572 0.0
N518 N 0.62874 0.07834 0.48834 0.0
C519 C 0.63251 0.0749 0.43049 0.0
C520 C 0.64276 0.111 0.4944 0.0
C521 C 0.62548 0.05965 0.45695 0.0
C522 C 0.64442 0.1092 0.43623 0.0
C523 C 0.65053 0.12751 0.46855 0.0
O524 O 0.63366 1.01977 0.50583 0.0
O525 O 0.57196 0.02723 0.53399 0.0
O526 O 0.57367 0.03983 0.59882 0.0
O527 O 0.61962 0.06151 0.58649 0.0
O528 O 0.60587 1.0057 0.54281 0.0
O529 O 0.65729 0.04985 0.55149 0.0
O530 O 0.53068 0.09968 0.58621 0.0
O531 O 0.59014 0.09204 0.55513 0.0
O532 O 0.58304 0.04972 0.49278 0.0
O533 O 0.55655 0.08216 0.52181 0.0
O534 O 0.57594 0.1036 0.60037 0.0
O535 O 0.50897 0.06352 0.54341 0.0
C536 C 0.57819 0.9999 0.53947 0.0
C537 C 0.68426 1.02365 0.51278 0.0
C538 C 0.72596 0.99772 0.50941 0.0
C539 C 0.70168 1.00378 0.52479 0.0
C540 C 0.73292 1.01192 0.48214 0.0
C541 C 0.69186 0.03838 0.48604 0.0
C542 C 0.71605 0.03237 0.47071 0.0
C543 C 0.6019 0.04638 0.60454 0.0
C544 C 0.65698 0.02563 0.52661 0.0
C545 C 0.66562 0.16115 0.47585 0.0
C546 C 0.67492 0.17732 0.50857 0.0
C547 C 0.59486 0.11446 0.58182 0.0
C548 C 0.47988 0.09148 0.57736 0.0
C549 C 0.46374 0.11278 0.56602 0.0
C550 C 0.43714 0.11556 0.57751 0.0
C551 C 0.42721 0.09772 0.60151 0.0
C552 C 0.46957 0.07328 0.60088 0.0
C553 C 0.4434 0.07666 0.61311 0.0
C554 C 0.56304 0.06751 0.49376 0.0
C555 C 0.50772 0.08999 0.56484 0.0
H556 H 0.69585 0.99215 0.54534 0.0
H557 H 0.75153 1.0073 0.46986 0.0
H558 H 0.67899 0.05406 0.47668 0.0
H559 H 0.72159 0.04335 0.44976 0.0
H560 H 0.47203 0.12759 0.54854 0.0
H561 H 0.40674 0.09968 0.61087 0.0
H562 H 0.48163 0.0567 0.60992 0.0
H563 H 0.43557 0.06279 0.63145 0.0
Tb564 Tb 0.29822 0.31845 0.78989 0.0
C565 C 0.39565 0.27221 0.84782 0.0
C566 C 0.41653 0.32045 0.89101 0.0
C567 C 0.41834 0.26468 0.89955 0.0
C568 C 0.40122 0.30636 0.8595 0.0
C569 C 0.4052 0.2511 0.86725 0.0
C570 C 0.424 0.29934 0.91142 0.0
C571 C 0.39237 0.20578 0.8199 0.0
N572 N 0.38346 0.2601 0.81631 0.0
C573 C 0.3836 0.22781 0.80161 0.0
C574 C 0.40265 0.2173 0.85311 0.0
Tb575 Tb 0.36745 0.29793 0.78928 0.0
N576 N 0.39395 0.32596 0.83891 0.0
C577 C 0.40431 0.36009 0.84736 0.0
C578 C 0.42518 0.3553 0.90046 0.0
C579 C 0.41975 0.37513 0.87816 0.0
H580 H 0.37524 0.21856 0.77604 0.0
H581 H 0.42715 0.4021 0.88477 0.0
H582 H 0.4353 0.30968 0.93588 0.0
H583 H 0.39117 0.17995 0.80833 0.0
H584 H 0.40058 0.3765 0.83115 0.0
H585 H 0.24248 0.21259 0.69415 0.0
H586 H 0.43704 0.36705 0.92438 0.0
H587 H 0.29077 0.39709 0.80383 0.0
H588 H 0.2714 0.23938 0.74607 0.0
H589 H 0.27053 0.43492 0.77386 0.0
H590 H 0.42537 0.24878 0.91503 0.0
H591 H 0.22389 0.24662 0.65814 0.0
H592 H 0.21774 0.30309 0.64987 0.0
H593 H 0.4097 0.20028 0.86723 0.0
H594 H 0.22546 0.36372 0.67147 0.0
N595 N 0.27113 0.28973 0.7408 0.0
C596 C 0.26381 0.25538 0.73153 0.0
C597 C 0.2369 0.2589 0.68129 0.0
C598 C 0.24268 0.29372 0.69165 0.0
C599 C 0.24723 0.23964 0.70156 0.0
C600 C 0.25997 0.30852 0.7219 0.0
H601 H 0.24501 0.41306 0.71765 0.0
N602 N 0.27998 0.35529 0.76371 0.0
C603 C 0.26912 0.40914 0.762 0.0
C604 C 0.26461 0.34251 0.73377 0.0
C605 C 0.28107 0.38784 0.77865 0.0
C606 C 0.2547 0.39668 0.73036 0.0
C607 C 0.25174 0.36283 0.71611 0.0
O608 O 0.27787 0.33849 0.8299 0.0
O609 O 0.33511 0.31181 0.82041 0.0
O610 O 0.33763 0.25042 0.79554 0.0
O611 O 0.29304 0.26559 0.79817 0.0
O612 O 0.31958 0.35504 0.83284 0.0
O613 O 0.25685 0.29238 0.79841 0.0
O614 O 0.38615 0.28375 0.74594 0.0
O615 O 0.3307 0.30494 0.75819 0.0
O616 O 0.32823 0.36585 0.78261 0.0
O617 O 0.37313 0.3512 0.78221 0.0
O618 O 0.34599 0.26127 0.74666 0.0
O619 O 0.41213 0.31745 0.78679 0.0
C620 C 0.33784 0.33854 0.84221 0.0
C621 C 0.22661 0.32442 0.82761 0.0
C622 C 0.17999 0.32046 0.8508 0.0
C623 C 0.20584 0.3087 0.846 0.0
C624 C 0.1758 0.34836 0.83798 0.0
C625 C 0.22099 0.35157 0.81455 0.0
C626 C 0.1961 0.36369 0.82002 0.0
C627 C 0.30915 0.2426 0.79781 0.0
C628 C 0.2549 0.31441 0.8241 0.0
C629 C 0.23539 0.34849 0.68547 0.0
C630 C 0.23095 0.31399 0.6732 0.0
C631 C 0.32807 0.27793 0.73644 0.0
C632 C 0.43627 0.2852 0.74938 0.0
C633 C 0.46151 0.30359 0.73989 0.0
C634 C 0.48418 0.28777 0.73066 0.0
C635 C 0.48152 0.25365 0.73131 0.0
C636 C 0.43378 0.25086 0.74858 0.0
C637 C 0.45642 0.23535 0.7402 0.0
C638 C 0.35699 0.37403 0.7816 0.0
C639 C 0.41184 0.30136 0.75704 0.0
H640 H 0.20967 0.28762 0.85631 0.0
H641 H 0.15659 0.35837 0.8419 0.0
H642 H 0.23593 0.36387 0.8004 0.0
H643 H 0.19253 0.38514 0.81023 0.0
H644 H 0.46332 0.32985 0.73914 0.0
H645 H 0.49851 0.24087 0.72386 0.0
H646 H 0.41405 0.23563 0.75322 0.0
H647 H 0.45418 0.20884 0.73974 0.0
Tb648 Tb 0.07712 0.09146 0.55532 0.0
C649 C 0.10698 0.99518 0.44874 0.0
C650 C 0.06119 0.97735 0.41358 0.0
C651 C 0.10582 0.97053 0.3908 0.0
C652 C 0.07722 0.99194 0.44466 0.0
C653 C 0.12152 0.98378 0.42195 0.0
C654 C 0.07572 0.96734 0.38662 0.0
C655 C 0.16542 0.99499 0.45931 0.0
N656 N 0.12134 1.00691 0.47941 0.0
C657 C 0.15003 1.00534 0.48512 0.0
C658 C 0.15118 0.98449 0.42748 0.0
Tb659 Tb 0.0933 1.02002 0.52084 0.0
N660 N 0.06373 1.00062 0.47151 0.0
C661 C 0.0339 0.9933 0.46891 0.0
C662 C 0.03091 0.97181 0.41072 0.0
C663 C 0.01722 0.97955 0.4386 0.0
H664 H 0.16126 1.01261 0.50982 0.0
H665 H 0.99375 0.97478 0.43686 0.0
H666 H 0.06375 0.95612 0.36264 0.0
H667 H 0.18815 0.99465 0.4641 0.0
H668 H 0.02239 0.99898 0.4897 0.0
H669 H 0.18074 0.13431 0.63269 0.0
H670 H 0.01789 0.96068 0.38732 0.0
H671 H 1.01208 0.10427 0.57058 0.0
H672 H 0.14935 0.10978 0.58179 0.0
H673 H 0.98759 0.12276 0.61827 0.0
H674 H 0.11663 0.9617 0.36999 0.0
H675 H 0.15974 0.1507 0.68405 0.0
H676 H 0.11577 0.15695 0.71213 0.0
H677 H 0.16303 0.9759 0.40756 0.0
H678 H 0.06304 0.15285 0.70845 0.0
N679 N 0.10945 0.11083 0.60268 0.0
C680 C 0.13915 0.11674 0.6033 0.0
C681 C 0.1455 0.13964 0.66145 0.0
C682 C 0.11538 0.13518 0.66068 0.0
C683 C 0.15742 0.13057 0.63254 0.0
C684 C 0.09771 0.1206 0.63059 0.0
H685 H 1.01512 0.1401 0.67371 0.0
N686 N 0.05214 0.10634 0.59881 0.0
C687 C 1.01008 0.12096 0.62174 0.0
C688 C 0.06805 0.11802 0.62862 0.0
C689 C 0.02391 0.10976 0.59481 0.0
C690 C 0.0257 0.13076 0.6529 0.0
C691 C 0.05524 0.13031 0.65653 0.0
O692 O 0.05316 0.12588 0.5428 0.0
O693 O 0.07786 0.06267 0.50489 0.0
O694 O 0.13077 0.05694 0.51204 0.0
O695 O 0.11749 0.10569 0.53374 0.0
O696 O 0.04095 0.0785 0.51545 0.0
O697 O 0.09977 0.14132 0.5596 0.0
O698 O 0.11694 0.98488 0.53184 0.0
O699 O 0.0922 0.04843 0.57161 0.0
O700 O 0.03903 0.05504 0.56359 0.0
O701 O 0.05113 1.00586 0.53985 0.0
O702 O 0.12877 0.03235 0.56136 0.0
O703 O 0.06987 0.97064 0.51754 0.0
C704 C 0.05272 0.06508 0.49107 0.0
C705 C 0.07537 0.18383 0.5476 0.0
C706 C 0.08921 0.22986 0.52046 0.0
C707 C 0.09 0.19739 0.52379 0.0
C708 C 0.07351 0.24875 0.54066 0.0
C709 C 0.05937 0.20228 0.56773 0.0
C710 C 0.05853 0.23486 0.56427 0.0
C711 C 0.13616 0.08985 0.51963 0.0
C712 C 0.07602 0.14997 0.55042 0.0
C713 C 0.07254 0.14344 0.68677 0.0
C714 C 0.10255 0.14586 0.68884 0.0
C715 C 0.11705 0.04539 0.58593 0.0
C716 C 0.09411 0.92722 0.5273 0.0
C717 C 0.07573 0.91215 0.54732 0.0
C718 C 0.0791 0.88186 0.55482 0.0
C719 C 0.10005 0.86573 0.54118 0.0
C720 C 0.11513 0.91145 0.51344 0.0
C721 C 0.11779 0.88039 0.52005 0.0
C722 C 0.03267 1.0221 0.55421 0.0
C723 C 0.09373 0.96126 0.525 0.0
H724 H 0.10128 0.18247 0.50727 0.0
H725 H 0.07257 0.27392 0.53783 0.0
H726 H 0.04764 0.19149 0.58596 0.0
H727 H 0.04618 0.24923 0.57973 0.0
H728 H 0.06014 0.92503 0.55888 0.0
H729 H 0.10287 0.84223 0.54723 0.0
H730 H 0.12972 0.92345 0.49817 0.0
H731 H 0.1341 0.86818 0.50959 0.0
Tb732 Tb 0.36843 0.83486 0.77731 0.0
C733 C 0.29079 0.73512 0.83793 0.0
C734 C 0.29162 0.6819 0.80313 0.0
C735 C 0.27751 0.68349 0.85819 0.0
C736 C 0.29653 0.71718 0.80873 0.0
C737 C 0.28095 0.71842 0.86293 0.0
C738 C 0.28245 0.66522 0.82817 0.0
C739 C 0.27212 0.7705 0.89206 0.0
N740 N 0.29199 0.76837 0.84048 0.0
C741 C 0.28025 0.78522 0.86561 0.0
C742 C 0.273 0.737 0.89099 0.0
Tb743 Tb 0.30392 0.78949 0.79517 0.0
N744 N 0.30562 0.73414 0.7852 0.0
C745 C 0.31151 0.71734 0.75593 0.0
C746 C 0.29601 0.66448 0.77246 0.0
C747 C 0.30628 0.68235 0.74886 0.0
H748 H 0.27441 0.80846 0.86366 0.0
H749 H 0.3106 0.66927 0.72543 0.0
H750 H 0.27883 0.63817 0.82446 0.0
H751 H 0.26344 0.78432 0.91216 0.0
H752 H 0.3206 0.73071 0.73803 0.0
H753 H 0.35691 0.96136 0.82464 0.0
H754 H 0.29219 0.63738 0.76707 0.0
H755 H 0.40112 0.80654 0.71463 0.0
H756 H 0.35921 0.90403 0.82798 0.0
H757 H 0.41965 0.82612 0.66599 0.0
H758 H 0.2699 0.67022 0.87707 0.0
H759 H 0.36359 0.98102 0.77265 0.0
H760 H 0.37664 0.96979 0.71511 0.0
H761 H 0.26548 0.72515 0.91081 0.0
H762 H 0.39408 0.93284 0.67157 0.0
N763 N 0.36523 0.88928 0.77732 0.0
C764 C 0.36156 0.91142 0.80466 0.0
C765 C 0.36403 0.95527 0.77366 0.0
C766 C 0.36986 0.93341 0.74649 0.0
C767 C 0.36038 0.94436 0.80306 0.0
C768 C 0.37028 0.90013 0.74909 0.0
H769 H 0.4116 0.8799 0.65386 0.0
N770 N 0.38213 0.84843 0.72922 0.0
C771 C 0.40803 0.84105 0.68195 0.0
C772 C 0.37931 0.87905 0.72421 0.0
C773 C 0.39745 0.83 0.70938 0.0
C774 C 0.40332 0.87135 0.6751 0.0
C775 C 0.38927 0.89106 0.69664 0.0
O776 O 0.41058 0.82676 0.78049 0.0
O777 O 0.3494 0.78462 0.78763 0.0
O778 O 0.33155 0.80334 0.84121 0.0
O779 O 0.3619 0.84842 0.82802 0.0
O780 O 0.38774 0.79029 0.77208 0.0
O781 O 0.40162 0.87155 0.80851 0.0
O782 O 0.2638 0.80317 0.79751 0.0
O783 O 0.32142 0.83748 0.77955 0.0
O784 O 0.34511 0.81414 0.72879 0.0
O785 O 0.30355 0.78227 0.74275 0.0
O786 O 0.29629 0.83958 0.8166 0.0
O787 O 0.2665 0.75661 0.76715 0.0
C788 C 0.37091 0.76805 0.78377 0.0
C789 C 0.44902 0.87264 0.79262 0.0
C790 C 0.50086 0.877 0.79703 0.0
C791 C 0.47405 0.86652 0.80787 0.0
C792 C 0.50292 0.89407 0.77097 0.0
C793 C 0.45103 0.89044 0.76701 0.0
C794 C 0.47796 0.90103 0.75616 0.0
C795 C 0.35115 0.83148 0.84942 0.0
C796 C 0.42141 0.85496 0.80051 0.0
C797 C 0.38695 0.92334 0.69284 0.0
C798 C 0.37709 0.94442 0.71767 0.0
C799 C 0.30834 0.85829 0.79764 0.0
C800 C 0.22104 0.76213 0.78595 0.0
C801 C 0.19635 0.7638 0.76615 0.0
C802 C 0.16896 0.75728 0.77732 0.0
C803 C 0.16679 0.75087 0.80915 0.0
C804 C 0.21791 0.75205 0.81603 0.0
C805 C 0.19108 0.74748 0.82805 0.0
C806 C 0.31978 0.79303 0.72111 0.0
C807 C 0.24957 0.77643 0.77722 0.0
H808 H 0.47257 0.85234 0.8274 0.0
H809 H 0.52373 0.90214 0.76239 0.0
H810 H 0.43201 0.89565 0.75507 0.0
H811 H 0.47942 0.91428 0.73605 0.0
H812 H 0.19856 0.77066 0.7424 0.0
H813 H 0.14621 0.748 0.81927 0.0
H814 H 0.236 0.74817 0.83052 0.0
H815 H 0.18913 0.74143 0.8521 0.0
Tb816 Tb 0.58384 0.04994 0.06385 0.0
C817 C 0.52146 0.09565 0.95269 0.0
C818 C 0.493 0.04272 0.92115 0.0
C819 C 0.47688 0.09422 0.91873 0.0
C820 C 0.51755 0.06134 0.94288 0.0
C821 C 0.50129 0.11257 0.94048 0.0
C822 C 0.4727 0.05936 0.90918 0.0
C823 C 0.53131 0.16468 0.97129 0.0
N824 N 0.54494 0.11244 0.9743 0.0
C825 C 0.55088 0.14687 0.98236 0.0
C826 C 0.5063 0.14743 0.95041 0.0
Tb827 Tb 0.57658 0.08078 0.98881 0.0
N828 N 0.5376 0.04612 0.95498 0.0
C829 C 0.5344 1.01211 0.94585 0.0
C830 C 0.48952 1.00795 0.91218 0.0
C831 C 0.51034 0.9926 0.9246 0.0
H832 H 0.5707 0.1604 0.9977 0.0
H833 H 0.50784 0.96568 0.91795 0.0
H834 H 0.45374 0.04551 0.89244 0.0
H835 H 0.53574 0.19172 0.97849 0.0
H836 H 0.5497 0.99933 0.95529 0.0
H837 H 0.64771 0.16952 0.13843 0.0
H838 H 0.47088 0.99276 0.89572 0.0
H839 H 0.59594 0.9725 0.05877 0.0
H840 H 0.60632 0.13475 0.10401 0.0
H841 H 0.63457 0.94608 0.07548 0.0
H842 H 0.46112 0.10676 0.90916 0.0
H843 H 0.68905 0.14636 0.15547 0.0
H844 H 0.71124 0.09708 0.15494 0.0
H845 H 0.49125 0.1613 0.94166 0.0
H846 H 0.70792 0.03666 0.13778 0.0
N847 N 0.62155 0.08836 0.09955 0.0
C848 C 0.62282 0.12211 0.11069 0.0
C849 C 0.67028 0.12994 0.14013 0.0
C850 C 0.66907 0.09584 0.12986 0.0
C851 C 0.64698 0.14303 0.13066 0.0
C852 C 0.64423 0.07543 0.10948 0.0
H853 H 0.67964 0.98048 0.10841 0.0
N854 N 0.61911 1.02271 0.07913 0.0
C855 C 0.63751 0.97306 0.08188 0.0
C856 C 0.64284 0.04162 0.09911 0.0
C857 C 0.61573 0.98849 0.07186 0.0
C858 C 0.66276 0.9925 0.10058 0.0
C859 C 0.66556 0.0271 0.10979 0.0
O860 O 0.55989 1.00485 0.07278 0.0
O861 O 0.55824 0.04559 0.01709 0.0
O862 O 0.55525 0.10937 0.024 0.0
O863 O 0.56998 0.09696 0.07453 0.0
O864 O 0.53744 0.04662 0.05875 0.0
O865 O 0.56816 0.05222 0.10909 0.0
O866 O 0.60737 0.11611 0.97332 0.0
O867 O 0.60466 0.07415 0.02871 0.0
O868 O 0.59134 1.0117 0.02371 0.0
O869 O 0.59543 0.03691 0.97788 0.0
O870 O 0.61161 0.12069 0.01789 0.0
O871 O 0.58757 0.06849 0.94087 0.0
C872 C 0.53391 0.0443 0.02768 0.0
C873 C 0.55166 1.00314 0.128 0.0
C874 C 0.5271 0.99904 0.17573 0.0
C875 C 0.53064 1.0113 0.1473 0.0
C876 C 0.54353 0.97656 0.18409 0.0
C877 C 0.56862 0.98109 0.13596 0.0
C878 C 0.56424 0.96747 0.16399 0.0
C879 C 0.55812 0.11461 0.05623 0.0
C880 C 0.5552 1.0205 0.10131 0.0
C881 C 0.69023 0.04737 0.12967 0.0
C882 C 0.69206 0.0817 0.1395 0.0
C883 C 0.6217 0.10217 0.03547 0.0
C884 C 0.60573 0.11472 0.91741 0.0
C885 C 0.62773 0.11167 0.89805 0.0
C886 C 0.63167 0.1298 0.87333 0.0
C887 C 0.61353 0.15152 0.86778 0.0
C888 C 0.58713 0.13611 0.91215 0.0
C889 C 0.59125 0.15479 0.88751 0.0
C890 C 0.59737 1.01215 0.99323 0.0
C891 C 0.60552 0.0974 0.94442 0.0
H892 H 0.5175 0.02836 0.14076 0.0
H893 H 0.5408 0.96678 0.20631 0.0
H894 H 0.5851 0.97465 0.12103 0.0
H895 H 0.57722 0.95044 0.17047 0.0
H896 H 0.64171 0.09453 0.90187 0.0
H897 H 0.61626 0.16519 0.84805 0.0
H898 H 0.56965 0.13847 0.92664 0.0
H899 H 0.57701 0.17141 0.88348 0.0
Tb900 Tb 0.3528 0.34053 0.30069 0.0
C901 C 0.24024 0.23511 0.23107 0.0
C902 C 0.21006 0.22661 0.27437 0.0
C903 C 0.19138 0.20069 0.21792 0.0
C904 C 0.23679 0.24019 0.26387 0.0
C905 C 0.21746 0.21534 0.2075 0.0
C906 C 0.18737 0.20679 0.25116 0.0
C907 C 0.24965 0.22073 0.1659 0.0
N908 N 0.26686 0.24668 0.22262 0.0
C909 C 0.27193 0.23839 0.19048 0.0
C910 C 0.22219 0.20901 0.17447 0.0
Tb911 Tb 0.30449 0.26257 0.26464 0.0
N912 N 0.26035 0.25614 0.2856 0.0
C913 C 0.25807 0.2596 0.3186 0.0
C914 C 0.20753 0.23153 0.30797 0.0
C915 C 0.23166 0.24838 0.3302 0.0
H916 H 0.29366 0.24323 0.18407 0.0
H917 H 0.23024 0.2518 0.35637 0.0
H918 H 0.16709 0.19502 0.25877 0.0
H919 H 0.25413 0.21455 0.14067 0.0
H920 H 0.27646 0.2709 0.33656 0.0
H921 H 0.4155 0.34492 0.19437 0.0
H922 H 0.18737 0.22162 0.317 0.0
H923 H 0.3761 0.36043 0.37963 0.0
H924 H 0.37348 0.32555 0.22028 0.0
H925 H 0.42086 0.38289 0.41605 0.0
H926 H 0.17476 0.18349 0.20065 0.0
H927 H 0.46139 0.37586 0.22774 0.0
H928 H 0.48946 0.39817 0.283 0.0
H929 H 0.20517 0.19411 0.15567 0.0
H930 H 0.49156 0.40579 0.34305 0.0
N931 N 0.39258 0.34762 0.27 0.0
C932 C 0.39208 0.34044 0.23627 0.0
C933 C 0.44244 0.36788 0.23977 0.0
C934 C 0.44389 0.37333 0.27391 0.0
C935 C 0.41659 0.35066 0.22091 0.0
C936 C 0.4186 0.36222 0.28846 0.0
H937 H 0.46648 0.399 0.39257 0.0
N938 N 0.39567 0.35396 0.33537 0.0
C939 C 0.4214 0.37679 0.38973 0.0
C940 C 0.42023 0.36505 0.32213 0.0
C941 C 0.39594 0.36182 0.36884 0.0
C942 C 0.44698 0.3862 0.37637 0.0
C943 C 0.44657 0.38111 0.34227 0.0
O944 O 0.34226 0.37087 0.34189 0.0
O945 O 0.3098 0.30949 0.29668 0.0
O946 O 0.30288 0.29636 0.22853 0.0
O947 O 0.33915 0.34501 0.25043 0.0
O948 O 0.31228 0.35662 0.28971 0.0
O949 O 0.36962 0.39236 0.30885 0.0
O950 O 0.31251 0.22081 0.23352 0.0
O951 O 0.35002 0.28782 0.28115 0.0
O952 O 0.34987 0.30975 0.34001 0.0
O953 O 0.31851 0.25879 0.31539 0.0
O954 O 0.33757 0.26356 0.23276 0.0
O955 O 0.29705 0.21639 0.28097 0.0
C956 C 0.29442 0.32978 0.29207 0.0
C957 C 0.34263 0.42604 0.33866 0.0
C958 C 0.31421 0.45857 0.3139 0.0
C959 C 0.32845 0.43245 0.31084 0.0
C960 C 0.3143 0.47909 0.34463 0.0
C961 C 0.34292 0.44623 0.36964 0.0
C962 C 0.32881 0.47292 0.37256 0.0
C963 C 0.32015 0.32537 0.22604 0.0
C964 C 0.35703 0.39825 0.33542 0.0
C965 C 0.47134 0.39313 0.32793 0.0
C966 C 0.47005 0.38908 0.2938 0.0
C967 C 0.35928 0.27729 0.25446 0.0
C968 C 0.3014 0.16588 0.24398 0.0
C969 C 0.31838 0.1522 0.26371 0.0
C970 C 0.32373 0.12085 0.25211 0.0
C971 C 0.31026 0.10164 0.22161 0.0
C972 C 0.28756 0.14723 0.21335 0.0
C973 C 0.29148 0.11466 0.20254 0.0
C974 C 0.33459 0.27936 0.34153 0.0
C975 C 0.30362 0.20146 0.25326 0.0
H976 H 0.3285 0.41734 0.28669 0.0
H977 H 0.3033 0.49975 0.34686 0.0
H978 H 0.35404 0.44138 0.39138 0.0
H979 H 0.32908 0.48872 0.39635 0.0
H980 H 0.33004 0.16744 0.28674 0.0
H981 H 0.31486 0.07736 0.21239 0.0
H982 H 0.27463 0.15822 0.19766 0.0
H983 H 0.28104 0.10015 0.17889 0.0
Tb984 Tb 0.57723 0.58993 0.05222 0.0
C985 C 0.60625 0.48529 0.94984 0.0
C986 C 0.56087 0.46681 0.9141 0.0
C987 C 0.60557 0.4574 0.89299 0.0
C988 C 0.57673 0.48304 0.94489 0.0
C989 C 0.62092 0.47171 0.92417 0.0
C990 C 0.57556 0.45482 0.88801 0.0
C991 C 0.6637 0.48244 0.96319 0.0
N992 N 0.62017 0.49823 0.98052 0.0
C993 C 0.64805 0.49499 0.98787 0.0
C994 C 0.65023 0.47134 0.93101 0.0
Tb995 Tb 0.59276 0.51707 0.01997 0.0
N996 N 0.56329 0.49483 0.97075 0.0
C997 C 0.53347 0.48925 0.96748 0.0
C998 C 0.53066 0.46237 0.9106 0.0
C999 C 0.51691 0.47342 0.93752 0.0
H1000 H 0.65844 0.50268 1.01289 0.0
H1001 H 0.49348 0.46977 0.93527 0.0
H1002 H 0.56378 0.44272 0.86412 0.0
H1003 H 0.68602 0.48096 0.9691 0.0
H1004 H 0.52182 0.49753 0.98742 0.0
H1005 H 0.67972 0.6347 0.13267 0.0
H1006 H 0.51774 0.45001 0.88741 0.0
H1007 H 0.51095 0.60064 0.06579 0.0
H1008 H 0.64979 0.61067 0.08117 0.0
H1009 H 0.48577 0.62025 0.11259 0.0
H1010 H 0.61651 0.44713 0.87292 0.0
H1011 H 0.65752 0.65104 0.18312 0.0
H1012 H 0.61284 0.65766 0.20961 0.0
H1013 H 0.66226 0.46119 0.91197 0.0
H1014 H 0.56007 0.65357 0.20428 0.0
N1015 N 0.60892 0.61238 0.1002 0.0
C1016 C 0.63875 0.61801 0.10192 0.0
C1017 C 0.64378 0.64053 0.16007 0.0
C1018 C 0.61367 0.63664 0.15821 0.0
C1019 C 0.65637 0.6315 0.13168 0.0
C1020 C 0.59668 0.62254 0.12758 0.0
H1021 H 0.51269 0.64008 0.16825 0.0
N1022 N 0.55187 0.60784 0.09461 0.0
C1023 C 0.50861 0.62009 0.11646 0.0
C1024 C 0.56713 0.62007 0.12469 0.0
C1025 C 0.52303 0.60891 0.09003 0.0
C1026 C 0.52386 0.63122 0.14778 0.0
C1027 C 0.55356 0.63182 0.15215 0.0
O1028 O 0.55521 0.62639 0.04144 0.0
O1029 O 0.57696 0.55913 1.00265 0.0
O1030 O 0.62926 0.55162 1.00606 0.0
O1031 O 0.61966 0.60079 0.03369 0.0
O1032 O 0.54027 0.57456 1.01321 0.0
O1033 O 0.60175 0.63358 0.04173 0.0
O1034 O 0.61416 0.48438 0.03983 0.0
O1035 O 0.59219 0.54795 0.06943 0.0
O1036 O 0.53931 0.55429 0.06226 0.0
O1037 O 0.55001 0.50495 0.03738 0.0
O1038 O 0.62927 0.53255 0.06004 0.0
O1039 O 0.5689 0.46843 0.01858 0.0
C1040 C 0.55185 0.56148 0.98849 0.0
C1041 C 0.58245 0.68137 0.04647 0.0
C1042 C 0.59724 0.73377 0.02952 0.0
C1043 C 0.59685 0.69992 0.0258 0.0
C1044 C 0.58378 0.74964 0.05482 0.0
C1045 C 0.56945 0.69683 0.07238 0.0
C1046 C 0.57037 0.73121 0.07664 0.0
C1047 C 0.63657 0.5844 1.01659 0.0
C1048 C 0.57896 0.64565 0.03672 0.0
C1049 C 0.57015 0.6447 0.18287 0.0
C1050 C 0.60018 0.64708 0.1859 0.0
C1051 C 0.61725 0.54632 0.08408 0.0
C1052 C 0.59295 0.42667 0.0313 0.0
C1053 C 0.57792 0.4096 0.05255 0.0
C1054 C 0.58086 0.37757 0.05447 0.0
C1055 C 0.59907 0.36206 0.03483 0.0
C1056 C 0.61124 0.41177 1.01134 0.0
C1057 C 0.61419 0.37923 1.01311 0.0
C1058 C 0.53241 0.52142 0.05294 0.0
C1059 C 0.59069 0.46105 0.03434 0.0
H1060 H 0.60626 0.68749 1.00529 0.0
H1061 H 0.58343 0.77594 0.05739 0.0
H1062 H 0.55808 0.68237 0.08848 0.0
H1063 H 0.55998 0.74335 0.0962 0.0
H1064 H 0.56459 0.42182 0.0688 0.0
H1065 H 0.60174 0.33715 0.03656 0.0
H1066 H 0.62341 0.42529 0.99511 0.0
H1067 H 0.62847 0.36755 0.99805 0.0
Tb1068 Tb 0.87371 0.33369 0.28014 0.0
C1069 C 0.79904 0.241 0.3358 0.0
C1070 C 0.79588 0.18598 0.30219 0.0
C1071 C 0.79049 0.19143 0.36024 0.0
C1072 C 0.801 0.22121 0.30584 0.0
C1073 C 0.79327 0.22609 0.36323 0.0
C1074 C 0.79136 0.17135 0.32968 0.0
C1075 C 0.78615 0.27881 0.39245 0.0
N1076 N 0.79925 0.27393 0.33709 0.0
C1077 C 0.7902 0.29183 0.36418 0.0
C1078 C 0.78827 0.24591 0.39222 0.0
Tb1079 Tb 0.80506 0.2915 0.28782 0.0
N1080 N 0.80591 0.23604 0.27972 0.0
C1081 C 0.8056 0.21693 0.24924 0.0
C1082 C 0.79583 0.16646 0.27103 0.0
C1083 C 0.80079 0.18207 0.24446 0.0
H1084 H 0.78572 0.31636 0.36423 0.0
H1085 H 0.80026 0.16724 0.22011 0.0
H1086 H 0.78808 0.14446 0.32745 0.0
H1087 H 0.78026 0.29377 0.41397 0.0
H1088 H 0.80717 0.22805 0.22807 0.0
H1089 H 0.88584 0.4593 0.34839 0.0
H1090 H 0.79196 0.13939 0.26724 0.0
H1091 H 0.89171 0.3109 0.20291 0.0
H1092 H 0.88071 0.39871 0.34121 0.0
H1093 H 0.8921 0.33263 0.15232 0.0
H1094 H 0.78622 0.17967 0.38107 0.0
H1095 H 0.88188 0.48524 0.29978 0.0
H1096 H 0.87619 0.47852 0.23857 0.0
H1097 H 0.78403 0.23542 0.4138 0.0
H1098 H 0.87636 0.44312 0.18455 0.0
N1099 N 0.87233 0.38909 0.28895 0.0
C1100 C 0.87763 0.40902 0.31971 0.0
C1101 C 0.87916 0.45829 0.29646 0.0
C1102 C 0.87466 0.43801 0.26501 0.0
C1103 C 0.88138 0.44378 0.32393 0.0
C1104 C 0.87216 0.40314 0.26198 0.0
H1105 H 0.88244 0.38877 0.15211 0.0
N1106 N 0.87645 0.35153 0.23074 0.0
C1107 C 0.88622 0.34698 0.17423 0.0
C1108 C 0.87339 0.38342 0.23171 0.0
C1109 C 0.88524 0.33445 0.20305 0.0
C1110 C 0.88073 0.3786 0.17423 0.0
C1111 C 0.87559 0.39785 0.20352 0.0
O1112 O 0.91409 0.33444 0.26372 0.0
O1113 O 0.85133 0.28279 0.28753 0.0
O1114 O 0.82216 0.32744 0.33097 0.0
O1115 O 0.87149 0.33693 0.33198 0.0
O1116 O 0.89392 0.29197 0.28412 0.0
O1117 O 0.91081 0.35843 0.31373 0.0
O1118 O 0.76473 0.29732 0.30033 0.0
O1119 O 0.82772 0.34226 0.28107 0.0
O1120 O 0.85711 0.29537 0.23795 0.0
O1121 O 0.80833 0.29109 0.23638 0.0
O1122 O 0.78474 0.33359 0.28451 0.0
O1123 O 0.76782 0.2619 0.25634 0.0
C1124 C 0.87407 0.26762 0.28815 0.0
C1125 C 0.9539 0.376 0.28981 0.0
C1126 C 1.00617 0.38973 0.30141 0.0
C1127 C 0.97902 0.37419 0.30836 0.0
C1128 C 1.00801 0.40902 0.27694 0.0
C1129 C 0.9556 0.39527 0.26536 0.0
C1130 C 0.9827 0.4121 0.25928 0.0
C1131 C 0.84812 0.33825 0.34618 0.0
C1132 C 0.92796 0.35136 0.29168 0.0
C1133 C 0.8749 0.43175 0.20597 0.0
C1134 C 0.87478 0.4519 0.23673 0.0
C1135 C 0.80507 0.35742 0.2804 0.0
C1136 C 0.72395 0.25497 0.28223 0.0
C1137 C 0.69826 0.25553 0.2637 0.0
C1138 C 0.67151 0.24642 0.27551 0.0
C1139 C 0.67068 0.23625 0.3059 0.0
C1140 C 0.72275 0.24344 0.31186 0.0
C1141 C 0.69617 0.23416 0.32362 0.0
C1142 C 0.83137 0.28823 0.22185 0.0
C1143 C 0.75065 0.27533 0.27514 0.0
H1144 H 0.97755 0.35855 0.32668 0.0
H1145 H 0.02892 0.42058 0.27066 0.0
H1146 H 0.93628 0.39601 0.25009 0.0
H1147 H 0.98417 0.42634 0.23993 0.0
H1148 H 0.69924 0.26505 0.24111 0.0
H1149 H 0.65041 0.23063 0.31631 0.0
H1150 H 0.74228 0.24363 0.32697 0.0
H1151 H 0.69543 0.22662 0.34714 0.0
Tb1152 Tb 0.09087 0.5477 0.5703 0.0
C1153 C 0.01774 0.59167 0.46681 0.0
C1154 C 0.98913 0.53948 0.43427 0.0
C1155 C 0.97098 0.59047 0.4374 0.0
C1156 C 1.01406 0.55763 0.45568 0.0
C1157 C 0.9968 0.60875 0.4567 0.0
C1158 C 0.96716 0.55584 0.42618 0.0
C1159 C 0.0307 0.66093 0.48012 0.0
N1160 N 0.04327 0.60855 0.48456 0.0
C1161 C 0.0508 0.6428 0.48932 0.0
C1162 C 1.00326 0.64381 0.46447 0.0
Tb1163 Tb 0.0758 0.5773 0.49658 0.0
N1164 N 0.03605 0.5429 0.46355 0.0
C1165 C 0.03519 0.51042 0.44863 0.0
C1166 C 0.98763 0.50585 0.42039 0.0
C1167 C 1.01102 0.49146 0.42714 0.0
H1168 H 0.07208 0.65615 0.5013 0.0
H1169 H 1.0105 0.46572 0.41581 0.0
H1170 H 0.94769 0.54222 0.41016 0.0
H1171 H 0.0364 0.68804 0.48503 0.0
H1172 H 0.05283 0.49851 0.45289 0.0
H1173 H 0.14834 0.67312 0.63902 0.0
H1174 H 0.96897 0.49112 0.40367 0.0
H1175 H 0.11478 0.47608 0.5543 0.0
H1176 H 0.10937 0.63487 0.60364 0.0
H1177 H 0.15785 0.45625 0.56801 0.0
H1178 H 0.95446 0.60307 0.42977 0.0
H1179 H 0.19235 0.65494 0.65674 0.0
H1180 H 0.21984 0.60993 0.65473 0.0
H1181 H 0.9878 0.65787 0.45708 0.0
H1182 H 0.22288 0.55168 0.63466 0.0
N1183 N 0.12783 0.59096 0.60137 0.0
C1184 C 0.12675 0.62418 0.61154 0.0
C1185 C 0.17452 0.63691 0.64133 0.0
C1186 C 0.17643 0.60378 0.63037 0.0
C1187 C 0.1497 0.64718 0.63156 0.0
C1188 C 0.1527 0.58118 0.60995 0.0
H1189 H 0.20026 0.49475 0.60234 0.0
N1190 N 0.13254 0.52775 0.57679 0.0
C1191 C 0.1577 0.48251 0.57587 0.0
C1192 C 0.155 0.54868 0.59747 0.0
C1193 C 0.13332 0.4945 0.56723 0.0
C1194 C 0.18143 0.50421 0.59543 0.0
C1195 C 0.18026 0.53759 0.60671 0.0
O1196 O 0.07649 0.50022 0.58082 0.0
O1197 O 0.05983 0.54323 0.52788 0.0
O1198 O 0.05727 0.60672 0.53486 0.0
O1199 O 0.07252 0.59133 0.58388 0.0
O1200 O 0.04438 0.54154 0.57283 0.0
O1201 O 0.09024 0.54448 0.61978 0.0
O1202 O 0.10355 0.61362 0.47835 0.0
O1203 O 0.10847 0.57082 0.53244 0.0
O1204 O 0.08987 0.50796 0.52797 0.0
O1205 O 0.09563 0.53457 0.48375 0.0
O1206 O 0.11132 0.61799 0.52278 0.0
O1207 O 0.08527 0.56435 0.44816 0.0
C1208 C 0.03688 0.53924 0.54198 0.0
C1209 C 0.05861 0.49738 0.63123 0.0
C1210 C 0.02128 0.50162 0.66721 0.0
C1211 C 0.04024 0.516 0.64705 0.0
C1212 C 0.02087 0.4687 0.6715 0.0
C1213 C 0.0576 0.46439 0.63505 0.0
C1214 C 0.03874 0.4501 0.65516 0.0
C1215 C 0.06058 0.61061 0.5673 0.0
C1216 C 0.0805 0.51202 0.61236 0.0
C1217 C 0.20342 0.55983 0.62743 0.0
C1218 C 0.20161 0.59291 0.63901 0.0
C1219 C 0.12448 0.59955 0.53754 0.0
C1220 C 0.10113 0.60894 0.42184 0.0
C1221 C 0.1253 0.60985 0.40519 0.0
C1222 C 0.12659 0.62297 0.37692 0.0
C1223 C 0.10416 0.63757 0.36638 0.0
C1224 C 0.07822 0.62278 0.41147 0.0
C1225 C 0.08003 0.63765 0.38392 0.0
C1226 C 0.09611 0.50878 0.49781 0.0
C1227 C 0.102 0.59373 0.45016 0.0
H1228 H 0.041 0.54158 0.64419 0.0
H1229 H 1.0071 0.45757 0.688 0.0
H1230 H 0.07189 0.44993 0.62299 0.0
H1231 H 0.03838 0.42485 0.65859 0.0
H1232 H 0.14297 0.59913 0.41368 0.0
H1233 H 0.10481 0.64768 0.34419 0.0
H1234 H 0.05917 0.62198 0.42428 0.0
H1235 H 0.06249 0.64847 0.37571 0.0
Tb1236 Tb 0.79873 0.81885 0.28799 0.0
C1237 C 0.89662 0.77134 0.34758 0.0
C1238 C 0.91783 0.81915 0.39098 0.0
C1239 C 0.92011 0.76317 0.39853 0.0
C1240 C 0.90226 0.80532 0.35959 0.0
C1241 C 0.90644 0.74991 0.36637 0.0
C1242 C 0.92577 0.79779 0.41085 0.0
C1243 C 0.8923 0.70494 0.31871 0.0
N1244 N 0.88385 0.75968 0.3163 0.0
C1245 C 0.88312 0.72726 0.30106 0.0
C1246 C 0.90349 0.71616 0.35175 0.0
Tb1247 Tb 0.86766 0.79767 0.28986 0.0
N1248 N 0.89454 0.82502 0.33944 0.0
C1249 C 0.90447 0.85918 0.34826 0.0
C1250 C 0.92611 0.85399 0.40086 0.0
C1251 C 0.92004 0.87405 0.37903 0.0
H1252 H 0.87462 0.71848 0.2754 0.0
H1253 H 0.92703 0.90106 0.386 0.0
H1254 H 0.93732 0.80789 0.43522 0.0
H1255 H 0.89087 0.67918 0.30678 0.0
H1256 H 0.90005 0.87576 0.3325 0.0
H1257 H 0.74458 0.71746 0.1874 0.0
H1258 H 0.93808 0.86559 0.42476 0.0
H1259 H 0.79141 0.89754 0.30555 0.0
H1260 H 0.77096 0.74153 0.24145 0.0
H1261 H 0.77344 0.93763 0.27654 0.0
H1262 H 0.92742 0.74706 0.41357 0.0
H1263 H 0.73003 0.75418 0.15171 0.0
H1264 H 0.72705 0.8122 0.14489 0.0
H1265 H 0.91083 0.69891 0.36535 0.0
H1266 H 0.73508 0.87237 0.1691 0.0
N1267 N 0.77308 0.79269 0.2376 0.0
C1268 C 0.76505 0.75853 0.22697 0.0
C1269 C 0.74183 0.76519 0.1758 0.0
C1270 C 0.74821 0.79986 0.18755 0.0
C1271 C 0.74991 0.74441 0.19587 0.0
C1272 C 0.76382 0.81294 0.21903 0.0
H1273 H 0.75193 0.9193 0.21838 0.0
N1274 N 0.78185 0.85756 0.26358 0.0
C1275 C 0.7722 0.91221 0.26371 0.0
C1276 C 0.7685 0.84662 0.23246 0.0
C1277 C 0.78244 0.8895 0.27998 0.0
C1278 C 0.76012 0.90177 0.2309 0.0
C1279 C 0.75753 0.86842 0.21508 0.0
O1280 O 0.77749 0.83742 0.32794 0.0
O1281 O 0.83473 0.81161 0.3194 0.0
O1282 O 0.83741 0.75165 0.29869 0.0
O1283 O 0.79221 0.76529 0.294 0.0
O1284 O 0.81958 0.85497 0.33166 0.0
O1285 O 0.75698 0.7923 0.2946 0.0
O1286 O 0.88924 0.77581 0.25208 0.0
O1287 O 0.83174 0.80451 0.25722 0.0
O1288 O 0.82898 0.86584 0.2802 0.0
O1289 O 0.87366 0.85078 0.28279 0.0
O1290 O 0.84713 0.76126 0.2472 0.0
O1291 O 0.90825 0.82443 0.2808 0.0
C1292 C 0.83747 0.83817 0.34125 0.0
C1293 C 0.72613 0.82283 0.32433 0.0
C1294 C 0.67994 0.81911 0.3485 0.0
C1295 C 0.70623 0.80821 0.34431 0.0
C1296 C 0.67444 0.84519 0.33349 0.0
C1297 C 0.71924 0.84802 0.30897 0.0
C1298 C 0.69391 0.85947 0.31394 0.0
C1299 C 0.80854 0.74325 0.29751 0.0
C1300 C 0.75458 0.81325 0.32093 0.0
C1301 C 0.74335 0.85595 0.18303 0.0
C1302 C 0.73874 0.8217 0.16927 0.0
C1303 C 0.82976 0.77753 0.23563 0.0
C1304 C 0.9402 0.79253 0.25651 0.0
C1305 C 0.9603 0.80758 0.23745 0.0
C1306 C 0.98717 0.79824 0.2353 0.0
C1307 C 0.99348 0.77331 0.25153 0.0
C1308 C 0.94738 0.76842 0.27334 0.0
C1309 C 0.97367 0.75854 0.27047 0.0
C1310 C 0.85789 0.87365 0.2804 0.0
C1311 C 0.9114 0.80086 0.25714 0.0
H1312 H 0.71104 0.7885 0.35623 0.0
H1313 H 0.65479 0.85446 0.33678 0.0
H1314 H 0.73343 0.85907 0.29315 0.0
H1315 H 0.68925 0.87943 0.30238 0.0
H1316 H 0.95516 0.82649 0.22454 0.0
H1317 H 1.01391 0.76547 0.24969 0.0
H1318 H 0.93276 0.75702 0.28856 0.0
H1319 H 0.97874 0.73947 0.28309 0.0
Tb1320 Tb 0.84414 0.3063 0.76777 0.0
C1321 C 0.80206 0.40169 0.86622 0.0
C1322 C 0.84625 0.43422 0.89945 0.0
C1323 C 0.80351 0.4579 0.89715 0.0
C1324 C 0.83053 0.40411 0.87864 0.0
C1325 C 0.78803 0.42831 0.87621 0.0
C1326 C 0.83263 0.46099 0.90846 0.0
C1327 C 0.74348 0.39377 0.84672 0.0
N1328 N 0.78771 0.37292 0.84554 0.0
C1329 C 0.75817 0.36825 0.83754 0.0
C1330 C 0.75857 0.42417 0.86576 0.0
Tb1331 Tb 0.81156 0.3291 0.83946 0.0
N1332 N 0.84296 0.37738 0.87005 0.0
C1333 C 0.87192 0.38075 0.88036 0.0
C1334 C 0.87529 0.43682 0.91059 0.0
C1335 C 0.88822 0.41008 0.90074 0.0
H1336 H 0.74515 0.34427 0.82482 0.0
H1337 H 0.91102 0.4122 0.90834 0.0
H1338 H 0.84439 0.48413 0.92444 0.0
H1339 H 0.72032 0.38956 0.83979 0.0
H1340 H 0.8839 0.36232 0.87189 0.0
H1341 H 0.74622 0.2167 0.70404 0.0
H1342 H 0.88807 0.45958 0.9263 0.0
H1343 H 0.91314 0.29918 0.77459 0.0
H1344 H 0.77237 0.26492 0.74464 0.0
H1345 H 0.94234 0.26387 0.74564 0.0
H1346 H 0.79309 0.47853 0.90486 0.0
H1347 H 0.77263 0.17744 0.67419 0.0
H1348 H 0.81976 0.16101 0.66502 0.0
H1349 H 0.74705 0.44384 0.87323 0.0
H1350 H 0.87292 0.17329 0.67697 0.0
N1351 N 0.8149 0.25726 0.73608 0.0
C1352 C 0.78507 0.25008 0.73067 0.0
C1353 C 0.78463 0.19958 0.69144 0.0
C1354 C 0.81478 0.20569 0.69808 0.0
C1355 C 0.76971 0.22177 0.70804 0.0
C1356 C 0.82941 0.23484 0.72097 0.0
H1357 H 0.91868 0.21174 0.70633 0.0
N1358 N 0.87214 0.26822 0.75196 0.0
C1359 C 0.91888 0.25661 0.7411 0.0
C1360 C 0.85903 0.24073 0.72892 0.0
C1361 C 0.90193 0.27661 0.75756 0.0
C1362 C 0.90548 0.22736 0.71889 0.0
C1363 C 0.87523 0.21905 0.71253 0.0
O1364 O 0.88451 0.33747 0.76508 0.0
O1365 O 0.84405 0.34438 0.81034 0.0
O1366 O 0.7833 0.33321 0.79369 0.0
O1367 O 0.80449 0.31718 0.74625 0.0
O1368 O 0.84083 0.35748 0.76563 0.0
O1369 O 0.85354 0.31186 0.72085 0.0
O1370 O 0.76963 0.30537 0.84576 0.0
O1371 O 0.81214 0.29048 0.79816 0.0
O1372 O 0.87167 0.29656 0.81028 0.0
O1373 O 0.85104 0.31278 0.85891 0.0
O1374 O 0.81054 0.27729 0.84365 0.0
O1375 O 0.80038 0.33439 0.88749 0.0
C1376 C 0.84296 0.36862 0.7967 0.0
C1377 C 0.89818 0.34615 0.71227 0.0
C1378 C 0.90379 0.37595 0.66835 0.0
C1379 C 0.88604 0.3591 0.68761 0.0
C1380 C 0.93397 0.37868 0.67265 0.0
C1381 C 0.9283 0.34915 0.71746 0.0
C1382 C 0.94618 0.36514 0.69725 0.0
C1383 C 0.78304 0.32762 0.76078 0.0
C1384 C 0.87885 0.33125 0.73316 0.0
C1385 C 0.86085 0.1903 0.68958 0.0
C1386 C 0.83064 0.18344 0.68263 0.0
C1387 C 0.81191 0.26661 0.81295 0.0
C1388 C 0.75928 0.29736 0.89787 0.0
C1389 C 0.77332 0.2753 0.91023 0.0
C1390 C 0.75967 0.25595 0.9307 0.0
C1391 C 0.73179 0.25815 0.93876 0.0
C1392 C 0.7314 0.30006 0.90565 0.0
C1393 C 0.71763 0.28033 0.92612 0.0
C1394 C 0.87202 0.30115 0.84316 0.0
C1395 C 0.77361 0.31811 0.87721 0.0
H1396 H 0.86266 0.3567 0.68381 0.0
H1397 H 0.94793 0.39164 0.65743 0.0
H1398 H 0.93784 0.33917 0.73688 0.0
H1399 H 0.96944 0.36738 0.70089 0.0
H1400 H 0.79503 0.27354 0.90444 0.0
H1401 H 0.72135 0.24323 0.95509 0.0
H1402 H 0.72047 0.31745 0.89604 0.0
H1403 H 0.69619 0.28244 0.93238 0.0
Tb1404 Tb 0.84722 0.83709 0.79984 0.0
C1405 C 0.7404 0.73273 0.72793 0.0
C1406 C 0.71035 0.72033 0.77068 0.0
C1407 C 0.69198 0.69715 0.71365 0.0
C1408 C 0.73717 0.73474 0.76096 0.0
C1409 C 0.71761 0.71378 0.70387 0.0
C1410 C 0.68793 0.70115 0.74684 0.0
C1411 C 0.74816 0.72525 0.66203 0.0
N1412 N 0.76649 0.74705 0.7195 0.0
C1413 C 0.77041 0.74284 0.68658 0.0
C1414 C 0.72167 0.71042 0.67068 0.0
Tb1415 Tb 0.80414 0.75739 0.7617 0.0
N1416 N 0.76038 0.75036 0.78348 0.0
C1417 C 0.75684 0.75552 0.81625 0.0
C1418 C 0.70707 0.72488 0.80411 0.0
C1419 C 0.73025 0.7433 0.82695 0.0
H1420 H 0.7915 0.7499 0.67869 0.0
H1421 H 0.72783 0.74771 0.85292 0.0
H1422 H 0.66762 0.68869 0.75383 0.0
H1423 H 0.75206 0.72161 0.63647 0.0
H1424 H 0.77391 0.76995 0.83454 0.0
H1425 H 0.91861 0.8491 0.70321 0.0
H1426 H 0.6867 0.71459 0.81248 0.0
H1427 H 0.86353 0.84299 0.88158 0.0
H1428 H 0.87302 0.83193 0.72334 0.0
H1429 H 0.90658 0.85992 0.921 0.0
H1430 H 0.6755 0.68052 0.69574 0.0
H1431 H 0.96372 0.86858 0.74143 0.0
H1432 H 0.98812 0.87993 0.79851 0.0
H1433 H 0.70476 0.69577 0.65162 0.0
H1434 H 0.985 0.8807 0.85702 0.0
N1435 N 0.88954 0.84294 0.77444 0.0
C1436 C 0.8913 0.84152 0.74143 0.0
C1437 C 0.94318 0.86138 0.7509 0.0
C1438 C 0.94185 0.86187 0.7843 0.0
C1439 C 0.91781 0.85066 0.72935 0.0
C1440 C 0.91452 0.85184 0.79547 0.0
H1441 H 0.95482 0.87378 0.90242 0.0
N1442 N 0.88633 0.84151 0.83857 0.0
C1443 C 0.90878 0.85656 0.89498 0.0
C1444 C 0.91286 0.85104 0.82839 0.0
C1445 C 0.88423 0.84577 0.8719 0.0
C1446 C 0.93594 0.86456 0.88448 0.0
C1447 C 0.93833 0.86225 0.85106 0.0
O1448 O 0.83943 0.8697 0.84122 0.0
O1449 O 0.80441 0.80433 0.7934 0.0
O1450 O 0.8096 0.79122 0.72532 0.0
O1451 O 0.83439 0.84541 0.75119 0.0
O1452 O 0.80669 0.85191 0.7872 0.0
O1453 O 0.86723 0.88781 0.80665 0.0
O1454 O 0.8134 0.72515 0.72141 0.0
O1455 O 0.8465 0.79054 0.76803 0.0
O1456 O 0.83853 0.80469 0.83651 0.0
O1457 O 0.8143 0.75008 0.81192 0.0
O1458 O 0.84506 0.74319 0.77446 0.0
O1459 O 0.78804 0.70572 0.75742 0.0
C1460 C 0.78875 0.82429 0.78753 0.0
C1461 C 0.84353 0.92514 0.83637 0.0
C1462 C 0.81828 0.95974 0.81044 0.0
C1463 C 0.82867 0.93082 0.80862 0.0
C1464 C 0.82207 0.9832 0.8401 0.0
C1465 C 0.84753 0.94825 0.8663 0.0
C1466 C 0.83666 0.97731 0.86813 0.0
C1467 C 0.82041 0.8233 0.72488 0.0
C1468 C 0.8557 0.8957 0.83367 0.0
C1469 C 0.96532 0.87236 0.83999 0.0
C1470 C 0.9671 0.87203 0.80669 0.0
C1471 C 0.86242 0.77108 0.77405 0.0
C1472 C 0.81083 0.66951 0.72344 0.0
C1473 C 0.82562 0.66071 0.74929 0.0
C1474 C 0.83782 0.63288 0.74336 0.0
C1475 C 0.83512 0.61341 0.71152 0.0
C1476 C 0.80848 0.65078 0.69139 0.0
C1477 C 0.82039 0.62246 0.6855 0.0
C1478 C 0.82757 0.77307 0.83796 0.0
C1479 C 0.79839 0.69869 0.72935 0.0
H1480 H 0.82592 0.91333 0.7853 0.0
H1481 H 0.81395 1.00594 0.84138 0.0
H1482 H 0.85923 0.94396 0.88795 0.0
H1483 H 0.83979 0.99536 0.89108 0.0
H1484 H 0.82774 0.67549 0.77405 0.0
H1485 H 0.84483 0.59177 0.70678 0.0
H1486 H 0.79787 0.6584 0.67101 0.0
H1487 H 0.81868 0.60786 0.66086 0.0
Tb1488 Tb 0.55178 0.53838 0.51938 0.0
C1489 C 0.63344 0.66424 0.59175 0.0
C1490 C 0.64871 0.69385 0.54903 0.0
C1491 C 0.65574 0.72391 0.6057 0.0
C1492 C 0.63625 0.66403 0.55911 0.0
C1493 C 0.64242 0.69447 0.61538 0.0
C1494 C 0.65911 0.72353 0.57259 0.0
C1495 C 0.62712 0.66386 0.65697 0.0
N1496 N 0.62205 0.63485 0.6004 0.0
C1497 C 0.62163 0.63438 0.63327 0.0
C1498 C 0.6379 0.69421 0.64805 0.0
Tb1499 Tb 0.61664 0.58721 0.5594 0.0
N1500 N 0.62588 0.63486 0.53715 0.0
C1501 C 0.62579 0.63474 0.50417 0.0
C1502 C 0.65005 0.69311 0.51556 0.0
C1503 C 0.638 0.66355 0.493 0.0
H1504 H 0.61899 0.61108 0.64149 0.0
H1505 H 0.63811 0.66288 0.46691 0.0
H1506 H 0.66919 0.74649 0.56535 0.0
H1507 H 0.62506 0.66281 0.68249 0.0
H1508 H 0.61593 0.61287 0.48588 0.0
H1509 H 0.53334 0.46475 0.61496 0.0
H1510 H 0.65961 0.71539 0.50684 0.0
H1511 H 0.54907 0.51317 0.43672 0.0
H1512 H 0.55565 0.5136 0.5948 0.0
H1513 H 0.53354 0.46111 0.39643 0.0
H1514 H 0.66336 0.7471 0.62362 0.0
H1515 H 0.50954 0.41243 0.57606 0.0
H1516 H 0.49749 0.3808 0.51815 0.0
H1517 H 0.64383 0.71698 0.66676 0.0
H1518 H 0.49994 0.37917 0.45925 0.0
N1519 N 0.54237 0.49205 0.54375 0.0
C1520 C 0.54404 0.49232 0.57688 0.0
C1521 C 0.51888 0.43441 0.56676 0.0
C1522 C 0.51903 0.4332 0.53307 0.0
C1523 C 0.53208 0.46391 0.58875 0.0
C1524 C 0.53144 0.46258 0.52213 0.0
H1525 H 0.51541 0.40811 0.41418 0.0
N1526 N 0.54485 0.4903 0.47901 0.0
C1527 C 0.53387 0.46067 0.42236 0.0
C1528 C 0.53334 0.46152 0.4889 0.0
C1529 C 0.54366 0.49022 0.4458 0.0
C1530 C 0.52332 0.43095 0.43245 0.0
C1531 C 0.52211 0.43124 0.46587 0.0
O1532 O 0.52744 0.54731 0.47878 0.0
O1533 O 0.58024 0.58835 0.52508 0.0
O1534 O 0.5829 0.58515 0.59756 0.0
O1535 O 0.53839 0.55497 0.57007 0.0
O1536 O 0.5386 0.58688 0.53243 0.0
O1537 O 0.50693 0.51924 0.51317 0.0
O1538 O 0.65072 0.59522 0.59664 0.0
O1539 O 0.59133 0.53543 0.54759 0.0
O1540 O 0.58484 0.53829 0.48076 0.0
O1541 O 0.62889 0.56841 0.50858 0.0
O1542 O 0.627 0.54563 0.57915 0.0
O1543 O 0.65865 0.58865 0.54477 0.0
C1544 C 0.56235 0.60759 0.53094 0.0
C1545 C 0.47681 0.54233 0.48008 0.0
C1546 C 0.43416 0.56049 0.49819 0.0
C1547 C 0.46146 0.55388 0.50572 0.0
C1548 C 0.42256 0.55639 0.4653 0.0
C1549 C 0.46509 0.53836 0.44728 0.0
C1550 C 0.43809 0.54551 0.43994 0.0
C1551 C 0.55421 0.57269 0.59819 0.0
C1552 C 0.50331 0.53048 0.48622 0.0
C1553 C 0.50907 0.40237 0.47667 0.0
C1554 C 0.50749 0.40337 0.51017 0.0
C1555 C 0.60721 0.52066 0.56446 0.0
C1556 C 0.70002 0.59936 0.58644 0.0
C1557 C 0.71675 0.58111 0.5677 0.0
C1558 C 0.74536 0.58291 0.57966 0.0
C1559 C 0.75757 0.60345 0.61009 0.0
C1560 C 0.7119 0.61964 0.61711 0.0
C1561 C 0.74072 0.62178 0.62881 0.0
C1562 C 0.61348 0.55054 0.48037 0.0
C1563 C 0.66943 0.5942 0.57557 0.0
H1564 H 0.47022 0.55684 0.53118 0.0
H1565 H 0.4015 0.56173 0.45932 0.0
H1566 H 0.47659 0.52897 0.42732 0.0
H1567 H 0.42905 0.54222 0.4146 0.0
H1568 H 0.70731 0.56465 0.5444 0.0
H1569 H 0.7798 0.60465 0.61945 0.0
H1570 H 0.69878 0.63333 0.63217 0.0
H1571 H 0.74961 0.63712 0.65262 0.0
Tb1572 Tb 0.11568 0.56014 0.03777 0.0
C1573 C 1.01219 0.50778 0.10075 0.0
C1574 C 0.98693 0.45999 0.05907 0.0
C1575 C 0.98224 0.46003 0.11683 0.0
C1576 C 1.00555 0.49198 0.0681 0.0
C1577 C 1.00016 0.49235 0.1255 0.0
C1578 C 0.97569 0.44385 0.08367 0.0
C1579 C 0.0227 0.54292 0.16511 0.0
N1580 N 0.02968 0.53889 0.1081 0.0
C1581 C 0.03408 0.55722 0.13965 0.0
C1582 C 1.00593 0.51019 0.15806 0.0
Tb1583 Tb 0.04631 0.56002 0.06434 0.0
N1584 N 0.01667 0.50845 0.0451 0.0
C1585 C 1.0091 0.49491 1.01234 0.0
C1586 C 0.97987 0.44545 0.02561 0.0
C1587 C 0.99083 0.46313 1.00214 0.0
H1588 H 0.04685 0.58261 0.14512 0.0
H1589 H 0.98534 0.45225 0.9762 0.0
H1590 H 0.96152 0.41913 0.07729 0.0
H1591 H 0.02671 0.5572 0.19009 0.0
H1592 H 0.01759 0.50817 0.99395 0.0
H1593 H 0.184 0.67295 0.11372 0.0
H1594 H 0.96572 0.42083 0.01764 0.0
H1595 H 0.1156 0.52698 0.95733 0.0
H1596 H 0.15227 0.61745 0.10378 0.0
H1597 H 0.13328 0.5469 0.90866 0.0
H1598 H 0.97294 0.44758 0.13551 0.0
H1599 H 0.19855 0.69917 0.06716 0.0
H1600 H 0.1982 0.69436 1.00647 0.0
H1601 H 0.99702 0.49924 0.17781 0.0
H1602 H 0.18409 0.66033 0.95071 0.0
N1603 N 0.14653 0.61184 0.05132 0.0
C1604 C 0.15759 0.62817 0.08278 0.0
C1605 C 0.18413 0.67462 0.06242 0.0
C1606 C 0.17448 0.65697 0.03028 0.0
C1607 C 0.176 0.65991 0.08875 0.0
C1608 C 0.15555 0.62512 0.02535 0.0
H1609 H 0.16018 0.60543 0.91412 0.0
N1610 N 0.13052 0.57462 0.98985 0.0
C1611 C 0.13708 0.56388 0.93233 0.0
C1612 C 0.14724 0.60605 0.99373 0.0
C1613 C 0.12716 0.5527 0.95996 0.0
C1614 C 0.15217 0.59695 0.93552 0.0
C1615 C 0.15814 0.61818 0.96655 0.0
O1616 O 0.13289 0.52026 1.01542 0.0
O1617 O 0.07138 0.52935 0.03488 0.0
O1618 O 0.07125 0.54099 0.09902 0.0
O1619 O 0.11663 0.56913 0.0904 0.0
O1620 O 0.10487 0.50887 0.04636 0.0
O1621 O 0.15732 0.55731 0.05722 0.0
O1622 O 0.02827 0.60064 0.08318 0.0
O1623 O 0.0863 0.59247 0.05511 0.0
O1624 O 0.08901 0.56658 0.99601 0.0
O1625 O 0.04383 0.56644 1.01458 0.0
O1626 O 0.06943 0.60668 0.09761 0.0
O1627 O 1.00514 0.56239 0.04273 0.0
C1628 C 0.07727 0.50214 0.04094 0.0
C1629 C 0.18367 0.52654 0.02117 0.0
C1630 C 0.22399 0.49867 0.01722 0.0
C1631 C 0.20028 0.5059 0.03302 0.0
C1632 C 0.23096 0.51179 0.98941 0.0
C1633 C 0.19164 0.54076 0.99422 0.0
C1634 C 0.21491 0.53298 0.9781 0.0
C1635 C 0.09888 0.55356 0.10818 0.0
C1636 C 0.1569 0.53003 0.03559 0.0
C1637 C 0.17579 0.65049 0.97133 0.0
C1638 C 0.1839 0.66984 1.0031 0.0
C1639 C 0.08934 0.61664 0.07995 0.0
C1640 C 0.97771 0.59338 0.07623 0.0
C1641 C 0.95998 0.61122 0.0617 0.0
C1642 C 0.9357 0.61842 0.07622 0.0
C1643 C 0.92899 0.60754 0.10524 0.0
C1644 C 0.97054 0.58187 0.10485 0.0
C1645 C 0.94627 0.58904 0.11933 0.0
C1646 C 0.06201 0.5697 0.99262 0.0
C1647 C 1.0048 0.59017 0.06266 0.0
H1648 H 0.19448 0.49498 0.05402 0.0
H1649 H 0.2491 0.50603 0.97681 0.0
H1650 H 0.18009 0.55769 0.98541 0.0
H1651 H 0.22055 0.54347 0.95689 0.0
H1652 H 0.96546 0.62027 0.03963 0.0
H1653 H 0.91027 0.61309 0.11675 0.0
H1654 H 0.98378 0.5679 0.11628 0.0
H1655 H 0.94099 0.58049 0.14163 0.0
C1656 C 0.05327 0.19314 0.02426 0.0
C1657 C 0.05117 0.19876 0.99145 0.0
C1658 C 0.06156 0.16377 0.03257 0.0
C1659 C 0.06864 0.13854 1.00857 0.0
H1660 H 0.04784 0.21121 0.04367 0.0
H1661 H 0.06163 0.16049 0.05777 0.0
S1662 S 0.07037 0.1425 0.92005 0.0
N1663 N 0.05948 0.17668 0.93577 0.0
N1664 N 0.07507 0.1236 0.95093 0.0
C1665 C 0.0678 0.1449 0.97623 0.0
C1666 C 0.05916 0.17416 0.96783 0.0
C1667 C 0.20435 0.82406 0.22431 0.0
C1668 C 0.20812 0.84075 0.19762 0.0
C1669 C 0.22817 0.82169 0.24599 0.0
C1670 C 0.25711 0.83599 0.24223 0.0
H1671 H 0.18272 0.81191 0.22808 0.0
H1672 H 0.2239 0.80756 0.26518 0.0
S1673 S 0.27907 0.8866 0.17978 0.0
N1674 N 0.24341 0.8745 0.17107 0.0
N1675 N 0.28771 0.87027 0.2115 0.0
C1676 C 0.2611 0.85382 0.21652 0.0
C1677 C 0.23687 0.85614 0.1944 0.0
C1678 C 0.54897 0.9156 0.4794 0.0
C1679 C 0.54758 0.89155 0.49974 0.0
C1680 C 0.55631 0.95068 0.49236 0.0
C1681 C 0.56227 0.96384 0.52649 0.0
H1682 H 0.54512 0.90725 0.45295 0.0
H1683 H 0.55856 0.96767 0.47538 0.0
S1684 S 0.56279 0.91272 0.59084 0.0
N1685 N 0.55334 0.88442 0.55627 0.0
N1686 N 0.56709 0.94964 0.58023 0.0
C1687 C 0.56065 0.9402 0.54708 0.0
C1688 C 0.55315 0.90446 0.53394 0.0
C1689 C 0.53122 0.32804 0.673 0.0
C1690 C 0.55932 0.32704 0.68592 0.0
C1691 C 0.50696 0.31775 0.68907 0.0
C1692 C 0.51005 0.30552 0.7182 0.0
H1693 H 0.52787 0.33586 0.64982 0.0
H1694 H 0.48554 0.31747 0.67766 0.0
S1695 S 0.57882 0.29853 0.7624 0.0
N1696 N 0.58881 0.31389 0.73013 0.0
N1697 N 0.54322 0.29424 0.75997 0.0
C1698 C 0.53808 0.30559 0.73194 0.0
C1699 C 0.56274 0.31642 0.71588 0.0
C1700 C 0.06069 0.85927 0.63483 0.0
C1701 C 0.03141 0.84232 0.62703 0.0
C1702 C 0.07604 0.87227 0.61114 0.0
C1703 C 0.06235 0.86903 0.57936 0.0
H1704 H 0.07241 0.86043 0.65855 0.0
H1705 H 0.09886 0.88418 0.61739 0.0
S1706 S 0.9853 0.83174 0.54821 0.0
N1707 N 0.9887 0.82589 0.58638 0.0
N1708 N 0.01762 0.85193 0.54213 0.0
C1709 C 0.03266 0.85474 0.57199 0.0
C1710 C 0.01712 0.84093 0.59586 0.0
C1711 C 0.56092 0.88033 0.86226 0.0
C1712 C 0.5747 0.85559 0.84727 0.0
C1713 C 0.53709 0.88742 0.84545 0.0
C1714 C 0.52648 0.86981 0.81341 0.0
H1715 H 0.56908 0.89486 0.88674 0.0
H1716 H 0.52697 0.90686 0.85741 0.0
S1717 S 0.55206 0.79903 0.76601 0.0
N1718 N 0.57454 0.81117 0.80042 0.0
N1719 N 0.529 0.82422 0.76877 0.0
C1720 C 0.53919 0.84398 0.79878 0.0
C1721 C 0.56362 0.83693 0.8158 0.0
C1722 C 0.54837 0.19913 0.09371 0.0
C1723 C 0.52381 0.19152 0.11025 0.0
C1724 C 0.55893 0.17377 0.07525 0.0
C1725 C 0.54522 0.14034 0.07306 0.0
H1726 H 0.56038 0.22474 0.09631 0.0
H1727 H 0.57853 0.18021 0.06375 0.0
S1728 S 0.47855 0.10724 0.10818 0.0
N1729 N 0.48454 0.14836 0.12068 0.0
N1730 N 0.50516 0.10026 0.08626 0.0
C1731 C 0.5201 0.13221 0.0882 0.0
C1732 C 0.50911 0.15804 0.1068 0.0
C1733 C 0.2186 0.33344 0.31125 0.0
C1734 C 0.22183 0.3379 0.34576 0.0
C1735 C 0.24239 0.33114 0.29366 0.0
C1736 C 0.26962 0.33258 0.31024 0.0
H1737 H 0.19774 0.33225 0.29788 0.0
H1738 H 0.23945 0.32787 0.26712 0.0
S1739 S 0.28804 0.33954 0.39996 0.0
N1740 N 0.25352 0.34135 0.39553 0.0
N1741 N 0.29786 0.33577 0.36258 0.0
C1742 C 0.27279 0.33618 0.34465 0.0
C1743 C 0.24885 0.33894 0.36244 0.0
C1744 C 0.03939 0.09464 0.19495 0.0
C1745 C 1.00971 0.0788 0.19591 0.0
C1746 C 0.05398 0.09271 0.16522 0.0
C1747 C 0.04047 0.0748 0.13318 0.0
H1748 H 0.05187 0.10895 0.21774 0.0
H1749 H 0.07645 0.10566 0.16774 0.0
S1750 S 0.96309 0.02751 0.12022 0.0
N1751 N 0.96792 0.04363 0.16005 0.0
N1752 N 0.99428 0.04012 0.10621 0.0
C1753 C 1.01084 0.05871 0.13396 0.0
C1754 C 0.99603 0.06064 0.16419 0.0
C1755 C 0.28007 0.67342 0.44829 0.0
C1756 C 0.30383 0.68821 0.47243 0.0
C1757 C 0.26518 0.69326 0.43297 0.0
C1758 C 0.27405 0.72816 0.44111 0.0
H1759 H 0.2714 0.64661 0.44322 0.0
H1760 H 0.24604 0.68141 0.41567 0.0
S1761 S 0.33632 0.77925 0.49993 0.0
N1762 N 0.33713 0.74002 0.50132 0.0
N1763 N 0.30884 0.77708 0.47217 0.0
C1764 C 0.29913 0.74327 0.46293 0.0
C1765 C 0.31433 0.72323 0.47854 0.0
C1766 C 0.64364 0.0703 0.68384 0.0
C1767 C 0.66615 0.05356 0.67663 0.0
C1768 C 0.6184 0.06313 0.66215 0.0
C1769 C 0.61545 0.03909 0.63325 0.0
H1770 H 0.64628 0.09052 0.70506 0.0
H1771 H 0.60301 0.07922 0.66593 0.0
S1772 S 0.66496 0.98361 0.6069 0.0
N1773 N 0.68176 1.0083 0.6415 0.0
N1774 N 0.63367 0.99464 0.60098 0.0
C1775 C 0.63584 1.01918 0.6281 0.0
C1776 C 0.66172 0.02679 0.64965 0.0
C1777 C 0.35912 0.38726 0.92945 0.0
C1778 C 0.35398 0.36321 0.94938 0.0
C1779 C 0.35541 0.37823 0.89508 0.0
C1780 C 0.34702 0.34459 0.87841 0.0
H1781 H 0.36541 0.41372 0.94042 0.0
H1782 H 0.35859 0.3981 0.88123 0.0
S1783 S 0.33037 0.27123 0.91826 0.0
N1784 N 0.3397 0.30362 0.9495 0.0
N1785 N 0.33316 0.28671 0.88449 0.0
C1786 C 0.34234 0.31989 0.89772 0.0
C1787 C 0.34582 0.32917 0.9332 0.0
C1788 C 0.04212 0.07606 0.39566 0.0
C1789 C 1.01179 0.07599 0.38883 0.0
C1790 C 0.0556 0.07152 0.427 0.0
C1791 C 0.03992 0.06637 0.45445 0.0
H1792 H 0.05595 0.07998 0.37656 0.0
H1793 H 0.07874 0.07274 0.42975 0.0
S1794 S 0.95986 0.06138 0.45045 0.0
N1795 N 0.96708 0.06848 0.41391 0.0
N1796 N 0.99109 0.0601 0.47012 0.0
C1797 C 1.00965 0.06555 0.44736 0.0
C1798 C 0.99614 0.07019 0.41587 0.0
C1799 C 0.295 0.71688 0.65628 0.0
C1800 C 0.31245 0.72448 0.63195 0.0
C1801 C 0.29366 0.74155 0.68297 0.0
C1802 C 0.31164 0.77383 0.68741 0.0
H1803 H 0.28257 0.69165 0.65495 0.0
H1804 H 0.28044 0.73406 0.70156 0.0
S1805 S 0.35144 0.80866 0.62397 0.0
N1806 N 0.34066 0.76817 0.60839 0.0
N1807 N 0.33969 0.81459 0.66052 0.0
C1808 C 0.3259 0.78281 0.66107 0.0
C1809 C 0.32624 0.75788 0.63298 0.0
C1810 C 0.70023 0.10945 0.84638 0.0
C1811 C 0.68994 0.08743 0.8162 0.0
C1812 C 0.68152 0.12585 0.86388 0.0
C1813 C 0.65229 0.12108 0.8512 0.0
H1814 H 0.72282 0.11406 0.85642 0.0
H1815 H 0.68958 0.14139 0.88795 0.0
S1816 S 0.61463 0.06612 0.77356 0.0
N1817 N 0.64856 0.06169 0.77436 0.0
N1818 N 0.61354 0.0928 0.80778 0.0
C1819 C 0.64176 0.0994 0.82111 0.0
C1820 C 0.66056 0.08229 0.8035 0.0
C1821 C 0.33078 0.38154 0.16282 0.0
C1822 C 0.33774 0.36076 0.13508 0.0
C1823 C 0.32315 0.36931 0.1912 0.0
C1824 C 0.32173 0.33558 0.19324 0.0
H1825 H 0.33181 0.40783 0.16299 0.0
H1826 H 0.31918 0.38675 0.21221 0.0
S1827 S 0.33977 0.27108 0.12837 0.0
N1828 N 0.3429 0.30462 0.11181 0.0
N1829 N 0.33029 0.28235 0.16539 0.0
C1830 C 0.32857 0.31453 0.1656 0.0
C1831 C 0.33607 0.32689 0.13655 0.0
C1832 C 0.28368 0.03007 0.02602 0.0
C1833 C 0.29903 1.01512 0.04688 0.0
C1834 C 0.26596 0.05094 0.03896 0.0
C1835 C 0.2633 0.05685 0.07281 0.0
H1836 H 0.28673 0.02723 1.0002 0.0
H1837 H 0.25515 0.06349 0.02272 0.0
S1838 S 0.29285 1.0152 0.13495 0.0
N1839 N 0.30655 1.00186 0.10097 0.0
N1840 N 0.27239 0.0407 0.1253 0.0
C1841 C 0.2762 0.03909 0.09306 0.0
C1842 C 0.29436 1.01815 0.07998 0.0
C1843 C 0.69608 0.66092 1.01341 0.0
C1844 C 0.72131 0.64814 1.01037 0.0
C1845 C 0.66886 0.63987 1.01387 0.0
C1846 C 0.66538 0.60487 1.01135 0.0
H1847 H 0.69739 0.6876 1.01625 0.0
H1848 H 0.65045 0.65147 0.01684 0.0
S1849 S 0.72496 0.55869 1.003 0.0
N1850 N 0.74112 0.59801 1.00429 0.0
N1851 N 0.69039 0.55888 1.00586 0.0
C1852 C 0.69049 0.59176 1.00771 0.0
C1853 C 0.71826 0.61321 1.0071 0.0
C1854 C 0.78923 0.45264 0.29662 0.0
C1855 C 0.75971 0.44895 0.28232 0.0
C1856 C 0.80501 0.42527 0.29476 0.0
C1857 C 0.79373 0.39144 0.27711 0.0
H1858 H 0.80024 0.47699 0.31086 0.0
H1859 H 0.82559 0.43059 0.30942 0.0
S1860 S 0.71707 0.36609 0.23544 0.0
N1861 N 0.72017 0.40631 0.25064 0.0
N1862 N 0.74885 0.35777 0.24549 0.0
C1863 C 0.76432 0.38805 0.26242 0.0
C1864 C 0.74804 0.41537 0.26519 0.0
C1865 C 0.96218 0.49963 0.49856 0.0
C1866 C 0.94503 0.51801 0.51724 0.0
C1867 C 0.99248 0.50802 0.50523 0.0
C1868 C 1.00651 0.53617 0.52912 0.0
H1869 H 0.95219 0.47676 0.48104 0.0
H1870 H 1.00469 0.49057 0.49393 0.0
S1871 S 0.97054 0.59066 0.58588 0.0
N1872 N 0.94365 0.56492 0.56064 0.0
N1873 N 1.00025 0.57994 0.57357 0.0
C1874 C 0.98927 0.5549 0.54731 0.0
C1875 C 0.95859 0.54634 0.54082 0.0
C1876 C 0.36637 0.10296 0.32267 0.0
C1877 C 0.39468 0.10946 0.31379 0.0
C1878 C 0.34293 0.10441 0.30125 0.0
C1879 C 0.34727 0.11226 0.27047 0.0
H1880 H 0.3622 0.09505 0.3456 0.0
H1881 H 0.32131 0.09972 0.30881 0.0
S1882 S 0.41727 0.13612 0.23751 0.0
N1883 N 0.42609 0.12719 0.27347 0.0
N1884 N 0.38152 0.13057 0.23339 0.0
C1885 C 0.37548 0.12075 0.262 0.0
C1886 C 0.39942 0.11947 0.28382 0.0
C1887 C 0.39131 0.17989 0.57401 0.0
C1888 C 0.38035 0.17307 0.54058 0.0
C1889 C 0.41034 0.16172 0.58568 0.0
C1890 C 0.41946 0.13669 0.56416 0.0
H1891 H 0.38385 0.19807 0.59155 0.0
H1892 H 0.41745 0.16673 0.6118 0.0
S1893 S 0.39979 0.11244 0.47377 0.0
N1894 N 0.38158 0.14168 0.48572 0.0
N1895 N 0.41811 0.10798 0.50748 0.0
C1896 C 0.41008 0.13113 0.53035 0.0
C1897 C 0.39023 0.14919 0.51858 0.0
C1898 C 0.76441 0.66298 0.32379 0.0
C1899 C 0.76019 0.63696 0.29532 0.0
C1900 C 0.78021 0.6966 0.32473 0.0
C1901 C 0.7931 0.70654 0.29737 0.0
H1902 H 0.75525 0.65742 0.34571 0.0
H1903 H 0.78222 0.71509 0.34723 0.0
S1904 S 0.78651 0.64978 0.21577 0.0
N1905 N 0.76937 0.62525 0.23838 0.0
N1906 N 0.79843 0.68689 0.24025 0.0
C1907 C 0.7887 0.68087 0.26881 0.0
C1908 C 0.77261 0.64683 0.26778 0.0
C1909 C 0.90929 0.4357 0.82861 0.0
C1910 C 0.89817 0.46473 0.83192 0.0
C1911 C 0.89088 0.40439 0.81805 0.0
C1912 C 0.861 0.40142 0.81001 0.0
H1913 H 0.93241 0.43724 0.83341 0.0
H1914 H 0.90016 0.38244 0.81593 0.0
S1915 S 0.82097 0.46928 0.81587 0.0
N1916 N 0.85513 0.48847 0.82868 0.0
N1917 N 0.82085 0.429 0.80595 0.0
C1918 C 0.8495 0.42996 0.81344 0.0
C1919 C 0.86803 0.46188 0.8255 0.0
C1920 C 0.12603 0.95567 0.11412 0.0
C1921 C 0.11898 0.92423 0.09226 0.0
C1922 C 0.11961 0.98526 0.10566 0.0
C1923 C 0.10596 0.98647 0.07436 0.0
H1924 H 0.13649 0.9576 0.13865 0.0
H1925 H 0.12565 1.00785 0.12455 0.0
S1926 S 0.08293 0.91115 1.00675 0.0
N1927 N 0.09655 0.89617 0.03719 0.0
N1928 N 0.08676 0.95187 0.02055 0.0
C1929 C 0.09932 0.95526 0.05166 0.0
C1930 C 0.10516 0.92448 0.06074 0.0
C1931 C 0.93021 0.30408 0.91655 0.0
C1932 C 0.95045 0.28654 0.90233 0.0
C1933 C 0.90497 0.30796 0.89777 0.0
C1934 C 0.89817 0.29436 0.86357 0.0
H1935 H 0.93421 0.31565 0.94242 0.0
H1936 H 0.89091 0.32238 0.91026 0.0
S1937 S 0.94225 0.24235 0.81523 0.0
N1938 N 0.96082 0.25393 0.85205 0.0
N1939 N 0.91346 0.25903 0.81798 0.0
C1940 C 0.91783 0.27558 0.84965 0.0
C1941 C 0.94374 0.27229 0.86854 0.0
C1942 C 0.61267 0.2064 0.56628 0.0
C1943 C 0.6162 0.22607 0.59857 0.0
C1944 C 0.60664 0.17044 0.56022 0.0
C1945 C 0.60506 0.15251 0.58622 0.0
H1946 H 0.61337 0.21872 0.54549 0.0
H1947 H 0.60247 0.15669 0.53502 0.0
S1948 S 0.61406 0.19176 0.67507 0.0
N1949 N 0.61798 0.22392 0.65651 0.0
N1950 N 0.60845 0.15819 0.64542 0.0
C1951 C 0.60953 0.17219 0.61833 0.0
C1952 C 0.61472 0.20822 0.6244 0.0
C1953 C 0.60499 0.783 0.36902 0.0
C1954 C 0.60782 0.79162 0.40359 0.0
C1955 C 0.62909 0.78932 0.3515 0.0
C1956 C 0.65717 0.80414 0.3677 0.0
H1957 H 0.58376 0.77271 0.35521 0.0
H1958 H 0.62548 0.78418 0.32488 0.0
S1959 S 0.67717 0.82788 0.45795 0.0
N1960 N 0.64168 0.81316 0.45349 0.0
N1961 N 0.68681 0.82477 0.42038 0.0
C1962 C 0.66071 0.81085 0.40224 0.0
C1963 C 0.63609 0.80469 0.4202 0.0
C1964 C 0.14577 0.27609 0.47713 0.0
C1965 C 0.13005 0.27478 0.4467 0.0
C1966 C 0.13257 0.26064 0.50087 0.0
C1967 C 0.10354 0.24323 0.49454 0.0
H1968 H 0.16786 0.29063 0.48335 0.0
H1969 H 0.14471 0.26342 0.5247 0.0
S1970 S 0.05367 0.2296 0.41828 0.0
N1971 N 0.08421 0.25287 0.41105 0.0
N1972 N 0.06003 0.22281 0.45572 0.0
C1973 C 0.08813 0.23978 0.46373 0.0
C1974 C 0.10131 0.25578 0.43964 0.0
C1975 C 0.61702 0.28374 0.23169 0.0
C1976 C 0.59131 0.25914 0.22901 0.0
C1977 C 0.64329 0.27913 0.24583 0.0
C1978 C 0.64458 0.24965 0.25744 0.0
H1979 H 0.61679 0.30692 0.22335 0.0
H1980 H 0.66243 0.29916 0.24861 0.0
S1981 S 0.58444 0.17586 0.2516 0.0
N1982 N 0.56936 0.20314 0.23629 0.0
N1983 N 0.61901 0.19422 0.26192 0.0
C1984 C 0.61943 0.22423 0.25315 0.0
C1985 C 0.59269 0.22902 0.23916 0.0
C1986 C 0.64693 0.9683 0.94373 0.0
C1987 C 0.64075 0.93635 0.95138 0.0
C1988 C 0.63181 0.9925 0.95633 0.0
C1989 C 0.60999 0.98523 0.9767 0.0
H1990 H 0.6635 0.97459 0.92795 0.0
H1991 H 0.6379 1.01732 0.95092 0.0
S1992 S 0.58118 0.9031 0.99769 0.0
N1993 N 0.60871 0.89731 0.97692 0.0
N1994 N 0.57964 0.94264 0.99933 0.0
C1995 C 0.60238 0.95283 0.9828 0.0
C1996 C 0.61804 0.9284 0.97054 0.0
C1997 C 0.94097 0.77778 0.76024 0.0
C1998 C 0.93908 0.77192 0.72573 0.0
C1999 C 0.91583 0.77608 0.77612 0.0
C2000 C 0.88854 0.76991 0.7578 0.0
H2001 H 0.96189 0.78345 0.77498 0.0
H2002 H 0.9178 0.78073 0.80272 0.0
S2003 S 0.87235 0.75217 0.66687 0.0
N2004 N 0.90791 0.75808 0.67379 0.0
N2005 N 0.86106 0.75736 0.70357 0.0
C2006 C 0.88652 0.76367 0.72331 0.0
C2007 C 0.91179 0.76433 0.70725 0.0
C2008 C 0.1723 0.05802 0.91521 0.0
C2009 C 0.16008 0.03584 0.88449 0.0
C2010 C 0.15809 0.06057 0.94534 0.0
C2011 C 0.12997 0.0412 0.94837 0.0
H2012 H 0.1935 0.07413 0.9162 0.0
H2013 H 0.16956 0.07856 0.96678 0.0
S2014 S 0.08729 0.97819 0.87634 0.0
N2015 N 0.11683 0.99373 0.8607 0.0
N2016 N 0.09139 0.99772 0.91521 0.0
C2017 C 0.11768 1.01875 0.91779 0.0
C2018 C 0.13209 1.01631 0.88707 0.0
C2019 C 0.88349 0.39557 0.5871 0.0
C2020 C 0.86788 0.42051 0.59584 0.0
C2021 C 0.89494 0.38095 0.61094 0.0
C2022 C 0.89028 0.39042 0.64372 0.0
H2023 H 0.88819 0.38862 0.56201 0.0
H2024 H 0.90779 0.36253 0.60386 0.0
S2025 S 0.84731 0.45156 0.67763 0.0
N2026 N 0.84652 0.4528 0.63815 0.0
N2027 N 0.86622 0.42325 0.68335 0.0
C2028 C 0.8726 0.41343 0.65227 0.0
C2029 C 0.86196 0.42928 0.62812 0.0
C2030 C 0.53524 0.05541 0.40482 0.0
C2031 C 0.51099 0.0699 0.40695 0.0
C2032 C 0.55253 0.05514 0.43317 0.0
C2033 C 0.54643 0.07029 0.46402 0.0
H2034 H 0.54024 0.04315 0.38132 0.0
H2035 H 0.56998 0.042 0.43076 0.0
S2036 S 0.48389 0.10993 0.48174 0.0
N2037 N 0.48014 0.09736 0.44163 0.0
N2038 N 0.51419 0.10022 0.49472 0.0
C2039 C 0.52244 0.08561 0.46608 0.0
C2040 C 0.50432 0.08467 0.43748 0.0
C2041 C 0.81343 0.78597 0.14426 0.0
C2042 C 0.81434 0.75367 0.12672 0.0
C2043 C 0.81797 0.79435 0.17943 0.0
C2044 C 0.82321 0.77058 0.19832 0.0
H2045 H 0.80892 0.80472 0.13085 0.0
H2046 H 0.81757 0.8195 0.19174 0.0
S2047 S 0.83358 0.68491 0.1635 0.0
N2048 N 0.82505 0.69996 0.1311 0.0
N2049 N 0.83281 0.71468 0.19522 0.0
C2050 C 0.82544 0.7389 0.18042 0.0
C2051 C 0.82115 0.73071 0.14532 0.0
C2052 C 0.13117 0.04807 0.68528 0.0
C2053 C 0.15732 0.03581 0.69009 0.0
C2054 C 0.11773 0.05105 0.6532 0.0
C2055 C 0.12933 0.04251 0.62263 0.0
H2056 H 0.12077 0.05578 0.70677 0.0
H2057 H 0.09792 0.06026 0.65265 0.0
S2058 S 0.19608 1.00663 0.6194 0.0
N2059 N 0.19256 1.01343 0.659 0.0
N2060 N 0.16908 1.01915 0.60157 0.0
C2061 C 0.15516 0.0298 0.62749 0.0
C2062 C 0.16849 0.02657 0.65977 0.0
C2063 C 0.86827 0.37783 0.43459 0.0
C2064 C 0.8501 0.40091 0.43841 0.0
C2065 C 0.86831 0.35773 0.40407 0.0
C2066 C 0.84997 0.36031 0.37732 0.0
H2067 H 0.8828 0.3756 0.45506 0.0
H2068 H 0.88224 0.33986 0.40148 0.0
S2069 S 0.79924 0.41761 0.37451 0.0
N2070 N 0.81384 0.42559 0.41305 0.0
N2071 N 0.81417 0.38803 0.35552 0.0
C2072 C 0.83195 0.38347 0.38077 0.0
C2073 C 0.83185 0.40373 0.41156 0.0
C2074 C 0.4647 1.00044 0.22556 0.0
C2075 C 0.4697 0.03454 0.24039 0.0
C2076 C 0.48338 0.98902 0.20417 0.0
C2077 C 0.50701 1.01155 0.1969 0.0
H2078 H 0.4479 0.9821 0.23262 0.0
H2079 H 0.47989 0.96242 0.19404 0.0
S2080 S 0.52532 0.10411 0.22406 0.0
N2081 N 0.4968 0.09132 0.24263 0.0
N2082 N 0.53209 0.06986 0.20196 0.0
C2083 C 0.51044 0.04613 0.20893 0.0
C2084 C 0.49151 0.05769 0.23073 0.0
C2085 C 0.83177 0.72883 0.91084 0.0
C2086 C 0.81823 0.74724 0.93477 0.0
C2087 C 0.83498 0.73726 0.87972 0.0
C2088 C 0.82545 0.76496 0.87146 0.0
H2089 H 0.83963 0.70734 0.91595 0.0
H2090 H 0.84508 0.72207 0.86205 0.0
S2091 S 0.78823 0.82108 0.92468 0.0
N2092 N 0.79463 0.79397 0.94723 0.0
N2093 N 0.80193 0.81075 0.88995 0.0
C2094 C 0.81252 0.78397 0.89541 0.0
C2095 C 0.8086 0.77491 0.92668 0.0
C2096 C 0.85412 0.05505 0.02765 0.0
C2097 C 0.86269 0.08824 0.04511 0.0
C2098 C 0.87442 0.03847 1.01371 0.0
C2099 C 0.90379 0.05469 1.01671 0.0
H2100 H 0.8314 0.04243 0.02307 0.0
H2101 H 0.86694 1.01313 0.99964 0.0
S2102 S 0.9372 0.14149 0.06214 0.0
N2103 N 0.90244 0.13622 0.06708 0.0
N2104 N 0.94062 0.10587 0.03944 0.0
C2105 C 0.91282 0.08766 0.03539 0.0
C2106 C 0.8922 0.10423 0.05001 0.0
C2107 C 0.45113 0.49765 0.065 0.0
C2108 C 0.44552 0.46237 0.06128 0.0
C2109 C 0.47925 0.51677 0.06348 0.0
C2110 C 0.50308 0.50153 0.05791 0.0
H2111 H 0.43357 0.51062 0.0686 0.0
H2112 H 0.48204 0.54357 0.06572 0.0
S2113 S 0.49985 0.40995 0.04672 0.0
N2114 N 0.46635 0.41327 0.05205 0.0
N2115 N 0.51848 0.44851 0.0493 0.0
C2116 C 0.49758 0.4663 0.0546 0.0
C2117 C 0.46912 0.44699 0.05627 0.0
C2118 C 0.38409 0.6742 0.7958 0.0
C2119 C 0.41396 0.6741 0.79059 0.0
C2120 C 0.37023 0.70308 0.79559 0.0
C2121 C 0.38382 0.73461 0.78798 0.0
H2122 H 0.37104 0.65164 0.80103 0.0
H2123 H 0.34869 0.70044 0.80235 0.0
S2124 S 0.46367 0.75131 0.77778 0.0
N2125 N 0.45719 0.71199 0.78215 0.0
N2126 N 0.43237 0.76286 0.77972 0.0
C2127 C 0.41413 0.73474 0.78418 0.0
C2128 C 0.42841 0.70605 0.78567 0.0
C2129 C 0.20265 0.64578 0.55939 0.0
C2130 C 0.21813 0.62031 0.55151 0.0
C2131 C 0.17232 0.63876 0.55473 0.0
C2132 C 0.15642 0.60597 0.54258 0.0
H2133 H 0.214 0.67155 0.56873 0.0
H2134 H 0.16122 0.65909 0.56081 0.0
S2135 S 0.18667 0.5307 0.5166 0.0
N2136 N 0.2154 0.56124 0.53047 0.0
N2137 N 0.15838 0.54814 0.52066 0.0
C2138 C 0.17162 0.58035 0.53419 0.0
C2139 C 0.20251 0.58746 0.53916 0.0
C2140 C 0.75963 0.96463 0.7483 0.0
C2141 C 0.774 0.99136 0.73505 0.0
C2142 C 0.7747 0.95234 0.7716 0.0
C2143 C 0.80435 0.96586 0.78076 0.0
H2144 H 0.73612 0.95701 0.74472 0.0
H2145 H 0.76279 0.93464 0.78457 0.0
S2146 S 0.85325 1.02517 0.74281 0.0
N2147 N 0.82037 1.02333 0.72509 0.0
N2148 N 0.84897 0.99915 0.76856 0.0
C2149 C 0.81972 0.98751 0.76302 0.0
C2150 C 0.80439 1.00014 0.73947 0.0
C2151 C 0.78449 0.97102 0.55853 0.0
C2152 C 0.78698 0.94098 0.53811 0.0
C2153 C 0.76321 0.98827 0.5503 0.0
C2154 C 0.74411 0.97625 0.52115 0.0
H2155 H 0.79967 0.98183 0.58046 0.0
H2156 H 0.76267 1.012 0.56588 0.0
S2157 S 0.7398 0.89772 0.46078 0.0
N2158 N 0.76687 0.89882 0.48872 0.0
N2159 N 0.72729 0.93167 0.47323 0.0
C2160 C 0.74527 0.94547 0.50152 0.0
C2161 C 0.76661 0.92768 0.51002 0.0
C2162 C 0.41394 0.45189 0.76585 0.0
C2163 C 0.40582 0.48104 0.78276 0.0
C2164 C 0.39827 0.41828 0.76537 0.0
C2165 C 0.37278 0.41092 0.78118 0.0
H2166 H 0.43304 0.45496 0.753 0.0
H2167 H 0.40635 0.39767 0.75222 0.0
S2168 S 0.34289 0.47708 0.8317 0.0
N2169 N 0.37069 0.49891 0.81762 0.0
N2170 N 0.3419 0.43724 0.81654 0.0
C2171 C 0.36465 0.43981 0.79853 0.0
C2172 C 0.3808 0.47404 0.79935 0.0
C2173 C 0.2632 0.68563 0.26022 0.0
C2174 C 0.28231 0.66363 0.25808 0.0
C2175 C 0.27236 0.71851 0.27753 0.0
C2176 C 0.30101 0.73045 0.29227 0.0
H2177 H 0.24072 0.67711 0.24952 0.0
H2178 H 0.25703 0.7348 0.27921 0.0
S2179 S 0.35861 0.68245 0.29593 0.0
N2180 N 0.33043 0.65535 0.27378 0.0
N2181 N 0.34791 0.71807 0.30601 0.0
C2182 C 0.32013 0.70874 0.29119 0.0
C2183 C 0.31073 0.67504 0.27384 0.0
C2184 C 0.54204 0.66588 0.4729 0.0
C2185 C 0.54739 0.6985 0.49298 0.0
C2186 C 0.54842 0.6375 0.48469 0.0
C2187 C 0.5606 0.63958 0.51742 0.0
H2188 H 0.53238 0.662 0.4477 0.0
H2189 H 0.54293 0.61333 0.46807 0.0
S2190 S 0.57916 0.71869 0.58063 0.0
N2191 N 0.56712 0.73067 0.54746 0.0
N2192 N 0.57651 0.67784 0.5699 0.0
C2193 C 0.56595 0.672 0.53771 0.0
C2194 C 0.56019 0.70106 0.52549 0.0
C2195 C 0.71165 0.35111 0.72802 0.0
C2196 C 0.708 0.33756 0.69383 0.0
C2197 C 0.73562 0.34825 0.74938 0.0
C2198 C 0.75725 0.33135 0.738 0.0
H2199 H 0.69583 0.3642 0.7385 0.0
H2200 H 0.73716 0.35985 0.77491 0.0
S2201 S 0.75703 0.28961 0.65059 0.0
N2202 N 0.72778 0.30549 0.65 0.0
N2203 N 0.7722 0.30026 0.68906 0.0
C2204 C 0.75356 0.31762 0.70369 0.0
C2205 C 0.72925 0.32059 0.68207 0.0
C2206 C 0.04691 0.40724 0.03197 0.0
C2207 C 0.05013 0.39382 0.99904 0.0
C2208 C 0.05366 0.44242 0.04489 0.0
C2209 C 0.06279 0.46617 0.02528 0.0
H2210 H 0.04009 0.39041 0.0483 0.0
H2211 H 0.05251 0.45107 0.0708 0.0
S2212 S 0.07515 0.44511 0.9378 0.0
N2213 N 0.06377 0.40822 0.94739 0.0
N2214 N 0.07511 0.47325 0.97132 0.0
C2215 C 0.0654 0.45313 0.99227 0.0
C2216 C 0.05929 0.41748 0.97928 0.0
C2217 C 0.03009 0.81484 0.16492 0.0
C2218 C 0.05749 0.8323 0.18149 0.0
C2219 C 1.0064 0.80598 0.18234 0.0
C2220 C 1.00944 0.8143 0.21683 0.0
H2221 H 0.02723 0.80656 0.13844 0.0
H2222 H 0.98615 0.79088 0.16894 0.0
S2223 S 0.07519 0.86277 0.27175 0.0
N2224 N 0.08525 0.85997 0.23441 0.0
N2225 N 0.04071 0.84309 0.2668 0.0
C2226 C 0.03603 0.83343 0.23351 0.0
C2227 C 0.06009 0.84253 0.21592 0.0
C2228 C 0.5622 0.35892 0.13586 0.0
C2229 C 0.53334 0.3404 0.12818 0.0
C2230 C 0.57795 0.36971 0.11136 0.0
C2231 C 0.56537 0.36209 0.07858 0.0
H2232 H 0.57321 0.3637 0.16058 0.0
H2233 H 0.6001 0.38403 0.11801 0.0
S2234 S 0.48961 0.31913 0.04638 0.0
N2235 N 0.49196 0.31828 0.08597 0.0
N2236 N 0.52198 0.33883 0.03994 0.0
C2237 C 0.5362 0.34555 0.07082 0.0
C2238 C 0.52003 0.33469 0.09569 0.0
C2239 C 0.0585 0.34132 0.33165 0.0
C2240 C 0.08285 0.36682 0.34516 0.0
C2241 C 0.03361 0.34903 0.31769 0.0
C2242 C 0.0323 0.3825 0.31727 0.0
H2243 H 0.05879 0.31528 0.33149 0.0
H2244 H 1.01544 0.32862 0.30674 0.0
S2245 S 0.08862 0.45845 0.3545 0.0
N2246 N 0.10327 0.42687 0.3605 0.0
N2247 N 0.05603 0.44129 0.33456 0.0
C2248 C 0.05604 0.40823 0.33199 0.0
C2249 C 0.08147 0.40041 0.34594 0.0
C2250 C 0.01712 0.67703 0.58768 0.0
C2251 C 0.01877 0.68202 0.62196 0.0
C2252 C 0.03083 0.65399 0.57025 0.0
C2253 C 0.04727 0.63578 0.58651 0.0
H2254 H 1.00557 0.69143 0.57428 0.0
H2255 H 0.02798 0.65025 0.54392 0.0
S2256 S 0.05646 0.63864 0.67653 0.0
N2257 N 0.03634 0.66593 0.67183 0.0
N2258 N 0.06278 0.62305 0.63919 0.0
C2259 C 0.04832 0.63999 0.62095 0.0
C2260 C 0.03382 0.66295 0.63862 0.0
C2261 C 0.74548 0.84541 0.85698 0.0
C2262 C 0.71675 0.83453 0.84225 0.0
C2263 C 0.76836 0.84169 0.83866 0.0
C2264 C 0.76344 0.82727 0.80499 0.0
H2265 H 0.75039 0.85686 0.88287 0.0
H2266 H 0.79009 0.85035 0.8511 0.0
S2267 S 0.69208 0.79644 0.75439 0.0
N2268 N 0.68419 0.80889 0.79197 0.0
N2269 N 0.72792 0.804 0.75699 0.0
C2270 C 0.73487 0.81702 0.78963 0.0
C2271 C 0.7113 0.81992 0.80852 0.0
C2272 C 0.49384 0.57474 0.66246 0.0
C2273 C 0.50855 0.5812 0.69515 0.0
C2274 C 0.5083 0.57245 0.63261 0.0
C2275 C 0.53907 0.57616 0.63199 0.0
H2276 H 0.47044 0.57141 0.65966 0.0
H2277 H 0.49478 0.56762 0.60935 0.0
S2278 S 0.58865 0.58909 0.71002 0.0
N2279 N 0.5568 0.58944 0.72358 0.0
N2280 N 0.5827 0.58301 0.66957 0.0
C2281 C 0.55383 0.5815 0.6646 0.0
C2282 C 0.53918 0.58452 0.69502 0.0
C2283 C 0.7824 0.1796 0.94843 0.0
C2284 C 0.80273 0.19316 0.97639 0.0
C2285 C 0.76883 0.20036 0.93299 0.0
C2286 C 0.77571 0.23495 0.945 0.0
H2287 H 0.77514 0.15272 0.94016 0.0
H2288 H 0.75206 0.18931 0.91254 0.0
S2289 S 0.83108 0.28345 1.0132 0.0
N2290 N 0.83201 0.24384 1.01253 0.0
N2291 N 0.80643 0.28279 0.98268 0.0
C2292 C 0.79808 0.24922 0.97054 0.0
C2293 C 0.81188 0.22823 0.98638 0.0
C2294 C 0.15445 0.57729 0.17647 0.0
C2295 C 0.16293 0.54676 0.17503 0.0
C2296 C 0.12894 0.57847 0.15866 0.0
C2297 C 0.11213 0.54924 0.13848 0.0
H2298 H 0.16815 0.60048 0.19045 0.0
H2299 H 0.12425 0.60276 0.1575 0.0
S2300 S 0.12352 0.46293 0.13011 0.0
N2301 N 0.15138 0.48634 0.15601 0.0
N2302 N 0.10336 0.48881 0.12067 0.0
C2303 C 0.11889 0.51818 0.13938 0.0
C2304 C 0.14475 0.5169 0.15796 0.0
C2305 C 0.85893 0.88603 0.42867 0.0
C2306 C 0.8547 0.86157 0.44823 0.0
C2307 C 0.85474 0.87746 0.39432 0.0
C2308 C 0.84672 0.84394 0.37734 0.0
H2309 H 0.86486 0.91244 0.43992 0.0
H2310 H 0.85734 0.89758 0.38076 0.0
S2311 S 0.83267 0.76965 0.41618 0.0
N2312 N 0.84182 0.80175 0.44772 0.0
N2313 N 0.83436 0.7857 0.38267 0.0
C2314 C 0.84297 0.81885 0.39626 0.0
C2315 C 0.84695 0.82765 0.43173 0.0
C2316 C 0.53192 0.55521 0.88987 0.0
C2317 C 0.51331 0.57825 0.88695 0.0
C2318 C 0.54576 0.55102 0.9211 0.0
C2319 C 0.54168 0.56858 0.9528 0.0
H2320 H 0.5359 0.53978 0.86751 0.0
H2321 H 0.55959 0.53333 0.92004 0.0
S2322 S 0.49902 0.63603 0.96054 0.0
N2323 N 0.49518 0.62177 0.92046 0.0
N2324 N 0.51908 0.61355 0.97679 0.0
C2325 C 0.52407 0.59263 0.94979 0.0
C2326 C 0.5106 0.59736 0.91817 0.0
C2327 C 0.84252 0.22272 0.15362 0.0
C2328 C 0.81817 0.21944 0.13122 0.0
C2329 C 0.84754 0.24689 0.18216 0.0
C2330 C 0.82792 0.26784 0.18923 0.0
H2331 H 0.85751 0.20621 0.1493 0.0
H2332 H 0.86608 0.24779 0.19953 0.0
S2333 S 0.76119 0.26901 0.13758 0.0
N2334 N 0.77467 0.23902 0.11662 0.0
N2335 N 0.78391 0.28464 0.17149 0.0
C2336 C 0.80384 0.26533 0.1666 0.0
C2337 C 0.79898 0.24097 0.13713 0.0
C2338 C 0.17679 0.57779 0.33065 0.0
C2339 C 0.19396 0.60342 0.31867 0.0
C2340 C 0.15486 0.58457 0.34943 0.0
C2341 C 0.15001 0.61729 0.35724 0.0
H2342 H 0.17901 0.55206 0.32364 0.0
H2343 H 0.14107 0.56391 0.35716 0.0
S2344 S 0.19296 0.69365 0.33628 0.0
N2345 N 0.20713 0.66283 0.3181 0.0
N2346 N 0.16647 0.67604 0.35533 0.0
C2347 C 0.16839 0.64346 0.34725 0.0
C2348 C 0.19038 0.63639 0.32751 0.0
C2349 C 0.83447 0.82527 0.63552 0.0
C2350 C 0.83758 0.85946 0.63431 0.0
C2351 C 0.82674 0.81309 0.66396 0.0
C2352 C 0.82183 0.83445 0.69251 0.0
H2353 H 0.83878 0.8079 0.6147 0.0
H2354 H 0.82615 0.78709 0.66401 0.0
S2355 S 0.82332 0.92501 0.70074 0.0
N2356 N 0.83225 0.91378 0.66349 0.0
N2357 N 0.81798 0.89083 0.71628 0.0
C2358 C 0.82338 0.8682 0.69088 0.0
C2359 C 0.83117 0.88065 0.66208 0.0
C2360 C 0.77144 0.50671 0.54293 0.0
C2361 C 0.79723 0.52107 0.53143 0.0
C2362 C 0.75388 0.52697 0.55749 0.0
C2363 C 0.76193 0.56187 0.56098 0.0
H2364 H 0.76557 0.48001 0.5423 0.0
H2365 H 0.73474 0.51553 0.56745 0.0
S2366 S 0.82462 0.61089 0.5306 0.0
N2367 N 0.82799 0.57167 0.52096 0.0
N2368 N 0.79477 0.60969 0.54888 0.0
C2369 C 0.78634 0.57621 0.54756 0.0
C2370 C 0.80406 0.5557 0.53246 0.0
C2371 C 0.2176 0.11574 0.51009 0.0
C2372 C 0.2228 0.15106 0.51552 0.0
C2373 C 0.1895 0.09594 0.51001 0.0
C2374 C 0.16529 0.11054 0.51541 0.0
H2375 H 0.23546 0.10324 0.50645 0.0
H2376 H 0.18707 0.06912 0.50674 0.0
S2377 S 0.16755 0.20212 0.53073 0.0
N2378 N 0.20134 0.19961 0.52616 0.0
N2379 N 0.14918 0.16311 0.52588 0.0
C2380 C 0.17041 0.14587 0.52029 0.0
C2381 C 0.19887 0.16586 0.52036 0.0
C2382 C 0.27004 0.93711 0.81875 0.0
C2383 C 0.26012 0.94631 0.78908 0.0
C2384 C 0.28563 0.91037 0.82028 0.0
C2385 C 0.29438 0.89011 0.79258 0.0
H2386 H 0.26497 0.95035 0.84172 0.0
H2387 H 0.29088 0.9053 0.84437 0.0
S2388 S 0.27749 0.90409 0.70768 0.0
N2389 N 0.26265 0.9319 0.73019 0.0
N2390 N 0.29207 0.88422 0.73331 0.0
C2391 C 0.28567 0.8997 0.76256 0.0
C2392 C 0.26891 0.92657 0.76085 0.0
C2393 C 0.46499 0.98383 1.00614 0.0
C2394 C 0.44551 1.00537 1.00901 0.0
C2395 C 0.49455 0.9966 1.00629 0.0
C2396 C 0.50526 0.03115 1.00987 0.0
H2397 H 0.45768 0.95734 1.00586 0.0
H2398 H 0.50938 0.97992 1.00739 0.0
S2399 S 0.46235 0.09679 1.0123 0.0
N2400 N 0.43806 0.06164 1.00973 0.0
N2401 N 0.49407 0.08601 1.01254 0.0
C2402 C 0.48568 0.05233 1.0096 0.0
C2403 C 0.45553 0.03926 1.00846 0.0
C2404 C 0.89542 0.64048 0.81252 0.0
C2405 C 0.88977 0.6079 0.81855 0.0
C2406 C 0.87754 0.64902 0.78888 0.0
C2407 C 0.85393 0.62494 0.77072 0.0
H2408 H 0.91495 0.65853 0.82423 0.0
H2409 H 0.88322 0.67383 0.78335 0.0
S2410 S 0.82839 0.53759 0.77932 0.0
N2411 N 0.85771 0.55226 0.80621 0.0
N2412 N 0.82374 0.56911 0.76214 0.0
C2413 C 0.84671 0.59328 0.77826 0.0
C2414 C 0.86474 0.58453 0.80233 0.0
C2415 C 0.89636 0.68671 0.06548 0.0
C2416 C 0.87546 0.67086 0.03846 0.0
C2417 C 0.91672 0.66998 0.07691 0.0
C2418 C 0.91713 0.63728 0.06118 0.0
H2419 H 0.89596 0.71143 0.07905 0.0
H2420 H 0.93161 0.68222 0.09876 0.0
S2421 S 0.87014 0.58666 0.98673 0.0
N2422 N 0.85832 0.62178 0.99441 0.0
N2423 N 0.89738 0.59085 1.01553 0.0
C2424 C 0.89791 0.62208 0.03278 0.0
C2425 C 0.87681 0.63879 0.02147 0.0
C2426 C 0.25314 0.1644 0.8135 0.0
C2427 C 0.26134 0.13559 0.79604 0.0
C2428 C 0.26858 0.19809 0.81432 0.0
C2429 C 0.29365 0.20574 0.79798 0.0
H2430 H 0.23429 0.16097 0.82674 0.0
H2431 H 0.26066 0.2185 0.82809 0.0
S2432 S 0.32291 0.1406 0.74514 0.0
N2433 N 0.29581 0.11832 0.75988 0.0
N2434 N 0.32387 0.18026 0.76101 0.0
C2435 C 0.30172 0.17722 0.77986 0.0
C2436 C 0.286 0.14289 0.77902 0.0
C2437 C 0.40555 0.93531 0.33974 0.0
C2438 C 0.39504 0.96449 0.33982 0.0
C2439 C 0.38737 0.90411 0.32784 0.0
C2440 C 0.35837 0.90148 0.31572 0.0
H2441 H 0.42825 0.93668 0.34737 0.0
H2442 H 0.39629 0.88196 0.32713 0.0
S2443 S 0.32043 0.97016 0.31085 0.0
N2444 N 0.35369 0.98903 0.3279 0.0
N2445 N 0.31973 0.92959 0.30404 0.0
C2446 C 0.34739 0.93022 0.3161 0.0
C2447 C 0.36567 0.96207 0.32901 0.0
C2448 C 0.60035 0.42281 0.56299 0.0
C2449 C 0.61947 0.42255 0.59109 0.0
C2450 C 0.59578 0.45338 0.55366 0.0
C2451 C 0.60847 0.48571 0.57299 0.0
H2452 H 0.58922 0.39913 0.54751 0.0
H2453 H 0.58316 0.4514 0.53049 0.0
S2454 S 0.66306 0.49934 0.64719 0.0
N2455 N 0.65357 0.45828 0.63571 0.0
N2456 N 0.64343 0.51379 0.62112 0.0
C2457 C 0.6279 0.48516 0.60095 0.0
C2458 C 0.63351 0.45449 0.60933 0.0
C2459 C 0.44968 0.79516 0.36865 0.0
C2460 C 0.44947 0.78572 0.39958 0.0
C2461 C 0.42433 0.79991 0.35119 0.0
C2462 C 0.39672 0.79473 0.36286 0.0
H2463 H 0.46992 0.79987 0.358 0.0
H2464 H 0.42692 0.80902 0.32879 0.0
S2465 S 0.38364 0.76951 0.44243 0.0
N2466 N 0.41876 0.77173 0.44126 0.0
N2467 N 0.37141 0.77949 0.4082 0.0
C2468 C 0.39619 0.78523 0.39378 0.0
C2469 C 0.42222 0.7809 0.41194 0.0
C2470 C 0.11137 0.70943 0.12212 0.0
C2471 C 0.11601 0.72792 0.09699 0.0
C2472 C 0.10454 0.67405 0.11581 0.0
C2473 C 0.10137 0.65428 0.08383 0.0
H2474 H 0.1127 0.72249 0.14738 0.0
H2475 H 0.10089 0.66194 0.13653 0.0
S2476 S 0.11005 0.68927 1.00819 0.0
N2477 N 0.11717 0.72299 0.03805 0.0
N2478 N 0.10249 0.65661 0.02601 0.0
C2479 C 0.10594 0.67215 0.05809 0.0
C2480 C 0.11372 0.70869 0.0647 0.0
C2481 C 0.10387 0.28902 0.87046 0.0
C2482 C 0.10739 0.29286 0.90491 0.0
C2483 C 0.12788 0.29503 0.85283 0.0
C2484 C 0.15651 0.30492 0.86876 0.0
H2485 H 0.08233 0.28281 0.85705 0.0
H2486 H 0.12393 0.29372 0.8266 0.0
S2487 S 0.17798 0.31358 0.95787 0.0
N2488 N 0.14213 0.30354 0.95387 0.0
N2489 N 0.18718 0.31488 0.92055 0.0
C2490 C 0.16054 0.30645 0.90282 0.0
C2491 C 0.13601 0.3005 0.92092 0.0
C2492 C 0.59921 0.77358 0.9559 0.0
C2493 C 0.62885 0.77927 0.95159 0.0
C2494 C 0.58929 0.75962 0.98199 0.0
C2495 C 0.6087 0.75067 1.00406 0.0
H2496 H 0.58379 0.78134 0.93997 0.0
H2497 H 0.56635 0.75566 0.98489 0.0
S2498 S 0.68738 0.75564 1.00004 0.0
N2499 N 0.67696 0.7724 0.96935 0.0
N2500 N 0.65792 0.74431 0.01781 0.0
C2501 C 0.63799 0.75413 0.99872 0.0
C2502 C 0.64821 0.76903 0.97258 0.0
C2503 C 0.11552 0.78683 0.7235 0.0
C2504 C 0.08958 0.76383 0.7244 0.0
C2505 C 0.14168 0.784 0.73962 0.0
C2506 C 0.14252 0.75771 0.75646 0.0
H2507 H 0.11542 0.80779 0.71141 0.0
H2508 H 0.16099 0.8032 0.74001 0.0
S2509 S 0.08145 0.68738 0.75988 0.0
N2510 N 0.06681 0.71192 0.73986 0.0
N2511 N 0.11626 0.70544 0.76834 0.0
C2512 C 0.11712 0.73306 0.75495 0.0
C2513 C 0.09051 0.73643 0.73939 0.0
C2514 C 0.14363 0.46167 0.44907 0.0
C2515 C 0.13573 0.4297 0.4566 0.0
C2516 C 0.12919 0.48682 0.46064 0.0
C2517 C 0.10685 0.48082 0.48052 0.0
H2518 H 0.16091 0.46727 0.43396 0.0
H2519 H 0.1364 0.51143 0.4551 0.0
S2520 S 0.07453 0.40031 0.50263 0.0
N2521 N 0.10177 0.39257 0.48218 0.0
N2522 N 0.07462 0.44013 0.50348 0.0
C2523 C 0.09761 0.44867 0.48668 0.0
C2524 C 0.11227 0.42308 0.47509 0.0
C2525 C 0.43988 0.28321 0.25881 0.0
C2526 C 0.44143 0.26353 0.22799 0.0
C2527 C 0.41288 0.28385 0.27041 0.0
C2528 C 0.3872 0.26744 0.25006 0.0
H2529 H 0.45931 0.29913 0.27329 0.0
H2530 H 0.412 0.29892 0.29412 0.0
S2531 S 0.38094 0.20107 0.17505 0.0
N2532 N 0.41593 0.21795 0.18357 0.0
N2533 N 0.36549 0.22158 0.20386 0.0
C2534 C 0.38898 0.24342 0.2221 0.0
C2535 C 0.41617 0.24139 0.21115 0.0
C2536 C 0.63026 0.52212 0.38555 0.0
C2537 C 0.65901 0.54003 0.38281 0.0
C2538 C 0.61609 0.52523 0.41575 0.0
C2539 C 0.62906 0.5465 0.44674 0.0
H2540 H 0.6182 0.50515 0.36381 0.0
H2541 H 0.59442 0.51028 0.4145 0.0
S2542 S 0.70377 0.60058 0.45496 0.0
N2543 N 0.69914 0.5811 0.41605 0.0
N2544 N 0.67372 0.58659 0.47051 0.0
C2545 C 0.65774 0.56461 0.44417 0.0
C2546 C 0.67208 0.56155 0.41347 0.0
C2547 C 0.36921 0.93094 0.12778 0.0
C2548 C 0.3679 0.91508 0.0948 0.0
C2549 C 0.38177 0.91827 0.15262 0.0
C2550 C 0.39361 0.88992 0.14474 0.0
H2551 H 0.36161 0.95395 0.13422 0.0
H2552 H 0.38301 0.93114 0.17795 0.0
S2553 S 0.39179 0.83691 0.06284 0.0
N2554 N 0.37648 0.86771 0.05577 0.0
N2555 N 0.40031 0.84397 0.10308 0.0
C2556 C 0.39061 0.87254 0.11226 0.0
C2557 C 0.37753 0.88511 0.08698 0.0
C2558 C 0.0365 0.55838 0.90444 0.0
C2559 C 1.01488 0.57723 0.9062 0.0
C2560 C 0.05411 0.5582 0.93258 0.0
C2561 C 0.05046 0.57711 0.96269 0.0
H2562 H 0.03853 0.54195 0.88174 0.0
H2563 H 0.06869 0.5411 0.9312 0.0
S2564 S 0.99967 0.63363 0.97958 0.0
N2565 N 0.99251 0.61734 0.93989 0.0
N2566 N 0.0267 0.61794 0.99273 0.0
C2567 C 0.03087 0.59837 0.96428 0.0
C2568 C 1.01268 0.5982 0.9359 0.0
C2569 C 0.31397 0.22859 0.64841 0.0
C2570 C 0.31184 0.25188 0.62816 0.0
C2571 C 0.31747 0.23774 0.6828 0.0
C2572 C 0.31946 0.27093 0.69964 0.0
H2573 H 0.31338 0.20267 0.63766 0.0
H2574 H 0.31938 0.21832 0.6965 0.0
S2575 S 0.31445 0.34233 0.65894 0.0
N2576 N 0.31082 0.31015 0.62787 0.0
N2577 N 0.31881 0.32766 0.69291 0.0
C2578 C 0.31704 0.29483 0.67999 0.0
C2579 C 0.31292 0.28526 0.64435 0.0
C2580 C 0.67058 0.53602 0.15949 0.0
C2581 C 0.65667 0.53896 0.18879 0.0
C2582 C 0.65762 0.53894 0.12772 0.0
C2583 C 0.62916 0.54508 0.12117 0.0
H2584 H 0.69227 0.53128 0.16092 0.0
H2585 H 0.6706 0.5361 0.1075 0.0
S2586 S 0.58167 0.55533 0.18838 0.0
N2587 N 0.61136 0.54929 0.20784 0.0
N2588 N 0.5874 0.55355 0.14947 0.0
C2589 C 0.61471 0.54806 0.15024 0.0
C2590 C 0.62814 0.54538 0.18304 0.0
C2591 C 0.32698 0.88422 0.91907 0.0
C2592 C 0.35324 0.90264 0.93605 0.0
C2593 C 0.32685 0.86006 0.89158 0.0
C2594 C 0.35259 0.8517 0.88182 0.0
H2595 H 0.30657 0.88979 0.92601 0.0
H2596 H 0.30671 0.85067 0.87644 0.0
S2597 S 0.42734 0.89579 0.91748 0.0
N2598 N 0.40606 0.91414 0.94091 0.0
N2599 N 0.4054 0.86627 0.8894 0.0
C2600 C 0.37921 0.87048 0.8986 0.0
C2601 C 0.37956 0.89636 0.926 0.0
C2602 C 1.00218 0.5639 0.73416 0.0
C2603 C 0.97433 0.5468 0.73845 0.0
C2604 C 0.01661 0.55119 0.70827 0.0
C2605 C 1.00336 0.52123 0.68619 0.0
H2606 H 1.01392 0.58538 0.75242 0.0
H2607 H 0.03907 0.563 0.70748 0.0
S2608 S 0.92873 0.47216 0.68224 0.0
N2609 N 0.93238 0.50205 0.71518 0.0
N2610 N 0.95949 0.47889 0.66603 0.0
C2611 C 0.97429 0.5068 0.68762 0.0
C2612 C 0.95971 0.5194 0.714 0.0
C2613 C 0.30858 0.22682 0.40564 0.0
C2614 C 0.3206 0.24748 0.43635 0.0
C2615 C 0.31402 0.23693 0.37562 0.0
C2616 C 0.33218 0.26815 0.37442 0.0
H2617 H 0.29444 0.20262 0.40469 0.0
H2618 H 0.30338 0.22004 0.35311 0.0
S2619 S 0.37112 0.33031 0.44842 0.0
N2620 N 0.35249 0.29995 0.46379 0.0
N2621 N 0.36356 0.31815 0.40822 0.0
C2622 C 0.34501 0.28832 0.40524 0.0
C2623 C 0.33903 0.2783 0.43582 0.0
C2624 C 0.40251 0.62093 0.55368 0.0
C2625 C 0.37488 0.60126 0.55531 0.0
C2626 C 0.42345 0.60666 0.5381 0.0
C2627 C 0.41733 0.57241 0.52408 0.0
H2628 H 0.40711 0.64795 0.56168 0.0
H2629 H 0.44336 0.62292 0.53433 0.0
S2630 S 0.3511 0.50919 0.52786 0.0
N2631 N 0.34449 0.54511 0.54634 0.0
N2632 N 0.38421 0.51831 0.51711 0.0
C2633 C 0.39132 0.55193 0.52893 0.0
C2634 C 0.36995 0.5664 0.5447 0.0
C2635 C 0.97081 0.9472 0.5586 0.0
C2636 C 0.94588 0.96096 0.56037 0.0
C2637 C 0.9986 0.96714 0.55737 0.0
C2638 C 1.00302 1.00193 0.55795 0.0
H2639 H 0.96883 0.92063 0.55769 0.0
H2640 H 0.0168 0.95498 0.55565 0.0
S2641 S 0.94445 0.04991 0.55972 0.0
N2642 N 0.92748 1.01165 0.56148 0.0
N2643 N 0.97886 0.04827 0.55805 0.0
C2644 C 0.97809 1.01578 0.55931 0.0
C2645 C 0.94988 0.9956 0.5608 0.0
C2646 C 0.88554 0.17221 0.29517 0.0
C2647 C 0.91564 0.1725 0.29116 0.0
C2648 C 0.87182 0.20111 0.29498 0.0
C2649 C 0.88609 0.2332 0.28948 0.0
H2650 H 0.87218 0.14931 0.29932 0.0
H2651 H 0.84989 0.19811 0.30008 0.0
S2652 S 0.96589 0.24899 0.27809 0.0
N2653 N 0.95908 0.20977 0.28265 0.0
N2654 N 0.93486 0.26099 0.28064 0.0
C2655 C 0.91643 0.23318 0.28557 0.0
C2656 C 0.9304 0.20434 0.28667 0.0
C2657 C 0.70059 0.14363 0.06126 0.0
C2658 C 0.71428 0.11647 0.0548 0.0
C2659 C 0.6704 0.13868 0.05539 0.0
C2660 C 0.65318 0.10638 0.04386 0.0
H2661 H 0.71335 0.16898 0.06943 0.0
H2662 H 0.6605 0.1602 0.05956 0.0
S2663 S 0.67961 0.02722 0.02513 0.0
N2664 N 0.70928 0.05673 0.03755 0.0
N2665 N 0.65257 0.04688 0.02691 0.0
C2666 C 0.66694 0.07905 0.03825 0.0
C2667 C 0.69757 0.08424 0.04378 0.0
C2668 C 0.29961 0.49917 0.24395 0.0
C2669 C 0.26915 0.4907 0.23945 0.0
C2670 C 0.31472 0.48638 0.26683 0.0
C2671 C 0.29951 0.46452 0.28462 0.0
H2672 H 0.31148 0.51923 0.23365 0.0
H2673 H 0.33795 0.4959 0.27278 0.0
S2674 S 0.22097 0.4267 0.27352 0.0
N2675 N 0.22504 0.45327 0.24829 0.0
N2676 N 0.25395 0.42869 0.2911 0.0
C2677 C 0.26979 0.45151 0.27618 0.0
C2678 C 0.25439 0.46452 0.25306 0.0
C2679 C 0.28643 0.47561 0.06192 0.0
C2680 C 0.28605 0.44338 0.04387 0.0
C2681 C 0.26471 0.49256 0.05489 0.0
C2682 C 0.2421 0.4778 0.02957 0.0
H2683 H 0.30427 0.48842 0.08066 0.0
H2684 H 0.26652 0.51806 0.068 0.0
S2685 S 0.22918 0.39305 0.97744 0.0
N2686 N 0.25947 0.39635 1.00148 0.0
N2687 N 0.2188 0.42871 0.98835 0.0
C2688 C 0.24028 0.44495 1.01284 0.0
C2689 C 0.26225 0.42754 0.02002 0.0
C2690 C 0.88034 0.9728 0.29168 0.0
C2691 C 0.90847 0.97965 0.28102 0.0
C2692 C 0.86393 0.9393 0.29061 0.0
C2693 C 0.87447 0.90999 0.27912 0.0
H2694 H 0.87083 0.99366 0.30129 0.0
H2695 H 0.84293 0.93649 0.29973 0.0
S2696 S 0.94656 0.91277 0.24778 0.0
N2697 N 0.94544 0.95272 0.25801 0.0
N2698 N 0.91565 0.89151 0.25635 0.0
C2699 C 0.90252 0.91664 0.26837 0.0
C2700 C 0.91904 0.95058 0.2692 0.0
C2701 C 0.76384 0.18532 0.77106 0.0
C2702 C 0.7838 0.16513 0.763 0.0
C2703 C 0.77333 0.218 0.78869 0.0
C2704 C 0.80301 0.23153 0.79763 0.0
H2705 H 0.7407 0.17558 0.76433 0.0
H2706 H 0.75751 0.23319 0.79434 0.0
S2707 S 0.86319 0.18737 0.78619 0.0
N2708 N 0.83384 0.15935 0.76807 0.0
N2709 N 0.85196 0.22176 0.80085 0.0
C2710 C 0.82304 0.21124 0.79118 0.0
C2711 C 0.81332 0.1777 0.77363 0.0
loop_
_geom_bond_atom_site_label_1
_geom_bond_atom_site_label_2
_geom_bond_distance
_geom_bond_site_symmetry_2
_ccdc_geom_bond_type
In0 O1 2.294 . S
In0 O2 2.326 . S
In0 O6 2.266 . S
In0 O7 2.326 . S
In0 O8 2.266 . S
In0 O9 2.326 . S
In0 O11 2.294 . S
In0 O12 2.326 . S
O1 In0 2.294 . S
O1 C10 1.240 . S
O2 In0 2.326 . S
O2 C10 1.252 . S
C3 O6 1.252 . S
C3 O7 1.260 . S
C4 O11 1.240 . S
C4 O12 1.252 . S
C5 O8 1.252 . S
C5 O9 1.260 . S
O6 In0 2.266 . S
O6 C3 1.252 . S
O7 In0 2.326 . S
O7 C3 1.260 . S
O8 In0 2.266 . S
O8 C5 1.252 . S
O9 In0 2.326 . S
O9 C5 1.260 . S
C10 O1 1.240 . S
C10 O2 1.252 . S
O11 In0 2.294 . S
O11 C4 1.240 . S
O12 In0 2.326 . S
O12 C4 1.252 . S
In13 O14 2.294 . S
In13 O15 2.326 . S
In13 O19 2.266 1_455 S
In13 O20 2.326 1_455 S
In13 O21 2.264 1_455 S
In13 O22 2.322 1_455 S
In13 O24 2.296 . S
In13 O25 2.330 . S
O14 In13 2.294 . S
O14 C23 1.240 . S
O15 In13 2.326 . S
O15 C23 1.252 . S
C16 O19 1.252 . S
C16 O20 1.260 . S
C17 O24 1.240 . S
C17 O25 1.252 . S
C18 O21 1.252 . S
C18 O22 1.260 . S
O19 In13 2.266 1_655 S
O19 C16 1.252 . S
O20 In13 2.326 1_655 S
O20 C16 1.260 . S
O21 In13 2.264 1_655 S
O21 C18 1.252 . S
O22 In13 2.322 1_655 S
O22 C18 1.260 . S
C23 O14 1.240 . S
C23 O15 1.252 . S
O24 In13 2.296 . S
O24 C17 1.240 . S
O25 In13 2.330 . S
O25 C17 1.252 . S
In26 O27 2.294 . S
In26 O28 2.326 . S
In26 O32 2.266 . S
In26 O33 2.326 . S
In26 O34 2.266 . S
In26 O35 2.326 . S
In26 O37 2.294 . S
In26 O38 2.326 . S
O27 In26 2.294 . S
O27 C36 1.240 . S
O28 In26 2.326 . S
O28 C36 1.252 . S
C29 O32 1.252 . S
C29 O33 1.260 . S
C30 O37 1.240 . S
C30 O38 1.252 . S
C31 O34 1.252 . S
C31 O35 1.260 . S
O32 In26 2.266 . S
O32 C29 1.252 . S
O33 In26 2.326 . S
O33 C29 1.260 . S
O34 In26 2.266 . S
O34 C31 1.252 . S
O35 In26 2.326 . S
O35 C31 1.260 . S
C36 O27 1.240 . S
C36 O28 1.252 . S
O37 In26 2.294 . S
O37 C30 1.240 . S
O38 In26 2.326 . S
O38 C30 1.252 . S
In39 O40 2.294 . S
In39 O41 2.326 . S
In39 O45 2.266 . S
In39 O46 2.326 . S
In39 O47 2.266 . S
In39 O48 2.326 . S
In39 O50 2.294 . S
In39 O51 2.326 . S
O40 In39 2.294 . S
O40 C49 1.240 . S
O41 In39 2.326 . S
O41 C49 1.252 . S
C42 O45 1.252 . S
C42 O46 1.260 . S
C43 O50 1.240 . S
C43 O51 1.252 . S
C44 O47 1.252 . S
C44 O48 1.260 . S
O45 In39 2.266 . S
O45 C42 1.252 . S
O46 In39 2.326 . S
O46 C42 1.260 . S
O47 In39 2.266 . S
O47 C44 1.252 . S
O48 In39 2.326 . S
O48 C44 1.260 . S
C49 O40 1.240 . S
C49 O41 1.252 . S
O50 In39 2.294 . S
O50 C43 1.240 . S
O51 In39 2.326 . S
O51 C43 1.252 . S
In52 O53 2.294 . S
In52 O54 2.326 . S
In52 O58 2.266 . S
In52 O59 2.326 . S
In52 O60 2.266 . S
In52 O61 2.326 . S
In52 O63 2.294 . S
In52 O64 2.326 . S
O53 In52 2.294 . S
O53 C62 1.240 . S
O54 In52 2.326 . S
O54 C62 1.252 . S
C55 O58 1.252 . S
C55 O59 1.260 . S
C56 O63 1.240 . S
C56 O64 1.252 . S
C57 O60 1.252 . S
C57 O61 1.260 . S
O58 In52 2.266 . S
O58 C55 1.252 . S
O59 In52 2.326 . S
O59 C55 1.260 . S
O60 In52 2.266 . S
O60 C57 1.252 . S
O61 In52 2.326 . S
O61 C57 1.260 . S
C62 O53 1.240 . S
C62 O54 1.252 . S
O63 In52 2.294 . S
O63 C56 1.240 . S
O64 In52 2.326 . S
O64 C56 1.252 . S
In65 O66 2.294 . S
In65 O67 2.326 . S
In65 O71 2.266 . S
In65 O72 2.326 . S
In65 O73 2.266 . S
In65 O74 2.326 . S
In65 O76 2.294 . S
In65 O77 2.326 . S
O66 In65 2.294 . S
O66 C75 1.240 . S
O67 In65 2.326 . S
O67 C75 1.252 . S
C68 O71 1.252 . S
C68 O72 1.260 . S
C69 O76 1.240 . S
C69 O77 1.252 . S
C70 O73 1.252 . S
C70 O74 1.260 . S
O71 In65 2.266 . S
O71 C68 1.252 . S
O72 In65 2.326 . S
O72 C68 1.260 . S
O73 In65 2.266 . S
O73 C70 1.252 . S
O74 In65 2.326 . S
O74 C70 1.260 . S
C75 O66 1.240 . S
C75 O67 1.252 . S
O76 In65 2.294 . S
O76 C69 1.240 . S
O77 In65 2.326 . S
O77 C69 1.252 . S
In78 O79 2.294 . S
In78 O80 2.326 . S
In78 O84 2.266 . S
In78 O85 2.326 . S
In78 O86 2.266 . S
In78 O87 2.326 . S
In78 O89 2.294 . S
In78 O90 2.326 . S
O79 In78 2.294 . S
O79 C88 1.240 . S
O80 In78 2.326 . S
O80 C88 1.252 . S
C81 O84 1.252 . S
C81 O85 1.260 . S
C82 O89 1.240 . S
C82 O90 1.252 . S
C83 O86 1.252 . S
C83 O87 1.260 . S
O84 In78 2.266 . S
O84 C81 1.252 . S
O85 In78 2.326 . S
O85 C81 1.260 . S
O86 In78 2.266 . S
O86 C83 1.252 . S
O87 In78 2.326 . S
O87 C83 1.260 . S
C88 O79 1.240 . S
C88 O80 1.252 . S
O89 In78 2.294 . S
O89 C82 1.240 . S
O90 In78 2.326 . S
O90 C82 1.252 . S
In91 O92 2.294 . S
In91 O93 2.326 . S
In91 O97 2.266 . S
In91 O98 2.326 . S
In91 O99 2.266 1_455 S
In91 O100 2.326 1_455 S
In91 O102 2.294 . S
In91 O103 2.326 . S
O92 In91 2.294 . S
O92 C101 1.240 . S
O93 In91 2.326 . S
O93 C101 1.252 . S
C94 O97 1.252 . S
C94 O98 1.260 . S
C95 O102 1.240 . S
C95 O103 1.252 . S
C96 O99 1.252 . S
C96 O100 1.260 . S
O97 In91 2.266 . S
O97 C94 1.252 . S
O98 In91 2.326 . S
O98 C94 1.260 . S
O99 In91 2.266 1_655 S
O99 C96 1.252 . S
O100 In91 2.326 1_655 S
O100 C96 1.260 . S
C101 O92 1.240 . S
C101 O93 1.252 . S
O102 In91 2.294 . S
O102 C95 1.240 . S
O103 In91 2.326 . S
O103 C95 1.252 . S
In104 O105 2.294 . S
In104 O106 2.326 1_545 S
In104 O110 2.266 . S
In104 O111 2.326 . S
In104 O112 2.266 1_545 S
In104 O113 2.326 1_545 S
In104 O115 2.294 . S
In104 O116 2.326 . S
O105 In104 2.294 . S
O105 C114 1.240 . S
O106 In104 2.326 1_565 S
O106 C114 1.252 1_565 S
C107 O110 1.252 . S
C107 O111 1.260 . S
C108 O115 1.240 . S
C108 O116 1.252 . S
C109 O112 1.252 . S
C109 O113 1.260 . S
O110 In104 2.266 . S
O110 C107 1.252 . S
O111 In104 2.326 . S
O111 C107 1.260 . S
O112 In104 2.266 1_565 S
O112 C109 1.252 . S
O113 In104 2.326 1_565 S
O113 C109 1.260 . S
C114 O105 1.240 . S
C114 O106 1.252 1_545 S
O115 In104 2.294 . S
O115 C108 1.240 . S
O116 In104 2.326 . S
O116 C108 1.252 . S
In117 O118 2.294 . S
In117 O119 2.326 . S
In117 O123 2.266 . S
In117 O124 2.326 . S
In117 O125 2.266 . S
In117 O126 2.326 . S
In117 O128 2.294 . S
In117 O129 2.326 . S
O118 In117 2.294 . S
O118 C127 1.240 . S
O119 In117 2.326 . S
O119 C127 1.252 . S
C120 O123 1.252 . S
C120 O124 1.260 . S
C121 O128 1.240 . S
C121 O129 1.252 . S
C122 O125 1.252 . S
C122 O126 1.260 . S
O123 In117 2.266 . S
O123 C120 1.252 . S
O124 In117 2.326 . S
O124 C120 1.260 . S
O125 In117 2.266 . S
O125 C122 1.252 . S
O126 In117 2.326 . S
O126 C122 1.260 . S
C127 O118 1.240 . S
C127 O119 1.252 . S
O128 In117 2.294 . S
O128 C121 1.240 . S
O129 In117 2.326 . S
O129 C121 1.252 . S
In130 O131 2.294 1_545 S
In130 O132 2.326 1_545 S
In130 O136 2.266 . S
In130 O137 2.326 . S
In130 O138 2.266 . S
In130 O139 2.326 . S
In130 O141 2.294 1_545 S
In130 O142 2.326 1_545 S
O131 In130 2.294 1_565 S
O131 C140 1.240 . S
O132 In130 2.326 1_565 S
O132 C140 1.252 . S
C133 O136 1.252 . S
C133 O137 1.260 . S
C134 O141 1.240 . S
C134 O142 1.252 . S
C135 O138 1.252 . S
C135 O139 1.260 . S
O136 In130 2.266 . S
O136 C133 1.252 . S
O137 In130 2.326 . S
O137 C133 1.260 . S
O138 In130 2.266 . S
O138 C135 1.252 . S
O139 In130 2.326 . S
O139 C135 1.260 . S
C140 O131 1.240 . S
C140 O132 1.252 . S
O141 In130 2.294 1_565 S
O141 C134 1.240 . S
O142 In130 2.326 1_565 S
O142 C134 1.252 . S
In143 O144 2.294 . S
In143 O145 2.326 . S
In143 O149 2.266 1_554 S
In143 O150 2.326 1_554 S
In143 O151 2.266 . S
In143 O152 2.326 . S
In143 O154 2.294 . S
In143 O155 2.326 . S
O144 In143 2.294 . S
O144 C153 1.240 . S
O145 In143 2.326 . S
O145 C153 1.252 . S
C146 O149 1.252 . S
C146 O150 1.260 . S
C147 O154 1.240 . S
C147 O155 1.252 . S
C148 O151 1.252 . S
C148 O152 1.260 . S
O149 In143 2.266 1_556 S
O149 C146 1.252 . S
O150 In143 2.326 1_556 S
O150 C146 1.260 . S
O151 In143 2.266 . S
O151 C148 1.252 . S
O152 In143 2.326 . S
O152 C148 1.260 . S
C153 O144 1.240 . S
C153 O145 1.252 . S
O154 In143 2.294 . S
O154 C147 1.240 . S
O155 In143 2.326 . S
O155 C147 1.252 . S
In156 O157 2.294 . S
In156 O158 2.326 . S
In156 O162 2.266 1_554 S
In156 O163 2.326 1_554 S
In156 O164 2.266 . S
In156 O165 2.326 . S
In156 O167 2.294 . S
In156 O168 2.326 . S
O157 In156 2.294 . S
O157 C166 1.240 . S
O158 In156 2.326 . S
O158 C166 1.252 . S
C159 O162 1.252 . S
C159 O163 1.260 . S
C160 O167 1.240 . S
C160 O168 1.252 . S
C161 O164 1.252 . S
C161 O165 1.260 . S
O162 In156 2.266 1_556 S
O162 C159 1.252 . S
O163 In156 2.326 1_556 S
O163 C159 1.260 . S
O164 In156 2.266 . S
O164 C161 1.252 . S
O165 In156 2.326 . S
O165 C161 1.260 . S
C166 O157 1.240 . S
C166 O158 1.252 . S
O167 In156 2.294 . S
O167 C160 1.240 . S
O168 In156 2.326 . S
O168 C160 1.252 . S
In169 O170 2.294 . S
In169 O171 2.326 . S
In169 O175 2.266 . S
In169 O176 2.326 . S
In169 O177 2.266 . S
In169 O178 2.326 1_554 S
In169 O180 2.294 . S
In169 O181 2.326 . S
O170 In169 2.294 . S
O170 C179 1.240 . S
O171 In169 2.326 . S
O171 C179 1.252 . S
C172 O175 1.252 . S
C172 O176 1.260 . S
C173 O180 1.240 . S
C173 O181 1.252 . S
C174 O177 1.252 1_556 S
C174 O178 1.260 . S
O175 In169 2.266 . S
O175 C172 1.252 . S
O176 In169 2.326 . S
O176 C172 1.260 . S
O177 In169 2.266 . S
O177 C174 1.252 1_554 S
O178 In169 2.326 1_556 S
O178 C174 1.260 . S
C179 O170 1.240 . S
C179 O171 1.252 . S
O180 In169 2.294 . S
O180 C173 1.240 . S
O181 In169 2.326 . S
O181 C173 1.252 . S
In182 O183 2.294 . S
In182 O184 2.326 . S
In182 O188 2.266 . S
In182 O189 2.326 . S
In182 O190 2.266 . S
In182 O191 2.326 . S
In182 O193 2.294 . S
In182 O194 2.326 . S
O183 In182 2.294 . S
O183 C192 1.240 . S
O184 In182 2.326 . S
O184 C192 1.252 . S
C185 O188 1.252 . S
C185 O189 1.260 . S
C186 O193 1.240 . S
C186 O194 1.252 . S
C187 O190 1.252 . S
C187 O191 1.260 . S
O188 In182 2.266 . S
O188 C185 1.252 . S
O189 In182 2.326 . S
O189 C185 1.260 . S
O190 In182 2.266 . S
O190 C187 1.252 . S
O191 In182 2.326 . S
O191 C187 1.260 . S
C192 O183 1.240 . S
C192 O184 1.252 . S
O193 In182 2.294 . S
O193 C186 1.240 . S
O194 In182 2.326 . S
O194 C186 1.252 . S
In195 O196 2.294 . S
In195 O197 2.326 . S
In195 O201 2.266 . S
In195 O202 2.326 . S
In195 O203 2.266 . S
In195 O204 2.326 . S
In195 O206 2.294 . S
In195 O207 2.326 . S
O196 In195 2.294 . S
O196 C205 1.240 . S
O197 In195 2.326 . S
O197 C205 1.252 . S
C198 O201 1.252 . S
C198 O202 1.260 . S
C199 O206 1.240 . S
C199 O207 1.252 . S
C200 O203 1.252 . S
C200 O204 1.260 . S
O201 In195 2.266 . S
O201 C198 1.252 . S
O202 In195 2.326 . S
O202 C198 1.260 . S
O203 In195 2.266 . S
O203 C200 1.252 . S
O204 In195 2.326 . S
O204 C200 1.260 . S
C205 O196 1.240 . S
C205 O197 1.252 . S
O206 In195 2.294 . S
O206 C199 1.240 . S
O207 In195 2.326 . S
O207 C199 1.252 . S
In208 O209 2.294 . S
In208 O210 2.326 . S
In208 O214 2.266 . S
In208 O215 2.326 . S
In208 O216 2.266 . S
In208 O217 2.326 . S
In208 O219 2.294 . S
In208 O220 2.326 . S
O209 In208 2.294 . S
O209 C218 1.240 . S
O210 In208 2.326 . S
O210 C218 1.252 . S
C211 O214 1.252 . S
C211 O215 1.260 . S
C212 O219 1.240 . S
C212 O220 1.252 . S
C213 O216 1.252 . S
C213 O217 1.260 . S
O214 In208 2.266 . S
O214 C211 1.252 . S
O215 In208 2.326 . S
O215 C211 1.260 . S
O216 In208 2.266 . S
O216 C213 1.252 . S
O217 In208 2.326 . S
O217 C213 1.260 . S
C218 O209 1.240 . S
C218 O210 1.252 . S
O219 In208 2.294 . S
O219 C212 1.240 . S
O220 In208 2.326 . S
O220 C212 1.252 . S
In221 O222 2.294 . S
In221 O223 2.326 . S
In221 O227 2.266 . S
In221 O228 2.326 . S
In221 O229 2.266 . S
In221 O230 2.326 . S
In221 O232 2.294 . S
In221 O233 2.326 . S
O222 In221 2.294 . S
O222 C231 1.240 . S
O223 In221 2.326 . S
O223 C231 1.252 . S
C224 O227 1.252 . S
C224 O228 1.260 . S
C225 O232 1.240 . S
C225 O233 1.252 . S
C226 O229 1.252 . S
C226 O230 1.260 . S
O227 In221 2.266 . S
O227 C224 1.252 . S
O228 In221 2.326 . S
O228 C224 1.260 . S
O229 In221 2.266 . S
O229 C226 1.252 . S
O230 In221 2.326 . S
O230 C226 1.260 . S
C231 O222 1.240 . S
C231 O223 1.252 . S
O232 In221 2.294 . S
O232 C225 1.240 . S
O233 In221 2.326 . S
O233 C225 1.252 . S
In234 O235 2.294 . S
In234 O236 2.326 . S
In234 O240 2.266 . S
In234 O241 2.326 . S
In234 O242 2.266 . S
In234 O243 2.326 . S
In234 O245 2.294 . S
In234 O246 2.326 . S
O235 In234 2.294 . S
O235 C244 1.240 . S
O236 In234 2.326 . S
O236 C244 1.252 . S
C237 O240 1.252 . S
C237 O241 1.260 . S
C238 O245 1.240 . S
C238 O246 1.252 . S
C239 O242 1.252 . S
C239 O243 1.260 . S
O240 In234 2.266 . S
O240 C237 1.252 . S
O241 In234 2.326 . S
O241 C237 1.260 . S
O242 In234 2.266 . S
O242 C239 1.252 . S
O243 In234 2.326 . S
O243 C239 1.260 . S
C244 O235 1.240 . S
C244 O236 1.252 . S
O245 In234 2.294 . S
O245 C238 1.240 . S
O246 In234 2.326 . S
O246 C238 1.252 . S
In247 O248 2.294 . S
In247 O249 2.326 . S
In247 O253 2.266 . S
In247 O254 2.326 . S
In247 O255 2.266 . S
In247 O256 2.326 . S
In247 O258 2.294 . S
In247 O259 2.326 . S
O248 In247 2.294 . S
O248 C257 1.240 . S
O249 In247 2.326 . S
O249 C257 1.252 . S
C250 O253 1.252 . S
C250 O254 1.260 . S
C251 O258 1.240 . S
C251 O259 1.252 . S
C252 O255 1.252 . S
C252 O256 1.260 . S
O253 In247 2.266 . S
O253 C250 1.252 . S
O254 In247 2.326 . S
O254 C250 1.260 . S
O255 In247 2.266 . S
O255 C252 1.252 . S
O256 In247 2.326 . S
O256 C252 1.260 . S
C257 O248 1.240 . S
C257 O249 1.252 . S
O258 In247 2.294 . S
O258 C251 1.240 . S
O259 In247 2.326 . S
O259 C251 1.252 . S
In260 O261 2.300 . S
In260 O262 2.328 . S
In260 O266 2.265 1_554 S
In260 O267 2.325 1_554 S
In260 O268 2.241 1_554 S
In260 O269 2.291 1_554 S
In260 O271 2.314 . S
In260 O272 2.361 . S
O261 In260 2.300 . S
O261 C270 1.240 . S
O262 In260 2.328 . S
O262 C270 1.252 . S
C263 O266 1.252 . S
C263 O267 1.260 . S
C264 O271 1.240 . S
C264 O272 1.252 . S
C265 O268 1.252 . S
C265 O269 1.260 . S
O266 In260 2.265 1_556 S
O266 C263 1.252 . S
O267 In260 2.325 1_556 S
O267 C263 1.260 . S
O268 In260 2.241 1_556 S
O268 C265 1.252 . S
O269 In260 2.291 1_556 S
O269 C265 1.260 . S
C270 O261 1.240 . S
C270 O262 1.252 . S
O271 In260 2.314 . S
O271 C264 1.240 . S
O272 In260 2.361 . S
O272 C264 1.252 . S
In273 O274 2.294 . S
In273 O275 2.326 . S
In273 O279 2.266 . S
In273 O280 2.326 . S
In273 O281 2.266 . S
In273 O282 2.326 . S
In273 O284 2.294 . S
In273 O285 2.326 . S
O274 In273 2.294 . S
O274 C283 1.240 . S
O275 In273 2.326 . S
O275 C283 1.252 . S
C276 O279 1.252 . S
C276 O280 1.260 . S
C277 O284 1.240 . S
C277 O285 1.252 . S
C278 O281 1.252 . S
C278 O282 1.260 . S
O279 In273 2.266 . S
O279 C276 1.252 . S
O280 In273 2.326 . S
O280 C276 1.260 . S
O281 In273 2.266 . S
O281 C278 1.252 . S
O282 In273 2.326 . S
O282 C278 1.260 . S
C283 O274 1.240 . S
C283 O275 1.252 . S
O284 In273 2.294 . S
O284 C277 1.240 . S
O285 In273 2.326 . S
O285 C277 1.252 . S
In286 O287 2.294 . S
In286 O288 2.326 . S
In286 O292 2.266 . S
In286 O293 2.326 . S
In286 O294 2.266 . S
In286 O295 2.326 . S
In286 O297 2.294 . S
In286 O298 2.326 . S
O287 In286 2.294 . S
O287 C296 1.240 . S
O288 In286 2.326 . S
O288 C296 1.252 . S
C289 O292 1.252 . S
C289 O293 1.260 . S
C290 O297 1.240 . S
C290 O298 1.252 . S
C291 O294 1.252 . S
C291 O295 1.260 . S
O292 In286 2.266 . S
O292 C289 1.252 . S
O293 In286 2.326 . S
O293 C289 1.260 . S
O294 In286 2.266 . S
O294 C291 1.252 . S
O295 In286 2.326 . S
O295 C291 1.260 . S
C296 O287 1.240 . S
C296 O288 1.252 . S
O297 In286 2.294 . S
O297 C290 1.240 . S
O298 In286 2.326 . S
O298 C290 1.252 . S
In299 O300 2.294 . S
In299 O301 2.326 . S
In299 O305 2.266 . S
In299 O306 2.326 . S
In299 O307 2.266 . S
In299 O308 2.326 . S
In299 O310 2.294 . S
In299 O311 2.326 . S
O300 In299 2.294 . S
O300 C309 1.240 . S
O301 In299 2.326 . S
O301 C309 1.252 . S
C302 O305 1.252 . S
C302 O306 1.260 . S
C303 O310 1.240 . S
C303 O311 1.252 . S
C304 O307 1.252 . S
C304 O308 1.260 . S
O305 In299 2.266 . S
O305 C302 1.252 . S
O306 In299 2.326 . S
O306 C302 1.260 . S
O307 In299 2.266 . S
O307 C304 1.252 . S
O308 In299 2.326 . S
O308 C304 1.260 . S
C309 O300 1.240 . S
C309 O301 1.252 . S
O310 In299 2.294 . S
O310 C303 1.240 . S
O311 In299 2.326 . S
O311 C303 1.252 . S
Tb312 N343 2.660 1_545 S
Tb312 N350 2.600 1_544 S
Tb312 O356 2.546 1_454 S
Tb312 O357 2.610 . S
Tb312 O359 2.320 . S
Tb312 O360 2.552 . S
Tb312 O361 2.413 1_455 S
Tb312 O363 2.362 . S
Tb312 O364 2.421 1_554 S
Tb312 C376 2.833 1_454 S
C313 C316 1.432 . S
C313 C317 1.414 . S
C313 N320 1.359 . S
C314 C316 1.417 . S
C314 C318 1.432 . S
C314 C326 1.410 . S
C315 C317 1.444 . S
C315 C318 1.317 . S
C315 H338 0.929 . S
C316 C313 1.432 . S
C316 C314 1.417 . S
C316 N324 1.360 . S
C317 C313 1.414 . S
C317 C315 1.444 . S
C317 C322 1.385 . S
C318 C314 1.432 . S
C318 C315 1.317 . S
C318 H330 0.930 . S
C319 C321 1.392 . S
C319 C322 1.370 . S
C319 H331 0.931 . S
N320 C313 1.359 . S
N320 C321 1.327 . S
N320 Tb323 2.600 . S
C321 C319 1.392 . S
C321 N320 1.327 . S
C321 H328 0.930 . S
C322 C317 1.385 . S
C322 C319 1.370 . S
C322 H341 0.930 . S
Tb323 N320 2.600 . S
Tb323 N324 2.660 . S
Tb323 O357 2.362 . S
Tb323 O358 2.421 . S
Tb323 O362 2.546 . S
Tb323 O363 2.610 . S
Tb323 O365 2.306 1_554 S
Tb323 O366 2.552 . S
Tb323 O367 2.413 . S
Tb323 C387 2.833 . S
N324 C316 1.360 . S
N324 Tb323 2.660 . S
N324 C325 1.305 . S
C325 N324 1.305 . S
C325 C327 1.407 1_554 S
C325 H332 0.930 1_554 S
C326 C314 1.410 . S
C326 C327 1.345 1_554 S
C326 H334 0.930 . S
C327 C325 1.407 1_556 S
C327 C326 1.345 1_556 S
C327 H329 0.930 . S
H328 C321 0.930 . S
H329 C327 0.930 . S
H330 C318 0.930 . S
H331 C319 0.931 . S
H332 C325 0.930 1_556 S
H333 C347 0.930 . S
H334 C326 0.930 . S
H335 C353 0.930 . S
H336 C344 0.930 . S
H337 C351 0.931 . S
H338 C315 0.929 . S
H339 C345 0.930 . S
H340 C378 0.930 . S
H341 C322 0.930 . S
H342 C377 0.929 . S
N343 Tb312 2.660 1_565 S
N343 C344 1.305 . S
N343 C348 1.360 . S
C344 H336 0.930 . S
C344 N343 1.305 . S
C344 C347 1.407 . S
C345 H339 0.930 . S
C345 C346 1.410 . S
C345 C347 1.345 1_655 S
C346 C345 1.410 . S
C346 C348 1.417 1_655 S
C346 C378 1.432 . S
C347 H333 0.930 . S
C347 C344 1.407 . S
C347 C345 1.345 1_455 S
C348 N343 1.360 . S
C348 C346 1.417 1_455 S
C348 C352 1.432 1_554 S
H349 C354 0.930 . S
N350 Tb312 2.600 1_566 S
N350 C352 1.359 . S
N350 C353 1.327 . S
C351 H337 0.931 . S
C351 C353 1.392 . S
C351 C354 1.370 1_455 S
C352 C348 1.432 1_556 S
C352 N350 1.359 . S
C352 C355 1.414 1_455 S
C353 H335 0.930 . S
C353 N350 1.327 . S
C353 C351 1.392 . S
C354 H349 0.930 . S
C354 C351 1.370 1_655 S
C354 C355 1.385 . S
C355 C352 1.414 1_655 S
C355 C354 1.385 . S
C355 C377 1.444 . S
O356 Tb312 2.546 1_656 S
O356 C376 1.251 . S
O357 Tb312 2.610 . S
O357 Tb323 2.362 . S
O357 C368 1.283 . S
O358 Tb323 2.421 . S
O358 C375 1.262 . S
O359 Tb312 2.320 . S
O359 C375 1.260 . S
O360 Tb312 2.552 . S
O360 C368 1.243 . S
O361 Tb312 2.413 1_655 S
O361 C376 1.256 1_554 S
O362 Tb323 2.546 . S
O362 C387 1.251 . S
O363 Tb312 2.362 . S
O363 Tb323 2.610 . S
O363 C379 1.283 1_545 S
O364 Tb312 2.421 1_556 S
O364 C386 1.262 . S
O365 Tb323 2.306 1_556 S
O365 C386 1.269 . S
O366 Tb323 2.552 . S
O366 C379 1.243 1_545 S
O367 Tb323 2.413 . S
O367 C387 1.256 . S
C368 O357 1.283 . S
C368 O360 1.243 . S
C369 C371 1.382 1_556 S
C369 C373 1.393 . S
C369 C376 1.500 . S
C370 C371 1.400 . S
C370 C372 1.384 1_554 S
C371 C369 1.382 1_554 S
C371 C370 1.400 . S
C371 H388 0.930 . S
C372 C370 1.384 1_556 S
C372 C374 1.392 . S
C372 H389 0.931 . S
C373 C369 1.393 . S
C373 C374 1.401 . S
C373 H390 0.930 . S
C374 C372 1.392 . S
C374 C373 1.401 . S
C374 H391 0.930 . S
C375 O358 1.262 . S
C375 O359 1.260 . S
C376 Tb312 2.833 1_656 S
C376 O356 1.251 . S
C376 O361 1.256 1_556 S
C376 C369 1.500 . S
C377 H342 0.929 . S
C377 C355 1.444 . S
C377 C378 1.317 1_556 S
C378 H340 0.930 . S
C378 C346 1.432 . S
C378 C377 1.317 1_554 S
C379 O363 1.283 1_565 S
C379 O366 1.243 1_565 S
C380 C381 1.382 . S
C380 C384 1.393 . S
C380 C387 1.500 . S
C381 C380 1.382 . S
C381 C382 1.400 . S
C381 H392 0.930 . S
C382 C381 1.400 . S
C382 C383 1.384 . S
C383 C382 1.384 . S
C383 C385 1.392 . S
C383 H393 0.931 . S
C384 C380 1.393 . S
C384 C385 1.401 . S
C384 H394 0.930 . S
C385 C383 1.392 . S
C385 C384 1.401 . S
C385 H395 0.930 . S
C386 O364 1.262 . S
C386 O365 1.269 . S
C387 Tb323 2.833 . S
C387 O362 1.251 . S
C387 O367 1.256 . S
C387 C380 1.500 . S
H388 C371 0.930 . S
H389 C372 0.931 . S
H390 C373 0.930 . S
H391 C374 0.930 . S
H392 C381 0.930 . S
H393 C383 0.931 . S
H394 C384 0.930 . S
H395 C385 0.930 . S
Tb396 N427 2.660 . S
Tb396 N434 2.600 . S
Tb396 O440 2.546 . S
Tb396 O441 2.610 . S
Tb396 O443 2.320 . S
Tb396 O444 2.552 . S
Tb396 O445 2.413 . S
Tb396 O447 2.362 . S
Tb396 O448 2.421 . S
Tb396 C460 2.833 . S
C397 C400 1.432 . S
C397 C401 1.414 . S
C397 N404 1.359 . S
C398 C400 1.417 . S
C398 C402 1.432 . S
C398 C410 1.410 . S
C399 C401 1.444 . S
C399 C402 1.317 . S
C399 H422 0.929 . S
C400 C397 1.432 . S
C400 C398 1.417 . S
C400 N408 1.360 . S
C401 C397 1.414 . S
C401 C399 1.444 . S
C401 C406 1.385 . S
C402 C398 1.432 . S
C402 C399 1.317 . S
C402 H414 0.930 . S
C403 C405 1.392 . S
C403 C406 1.370 . S
C403 H415 0.931 . S
N404 C397 1.359 . S
N404 C405 1.327 . S
N404 Tb407 2.600 . S
C405 C403 1.392 . S
C405 N404 1.327 . S
C405 H412 0.930 . S
C406 C401 1.385 . S
C406 C403 1.370 . S
C406 H425 0.930 . S
Tb407 N404 2.600 . S
Tb407 N408 2.660 . S
Tb407 O441 2.362 . S
Tb407 O442 2.421 . S
Tb407 O446 2.546 . S
Tb407 O447 2.610 . S
Tb407 O449 2.320 . S
Tb407 O450 2.552 . S
Tb407 O451 2.413 . S
Tb407 C471 2.833 . S
N408 C400 1.360 . S
N408 Tb407 2.660 . S
N408 C409 1.305 . S
C409 N408 1.305 . S
C409 C411 1.407 . S
C409 H416 0.930 . S
C410 C398 1.410 . S
C410 C411 1.345 . S
C410 H418 0.930 . S
C411 C409 1.407 . S
C411 C410 1.345 . S
C411 H413 0.930 . S
H412 C405 0.930 . S
H413 C411 0.930 . S
H414 C402 0.930 . S
H415 C403 0.931 . S
H416 C409 0.930 . S
H417 C431 0.930 . S
H418 C410 0.930 . S
H419 C437 0.930 . S
H420 C428 0.930 . S
H421 C435 0.931 . S
H422 C399 0.929 . S
H423 C429 0.930 . S
H424 C462 0.930 . S
H425 C406 0.930 . S
H426 C461 0.929 . S
N427 Tb396 2.660 . S
N427 C428 1.305 . S
N427 C432 1.360 . S
C428 H420 0.930 . S
C428 N427 1.305 . S
C428 C431 1.407 . S
C429 H423 0.930 . S
C429 C430 1.410 . S
C429 C431 1.345 . S
C430 C429 1.410 . S
C430 C432 1.417 . S
C430 C462 1.432 . S
C431 H417 0.930 . S
C431 C428 1.407 . S
C431 C429 1.345 . S
C432 N427 1.360 . S
C432 C430 1.417 . S
C432 C436 1.432 . S
H433 C438 0.930 . S
N434 Tb396 2.600 . S
N434 C436 1.359 . S
N434 C437 1.327 . S
C435 H421 0.931 . S
C435 C437 1.392 . S
C435 C438 1.370 . S
C436 C432 1.432 . S
C436 N434 1.359 . S
C436 C439 1.414 . S
C437 H419 0.930 . S
C437 N434 1.327 . S
C437 C435 1.392 . S
C438 H433 0.930 . S
C438 C435 1.370 . S
C438 C439 1.385 . S
C439 C436 1.414 . S
C439 C438 1.385 . S
C439 C461 1.444 . S
O440 Tb396 2.546 . S
O440 C460 1.251 . S
O441 Tb396 2.610 . S
O441 Tb407 2.362 . S
O441 C452 1.283 . S
O442 Tb407 2.421 . S
O442 C459 1.262 . S
O443 Tb396 2.320 . S
O443 C459 1.260 . S
O444 Tb396 2.552 . S
O444 C452 1.243 . S
O445 Tb396 2.413 . S
O445 C460 1.256 . S
O446 Tb407 2.546 . S
O446 C471 1.251 . S
O447 Tb396 2.362 . S
O447 Tb407 2.610 . S
O447 C463 1.283 . S
O448 Tb396 2.421 . S
O448 C470 1.262 . S
O449 Tb407 2.320 . S
O449 C470 1.260 . S
O450 Tb407 2.552 . S
O450 C463 1.243 . S
O451 Tb407 2.413 . S
O451 C471 1.256 . S
C452 O441 1.283 . S
C452 O444 1.243 . S
C453 C455 1.382 . S
C453 C457 1.393 . S
C453 C460 1.500 . S
C454 C455 1.400 . S
C454 C456 1.384 . S
C455 C453 1.382 . S
C455 C454 1.400 . S
C455 H472 0.930 . S
C456 C454 1.384 . S
C456 C458 1.392 . S
C456 H473 0.931 . S
C457 C453 1.393 . S
C457 C458 1.401 . S
C457 H474 0.930 . S
C458 C456 1.392 . S
C458 C457 1.401 . S
C458 H475 0.930 . S
C459 O442 1.262 . S
C459 O443 1.260 . S
C460 Tb396 2.833 . S
C460 O440 1.251 . S
C460 O445 1.256 . S
C460 C453 1.500 . S
C461 H426 0.929 . S
C461 C439 1.444 . S
C461 C462 1.317 . S
C462 H424 0.930 . S
C462 C430 1.432 . S
C462 C461 1.317 . S
C463 O447 1.283 . S
C463 O450 1.243 . S
C464 C465 1.382 . S
C464 C468 1.393 . S
C464 C471 1.500 . S
C465 C464 1.382 . S
C465 C466 1.400 . S
C465 H476 0.930 . S
C466 C465 1.400 . S
C466 C467 1.384 . S
C467 C466 1.384 . S
C467 C469 1.392 . S
C467 H477 0.931 . S
C468 C464 1.393 . S
C468 C469 1.401 . S
C468 H478 0.930 . S
C469 C467 1.392 . S
C469 C468 1.401 . S
C469 H479 0.930 . S
C470 O448 1.262 . S
C470 O449 1.260 . S
C471 Tb407 2.833 . S
C471 O446 1.251 . S
C471 O451 1.256 . S
C471 C464 1.500 . S
H472 C455 0.930 . S
H473 C456 0.931 . S
H474 C457 0.930 . S
H475 C458 0.930 . S
H476 C465 0.930 . S
H477 C467 0.931 . S
H478 C468 0.930 . S
H479 C469 0.930 . S
Tb480 N511 2.660 . S
Tb480 N518 2.600 . S
Tb480 O524 2.546 1_545 S
Tb480 O525 2.610 1_545 S
Tb480 O527 2.320 . S
Tb480 O528 2.552 1_545 S
Tb480 O529 2.413 . S
Tb480 O531 2.362 . S
Tb480 O532 2.421 . S
Tb480 C544 2.833 1_545 S
C481 C484 1.432 . S
C481 C485 1.414 . S
C481 N488 1.359 . S
C482 C484 1.417 . S
C482 C486 1.432 . S
C482 C494 1.410 . S
C483 C485 1.444 . S
C483 C486 1.317 . S
C483 H506 0.929 . S
C484 C481 1.432 . S
C484 C482 1.417 . S
C484 N492 1.360 . S
C485 C481 1.414 . S
C485 C483 1.444 . S
C485 C490 1.385 . S
C486 C482 1.432 . S
C486 C483 1.317 . S
C486 H498 0.930 . S
C487 C489 1.392 1_565 S
C487 C490 1.370 . S
C487 H499 0.931 . S
N488 C481 1.359 . S
N488 C489 1.327 1_565 S
N488 Tb491 2.600 1_565 S
C489 C487 1.392 1_545 S
C489 N488 1.327 1_545 S
C489 H496 0.930 . S
C490 C485 1.385 . S
C490 C487 1.370 . S
C490 H509 0.930 . S
Tb491 N488 2.600 1_545 S
Tb491 N492 2.660 1_545 S
Tb491 O525 2.362 1_545 S
Tb491 O526 2.421 . S
Tb491 O530 2.546 . S
Tb491 O531 2.610 . S
Tb491 O533 2.320 . S
Tb491 O534 2.552 . S
Tb491 O535 2.413 . S
Tb491 C555 2.833 . S
N492 C484 1.360 . S
N492 Tb491 2.660 1_565 S
N492 C493 1.305 . S
C493 N492 1.305 . S
C493 C495 1.407 . S
C493 H500 0.930 . S
C494 C482 1.410 . S
C494 C495 1.345 . S
C494 H502 0.930 . S
C495 C493 1.407 . S
C495 C494 1.345 . S
C495 H497 0.930 . S
H496 C489 0.930 . S
H497 C495 0.930 . S
H498 C486 0.930 . S
H499 C487 0.931 . S
H500 C493 0.930 . S
H501 C515 0.930 . S
H502 C494 0.930 . S
H503 C521 0.930 . S
H504 C512 0.930 . S
H505 C519 0.931 . S
H506 C483 0.929 . S
H507 C513 0.930 . S
H508 C546 0.930 . S
H509 C490 0.930 . S
H510 C545 0.929 . S
N511 Tb480 2.660 . S
N511 C512 1.305 . S
N511 C516 1.360 . S
C512 H504 0.930 . S
C512 N511 1.305 . S
C512 C515 1.407 . S
C513 H507 0.930 . S
C513 C514 1.410 . S
C513 C515 1.345 . S
C514 C513 1.410 . S
C514 C516 1.417 . S
C514 C546 1.432 . S
C515 H501 0.930 . S
C515 C512 1.407 . S
C515 C513 1.345 . S
C516 N511 1.360 . S
C516 C514 1.417 . S
C516 C520 1.432 . S
H517 C522 0.930 . S
N518 Tb480 2.600 . S
N518 C520 1.359 . S
N518 C521 1.327 . S
C519 H505 0.931 . S
C519 C521 1.392 . S
C519 C522 1.370 . S
C520 C516 1.432 . S
C520 N518 1.359 . S
C520 C523 1.414 . S
C521 H503 0.930 . S
C521 N518 1.327 . S
C521 C519 1.392 . S
C522 H517 0.930 . S
C522 C519 1.370 . S
C522 C523 1.385 . S
C523 C520 1.414 . S
C523 C522 1.385 . S
C523 C545 1.444 . S
O524 Tb480 2.546 1_565 S
O524 C544 1.251 . S
O525 Tb480 2.610 1_565 S
O525 Tb491 2.362 1_565 S
O525 C536 1.283 . S
O526 Tb491 2.421 . S
O526 C543 1.262 . S
O527 Tb480 2.320 . S
O527 C543 1.260 . S
O528 Tb480 2.552 1_565 S
O528 C536 1.243 . S
O529 Tb480 2.413 . S
O529 C544 1.256 1_545 S
O530 Tb491 2.546 . S
O530 C555 1.251 . S
O531 Tb480 2.362 . S
O531 Tb491 2.610 . S
O531 C547 1.283 . S
O532 Tb480 2.421 . S
O532 C554 1.262 . S
O533 Tb491 2.320 . S
O533 C554 1.260 . S
O534 Tb491 2.552 . S
O534 C547 1.243 . S
O535 Tb491 2.413 . S
O535 C555 1.256 . S
C536 O525 1.283 . S
C536 O528 1.243 . S
C537 C539 1.382 . S
C537 C541 1.393 . S
C537 C544 1.500 . S
C538 C539 1.400 . S
C538 C540 1.384 . S
C539 C537 1.382 . S
C539 C538 1.400 . S
C539 H556 0.930 . S
C540 C538 1.384 . S
C540 C542 1.392 . S
C540 H557 0.931 . S
C541 C537 1.393 . S
C541 C542 1.401 . S
C541 H558 0.930 . S
C542 C540 1.392 . S
C542 C541 1.401 . S
C542 H559 0.930 . S
C543 O526 1.262 . S
C543 O527 1.260 . S
C544 Tb480 2.833 1_565 S
C544 O524 1.251 . S
C544 O529 1.256 1_565 S
C544 C537 1.500 . S
C545 H510 0.929 . S
C545 C523 1.444 . S
C545 C546 1.317 . S
C546 H508 0.930 . S
C546 C514 1.432 . S
C546 C545 1.317 . S
C547 O531 1.283 . S
C547 O534 1.243 . S
C548 C549 1.382 . S
C548 C552 1.393 . S
C548 C555 1.500 . S
C549 C548 1.382 . S
C549 C550 1.400 . S
C549 H560 0.930 . S
C550 C549 1.400 . S
C550 C551 1.384 . S
C551 C550 1.384 . S
C551 C553 1.392 . S
C551 H561 0.931 . S
C552 C548 1.393 . S
C552 C553 1.401 . S
C552 H562 0.930 . S
C553 C551 1.392 . S
C553 C552 1.401 . S
C553 H563 0.930 . S
C554 O532 1.262 . S
C554 O533 1.260 . S
C555 Tb491 2.833 . S
C555 O530 1.251 . S
C555 O535 1.256 . S
C555 C548 1.500 . S
H556 C539 0.930 . S
H557 C540 0.931 . S
H558 C541 0.930 . S
H559 C542 0.930 . S
H560 C549 0.930 . S
H561 C551 0.931 . S
H562 C552 0.930 . S
H563 C553 0.930 . S
Tb564 N595 2.660 . S
Tb564 N602 2.600 . S
Tb564 O608 2.546 . S
Tb564 O609 2.610 . S
Tb564 O611 2.320 . S
Tb564 O612 2.552 . S
Tb564 O613 2.413 . S
Tb564 O615 2.362 . S
Tb564 O616 2.421 . S
Tb564 C628 2.833 . S
C565 C568 1.432 . S
C565 C569 1.414 . S
C565 N572 1.359 . S
C566 C568 1.417 . S
C566 C570 1.432 . S
C566 C578 1.410 . S
C567 C569 1.444 . S
C567 C570 1.317 . S
C567 H590 0.929 . S
C568 C565 1.432 . S
C568 C566 1.417 . S
C568 N576 1.360 . S
C569 C565 1.414 . S
C569 C567 1.444 . S
C569 C574 1.385 . S
C570 C566 1.432 . S
C570 C567 1.317 . S
C570 H582 0.930 . S
C571 C573 1.392 . S
C571 C574 1.370 . S
C571 H583 0.931 . S
N572 C565 1.359 . S
N572 C573 1.327 . S
N572 Tb575 2.600 . S
C573 C571 1.392 . S
C573 N572 1.327 . S
C573 H580 0.930 . S
C574 C569 1.385 . S
C574 C571 1.370 . S
C574 H593 0.930 . S
Tb575 N572 2.600 . S
Tb575 N576 2.660 . S
Tb575 O609 2.362 . S
Tb575 O610 2.421 . S
Tb575 O614 2.546 . S
Tb575 O615 2.610 . S
Tb575 O617 2.320 . S
Tb575 O618 2.552 . S
Tb575 O619 2.413 . S
Tb575 C639 2.833 . S
N576 C568 1.360 . S
N576 Tb575 2.660 . S
N576 C577 1.305 . S
C577 N576 1.305 . S
C577 C579 1.407 . S
C577 H584 0.930 . S
C578 C566 1.410 . S
C578 C579 1.345 . S
C578 H586 0.930 . S
C579 C577 1.407 . S
C579 C578 1.345 . S
C579 H581 0.930 . S
H580 C573 0.930 . S
H581 C579 0.930 . S
H582 C570 0.930 . S
H583 C571 0.931 . S
H584 C577 0.930 . S
H585 C599 0.930 . S
H586 C578 0.930 . S
H587 C605 0.930 . S
H588 C596 0.930 . S
H589 C603 0.931 . S
H590 C567 0.929 . S
H591 C597 0.930 . S
H592 C630 0.930 . S
H593 C574 0.930 . S
H594 C629 0.929 . S
N595 Tb564 2.660 . S
N595 C596 1.305 . S
N595 C600 1.360 . S
C596 H588 0.930 . S
C596 N595 1.305 . S
C596 C599 1.407 . S
C597 H591 0.930 . S
C597 C598 1.410 . S
C597 C599 1.345 . S
C598 C597 1.410 . S
C598 C600 1.417 . S
C598 C630 1.432 . S
C599 H585 0.930 . S
C599 C596 1.407 . S
C599 C597 1.345 . S
C600 N595 1.360 . S
C600 C598 1.417 . S
C600 C604 1.432 . S
H601 C606 0.930 . S
N602 Tb564 2.600 . S
N602 C604 1.359 . S
N602 C605 1.327 . S
C603 H589 0.931 . S
C603 C605 1.392 . S
C603 C606 1.370 . S
C604 C600 1.432 . S
C604 N602 1.359 . S
C604 C607 1.414 . S
C605 H587 0.930 . S
C605 N602 1.327 . S
C605 C603 1.392 . S
C606 H601 0.930 . S
C606 C603 1.370 . S
C606 C607 1.385 . S
C607 C604 1.414 . S
C607 C606 1.385 . S
C607 C629 1.444 . S
O608 Tb564 2.546 . S
O608 C628 1.251 . S
O609 Tb564 2.610 . S
O609 Tb575 2.362 . S
O609 C620 1.283 . S
O610 Tb575 2.421 . S
O610 C627 1.262 . S
O611 Tb564 2.320 . S
O611 C627 1.260 . S
O612 Tb564 2.552 . S
O612 C620 1.243 . S
O613 Tb564 2.413 . S
O613 C628 1.256 . S
O614 Tb575 2.546 . S
O614 C639 1.251 . S
O615 Tb564 2.362 . S
O615 Tb575 2.610 . S
O615 C631 1.283 . S
O616 Tb564 2.421 . S
O616 C638 1.262 . S
O617 Tb575 2.320 . S
O617 C638 1.260 . S
O618 Tb575 2.552 . S
O618 C631 1.243 . S
O619 Tb575 2.413 . S
O619 C639 1.256 . S
C620 O609 1.283 . S
C620 O612 1.243 . S
C621 C623 1.382 . S
C621 C625 1.393 . S
C621 C628 1.500 . S
C622 C623 1.400 . S
C622 C624 1.384 . S
C623 C621 1.382 . S
C623 C622 1.400 . S
C623 H640 0.930 . S
C624 C622 1.384 . S
C624 C626 1.392 . S
C624 H641 0.931 . S
C625 C621 1.393 . S
C625 C626 1.401 . S
C625 H642 0.930 . S
C626 C624 1.392 . S
C626 C625 1.401 . S
C626 H643 0.930 . S
C627 O610 1.262 . S
C627 O611 1.260 . S
C628 Tb564 2.833 . S
C628 O608 1.251 . S
C628 O613 1.256 . S
C628 C621 1.500 . S
C629 H594 0.929 . S
C629 C607 1.444 . S
C629 C630 1.317 . S
C630 H592 0.930 . S
C630 C598 1.432 . S
C630 C629 1.317 . S
C631 O615 1.283 . S
C631 O618 1.243 . S
C632 C633 1.382 . S
C632 C636 1.393 . S
C632 C639 1.500 . S
C633 C632 1.382 . S
C633 C634 1.400 . S
C633 H644 0.930 . S
C634 C633 1.400 . S
C634 C635 1.384 . S
C635 C634 1.384 . S
C635 C637 1.392 . S
C635 H645 0.931 . S
C636 C632 1.393 . S
C636 C637 1.401 . S
C636 H646 0.930 . S
C637 C635 1.392 . S
C637 C636 1.401 . S
C637 H647 0.930 . S
C638 O616 1.262 . S
C638 O617 1.260 . S
C639 Tb575 2.833 . S
C639 O614 1.251 . S
C639 O619 1.256 . S
C639 C632 1.500 . S
H640 C623 0.930 . S
H641 C624 0.931 . S
H642 C625 0.930 . S
H643 C626 0.930 . S
H644 C633 0.930 . S
H645 C635 0.931 . S
H646 C636 0.930 . S
H647 C637 0.930 . S
Tb648 N679 2.660 . S
Tb648 N686 2.600 . S
Tb648 O692 2.546 . S
Tb648 O693 2.610 . S
Tb648 O695 2.320 . S
Tb648 O696 2.552 . S
Tb648 O697 2.413 . S
Tb648 O699 2.362 . S
Tb648 O700 2.421 . S
Tb648 C712 2.833 . S
C649 C652 1.432 . S
C649 C653 1.414 . S
C649 N656 1.359 . S
C650 C652 1.417 . S
C650 C654 1.432 . S
C650 C662 1.410 . S
C651 C653 1.444 . S
C651 C654 1.317 . S
C651 H674 0.929 . S
C652 C649 1.432 . S
C652 C650 1.417 . S
C652 N660 1.360 . S
C653 C649 1.414 . S
C653 C651 1.444 . S
C653 C658 1.385 . S
C654 C650 1.432 . S
C654 C651 1.317 . S
C654 H666 0.930 . S
C655 C657 1.392 . S
C655 C658 1.370 . S
C655 H667 0.931 . S
N656 C649 1.359 . S
N656 C657 1.327 . S
N656 Tb659 2.600 . S
C657 C655 1.392 . S
C657 N656 1.327 . S
C657 H664 0.930 . S
C658 C653 1.385 . S
C658 C655 1.370 . S
C658 H677 0.930 . S
Tb659 N656 2.600 . S
Tb659 N660 2.660 . S
Tb659 O693 2.362 1_565 S
Tb659 O694 2.421 1_565 S
Tb659 O698 2.546 . S
Tb659 O699 2.610 1_565 S
Tb659 O701 2.320 . S
Tb659 O702 2.552 . S
Tb659 O703 2.413 . S
Tb659 C723 2.833 . S
N660 C652 1.360 . S
N660 Tb659 2.660 . S
N660 C661 1.305 . S
C661 N660 1.305 . S
C661 C663 1.411 . S
C661 H668 0.930 . S
C662 C650 1.410 . S
C662 C663 1.349 . S
C662 H670 0.930 1_455 S
C663 C661 1.411 . S
C663 C662 1.349 . S
C663 H665 0.923 1_455 S
H664 C657 0.930 . S
H665 C663 0.923 1_655 S
H666 C654 0.930 . S
H667 C655 0.931 . S
H668 C661 0.930 . S
H669 C683 0.930 . S
H670 C662 0.930 1_655 S
H671 C689 0.930 . S
H672 C680 0.930 . S
H673 C687 0.931 1_655 S
H674 C651 0.929 . S
H675 C681 0.930 . S
H676 C714 0.930 . S
H677 C658 0.930 . S
H678 C713 0.929 . S
N679 Tb648 2.660 . S
N679 C680 1.305 . S
N679 C684 1.360 . S
C680 H672 0.930 . S
C680 N679 1.305 . S
C680 C683 1.407 . S
C681 H675 0.930 . S
C681 C682 1.410 . S
C681 C683 1.345 . S
C682 C681 1.410 . S
C682 C684 1.417 . S
C682 C714 1.432 . S
C683 H669 0.930 . S
C683 C680 1.407 . S
C683 C681 1.345 . S
C684 N679 1.360 . S
C684 C682 1.417 . S
C684 C688 1.432 . S
H685 C690 0.930 . S
N686 Tb648 2.600 . S
N686 C688 1.359 . S
N686 C689 1.327 . S
C687 H673 0.931 1_455 S
C687 C689 1.392 . S
C687 C690 1.370 . S
C688 C684 1.432 . S
C688 N686 1.359 . S
C688 C691 1.414 . S
C689 H671 0.930 . S
C689 N686 1.327 . S
C689 C687 1.392 . S
C690 H685 0.930 . S
C690 C687 1.370 . S
C690 C691 1.385 . S
C691 C688 1.414 . S
C691 C690 1.385 . S
C691 C713 1.444 . S
O692 Tb648 2.546 . S
O692 C712 1.251 . S
O693 Tb648 2.610 . S
O693 Tb659 2.362 1_545 S
O693 C704 1.283 . S
O694 Tb659 2.421 1_545 S
O694 C711 1.262 . S
O695 Tb648 2.320 . S
O695 C711 1.260 . S
O696 Tb648 2.552 . S
O696 C704 1.243 . S
O697 Tb648 2.413 . S
O697 C712 1.256 . S
O698 Tb659 2.546 . S
O698 C723 1.251 . S
O699 Tb648 2.362 . S
O699 Tb659 2.610 1_545 S
O699 C715 1.283 . S
O700 Tb648 2.421 . S
O700 C722 1.255 1_545 S
O701 Tb659 2.320 . S
O701 C722 1.264 . S
O702 Tb659 2.552 . S
O702 C715 1.243 1_565 S
O703 Tb659 2.413 . S
O703 C723 1.256 . S
C704 O693 1.283 . S
C704 O696 1.243 . S
C705 C707 1.382 . S
C705 C709 1.393 . S
C705 C712 1.500 . S
C706 C707 1.400 . S
C706 C708 1.384 . S
C707 C705 1.382 . S
C707 C706 1.400 . S
C707 H724 0.930 . S
C708 C706 1.384 . S
C708 C710 1.392 . S
C708 H725 0.931 . S
C709 C705 1.393 . S
C709 C710 1.401 . S
C709 H726 0.930 . S
C710 C708 1.392 . S
C710 C709 1.401 . S
C710 H727 0.930 . S
C711 O694 1.262 . S
C711 O695 1.260 . S
C712 Tb648 2.833 . S
C712 O692 1.251 . S
C712 O697 1.256 . S
C712 C705 1.500 . S
C713 H678 0.929 . S
C713 C691 1.444 . S
C713 C714 1.317 . S
C714 H676 0.930 . S
C714 C682 1.432 . S
C714 C713 1.317 . S
C715 O699 1.283 . S
C715 O702 1.243 1_545 S
C716 C717 1.382 . S
C716 C720 1.393 . S
C716 C723 1.500 . S
C717 C716 1.382 . S
C717 C718 1.400 . S
C717 H728 0.930 . S
C718 C717 1.400 . S
C718 C719 1.384 . S
C719 C718 1.384 . S
C719 C721 1.392 . S
C719 H729 0.931 . S
C720 C716 1.393 . S
C720 C721 1.401 . S
C720 H730 0.930 . S
C721 C719 1.392 . S
C721 C720 1.401 . S
C721 H731 0.930 . S
C722 O700 1.255 1_565 S
C722 O701 1.264 . S
C723 Tb659 2.833 . S
C723 O698 1.251 . S
C723 O703 1.256 . S
C723 C716 1.500 . S
H724 C707 0.930 . S
H725 C708 0.931 . S
H726 C709 0.930 . S
H727 C710 0.930 . S
H728 C717 0.930 . S
H729 C719 0.931 . S
H730 C720 0.930 . S
H731 C721 0.930 . S
Tb732 N763 2.660 . S
Tb732 N770 2.600 . S
Tb732 O776 2.546 . S
Tb732 O777 2.610 . S
Tb732 O779 2.320 . S
Tb732 O780 2.552 . S
Tb732 O781 2.413 . S
Tb732 O783 2.362 . S
Tb732 O784 2.421 . S
Tb732 C796 2.833 . S
C733 C736 1.432 . S
C733 C737 1.414 . S
C733 N740 1.359 . S
C734 C736 1.417 . S
C734 C738 1.432 . S
C734 C746 1.410 . S
C735 C737 1.444 . S
C735 C738 1.317 . S
C735 H758 0.929 . S
C736 C733 1.432 . S
C736 C734 1.417 . S
C736 N744 1.360 . S
C737 C733 1.414 . S
C737 C735 1.444 . S
C737 C742 1.385 . S
C738 C734 1.432 . S
C738 C735 1.317 . S
C738 H750 0.930 . S
C739 C741 1.392 . S
C739 C742 1.370 . S
C739 H751 0.931 . S
N740 C733 1.359 . S
N740 C741 1.327 . S
N740 Tb743 2.600 . S
C741 C739 1.392 . S
C741 N740 1.327 . S
C741 H748 0.930 . S
C742 C737 1.385 . S
C742 C739 1.370 . S
C742 H761 0.930 . S
Tb743 N740 2.600 . S
Tb743 N744 2.660 . S
Tb743 O777 2.362 . S
Tb743 O778 2.421 . S
Tb743 O782 2.546 . S
Tb743 O783 2.610 . S
Tb743 O785 2.320 . S
Tb743 O786 2.552 . S
Tb743 O787 2.413 . S
Tb743 C807 2.833 . S
N744 C736 1.360 . S
N744 Tb743 2.660 . S
N744 C745 1.305 . S
C745 N744 1.305 . S
C745 C747 1.407 . S
C745 H752 0.930 . S
C746 C734 1.410 . S
C746 C747 1.345 . S
C746 H754 0.930 . S
C747 C745 1.407 . S
C747 C746 1.345 . S
C747 H749 0.930 . S
H748 C741 0.930 . S
H749 C747 0.930 . S
H750 C738 0.930 . S
H751 C739 0.931 . S
H752 C745 0.930 . S
H753 C767 0.930 . S
H754 C746 0.930 . S
H755 C773 0.930 . S
H756 C764 0.930 . S
H757 C771 0.931 . S
H758 C735 0.929 . S
H759 C765 0.930 . S
H760 C798 0.930 . S
H761 C742 0.930 . S
H762 C797 0.929 . S
N763 Tb732 2.660 . S
N763 C764 1.305 . S
N763 C768 1.360 . S
C764 H756 0.930 . S
C764 N763 1.305 . S
C764 C767 1.407 . S
C765 H759 0.930 . S
C765 C766 1.410 . S
C765 C767 1.345 . S
C766 C765 1.410 . S
C766 C768 1.417 . S
C766 C798 1.432 . S
C767 H753 0.930 . S
C767 C764 1.407 . S
C767 C765 1.345 . S
C768 N763 1.360 . S
C768 C766 1.417 . S
C768 C772 1.432 . S
H769 C774 0.930 . S
N770 Tb732 2.600 . S
N770 C772 1.359 . S
N770 C773 1.327 . S
C771 H757 0.931 . S
C771 C773 1.392 . S
C771 C774 1.370 . S
C772 C768 1.432 . S
C772 N770 1.359 . S
C772 C775 1.414 . S
C773 H755 0.930 . S
C773 N770 1.327 . S
C773 C771 1.392 . S
C774 H769 0.930 . S
C774 C771 1.370 . S
C774 C775 1.385 . S
C775 C772 1.414 . S
C775 C774 1.385 . S
C775 C797 1.444 . S
O776 Tb732 2.546 . S
O776 C796 1.251 . S
O777 Tb732 2.610 . S
O777 Tb743 2.362 . S
O777 C788 1.283 . S
O778 Tb743 2.421 . S
O778 C795 1.262 . S
O779 Tb732 2.320 . S
O779 C795 1.260 . S
O780 Tb732 2.552 . S
O780 C788 1.243 . S
O781 Tb732 2.413 . S
O781 C796 1.256 . S
O782 Tb743 2.546 . S
O782 C807 1.251 . S
O783 Tb732 2.362 . S
O783 Tb743 2.610 . S
O783 C799 1.283 . S
O784 Tb732 2.421 . S
O784 C806 1.262 . S
O785 Tb743 2.320 . S
O785 C806 1.260 . S
O786 Tb743 2.552 . S
O786 C799 1.243 . S
O787 Tb743 2.413 . S
O787 C807 1.256 . S
C788 O777 1.283 . S
C788 O780 1.243 . S
C789 C791 1.382 . S
C789 C793 1.393 . S
C789 C796 1.500 . S
C790 C791 1.400 . S
C790 C792 1.384 . S
C791 C789 1.382 . S
C791 C790 1.400 . S
C791 H808 0.930 . S
C792 C790 1.384 . S
C792 C794 1.392 . S
C792 H809 0.931 . S
C793 C789 1.393 . S
C793 C794 1.401 . S
C793 H810 0.930 . S
C794 C792 1.392 . S
C794 C793 1.401 . S
C794 H811 0.930 . S
C795 O778 1.262 . S
C795 O779 1.260 . S
C796 Tb732 2.833 . S
C796 O776 1.251 . S
C796 O781 1.256 . S
C796 C789 1.500 . S
C797 H762 0.929 . S
C797 C775 1.444 . S
C797 C798 1.317 . S
C798 H760 0.930 . S
C798 C766 1.432 . S
C798 C797 1.317 . S
C799 O783 1.283 . S
C799 O786 1.243 . S
C800 C801 1.382 . S
C800 C804 1.393 . S
C800 C807 1.500 . S
C801 C800 1.382 . S
C801 C802 1.400 . S
C801 H812 0.930 . S
C802 C801 1.400 . S
C802 C803 1.384 . S
C803 C802 1.384 . S
C803 C805 1.392 . S
C803 H813 0.931 . S
C804 C800 1.393 . S
C804 C805 1.401 . S
C804 H814 0.930 . S
C805 C803 1.392 . S
C805 C804 1.401 . S
C805 H815 0.930 . S
C806 O784 1.262 . S
C806 O785 1.260 . S
C807 Tb743 2.833 . S
C807 O782 1.251 . S
C807 O787 1.256 . S
C807 C800 1.500 . S
H808 C791 0.930 . S
H809 C792 0.931 . S
H810 C793 0.930 . S
H811 C794 0.930 . S
H812 C801 0.930 . S
H813 C803 0.931 . S
H814 C804 0.930 . S
H815 C805 0.930 . S
Tb816 N847 2.660 . S
Tb816 N854 2.600 . S
Tb816 O860 2.546 1_545 S
Tb816 O861 2.610 . S
Tb816 O863 2.320 . S
Tb816 O864 2.552 . S
Tb816 O865 2.413 . S
Tb816 O867 2.362 . S
Tb816 O868 2.421 1_545 S
Tb816 C880 2.833 . S
C817 C820 1.432 . S
C817 C821 1.414 . S
C817 N824 1.359 . S
C818 C820 1.417 . S
C818 C822 1.432 . S
C818 C830 1.410 1_545 S
C819 C821 1.444 . S
C819 C822 1.317 . S
C819 H842 0.929 . S
C820 C817 1.432 . S
C820 C818 1.417 . S
C820 N828 1.360 . S
C821 C817 1.414 . S
C821 C819 1.444 . S
C821 C826 1.385 . S
C822 C818 1.432 . S
C822 C819 1.317 . S
C822 H834 0.930 . S
C823 C825 1.392 . S
C823 C826 1.370 . S
C823 H835 0.931 . S
N824 C817 1.359 . S
N824 C825 1.327 . S
N824 Tb827 2.600 . S
C825 C823 1.392 . S
C825 N824 1.327 . S
C825 H832 0.930 . S
C826 C821 1.385 . S
C826 C823 1.370 . S
C826 H845 0.930 . S
Tb827 N824 2.600 . S
Tb827 N828 2.660 . S
Tb827 O861 2.362 1_556 S
Tb827 O862 2.421 1_556 S
Tb827 O866 2.546 . S
Tb827 O867 2.610 1_556 S
Tb827 O869 2.320 . S
Tb827 O870 2.552 . S
Tb827 O871 2.413 . S
Tb827 C891 2.833 . S
N828 C820 1.360 . S
N828 Tb827 2.660 . S
N828 C829 1.305 1_545 S
C829 N828 1.305 1_565 S
C829 C831 1.407 . S
C829 H836 0.930 . S
C830 C818 1.410 1_565 S
C830 C831 1.345 . S
C830 H838 0.930 . S
C831 C829 1.407 . S
C831 C830 1.345 . S
C831 H833 0.930 . S
H832 C825 0.930 . S
H833 C831 0.930 . S
H834 C822 0.930 . S
H835 C823 0.931 . S
H836 C829 0.930 . S
H837 C851 0.930 . S
H838 C830 0.930 . S
H839 C857 0.930 . S
H840 C848 0.930 . S
H841 C855 0.931 . S
H842 C819 0.929 . S
H843 C849 0.930 . S
H844 C882 0.930 . S
H845 C826 0.930 . S
H846 C881 0.929 . S
N847 Tb816 2.660 . S
N847 C848 1.305 . S
N847 C852 1.360 . S
C848 H840 0.930 . S
C848 N847 1.305 . S
C848 C851 1.407 . S
C849 H843 0.930 . S
C849 C850 1.410 . S
C849 C851 1.345 . S
C850 C849 1.410 . S
C850 C852 1.417 . S
C850 C882 1.432 . S
C851 H837 0.930 . S
C851 C848 1.407 . S
C851 C849 1.345 . S
C852 N847 1.360 . S
C852 C850 1.417 . S
C852 C856 1.432 . S
H853 C858 0.930 . S
N854 Tb816 2.600 . S
N854 C856 1.359 . S
N854 C857 1.327 1_545 S
C855 H841 0.931 . S
C855 C857 1.392 . S
C855 C858 1.370 . S
C856 C852 1.432 . S
C856 N854 1.359 . S
C856 C859 1.414 . S
C857 H839 0.930 . S
C857 N854 1.327 1_565 S
C857 C855 1.392 . S
C858 H853 0.930 . S
C858 C855 1.370 . S
C858 C859 1.385 1_565 S
C859 C856 1.414 . S
C859 C858 1.385 1_545 S
C859 C881 1.444 . S
O860 Tb816 2.546 1_565 S
O860 C880 1.251 1_565 S
O861 Tb816 2.610 . S
O861 Tb827 2.362 1_554 S
O861 C872 1.283 . S
O862 Tb827 2.421 1_554 S
O862 C879 1.262 . S
O863 Tb816 2.320 . S
O863 C879 1.260 . S
O864 Tb816 2.552 . S
O864 C872 1.243 . S
O865 Tb816 2.413 . S
O865 C880 1.256 . S
O866 Tb827 2.546 . S
O866 C891 1.251 . S
O867 Tb816 2.362 . S
O867 Tb827 2.610 1_554 S
O867 C883 1.283 . S
O868 Tb816 2.421 1_565 S
O868 C890 1.262 1_554 S
O869 Tb827 2.320 . S
O869 C890 1.260 1_545 S
O870 Tb827 2.552 . S
O870 C883 1.243 1_556 S
O871 Tb827 2.413 . S
O871 C891 1.256 . S
C872 O861 1.283 . S
C872 O864 1.243 . S
C873 C875 1.382 1_565 S
C873 C877 1.393 . S
C873 C880 1.500 1_565 S
C874 C875 1.400 . S
C874 C876 1.384 1_545 S
C875 C873 1.382 1_545 S
C875 C874 1.400 . S
C875 H892 0.930 . S
C876 C874 1.384 1_565 S
C876 C878 1.392 . S
C876 H893 0.931 . S
C877 C873 1.393 . S
C877 C878 1.401 . S
C877 H894 0.930 . S
C878 C876 1.392 . S
C878 C877 1.401 . S
C878 H895 0.930 . S
C879 O862 1.262 . S
C879 O863 1.260 . S
C880 Tb816 2.833 . S
C880 O860 1.251 1_545 S
C880 O865 1.256 . S
C880 C873 1.500 1_545 S
C881 H846 0.929 . S
C881 C859 1.444 . S
C881 C882 1.317 . S
C882 H844 0.930 . S
C882 C850 1.432 . S
C882 C881 1.317 . S
C883 O867 1.283 . S
C883 O870 1.243 1_554 S
C884 C885 1.382 . S
C884 C888 1.393 . S
C884 C891 1.500 . S
C885 C884 1.382 . S
C885 C886 1.400 . S
C885 H896 0.930 . S
C886 C885 1.400 . S
C886 C887 1.384 . S
C887 C886 1.384 . S
C887 C889 1.392 . S
C887 H897 0.931 . S
C888 C884 1.393 . S
C888 C889 1.401 . S
C888 H898 0.930 . S
C889 C887 1.392 . S
C889 C888 1.401 . S
C889 H899 0.930 . S
C890 O868 1.262 1_556 S
C890 O869 1.260 1_565 S
C891 Tb827 2.833 . S
C891 O866 1.251 . S
C891 O871 1.256 . S
C891 C884 1.500 . S
H892 C875 0.930 . S
H893 C876 0.931 . S
H894 C877 0.930 . S
H895 C878 0.930 . S
H896 C885 0.930 . S
H897 C887 0.931 . S
H898 C888 0.930 . S
H899 C889 0.930 . S
Tb900 N931 2.660 . S
Tb900 N938 2.600 . S
Tb900 O944 2.546 . S
Tb900 O945 2.610 . S
Tb900 O947 2.320 . S
Tb900 O948 2.552 . S
Tb900 O949 2.413 . S
Tb900 O951 2.362 . S
Tb900 O952 2.421 . S
Tb900 C964 2.833 . S
C901 C904 1.432 . S
C901 C905 1.414 . S
C901 N908 1.359 . S
C902 C904 1.417 . S
C902 C906 1.432 . S
C902 C914 1.410 . S
C903 C905 1.444 . S
C903 C906 1.317 . S
C903 H926 0.929 . S
C904 C901 1.432 . S
C904 C902 1.417 . S
C904 N912 1.360 . S
C905 C901 1.414 . S
C905 C903 1.444 . S
C905 C910 1.385 . S
C906 C902 1.432 . S
C906 C903 1.317 . S
C906 H918 0.930 . S
C907 C909 1.392 . S
C907 C910 1.370 . S
C907 H919 0.931 . S
N908 C901 1.359 . S
N908 C909 1.327 . S
N908 Tb911 2.600 . S
C909 C907 1.392 . S
C909 N908 1.327 . S
C909 H916 0.930 . S
C910 C905 1.385 . S
C910 C907 1.370 . S
C910 H929 0.930 . S
Tb911 N908 2.600 . S
Tb911 N912 2.660 . S
Tb911 O945 2.362 . S
Tb911 O946 2.421 . S
Tb911 O950 2.546 . S
Tb911 O951 2.610 . S
Tb911 O953 2.320 . S
Tb911 O954 2.552 . S
Tb911 O955 2.413 . S
Tb911 C975 2.833 . S
N912 C904 1.360 . S
N912 Tb911 2.660 . S
N912 C913 1.305 . S
C913 N912 1.305 . S
C913 C915 1.407 . S
C913 H920 0.930 . S
C914 C902 1.410 . S
C914 C915 1.345 . S
C914 H922 0.930 . S
C915 C913 1.407 . S
C915 C914 1.345 . S
C915 H917 0.930 . S
H916 C909 0.930 . S
H917 C915 0.930 . S
H918 C906 0.930 . S
H919 C907 0.931 . S
H920 C913 0.930 . S
H921 C935 0.930 . S
H922 C914 0.930 . S
H923 C941 0.930 . S
H924 C932 0.930 . S
H925 C939 0.931 . S
H926 C903 0.929 . S
H927 C933 0.930 . S
H928 C966 0.930 . S
H929 C910 0.930 . S
H930 C965 0.929 . S
N931 Tb900 2.660 . S
N931 C932 1.305 . S
N931 C936 1.360 . S
C932 H924 0.930 . S
C932 N931 1.305 . S
C932 C935 1.407 . S
C933 H927 0.930 . S
C933 C934 1.410 . S
C933 C935 1.345 . S
C934 C933 1.410 . S
C934 C936 1.417 . S
C934 C966 1.432 . S
C935 H921 0.930 . S
C935 C932 1.407 . S
C935 C933 1.345 . S
C936 N931 1.360 . S
C936 C934 1.417 . S
C936 C940 1.432 . S
H937 C942 0.930 . S
N938 Tb900 2.600 . S
N938 C940 1.359 . S
N938 C941 1.327 . S
C939 H925 0.931 . S
C939 C941 1.392 . S
C939 C942 1.370 . S
C940 C936 1.432 . S
C940 N938 1.359 . S
C940 C943 1.414 . S
C941 H923 0.930 . S
C941 N938 1.327 . S
C941 C939 1.392 . S
C942 H937 0.930 . S
C942 C939 1.370 . S
C942 C943 1.385 . S
C943 C940 1.414 . S
C943 C942 1.385 . S
C943 C965 1.444 . S
O944 Tb900 2.546 . S
O944 C964 1.251 . S
O945 Tb900 2.610 . S
O945 Tb911 2.362 . S
O945 C956 1.283 . S
O946 Tb911 2.421 . S
O946 C963 1.262 . S
O947 Tb900 2.320 . S
O947 C963 1.260 . S
O948 Tb900 2.552 . S
O948 C956 1.243 . S
O949 Tb900 2.413 . S
O949 C964 1.256 . S
O950 Tb911 2.546 . S
O950 C975 1.251 . S
O951 Tb900 2.362 . S
O951 Tb911 2.610 . S
O951 C967 1.283 . S
O952 Tb900 2.421 . S
O952 C974 1.262 . S
O953 Tb911 2.320 . S
O953 C974 1.260 . S
O954 Tb911 2.552 . S
O954 C967 1.243 . S
O955 Tb911 2.413 . S
O955 C975 1.256 . S
C956 O945 1.283 . S
C956 O948 1.243 . S
C957 C959 1.382 . S
C957 C961 1.393 . S
C957 C964 1.500 . S
C958 C959 1.400 . S
C958 C960 1.384 . S
C959 C957 1.382 . S
C959 C958 1.400 . S
C959 H976 0.930 . S
C960 C958 1.384 . S
C960 C962 1.392 . S
C960 H977 0.931 . S
C961 C957 1.393 . S
C961 C962 1.401 . S
C961 H978 0.930 . S
C962 C960 1.392 . S
C962 C961 1.401 . S
C962 H979 0.930 . S
C963 O946 1.262 . S
C963 O947 1.260 . S
C964 Tb900 2.833 . S
C964 O944 1.251 . S
C964 O949 1.256 . S
C964 C957 1.500 . S
C965 H930 0.929 . S
C965 C943 1.444 . S
C965 C966 1.317 . S
C966 H928 0.930 . S
C966 C934 1.432 . S
C966 C965 1.317 . S
C967 O951 1.283 . S
C967 O954 1.243 . S
C968 C969 1.382 . S
C968 C972 1.393 . S
C968 C975 1.500 . S
C969 C968 1.382 . S
C969 C970 1.400 . S
C969 H980 0.930 . S
C970 C969 1.400 . S
C970 C971 1.384 . S
C971 C970 1.384 . S
C971 C973 1.392 . S
C971 H981 0.931 . S
C972 C968 1.393 . S
C972 C973 1.401 . S
C972 H982 0.930 . S
C973 C971 1.392 . S
C973 C972 1.401 . S
C973 H983 0.930 . S
C974 O952 1.262 . S
C974 O953 1.260 . S
C975 Tb911 2.833 . S
C975 O950 1.251 . S
C975 O955 1.256 . S
C975 C968 1.500 . S
H976 C959 0.930 . S
H977 C960 0.931 . S
H978 C961 0.930 . S
H979 C962 0.930 . S
H980 C969 0.930 . S
H981 C971 0.931 . S
H982 C972 0.930 . S
H983 C973 0.930 . S
Tb984 N1015 2.660 . S
Tb984 N1022 2.600 . S
Tb984 O1028 2.546 . S
Tb984 O1029 2.610 1_554 S
Tb984 O1031 2.320 . S
Tb984 O1032 2.552 1_554 S
Tb984 O1033 2.413 . S
Tb984 O1035 2.362 . S
Tb984 O1036 2.421 . S
Tb984 C1048 2.833 . S
C985 C988 1.432 . S
C985 C989 1.414 . S
C985 N992 1.359 . S
C986 C988 1.417 . S
C986 C990 1.432 . S
C986 C998 1.410 . S
C987 C989 1.444 . S
C987 C990 1.317 . S
C987 H1010 0.929 . S
C988 C985 1.432 . S
C988 C986 1.417 . S
C988 N996 1.360 . S
C989 C985 1.414 . S
C989 C987 1.444 . S
C989 C994 1.385 . S
C990 C986 1.432 . S
C990 C987 1.317 . S
C990 H1002 0.930 . S
C991 C993 1.392 . S
C991 C994 1.370 . S
C991 H1003 0.931 . S
N992 C985 1.359 . S
N992 C993 1.327 . S
N992 Tb995 2.600 . S
C993 C991 1.392 . S
C993 N992 1.327 . S
C993 H1000 0.930 . S
C994 C989 1.385 . S
C994 C991 1.370 . S
C994 H1013 0.930 . S
Tb995 N992 2.600 . S
Tb995 N996 2.660 . S
Tb995 O1029 2.362 . S
Tb995 O1030 2.417 . S
Tb995 O1034 2.546 1_556 S
Tb995 O1035 2.610 1_556 S
Tb995 O1037 2.320 1_556 S
Tb995 O1038 2.552 1_556 S
Tb995 O1039 2.413 1_556 S
Tb995 C1059 2.833 1_556 S
N996 C988 1.360 . S
N996 Tb995 2.660 . S
N996 C997 1.305 . S
C997 N996 1.305 . S
C997 C999 1.407 . S
C997 H1004 0.930 . S
C998 C986 1.410 . S
C998 C999 1.345 . S
C998 H1006 0.930 . S
C999 C997 1.407 . S
C999 C998 1.345 . S
C999 H1001 0.930 . S
H1000 C993 0.930 . S
H1001 C999 0.930 . S
H1002 C990 0.930 . S
H1003 C991 0.931 . S
H1004 C997 0.930 . S
H1005 C1019 0.930 . S
H1006 C998 0.930 . S
H1007 C1025 0.930 . S
H1008 C1016 0.930 . S
H1009 C1023 0.931 . S
H1010 C987 0.929 . S
H1011 C1017 0.930 . S
H1012 C1050 0.930 . S
H1013 C994 0.930 . S
H1014 C1049 0.929 . S
N1015 Tb984 2.660 . S
N1015 C1016 1.305 . S
N1015 C1020 1.360 . S
C1016 H1008 0.930 . S
C1016 N1015 1.305 . S
C1016 C1019 1.407 . S
C1017 H1011 0.930 . S
C1017 C1018 1.410 . S
C1017 C1019 1.345 . S
C1018 C1017 1.410 . S
C1018 C1020 1.417 . S
C1018 C1050 1.432 . S
C1019 H1005 0.930 . S
C1019 C1016 1.407 . S
C1019 C1017 1.345 . S
C1020 N1015 1.360 . S
C1020 C1018 1.417 . S
C1020 C1024 1.432 . S
H1021 C1026 0.930 . S
N1022 Tb984 2.600 . S
N1022 C1024 1.359 . S
N1022 C1025 1.327 . S
C1023 H1009 0.931 . S
C1023 C1025 1.392 . S
C1023 C1026 1.370 . S
C1024 C1020 1.432 . S
C1024 N1022 1.359 . S
C1024 C1027 1.414 . S
C1025 H1007 0.930 . S
C1025 N1022 1.327 . S
C1025 C1023 1.392 . S
C1026 H1021 0.930 . S
C1026 C1023 1.370 . S
C1026 C1027 1.385 . S
C1027 C1024 1.414 . S
C1027 C1026 1.385 . S
C1027 C1049 1.444 . S
O1028 Tb984 2.546 . S
O1028 C1048 1.251 . S
O1029 Tb984 2.610 1_556 S
O1029 Tb995 2.362 . S
O1029 C1040 1.283 . S
O1030 Tb995 2.417 . S
O1030 C1047 1.262 . S
O1031 Tb984 2.320 . S
O1031 C1047 1.251 1_554 S
O1032 Tb984 2.552 1_556 S
O1032 C1040 1.243 . S
O1033 Tb984 2.413 . S
O1033 C1048 1.256 . S
O1034 Tb995 2.546 1_554 S
O1034 C1059 1.251 . S
O1035 Tb984 2.362 . S
O1035 Tb995 2.610 1_554 S
O1035 C1051 1.283 . S
O1036 Tb984 2.421 . S
O1036 C1058 1.262 . S
O1037 Tb995 2.320 1_554 S
O1037 C1058 1.260 . S
O1038 Tb995 2.552 1_554 S
O1038 C1051 1.243 . S
O1039 Tb995 2.413 1_554 S
O1039 C1059 1.256 . S
C1040 O1029 1.283 . S
C1040 O1032 1.243 . S
C1041 C1043 1.382 1_554 S
C1041 C1045 1.393 . S
C1041 C1048 1.500 . S
C1042 C1043 1.400 . S
C1042 C1044 1.384 . S
C1043 C1041 1.382 1_556 S
C1043 C1042 1.400 . S
C1043 H1060 0.930 . S
C1044 C1042 1.384 . S
C1044 C1046 1.392 1_556 S
C1044 H1061 0.931 . S
C1045 C1041 1.393 . S
C1045 C1046 1.401 . S
C1045 H1062 0.930 . S
C1046 C1044 1.392 1_554 S
C1046 C1045 1.401 . S
C1046 H1063 0.930 . S
C1047 O1030 1.262 . S
C1047 O1031 1.251 1_556 S
C1048 Tb984 2.833 . S
C1048 O1028 1.251 . S
C1048 O1033 1.256 . S
C1048 C1041 1.500 . S
C1049 H1014 0.929 . S
C1049 C1027 1.444 . S
C1049 C1050 1.317 . S
C1050 H1012 0.930 . S
C1050 C1018 1.432 . S
C1050 C1049 1.317 . S
C1051 O1035 1.283 . S
C1051 O1038 1.243 . S
C1052 C1053 1.382 . S
C1052 C1056 1.393 . S
C1052 C1059 1.500 . S
C1053 C1052 1.382 . S
C1053 C1054 1.400 . S
C1053 H1064 0.930 . S
C1054 C1053 1.400 . S
C1054 C1055 1.384 . S
C1055 C1054 1.384 . S
C1055 C1057 1.392 . S
C1055 H1065 0.931 . S
C1056 C1052 1.393 . S
C1056 C1057 1.401 . S
C1056 H1066 0.930 1_554 S
C1057 C1055 1.392 . S
C1057 C1056 1.401 . S
C1057 H1067 0.930 . S
C1058 O1036 1.262 . S
C1058 O1037 1.260 . S
C1059 Tb995 2.833 1_554 S
C1059 O1034 1.251 . S
C1059 O1039 1.256 . S
C1059 C1052 1.500 . S
H1060 C1043 0.930 . S
H1061 C1044 0.931 . S
H1062 C1045 0.930 . S
H1063 C1046 0.930 . S
H1064 C1053 0.930 . S
H1065 C1055 0.931 . S
H1066 C1056 0.930 1_556 S
H1067 C1057 0.930 . S
Tb1068 N1099 2.660 . S
Tb1068 N1106 2.600 . S
Tb1068 O1112 2.546 . S
Tb1068 O1113 2.610 . S
Tb1068 O1115 2.320 . S
Tb1068 O1116 2.552 . S
Tb1068 O1117 2.413 . S
Tb1068 O1119 2.362 . S
Tb1068 O1120 2.421 . S
Tb1068 C1132 2.833 . S
C1069 C1072 1.432 . S
C1069 C1073 1.414 . S
C1069 N1076 1.359 . S
C1070 C1072 1.417 . S
C1070 C1074 1.432 . S
C1070 C1082 1.410 . S
C1071 C1073 1.444 . S
C1071 C1074 1.317 . S
C1071 H1094 0.929 . S
C1072 C1069 1.432 . S
C1072 C1070 1.417 . S
C1072 N1080 1.360 . S
C1073 C1069 1.414 . S
C1073 C1071 1.444 . S
C1073 C1078 1.385 . S
C1074 C1070 1.432 . S
C1074 C1071 1.317 . S
C1074 H1086 0.930 . S
C1075 C1077 1.392 . S
C1075 C1078 1.370 . S
C1075 H1087 0.931 . S
N1076 C1069 1.359 . S
N1076 C1077 1.327 . S
N1076 Tb1079 2.600 . S
C1077 C1075 1.392 . S
C1077 N1076 1.327 . S
C1077 H1084 0.930 . S
C1078 C1073 1.385 . S
C1078 C1075 1.370 . S
C1078 H1097 0.930 . S
Tb1079 N1076 2.600 . S
Tb1079 N1080 2.660 . S
Tb1079 O1113 2.362 . S
Tb1079 O1114 2.421 . S
Tb1079 O1118 2.546 . S
Tb1079 O1119 2.610 . S
Tb1079 O1121 2.320 . S
Tb1079 O1122 2.552 . S
Tb1079 O1123 2.413 . S
Tb1079 C1143 2.833 . S
N1080 C1072 1.360 . S
N1080 Tb1079 2.660 . S
N1080 C1081 1.305 . S
C1081 N1080 1.305 . S
C1081 C1083 1.407 . S
C1081 H1088 0.930 . S
C1082 C1070 1.410 . S
C1082 C1083 1.345 . S
C1082 H1090 0.930 . S
C1083 C1081 1.407 . S
C1083 C1082 1.345 . S
C1083 H1085 0.930 . S
H1084 C1077 0.930 . S
H1085 C1083 0.930 . S
H1086 C1074 0.930 . S
H1087 C1075 0.931 . S
H1088 C1081 0.930 . S
H1089 C1103 0.930 . S
H1090 C1082 0.930 . S
H1091 C1109 0.930 . S
H1092 C1100 0.930 . S
H1093 C1107 0.931 . S
H1094 C1071 0.929 . S
H1095 C1101 0.930 . S
H1096 C1134 0.930 . S
H1097 C1078 0.930 . S
H1098 C1133 0.929 . S
N1099 Tb1068 2.660 . S
N1099 C1100 1.305 . S
N1099 C1104 1.360 . S
C1100 H1092 0.930 . S
C1100 N1099 1.305 . S
C1100 C1103 1.407 . S
C1101 H1095 0.930 . S
C1101 C1102 1.410 . S
C1101 C1103 1.345 . S
C1102 C1101 1.410 . S
C1102 C1104 1.417 . S
C1102 C1134 1.432 . S
C1103 H1089 0.930 . S
C1103 C1100 1.407 . S
C1103 C1101 1.345 . S
C1104 N1099 1.360 . S
C1104 C1102 1.417 . S
C1104 C1108 1.432 . S
H1105 C1110 0.930 . S
N1106 Tb1068 2.600 . S
N1106 C1108 1.359 . S
N1106 C1109 1.327 . S
C1107 H1093 0.931 . S
C1107 C1109 1.392 . S
C1107 C1110 1.370 . S
C1108 C1104 1.432 . S
C1108 N1106 1.359 . S
C1108 C1111 1.414 . S
C1109 H1091 0.930 . S
C1109 N1106 1.327 . S
C1109 C1107 1.392 . S
C1110 H1105 0.930 . S
C1110 C1107 1.370 . S
C1110 C1111 1.385 . S
C1111 C1108 1.414 . S
C1111 C1110 1.385 . S
C1111 C1133 1.444 . S
O1112 Tb1068 2.546 . S
O1112 C1132 1.251 . S
O1113 Tb1068 2.610 . S
O1113 Tb1079 2.362 . S
O1113 C1124 1.283 . S
O1114 Tb1079 2.421 . S
O1114 C1131 1.262 . S
O1115 Tb1068 2.320 . S
O1115 C1131 1.260 . S
O1116 Tb1068 2.552 . S
O1116 C1124 1.243 . S
O1117 Tb1068 2.413 . S
O1117 C1132 1.256 . S
O1118 Tb1079 2.546 . S
O1118 C1143 1.251 . S
O1119 Tb1068 2.362 . S
O1119 Tb1079 2.610 . S
O1119 C1135 1.283 . S
O1120 Tb1068 2.421 . S
O1120 C1142 1.262 . S
O1121 Tb1079 2.320 . S
O1121 C1142 1.260 . S
O1122 Tb1079 2.552 . S
O1122 C1135 1.243 . S
O1123 Tb1079 2.413 . S
O1123 C1143 1.256 . S
C1124 O1113 1.283 . S
C1124 O1116 1.243 . S
C1125 C1127 1.382 . S
C1125 C1129 1.393 . S
C1125 C1132 1.500 . S
C1126 C1127 1.400 1_455 S
C1126 C1128 1.384 . S
C1127 C1125 1.382 . S
C1127 C1126 1.400 1_655 S
C1127 H1144 0.930 . S
C1128 C1126 1.384 . S
C1128 C1130 1.392 . S
C1128 H1145 0.931 . S
C1129 C1125 1.393 . S
C1129 C1130 1.401 1_655 S
C1129 H1146 0.930 . S
C1130 C1128 1.392 . S
C1130 C1129 1.401 1_455 S
C1130 H1147 0.930 . S
C1131 O1114 1.262 . S
C1131 O1115 1.260 . S
C1132 Tb1068 2.833 . S
C1132 O1112 1.251 . S
C1132 O1117 1.256 . S
C1132 C1125 1.500 . S
C1133 H1098 0.929 . S
C1133 C1111 1.444 . S
C1133 C1134 1.317 . S
C1134 H1096 0.930 . S
C1134 C1102 1.432 . S
C1134 C1133 1.317 . S
C1135 O1119 1.283 . S
C1135 O1122 1.243 . S
C1136 C1137 1.382 . S
C1136 C1140 1.393 . S
C1136 C1143 1.500 . S
C1137 C1136 1.382 . S
C1137 C1138 1.400 . S
C1137 H1148 0.930 . S
C1138 C1137 1.400 . S
C1138 C1139 1.384 . S
C1139 C1138 1.384 . S
C1139 C1141 1.392 . S
C1139 H1149 0.931 . S
C1140 C1136 1.393 . S
C1140 C1141 1.401 . S
C1140 H1150 0.930 . S
C1141 C1139 1.392 . S
C1141 C1140 1.401 . S
C1141 H1151 0.930 . S
C1142 O1120 1.262 . S
C1142 O1121 1.260 . S
C1143 Tb1079 2.833 . S
C1143 O1118 1.251 . S
C1143 O1123 1.256 . S
C1143 C1136 1.500 . S
H1144 C1127 0.930 . S
H1145 C1128 0.931 . S
H1146 C1129 0.930 . S
H1147 C1130 0.930 . S
H1148 C1137 0.930 . S
H1149 C1139 0.931 . S
H1150 C1140 0.930 . S
H1151 C1141 0.930 . S
Tb1152 N1183 2.660 . S
Tb1152 N1190 2.600 . S
Tb1152 O1196 2.546 . S
Tb1152 O1197 2.610 . S
Tb1152 O1199 2.320 . S
Tb1152 O1200 2.552 . S
Tb1152 O1201 2.413 . S
Tb1152 O1203 2.362 . S
Tb1152 O1204 2.421 . S
Tb1152 C1216 2.833 . S
C1153 C1156 1.432 . S
C1153 C1157 1.414 . S
C1153 N1160 1.359 1_655 S
C1154 C1156 1.417 . S
C1154 C1158 1.432 . S
C1154 C1166 1.410 . S
C1155 C1157 1.444 . S
C1155 C1158 1.317 . S
C1155 H1178 0.929 . S
C1156 C1153 1.432 . S
C1156 C1154 1.417 . S
C1156 N1164 1.360 1_655 S
C1157 C1153 1.414 . S
C1157 C1155 1.444 . S
C1157 C1162 1.385 . S
C1158 C1154 1.432 . S
C1158 C1155 1.317 . S
C1158 H1170 0.930 . S
C1159 C1161 1.392 1_655 S
C1159 C1162 1.370 . S
C1159 H1171 0.927 . S
N1160 C1153 1.359 1_455 S
N1160 C1161 1.327 . S
N1160 Tb1163 2.600 . S
C1161 C1159 1.392 1_455 S
C1161 N1160 1.327 . S
C1161 H1168 0.930 . S
C1162 C1157 1.385 . S
C1162 C1159 1.370 . S
C1162 H1181 0.930 . S
Tb1163 N1160 2.600 . S
Tb1163 N1164 2.660 . S
Tb1163 O1197 2.362 . S
Tb1163 O1198 2.421 . S
Tb1163 O1202 2.546 . S
Tb1163 O1203 2.610 . S
Tb1163 O1205 2.320 . S
Tb1163 O1206 2.552 . S
Tb1163 O1207 2.413 . S
Tb1163 C1227 2.833 . S
N1164 C1156 1.360 1_455 S
N1164 Tb1163 2.660 . S
N1164 C1165 1.305 . S
C1165 N1164 1.305 . S
C1165 C1167 1.407 1_455 S
C1165 H1172 0.930 . S
C1166 C1154 1.410 . S
C1166 C1167 1.345 . S
C1166 H1174 0.930 . S
C1167 C1165 1.407 1_655 S
C1167 C1166 1.345 . S
C1167 H1169 0.930 . S
H1168 C1161 0.930 . S
H1169 C1167 0.930 . S
H1170 C1158 0.930 . S
H1171 C1159 0.927 . S
H1172 C1165 0.930 . S
H1173 C1187 0.930 . S
H1174 C1166 0.930 . S
H1175 C1193 0.930 . S
H1176 C1184 0.930 . S
H1177 C1191 0.931 . S
H1178 C1155 0.929 . S
H1179 C1185 0.930 . S
H1180 C1218 0.930 . S
H1181 C1162 0.930 . S
H1182 C1217 0.929 . S
N1183 Tb1152 2.660 . S
N1183 C1184 1.305 . S
N1183 C1188 1.360 . S
C1184 H1176 0.930 . S
C1184 N1183 1.305 . S
C1184 C1187 1.407 . S
C1185 H1179 0.930 . S
C1185 C1186 1.410 . S
C1185 C1187 1.345 . S
C1186 C1185 1.410 . S
C1186 C1188 1.417 . S
C1186 C1218 1.432 . S
C1187 H1173 0.930 . S
C1187 C1184 1.407 . S
C1187 C1185 1.345 . S
C1188 N1183 1.360 . S
C1188 C1186 1.417 . S
C1188 C1192 1.432 . S
H1189 C1194 0.930 . S
N1190 Tb1152 2.600 . S
N1190 C1192 1.359 . S
N1190 C1193 1.327 . S
C1191 H1177 0.931 . S
C1191 C1193 1.392 . S
C1191 C1194 1.370 . S
C1192 C1188 1.432 . S
C1192 N1190 1.359 . S
C1192 C1195 1.414 . S
C1193 H1175 0.930 . S
C1193 N1190 1.327 . S
C1193 C1191 1.392 . S
C1194 H1189 0.930 . S
C1194 C1191 1.370 . S
C1194 C1195 1.385 . S
C1195 C1192 1.414 . S
C1195 C1194 1.385 . S
C1195 C1217 1.444 . S
O1196 Tb1152 2.546 . S
O1196 C1216 1.251 . S
O1197 Tb1152 2.610 . S
O1197 Tb1163 2.362 . S
O1197 C1208 1.283 . S
O1198 Tb1163 2.421 . S
O1198 C1215 1.262 . S
O1199 Tb1152 2.320 . S
O1199 C1215 1.260 . S
O1200 Tb1152 2.552 . S
O1200 C1208 1.243 . S
O1201 Tb1152 2.413 . S
O1201 C1216 1.256 . S
O1202 Tb1163 2.546 . S
O1202 C1227 1.251 . S
O1203 Tb1152 2.362 . S
O1203 Tb1163 2.610 . S
O1203 C1219 1.283 . S
O1204 Tb1152 2.421 . S
O1204 C1226 1.262 . S
O1205 Tb1163 2.320 . S
O1205 C1226 1.260 . S
O1206 Tb1163 2.552 . S
O1206 C1219 1.243 . S
O1207 Tb1163 2.413 . S
O1207 C1227 1.256 . S
C1208 O1197 1.283 . S
C1208 O1200 1.243 . S
C1209 C1211 1.382 . S
C1209 C1213 1.393 . S
C1209 C1216 1.500 . S
C1210 C1211 1.400 1_655 S
C1210 C1212 1.384 . S
C1211 C1209 1.382 . S
C1211 C1210 1.400 1_455 S
C1211 H1228 0.930 . S
C1212 C1210 1.384 . S
C1212 C1214 1.392 1_655 S
C1212 H1229 0.931 . S
C1213 C1209 1.393 . S
C1213 C1214 1.401 . S
C1213 H1230 0.930 . S
C1214 C1212 1.392 1_455 S
C1214 C1213 1.401 . S
C1214 H1231 0.930 . S
C1215 O1198 1.262 . S
C1215 O1199 1.260 . S
C1216 Tb1152 2.833 . S
C1216 O1196 1.251 . S
C1216 O1201 1.256 . S
C1216 C1209 1.500 . S
C1217 H1182 0.929 . S
C1217 C1195 1.444 . S
C1217 C1218 1.317 . S
C1218 H1180 0.930 . S
C1218 C1186 1.432 . S
C1218 C1217 1.317 . S
C1219 O1203 1.283 . S
C1219 O1206 1.243 . S
C1220 C1221 1.382 . S
C1220 C1224 1.393 . S
C1220 C1227 1.500 . S
C1221 C1220 1.382 . S
C1221 C1222 1.400 . S
C1221 H1232 0.930 . S
C1222 C1221 1.400 . S
C1222 C1223 1.384 . S
C1223 C1222 1.384 . S
C1223 C1225 1.392 . S
C1223 H1233 0.931 . S
C1224 C1220 1.393 . S
C1224 C1225 1.401 . S
C1224 H1234 0.930 . S
C1225 C1223 1.392 . S
C1225 C1224 1.401 . S
C1225 H1235 0.930 . S
C1226 O1204 1.262 . S
C1226 O1205 1.260 . S
C1227 Tb1163 2.833 . S
C1227 O1202 1.251 . S
C1227 O1207 1.256 . S
C1227 C1220 1.500 . S
H1228 C1211 0.930 . S
H1229 C1212 0.931 . S
H1230 C1213 0.930 . S
H1231 C1214 0.930 . S
H1232 C1221 0.930 . S
H1233 C1223 0.931 . S
H1234 C1224 0.930 . S
H1235 C1225 0.930 . S
Tb1236 N1267 2.660 . S
Tb1236 N1274 2.600 . S
Tb1236 O1280 2.546 . S
Tb1236 O1281 2.610 . S
Tb1236 O1283 2.320 . S
Tb1236 O1284 2.552 . S
Tb1236 O1285 2.413 . S
Tb1236 O1287 2.362 . S
Tb1236 O1288 2.421 . S
Tb1236 C1300 2.833 . S
C1237 C1240 1.432 . S
C1237 C1241 1.414 . S
C1237 N1244 1.359 . S
C1238 C1240 1.417 . S
C1238 C1242 1.432 . S
C1238 C1250 1.410 . S
C1239 C1241 1.444 . S
C1239 C1242 1.317 . S
C1239 H1262 0.929 . S
C1240 C1237 1.432 . S
C1240 C1238 1.417 . S
C1240 N1248 1.360 . S
C1241 C1237 1.414 . S
C1241 C1239 1.444 . S
C1241 C1246 1.385 . S
C1242 C1238 1.432 . S
C1242 C1239 1.317 . S
C1242 H1254 0.930 . S
C1243 C1245 1.392 . S
C1243 C1246 1.370 . S
C1243 H1255 0.931 . S
N1244 C1237 1.359 . S
N1244 C1245 1.327 . S
N1244 Tb1247 2.600 . S
C1245 C1243 1.392 . S
C1245 N1244 1.327 . S
C1245 H1252 0.930 . S
C1246 C1241 1.385 . S
C1246 C1243 1.370 . S
C1246 H1265 0.930 . S
Tb1247 N1244 2.600 . S
Tb1247 N1248 2.660 . S
Tb1247 O1281 2.362 . S
Tb1247 O1282 2.421 . S
Tb1247 O1286 2.546 . S
Tb1247 O1287 2.610 . S
Tb1247 O1289 2.320 . S
Tb1247 O1290 2.552 . S
Tb1247 O1291 2.413 . S
Tb1247 C1311 2.833 . S
N1248 C1240 1.360 . S
N1248 Tb1247 2.660 . S
N1248 C1249 1.305 . S
C1249 N1248 1.305 . S
C1249 C1251 1.407 . S
C1249 H1256 0.930 . S
C1250 C1238 1.410 . S
C1250 C1251 1.345 . S
C1250 H1258 0.930 . S
C1251 C1249 1.407 . S
C1251 C1250 1.345 . S
C1251 H1253 0.930 . S
H1252 C1245 0.930 . S
H1253 C1251 0.930 . S
H1254 C1242 0.930 . S
H1255 C1243 0.931 . S
H1256 C1249 0.930 . S
H1257 C1271 0.930 . S
H1258 C1250 0.930 . S
H1259 C1277 0.930 . S
H1260 C1268 0.930 . S
H1261 C1275 0.931 . S
H1262 C1239 0.929 . S
H1263 C1269 0.930 . S
H1264 C1302 0.930 . S
H1265 C1246 0.930 . S
H1266 C1301 0.929 . S
N1267 Tb1236 2.660 . S
N1267 C1268 1.305 . S
N1267 C1272 1.360 . S
C1268 H1260 0.930 . S
C1268 N1267 1.305 . S
C1268 C1271 1.407 . S
C1269 H1263 0.930 . S
C1269 C1270 1.410 . S
C1269 C1271 1.345 . S
C1270 C1269 1.410 . S
C1270 C1272 1.417 . S
C1270 C1302 1.432 . S
C1271 H1257 0.930 . S
C1271 C1268 1.407 . S
C1271 C1269 1.345 . S
C1272 N1267 1.360 . S
C1272 C1270 1.417 . S
C1272 C1276 1.432 . S
H1273 C1278 0.930 . S
N1274 Tb1236 2.600 . S
N1274 C1276 1.359 . S
N1274 C1277 1.327 . S
C1275 H1261 0.931 . S
C1275 C1277 1.392 . S
C1275 C1278 1.370 . S
C1276 C1272 1.432 . S
C1276 N1274 1.359 . S
C1276 C1279 1.414 . S
C1277 H1259 0.930 . S
C1277 N1274 1.327 . S
C1277 C1275 1.392 . S
C1278 H1273 0.930 . S
C1278 C1275 1.370 . S
C1278 C1279 1.385 . S
C1279 C1276 1.414 . S
C1279 C1278 1.385 . S
C1279 C1301 1.444 . S
O1280 Tb1236 2.546 . S
O1280 C1300 1.251 . S
O1281 Tb1236 2.610 . S
O1281 Tb1247 2.362 . S
O1281 C1292 1.283 . S
O1282 Tb1247 2.421 . S
O1282 C1299 1.262 . S
O1283 Tb1236 2.320 . S
O1283 C1299 1.260 . S
O1284 Tb1236 2.552 . S
O1284 C1292 1.243 . S
O1285 Tb1236 2.413 . S
O1285 C1300 1.256 . S
O1286 Tb1247 2.546 . S
O1286 C1311 1.251 . S
O1287 Tb1236 2.362 . S
O1287 Tb1247 2.610 . S
O1287 C1303 1.283 . S
O1288 Tb1236 2.421 . S
O1288 C1310 1.262 . S
O1289 Tb1247 2.320 . S
O1289 C1310 1.260 . S
O1290 Tb1247 2.552 . S
O1290 C1303 1.243 . S
O1291 Tb1247 2.413 . S
O1291 C1311 1.256 . S
C1292 O1281 1.283 . S
C1292 O1284 1.243 . S
C1293 C1295 1.382 . S
C1293 C1297 1.393 . S
C1293 C1300 1.500 . S
C1294 C1295 1.400 . S
C1294 C1296 1.384 . S
C1295 C1293 1.382 . S
C1295 C1294 1.400 . S
C1295 H1312 0.930 . S
C1296 C1294 1.384 . S
C1296 C1298 1.392 . S
C1296 H1313 0.931 . S
C1297 C1293 1.393 . S
C1297 C1298 1.401 . S
C1297 H1314 0.930 . S
C1298 C1296 1.392 . S
C1298 C1297 1.401 . S
C1298 H1315 0.930 . S
C1299 O1282 1.262 . S
C1299 O1283 1.260 . S
C1300 Tb1236 2.833 . S
C1300 O1280 1.251 . S
C1300 O1285 1.256 . S
C1300 C1293 1.500 . S
C1301 H1266 0.929 . S
C1301 C1279 1.444 . S
C1301 C1302 1.317 . S
C1302 H1264 0.930 . S
C1302 C1270 1.432 . S
C1302 C1301 1.317 . S
C1303 O1287 1.283 . S
C1303 O1290 1.243 . S
C1304 C1305 1.382 . S
C1304 C1308 1.393 . S
C1304 C1311 1.500 . S
C1305 C1304 1.382 . S
C1305 C1306 1.400 . S
C1305 H1316 0.930 . S
C1306 C1305 1.400 . S
C1306 C1307 1.384 . S
C1307 C1306 1.384 . S
C1307 C1309 1.392 . S
C1307 H1317 0.922 1_655 S
C1308 C1304 1.393 . S
C1308 C1309 1.401 . S
C1308 H1318 0.930 . S
C1309 C1307 1.392 . S
C1309 C1308 1.401 . S
C1309 H1319 0.930 . S
C1310 O1288 1.262 . S
C1310 O1289 1.260 . S
C1311 Tb1247 2.833 . S
C1311 O1286 1.251 . S
C1311 O1291 1.256 . S
C1311 C1304 1.500 . S
H1312 C1295 0.930 . S
H1313 C1296 0.931 . S
H1314 C1297 0.930 . S
H1315 C1298 0.930 . S
H1316 C1305 0.930 . S
H1317 C1307 0.922 1_455 S
H1318 C1308 0.930 . S
H1319 C1309 0.930 . S
Tb1320 N1351 2.660 . S
Tb1320 N1358 2.600 . S
Tb1320 O1364 2.546 . S
Tb1320 O1365 2.610 . S
Tb1320 O1367 2.320 . S
Tb1320 O1368 2.552 . S
Tb1320 O1369 2.413 . S
Tb1320 O1371 2.362 . S
Tb1320 O1372 2.421 . S
Tb1320 C1384 2.833 . S
C1321 C1324 1.432 . S
C1321 C1325 1.414 . S
C1321 N1328 1.359 . S
C1322 C1324 1.417 . S
C1322 C1326 1.432 . S
C1322 C1334 1.410 . S
C1323 C1325 1.444 . S
C1323 C1326 1.317 . S
C1323 H1346 0.929 . S
C1324 C1321 1.432 . S
C1324 C1322 1.417 . S
C1324 N1332 1.360 . S
C1325 C1321 1.414 . S
C1325 C1323 1.444 . S
C1325 C1330 1.385 . S
C1326 C1322 1.432 . S
C1326 C1323 1.317 . S
C1326 H1338 0.930 . S
C1327 C1329 1.392 . S
C1327 C1330 1.370 . S
C1327 H1339 0.931 . S
N1328 C1321 1.359 . S
N1328 C1329 1.327 . S
N1328 Tb1331 2.600 . S
C1329 C1327 1.392 . S
C1329 N1328 1.327 . S
C1329 H1336 0.930 . S
C1330 C1325 1.385 . S
C1330 C1327 1.370 . S
C1330 H1349 0.930 . S
Tb1331 N1328 2.600 . S
Tb1331 N1332 2.660 . S
Tb1331 O1365 2.362 . S
Tb1331 O1366 2.421 . S
Tb1331 O1370 2.546 . S
Tb1331 O1371 2.610 . S
Tb1331 O1373 2.320 . S
Tb1331 O1374 2.552 . S
Tb1331 O1375 2.413 . S
Tb1331 C1395 2.833 . S
N1332 C1324 1.360 . S
N1332 Tb1331 2.660 . S
N1332 C1333 1.305 . S
C1333 N1332 1.305 . S
C1333 C1335 1.407 . S
C1333 H1340 0.930 . S
C1334 C1322 1.410 . S
C1334 C1335 1.345 . S
C1334 H1342 0.930 . S
C1335 C1333 1.407 . S
C1335 C1334 1.345 . S
C1335 H1337 0.930 . S
H1336 C1329 0.930 . S
H1337 C1335 0.930 . S
H1338 C1326 0.930 . S
H1339 C1327 0.931 . S
H1340 C1333 0.930 . S
H1341 C1355 0.930 . S
H1342 C1334 0.930 . S
H1343 C1361 0.930 . S
H1344 C1352 0.930 . S
H1345 C1359 0.931 . S
H1346 C1323 0.929 . S
H1347 C1353 0.930 . S
H1348 C1386 0.930 . S
H1349 C1330 0.930 . S
H1350 C1385 0.929 . S
N1351 Tb1320 2.660 . S
N1351 C1352 1.305 . S
N1351 C1356 1.360 . S
C1352 H1344 0.930 . S
C1352 N1351 1.305 . S
C1352 C1355 1.407 . S
C1353 H1347 0.930 . S
C1353 C1354 1.410 . S
C1353 C1355 1.345 . S
C1354 C1353 1.410 . S
C1354 C1356 1.417 . S
C1354 C1386 1.432 . S
C1355 H1341 0.930 . S
C1355 C1352 1.407 . S
C1355 C1353 1.345 . S
C1356 N1351 1.360 . S
C1356 C1354 1.417 . S
C1356 C1360 1.432 . S
H1357 C1362 0.930 . S
N1358 Tb1320 2.600 . S
N1358 C1360 1.359 . S
N1358 C1361 1.327 . S
C1359 H1345 0.931 . S
C1359 C1361 1.392 . S
C1359 C1362 1.370 . S
C1360 C1356 1.432 . S
C1360 N1358 1.359 . S
C1360 C1363 1.414 . S
C1361 H1343 0.930 . S
C1361 N1358 1.327 . S
C1361 C1359 1.392 . S
C1362 H1357 0.930 . S
C1362 C1359 1.370 . S
C1362 C1363 1.385 . S
C1363 C1360 1.414 . S
C1363 C1362 1.385 . S
C1363 C1385 1.444 . S
O1364 Tb1320 2.546 . S
O1364 C1384 1.251 . S
O1365 Tb1320 2.610 . S
O1365 Tb1331 2.362 . S
O1365 C1376 1.283 . S
O1366 Tb1331 2.421 . S
O1366 C1383 1.262 . S
O1367 Tb1320 2.320 . S
O1367 C1383 1.260 . S
O1368 Tb1320 2.552 . S
O1368 C1376 1.243 . S
O1369 Tb1320 2.413 . S
O1369 C1384 1.256 . S
O1370 Tb1331 2.546 . S
O1370 C1395 1.251 . S
O1371 Tb1320 2.362 . S
O1371 Tb1331 2.610 . S
O1371 C1387 1.283 . S
O1372 Tb1320 2.421 . S
O1372 C1394 1.262 . S
O1373 Tb1331 2.320 . S
O1373 C1394 1.260 . S
O1374 Tb1331 2.552 . S
O1374 C1387 1.243 . S
O1375 Tb1331 2.413 . S
O1375 C1395 1.256 . S
C1376 O1365 1.283 . S
C1376 O1368 1.243 . S
C1377 C1379 1.382 . S
C1377 C1381 1.393 . S
C1377 C1384 1.500 . S
C1378 C1379 1.400 . S
C1378 C1380 1.384 . S
C1379 C1377 1.382 . S
C1379 C1378 1.400 . S
C1379 H1396 0.930 . S
C1380 C1378 1.384 . S
C1380 C1382 1.392 . S
C1380 H1397 0.931 . S
C1381 C1377 1.393 . S
C1381 C1382 1.401 . S
C1381 H1398 0.930 . S
C1382 C1380 1.392 . S
C1382 C1381 1.401 . S
C1382 H1399 0.930 . S
C1383 O1366 1.262 . S
C1383 O1367 1.260 . S
C1384 Tb1320 2.833 . S
C1384 O1364 1.251 . S
C1384 O1369 1.256 . S
C1384 C1377 1.500 . S
C1385 H1350 0.929 . S
C1385 C1363 1.444 . S
C1385 C1386 1.317 . S
C1386 H1348 0.930 . S
C1386 C1354 1.432 . S
C1386 C1385 1.317 . S
C1387 O1371 1.283 . S
C1387 O1374 1.243 . S
C1388 C1389 1.382 . S
C1388 C1392 1.393 . S
C1388 C1395 1.500 . S
C1389 C1388 1.382 . S
C1389 C1390 1.400 . S
C1389 H1400 0.930 . S
C1390 C1389 1.400 . S
C1390 C1391 1.384 . S
C1391 C1390 1.384 . S
C1391 C1393 1.392 . S
C1391 H1401 0.931 . S
C1392 C1388 1.393 . S
C1392 C1393 1.401 . S
C1392 H1402 0.930 . S
C1393 C1391 1.392 . S
C1393 C1392 1.401 . S
C1393 H1403 0.930 . S
C1394 O1372 1.262 . S
C1394 O1373 1.260 . S
C1395 Tb1331 2.833 . S
C1395 O1370 1.251 . S
C1395 O1375 1.256 . S
C1395 C1388 1.500 . S
H1396 C1379 0.930 . S
H1397 C1380 0.931 . S
H1398 C1381 0.930 . S
H1399 C1382 0.930 . S
H1400 C1389 0.930 . S
H1401 C1391 0.931 . S
H1402 C1392 0.930 . S
H1403 C1393 0.930 . S
Tb1404 N1435 2.660 . S
Tb1404 N1442 2.600 . S
Tb1404 O1448 2.546 . S
Tb1404 O1449 2.610 . S
Tb1404 O1451 2.320 . S
Tb1404 O1452 2.552 . S
Tb1404 O1453 2.413 . S
Tb1404 O1455 2.362 . S
Tb1404 O1456 2.421 . S
Tb1404 C1468 2.833 . S
C1405 C1408 1.432 . S
C1405 C1409 1.414 . S
C1405 N1412 1.359 . S
C1406 C1408 1.417 . S
C1406 C1410 1.432 . S
C1406 C1418 1.410 . S
C1407 C1409 1.444 . S
C1407 C1410 1.317 . S
C1407 H1430 0.929 . S
C1408 C1405 1.432 . S
C1408 C1406 1.417 . S
C1408 N1416 1.360 . S
C1409 C1405 1.414 . S
C1409 C1407 1.444 . S
C1409 C1414 1.385 . S
C1410 C1406 1.432 . S
C1410 C1407 1.317 . S
C1410 H1422 0.930 . S
C1411 C1413 1.392 . S
C1411 C1414 1.370 . S
C1411 H1423 0.931 . S
N1412 C1405 1.359 . S
N1412 C1413 1.327 . S
N1412 Tb1415 2.600 . S
C1413 C1411 1.392 . S
C1413 N1412 1.327 . S
C1413 H1420 0.930 . S
C1414 C1409 1.385 . S
C1414 C1411 1.370 . S
C1414 H1433 0.930 . S
Tb1415 N1412 2.600 . S
Tb1415 N1416 2.660 . S
Tb1415 O1449 2.362 . S
Tb1415 O1450 2.421 . S
Tb1415 O1454 2.546 . S
Tb1415 O1455 2.610 . S
Tb1415 O1457 2.320 . S
Tb1415 O1458 2.552 . S
Tb1415 O1459 2.413 . S
Tb1415 C1479 2.833 . S
N1416 C1408 1.360 . S
N1416 Tb1415 2.660 . S
N1416 C1417 1.305 . S
C1417 N1416 1.305 . S
C1417 C1419 1.407 . S
C1417 H1424 0.930 . S
C1418 C1406 1.410 . S
C1418 C1419 1.345 . S
C1418 H1426 0.930 . S
C1419 C1417 1.407 . S
C1419 C1418 1.345 . S
C1419 H1421 0.930 . S
H1420 C1413 0.930 . S
H1421 C1419 0.930 . S
H1422 C1410 0.930 . S
H1423 C1411 0.931 . S
H1424 C1417 0.930 . S
H1425 C1439 0.930 . S
H1426 C1418 0.930 . S
H1427 C1445 0.930 . S
H1428 C1436 0.930 . S
H1429 C1443 0.931 . S
H1430 C1407 0.929 . S
H1431 C1437 0.930 . S
H1432 C1470 0.930 . S
H1433 C1414 0.930 . S
H1434 C1469 0.929 . S
N1435 Tb1404 2.660 . S
N1435 C1436 1.305 . S
N1435 C1440 1.360 . S
C1436 H1428 0.930 . S
C1436 N1435 1.305 . S
C1436 C1439 1.407 . S
C1437 H1431 0.930 . S
C1437 C1438 1.410 . S
C1437 C1439 1.345 . S
C1438 C1437 1.410 . S
C1438 C1440 1.417 . S
C1438 C1470 1.432 . S
C1439 H1425 0.930 . S
C1439 C1436 1.407 . S
C1439 C1437 1.345 . S
C1440 N1435 1.360 . S
C1440 C1438 1.417 . S
C1440 C1444 1.432 . S
H1441 C1446 0.930 . S
N1442 Tb1404 2.600 . S
N1442 C1444 1.359 . S
N1442 C1445 1.327 . S
C1443 H1429 0.931 . S
C1443 C1445 1.392 . S
C1443 C1446 1.370 . S
C1444 C1440 1.432 . S
C1444 N1442 1.359 . S
C1444 C1447 1.414 . S
C1445 H1427 0.930 . S
C1445 N1442 1.327 . S
C1445 C1443 1.392 . S
C1446 H1441 0.930 . S
C1446 C1443 1.370 . S
C1446 C1447 1.385 . S
C1447 C1444 1.414 . S
C1447 C1446 1.385 . S
C1447 C1469 1.444 . S
O1448 Tb1404 2.546 . S
O1448 C1468 1.251 . S
O1449 Tb1404 2.610 . S
O1449 Tb1415 2.362 . S
O1449 C1460 1.283 . S
O1450 Tb1415 2.421 . S
O1450 C1467 1.262 . S
O1451 Tb1404 2.320 . S
O1451 C1467 1.260 . S
O1452 Tb1404 2.552 . S
O1452 C1460 1.243 . S
O1453 Tb1404 2.413 . S
O1453 C1468 1.256 . S
O1454 Tb1415 2.546 . S
O1454 C1479 1.251 . S
O1455 Tb1404 2.362 . S
O1455 Tb1415 2.610 . S
O1455 C1471 1.283 . S
O1456 Tb1404 2.421 . S
O1456 C1478 1.262 . S
O1457 Tb1415 2.320 . S
O1457 C1478 1.260 . S
O1458 Tb1415 2.552 . S
O1458 C1471 1.243 . S
O1459 Tb1415 2.413 . S
O1459 C1479 1.256 . S
C1460 O1449 1.283 . S
C1460 O1452 1.243 . S
C1461 C1463 1.382 . S
C1461 C1465 1.393 . S
C1461 C1468 1.500 . S
C1462 C1463 1.400 . S
C1462 C1464 1.384 . S
C1463 C1461 1.382 . S
C1463 C1462 1.400 . S
C1463 H1480 0.930 . S
C1464 C1462 1.384 . S
C1464 C1466 1.392 . S
C1464 H1481 0.931 . S
C1465 C1461 1.393 . S
C1465 C1466 1.401 . S
C1465 H1482 0.930 . S
C1466 C1464 1.392 . S
C1466 C1465 1.401 . S
C1466 H1483 0.930 . S
C1467 O1450 1.262 . S
C1467 O1451 1.260 . S
C1468 Tb1404 2.833 . S
C1468 O1448 1.251 . S
C1468 O1453 1.256 . S
C1468 C1461 1.500 . S
C1469 H1434 0.929 . S
C1469 C1447 1.444 . S
C1469 C1470 1.317 . S
C1470 H1432 0.930 . S
C1470 C1438 1.432 . S
C1470 C1469 1.317 . S
C1471 O1455 1.283 . S
C1471 O1458 1.243 . S
C1472 C1473 1.382 . S
C1472 C1476 1.393 . S
C1472 C1479 1.500 . S
C1473 C1472 1.382 . S
C1473 C1474 1.400 . S
C1473 H1484 0.930 . S
C1474 C1473 1.400 . S
C1474 C1475 1.384 . S
C1475 C1474 1.384 . S
C1475 C1477 1.392 . S
C1475 H1485 0.931 . S
C1476 C1472 1.393 . S
C1476 C1477 1.401 . S
C1476 H1486 0.930 . S
C1477 C1475 1.392 . S
C1477 C1476 1.401 . S
C1477 H1487 0.930 . S
C1478 O1456 1.262 . S
C1478 O1457 1.260 . S
C1479 Tb1415 2.833 . S
C1479 O1454 1.251 . S
C1479 O1459 1.256 . S
C1479 C1472 1.500 . S
H1480 C1463 0.930 . S
H1481 C1464 0.931 . S
H1482 C1465 0.930 . S
H1483 C1466 0.930 . S
H1484 C1473 0.930 . S
H1485 C1475 0.931 . S
H1486 C1476 0.930 . S
H1487 C1477 0.930 . S
Tb1488 N1519 2.660 . S
Tb1488 N1526 2.600 . S
Tb1488 O1532 2.546 . S
Tb1488 O1533 2.610 . S
Tb1488 O1535 2.320 . S
Tb1488 O1536 2.552 . S
Tb1488 O1537 2.413 . S
Tb1488 O1539 2.362 . S
Tb1488 O1540 2.421 . S
Tb1488 C1552 2.833 . S
C1489 C1492 1.432 . S
C1489 C1493 1.414 . S
C1489 N1496 1.359 . S
C1490 C1492 1.417 . S
C1490 C1494 1.432 . S
C1490 C1502 1.410 . S
C1491 C1493 1.444 . S
C1491 C1494 1.317 . S
C1491 H1514 0.929 . S
C1492 C1489 1.432 . S
C1492 C1490 1.417 . S
C1492 N1500 1.360 . S
C1493 C1489 1.414 . S
C1493 C1491 1.444 . S
C1493 C1498 1.385 . S
C1494 C1490 1.432 . S
C1494 C1491 1.317 . S
C1494 H1506 0.930 . S
C1495 C1497 1.392 . S
C1495 C1498 1.370 . S
C1495 H1507 0.931 . S
N1496 C1489 1.359 . S
N1496 C1497 1.327 . S
N1496 Tb1499 2.600 . S
C1497 C1495 1.392 . S
C1497 N1496 1.327 . S
C1497 H1504 0.930 . S
C1498 C1493 1.385 . S
C1498 C1495 1.370 . S
C1498 H1517 0.930 . S
Tb1499 N1496 2.600 . S
Tb1499 N1500 2.660 . S
Tb1499 O1533 2.362 . S
Tb1499 O1534 2.421 . S
Tb1499 O1538 2.546 . S
Tb1499 O1539 2.610 . S
Tb1499 O1541 2.320 . S
Tb1499 O1542 2.552 . S
Tb1499 O1543 2.413 . S
Tb1499 C1563 2.833 . S
N1500 C1492 1.360 . S
N1500 Tb1499 2.660 . S
N1500 C1501 1.305 . S
C1501 N1500 1.305 . S
C1501 C1503 1.407 . S
C1501 H1508 0.930 . S
C1502 C1490 1.410 . S
C1502 C1503 1.345 . S
C1502 H1510 0.930 . S
C1503 C1501 1.407 . S
C1503 C1502 1.345 . S
C1503 H1505 0.930 . S
H1504 C1497 0.930 . S
H1505 C1503 0.930 . S
H1506 C1494 0.930 . S
H1507 C1495 0.931 . S
H1508 C1501 0.930 . S
H1509 C1523 0.930 . S
H1510 C1502 0.930 . S
H1511 C1529 0.930 . S
H1512 C1520 0.930 . S
H1513 C1527 0.931 . S
H1514 C1491 0.929 . S
H1515 C1521 0.930 . S
H1516 C1554 0.930 . S
H1517 C1498 0.930 . S
H1518 C1553 0.929 . S
N1519 Tb1488 2.660 . S
N1519 C1520 1.305 . S
N1519 C1524 1.360 . S
C1520 H1512 0.930 . S
C1520 N1519 1.305 . S
C1520 C1523 1.407 . S
C1521 H1515 0.930 . S
C1521 C1522 1.410 . S
C1521 C1523 1.345 . S
C1522 C1521 1.410 . S
C1522 C1524 1.417 . S
C1522 C1554 1.432 . S
C1523 H1509 0.930 . S
C1523 C1520 1.407 . S
C1523 C1521 1.345 . S
C1524 N1519 1.360 . S
C1524 C1522 1.417 . S
C1524 C1528 1.432 . S
H1525 C1530 0.930 . S
N1526 Tb1488 2.600 . S
N1526 C1528 1.359 . S
N1526 C1529 1.327 . S
C1527 H1513 0.931 . S
C1527 C1529 1.392 . S
C1527 C1530 1.370 . S
C1528 C1524 1.432 . S
C1528 N1526 1.359 . S
C1528 C1531 1.414 . S
C1529 H1511 0.930 . S
C1529 N1526 1.327 . S
C1529 C1527 1.392 . S
C1530 H1525 0.930 . S
C1530 C1527 1.370 . S
C1530 C1531 1.385 . S
C1531 C1528 1.414 . S
C1531 C1530 1.385 . S
C1531 C1553 1.444 . S
O1532 Tb1488 2.546 . S
O1532 C1552 1.251 . S
O1533 Tb1488 2.610 . S
O1533 Tb1499 2.362 . S
O1533 C1544 1.283 . S
O1534 Tb1499 2.421 . S
O1534 C1551 1.262 . S
O1535 Tb1488 2.320 . S
O1535 C1551 1.260 . S
O1536 Tb1488 2.552 . S
O1536 C1544 1.243 . S
O1537 Tb1488 2.413 . S
O1537 C1552 1.256 . S
O1538 Tb1499 2.546 . S
O1538 C1563 1.251 . S
O1539 Tb1488 2.362 . S
O1539 Tb1499 2.610 . S
O1539 C1555 1.283 . S
O1540 Tb1488 2.421 . S
O1540 C1562 1.262 . S
O1541 Tb1499 2.320 . S
O1541 C1562 1.260 . S
O1542 Tb1499 2.552 . S
O1542 C1555 1.243 . S
O1543 Tb1499 2.413 . S
O1543 C1563 1.256 . S
C1544 O1533 1.283 . S
C1544 O1536 1.243 . S
C1545 C1547 1.382 . S
C1545 C1549 1.393 . S
C1545 C1552 1.500 . S
C1546 C1547 1.400 . S
C1546 C1548 1.384 . S
C1547 C1545 1.382 . S
C1547 C1546 1.400 . S
C1547 H1564 0.930 . S
C1548 C1546 1.384 . S
C1548 C1550 1.392 . S
C1548 H1565 0.931 . S
C1549 C1545 1.393 . S
C1549 C1550 1.401 . S
C1549 H1566 0.930 . S
C1550 C1548 1.392 . S
C1550 C1549 1.401 . S
C1550 H1567 0.930 . S
C1551 O1534 1.262 . S
C1551 O1535 1.260 . S
C1552 Tb1488 2.833 . S
C1552 O1532 1.251 . S
C1552 O1537 1.256 . S
C1552 C1545 1.500 . S
C1553 H1518 0.929 . S
C1553 C1531 1.444 . S
C1553 C1554 1.317 . S
C1554 H1516 0.930 . S
C1554 C1522 1.432 . S
C1554 C1553 1.317 . S
C1555 O1539 1.283 . S
C1555 O1542 1.243 . S
C1556 C1557 1.382 . S
C1556 C1560 1.393 . S
C1556 C1563 1.500 . S
C1557 C1556 1.382 . S
C1557 C1558 1.400 . S
C1557 H1568 0.930 . S
C1558 C1557 1.400 . S
C1558 C1559 1.384 . S
C1559 C1558 1.384 . S
C1559 C1561 1.392 . S
C1559 H1569 0.931 . S
C1560 C1556 1.393 . S
C1560 C1561 1.401 . S
C1560 H1570 0.930 . S
C1561 C1559 1.392 . S
C1561 C1560 1.401 . S
C1561 H1571 0.930 . S
C1562 O1540 1.262 . S
C1562 O1541 1.260 . S
C1563 Tb1499 2.833 . S
C1563 O1538 1.251 . S
C1563 O1543 1.256 . S
C1563 C1556 1.500 . S
H1564 C1547 0.930 . S
H1565 C1548 0.931 . S
H1566 C1549 0.930 . S
H1567 C1550 0.930 . S
H1568 C1557 0.930 . S
H1569 C1559 0.931 . S
H1570 C1560 0.930 . S
H1571 C1561 0.930 . S
Tb1572 N1603 2.660 . S
Tb1572 N1610 2.600 1_554 S
Tb1572 O1616 2.546 1_554 S
Tb1572 O1617 2.610 . S
Tb1572 O1619 2.320 . S
Tb1572 O1620 2.552 . S
Tb1572 O1621 2.413 . S
Tb1572 O1623 2.362 . S
Tb1572 O1624 2.421 1_554 S
Tb1572 C1636 2.833 1_554 S
C1573 C1576 1.432 . S
C1573 C1577 1.414 . S
C1573 N1580 1.359 1_655 S
C1574 C1576 1.417 . S
C1574 C1578 1.432 . S
C1574 C1586 1.410 . S
C1575 C1577 1.444 . S
C1575 C1578 1.317 . S
C1575 H1598 0.929 . S
C1576 C1573 1.432 . S
C1576 C1574 1.417 . S
C1576 N1584 1.360 . S
C1577 C1573 1.414 . S
C1577 C1575 1.444 . S
C1577 C1582 1.385 . S
C1578 C1574 1.432 . S
C1578 C1575 1.317 . S
C1578 H1590 0.930 . S
C1579 C1581 1.383 1_655 S
C1579 C1582 1.382 . S
C1579 H1591 0.929 1_655 S
N1580 C1573 1.359 1_455 S
N1580 C1581 1.327 . S
N1580 Tb1583 2.600 . S
C1581 C1579 1.383 1_455 S
C1581 N1580 1.327 . S
C1581 H1588 0.930 . S
C1582 C1577 1.385 . S
C1582 C1579 1.382 . S
C1582 H1601 0.930 . S
Tb1583 N1580 2.600 . S
Tb1583 N1584 2.660 1_455 S
Tb1583 O1617 2.362 . S
Tb1583 O1618 2.421 . S
Tb1583 O1622 2.546 1_455 S
Tb1583 O1623 2.610 . S
Tb1583 O1625 2.353 . S
Tb1583 O1626 2.552 . S
Tb1583 O1627 2.413 1_455 S
Tb1583 C1647 2.833 1_455 S
N1584 C1576 1.360 . S
N1584 Tb1583 2.660 1_655 S
N1584 C1585 1.305 . S
C1585 N1584 1.305 . S
C1585 C1587 1.407 1_554 S
C1585 H1592 0.930 1_554 S
C1586 C1574 1.410 . S
C1586 C1587 1.345 1_554 S
C1586 H1594 0.926 1_554 S
C1587 C1585 1.407 1_556 S
C1587 C1586 1.345 1_556 S
C1587 H1589 0.930 . S
H1588 C1581 0.930 . S
H1589 C1587 0.930 . S
H1590 C1578 0.930 . S
H1591 C1579 0.929 1_455 S
H1592 C1585 0.930 1_556 S
H1593 C1607 0.930 . S
H1594 C1586 0.926 1_556 S
H1595 C1613 0.930 . S
H1596 C1604 0.930 . S
H1597 C1611 0.931 . S
H1598 C1575 0.929 . S
H1599 C1605 0.930 . S
H1600 C1638 0.930 . S
H1601 C1582 0.930 . S
H1602 C1637 0.929 . S
N1603 Tb1572 2.660 . S
N1603 C1604 1.305 . S
N1603 C1608 1.360 . S
C1604 H1596 0.930 . S
C1604 N1603 1.305 . S
C1604 C1607 1.407 . S
C1605 H1599 0.930 . S
C1605 C1606 1.410 . S
C1605 C1607 1.345 . S
C1606 C1605 1.410 . S
C1606 C1608 1.417 . S
C1606 C1638 1.432 . S
C1607 H1593 0.930 . S
C1607 C1604 1.407 . S
C1607 C1605 1.345 . S
C1608 N1603 1.360 . S
C1608 C1606 1.417 . S
C1608 C1612 1.432 1_554 S
H1609 C1614 0.930 . S
N1610 Tb1572 2.600 1_556 S
N1610 C1612 1.359 . S
N1610 C1613 1.327 . S
C1611 H1597 0.931 . S
C1611 C1613 1.392 . S
C1611 C1614 1.370 . S
C1612 C1608 1.432 1_556 S
C1612 N1610 1.359 . S
C1612 C1615 1.414 . S
C1613 H1595 0.930 . S
C1613 N1610 1.327 . S
C1613 C1611 1.392 . S
C1614 H1609 0.930 . S
C1614 C1611 1.370 . S
C1614 C1615 1.385 . S
C1615 C1612 1.414 . S
C1615 C1614 1.385 . S
C1615 C1637 1.444 . S
O1616 Tb1572 2.546 1_556 S
O1616 C1636 1.251 . S
O1617 Tb1572 2.610 . S
O1617 Tb1583 2.362 . S
O1617 C1628 1.283 . S
O1618 Tb1583 2.421 . S
O1618 C1635 1.262 . S
O1619 Tb1572 2.320 . S
O1619 C1635 1.260 . S
O1620 Tb1572 2.552 . S
O1620 C1628 1.243 . S
O1621 Tb1572 2.413 . S
O1621 C1636 1.256 1_554 S
O1622 Tb1583 2.546 1_655 S
O1622 C1647 1.251 . S
O1623 Tb1572 2.362 . S
O1623 Tb1583 2.610 . S
O1623 C1639 1.283 . S
O1624 Tb1572 2.421 1_556 S
O1624 C1646 1.262 . S
O1625 Tb1583 2.353 . S
O1625 C1646 1.231 1_554 S
O1626 Tb1583 2.552 . S
O1626 C1639 1.243 . S
O1627 Tb1583 2.413 1_655 S
O1627 C1647 1.256 . S
C1628 O1617 1.283 . S
C1628 O1620 1.243 . S
C1629 C1631 1.382 1_556 S
C1629 C1633 1.393 . S
C1629 C1636 1.500 . S
C1630 C1631 1.400 . S
C1630 C1632 1.384 1_554 S
C1631 C1629 1.382 1_554 S
C1631 C1630 1.400 . S
C1631 H1648 0.930 . S
C1632 C1630 1.384 1_556 S
C1632 C1634 1.392 . S
C1632 H1649 0.931 . S
C1633 C1629 1.393 . S
C1633 C1634 1.401 . S
C1633 H1650 0.930 . S
C1634 C1632 1.392 . S
C1634 C1633 1.401 . S
C1634 H1651 0.930 . S
C1635 O1618 1.262 . S
C1635 O1619 1.260 . S
C1636 Tb1572 2.833 1_556 S
C1636 O1616 1.251 . S
C1636 O1621 1.256 1_556 S
C1636 C1629 1.500 . S
C1637 H1602 0.929 . S
C1637 C1615 1.444 . S
C1637 C1638 1.317 1_556 S
C1638 H1600 0.930 . S
C1638 C1606 1.432 . S
C1638 C1637 1.317 1_554 S
C1639 O1623 1.283 . S
C1639 O1626 1.243 . S
C1640 C1641 1.382 . S
C1640 C1644 1.393 . S
C1640 C1647 1.500 . S
C1641 C1640 1.382 . S
C1641 C1642 1.400 . S
C1641 H1652 0.930 . S
C1642 C1641 1.400 . S
C1642 C1643 1.384 . S
C1643 C1642 1.384 . S
C1643 C1645 1.392 . S
C1643 H1653 0.931 . S
C1644 C1640 1.393 . S
C1644 C1645 1.401 . S
C1644 H1654 0.930 . S
C1645 C1643 1.392 . S
C1645 C1644 1.401 . S
C1645 H1655 0.930 . S
C1646 O1624 1.262 . S
C1646 O1625 1.231 1_556 S
C1647 Tb1583 2.833 1_655 S
C1647 O1622 1.251 . S
C1647 O1627 1.256 . S
C1647 C1640 1.500 . S
H1648 C1631 0.930 . S
H1649 C1632 0.931 . S
H1650 C1633 0.930 . S
H1651 C1634 0.930 . S
H1652 C1641 0.930 . S
H1653 C1643 0.931 . S
H1654 C1644 0.930 . S
H1655 C1645 0.930 . S
C1656 C1657 1.369 1_554 S
C1656 C1658 1.419 . S
C1656 H1660 0.930 . S
C1657 C1656 1.369 1_556 S
C1657 C1666 1.429 . S
C1658 C1656 1.419 . S
C1658 C1659 1.363 . S
C1658 H1661 0.929 . S
C1659 C1658 1.363 . S
C1659 C1665 1.428 1_554 S
H1660 C1656 0.930 . S
H1661 C1658 0.929 . S
S1662 N1663 1.613 . S
S1662 N1664 1.610 . S
N1663 S1662 1.613 . S
N1663 C1666 1.350 . S
N1664 S1662 1.610 . S
N1664 C1665 1.351 . S
C1665 C1659 1.428 1_556 S
C1665 N1664 1.351 . S
C1665 C1666 1.434 . S
C1666 C1657 1.429 . S
C1666 N1663 1.350 . S
C1666 C1665 1.434 . S
C1667 C1668 1.369 . S
C1667 C1669 1.419 . S
C1667 H1671 0.930 . S
C1668 C1667 1.369 . S
C1668 C1677 1.429 . S
C1669 C1667 1.419 . S
C1669 C1670 1.363 . S
C1669 H1672 0.929 . S
C1670 C1669 1.363 . S
C1670 C1676 1.428 . S
H1671 C1667 0.930 . S
H1672 C1669 0.929 . S
S1673 N1674 1.613 . S
S1673 N1675 1.610 . S
N1674 S1673 1.613 . S
N1674 C1677 1.350 . S
N1675 S1673 1.610 . S
N1675 C1676 1.351 . S
C1676 C1670 1.428 . S
C1676 N1675 1.351 . S
C1676 C1677 1.434 . S
C1677 C1668 1.429 . S
C1677 N1674 1.350 . S
C1677 C1676 1.434 . S
C1678 C1679 1.369 . S
C1678 C1680 1.419 . S
C1678 H1682 0.930 . S
C1679 C1678 1.369 . S
C1679 C1688 1.429 . S
C1680 C1678 1.419 . S
C1680 C1681 1.363 . S
C1680 H1683 0.929 . S
C1681 C1680 1.363 . S
C1681 C1687 1.428 . S
H1682 C1678 0.930 . S
H1683 C1680 0.929 . S
S1684 N1685 1.613 . S
S1684 N1686 1.610 . S
N1685 S1684 1.613 . S
N1685 C1688 1.350 . S
N1686 S1684 1.610 . S
N1686 C1687 1.351 . S
C1687 C1681 1.428 . S
C1687 N1686 1.351 . S
C1687 C1688 1.434 . S
C1688 C1679 1.429 . S
C1688 N1685 1.350 . S
C1688 C1687 1.434 . S
C1689 C1690 1.369 . S
C1689 C1691 1.419 . S
C1689 H1693 0.930 . S
C1690 C1689 1.369 . S
C1690 C1699 1.429 . S
C1691 C1689 1.419 . S
C1691 C1692 1.363 . S
C1691 H1694 0.929 . S
C1692 C1691 1.363 . S
C1692 C1698 1.428 . S
H1693 C1689 0.930 . S
H1694 C1691 0.929 . S
S1695 N1696 1.613 . S
S1695 N1697 1.610 . S
N1696 S1695 1.613 . S
N1696 C1699 1.350 . S
N1697 S1695 1.610 . S
N1697 C1698 1.351 . S
C1698 C1692 1.428 . S
C1698 N1697 1.351 . S
C1698 C1699 1.434 . S
C1699 C1690 1.429 . S
C1699 N1696 1.350 . S
C1699 C1698 1.434 . S
C1700 C1701 1.369 . S
C1700 C1702 1.419 . S
C1700 H1704 0.930 . S
C1701 C1700 1.369 . S
C1701 C1710 1.429 . S
C1702 C1700 1.419 . S
C1702 C1703 1.363 . S
C1702 H1705 0.929 . S
C1703 C1702 1.363 . S
C1703 C1709 1.428 . S
H1704 C1700 0.930 . S
H1705 C1702 0.929 . S
S1706 N1707 1.613 . S
S1706 N1708 1.610 1_655 S
N1707 S1706 1.613 . S
N1707 C1710 1.350 1_655 S
N1708 S1706 1.610 1_455 S
N1708 C1709 1.351 . S
C1709 C1703 1.428 . S
C1709 N1708 1.351 . S
C1709 C1710 1.434 . S
C1710 C1701 1.429 . S
C1710 N1707 1.350 1_455 S
C1710 C1709 1.434 . S
C1711 C1712 1.369 . S
C1711 C1713 1.419 . S
C1711 H1715 0.930 . S
C1712 C1711 1.369 . S
C1712 C1721 1.429 . S
C1713 C1711 1.419 . S
C1713 C1714 1.363 . S
C1713 H1716 0.929 . S
C1714 C1713 1.363 . S
C1714 C1720 1.428 . S
H1715 C1711 0.930 . S
H1716 C1713 0.929 . S
S1717 N1718 1.613 . S
S1717 N1719 1.610 . S
N1718 S1717 1.613 . S
N1718 C1721 1.350 . S
N1719 S1717 1.610 . S
N1719 C1720 1.351 . S
C1720 C1714 1.428 . S
C1720 N1719 1.351 . S
C1720 C1721 1.434 . S
C1721 C1712 1.429 . S
C1721 N1718 1.350 . S
C1721 C1720 1.434 . S
C1722 C1723 1.369 . S
C1722 C1724 1.419 . S
C1722 H1726 0.930 . S
C1723 C1722 1.369 . S
C1723 C1732 1.429 . S
C1724 C1722 1.419 . S
C1724 C1725 1.363 . S
C1724 H1727 0.929 . S
C1725 C1724 1.363 . S
C1725 C1731 1.428 . S
H1726 C1722 0.930 . S
H1727 C1724 0.929 . S
S1728 N1729 1.613 . S
S1728 N1730 1.610 . S
N1729 S1728 1.613 . S
N1729 C1732 1.350 . S
N1730 S1728 1.610 . S
N1730 C1731 1.351 . S
C1731 C1725 1.428 . S
C1731 N1730 1.351 . S
C1731 C1732 1.434 . S
C1732 C1723 1.429 . S
C1732 N1729 1.350 . S
C1732 C1731 1.434 . S
C1733 C1734 1.369 . S
C1733 C1735 1.419 . S
C1733 H1737 0.930 . S
C1734 C1733 1.369 . S
C1734 C1743 1.429 . S
C1735 C1733 1.419 . S
C1735 C1736 1.363 . S
C1735 H1738 0.929 . S
C1736 C1735 1.363 . S
C1736 C1742 1.428 . S
H1737 C1733 0.930 . S
H1738 C1735 0.929 . S
S1739 N1740 1.613 . S
S1739 N1741 1.610 . S
N1740 S1739 1.613 . S
N1740 C1743 1.350 . S
N1741 S1739 1.610 . S
N1741 C1742 1.351 . S
C1742 C1736 1.428 . S
C1742 N1741 1.351 . S
C1742 C1743 1.434 . S
C1743 C1734 1.429 . S
C1743 N1740 1.350 . S
C1743 C1742 1.434 . S
C1744 C1745 1.371 1_455 S
C1744 C1746 1.419 . S
C1744 H1748 0.930 . S
C1745 C1744 1.371 1_655 S
C1745 C1754 1.429 . S
C1746 C1744 1.419 . S
C1746 C1747 1.363 . S
C1746 H1749 0.929 . S
C1747 C1746 1.363 . S
C1747 C1753 1.428 . S
H1748 C1744 0.930 . S
H1749 C1746 0.929 . S
S1750 N1751 1.613 1_565 S
S1750 N1752 1.610 1_665 S
N1751 S1750 1.613 1_545 S
N1751 C1754 1.350 . S
N1752 S1750 1.610 1_445 S
N1752 C1753 1.351 . S
C1753 C1747 1.428 . S
C1753 N1752 1.351 . S
C1753 C1754 1.434 1_455 S
C1754 C1745 1.429 . S
C1754 N1751 1.350 . S
C1754 C1753 1.434 1_655 S
C1755 C1756 1.369 . S
C1755 C1757 1.419 . S
C1755 H1759 0.930 . S
C1756 C1755 1.369 . S
C1756 C1765 1.429 . S
C1757 C1755 1.419 . S
C1757 C1758 1.363 . S
C1757 H1760 0.929 . S
C1758 C1757 1.363 . S
C1758 C1764 1.428 . S
H1759 C1755 0.930 . S
H1760 C1757 0.929 . S
S1761 N1762 1.613 . S
S1761 N1763 1.610 . S
N1762 S1761 1.613 . S
N1762 C1765 1.350 . S
N1763 S1761 1.610 . S
N1763 C1764 1.351 . S
C1764 C1758 1.428 . S
C1764 N1763 1.351 . S
C1764 C1765 1.434 . S
C1765 C1756 1.429 . S
C1765 N1762 1.350 . S
C1765 C1764 1.434 . S
C1766 C1767 1.369 . S
C1766 C1768 1.419 . S
C1766 H1770 0.930 . S
C1767 C1766 1.369 . S
C1767 C1776 1.429 . S
C1768 C1766 1.419 . S
C1768 C1769 1.363 . S
C1768 H1771 0.929 . S
C1769 C1768 1.363 . S
C1769 C1775 1.428 . S
H1770 C1766 0.930 . S
H1771 C1768 0.929 . S
S1772 N1773 1.613 . S
S1772 N1774 1.610 . S
N1773 S1772 1.613 . S
N1773 C1776 1.350 . S
N1774 S1772 1.610 . S
N1774 C1775 1.351 . S
C1775 C1769 1.428 . S
C1775 N1774 1.351 . S
C1775 C1776 1.434 . S
C1776 C1767 1.429 . S
C1776 N1773 1.350 . S
C1776 C1775 1.434 . S
C1777 C1778 1.369 . S
C1777 C1779 1.419 . S
C1777 H1781 0.930 . S
C1778 C1777 1.369 . S
C1778 C1787 1.429 . S
C1779 C1777 1.419 . S
C1779 C1780 1.363 . S
C1779 H1782 0.929 . S
C1780 C1779 1.363 . S
C1780 C1786 1.428 . S
H1781 C1777 0.930 . S
H1782 C1779 0.929 . S
S1783 N1784 1.613 . S
S1783 N1785 1.610 . S
N1784 S1783 1.613 . S
N1784 C1787 1.350 . S
N1785 S1783 1.610 . S
N1785 C1786 1.351 . S
C1786 C1780 1.428 . S
C1786 N1785 1.351 . S
C1786 C1787 1.434 . S
C1787 C1778 1.429 . S
C1787 N1784 1.350 . S
C1787 C1786 1.434 . S
C1788 C1789 1.369 . S
C1788 C1790 1.419 . S
C1788 H1792 0.930 . S
C1789 C1788 1.369 . S
C1789 C1798 1.429 1_455 S
C1790 C1788 1.419 . S
C1790 C1791 1.363 . S
C1790 H1793 0.929 . S
C1791 C1790 1.363 . S
C1791 C1797 1.428 . S
H1792 C1788 0.930 . S
H1793 C1790 0.929 . S
S1794 N1795 1.613 . S
S1794 N1796 1.597 1_655 S
N1795 S1794 1.613 . S
N1795 C1798 1.350 . S
N1796 S1794 1.597 1_455 S
N1796 C1797 1.357 . S
C1797 C1791 1.428 . S
C1797 N1796 1.357 . S
C1797 C1798 1.434 1_455 S
C1798 C1789 1.429 1_655 S
C1798 N1795 1.350 . S
C1798 C1797 1.434 1_655 S
C1799 C1800 1.369 . S
C1799 C1801 1.419 . S
C1799 H1803 0.930 . S
C1800 C1799 1.369 . S
C1800 C1809 1.429 . S
C1801 C1799 1.419 . S
C1801 C1802 1.363 . S
C1801 H1804 0.929 . S
C1802 C1801 1.363 . S
C1802 C1808 1.428 . S
H1803 C1799 0.930 . S
H1804 C1801 0.929 . S
S1805 N1806 1.613 . S
S1805 N1807 1.610 . S
N1806 S1805 1.613 . S
N1806 C1809 1.350 . S
N1807 S1805 1.610 . S
N1807 C1808 1.351 . S
C1808 C1802 1.428 . S
C1808 N1807 1.351 . S
C1808 C1809 1.434 . S
C1809 C1800 1.429 . S
C1809 N1806 1.350 . S
C1809 C1808 1.434 . S
C1810 C1811 1.369 . S
C1810 C1812 1.419 . S
C1810 H1814 0.930 . S
C1811 C1810 1.369 . S
C1811 C1820 1.429 . S
C1812 C1810 1.419 . S
C1812 C1813 1.363 . S
C1812 H1815 0.929 . S
C1813 C1812 1.363 . S
C1813 C1819 1.428 . S
H1814 C1810 0.930 . S
H1815 C1812 0.929 . S
S1816 N1817 1.613 . S
S1816 N1818 1.610 . S
N1817 S1816 1.613 . S
N1817 C1820 1.350 . S
N1818 S1816 1.610 . S
N1818 C1819 1.351 . S
C1819 C1813 1.428 . S
C1819 N1818 1.351 . S
C1819 C1820 1.434 . S
C1820 C1811 1.429 . S
C1820 N1817 1.350 . S
C1820 C1819 1.434 . S
C1821 C1822 1.369 . S
C1821 C1823 1.419 . S
C1821 H1825 0.930 . S
C1822 C1821 1.369 . S
C1822 C1831 1.429 . S
C1823 C1821 1.419 . S
C1823 C1824 1.363 . S
C1823 H1826 0.929 . S
C1824 C1823 1.363 . S
C1824 C1830 1.428 . S
H1825 C1821 0.930 . S
H1826 C1823 0.929 . S
S1827 N1828 1.613 . S
S1827 N1829 1.610 . S
N1828 S1827 1.613 . S
N1828 C1831 1.350 . S
N1829 S1827 1.610 . S
N1829 C1830 1.351 . S
C1830 C1824 1.428 . S
C1830 N1829 1.351 . S
C1830 C1831 1.434 . S
C1831 C1822 1.429 . S
C1831 N1828 1.350 . S
C1831 C1830 1.434 . S
C1832 C1833 1.362 1_556 S
C1832 C1834 1.415 1_566 S
C1832 H1836 0.941 . S
C1833 C1832 1.362 1_554 S
C1833 C1842 1.429 . S
C1834 C1832 1.415 1_544 S
C1834 C1835 1.363 . S
C1834 H1837 0.929 1_554 S
C1835 C1834 1.363 . S
C1835 C1841 1.428 . S
H1836 C1832 0.941 . S
H1837 C1834 0.929 1_556 S
S1838 N1839 1.613 . S
S1838 N1840 1.610 1_565 S
N1839 S1838 1.613 . S
N1839 C1842 1.350 . S
N1840 S1838 1.610 1_545 S
N1840 C1841 1.351 . S
C1841 C1835 1.428 . S
C1841 N1840 1.351 . S
C1841 C1842 1.434 1_545 S
C1842 C1833 1.429 . S
C1842 N1839 1.350 . S
C1842 C1841 1.434 1_565 S
C1843 C1844 1.369 . S
C1843 C1845 1.419 . S
C1843 H1847 0.930 . S
C1844 C1843 1.369 . S
C1844 C1853 1.429 . S
C1845 C1843 1.419 . S
C1845 C1846 1.363 . S
C1845 H1848 0.929 . S
C1846 C1845 1.363 . S
C1846 C1852 1.428 . S
H1847 C1843 0.930 . S
H1848 C1845 0.929 . S
S1849 N1850 1.613 . S
S1849 N1851 1.610 . S
N1850 S1849 1.613 . S
N1850 C1853 1.350 . S
N1851 S1849 1.610 . S
N1851 C1852 1.351 . S
C1852 C1846 1.428 . S
C1852 N1851 1.351 . S
C1852 C1853 1.434 . S
C1853 C1844 1.429 . S
C1853 N1850 1.350 . S
C1853 C1852 1.434 . S
C1854 C1855 1.369 . S
C1854 C1856 1.419 . S
C1854 H1858 0.930 . S
C1855 C1854 1.369 . S
C1855 C1864 1.429 . S
C1856 C1854 1.419 . S
C1856 C1857 1.363 . S
C1856 H1859 0.929 . S
C1857 C1856 1.363 . S
C1857 C1863 1.428 . S
H1858 C1854 0.930 . S
H1859 C1856 0.929 . S
S1860 N1861 1.613 . S
S1860 N1862 1.610 . S
N1861 S1860 1.613 . S
N1861 C1864 1.350 . S
N1862 S1860 1.610 . S
N1862 C1863 1.351 . S
C1863 C1857 1.428 . S
C1863 N1862 1.351 . S
C1863 C1864 1.434 . S
C1864 C1855 1.429 . S
C1864 N1861 1.350 . S
C1864 C1863 1.434 . S
C1865 C1866 1.369 . S
C1865 C1867 1.419 . S
C1865 H1869 0.930 . S
C1866 C1865 1.369 . S
C1866 C1875 1.429 . S
C1867 C1865 1.419 . S
C1867 C1868 1.363 . S
C1867 H1870 0.929 . S
C1868 C1867 1.363 . S
C1868 C1874 1.428 . S
H1869 C1865 0.930 . S
H1870 C1867 0.929 . S
S1871 N1872 1.613 . S
S1871 N1873 1.610 . S
N1872 S1871 1.613 . S
N1872 C1875 1.350 . S
N1873 S1871 1.610 . S
N1873 C1874 1.351 . S
C1874 C1868 1.428 . S
C1874 N1873 1.351 . S
C1874 C1875 1.434 . S
C1875 C1866 1.429 . S
C1875 N1872 1.350 . S
C1875 C1874 1.434 . S
C1876 C1877 1.369 . S
C1876 C1878 1.419 . S
C1876 H1880 0.930 . S
C1877 C1876 1.369 . S
C1877 C1886 1.429 . S
C1878 C1876 1.419 . S
C1878 C1879 1.363 . S
C1878 H1881 0.929 . S
C1879 C1878 1.363 . S
C1879 C1885 1.428 . S
H1880 C1876 0.930 . S
H1881 C1878 0.929 . S
S1882 N1883 1.613 . S
S1882 N1884 1.610 . S
N1883 S1882 1.613 . S
N1883 C1886 1.350 . S
N1884 S1882 1.610 . S
N1884 C1885 1.351 . S
C1885 C1879 1.428 . S
C1885 N1884 1.351 . S
C1885 C1886 1.434 . S
C1886 C1877 1.429 . S
C1886 N1883 1.350 . S
C1886 C1885 1.434 . S
C1887 C1888 1.369 . S
C1887 C1889 1.419 . S
C1887 H1891 0.930 . S
C1888 C1887 1.369 . S
C1888 C1897 1.429 . S
C1889 C1887 1.419 . S
C1889 C1890 1.363 . S
C1889 H1892 0.929 . S
C1890 C1889 1.363 . S
C1890 C1896 1.428 . S
H1891 C1887 0.930 . S
H1892 C1889 0.929 . S
S1893 N1894 1.613 . S
S1893 N1895 1.610 . S
N1894 S1893 1.613 . S
N1894 C1897 1.350 . S
N1895 S1893 1.610 . S
N1895 C1896 1.351 . S
C1896 C1890 1.428 . S
C1896 N1895 1.351 . S
C1896 C1897 1.434 . S
C1897 C1888 1.429 . S
C1897 N1894 1.350 . S
C1897 C1896 1.434 . S
C1898 C1899 1.369 . S
C1898 C1900 1.419 . S
C1898 H1902 0.930 . S
C1899 C1898 1.369 . S
C1899 C1908 1.429 . S
C1900 C1898 1.419 . S
C1900 C1901 1.363 . S
C1900 H1903 0.929 . S
C1901 C1900 1.363 . S
C1901 C1907 1.428 . S
H1902 C1898 0.930 . S
H1903 C1900 0.929 . S
S1904 N1905 1.613 . S
S1904 N1906 1.610 . S
N1905 S1904 1.613 . S
N1905 C1908 1.350 . S
N1906 S1904 1.610 . S
N1906 C1907 1.351 . S
C1907 C1901 1.428 . S
C1907 N1906 1.351 . S
C1907 C1908 1.434 . S
C1908 C1899 1.429 . S
C1908 N1905 1.350 . S
C1908 C1907 1.434 . S
C1909 C1910 1.369 . S
C1909 C1911 1.419 . S
C1909 H1913 0.930 . S
C1910 C1909 1.369 . S
C1910 C1919 1.429 . S
C1911 C1909 1.419 . S
C1911 C1912 1.363 . S
C1911 H1914 0.929 . S
C1912 C1911 1.363 . S
C1912 C1918 1.428 . S
H1913 C1909 0.930 . S
H1914 C1911 0.929 . S
S1915 N1916 1.613 . S
S1915 N1917 1.610 . S
N1916 S1915 1.613 . S
N1916 C1919 1.350 . S
N1917 S1915 1.610 . S
N1917 C1918 1.351 . S
C1918 C1912 1.428 . S
C1918 N1917 1.351 . S
C1918 C1919 1.434 . S
C1919 C1910 1.429 . S
C1919 N1916 1.350 . S
C1919 C1918 1.434 . S
C1920 C1921 1.369 . S
C1920 C1922 1.419 . S
C1920 H1924 0.930 . S
C1921 C1920 1.369 . S
C1921 C1930 1.429 . S
C1922 C1920 1.419 . S
C1922 C1923 1.363 . S
C1922 H1925 0.929 . S
C1923 C1922 1.363 . S
C1923 C1929 1.428 . S
H1924 C1920 0.930 . S
H1925 C1922 0.929 . S
S1926 N1927 1.613 . S
S1926 N1928 1.610 . S
N1927 S1926 1.613 . S
N1927 C1930 1.350 . S
N1928 S1926 1.610 . S
N1928 C1929 1.351 . S
C1929 C1923 1.428 . S
C1929 N1928 1.351 . S
C1929 C1930 1.434 . S
C1930 C1921 1.429 . S
C1930 N1927 1.350 . S
C1930 C1929 1.434 . S
C1931 C1932 1.369 . S
C1931 C1933 1.419 . S
C1931 H1935 0.930 . S
C1932 C1931 1.369 . S
C1932 C1941 1.429 . S
C1933 C1931 1.419 . S
C1933 C1934 1.363 . S
C1933 H1936 0.929 . S
C1934 C1933 1.363 . S
C1934 C1940 1.428 . S
H1935 C1931 0.930 . S
H1936 C1933 0.929 . S
S1937 N1938 1.613 . S
S1937 N1939 1.610 . S
N1938 S1937 1.613 . S
N1938 C1941 1.350 . S
N1939 S1937 1.610 . S
N1939 C1940 1.351 . S
C1940 C1934 1.428 . S
C1940 N1939 1.351 . S
C1940 C1941 1.434 . S
C1941 C1932 1.429 . S
C1941 N1938 1.350 . S
C1941 C1940 1.434 . S
C1942 C1943 1.369 . S
C1942 C1944 1.419 . S
C1942 H1946 0.930 . S
C1943 C1942 1.369 . S
C1943 C1952 1.429 . S
C1944 C1942 1.419 . S
C1944 C1945 1.363 . S
C1944 H1947 0.929 . S
C1945 C1944 1.363 . S
C1945 C1951 1.428 . S
H1946 C1942 0.930 . S
H1947 C1944 0.929 . S
S1948 N1949 1.613 . S
S1948 N1950 1.610 . S
N1949 S1948 1.613 . S
N1949 C1952 1.350 . S
N1950 S1948 1.610 . S
N1950 C1951 1.351 . S
C1951 C1945 1.428 . S
C1951 N1950 1.351 . S
C1951 C1952 1.434 . S
C1952 C1943 1.429 . S
C1952 N1949 1.350 . S
C1952 C1951 1.434 . S
C1953 C1954 1.369 . S
C1953 C1955 1.419 . S
C1953 H1957 0.930 . S
C1954 C1953 1.369 . S
C1954 C1963 1.429 . S
C1955 C1953 1.419 . S
C1955 C1956 1.363 . S
C1955 H1958 0.929 . S
C1956 C1955 1.363 . S
C1956 C1962 1.428 . S
H1957 C1953 0.930 . S
H1958 C1955 0.929 . S
S1959 N1960 1.613 . S
S1959 N1961 1.610 . S
N1960 S1959 1.613 . S
N1960 C1963 1.350 . S
N1961 S1959 1.610 . S
N1961 C1962 1.351 . S
C1962 C1956 1.428 . S
C1962 N1961 1.351 . S
C1962 C1963 1.434 . S
C1963 C1954 1.429 . S
C1963 N1960 1.350 . S
C1963 C1962 1.434 . S
C1964 C1965 1.369 . S
C1964 C1966 1.419 . S
C1964 H1968 0.930 . S
C1965 C1964 1.369 . S
C1965 C1974 1.429 . S
C1966 C1964 1.419 . S
C1966 C1967 1.363 . S
C1966 H1969 0.929 . S
C1967 C1966 1.363 . S
C1967 C1973 1.428 . S
H1968 C1964 0.930 . S
H1969 C1966 0.929 . S
S1970 N1971 1.613 . S
S1970 N1972 1.610 . S
N1971 S1970 1.613 . S
N1971 C1974 1.350 . S
N1972 S1970 1.610 . S
N1972 C1973 1.351 . S
C1973 C1967 1.428 . S
C1973 N1972 1.351 . S
C1973 C1974 1.434 . S
C1974 C1965 1.429 . S
C1974 N1971 1.350 . S
C1974 C1973 1.434 . S
C1975 C1976 1.369 . S
C1975 C1977 1.419 . S
C1975 H1979 0.930 . S
C1976 C1975 1.369 . S
C1976 C1985 1.429 . S
C1977 C1975 1.419 . S
C1977 C1978 1.363 . S
C1977 H1980 0.929 . S
C1978 C1977 1.363 . S
C1978 C1984 1.428 . S
H1979 C1975 0.930 . S
H1980 C1977 0.929 . S
S1981 N1982 1.613 . S
S1981 N1983 1.610 . S
N1982 S1981 1.613 . S
N1982 C1985 1.350 . S
N1983 S1981 1.610 . S
N1983 C1984 1.351 . S
C1984 C1978 1.428 . S
C1984 N1983 1.351 . S
C1984 C1985 1.434 . S
C1985 C1976 1.429 . S
C1985 N1982 1.350 . S
C1985 C1984 1.434 . S
C1986 C1987 1.369 . S
C1986 C1988 1.419 . S
C1986 H1990 0.930 . S
C1987 C1986 1.369 . S
C1987 C1996 1.429 . S
C1988 C1986 1.419 . S
C1988 C1989 1.363 . S
C1988 H1991 0.929 1_565 S
C1989 C1988 1.363 . S
C1989 C1995 1.428 . S
H1990 C1986 0.930 . S
H1991 C1988 0.929 1_545 S
S1992 N1993 1.613 . S
S1992 N1994 1.610 . S
N1993 S1992 1.613 . S
N1993 C1996 1.350 . S
N1994 S1992 1.610 . S
N1994 C1995 1.351 . S
C1995 C1989 1.428 . S
C1995 N1994 1.351 . S
C1995 C1996 1.434 . S
C1996 C1987 1.429 . S
C1996 N1993 1.350 . S
C1996 C1995 1.434 . S
C1997 C1998 1.369 . S
C1997 C1999 1.419 . S
C1997 H2001 0.930 . S
C1998 C1997 1.369 . S
C1998 C2007 1.429 . S
C1999 C1997 1.419 . S
C1999 C2000 1.363 . S
C1999 H2002 0.929 . S
C2000 C1999 1.363 . S
C2000 C2006 1.428 . S
H2001 C1997 0.930 . S
H2002 C1999 0.929 . S
S2003 N2004 1.613 . S
S2003 N2005 1.610 . S
N2004 S2003 1.613 . S
N2004 C2007 1.350 . S
N2005 S2003 1.610 . S
N2005 C2006 1.351 . S
C2006 C2000 1.428 . S
C2006 N2005 1.351 . S
C2006 C2007 1.434 . S
C2007 C1998 1.429 . S
C2007 N2004 1.350 . S
C2007 C2006 1.434 . S
C2008 C2009 1.369 . S
C2008 C2010 1.419 . S
C2008 H2012 0.930 . S
C2009 C2008 1.369 . S
C2009 C2018 1.429 1_545 S
C2010 C2008 1.419 . S
C2010 C2011 1.363 . S
C2010 H2013 0.929 . S
C2011 C2010 1.363 . S
C2011 C2017 1.428 1_545 S
H2012 C2008 0.930 . S
H2013 C2010 0.929 . S
S2014 N2015 1.613 . S
S2014 N2016 1.610 . S
N2015 S2014 1.613 . S
N2015 C2018 1.350 . S
N2016 S2014 1.610 . S
N2016 C2017 1.351 . S
C2017 C2011 1.428 1_565 S
C2017 N2016 1.351 . S
C2017 C2018 1.434 . S
C2018 C2009 1.429 1_565 S
C2018 N2015 1.350 . S
C2018 C2017 1.434 . S
C2019 C2020 1.369 . S
C2019 C2021 1.419 . S
C2019 H2023 0.930 . S
C2020 C2019 1.369 . S
C2020 C2029 1.429 . S
C2021 C2019 1.419 . S
C2021 C2022 1.363 . S
C2021 H2024 0.929 . S
C2022 C2021 1.363 . S
C2022 C2028 1.428 . S
H2023 C2019 0.930 . S
H2024 C2021 0.929 . S
S2025 N2026 1.613 . S
S2025 N2027 1.610 . S
N2026 S2025 1.613 . S
N2026 C2029 1.350 . S
N2027 S2025 1.610 . S
N2027 C2028 1.351 . S
C2028 C2022 1.428 . S
C2028 N2027 1.351 . S
C2028 C2029 1.434 . S
C2029 C2020 1.429 . S
C2029 N2026 1.350 . S
C2029 C2028 1.434 . S
C2030 C2031 1.369 . S
C2030 C2032 1.419 . S
C2030 H2034 0.930 1_545 S
C2031 C2030 1.369 . S
C2031 C2040 1.429 . S
C2032 C2030 1.419 . S
C2032 C2033 1.363 . S
C2032 H2035 0.929 . S
C2033 C2032 1.363 . S
C2033 C2039 1.428 . S
H2034 C2030 0.930 1_565 S
H2035 C2032 0.929 . S
S2036 N2037 1.613 . S
S2036 N2038 1.610 . S
N2037 S2036 1.613 . S
N2037 C2040 1.350 . S
N2038 S2036 1.610 . S
N2038 C2039 1.351 . S
C2039 C2033 1.428 . S
C2039 N2038 1.351 . S
C2039 C2040 1.434 . S
C2040 C2031 1.429 . S
C2040 N2037 1.350 . S
C2040 C2039 1.434 . S
C2041 C2042 1.369 . S
C2041 C2043 1.419 . S
C2041 H2045 0.930 . S
C2042 C2041 1.369 . S
C2042 C2051 1.429 . S
C2043 C2041 1.419 . S
C2043 C2044 1.363 . S
C2043 H2046 0.929 . S
C2044 C2043 1.363 . S
C2044 C2050 1.428 . S
H2045 C2041 0.930 . S
H2046 C2043 0.929 . S
S2047 N2048 1.613 . S
S2047 N2049 1.610 . S
N2048 S2047 1.613 . S
N2048 C2051 1.350 . S
N2049 S2047 1.610 . S
N2049 C2050 1.351 . S
C2050 C2044 1.428 . S
C2050 N2049 1.351 . S
C2050 C2051 1.434 . S
C2051 C2042 1.429 . S
C2051 N2048 1.350 . S
C2051 C2050 1.434 . S
C2052 C2053 1.369 1_545 S
C2052 C2054 1.419 . S
C2052 H2056 0.930 . S
C2053 C2052 1.369 1_565 S
C2053 C2062 1.429 . S
C2054 C2052 1.419 . S
C2054 C2055 1.363 . S
C2054 H2057 0.929 . S
C2055 C2054 1.363 . S
C2055 C2061 1.428 1_545 S
H2056 C2052 0.930 . S
H2057 C2054 0.929 . S
S2058 N2059 1.613 . S
S2058 N2060 1.610 . S
N2059 S2058 1.613 . S
N2059 C2062 1.350 . S
N2060 S2058 1.610 . S
N2060 C2061 1.351 . S
C2061 C2055 1.428 1_565 S
C2061 N2060 1.351 . S
C2061 C2062 1.434 . S
C2062 C2053 1.429 . S
C2062 N2059 1.350 . S
C2062 C2061 1.434 . S
C2063 C2064 1.369 . S
C2063 C2065 1.419 . S
C2063 H2067 0.930 . S
C2064 C2063 1.369 . S
C2064 C2073 1.429 . S
C2065 C2063 1.419 . S
C2065 C2066 1.363 . S
C2065 H2068 0.929 . S
C2066 C2065 1.363 . S
C2066 C2072 1.428 . S
H2067 C2063 0.930 . S
H2068 C2065 0.929 . S
S2069 N2070 1.613 . S
S2069 N2071 1.610 . S
N2070 S2069 1.613 . S
N2070 C2073 1.350 . S
N2071 S2069 1.610 . S
N2071 C2072 1.351 . S
C2072 C2066 1.428 . S
C2072 N2071 1.351 . S
C2072 C2073 1.434 . S
C2073 C2064 1.429 . S
C2073 N2070 1.350 . S
C2073 C2072 1.434 . S
C2074 C2075 1.369 1_565 S
C2074 C2076 1.419 . S
C2074 H2078 0.930 . S
C2075 C2074 1.369 1_545 S
C2075 C2084 1.429 . S
C2076 C2074 1.419 . S
C2076 C2077 1.363 1_565 S
C2076 H2079 0.929 . S
C2077 C2076 1.363 1_545 S
C2077 C2083 1.428 . S
H2078 C2074 0.930 . S
H2079 C2076 0.929 . S
S2080 N2081 1.613 . S
S2080 N2082 1.610 . S
N2081 S2080 1.613 . S
N2081 C2084 1.350 . S
N2082 S2080 1.610 . S
N2082 C2083 1.351 . S
C2083 C2077 1.428 . S
C2083 N2082 1.351 . S
C2083 C2084 1.434 . S
C2084 C2075 1.429 . S
C2084 N2081 1.350 . S
C2084 C2083 1.434 . S
C2085 C2086 1.369 . S
C2085 C2087 1.419 . S
C2085 H2089 0.930 . S
C2086 C2085 1.369 . S
C2086 C2095 1.429 . S
C2087 C2085 1.419 . S
C2087 C2088 1.363 . S
C2087 H2090 0.929 . S
C2088 C2087 1.363 . S
C2088 C2094 1.428 . S
H2089 C2085 0.930 . S
H2090 C2087 0.929 . S
S2091 N2092 1.613 . S
S2091 N2093 1.610 . S
N2092 S2091 1.613 . S
N2092 C2095 1.350 . S
N2093 S2091 1.610 . S
N2093 C2094 1.351 . S
C2094 C2088 1.428 . S
C2094 N2093 1.351 . S
C2094 C2095 1.434 . S
C2095 C2086 1.429 . S
C2095 N2092 1.350 . S
C2095 C2094 1.434 . S
C2096 C2097 1.369 . S
C2096 C2098 1.419 . S
C2096 H2100 0.918 1_554 S
C2097 C2096 1.369 . S
C2097 C2106 1.429 . S
C2098 C2096 1.419 . S
C2098 C2099 1.363 . S
C2098 H2101 0.929 1_554 S
C2099 C2098 1.363 . S
C2099 C2105 1.428 . S
H2100 C2096 0.918 1_556 S
H2101 C2098 0.929 1_556 S
S2102 N2103 1.613 . S
S2102 N2104 1.610 . S
N2103 S2102 1.613 . S
N2103 C2106 1.350 . S
N2104 S2102 1.610 . S
N2104 C2105 1.351 . S
C2105 C2099 1.428 . S
C2105 N2104 1.351 . S
C2105 C2106 1.434 . S
C2106 C2097 1.429 . S
C2106 N2103 1.350 . S
C2106 C2105 1.434 . S
C2107 C2108 1.369 . S
C2107 C2109 1.419 . S
C2107 H2111 0.930 . S
C2108 C2107 1.369 . S
C2108 C2117 1.429 . S
C2109 C2107 1.419 . S
C2109 C2110 1.363 . S
C2109 H2112 0.929 . S
C2110 C2109 1.363 . S
C2110 C2116 1.428 . S
H2111 C2107 0.930 . S
H2112 C2109 0.929 . S
S2113 N2114 1.613 . S
S2113 N2115 1.610 . S
N2114 S2113 1.613 . S
N2114 C2117 1.350 . S
N2115 S2113 1.610 . S
N2115 C2116 1.351 . S
C2116 C2110 1.428 . S
C2116 N2115 1.351 . S
C2116 C2117 1.434 . S
C2117 C2108 1.429 . S
C2117 N2114 1.350 . S
C2117 C2116 1.434 . S
C2118 C2119 1.369 . S
C2118 C2120 1.419 . S
C2118 H2122 0.930 . S
C2119 C2118 1.369 . S
C2119 C2128 1.429 . S
C2120 C2118 1.419 . S
C2120 C2121 1.363 . S
C2120 H2123 0.929 . S
C2121 C2120 1.363 . S
C2121 C2127 1.428 . S
H2122 C2118 0.930 . S
H2123 C2120 0.929 . S
S2124 N2125 1.613 . S
S2124 N2126 1.610 . S
N2125 S2124 1.613 . S
N2125 C2128 1.350 . S
N2126 S2124 1.610 . S
N2126 C2127 1.351 . S
C2127 C2121 1.428 . S
C2127 N2126 1.351 . S
C2127 C2128 1.434 . S
C2128 C2119 1.429 . S
C2128 N2125 1.350 . S
C2128 C2127 1.434 . S
C2129 C2130 1.369 . S
C2129 C2131 1.419 . S
C2129 H2133 0.930 . S
C2130 C2129 1.369 . S
C2130 C2139 1.429 . S
C2131 C2129 1.419 . S
C2131 C2132 1.363 . S
C2131 H2134 0.929 . S
C2132 C2131 1.363 . S
C2132 C2138 1.428 . S
H2133 C2129 0.930 . S
H2134 C2131 0.929 . S
S2135 N2136 1.613 . S
S2135 N2137 1.610 . S
N2136 S2135 1.613 . S
N2136 C2139 1.350 . S
N2137 S2135 1.610 . S
N2137 C2138 1.351 . S
C2138 C2132 1.428 . S
C2138 N2137 1.351 . S
C2138 C2139 1.434 . S
C2139 C2130 1.429 . S
C2139 N2136 1.350 . S
C2139 C2138 1.434 . S
C2140 C2141 1.369 . S
C2140 C2142 1.419 . S
C2140 H2144 0.930 . S
C2141 C2140 1.369 . S
C2141 C2150 1.429 . S
C2142 C2140 1.419 . S
C2142 C2143 1.363 . S
C2142 H2145 0.929 . S
C2143 C2142 1.363 . S
C2143 C2149 1.428 . S
H2144 C2140 0.930 . S
H2145 C2142 0.929 . S
S2146 N2147 1.613 . S
S2146 N2148 1.610 1_545 S
N2147 S2146 1.613 . S
N2147 C2150 1.350 1_545 S
N2148 S2146 1.610 1_565 S
N2148 C2149 1.351 . S
C2149 C2143 1.428 . S
C2149 N2148 1.351 . S
C2149 C2150 1.434 . S
C2150 C2141 1.429 . S
C2150 N2147 1.350 1_565 S
C2150 C2149 1.434 . S
C2151 C2152 1.369 . S
C2151 C2153 1.419 . S
C2151 H2155 0.930 . S
C2152 C2151 1.369 . S
C2152 C2161 1.429 . S
C2153 C2151 1.419 . S
C2153 C2154 1.363 . S
C2153 H2156 0.929 . S
C2154 C2153 1.363 . S
C2154 C2160 1.428 . S
H2155 C2151 0.930 . S
H2156 C2153 0.929 . S
S2157 N2158 1.613 . S
S2157 N2159 1.610 . S
N2158 S2157 1.613 . S
N2158 C2161 1.350 . S
N2159 S2157 1.610 . S
N2159 C2160 1.351 . S
C2160 C2154 1.428 . S
C2160 N2159 1.351 . S
C2160 C2161 1.434 . S
C2161 C2152 1.429 . S
C2161 N2158 1.350 . S
C2161 C2160 1.434 . S
C2162 C2163 1.369 . S
C2162 C2164 1.419 . S
C2162 H2166 0.930 . S
C2163 C2162 1.369 . S
C2163 C2172 1.429 . S
C2164 C2162 1.419 . S
C2164 C2165 1.363 . S
C2164 H2167 0.929 . S
C2165 C2164 1.363 . S
C2165 C2171 1.428 . S
H2166 C2162 0.930 . S
H2167 C2164 0.929 . S
S2168 N2169 1.613 . S
S2168 N2170 1.610 . S
N2169 S2168 1.613 . S
N2169 C2172 1.350 . S
N2170 S2168 1.610 . S
N2170 C2171 1.351 . S
C2171 C2165 1.428 . S
C2171 N2170 1.351 . S
C2171 C2172 1.434 . S
C2172 C2163 1.429 . S
C2172 N2169 1.350 . S
C2172 C2171 1.434 . S
C2173 C2174 1.369 . S
C2173 C2175 1.419 . S
C2173 H2177 0.930 . S
C2174 C2173 1.369 . S
C2174 C2183 1.429 . S
C2175 C2173 1.419 . S
C2175 C2176 1.363 . S
C2175 H2178 0.929 . S
C2176 C2175 1.363 . S
C2176 C2182 1.428 . S
H2177 C2173 0.930 . S
H2178 C2175 0.929 . S
S2179 N2180 1.613 . S
S2179 N2181 1.610 . S
N2180 S2179 1.613 . S
N2180 C2183 1.350 . S
N2181 S2179 1.610 . S
N2181 C2182 1.351 . S
C2182 C2176 1.428 . S
C2182 N2181 1.351 . S
C2182 C2183 1.434 . S
C2183 C2174 1.429 . S
C2183 N2180 1.350 . S
C2183 C2182 1.434 . S
C2184 C2185 1.369 . S
C2184 C2186 1.419 . S
C2184 H2188 0.930 . S
C2185 C2184 1.369 . S
C2185 C2194 1.429 . S
C2186 C2184 1.419 . S
C2186 C2187 1.363 . S
C2186 H2189 0.929 . S
C2187 C2186 1.363 . S
C2187 C2193 1.428 . S
H2188 C2184 0.930 . S
H2189 C2186 0.929 . S
S2190 N2191 1.613 . S
S2190 N2192 1.610 . S
N2191 S2190 1.613 . S
N2191 C2194 1.350 . S
N2192 S2190 1.610 . S
N2192 C2193 1.351 . S
C2193 C2187 1.428 . S
C2193 N2192 1.351 . S
C2193 C2194 1.434 . S
C2194 C2185 1.429 . S
C2194 N2191 1.350 . S
C2194 C2193 1.434 . S
C2195 C2196 1.369 . S
C2195 C2197 1.419 . S
C2195 H2199 0.930 . S
C2196 C2195 1.369 . S
C2196 C2205 1.429 . S
C2197 C2195 1.419 . S
C2197 C2198 1.363 . S
C2197 H2200 0.929 . S
C2198 C2197 1.363 . S
C2198 C2204 1.428 . S
H2199 C2195 0.930 . S
H2200 C2197 0.929 . S
S2201 N2202 1.613 . S
S2201 N2203 1.610 . S
N2202 S2201 1.613 . S
N2202 C2205 1.350 . S
N2203 S2201 1.610 . S
N2203 C2204 1.351 . S
C2204 C2198 1.428 . S
C2204 N2203 1.351 . S
C2204 C2205 1.434 . S
C2205 C2196 1.429 . S
C2205 N2202 1.350 . S
C2205 C2204 1.434 . S
C2206 C2207 1.369 1_554 S
C2206 C2208 1.419 . S
C2206 H2210 0.930 . S
C2207 C2206 1.369 1_556 S
C2207 C2216 1.429 . S
C2208 C2206 1.419 . S
C2208 C2209 1.363 . S
C2208 H2211 0.929 . S
C2209 C2208 1.363 . S
C2209 C2215 1.428 1_554 S
H2210 C2206 0.930 . S
H2211 C2208 0.929 . S
S2212 N2213 1.613 . S
S2212 N2214 1.610 . S
N2213 S2212 1.613 . S
N2213 C2216 1.350 . S
N2214 S2212 1.610 . S
N2214 C2215 1.351 . S
C2215 C2209 1.428 1_556 S
C2215 N2214 1.351 . S
C2215 C2216 1.434 . S
C2216 C2207 1.429 . S
C2216 N2213 1.350 . S
C2216 C2215 1.434 . S
C2217 C2218 1.369 . S
C2217 C2219 1.419 1_455 S
C2217 H2221 0.930 1_455 S
C2218 C2217 1.369 . S
C2218 C2227 1.429 . S
C2219 C2217 1.419 1_655 S
C2219 C2220 1.363 . S
C2219 H2222 0.929 . S
C2220 C2219 1.363 . S
C2220 C2226 1.428 1_655 S
H2221 C2217 0.930 1_655 S
H2222 C2219 0.929 . S
S2223 N2224 1.613 . S
S2223 N2225 1.610 . S
N2224 S2223 1.613 . S
N2224 C2227 1.350 . S
N2225 S2223 1.610 . S
N2225 C2226 1.351 . S
C2226 C2220 1.428 1_455 S
C2226 N2225 1.351 . S
C2226 C2227 1.434 . S
C2227 C2218 1.429 . S
C2227 N2224 1.350 . S
C2227 C2226 1.434 . S
C2228 C2229 1.369 . S
C2228 C2230 1.419 . S
C2228 H2232 0.930 . S
C2229 C2228 1.369 . S
C2229 C2238 1.429 . S
C2230 C2228 1.419 . S
C2230 C2231 1.363 . S
C2230 H2233 0.929 . S
C2231 C2230 1.363 . S
C2231 C2237 1.428 . S
H2232 C2228 0.930 . S
H2233 C2230 0.929 . S
S2234 N2235 1.613 . S
S2234 N2236 1.610 . S
N2235 S2234 1.613 . S
N2235 C2238 1.350 . S
N2236 S2234 1.610 . S
N2236 C2237 1.351 . S
C2237 C2231 1.428 . S
C2237 N2236 1.351 . S
C2237 C2238 1.434 . S
C2238 C2229 1.429 . S
C2238 N2235 1.350 . S
C2238 C2237 1.434 . S
C2239 C2240 1.369 . S
C2239 C2241 1.419 . S
C2239 H2243 0.930 . S
C2240 C2239 1.369 . S
C2240 C2249 1.429 . S
C2241 C2239 1.419 . S
C2241 C2242 1.363 . S
C2241 H2244 0.929 . S
C2242 C2241 1.363 . S
C2242 C2248 1.428 . S
H2243 C2239 0.930 . S
H2244 C2241 0.929 . S
S2245 N2246 1.613 . S
S2245 N2247 1.610 . S
N2246 S2245 1.613 . S
N2246 C2249 1.350 . S
N2247 S2245 1.610 . S
N2247 C2248 1.351 . S
C2248 C2242 1.428 . S
C2248 N2247 1.351 . S
C2248 C2249 1.434 . S
C2249 C2240 1.429 . S
C2249 N2246 1.350 . S
C2249 C2248 1.434 . S
C2250 C2251 1.369 . S
C2250 C2252 1.419 1_655 S
C2250 H2254 0.930 . S
C2251 C2250 1.369 . S
C2251 C2260 1.429 1_655 S
C2252 C2250 1.419 1_455 S
C2252 C2253 1.363 . S
C2252 H2255 0.929 . S
C2253 C2252 1.363 . S
C2253 C2259 1.428 . S
H2254 C2250 0.930 . S
H2255 C2252 0.929 . S
S2256 N2257 1.613 . S
S2256 N2258 1.610 . S
N2257 S2256 1.613 . S
N2257 C2260 1.350 . S
N2258 S2256 1.610 . S
N2258 C2259 1.351 . S
C2259 C2253 1.428 . S
C2259 N2258 1.351 . S
C2259 C2260 1.434 . S
C2260 C2251 1.429 1_455 S
C2260 N2257 1.350 . S
C2260 C2259 1.434 . S
C2261 C2262 1.369 . S
C2261 C2263 1.419 . S
C2261 H2265 0.930 . S
C2262 C2261 1.369 . S
C2262 C2271 1.429 . S
C2263 C2261 1.419 . S
C2263 C2264 1.363 . S
C2263 H2266 0.929 . S
C2264 C2263 1.363 . S
C2264 C2270 1.428 . S
H2265 C2261 0.930 . S
H2266 C2263 0.929 . S
S2267 N2268 1.613 . S
S2267 N2269 1.610 . S
N2268 S2267 1.613 . S
N2268 C2271 1.350 . S
N2269 S2267 1.610 . S
N2269 C2270 1.351 . S
C2270 C2264 1.428 . S
C2270 N2269 1.351 . S
C2270 C2271 1.434 . S
C2271 C2262 1.429 . S
C2271 N2268 1.350 . S
C2271 C2270 1.434 . S
C2272 C2273 1.369 . S
C2272 C2274 1.419 . S
C2272 H2276 0.930 . S
C2273 C2272 1.369 . S
C2273 C2282 1.429 . S
C2274 C2272 1.419 . S
C2274 C2275 1.363 . S
C2274 H2277 0.929 . S
C2275 C2274 1.363 . S
C2275 C2281 1.428 . S
H2276 C2272 0.930 . S
H2277 C2274 0.929 . S
S2278 N2279 1.613 . S
S2278 N2280 1.610 . S
N2279 S2278 1.613 . S
N2279 C2282 1.350 . S
N2280 S2278 1.610 . S
N2280 C2281 1.351 . S
C2281 C2275 1.428 . S
C2281 N2280 1.351 . S
C2281 C2282 1.434 . S
C2282 C2273 1.429 . S
C2282 N2279 1.350 . S
C2282 C2281 1.434 . S
C2283 C2284 1.369 . S
C2283 C2285 1.419 . S
C2283 H2287 0.930 . S
C2284 C2283 1.369 . S
C2284 C2293 1.429 . S
C2285 C2283 1.419 . S
C2285 C2286 1.363 . S
C2285 H2288 0.929 . S
C2286 C2285 1.363 . S
C2286 C2292 1.428 . S
H2287 C2283 0.930 . S
H2288 C2285 0.929 . S
S2289 N2290 1.613 . S
S2289 N2291 1.610 . S
N2290 S2289 1.613 . S
N2290 C2293 1.350 1_554 S
N2291 S2289 1.610 . S
N2291 C2292 1.351 1_554 S
C2292 C2286 1.428 . S
C2292 N2291 1.351 1_556 S
C2292 C2293 1.434 . S
C2293 C2284 1.429 . S
C2293 N2290 1.350 1_556 S
C2293 C2292 1.434 . S
C2294 C2295 1.369 . S
C2294 C2296 1.419 . S
C2294 H2298 0.930 . S
C2295 C2294 1.369 . S
C2295 C2304 1.429 . S
C2296 C2294 1.419 . S
C2296 C2297 1.363 . S
C2296 H2299 0.929 . S
C2297 C2296 1.363 . S
C2297 C2303 1.428 . S
H2298 C2294 0.930 . S
H2299 C2296 0.929 . S
S2300 N2301 1.613 . S
S2300 N2302 1.610 . S
N2301 S2300 1.613 . S
N2301 C2304 1.350 . S
N2302 S2300 1.610 . S
N2302 C2303 1.351 . S
C2303 C2297 1.428 . S
C2303 N2302 1.351 . S
C2303 C2304 1.434 . S
C2304 C2295 1.429 . S
C2304 N2301 1.350 . S
C2304 C2303 1.434 . S
C2305 C2306 1.369 . S
C2305 C2307 1.419 . S
C2305 H2309 0.930 . S
C2306 C2305 1.369 . S
C2306 C2315 1.429 . S
C2307 C2305 1.419 . S
C2307 C2308 1.363 . S
C2307 H2310 0.929 . S
C2308 C2307 1.363 . S
C2308 C2314 1.428 . S
H2309 C2305 0.930 . S
H2310 C2307 0.929 . S
S2311 N2312 1.613 . S
S2311 N2313 1.610 . S
N2312 S2311 1.613 . S
N2312 C2315 1.350 . S
N2313 S2311 1.610 . S
N2313 C2314 1.351 . S
C2314 C2308 1.428 . S
C2314 N2313 1.351 . S
C2314 C2315 1.434 . S
C2315 C2306 1.429 . S
C2315 N2312 1.350 . S
C2315 C2314 1.434 . S
C2316 C2317 1.369 . S
C2316 C2318 1.419 . S
C2316 H2320 0.930 . S
C2317 C2316 1.369 . S
C2317 C2326 1.429 . S
C2318 C2316 1.419 . S
C2318 C2319 1.363 . S
C2318 H2321 0.929 . S
C2319 C2318 1.363 . S
C2319 C2325 1.428 . S
H2320 C2316 0.930 . S
H2321 C2318 0.929 . S
S2322 N2323 1.613 . S
S2322 N2324 1.610 . S
N2323 S2322 1.613 . S
N2323 C2326 1.350 . S
N2324 S2322 1.610 . S
N2324 C2325 1.351 . S
C2325 C2319 1.428 . S
C2325 N2324 1.351 . S
C2325 C2326 1.434 . S
C2326 C2317 1.429 . S
C2326 N2323 1.350 . S
C2326 C2325 1.434 . S
C2327 C2328 1.369 . S
C2327 C2329 1.419 . S
C2327 H2331 0.930 . S
C2328 C2327 1.369 . S
C2328 C2337 1.429 . S
C2329 C2327 1.419 . S
C2329 C2330 1.363 . S
C2329 H2332 0.929 . S
C2330 C2329 1.363 . S
C2330 C2336 1.428 . S
H2331 C2327 0.930 . S
H2332 C2329 0.929 . S
S2333 N2334 1.613 . S
S2333 N2335 1.610 . S
N2334 S2333 1.613 . S
N2334 C2337 1.350 . S
N2335 S2333 1.610 . S
N2335 C2336 1.351 . S
C2336 C2330 1.428 . S
C2336 N2335 1.351 . S
C2336 C2337 1.434 . S
C2337 C2328 1.429 . S
C2337 N2334 1.350 . S
C2337 C2336 1.434 . S
C2338 C2339 1.369 . S
C2338 C2340 1.419 . S
C2338 H2342 0.930 . S
C2339 C2338 1.369 . S
C2339 C2348 1.429 . S
C2340 C2338 1.419 . S
C2340 C2341 1.363 . S
C2340 H2343 0.929 . S
C2341 C2340 1.363 . S
C2341 C2347 1.428 . S
H2342 C2338 0.930 . S
H2343 C2340 0.929 . S
S2344 N2345 1.613 . S
S2344 N2346 1.610 . S
N2345 S2344 1.613 . S
N2345 C2348 1.350 . S
N2346 S2344 1.610 . S
N2346 C2347 1.351 . S
C2347 C2341 1.428 . S
C2347 N2346 1.351 . S
C2347 C2348 1.434 . S
C2348 C2339 1.429 . S
C2348 N2345 1.350 . S
C2348 C2347 1.434 . S
C2349 C2350 1.369 . S
C2349 C2351 1.419 . S
C2349 H2353 0.930 . S
C2350 C2349 1.369 . S
C2350 C2359 1.429 . S
C2351 C2349 1.419 . S
C2351 C2352 1.363 . S
C2351 H2354 0.929 . S
C2352 C2351 1.363 . S
C2352 C2358 1.428 . S
H2353 C2349 0.930 . S
H2354 C2351 0.929 . S
S2355 N2356 1.613 . S
S2355 N2357 1.610 . S
N2356 S2355 1.613 . S
N2356 C2359 1.350 . S
N2357 S2355 1.610 . S
N2357 C2358 1.351 . S
C2358 C2352 1.428 . S
C2358 N2357 1.351 . S
C2358 C2359 1.434 . S
C2359 C2350 1.429 . S
C2359 N2356 1.350 . S
C2359 C2358 1.434 . S
C2360 C2361 1.369 . S
C2360 C2362 1.419 . S
C2360 H2364 0.930 . S
C2361 C2360 1.369 . S
C2361 C2370 1.429 . S
C2362 C2360 1.419 . S
C2362 C2363 1.363 . S
C2362 H2365 0.929 . S
C2363 C2362 1.363 . S
C2363 C2369 1.428 . S
H2364 C2360 0.930 . S
H2365 C2362 0.929 . S
S2366 N2367 1.613 . S
S2366 N2368 1.610 . S
N2367 S2366 1.613 . S
N2367 C2370 1.350 . S
N2368 S2366 1.610 . S
N2368 C2369 1.351 . S
C2369 C2363 1.428 . S
C2369 N2368 1.351 . S
C2369 C2370 1.434 . S
C2370 C2361 1.429 . S
C2370 N2367 1.350 . S
C2370 C2369 1.434 . S
C2371 C2372 1.369 . S
C2371 C2373 1.419 . S
C2371 H2375 0.930 . S
C2372 C2371 1.369 . S
C2372 C2381 1.429 . S
C2373 C2371 1.419 . S
C2373 C2374 1.363 . S
C2373 H2376 0.929 . S
C2374 C2373 1.363 . S
C2374 C2380 1.428 . S
H2375 C2371 0.930 . S
H2376 C2373 0.929 . S
S2377 N2378 1.613 . S
S2377 N2379 1.610 . S
N2378 S2377 1.613 . S
N2378 C2381 1.350 . S
N2379 S2377 1.610 . S
N2379 C2380 1.351 . S
C2380 C2374 1.428 . S
C2380 N2379 1.351 . S
C2380 C2381 1.434 . S
C2381 C2372 1.429 . S
C2381 N2378 1.350 . S
C2381 C2380 1.434 . S
C2382 C2383 1.369 . S
C2382 C2384 1.419 . S
C2382 H2386 0.930 . S
C2383 C2382 1.369 . S
C2383 C2392 1.429 . S
C2384 C2382 1.419 . S
C2384 C2385 1.363 . S
C2384 H2387 0.929 . S
C2385 C2384 1.363 . S
C2385 C2391 1.428 . S
H2386 C2382 0.930 . S
H2387 C2384 0.929 . S
S2388 N2389 1.613 . S
S2388 N2390 1.610 . S
N2389 S2388 1.613 . S
N2389 C2392 1.350 . S
N2390 S2388 1.610 . S
N2390 C2391 1.351 . S
C2391 C2385 1.428 . S
C2391 N2390 1.351 . S
C2391 C2392 1.434 . S
C2392 C2383 1.429 . S
C2392 N2389 1.350 . S
C2392 C2391 1.434 . S
C2393 C2394 1.369 . S
C2393 C2395 1.419 . S
C2393 H2397 0.930 . S
C2394 C2393 1.369 . S
C2394 C2403 1.429 1_564 S
C2395 C2393 1.419 . S
C2395 C2396 1.363 1_565 S
C2395 H2398 0.929 . S
C2396 C2395 1.363 1_545 S
C2396 C2402 1.428 1_554 S
H2397 C2393 0.930 . S
H2398 C2395 0.929 . S
S2399 N2400 1.613 . S
S2399 N2401 1.610 . S
N2400 S2399 1.613 . S
N2400 C2403 1.350 . S
N2401 S2399 1.610 . S
N2401 C2402 1.351 . S
C2402 C2396 1.428 1_556 S
C2402 N2401 1.351 . S
C2402 C2403 1.434 . S
C2403 C2394 1.429 1_546 S
C2403 N2400 1.350 . S
C2403 C2402 1.434 . S
C2404 C2405 1.369 . S
C2404 C2406 1.419 . S
C2404 H2408 0.930 . S
C2405 C2404 1.369 . S
C2405 C2414 1.429 . S
C2406 C2404 1.419 . S
C2406 C2407 1.363 . S
C2406 H2409 0.929 . S
C2407 C2406 1.363 . S
C2407 C2413 1.428 . S
H2408 C2404 0.930 . S
H2409 C2406 0.929 . S
S2410 N2411 1.613 . S
S2410 N2412 1.610 . S
N2411 S2410 1.613 . S
N2411 C2414 1.350 . S
N2412 S2410 1.610 . S
N2412 C2413 1.351 . S
C2413 C2407 1.428 . S
C2413 N2412 1.351 . S
C2413 C2414 1.434 . S
C2414 C2405 1.429 . S
C2414 N2411 1.350 . S
C2414 C2413 1.434 . S
C2415 C2416 1.369 . S
C2415 C2417 1.419 . S
C2415 H2419 0.930 . S
C2416 C2415 1.369 . S
C2416 C2425 1.429 . S
C2417 C2415 1.419 . S
C2417 C2418 1.363 . S
C2417 H2420 0.929 . S
C2418 C2417 1.363 . S
C2418 C2424 1.428 . S
H2419 C2415 0.930 . S
H2420 C2417 0.929 . S
S2421 N2422 1.613 . S
S2421 N2423 1.610 1_556 S
N2422 S2421 1.613 . S
N2422 C2425 1.350 1_556 S
N2423 S2421 1.610 1_554 S
N2423 C2424 1.351 . S
C2424 C2418 1.428 . S
C2424 N2423 1.351 . S
C2424 C2425 1.434 . S
C2425 C2416 1.429 . S
C2425 N2422 1.350 1_554 S
C2425 C2424 1.434 . S
C2426 C2427 1.369 . S
C2426 C2428 1.419 . S
C2426 H2430 0.930 . S
C2427 C2426 1.369 . S
C2427 C2436 1.429 . S
C2428 C2426 1.419 . S
C2428 C2429 1.363 . S
C2428 H2431 0.929 . S
C2429 C2428 1.363 . S
C2429 C2435 1.428 . S
H2430 C2426 0.930 . S
H2431 C2428 0.929 . S
S2432 N2433 1.613 . S
S2432 N2434 1.610 . S
N2433 S2432 1.613 . S
N2433 C2436 1.350 . S
N2434 S2432 1.610 . S
N2434 C2435 1.351 . S
C2435 C2429 1.428 . S
C2435 N2434 1.351 . S
C2435 C2436 1.434 . S
C2436 C2427 1.429 . S
C2436 N2433 1.350 . S
C2436 C2435 1.434 . S
C2437 C2438 1.369 . S
C2437 C2439 1.419 . S
C2437 H2441 0.930 . S
C2438 C2437 1.369 . S
C2438 C2447 1.429 . S
C2439 C2437 1.419 . S
C2439 C2440 1.363 . S
C2439 H2442 0.929 . S
C2440 C2439 1.363 . S
C2440 C2446 1.428 . S
H2441 C2437 0.930 . S
H2442 C2439 0.929 . S
S2443 N2444 1.613 . S
S2443 N2445 1.610 . S
N2444 S2443 1.613 . S
N2444 C2447 1.350 . S
N2445 S2443 1.610 . S
N2445 C2446 1.351 . S
C2446 C2440 1.428 . S
C2446 N2445 1.351 . S
C2446 C2447 1.434 . S
C2447 C2438 1.429 . S
C2447 N2444 1.350 . S
C2447 C2446 1.434 . S
C2448 C2449 1.369 . S
C2448 C2450 1.419 . S
C2448 H2452 0.930 . S
C2449 C2448 1.369 . S
C2449 C2458 1.429 . S
C2450 C2448 1.419 . S
C2450 C2451 1.363 . S
C2450 H2453 0.929 . S
C2451 C2450 1.363 . S
C2451 C2457 1.428 . S
H2452 C2448 0.930 . S
H2453 C2450 0.929 . S
S2454 N2455 1.613 . S
S2454 N2456 1.610 . S
N2455 S2454 1.613 . S
N2455 C2458 1.350 . S
N2456 S2454 1.610 . S
N2456 C2457 1.351 . S
C2457 C2451 1.428 . S
C2457 N2456 1.351 . S
C2457 C2458 1.434 . S
C2458 C2449 1.429 . S
C2458 N2455 1.350 . S
C2458 C2457 1.434 . S
C2459 C2460 1.369 . S
C2459 C2461 1.419 . S
C2459 H2463 0.930 . S
C2460 C2459 1.369 . S
C2460 C2469 1.429 . S
C2461 C2459 1.419 . S
C2461 C2462 1.363 . S
C2461 H2464 0.929 . S
C2462 C2461 1.363 . S
C2462 C2468 1.428 . S
H2463 C2459 0.930 . S
H2464 C2461 0.929 . S
S2465 N2466 1.613 . S
S2465 N2467 1.610 . S
N2466 S2465 1.613 . S
N2466 C2469 1.350 . S
N2467 S2465 1.610 . S
N2467 C2468 1.351 . S
C2468 C2462 1.428 . S
C2468 N2467 1.351 . S
C2468 C2469 1.434 . S
C2469 C2460 1.429 . S
C2469 N2466 1.350 . S
C2469 C2468 1.434 . S
C2470 C2471 1.369 . S
C2470 C2472 1.419 . S
C2470 H2474 0.930 . S
C2471 C2470 1.369 . S
C2471 C2480 1.429 . S
C2472 C2470 1.419 . S
C2472 C2473 1.363 . S
C2472 H2475 0.929 . S
C2473 C2472 1.363 . S
C2473 C2479 1.428 . S
H2474 C2470 0.930 . S
H2475 C2472 0.929 . S
S2476 N2477 1.613 1_556 S
S2476 N2478 1.610 1_556 S
N2477 S2476 1.613 1_554 S
N2477 C2480 1.350 . S
N2478 S2476 1.610 1_554 S
N2478 C2479 1.351 . S
C2479 C2473 1.428 . S
C2479 N2478 1.351 . S
C2479 C2480 1.434 . S
C2480 C2471 1.429 . S
C2480 N2477 1.350 . S
C2480 C2479 1.434 . S
C2481 C2482 1.369 . S
C2481 C2483 1.419 . S
C2481 H2485 0.930 . S
C2482 C2481 1.369 . S
C2482 C2491 1.429 . S
C2483 C2481 1.419 . S
C2483 C2484 1.363 . S
C2483 H2486 0.929 . S
C2484 C2483 1.363 . S
C2484 C2490 1.428 . S
H2485 C2481 0.930 . S
H2486 C2483 0.929 . S
S2487 N2488 1.613 . S
S2487 N2489 1.610 . S
N2488 S2487 1.613 . S
N2488 C2491 1.350 . S
N2489 S2487 1.610 . S
N2489 C2490 1.351 . S
C2490 C2484 1.428 . S
C2490 N2489 1.351 . S
C2490 C2491 1.434 . S
C2491 C2482 1.429 . S
C2491 N2488 1.350 . S
C2491 C2490 1.434 . S
C2492 C2493 1.369 . S
C2492 C2494 1.419 . S
C2492 H2496 0.930 . S
C2493 C2492 1.369 . S
C2493 C2502 1.429 . S
C2494 C2492 1.419 . S
C2494 C2495 1.363 . S
C2494 H2497 0.929 . S
C2495 C2494 1.363 . S
C2495 C2501 1.428 . S
H2496 C2492 0.930 . S
H2497 C2494 0.929 . S
S2498 N2499 1.613 . S
S2498 N2500 1.610 . S
N2499 S2498 1.613 . S
N2499 C2502 1.350 . S
N2500 S2498 1.610 . S
N2500 C2501 1.351 . S
C2501 C2495 1.428 . S
C2501 N2500 1.351 . S
C2501 C2502 1.434 . S
C2502 C2493 1.429 . S
C2502 N2499 1.350 . S
C2502 C2501 1.434 . S
C2503 C2504 1.369 . S
C2503 C2505 1.419 . S
C2503 H2507 0.930 . S
C2504 C2503 1.369 . S
C2504 C2513 1.429 . S
C2505 C2503 1.419 . S
C2505 C2506 1.363 . S
C2505 H2508 0.929 . S
C2506 C2505 1.363 . S
C2506 C2512 1.428 . S
H2507 C2503 0.930 . S
H2508 C2505 0.929 . S
S2509 N2510 1.613 . S
S2509 N2511 1.610 . S
N2510 S2509 1.613 . S
N2510 C2513 1.350 . S
N2511 S2509 1.610 . S
N2511 C2512 1.351 . S
C2512 C2506 1.428 . S
C2512 N2511 1.351 . S
C2512 C2513 1.434 . S
C2513 C2504 1.429 . S
C2513 N2510 1.350 . S
C2513 C2512 1.434 . S
C2514 C2515 1.369 . S
C2514 C2516 1.419 . S
C2514 H2518 0.930 . S
C2515 C2514 1.369 . S
C2515 C2524 1.429 . S
C2516 C2514 1.419 . S
C2516 C2517 1.363 . S
C2516 H2519 0.929 . S
C2517 C2516 1.363 . S
C2517 C2523 1.428 . S
H2518 C2514 0.930 . S
H2519 C2516 0.929 . S
S2520 N2521 1.613 . S
S2520 N2522 1.610 . S
N2521 S2520 1.613 . S
N2521 C2524 1.350 . S
N2522 S2520 1.610 . S
N2522 C2523 1.351 . S
C2523 C2517 1.428 . S
C2523 N2522 1.351 . S
C2523 C2524 1.434 . S
C2524 C2515 1.429 . S
C2524 N2521 1.350 . S
C2524 C2523 1.434 . S
C2525 C2526 1.369 . S
C2525 C2527 1.419 . S
C2525 H2529 0.930 . S
C2526 C2525 1.369 . S
C2526 C2535 1.429 . S
C2527 C2525 1.419 . S
C2527 C2528 1.363 . S
C2527 H2530 0.929 . S
C2528 C2527 1.363 . S
C2528 C2534 1.428 . S
H2529 C2525 0.930 . S
H2530 C2527 0.929 . S
S2531 N2532 1.613 . S
S2531 N2533 1.610 . S
N2532 S2531 1.613 . S
N2532 C2535 1.350 . S
N2533 S2531 1.610 . S
N2533 C2534 1.351 . S
C2534 C2528 1.428 . S
C2534 N2533 1.351 . S
C2534 C2535 1.434 . S
C2535 C2526 1.429 . S
C2535 N2532 1.350 . S
C2535 C2534 1.434 . S
C2536 C2537 1.369 . S
C2536 C2538 1.419 . S
C2536 H2540 0.930 . S
C2537 C2536 1.369 . S
C2537 C2546 1.429 . S
C2538 C2536 1.419 . S
C2538 C2539 1.363 . S
C2538 H2541 0.929 . S
C2539 C2538 1.363 . S
C2539 C2545 1.428 . S
H2540 C2536 0.930 . S
H2541 C2538 0.929 . S
S2542 N2543 1.613 . S
S2542 N2544 1.610 . S
N2543 S2542 1.613 . S
N2543 C2546 1.350 . S
N2544 S2542 1.610 . S
N2544 C2545 1.351 . S
C2545 C2539 1.428 . S
C2545 N2544 1.351 . S
C2545 C2546 1.434 . S
C2546 C2537 1.429 . S
C2546 N2543 1.350 . S
C2546 C2545 1.434 . S
C2547 C2548 1.369 . S
C2547 C2549 1.419 . S
C2547 H2551 0.930 . S
C2548 C2547 1.369 . S
C2548 C2557 1.429 . S
C2549 C2547 1.419 . S
C2549 C2550 1.363 . S
C2549 H2552 0.929 . S
C2550 C2549 1.363 . S
C2550 C2556 1.428 . S
H2551 C2547 0.930 . S
H2552 C2549 0.929 . S
S2553 N2554 1.613 . S
S2553 N2555 1.610 . S
N2554 S2553 1.613 . S
N2554 C2557 1.350 . S
N2555 S2553 1.610 . S
N2555 C2556 1.351 . S
C2556 C2550 1.428 . S
C2556 N2555 1.351 . S
C2556 C2557 1.434 . S
C2557 C2548 1.429 . S
C2557 N2554 1.350 . S
C2557 C2556 1.434 . S
C2558 C2559 1.369 . S
C2558 C2560 1.419 1_655 S
C2558 H2562 0.930 . S
C2559 C2558 1.369 . S
C2559 C2568 1.429 . S
C2560 C2558 1.419 1_455 S
C2560 C2561 1.363 . S
C2560 H2563 0.929 . S
C2561 C2560 1.363 . S
C2561 C2567 1.428 1_455 S
H2562 C2558 0.930 . S
H2563 C2560 0.929 . S
S2564 N2565 1.613 . S
S2564 N2566 1.610 . S
N2565 S2564 1.613 . S
N2565 C2568 1.350 . S
N2566 S2564 1.610 . S
N2566 C2567 1.351 . S
C2567 C2561 1.428 1_655 S
C2567 N2566 1.351 . S
C2567 C2568 1.434 . S
C2568 C2559 1.429 . S
C2568 N2565 1.350 . S
C2568 C2567 1.434 . S
C2569 C2570 1.369 . S
C2569 C2571 1.419 . S
C2569 H2573 0.930 . S
C2570 C2569 1.369 . S
C2570 C2579 1.429 . S
C2571 C2569 1.419 . S
C2571 C2572 1.363 . S
C2571 H2574 0.929 . S
C2572 C2571 1.363 . S
C2572 C2578 1.428 . S
H2573 C2569 0.930 . S
H2574 C2571 0.929 . S
S2575 N2576 1.613 . S
S2575 N2577 1.610 . S
N2576 S2575 1.613 . S
N2576 C2579 1.350 . S
N2577 S2575 1.610 . S
N2577 C2578 1.351 . S
C2578 C2572 1.428 . S
C2578 N2577 1.351 . S
C2578 C2579 1.434 . S
C2579 C2570 1.429 . S
C2579 N2576 1.350 . S
C2579 C2578 1.434 . S
C2580 C2581 1.369 . S
C2580 C2582 1.419 . S
C2580 H2584 0.930 . S
C2581 C2580 1.369 . S
C2581 C2590 1.429 . S
C2582 C2580 1.419 . S
C2582 C2583 1.363 . S
C2582 H2585 0.929 . S
C2583 C2582 1.363 . S
C2583 C2589 1.428 . S
H2584 C2580 0.930 . S
H2585 C2582 0.929 . S
S2586 N2587 1.613 . S
S2586 N2588 1.610 . S
N2587 S2586 1.613 . S
N2587 C2590 1.350 . S
N2588 S2586 1.610 . S
N2588 C2589 1.351 . S
C2589 C2583 1.428 . S
C2589 N2588 1.351 . S
C2589 C2590 1.434 . S
C2590 C2581 1.429 . S
C2590 N2587 1.350 . S
C2590 C2589 1.434 . S
C2591 C2592 1.369 . S
C2591 C2593 1.419 . S
C2591 H2595 0.930 . S
C2592 C2591 1.369 . S
C2592 C2601 1.429 . S
C2593 C2591 1.419 . S
C2593 C2594 1.363 . S
C2593 H2596 0.929 . S
C2594 C2593 1.363 . S
C2594 C2600 1.428 . S
H2595 C2591 0.930 . S
H2596 C2593 0.929 . S
S2597 N2598 1.613 . S
S2597 N2599 1.610 . S
N2598 S2597 1.613 . S
N2598 C2601 1.350 . S
N2599 S2597 1.610 . S
N2599 C2600 1.351 . S
C2600 C2594 1.428 . S
C2600 N2599 1.351 . S
C2600 C2601 1.434 . S
C2601 C2592 1.429 . S
C2601 N2598 1.350 . S
C2601 C2600 1.434 . S
C2602 C2603 1.369 . S
C2602 C2604 1.419 . S
C2602 H2606 0.930 . S
C2603 C2602 1.369 . S
C2603 C2612 1.429 . S
C2604 C2602 1.419 . S
C2604 C2605 1.363 . S
C2604 H2607 0.929 1_655 S
C2605 C2604 1.363 . S
C2605 C2611 1.428 . S
H2606 C2602 0.930 . S
H2607 C2604 0.929 1_455 S
S2608 N2609 1.613 . S
S2608 N2610 1.610 . S
N2609 S2608 1.613 . S
N2609 C2612 1.350 . S
N2610 S2608 1.610 . S
N2610 C2611 1.351 . S
C2611 C2605 1.428 . S
C2611 N2610 1.351 . S
C2611 C2612 1.434 . S
C2612 C2603 1.429 . S
C2612 N2609 1.350 . S
C2612 C2611 1.434 . S
C2613 C2614 1.369 . S
C2613 C2615 1.419 . S
C2613 H2617 0.930 . S
C2614 C2613 1.369 . S
C2614 C2623 1.429 . S
C2615 C2613 1.419 . S
C2615 C2616 1.363 . S
C2615 H2618 0.929 . S
C2616 C2615 1.363 . S
C2616 C2622 1.428 . S
H2617 C2613 0.930 . S
H2618 C2615 0.929 . S
S2619 N2620 1.613 . S
S2619 N2621 1.610 . S
N2620 S2619 1.613 . S
N2620 C2623 1.350 . S
N2621 S2619 1.610 . S
N2621 C2622 1.351 . S
C2622 C2616 1.428 . S
C2622 N2621 1.351 . S
C2622 C2623 1.434 . S
C2623 C2614 1.429 . S
C2623 N2620 1.350 . S
C2623 C2622 1.434 . S
C2624 C2625 1.369 . S
C2624 C2626 1.419 . S
C2624 H2628 0.930 . S
C2625 C2624 1.369 . S
C2625 C2634 1.429 . S
C2626 C2624 1.419 . S
C2626 C2627 1.363 . S
C2626 H2629 0.929 . S
C2627 C2626 1.363 . S
C2627 C2633 1.428 . S
H2628 C2624 0.930 . S
H2629 C2626 0.929 . S
S2630 N2631 1.613 . S
S2630 N2632 1.610 . S
N2631 S2630 1.613 . S
N2631 C2634 1.350 . S
N2632 S2630 1.610 . S
N2632 C2633 1.351 . S
C2633 C2627 1.428 . S
C2633 N2632 1.351 . S
C2633 C2634 1.434 . S
C2634 C2625 1.429 . S
C2634 N2631 1.350 . S
C2634 C2633 1.434 . S
C2635 C2636 1.369 . S
C2635 C2637 1.419 . S
C2635 H2639 0.930 . S
C2636 C2635 1.369 . S
C2636 C2645 1.429 . S
C2637 C2635 1.419 . S
C2637 C2638 1.363 . S
C2637 H2640 0.925 . S
C2638 C2637 1.363 . S
C2638 C2644 1.428 . S
H2639 C2635 0.930 . S
H2640 C2637 0.925 . S
S2641 N2642 1.613 1_545 S
S2641 N2643 1.610 . S
N2642 S2641 1.613 1_565 S
N2642 C2645 1.350 . S
N2643 S2641 1.610 . S
N2643 C2644 1.351 1_545 S
C2644 C2638 1.428 . S
C2644 N2643 1.351 1_565 S
C2644 C2645 1.434 . S
C2645 C2636 1.429 . S
C2645 N2642 1.350 . S
C2645 C2644 1.434 . S
C2646 C2647 1.369 . S
C2646 C2648 1.419 . S
C2646 H2650 0.930 . S
C2647 C2646 1.369 . S
C2647 C2656 1.429 . S
C2648 C2646 1.419 . S
C2648 C2649 1.363 . S
C2648 H2651 0.929 . S
C2649 C2648 1.363 . S
C2649 C2655 1.428 . S
H2650 C2646 0.930 . S
H2651 C2648 0.929 . S
S2652 N2653 1.613 . S
S2652 N2654 1.610 . S
N2653 S2652 1.613 . S
N2653 C2656 1.350 . S
N2654 S2652 1.610 . S
N2654 C2655 1.351 . S
C2655 C2649 1.428 . S
C2655 N2654 1.351 . S
C2655 C2656 1.434 . S
C2656 C2647 1.429 . S
C2656 N2653 1.350 . S
C2656 C2655 1.434 . S
C2657 C2658 1.369 . S
C2657 C2659 1.419 . S
C2657 H2661 0.930 . S
C2658 C2657 1.369 . S
C2658 C2667 1.429 . S
C2659 C2657 1.419 . S
C2659 C2660 1.363 . S
C2659 H2662 0.929 . S
C2660 C2659 1.363 . S
C2660 C2666 1.428 . S
H2661 C2657 0.930 . S
H2662 C2659 0.929 . S
S2663 N2664 1.613 . S
S2663 N2665 1.610 . S
N2664 S2663 1.613 . S
N2664 C2667 1.350 . S
N2665 S2663 1.610 . S
N2665 C2666 1.351 . S
C2666 C2660 1.428 . S
C2666 N2665 1.351 . S
C2666 C2667 1.434 . S
C2667 C2658 1.429 . S
C2667 N2664 1.350 . S
C2667 C2666 1.434 . S
C2668 C2669 1.369 . S
C2668 C2670 1.419 . S
C2668 H2672 0.930 . S
C2669 C2668 1.369 . S
C2669 C2678 1.429 . S
C2670 C2668 1.419 . S
C2670 C2671 1.363 . S
C2670 H2673 0.929 . S
C2671 C2670 1.363 . S
C2671 C2677 1.428 . S
H2672 C2668 0.930 . S
H2673 C2670 0.929 . S
S2674 N2675 1.613 . S
S2674 N2676 1.610 . S
N2675 S2674 1.613 . S
N2675 C2678 1.350 . S
N2676 S2674 1.610 . S
N2676 C2677 1.351 . S
C2677 C2671 1.428 . S
C2677 N2676 1.351 . S
C2677 C2678 1.434 . S
C2678 C2669 1.429 . S
C2678 N2675 1.350 . S
C2678 C2677 1.434 . S
C2679 C2680 1.369 . S
C2679 C2681 1.419 . S
C2679 H2683 0.930 . S
C2680 C2679 1.369 . S
C2680 C2689 1.429 . S
C2681 C2679 1.419 . S
C2681 C2682 1.363 . S
C2681 H2684 0.929 . S
C2682 C2681 1.363 . S
C2682 C2688 1.428 . S
H2683 C2679 0.930 . S
H2684 C2681 0.929 . S
S2685 N2686 1.613 . S
S2685 N2687 1.610 . S
N2686 S2685 1.613 . S
N2686 C2689 1.350 1_556 S
N2687 S2685 1.610 . S
N2687 C2688 1.351 1_556 S
C2688 C2682 1.428 . S
C2688 N2687 1.351 1_554 S
C2688 C2689 1.434 . S
C2689 C2680 1.429 . S
C2689 N2686 1.350 1_554 S
C2689 C2688 1.434 . S
C2690 C2691 1.369 . S
C2690 C2692 1.419 . S
C2690 H2694 0.930 . S
C2691 C2690 1.369 . S
C2691 C2700 1.429 . S
C2692 C2690 1.419 . S
C2692 C2693 1.363 . S
C2692 H2695 0.929 . S
C2693 C2692 1.363 . S
C2693 C2699 1.428 . S
H2694 C2690 0.930 . S
H2695 C2692 0.929 . S
S2696 N2697 1.613 . S
S2696 N2698 1.610 . S
N2697 S2696 1.613 . S
N2697 C2700 1.350 . S
N2698 S2696 1.610 . S
N2698 C2699 1.351 . S
C2699 C2693 1.428 . S
C2699 N2698 1.351 . S
C2699 C2700 1.434 . S
C2700 C2691 1.429 . S
C2700 N2697 1.350 . S
C2700 C2699 1.434 . S
C2701 C2702 1.369 . S
C2701 C2703 1.419 . S
C2701 H2705 0.930 . S
C2702 C2701 1.369 . S
C2702 C2711 1.429 . S
C2703 C2701 1.419 . S
C2703 C2704 1.363 . S
C2703 H2706 0.929 . S
C2704 C2703 1.363 . S
C2704 C2710 1.428 . S
H2705 C2701 0.930 . S
H2706 C2703 0.929 . S
S2707 N2708 1.613 . S
S2707 N2709 1.610 . S
N2708 S2707 1.613 . S
N2708 C2711 1.350 . S
N2709 S2707 1.610 . S
N2709 C2710 1.351 . S
C2710 C2704 1.428 . S
C2710 N2709 1.351 . S
C2710 C2711 1.434 . S
C2711 C2702 1.429 . S
C2711 N2708 1.350 . S
C2711 C2710 1.434 . S
C1657 C101 1.972 . S
C1659 C368 1.770 . S
C1668 C57 2.228 . S
C1670 C459 2.212 . S
C1679 C70 1.570 . S
C1681 C536 1.457 . S
C1692 C634 1.368 . S
C1690 C82 1.446 . S
C1701 C23 1.672 . S
C1703 C718 1.765 . S
C1714 C790 1.004 . S
C1712 C29 1.041 . S
C1725 C879 1.271 . S
C1723 C49 1.138 . S
C1734 C10 1.889 . S
C1736 C956 1.564 . S
C1747 C375 2.051 . S
C1745 C218 2.148 . S
C1756 C226 0.953 . S
C1758 C466 0.977 . S
C1769 C543 1.323 . S
C1767 C251 1.366 . S
C1780 C620 1.531 . S
C1778 C159 1.643 . S
C1789 C211 2.221 1_455 S
C1791 C704 1.981 . S
C1802 C806 1.261 . S
C1800 C225 1.394 . S
C1813 C886 0.904 . S
C1811 C252 0.905 . S
C1824 C963 1.671 . S
C1822 C166 1.877 . S
C1835 C382 1.492 . S
C1833 C147 1.504 . S
C1844 C263 1.878 . S
C1846 C1047 1.854 . S
C1857 C1135 2.244 . S
C1855 C309 2.481 . S
C1868 C1208 0.645 1_655 S
C1866 C291 0.546 . S
C1877 C108 1.575 . S
C1879 C970 1.778 . S
C1888 C121 1.587 . S
C1890 C550 1.648 . S
C1899 C302 2.126 . S
C1901 C1299 2.062 . S
C1912 C1376 0.831 . S
C1910 C276 0.874 . S
C1923 C379 1.967 . S
C1921 C55 2.086 . S
C1934 C1394 2.348 . S
C1932 C96 2.381 . S
C1943 C88 1.826 . S
C1945 C547 1.753 . S
C1954 C75 1.618 . S
C1956 C1294 1.500 . S
C1967 C706 1.687 . S
C1965 C4 1.642 . S
C1976 C44 1.179 . S
C1978 C1138 1.076 . S
C1989 C890 1.564 . S
C1987 C31 1.439 . S
C2000 C1471 1.638 . S
C1998 C18 1.816 . S
C2011 C386 2.232 . S
C2009 C133 2.341 . S
C2022 C1378 0.917 . S
C2020 C296 0.961 . S
C2031 C107 1.428 . S
C2033 C554 1.374 . S
C2042 C264 1.872 . S
C2044 C1303 1.774 . S
C2053 C140 2.329 . S
C2055 C715 2.161 . S
C2066 C1131 1.316 . S
C2064 C289 1.431 . S
C2075 C114 1.012 . S
C2077 C874 0.933 . S
C2086 C265 2.000 . S
C2088 C1478 1.835 . S
C2097 C179 1.539 . S
C2099 C370 1.491 . S
C2108 C161 2.058 . S
C2110 C1058 1.983 . S
C2119 C244 2.650 . S
C2121 C788 2.464 . S
C2130 C224 0.983 . S
C2132 C1219 0.970 . S
C2143 C1462 1.314 . S
C2141 C257 1.236 1_565 S
C2152 C199 1.580 . S
C2154 C538 1.565 . S
C2165 C638 2.223 . S
C2163 C237 2.325 . S
C2176 C463 0.975 . S
C2174 C185 1.009 . S
C2185 C69 1.969 . S
C2187 C1544 1.778 . S
C2198 C1383 2.207 . S
C2196 C83 2.222 . S
C2207 C94 1.569 . S
C2209 C1628 1.451 . S
C2218 C56 1.444 . S
C2220 C1306 1.370 . S
C2229 C42 1.691 . S
C2231 C1054 1.773 . S
C2242 C1126 1.014 . S
C2240 C3 1.042 . S
C2253 C1215 1.275 . S
C2251 C16 1.128 . S
C2264 C1460 1.575 . S
C2262 C36 1.881 . S
C2275 C1551 2.054 . S
C2273 C238 2.148 . S
C2284 C174 0.952 . S
C2286 C1390 0.975 . S
C2297 C1635 1.331 . S
C2295 C186 1.359 . S
C2308 C1292 1.531 . S
C2306 C198 1.642 . S
C2319 C1040 1.983 . S
C2317 C239 2.223 . S
C2328 C173 1.395 . S
C2330 C1142 1.264 . S
C2341 C1222 0.904 . S
C2339 C187 0.912 . S
C2350 C205 1.881 . S
C2352 C1467 1.670 . S
C2363 C1558 1.492 . S
C2361 C290 1.503 . S
C2372 C122 1.882 . S
C2374 C711 1.841 . S
C2385 C799 2.255 . S
C2383 C134 2.484 . S
C2396 C872 0.655 . S
C2394 C148 0.545 . S
C2407 C1474 1.779 . S
C2405 C283 1.565 . S
C2416 C270 1.582 . S
C2418 C1642 1.646 . S
C2429 C627 2.061 . S
C2427 C135 2.125 . S
C2440 C452 0.830 . S
C2438 C109 0.872 . S
C2449 C81 2.090 . S
C2451 C1555 1.959 . S
C2462 C470 2.349 . S
C2460 C68 2.384 . S
C2471 C62 1.829 . S
C2473 C1639 1.758 . S
C2482 C95 1.618 . S
C2484 C622 1.500 . S
C2493 C30 1.649 . S
C2495 C1042 1.689 . S
C2506 C802 1.070 . S
C2504 C17 1.171 . S
C2515 C5 1.440 . S
C2517 C1226 1.565 . S
C2526 C43 1.813 . S
C2528 C967 1.629 . S
C2539 C1562 2.230 . S
C2537 C304 2.342 . S
C2548 C153 0.956 . S
C2550 C454 0.902 . S
C2561 C1646 1.374 . S
C2559 C278 1.430 . S
C2570 C127 1.872 . S
C2572 C631 1.781 . S
C2581 C303 2.320 . S
C2583 C1051 2.161 . S
C2594 C795 1.320 . S
C2592 C146 1.432 . S
C2603 C277 1.014 . S
C2605 C1210 0.919 . S
C2616 C974 1.836 . S
C2614 C120 1.997 . S
C2627 C1546 1.486 . S
C2625 C231 1.539 . S
C2638 C722 1.983 1_655 S
C2636 C200 2.054 . S
C2647 C212 2.653 . S
C2649 C1124 2.467 . S
C2660 C883 0.968 . S
C2658 C172 0.981 . S
C2669 C192 1.231 . S
C2671 C958 1.314 . S
C2680 C160 1.580 . S
C2682 C1630 1.566 . S
C2693 C1310 2.230 . S
C2691 C213 2.327 1_565 S
C2704 C1387 0.979 . S
C2702 C250 1.012 . S
