# Generated by pormake.
# Topology scu, (8,4)-cn, num edge types: 1
# Building blocks:
#     Node 0, Type 0, BuildingBlock: VETTIZ_charged_sbu_0, # of connection points: 8
#     Node 1, Type 1, BuildingBlock: KOZSID_clean_sbu_0, # of connection points: 4
#     Node 2, Type 1, BuildingBlock: KOZSID_clean_sbu_0, # of connection points: 4
#     Edge 3, Type (0, 1), BuildingBlock: MIFKUJ_clean_linker_0, # of connection points: 2
#     Edge 4, Type (0, 1), BuildingBlock: MIFKUJ_clean_linker_0, # of connection points: 2
#     Edge 5, Type (0, 1), BuildingBlock: MIFKUJ_clean_linker_0, # of connection points: 2
#     Edge 6, Type (0, 1), BuildingBlock: MIFKUJ_clean_linker_0, # of connection points: 2
#     Edge 7, Type (0, 1), BuildingBlock: MIFKUJ_clean_linker_0, # of connection points: 2
#     Edge 8, Type (0, 1), BuildingBlock: MIFKUJ_clean_linker_0, # of connection points: 2
#     Edge 9, Type (0, 1), BuildingBlock: MIFKUJ_clean_linker_0, # of connection points: 2
#     Edge 10, Type (0, 1), BuildingBlock: MIFKUJ_clean_linker_0, # of connection points: 2
# Relax obj value: 0.001
# Max RMSD: 0.023
# Mean RMSD: 0.014
data_MOF--net-scu--node1-VETTIZ_charged_sbu_0--node2-KOZSID_clean_sbu_0--edge1-MIFKUJ_clean_linker_0
_symmetry_space_group_name_H-M    P1
_symmetry_Int_Tables_number       1
_symmetry_cell_setting            triclinic
loop_
_symmetry_equiv_pos_as_xyz
'x, y, z'
_cell_length_a     36.141923
_cell_length_b     35.570627
_cell_length_c     26.033833
_cell_angle_alpha  86.449883
_cell_angle_beta   86.233528
_cell_angle_gamma 91.145052
loop_
_atom_site_label
_atom_site_type_symbol
_atom_site_fract_x
_atom_site_fract_y
_atom_site_fract_z
_atom_type_partial_charge
Fe0 Fe 1.00009 1.00598 0.06477 0.0
O1 O 0.96495 0.00998 0.0085 0.0
Fe2 Fe 0.07802 0.96875 1.00322 0.0
Fe3 Fe 0.92572 0.04744 0.00695 0.0
O4 O 0.03821 1.00542 0.00547 0.0
O5 O 0.0384 1.00564 0.99964 0.0
O6 O 0.96515 0.01019 1.00266 0.0
Fe7 Fe 0.00327 1.00909 0.94317 0.0
C8 C 0.9182 1.00413 0.1117 0.0
O9 O 0.00616 0.06391 0.06487 0.0
O10 O 0.94707 0.07946 0.0621 0.0
O11 O 0.0497 1.00825 0.88873 0.0
O12 O 0.09942 1.00169 0.93984 0.0
O13 O 0.0964 1.00082 0.06003 0.0
O14 O 0.0438 1.00311 0.1153 0.0
O15 O 0.95097 0.08482 0.9505 0.0
O16 O 0.00961 0.06704 0.93751 0.0
C17 C 0.07959 1.00678 0.10438 0.0
O18 O 0.99729 0.95111 0.94366 0.0
O19 O 0.0559 0.93427 0.9511 0.0
O20 O 0.95362 1.00635 0.11918 0.0
O21 O 0.90377 0.01253 0.06813 0.0
C22 C 0.98007 0.08669 0.07344 0.0
C23 C 0.98448 0.09143 0.93349 0.0
C24 C 0.92356 0.01122 0.90324 0.0
O25 O 0.90725 0.01802 0.94757 0.0
O26 O 0.9595 0.01234 0.89269 0.0
C27 C 0.08513 0.01012 0.89621 0.0
O28 O 0.05412 0.93382 0.06337 0.0
O29 O 0.99429 0.94766 0.06924 0.0
C30 C 0.02321 0.92767 0.93762 0.0
C31 C 0.02062 0.92548 0.07865 0.0
C32 C 0.0311 0.5679 0.42326 0.0
C33 C 0.0645 0.58218 0.39976 0.0
C34 C 0.09197 0.56267 0.42215 0.0
C35 C 0.07394 0.53743 0.45759 0.0
N36 N 0.03653 0.53916 0.45871 0.0
Co37 Co 0.99989 0.50734 0.50489 0.0
N38 N 0.04046 0.48016 0.54001 0.0
C39 C 0.0774 0.48591 0.52995 0.0
C40 C 0.09856 0.46236 0.55893 0.0
C41 C 0.0737 0.43988 0.58904 0.0
C42 C 0.03865 0.45102 0.57656 0.0
N43 N 0.96323 0.47574 0.55139 0.0
C44 C 0.96865 0.44737 0.58736 0.0
C45 C 0.93526 0.43239 0.60993 0.0
C46 C 0.90779 0.45173 0.5873 0.0
C47 C 0.92584 0.47728 0.55231 0.0
N48 N 0.95931 0.53435 0.46951 0.0
C49 C 0.92238 0.52817 0.47926 0.0
C50 C 0.90108 0.55222 0.45139 0.0
C51 C 0.92577 0.57546 0.42229 0.0
C52 C 0.961 0.56403 0.43374 0.0
N53 N 0.99995 0.46795 0.45324 0.0
C54 C 1.00081 0.40845 0.38517 0.0
C55 C 0.96751 0.42084 0.40827 0.0
C56 C 0.9677 0.4504 0.44155 0.0
C57 C 0.03353 0.42722 0.39599 0.0
C58 C 0.03249 0.45644 0.42969 0.0
N59 N 0.99992 0.54669 0.55647 0.0
C60 C 0.96682 0.58893 0.612 0.0
C61 C 0.99998 0.606 0.62461 0.0
C62 C 0.03312 0.59214 0.60316 0.0
C63 C 0.03247 0.56277 0.56972 0.0
C64 C 0.96742 0.55961 0.57836 0.0
H65 H 0.0587 0.55391 0.55452 0.0
H66 H 0.94117 0.54803 0.57034 0.0
H67 H 0.94139 0.45822 0.4579 0.0
H68 H 0.05851 0.46905 0.43636 0.0
C69 C 0.09134 0.51256 0.49147 0.0
C70 C 0.9951 0.58326 0.41131 0.0
C71 C 0.0046 0.4326 0.60003 0.0
C72 C 0.90852 0.50173 0.51796 0.0
H73 H 0.06868 0.60471 0.36991 0.0
H74 H 0.12158 0.56679 0.41409 0.0
H75 H 0.12851 0.4612 0.55764 0.0
H76 H 0.08055 0.41748 0.61661 0.0
H77 H 0.93116 0.40937 0.63906 0.0
H78 H 0.87817 0.44713 0.59465 0.0
H79 H 0.87113 0.5536 0.4534 0.0
H80 H 0.91843 0.59882 0.3967 0.0
H81 H 0.94128 0.40731 0.40175 0.0
H82 H 0.06008 0.41959 0.37839 0.0
H83 H 0.94034 0.59795 0.6282 0.0
H84 H 0.05965 0.60442 0.61109 0.0
C85 C 0.44139 0.98717 0.59009 0.0
C86 C 0.42474 0.95492 0.61491 0.0
C87 C 0.44325 0.9251 0.59604 0.0
C88 C 0.47002 0.94085 0.56101 0.0
N89 N 0.47061 0.97895 0.55764 0.0
Co90 Co 0.50151 0.01322 0.5069 0.0
N91 N 0.52435 0.96954 0.47242 0.0
C92 C 0.51796 0.93256 0.4862 0.0
C93 C 0.5409 0.90912 0.45988 0.0
C94 C 0.56409 0.93247 0.42844 0.0
C95 C 0.55372 0.96905 0.43707 0.0
N96 N 0.53112 0.04759 0.45498 0.0
C97 C 0.55839 0.03958 0.41937 0.0
C98 C 0.57252 0.0719 0.39172 0.0
C99 C 0.5546 0.10154 0.41212 0.0
C100 C 0.5304 0.08565 0.45055 0.0
N101 N 0.47962 0.05686 0.54244 0.0
C102 C 0.4886 0.09375 0.53207 0.0
C103 C 0.46708 0.11728 0.56051 0.0
C104 C 0.44228 0.09411 0.58975 0.0
C105 C 0.45018 0.05759 0.57754 0.0
N106 N 0.54378 0.01279 0.55258 0.0
C107 C 0.61136 1.00745 0.60076 0.0
C108 C 0.6018 0.04092 0.57468 0.0
C109 C 0.56779 0.04324 0.55207 0.0
C110 C 0.5856 0.97748 0.60519 0.0
C111 C 0.55232 0.98066 0.58087 0.0
N112 N 0.45955 0.01351 0.46118 0.0
C113 C 0.41308 0.04792 0.41614 0.0
C114 C 0.39391 0.01453 0.40818 0.0
C115 C 0.40898 0.98052 0.42536 0.0
C116 C 0.44182 0.98063 0.45101 0.0
C117 C 0.44553 0.04679 0.4425 0.0
H118 H 0.45196 0.95382 0.46317 0.0
H119 H 0.45827 0.07328 0.44846 0.0
H120 H 0.56201 0.06973 0.53332 0.0
H121 H 0.53451 0.95634 0.58442 0.0
C122 C 0.49267 0.92089 0.52729 0.0
C123 C 0.4269 0.02478 0.59583 0.0
C124 C 0.57433 1.00251 0.41418 0.0
C125 C 0.51142 0.10556 0.48835 0.0
H126 H 0.40074 0.95315 0.6422 0.0
H127 H 0.43674 0.89547 0.60483 0.0
H128 H 0.54195 0.87873 0.46496 0.0
H129 H 0.587 0.92342 0.40379 0.0
H130 H 0.59487 0.07394 0.36183 0.0
H131 H 0.56027 0.13121 0.40235 0.0
H132 H 0.46737 0.14777 0.55728 0.0
H133 H 0.41969 0.10333 0.61487 0.0
H134 H 0.62053 0.06525 0.57172 0.0
H135 H 0.59168 0.95117 0.62582 0.0
H136 H 0.40253 0.07499 0.40343 0.0
H137 H 0.39556 0.95386 0.41897 0.0
H138 H 0.93411 0.14601 0.08504 0.0
H139 H 0.94278 0.20101 0.13458 0.0
H140 H 0.05017 0.16201 0.17384 0.0
H141 H 0.04151 0.10622 0.12448 0.0
H142 H 0.01001 0.18483 0.25791 0.0
H143 H 0.04288 0.23627 0.08714 0.0
H144 H 0.03444 0.2484 0.99442 0.0
H145 H 0.93507 0.30832 0.03035 0.0
H146 H 0.94254 0.296 0.1234 0.0
H147 H 0.05349 0.3539 0.37554 0.0
H148 H 0.05484 0.3015 0.31938 0.0
H149 H 0.95056 0.33548 0.26203 0.0
H150 H 0.94996 0.38924 0.31608 0.0
H151 H 0.99439 0.31525 0.18486 0.0
H152 H 0.95924 0.26029 0.35501 0.0
H153 H 0.9656 0.24529 0.44771 0.0
H154 H 0.06797 0.19012 0.41273 0.0
H155 H 0.06255 0.20534 0.31983 0.0
C156 C 0.95976 0.14909 0.10387 0.0
C157 C 0.98712 0.12153 0.10063 0.0
C158 C 0.96473 0.18078 0.13208 0.0
C159 C 0.99728 0.18599 0.15768 0.0
C160 C 0.02485 0.15871 0.15434 0.0
C161 C 0.01994 0.12692 0.12584 0.0
C162 C 0.00168 0.21937 0.18904 0.0
C163 C 0.00733 0.21342 0.24173 0.0
C164 C 0.99729 0.25667 0.16828 0.0
C165 C 0.99316 0.265 0.11233 0.0
C166 C 0.01912 0.25187 0.07532 0.0
C167 C 0.01451 0.25878 0.0227 0.0
C168 C 0.98424 0.2791 0.00654 0.0
C169 C 0.95853 0.29261 0.04297 0.0
C170 C 0.96295 0.2857 0.09567 0.0
C171 C 0.03102 0.3507 0.35052 0.0
C172 C 0.00156 0.37609 0.35072 0.0
C173 C 0.03162 0.32026 0.31876 0.0
C174 C 0.00252 0.31395 0.28682 0.0
C175 C 0.97332 0.33948 0.28637 0.0
C176 C 0.97282 0.3701 0.31787 0.0
C177 C 0.00234 0.28075 0.25409 0.0
C178 C 0.99743 0.28673 0.20106 0.0
C179 C 0.00735 0.24341 0.27458 0.0
C180 C 0.01072 0.2344 0.33048 0.0
C181 C 0.98329 0.24529 0.3671 0.0
C182 C 0.9867 0.2367 0.41969 0.0
C183 C 0.01724 0.2169 0.43612 0.0
C184 C 0.04439 0.20556 0.39997 0.0
C185 C 0.04117 0.21417 0.34734 0.0
H186 H 0.01981 0.21025 0.47684 0.0
H187 H 0.98078 0.28446 0.9658 0.0
H188 H 0.85978 0.95532 0.11344 0.0
H189 H 0.806 0.95086 0.17557 0.0
H190 H 0.8596 0.02829 0.26975 0.0
H191 H 0.91429 0.03197 0.20786 0.0
H192 H 0.81314 0.97482 0.32914 0.0
H193 H 0.80488 0.06329 0.1847 0.0
H194 H 0.80944 0.08453 0.09249 0.0
H195 H 0.72538 1.00301 0.06332 0.0
H196 H 0.72077 0.98083 0.15528 0.0
H197 H 0.63889 0.03138 0.44541 0.0
H198 H 0.70116 0.03 0.40219 0.0
H199 H 0.65766 0.96522 0.28384 0.0
H200 H 0.59512 0.96881 0.32543 0.0
H201 H 0.70201 0.01641 0.24081 0.0
H202 H 0.71192 0.9274 0.38854 0.0
H203 H 0.70711 0.9096 0.4819 0.0
H204 H 0.78733 0.99615 0.50672 0.0
H205 H 0.79235 0.01471 0.41353 0.0
C206 C 0.86062 0.97042 0.14826 0.0
C207 C 0.89109 0.99412 0.15576 0.0
C208 C 0.8298 0.96799 0.18366 0.0
C209 C 0.82833 0.98995 0.22672 0.0
C210 C 0.86002 0.0112 0.23671 0.0
C211 C 0.8913 0.01321 0.20145 0.0
C212 C 0.79223 0.99411 0.25681 0.0
C213 C 0.78889 0.98423 0.31002 0.0
C214 C 0.7605 1.00648 0.232 0.0
C215 C 0.7627 0.02019 0.17681 0.0
C216 C 0.78753 0.04973 0.15857 0.0
C217 C 0.79011 0.06195 0.10635 0.0
C218 C 0.76777 0.04508 0.07205 0.0
C219 C 0.7427 0.01602 0.08993 0.0
C220 C 0.74007 1.00364 0.14211 0.0
C221 C 0.64284 0.01677 0.41022 0.0
C222 C 0.61243 0.99964 0.3891 0.0
C223 C 0.67846 0.01568 0.38574 0.0
C224 C 0.68454 0.99676 0.34016 0.0
C225 C 0.65395 0.97978 0.31908 0.0
C226 C 0.61825 0.9815 0.34303 0.0
C227 C 0.72226 0.99575 0.31303 0.0
C228 C 0.72607 1.00671 0.26017 0.0
C229 C 0.75429 0.98471 0.33843 0.0
C230 C 0.75233 0.97259 0.39412 0.0
C231 C 0.7285 0.94266 0.41392 0.0
C232 C 0.72572 0.93245 0.46681 0.0
C233 C 0.74685 0.95177 0.50022 0.0
C234 C 0.77098 0.9812 0.48079 0.0
C235 C 0.77386 0.99153 0.42793 0.0
H236 H 0.74457 0.94391 0.54117 0.0
H237 H 0.76982 0.05456 0.03162 0.0
H238 H 0.96201 0.87429 0.08223 0.0
H239 H 0.9539 0.81537 0.13667 0.0
H240 H 0.05445 0.84146 0.20955 0.0
H241 H 0.06366 0.89852 0.15308 0.0
H242 H 0.05659 0.77381 0.19649 0.0
H243 H 0.9593 0.84859 0.26673 0.0
H244 H 0.90392 0.88796 0.26481 0.0
H245 H 0.84092 0.79592 0.21231 0.0
H246 H 0.8961 0.75616 0.21316 0.0
H247 H 0.02219 0.65342 0.428 0.0
H248 H 0.02231 0.71097 0.37057 0.0
H249 H 0.96367 0.6509 0.26096 0.0
H250 H 0.965 0.59283 0.3173 0.0
H251 H 0.9377 0.73272 0.29128 0.0
H252 H 0.04116 0.65907 0.22508 0.0
H253 H 0.09771 0.62281 0.23729 0.0
H254 H 0.15044 0.71924 0.29534 0.0
H255 H 0.09388 0.75585 0.28438 0.0
C256 C 0.9822 0.86734 0.11006 0.0
C257 C 0.01352 0.89091 0.11324 0.0
C258 C 0.9775 0.83372 0.1415 0.0
C259 C 0.00333 0.82371 0.1781 0.0
C260 C 0.03418 0.84792 0.18164 0.0
C261 C 0.03939 0.88075 0.14937 0.0
C262 C 0.99923 0.78785 0.21196 0.0
C263 C 0.03053 0.76532 0.21741 0.0
C264 C 0.9653 0.77588 0.23937 0.0
C265 C 0.93194 0.79953 0.23948 0.0
C266 C 0.93369 0.83682 0.25448 0.0
C267 C 0.90234 0.8592 0.2536 0.0
C268 C 0.86896 0.84448 0.2383 0.0
C269 C 0.86682 0.8073 0.22405 0.0
C270 C 0.89812 0.78482 0.22475 0.0
C271 C 0.00928 0.65257 0.39168 0.0
C272 C 0.99344 0.61871 0.3772 0.0
C273 C 0.00919 0.68545 0.35906 0.0
C274 C 0.99271 0.68532 0.31168 0.0
C275 C 0.97617 0.65175 0.29758 0.0
C276 C 0.97698 0.61863 0.32971 0.0
C277 C 0.99499 0.71962 0.27558 0.0
C278 C 0.96349 0.74159 0.2699 0.0
C279 C 0.0289 0.73176 0.24905 0.0
C280 C 0.06318 0.71005 0.25439 0.0
C281 C 0.0647 0.67243 0.24085 0.0
C282 C 0.09677 0.65184 0.24749 0.0
C283 C 0.12762 0.66868 0.26721 0.0
C284 C 0.12651 0.70621 0.28014 0.0
C285 C 0.09446 0.7269 0.27369 0.0
H286 H 0.15241 0.65269 0.27236 0.0
H287 H 0.84473 0.86187 0.23759 0.0
H288 H 0.07442 0.98192 0.20679 0.0
H289 H 0.12354 0.98653 0.26738 0.0
H290 H 0.18964 0.05646 0.15337 0.0
H291 H 0.1413 0.05137 0.09302 0.0
H292 H 0.22745 0.99796 0.18534 0.0
H293 H 0.15281 0.09097 0.26544 0.0
H294 H 0.09641 0.11634 0.30766 0.0
H295 H 0.09839 0.03062 0.43099 0.0
H296 H 0.15459 1.00443 0.38915 0.0
H297 H 0.37816 0.05645 0.32113 0.0
H298 H 0.32008 0.05732 0.27784 0.0
H299 H 0.27131 0.97547 0.39301 0.0
H300 H 0.32945 0.97462 0.43685 0.0
H301 H 0.22296 0.03588 0.36576 0.0
H302 H 0.29916 0.94439 0.28458 0.0
H303 H 0.35643 0.92113 0.24198 0.0
H304 H 0.35132 1.00668 0.119 0.0
H305 H 0.29429 0.03082 0.1613 0.0
C306 C 0.09899 0.99915 0.19543 0.0
C307 C 0.10423 0.01607 0.14516 0.0
C308 C 0.12709 1.0017 0.22995 0.0
C309 C 0.1605 0.02158 0.21475 0.0
C310 C 0.16437 0.04063 0.16581 0.0
C311 C 0.13665 0.03781 0.1314 0.0
C312 C 0.19302 0.01966 0.24698 0.0
C313 C 0.22645 1.00673 0.22458 0.0
C314 C 0.19157 0.02992 0.29875 0.0
C315 C 0.15767 0.04547 0.32383 0.0
C316 C 0.14102 0.07729 0.3013 0.0
C317 C 0.10913 0.09188 0.32522 0.0
C318 C 0.09376 0.07503 0.37189 0.0
C319 C 0.1103 0.0436 0.39479 0.0
C320 C 0.14219 0.0289 0.37101 0.0
C321 C 0.35499 0.03886 0.33751 0.0
C322 C 0.35846 0.01529 0.38221 0.0
C323 C 0.32186 0.03932 0.31268 0.0
C324 C 0.29144 0.01635 0.33211 0.0
C325 C 0.29444 0.99343 0.37743 0.0
C326 C 0.32776 0.99269 0.40207 0.0
C327 C 0.25728 0.01511 0.30343 0.0
C328 C 0.22369 0.02711 0.32654 0.0
C329 C 0.25846 1.00422 0.25206 0.0
C330 C 0.29264 0.98962 0.22636 0.0
C331 C 0.31041 0.95843 0.24867 0.0
C332 C 0.3428 0.94506 0.22454 0.0
C333 C 0.35755 0.96247 0.17787 0.0
C334 C 0.33988 0.99324 0.15518 0.0
C335 C 0.30751 1.00677 0.17919 0.0
H336 H 0.38263 0.95207 0.15924 0.0
H337 H 0.06909 0.08639 0.39038 0.0
H338 H 0.96468 0.91 0.87977 0.0
H339 H 0.95759 0.85483 0.82898 0.0
H340 H 0.05914 0.8107 0.88378 0.0
H341 H 0.06677 0.86585 0.93346 0.0
H342 H 0.06053 0.80567 0.78508 0.0
H343 H 0.96972 0.77602 0.92479 0.0
H344 H 0.91421 0.78402 0.98291 0.0
H345 H 0.84574 0.78432 0.85419 0.0
H346 H 0.90093 0.77809 0.79504 0.0
H347 H 0.04872 0.6208 0.69823 0.0
H348 H 0.04996 0.67445 0.75238 0.0
H349 H 0.95262 0.71791 0.68454 0.0
H350 H 0.95137 0.66453 0.62974 0.0
H351 H 0.94772 0.72377 0.7879 0.0
H352 H 0.03864 0.75601 0.64856 0.0
H353 H 0.09381 0.74608 0.59052 0.0
H354 H 0.16146 0.73817 0.72014 0.0
H355 H 0.10657 0.74752 0.77906 0.0
C356 C 0.98526 0.88832 0.88152 0.0
C357 C 0.01638 0.89257 0.91072 0.0
C358 C 0.98115 0.85666 0.85243 0.0
C359 C 0.00778 0.82828 0.85244 0.0
C360 C 0.03829 0.83214 0.88266 0.0
C361 C 0.04255 0.86377 0.9113 0.0
C362 C 0.0051 0.79537 0.8195 0.0
C363 C 0.03594 0.78755 0.78637 0.0
C364 C 0.97274 0.77206 0.81975 0.0
C365 C 0.93963 0.77712 0.8553 0.0
C366 C 0.94292 0.77851 0.90872 0.0
C367 C 0.91147 0.78277 0.94189 0.0
C368 C 0.87647 0.78503 0.92224 0.0
C369 C 0.87287 0.78302 0.86938 0.0
C370 C 0.90425 0.77927 0.83598 0.0
C371 C 0.0277 0.64187 0.69438 0.0
C372 C 1.00007 0.63822 0.65915 0.0
C373 C 0.02841 0.67258 0.72558 0.0
C374 C 0.00164 0.70062 0.72226 0.0
C375 C 0.97357 0.69671 0.68797 0.0
C376 C 0.97285 0.666 0.6567 0.0
C377 C 0.00317 0.73412 0.75413 0.0
C378 C 0.97218 0.74205 0.7868 0.0
C379 C 0.03536 0.75755 0.75364 0.0
C380 C 0.06843 0.75212 0.71826 0.0
C381 C 0.06523 0.75187 0.66472 0.0
C382 C 0.09646 0.74639 0.63166 0.0
C383 C 0.1311 0.74141 0.65164 0.0
C384 C 0.1346 0.74199 0.70473 0.0
C385 C 0.10345 0.74741 0.73796 0.0
H386 H 0.15524 0.73717 0.62599 0.0
H387 H 0.85212 0.78813 0.94799 0.0
H388 H 0.14924 0.04986 0.90076 0.0
H389 H 0.20022 0.05861 0.83518 0.0
H390 H 0.13542 1.00337 0.72722 0.0
H391 H 0.08376 0.99414 0.79385 0.0
H392 H 0.20345 0.97388 0.73034 0.0
H393 H 0.15878 0.09699 0.7061 0.0
H394 H 0.13439 0.15828 0.7297 0.0
H395 H 0.23516 0.18343 0.80063 0.0
H396 H 0.26001 0.12209 0.77808 0.0
H397 H 0.36307 1.00614 0.55261 0.0
H398 H 0.29904 0.00959 0.58997 0.0
H399 H 0.33975 0.05562 0.7256 0.0
H400 H 0.40371 0.05191 0.6883 0.0
H401 H 0.27746 0.09251 0.6924 0.0
H402 H 0.31684 0.96395 0.72496 0.0
H403 H 0.34068 0.90327 0.69789 0.0
H404 H 0.24733 0.88953 0.60631 0.0
H405 H 0.22329 0.95052 0.63212 0.0
C406 C 0.14544 0.04018 0.86276 0.0
C407 C 0.11244 0.02124 0.85254 0.0
C408 C 0.17465 0.0454 0.82508 0.0
C409 C 0.17176 0.03191 0.77595 0.0
C410 C 0.13829 0.01416 0.76479 0.0
C411 C 0.10868 1.00917 0.80268 0.0
C412 C 0.2051 0.03377 0.73872 0.0
C413 C 0.21911 1.00002 0.72094 0.0
C414 C 0.22595 0.06774 0.72684 0.0
C415 C 0.2112 0.10477 0.74059 0.0
C416 C 0.17566 0.11546 0.72706 0.0
C417 C 0.16176 0.15025 0.74019 0.0
C418 C 0.1832 0.17471 0.7667 0.0
C419 C 0.2186 0.16446 0.78007 0.0
C420 C 0.23263 0.1297 0.76703 0.0
C421 C 0.35815 0.01724 0.59023 0.0
C422 C 0.3881 0.02909 0.61752 0.0
C423 C 0.32167 0.01917 0.61155 0.0
C424 C 0.31452 0.03279 0.6607 0.0
C425 C 0.34451 0.04525 0.68752 0.0
C426 C 0.38099 0.04314 0.66629 0.0
C427 C 0.2761 0.03255 0.68544 0.0
C428 C 0.26131 0.06658 0.70094 0.0
C429 C 0.25436 0.99894 0.69474 0.0
C430 C 0.26848 0.96198 0.68001 0.0
C431 C 0.30154 0.94812 0.69876 0.0
C432 C 0.31508 0.91366 0.68367 0.0
C433 C 0.29558 0.8926 0.6503 0.0
C434 C 0.26244 0.90591 0.63208 0.0
C435 C 0.24884 0.94041 0.64692 0.0
H436 H 0.3061 0.86593 0.63865 0.0
H437 H 0.17239 0.20163 0.77682 0.0
H438 H 0.9758 0.16254 0.96547 0.0
H439 H 0.9853 0.22221 0.91349 0.0
H440 H 0.01888 0.16097 0.78069 0.0
H441 H 0.01242 0.10173 0.83405 0.0
H442 H 0.05664 0.22037 0.77236 0.0
H443 H 0.92455 0.1996 0.81154 0.0
H444 H 0.86825 0.18839 0.86984 0.0
H445 H 0.88952 0.29184 0.94067 0.0
H446 H 0.94599 0.30356 0.8829 0.0
H447 H 0.01634 0.36005 0.57598 0.0
H448 H 0.01699 0.30353 0.63513 0.0
H449 H 0.99772 0.37224 0.76475 0.0
H450 H 0.9963 0.42855 0.70525 0.0
H451 H 0.9546 0.31145 0.7774 0.0
H452 H 0.08419 0.33418 0.73057 0.0
H453 H 0.13982 0.34444 0.6709 0.0
H454 H 0.12226 0.23588 0.61192 0.0
H455 H 0.06612 0.22524 0.67055 0.0
C456 C 0.98575 0.16205 0.92533 0.0
C457 C 0.99335 0.12764 0.90364 0.0
C458 C 0.99075 0.19615 0.89533 0.0
C459 C 0.00161 0.19647 0.84227 0.0
C460 C 0.0103 0.16191 0.82123 0.0
C461 C 0.00659 0.12795 0.85171 0.0
C462 C 0.00309 0.23232 0.80828 0.0
C463 C 0.03402 0.23994 0.77315 0.0
C464 C 0.97417 0.2588 0.80961 0.0
C465 C 0.93966 0.25225 0.84329 0.0
C466 C 0.91722 0.2199 0.83962 0.0
C467 C 0.88528 0.21347 0.87255 0.0
C468 C 0.87536 0.23934 0.90902 0.0
C469 C 0.89723 0.27182 0.91242 0.0
C470 C 0.92916 0.27841 0.87953 0.0
C471 C 0.01248 0.36292 0.61716 0.0
C472 C 0.00641 0.39849 0.63625 0.0
C473 C 0.01301 0.33069 0.65101 0.0
C474 C 0.00789 0.33344 0.70474 0.0
C475 C 0.00181 0.36919 0.72364 0.0
C476 C 1.00113 0.40138 0.68975 0.0
C477 C 0.00782 0.29907 0.74111 0.0
C478 C 0.97719 0.29182 0.77669 0.0
C479 C 0.0368 0.27277 0.73974 0.0
C480 C 0.07071 0.27908 0.70465 0.0
C481 C 0.09201 0.31262 0.7046 0.0
C482 C 0.12366 0.31849 0.67097 0.0
C483 C 0.13452 0.29087 0.63756 0.0
C484 C 0.11379 0.25727 0.63777 0.0
C485 C 0.08205 0.25131 0.67119 0.0
H486 H 0.15904 0.29546 0.61157 0.0
H487 H 0.85068 0.23426 0.93457 0.0
H488 H 0.85039 0.99148 0.91667 0.0
H489 H 0.80615 0.98497 0.85201 0.0
H490 H 0.89319 1.00533 0.73147 0.0
H491 H 0.93842 0.01324 0.7971 0.0
H492 H 0.8313 0.04662 0.71323 0.0
H493 H 0.85383 0.91684 0.75622 0.0
H494 H 0.86251 0.86214 0.8168 0.0
H495 H 0.75099 0.87128 0.88178 0.0
H496 H 0.74183 0.92641 0.82231 0.0
H497 H 0.68013 0.02097 0.55228 0.0
H498 H 0.74045 0.01439 0.58952 0.0
H499 H 0.68483 0.98015 0.73739 0.0
H500 H 0.62482 0.98505 0.69955 0.0
H501 H 0.74118 0.93892 0.72427 0.0
H502 H 0.72378 0.07433 0.70056 0.0
H503 H 0.71381 0.13328 0.64873 0.0
H504 H 0.81309 0.11589 0.5541 0.0
H505 H 0.82342 0.05663 0.60512 0.0
C506 C 0.86057 0.99441 0.87652 0.0
C507 C 0.8982 1.00307 0.86229 0.0
C508 C 0.83505 0.99033 0.83941 0.0
C509 C 0.84629 0.99405 0.78676 0.0
C510 C 0.88392 1.00209 0.77194 0.0
C511 C 0.90976 1.00635 0.80945 0.0
C512 C 0.81775 0.99123 0.74831 0.0
C513 C 0.81213 0.02265 0.71461 0.0
C514 C 0.7923 0.96024 0.75067 0.0
C515 C 0.79718 0.92586 0.78476 0.0
C516 C 0.83116 0.9072 0.78342 0.0
C517 C 0.83618 0.87613 0.81765 0.0
C518 C 0.80732 0.8633 0.85317 0.0
C519 C 0.7733 0.88126 0.85422 0.0
C520 C 0.76816 0.91237 0.82019 0.0
C521 C 0.68096 0.01211 0.59276 0.0
C522 C 0.64789 1.00379 0.62324 0.0
C523 C 0.71541 1.00843 0.61407 0.0
C524 C 0.71742 0.99731 0.66662 0.0
C525 C 0.68424 0.98866 0.69678 0.0
C526 C 0.6499 0.9916 0.67526 0.0
C527 C 0.75365 0.99507 0.69102 0.0
C528 C 0.7608 0.96254 0.72186 0.0
C529 C 0.78019 0.02522 0.68657 0.0
C530 C 0.77415 0.06094 0.65626 0.0
C531 C 0.74336 0.08302 0.66853 0.0
C532 C 0.73766 0.11647 0.63933 0.0
C533 C 0.76274 0.12826 0.59806 0.0
C534 C 0.79365 0.10669 0.58602 0.0
C535 C 0.79946 0.0732 0.61508 0.0
H536 H 0.75828 0.15416 0.57549 0.0
H537 H 0.81126 0.83952 0.88003 0.0
loop_
_geom_bond_atom_site_label_1
_geom_bond_atom_site_label_2
_geom_bond_distance
_geom_bond_site_symmetry_2
_ccdc_geom_bond_type
Fe0 O1 1.886 1_565 S
Fe0 O4 1.715 1_655 S
Fe0 O9 2.078 1_565 S
Fe0 O14 1.935 1_665 S
Fe0 O20 2.077 . S
Fe0 O29 1.935 . S
O1 Fe0 1.886 1_545 S
O1 Fe3 1.715 1_554 S
Fe2 O4 1.886 . S
Fe2 O5 1.715 1_554 S
Fe2 O12 1.935 1_554 S
Fe2 O13 2.077 . S
Fe2 O19 1.935 1_554 S
Fe2 O28 2.077 . S
Fe3 O1 1.715 1_556 S
Fe3 O6 1.886 . S
Fe3 O10 1.935 1_556 S
Fe3 O15 2.077 . S
Fe3 O21 1.935 1_556 S
Fe3 O25 2.077 . S
O4 Fe0 1.715 1_455 S
O4 Fe2 1.886 . S
O5 Fe2 1.715 1_556 S
O5 Fe7 1.886 1_565 S
O6 Fe3 1.886 . S
O6 Fe7 1.715 1_655 S
Fe7 O5 1.886 1_545 S
Fe7 O6 1.715 1_455 S
Fe7 O11 2.077 . S
Fe7 O16 1.935 . S
Fe7 O18 2.077 1_545 S
Fe7 O26 1.935 1_445 S
C8 O20 1.381 1_545 S
C8 O21 1.421 . S
O9 Fe0 2.078 1_545 S
O9 C22 1.392 . S
O10 Fe3 1.935 1_554 S
O10 C22 1.421 . S
O11 Fe7 2.077 . S
O11 C27 1.381 1_545 S
O12 Fe2 1.935 1_556 S
O12 C27 1.421 . S
O13 Fe2 2.077 . S
O13 C17 1.381 . S
O14 Fe0 1.935 1_445 S
O14 C17 1.421 1_545 S
O15 Fe3 2.077 . S
O15 C23 1.381 . S
O16 Fe7 1.935 . S
O16 C23 1.421 1_455 S
C17 O13 1.381 . S
C17 O14 1.421 1_565 S
O18 Fe7 2.077 1_565 S
O18 C30 1.381 . S
O19 Fe2 1.935 1_556 S
O19 C30 1.421 . S
O20 Fe0 2.077 . S
O20 C8 1.381 1_565 S
O21 Fe3 1.935 1_554 S
O21 C8 1.421 . S
C22 O9 1.392 . S
C22 O10 1.421 . S
C23 O15 1.381 . S
C23 O16 1.421 1_655 S
C24 O25 1.381 . S
C24 O26 1.421 1_545 S
O25 Fe3 2.077 . S
O25 C24 1.381 . S
O26 Fe7 1.935 1_665 S
O26 C24 1.421 1_565 S
C27 O11 1.381 1_565 S
C27 O12 1.421 . S
O28 Fe2 2.077 . S
O28 C31 1.381 . S
O29 Fe0 1.935 . S
O29 C31 1.421 1_655 S
C30 O18 1.381 . S
C30 O19 1.421 . S
C31 O28 1.381 . S
C31 O29 1.421 1_455 S
C32 C33 1.443 . S
C32 N36 1.376 . S
C32 C70 1.404 . S
C33 C32 1.443 . S
C33 C34 1.340 . S
C33 H73 0.951 . S
C34 C33 1.340 . S
C34 C35 1.439 . S
C34 H74 0.950 . S
C35 C34 1.439 . S
C35 N36 1.374 . S
C35 C69 1.395 . S
N36 C32 1.376 . S
N36 C35 1.374 . S
N36 Co37 2.008 . S
Co37 N36 2.008 . S
Co37 N38 1.995 . S
Co37 N43 2.008 1_455 S
Co37 N48 1.995 1_455 S
Co37 N53 2.282 . S
Co37 N59 2.282 1_455 S
N38 Co37 1.995 . S
N38 C39 1.376 . S
N38 C42 1.383 . S
C39 N38 1.376 . S
C39 C40 1.446 . S
C39 C69 1.391 . S
C40 C39 1.446 . S
C40 C41 1.339 . S
C40 H75 0.949 . S
C41 C40 1.339 . S
C41 C42 1.439 . S
C41 H76 0.950 . S
C42 N38 1.383 . S
C42 C41 1.439 . S
C42 C71 1.384 1_455 S
N43 Co37 2.008 1_655 S
N43 C44 1.376 . S
N43 C47 1.374 . S
C44 N43 1.376 . S
C44 C45 1.443 . S
C44 C71 1.397 . S
C45 C44 1.443 . S
C45 C46 1.340 . S
C45 H77 0.951 . S
C46 C45 1.340 . S
C46 C47 1.439 . S
C46 H78 0.950 . S
C47 N43 1.374 . S
C47 C46 1.439 . S
C47 C72 1.395 . S
N48 Co37 1.995 1_655 S
N48 C49 1.376 . S
N48 C52 1.383 . S
C49 N48 1.376 . S
C49 C50 1.446 . S
C49 C72 1.391 . S
C50 C49 1.446 . S
C50 C51 1.339 . S
C50 H79 0.949 . S
C51 C50 1.339 . S
C51 C52 1.439 . S
C51 H80 0.950 . S
C52 N48 1.383 . S
C52 C51 1.439 . S
C52 C70 1.378 1_655 S
N53 Co37 2.282 . S
N53 C56 1.332 1_455 S
N53 C58 1.332 . S
C54 C55 1.375 1_455 S
C54 C57 1.400 . S
C55 C54 1.375 1_655 S
C55 C56 1.382 . S
C55 H81 0.950 . S
C56 N53 1.332 1_655 S
C56 C55 1.382 . S
C56 H67 0.952 . S
C57 C54 1.400 . S
C57 C58 1.382 . S
C57 H82 0.950 . S
C58 N53 1.332 . S
C58 C57 1.382 . S
C58 H68 0.948 . S
N59 Co37 2.282 1_655 S
N59 C63 1.332 1_655 S
N59 C64 1.332 . S
C60 C61 1.394 . S
C60 C64 1.382 . S
C60 H83 0.950 . S
C61 C60 1.394 . S
C61 C62 1.381 1_655 S
C62 C61 1.381 1_455 S
C62 C63 1.382 . S
C62 H84 0.950 . S
C63 N59 1.332 1_455 S
C63 C62 1.382 . S
C63 H65 0.952 . S
C64 N59 1.332 . S
C64 C60 1.382 . S
C64 H66 0.948 . S
H65 C63 0.952 . S
H66 C64 0.948 . S
H67 C56 0.952 . S
H68 C58 0.948 . S
C69 C35 1.395 . S
C69 C39 1.391 . S
C70 C32 1.404 . S
C70 C52 1.378 1_455 S
C71 C42 1.384 1_655 S
C71 C44 1.397 . S
C72 C47 1.395 . S
C72 C49 1.391 . S
H73 C33 0.951 . S
H74 C34 0.950 . S
H75 C40 0.949 . S
H76 C41 0.950 . S
H77 C45 0.951 . S
H78 C46 0.950 . S
H79 C50 0.949 . S
H80 C51 0.950 . S
H81 C55 0.950 . S
H82 C57 0.950 . S
H83 C60 0.950 . S
H84 C62 0.950 . S
C85 C86 1.443 . S
C85 N89 1.376 . S
C85 C123 1.397 . S
C86 C85 1.443 . S
C86 C87 1.340 . S
C86 H126 0.951 . S
C87 C86 1.340 . S
C87 C88 1.439 . S
C87 H127 0.950 . S
C88 C87 1.439 . S
C88 N89 1.374 . S
C88 C122 1.395 . S
N89 C85 1.376 . S
N89 C88 1.374 . S
N89 Co90 2.008 1_565 S
Co90 N89 2.008 1_545 S
Co90 N91 1.995 1_545 S
Co90 N96 2.008 . S
Co90 N101 1.995 . S
Co90 N106 2.282 1_545 S
Co90 N112 2.282 . S
N91 Co90 1.995 1_565 S
N91 C92 1.376 . S
N91 C95 1.383 . S
C92 N91 1.376 . S
C92 C93 1.446 . S
C92 C122 1.391 . S
C93 C92 1.446 . S
C93 C94 1.339 . S
C93 H128 0.949 . S
C94 C93 1.339 . S
C94 C95 1.439 . S
C94 H129 0.950 . S
C95 N91 1.383 . S
C95 C94 1.439 . S
C95 C124 1.378 1_565 S
N96 Co90 2.008 . S
N96 C97 1.376 . S
N96 C100 1.374 . S
C97 N96 1.376 . S
C97 C98 1.443 . S
C97 C124 1.404 . S
C98 C97 1.443 . S
C98 C99 1.340 . S
C98 H130 0.951 . S
C99 C98 1.340 . S
C99 C100 1.439 . S
C99 H131 0.950 . S
C100 N96 1.374 . S
C100 C99 1.439 . S
C100 C125 1.395 . S
N101 Co90 1.995 . S
N101 C102 1.376 . S
N101 C105 1.383 . S
C102 N101 1.376 . S
C102 C103 1.446 . S
C102 C125 1.391 . S
C103 C102 1.446 . S
C103 C104 1.339 . S
C103 H132 0.949 . S
C104 C103 1.339 . S
C104 C105 1.439 . S
C104 H133 0.950 . S
C105 N101 1.383 . S
C105 C104 1.439 . S
C105 C123 1.384 1_545 S
N106 Co90 2.282 1_565 S
N106 C109 1.332 1_565 S
N106 C111 1.332 . S
C107 C108 1.381 1_565 S
C107 C110 1.394 . S
C108 C107 1.381 1_545 S
C108 C109 1.382 . S
C108 H134 0.950 . S
C109 N106 1.332 1_545 S
C109 C108 1.382 . S
C109 H120 0.952 . S
C110 C107 1.394 . S
C110 C111 1.382 . S
C110 H135 0.950 . S
C111 N106 1.332 . S
C111 C110 1.382 . S
C111 H121 0.948 . S
N112 Co90 2.282 . S
N112 C116 1.332 1_545 S
N112 C117 1.332 . S
C113 C114 1.400 . S
C113 C117 1.382 . S
C113 H136 0.950 . S
C114 C113 1.400 . S
C114 C115 1.375 1_545 S
C115 C114 1.375 1_565 S
C115 C116 1.382 . S
C115 H137 0.950 . S
C116 N112 1.332 1_565 S
C116 C115 1.382 . S
C116 H118 0.952 . S
C117 N112 1.332 . S
C117 C113 1.382 . S
C117 H119 0.948 . S
H118 C116 0.952 . S
H119 C117 0.948 . S
H120 C109 0.952 . S
H121 C111 0.948 . S
C122 C88 1.395 . S
C122 C92 1.391 . S
C123 C85 1.397 . S
C123 C105 1.384 1_565 S
C124 C95 1.378 1_545 S
C124 C97 1.404 . S
C125 C100 1.395 . S
C125 C102 1.391 . S
H126 C86 0.951 . S
H127 C87 0.950 . S
H128 C93 0.949 . S
H129 C94 0.950 . S
H130 C98 0.951 . S
H131 C99 0.950 . S
H132 C103 0.949 . S
H133 C104 0.950 . S
H134 C108 0.950 . S
H135 C110 0.950 . S
H136 C113 0.950 . S
H137 C115 0.950 . S
H138 C156 0.951 . S
H139 C158 0.951 . S
H140 C160 0.950 . S
H141 C161 0.950 . S
H142 C163 0.950 1_455 S
H143 C166 0.950 . S
H144 C167 0.950 . S
H145 C169 0.950 . S
H146 C170 0.950 . S
H147 C171 0.951 . S
H148 C173 0.951 . S
H149 C175 0.950 . S
H150 C176 0.950 . S
H151 C178 0.950 . S
H152 C181 0.950 . S
H153 C182 0.950 . S
H154 C184 0.950 . S
H155 C185 0.950 . S
C156 H138 0.951 . S
C156 C157 1.366 . S
C156 C158 1.388 . S
C157 C156 1.366 . S
C157 C161 1.385 1_655 S
C158 H139 0.951 . S
C158 C156 1.388 . S
C158 C159 1.366 . S
C159 C158 1.366 . S
C159 C160 1.414 1_655 S
C159 C162 1.499 1_655 S
C160 H140 0.950 . S
C160 C159 1.414 1_455 S
C160 C161 1.374 . S
C161 H141 0.950 . S
C161 C157 1.385 1_455 S
C161 C160 1.374 . S
C162 C159 1.499 1_455 S
C162 C163 1.374 1_455 S
C162 C164 1.391 . S
C163 H142 0.950 1_655 S
C163 C162 1.374 1_655 S
C163 C179 1.377 . S
C164 C162 1.391 . S
C164 C165 1.526 . S
C164 C178 1.376 1_455 S
C165 C164 1.526 . S
C165 C166 1.397 . S
C165 C170 1.363 1_455 S
C166 H143 0.950 . S
C166 C165 1.397 . S
C166 C167 1.334 . S
C167 H144 0.950 . S
C167 C166 1.334 . S
C167 C168 1.287 . S
C168 C167 1.287 . S
C168 C169 1.524 1_455 S
C168 H187 0.913 1_554 S
C169 H145 0.950 . S
C169 C168 1.524 1_655 S
C169 C170 1.415 . S
C170 H146 0.950 . S
C170 C165 1.363 1_655 S
C170 C169 1.415 . S
C171 H147 0.951 . S
C171 C172 1.368 1_455 S
C171 C173 1.388 . S
C172 C171 1.368 1_655 S
C172 C176 1.382 . S
C173 H148 0.951 . S
C173 C171 1.388 . S
C173 C174 1.366 1_455 S
C174 C173 1.366 1_655 S
C174 C175 1.414 . S
C174 C177 1.499 . S
C175 H149 0.950 . S
C175 C174 1.414 . S
C175 C176 1.374 . S
C176 H150 0.950 . S
C176 C172 1.382 . S
C176 C175 1.374 . S
C177 C174 1.499 . S
C177 C178 1.373 . S
C177 C179 1.389 . S
C178 H151 0.950 . S
C178 C164 1.376 1_655 S
C178 C177 1.373 . S
C179 C163 1.377 . S
C179 C177 1.389 . S
C179 C180 1.524 . S
C180 C179 1.524 . S
C180 C181 1.397 . S
C180 C185 1.363 1_655 S
C181 H152 0.950 . S
C181 C180 1.397 . S
C181 C182 1.334 . S
C182 H153 0.950 . S
C182 C181 1.334 . S
C182 C183 1.287 . S
C183 C182 1.287 . S
C183 C184 1.524 1_655 S
C183 H186 0.999 . S
C184 H154 0.950 . S
C184 C183 1.524 1_455 S
C184 C185 1.415 . S
C185 H155 0.950 . S
C185 C180 1.363 1_455 S
C185 C184 1.415 . S
H186 C183 0.999 . S
H187 C168 0.913 1_556 S
H188 C206 0.951 . S
H189 C208 0.951 . S
H190 C210 0.950 . S
H191 C211 0.950 . S
H192 C213 0.950 . S
H193 C216 0.950 . S
H194 C217 0.950 . S
H195 C219 0.950 . S
H196 C220 0.950 . S
H197 C221 0.951 . S
H198 C223 0.951 . S
H199 C225 0.950 . S
H200 C226 0.950 . S
H201 C228 0.950 . S
H202 C231 0.950 . S
H203 C232 0.950 . S
H204 C234 0.950 . S
H205 C235 0.950 . S
C206 H188 0.951 . S
C206 C207 1.366 . S
C206 C208 1.388 . S
C207 C206 1.366 . S
C207 C211 1.385 1_565 S
C208 H189 0.951 . S
C208 C206 1.388 . S
C208 C209 1.365 1_565 S
C209 C208 1.365 1_545 S
C209 C210 1.415 . S
C209 C212 1.499 . S
C210 H190 0.950 . S
C210 C209 1.415 . S
C210 C211 1.374 . S
C211 H191 0.950 . S
C211 C207 1.385 1_545 S
C211 C210 1.374 . S
C212 C209 1.499 . S
C212 C213 1.373 1_545 S
C212 C214 1.389 . S
C213 H192 0.950 . S
C213 C212 1.373 1_565 S
C213 C229 1.377 . S
C214 C212 1.389 . S
C214 C215 1.524 . S
C214 C228 1.377 . S
C215 C214 1.524 . S
C215 C216 1.397 . S
C215 C220 1.363 . S
C216 H193 0.950 . S
C216 C215 1.397 . S
C216 C217 1.334 . S
C217 H194 0.950 . S
C217 C216 1.334 . S
C217 C218 1.287 . S
C218 C217 1.287 . S
C218 C219 1.524 . S
C218 H237 0.913 . S
C219 H195 0.950 . S
C219 C218 1.524 . S
C219 C220 1.415 . S
C220 H196 0.950 . S
C220 C215 1.363 . S
C220 C219 1.415 . S
C221 H197 0.951 . S
C221 C222 1.367 1_545 S
C221 C223 1.388 . S
C222 C221 1.367 1_565 S
C222 C226 1.383 . S
C223 H198 0.951 . S
C223 C221 1.388 . S
C223 C224 1.366 1_545 S
C224 C223 1.366 1_565 S
C224 C225 1.414 . S
C224 C227 1.499 . S
C225 H199 0.950 . S
C225 C224 1.414 . S
C225 C226 1.374 . S
C226 H200 0.950 . S
C226 C222 1.383 . S
C226 C225 1.374 . S
C227 C224 1.499 . S
C227 C228 1.373 1_565 S
C227 C229 1.389 . S
C228 H201 0.950 . S
C228 C214 1.377 . S
C228 C227 1.373 1_545 S
C229 C213 1.377 . S
C229 C227 1.389 . S
C229 C230 1.524 . S
C230 C229 1.524 . S
C230 C231 1.397 . S
C230 C235 1.363 . S
C231 H202 0.950 . S
C231 C230 1.397 . S
C231 C232 1.334 . S
C232 H203 0.950 . S
C232 C231 1.334 . S
C232 C233 1.287 . S
C233 C232 1.287 . S
C233 C234 1.524 . S
C233 H236 0.999 . S
C234 H204 0.950 . S
C234 C233 1.524 . S
C234 C235 1.415 . S
C235 H205 0.950 . S
C235 C230 1.363 . S
C235 C234 1.415 . S
H236 C233 0.999 . S
H237 C218 0.913 . S
H238 C256 0.951 . S
H239 C258 0.951 . S
H240 C260 0.950 . S
H241 C261 0.950 . S
H242 C263 0.950 . S
H243 C266 0.950 . S
H244 C267 0.950 . S
H245 C269 0.950 . S
H246 C270 0.950 . S
H247 C271 0.951 . S
H248 C273 0.951 . S
H249 C275 0.950 . S
H250 C276 0.950 . S
H251 C278 0.950 . S
H252 C281 0.950 . S
H253 C282 0.950 . S
H254 C284 0.950 . S
H255 C285 0.950 . S
C256 H238 0.951 . S
C256 C257 1.366 . S
C256 C258 1.388 . S
C257 C256 1.366 . S
C257 C261 1.385 1_655 S
C258 H239 0.951 . S
C258 C256 1.388 . S
C258 C259 1.366 . S
C259 C258 1.366 . S
C259 C260 1.414 1_655 S
C259 C262 1.499 . S
C260 H240 0.950 . S
C260 C259 1.414 1_455 S
C260 C261 1.374 . S
C261 H241 0.950 . S
C261 C257 1.385 1_455 S
C261 C260 1.374 . S
C262 C259 1.499 . S
C262 C263 1.373 1_655 S
C262 C264 1.389 . S
C263 H242 0.950 . S
C263 C262 1.373 1_455 S
C263 C279 1.377 . S
C264 C262 1.389 . S
C264 C265 1.524 . S
C264 C278 1.377 . S
C265 C264 1.524 . S
C265 C266 1.397 . S
C265 C270 1.363 . S
C266 H243 0.950 . S
C266 C265 1.397 . S
C266 C267 1.334 . S
C267 H244 0.950 . S
C267 C266 1.334 . S
C267 C268 1.287 . S
C268 C267 1.287 . S
C268 C269 1.524 . S
C268 H287 0.913 . S
C269 H245 0.950 . S
C269 C268 1.524 . S
C269 C270 1.415 . S
C270 H246 0.950 . S
C270 C265 1.363 . S
C270 C269 1.415 . S
C271 H247 0.951 . S
C271 C272 1.365 1_455 S
C271 C273 1.388 . S
C272 C271 1.365 1_655 S
C272 C276 1.385 . S
C273 H248 0.951 . S
C273 C271 1.388 . S
C273 C274 1.377 . S
C274 C273 1.377 . S
C274 C275 1.403 1_455 S
C274 C277 1.496 1_455 S
C275 H249 0.950 . S
C275 C274 1.403 1_655 S
C275 C276 1.374 . S
C276 H250 0.950 . S
C276 C272 1.385 . S
C276 C275 1.374 . S
C277 C274 1.496 1_655 S
C277 C278 1.388 . S
C277 C279 1.376 1_655 S
C278 H251 0.950 . S
C278 C264 1.377 . S
C278 C277 1.388 . S
C279 C263 1.377 . S
C279 C277 1.376 1_455 S
C279 C280 1.524 . S
C280 C279 1.524 . S
C280 C281 1.397 . S
C280 C285 1.363 . S
C281 H252 0.950 . S
C281 C280 1.397 . S
C281 C282 1.334 . S
C282 H253 0.950 . S
C282 C281 1.334 . S
C282 C283 1.287 . S
C283 C282 1.287 . S
C283 C284 1.524 . S
C283 H286 0.999 . S
C284 H254 0.950 . S
C284 C283 1.524 . S
C284 C285 1.415 . S
C285 H255 0.950 . S
C285 C280 1.363 . S
C285 C284 1.415 . S
H286 C283 0.999 . S
H287 C268 0.913 . S
H288 C306 0.951 . S
H289 C308 0.951 . S
H290 C310 0.950 . S
H291 C311 0.950 . S
H292 C313 0.950 . S
H293 C316 0.950 . S
H294 C317 0.950 . S
H295 C319 0.950 . S
H296 C320 0.950 1_565 S
H297 C321 0.951 . S
H298 C323 0.951 . S
H299 C325 0.950 . S
H300 C326 0.950 . S
H301 C328 0.950 . S
H302 C331 0.950 . S
H303 C332 0.950 . S
H304 C334 0.950 . S
H305 C335 0.950 1_545 S
C306 H288 0.951 . S
C306 C307 1.366 . S
C306 C308 1.388 . S
C307 C306 1.366 . S
C307 C311 1.385 1_565 S
C308 H289 0.951 . S
C308 C306 1.388 . S
C308 C309 1.365 1_565 S
C309 C308 1.365 1_545 S
C309 C310 1.414 . S
C309 C312 1.499 . S
C310 H290 0.950 . S
C310 C309 1.414 . S
C310 C311 1.374 . S
C311 H291 0.950 . S
C311 C307 1.385 1_545 S
C311 C310 1.374 . S
C312 C309 1.499 . S
C312 C313 1.373 1_545 S
C312 C314 1.389 . S
C313 H292 0.950 . S
C313 C312 1.373 1_565 S
C313 C329 1.377 . S
C314 C312 1.389 . S
C314 C315 1.524 . S
C314 C328 1.377 . S
C315 C314 1.524 . S
C315 C316 1.397 . S
C315 C320 1.363 . S
C316 H293 0.950 . S
C316 C315 1.397 . S
C316 C317 1.334 . S
C317 H294 0.950 . S
C317 C316 1.334 . S
C317 C318 1.287 . S
C318 C317 1.287 . S
C318 C319 1.524 . S
C318 H337 0.913 . S
C319 H295 0.950 . S
C319 C318 1.524 . S
C319 C320 1.415 . S
C320 H296 0.950 1_545 S
C320 C315 1.363 . S
C320 C319 1.415 . S
C321 H297 0.951 . S
C321 C322 1.364 . S
C321 C323 1.388 . S
C322 C321 1.364 . S
C322 C326 1.386 1_545 S
C323 H298 0.951 . S
C323 C321 1.388 . S
C323 C324 1.366 1_545 S
C324 C323 1.366 1_565 S
C324 C325 1.414 . S
C324 C327 1.499 . S
C325 H299 0.950 . S
C325 C324 1.414 . S
C325 C326 1.374 . S
C326 H300 0.950 . S
C326 C322 1.386 1_565 S
C326 C325 1.374 . S
C327 C324 1.499 . S
C327 C328 1.373 1_565 S
C327 C329 1.389 . S
C328 H301 0.950 . S
C328 C314 1.377 . S
C328 C327 1.373 1_545 S
C329 C313 1.377 . S
C329 C327 1.389 . S
C329 C330 1.524 . S
C330 C329 1.524 . S
C330 C331 1.397 . S
C330 C335 1.363 . S
C331 H302 0.950 . S
C331 C330 1.397 . S
C331 C332 1.334 . S
C332 H303 0.950 . S
C332 C331 1.334 . S
C332 C333 1.287 . S
C333 C332 1.287 . S
C333 C334 1.524 . S
C333 H336 0.999 . S
C334 H304 0.950 . S
C334 C333 1.524 . S
C334 C335 1.415 . S
C335 H305 0.950 1_565 S
C335 C330 1.363 . S
C335 C334 1.415 . S
H336 C333 0.999 . S
H337 C318 0.913 . S
H338 C356 0.951 . S
H339 C358 0.951 . S
H340 C360 0.951 . S
H341 C361 0.949 . S
H342 C363 0.950 . S
H343 C366 0.950 . S
H344 C367 0.950 . S
H345 C369 0.950 . S
H346 C370 0.950 . S
H347 C371 0.952 . S
H348 C373 0.949 . S
H349 C375 0.950 . S
H350 C376 0.950 . S
H351 C378 0.950 . S
H352 C381 0.950 . S
H353 C382 0.950 . S
H354 C384 0.950 . S
H355 C385 0.950 . S
C356 H338 0.951 . S
C356 C357 1.366 . S
C356 C358 1.388 . S
C357 C356 1.366 . S
C357 C361 1.385 . S
C358 H339 0.951 . S
C358 C356 1.388 . S
C358 C359 1.366 1_455 S
C359 C358 1.366 1_655 S
C359 C360 1.413 1_655 S
C359 C362 1.498 . S
C360 H340 0.951 . S
C360 C359 1.413 1_455 S
C360 C361 1.374 . S
C361 H341 0.949 . S
C361 C357 1.385 . S
C361 C360 1.374 . S
C362 C359 1.498 . S
C362 C363 1.358 1_655 S
C362 C364 1.404 . S
C363 H342 0.950 . S
C363 C362 1.358 1_455 S
C363 C379 1.377 . S
C364 C362 1.404 . S
C364 C365 1.524 . S
C364 C378 1.377 . S
C365 C364 1.524 . S
C365 C366 1.397 . S
C365 C370 1.363 . S
C366 H343 0.950 . S
C366 C365 1.397 . S
C366 C367 1.334 . S
C367 H344 0.950 . S
C367 C366 1.334 . S
C367 C368 1.287 . S
C368 C367 1.287 . S
C368 C369 1.524 . S
C368 H387 0.913 . S
C369 H345 0.950 . S
C369 C368 1.524 . S
C369 C370 1.415 . S
C370 H346 0.950 . S
C370 C365 1.363 . S
C370 C369 1.415 . S
C371 H347 0.952 . S
C371 C372 1.366 1_655 S
C371 C373 1.388 1_655 S
C372 C371 1.366 1_455 S
C372 C376 1.385 . S
C373 H348 0.949 . S
C373 C371 1.388 1_455 S
C373 C374 1.366 . S
C374 C373 1.366 . S
C374 C375 1.414 . S
C374 C377 1.499 . S
C375 H349 0.950 . S
C375 C374 1.414 . S
C375 C376 1.374 . S
C376 H350 0.950 . S
C376 C372 1.385 . S
C376 C375 1.374 . S
C377 C374 1.499 . S
C377 C378 1.373 1_455 S
C377 C379 1.389 . S
C378 H351 0.950 . S
C378 C364 1.377 . S
C378 C377 1.373 1_655 S
C379 C363 1.377 . S
C379 C377 1.389 . S
C379 C380 1.524 . S
C380 C379 1.524 . S
C380 C381 1.397 . S
C380 C385 1.363 . S
C381 H352 0.950 . S
C381 C380 1.397 . S
C381 C382 1.334 . S
C382 H353 0.950 . S
C382 C381 1.334 . S
C382 C383 1.287 . S
C383 C382 1.287 . S
C383 C384 1.524 . S
C383 H386 0.999 . S
C384 H354 0.950 . S
C384 C383 1.524 . S
C384 C385 1.415 . S
C385 H355 0.950 . S
C385 C380 1.363 . S
C385 C384 1.415 . S
H386 C383 0.999 . S
H387 C368 0.913 . S
H388 C406 0.951 . S
H389 C408 0.951 . S
H390 C410 0.954 . S
H391 C411 0.950 . S
H392 C413 0.950 . S
H393 C416 0.950 . S
H394 C417 0.950 . S
H395 C419 0.950 . S
H396 C420 0.950 . S
H397 C421 0.953 . S
H398 C423 0.951 . S
H399 C425 0.953 . S
H400 C426 0.951 . S
H401 C428 0.950 . S
H402 C431 0.950 . S
H403 C432 0.950 . S
H404 C434 0.950 . S
H405 C435 0.950 . S
C406 H388 0.951 . S
C406 C407 1.366 . S
C406 C408 1.388 . S
C407 C406 1.366 . S
C407 C411 1.385 . S
C408 H389 0.951 . S
C408 C406 1.388 . S
C408 C409 1.366 . S
C409 C408 1.366 . S
C409 C410 1.414 . S
C409 C412 1.499 . S
C410 H390 0.954 . S
C410 C409 1.414 . S
C410 C411 1.374 . S
C411 H391 0.950 . S
C411 C407 1.385 . S
C411 C410 1.374 . S
C412 C409 1.499 . S
C412 C413 1.373 1_545 S
C412 C414 1.389 . S
C413 H392 0.950 . S
C413 C412 1.373 1_565 S
C413 C429 1.377 . S
C414 C412 1.389 . S
C414 C415 1.524 . S
C414 C428 1.377 . S
C415 C414 1.524 . S
C415 C416 1.397 . S
C415 C420 1.363 . S
C416 H393 0.950 . S
C416 C415 1.397 . S
C416 C417 1.334 . S
C417 H394 0.950 . S
C417 C416 1.334 . S
C417 C418 1.287 . S
C418 C417 1.287 . S
C418 C419 1.524 . S
C418 H437 0.913 . S
C419 H395 0.950 . S
C419 C418 1.524 . S
C419 C420 1.415 . S
C420 H396 0.950 . S
C420 C415 1.363 . S
C420 C419 1.415 . S
C421 H397 0.953 . S
C421 C422 1.365 1_565 S
C421 C423 1.387 . S
C422 C421 1.365 1_545 S
C422 C426 1.383 . S
C423 H398 0.951 . S
C423 C421 1.387 . S
C423 C424 1.366 . S
C424 C423 1.366 . S
C424 C425 1.413 1_565 S
C424 C427 1.499 . S
C425 H399 0.953 . S
C425 C424 1.413 1_545 S
C425 C426 1.374 . S
C426 H400 0.951 . S
C426 C422 1.383 . S
C426 C425 1.374 . S
C427 C424 1.499 . S
C427 C428 1.373 1_565 S
C427 C429 1.389 . S
C428 H401 0.950 . S
C428 C414 1.377 . S
C428 C427 1.373 1_545 S
C429 C413 1.377 . S
C429 C427 1.389 . S
C429 C430 1.524 . S
C430 C429 1.524 . S
C430 C431 1.397 . S
C430 C435 1.363 . S
C431 H402 0.950 . S
C431 C430 1.397 . S
C431 C432 1.334 . S
C432 H403 0.950 . S
C432 C431 1.334 . S
C432 C433 1.287 . S
C433 C432 1.287 . S
C433 C434 1.524 . S
C433 H436 0.999 . S
C434 H404 0.950 . S
C434 C433 1.524 . S
C434 C435 1.415 . S
C435 H405 0.950 . S
C435 C430 1.363 . S
C435 C434 1.415 . S
H436 C433 0.999 . S
H437 C418 0.913 . S
H438 C456 0.951 . S
H439 C458 0.951 . S
H440 C460 0.950 . S
H441 C461 0.950 . S
H442 C463 0.950 . S
H443 C466 0.950 . S
H444 C467 0.950 . S
H445 C469 0.950 . S
H446 C470 0.950 . S
H447 C471 0.951 . S
H448 C473 0.951 . S
H449 C475 0.950 . S
H450 C476 0.950 . S
H451 C478 0.950 . S
H452 C481 0.950 . S
H453 C482 0.950 . S
H454 C484 0.950 . S
H455 C485 0.950 . S
C456 H438 0.951 . S
C456 C457 1.366 . S
C456 C458 1.388 . S
C457 C456 1.366 . S
C457 C461 1.385 1_455 S
C458 H439 0.951 . S
C458 C456 1.388 . S
C458 C459 1.366 1_455 S
C459 C458 1.366 1_655 S
C459 C460 1.413 . S
C459 C462 1.497 . S
C460 H440 0.950 . S
C460 C459 1.413 . S
C460 C461 1.374 . S
C461 H441 0.950 . S
C461 C457 1.385 1_655 S
C461 C460 1.374 . S
C462 C459 1.497 . S
C462 C463 1.363 1_655 S
C462 C464 1.400 . S
C463 H442 0.950 . S
C463 C462 1.363 1_455 S
C463 C479 1.377 . S
C464 C462 1.400 . S
C464 C465 1.524 . S
C464 C478 1.377 . S
C465 C464 1.524 . S
C465 C466 1.397 . S
C465 C470 1.363 . S
C466 H443 0.950 . S
C466 C465 1.397 . S
C466 C467 1.334 . S
C467 H444 0.950 . S
C467 C466 1.334 . S
C467 C468 1.287 . S
C468 C467 1.287 . S
C468 C469 1.524 . S
C468 H487 0.913 . S
C469 H445 0.950 . S
C469 C468 1.524 . S
C469 C470 1.415 . S
C470 H446 0.950 . S
C470 C465 1.363 . S
C470 C469 1.415 . S
C471 H447 0.951 . S
C471 C472 1.365 1_655 S
C471 C473 1.388 . S
C472 C471 1.365 1_455 S
C472 C476 1.386 . S
C473 H448 0.951 . S
C473 C471 1.388 . S
C473 C474 1.366 1_655 S
C474 C473 1.366 1_455 S
C474 C475 1.414 . S
C474 C477 1.499 . S
C475 H449 0.950 . S
C475 C474 1.414 . S
C475 C476 1.374 . S
C476 H450 0.950 . S
C476 C472 1.386 . S
C476 C475 1.374 . S
C477 C474 1.499 . S
C477 C478 1.373 1_455 S
C477 C479 1.389 . S
C478 H451 0.950 . S
C478 C464 1.377 . S
C478 C477 1.373 1_655 S
C479 C463 1.377 . S
C479 C477 1.389 . S
C479 C480 1.524 . S
C480 C479 1.524 . S
C480 C481 1.397 . S
C480 C485 1.363 . S
C481 H452 0.950 . S
C481 C480 1.397 . S
C481 C482 1.334 . S
C482 H453 0.950 . S
C482 C481 1.334 . S
C482 C483 1.287 . S
C483 C482 1.287 . S
C483 C484 1.524 . S
C483 H486 0.999 . S
C484 H454 0.950 . S
C484 C483 1.524 . S
C484 C485 1.415 . S
C485 H455 0.950 . S
C485 C480 1.363 . S
C485 C484 1.415 . S
H486 C483 0.999 . S
H487 C468 0.913 . S
H488 C506 0.951 . S
H489 C508 0.951 . S
H490 C510 0.950 . S
H491 C511 0.950 . S
H492 C513 0.950 . S
H493 C516 0.950 . S
H494 C517 0.950 . S
H495 C519 0.950 . S
H496 C520 0.950 . S
H497 C521 0.951 . S
H498 C523 0.951 . S
H499 C525 0.950 . S
H500 C526 0.950 . S
H501 C528 0.950 . S
H502 C531 0.950 . S
H503 C532 0.950 . S
H504 C534 0.950 . S
H505 C535 0.950 . S
C506 H488 0.951 . S
C506 C507 1.366 1_565 S
C506 C508 1.388 . S
C507 C506 1.366 1_545 S
C507 C511 1.385 . S
C508 H489 0.951 . S
C508 C506 1.388 . S
C508 C509 1.366 . S
C509 C508 1.366 . S
C509 C510 1.413 1_565 S
C509 C512 1.499 . S
C510 H490 0.950 . S
C510 C509 1.413 1_545 S
C510 C511 1.374 . S
C511 H491 0.950 . S
C511 C507 1.385 . S
C511 C510 1.374 . S
C512 C509 1.499 . S
C512 C513 1.369 1_565 S
C512 C514 1.394 . S
C513 H492 0.950 . S
C513 C512 1.369 1_545 S
C513 C529 1.377 . S
C514 C512 1.394 . S
C514 C515 1.524 . S
C514 C528 1.377 . S
C515 C514 1.524 . S
C515 C516 1.397 . S
C515 C520 1.363 . S
C516 H493 0.950 . S
C516 C515 1.397 . S
C516 C517 1.334 . S
C517 H494 0.950 . S
C517 C516 1.334 . S
C517 C518 1.287 . S
C518 C517 1.287 . S
C518 C519 1.524 . S
C518 H537 0.913 . S
C519 H495 0.950 . S
C519 C518 1.524 . S
C519 C520 1.415 . S
C520 H496 0.950 . S
C520 C515 1.363 . S
C520 C519 1.415 . S
C521 H497 0.951 . S
C521 C522 1.366 . S
C521 C523 1.388 . S
C522 C521 1.366 . S
C522 C526 1.384 1_545 S
C523 H498 0.951 . S
C523 C521 1.388 . S
C523 C524 1.366 . S
C524 C523 1.366 . S
C524 C525 1.414 1_545 S
C524 C527 1.499 . S
C525 H499 0.950 . S
C525 C524 1.414 1_565 S
C525 C526 1.374 . S
C526 H500 0.950 . S
C526 C522 1.384 1_565 S
C526 C525 1.374 . S
C527 C524 1.499 . S
C527 C528 1.373 1_545 S
C527 C529 1.389 . S
C528 H501 0.950 . S
C528 C514 1.377 . S
C528 C527 1.373 1_565 S
C529 C513 1.377 . S
C529 C527 1.389 . S
C529 C530 1.524 . S
C530 C529 1.524 . S
C530 C531 1.397 . S
C530 C535 1.363 . S
C531 H502 0.950 . S
C531 C530 1.397 . S
C531 C532 1.334 . S
C532 H503 0.950 . S
C532 C531 1.334 . S
C532 C533 1.287 . S
C533 C532 1.287 . S
C533 C534 1.524 . S
C533 H536 0.999 . S
C534 H504 0.950 . S
C534 C533 1.524 . S
C534 C535 1.415 . S
C535 H505 0.950 . S
C535 C530 1.363 . S
C535 C534 1.415 . S
H536 C533 0.999 . S
H537 C518 0.913 . S
C157 C22 1.378 . S
C172 C54 1.420 1_655 S
C207 C8 1.507 1_565 S
C222 C124 1.562 1_565 S
C257 C31 1.508 1_655 S
C272 C70 1.561 1_655 S
C307 C17 1.377 . S
C322 C114 1.419 . S
C357 C30 1.378 . S
C372 C61 1.425 1_455 S
C407 C27 1.506 1_545 S
C422 C123 1.560 1_545 S
C472 C71 1.561 1_455 S
C457 C23 1.508 1_455 S
C507 C24 1.376 . S
C522 C107 1.426 1_545 S
