# Generated by pormake.
# Topology scu, (8,4)-cn, num edge types: 1
# Building blocks:
#     Node 0, Type 0, BuildingBlock: TAGTUT_clean_sbu_3, # of connection points: 8
#     Node 1, Type 1, BuildingBlock: ESEHIV_clean_sbu_0, # of connection points: 4
#     Node 2, Type 1, BuildingBlock: ESEHIV_clean_sbu_0, # of connection points: 4
#     Edge 3, Type (0, 1), BuildingBlock: MIFKUJ_clean_linker_0, # of connection points: 2
#     Edge 4, Type (0, 1), BuildingBlock: MIFKUJ_clean_linker_0, # of connection points: 2
#     Edge 5, Type (0, 1), BuildingBlock: MIFKUJ_clean_linker_0, # of connection points: 2
#     Edge 6, Type (0, 1), BuildingBlock: MIFKUJ_clean_linker_0, # of connection points: 2
#     Edge 7, Type (0, 1), BuildingBlock: MIFKUJ_clean_linker_0, # of connection points: 2
#     Edge 8, Type (0, 1), BuildingBlock: MIFKUJ_clean_linker_0, # of connection points: 2
#     Edge 9, Type (0, 1), BuildingBlock: MIFKUJ_clean_linker_0, # of connection points: 2
#     Edge 10, Type (0, 1), BuildingBlock: MIFKUJ_clean_linker_0, # of connection points: 2
# Relax obj value: 0.025
# Max RMSD: 0.104
# Mean RMSD: 0.103
data_MOF--net-scu--node1-TAGTUT_clean_sbu_3--node2-ESEHIV_clean_sbu_0--edge1-MIFKUJ_clean_linker_0
_symmetry_space_group_name_H-M    P1
_symmetry_Int_Tables_number       1
_symmetry_cell_setting            triclinic
loop_
_symmetry_equiv_pos_as_xyz
'x, y, z'
_cell_length_a     36.00311
_cell_length_b     31.04978
_cell_length_c     25.705804
_cell_angle_alpha  93.093102
_cell_angle_beta   94.306415
_cell_angle_gamma 90.057956
loop_
_atom_site_label
_atom_site_type_symbol
_atom_site_fract_x
_atom_site_fract_y
_atom_site_fract_z
_atom_type_partial_charge
C0 C 0.99831 0.92992 0.06995 0.0
C1 C 0.86203 0.99196 0.06315 0.0
C2 C 0.88548 0.03055 0.90925 0.0
Mg3 Mg 0.0707 0.95896 0.01379 0.0
Mg4 Mg 0.08481 0.05989 0.98961 0.0
O5 O 0.05223 0.01267 0.97971 0.0
Mg6 Mg 0.99998 0.01577 0.00228 0.0
O7 O 0.94786 0.0125 0.02498 0.0
Mg8 Mg 0.92964 0.95729 0.98659 0.0
Mg9 Mg 0.91511 0.05905 0.02011 0.0
C10 C 0.01081 0.10442 0.94054 0.0
O11 O 0.01055 0.07313 0.06369 0.0
O12 O 0.12195 0.96241 0.96314 0.0
O13 O 0.95451 0.10646 0.05701 0.0
O14 O 0.10505 0.99638 0.08157 0.0
O15 O 0.12735 0.03187 0.94362 0.0
O16 O 0.10754 0.06668 0.0698 0.0
O17 O 0.98337 0.96032 0.94219 0.0
O18 O 0.0357 0.92186 0.94779 0.0
C19 C 1.00232 0.92733 0.92834 0.0
C20 C 0.13778 0.99237 0.93982 0.0
O21 O 0.98931 0.0718 0.94572 0.0
O22 O 0.87839 0.96152 0.03771 0.0
O23 O 0.04521 0.10619 0.95819 0.0
O24 O 0.8955 0.99262 0.92142 0.0
O25 O 0.87212 0.03158 0.06259 0.0
O26 O 0.89334 0.06335 0.94017 0.0
O27 O 0.01674 0.96276 0.05795 0.0
O28 O 0.96496 0.92269 0.05021 0.0
C29 C 0.11554 0.03454 0.09734 0.0
C30 C 0.98911 0.10538 0.07364 0.0
Cu31 Cu 0.04513 0.53144 0.51232 0.0
N32 N 0.06236 0.50324 0.57168 0.0
N33 N 0.06143 0.45505 0.63304 0.0
C34 C 0.04359 0.47059 0.59008 0.0
C35 C 0.09268 0.47925 0.64233 0.0
C36 C 0.09326 0.50895 0.60414 0.0
O37 O 0.02807 0.48659 0.46012 0.0
C38 C 0.02228 0.60246 0.56547 0.0
O39 O 0.05826 0.60137 0.57849 0.0
H40 H 0.0171 0.45872 0.57224 0.0
H41 H 0.11465 0.53279 0.6002 0.0
N42 N 0.08148 0.5635 0.48284 0.0
N43 N 0.10291 0.61505 0.43545 0.0
C44 C 0.07423 0.60131 0.46103 0.0
C45 C 0.11616 0.55285 0.47061 0.0
C46 C 0.1294 0.58461 0.44093 0.0
C47 C 0.05124 0.45594 0.45442 0.0
O48 O 0.08306 0.45756 0.48302 0.0
H49 H 0.04749 0.6172 0.4612 0.0
H50 H 0.13021 0.52332 0.48053 0.0
O51 O 1.00781 0.57239 0.53476 0.0
H52 H 0.11389 0.4753 0.67382 0.0
H53 H 0.15589 0.58479 0.42362 0.0
Cu54 Cu 0.49868 0.97658 0.49977 0.0
N55 N 0.4749 0.94183 0.54466 0.0
N56 N 0.43394 0.92355 0.60114 0.0
C57 C 0.44869 0.9559 0.57609 0.0
C58 C 0.45211 0.88771 0.5852 0.0
C59 C 0.4773 0.89908 0.5503 0.0
O60 O 0.46043 0.01336 0.46706 0.0
C61 C 0.56463 0.98049 0.55932 0.0
O62 O 0.55921 0.93883 0.5501 0.0
H63 H 0.44028 0.9893 0.57962 0.0
H64 H 0.49542 0.87756 0.52961 0.0
N65 N 0.52001 0.94436 0.44624 0.0
N66 N 0.56002 0.92742 0.38585 0.0
C67 C 0.5508 0.95624 0.42394 0.0
C68 C 0.50907 0.90673 0.42138 0.0
C69 C 0.53381 0.89609 0.38419 0.0
C70 C 0.42984 0.99433 0.45146 0.0
O71 O 0.42663 0.95277 0.4573 0.0
H72 H 0.56632 0.98539 0.43602 0.0
H73 H 0.48472 0.88852 0.42941 0.0
O74 O 0.53992 0.00616 0.54094 0.0
H75 H 0.44679 0.85533 0.59649 0.0
H76 H 0.53215 0.86793 0.3574 0.0
H77 H 0.04831 0.10883 0.14814 0.0
H78 H 0.06489 0.16937 0.21125 0.0
H79 H 0.97877 0.24652 0.13696 0.0
H80 H 0.96246 0.18694 0.07405 0.0
H81 H 0.03995 0.29458 0.16707 0.0
H82 H 0.96184 0.19006 0.24175 0.0
H83 H 0.94669 0.11747 0.26885 0.0
H84 H 0.04642 0.11863 0.3717 0.0
H85 H 0.06222 0.19117 0.34479 0.0
H86 H 0.99961 0.44936 0.36968 0.0
H87 H 0.99271 0.3895 0.30298 0.0
H88 H 0.08015 0.32025 0.38622 0.0
H89 H 0.08705 0.37929 0.45251 0.0
H90 H 0.02266 0.26748 0.35223 0.0
H91 H 0.09934 0.37296 0.28231 0.0
H92 H 0.11575 0.44513 0.25534 0.0
H93 H 0.02069 0.4421 0.14381 0.0
H94 H 1.00337 0.37012 0.17072 0.0
C95 C 0.03346 0.139 0.14479 0.0
C96 C 1.00363 0.14291 0.10684 0.0
C97 C 0.04281 0.17344 0.18093 0.0
C98 C 0.02257 0.21216 0.17928 0.0
C99 C 0.9946 0.21692 0.13915 0.0
C100 C 0.98515 0.18266 0.10343 0.0
C101 C 0.02807 0.24673 0.22123 0.0
C102 C 0.03598 0.28874 0.20752 0.0
C103 C 0.02339 0.23895 0.27409 0.0
C104 C 0.01349 0.19571 0.29079 0.0
C105 C 0.98064 0.1747 0.26989 0.0
C106 C 0.9719 0.13361 0.28526 0.0
C107 C 0.99564 0.11338 0.32183 0.0
C108 C 0.02809 0.13428 0.34328 0.0
C109 C 0.03694 0.17537 0.32803 0.0
C110 C 0.01703 0.42115 0.3739 0.0
C111 C 0.04404 0.41916 0.41605 0.0
C112 C 0.01324 0.38714 0.33572 0.0
C113 C 0.03627 0.35068 0.33941 0.0
C114 C 0.06221 0.34809 0.38251 0.0
C115 C 0.06618 0.38202 0.42026 0.0
C116 C 0.03416 0.31545 0.298 0.0
C117 C 0.02685 0.27334 0.31185 0.0
C118 C 0.03948 0.32313 0.24531 0.0
C119 C 0.04983 0.36636 0.22894 0.0
C120 C 0.08175 0.38784 0.25236 0.0
C121 C 0.09125 0.42868 0.23703 0.0
C122 C 0.06922 0.44824 0.19799 0.0
C123 C 0.03769 0.42694 0.17412 0.0
C124 C 0.02802 0.38611 0.18938 0.0
H125 H 0.07663 0.47986 0.18616 0.0
H126 H 0.98884 0.08156 0.33365 0.0
H127 H 0.8198 0.04777 0.11954 0.0
H128 H 0.77049 0.03064 0.17498 0.0
H129 H 0.78452 0.89498 0.13676 0.0
H130 H 0.83394 0.91184 0.08037 0.0
H131 H 0.71132 0.91653 0.13477 0.0
H132 H 0.81827 0.93774 0.2542 0.0
H133 H 0.87438 0.97518 0.295 0.0
H134 H 0.80779 0.08302 0.34211 0.0
H135 H 0.75131 0.04649 0.30091 0.0
H136 H 0.59528 0.86128 0.33654 0.0
H137 H 0.64811 0.8665 0.28251 0.0
H138 H 0.64823 0.00492 0.30803 0.0
H139 H 0.59555 1.00001 0.36168 0.0
H140 H 0.71763 0.97411 0.3191 0.0
H141 H 0.61163 0.95441 0.19259 0.0
H142 H 0.55588 0.91647 0.15128 0.0
H143 H 0.62162 0.80434 0.1183 0.0
H144 H 0.6777 0.84146 0.16003 0.0
C145 C 0.81252 0.01422 0.1227 0.0
C146 C 0.83111 0.98118 0.09553 0.0
C147 C 0.78434 0.00448 0.15472 0.0
C148 C 0.77417 0.96148 0.16075 0.0
C149 C 0.79202 0.92839 0.13289 0.0
C150 C 0.82031 0.93811 0.10071 0.0
C151 C 0.74476 0.95153 0.19603 0.0
C152 C 0.71299 0.92845 0.17534 0.0
C153 C 0.74669 0.96751 0.24883 0.0
C154 C 0.78057 0.98949 0.27406 0.0
C155 C 0.81561 0.96957 0.27292 0.0
C156 C 0.84748 0.99061 0.29618 0.0
C157 C 0.84466 0.0315 0.32103 0.0
C158 C 0.80993 0.05136 0.32281 0.0
C159 C 0.77797 0.03048 0.29956 0.0
C160 C 0.60633 0.89285 0.3303 0.0
C161 C 0.59105 0.93021 0.35359 0.0
C162 C 0.63662 0.89578 0.29946 0.0
C163 C 0.65204 0.93615 0.29087 0.0
C164 C 0.63697 0.9734 0.31427 0.0
C165 C 0.60682 0.9705 0.34513 0.0
C166 C 0.68381 0.93998 0.25751 0.0
C167 C 0.7161 0.96185 0.27866 0.0
C168 C 0.68239 0.92275 0.20523 0.0
C169 C 0.64875 0.90053 0.17992 0.0
C170 C 0.61413 0.92155 0.17687 0.0
C171 C 0.58249 0.90022 0.15332 0.0
C172 C 0.58519 0.85798 0.13231 0.0
C173 C 0.61956 0.83703 0.13467 0.0
C174 C 0.65128 0.85821 0.15823 0.0
H175 H 0.56066 0.84152 0.1141 0.0
H176 H 0.86937 0.04776 0.33898 0.0
H177 H 0.97415 0.84902 0.08714 0.0
H178 H 0.99955 0.80027 0.15178 0.0
H179 H 0.08635 0.8925 0.20202 0.0
H180 H 0.06148 0.94133 0.13625 0.0
H181 H 0.11359 0.81255 0.20249 0.0
H182 H 0.0106 0.88461 0.27195 0.0
H183 H 0.94641 0.91219 0.27241 0.0
H184 H 0.90357 0.78271 0.25463 0.0
H185 H 0.96751 0.75435 0.25332 0.0
H186 H 0.07676 0.6939 0.46036 0.0
H187 H 0.06804 0.75392 0.40283 0.0
H188 H 0.11611 0.67768 0.2796 0.0
H189 H 0.12643 0.61855 0.33835 0.0
H190 H 0.02502 0.75841 0.32292 0.0
H191 H 0.14796 0.73902 0.18836 0.0
H192 H 0.21442 0.71925 0.19522 0.0
H193 H 0.22218 0.75709 0.35883 0.0
H194 H 0.15592 0.77763 0.35283 0.0
C195 C 0.99878 0.85895 0.11167 0.0
C196 C 0.01555 0.89931 0.10686 0.0
C197 C 0.01324 0.83103 0.14874 0.0
C198 C 0.04441 0.84306 0.18252 0.0
C199 C 0.06217 0.8826 0.17654 0.0
C200 C 0.04788 0.9105 0.13898 0.0
C201 C 0.05725 0.81487 0.2252 0.0
C202 C 0.09433 0.80074 0.22899 0.0
C203 C 0.03242 0.80055 0.26088 0.0
C204 C 0.99387 0.81738 0.26214 0.0
C205 C 0.98749 0.86202 0.26781 0.0
C206 C 0.95114 0.8778 0.26826 0.0
C207 C 0.92093 0.84923 0.26344 0.0
C208 C 0.92701 0.8048 0.25832 0.0
C209 C 0.9633 0.78886 0.25778 0.0
C210 C 0.08615 0.69051 0.4213 0.0
C211 C 0.10233 0.65182 0.40371 0.0
C212 C 0.08105 0.72467 0.38834 0.0
C213 C 0.09144 0.72062 0.33668 0.0
C214 C 0.10856 0.68221 0.31951 0.0
C215 C 0.1144 0.64833 0.35298 0.0
C216 C 0.08137 0.75497 0.2998 0.0
C217 C 0.04459 0.7703 0.29691 0.0
C218 C 0.10688 0.77142 0.26629 0.0
C219 C 0.14686 0.75949 0.27019 0.0
C220 C 0.16388 0.7433 0.22575 0.0
C221 C 0.20151 0.73192 0.22951 0.0
C222 C 0.22248 0.73679 0.27746 0.0
C223 C 0.20588 0.75318 0.32175 0.0
C224 C 0.16827 0.76463 0.3182 0.0
H225 H 0.2516 0.72794 0.28029 0.0
H226 H 0.89281 0.86151 0.26377 0.0
H227 H 0.1451 0.97169 0.1581 0.0
H228 H 0.19712 0.97839 0.22434 0.0
H229 H 0.19938 0.11601 0.20999 0.0
H230 H 0.14726 0.10969 0.14269 0.0
H231 H 0.26742 0.01094 0.20405 0.0
H232 H 0.23448 0.15707 0.33942 0.0
H233 H 0.18023 0.19598 0.37145 0.0
H234 H 0.1147 0.07989 0.34995 0.0
H235 H 0.1687 0.04015 0.31864 0.0
H236 H 0.42978 0.05231 0.37447 0.0
H237 H 0.3749 0.07497 0.31972 0.0
H238 H 0.30319 0.00832 0.41614 0.0
H239 H 0.35764 0.98501 0.46977 0.0
H240 H 0.27197 0.08728 0.37906 0.0
H241 H 0.33091 0.95423 0.31736 0.0
H242 H 0.38444 0.91229 0.28827 0.0
H243 H 0.39501 0.99732 0.16381 0.0
H244 H 0.34184 0.04015 0.19274 0.0
C245 C 0.1561 0.00359 0.16942 0.0
C246 C 0.14212 0.04012 0.14446 0.0
C247 C 0.18605 0.00728 0.20721 0.0
C248 C 0.20241 0.04759 0.22167 0.0
C249 C 0.1872 0.08456 0.19931 0.0
C250 C 0.15735 0.08086 0.16092 0.0
C251 C 0.23673 0.05001 0.25767 0.0
C252 C 0.26846 0.02807 0.24207 0.0
C253 C 0.23823 0.0724 0.30723 0.0
C254 C 0.20554 0.09581 0.32609 0.0
C255 C 0.20851 0.13985 0.34161 0.0
C256 C 0.17781 0.16203 0.35966 0.0
C257 C 0.14404 0.14043 0.36261 0.0
C258 C 0.14086 0.09661 0.34747 0.0
C259 C 0.17149 0.07426 0.32948 0.0
C260 C 0.40221 0.04379 0.38482 0.0
C261 C 0.39782 0.01687 0.42613 0.0
C262 C 0.37092 0.05658 0.35351 0.0
C263 C 0.33495 0.04316 0.36377 0.0
C264 C 0.33057 0.01924 0.40764 0.0
C265 C 0.36171 0.0058 0.43812 0.0
C266 C 0.30248 0.04817 0.32532 0.0
C267 C 0.27113 0.07121 0.34046 0.0
C268 C 0.30112 0.02663 0.27529 0.0
C269 C 0.33276 0.00065 0.25757 0.0
C270 C 0.34485 0.96415 0.28405 0.0
C271 C 0.37508 0.94021 0.26756 0.0
C272 C 0.39319 0.95221 0.22431 0.0
C273 C 0.38101 0.98812 0.19737 0.0
C274 C 0.35084 0.01224 0.21379 0.0
H275 H 0.41659 0.93363 0.2116 0.0
H276 H 0.12042 0.15759 0.37693 0.0
H277 H 0.02756 0.84596 0.91004 0.0
H278 H 1.00528 0.79297 0.84196 0.0
H279 H 0.91703 0.87875 0.79193 0.0
H280 H 0.93962 0.93277 0.8605 0.0
H281 H 0.94226 0.74812 0.81452 0.0
H282 H 0.90888 0.86665 0.6582 0.0
H283 H 0.92151 0.94213 0.63881 0.0
H284 H 0.02877 0.93655 0.7234 0.0
H285 H 0.01676 0.86104 0.74296 0.0
H286 H 0.94875 0.6042 0.58949 0.0
H287 H 0.91875 0.66254 0.63985 0.0
H288 H 0.01831 0.7401 0.63947 0.0
H289 H 0.04762 0.68301 0.58938 0.0
H290 H 0.95954 0.79081 0.63471 0.0
H291 H 1.00465 0.66863 0.73807 0.0
H292 H 1.00277 0.59234 0.76039 0.0
H293 H 0.88664 0.60407 0.78615 0.0
H294 H 0.88784 0.68035 0.76345 0.0
C295 C 1.00317 0.8536 0.88502 0.0
C296 C 0.98569 0.89389 0.89028 0.0
C297 C 0.9902 0.82298 0.84633 0.0
C298 C 0.95956 0.83185 0.81166 0.0
C299 C 0.94083 0.87128 0.81815 0.0
C300 C 0.95375 0.90208 0.85732 0.0
C301 C 0.95062 0.80124 0.76602 0.0
C302 C 0.94498 0.75757 0.77494 0.0
C303 C 0.95413 0.81342 0.71436 0.0
C304 C 0.96172 0.85855 0.70249 0.0
C305 C 0.93513 0.88161 0.67258 0.0
C306 C 0.94218 0.92436 0.66159 0.0
C307 C 0.97586 0.94418 0.68004 0.0
C308 C 1.00263 0.92124 0.70933 0.0
C309 C 0.9957 0.87851 0.72041 0.0
C310 C 0.96362 0.63426 0.59903 0.0
C311 C 1.00066 0.63894 0.58638 0.0
C312 C 0.94658 0.66747 0.62788 0.0
C313 C 0.96644 0.70558 0.64401 0.0
C314 C 1.0023 0.7112 0.62753 0.0
C315 C 0.01921 0.67828 0.59925 0.0
C316 C 0.95321 0.73745 0.68366 0.0
C317 C 0.95458 0.78147 0.67369 0.0
C318 C 0.94687 0.7255 0.73464 0.0
C319 C 0.94621 0.67987 0.74849 0.0
C320 C 0.9787 0.65481 0.74826 0.0
C321 C 0.97776 0.61162 0.76098 0.0
C322 C 0.94458 0.59332 0.77451 0.0
C323 C 0.91229 0.61824 0.77551 0.0
C324 C 0.91308 0.66143 0.76271 0.0
H325 H 0.9439 0.55988 0.78435 0.0
H326 H 0.98125 0.97727 0.67151 0.0
H327 H 0.16721 0.0422 0.86864 0.0
H328 H 0.21659 0.02369 0.81159 0.0
H329 H 0.22761 0.8989 0.87679 0.0
H330 H 0.17778 0.91703 0.93421 0.0
H331 H 0.29667 0.94214 0.86755 0.0
H332 H 0.18559 0.90205 0.76169 0.0
H333 H 0.12216 0.9132 0.72166 0.0
H334 H 0.16141 0.01919 0.63983 0.0
H335 H 0.225 0.00909 0.68 0.0
H336 H 0.41758 0.86788 0.67455 0.0
H337 H 0.36632 0.87318 0.73171 0.0
H338 H 0.33104 0.99181 0.66374 0.0
H339 H 0.38095 0.98574 0.60502 0.0
H340 H 0.27259 0.94386 0.67505 0.0
H341 H 0.38099 0.98964 0.78504 0.0
H342 H 0.44435 0.98294 0.82733 0.0
H343 H 0.41053 0.8708 0.90274 0.0
H344 H 0.34704 0.87651 0.86031 0.0
C345 C 0.1801 0.01081 0.87113 0.0
C346 C 0.16842 0.98107 0.90606 0.0
C347 C 0.20826 0.00024 0.83826 0.0
C348 C 0.22553 0.95981 0.83967 0.0
C349 C 0.21453 0.93024 0.87505 0.0
C350 C 0.18599 0.94062 0.90768 0.0
C351 C 0.25506 0.94884 0.80396 0.0
C352 C 0.29135 0.94165 0.82542 0.0
C353 C 0.24816 0.94924 0.74907 0.0
C354 C 0.21004 0.95501 0.7242 0.0
C355 C 0.18066 0.92792 0.73544 0.0
C356 C 0.14468 0.93402 0.71268 0.0
C357 C 0.13775 0.96694 0.67831 0.0
C358 C 0.16682 0.99372 0.66649 0.0
C359 C 0.20285 0.98779 0.68919 0.0
C360 C 0.39876 0.8949 0.67138 0.0
C361 C 0.40378 0.92655 0.63529 0.0
C362 C 0.3696 0.8981 0.70449 0.0
C363 C 0.34504 0.93322 0.70261 0.0
C364 C 0.34966 0.96448 0.66614 0.0
C365 C 0.37862 0.9612 0.6329 0.0
C366 C 0.31455 0.93778 0.73857 0.0
C367 C 0.27797 0.9438 0.71714 0.0
C368 C 0.32128 0.93672 0.79353 0.0
C369 C 0.35941 0.9332 0.81902 0.0
C370 C 0.38715 0.96334 0.81029 0.0
C371 C 0.42307 0.95976 0.83435 0.0
C372 C 0.43149 0.92638 0.86757 0.0
C373 C 0.40398 0.89658 0.87691 0.0
C374 C 0.36803 0.89998 0.85289 0.0
H375 H 0.45931 0.92368 0.88617 0.0
H376 H 0.10986 0.97164 0.66078 0.0
H377 H 0.9665 0.10523 0.8487 0.0
H378 H 0.9593 0.16653 0.79193 0.0
H379 H 0.0188 0.24845 0.91127 0.0
H380 H 0.02557 0.18796 0.96762 0.0
H381 H 0.96723 0.29413 0.85837 0.0
H382 H 0.06488 0.19186 0.81802 0.0
H383 H 0.08844 0.11973 0.7927 0.0
H384 H 0.01802 0.11751 0.65011 0.0
H385 H 0.99373 0.18947 0.67498 0.0
H386 H 0.07582 0.44352 0.73645 0.0
H387 H 0.05389 0.38415 0.78542 0.0
H388 H 0.9972 0.3275 0.64436 0.0
H389 H 0.01962 0.38617 0.59513 0.0
H390 H 0.03553 0.26773 0.69913 0.0
H391 H 0.94776 0.37855 0.73449 0.0
H392 H 0.92768 0.45182 0.76119 0.0
H393 H 0.98155 0.4393 0.91436 0.0
H394 H 1.0025 0.3662 0.88834 0.0
C395 C 0.97678 0.13674 0.86329 0.0
C396 C 0.99704 0.14189 0.91207 0.0
C397 C 0.97294 0.17163 0.83079 0.0
C398 C 0.98925 0.21188 0.84695 0.0
C399 C 1.00615 0.21778 0.89777 0.0
C400 C 0.01014 0.18311 0.92989 0.0
C401 C 0.99346 0.24629 0.80977 0.0
C402 C 0.98204 0.28838 0.82344 0.0
C403 C 0.01238 0.23875 0.76379 0.0
C404 C 0.02718 0.19573 0.74863 0.0
C405 C 0.05427 0.17584 0.78143 0.0
C406 C 0.06777 0.13503 0.76715 0.0
C407 C 0.05465 0.11399 0.7199 0.0
C408 C 0.02809 0.1338 0.68675 0.0
C409 C 0.01445 0.17459 0.70091 0.0
C410 C 0.05889 0.41829 0.71586 0.0
C411 C 0.04929 0.41975 0.66198 0.0
C412 C 0.04606 0.3846 0.74393 0.0
C413 C 0.02341 0.35172 0.71866 0.0
C414 C 0.01436 0.35269 0.66473 0.0
C415 C 0.02701 0.38643 0.63673 0.0
C416 C 0.01001 0.31575 0.74834 0.0
C417 C 0.01988 0.27343 0.73329 0.0
C418 C 0.98993 0.3232 0.79322 0.0
C419 C 0.97693 0.36695 0.80931 0.0
C420 C 0.95554 0.39151 0.77377 0.0
C421 C 0.94398 0.43301 0.78879 0.0
C422 C 0.95339 0.45024 0.8394 0.0
C423 C 0.97429 0.42593 0.87515 0.0
C424 C 0.98599 0.38443 0.8603 0.0
H425 H 0.94444 0.4824 0.85094 0.0
H426 H 0.06513 0.08239 0.7089 0.0
H427 H 0.85122 0.10417 0.87529 0.0
H428 H 0.80131 0.10905 0.80584 0.0
H429 H 0.81127 0.9729 0.76688 0.0
H430 H 0.86152 0.96786 0.83529 0.0
H431 H 0.79645 0.01555 0.6803 0.0
H432 H 0.74705 0.01328 0.85104 0.0
H433 H 0.74029 0.04096 0.94159 0.0
H434 H 0.70119 0.16197 0.88583 0.0
H435 H 0.70819 0.13514 0.79493 0.0
H436 H 0.62311 0.93135 0.59217 0.0
H437 H 0.68067 0.9538 0.64119 0.0
H438 H 0.64438 0.08615 0.64363 0.0
H439 H 0.58567 0.06364 0.59397 0.0
H440 H 0.67419 0.06179 0.74058 0.0
H441 H 0.71205 0.05652 0.56744 0.0
H442 H 0.71736 0.0261 0.47773 0.0
H443 H 0.77733 0.91771 0.53758 0.0
H444 H 0.77189 0.94709 0.62772 0.0
C445 C 0.84334 0.07541 0.85129 0.0
C446 C 0.86012 0.03547 0.86151 0.0
C447 C 0.81459 0.07823 0.81173 0.0
C448 C 0.8019 0.04116 0.78181 0.0
C449 C 0.82036 0.00194 0.78958 0.0
C450 C 0.84911 0.99909 0.82894 0.0
C451 C 0.76782 0.04204 0.74518 0.0
C452 C 0.76972 0.02566 0.69347 0.0
C453 C 0.73302 0.05642 0.76178 0.0
C454 C 0.72857 0.07241 0.81632 0.0
C455 C 0.73726 0.04589 0.85815 0.0
C456 C 0.73335 0.0614 0.90951 0.0
C457 C 0.72043 0.10324 0.91947 0.0
C458 C 0.71127 0.1296 0.87806 0.0
C459 C 0.7152 0.11426 0.82662 0.0
C460 C 0.62714 0.96536 0.6028 0.0
C461 C 0.59963 0.99572 0.58897 0.0
C462 C 0.66035 0.97817 0.63067 0.0
C463 C 0.66721 0.02173 0.64542 0.0
C464 C 0.63977 0.05235 0.63227 0.0
C465 C 0.6063 0.03949 0.6039 0.0
C466 C 0.70266 0.03407 0.6762 0.0
C467 C 0.70103 0.05278 0.72688 0.0
C468 C 0.73769 0.02165 0.6587 0.0
C469 C 0.74141 0.00398 0.60445 0.0
C470 C 0.72618 0.02607 0.56153 0.0
C471 C 0.72923 0.00902 0.51057 0.0
C472 C 0.74764 0.96998 0.50196 0.0
C473 C 0.7631 0.94796 0.54431 0.0
C474 C 0.76009 0.96484 0.59535 0.0
H475 H 0.74996 0.95683 0.46248 0.0
H476 H 0.71742 0.1152 0.95926 0.0
loop_
_geom_bond_atom_site_label_1
_geom_bond_atom_site_label_2
_geom_bond_distance
_geom_bond_site_symmetry_2
_ccdc_geom_bond_type
C0 O27 1.312 1_655 S
C0 O28 1.208 . S
C1 O22 1.331 1_545 S
C1 O25 1.244 . S
C2 O24 1.264 1_545 S
C2 O26 1.273 . S
Mg3 O5 1.936 1_564 S
Mg3 O12 2.081 1_554 S
Mg3 O14 2.023 . S
Mg3 O18 2.031 1_554 S
Mg3 O27 2.291 . S
Mg4 O5 1.963 . S
Mg4 O15 1.942 . S
Mg4 O16 1.955 1_556 S
Mg4 O23 1.986 . S
O5 Mg3 1.936 1_546 S
O5 Mg4 1.963 . S
O5 Mg6 1.915 1_556 S
Mg6 O5 1.915 1_554 S
Mg6 O7 1.915 1_455 S
Mg6 O11 2.013 . S
Mg6 O17 2.114 1_444 S
Mg6 O21 2.013 1_454 S
Mg6 O27 2.114 1_545 S
O7 Mg6 1.915 1_655 S
O7 Mg8 1.937 1_545 S
O7 Mg9 1.963 . S
Mg8 O7 1.937 1_565 S
Mg8 O17 2.288 1_554 S
Mg8 O22 2.084 . S
Mg8 O24 2.020 1_554 S
Mg8 O28 2.034 . S
Mg9 O7 1.963 . S
Mg9 O13 1.986 . S
Mg9 O25 1.942 . S
Mg9 O26 1.955 1_554 S
C10 O21 1.191 1_455 S
C10 O23 1.307 . S
O11 Mg6 2.013 . S
O11 C30 1.191 1_455 S
O12 Mg3 2.081 1_556 S
O12 C20 1.331 . S
O13 Mg9 1.986 . S
O13 C30 1.307 . S
O14 Mg3 2.023 . S
O14 C29 1.264 1_565 S
O15 Mg4 1.942 . S
O15 C20 1.244 1_545 S
O16 Mg4 1.955 1_554 S
O16 C29 1.273 . S
O17 Mg6 2.114 1_666 S
O17 Mg8 2.288 1_556 S
O17 C19 1.312 1_655 S
O18 Mg3 2.031 1_556 S
O18 C19 1.208 . S
C19 O17 1.312 1_455 S
C19 O18 1.208 . S
C20 O12 1.331 . S
C20 O15 1.244 1_565 S
O21 Mg6 2.013 1_656 S
O21 C10 1.191 1_655 S
O22 C1 1.331 1_565 S
O22 Mg8 2.084 . S
O23 Mg4 1.986 . S
O23 C10 1.307 . S
O24 C2 1.264 1_565 S
O24 Mg8 2.020 1_556 S
O25 C1 1.244 . S
O25 Mg9 1.942 . S
O26 C2 1.273 . S
O26 Mg9 1.955 1_556 S
O27 C0 1.312 1_455 S
O27 Mg3 2.291 . S
O27 Mg6 2.114 1_565 S
O28 C0 1.208 . S
O28 Mg8 2.034 . S
C29 O14 1.264 1_545 S
C29 O16 1.273 . S
C30 O11 1.191 1_655 S
C30 O13 1.307 . S
Cu31 N32 1.999 . S
Cu31 O37 1.974 . S
Cu31 N42 1.985 . S
Cu31 O51 1.959 . S
N32 Cu31 1.999 . S
N32 C34 1.263 . S
N32 C36 1.389 . S
N33 C34 1.358 . S
N33 C35 1.400 . S
C34 N32 1.263 . S
C34 N33 1.358 . S
C34 H40 0.930 1_655 S
C35 N33 1.400 . S
C35 C36 1.351 . S
C35 H52 0.930 . S
C36 N32 1.389 . S
C36 C35 1.351 . S
C36 H41 0.930 . S
O37 Cu31 1.974 . S
O37 C47 1.282 1_655 S
C38 O39 1.261 . S
C38 O51 1.251 1_455 S
O39 C38 1.261 . S
H40 C34 0.930 1_455 S
H41 C36 0.930 . S
N42 Cu31 1.985 . S
N42 C44 1.335 . S
N42 C45 1.390 1_655 S
N43 C44 1.345 . S
N43 C46 1.336 1_655 S
C44 N42 1.335 . S
C44 N43 1.345 . S
C44 H49 0.930 . S
C45 N42 1.390 1_455 S
C45 C46 1.346 . S
C45 H50 0.930 . S
C46 N43 1.336 1_455 S
C46 C45 1.346 . S
C46 H53 0.929 . S
C47 O37 1.282 1_455 S
C47 O48 1.216 . S
O48 C47 1.216 . S
H49 C44 0.930 . S
H50 C45 0.930 . S
O51 Cu31 1.959 . S
O51 C38 1.251 1_655 S
H52 C35 0.930 . S
H53 C46 0.929 . S
Cu54 N55 1.999 . S
Cu54 O60 1.974 . S
Cu54 N65 1.985 . S
Cu54 O74 1.959 . S
N55 Cu54 1.999 . S
N55 C57 1.263 . S
N55 C59 1.389 . S
N56 C57 1.358 . S
N56 C58 1.400 . S
C57 N55 1.263 . S
C57 N56 1.358 . S
C57 H63 0.930 1_545 S
C58 N56 1.400 . S
C58 C59 1.351 . S
C58 H75 0.930 . S
C59 N55 1.389 . S
C59 C58 1.351 . S
C59 H64 0.930 . S
O60 Cu54 1.974 . S
O60 C70 1.282 1_545 S
C61 O62 1.261 . S
C61 O74 1.251 1_565 S
O62 C61 1.261 . S
H63 C57 0.930 1_565 S
H64 C59 0.930 . S
N65 Cu54 1.985 . S
N65 C67 1.335 . S
N65 C68 1.390 1_545 S
N66 C67 1.345 . S
N66 C69 1.336 1_545 S
C67 N65 1.335 . S
C67 N66 1.345 . S
C67 H72 0.930 . S
C68 N65 1.390 1_565 S
C68 C69 1.346 . S
C68 H73 0.930 . S
C69 N66 1.336 1_565 S
C69 C68 1.346 . S
C69 H76 0.929 . S
C70 O60 1.282 1_565 S
C70 O71 1.216 . S
O71 C70 1.216 . S
H72 C67 0.930 . S
H73 C68 0.930 . S
O74 Cu54 1.959 . S
O74 C61 1.251 1_545 S
H75 C58 0.930 . S
H76 C69 0.929 . S
H77 C95 0.951 . S
H78 C97 0.951 . S
H79 C99 0.950 . S
H80 C100 0.950 . S
H81 C102 0.950 . S
H82 C105 0.950 . S
H83 C106 0.950 . S
H84 C108 0.950 . S
H85 C109 0.950 . S
H86 C110 0.951 . S
H87 C112 0.951 . S
H88 C114 0.950 . S
H89 C115 0.950 . S
H90 C117 0.950 . S
H91 C120 0.950 . S
H92 C121 0.950 . S
H93 C123 0.950 . S
H94 C124 0.950 . S
C95 H77 0.951 . S
C95 C96 1.366 . S
C95 C97 1.388 . S
C96 C95 1.366 . S
C96 C100 1.385 1_455 S
C97 H78 0.951 . S
C97 C95 1.388 . S
C97 C98 1.366 . S
C98 C97 1.366 . S
C98 C99 1.414 1_455 S
C98 C101 1.499 . S
C99 H79 0.950 . S
C99 C98 1.414 1_655 S
C99 C100 1.374 . S
C100 H80 0.950 . S
C100 C96 1.385 1_655 S
C100 C99 1.374 . S
C101 C98 1.499 . S
C101 C102 1.373 . S
C101 C103 1.389 1_455 S
C102 H81 0.950 . S
C102 C101 1.373 . S
C102 C118 1.377 . S
C103 C101 1.389 1_655 S
C103 C104 1.524 . S
C103 C117 1.377 . S
C104 C103 1.524 . S
C104 C105 1.397 . S
C104 C109 1.363 . S
C105 H82 0.950 . S
C105 C104 1.397 . S
C105 C106 1.334 . S
C106 H83 0.950 . S
C106 C105 1.334 . S
C106 C107 1.287 . S
C107 C106 1.287 . S
C107 C108 1.524 . S
C107 H126 0.913 . S
C108 H84 0.950 . S
C108 C107 1.524 . S
C108 C109 1.415 . S
C109 H85 0.950 . S
C109 C104 1.363 . S
C109 C108 1.415 . S
C110 H86 0.951 . S
C110 C111 1.366 . S
C110 C112 1.388 . S
C111 C110 1.366 . S
C111 C115 1.385 . S
C112 H87 0.951 . S
C112 C110 1.388 . S
C112 C113 1.366 . S
C113 C112 1.366 . S
C113 C114 1.414 . S
C113 C116 1.499 . S
C114 H88 0.950 . S
C114 C113 1.414 . S
C114 C115 1.374 . S
C115 H89 0.950 . S
C115 C111 1.385 . S
C115 C114 1.374 . S
C116 C113 1.499 . S
C116 C117 1.373 1_455 S
C116 C118 1.389 . S
C117 H90 0.950 . S
C117 C103 1.377 . S
C117 C116 1.373 1_655 S
C118 C102 1.377 . S
C118 C116 1.389 . S
C118 C119 1.524 . S
C119 C118 1.524 . S
C119 C120 1.397 . S
C119 C124 1.363 . S
C120 H91 0.950 . S
C120 C119 1.397 . S
C120 C121 1.334 . S
C121 H92 0.950 . S
C121 C120 1.334 . S
C121 C122 1.287 . S
C122 C121 1.287 . S
C122 C123 1.524 . S
C122 H125 0.999 . S
C123 H93 0.950 . S
C123 C122 1.524 . S
C123 C124 1.415 . S
C124 H94 0.950 . S
C124 C119 1.363 . S
C124 C123 1.415 . S
H125 C122 0.999 . S
H126 C107 0.913 . S
H127 C145 0.951 . S
H128 C147 0.951 . S
H129 C149 0.950 . S
H130 C150 0.950 . S
H131 C152 0.950 . S
H132 C155 0.950 . S
H133 C156 0.950 . S
H134 C158 0.950 . S
H135 C159 0.950 . S
H136 C160 0.951 . S
H137 C162 0.951 . S
H138 C164 0.950 . S
H139 C165 0.950 . S
H140 C167 0.950 . S
H141 C170 0.950 . S
H142 C171 0.950 . S
H143 C173 0.950 . S
H144 C174 0.950 . S
C145 H127 0.951 . S
C145 C146 1.372 . S
C145 C147 1.388 . S
C146 C145 1.372 . S
C146 C150 1.378 1_545 S
C147 H128 0.951 . S
C147 C145 1.388 . S
C147 C148 1.366 . S
C148 C147 1.366 . S
C148 C149 1.414 1_545 S
C148 C151 1.499 . S
C149 H129 0.950 . S
C149 C148 1.414 1_565 S
C149 C150 1.374 . S
C150 H130 0.950 . S
C150 C146 1.378 1_565 S
C150 C149 1.374 . S
C151 C148 1.499 . S
C151 C152 1.373 1_545 S
C151 C153 1.389 . S
C152 H131 0.950 . S
C152 C151 1.373 1_565 S
C152 C168 1.377 . S
C153 C151 1.389 . S
C153 C154 1.524 . S
C153 C167 1.377 . S
C154 C153 1.524 . S
C154 C155 1.397 . S
C154 C159 1.363 . S
C155 H132 0.950 . S
C155 C154 1.397 . S
C155 C156 1.334 . S
C156 H133 0.950 . S
C156 C155 1.334 . S
C156 C157 1.287 . S
C157 C156 1.287 . S
C157 C158 1.524 . S
C157 H176 0.913 . S
C158 H134 0.950 . S
C158 C157 1.524 . S
C158 C159 1.415 . S
C159 H135 0.950 . S
C159 C154 1.363 . S
C159 C158 1.415 . S
C160 H136 0.951 . S
C160 C161 1.366 1_565 S
C160 C162 1.388 . S
C161 C160 1.366 1_545 S
C161 C165 1.385 . S
C162 H137 0.951 . S
C162 C160 1.388 . S
C162 C163 1.366 1_565 S
C163 C162 1.366 1_545 S
C163 C164 1.414 . S
C163 C166 1.499 . S
C164 H138 0.950 . S
C164 C163 1.414 . S
C164 C165 1.374 . S
C165 H139 0.950 . S
C165 C161 1.385 . S
C165 C164 1.374 . S
C166 C163 1.499 . S
C166 C167 1.373 . S
C166 C168 1.389 1_545 S
C167 H140 0.950 . S
C167 C153 1.377 . S
C167 C166 1.373 . S
C168 C152 1.377 . S
C168 C166 1.389 1_565 S
C168 C169 1.524 . S
C169 C168 1.524 . S
C169 C170 1.397 . S
C169 C174 1.363 . S
C170 H141 0.950 . S
C170 C169 1.397 . S
C170 C171 1.334 . S
C171 H142 0.950 . S
C171 C170 1.334 . S
C171 C172 1.287 . S
C172 C171 1.287 . S
C172 C173 1.524 . S
C172 H175 0.999 . S
C173 H143 0.950 . S
C173 C172 1.524 . S
C173 C174 1.415 . S
C174 H144 0.950 . S
C174 C169 1.363 . S
C174 C173 1.415 . S
H175 C172 0.999 . S
H176 C157 0.913 . S
H177 C195 0.951 . S
H178 C197 0.951 . S
H179 C199 0.950 . S
H180 C200 0.950 . S
H181 C202 0.950 . S
H182 C205 0.950 . S
H183 C206 0.950 . S
H184 C208 0.950 . S
H185 C209 0.950 . S
H186 C210 0.951 . S
H187 C212 0.951 . S
H188 C214 0.950 . S
H189 C215 0.950 . S
H190 C217 0.950 . S
H191 C220 0.950 . S
H192 C221 0.950 . S
H193 C223 0.950 . S
H194 C224 0.950 . S
C195 H177 0.951 . S
C195 C196 1.366 1_655 S
C195 C197 1.388 . S
C196 C195 1.366 1_455 S
C196 C200 1.385 . S
C197 H178 0.951 . S
C197 C195 1.388 . S
C197 C198 1.366 1_655 S
C198 C197 1.366 1_455 S
C198 C199 1.414 . S
C198 C201 1.500 . S
C199 H179 0.950 . S
C199 C198 1.414 . S
C199 C200 1.374 . S
C200 H180 0.950 . S
C200 C196 1.385 . S
C200 C199 1.374 . S
C201 C198 1.500 . S
C201 C202 1.386 . S
C201 C203 1.375 1_455 S
C202 H181 0.950 . S
C202 C201 1.386 . S
C202 C218 1.377 . S
C203 C201 1.375 1_655 S
C203 C204 1.524 . S
C203 C217 1.377 . S
C204 C203 1.524 . S
C204 C205 1.397 . S
C204 C209 1.363 . S
C205 H182 0.950 . S
C205 C204 1.397 . S
C205 C206 1.334 . S
C206 H183 0.950 . S
C206 C205 1.334 . S
C206 C207 1.287 . S
C207 C206 1.287 . S
C207 C208 1.524 . S
C207 H226 0.913 . S
C208 H184 0.950 . S
C208 C207 1.524 . S
C208 C209 1.415 . S
C209 H185 0.950 . S
C209 C204 1.363 . S
C209 C208 1.415 . S
C210 H186 0.951 . S
C210 C211 1.366 1_455 S
C210 C212 1.388 . S
C211 C210 1.366 1_655 S
C211 C215 1.385 . S
C212 H187 0.951 . S
C212 C210 1.388 . S
C212 C213 1.366 1_455 S
C213 C212 1.366 1_655 S
C213 C214 1.414 . S
C213 C216 1.499 . S
C214 H188 0.950 . S
C214 C213 1.414 . S
C214 C215 1.374 . S
C215 H189 0.950 . S
C215 C211 1.385 . S
C215 C214 1.374 . S
C216 C213 1.499 . S
C216 C217 1.373 . S
C216 C218 1.389 1_655 S
C217 H190 0.950 . S
C217 C203 1.377 . S
C217 C216 1.373 . S
C218 C202 1.377 . S
C218 C216 1.389 1_455 S
C218 C219 1.524 . S
C219 C218 1.524 . S
C219 C220 1.397 . S
C219 C224 1.363 . S
C220 H191 0.950 . S
C220 C219 1.397 . S
C220 C221 1.334 . S
C221 H192 0.950 . S
C221 C220 1.334 . S
C221 C222 1.287 . S
C222 C221 1.287 . S
C222 C223 1.524 . S
C222 H225 0.999 . S
C223 H193 0.950 . S
C223 C222 1.524 . S
C223 C224 1.415 . S
C224 H194 0.950 . S
C224 C219 1.363 . S
C224 C223 1.415 . S
H225 C222 0.999 . S
H226 C207 0.913 . S
H227 C245 0.951 . S
H228 C247 0.951 . S
H229 C249 0.950 . S
H230 C250 0.950 . S
H231 C252 0.950 . S
H232 C255 0.950 . S
H233 C256 0.950 . S
H234 C258 0.950 . S
H235 C259 0.950 . S
H236 C260 0.955 . S
H237 C262 0.951 . S
H238 C264 0.950 . S
H239 C265 0.950 . S
H240 C267 0.950 . S
H241 C270 0.950 . S
H242 C271 0.950 . S
H243 C273 0.950 . S
H244 C274 0.950 . S
C245 H227 0.951 . S
C245 C246 1.366 . S
C245 C247 1.388 . S
C246 C245 1.366 . S
C246 C250 1.385 . S
C247 H228 0.951 . S
C247 C245 1.388 . S
C247 C248 1.366 . S
C248 C247 1.366 . S
C248 C249 1.414 . S
C248 C251 1.499 . S
C249 H229 0.950 . S
C249 C248 1.414 . S
C249 C250 1.374 . S
C250 H230 0.950 . S
C250 C246 1.385 . S
C250 C249 1.374 . S
C251 C248 1.499 . S
C251 C252 1.373 1_545 S
C251 C253 1.389 . S
C252 H231 0.950 . S
C252 C251 1.373 1_565 S
C252 C268 1.377 . S
C253 C251 1.389 . S
C253 C254 1.524 . S
C253 C267 1.377 . S
C254 C253 1.524 . S
C254 C255 1.397 . S
C254 C259 1.363 . S
C255 H232 0.950 . S
C255 C254 1.397 . S
C255 C256 1.334 . S
C256 H233 0.950 . S
C256 C255 1.334 . S
C256 C257 1.287 . S
C257 C256 1.287 . S
C257 C258 1.524 . S
C257 H276 0.913 . S
C258 H234 0.950 . S
C258 C257 1.524 . S
C258 C259 1.415 . S
C259 H235 0.950 . S
C259 C254 1.363 . S
C259 C258 1.415 . S
C260 H236 0.955 . S
C260 C261 1.360 1_545 S
C260 C262 1.390 . S
C261 C260 1.360 1_565 S
C261 C265 1.385 . S
C262 H237 0.951 . S
C262 C260 1.390 . S
C262 C263 1.366 1_545 S
C263 C262 1.366 1_565 S
C263 C264 1.414 . S
C263 C266 1.499 . S
C264 H238 0.950 . S
C264 C263 1.414 . S
C264 C265 1.374 . S
C265 H239 0.950 . S
C265 C261 1.385 . S
C265 C264 1.374 . S
C266 C263 1.499 . S
C266 C267 1.371 1_565 S
C266 C268 1.391 . S
C267 H240 0.950 . S
C267 C253 1.377 . S
C267 C266 1.371 1_545 S
C268 C252 1.377 . S
C268 C266 1.391 . S
C268 C269 1.524 . S
C269 C268 1.524 . S
C269 C270 1.397 . S
C269 C274 1.363 . S
C270 H241 0.950 . S
C270 C269 1.397 . S
C270 C271 1.334 . S
C271 H242 0.950 . S
C271 C270 1.334 . S
C271 C272 1.287 . S
C272 C271 1.287 . S
C272 C273 1.524 . S
C272 H275 0.999 . S
C273 H243 0.950 . S
C273 C272 1.524 . S
C273 C274 1.415 . S
C274 H244 0.950 . S
C274 C269 1.363 . S
C274 C273 1.415 . S
H275 C272 0.999 . S
H276 C257 0.913 . S
H277 C295 0.951 . S
H278 C297 0.951 . S
H279 C299 0.950 . S
H280 C300 0.950 . S
H281 C302 0.950 . S
H282 C305 0.950 . S
H283 C306 0.950 . S
H284 C308 0.950 . S
H285 C309 0.950 . S
H286 C310 0.951 . S
H287 C312 0.951 . S
H288 C314 0.950 . S
H289 C315 0.950 . S
H290 C317 0.950 . S
H291 C320 0.950 . S
H292 C321 0.950 . S
H293 C323 0.950 . S
H294 C324 0.950 . S
C295 H277 0.951 . S
C295 C296 1.366 1_455 S
C295 C297 1.388 . S
C296 C295 1.366 1_655 S
C296 C300 1.385 . S
C297 H278 0.951 . S
C297 C295 1.388 . S
C297 C298 1.366 . S
C298 C297 1.366 . S
C298 C299 1.414 1_455 S
C298 C301 1.499 . S
C299 H279 0.950 . S
C299 C298 1.414 1_655 S
C299 C300 1.374 . S
C300 H280 0.950 . S
C300 C296 1.385 . S
C300 C299 1.374 . S
C301 C298 1.499 . S
C301 C302 1.373 1_455 S
C301 C303 1.389 . S
C302 H281 0.950 . S
C302 C301 1.373 1_655 S
C302 C318 1.377 . S
C303 C301 1.389 . S
C303 C304 1.524 . S
C303 C317 1.377 . S
C304 C303 1.524 . S
C304 C305 1.397 . S
C304 C309 1.363 . S
C305 H282 0.950 . S
C305 C304 1.397 . S
C305 C306 1.334 . S
C306 H283 0.950 . S
C306 C305 1.334 . S
C306 C307 1.287 . S
C307 C306 1.287 . S
C307 C308 1.524 . S
C307 H326 0.913 . S
C308 H284 0.950 . S
C308 C307 1.524 . S
C308 C309 1.415 . S
C309 H285 0.950 . S
C309 C304 1.363 . S
C309 C308 1.415 . S
C310 H286 0.951 . S
C310 C311 1.366 1_655 S
C310 C312 1.388 . S
C311 C310 1.366 1_455 S
C311 C315 1.385 . S
C312 H287 0.951 . S
C312 C310 1.388 . S
C312 C313 1.366 1_655 S
C313 C312 1.366 1_455 S
C313 C314 1.414 . S
C313 C316 1.499 . S
C314 H288 0.950 . S
C314 C313 1.414 . S
C314 C315 1.374 . S
C315 H289 0.950 . S
C315 C311 1.385 . S
C315 C314 1.374 . S
C316 C313 1.499 . S
C316 C317 1.373 . S
C316 C318 1.389 1_455 S
C317 H290 0.950 . S
C317 C303 1.377 . S
C317 C316 1.373 . S
C318 C302 1.377 . S
C318 C316 1.389 1_655 S
C318 C319 1.524 . S
C319 C318 1.524 . S
C319 C320 1.397 . S
C319 C324 1.363 . S
C320 H291 0.950 . S
C320 C319 1.397 . S
C320 C321 1.334 . S
C321 H292 0.950 . S
C321 C320 1.334 . S
C321 C322 1.287 . S
C322 C321 1.287 . S
C322 C323 1.524 . S
C322 H325 0.999 . S
C323 H293 0.950 . S
C323 C322 1.524 . S
C323 C324 1.415 . S
C324 H294 0.950 . S
C324 C319 1.363 . S
C324 C323 1.415 . S
H325 C322 0.999 . S
H326 C307 0.913 . S
H327 C345 0.951 . S
H328 C347 0.951 . S
H329 C349 0.950 . S
H330 C350 0.950 . S
H331 C352 0.950 . S
H332 C355 0.950 . S
H333 C356 0.950 . S
H334 C358 0.950 1_545 S
H335 C359 0.950 . S
H336 C360 0.951 . S
H337 C362 0.951 . S
H338 C364 0.950 . S
H339 C365 0.950 . S
H340 C367 0.950 1_565 S
H341 C370 0.950 . S
H342 C371 0.950 . S
H343 C373 0.950 . S
H344 C374 0.950 1_565 S
C345 H327 0.951 . S
C345 C346 1.366 1_545 S
C345 C347 1.388 . S
C346 C345 1.366 1_565 S
C346 C350 1.385 . S
C347 H328 0.951 . S
C347 C345 1.388 . S
C347 C348 1.366 1_545 S
C348 C347 1.366 1_565 S
C348 C349 1.414 . S
C348 C351 1.499 . S
C349 H329 0.950 . S
C349 C348 1.414 . S
C349 C350 1.374 . S
C350 H330 0.950 . S
C350 C346 1.385 . S
C350 C349 1.374 . S
C351 C348 1.499 . S
C351 C352 1.373 1_565 S
C351 C353 1.389 . S
C352 H331 0.950 . S
C352 C351 1.373 1_545 S
C352 C368 1.377 . S
C353 C351 1.389 . S
C353 C354 1.524 . S
C353 C367 1.375 1_565 S
C354 C353 1.524 . S
C354 C355 1.397 . S
C354 C359 1.363 1_565 S
C355 H332 0.950 . S
C355 C354 1.397 . S
C355 C356 1.334 . S
C356 H333 0.950 . S
C356 C355 1.334 . S
C356 C357 1.287 . S
C357 C356 1.287 . S
C357 C358 1.524 . S
C357 H376 0.913 . S
C358 H334 0.950 1_565 S
C358 C357 1.524 . S
C358 C359 1.415 1_565 S
C359 H335 0.950 . S
C359 C354 1.363 1_545 S
C359 C358 1.415 1_545 S
C360 H336 0.951 . S
C360 C361 1.366 1_565 S
C360 C362 1.388 . S
C361 C360 1.366 1_545 S
C361 C365 1.385 . S
C362 H337 0.951 . S
C362 C360 1.388 . S
C362 C363 1.366 1_565 S
C363 C362 1.366 1_545 S
C363 C364 1.414 . S
C363 C366 1.499 . S
C364 H338 0.950 . S
C364 C363 1.414 . S
C364 C365 1.374 . S
C365 H339 0.950 . S
C365 C361 1.385 . S
C365 C364 1.374 . S
C366 C363 1.499 . S
C366 C367 1.375 . S
C366 C368 1.389 . S
C367 H340 0.950 1_545 S
C367 C353 1.375 1_545 S
C367 C366 1.375 . S
C368 C352 1.377 . S
C368 C366 1.389 . S
C368 C369 1.524 . S
C369 C368 1.524 . S
C369 C370 1.397 . S
C369 C374 1.363 . S
C370 H341 0.950 . S
C370 C369 1.397 . S
C370 C371 1.334 . S
C371 H342 0.950 . S
C371 C370 1.334 . S
C371 C372 1.287 . S
C372 C371 1.287 . S
C372 C373 1.524 . S
C372 H375 0.999 . S
C373 H343 0.950 . S
C373 C372 1.524 . S
C373 C374 1.415 . S
C374 H344 0.950 1_545 S
C374 C369 1.363 . S
C374 C373 1.415 . S
H375 C372 0.999 . S
H376 C357 0.913 . S
H377 C395 0.951 . S
H378 C397 0.951 . S
H379 C399 0.950 . S
H380 C400 0.950 . S
H381 C402 0.950 . S
H382 C405 0.950 . S
H383 C406 0.950 . S
H384 C408 0.950 . S
H385 C409 0.950 . S
H386 C410 0.951 . S
H387 C412 0.951 . S
H388 C414 0.950 1_455 S
H389 C415 0.945 1_455 S
H390 C417 0.950 . S
H391 C420 0.950 . S
H392 C421 0.950 . S
H393 C423 0.950 . S
H394 C424 0.950 . S
C395 H377 0.951 . S
C395 C396 1.366 . S
C395 C397 1.388 . S
C396 C395 1.366 . S
C396 C400 1.385 1_455 S
C397 H378 0.951 . S
C397 C395 1.388 . S
C397 C398 1.366 . S
C398 C397 1.366 . S
C398 C399 1.414 1_455 S
C398 C401 1.499 1_455 S
C399 H379 0.950 . S
C399 C398 1.414 1_655 S
C399 C400 1.374 . S
C400 H380 0.950 . S
C400 C396 1.385 1_655 S
C400 C399 1.374 . S
C401 C398 1.499 1_655 S
C401 C402 1.371 . S
C401 C403 1.392 1_655 S
C402 H381 0.950 . S
C402 C401 1.371 . S
C402 C418 1.377 . S
C403 C401 1.392 1_455 S
C403 C404 1.524 . S
C403 C417 1.377 . S
C404 C403 1.524 . S
C404 C405 1.397 . S
C404 C409 1.363 . S
C405 H382 0.950 . S
C405 C404 1.397 . S
C405 C406 1.334 . S
C406 H383 0.950 . S
C406 C405 1.334 . S
C406 C407 1.287 . S
C407 C406 1.287 . S
C407 C408 1.524 . S
C407 H426 0.913 . S
C408 H384 0.950 . S
C408 C407 1.524 . S
C408 C409 1.415 . S
C409 H385 0.950 . S
C409 C404 1.363 . S
C409 C408 1.415 . S
C410 H386 0.951 . S
C410 C411 1.366 . S
C410 C412 1.388 . S
C411 C410 1.366 . S
C411 C415 1.385 . S
C412 H387 0.951 . S
C412 C410 1.388 . S
C412 C413 1.366 . S
C413 C412 1.366 . S
C413 C414 1.414 . S
C413 C416 1.499 . S
C414 H388 0.950 1_655 S
C414 C413 1.414 . S
C414 C415 1.374 . S
C415 H389 0.945 1_655 S
C415 C411 1.385 . S
C415 C414 1.374 . S
C416 C413 1.499 . S
C416 C417 1.373 1_655 S
C416 C418 1.389 . S
C417 H390 0.950 . S
C417 C403 1.377 . S
C417 C416 1.373 1_455 S
C418 C402 1.377 . S
C418 C416 1.389 . S
C418 C419 1.524 . S
C419 C418 1.524 . S
C419 C420 1.397 . S
C419 C424 1.363 . S
C420 H391 0.950 . S
C420 C419 1.397 . S
C420 C421 1.334 . S
C421 H392 0.950 . S
C421 C420 1.334 . S
C421 C422 1.287 . S
C422 C421 1.287 . S
C422 C423 1.524 . S
C422 H425 0.999 . S
C423 H393 0.950 . S
C423 C422 1.524 . S
C423 C424 1.415 . S
C424 H394 0.950 . S
C424 C419 1.363 . S
C424 C423 1.415 . S
H425 C422 0.999 . S
H426 C407 0.913 . S
H427 C445 0.951 . S
H428 C447 0.951 . S
H429 C449 0.950 . S
H430 C450 0.950 . S
H431 C452 0.950 . S
H432 C455 0.950 . S
H433 C456 0.950 . S
H434 C458 0.950 . S
H435 C459 0.950 . S
H436 C460 0.951 . S
H437 C462 0.951 . S
H438 C464 0.950 . S
H439 C465 0.950 . S
H440 C467 0.950 . S
H441 C470 0.950 . S
H442 C471 0.950 . S
H443 C473 0.950 . S
H444 C474 0.950 . S
C445 H427 0.951 . S
C445 C446 1.366 . S
C445 C447 1.388 . S
C446 C445 1.366 . S
C446 C450 1.385 1_545 S
C447 H428 0.951 . S
C447 C445 1.388 . S
C447 C448 1.366 . S
C448 C447 1.366 . S
C448 C449 1.414 1_545 S
C448 C451 1.499 . S
C449 H429 0.950 . S
C449 C448 1.414 1_565 S
C449 C450 1.374 . S
C450 H430 0.950 . S
C450 C446 1.385 1_565 S
C450 C449 1.374 . S
C451 C448 1.499 . S
C451 C452 1.373 1_545 S
C451 C453 1.389 . S
C452 H431 0.950 . S
C452 C451 1.373 1_565 S
C452 C468 1.377 . S
C453 C451 1.389 . S
C453 C454 1.524 . S
C453 C467 1.377 . S
C454 C453 1.524 . S
C454 C455 1.397 . S
C454 C459 1.363 . S
C455 H432 0.950 . S
C455 C454 1.397 . S
C455 C456 1.334 . S
C456 H433 0.950 . S
C456 C455 1.334 . S
C456 C457 1.287 . S
C457 C456 1.287 . S
C457 C458 1.524 . S
C457 H476 0.913 . S
C458 H434 0.950 . S
C458 C457 1.524 . S
C458 C459 1.415 . S
C459 H435 0.950 . S
C459 C454 1.363 . S
C459 C458 1.415 . S
C460 H436 0.951 . S
C460 C461 1.366 . S
C460 C462 1.388 . S
C461 C460 1.366 . S
C461 C465 1.385 1_565 S
C462 H437 0.951 . S
C462 C460 1.388 . S
C462 C463 1.366 . S
C463 C462 1.366 . S
C463 C464 1.414 1_565 S
C463 C466 1.499 . S
C464 H438 0.950 . S
C464 C463 1.414 1_545 S
C464 C465 1.374 . S
C465 H439 0.950 . S
C465 C461 1.385 1_545 S
C465 C464 1.374 . S
C466 C463 1.499 . S
C466 C467 1.364 1_565 S
C466 C468 1.398 . S
C467 H440 0.950 . S
C467 C453 1.377 . S
C467 C466 1.364 1_545 S
C468 C452 1.377 . S
C468 C466 1.398 . S
C468 C469 1.524 . S
C469 C468 1.524 . S
C469 C470 1.397 . S
C469 C474 1.363 . S
C470 H441 0.950 . S
C470 C469 1.397 . S
C470 C471 1.334 . S
C471 H442 0.950 . S
C471 C470 1.334 . S
C471 C472 1.287 . S
C472 C471 1.287 . S
C472 C473 1.524 . S
C472 H475 0.999 . S
C473 H443 0.950 . S
C473 C472 1.524 . S
C473 C474 1.415 . S
C474 H444 0.950 . S
C474 C469 1.363 . S
C474 C473 1.415 . S
H475 C472 0.999 . S
H476 C457 0.913 . S
C96 C30 1.317 1_455 S
C111 C47 1.347 . S
C146 C1 1.500 . S
C161 N66 1.492 . S
C196 C0 1.219 1_455 S
C211 N43 1.241 . S
C246 C29 1.655 . S
C261 C70 1.692 . S
C296 C19 1.344 1_655 S
C311 C38 1.413 . S
C346 C20 1.545 . S
C361 N56 1.548 . S
C411 N33 1.265 . S
C396 C10 1.264 . S
C446 C2 1.697 . S
C461 C61 1.736 . S
