# Generated by pormake.
# Topology zzz, (3,6)-cn, num edge types: 1
# Building blocks:
#     Node 0, Type 0, BuildingBlock: WUSLED_clean_sbu_0, # of connection points: 3
#     Node 1, Type 0, BuildingBlock: WUSLED_clean_sbu_0, # of connection points: 3
#     Node 2, Type 0, BuildingBlock: WUSLED_clean_sbu_0, # of connection points: 3
#     Node 3, Type 0, BuildingBlock: WUSLED_clean_sbu_0, # of connection points: 3
#     Node 4, Type 0, BuildingBlock: WUSLED_clean_sbu_0, # of connection points: 3
#     Node 5, Type 0, BuildingBlock: WUSLED_clean_sbu_0, # of connection points: 3
#     Node 6, Type 0, BuildingBlock: WUSLED_clean_sbu_0, # of connection points: 3
#     Node 7, Type 0, BuildingBlock: WUSLED_clean_sbu_0, # of connection points: 3
#     Node 8, Type 1, BuildingBlock: NUHQIS_clean_sbu_0, # of connection points: 6
#     Node 9, Type 1, BuildingBlock: NUHQIS_clean_sbu_0, # of connection points: 6
#     Node 10, Type 1, BuildingBlock: NUHQIS_clean_sbu_0, # of connection points: 6
#     Node 11, Type 1, BuildingBlock: NUHQIS_clean_sbu_0, # of connection points: 6
#     Edge 12, Type (0, 1), BuildingBlock: EZIPEK_clean_linker_0, # of connection points: 2
#     Edge 13, Type (0, 1), BuildingBlock: EZIPEK_clean_linker_0, # of connection points: 2
#     Edge 14, Type (0, 1), BuildingBlock: EZIPEK_clean_linker_0, # of connection points: 2
#     Edge 15, Type (0, 1), BuildingBlock: EZIPEK_clean_linker_0, # of connection points: 2
#     Edge 16, Type (0, 1), BuildingBlock: EZIPEK_clean_linker_0, # of connection points: 2
#     Edge 17, Type (0, 1), BuildingBlock: EZIPEK_clean_linker_0, # of connection points: 2
#     Edge 18, Type (0, 1), BuildingBlock: EZIPEK_clean_linker_0, # of connection points: 2
#     Edge 19, Type (0, 1), BuildingBlock: EZIPEK_clean_linker_0, # of connection points: 2
#     Edge 20, Type (0, 1), BuildingBlock: EZIPEK_clean_linker_0, # of connection points: 2
#     Edge 21, Type (0, 1), BuildingBlock: EZIPEK_clean_linker_0, # of connection points: 2
#     Edge 22, Type (0, 1), BuildingBlock: EZIPEK_clean_linker_0, # of connection points: 2
#     Edge 23, Type (0, 1), BuildingBlock: EZIPEK_clean_linker_0, # of connection points: 2
#     Edge 24, Type (0, 1), BuildingBlock: EZIPEK_clean_linker_0, # of connection points: 2
#     Edge 25, Type (0, 1), BuildingBlock: EZIPEK_clean_linker_0, # of connection points: 2
#     Edge 26, Type (0, 1), BuildingBlock: EZIPEK_clean_linker_0, # of connection points: 2
#     Edge 27, Type (0, 1), BuildingBlock: EZIPEK_clean_linker_0, # of connection points: 2
#     Edge 28, Type (0, 1), BuildingBlock: EZIPEK_clean_linker_0, # of connection points: 2
#     Edge 29, Type (0, 1), BuildingBlock: EZIPEK_clean_linker_0, # of connection points: 2
#     Edge 30, Type (0, 1), BuildingBlock: EZIPEK_clean_linker_0, # of connection points: 2
#     Edge 31, Type (0, 1), BuildingBlock: EZIPEK_clean_linker_0, # of connection points: 2
#     Edge 32, Type (0, 1), BuildingBlock: EZIPEK_clean_linker_0, # of connection points: 2
#     Edge 33, Type (0, 1), BuildingBlock: EZIPEK_clean_linker_0, # of connection points: 2
#     Edge 34, Type (0, 1), BuildingBlock: EZIPEK_clean_linker_0, # of connection points: 2
#     Edge 35, Type (0, 1), BuildingBlock: EZIPEK_clean_linker_0, # of connection points: 2
# Relax obj value: 0.432
# Max RMSD: 0.245
# Mean RMSD: 0.228
data_MOF--net-zzz--node1-WUSLED_clean_sbu_0--node2-NUHQIS_clean_sbu_0--edge1-EZIPEK_clean_linker_0
_symmetry_space_group_name_H-M    P1
_symmetry_Int_Tables_number       1
_symmetry_cell_setting            triclinic
loop_
_symmetry_equiv_pos_as_xyz
'x, y, z'
_cell_length_a     50.882121
_cell_length_b     50.862575
_cell_length_c     16.220064
_cell_angle_alpha  89.673955
_cell_angle_beta   89.93349
_cell_angle_gamma 90.062244
loop_
_atom_site_label
_atom_site_type_symbol
_atom_site_fract_x
_atom_site_fract_y
_atom_site_fract_z
_atom_type_partial_charge
C0 C 0.80334 0.52718 0.45997 0.0
C1 C 0.82503 0.5242 0.40616 0.0
C2 C 0.85579 0.52103 0.52906 0.0
C3 C 0.85112 0.52124 0.43315 0.0
C4 C 0.8319 0.52288 0.58241 0.0
C5 C 0.80705 0.52612 0.5462 0.0
U6 U 0.74383 0.51615 0.31168 0.0
O7 O 0.72036 0.54605 0.24629 0.0
O8 O 0.70071 0.51858 0.33047 0.0
C9 C 0.69776 0.53688 0.27348 0.0
C10 C 0.77639 0.53319 0.42691 0.0
C11 C 0.67639 0.53295 0.21086 0.0
C12 C 0.62995 0.52475 0.17946 0.0
C13 C 0.65066 0.52673 0.23667 0.0
C14 C 0.66005 0.53518 0.06869 0.0
C15 C 0.63438 0.52911 0.09484 0.0
C16 C 0.68077 0.53707 0.1258 0.0
C17 C 0.78612 0.46176 0.22606 0.0
C18 C 0.8256 0.44985 0.15182 0.0
C19 C 0.82289 0.44187 0.29914 0.0
C20 C 0.79745 0.45228 0.29964 0.0
C21 C 0.83744 0.44164 0.22563 0.0
C22 C 0.80009 0.45969 0.15197 0.0
C23 C 0.76124 0.47642 0.22584 0.0
O24 O 0.77502 0.54326 0.35217 0.0
O25 O 0.75763 0.51593 0.44146 0.0
O26 O 0.76344 0.50098 0.20122 0.0
O27 O 0.746 0.47349 0.29082 0.0
H28 H 0.82182 0.52451 0.3402 0.0
H29 H 0.8581 0.52093 0.48135 0.0
H30 H 0.83367 0.52232 0.64891 0.0
H31 H 0.79024 0.52828 0.58663 0.0
H32 H 0.61039 0.52001 0.20135 0.0
H33 H 0.64646 0.5237 0.30152 0.0
H34 H 0.66404 0.53856 1.00388 0.0
H35 H 0.70019 0.54206 0.10317 0.0
H36 H 0.83651 0.44956 0.0944 0.0
H37 H 0.83173 0.43536 0.35644 0.0
H38 H 0.7871 0.45377 0.3578 0.0
H39 H 0.79172 0.46686 0.0947 0.0
C40 C 0.99247 0.80828 0.45302 0.0
C41 C 0.01623 0.82194 0.44359 0.0
C42 C 1.00223 0.85651 0.5419 0.0
C43 C 0.02071 0.84592 0.48492 0.0
C44 C 0.97722 0.84403 0.54153 0.0
C45 C 0.97272 0.82017 0.50019 0.0
U46 U 1.00791 0.74892 0.30582 0.0
O47 O 1.00413 0.70597 0.32731 0.0
O48 O 0.97985 0.72527 0.23379 0.0
C49 C 0.98718 0.70281 0.26696 0.0
C50 C 0.98753 0.78194 0.41475 0.0
C51 C 0.99166 0.68036 0.20912 0.0
C52 C 0.98363 0.63425 0.17355 0.0
C53 C 0.98152 0.65535 0.22899 0.0
C54 C 1.00657 0.66244 0.07704 0.0
C55 C 0.99599 0.63752 0.09653 0.0
C56 C 1.00442 0.68361 0.13257 0.0
C57 C 0.06505 0.7902 0.23008 0.0
C58 C 0.0757 0.83039 0.15645 0.0
C59 C 0.08342 0.82753 0.3037 0.0
C60 C 0.07436 0.80153 0.30355 0.0
C61 C 0.08303 0.84237 0.23056 0.0
C62 C 0.06689 0.80448 0.15615 0.0
C63 C 0.05039 0.76522 0.22982 0.0
O64 O 0.98081 0.78154 0.33653 0.0
O65 O 1.00388 0.76287 0.43405 0.0
O66 O 0.05112 0.75085 0.29751 0.0
O67 O 0.02672 0.76706 0.19799 0.0
H68 H 0.03131 0.81417 0.40366 0.0
H69 H 0.03863 0.85597 0.46912 0.0
H70 H 0.96056 0.85262 0.57265 0.0
H71 H 0.95357 0.81094 0.50524 0.0
H72 H 0.97528 0.61537 0.19043 0.0
H73 H 0.97149 0.65222 0.28717 0.0
H74 H 0.01623 0.66559 0.01827 0.0
H75 H 0.01239 0.70261 0.11519 0.0
H76 H 0.07559 0.84153 0.09929 0.0
H77 H 0.0893 0.8365 0.36123 0.0
H78 H 0.07336 0.79086 0.36144 0.0
H79 H 0.06007 0.79609 0.09874 0.0
C80 C 0.72066 0.9967 0.47333 0.0
C81 C 0.70022 1.01013 0.43248 0.0
C82 C 0.67056 1.00301 0.54994 0.0
C83 C 0.67547 0.0133 0.47055 0.0
C84 C 0.69114 0.99 0.59102 0.0
C85 C 0.71584 0.98694 0.55326 0.0
U86 U 0.77754 1.00959 0.3148 0.0
O87 O 0.80007 0.98003 0.24516 0.0
O88 O 0.82072 1.0066 0.32861 0.0
C89 C 0.823 0.98866 0.27081 0.0
C90 C 0.74661 0.99126 0.43337 0.0
C91 C 0.84403 0.99239 0.20645 0.0
C92 C 0.8853 0.01243 0.15903 0.0
C93 C 0.86478 1.01047 0.21714 0.0
C94 C 0.86515 0.97821 0.07803 0.0
C95 C 0.88578 0.99625 0.08891 0.0
C96 C 0.84464 0.97624 0.13602 0.0
C97 C 0.73479 0.06481 0.2337 0.0
C98 C 0.69675 0.07945 0.15682 0.0
C99 C 0.69581 0.07991 0.30632 0.0
C100 C 0.72158 0.0703 0.30792 0.0
C101 C 0.68292 0.0834 0.23058 0.0
C102 C 0.72251 0.07032 0.15839 0.0
C103 C 0.75964 0.05017 0.23245 0.0
O104 O 0.74614 0.98272 0.35703 0.0
O105 O 0.76567 1.00822 0.44622 0.0
O106 O 0.77498 0.05249 0.29722 0.0
O107 O 0.75725 0.02584 0.20681 0.0
H108 H 0.70324 0.01774 0.37072 0.0
H109 H 0.65993 0.02333 0.43749 0.0
H110 H 0.68794 0.9818 0.65199 0.0
H111 H 0.73112 0.97642 0.58615 0.0
H112 H 0.90095 0.0265 0.16902 0.0
H113 H 0.86535 0.02297 0.27092 0.0
H114 H 0.86498 0.96551 0.02464 0.0
H115 H 0.82936 0.96177 0.12605 0.0
H116 H 0.68713 0.08225 0.09783 0.0
H117 H 0.68542 0.08303 0.36374 0.0
H118 H 0.73064 0.06599 0.36686 0.0
H119 H 0.73237 0.06618 0.10064 0.0
C120 C 0.52708 0.72022 0.46496 0.0
C121 C 0.52318 0.69793 0.4157 0.0
C122 C 0.51511 0.66945 0.53805 0.0
C123 C 0.51817 0.67306 0.45142 0.0
C124 C 0.5218 0.69171 0.58631 0.0
C125 C 0.52693 0.71654 0.55075 0.0
U126 U 0.51683 0.78036 0.31651 0.0
O127 O 0.52099 0.82317 0.33632 0.0
O128 O 0.54671 0.80333 0.24836 0.0
C129 C 0.53908 0.82595 0.27885 0.0
C130 C 0.53404 0.74669 0.42934 0.0
C131 C 0.53554 0.84791 0.21827 0.0
C132 C 0.55226 0.88857 0.15587 0.0
C133 C 0.55457 0.86794 0.21351 0.0
C134 C 0.51166 0.86974 0.10615 0.0
C135 C 0.53084 0.88972 0.10125 0.0
C136 C 0.514 0.84903 0.16396 0.0
C137 C 0.46089 0.73987 0.23516 0.0
C138 C 0.44547 0.70276 0.15609 0.0
C139 C 0.44917 0.69905 0.30481 0.0
C140 C 0.45792 0.7251 0.30822 0.0
C141 C 0.44424 0.68741 0.22813 0.0
C142 C 0.45364 0.72886 0.15964 0.0
C143 C 0.47556 0.7647 0.23438 0.0
O144 O 0.54275 0.7475 0.35297 0.0
O145 O 0.51815 0.76633 0.44611 0.0
O146 O 0.47385 0.77926 0.30092 0.0
O147 O 0.49968 0.76235 0.20651 0.0
H148 H 0.52468 0.69949 0.34924 0.0
H149 H 0.51779 0.65675 0.40942 0.0
H150 H 0.5241 0.69027 0.65227 0.0
H151 H 0.5315 0.73287 0.59087 0.0
H152 H 0.5673 0.90364 0.15367 0.0
H153 H 0.5714 0.86756 0.25433 0.0
H154 H 0.49494 0.87011 0.06491 0.0
H155 H 0.49907 0.83383 0.16599 0.0
H156 H 0.44153 0.69409 0.09648 0.0
H157 H 0.44816 0.68745 0.36095 0.0
H158 H 0.46374 0.73314 0.36715 0.0
H159 H 0.45597 0.73991 0.10276 0.0
C160 C 0.21954 0.49247 1.01277 0.0
C161 C 0.19932 0.47357 0.01699 0.0
C162 C 0.17004 0.50119 0.93406 0.0
C163 C 0.17495 0.47786 0.97829 0.0
C164 C 0.19006 0.52032 0.93043 0.0
C165 C 0.21451 0.516 0.96905 0.0
U166 U 0.27933 0.50523 0.15906 0.0
O167 O 0.3222 0.50009 0.14145 0.0
O168 O 0.30133 0.4763 0.23331 0.0
C169 C 0.32427 0.48301 0.20233 0.0
C170 C 0.24596 0.48626 0.0493 0.0
C171 C 0.34589 0.48724 0.263 0.0
C172 C 0.39004 0.4762 0.31199 0.0
C173 C 0.36983 0.47378 0.25341 0.0
C174 C 0.36293 0.50585 0.39112 0.0
C175 C 0.38679 0.49214 0.38185 0.0
C176 C 0.34269 0.50343 0.33239 0.0
C177 C 0.23867 0.56259 0.22641 0.0
C178 C 0.20019 0.57826 0.29872 0.0
C179 C 0.19864 0.57244 0.15047 0.0
C180 C 0.2249 0.56436 0.15136 0.0
C181 C 0.18583 0.57811 0.22491 0.0
C182 C 0.22646 0.57061 0.29942 0.0
C183 C 0.26351 0.54807 0.23215 0.0
O184 O 0.26582 0.50174 0.03013 0.0
O185 O 0.24638 0.47876 0.127 0.0
O186 O 0.26091 0.52454 0.26491 0.0
O187 O 0.27867 0.54846 0.16637 0.0
H188 H 0.20252 0.45516 0.04935 0.0
H189 H 0.15993 0.4628 0.98229 0.0
H190 H 0.18683 0.5385 0.8969 0.0
H191 H 0.22957 0.53097 0.96366 0.0
H192 H 0.40821 0.46549 0.30309 0.0
H193 H 0.37281 0.46109 0.2008 0.0
H194 H 0.35992 0.51833 0.44419 0.0
H195 H 0.32445 0.51399 0.34158 0.0
H196 H 0.1906 0.5828 0.35662 0.0
H197 H 0.18783 0.57241 0.09297 0.0
H198 H 0.23391 0.55806 0.09432 0.0
H199 H 0.23671 0.56923 0.35783 0.0
C200 C 0.01533 0.22099 1.0115 0.0
C201 C 0.99513 0.2025 0.0263 0.0
C202 C 0.01607 0.17013 0.93621 0.0
C203 C 0.99556 0.17746 0.9895 0.0
C204 C 0.0364 0.18837 0.92173 0.0
C205 C 0.03602 0.21343 0.95862 0.0
U206 U 0.02815 0.27519 0.17704 0.0
O207 O 0.03867 0.31736 0.16825 0.0
O208 O 1.0009 0.30576 0.22205 0.0
C209 C 0.01724 0.32519 0.20654 0.0
C210 C 0.01352 0.24859 0.04481 0.0
C211 C 0.01994 0.34568 0.27208 0.0
C212 C 1.00162 0.38433 0.34102 0.0
C213 C 0.99984 0.36443 0.28144 0.0
C214 C 0.04384 0.36743 0.38392 0.0
C215 C 0.02363 0.38615 0.39301 0.0
C216 C 0.04202 0.3474 0.32416 0.0
C217 C 0.05803 0.21761 0.2817 0.0
C218 C 0.04891 0.17508 0.34318 0.0
C219 C 0.06089 0.17799 0.1987 0.0
C220 C 0.06347 0.20524 0.20608 0.0
C221 C 0.05207 0.16303 0.26616 0.0
C222 C 0.05196 0.2022 0.35097 0.0
C223 C 0.0529 0.24602 0.28463 0.0
O224 O 0.9983 0.25231 0.10929 0.0
O225 O 0.03526 0.26259 0.04841 0.0
O226 O 0.06532 0.26062 0.22979 0.0
O227 O 0.02781 0.25174 0.29102 0.0
H228 H 0.97866 0.20748 0.06554 0.0
H229 H 0.97962 0.16386 1.00193 0.0
H230 H 0.05249 0.1833 0.88105 0.0
H231 H 0.05177 0.22706 0.94452 0.0
H232 H 0.98575 0.39839 0.34655 0.0
H233 H 0.98263 0.36374 0.2422 0.0
H234 H 0.06099 0.36827 0.42331 0.0
H235 H 0.05785 0.33331 0.3187 0.0
H236 H 0.04231 0.16374 0.39606 0.0
H237 H 0.06364 0.16894 0.13906 0.0
H238 H 0.06787 0.21673 0.15134 0.0
H239 H 0.0475 0.21135 0.4095 0.0
C240 C 0.30415 0.03191 1.01041 0.0
C241 C 0.32704 0.0274 0.05746 0.0
C242 C 0.35412 0.0251 0.93252 0.0
C243 C 0.35165 0.02389 0.01896 0.0
C244 C 0.33128 0.02932 0.88553 0.0
C245 C 0.3067 0.03268 0.92391 0.0
U246 U 0.24223 0.01716 0.14856 0.0
O247 O 0.19989 0.02546 0.12875 0.0
O248 O 0.22116 0.04493 0.22846 0.0
C249 C 0.19819 0.04055 0.19421 0.0
C250 C 0.27805 0.0381 0.04929 0.0
C251 C 0.17577 0.03574 0.25207 0.0
C252 C 0.13047 0.04523 0.2935 0.0
C253 C 0.15124 0.04752 0.23653 0.0
C254 C 0.15811 0.0189 0.38259 0.0
C255 C 0.13374 0.03111 0.36758 0.0
C256 C 0.17888 0.02116 0.32551 0.0
C257 C 0.27786 0.95516 0.20667 0.0
C258 C 0.30459 0.9218 0.27283 0.0
C259 C 0.32521 0.95628 0.19139 0.0
C260 C 0.3005 0.96618 0.17112 0.0
C261 C 0.32738 0.93506 0.24649 0.0
C262 C 0.27984 0.93209 0.25386 0.0
C263 C 0.25378 0.97082 0.20976 0.0
O264 O 0.25744 0.02499 0.02278 0.0
O265 O 0.27738 0.042 0.12939 0.0
O266 O 0.25671 0.99287 0.2505 0.0
O267 O 0.24104 0.97387 0.13989 0.0
H268 H 0.32606 0.02691 0.12413 0.0
H269 H 0.36889 0.02067 0.05679 0.0
H270 H 0.33256 0.03037 0.81893 0.0
H271 H 0.28964 0.03643 0.88572 0.0
H272 H 0.11194 0.05484 0.28038 0.0
H273 H 0.14829 0.05899 0.18082 0.0
H274 H 0.16115 1.00788 0.43911 0.0
H275 H 0.19753 0.01191 0.33946 0.0
H276 H 0.30602 0.90533 0.31523 0.0
H277 H 0.34259 0.96665 0.17016 0.0
H278 H 0.29917 0.98393 0.13428 0.0
H279 H 0.26251 0.92341 0.2818 0.0
C280 C 0.50946 0.29911 0.97975 0.0
C281 C 0.52424 0.31959 0.01551 0.0
C282 C 0.50868 0.35117 0.91174 0.0
C283 C 0.5238 0.34523 0.98203 0.0
C284 C 0.49373 0.33085 0.87644 0.0
C285 C 0.49416 0.30522 0.90984 0.0
U286 U 0.49783 0.24397 0.14375 0.0
O287 O 0.48488 0.20246 0.13341 0.0
O288 O 0.52395 0.21159 0.18193 0.0
C289 C 0.50631 0.1932 0.16845 0.0
C290 C 0.51111 0.27116 1.01048 0.0
C291 C 0.50298 0.1727 0.23433 0.0
C292 C 0.49663 0.12638 0.27177 0.0
C293 C 0.49786 0.14649 0.21193 0.0
C294 C 0.50541 0.15817 0.37847 0.0
C295 C 0.50062 0.13192 0.35569 0.0
C296 C 0.50654 0.17834 0.31857 0.0
C297 C 0.47267 0.30151 0.25876 0.0
C298 C 0.48119 0.34231 0.32995 0.0
C299 C 0.4736 0.34279 0.18231 0.0
C300 C 0.46996 0.31556 0.18419 0.0
C301 C 0.48062 0.35603 0.25464 0.0
C302 C 0.47721 0.31519 0.33201 0.0
C303 C 0.47645 0.27294 0.25791 0.0
O304 O 0.52735 0.26618 0.07164 0.0
O305 O 0.4889 0.25803 0.01732 0.0
O306 O 0.46243 0.25981 0.20385 0.0
O307 O 0.50131 0.26602 0.25905 0.0
H308 H 0.53644 0.31579 0.06889 0.0
H309 H 0.53553 0.36045 1.01055 0.0
H310 H 0.48191 0.33477 0.82229 0.0
H311 H 0.48276 0.29001 0.88006 0.0
H312 H 0.49304 0.10635 0.25238 0.0
H313 H 0.49529 0.14146 0.14763 0.0
H314 H 0.50862 0.16299 0.44263 0.0
H315 H 0.51062 0.19827 0.338 0.0
H316 H 0.48645 0.35234 0.38637 0.0
H317 H 0.47305 0.35316 0.1238 0.0
H318 H 0.46686 0.30532 0.12663 0.0
H319 H 0.47964 0.30467 0.38978 0.0
Tb320 Tb 0.03225 1.00681 0.7973 0.0
Eu321 Eu 0.98833 0.02254 0.65964 0.0
C322 C 0.04979 0.02361 0.61507 0.0
C323 C 0.01288 0.06539 0.78301 0.0
C324 C 0.07085 0.97841 0.97362 0.0
C325 C 0.09361 0.96696 0.10049 0.0
C326 C 0.08833 0.98499 0.03724 0.0
C327 C 0.05801 0.95404 0.97511 0.0
C328 C 0.06344 0.93599 0.0377 0.0
C329 C 0.08161 0.94214 0.09975 0.0
C330 C 0.06689 0.99677 0.90489 0.0
O331 O 0.99501 1.00607 0.86708 0.0
O332 O 0.96347 1.00721 0.76471 0.0
O333 O 1.00178 0.98104 0.6307 0.0
O334 O 0.01612 0.96863 0.75891 0.0
C335 C 0.97025 1.00489 0.84269 0.0
O336 O 0.96296 0.0513 0.59976 0.0
O337 O 0.96396 1.01156 0.55411 0.0
O338 O 0.02704 0.03514 0.60334 0.0
O339 O 0.05426 1.00898 0.68074 0.0
O340 O 0.03345 0.04985 0.78823 0.0
O341 O 0.99133 0.05728 0.74663 0.0
C342 C 1.0087 0.96264 0.68341 0.0
O343 O 0.06645 0.98656 0.83144 0.0
O344 O 0.04836 0.01407 0.91437 0.0
C345 C 0.96605 0.04653 0.45688 0.0
C346 C 0.99651 0.07279 0.33788 0.0
C347 C 0.97714 0.08636 0.38221 0.0
C348 C 0.96182 0.07329 0.44058 0.0
C349 C 0.98321 0.0323 0.40539 0.0
C350 C 0.99812 0.04536 0.3452 0.0
C351 C 0.95784 0.03593 0.5378 0.0
H352 H 0.10749 0.97201 0.14846 0.0
H353 H 0.09822 1.00387 0.0371 0.0
H354 H 0.04425 0.94877 0.92698 0.0
H355 H 0.05389 0.91693 0.03685 0.0
H356 H 0.97519 0.1075 0.37607 0.0
H357 H 0.94857 0.08465 0.47871 0.0
H358 H 0.98672 1.01155 0.41579 0.0
H359 H 0.01252 0.03449 0.30989 0.0
Tb360 Tb 0.51927 0.03515 0.79731 0.0
Eu361 Eu 0.50386 0.9883 0.66581 0.0
C362 C 0.50216 0.0491 0.61009 0.0
C363 C 0.45892 0.01625 0.77957 0.0
C364 C 0.5488 0.07706 0.96236 0.0
C365 C 0.55984 0.09911 0.09042 0.0
C366 C 0.54198 0.09408 0.02685 0.0
C367 C 0.57346 0.06483 0.96241 0.0
C368 C 0.59131 0.06998 0.02531 0.0
C369 C 0.5847 0.08726 0.08923 0.0
C370 C 0.53003 0.07213 0.89574 0.0
O371 O 0.52112 0.99975 0.87509 0.0
O372 O 0.51982 0.96685 0.77806 0.0
O373 O 0.54598 0.99954 0.63949 0.0
O374 O 0.55768 0.01852 0.76213 0.0
C375 C 0.52202 0.9747 0.85494 0.0
O376 O 0.48626 0.95017 0.63841 0.0
O377 O 0.50836 0.97078 0.54429 0.0
O378 O 0.49188 0.02563 0.59923 0.0
O379 O 0.51542 0.05504 0.6772 0.0
O380 O 0.47619 0.03416 0.802 0.0
O381 O 0.4652 0.99689 0.72976 0.0
C382 C 0.564 1.00858 0.6897 0.0
O383 O 0.53977 0.07006 0.8218 0.0
O384 O 0.51255 0.05405 0.91035 0.0
C385 C 0.47219 0.9454 0.50186 0.0
C386 C 0.42825 0.93472 0.40361 0.0
C387 C 0.44343 0.91396 0.43498 0.0
C388 C 0.46539 0.91932 0.48386 0.0
C389 C 0.45756 0.96612 0.4678 0.0
C390 C 0.43577 0.96079 0.41868 0.0
C391 C 0.49319 0.9508 0.5611 0.0
H392 H 0.55443 0.11229 0.13984 0.0
H393 H 0.5229 0.10351 0.02787 0.0
H394 H 0.57897 0.05142 0.91367 0.0
H395 H 0.6104 0.06056 0.02407 0.0
H396 H 0.4376 0.89376 0.42469 0.0
H397 H 0.47645 0.90313 0.51015 0.0
H398 H 0.46239 0.98638 0.48159 0.0
H399 H 0.42401 0.97698 0.39561 0.0
Tb400 Tb 0.49003 0.51773 0.80288 0.0
Eu401 Eu 0.5338 0.50494 0.66281 0.0
C402 C 0.47179 0.50186 0.62435 0.0
C403 C 0.50916 0.45886 0.77631 0.0
C404 C 0.45067 0.54805 0.9719 0.0
C405 C 0.4305 0.56246 0.09968 0.0
C406 C 0.43497 0.54283 0.04132 0.0
C407 C 0.46188 0.573 0.96107 0.0
C408 C 0.45731 0.5926 0.01897 0.0
C409 C 0.44163 0.58744 0.08844 0.0
C410 C 0.45597 0.52711 0.91274 0.0
O411 O 0.52726 0.53165 0.8565 0.0
O412 O 0.5564 0.50661 0.78241 0.0
O413 O 0.53452 0.54923 0.6747 0.0
O414 O 0.49332 0.5543 0.72963 0.0
C415 C 0.55063 0.52073 0.84754 0.0
O416 O 0.56452 0.48022 0.61008 0.0
O417 O 0.55332 0.51611 0.54806 0.0
O418 O 0.495 0.50848 0.59599 0.0
O419 O 0.46783 0.49846 0.70391 0.0
O420 O 0.50175 0.47711 0.82829 0.0
O421 O 0.51723 0.46509 0.70154 0.0
C422 C 0.51376 0.56383 0.68907 0.0
O423 O 0.45321 0.53321 0.83516 0.0
O424 O 0.47741 0.51385 0.92563 0.0
C425 C 0.55851 0.47836 0.46583 0.0
C426 C 0.53298 0.44726 0.34813 0.0
C427 C 0.54924 0.43557 0.40762 0.0
C428 C 0.56207 0.45099 0.46571 0.0
C429 C 0.54443 0.49021 0.4006 0.0
C430 C 0.53178 0.4747 0.34181 0.0
C431 C 0.56496 0.49344 0.54084 0.0
H432 H 0.41855 0.5582 0.15346 0.0
H433 H 0.42638 0.52353 0.05064 0.0
H434 H 0.47427 0.57724 0.90823 0.0
H435 H 0.46617 0.61179 1.00998 0.0
H436 H 0.55073 0.41436 0.41217 0.0
H437 H 0.5731 0.44131 0.51421 0.0
H438 H 0.54163 0.51131 0.39814 0.0
H439 H 0.51966 0.48396 0.29512 0.0
Tb440 Tb 1.00627 0.49096 0.81237 0.0
Eu441 Eu 0.02002 0.53471 0.67089 0.0
C442 C 0.02228 0.47228 0.63376 0.0
C443 C 0.06541 0.51026 0.78512 0.0
C444 C 0.97677 0.45037 0.98279 0.0
C445 C 0.96198 0.42537 0.10219 0.0
C446 C 0.98152 0.43149 0.04447 0.0
C447 C 0.95249 0.46326 0.97942 0.0
C448 C 0.933 0.45709 0.03674 0.0
C449 C 0.93758 0.43807 0.09806 0.0
C450 C 0.99733 0.4566 0.92275 0.0
O451 O 0.99225 0.5281 0.86608 0.0
O452 O 0.0177 0.55693 0.7913 0.0
O453 O 0.97585 0.5357 0.68467 0.0
O454 O 0.96976 0.49452 0.73962 0.0
C455 C 1.00326 0.55145 0.85635 0.0
O456 O 0.03928 0.57076 0.63003 0.0
O457 O 0.01323 0.55029 0.54692 0.0
O458 O 0.01683 0.49574 0.60417 0.0
O459 O 0.02531 0.46851 0.71358 0.0
O460 O 0.04679 0.50314 0.83681 0.0
O461 O 0.05982 0.51857 0.71009 0.0
C462 C 0.96077 0.51522 0.69912 0.0
O463 O 0.99101 0.454 0.84552 0.0
O464 O 1.01011 0.47835 0.93529 0.0
C465 C 0.04911 0.57265 0.4883 0.0
C466 C 0.08599 0.57974 0.36154 0.0
C467 C 0.06085 0.59077 0.35421 0.0
C468 C 0.0425 0.58734 0.41775 0.0
C469 C 0.07399 0.56101 0.49422 0.0
C470 C 0.09233 0.56464 0.43141 0.0
C471 C 0.03 0.56943 0.55526 0.0
H472 H 0.96577 0.41074 0.14952 0.0
H473 H 1.00029 0.42151 0.04785 0.0
H474 H 0.94864 0.47798 0.93242 0.0
H475 H 0.91423 0.4671 0.03321 0.0
H476 H 0.05564 0.60224 0.30021 0.0
H477 H 0.02324 0.59622 0.41208 0.0
H478 H 0.07931 0.5493 0.54767 0.0
H479 H 0.1116 0.5558 0.43748 0.0
C480 C 0.09004 0.01265 0.4173 0.0
C481 C 0.11185 0.02962 0.43024 0.0
C482 C 0.09339 0.04207 0.56552 0.0
C483 C 0.07087 0.02625 0.55053 0.0
N484 N 0.04586 0.99942 0.45681 0.0
N485 N 0.13213 0.06392 0.50982 0.0
C486 C 0.06863 0.01248 0.47464 0.0
C487 C 0.11293 0.04525 0.50263 0.0
N488 N 0.09026 0.99588 0.35168 0.0
N489 N 0.09623 0.05397 0.64036 0.0
H490 H 0.14672 0.06679 0.46542 0.0
H491 H 0.13247 0.078 0.55612 0.0
H492 H 0.0818 0.0533 0.68607 0.0
H493 H 0.11347 0.06315 0.65931 0.0
H494 H 0.07661 0.98087 0.34359 0.0
H495 H 0.10538 0.99558 0.30821 0.0
H496 H 0.04162 0.99168 0.39905 0.0
H497 H 0.03023 0.99788 0.49813 0.0
C498 C 0.47715 0.10284 0.46076 0.0
C499 C 0.50072 0.11008 0.41915 0.0
C500 C 0.52498 0.07689 0.5008 0.0
C501 C 0.50124 0.0691 0.54098 0.0
N502 N 0.45401 0.07136 0.54818 0.0
N503 N 0.54627 0.10136 0.3898 0.0
C504 C 0.4771 0.08107 0.5174 0.0
C505 C 0.52441 0.09633 0.43656 0.0
N506 N 0.45487 0.11724 0.4475 0.0
N507 N 0.54823 0.06565 0.52417 0.0
H508 H 0.54687 0.1159 0.34423 0.0
H509 H 0.56329 0.09005 0.39176 0.0
H510 H 0.54931 0.04969 0.56456 0.0
H511 H 0.56659 0.07269 0.50635 0.0
H512 H 0.43778 0.11519 0.48229 0.0
H513 H 0.45397 0.13266 0.40493 0.0
H514 H 0.43555 0.07721 0.52755 0.0
H515 H 0.45322 0.05578 0.59006 0.0
C516 C 0.41434 0.47317 0.49887 0.0
C517 C 0.40843 0.49454 0.44492 0.0
C518 C 0.44178 0.52138 0.51577 0.0
C519 C 0.44939 0.4993 0.56449 0.0
N520 N 0.44567 0.45291 0.59275 0.0
N521 N 0.42 0.53744 0.39232 0.0
C522 C 0.43635 0.47484 0.55355 0.0
C523 C 0.42316 0.51822 0.45072 0.0
N524 N 0.39844 0.4515 0.49961 0.0
N525 N 0.45153 0.54572 0.53391 0.0
H526 H 0.40666 0.53589 0.3438 0.0
H527 H 0.43222 0.55382 0.38759 0.0
H528 H 0.46448 0.54901 0.58254 0.0
H529 H 0.44485 0.56299 0.50628 0.0
H530 H 0.39992 0.4365 0.54329 0.0
H531 H 0.38225 0.44953 0.46072 0.0
H532 H 0.43902 0.43398 0.58032 0.0
H533 H 0.46171 0.45333 0.63273 0.0
C534 C 0.04061 0.43031 0.44489 0.0
C535 C 0.02499 0.40742 0.4577 0.0
C536 C 1.00725 0.42715 0.58498 0.0
C537 C 0.02415 0.44933 0.57526 0.0
N538 N 0.06056 0.46944 0.50365 0.0
N539 N 0.99737 0.38193 0.54849 0.0
C540 C 0.04186 0.45016 0.50724 0.0
C541 C 1.00955 0.40524 0.53048 0.0
N542 N 0.05364 0.43353 0.37181 0.0
N543 N 0.98787 0.42753 0.64337 0.0
H544 H 0.99841 0.36559 0.51004 0.0
H545 H 0.98827 0.37802 0.6048 0.0
H546 H 0.98499 0.44322 0.68332 0.0
H547 H 0.97303 0.41346 0.64712 0.0
H548 H 0.06286 0.45098 0.3544 0.0
H549 H 0.05357 0.41935 0.32558 0.0
H550 H 0.07577 0.46971 0.46065 0.0
H551 H 0.06239 0.48393 0.54855 0.0
C552 C 0.92752 0.97877 0.02195 0.0
C553 C 0.90766 0.99842 0.0263 0.0
C554 C 0.93037 0.02334 0.9164 0.0
C555 C 0.94885 1.00257 0.9066 0.0
N556 N 0.96288 0.95881 0.94296 0.0
N557 N 0.8879 0.03736 0.96836 0.0
C558 C 0.94688 0.97984 0.95771 0.0
C559 C 0.90849 0.02013 0.97088 0.0
N560 N 0.92836 0.95947 0.08084 0.0
N561 N 0.93435 0.04674 0.87643 0.0
H562 H 0.87164 0.03584 1.00734 0.0
H563 H 0.88582 0.0518 0.92306 0.0
H564 H 0.95017 0.05009 0.83699 0.0
H565 H 0.92344 0.06361 0.88826 0.0
H566 H 0.94384 0.94623 0.08684 0.0
H567 H 0.91454 0.95797 0.1282 0.0
H568 H 0.96057 0.94057 0.97146 0.0
H569 H 0.97727 0.95891 0.89711 0.0
C570 C 0.54587 0.9128 0.96979 0.0
C571 C 0.5287 0.91186 0.03903 0.0
C572 C 0.5069 0.95223 0.98819 0.0
C573 C 0.52524 0.95411 0.92177 0.0
N574 N 0.56598 0.93946 0.86219 0.0
N575 N 0.49596 0.93337 0.12207 0.0
C576 C 0.54576 0.93525 0.91619 0.0
C577 C 0.5101 0.93237 0.05042 0.0
N578 N 0.56183 0.89186 0.95368 0.0
N579 N 0.48569 0.96868 0.99037 0.0
H580 H 0.49757 0.91919 0.16852 0.0
H581 H 0.48431 0.94931 0.13864 0.0
H582 H 0.48269 0.98375 0.94775 0.0
H583 H 0.46994 0.96615 0.03069 0.0
H584 H 0.57266 0.89005 0.89947 0.0
H585 H 0.5625 0.87514 0.99116 0.0
H586 H 0.58282 0.92787 0.86031 0.0
H587 H 0.56724 0.95632 0.82557 0.0
C588 C 0.60065 0.55033 0.99977 0.0
C589 C 0.6122 0.52717 0.03346 0.0
C590 C 0.58071 0.50037 0.9544 0.0
C591 C 0.57104 0.52335 0.91414 0.0
N592 N 0.57422 0.57007 0.89098 0.0
N593 N 0.61555 0.47992 0.03435 0.0
C594 C 0.58156 0.54834 0.93519 0.0
C595 C 0.60281 0.50213 1.00845 0.0
N596 N 0.60749 0.57428 0.03095 0.0
N597 N 0.56806 0.4769 0.94358 0.0
H598 H 0.63155 0.48034 0.07447 0.0
H599 H 0.61169 0.46129 1.01097 0.0
H600 H 0.55157 0.47485 0.90607 0.0
H601 H 0.57227 0.46002 0.97767 0.0
H602 H 0.59784 0.59169 0.01583 0.0
H603 H 0.62149 0.57651 0.07735 0.0
H604 H 0.58321 0.58836 0.89681 0.0
H605 H 0.5605 0.56938 0.84332 0.0
C606 C 0.01381 0.59296 0.05148 0.0
C607 C 0.99728 0.61501 0.03586 0.0
C608 C 0.98458 0.59534 0.90245 0.0
C609 C 0.99974 0.57253 0.92052 0.0
N610 N 0.02607 0.54807 0.01764 0.0
N611 N 0.96322 0.63481 0.95332 0.0
C612 C 0.0134 0.57085 0.99697 0.0
C613 C 0.98167 0.61552 0.96308 0.0
N614 N 0.03087 0.59368 0.11654 0.0
N615 N 0.97314 0.59793 0.82663 0.0
H616 H 0.96037 0.64975 0.99615 0.0
H617 H 0.94919 0.63478 0.90666 0.0
H618 H 0.97363 0.58317 0.78231 0.0
H619 H 0.9646 0.6153 0.80553 0.0
H620 H 0.04551 0.57975 0.12664 0.0
H621 H 0.0319 0.60949 0.15708 0.0
H622 H 0.03393 0.54436 0.07577 0.0
H623 H 0.02715 0.53195 0.97841 0.0
C624 C 0.05604 0.1154 0.3001 0.0
C625 C 0.04288 0.13557 0.2563 0.0
C626 C 1.0067 0.10528 0.22869 0.0
C627 C 0.01622 0.08853 0.29146 0.0
N628 N 0.05112 0.07677 0.38618 0.0
N629 N 1.00458 0.15009 0.18005 0.0
C630 C 0.04165 0.0928 0.32525 0.0
C631 C 0.0182 0.13045 0.21866 0.0
N632 N 0.08194 0.11843 0.3198 0.0
N633 N 0.98581 0.09751 0.18209 0.0
H634 H 0.01189 0.16907 0.17227 0.0
H635 H 0.98521 0.14796 0.16041 0.0
H636 H 0.9771 0.07906 0.19014 0.0
H637 H 0.9792 0.10805 0.13088 0.0
H638 H 0.09328 0.10352 0.34601 0.0
H639 H 0.0926 0.13508 0.30203 0.0
H640 H 0.06801 0.08095 0.41989 0.0
H641 H 0.04145 0.0599 0.40639 0.0
C642 C 0.37483 0.92122 0.24486 0.0
C643 C 0.35275 0.93067 0.28918 0.0
C644 C 0.37964 0.93491 0.41317 0.0
C645 C 0.40234 0.92969 0.36565 0.0
N646 N 0.42245 0.91905 0.23551 0.0
N647 N 0.3353 0.95138 0.41191 0.0
C648 C 0.40023 0.92288 0.28128 0.0
C649 C 0.35534 0.93856 0.37272 0.0
N650 N 0.37141 0.91057 0.16848 0.0
N651 N 0.38135 0.93651 0.49712 0.0
H652 H 0.31738 0.9558 0.38417 0.0
H653 H 0.33742 0.96011 0.46948 0.0
H654 H 0.39897 0.93396 0.52903 0.0
H655 H 0.36494 0.93768 0.53539 0.0
H656 H 0.38634 0.90124 0.13588 0.0
H657 H 0.35298 0.90911 0.14068 0.0
H658 H 0.42237 0.91693 0.17171 0.0
H659 H 0.44126 0.91957 0.26101 0.0
C660 C 0.51653 0.38856 0.2239 0.0
C661 C 0.49056 0.3834 0.25224 0.0
C662 C 0.48941 0.42567 0.32277 0.0
C663 C 0.51588 0.43002 0.29827 0.0
N664 N 0.55093 0.42105 0.2035 0.0
N665 N 0.44961 0.39997 0.30434 0.0
C666 C 0.52801 0.41336 0.24032 0.0
C667 C 0.47602 0.40316 0.29292 0.0
N668 N 0.53105 0.36914 0.188 0.0
N669 N 0.47777 0.44186 0.379 0.0
H670 H 0.43958 0.38346 0.28281 0.0
H671 H 0.4374 0.41459 0.32765 0.0
H672 H 0.48674 0.4588 0.40141 0.0
H673 H 0.45972 0.43782 0.40669 0.0
H674 H 0.55102 0.37098 0.17503 0.0
H675 H 0.52373 0.35042 0.17626 0.0
H676 H 0.5597 0.41076 0.15544 0.0
H677 H 0.55959 0.43924 0.21573 0.0
C678 C 0.14682 0.60582 0.25609 0.0
C679 C 0.15694 0.58139 0.22937 0.0
C680 C 0.11388 0.56119 0.25123 0.0
C681 C 0.10635 0.58341 0.29731 0.0
N682 N 0.11442 0.62796 0.34046 0.0
N683 N 0.15019 0.53512 0.20183 0.0
C684 C 0.12215 0.60638 0.297 0.0
C685 C 0.1403 0.55898 0.22457 0.0
N686 N 0.16124 0.62817 0.24398 0.0
N687 N 0.09588 0.54192 0.23578 0.0
H688 H 0.16948 0.53237 0.18224 0.0
H689 H 0.13964 0.51763 0.20701 0.0
H690 H 0.0764 0.54335 0.25565 0.0
H691 H 0.09951 0.52616 0.19663 0.0
H692 H 0.1542 0.64696 0.2564 0.0
H693 H 0.17941 0.62793 0.214 0.0
H694 H 0.12651 0.64413 0.35092 0.0
H695 H 0.09616 0.6292 0.36939 0.0
C696 C 0.11085 0.88007 0.18728 0.0
C697 C 0.08823 0.87101 0.22945 0.0
C698 C 0.06911 0.91501 0.22112 0.0
C699 C 0.08822 0.92162 0.16124 0.0
N700 N 0.12893 0.91207 0.09143 0.0
N701 N 0.04617 0.8799 0.29249 0.0
C702 C 0.11007 0.90494 0.14728 0.0
C703 C 0.06778 0.88873 0.25055 0.0
N704 N 0.13257 0.86436 0.18371 0.0
N705 N 0.05185 0.93376 0.24718 0.0
H706 H 0.04457 0.86079 0.31531 0.0
H707 H 0.02929 0.89108 0.30132 0.0
H708 H 0.05263 0.95308 0.22514 0.0
H709 H 0.03867 0.93091 0.29558 0.0
H710 H 0.15049 0.87038 0.15894 0.0
H711 H 0.13316 0.84601 0.21287 0.0
H712 H 0.14365 0.89949 0.07103 0.0
H713 H 0.12923 0.93047 0.06278 0.0
C714 C 0.6359 0.06855 0.23983 0.0
C715 C 0.6544 0.08904 0.2255 0.0
C716 C 0.62194 0.11377 0.14589 0.0
C717 C 0.60446 0.09222 0.15409 0.0
N718 N 0.59029 0.05465 0.23233 0.0
N719 N 0.66263 0.13427 0.19067 0.0
C720 C 0.60989 0.07165 0.21026 0.0
C721 C 0.64639 0.1129 0.1879 0.0
N722 N 0.64367 0.04529 0.27457 0.0
N723 N 0.61592 0.13404 0.09368 0.0
H724 H 0.68064 0.13373 0.22145 0.0
H725 H 0.6573 0.15287 0.16952 0.0
H726 H 0.59779 0.1355 0.06411 0.0
H727 H 0.62915 0.1488 0.07727 0.0
H728 H 0.63173 0.02867 0.27747 0.0
H729 H 0.66264 0.04194 0.296 0.0
H730 H 0.59236 0.04041 0.27826 0.0
H731 H 0.57114 0.05676 0.21017 0.0
C732 C 0.46199 0.64133 0.2286 0.0
C733 C 0.44027 0.65869 0.21985 0.0
C734 C 0.41567 0.62511 0.14513 0.0
C735 C 0.43797 0.60854 0.14965 0.0
N736 N 0.4779 0.5965 0.21901 0.0
N737 N 0.39412 0.66463 0.19442 0.0
C738 C 0.45952 0.61515 0.20029 0.0
C739 C 0.41619 0.64956 0.18689 0.0
N740 N 0.48563 0.65031 0.25693 0.0
N741 N 0.39479 0.61821 0.09697 0.0
H742 H 0.39427 0.6826 0.22523 0.0
H743 H 0.37545 0.65831 0.17726 0.0
H744 H 0.39357 0.60007 0.0675 0.0
H745 H 0.37929 0.63083 0.08319 0.0
H746 H 0.50283 0.63926 0.25517 0.0
H747 H 0.48867 0.66945 0.27713 0.0
H748 H 0.49293 0.59943 0.26153 0.0
H749 H 0.47639 0.57718 0.19807 0.0
C750 C 0.88482 0.45305 0.24904 0.0
C751 C 0.86563 0.43448 0.22368 0.0
C752 C 0.89803 0.41181 0.13872 0.0
C753 C 0.91625 0.432 0.15706 0.0
N754 N 0.93094 0.46553 0.2498 0.0
N755 N 0.85573 0.39177 0.16966 0.0
C756 C 0.91098 0.45033 0.22003 0.0
C757 C 0.87304 0.41213 0.17764 0.0
N758 N 0.87766 0.47434 0.29486 0.0
N759 N 0.90401 0.39353 0.08028 0.0
H760 H 0.83732 0.39194 0.19824 0.0
H761 H 0.86038 0.37401 0.14162 0.0
H762 H 0.92252 0.39241 0.05279 0.0
H763 H 0.89048 0.38015 0.05689 0.0
H764 H 0.89008 0.49015 0.30668 0.0
H765 H 0.85879 0.47689 0.31825 0.0
H766 H 0.92898 0.47784 0.30051 0.0
H767 H 0.9502 0.46377 0.22828 0.0
C768 C 1.00863 0.14067 0.81134 0.0
C769 C 0.01605 0.1434 0.89549 0.0
C770 C 0.01884 0.09506 0.90725 0.0
C771 C 0.01387 0.09238 0.82133 0.0
N772 N 1.00814 0.11326 0.68885 0.0
N773 N 0.03343 0.12326 0.01844 0.0
C774 C 1.00983 0.11539 0.77264 0.0
C775 C 0.02267 0.12058 0.94186 0.0
N776 N 0.99972 0.16213 0.76879 0.0
N777 N 0.01857 0.0733 0.95703 0.0
H778 H 0.03694 0.14156 0.04487 0.0
H779 H 0.04117 0.10759 0.05211 0.0
H780 H 0.01482 0.05447 0.93492 0.0
H781 H 0.01926 0.07424 0.02114 0.0
H782 H 0.99124 0.16103 0.71052 0.0
H783 H 0.99889 0.18088 0.79443 0.0
H784 H 1.00803 0.12938 0.64903 0.0
H785 H 1.00918 0.09528 0.65839 0.0
C786 C 0.39353 0.04516 0.8586 0.0
C787 C 0.38064 0.02257 0.89118 0.0
C788 C 0.41915 0.9957 0.85268 0.0
C789 C 0.43126 0.01796 0.81403 0.0
N790 N 0.42678 0.06276 0.76624 0.0
N791 N 0.37918 0.97548 0.90571 0.0
C792 C 0.41752 0.04238 0.81326 0.0
C793 C 0.39288 0.9976 0.88407 0.0
N794 N 0.38327 0.06952 0.87318 0.0
N795 N 0.43312 0.97302 0.86393 0.0
H796 H 0.36018 0.97607 0.9299 0.0
H797 H 0.38569 0.95652 0.89308 0.0
H798 H 0.45233 0.97047 0.84348 0.0
H799 H 0.42656 0.95744 0.90051 0.0
H800 H 0.39322 0.08693 0.85968 0.0
H801 H 0.36577 0.07241 0.90542 0.0
H802 H 0.41624 0.08 0.7557 0.0
H803 H 0.44381 0.0615 0.73084 0.0
C804 C 0.48602 0.39476 0.88072 0.0
C805 C 0.50867 0.37854 0.87457 0.0
C806 C 0.53214 0.41518 0.80548 0.0
C807 C 0.50877 0.43057 0.80522 0.0
N808 N 0.46201 0.43257 0.8285 0.0
N809 N 0.55181 0.37181 0.81702 0.0
C810 C 0.4853 0.41963 0.83896 0.0
C811 C 0.53129 0.38835 0.83276 0.0
N812 N 0.46543 0.38686 0.92912 0.0
N813 N 0.55554 0.42652 0.78387 0.0
H814 H 0.55197 0.35216 0.8358 0.0
H815 H 0.56757 0.37688 0.77906 0.0
H816 H 0.55723 0.44607 0.76501 0.0
H817 H 0.57362 0.41728 0.7919 0.0
H818 H 0.44965 0.39901 0.94372 0.0
H819 H 0.46523 0.36898 0.9609 0.0
H820 H 0.44386 0.42443 0.8439 0.0
H821 H 0.46053 0.4504 0.79677 0.0
C822 C 0.13822 0.49166 0.81697 0.0
C823 C 0.14398 0.50531 0.89122 0.0
C824 C 0.10019 0.52612 0.88459 0.0
C825 C 0.09331 0.51013 0.81615 0.0
N826 N 0.10498 0.47563 0.72188 0.0
N827 N 0.12945 0.53375 1.0004 0.0
C828 C 0.11221 0.4925 0.78312 0.0
C829 C 0.1247 0.52216 0.92604 0.0
N830 N 0.15783 0.47831 0.77772 0.0
N831 N 0.08356 0.54578 0.90836 0.0
H832 H 0.14728 0.53187 0.03142 0.0
H833 H 0.11518 0.54363 0.03425 0.0
H834 H 0.06586 0.54964 0.87833 0.0
H835 H 0.08832 0.55981 0.95239 0.0
H836 H 0.15584 0.47027 0.71918 0.0
H837 H 0.17694 0.47717 0.80073 0.0
H838 H 0.1167 0.4602 0.70162 0.0
H839 H 0.08635 0.47581 0.69511 0.0
C840 C 0.98944 0.88983 0.65712 0.0
C841 C 1.00741 0.88143 0.5948 0.0
C842 C 0.02968 0.92451 0.60702 0.0
C843 C 1.0087 0.9344 0.65567 0.0
N844 N 0.96775 0.92612 0.72588 0.0
N845 N 0.05425 0.8854 0.5762 0.0
C846 C 0.98843 0.91689 0.68083 0.0
C847 C 0.03046 0.89722 0.58636 0.0
N848 N 0.9765 0.87142 0.70337 0.0
N849 N 0.04929 0.94094 0.58118 0.0
H850 H 0.05647 0.86516 0.58467 0.0
H851 H 0.07197 0.8957 0.57565 0.0
H852 H 0.05025 0.96068 0.59795 0.0
H853 H 0.06352 0.93517 0.53863 0.0
H854 H 0.96497 0.87607 0.75436 0.0
H855 H 0.98067 0.85141 0.6983 0.0
H856 H 0.95102 0.9149 0.73806 0.0
H857 H 0.96645 0.94559 0.74536 0.0
C858 C 0.63462 0.02827 0.62525 0.0
C859 C 0.64357 1.00456 0.58864 0.0
C860 C 0.60247 0.98274 0.63264 0.0
C861 C 0.59228 1.00709 0.66158 0.0
N862 N 0.59757 0.0541 0.67341 0.0
N863 N 0.6343 0.96016 0.54675 0.0
C864 C 0.60815 0.03013 0.65525 0.0
C865 C 0.62701 0.98205 0.58961 0.0
N866 N 0.6516 0.04894 0.63283 0.0
N867 N 0.58907 0.95996 0.64864 0.0
H868 H 0.65206 0.95876 0.51495 0.0
H869 H 0.62182 0.94426 0.53667 0.0
H870 H 0.57123 0.95946 0.68018 0.0
H871 H 0.59677 0.94134 0.63773 0.0
H872 H 0.64739 0.06568 0.66704 0.0
H873 H 0.67082 0.04846 0.61042 0.0
H874 H 0.607 0.07185 0.66078 0.0
H875 H 0.5784 0.0565 0.69461 0.0
C876 C 0.50519 0.63885 0.66472 0.0
C877 C 0.50827 0.64241 0.57781 0.0
C878 C 0.50942 0.59407 0.56428 0.0
C879 C 0.51206 0.59098 0.65123 0.0
N880 N 0.51267 0.61129 0.7851 0.0
N881 N 0.48989 0.62118 0.45875 0.0
C882 C 0.50984 0.61362 0.7017 0.0
C883 C 0.50405 0.61941 0.52993 0.0
N884 N 0.4932 0.65798 0.70968 0.0
N885 N 0.51143 0.57283 0.5136 0.0
H886 H 0.48021 0.63849 0.44208 0.0
H887 H 0.48407 0.60482 0.42486 0.0
H888 H 0.51395 0.5537 0.53529 0.0
H889 H 0.51221 0.57469 0.44955 0.0
H890 H 0.48823 0.65572 0.77166 0.0
H891 H 0.48444 0.67424 0.68138 0.0
H892 H 0.51398 0.62751 0.82387 0.0
H893 H 0.51587 0.59327 0.81449 0.0
C894 C 0.89186 0.53866 0.63554 0.0
C895 C 0.8835 0.51835 0.58162 0.0
C896 C 0.92604 0.49598 0.60346 0.0
C897 C 0.9334 0.51508 0.66314 0.0
N898 N 0.92064 0.5517 0.7476 0.0
N899 N 0.89086 0.4753 0.52586 0.0
C900 C 0.91546 0.53554 0.68262 0.0
C901 C 0.90011 0.4963 0.56921 0.0
N902 N 0.87812 0.56167 0.63824 0.0
N903 N 0.94424 0.4784 0.57557 0.0
H904 H 0.872 0.47474 0.50085 0.0
H905 H 0.90088 0.45752 0.52142 0.0
H906 H 0.96354 0.47792 0.59684 0.0
H907 H 0.94099 0.46595 0.52584 0.0
H908 H 0.88467 0.57822 0.66969 0.0
H909 H 0.86151 0.56515 0.60231 0.0
H910 H 0.90723 0.56538 0.76997 0.0
H911 H 0.93731 0.54956 0.78442 0.0
loop_
_geom_bond_atom_site_label_1
_geom_bond_atom_site_label_2
_geom_bond_distance
_geom_bond_site_symmetry_2
_ccdc_geom_bond_type
C0 C1 1.264 . S
C0 C5 1.479 . S
C0 C10 1.465 . S
C1 C0 1.264 . S
C1 C3 1.339 . S
C1 H28 0.931 . S
C2 C3 1.395 . S
C2 C4 1.320 . S
C3 C1 1.339 . S
C3 C2 1.395 . S
C3 H29 0.929 . S
C4 C2 1.320 . S
C4 C5 1.405 . S
C4 H30 0.930 . S
C5 C0 1.479 . S
C5 C4 1.405 . S
C5 H31 0.931 . S
U6 O7 2.454 . S
U6 O8 2.458 . S
U6 C9 2.984 . S
U6 C10 2.847 . S
U6 C23 2.882 . S
U6 O24 2.441 . S
U6 O25 2.420 . S
U6 O26 2.455 . S
U6 O27 2.449 . S
O7 U6 2.454 . S
O7 C9 1.353 . S
O8 U6 2.458 . S
O8 C9 1.286 . S
C9 U6 2.984 . S
C9 O7 1.353 . S
C9 O8 1.286 . S
C9 C11 1.363 . S
C10 C0 1.465 . S
C10 U6 2.847 . S
C10 O24 1.249 . S
C10 O25 1.202 . S
C11 C9 1.363 . S
C11 C13 1.408 . S
C11 C16 1.342 . S
C12 C13 1.310 . S
C12 C15 1.461 . S
C12 H32 0.932 . S
C13 C11 1.408 . S
C13 C12 1.310 . S
C13 H33 0.930 . S
C14 C15 1.474 . S
C14 C16 1.285 . S
C14 H34 0.929 . S
C15 C12 1.461 . S
C15 C14 1.474 . S
C16 C11 1.342 . S
C16 C14 1.285 . S
C16 H35 0.930 . S
C17 C20 1.424 . S
C17 C22 1.245 . S
C17 C23 1.428 . S
C18 C21 1.260 . S
C18 C22 1.477 . S
C18 H36 0.932 . S
C19 C20 1.384 . S
C19 C21 1.479 . S
C19 H37 0.929 . S
C20 C17 1.424 . S
C20 C19 1.384 . S
C20 H38 0.928 . S
C21 C18 1.260 . S
C21 C19 1.479 . S
C22 C17 1.245 . S
C22 C18 1.477 . S
C22 H39 0.932 . S
C23 U6 2.882 . S
C23 C17 1.428 . S
C23 O26 1.301 . S
C23 O27 1.282 . S
O24 U6 2.441 . S
O24 C10 1.249 . S
O25 U6 2.420 . S
O25 C10 1.202 . S
O26 U6 2.455 . S
O26 C23 1.301 . S
O27 U6 2.449 . S
O27 C23 1.282 . S
H28 C1 0.931 . S
H29 C3 0.929 . S
H30 C4 0.930 . S
H31 C5 0.931 . S
H32 C12 0.932 . S
H33 C13 0.930 . S
H34 C14 0.929 . S
H35 C16 0.930 . S
H36 C18 0.932 . S
H37 C19 0.929 . S
H38 C20 0.928 . S
H39 C22 0.932 . S
C40 C41 1.264 . S
C40 C45 1.479 . S
C40 C50 1.465 . S
C41 C40 1.264 . S
C41 C43 1.339 . S
C41 H68 0.931 . S
C42 C43 1.395 . S
C42 C44 1.320 . S
C43 C41 1.339 . S
C43 C42 1.395 . S
C43 H69 0.929 . S
C44 C42 1.320 . S
C44 C45 1.405 . S
C44 H70 0.921 1_455 S
C45 C40 1.479 . S
C45 C44 1.405 . S
C45 H71 0.931 . S
U46 O47 2.454 . S
U46 O48 2.458 . S
U46 C49 2.984 . S
U46 C50 2.847 . S
U46 C63 2.882 . S
U46 O64 2.441 . S
U46 O65 2.420 . S
U46 O66 2.455 . S
U46 O67 2.449 . S
O47 U46 2.454 . S
O47 C49 1.353 . S
O48 U46 2.458 . S
O48 C49 1.286 . S
C49 U46 2.984 . S
C49 O47 1.353 . S
C49 O48 1.286 . S
C49 C51 1.363 . S
C50 C40 1.465 . S
C50 U46 2.847 . S
C50 O64 1.249 . S
C50 O65 1.202 . S
C51 C49 1.363 . S
C51 C53 1.408 . S
C51 C56 1.342 . S
C52 C53 1.310 . S
C52 C55 1.461 . S
C52 H72 0.932 . S
C53 C51 1.408 . S
C53 C52 1.310 . S
C53 H73 0.930 . S
C54 C55 1.474 1_655 S
C54 C56 1.285 1_655 S
C54 H74 0.930 . S
C55 C52 1.461 . S
C55 C54 1.474 1_455 S
C56 C51 1.342 . S
C56 C54 1.285 1_455 S
C56 H75 0.933 . S
C57 C60 1.424 . S
C57 C62 1.245 . S
C57 C63 1.428 . S
C58 C61 1.260 . S
C58 C62 1.477 . S
C58 H76 0.932 . S
C59 C60 1.384 . S
C59 C61 1.479 . S
C59 H77 0.929 . S
C60 C57 1.424 . S
C60 C59 1.384 . S
C60 H78 0.928 . S
C61 C58 1.260 . S
C61 C59 1.479 . S
C62 C57 1.245 . S
C62 C58 1.477 . S
C62 H79 0.932 . S
C63 U46 2.882 . S
C63 C57 1.428 . S
C63 O66 1.301 . S
C63 O67 1.282 . S
O64 U46 2.441 . S
O64 C50 1.249 . S
O65 U46 2.420 . S
O65 C50 1.202 . S
O66 U46 2.455 . S
O66 C63 1.301 . S
O67 U46 2.449 . S
O67 C63 1.282 . S
H68 C41 0.931 . S
H69 C43 0.929 . S
H70 C44 0.921 1_655 S
H71 C45 0.931 . S
H72 C52 0.932 . S
H73 C53 0.930 . S
H74 C54 0.930 . S
H75 C56 0.933 . S
H76 C58 0.932 . S
H77 C59 0.929 . S
H78 C60 0.928 . S
H79 C62 0.932 . S
C80 C81 1.264 . S
C80 C85 1.479 . S
C80 C90 1.465 . S
C81 C80 1.264 . S
C81 C83 1.339 . S
C81 H108 0.931 . S
C82 C83 1.395 . S
C82 C84 1.320 . S
C83 C81 1.339 . S
C83 C82 1.395 . S
C83 H109 0.929 . S
C84 C82 1.320 . S
C84 C85 1.405 . S
C84 H110 0.921 1_545 S
C85 C80 1.479 . S
C85 C84 1.405 . S
C85 H111 0.931 . S
U86 O87 2.454 . S
U86 O88 2.458 . S
U86 C89 2.984 . S
U86 C90 2.847 . S
U86 C103 2.882 . S
U86 O104 2.441 . S
U86 O105 2.420 . S
U86 O106 2.455 . S
U86 O107 2.449 . S
O87 U86 2.454 . S
O87 C89 1.353 . S
O88 U86 2.458 . S
O88 C89 1.286 . S
C89 U86 2.984 . S
C89 O87 1.353 . S
C89 O88 1.286 . S
C89 C91 1.363 . S
C90 C80 1.465 . S
C90 U86 2.847 . S
C90 O104 1.249 . S
C90 O105 1.202 . S
C91 C89 1.363 . S
C91 C93 1.408 . S
C91 C96 1.342 . S
C92 C93 1.310 . S
C92 C95 1.461 . S
C92 H112 0.932 . S
C93 C91 1.408 . S
C93 C92 1.310 . S
C93 H113 0.930 . S
C94 C95 1.474 1_565 S
C94 C96 1.285 1_565 S
C94 H114 0.931 . S
C95 C92 1.461 . S
C95 C94 1.474 1_545 S
C96 C91 1.342 . S
C96 C94 1.285 1_545 S
C96 H115 0.933 . S
C97 C100 1.424 . S
C97 C102 1.245 . S
C97 C103 1.428 . S
C98 C101 1.260 . S
C98 C102 1.477 . S
C98 H116 0.932 . S
C99 C100 1.384 . S
C99 C101 1.479 . S
C99 H117 0.929 . S
C100 C97 1.424 . S
C100 C99 1.384 . S
C100 H118 0.928 . S
C101 C98 1.260 . S
C101 C99 1.479 . S
C102 C97 1.245 . S
C102 C98 1.477 . S
C102 H119 0.932 . S
C103 U86 2.882 . S
C103 C97 1.428 . S
C103 O106 1.301 . S
C103 O107 1.282 . S
O104 U86 2.441 . S
O104 C90 1.249 . S
O105 U86 2.420 . S
O105 C90 1.202 . S
O106 U86 2.455 . S
O106 C103 1.301 . S
O107 U86 2.449 . S
O107 C103 1.282 . S
H108 C81 0.931 . S
H109 C83 0.929 . S
H110 C84 0.921 1_565 S
H111 C85 0.931 . S
H112 C92 0.932 . S
H113 C93 0.930 . S
H114 C94 0.931 . S
H115 C96 0.933 . S
H116 C98 0.932 . S
H117 C99 0.929 . S
H118 C100 0.928 . S
H119 C102 0.932 . S
C120 C121 1.264 . S
C120 C125 1.479 . S
C120 C130 1.465 . S
C121 C120 1.264 . S
C121 C123 1.339 . S
C121 H148 0.931 . S
C122 C123 1.395 . S
C122 C124 1.320 . S
C123 C121 1.339 . S
C123 C122 1.395 . S
C123 H149 0.929 . S
C124 C122 1.320 . S
C124 C125 1.405 . S
C124 H150 0.930 . S
C125 C120 1.479 . S
C125 C124 1.405 . S
C125 H151 0.931 . S
U126 O127 2.454 . S
U126 O128 2.458 . S
U126 C129 2.984 . S
U126 C130 2.847 . S
U126 C143 2.882 . S
U126 O144 2.441 . S
U126 O145 2.420 . S
U126 O146 2.455 . S
U126 O147 2.449 . S
O127 U126 2.454 . S
O127 C129 1.353 . S
O128 U126 2.458 . S
O128 C129 1.286 . S
C129 U126 2.984 . S
C129 O127 1.353 . S
C129 O128 1.286 . S
C129 C131 1.363 . S
C130 C120 1.465 . S
C130 U126 2.847 . S
C130 O144 1.249 . S
C130 O145 1.202 . S
C131 C129 1.363 . S
C131 C133 1.408 . S
C131 C136 1.342 . S
C132 C133 1.310 . S
C132 C135 1.461 . S
C132 H152 0.932 . S
C133 C131 1.408 . S
C133 C132 1.310 . S
C133 H153 0.930 . S
C134 C135 1.474 . S
C134 C136 1.285 . S
C134 H154 0.929 . S
C135 C132 1.461 . S
C135 C134 1.474 . S
C136 C131 1.342 . S
C136 C134 1.285 . S
C136 H155 0.930 . S
C137 C140 1.424 . S
C137 C142 1.245 . S
C137 C143 1.428 . S
C138 C141 1.260 . S
C138 C142 1.477 . S
C138 H156 0.932 . S
C139 C140 1.384 . S
C139 C141 1.479 . S
C139 H157 0.929 . S
C140 C137 1.424 . S
C140 C139 1.384 . S
C140 H158 0.928 . S
C141 C138 1.260 . S
C141 C139 1.479 . S
C142 C137 1.245 . S
C142 C138 1.477 . S
C142 H159 0.932 . S
C143 U126 2.882 . S
C143 C137 1.428 . S
C143 O146 1.301 . S
C143 O147 1.282 . S
O144 U126 2.441 . S
O144 C130 1.249 . S
O145 U126 2.420 . S
O145 C130 1.202 . S
O146 U126 2.455 . S
O146 C143 1.301 . S
O147 U126 2.449 . S
O147 C143 1.282 . S
H148 C121 0.931 . S
H149 C123 0.929 . S
H150 C124 0.930 . S
H151 C125 0.931 . S
H152 C132 0.932 . S
H153 C133 0.930 . S
H154 C134 0.929 . S
H155 C136 0.930 . S
H156 C138 0.932 . S
H157 C139 0.929 . S
H158 C140 0.928 . S
H159 C142 0.932 . S
C160 C161 1.264 . S
C160 C165 1.479 . S
C160 C170 1.465 . S
C161 C160 1.264 . S
C161 C163 1.339 . S
C161 H188 0.931 . S
C162 C163 1.395 . S
C162 C164 1.320 . S
C163 C161 1.339 . S
C163 C162 1.395 . S
C163 H189 0.929 . S
C164 C162 1.320 . S
C164 C165 1.405 . S
C164 H190 0.930 . S
C165 C160 1.479 . S
C165 C164 1.405 . S
C165 H191 0.931 . S
U166 O167 2.454 . S
U166 O168 2.458 . S
U166 C169 2.984 . S
U166 C170 2.847 1_554 S
U166 C183 2.882 . S
U166 O184 2.441 1_554 S
U166 O185 2.420 1_554 S
U166 O186 2.455 . S
U166 O187 2.449 . S
O167 U166 2.454 . S
O167 C169 1.353 . S
O168 U166 2.458 . S
O168 C169 1.286 . S
C169 U166 2.984 . S
C169 O167 1.353 . S
C169 O168 1.286 . S
C169 C171 1.363 . S
C170 C160 1.465 . S
C170 U166 2.847 1_556 S
C170 O184 1.249 . S
C170 O185 1.202 . S
C171 C169 1.363 . S
C171 C173 1.408 . S
C171 C176 1.342 . S
C172 C173 1.310 . S
C172 C175 1.461 . S
C172 H192 0.932 . S
C173 C171 1.408 . S
C173 C172 1.310 . S
C173 H193 0.930 1_554 S
C174 C175 1.474 . S
C174 C176 1.285 . S
C174 H194 0.929 . S
C175 C172 1.461 . S
C175 C174 1.474 . S
C176 C171 1.342 . S
C176 C174 1.285 . S
C176 H195 0.930 . S
C177 C180 1.424 . S
C177 C182 1.245 . S
C177 C183 1.428 . S
C178 C181 1.260 . S
C178 C182 1.477 . S
C178 H196 0.932 . S
C179 C180 1.384 . S
C179 C181 1.479 . S
C179 H197 0.929 . S
C180 C177 1.424 . S
C180 C179 1.384 . S
C180 H198 0.928 . S
C181 C178 1.260 . S
C181 C179 1.479 . S
C182 C177 1.245 . S
C182 C178 1.477 . S
C182 H199 0.932 . S
C183 U166 2.882 . S
C183 C177 1.428 . S
C183 O186 1.301 . S
C183 O187 1.282 . S
O184 U166 2.441 1_556 S
O184 C170 1.249 . S
O185 U166 2.420 1_556 S
O185 C170 1.202 . S
O186 U166 2.455 . S
O186 C183 1.301 . S
O187 U166 2.449 . S
O187 C183 1.282 . S
H188 C161 0.931 . S
H189 C163 0.929 . S
H190 C164 0.930 . S
H191 C165 0.931 . S
H192 C172 0.932 . S
H193 C173 0.930 1_556 S
H194 C174 0.929 . S
H195 C176 0.930 . S
H196 C178 0.932 . S
H197 C179 0.929 . S
H198 C180 0.928 . S
H199 C182 0.932 . S
C200 C201 1.264 . S
C200 C205 1.479 . S
C200 C210 1.465 . S
C201 C200 1.264 . S
C201 C203 1.339 . S
C201 H228 0.931 . S
C202 C203 1.395 . S
C202 C204 1.320 . S
C203 C201 1.339 . S
C203 C202 1.395 . S
C203 H229 0.929 . S
C204 C202 1.320 . S
C204 C205 1.405 . S
C204 H230 0.923 1_455 S
C205 C200 1.479 . S
C205 C204 1.405 . S
C205 H231 0.931 . S
U206 O207 2.454 . S
U206 O208 2.458 . S
U206 C209 2.984 . S
U206 C210 2.847 1_554 S
U206 C223 2.882 . S
U206 O224 2.441 1_554 S
U206 O225 2.420 1_554 S
U206 O226 2.455 . S
U206 O227 2.449 . S
O207 U206 2.454 . S
O207 C209 1.353 . S
O208 U206 2.458 . S
O208 C209 1.286 . S
C209 U206 2.984 . S
C209 O207 1.353 . S
C209 O208 1.286 . S
C209 C211 1.363 . S
C210 C200 1.465 . S
C210 U206 2.847 1_556 S
C210 O224 1.249 . S
C210 O225 1.202 . S
C211 C209 1.363 . S
C211 C213 1.408 . S
C211 C216 1.342 . S
C212 C213 1.310 . S
C212 C215 1.462 . S
C212 H232 0.932 . S
C213 C211 1.408 . S
C213 C212 1.310 . S
C213 H233 0.930 1_554 S
C214 C215 1.474 1_655 S
C214 C216 1.286 1_655 S
C214 H234 0.929 . S
C215 C212 1.462 . S
C215 C214 1.474 1_455 S
C216 C211 1.342 . S
C216 C214 1.286 1_455 S
C216 H235 0.930 . S
C217 C220 1.424 . S
C217 C222 1.245 . S
C217 C223 1.428 . S
C218 C221 1.260 . S
C218 C222 1.477 . S
C218 H236 0.932 . S
C219 C220 1.384 . S
C219 C221 1.479 . S
C219 H237 0.929 . S
C220 C217 1.424 . S
C220 C219 1.384 . S
C220 H238 0.928 . S
C221 C218 1.260 . S
C221 C219 1.479 . S
C222 C217 1.245 . S
C222 C218 1.477 . S
C222 H239 0.932 . S
C223 U206 2.882 . S
C223 C217 1.428 . S
C223 O226 1.301 . S
C223 O227 1.282 . S
O224 U206 2.441 1_556 S
O224 C210 1.249 . S
O225 U206 2.420 1_556 S
O225 C210 1.202 . S
O226 U206 2.455 . S
O226 C223 1.301 . S
O227 U206 2.449 . S
O227 C223 1.282 . S
H228 C201 0.931 . S
H229 C203 0.929 . S
H230 C204 0.923 1_655 S
H231 C205 0.931 . S
H232 C212 0.932 . S
H233 C213 0.930 1_556 S
H234 C214 0.929 . S
H235 C216 0.930 . S
H236 C218 0.932 . S
H237 C219 0.929 . S
H238 C220 0.928 . S
H239 C222 0.932 . S
C240 C241 1.264 . S
C240 C245 1.479 . S
C240 C250 1.465 . S
C241 C240 1.264 . S
C241 C243 1.339 . S
C241 H268 0.931 . S
C242 C243 1.395 . S
C242 C244 1.320 . S
C243 C241 1.339 . S
C243 C242 1.395 . S
C243 H269 0.929 . S
C244 C242 1.320 . S
C244 C245 1.405 . S
C244 H270 0.923 1_545 S
C245 C240 1.479 . S
C245 C244 1.405 . S
C245 H271 0.931 . S
U246 O247 2.454 . S
U246 O248 2.458 . S
U246 C249 2.984 . S
U246 C250 2.847 1_554 S
U246 C263 2.882 . S
U246 O264 2.441 1_554 S
U246 O265 2.420 1_554 S
U246 O266 2.455 . S
U246 O267 2.449 . S
O247 U246 2.454 . S
O247 C249 1.353 . S
O248 U246 2.458 . S
O248 C249 1.286 . S
C249 U246 2.984 . S
C249 O247 1.353 . S
C249 O248 1.286 . S
C249 C251 1.363 . S
C250 C240 1.465 . S
C250 U246 2.847 1_556 S
C250 O264 1.249 . S
C250 O265 1.202 . S
C251 C249 1.363 . S
C251 C253 1.408 . S
C251 C256 1.342 . S
C252 C253 1.310 . S
C252 C255 1.462 . S
C252 H272 0.932 . S
C253 C251 1.408 . S
C253 C252 1.310 . S
C253 H273 0.930 1_554 S
C254 C255 1.474 1_565 S
C254 C256 1.286 1_565 S
C254 H274 0.929 . S
C255 C252 1.462 . S
C255 C254 1.474 1_545 S
C256 C251 1.342 . S
C256 C254 1.286 1_545 S
C256 H275 0.930 . S
C257 C260 1.424 . S
C257 C262 1.245 . S
C257 C263 1.428 . S
C258 C261 1.260 . S
C258 C262 1.477 . S
C258 H276 0.932 . S
C259 C260 1.384 . S
C259 C261 1.479 . S
C259 H277 0.929 . S
C260 C257 1.424 . S
C260 C259 1.384 . S
C260 H278 0.928 . S
C261 C258 1.260 . S
C261 C259 1.479 . S
C262 C257 1.245 . S
C262 C258 1.477 . S
C262 H279 0.932 . S
C263 U246 2.882 . S
C263 C257 1.428 . S
C263 O266 1.301 . S
C263 O267 1.282 . S
O264 U246 2.441 1_556 S
O264 C250 1.249 . S
O265 U246 2.420 1_556 S
O265 C250 1.202 . S
O266 U246 2.455 . S
O266 C263 1.301 . S
O267 U246 2.449 . S
O267 C263 1.282 . S
H268 C241 0.931 . S
H269 C243 0.929 . S
H270 C244 0.923 1_565 S
H271 C245 0.931 . S
H272 C252 0.932 . S
H273 C253 0.930 1_556 S
H274 C254 0.929 . S
H275 C256 0.930 . S
H276 C258 0.932 . S
H277 C259 0.929 . S
H278 C260 0.928 . S
H279 C262 0.932 . S
C280 C281 1.264 . S
C280 C285 1.479 . S
C280 C290 1.465 . S
C281 C280 1.264 . S
C281 C283 1.339 . S
C281 H308 0.931 . S
C282 C283 1.395 . S
C282 C284 1.320 . S
C283 C281 1.339 . S
C283 C282 1.395 . S
C283 H309 0.929 . S
C284 C282 1.320 . S
C284 C285 1.405 . S
C284 H310 0.930 . S
C285 C280 1.479 . S
C285 C284 1.405 . S
C285 H311 0.931 . S
U286 O287 2.454 . S
U286 O288 2.458 . S
U286 C289 2.984 . S
U286 C290 2.847 1_554 S
U286 C303 2.882 . S
U286 O304 2.441 1_554 S
U286 O305 2.420 1_554 S
U286 O306 2.455 . S
U286 O307 2.449 . S
O287 U286 2.454 . S
O287 C289 1.353 . S
O288 U286 2.458 . S
O288 C289 1.286 . S
C289 U286 2.984 . S
C289 O287 1.353 . S
C289 O288 1.286 . S
C289 C291 1.363 . S
C290 C280 1.465 . S
C290 U286 2.847 1_556 S
C290 O304 1.249 . S
C290 O305 1.202 . S
C291 C289 1.363 . S
C291 C293 1.408 . S
C291 C296 1.342 . S
C292 C293 1.310 . S
C292 C295 1.461 . S
C292 H312 0.932 . S
C293 C291 1.408 . S
C293 C292 1.310 . S
C293 H313 0.930 1_554 S
C294 C295 1.474 . S
C294 C296 1.285 . S
C294 H314 0.929 . S
C295 C292 1.461 . S
C295 C294 1.474 . S
C296 C291 1.342 . S
C296 C294 1.285 . S
C296 H315 0.930 . S
C297 C300 1.424 . S
C297 C302 1.245 . S
C297 C303 1.428 . S
C298 C301 1.260 . S
C298 C302 1.477 . S
C298 H316 0.932 . S
C299 C300 1.384 . S
C299 C301 1.479 . S
C299 H317 0.929 . S
C300 C297 1.424 . S
C300 C299 1.384 . S
C300 H318 0.928 . S
C301 C298 1.260 . S
C301 C299 1.479 . S
C302 C297 1.245 . S
C302 C298 1.477 . S
C302 H319 0.932 . S
C303 U286 2.882 . S
C303 C297 1.428 . S
C303 O306 1.301 . S
C303 O307 1.282 . S
O304 U286 2.441 1_556 S
O304 C290 1.249 . S
O305 U286 2.420 1_556 S
O305 C290 1.202 . S
O306 U286 2.455 . S
O306 C303 1.301 . S
O307 U286 2.449 . S
O307 C303 1.282 . S
H308 C281 0.931 . S
H309 C283 0.929 . S
H310 C284 0.930 . S
H311 C285 0.931 . S
H312 C292 0.932 . S
H313 C293 0.930 1_556 S
H314 C294 0.929 . S
H315 C296 0.930 . S
H316 C298 0.932 . S
H317 C299 0.929 . S
H318 C300 0.928 . S
H319 C302 0.932 . S
Tb320 C330 2.825 . S
Tb320 O331 2.347 1_455 S
Tb320 O334 2.366 . S
Tb320 O339 2.418 . S
Tb320 O340 2.384 1_565 S
Tb320 O343 2.479 . S
Tb320 O344 2.471 . S
Eu321 O332 2.418 . S
Eu321 O333 2.384 1_545 S
Eu321 O336 2.479 . S
Eu321 O337 2.471 . S
Eu321 O338 2.347 1_655 S
Eu321 O341 2.366 . S
Eu321 C351 2.825 . S
C322 O338 1.259 1_565 S
C322 O339 1.265 . S
C323 O340 1.255 . S
C323 O341 1.265 1_455 S
C324 C326 1.380 . S
C324 C327 1.374 . S
C324 C330 1.507 . S
C325 C326 1.384 . S
C325 C329 1.387 1_556 S
C325 H352 0.930 . S
C326 C324 1.380 . S
C326 C325 1.384 . S
C326 H353 0.931 . S
C327 C324 1.374 . S
C327 C328 1.390 . S
C327 H354 0.930 1_455 S
C328 C327 1.390 . S
C328 C329 1.391 1_556 S
C328 H355 0.930 1_456 S
C329 C325 1.387 1_554 S
C329 C328 1.391 1_554 S
C330 Tb320 2.825 . S
C330 C324 1.507 . S
C330 O343 1.238 . S
C330 O344 1.247 . S
O331 Tb320 2.347 1_655 S
O331 C335 1.259 1_565 S
O332 Eu321 2.418 . S
O332 C335 1.265 . S
O333 Eu321 2.384 1_565 S
O333 C342 1.255 . S
O334 Tb320 2.366 . S
O334 C342 1.265 1_455 S
C335 O331 1.259 1_545 S
C335 O332 1.265 . S
O336 Eu321 2.479 . S
O336 C351 1.238 . S
O337 Eu321 2.471 . S
O337 C351 1.247 . S
O338 Eu321 2.347 1_455 S
O338 C322 1.259 1_545 S
O339 Tb320 2.418 . S
O339 C322 1.265 . S
O340 Tb320 2.384 1_545 S
O340 C323 1.255 . S
O341 Eu321 2.366 . S
O341 C323 1.265 1_655 S
C342 O333 1.255 . S
C342 O334 1.265 1_655 S
O343 Tb320 2.479 . S
O343 C330 1.238 . S
O344 Tb320 2.471 . S
O344 C330 1.247 . S
C345 C348 1.380 . S
C345 C349 1.374 . S
C345 C351 1.507 . S
C346 C347 1.387 . S
C346 C350 1.391 . S
C347 C346 1.387 . S
C347 C348 1.384 . S
C347 H356 0.930 . S
C348 C345 1.380 . S
C348 C347 1.384 . S
C348 H357 0.931 . S
C349 C345 1.374 . S
C349 C350 1.390 . S
C349 H358 0.930 1_655 S
C350 C346 1.391 . S
C350 C349 1.390 . S
C350 H359 0.930 1_655 S
C351 Eu321 2.825 . S
C351 O336 1.238 . S
C351 O337 1.247 . S
C351 C345 1.507 . S
H352 C325 0.930 . S
H353 C326 0.931 . S
H354 C327 0.930 1_655 S
H355 C328 0.930 1_654 S
H356 C347 0.930 . S
H357 C348 0.931 . S
H358 C349 0.930 1_455 S
H359 C350 0.930 1_455 S
Tb360 C370 2.825 . S
Tb360 O371 2.347 1_545 S
Tb360 O374 2.366 . S
Tb360 O379 2.418 . S
Tb360 O380 2.384 . S
Tb360 O383 2.479 . S
Tb360 O384 2.471 . S
Eu361 O372 2.418 . S
Eu361 O373 2.384 . S
Eu361 O376 2.479 . S
Eu361 O377 2.471 . S
Eu361 O378 2.347 1_565 S
Eu361 O381 2.366 . S
Eu361 C391 2.825 . S
C362 O378 1.259 . S
C362 O379 1.265 . S
C363 O380 1.255 . S
C363 O381 1.265 1_545 S
C364 C366 1.380 . S
C364 C367 1.374 . S
C364 C370 1.507 . S
C365 C366 1.384 . S
C365 C369 1.387 1_556 S
C365 H392 0.930 . S
C366 C364 1.380 . S
C366 C365 1.384 . S
C366 H393 0.931 . S
C367 C364 1.374 . S
C367 C368 1.390 . S
C367 H394 0.930 1_545 S
C368 C367 1.390 . S
C368 C369 1.391 1_556 S
C368 H395 0.930 1_546 S
C369 C365 1.387 1_554 S
C369 C368 1.391 1_554 S
C370 Tb360 2.825 . S
C370 C364 1.507 . S
C370 O383 1.238 . S
C370 O384 1.247 . S
O371 Tb360 2.347 1_565 S
O371 C375 1.259 . S
O372 Eu361 2.418 . S
O372 C375 1.265 . S
O373 Eu361 2.384 . S
O373 C382 1.255 . S
O374 Tb360 2.366 . S
O374 C382 1.265 1_545 S
C375 O371 1.259 . S
C375 O372 1.265 . S
O376 Eu361 2.479 . S
O376 C391 1.238 . S
O377 Eu361 2.471 . S
O377 C391 1.247 . S
O378 Eu361 2.347 1_545 S
O378 C362 1.259 . S
O379 Tb360 2.418 . S
O379 C362 1.265 . S
O380 Tb360 2.384 . S
O380 C363 1.255 . S
O381 Eu361 2.366 . S
O381 C363 1.265 1_565 S
C382 O373 1.255 . S
C382 O374 1.265 1_565 S
O383 Tb360 2.479 . S
O383 C370 1.238 . S
O384 Tb360 2.471 . S
O384 C370 1.247 . S
C385 C388 1.380 . S
C385 C389 1.374 . S
C385 C391 1.507 . S
C386 C387 1.387 . S
C386 C390 1.391 . S
C387 C386 1.387 . S
C387 C388 1.384 . S
C387 H396 0.930 . S
C388 C385 1.380 . S
C388 C387 1.384 . S
C388 H397 0.931 . S
C389 C385 1.374 . S
C389 C390 1.390 . S
C389 H398 0.930 1_565 S
C390 C386 1.391 . S
C390 C389 1.390 . S
C390 H399 0.930 1_565 S
C391 Eu361 2.825 . S
C391 O376 1.238 . S
C391 O377 1.247 . S
C391 C385 1.507 . S
H392 C365 0.930 . S
H393 C366 0.931 . S
H394 C367 0.930 1_565 S
H395 C368 0.930 1_564 S
H396 C387 0.930 . S
H397 C388 0.931 . S
H398 C389 0.930 1_545 S
H399 C390 0.930 1_545 S
Tb400 C410 2.825 . S
Tb400 O411 2.347 . S
Tb400 O414 2.366 . S
Tb400 O419 2.418 . S
Tb400 O420 2.384 . S
Tb400 O423 2.479 . S
Tb400 O424 2.471 . S
Eu401 O412 2.418 . S
Eu401 O413 2.384 . S
Eu401 O416 2.479 . S
Eu401 O417 2.471 . S
Eu401 O418 2.347 . S
Eu401 O421 2.366 . S
Eu401 C431 2.825 . S
C402 O418 1.259 . S
C402 O419 1.265 . S
C403 O420 1.255 . S
C403 O421 1.265 . S
C404 C406 1.380 . S
C404 C407 1.374 . S
C404 C410 1.507 . S
C405 C406 1.384 . S
C405 C409 1.387 1_556 S
C405 H432 0.930 . S
C406 C404 1.380 . S
C406 C405 1.384 . S
C406 H433 0.931 . S
C407 C404 1.374 . S
C407 C408 1.390 . S
C407 H434 0.930 . S
C408 C407 1.390 . S
C408 C409 1.391 1_556 S
C408 H435 0.930 1_556 S
C409 C405 1.387 1_554 S
C409 C408 1.391 1_554 S
C410 Tb400 2.825 . S
C410 C404 1.507 . S
C410 O423 1.238 . S
C410 O424 1.247 . S
O411 Tb400 2.347 . S
O411 C415 1.259 . S
O412 Eu401 2.418 . S
O412 C415 1.265 . S
O413 Eu401 2.384 . S
O413 C422 1.255 . S
O414 Tb400 2.366 . S
O414 C422 1.265 . S
C415 O411 1.259 . S
C415 O412 1.265 . S
O416 Eu401 2.479 . S
O416 C431 1.238 . S
O417 Eu401 2.471 . S
O417 C431 1.247 . S
O418 Eu401 2.347 . S
O418 C402 1.259 . S
O419 Tb400 2.418 . S
O419 C402 1.265 . S
O420 Tb400 2.384 . S
O420 C403 1.255 . S
O421 Eu401 2.366 . S
O421 C403 1.265 . S
C422 O413 1.255 . S
C422 O414 1.265 . S
O423 Tb400 2.479 . S
O423 C410 1.238 . S
O424 Tb400 2.471 . S
O424 C410 1.247 . S
C425 C428 1.380 . S
C425 C429 1.374 . S
C425 C431 1.507 . S
C426 C427 1.387 . S
C426 C430 1.391 . S
C427 C426 1.387 . S
C427 C428 1.384 . S
C427 H436 0.930 . S
C428 C425 1.380 . S
C428 C427 1.384 . S
C428 H437 0.931 . S
C429 C425 1.374 . S
C429 C430 1.390 . S
C429 H438 0.930 . S
C430 C426 1.391 . S
C430 C429 1.390 . S
C430 H439 0.930 . S
C431 Eu401 2.825 . S
C431 O416 1.238 . S
C431 O417 1.247 . S
C431 C425 1.507 . S
H432 C405 0.930 . S
H433 C406 0.931 . S
H434 C407 0.930 . S
H435 C408 0.930 1_554 S
H436 C427 0.930 . S
H437 C428 0.931 . S
H438 C429 0.930 . S
H439 C430 0.930 . S
Tb440 C450 2.825 . S
Tb440 O451 2.347 . S
Tb440 O454 2.366 . S
Tb440 O459 2.418 . S
Tb440 O460 2.384 1_655 S
Tb440 O463 2.479 . S
Tb440 O464 2.471 . S
Eu441 O452 2.418 . S
Eu441 O453 2.384 1_455 S
Eu441 O456 2.479 . S
Eu441 O457 2.471 . S
Eu441 O458 2.347 . S
Eu441 O461 2.366 . S
Eu441 C471 2.825 . S
C442 O458 1.259 1_655 S
C442 O459 1.265 . S
C443 O460 1.255 . S
C443 O461 1.265 . S
C444 C446 1.380 . S
C444 C447 1.374 . S
C444 C450 1.507 . S
C445 C446 1.384 . S
C445 C449 1.387 1_556 S
C445 H472 0.930 . S
C446 C444 1.380 . S
C446 C445 1.384 . S
C446 H473 0.931 . S
C447 C444 1.374 . S
C447 C448 1.390 . S
C447 H474 0.930 . S
C448 C447 1.390 . S
C448 C449 1.391 1_556 S
C448 H475 0.930 1_556 S
C449 C445 1.387 1_554 S
C449 C448 1.391 1_554 S
C450 Tb440 2.825 . S
C450 C444 1.507 . S
C450 O463 1.238 . S
C450 O464 1.247 . S
O451 Tb440 2.347 . S
O451 C455 1.259 1_655 S
O452 Eu441 2.418 . S
O452 C455 1.265 . S
O453 Eu441 2.384 1_655 S
O453 C462 1.255 . S
O454 Tb440 2.366 . S
O454 C462 1.265 . S
C455 O451 1.259 1_455 S
C455 O452 1.265 . S
O456 Eu441 2.479 . S
O456 C471 1.238 . S
O457 Eu441 2.471 . S
O457 C471 1.247 . S
O458 Eu441 2.347 . S
O458 C442 1.259 1_455 S
O459 Tb440 2.418 . S
O459 C442 1.265 . S
O460 Tb440 2.384 1_455 S
O460 C443 1.255 . S
O461 Eu441 2.366 . S
O461 C443 1.265 . S
C462 O453 1.255 . S
C462 O454 1.265 . S
O463 Tb440 2.479 . S
O463 C450 1.238 . S
O464 Tb440 2.471 . S
O464 C450 1.247 . S
C465 C468 1.380 . S
C465 C469 1.374 . S
C465 C471 1.507 . S
C466 C467 1.387 . S
C466 C470 1.391 . S
C467 C466 1.387 . S
C467 C468 1.384 . S
C467 H476 0.930 . S
C468 C465 1.380 . S
C468 C467 1.384 . S
C468 H477 0.931 . S
C469 C465 1.374 . S
C469 C470 1.390 . S
C469 H478 0.930 . S
C470 C466 1.391 . S
C470 C469 1.390 . S
C470 H479 0.930 . S
C471 Eu441 2.825 . S
C471 O456 1.238 . S
C471 O457 1.247 . S
C471 C465 1.507 . S
H472 C445 0.930 . S
H473 C446 0.931 . S
H474 C447 0.930 . S
H475 C448 0.930 1_554 S
H476 C467 0.930 . S
H477 C468 0.931 . S
H478 C469 0.930 . S
H479 C470 0.930 . S
C480 C481 1.360 1_565 S
C480 C486 1.379 . S
C480 N488 1.356 . S
C481 C480 1.360 1_545 S
C481 C487 1.366 . S
C482 C483 1.370 . S
C482 C487 1.379 . S
C482 N489 1.356 . S
C483 C482 1.370 . S
C483 C486 1.356 1_545 S
N484 C486 1.356 . S
N484 H496 0.984 . S
N484 H497 0.985 . S
N485 C487 1.356 . S
N485 H490 0.984 . S
N485 H491 0.985 . S
C486 C480 1.379 . S
C486 C483 1.356 1_565 S
C486 N484 1.356 . S
C487 C481 1.366 . S
C487 C482 1.379 . S
C487 N485 1.356 . S
N488 C480 1.356 . S
N488 H494 0.984 . S
N488 H495 0.984 . S
N489 C482 1.356 . S
N489 H492 0.984 . S
N489 H493 0.985 . S
H490 N485 0.984 . S
H491 N485 0.985 . S
H492 N489 0.984 . S
H493 N489 0.985 . S
H494 N488 0.984 . S
H495 N488 0.984 . S
H496 N484 0.984 . S
H497 N484 0.985 . S
C498 C499 1.363 . S
C498 C504 1.379 . S
C498 N506 1.356 . S
C499 C498 1.363 . S
C499 C505 1.363 . S
C500 C501 1.363 . S
C500 C505 1.379 . S
C500 N507 1.356 . S
C501 C500 1.363 . S
C501 C504 1.363 . S
N502 C504 1.356 . S
N502 H514 0.984 . S
N502 H515 0.985 . S
N503 C505 1.356 . S
N503 H508 0.984 . S
N503 H509 0.985 . S
C504 C498 1.379 . S
C504 C501 1.363 . S
C504 N502 1.356 . S
C505 C499 1.363 . S
C505 C500 1.379 . S
C505 N503 1.356 . S
N506 C498 1.356 . S
N506 H512 0.984 . S
N506 H513 0.984 . S
N507 C500 1.356 . S
N507 H510 0.984 . S
N507 H511 0.985 . S
H508 N503 0.984 . S
H509 N503 0.985 . S
H510 N507 0.984 . S
H511 N507 0.985 . S
H512 N506 0.984 . S
H513 N506 0.984 . S
H514 N502 0.984 . S
H515 N502 0.985 . S
C516 C517 1.363 . S
C516 C522 1.379 . S
C516 N524 1.356 . S
C517 C516 1.363 . S
C517 C523 1.363 . S
C518 C519 1.363 . S
C518 C523 1.379 . S
C518 N525 1.356 . S
C519 C518 1.363 . S
C519 C522 1.363 . S
N520 C522 1.356 . S
N520 H532 0.984 . S
N520 H533 0.985 . S
N521 C523 1.356 . S
N521 H526 0.984 . S
N521 H527 0.985 . S
C522 C516 1.379 . S
C522 C519 1.363 . S
C522 N520 1.356 . S
C523 C517 1.363 . S
C523 C518 1.379 . S
C523 N521 1.356 . S
N524 C516 1.356 . S
N524 H530 0.984 . S
N524 H531 0.984 . S
N525 C518 1.356 . S
N525 H528 0.984 . S
N525 H529 0.985 . S
H526 N521 0.984 . S
H527 N521 0.985 . S
H528 N525 0.984 . S
H529 N525 0.985 . S
H530 N524 0.984 . S
H531 N524 0.984 . S
H532 N520 0.984 . S
H533 N520 0.985 . S
C534 C535 1.371 . S
C534 C540 1.379 . S
C534 N542 1.356 . S
C535 C534 1.371 . S
C535 C541 1.356 1_455 S
C536 C537 1.363 1_655 S
C536 C541 1.379 . S
C536 N543 1.356 . S
C537 C536 1.363 1_455 S
C537 C540 1.363 . S
N538 C540 1.356 . S
N538 H550 0.984 . S
N538 H551 0.985 . S
N539 C541 1.356 . S
N539 H544 0.984 . S
N539 H545 0.985 . S
C540 C534 1.379 . S
C540 C537 1.363 . S
C540 N538 1.356 . S
C541 C535 1.356 1_655 S
C541 C536 1.379 . S
C541 N539 1.356 . S
N542 C534 1.356 . S
N542 H548 0.984 . S
N542 H549 0.984 . S
N543 C536 1.356 . S
N543 H546 0.984 . S
N543 H547 0.985 . S
H544 N539 0.984 . S
H545 N539 0.985 . S
H546 N543 0.984 . S
H547 N543 0.985 . S
H548 N542 0.984 . S
H549 N542 0.984 . S
H550 N538 0.984 . S
H551 N538 0.985 . S
C552 C553 1.366 1_565 S
C552 C558 1.379 . S
C552 N560 1.356 . S
C553 C552 1.366 1_545 S
C553 C559 1.360 . S
C554 C555 1.364 1_544 S
C554 C559 1.379 . S
C554 N561 1.356 1_554 S
C555 C554 1.364 1_566 S
C555 C558 1.362 1_556 S
N556 C558 1.356 1_556 S
N556 H568 0.984 . S
N556 H569 0.985 . S
N557 C559 1.356 . S
N557 H562 0.984 . S
N557 H563 0.985 . S
C558 C552 1.379 . S
C558 C555 1.362 1_554 S
C558 N556 1.356 1_554 S
C559 C553 1.360 . S
C559 C554 1.379 . S
C559 N557 1.356 . S
N560 C552 1.356 . S
N560 H566 0.984 . S
N560 H567 0.984 . S
N561 C554 1.356 1_556 S
N561 H564 0.984 . S
N561 H565 0.985 . S
H562 N557 0.984 . S
H563 N557 0.985 . S
H564 N561 0.984 . S
H565 N561 0.985 . S
H566 N560 0.984 . S
H567 N560 0.984 . S
H568 N556 0.984 . S
H569 N556 0.985 . S
C570 C571 1.363 . S
C570 C576 1.379 . S
C570 N578 1.356 . S
C571 C570 1.363 . S
C571 C577 1.363 . S
C572 C573 1.363 1_554 S
C572 C577 1.379 . S
C572 N579 1.356 1_554 S
C573 C572 1.363 1_556 S
C573 C576 1.363 1_556 S
N574 C576 1.356 1_556 S
N574 H586 0.984 . S
N574 H587 0.985 . S
N575 C577 1.356 . S
N575 H580 0.984 . S
N575 H581 0.985 . S
C576 C570 1.379 . S
C576 C573 1.363 1_554 S
C576 N574 1.356 1_554 S
C577 C571 1.363 . S
C577 C572 1.379 . S
C577 N575 1.356 . S
N578 C570 1.356 . S
N578 H584 0.984 . S
N578 H585 0.984 . S
N579 C572 1.356 1_556 S
N579 H582 0.984 . S
N579 H583 0.985 . S
H580 N575 0.984 . S
H581 N575 0.985 . S
H582 N579 0.984 . S
H583 N579 0.985 . S
H584 N578 0.984 . S
H585 N578 0.984 . S
H586 N574 0.984 . S
H587 N574 0.985 . S
C588 C589 1.363 . S
C588 C594 1.379 . S
C588 N596 1.356 . S
C589 C588 1.363 . S
C589 C595 1.363 . S
C590 C591 1.363 1_554 S
C590 C595 1.379 . S
C590 N597 1.356 1_554 S
C591 C590 1.363 1_556 S
C591 C594 1.363 1_556 S
N592 C594 1.356 1_556 S
N592 H604 0.984 . S
N592 H605 0.985 . S
N593 C595 1.356 . S
N593 H598 0.984 . S
N593 H599 0.985 . S
C594 C588 1.379 . S
C594 C591 1.363 1_554 S
C594 N592 1.356 1_554 S
C595 C589 1.363 . S
C595 C590 1.379 . S
C595 N593 1.356 . S
N596 C588 1.356 . S
N596 H602 0.984 . S
N596 H603 0.984 . S
N597 C590 1.356 1_556 S
N597 H600 0.984 . S
N597 H601 0.985 . S
H598 N593 0.984 . S
H599 N593 0.985 . S
H600 N597 0.984 . S
H601 N597 0.985 . S
H602 N596 0.984 . S
H603 N596 0.984 . S
H604 N592 0.984 . S
H605 N592 0.985 . S
C606 C607 1.351 1_455 S
C606 C612 1.379 . S
C606 N614 1.356 . S
C607 C606 1.351 1_655 S
C607 C613 1.375 . S
C608 C609 1.363 1_554 S
C608 C613 1.379 . S
C608 N615 1.356 1_554 S
C609 C608 1.363 1_556 S
C609 C612 1.363 1_656 S
N610 C612 1.356 1_556 S
N610 H622 0.984 . S
N610 H623 0.985 . S
N611 C613 1.356 . S
N611 H616 0.984 . S
N611 H617 0.985 . S
C612 C606 1.379 . S
C612 C609 1.363 1_454 S
C612 N610 1.356 1_554 S
C613 C607 1.375 . S
C613 C608 1.379 . S
C613 N611 1.356 . S
N614 C606 1.356 . S
N614 H620 0.984 . S
N614 H621 0.984 . S
N615 C608 1.356 1_556 S
N615 H618 0.984 . S
N615 H619 0.985 . S
H616 N611 0.984 . S
H617 N611 0.985 . S
H618 N615 0.984 . S
H619 N615 0.985 . S
H620 N614 0.984 . S
H621 N614 0.984 . S
H622 N610 0.984 . S
H623 N610 0.985 . S
C624 C625 1.364 . S
C624 C630 1.379 1_455 S
C624 N632 1.356 . S
C625 C624 1.364 . S
C625 C631 1.354 1_455 S
C626 C627 1.363 . S
C626 C631 1.379 . S
C626 N633 1.356 . S
C627 C626 1.363 . S
C627 C630 1.363 . S
N628 C630 1.356 . S
N628 H640 0.984 . S
N628 H641 0.985 . S
N629 C631 1.356 . S
N629 H634 1.000 . S
N629 H635 0.985 . S
C630 C624 1.379 1_655 S
C630 C627 1.363 . S
C630 N628 1.356 . S
C631 C625 1.354 1_655 S
C631 C626 1.379 . S
C631 N629 1.356 . S
N632 C624 1.356 . S
N632 H638 0.984 . S
N632 H639 0.984 . S
N633 C626 1.356 . S
N633 H636 0.984 . S
N633 H637 0.985 . S
H634 N629 1.000 . S
H635 N629 0.985 . S
H636 N633 0.984 . S
H637 N633 0.985 . S
H638 N632 0.984 . S
H639 N632 0.984 . S
H640 N628 0.984 . S
H641 N628 0.985 . S
C642 C643 1.357 1_565 S
C642 C648 1.379 . S
C642 N650 1.356 . S
C643 C642 1.357 1_545 S
C643 C649 1.360 1_545 S
C644 C645 1.363 . S
C644 C649 1.379 . S
C644 N651 1.356 . S
C645 C644 1.363 . S
C645 C648 1.363 . S
N646 C648 1.356 . S
N646 H658 0.984 . S
N646 H659 0.985 . S
N647 C649 1.356 1_545 S
N647 H652 0.984 . S
N647 H653 0.985 . S
C648 C642 1.379 . S
C648 C645 1.363 . S
C648 N646 1.356 . S
C649 C643 1.360 1_565 S
C649 C644 1.379 . S
C649 N647 1.356 1_565 S
N650 C642 1.356 . S
N650 H656 0.984 . S
N650 H657 0.984 1_565 S
N651 C644 1.356 . S
N651 H654 0.984 . S
N651 H655 0.985 . S
H652 N647 0.984 . S
H653 N647 0.985 . S
H654 N651 0.984 . S
H655 N651 0.985 . S
H656 N650 0.984 . S
H657 N650 0.984 1_545 S
H658 N646 0.984 . S
H659 N646 0.985 . S
C660 C661 1.363 . S
C660 C666 1.379 . S
C660 N668 1.356 . S
C661 C660 1.363 . S
C661 C667 1.363 . S
C662 C663 1.363 . S
C662 C667 1.379 . S
C662 N669 1.356 . S
C663 C662 1.363 . S
C663 C666 1.363 . S
N664 C666 1.356 . S
N664 H676 0.984 . S
N664 H677 0.985 . S
N665 C667 1.356 . S
N665 H670 0.984 . S
N665 H671 0.985 . S
C666 C660 1.379 . S
C666 C663 1.363 . S
C666 N664 1.356 . S
C667 C661 1.363 . S
C667 C662 1.379 . S
C667 N665 1.356 . S
N668 C660 1.356 . S
N668 H674 0.984 . S
N668 H675 0.984 . S
N669 C662 1.356 . S
N669 H672 0.984 . S
N669 H673 0.985 . S
H670 N665 0.984 . S
H671 N665 0.985 . S
H672 N669 0.984 . S
H673 N669 0.985 . S
H674 N668 0.984 . S
H675 N668 0.984 . S
H676 N664 0.984 . S
H677 N664 0.985 . S
C678 C679 1.363 . S
C678 C684 1.379 . S
C678 N686 1.356 . S
C679 C678 1.363 . S
C679 C685 1.363 . S
C680 C681 1.363 . S
C680 C685 1.379 . S
C680 N687 1.356 . S
C681 C680 1.363 . S
C681 C684 1.363 . S
N682 C684 1.356 . S
N682 H694 0.984 . S
N682 H695 0.985 . S
N683 C685 1.356 . S
N683 H688 0.984 . S
N683 H689 0.985 . S
C684 C678 1.379 . S
C684 C681 1.363 . S
C684 N682 1.356 . S
C685 C679 1.363 . S
C685 C680 1.379 . S
C685 N683 1.356 . S
N686 C678 1.356 . S
N686 H692 0.984 . S
N686 H693 0.984 . S
N687 C680 1.356 . S
N687 H690 0.984 . S
N687 H691 0.985 . S
H688 N683 0.984 . S
H689 N683 0.985 . S
H690 N687 0.984 . S
H691 N687 0.985 . S
H692 N686 0.984 . S
H693 N686 0.984 . S
H694 N682 0.984 . S
H695 N682 0.985 . S
C696 C697 1.353 1_455 S
C696 C702 1.378 1_554 S
C696 N704 1.356 1_554 S
C697 C696 1.353 1_655 S
C697 C703 1.365 . S
C698 C699 1.363 . S
C698 C703 1.379 1_455 S
C698 N705 1.356 . S
C699 C698 1.363 . S
C699 C702 1.360 1_554 S
N700 C702 1.360 . S
N700 H712 0.984 . S
N700 H713 0.985 . S
N701 C703 1.356 . S
N701 H706 0.984 . S
N701 H707 0.985 . S
C702 C696 1.378 1_556 S
C702 C699 1.360 1_556 S
C702 N700 1.360 . S
C703 C697 1.365 . S
C703 C698 1.379 1_655 S
C703 N701 1.356 . S
N704 C696 1.356 1_556 S
N704 H710 0.984 . S
N704 H711 0.984 1_556 S
N705 C698 1.356 . S
N705 H708 0.984 . S
N705 H709 0.985 . S
H706 N701 0.984 . S
H707 N701 0.985 . S
H708 N705 0.984 . S
H709 N705 0.985 . S
H710 N704 0.984 . S
H711 N704 0.984 1_554 S
H712 N700 0.984 . S
H713 N700 0.985 . S
C714 C715 1.363 1_545 S
C714 C720 1.379 . S
C714 N722 1.356 1_545 S
C715 C714 1.363 1_565 S
C715 C721 1.361 1_564 S
C716 C717 1.363 1_556 S
C716 C721 1.379 . S
C716 N723 1.356 . S
C717 C716 1.363 1_554 S
C717 C720 1.363 . S
N718 C720 1.356 . S
N718 H730 0.984 . S
N718 H731 0.985 . S
N719 C721 1.356 . S
N719 H724 0.984 1_545 S
N719 H725 0.985 . S
C720 C714 1.379 . S
C720 C717 1.363 . S
C720 N718 1.356 . S
C721 C715 1.361 1_546 S
C721 C716 1.379 . S
C721 N719 1.356 . S
N722 C714 1.356 1_565 S
N722 H728 0.984 . S
N722 H729 0.984 . S
N723 C716 1.356 . S
N723 H726 0.984 . S
N723 H727 0.985 . S
H724 N719 0.984 1_565 S
H725 N719 0.985 . S
H726 N723 0.984 . S
H727 N723 0.985 . S
H728 N722 0.984 . S
H729 N722 0.984 . S
H730 N718 0.984 . S
H731 N718 0.985 . S
C732 C733 1.363 . S
C732 C738 1.379 . S
C732 N740 1.356 . S
C733 C732 1.363 . S
C733 C739 1.363 1_554 S
C734 C735 1.363 1_556 S
C734 C739 1.379 . S
C734 N741 1.356 . S
C735 C734 1.363 1_554 S
C735 C738 1.363 . S
N736 C738 1.356 . S
N736 H748 0.984 . S
N736 H749 0.985 . S
N737 C739 1.356 . S
N737 H742 0.984 . S
N737 H743 0.985 . S
C738 C732 1.379 . S
C738 C735 1.363 . S
C738 N736 1.356 . S
C739 C733 1.363 1_556 S
C739 C734 1.379 . S
C739 N737 1.356 . S
N740 C732 1.356 . S
N740 H746 0.984 . S
N740 H747 0.984 . S
N741 C734 1.356 . S
N741 H744 0.984 . S
N741 H745 0.985 . S
H742 N737 0.984 . S
H743 N737 0.985 . S
H744 N741 0.984 . S
H745 N741 0.985 . S
H746 N740 0.984 . S
H747 N740 0.984 . S
H748 N736 0.984 . S
H749 N736 0.985 . S
C750 C751 1.363 . S
C750 C756 1.379 . S
C750 N758 1.356 . S
C751 C750 1.363 . S
C751 C757 1.363 1_554 S
C752 C753 1.363 1_556 S
C752 C757 1.379 . S
C752 N759 1.356 . S
C753 C752 1.363 1_554 S
C753 C756 1.363 . S
N754 C756 1.356 . S
N754 H766 0.984 . S
N754 H767 0.985 . S
N755 C757 1.356 . S
N755 H760 0.984 . S
N755 H761 0.985 . S
C756 C750 1.379 . S
C756 C753 1.363 . S
C756 N754 1.356 . S
C757 C751 1.363 1_556 S
C757 C752 1.379 . S
C757 N755 1.356 . S
N758 C750 1.356 . S
N758 H764 0.984 . S
N758 H765 0.984 . S
N759 C752 1.356 . S
N759 H762 0.984 . S
N759 H763 0.985 . S
H760 N755 0.984 . S
H761 N755 0.985 . S
H762 N759 0.984 . S
H763 N759 0.985 . S
H764 N758 0.984 . S
H765 N758 0.984 . S
H766 N754 0.984 . S
H767 N754 0.985 . S
C768 C769 1.363 1_655 S
C768 C774 1.379 . S
C768 N776 1.356 . S
C769 C768 1.363 1_455 S
C769 C775 1.363 . S
C770 C771 1.363 . S
C770 C775 1.379 . S
C770 N777 1.356 . S
C771 C770 1.363 . S
C771 C774 1.363 1_455 S
N772 C774 1.356 . S
N772 H784 0.984 . S
N772 H785 0.985 . S
N773 C775 1.356 . S
N773 H778 0.984 . S
N773 H779 0.985 . S
C774 C768 1.379 . S
C774 C771 1.363 1_655 S
C774 N772 1.356 . S
C775 C769 1.363 . S
C775 C770 1.379 . S
C775 N773 1.356 . S
N776 C768 1.356 . S
N776 H782 0.984 . S
N776 H783 0.984 . S
N777 C770 1.356 . S
N777 H780 0.984 . S
N777 H781 0.985 . S
H778 N773 0.984 . S
H779 N773 0.985 . S
H780 N777 0.984 . S
H781 N777 0.985 . S
H782 N776 0.984 . S
H783 N776 0.984 . S
H784 N772 0.984 . S
H785 N772 0.985 . S
C786 C787 1.363 . S
C786 C792 1.379 . S
C786 N794 1.356 . S
C787 C786 1.363 . S
C787 C793 1.363 1_545 S
C788 C789 1.363 1_565 S
C788 C793 1.379 . S
C788 N795 1.356 . S
C789 C788 1.363 1_545 S
C789 C792 1.363 . S
N790 C792 1.356 . S
N790 H802 0.984 . S
N790 H803 0.985 . S
N791 C793 1.356 . S
N791 H796 0.984 . S
N791 H797 0.985 . S
C792 C786 1.379 . S
C792 C789 1.363 . S
C792 N790 1.356 . S
C793 C787 1.363 1_565 S
C793 C788 1.379 . S
C793 N791 1.356 . S
N794 C786 1.356 . S
N794 H800 0.984 . S
N794 H801 0.984 . S
N795 C788 1.356 . S
N795 H798 0.984 . S
N795 H799 0.985 . S
H796 N791 0.984 . S
H797 N791 0.985 . S
H798 N795 0.984 . S
H799 N795 0.985 . S
H800 N794 0.984 . S
H801 N794 0.984 . S
H802 N790 0.984 . S
H803 N790 0.985 . S
C804 C805 1.363 . S
C804 C810 1.379 . S
C804 N812 1.356 . S
C805 C804 1.363 . S
C805 C811 1.363 . S
C806 C807 1.363 . S
C806 C811 1.379 . S
C806 N813 1.356 . S
C807 C806 1.363 . S
C807 C810 1.363 . S
N808 C810 1.356 . S
N808 H820 0.984 . S
N808 H821 0.985 . S
N809 C811 1.356 . S
N809 H814 0.984 . S
N809 H815 0.985 . S
C810 C804 1.379 . S
C810 C807 1.363 . S
C810 N808 1.356 . S
C811 C805 1.363 . S
C811 C806 1.379 . S
C811 N809 1.356 . S
N812 C804 1.356 . S
N812 H818 0.984 . S
N812 H819 0.984 . S
N813 C806 1.356 . S
N813 H816 0.984 . S
N813 H817 0.985 . S
H814 N809 0.984 . S
H815 N809 0.985 . S
H816 N813 0.984 . S
H817 N813 0.985 . S
H818 N812 0.984 . S
H819 N812 0.984 . S
H820 N808 0.984 . S
H821 N808 0.985 . S
C822 C823 1.363 . S
C822 C828 1.379 . S
C822 N830 1.356 . S
C823 C822 1.363 . S
C823 C829 1.363 . S
C824 C825 1.363 . S
C824 C829 1.379 . S
C824 N831 1.356 . S
C825 C824 1.363 . S
C825 C828 1.363 . S
N826 C828 1.356 . S
N826 H838 0.984 . S
N826 H839 0.985 . S
N827 C829 1.356 . S
N827 H832 0.984 . S
N827 H833 0.985 . S
C828 C822 1.379 . S
C828 C825 1.363 . S
C828 N826 1.356 . S
C829 C823 1.363 . S
C829 C824 1.379 . S
C829 N827 1.356 . S
N830 C822 1.356 . S
N830 H836 0.984 . S
N830 H837 0.984 . S
N831 C824 1.356 . S
N831 H834 0.984 . S
N831 H835 0.985 . S
H832 N827 0.984 . S
H833 N827 0.985 . S
H834 N831 0.984 . S
H835 N831 0.985 . S
H836 N830 0.984 . S
H837 N830 0.984 . S
H838 N826 0.984 . S
H839 N826 0.985 . S
C840 C841 1.363 . S
C840 C846 1.379 . S
C840 N848 1.356 . S
C841 C840 1.363 . S
C841 C847 1.363 1_655 S
C842 C843 1.363 1_455 S
C842 C847 1.379 . S
C842 N849 1.356 . S
C843 C842 1.363 1_655 S
C843 C846 1.363 . S
N844 C846 1.356 . S
N844 H856 0.984 . S
N844 H857 0.985 . S
N845 C847 1.356 . S
N845 H850 0.984 . S
N845 H851 0.985 . S
C846 C840 1.379 . S
C846 C843 1.363 . S
C846 N844 1.356 . S
C847 C841 1.363 1_455 S
C847 C842 1.379 . S
C847 N845 1.356 . S
N848 C840 1.356 . S
N848 H854 0.984 . S
N848 H855 0.984 . S
N849 C842 1.356 . S
N849 H852 0.984 . S
N849 H853 0.985 . S
H850 N845 0.984 . S
H851 N845 0.985 . S
H852 N849 0.984 . S
H853 N849 0.985 . S
H854 N848 0.984 . S
H855 N848 0.984 . S
H856 N844 0.984 . S
H857 N844 0.985 . S
C858 C859 1.363 1_545 S
C858 C864 1.379 . S
C858 N866 1.356 . S
C859 C858 1.363 1_565 S
C859 C865 1.363 . S
C860 C861 1.363 . S
C860 C865 1.379 . S
C860 N867 1.356 . S
C861 C860 1.363 . S
C861 C864 1.363 1_565 S
N862 C864 1.356 . S
N862 H874 0.984 . S
N862 H875 0.985 . S
N863 C865 1.356 . S
N863 H868 0.984 . S
N863 H869 0.985 . S
C864 C858 1.379 . S
C864 C861 1.363 1_545 S
C864 N862 1.356 . S
C865 C859 1.363 . S
C865 C860 1.379 . S
C865 N863 1.356 . S
N866 C858 1.356 . S
N866 H872 0.984 . S
N866 H873 0.984 . S
N867 C860 1.356 . S
N867 H870 0.984 . S
N867 H871 0.985 . S
H868 N863 0.984 . S
H869 N863 0.985 . S
H870 N867 0.984 . S
H871 N867 0.985 . S
H872 N866 0.984 . S
H873 N866 0.984 . S
H874 N862 0.984 . S
H875 N862 0.985 . S
C876 C877 1.363 . S
C876 C882 1.379 . S
C876 N884 1.356 . S
C877 C876 1.363 . S
C877 C883 1.363 . S
C878 C879 1.363 . S
C878 C883 1.379 . S
C878 N885 1.356 . S
C879 C878 1.363 . S
C879 C882 1.363 . S
N880 C882 1.356 . S
N880 H892 0.984 . S
N880 H893 0.985 . S
N881 C883 1.356 . S
N881 H886 0.984 . S
N881 H887 0.985 . S
C882 C876 1.379 . S
C882 C879 1.363 . S
C882 N880 1.356 . S
C883 C877 1.363 . S
C883 C878 1.379 . S
C883 N881 1.356 . S
N884 C876 1.356 . S
N884 H890 0.984 . S
N884 H891 0.984 . S
N885 C878 1.356 . S
N885 H888 0.984 . S
N885 H889 0.985 . S
H886 N881 0.984 . S
H887 N881 0.985 . S
H888 N885 0.984 . S
H889 N885 0.985 . S
H890 N884 0.984 . S
H891 N884 0.984 . S
H892 N880 0.984 . S
H893 N880 0.985 . S
C894 C895 1.363 . S
C894 C900 1.379 . S
C894 N902 1.356 . S
C895 C894 1.363 . S
C895 C901 1.363 . S
C896 C897 1.363 . S
C896 C901 1.379 . S
C896 N903 1.356 . S
C897 C896 1.363 . S
C897 C900 1.363 . S
N898 C900 1.356 . S
N898 H910 0.984 . S
N898 H911 0.985 . S
N899 C901 1.356 . S
N899 H904 0.984 . S
N899 H905 0.985 . S
C900 C894 1.379 . S
C900 C897 1.363 . S
C900 N898 1.356 . S
C901 C895 1.363 . S
C901 C896 1.379 . S
C901 N899 1.356 . S
N902 C894 1.356 . S
N902 H908 0.984 . S
N902 H909 0.984 . S
N903 C896 1.356 . S
N903 H906 0.984 . S
N903 H907 0.985 . S
H904 N899 0.984 . S
H905 N899 0.985 . S
H906 N903 0.984 . S
H907 N903 0.985 . S
H908 N902 0.984 . S
H909 N902 0.984 . S
H910 N898 0.984 . S
H911 N898 0.985 . S
C481 C255 2.656 . S
C483 C322 2.988 1_545 S
C501 C362 3.005 . S
C499 C295 2.672 . S
C519 C402 3.009 . S
C517 C175 2.679 . S
C537 C442 2.992 1_455 S
C535 C215 2.661 . S
C555 C335 2.990 1_565 S
C553 C95 2.659 . S
C571 C135 2.677 . S
C573 C375 3.007 . S
C589 C15 2.681 . S
C591 C415 3.008 . S
C607 C55 2.660 1_655 S
C609 C455 2.992 1_655 S
C627 C346 0.739 . S
C625 C221 0.737 . S
C645 C386 0.736 . S
C643 C261 0.738 . S
C663 C426 0.700 . S
C661 C301 0.697 . S
C679 C181 0.697 . S
C681 C466 0.697 . S
C697 C61 0.741 1_655 S
C699 C329 0.743 . S
C717 C369 0.736 . S
C715 C101 0.738 1_565 S
C735 C409 0.700 . S
C733 C141 0.718 . S
C751 C21 0.719 . S
C753 C449 0.705 . S
C769 C202 3.577 . S
C771 C323 4.022 . S
C787 C242 3.548 . S
C789 C363 4.001 . S
C807 C403 3.995 . S
C805 C282 3.532 . S
C825 C443 4.022 . S
C823 C162 3.557 . S
C841 C42 3.597 1_655 S
C843 C342 4.032 . S
C861 C382 4.002 . S
C859 C82 3.568 1_565 S
C879 C422 3.996 . S
C877 C122 3.569 . S
C895 C2 3.597 . S
C897 C462 4.026 . S
