# Generated by pormake.
# Topology ocu, (6,8)-cn, num edge types: 1
# Building blocks:
#     Node 0, Type 0, BuildingBlock: MIFKUJ_clean_sbu_0, # of connection points: 6
#     Node 1, Type 0, BuildingBlock: MIFKUJ_clean_sbu_0, # of connection points: 6
#     Node 2, Type 0, BuildingBlock: MIFKUJ_clean_sbu_0, # of connection points: 6
#     Node 3, Type 0, BuildingBlock: MIFKUJ_clean_sbu_0, # of connection points: 6
#     Node 4, Type 0, BuildingBlock: MIFKUJ_clean_sbu_0, # of connection points: 6
#     Node 5, Type 0, BuildingBlock: MIFKUJ_clean_sbu_0, # of connection points: 6
#     Node 6, Type 0, BuildingBlock: MIFKUJ_clean_sbu_0, # of connection points: 6
#     Node 7, Type 0, BuildingBlock: MIFKUJ_clean_sbu_0, # of connection points: 6
#     Node 8, Type 1, BuildingBlock: TAGTUT_clean_sbu_1, # of connection points: 8
#     Node 9, Type 1, BuildingBlock: TAGTUT_clean_sbu_1, # of connection points: 8
#     Node 10, Type 1, BuildingBlock: TAGTUT_clean_sbu_1, # of connection points: 8
#     Node 11, Type 1, BuildingBlock: TAGTUT_clean_sbu_1, # of connection points: 8
#     Node 12, Type 1, BuildingBlock: TAGTUT_clean_sbu_1, # of connection points: 8
#     Node 13, Type 1, BuildingBlock: TAGTUT_clean_sbu_1, # of connection points: 8
#     Edge 14, Type (0, 1), BuildingBlock: TEMPAE_clean_linker_10, # of connection points: 2
#     Edge 15, Type (0, 1), BuildingBlock: TEMPAE_clean_linker_10, # of connection points: 2
#     Edge 16, Type (0, 1), BuildingBlock: TEMPAE_clean_linker_10, # of connection points: 2
#     Edge 17, Type (0, 1), BuildingBlock: TEMPAE_clean_linker_10, # of connection points: 2
#     Edge 18, Type (0, 1), BuildingBlock: TEMPAE_clean_linker_10, # of connection points: 2
#     Edge 19, Type (0, 1), BuildingBlock: TEMPAE_clean_linker_10, # of connection points: 2
#     Edge 20, Type (0, 1), BuildingBlock: TEMPAE_clean_linker_10, # of connection points: 2
#     Edge 21, Type (0, 1), BuildingBlock: TEMPAE_clean_linker_10, # of connection points: 2
#     Edge 22, Type (0, 1), BuildingBlock: TEMPAE_clean_linker_10, # of connection points: 2
#     Edge 23, Type (0, 1), BuildingBlock: TEMPAE_clean_linker_10, # of connection points: 2
#     Edge 24, Type (0, 1), BuildingBlock: TEMPAE_clean_linker_10, # of connection points: 2
#     Edge 25, Type (0, 1), BuildingBlock: TEMPAE_clean_linker_10, # of connection points: 2
#     Edge 26, Type (0, 1), BuildingBlock: TEMPAE_clean_linker_10, # of connection points: 2
#     Edge 27, Type (0, 1), BuildingBlock: TEMPAE_clean_linker_10, # of connection points: 2
#     Edge 28, Type (0, 1), BuildingBlock: TEMPAE_clean_linker_10, # of connection points: 2
#     Edge 29, Type (0, 1), BuildingBlock: TEMPAE_clean_linker_10, # of connection points: 2
#     Edge 30, Type (0, 1), BuildingBlock: TEMPAE_clean_linker_10, # of connection points: 2
#     Edge 31, Type (0, 1), BuildingBlock: TEMPAE_clean_linker_10, # of connection points: 2
#     Edge 32, Type (0, 1), BuildingBlock: TEMPAE_clean_linker_10, # of connection points: 2
#     Edge 33, Type (0, 1), BuildingBlock: TEMPAE_clean_linker_10, # of connection points: 2
#     Edge 34, Type (0, 1), BuildingBlock: TEMPAE_clean_linker_10, # of connection points: 2
#     Edge 35, Type (0, 1), BuildingBlock: TEMPAE_clean_linker_10, # of connection points: 2
#     Edge 36, Type (0, 1), BuildingBlock: TEMPAE_clean_linker_10, # of connection points: 2
#     Edge 37, Type (0, 1), BuildingBlock: TEMPAE_clean_linker_10, # of connection points: 2
#     Edge 38, Type (0, 1), BuildingBlock: TEMPAE_clean_linker_10, # of connection points: 2
#     Edge 39, Type (0, 1), BuildingBlock: TEMPAE_clean_linker_10, # of connection points: 2
#     Edge 40, Type (0, 1), BuildingBlock: TEMPAE_clean_linker_10, # of connection points: 2
#     Edge 41, Type (0, 1), BuildingBlock: TEMPAE_clean_linker_10, # of connection points: 2
#     Edge 42, Type (0, 1), BuildingBlock: TEMPAE_clean_linker_10, # of connection points: 2
#     Edge 43, Type (0, 1), BuildingBlock: TEMPAE_clean_linker_10, # of connection points: 2
#     Edge 44, Type (0, 1), BuildingBlock: TEMPAE_clean_linker_10, # of connection points: 2
#     Edge 45, Type (0, 1), BuildingBlock: TEMPAE_clean_linker_10, # of connection points: 2
#     Edge 46, Type (0, 1), BuildingBlock: TEMPAE_clean_linker_10, # of connection points: 2
#     Edge 47, Type (0, 1), BuildingBlock: TEMPAE_clean_linker_10, # of connection points: 2
#     Edge 48, Type (0, 1), BuildingBlock: TEMPAE_clean_linker_10, # of connection points: 2
#     Edge 49, Type (0, 1), BuildingBlock: TEMPAE_clean_linker_10, # of connection points: 2
#     Edge 50, Type (0, 1), BuildingBlock: TEMPAE_clean_linker_10, # of connection points: 2
#     Edge 51, Type (0, 1), BuildingBlock: TEMPAE_clean_linker_10, # of connection points: 2
#     Edge 52, Type (0, 1), BuildingBlock: TEMPAE_clean_linker_10, # of connection points: 2
#     Edge 53, Type (0, 1), BuildingBlock: TEMPAE_clean_linker_10, # of connection points: 2
#     Edge 54, Type (0, 1), BuildingBlock: TEMPAE_clean_linker_10, # of connection points: 2
#     Edge 55, Type (0, 1), BuildingBlock: TEMPAE_clean_linker_10, # of connection points: 2
#     Edge 56, Type (0, 1), BuildingBlock: TEMPAE_clean_linker_10, # of connection points: 2
#     Edge 57, Type (0, 1), BuildingBlock: TEMPAE_clean_linker_10, # of connection points: 2
#     Edge 58, Type (0, 1), BuildingBlock: TEMPAE_clean_linker_10, # of connection points: 2
#     Edge 59, Type (0, 1), BuildingBlock: TEMPAE_clean_linker_10, # of connection points: 2
#     Edge 60, Type (0, 1), BuildingBlock: TEMPAE_clean_linker_10, # of connection points: 2
#     Edge 61, Type (0, 1), BuildingBlock: TEMPAE_clean_linker_10, # of connection points: 2
# Relax obj value: 0.062
# Max RMSD: 0.225
# Mean RMSD: 0.125
data_MOF--net-ocu--node1-MIFKUJ_clean_sbu_0--node2-TAGTUT_clean_sbu_1--edge1-TEMPAE_clean_linker_10
_symmetry_space_group_name_H-M    P1
_symmetry_Int_Tables_number       1
_symmetry_cell_setting            triclinic
loop_
_symmetry_equiv_pos_as_xyz
'x, y, z'
_cell_length_a     39.550684
_cell_length_b     39.362798
_cell_length_c     39.82259
_cell_angle_alpha  91.848635
_cell_angle_beta   95.461599
_cell_angle_gamma 108.25383
loop_
_atom_site_label
_atom_site_type_symbol
_atom_site_fract_x
_atom_site_fract_y
_atom_site_fract_z
_atom_type_partial_charge
Zn0 Zn 0.21604 0.26305 0.23063 0.0
Zn1 Zn 0.279 0.23232 0.25477 0.0
C2 C 0.19434 0.29704 0.28378 0.0
O3 O 0.16445 0.27413 0.26895 0.0
C4 C 0.30347 0.20075 0.20209 0.0
O5 O 0.33249 0.22472 0.21723 0.0
O6 O 0.17976 0.2769 0.20011 0.0
O7 O 0.2582 0.27401 0.20066 0.0
O8 O 0.30235 0.28366 0.24093 0.0
C9 C 0.18785 0.31059 0.19789 0.0
O10 O 0.21791 0.33185 0.21405 0.0
O11 O 0.22388 0.29797 0.27272 0.0
C12 C 0.3084 0.1858 0.28591 0.0
O13 O 0.27703 0.16524 0.27156 0.0
O14 O 0.31673 0.21954 0.28402 0.0
O15 O 0.23633 0.21657 0.2838 0.0
O16 O 0.19055 0.21317 0.24663 0.0
O17 O 0.27327 0.1988 0.21217 0.0
C18 C 0.29124 0.28875 0.21107 0.0
C19 C 0.2027 0.20458 0.27475 0.0
Zn20 Zn 0.75001 0.29674 0.22595 0.0
Zn21 Zn 0.75052 0.20677 0.27821 0.0
C22 C 0.70997 0.33024 0.18698 0.0
O23 O 0.73229 0.32504 0.16646 0.0
C24 C 0.78453 0.15275 0.29155 0.0
O25 O 0.75112 0.13169 0.28886 0.0
O26 O 0.79962 0.32673 0.22199 0.0
O27 O 0.74902 0.27302 0.26776 0.0
O28 O 0.75608 0.24806 0.31338 0.0
C29 C 0.8095 0.36004 0.21819 0.0
O30 O 0.78624 0.37753 0.21939 0.0
O31 O 0.71261 0.32102 0.21714 0.0
C32 C 0.67626 0.17999 0.27885 0.0
O33 O 0.67665 0.20632 0.25931 0.0
O34 O 0.70498 0.17305 0.28759 0.0
O35 O 0.74272 0.21778 0.22871 0.0
O36 O 0.73983 0.2566 0.19085 0.0
O37 O 0.791 0.18592 0.28705 0.0
C38 C 0.75314 0.27557 0.29951 0.0
C39 C 0.73793 0.22482 0.19797 0.0
Zn40 Zn 0.7897 0.72995 0.23488 0.0
Zn41 Zn 0.70755 0.75765 0.24654 0.0
C42 C 0.83445 0.71843 0.28884 0.0
O43 O 0.85585 0.74293 0.27212 0.0
C44 C 0.65902 0.7786 0.20301 0.0
O45 O 0.63881 0.75506 0.22143 0.0
O46 O 0.81627 0.71282 0.20253 0.0
O47 O 0.73927 0.71546 0.21288 0.0
O48 O 0.69057 0.70428 0.23686 0.0
C49 C 0.81311 0.67982 0.20387 0.0
O50 O 0.79391 0.66103 0.22611 0.0
O51 O 0.80085 0.70868 0.27939 0.0
C52 C 0.69596 0.80371 0.29183 0.0
O53 O 0.72334 0.82358 0.27765 0.0
O54 O 0.6826 0.77058 0.28292 0.0
O55 O 0.75947 0.77468 0.26679 0.0
O56 O 0.80655 0.78305 0.24026 0.0
O57 O 0.69278 0.78406 0.20692 0.0
C58 C 0.71173 0.69247 0.22159 0.0
C59 C 0.78736 0.79625 0.25691 0.0
Zn60 Zn 0.21847 0.76952 0.25309 0.0
Zn61 Zn 0.27594 0.71568 0.23375 0.0
C62 C 0.16043 0.73548 0.29047 0.0
O63 O 0.1478 0.76076 0.27966 0.0
C64 C 0.3326 0.76589 0.20772 0.0
O65 O 0.35021 0.74897 0.22677 0.0
O66 O 0.2041 0.81422 0.26132 0.0
O67 O 0.27092 0.77483 0.26698 0.0
O68 O 0.29275 0.73179 0.28189 0.0
C69 C 0.21979 0.83621 0.28633 0.0
O70 O 0.25038 0.83462 0.30091 0.0
O71 O 0.19034 0.73423 0.28249 0.0
C72 C 0.28357 0.67406 0.17953 0.0
O73 O 0.27308 0.69958 0.16609 0.0
O74 O 0.28694 0.67335 0.21169 0.0
O75 O 0.22374 0.70735 0.23155 0.0
O76 O 0.20314 0.74586 0.20577 0.0
O77 O 0.29887 0.75745 0.20756 0.0
C78 C 0.28238 0.7582 0.29019 0.0
C79 C 0.20915 0.71597 0.20503 0.0
Zn80 Zn 0.259 0.78515 0.69879 0.0
Zn81 Zn 0.25114 0.71395 0.77491 0.0
C82 C 0.21665 0.81713 0.65568 0.0
O83 O 0.23619 0.81057 0.63294 0.0
C84 C 0.29987 0.69114 0.81938 0.0
O85 O 0.28793 0.70807 0.84212 0.0
O86 O 0.30794 0.81309 0.69147 0.0
O87 O 0.26177 0.77982 0.74824 0.0
O88 O 0.26519 0.76331 0.79928 0.0
C89 C 0.32197 0.84444 0.70533 0.0
O90 O 0.30208 0.86029 0.72009 0.0
O91 O 0.22228 0.80916 0.68584 0.0
C92 C 0.19243 0.65363 0.78299 0.0
O93 O 0.21427 0.63633 0.77479 0.0
O94 O 0.20304 0.68748 0.7855 0.0
O95 O 0.24762 0.71766 0.7249 0.0
O96 O 0.2457 0.73558 0.67409 0.0
O97 O 0.28747 0.68962 0.78858 0.0
C98 C 0.26823 0.78844 0.77955 0.0
C99 C 0.24164 0.70986 0.6934 0.0
Zn100 Zn 0.2854 0.21992 0.73788 0.0
Zn101 Zn 0.19586 0.25377 0.73649 0.0
C102 C 0.31967 0.20555 0.80377 0.0
O103 O 0.30422 0.22551 0.81954 0.0
C104 C 0.14219 0.26359 0.68778 0.0
O105 O 0.12231 0.23439 0.70017 0.0
O106 O 0.2919 0.20069 0.69364 0.0
O107 O 0.23491 0.20869 0.74447 0.0
O108 O 0.1801 0.20013 0.72586 0.0
C109 C 0.29001 0.16798 0.69462 0.0
O110 O 0.28093 0.15102 0.7219 0.0
O111 O 0.31409 0.20056 0.77186 0.0
C112 C 0.17789 0.29855 0.77856 0.0
O113 O 0.19512 0.31971 0.75662 0.0
O114 O 0.17382 0.2653 0.7758 0.0
O115 O 0.25077 0.27976 0.74545 0.0
O116 O 0.30409 0.27283 0.74325 0.0
O117 O 0.17546 0.27574 0.69797 0.0
C118 C 0.20644 0.18842 0.72814 0.0
C119 C 0.28501 0.29255 0.7495 0.0
Zn120 Zn 0.71082 0.27307 0.75914 0.0
Zn121 Zn 0.77738 0.22882 0.73151 0.0
C122 C 0.65697 0.23582 0.79812 0.0
O123 O 0.63857 0.25169 0.77878 0.0
C124 C 0.82671 0.27122 0.69503 0.0
O125 O 0.84455 0.25484 0.71447 0.0
O126 O 0.70475 0.32092 0.76786 0.0
O127 O 0.76119 0.27608 0.75898 0.0
O128 O 0.80349 0.25479 0.77564 0.0
C129 C 0.67694 0.32916 0.75841 0.0
O130 O 0.65279 0.30821 0.73535 0.0
O131 O 0.68992 0.24167 0.7951 0.0
C132 C 0.78552 0.18158 0.68398 0.0
O133 O 0.7674 0.1997 0.66726 0.0
O134 O 0.79266 0.18759 0.71586 0.0
O135 O 0.72315 0.21319 0.73513 0.0
O136 O 0.68744 0.24302 0.71636 0.0
O137 O 0.79368 0.26572 0.69785 0.0
C138 C 0.78547 0.27544 0.78172 0.0
C139 C 0.69952 0.21671 0.71271 0.0
Zn140 Zn 0.71331 0.77288 0.73735 0.0
Zn141 Zn 0.77811 0.71829 0.74259 0.0
C142 C 0.68883 0.8017 0.79065 0.0
O143 O 0.66194 0.77349 0.7786 0.0
C144 C 0.80362 0.69774 0.68444 0.0
O145 O 0.82985 0.72644 0.69673 0.0
O146 O 0.67307 0.78017 0.70642 0.0
O147 O 0.75677 0.7888 0.70901 0.0
O148 O 0.80144 0.77138 0.73155 0.0
C149 C 0.67634 0.81317 0.70417 0.0
O150 O 0.70491 0.83766 0.71938 0.0
O151 O 0.71798 0.80903 0.77705 0.0
C152 C 0.81543 0.67303 0.76787 0.0
O153 O 0.78901 0.65028 0.74813 0.0
O154 O 0.81665 0.70564 0.77135 0.0
O155 O 0.73327 0.6963 0.76817 0.0
O156 O 0.69363 0.72492 0.75948 0.0
O157 O 0.77475 0.68894 0.69854 0.0
C158 C 0.78951 0.78996 0.71069 0.0
C159 C 0.70269 0.69936 0.77219 0.0
C160 C 0.92061 0.07351 0.5371 0.0
C161 C 0.95507 0.07295 0.4375 0.0
C162 C 0.93648 0.93686 0.44725 0.0
Mg163 Mg 0.99264 0.07882 0.5093 0.0
O164 O 0.97342 0.02916 0.51269 0.0
Mg165 Mg 0.92472 0.00447 0.48774 0.0
Mg166 Mg -0.00052 -0.0018 0.49418 0.0
O167 O 0.02507 0.96742 0.47476 0.0
Mg168 Mg 0.00633 0.91716 0.47504 0.0
Mg169 Mg 0.07475 0.99254 0.49662 0.0
C170 C 0.063 0.06071 0.53972 0.0
C171 C 0.05698 0.04624 0.44253 0.0
O172 O 0.90591 0.04314 0.52032 0.0
O173 O 0.95373 0.09177 0.53694 0.0
O174 O 0.9332 0.04363 0.44542 0.0
O175 O 0.98228 0.0911 0.45765 0.0
O176 O 0.04595 0.08336 0.534 0.0
O177 O 0.04993 0.02761 0.52893 0.0
C178 C 0.93951 0.95093 0.54459 0.0
O179 O 0.97166 0.95719 0.53596 0.0
O180 O 0.9181 0.96583 0.53003 0.0
O181 O 0.0918 0.95524 0.45953 0.0
O182 O 0.04403 0.90631 0.44378 0.0
O183 O 0.06792 0.95205 0.53711 0.0
C184 C 0.07654 0.92549 0.44176 0.0
O185 O 0.01888 0.9043 0.52644 0.0
O186 O 0.9525 0.91311 0.45089 0.0
C187 C 0.04696 0.92251 0.54568 0.0
O188 O 0.9507 0.96916 0.45939 0.0
O189 O 0.02535 0.039 0.45228 0.0
O190 O 0.07947 0.03204 0.45585 0.0
C191 C 0.4112 0.06783 0.04804 0.0
C192 C 0.44702 0.07312 0.94942 0.0
C193 C 0.43258 0.93665 0.94822 0.0
Mg194 Mg 0.4847 0.07449 0.02061 0.0
O195 O 0.46652 0.02434 0.02057 0.0
Mg196 Mg 0.41805 0.0009 -0.00486 0.0
Mg197 Mg 0.49404 -0.00385 -0.00123 0.0
O198 O 0.52209 0.96888 0.97707 0.0
Mg199 Mg 0.50551 0.91889 0.97109 0.0
Mg200 Mg 0.57079 0.99249 0.00228 0.0
C201 C 0.55607 0.05603 0.04742 0.0
C202 C 0.54955 0.04987 0.95497 0.0
O203 O 0.39692 0.03734 0.03103 0.0
O204 O 0.44447 0.08586 0.04816 0.0
O205 O 0.42518 0.04335 0.95644 0.0
O206 O 0.47516 0.08943 0.9694 0.0
O207 O 0.53863 0.0787 0.04457 0.0
O208 O 0.54317 0.02346 0.03525 0.0
C209 C 0.43893 0.94492 0.04443 0.0
O210 O 0.47018 0.95315 0.03444 0.0
O211 O 0.41545 0.95948 0.03387 0.0
O212 O 0.59267 0.95961 0.96409 0.0
O213 O 0.54524 0.91466 0.93915 0.0
O214 O 0.56468 0.94696 0.03887 0.0
C215 C 0.57868 0.93279 0.94222 0.0
O216 O 0.51878 0.89864 0.01899 0.0
O217 O 0.45065 0.91445 0.94955 0.0
C218 C 0.54486 0.91469 0.04138 0.0
O219 O 0.44508 0.96847 0.96246 0.0
O220 O 0.51748 0.03904 0.96291 0.0
O221 O 0.57381 0.03671 0.96638 0.0
C222 C 0.91714 0.56632 0.03094 0.0
C223 C 0.93929 0.55444 0.92804 0.0
C224 C 0.92615 0.42073 0.95917 0.0
Mg225 Mg 0.98426 0.56946 -0.00395 0.0
O226 O 0.96776 0.52144 0.00672 0.0
Mg227 Mg 0.91793 0.49291 0.98722 0.0
Mg228 Mg 0.99277 0.4906 0.98757 0.0
O229 O 0.01758 0.45964 0.9681 0.0
Mg230 Mg 0.00206 0.41184 0.97994 0.0
Mg231 Mg 0.06781 0.4893 0.98536 0.0
C232 C 0.05852 0.56035 0.02157 0.0
C233 C 0.03475 0.53188 0.92948 0.0
O234 O 0.90125 0.53412 0.01845 0.0
O235 O 0.94901 0.58466 0.02585 0.0
O236 O 0.91858 0.52708 0.94061 0.0
O237 O 0.96883 0.57362 0.94414 0.0
O238 O 0.03998 0.58133 0.015 0.0
O239 O 0.04531 0.52632 0.01566 0.0
C240 C 0.94834 0.44877 0.04391 0.0
O241 O 0.97854 0.45765 0.03204 0.0
O242 O 0.922 0.45897 0.03199 0.0
O243 O 0.08321 0.44784 0.95326 0.0
O244 O 0.03708 0.39577 0.94997 0.0
O245 O 0.07083 0.45595 0.03112 0.0
C246 C 0.06815 0.4147 0.94317 0.0
O247 O 0.02118 0.40944 0.03161 0.0
O248 O 0.94453 0.39949 0.96567 0.0
C249 C 0.05193 0.42885 0.04526 0.0
O250 O 0.94072 0.45478 0.96026 0.0
O251 O 0.00568 0.52349 0.94306 0.0
O252 O 0.06166 0.52224 0.94042 0.0
C253 C 0.4108 0.56018 0.02845 0.0
C254 C 0.44905 0.56212 0.92987 0.0
C255 C 0.43781 0.42595 0.94158 0.0
Mg256 Mg 0.48518 0.5696 0.00263 0.0
O257 O 0.46772 0.51979 0.00524 0.0
Mg258 Mg 0.4202 0.49294 0.97941 0.0
Mg259 Mg 0.49661 0.49025 0.99004 0.0
O260 O 0.52552 0.46099 0.97459 0.0
Mg261 Mg 0.50812 0.41076 0.97574 0.0
Mg262 Mg 0.57283 0.488 0.00082 0.0
C263 C 0.55628 0.55534 0.03602 0.0
C264 C 0.55857 0.54044 0.94308 0.0
O265 O 0.39742 0.53011 0.01081 0.0
O266 O 0.44386 0.57922 0.02932 0.0
O267 O 0.42843 0.53211 0.93778 0.0
O268 O 0.47573 0.58102 0.95029 0.0
O269 O 0.53901 0.57746 0.02865 0.0
O270 O 0.54336 0.52182 0.02709 0.0
C271 C 0.43541 0.4425 0.03871 0.0
O272 O 0.4683 0.45005 0.03198 0.0
O273 O 0.41369 0.45523 0.02165 0.0
O274 O 0.59538 0.45225 0.968 0.0
O275 O 0.55006 0.40202 0.94943 0.0
O276 O 0.56317 0.44752 0.04206 0.0
C277 C 0.58265 0.42227 0.95022 0.0
O278 O 0.51638 0.3983 0.02774 0.0
O279 O 0.45503 0.40359 0.94809 0.0
C280 C 0.54205 0.41731 0.04909 0.0
O281 O 0.44991 0.4588 0.95305 0.0
O282 O 0.52513 0.53064 0.94841 0.0
O283 O 0.58074 0.52823 0.96012 0.0
C284 C 0.9094 0.55284 0.54275 0.0
C285 C 0.94755 0.5788 0.44751 0.0
C286 C 0.94033 0.4378 0.43192 0.0
Mg287 Mg 0.98402 0.56897 0.51755 0.0
O288 O 0.96833 0.51946 0.50838 0.0
Mg289 Mg 0.92104 0.49745 0.48021 0.0
Mg290 Mg -0.0013 0.49439 0.4873 0.0
O291 O 0.02883 0.46918 0.46574 0.0
Mg292 Mg 0.01075 0.41934 0.46077 0.0
Mg293 Mg 0.07557 0.49026 0.49492 0.0
C294 C 0.05738 0.55208 0.54141 0.0
C295 C 0.05785 0.55107 0.44949 0.0
O296 O 0.89653 0.52776 0.51893 0.0
O297 O 0.94288 0.57042 0.54844 0.0
O298 O 0.92837 0.54583 0.44674 0.0
O299 O 0.9721 0.59336 0.47168 0.0
O300 O 0.03846 0.57348 0.53957 0.0
O301 O 0.04577 0.51995 0.52757 0.0
C302 C 0.93973 0.43669 0.52492 0.0
O303 O 0.97262 0.44855 0.51937 0.0
O304 O 0.91613 0.45053 0.51311 0.0
O305 O 0.09995 0.45708 0.45781 0.0
O306 O 0.05291 0.4105 0.43524 0.0
O307 O 0.06547 0.44268 0.52922 0.0
C308 C 0.08649 0.428 0.43839 0.0
O309 O 0.01546 0.39871 0.50961 0.0
O310 O 0.95872 0.41602 0.43471 0.0
C311 C 0.0421 0.41227 0.53195 0.0
O312 O 0.95146 0.4693 0.44702 0.0
O313 O 0.0251 0.53988 0.45567 0.0
O314 O 0.08132 0.53678 0.46099 0.0
C315 C 0.41893 0.06821 0.53516 0.0
C316 C 0.43883 0.05941 0.4343 0.0
C317 C 0.42894 0.9225 0.4595 0.0
Mg318 Mg 0.48699 0.07289 0.50081 0.0
O319 O 0.4704 0.02385 0.50834 0.0
Mg320 Mg 0.42027 -0.005 0.49039 0.0
Mg321 Mg 0.49491 0.99326 0.48783 0.0
O322 O 0.52003 0.96251 0.46788 0.0
Mg323 Mg 0.50542 0.91467 0.47887 0.0
Mg324 Mg 0.56991 0.99155 0.48688 0.0
C325 C 0.56128 0.06201 0.52313 0.0
C326 C 0.53753 0.03364 0.42949 0.0
O327 O 0.40457 0.03577 0.52267 0.0
O328 O 0.45085 0.0873 0.5308 0.0
O329 O 0.41911 0.031 0.44611 0.0
O330 O 0.46898 0.07832 0.4496 0.0
O331 O 0.54373 0.08434 0.51908 0.0
O332 O 0.54673 0.02852 0.51537 0.0
C333 C 0.45261 0.95119 0.54538 0.0
O334 O 0.48212 0.96042 0.53239 0.0
O335 O 0.42564 0.96074 0.53425 0.0
O336 O 0.58673 0.95095 0.45559 0.0
O337 O 0.54122 0.89857 0.45017 0.0
O338 O 0.5712 0.95858 0.53431 0.0
C339 C 0.57245 0.9181 0.44443 0.0
O340 O 0.52122 0.91189 0.53066 0.0
O341 O 0.44874 0.90246 0.46486 0.0
C342 C 0.55048 0.93129 0.54695 0.0
O343 O 0.4419 0.95688 0.46079 0.0
O344 O 0.50857 0.02675 0.44344 0.0
O345 O 0.56393 0.02324 0.44074 0.0
C346 C 0.19182 0.17142 0.32837 0.0
C347 C 0.17791 0.18163 0.29785 0.0
C348 C 0.1693 0.15036 0.35068 0.0
C349 C 0.13149 0.13881 0.34275 0.0
C350 C 0.1172 0.14909 0.31205 0.0
C351 C 0.14039 0.17023 0.29014 0.0
C352 C 0.18616 0.14024 0.38282 0.0
C353 C 0.07728 0.13745 0.30218 0.0
C354 C 0.08085 0.05511 0.38642 0.0
C355 C 0.06869 0.06944 0.41389 0.0
C356 C 0.09952 0.07703 0.36236 0.0
C357 C 0.10734 0.11479 0.36593 0.0
C358 C 0.09406 0.12937 0.39307 0.0
C359 C 0.07481 0.10659 0.41656 0.0
C360 C 0.11237 0.05974 0.33395 0.0
C361 C 0.1019 0.16931 0.39841 0.0
H362 H 0.22059 0.17984 0.33494 0.0
H363 H 0.12902 0.17785 0.26687 0.0
H364 H 0.17544 0.14924 0.40501 0.0
H365 H 0.17921 0.11066 0.38277 0.0
H366 H 0.21581 0.15214 0.38602 0.0
H367 H 0.07012 0.14815 0.278 0.0
H368 H 0.06643 0.10774 0.29957 0.0
H369 H 0.06394 0.14659 0.32231 0.0
H370 H 0.07682 0.02654 0.38441 0.0
H371 H 0.06641 0.11809 0.43811 0.0
H372 H 0.14203 0.06743 0.33759 0.0
H373 H 0.10479 0.06933 0.30935 0.0
H374 H 0.10122 0.03001 0.33266 0.0
H375 H 0.13109 0.18236 0.40537 0.0
H376 H 0.0874 0.17638 0.41871 0.0
H377 H 0.09441 0.1805 0.37468 0.0
C378 C 0.84942 0.15694 0.29922 0.0
C379 C 0.81379 0.13909 0.30447 0.0
C380 C 0.87763 0.1463 0.31467 0.0
C381 C 0.87004 0.11816 0.33688 0.0
C382 C 0.83396 0.09907 0.34101 0.0
C383 C 0.80628 0.10943 0.3243 0.0
C384 C 0.91557 0.16599 0.30822 0.0
C385 C 0.82458 0.06922 0.36483 0.0
C386 C 0.93251 0.071 0.37665 0.0
C387 C 0.94301 0.08977 0.40835 0.0
C388 C 0.91169 0.08221 0.35148 0.0
C389 C 0.89941 0.11145 0.35916 0.0
C390 C 0.91162 0.1315 0.39064 0.0
C391 C 0.934 0.12085 0.41454 0.0
C392 C 0.90091 0.06122 0.31766 0.0
C393 C 0.89812 0.16192 0.40054 0.0
H394 H 0.85529 0.17955 0.28345 0.0
H395 H 0.77879 0.0955 0.32839 0.0
H396 H 0.9298 0.18396 0.33065 0.0
H397 H 0.93036 0.14675 0.30395 0.0
H398 H 0.91648 0.1825 0.28601 0.0
H399 H 0.79518 0.05669 0.36467 0.0
H400 H 0.83618 0.04808 0.35789 0.0
H401 H 0.8362 0.07987 0.39099 0.0
H402 H 0.93926 0.04671 0.37207 0.0
H403 H 0.94152 0.1348 0.43941 0.0
H404 H 0.89927 0.07901 0.29693 0.0
H405 H 0.87414 0.04093 0.31768 0.0
H406 H 0.92014 0.04686 0.31233 0.0
H407 H 0.90247 0.18194 0.38114 0.0
H408 H 0.91145 0.17574 0.42532 0.0
H409 H 0.86884 0.15132 0.40217 0.0
C410 C 0.80301 0.85943 0.28029 0.0
C411 C 0.80733 0.82556 0.28147 0.0
C412 C 0.81877 0.88566 0.30683 0.0
C413 C 0.8398 0.87759 0.33436 0.0
C414 C 0.84415 0.8432 0.33525 0.0
C415 C 0.82762 0.81761 0.30885 0.0
C416 C 0.81284 0.92162 0.30499 0.0
C417 C 0.86631 0.83321 0.36403 0.0
C418 C 0.92003 0.93708 0.38677 0.0
C419 C 0.90878 0.93061 0.41885 0.0
C420 C 0.89596 0.92437 0.35779 0.0
C421 C 0.85998 0.90494 0.36141 0.0
C422 C 0.84753 0.90348 0.39372 0.0
C423 C 0.87245 0.91575 0.42252 0.0
C424 C 0.91006 0.92742 0.32372 0.0
C425 C 0.80866 0.88552 0.39798 0.0
H426 H 0.78682 0.86514 0.25904 0.0
H427 H 0.83002 0.79095 0.30984 0.0
H428 H 0.81621 0.93565 0.3303 0.0
H429 H 0.83238 0.93876 0.28938 0.0
H430 H 0.7856 0.91855 0.29254 0.0
H431 H 0.86801 0.80576 0.35985 0.0
H432 H 0.89392 0.85242 0.36734 0.0
H433 H 0.85438 0.83443 0.38796 0.0
H434 H 0.94828 0.94958 0.38437 0.0
H435 H 0.86387 0.91191 0.44757 0.0
H436 H 0.89187 0.93541 0.30498 0.0
H437 H 0.91131 0.90093 0.31461 0.0
H438 H 0.93732 0.94725 0.32484 0.0
H439 H 0.79113 0.88929 0.37592 0.0
H440 H 0.80134 0.89623 0.42141 0.0
H441 H 0.80362 0.85632 0.3998 0.0
C442 C 0.21239 0.87091 0.33717 0.0
C443 C 0.19978 0.85631 0.30402 0.0
C444 C 0.19119 0.88409 0.35696 0.0
C445 C 0.15674 0.88364 0.34306 0.0
C446 C 0.14476 0.8713 0.30883 0.0
C447 C 0.16622 0.85729 0.28984 0.0
C448 C 0.20496 0.89677 0.3934 0.0
C449 C 0.10879 0.87156 0.29256 0.0
C450 C 0.09125 0.87819 0.40817 0.0
C451 C 0.09607 0.91451 0.41578 0.0
C452 C 0.1098 0.86762 0.38354 0.0
C453 C 0.13286 0.89399 0.36539 0.0
C454 C 0.13592 0.93054 0.3715 0.0
C455 C 0.11807 0.94042 0.39712 0.0
C456 C 0.10575 0.82836 0.37784 0.0
C457 C 0.15857 0.95932 0.35151 0.0
H458 H 0.23823 0.87042 0.34838 0.0
H459 H 0.15624 0.8462 0.26421 0.0
H460 H 0.20476 0.92458 0.39834 0.0
H461 H 0.18708 0.87957 0.41031 0.0
H462 H 0.23262 0.89607 0.40019 0.0
H463 H 0.1069 0.86872 0.26453 0.0
H464 H 0.08736 0.84889 0.30105 0.0
H465 H 0.10359 0.8967 0.3001 0.0
H466 H 0.07375 0.8581 0.4222 0.0
H467 H 0.12089 0.96847 0.40219 0.0
H468 H 0.13197 0.82411 0.38444 0.0
H469 H 0.09724 0.81947 0.35078 0.0
H470 H 0.08588 0.81114 0.39317 0.0
H471 H 0.1873 0.9645 0.36031 0.0
H472 H 0.15246 0.98489 0.3545 0.0
H473 H 0.15437 0.95057 0.32424 0.0
C474 C 0.16435 0.83607 0.66953 0.0
C475 C 0.18765 0.83249 0.64611 0.0
C476 C 0.13631 0.84995 0.66042 0.0
C477 C 0.13161 0.86055 0.62717 0.0
C478 C 0.15519 0.85717 0.60352 0.0
C479 C 0.1828 0.8431 0.61326 0.0
C480 C 0.11164 0.85302 0.68622 0.0
C481 C 0.15137 0.86858 0.56785 0.0
C482 C 0.04923 0.86964 0.57793 0.0
C483 C 0.05995 0.90687 0.57557 0.0
C484 C 0.07034 0.85389 0.59842 0.0
C485 C 0.10278 0.87601 0.61655 0.0
C486 C 0.11074 0.91368 0.61804 0.0
C487 C 0.08899 0.92867 0.5977 0.0
C488 C 0.06016 0.81357 0.59727 0.0
C489 C 0.14467 0.93841 0.63743 0.0
H490 H 0.16784 0.8278 0.69498 0.0
H491 H 0.20068 0.84048 0.59505 0.0
H492 H 0.11095 0.88092 0.6889 0.0
H493 H 0.08394 0.83565 0.67757 0.0
H494 H 0.1199 0.84509 0.71144 0.0
H495 H 0.17202 0.86433 0.55265 0.0
H496 H 0.12454 0.85326 0.55488 0.0
H497 H 0.15361 0.89742 0.56837 0.0
H498 H 0.02643 0.8526 0.56141 0.0
H499 H 0.09687 0.95758 0.59676 0.0
H500 H 0.0667 0.80432 0.62235 0.0
H501 H 0.07561 0.80449 0.57905 0.0
H502 H 0.03117 0.80063 0.589 0.0
H503 H 0.15061 0.9279 0.66202 0.0
H504 H 0.14302 0.96581 0.64209 0.0
H505 H 0.16748 0.94048 0.62252 0.0
C506 C 0.21223 0.17345 0.66909 0.0
C507 C 0.20673 0.16197 0.70159 0.0
C508 C 0.19993 0.14915 0.64078 0.0
C509 C 0.18019 0.11315 0.64533 0.0
C510 C 0.18034 0.10045 0.6782 0.0
C511 C 0.19307 0.12533 0.70627 0.0
C512 C 0.20256 0.16327 0.60606 0.0
C513 C 0.16198 0.06166 0.68388 0.0
C514 C 0.09021 0.09236 0.59458 0.0
C515 C 0.09328 0.07154 0.56664 0.0
C516 C 0.11753 0.10391 0.62116 0.0
C517 C 0.14947 0.09505 0.61961 0.0
C518 C 0.15228 0.07259 0.59213 0.0
C519 C 0.12378 0.06071 0.56591 0.0
C520 C 0.11231 0.12667 0.6504 0.0
C521 C 0.1855 0.06204 0.58952 0.0
H522 H 0.22311 0.2019 0.66564 0.0
H523 H 0.18919 0.1165 0.73155 0.0
H524 H 0.20792 0.14388 0.58816 0.0
H525 H 0.17673 0.16702 0.59657 0.0
H526 H 0.22408 0.18946 0.60642 0.0
H527 H 0.17327 0.05408 0.70805 0.0
H528 H 0.13303 0.05729 0.6852 0.0
H529 H 0.16457 0.04381 0.66279 0.0
H530 H 0.06604 0.09963 0.59578 0.0
H531 H 0.12582 0.04395 0.54455 0.0
H532 H 0.13228 0.15385 0.65173 0.0
H533 H 0.11616 0.11452 0.67461 0.0
H534 H 0.08519 0.12967 0.6481 0.0
H535 H 0.20327 0.08091 0.57367 0.0
H536 H 0.17852 0.0347 0.57703 0.0
H537 H 0.20071 0.06281 0.61458 0.0
C538 C 0.78976 0.15024 0.63045 0.0
C539 C 0.80109 0.15868 0.66499 0.0
C540 C 0.8077 0.13343 0.61036 0.0
C541 C 0.83768 0.12496 0.62527 0.0
C542 C 0.84806 0.13156 0.6605 0.0
C543 C 0.82951 0.14839 0.68006 0.0
C544 C 0.79573 0.1266 0.57289 0.0
C545 C 0.87981 0.12255 0.67718 0.0
C546 C 0.87055 0.06245 0.57291 0.0
C547 C 0.89911 0.08678 0.55918 0.0
C548 C 0.85087 0.07443 0.5953 0.0
C549 C 0.85957 0.1116 0.60345 0.0
C550 C 0.8883 0.13633 0.58958 0.0
C551 C 0.908 0.12354 0.5678 0.0
C552 C 0.82079 0.04738 0.61019 0.0
C553 C 0.89791 0.17627 0.5974 0.0
H554 H 0.76752 0.15785 0.61878 0.0
H555 H 0.83832 0.15494 0.70678 0.0
H556 H 0.81666 0.14396 0.55868 0.0
H557 H 0.79218 0.09839 0.56468 0.0
H558 H 0.77019 0.13213 0.56585 0.0
H559 H 0.88187 0.12568 0.7052 0.0
H560 H 0.87803 0.09463 0.66958 0.0
H561 H 0.90482 0.1405 0.66874 0.0
H562 H 0.86405 0.03395 0.56669 0.0
H563 H 0.93009 0.14233 0.55717 0.0
H564 H 0.79494 0.05168 0.60194 0.0
H565 H 0.82495 0.05101 0.6382 0.0
H566 H 0.81867 0.01933 0.60257 0.0
H567 H 0.87481 0.18535 0.58883 0.0
H568 H 0.92142 0.19181 0.58498 0.0
H569 H 0.90394 0.18267 0.62509 0.0
C570 C 0.80048 0.8222 0.65637 0.0
C571 C 0.8142 0.81344 0.68768 0.0
C572 C 0.82312 0.84303 0.63388 0.0
C573 C 0.86081 0.85684 0.64287 0.0
C574 C 0.8748 0.84837 0.67462 0.0
C575 C 0.85162 0.82647 0.69617 0.0
C576 C 0.80654 0.8502 0.60025 0.0
C577 C 0.91436 0.8631 0.68621 0.0
C578 C 0.92232 0.89094 0.57221 0.0
C579 C 0.92555 0.92757 0.57287 0.0
C580 C 0.90212 0.86779 0.59507 0.0
C581 C 0.88504 0.88142 0.61982 0.0
C582 C 0.88978 0.91875 0.62142 0.0
C583 C 0.90925 0.94094 0.59785 0.0
C584 C 0.89749 0.8283 0.59154 0.0
C585 C 0.87327 0.93528 0.64748 0.0
H586 H 0.77183 0.81212 0.64904 0.0
H587 H 0.86284 0.82012 0.72014 0.0
H588 H 0.8107 0.87932 0.59905 0.0
H589 H 0.81978 0.84209 0.57946 0.0
H590 H 0.77733 0.83563 0.5958 0.0
H591 H 0.92132 0.85407 0.71132 0.0
H592 H 0.92981 0.85469 0.66759 0.0
H593 H 0.92299 0.89285 0.68776 0.0
H594 H 0.9339 0.87995 0.55264 0.0
H595 H 0.91106 0.96902 0.59848 0.0
H596 H 0.86896 0.81315 0.58331 0.0
H597 H 0.90456 0.81866 0.61627 0.0
H598 H 0.9142 0.82202 0.57288 0.0
H599 H 0.84366 0.92527 0.64212 0.0
H600 H 0.88224 0.96502 0.64775 0.0
H601 H 0.88023 0.92735 0.67306 0.0
C602 C 0.3303 0.15327 0.19036 0.0
C603 C 0.30796 0.17288 0.17877 0.0
C604 C 0.34151 0.13178 0.16795 0.0
C605 C 0.33078 0.13042 0.13281 0.0
C606 C 0.30643 0.14858 0.12121 0.0
C607 C 0.29516 0.16956 0.14442 0.0
C608 C 0.36694 0.1126 0.18174 0.0
C609 C 0.29432 0.14798 0.08406 0.0
C610 C 0.40166 0.12017 0.07867 0.0
C611 C 0.38889 0.08358 0.06793 0.0
C612 C 0.38224 0.1358 0.0985 0.0
C613 C 0.34915 0.11443 0.1084 0.0
C614 C 0.33552 0.07766 0.09699 0.0
C615 C 0.35544 0.06271 0.07675 0.0
C616 C 0.39775 0.17518 0.10964 0.0
C617 C 0.30051 0.05385 0.1071 0.0
H618 H 0.34023 0.15594 0.21698 0.0
H619 H 0.27822 0.18509 0.13543 0.0
H620 H 0.35846 0.0846 0.17068 0.0
H621 H 0.39413 0.12634 0.17467 0.0
H622 H 0.36862 0.11217 0.20973 0.0
H623 H 0.27139 0.1585 0.07962 0.0
H624 H 0.31685 0.16478 0.07123 0.0
H625 H 0.28647 0.12035 0.07218 0.0
H626 H 0.42717 0.1368 0.0717 0.0
H627 H 0.34522 0.03448 0.06859 0.0
H628 H 0.40427 0.17842 0.13752 0.0
H629 H 0.3778 0.18908 0.10302 0.0
H630 H 0.42247 0.18865 0.0979 0.0
H631 H 0.30361 0.05006 0.13458 0.0
H632 H 0.29155 0.02709 0.09317 0.0
H633 H 0.27928 0.06659 0.1025 0.0
C634 C 0.86882 0.35783 0.20448 0.0
C635 C 0.8428 0.37535 0.20284 0.0
C636 C 0.89558 0.36569 0.18261 0.0
C637 C 0.89607 0.39168 0.1589 0.0
C638 C 0.87146 0.4113 0.15898 0.0
C639 C 0.84535 0.40312 0.18131 0.0
C640 C 0.92199 0.34501 0.1837 0.0
C641 C 0.87065 0.43889 0.13357 0.0
C642 C 0.96291 0.44131 0.10408 0.0
C643 C 0.94372 0.42697 0.07283 0.0
C644 C 0.95077 0.42624 0.13378 0.0
C645 C 0.9192 0.39639 0.13137 0.0
C646 C 0.90399 0.37827 0.09952 0.0
C647 C 0.91607 0.3944 0.07033 0.0
C648 C 0.96826 0.4455 0.16736 0.0
C649 C 0.87148 0.34514 0.09593 0.0
H650 H 0.86702 0.33656 0.22154 0.0
H651 H 0.82518 0.41654 0.17991 0.0
H652 H 0.92325 0.33386 0.15807 0.0
H653 H 0.94917 0.36333 0.19275 0.0
H654 H 0.91514 0.32268 0.2008 0.0
H655 H 0.85116 0.45306 0.13843 0.0
H656 H 0.89752 0.45912 0.13402 0.0
H657 H 0.86307 0.42556 0.10773 0.0
H658 H 0.98483 0.46633 0.10551 0.0
H659 H 0.90211 0.38309 0.04572 0.0
H660 H 0.96801 0.42621 0.18709 0.0
H661 H 0.95304 0.46316 0.1754 0.0
H662 H -0.00366 0.46241 0.16573 0.0
H663 H 0.87261 0.32736 0.11675 0.0
H664 H 0.86892 0.32975 0.07141 0.0
H665 H 0.84707 0.3532 0.0969 0.0
C666 C 0.60555 0.79539 0.18043 0.0
C667 C 0.64218 0.79955 0.18022 0.0
C668 C 0.58862 0.81487 0.15974 0.0
C669 C 0.60855 0.83899 0.13783 0.0
C670 C 0.64564 0.84375 0.13772 0.0
C671 C 0.66205 0.82409 0.15901 0.0
C672 C 0.54922 0.80939 0.16116 0.0
C673 C 0.66785 0.86922 0.1147 0.0
C674 C 0.55659 0.85904 0.05953 0.0
C675 C 0.5566 0.89392 0.06786 0.0
C676 C 0.57364 0.84109 0.08195 0.0
C677 C 0.59011 0.8579 0.11401 0.0
C678 C 0.58867 0.8925 0.12318 0.0
C679 C 0.57256 0.91037 0.09973 0.0
C680 C 0.57516 0.80461 0.07082 0.0
C681 C 0.60469 0.9109 0.1575 0.0
H682 H 0.58988 0.77686 0.19695 0.0
H683 H 0.69036 0.82775 0.15883 0.0
H684 H 0.54487 0.83552 0.16619 0.0
H685 H 0.53397 0.79774 0.1364 0.0
H686 H 0.538 0.79129 0.18101 0.0
H687 H 0.69639 0.87031 0.1179 0.0
H688 H 0.65685 0.86083 0.08796 0.0
H689 H 0.66651 0.89662 0.11977 0.0
H690 H 0.54495 0.84651 0.03466 0.0
H691 H 0.57277 0.93742 0.10615 0.0
H692 H 0.56257 0.78458 0.08863 0.0
H693 H 0.6035 0.80543 0.07121 0.0
H694 H 0.56139 0.79536 0.04496 0.0
H695 H 0.59398 0.8931 0.17768 0.0
H696 H 0.59903 0.93655 0.1616 0.0
H697 H 0.63413 0.91653 0.16019 0.0
C698 C 0.19041 0.7016 0.14314 0.0
C699 C 0.19867 0.69062 0.17503 0.0
C700 C 0.17721 0.67643 0.11547 0.0
C701 C 0.17154 0.6396 0.12024 0.0
C702 C 0.18369 0.62907 0.15143 0.0
C703 C 0.19664 0.65465 0.17865 0.0
C704 C 0.16589 0.68876 0.08202 0.0
C705 C 0.17959 0.59034 0.15717 0.0
C706 C 0.08055 0.58653 0.07867 0.0
C707 C 0.08847 0.57431 0.04801 0.0
C708 C 0.10768 0.60573 0.10333 0.0
C709 C 0.14381 0.61277 0.09713 0.0
C710 C 0.15208 0.59751 0.06749 0.0
C711 C 0.12399 0.57844 0.04282 0.0
C712 C 0.09742 0.62054 0.135 0.0
C713 C 0.19028 0.60287 0.06088 0.0
H714 H 0.19304 0.72954 0.14007 0.0
H715 H 0.20384 0.64605 0.20315 0.0
H716 H 0.17414 0.6752 0.06092 0.0
H717 H 0.13625 0.68153 0.07839 0.0
H718 H 0.17755 0.71823 0.08073 0.0
H719 H 0.19924 0.58802 0.17815 0.0
H720 H 0.15229 0.5768 0.16408 0.0
H721 H 0.1831 0.57597 0.134 0.0
H722 H 0.05282 0.58242 0.08268 0.0
H723 H 0.12981 0.56832 0.01915 0.0
H724 H 0.10662 0.65027 0.13587 0.0
H725 H 0.11054 0.61244 0.15782 0.0
H726 H 0.06803 0.61114 0.13629 0.0
H727 H 0.20018 0.62769 0.0474 0.0
H728 H 0.19209 0.58016 0.04464 0.0
H729 H 0.20824 0.60571 0.08471 0.0
C730 C 0.32251 0.84086 0.79132 0.0
C731 C 0.28574 0.82559 0.79283 0.0
C732 C 0.34253 0.87061 0.8129 0.0
C733 C 0.32526 0.88437 0.83705 0.0
C734 C 0.2874 0.87267 0.83464 0.0
C735 C 0.26795 0.84264 0.81296 0.0
C736 C 0.38271 0.88378 0.81309 0.0
C737 C 0.26785 0.88883 0.85793 0.0
C738 C 0.37779 0.89004 0.92205 0.0
C739 C 0.39874 0.92611 0.92566 0.0
C740 C 0.3515 0.87693 0.89461 0.0
C741 C 0.34631 0.9005 0.86985 0.0
C742 C 0.36505 0.93769 0.87508 0.0
C743 C 0.39111 0.95015 0.90316 0.0
C744 C 0.33146 0.83714 0.89077 0.0
C745 C 0.36 0.9641 0.85002 0.0
H746 H 0.33614 0.82756 0.77559 0.0
H747 H 0.23931 0.83095 0.81366 0.0
H748 H 0.39315 0.91343 0.81675 0.0
H749 H 0.3951 0.87262 0.8344 0.0
H750 H 0.39111 0.87536 0.78918 0.0
H751 H 0.2398 0.88452 0.84698 0.0
H752 H 0.26715 0.87596 0.88235 0.0
H753 H 0.28171 0.91802 0.86316 0.0
H754 H 0.38351 0.8716 0.93969 0.0
H755 H 0.40741 0.97816 0.90586 0.0
H756 H 0.33898 0.82495 0.86829 0.0
H757 H 0.30217 0.83241 0.88687 0.0
H758 H 0.33729 0.82302 0.91321 0.0
H759 H 0.3812 0.96886 0.83273 0.0
H760 H 0.36284 0.99029 0.86324 0.0
H761 H 0.33353 0.95432 0.8346 0.0
C762 C 0.13058 0.29435 0.81622 0.0
C763 C 0.16354 0.31355 0.80569 0.0
C764 C 0.11538 0.30999 0.84022 0.0
C765 C 0.13459 0.34479 0.85479 0.0
C766 C 0.16871 0.36346 0.84536 0.0
C767 C 0.1823 0.34793 0.82006 0.0
C768 C 0.07822 0.29009 0.84876 0.0
C769 C 0.1904 0.40009 0.86136 0.0
C770 C 0.08346 0.40308 0.88671 0.0
C771 C 0.08641 0.39805 0.92122 0.0
C772 C 0.09879 0.38544 0.86464 0.0
C773 C 0.11787 0.36295 0.87788 0.0
C774 C 0.12132 0.35832 0.91298 0.0
C775 C 0.10506 0.37579 0.93437 0.0
C776 C 0.09424 0.39056 0.82722 0.0
C777 C 0.1422 0.33511 0.92783 0.0
H778 H 0.116 0.26787 0.80455 0.0
H779 H 0.20758 0.36266 0.81142 0.0
H780 H 0.07834 0.28769 0.87643 0.0
H781 H 0.05978 0.30539 0.8411 0.0
H782 H 0.06742 0.2628 0.83588 0.0
H783 H 0.21776 0.40946 0.85333 0.0
H784 H 0.17668 0.4199 0.85439 0.0
H785 H 0.19271 0.39961 0.88932 0.0
H786 H 0.06859 0.42028 0.87699 0.0
H787 H 0.10688 0.37214 0.96129 0.0
H788 H 0.08188 0.36418 0.81295 0.0
H789 H 0.12078 0.40303 0.81825 0.0
H790 H 0.07729 0.40779 0.82107 0.0
H791 H 0.13006 0.3071 0.91702 0.0
H792 H 0.14301 0.33514 0.95579 0.0
H793 H 0.17008 0.34469 0.92111 0.0
C794 C 0.60623 0.20994 0.83186 0.0
C795 C 0.63893 0.20958 0.82134 0.0
C796 C 0.58847 0.18461 0.85349 0.0
C797 C 0.6036 0.15811 0.8642 0.0
C798 C 0.63636 0.15732 0.85322 0.0
C799 C 0.65387 0.18338 0.83217 0.0
C800 C 0.55386 0.18647 0.86526 0.0
C801 C 0.65289 0.12894 0.86365 0.0
C802 C 0.58382 0.11184 0.94487 0.0
C803 C 0.55942 0.07884 0.93239 0.0
C804 C 0.59689 0.1388 0.923 0.0
C805 C 0.586 0.13182 0.88788 0.0
C806 C 0.56047 0.0987 0.87535 0.0
C807 C 0.54705 0.07258 0.89801 0.0
C808 C 0.62344 0.17414 0.93729 0.0
C809 C 0.54897 0.09008 0.83797 0.0
H810 H 0.59474 0.2303 0.82352 0.0
H811 H 0.67896 0.18284 0.8237 0.0
H812 H 0.53208 0.16084 0.85822 0.0
H813 H 0.55695 0.19046 0.89324 0.0
H814 H 0.54553 0.20861 0.85434 0.0
H815 H 0.67756 0.1311 0.85149 0.0
H816 H 0.65977 0.13128 0.89147 0.0
H817 H 0.63337 0.10186 0.85689 0.0
H818 H 0.59311 0.11625 0.97167 0.0
H819 H 0.5283 0.04667 0.88872 0.0
H820 H 0.6152 0.19677 0.92751 0.0
H821 H 0.65015 0.17681 0.92912 0.0
H822 H 0.6261 0.17657 0.96536 0.0
H823 H 0.54005 0.11168 0.82675 0.0
H824 H 0.52692 0.06424 0.83268 0.0
H825 H 0.57212 0.08842 0.82506 0.0
C826 C 0.85212 0.63227 0.77102 0.0
C827 C 0.84241 0.65995 0.78615 0.0
C828 C 0.8738 0.61569 0.78942 0.0
C829 C 0.88488 0.62634 0.82401 0.0
C830 C 0.87701 0.65587 0.8388 0.0
C831 C 0.85614 0.6727 0.81945 0.0
C832 C 0.8829 0.58536 0.77238 0.0
C833 C 0.88828 0.66793 0.87569 0.0
C834 C 0.88968 0.55693 0.88591 0.0
C835 C 0.92647 0.56743 0.89651 0.0
C836 C 0.87599 0.57493 0.86107 0.0
C837 C 0.8998 0.60358 0.84596 0.0
C838 C 0.93723 0.61204 0.85423 0.0
C839 C 0.95015 0.59405 0.87973 0.0
C840 C 0.83585 0.56497 0.85285 0.0
C841 C 0.96356 0.64146 0.83777 0.0
H842 H 0.84197 0.62294 0.74495 0.0
H843 H 0.84864 0.69422 0.83102 0.0
H844 H 0.91118 0.58724 0.77998 0.0
H845 H 0.86571 0.55942 0.78028 0.0
H846 H 0.87854 0.58519 0.74438 0.0
H847 H 0.88268 0.69307 0.88254 0.0
H848 H 0.87366 0.64667 0.89152 0.0
H849 H 0.91731 0.67227 0.88199 0.0
H850 H 0.87124 0.53626 0.89864 0.0
H851 H 0.97872 0.60189 0.88746 0.0
H852 H 0.82832 0.55992 0.82517 0.0
H853 H 0.82682 0.58759 0.86116 0.0
H854 H 0.8212 0.54074 0.86539 0.0
H855 H 0.95512 0.64095 0.81033 0.0
H856 H 0.99099 0.63923 0.84121 0.0
H857 H 0.96465 0.66786 0.84932 0.0
C858 C 0.15778 0.35689 0.19313 0.0
C859 C 0.16332 0.32626 0.17914 0.0
C860 C 0.13577 0.37348 0.17532 0.0
C861 C 0.12091 0.36037 0.14194 0.0
C862 C 0.12642 0.32931 0.12765 0.0
C863 C 0.14693 0.31202 0.14687 0.0
C864 C 0.12924 0.40558 0.19187 0.0
C865 C 0.11231 0.31554 0.09154 0.0
C866 C 0.04838 0.38926 0.09357 0.0
C867 C 0.06886 0.41603 0.07466 0.0
C868 C 0.065 0.372 0.11701 0.0
C869 C 0.1028 0.3812 0.12081 0.0
C870 C 0.12359 0.40947 0.10308 0.0
C871 C 0.10635 0.42691 0.08062 0.0
C872 C 0.04207 0.34288 0.1365 0.0
C873 C 0.164 0.41979 0.10611 0.0
H874 H 0.17081 0.36802 0.21799 0.0
H875 H 0.15172 0.28853 0.13604 0.0
H876 H 0.14215 0.43 0.17882 0.0
H877 H 0.1001 0.40184 0.18966 0.0
H878 H 0.13994 0.41022 0.21902 0.0
H879 H 0.11833 0.29067 0.08451 0.0
H880 H 0.08291 0.31004 0.08754 0.0
H881 H 0.12448 0.33633 0.07417 0.0
H882 H 0.01938 0.381 0.08927 0.0
H883 H 0.1224 0.44753 0.06606 0.0
H884 H 0.05311 0.34595 0.16351 0.0
H885 H 0.04204 0.31635 0.12621 0.0
H886 H 0.01392 0.34304 0.13484 0.0
H887 H 0.17544 0.42649 0.13291 0.0
H888 H 0.1762 0.44312 0.09131 0.0
H889 H 0.17192 0.39675 0.09694 0.0
C890 C 0.15761 0.60888 0.81845 0.0
C891 C 0.15849 0.63483 0.79533 0.0
C892 C 0.1277 0.59535 0.83576 0.0
C893 C 0.09745 0.60711 0.82849 0.0
C894 C 0.09742 0.63176 0.80348 0.0
C895 C 0.1285 0.64606 0.78765 0.0
C896 C 0.12937 0.56975 0.86297 0.0
C897 C 0.06553 0.64427 0.79432 0.0
C898 C 0.02995 0.5388 0.86827 0.0
C899 C 0.03812 0.55447 0.9012 0.0
C900 C 0.04392 0.55877 0.84151 0.0
C901 C 0.06721 0.59423 0.84876 0.0
C902 C 0.06975 0.6117 0.88096 0.0
C903 C 0.05529 0.59123 0.90722 0.0
C904 C 0.03879 0.54024 0.80681 0.0
C905 C 0.09276 0.65013 0.88919 0.0
H906 H 0.18123 0.6009 0.82461 0.0
H907 H 0.12959 0.66641 0.76968 0.0
H908 H 0.12528 0.58093 0.88763 0.0
H909 H 0.10784 0.54378 0.85679 0.0
H910 H 0.15544 0.56446 0.866 0.0
H911 H 0.06438 0.65156 0.76761 0.0
H912 H 0.03991 0.6236 0.79807 0.0
H913 H 0.06812 0.66861 0.81051 0.0
H914 H 0.01572 0.51033 0.86393 0.0
H915 H 0.06051 0.60314 0.93292 0.0
H916 H 0.06151 0.5299 0.80386 0.0
H917 H 0.0383 0.55921 0.78687 0.0
H918 H 0.01359 0.51721 0.80304 0.0
H919 H 0.12125 0.65133 0.89388 0.0
H920 H 0.08545 0.66168 0.91218 0.0
H921 H 0.09024 0.66685 0.86784 0.0
C922 C 0.36351 0.17155 0.80476 0.0
C923 C 0.34345 0.18844 0.82249 0.0
C924 C 0.38508 0.15379 0.82172 0.0
C925 C 0.38636 0.15259 0.85724 0.0
C926 C 0.36683 0.17028 0.87536 0.0
C927 C 0.34577 0.18819 0.85777 0.0
C928 C 0.40577 0.13561 0.80156 0.0
C929 C 0.36716 0.16917 0.91326 0.0
C930 C 0.40218 0.07476 0.90167 0.0
C931 C 0.43582 0.09109 0.92022 0.0
C932 C 0.38659 0.09401 0.87965 0.0
C933 C 0.4054 0.13032 0.87539 0.0
C934 C 0.44079 0.14595 0.89134 0.0
C935 C 0.45561 0.12616 0.91376 0.0
C936 C 0.34878 0.07624 0.86313 0.0
C937 C 0.46214 0.18419 0.88619 0.0
H938 H 0.36214 0.17187 0.77746 0.0
H939 H 0.33042 0.20121 0.8716 0.0
H940 H 0.43457 0.14535 0.81144 0.0
H941 H 0.39609 0.10627 0.80424 0.0
H942 H 0.40314 0.14043 0.77424 0.0
H943 H 0.35178 0.18553 0.92372 0.0
H944 H 0.3554 0.14106 0.91995 0.0
H945 H 0.3951 0.17912 0.92566 0.0
H946 H 0.38682 0.04747 0.90595 0.0
H947 H 0.48187 0.13879 0.92747 0.0
H948 H 0.34705 0.08004 0.83564 0.0
H949 H 0.33049 0.08886 0.87411 0.0
H950 H 0.33902 0.04704 0.86678 0.0
H951 H 0.46389 0.18786 0.85883 0.0
H952 H 0.48969 0.19201 0.89954 0.0
H953 H 0.44842 0.20266 0.89556 0.0
C954 C 0.83091 0.31656 0.823 0.0
C955 C 0.79473 0.29968 0.81225 0.0
C956 C 0.84158 0.3407 0.8513 0.0
C957 C 0.81522 0.34686 0.87033 0.0
C958 C 0.77842 0.33062 0.85902 0.0
C959 C 0.76859 0.3076 0.82954 0.0
C960 C 0.88128 0.35886 0.86107 0.0
C961 C 0.74936 0.33607 0.87842 0.0
C962 C 0.86982 0.36917 0.95182 0.0
C963 C 0.88781 0.40517 0.94711 0.0
C964 C 0.83913 0.35023 0.93033 0.0
C965 C 0.82753 0.36773 0.90325 0.0
C966 C 0.84062 0.40554 0.90353 0.0
C967 C 0.87102 0.42408 0.92565 0.0
C968 C 0.8236 0.31029 0.93259 0.0
C969 C 0.82709 0.42571 0.8767 0.0
H970 H 0.85103 0.31127 0.80881 0.0
H971 H 0.74057 0.29509 0.82074 0.0
H972 H 0.88733 0.38833 0.86412 0.0
H973 H 0.88975 0.34957 0.8855 0.0
H974 H 0.89777 0.35311 0.84192 0.0
H975 H 0.72488 0.33388 0.86117 0.0
H976 H 0.74199 0.31474 0.89644 0.0
H977 H 0.75816 0.36236 0.89308 0.0
H978 H 0.8817 0.35488 0.96979 0.0
H979 H 0.88392 0.45239 0.92299 0.0
H980 H 0.83612 0.29644 0.91518 0.0
H981 H 0.79428 0.30104 0.92495 0.0
H982 H 0.82888 0.30238 0.95861 0.0
H983 H 0.84453 0.4297 0.85595 0.0
H984 H 0.82825 0.45261 0.88719 0.0
H985 H 0.79924 0.41091 0.86591 0.0
C986 C 0.65962 0.80999 0.84117 0.0
C987 C 0.68282 0.82537 0.81736 0.0
C988 C 0.64777 0.83124 0.86315 0.0
C989 C 0.6588 0.86888 0.86085 0.0
C990 C 0.68363 0.88477 0.8379 0.0
C991 C 0.69563 0.86276 0.81652 0.0
C992 C 0.62176 0.8131 0.8875 0.0
C993 C 0.69565 0.92469 0.83432 0.0
C994 C 0.58815 0.90784 0.88686 0.0
C995 C 0.60171 0.92134 0.92011 0.0
C996 C 0.60774 0.89303 0.86651 0.0
C997 C 0.6413 0.89064 0.88006 0.0
C998 C 0.65576 0.90548 0.91323 0.0
C999 C 0.63595 0.9211 0.93275 0.0
C1000 C 0.59167 0.87837 0.831 0.0
C1001 C 0.69107 0.90287 0.92883 0.0
H1002 H 0.64976 0.78104 0.84185 0.0
H1003 H 0.71317 0.87462 0.79777 0.0
H1004 H 0.63055 0.82641 0.91326 0.0
H1005 H 0.59498 0.8154 0.87943 0.0
H1006 H 0.61899 0.7842 0.88876 0.0
H1007 H 0.7184 0.9333 0.81881 0.0
H1008 H 0.67299 0.9324 0.82202 0.0
H1009 H 0.70372 0.93948 0.85949 0.0
H1010 H 0.56182 0.90833 0.87691 0.0
H1011 H 0.64638 0.93133 0.95853 0.0
H1012 H 0.58383 0.84867 0.8296 0.0
H1013 H 0.61164 0.88809 0.81284 0.0
H1014 H 0.56758 0.88613 0.82292 0.0
H1015 H 0.68806 0.87449 0.93353 0.0
H1016 H 0.70057 0.91921 0.95318 0.0
H1017 H 0.71186 0.9117 0.9113 0.0
C1018 C 0.84638 0.68178 0.15385 0.0
C1019 C 0.8277 0.66202 0.17872 0.0
C1020 C 0.8594 0.66502 0.12902 0.0
C1021 C 0.85366 0.62776 0.12934 0.0
C1022 C 0.83487 0.6076 0.15434 0.0
C1023 C 0.82201 0.62505 0.17883 0.0
C1024 C 0.87954 0.68721 0.10264 0.0
C1025 C 0.82879 0.56781 0.15544 0.0
C1026 C 0.86447 0.5802 0.04924 0.0
C1027 C 0.90014 0.58132 0.0557 0.0
C1028 C 0.84869 0.59521 0.07322 0.0
C1029 C 0.869 0.61033 0.1044 0.0
C1030 C 0.90468 0.61027 0.11135 0.0
C1031 C 0.92004 0.59619 0.08657 0.0
C1032 C 0.81078 0.59568 0.065 0.0
C1033 C 0.92668 0.6253 0.14477 0.0
H1034 H 0.85076 0.71037 0.15369 0.0
H1035 H 0.80746 0.60969 0.198 0.0
H1036 H 0.90752 0.68659 0.10491 0.0
H1037 H 0.86697 0.67575 0.07693 0.0
H1038 H 0.88022 0.71562 0.1051 0.0
H1039 H 0.81307 0.556 0.1763 0.0
H1040 H 0.81438 0.5537 0.13117 0.0
H1041 H 0.85492 0.56272 0.15879 0.0
H1042 H 0.84936 0.56847 0.0252 0.0
H1043 H 0.94752 0.59627 0.0915 0.0
H1044 H 0.81052 0.6238 0.06534 0.0
H1045 H 0.79388 0.58226 0.08446 0.0
H1046 H 0.79852 0.58221 0.03981 0.0
H1047 H 0.93073 0.65444 0.14813 0.0
H1048 H 0.95335 0.62126 0.14668 0.0
H1049 H 0.91225 0.61239 0.16593 0.0
C1050 C 0.33123 0.80195 0.1578 0.0
C1051 C 0.35113 0.79178 0.18435 0.0
C1052 C 0.34831 0.82572 0.13473 0.0
C1053 C 0.38613 0.84003 0.13868 0.0
C1054 C 0.40644 0.8297 0.16524 0.0
C1055 C 0.38863 0.80543 0.18772 0.0
C1056 C 0.32584 0.83583 0.10634 0.0
C1057 C 0.44682 0.84489 0.1703 0.0
C1058 C 0.42852 0.88342 0.06296 0.0
C1059 C 0.42973 0.91882 0.06987 0.0
C1060 C 0.41519 0.8573 0.08567 0.0
C1061 C 0.40405 0.8675 0.11613 0.0
C1062 C 0.40732 0.9038 0.12389 0.0
C1063 C 0.41958 0.92899 0.10027 0.0
C1064 C 0.41113 0.81866 0.07624 0.0
C1065 C 0.39653 0.91578 0.15649 0.0
H1066 H 0.30224 0.79106 0.15482 0.0
H1067 H 0.40407 0.79749 0.20817 0.0
H1068 H 0.32893 0.86478 0.10951 0.0
H1069 H 0.3351 0.83119 0.08168 0.0
H1070 H 0.29693 0.82035 0.10547 0.0
H1071 H 0.45871 0.83305 0.19144 0.0
H1072 H 0.45821 0.84007 0.14689 0.0
H1073 H 0.45502 0.87435 0.17571 0.0
H1074 H 0.43628 0.87592 0.03912 0.0
H1075 H 0.42085 0.95664 0.10531 0.0
H1076 H 0.38224 0.80287 0.07199 0.0
H1077 H 0.42337 0.8069 0.09713 0.0
H1078 H 0.4236 0.81569 0.05294 0.0
H1079 H 0.36703 0.9048 0.15635 0.0
H1080 H 0.4046 0.94545 0.16024 0.0
H1081 H 0.40881 0.90536 0.17838 0.0
C1082 C 0.69881 0.20014 0.14495 0.0
C1083 C 0.72229 0.19543 0.17163 0.0
C1084 C 0.67784 0.17121 0.12313 0.0
C1085 C 0.68146 0.13685 0.12725 0.0
C1086 C 0.7076 0.13256 0.15215 0.0
C1087 C 0.72734 0.16191 0.17463 0.0
C1088 C 0.64963 0.17701 0.09759 0.0
C1089 C 0.7139 0.09689 0.15561 0.0
C1090 C 0.59009 0.07196 0.10352 0.0
C1091 C 0.59035 0.06733 0.06866 0.0
C1092 C 0.62145 0.09071 0.12417 0.0
C1093 C 0.65357 0.10544 0.10922 0.0
C1094 C 0.65471 0.09687 0.0746 0.0
C1095 C 0.62272 0.07805 0.05443 0.0
C1096 C 0.61902 0.09857 0.1611 0.0
C1097 C 0.68884 0.1106 0.05822 0.0
H1098 H 0.69478 0.226 0.14256 0.0
H1099 H 0.74602 0.15847 0.19496 0.0
H1100 H 0.65274 0.16774 0.07184 0.0
H1101 H 0.62256 0.16115 0.10357 0.0
H1102 H 0.65095 0.20561 0.09727 0.0
H1103 H 0.73393 0.09758 0.17738 0.0
H1104 H 0.68854 0.07552 0.15867 0.0
H1105 H 0.72366 0.08936 0.13216 0.0
H1106 H 0.56481 0.06307 0.11427 0.0
H1107 H 0.62266 0.07396 0.02736 0.0
H1108 H 0.62034 0.12699 0.16532 0.0
H1109 H 0.64176 0.09461 0.17717 0.0
H1110 H 0.59364 0.08127 0.16953 0.0
H1111 H 0.69334 0.13896 0.05248 0.0
H1112 H 0.68752 0.09487 0.03418 0.0
H1113 H 0.71218 0.10958 0.0755 0.0
C1114 C 0.68301 0.64238 0.80448 0.0
C1115 C 0.67814 0.67476 0.79467 0.0
C1116 C 0.66104 0.62032 0.8268 0.0
C1117 C 0.63374 0.6309 0.84073 0.0
C1118 C 0.62867 0.66347 0.83084 0.0
C1119 C 0.65038 0.6845 0.80788 0.0
C1120 C 0.66742 0.58574 0.83585 0.0
C1121 C 0.60092 0.67682 0.84538 0.0
C1122 C 0.55955 0.56166 0.88308 0.0
C1123 C 0.57379 0.56661 0.91726 0.0
C1124 C 0.57842 0.58232 0.858 0.0
C1125 C 0.61217 0.60924 0.86713 0.0
C1126 C 0.6257 0.6152 0.90188 0.0
C1127 C 0.6068 0.59368 0.92613 0.0
C1128 C 0.56293 0.57426 0.82146 0.0
C1129 C 0.66076 0.64393 0.91354 0.0
H1130 H 0.70412 0.6342 0.7947 0.0
H1131 H 0.64613 0.70934 0.80105 0.0
H1132 H 0.677 0.58734 0.86314 0.0
H1133 H 0.64196 0.56313 0.83133 0.0
H1134 H 0.68752 0.57968 0.82108 0.0
H1135 H 0.59973 0.70231 0.83494 0.0
H1136 H 0.57406 0.6564 0.84015 0.0
H1137 H 0.60711 0.68122 0.87326 0.0
H1138 H 0.53457 0.54039 0.87565 0.0
H1139 H 0.61833 0.59766 0.95234 0.0
H1140 H 0.58112 0.56453 0.80701 0.0
H1141 H 0.56083 0.599 0.81017 0.0
H1142 H 0.53601 0.55365 0.81837 0.0
H1143 H 0.68303 0.63718 0.90305 0.0
H1144 H 0.66642 0.6471 0.94153 0.0
H1145 H 0.66047 0.67004 0.90403 0.0
C1146 C 0.3439 0.6604 0.8051 0.0
C1147 C 0.32696 0.67358 0.82952 0.0
C1148 C 0.36895 0.64284 0.81449 0.0
C1149 C 0.37661 0.63775 0.84903 0.0
C1150 C 0.36003 0.65157 0.8738 0.0
C1151 C 0.33566 0.66955 0.86375 0.0
C1152 C 0.38646 0.62904 0.78741 0.0
C1153 C 0.36718 0.64642 0.91095 0.0
C1154 C 0.40247 0.56025 0.88263 0.0
C1155 C 0.43638 0.5782 0.90002 0.0
C1156 C 0.38374 0.57872 0.86293 0.0
C1157 C 0.39975 0.61583 0.85975 0.0
C1158 C 0.43598 0.63276 0.87287 0.0
C1159 C 0.45387 0.6138 0.89324 0.0
C1160 C 0.34521 0.5594 0.84937 0.0
C1161 C 0.45464 0.67183 0.86836 0.0
H1162 H 0.33751 0.66368 0.77857 0.0
H1163 H 0.32275 0.67971 0.88275 0.0
H1164 H 0.41556 0.63507 0.79511 0.0
H1165 H 0.37452 0.59949 0.78357 0.0
H1166 H 0.3828 0.64079 0.76287 0.0
H1167 H 0.35237 0.65912 0.92697 0.0
H1168 H 0.35921 0.61736 0.91518 0.0
H1169 H 0.39622 0.65803 0.91946 0.0
H1170 H 0.38885 0.53254 0.88709 0.0
H1171 H 0.48038 0.62771 0.90588 0.0
H1172 H 0.33898 0.56709 0.82356 0.0
H1173 H 0.32733 0.56702 0.8659 0.0
H1174 H 0.33892 0.5298 0.8487 0.0
H1175 H 0.44724 0.679 0.8426 0.0
H1176 H 0.48423 0.67857 0.87278 0.0
H1177 H 0.44622 0.68853 0.88674 0.0
C1178 C 0.28488 0.34296 0.78941 0.0
C1179 C 0.3033 0.32767 0.76817 0.0
C1180 C 0.30352 0.36819 0.81592 0.0
C1181 C 0.34123 0.37763 0.82142 0.0
C1182 C 0.36002 0.36637 0.7971 0.0
C1183 C 0.34078 0.34167 0.77055 0.0
C1184 C 0.28226 0.38199 0.83935 0.0
C1185 C 0.40039 0.37679 0.80139 0.0
C1186 C 0.40056 0.4399 0.89322 0.0
C1187 C 0.40685 0.41491 0.91537 0.0
C1188 C 0.3776 0.42849 0.86306 0.0
C1189 C 0.36029 0.39143 0.85542 0.0
C1190 C 0.36382 0.36651 0.87933 0.0
C1191 C 0.38739 0.37855 0.90889 0.0
C1192 C 0.37301 0.45576 0.83877 0.0
C1193 C 0.34429 0.32683 0.87279 0.0
H1194 H 0.25604 0.33283 0.78764 0.0
H1195 H 0.35529 0.33078 0.75364 0.0
H1196 H 0.2988 0.39912 0.86137 0.0
H1197 H 0.26824 0.39818 0.82487 0.0
H1198 H 0.26156 0.35914 0.84864 0.0
H1199 H 0.41101 0.37117 0.77771 0.0
H1200 H 0.41262 0.40567 0.80938 0.0
H1201 H 0.4089 0.36128 0.82143 0.0
H1202 H 0.41549 0.46812 0.8982 0.0
H1203 H 0.39184 0.35929 0.92622 0.0
H1204 H 0.34458 0.45499 0.83591 0.0
H1205 H 0.37959 0.44916 0.8134 0.0
H1206 H 0.39019 0.4834 0.84741 0.0
H1207 H 0.31517 0.32213 0.86653 0.0
H1208 H 0.34814 0.31139 0.89489 0.0
H1209 H 0.35406 0.31624 0.85079 0.0
C1210 C 0.69251 0.37414 0.80756 0.0
C1211 C 0.66726 0.35424 0.78117 0.0
C1212 C 0.6819 0.39 0.83494 0.0
C1213 C 0.64526 0.38624 0.83567 0.0
C1214 C 0.62019 0.36926 0.80759 0.0
C1215 C 0.6315 0.35339 0.7806 0.0
C1216 C 0.70944 0.40814 0.8643 0.0
C1217 C 0.58096 0.36552 0.80714 0.0
C1218 C 0.60554 0.37974 0.91908 0.0
C1219 C 0.60376 0.41436 0.92448 0.0
C1220 C 0.62064 0.37075 0.89097 0.0
C1221 C 0.6326 0.39665 0.86711 0.0
C1222 C 0.63128 0.43184 0.87282 0.0
C1223 C 0.61742 0.44044 0.90185 0.0
C1224 C 0.62277 0.33327 0.88628 0.0
C1225 C 0.64257 0.45977 0.84742 0.0
H1226 H 0.72031 0.37529 0.80802 0.0
H1227 H 0.61183 0.33828 0.76025 0.0
H1228 H 0.70663 0.43424 0.87238 0.0
H1229 H 0.70511 0.39108 0.88616 0.0
H1230 H 0.73721 0.41275 0.85802 0.0
H1231 H 0.56605 0.35645 0.78168 0.0
H1232 H 0.56874 0.34561 0.82522 0.0
H1233 H 0.57758 0.39137 0.81527 0.0
H1234 H 0.59462 0.35961 0.93654 0.0
H1235 H 0.61514 0.46701 0.90574 0.0
H1236 H 0.65039 0.33435 0.88196 0.0
H1237 H 0.6047 0.31904 0.86364 0.0
H1238 H 0.61507 0.31735 0.90849 0.0
H1239 H 0.6699 0.46228 0.84104 0.0
H1240 H 0.64213 0.48652 0.85676 0.0
H1241 H 0.62418 0.45132 0.82366 0.0
C1242 C 0.65049 0.3396 0.19077 0.0
C1243 C 0.68124 0.34457 0.17413 0.0
C1244 C 0.6218 0.35038 0.17666 0.0
C1245 C 0.62422 0.36667 0.14542 0.0
C1246 C 0.65584 0.37295 0.12929 0.0
C1247 C 0.68383 0.36168 0.14376 0.0
C1248 C 0.58869 0.34369 0.19472 0.0
C1249 C 0.65993 0.39099 0.09629 0.0
C1250 C 0.54891 0.36525 0.07951 0.0
C1251 C 0.55245 0.40182 0.08016 0.0
C1252 C 0.56963 0.3523 0.10324 0.0
C1253 C 0.59374 0.37645 0.12844 0.0
C1254 C 0.59339 0.41221 0.13203 0.0
C1255 C 0.573 0.42462 0.10756 0.0
C1256 C 0.56897 0.31388 0.09864 0.0
C1257 C 0.61761 0.43861 0.15922 0.0
H1258 H 0.64839 0.32633 0.21428 0.0
H1259 H 0.70771 0.36597 0.131 0.0
H1260 H 0.58196 0.36884 0.19799 0.0
H1261 H 0.56559 0.32406 0.17926 0.0
H1262 H 0.59203 0.33313 0.21993 0.0
H1263 H 0.68646 0.39427 0.08732 0.0
H1264 H 0.63877 0.375 0.07648 0.0
H1265 H 0.65665 0.41787 0.09929 0.0
H1266 H 0.53294 0.34748 0.05846 0.0
H1267 H 0.57531 0.45283 0.10848 0.0
H1268 H 0.57012 0.30188 0.12337 0.0
H1269 H 0.59285 0.31308 0.08647 0.0
H1270 H 0.54464 0.29717 0.08241 0.0
H1271 H 0.62277 0.42532 0.1824 0.0
H1272 H 0.60581 0.45972 0.16601 0.0
H1273 H 0.6437 0.45185 0.14966 0.0
C1274 C 0.66099 0.63735 0.20122 0.0
C1275 C 0.69688 0.65817 0.20091 0.0
C1276 C 0.64363 0.61183 0.17464 0.0
C1277 C 0.66295 0.60686 0.14771 0.0
C1278 C 0.70042 0.6232 0.15043 0.0
C1279 C 0.71687 0.64924 0.17674 0.0
C1280 C 0.6037 0.59382 0.17323 0.0
C1281 C 0.72247 0.61678 0.12346 0.0
C1282 C 0.60282 0.5441 0.07717 0.0
C1283 C 0.58995 0.5683 0.05888 0.0
C1284 C 0.62935 0.55631 0.10473 0.0
C1285 C 0.64287 0.59341 0.11411 0.0
C1286 C 0.63281 0.61807 0.09343 0.0
C1287 C 0.60647 0.60516 0.06601 0.0
C1288 C 0.64046 0.52923 0.12519 0.0
C1289 C 0.64753 0.65808 0.10189 0.0
H1290 H 0.64555 0.64329 0.22037 0.0
H1291 H 0.74466 0.6648 0.17635 0.0
H1292 H 0.58972 0.60646 0.15439 0.0
H1293 H 0.59647 0.56501 0.16508 0.0
H1294 H 0.59374 0.59624 0.19807 0.0
H1295 H 0.75085 0.622 0.13386 0.0
H1296 H 0.71159 0.58891 0.11201 0.0
H1297 H 0.72199 0.63528 0.10311 0.0
H1298 H 0.59054 0.51551 0.07156 0.0
H1299 H 0.59728 0.62398 0.05141 0.0
H1300 H 0.6225 0.5211 0.14528 0.0
H1301 H 0.66836 0.54039 0.1375 0.0
H1302 H 0.63806 0.50479 0.10913 0.0
H1303 H 0.63857 0.66476 0.1261 0.0
H1304 H 0.63862 0.67354 0.082 0.0
H1305 H 0.67723 0.66701 0.10513 0.0
C1306 C 0.30564 0.62152 0.16941 0.0
C1307 C 0.29435 0.64955 0.15701 0.0
C1308 C 0.31989 0.60144 0.1482 0.0
C1309 C 0.32357 0.61028 0.11421 0.0
C1310 C 0.31013 0.63705 0.10115 0.0
C1311 C 0.29534 0.65601 0.12257 0.0
C1312 C 0.33284 0.5722 0.16267 0.0
C1313 C 0.31381 0.64765 0.06519 0.0
C1314 C 0.40357 0.60201 0.07366 0.0
C1315 C 0.38799 0.57246 0.05031 0.0
C1316 C 0.38299 0.61368 0.09531 0.0
C1317 C 0.34576 0.5955 0.0936 0.0
C1318 C 0.32979 0.56536 0.07047 0.0
C1319 C 0.35112 0.55416 0.04907 0.0
C1320 C 0.40106 0.64604 0.11956 0.0
C1321 C 0.29017 0.54532 0.06801 0.0
H1322 H 0.30434 0.61596 0.19582 0.0
H1323 H 0.28619 0.67726 0.1125 0.0
H1324 H 0.32468 0.54817 0.14471 0.0
H1325 H 0.36253 0.58174 0.16691 0.0
H1326 H 0.32234 0.56429 0.18714 0.0
H1327 H 0.29871 0.66631 0.05797 0.0
H1328 H 0.34251 0.66104 0.06235 0.0
H1329 H 0.30419 0.62365 0.04721 0.0
H1330 H 0.43205 0.61616 0.07517 0.0
H1331 H 0.33885 0.53117 0.03128 0.0
H1332 H 0.39599 0.63921 0.14582 0.0
H1333 H 0.3897 0.66785 0.1135 0.0
H1334 H 0.43048 0.65636 0.11858 0.0
H1335 H 0.28235 0.53726 0.09333 0.0
H1336 H 0.28233 0.52099 0.05041 0.0
H1337 H 0.2747 0.56305 0.05905 0.0
C1338 C 0.30898 0.30267 0.15233 0.0
C1339 C 0.3167 0.30972 0.18756 0.0
C1340 C 0.33193 0.32244 0.12964 0.0
C1341 C 0.3633 0.35099 0.14203 0.0
C1342 C 0.37152 0.3579 0.17765 0.0
C1343 C 0.34855 0.33698 0.19985 0.0
C1344 C 0.32203 0.31327 0.09216 0.0
C1345 C 0.4039 0.38841 0.19236 0.0
C1346 C 0.43259 0.39247 0.0796 0.0
C1347 C 0.42072 0.42046 0.0676 0.0
C1348 C 0.41487 0.37004 0.10426 0.0
C1349 C 0.38481 0.37586 0.1177 0.0
C1350 C 0.37395 0.40506 0.10662 0.0
C1351 C 0.39171 0.42656 0.08196 0.0
C1352 C 0.42754 0.33931 0.11504 0.0
C1353 C 0.34275 0.41324 0.1202 0.0
H1354 H 0.28482 0.28145 0.14235 0.0
H1355 H 0.35494 0.34283 0.22692 0.0
H1356 H 0.31457 0.33537 0.0802 0.0
H1357 H 0.34532 0.31035 0.08028 0.0
H1358 H 0.29919 0.2881 0.08655 0.0
H1359 H 0.40832 0.38877 0.22036 0.0
H1360 H 0.42824 0.38661 0.18172 0.0
H1361 H 0.40038 0.41426 0.18538 0.0
H1362 H 0.45479 0.38724 0.0689 0.0
H1363 H 0.38236 0.44832 0.07355 0.0
H1364 H 0.40665 0.31357 0.10615 0.0
H1365 H 0.43177 0.33982 0.14302 0.0
H1366 H 0.45286 0.33997 0.10472 0.0
H1367 H 0.3177 0.39083 0.11251 0.0
H1368 H 0.33914 0.43832 0.11089 0.0
H1369 H 0.34665 0.41582 0.14824 0.0
C1370 C 0.83984 0.68627 0.64018 0.0
C1371 C 0.81082 0.67324 0.65905 0.0
C1372 C 0.85115 0.66302 0.61991 0.0
C1373 C 0.83319 0.62563 0.61859 0.0
C1374 C 0.80293 0.61237 0.63652 0.0
C1375 C 0.79197 0.63639 0.65644 0.0
C1376 C 0.88339 0.67845 0.60109 0.0
C1377 C 0.78334 0.57271 0.63612 0.0
C1378 C 0.8556 0.57239 0.54727 0.0
C1379 C 0.88512 0.5644 0.56311 0.0
C1380 C 0.83711 0.59085 0.56539 0.0
C1381 C 0.84794 0.60069 0.60027 0.0
C1382 C 0.87603 0.59014 0.61682 0.0
C1383 C 0.89465 0.57268 0.59791 0.0
C1384 C 0.80778 0.60213 0.54669 0.0
C1385 C 0.88793 0.59925 0.65411 0.0
H1386 H 0.85449 0.71473 0.64202 0.0
H1387 H 0.76976 0.62608 0.67125 0.0
H1388 H 0.90589 0.66959 0.61195 0.0
H1389 H 0.87719 0.66847 0.57411 0.0
H1390 H 0.89246 0.70823 0.60249 0.0
H1391 H 0.75826 0.567 0.64841 0.0
H1392 H 0.77667 0.56067 0.60979 0.0
H1393 H 0.80094 0.5593 0.64967 0.0
H1394 H 0.84856 0.56646 0.52025 0.0
H1395 H 0.91751 0.56649 0.61016 0.0
H1396 H 0.81718 0.63164 0.54491 0.0
H1397 H 0.78381 0.59551 0.56064 0.0
H1398 H 0.79987 0.58915 0.5207 0.0
H1399 H 0.90172 0.62852 0.65858 0.0
H1400 H 0.90661 0.58499 0.664 0.0
H1401 H 0.86448 0.59235 0.66879 0.0
C1402 C 0.36879 0.89983 0.69375 0.0
C1403 C 0.35917 0.8638 0.70087 0.0
C1404 C 0.39906 0.91477 0.6771 0.0
C1405 C 0.41958 0.89281 0.66796 0.0
C1406 C 0.4143 0.85934 0.68194 0.0
C1407 C 0.38335 0.84465 0.69773 0.0
C1408 C 0.40506 0.95155 0.66406 0.0
C1409 C 0.43786 0.83679 0.67547 0.0
C1410 C 0.41823 0.90096 0.57547 0.0
C1411 C 0.44951 0.92945 0.5744 0.0
C1412 C 0.41054 0.88478 0.60559 0.0
C1413 C 0.43454 0.89847 0.63532 0.0
C1414 C 0.46854 0.92381 0.6331 0.0
C1415 C 0.47575 0.93919 0.60227 0.0
C1416 C 0.37476 0.85602 0.6061 0.0
C1417 C 0.49592 0.9373 0.66353 0.0
H1418 H 0.35049 0.91488 0.69722 0.0
H1419 H 0.37651 0.81713 0.7048 0.0
H1420 H 0.43401 0.967 0.66691 0.0
H1421 H 0.39518 0.94885 0.63674 0.0
H1422 H 0.39066 0.96699 0.67752 0.0
H1423 H 0.43815 0.8185 0.69609 0.0
H1424 H 0.42732 0.82009 0.65147 0.0
H1425 H 0.46571 0.85381 0.67316 0.0
H1426 H 0.39881 0.89281 0.55318 0.0
H1427 H 0.50055 0.96072 0.60081 0.0
H1428 H 0.35695 0.86661 0.62022 0.0
H1429 H 0.37826 0.83258 0.61892 0.0
H1430 H 0.36107 0.84655 0.58024 0.0
H1431 H 0.49502 0.96372 0.67322 0.0
H1432 H 0.5233 0.94134 0.65632 0.0
H1433 H 0.49113 0.9187 0.68419 0.0
C1434 C 0.09135 0.26827 0.64771 0.0
C1435 C 0.12539 0.2844 0.66538 0.0
C1436 C 0.07488 0.28819 0.62708 0.0
C1437 C 0.09267 0.32517 0.62459 0.0
C1438 C 0.12673 0.3417 0.64292 0.0
C1439 C 0.1428 0.32105 0.66285 0.0
C1440 C 0.03884 0.26954 0.60737 0.0
C1441 C 0.14643 0.38115 0.64116 0.0
C1442 C 0.07388 0.36922 0.54508 0.0
C1443 C 0.05202 0.38844 0.5556 0.0
C1444 C 0.08665 0.34798 0.56715 0.0
C1445 C 0.07724 0.34598 0.60061 0.0
C1446 C 0.05445 0.3649 0.61118 0.0
C1447 C 0.04209 0.38615 0.5884 0.0
C1448 C 0.1109 0.32838 0.55486 0.0
C1449 C 0.0439 0.36337 0.64665 0.0
H1450 H 0.07777 0.23995 0.64965 0.0
H1451 H 0.16889 0.33378 0.67687 0.0
H1452 H 0.0194 0.28345 0.61303 0.0
H1453 H 0.04128 0.27072 0.57987 0.0
H1454 H 0.02788 0.24099 0.61314 0.0
H1455 H 0.17183 0.39026 0.65835 0.0
H1456 H 0.15274 0.38679 0.61495 0.0
H1457 H 0.12922 0.39725 0.64791 0.0
H1458 H 0.08156 0.37141 0.51959 0.0
H1459 H 0.02525 0.40131 0.5963 0.0
H1460 H 0.09986 0.29935 0.55869 0.0
H1461 H 0.13766 0.33855 0.56972 0.0
H1462 H 0.11441 0.33166 0.52767 0.0
H1463 H 0.03148 0.3351 0.65255 0.0
H1464 H 0.02477 0.3783 0.65039 0.0
H1465 H 0.06813 0.3749 0.665 0.0
C1466 C 0.6963 0.15865 0.6831 0.0
C1467 C 0.68323 0.18785 0.68584 0.0
C1468 C 0.68374 0.13285 0.65588 0.0
C1469 C 0.65494 0.1344 0.63282 0.0
C1470 C 0.63888 0.16151 0.63781 0.0
C1471 C 0.6541 0.18868 0.66348 0.0
C1472 C 0.70138 0.10426 0.65191 0.0
C1473 C 0.60552 0.16198 0.61612 0.0
C1474 C 0.62199 0.10415 0.54283 0.0
C1475 C 0.59387 0.07314 0.54691 0.0
C1476 C 0.64695 0.121 0.57051 0.0
C1477 C 0.64113 0.1084 0.60309 0.0
C1478 C 0.61537 0.07465 0.60632 0.0
C1479 C 0.5928 0.05678 0.57766 0.0
C1480 C 0.67737 0.15426 0.56555 0.0
C1481 C 0.60897 0.05832 0.63991 0.0
H1482 H 0.71716 0.15644 0.70173 0.0
H1483 H 0.64278 0.21025 0.66628 0.0
H1484 H 0.6836 0.07835 0.65917 0.0
H1485 H 0.7062 0.10068 0.6252 0.0
H1486 H 0.72719 0.11064 0.66827 0.0
H1487 H 0.59204 0.17934 0.62808 0.0
H1488 H 0.61271 0.17243 0.59135 0.0
H1489 H 0.58612 0.13452 0.61134 0.0
H1490 H 0.62332 0.11619 0.51869 0.0
H1491 H 0.57141 0.03214 0.58038 0.0
H1492 H 0.7014 0.1563 0.58339 0.0
H1493 H 0.6693 0.17837 0.57042 0.0
H1494 H 0.68458 0.15434 0.53925 0.0
H1495 H 0.62341 0.03836 0.64286 0.0
H1496 H 0.58007 0.04368 0.64074 0.0
H1497 H 0.61825 0.07833 0.66179 0.0
C1498 C 0.77284 0.34256 0.30332 0.0
C1499 C 0.76171 0.31022 0.31916 0.0
C1500 C 0.79295 0.37438 0.32221 0.0
C1501 C 0.80156 0.37321 0.35732 0.0
C1502 C 0.78284 0.34287 0.37391 0.0
C1503 C 0.76366 0.31119 0.3545 0.0
C1504 C 0.8098 0.40724 0.30381 0.0
C1505 C 0.78837 0.34186 0.4118 0.0
C1506 C 0.89921 0.39515 0.38795 0.0
C1507 C 0.90554 0.42498 0.41059 0.0
C1508 C 0.86609 0.37971 0.36905 0.0
C1509 C 0.83801 0.39424 0.37297 0.0
C1510 C 0.84466 0.42575 0.39422 0.0
C1511 C 0.87867 0.44104 0.41264 0.0
C1512 C 0.86104 0.34675 0.34596 0.0
C1513 C 0.81626 0.44343 0.39754 0.0
H1514 H 0.76926 0.34242 0.27607 0.0
H1515 H 0.75313 0.2866 0.367 0.0
H1516 H 0.81803 0.43197 0.32084 0.0
H1517 H 0.83386 0.40451 0.29321 0.0
H1518 H 0.79083 0.40996 0.28244 0.0
H1519 H 0.76581 0.32101 0.4212 0.0
H1520 H 0.81341 0.33545 0.41896 0.0
H1521 H 0.79108 0.36826 0.42446 0.0
H1522 H 0.92017 0.38325 0.38527 0.0
H1523 H 0.88373 0.46483 0.42923 0.0
H1524 H 0.85099 0.35074 0.31991 0.0
H1525 H 0.84111 0.32321 0.35507 0.0
H1526 H 0.88628 0.34024 0.34473 0.0
H1527 H 0.81633 0.46113 0.3764 0.0
H1528 H 0.8216 0.46027 0.4216 0.0
H1529 H 0.7891 0.4235 0.39618 0.0
C1530 C 0.6992 0.84666 0.33938 0.0
C1531 C 0.67854 0.82078 0.31441 0.0
C1532 C 0.68272 0.86394 0.36067 0.0
C1533 C 0.64506 0.85573 0.35574 0.0
C1534 C 0.62433 0.83057 0.3296 0.0
C1535 C 0.64138 0.81276 0.30955 0.0
C1536 C 0.70533 0.89005 0.38894 0.0
C1537 C 0.58427 0.82253 0.3228 0.0
C1538 C 0.59562 0.86929 0.42856 0.0
C1539 C 0.59201 0.90278 0.42258 0.0
C1540 C 0.61376 0.854 0.40729 0.0
C1541 C 0.62711 0.87226 0.37891 0.0
C1542 C 0.62298 0.90596 0.37254 0.0
C1543 C 0.60595 0.92122 0.395 0.0
C1544 C 0.61867 0.81844 0.41515 0.0
C1545 C 0.63596 0.92548 0.34182 0.0
H1546 H 0.72808 0.85278 0.34263 0.0
H1547 H 0.62582 0.79328 0.28947 0.0
H1548 H 0.69909 0.91561 0.38877 0.0
H1549 H 0.69913 0.87862 0.4136 0.0
H1550 H 0.73442 0.89604 0.38724 0.0
H1551 H 0.57273 0.80471 0.29955 0.0
H1552 H 0.5711 0.80938 0.34447 0.0
H1553 H 0.57772 0.84781 0.32007 0.0
H1554 H 0.5847 0.85538 0.45013 0.0
H1555 H 0.6025 0.94703 0.39048 0.0
H1556 H 0.64754 0.82094 0.41713 0.0
H1557 H 0.60482 0.79799 0.39432 0.0
H1558 H 0.60803 0.80864 0.4391 0.0
H1559 H 0.66544 0.93207 0.34275 0.0
H1560 H 0.62913 0.95072 0.3399 0.0
H1561 H 0.62392 0.90797 0.31852 0.0
C1562 C 0.1444 0.67476 0.31166 0.0
C1563 C 0.14056 0.7089 0.31225 0.0
C1564 C 0.12731 0.64956 0.33354 0.0
C1565 C 0.10677 0.65928 0.35708 0.0
C1566 C 0.10224 0.69354 0.35737 0.0
C1567 C 0.11892 0.71793 0.3345 0.0
C1568 C 0.13204 0.61291 0.33208 0.0
C1569 C 0.08116 0.70491 0.38273 0.0
C1570 C 0.04582 0.58298 0.39945 0.0
C1571 C 0.06879 0.58081 0.42769 0.0
C1572 C 0.05741 0.60923 0.37649 0.0
C1573 C 0.09226 0.63426 0.3828 0.0
C1574 C 0.11466 0.63342 0.41246 0.0
C1575 C 0.10281 0.6062 0.43435 0.0
C1576 C 0.03323 0.60878 0.34464 0.0
C1577 C 0.15162 0.66039 0.42044 0.0
H1578 H 0.1609 0.66779 0.29409 0.0
H1579 H 0.11622 0.74452 0.33495 0.0
H1580 H 0.1479 0.6097 0.35557 0.0
H1581 H 0.10561 0.59168 0.33039 0.0
H1582 H 0.14599 0.60859 0.31018 0.0
H1583 H 0.07911 0.73202 0.3787 0.0
H1584 H 0.05375 0.68547 0.3813 0.0
H1585 H 0.09425 0.70507 0.40868 0.0
H1586 H 0.01949 0.56311 0.39445 0.0
H1587 H 0.12022 0.60462 0.4566 0.0
H1588 H 0.04466 0.6005 0.32257 0.0
H1589 H 0.03152 0.63595 0.34057 0.0
H1590 H 0.00572 0.58997 0.34528 0.0
H1591 H 0.16958 0.6555 0.40242 0.0
H1592 H 0.16357 0.65881 0.44652 0.0
H1593 H 0.15063 0.68802 0.41754 0.0
C1594 C 0.36149 0.1891 0.32683 0.0
C1595 C 0.33353 0.16932 0.30273 0.0
C1596 C 0.38304 0.17225 0.3452 0.0
C1597 C 0.37653 0.13501 0.33884 0.0
C1598 C 0.35004 0.11562 0.31279 0.0
C1599 C 0.32866 0.13298 0.2952 0.0
C1600 C 0.41104 0.19371 0.3729 0.0
C1601 C 0.34277 0.07602 0.30489 0.0
C1602 C 0.44062 0.09042 0.38047 0.0
C1603 C 0.42234 0.07569 0.40762 0.0
C1604 C 0.42599 0.10965 0.35738 0.0
C1605 C 0.39309 0.11512 0.3626 0.0
C1606 C 0.37481 0.10044 0.39028 0.0
C1607 C 0.38944 0.08042 0.41214 0.0
C1608 C 0.44588 0.12437 0.32781 0.0
C1609 C 0.34006 0.10635 0.3972 0.0
H1610 H 0.36546 0.21731 0.33243 0.0
H1611 H 0.30756 0.1178 0.27598 0.0
H1612 H 0.40207 0.18563 0.39786 0.0
H1613 H 0.43671 0.18822 0.37133 0.0
H1614 H 0.41591 0.223 0.37174 0.0
H1615 H 0.32493 0.06612 0.28094 0.0
H1616 H 0.36821 0.07016 0.30295 0.0
H1617 H 0.32976 0.0608 0.32571 0.0
H1618 H 0.46613 0.08676 0.37727 0.0
H1619 H 0.37586 0.06971 0.43377 0.0
H1620 H 0.45725 0.15397 0.33168 0.0
H1621 H 0.42742 0.11818 0.30402 0.0
H1622 H 0.46814 0.11336 0.32475 0.0
H1623 H 0.34374 0.13549 0.3996 0.0
H1624 H 0.33016 0.09433 0.42069 0.0
H1625 H 0.31914 0.09444 0.37576 0.0
C1626 C 0.63893 0.8161 0.65142 0.0
C1627 C 0.64837 0.82476 0.68604 0.0
C1628 C 0.61809 0.83336 0.63262 0.0
C1629 C 0.60593 0.85906 0.64925 0.0
C1630 C 0.61291 0.86539 0.68476 0.0
C1631 C 0.63474 0.84863 0.7027 0.0
C1632 C 0.61132 0.82605 0.59471 0.0
C1633 C 0.59929 0.89149 0.70354 0.0
C1634 C 0.59869 0.9319 0.59237 0.0
C1635 C 0.56269 0.91845 0.57887 0.0
C1636 C 0.61264 0.914 0.61719 0.0
C1637 C 0.5899 0.88215 0.62886 0.0
C1638 C 0.5528 0.87065 0.61795 0.0
C1639 C 0.5396 0.88898 0.59303 0.0
C1640 C 0.65231 0.92756 0.62881 0.0
C1641 C 0.52748 0.83747 0.63055 0.0
H1642 H 0.64985 0.79777 0.63874 0.0
H1643 H 0.64211 0.85501 0.72966 0.0
H1644 H 0.58239 0.81967 0.58611 0.0
H1645 H 0.62585 0.85041 0.58232 0.0
H1646 H 0.62032 0.80351 0.58603 0.0
H1647 H 0.60107 0.88813 0.73119 0.0
H1648 H 0.61552 0.9193 0.69934 0.0
H1649 H 0.57106 0.88815 0.69406 0.0
H1650 H 0.61659 0.95496 0.58194 0.0
H1651 H 0.51149 0.87888 0.58328 0.0
H1652 H 0.66524 0.90859 0.61894 0.0
H1653 H 0.65708 0.92904 0.65679 0.0
H1654 H 0.66553 0.95449 0.61992 0.0
H1655 H 0.53107 0.81334 0.61822 0.0
H1656 H 0.49904 0.83615 0.62468 0.0
H1657 H 0.53327 0.83644 0.65823 0.0
C1658 C 0.65175 0.15739 0.33084 0.0
C1659 C 0.64537 0.16403 0.29699 0.0
C1660 C 0.62374 0.13941 0.34873 0.0
C1661 C 0.58843 0.12735 0.332 0.0
C1662 C 0.58137 0.13673 0.29866 0.0
C1663 C 0.61024 0.15532 0.28137 0.0
C1664 C 0.63256 0.1311 0.38476 0.0
C1665 C 0.5438 0.1256 0.28084 0.0
C1666 C 0.55223 0.04191 0.37104 0.0
C1667 C 0.54083 0.05436 0.39967 0.0
C1668 C 0.56216 0.06424 0.34472 0.0
C1669 C 0.56134 0.09993 0.34796 0.0
C1670 C 0.54509 0.11074 0.37466 0.0
C1671 C 0.53551 0.08783 0.40073 0.0
C1672 C 0.57883 0.05143 0.31633 0.0
C1673 C 0.54247 0.14807 0.37831 0.0
H1674 H 0.67897 0.16556 0.34322 0.0
H1675 H 0.60555 0.1615 0.25534 0.0
H1676 H 0.61594 0.13992 0.40184 0.0
H1677 H 0.62671 0.10175 0.3863 0.0
H1678 H 0.66117 0.14444 0.39434 0.0
H1679 H 0.54238 0.13906 0.2569 0.0
H1680 H 0.53408 0.09619 0.27491 0.0
H1681 H 0.52536 0.13194 0.29747 0.0
H1682 H 0.55554 0.01556 0.37022 0.0
H1683 H 0.52679 0.09735 0.42309 0.0
H1684 H 0.60845 0.06218 0.32159 0.0
H1685 H 0.57105 0.06117 0.29192 0.0
H1686 H 0.57093 0.0217 0.31377 0.0
H1687 H 0.56741 0.16608 0.39267 0.0
H1688 H 0.51969 0.1484 0.3925 0.0
H1689 H 0.53915 0.159 0.35333 0.0
C1690 C 0.88738 0.71258 0.32504 0.0
C1691 C 0.85036 0.6997 0.31476 0.0
C1692 C 0.90417 0.69365 0.34657 0.0
C1693 C 0.88352 0.66098 0.35851 0.0
C1694 C 0.84596 0.64821 0.34901 0.0
C1695 C 0.82983 0.66768 0.32722 0.0
C1696 C 0.94422 0.70829 0.35597 0.0
C1697 C 0.82289 0.61375 0.36155 0.0
C1698 C 0.92981 0.59385 0.38909 0.0
C1699 C 0.93531 0.60199 0.42407 0.0
C1700 C 0.91371 0.61334 0.36734 0.0
C1701 C 0.90137 0.64046 0.38111 0.0
C1702 C 0.90671 0.64845 0.41653 0.0
C1703 C 0.92416 0.62957 0.43747 0.0
C1704 C 0.90963 0.60472 0.32969 0.0
C1705 C 0.89307 0.67626 0.43246 0.0
H1706 H 0.90357 0.73733 0.31571 0.0
H1707 H 0.80129 0.65739 0.31934 0.0
H1708 H 0.95041 0.71284 0.38382 0.0
H1709 H 0.95697 0.68847 0.34773 0.0
H1710 H 0.95652 0.73393 0.34437 0.0
H1711 H 0.79404 0.60791 0.35261 0.0
H1712 H 0.8315 0.59104 0.35276 0.0
H1713 H 0.82621 0.61518 0.38959 0.0
H1714 H 0.93802 0.5722 0.37881 0.0
H1715 H 0.92753 0.63518 0.46465 0.0
H1716 H 0.92208 0.62935 0.3167 0.0
H1717 H 0.88081 0.59476 0.31991 0.0
H1718 H 0.92214 0.58416 0.32293 0.0
H1719 H 0.90577 0.70282 0.42273 0.0
H1720 H 0.89852 0.67862 0.46047 0.0
H1721 H 0.86375 0.66922 0.42549 0.0
C1722 C 0.27105 0.78418 0.34386 0.0
C1723 C 0.29524 0.77706 0.32342 0.0
C1724 C 0.28336 0.80813 0.37257 0.0
C1725 C 0.32066 0.82473 0.38081 0.0
C1726 C 0.34513 0.8156 0.36123 0.0
C1727 C 0.33202 0.79181 0.33268 0.0
C1728 C 0.25655 0.81632 0.39337 0.0
C1729 C 0.38522 0.83235 0.36933 0.0
C1730 C 0.374 0.91475 0.42043 0.0
C1731 C 0.39088 0.90396 0.44864 0.0
C1732 C 0.34573 0.88951 0.40017 0.0
C1733 C 0.33505 0.85318 0.40849 0.0
C1734 C 0.3475 0.84414 0.44031 0.0
C1735 C 0.37526 0.86995 0.46028 0.0
C1736 C 0.33154 0.90057 0.36724 0.0
C1737 C 0.3364 0.80611 0.45086 0.0
H1738 H 0.24252 0.77219 0.33655 0.0
H1739 H 0.3505 0.78616 0.31658 0.0
H1740 H 0.25721 0.80385 0.41789 0.0
H1741 H 0.26342 0.84562 0.39901 0.0
H1742 H 0.2288 0.80584 0.38044 0.0
H1743 H 0.40036 0.82025 0.35311 0.0
H1744 H 0.39296 0.86148 0.36554 0.0
H1745 H 0.39352 0.82924 0.39615 0.0
H1746 H 0.38562 0.94134 0.41181 0.0
H1747 H 0.38775 0.86206 0.48285 0.0
H1748 H 0.30289 0.88507 0.36033 0.0
H1749 H 0.34677 0.89516 0.34682 0.0
H1750 H 0.33462 0.92964 0.36861 0.0
H1751 H 0.30906 0.7904 0.43944 0.0
H1752 H 0.33748 0.80561 0.47882 0.0
H1753 H 0.35537 0.79277 0.44249 0.0
C1754 C 0.20157 0.32402 0.3431 0.0
C1755 C 0.19161 0.32469 0.30849 0.0
C1756 C 0.19079 0.3446 0.36713 0.0
C1757 C 0.16993 0.36654 0.35614 0.0
C1758 C 0.16221 0.36908 0.32101 0.0
C1759 C 0.17256 0.34767 0.29778 0.0
C1760 C 0.19922 0.34053 0.40422 0.0
C1761 C 0.1404 0.39216 0.30785 0.0
C1762 C 0.09584 0.37697 0.40558 0.0
C1763 C 0.1098 0.41254 0.41948 0.0
C1764 C 0.11581 0.36143 0.38641 0.0
C1765 C 0.1509 0.38183 0.38048 0.0
C1766 C 0.16581 0.41737 0.3953 0.0
C1767 C 0.14516 0.43229 0.41476 0.0
C1768 C 0.09871 0.32336 0.37152 0.0
C1769 C 0.20312 0.43999 0.38966 0.0
H1770 H 0.21561 0.30563 0.35147 0.0
H1771 H 0.16409 0.34751 0.27112 0.0
H1772 H 0.20733 0.36684 0.41879 0.0
H1773 H 0.17485 0.32305 0.41409 0.0
H1774 H 0.22085 0.32823 0.40878 0.0
H1775 H 0.14141 0.39545 0.28033 0.0
H1776 H 0.11203 0.37964 0.31231 0.0
H1777 H 0.15013 0.41908 0.32143 0.0
H1778 H 0.06884 0.36102 0.40941 0.0
H1779 H 0.15639 0.45963 0.42552 0.0
H1780 H 0.11658 0.30713 0.37783 0.0
H1781 H 0.09456 0.32326 0.34356 0.0
H1782 H 0.0724 0.31015 0.38075 0.0
H1783 H 0.22239 0.42517 0.39568 0.0
H1784 H 0.21213 0.46579 0.40525 0.0
H1785 H 0.20384 0.44583 0.36261 0.0
C1786 C 0.30041 0.16024 0.63491 0.0
C1787 C 0.30409 0.15139 0.66847 0.0
C1788 C 0.31698 0.14693 0.61047 0.0
C1789 C 0.33843 0.12544 0.62046 0.0
C1790 C 0.34192 0.11628 0.65436 0.0
C1791 C 0.32415 0.12898 0.67794 0.0
C1792 C 0.31221 0.15642 0.57429 0.0
C1793 C 0.3653 0.09404 0.66597 0.0
C1794 C 0.36208 0.06434 0.55901 0.0
C1795 C 0.39767 0.08401 0.5553 0.0
C1796 C 0.34185 0.07829 0.57905 0.0
C1797 C 0.35773 0.1126 0.59576 0.0
C1798 C 0.3932 0.13315 0.59135 0.0
C1799 C 0.41282 0.11858 0.57105 0.0
C1800 C 0.30398 0.05581 0.58335 0.0
C1801 C 0.41084 0.16988 0.60908 0.0
H1802 H 0.28481 0.17769 0.62792 0.0
H1803 H 0.32733 0.12273 0.70415 0.0
H1804 H 0.33825 0.17339 0.56697 0.0
H1805 H 0.30319 0.13178 0.55708 0.0
H1806 H 0.29245 0.1711 0.57035 0.0
H1807 H 0.36492 0.08932 0.69332 0.0
H1808 H 0.35631 0.06772 0.65135 0.0
H1809 H 0.39338 0.10779 0.66127 0.0
H1810 H 0.35006 0.03774 0.54667 0.0
H1811 H 0.44024 0.13402 0.56812 0.0
H1812 H 0.28535 0.07153 0.5784 0.0
H1813 H 0.30252 0.04798 0.60982 0.0
H1814 H 0.2946 0.03105 0.56625 0.0
H1815 H 0.39392 0.18727 0.60378 0.0
H1816 H 0.43781 0.18324 0.60124 0.0
H1817 H 0.41363 0.16754 0.63683 0.0
C1818 C 0.87256 0.28519 0.65481 0.0
C1819 C 0.84438 0.29306 0.66867 0.0
C1820 C 0.89011 0.30568 0.62979 0.0
C1821 C 0.87975 0.33525 0.61924 0.0
C1822 C 0.85124 0.34328 0.63316 0.0
C1823 C 0.83348 0.32165 0.65745 0.0
C1824 C 0.91958 0.29566 0.61465 0.0
C1825 C 0.83993 0.37506 0.62283 0.0
C1826 C 0.94461 0.41208 0.58069 0.0
C1827 C 0.92863 0.40764 0.54733 0.0
C1828 C 0.92961 0.3879 0.60439 0.0
C1829 C 0.89882 0.35817 0.59385 0.0
C1830 C 0.88449 0.35214 0.55943 0.0
C1831 C 0.89917 0.37753 0.53662 0.0
C1832 C 0.94512 0.39559 0.64102 0.0
C1833 C 0.85269 0.31987 0.54703 0.0
H1834 H 0.88058 0.26263 0.66319 0.0
H1835 H 0.81169 0.32764 0.66828 0.0
H1836 H 0.91411 0.2927 0.58667 0.0
H1837 H 0.94551 0.31728 0.62104 0.0
H1838 H 0.92246 0.27025 0.62385 0.0
H1839 H 0.81792 0.37811 0.63677 0.0
H1840 H 0.86312 0.40001 0.62752 0.0
H1841 H 0.83083 0.37214 0.59537 0.0
H1842 H 0.9673 0.43573 0.5887 0.0
H1843 H 0.88716 0.37434 0.51058 0.0
H1844 H 0.95044 0.37169 0.65128 0.0
H1845 H 0.92543 0.40194 0.65612 0.0
H1846 H 0.97043 0.41849 0.64459 0.0
H1847 H 0.85645 0.29512 0.55697 0.0
H1848 H 0.84826 0.31649 0.51898 0.0
H1849 H 0.82819 0.32283 0.55643 0.0
C1850 C 0.19076 0.65348 0.68934 0.0
C1851 C 0.22413 0.67272 0.67958 0.0
C1852 C 0.16818 0.62342 0.66943 0.0
C1853 C 0.17972 0.61245 0.63949 0.0
C1854 C 0.21583 0.6279 0.63334 0.0
C1855 C 0.23738 0.65882 0.65282 0.0
C1856 C 0.13038 0.60675 0.67789 0.0
C1857 C 0.23023 0.61447 0.60373 0.0
C1858 C 0.10659 0.54289 0.58125 0.0
C1859 C 0.09285 0.56548 0.56152 0.0
C1860 C 0.13637 0.5573 0.60577 0.0
C1861 C 0.15233 0.59504 0.61054 0.0
C1862 C 0.13995 0.61753 0.5888 0.0
C1863 C 0.11059 0.60243 0.56458 0.0
C1864 C 0.14907 0.53203 0.62747 0.0
C1865 C 0.15632 0.65792 0.59229 0.0
H1866 H 0.18074 0.66413 0.71031 0.0
H1867 H 0.26369 0.67324 0.64589 0.0
H1868 H 0.11185 0.61616 0.66073 0.0
H1869 H 0.12215 0.57714 0.67413 0.0
H1870 H 0.12745 0.61408 0.7044 0.0
H1871 H 0.25989 0.62169 0.60782 0.0
H1872 H 0.21842 0.58492 0.59934 0.0
H1873 H 0.22306 0.6268 0.58058 0.0
H1874 H 0.09294 0.51422 0.57894 0.0
H1875 H 0.1004 0.61987 0.54891 0.0
H1876 H 0.13207 0.52487 0.64843 0.0
H1877 H 0.17738 0.54402 0.6385 0.0
H1878 H 0.14623 0.50674 0.61256 0.0
H1879 H 0.15437 0.66822 0.61807 0.0
H1880 H 0.14299 0.67141 0.5737 0.0
H1881 H 0.1851 0.66572 0.58853 0.0
loop_
_geom_bond_atom_site_label_1
_geom_bond_atom_site_label_2
_geom_bond_distance
_geom_bond_site_symmetry_2
_ccdc_geom_bond_type
Zn0 O6 1.969 . S
Zn0 O7 1.965 . S
Zn0 O11 2.024 . S
Zn0 O16 1.969 . S
Zn1 O8 1.969 . S
Zn1 O14 1.969 . S
Zn1 O15 1.965 . S
Zn1 O17 2.024 . S
C2 O3 1.229 . S
C2 O11 1.058 . S
O3 C2 1.229 . S
C4 O5 1.229 . S
C4 O17 1.058 . S
O5 C4 1.229 . S
O6 Zn0 1.969 . S
O6 C9 1.267 . S
O7 Zn0 1.965 . S
O7 C18 1.260 . S
O8 Zn1 1.969 . S
O8 C18 1.258 . S
C9 O6 1.267 . S
C9 O10 1.228 . S
O10 C9 1.228 . S
O11 Zn0 2.024 . S
O11 C2 1.058 . S
C12 O13 1.228 . S
C12 O14 1.267 . S
O13 C12 1.228 . S
O14 Zn1 1.969 . S
O14 C12 1.267 . S
O15 Zn1 1.965 . S
O15 C19 1.260 . S
O16 Zn0 1.969 . S
O16 C19 1.258 . S
O17 Zn1 2.024 . S
O17 C4 1.058 . S
C18 O7 1.260 . S
C18 O8 1.258 . S
C19 O15 1.260 . S
C19 O16 1.258 . S
Zn20 O26 1.969 . S
Zn20 O27 1.965 . S
Zn20 O31 2.024 . S
Zn20 O36 1.969 . S
Zn21 O28 1.969 . S
Zn21 O34 1.969 . S
Zn21 O35 1.965 . S
Zn21 O37 2.024 . S
C22 O23 1.229 . S
C22 O31 1.058 . S
O23 C22 1.229 . S
C24 O25 1.229 . S
C24 O37 1.058 . S
O25 C24 1.229 . S
O26 Zn20 1.969 . S
O26 C29 1.267 . S
O27 Zn20 1.965 . S
O27 C38 1.260 . S
O28 Zn21 1.969 . S
O28 C38 1.258 . S
C29 O26 1.267 . S
C29 O30 1.228 . S
O30 C29 1.228 . S
O31 Zn20 2.024 . S
O31 C22 1.058 . S
C32 O33 1.228 . S
C32 O34 1.267 . S
O33 C32 1.228 . S
O34 Zn21 1.969 . S
O34 C32 1.267 . S
O35 Zn21 1.965 . S
O35 C39 1.260 . S
O36 Zn20 1.969 . S
O36 C39 1.258 . S
O37 Zn21 2.024 . S
O37 C24 1.058 . S
C38 O27 1.260 . S
C38 O28 1.258 . S
C39 O35 1.260 . S
C39 O36 1.258 . S
Zn40 O46 1.969 . S
Zn40 O47 1.965 . S
Zn40 O51 2.024 . S
Zn40 O56 1.969 . S
Zn41 O48 1.969 . S
Zn41 O54 1.969 . S
Zn41 O55 1.965 . S
Zn41 O57 2.024 . S
C42 O43 1.229 . S
C42 O51 1.058 . S
O43 C42 1.229 . S
C44 O45 1.229 . S
C44 O57 1.058 . S
O45 C44 1.229 . S
O46 Zn40 1.969 . S
O46 C49 1.267 . S
O47 Zn40 1.965 . S
O47 C58 1.260 . S
O48 Zn41 1.969 . S
O48 C58 1.258 . S
C49 O46 1.267 . S
C49 O50 1.228 . S
O50 C49 1.228 . S
O51 Zn40 2.024 . S
O51 C42 1.058 . S
C52 O53 1.228 . S
C52 O54 1.267 . S
O53 C52 1.228 . S
O54 Zn41 1.969 . S
O54 C52 1.267 . S
O55 Zn41 1.965 . S
O55 C59 1.260 . S
O56 Zn40 1.969 . S
O56 C59 1.258 . S
O57 Zn41 2.024 . S
O57 C44 1.058 . S
C58 O47 1.260 . S
C58 O48 1.258 . S
C59 O55 1.260 . S
C59 O56 1.258 . S
Zn60 O66 1.969 . S
Zn60 O67 1.965 . S
Zn60 O71 2.024 . S
Zn60 O76 1.969 . S
Zn61 O68 1.969 . S
Zn61 O74 1.969 . S
Zn61 O75 1.965 . S
Zn61 O77 2.024 . S
C62 O63 1.229 . S
C62 O71 1.058 . S
O63 C62 1.229 . S
C64 O65 1.229 . S
C64 O77 1.058 . S
O65 C64 1.229 . S
O66 Zn60 1.969 . S
O66 C69 1.267 . S
O67 Zn60 1.965 . S
O67 C78 1.260 . S
O68 Zn61 1.969 . S
O68 C78 1.258 . S
C69 O66 1.267 . S
C69 O70 1.228 . S
O70 C69 1.228 . S
O71 Zn60 2.024 . S
O71 C62 1.058 . S
C72 O73 1.228 . S
C72 O74 1.267 . S
O73 C72 1.228 . S
O74 Zn61 1.969 . S
O74 C72 1.267 . S
O75 Zn61 1.965 . S
O75 C79 1.260 . S
O76 Zn60 1.969 . S
O76 C79 1.258 . S
O77 Zn61 2.024 . S
O77 C64 1.058 . S
C78 O67 1.260 . S
C78 O68 1.258 . S
C79 O75 1.260 . S
C79 O76 1.258 . S
Zn80 O86 1.969 . S
Zn80 O87 1.965 . S
Zn80 O91 2.024 . S
Zn80 O96 1.969 . S
Zn81 O88 1.969 . S
Zn81 O94 1.969 . S
Zn81 O95 1.965 . S
Zn81 O97 2.024 . S
C82 O83 1.229 . S
C82 O91 1.058 . S
O83 C82 1.229 . S
C84 O85 1.229 . S
C84 O97 1.058 . S
O85 C84 1.229 . S
O86 Zn80 1.969 . S
O86 C89 1.267 . S
O87 Zn80 1.965 . S
O87 C98 1.260 . S
O88 Zn81 1.969 . S
O88 C98 1.258 . S
C89 O86 1.267 . S
C89 O90 1.228 . S
O90 C89 1.228 . S
O91 Zn80 2.024 . S
O91 C82 1.058 . S
C92 O93 1.228 . S
C92 O94 1.267 . S
O93 C92 1.228 . S
O94 Zn81 1.969 . S
O94 C92 1.267 . S
O95 Zn81 1.965 . S
O95 C99 1.260 . S
O96 Zn80 1.969 . S
O96 C99 1.258 . S
O97 Zn81 2.024 . S
O97 C84 1.058 . S
C98 O87 1.260 . S
C98 O88 1.258 . S
C99 O95 1.260 . S
C99 O96 1.258 . S
Zn100 O106 1.969 . S
Zn100 O107 1.965 . S
Zn100 O111 2.024 . S
Zn100 O116 1.969 . S
Zn101 O108 1.969 . S
Zn101 O114 1.969 . S
Zn101 O115 1.965 . S
Zn101 O117 2.024 . S
C102 O103 1.229 . S
C102 O111 1.058 . S
O103 C102 1.229 . S
C104 O105 1.229 . S
C104 O117 1.058 . S
O105 C104 1.229 . S
O106 Zn100 1.969 . S
O106 C109 1.267 . S
O107 Zn100 1.965 . S
O107 C118 1.260 . S
O108 Zn101 1.969 . S
O108 C118 1.258 . S
C109 O106 1.267 . S
C109 O110 1.228 . S
O110 C109 1.228 . S
O111 Zn100 2.024 . S
O111 C102 1.058 . S
C112 O113 1.228 . S
C112 O114 1.267 . S
O113 C112 1.228 . S
O114 Zn101 1.969 . S
O114 C112 1.267 . S
O115 Zn101 1.965 . S
O115 C119 1.260 . S
O116 Zn100 1.969 . S
O116 C119 1.258 . S
O117 Zn101 2.024 . S
O117 C104 1.058 . S
C118 O107 1.260 . S
C118 O108 1.258 . S
C119 O115 1.260 . S
C119 O116 1.258 . S
Zn120 O126 1.969 . S
Zn120 O127 1.965 . S
Zn120 O131 2.024 . S
Zn120 O136 1.969 . S
Zn121 O128 1.969 . S
Zn121 O134 1.969 . S
Zn121 O135 1.965 . S
Zn121 O137 2.024 . S
C122 O123 1.229 . S
C122 O131 1.058 . S
O123 C122 1.229 . S
C124 O125 1.229 . S
C124 O137 1.058 . S
O125 C124 1.229 . S
O126 Zn120 1.969 . S
O126 C129 1.267 . S
O127 Zn120 1.965 . S
O127 C138 1.260 . S
O128 Zn121 1.969 . S
O128 C138 1.258 . S
C129 O126 1.267 . S
C129 O130 1.228 . S
O130 C129 1.228 . S
O131 Zn120 2.024 . S
O131 C122 1.058 . S
C132 O133 1.228 . S
C132 O134 1.267 . S
O133 C132 1.228 . S
O134 Zn121 1.969 . S
O134 C132 1.267 . S
O135 Zn121 1.965 . S
O135 C139 1.260 . S
O136 Zn120 1.969 . S
O136 C139 1.258 . S
O137 Zn121 2.024 . S
O137 C124 1.058 . S
C138 O127 1.260 . S
C138 O128 1.258 . S
C139 O135 1.260 . S
C139 O136 1.258 . S
Zn140 O146 1.969 . S
Zn140 O147 1.965 . S
Zn140 O151 2.024 . S
Zn140 O156 1.969 . S
Zn141 O148 1.969 . S
Zn141 O154 1.969 . S
Zn141 O155 1.965 . S
Zn141 O157 2.024 . S
C142 O143 1.229 . S
C142 O151 1.058 . S
O143 C142 1.229 . S
C144 O145 1.229 . S
C144 O157 1.058 . S
O145 C144 1.229 . S
O146 Zn140 1.969 . S
O146 C149 1.267 . S
O147 Zn140 1.965 . S
O147 C158 1.260 . S
O148 Zn141 1.969 . S
O148 C158 1.258 . S
C149 O146 1.267 . S
C149 O150 1.228 . S
O150 C149 1.228 . S
O151 Zn140 2.024 . S
O151 C142 1.058 . S
C152 O153 1.228 . S
C152 O154 1.267 . S
O153 C152 1.228 . S
O154 Zn141 1.969 . S
O154 C152 1.267 . S
O155 Zn141 1.965 . S
O155 C159 1.260 . S
O156 Zn140 1.969 . S
O156 C159 1.258 . S
O157 Zn141 2.024 . S
O157 C144 1.058 . S
C158 O147 1.260 . S
C158 O148 1.258 . S
C159 O155 1.260 . S
C159 O156 1.258 . S
C160 O172 1.241 . S
C160 O173 1.280 . S
C161 O174 1.277 . S
C161 O175 1.245 . S
C162 O186 1.247 . S
C162 O188 1.289 . S
Mg163 O164 1.926 . S
Mg163 O173 1.984 . S
Mg163 O175 1.988 . S
Mg163 O176 2.061 1_655 S
O164 Mg163 1.926 . S
O164 Mg165 1.986 . S
O164 Mg166 1.917 1_655 S
Mg165 O164 1.986 . S
Mg165 O172 2.042 . S
Mg165 O174 2.041 . S
Mg165 O180 2.038 1_545 S
Mg165 O188 2.238 1_545 S
Mg166 O164 1.917 1_455 S
Mg166 O167 1.917 1_545 S
Mg166 O177 2.106 . S
Mg166 O179 2.079 1_445 S
Mg166 O188 2.106 1_445 S
Mg166 O189 2.079 . S
O167 Mg166 1.917 1_565 S
O167 Mg168 1.926 . S
O167 Mg169 1.986 . S
Mg168 O167 1.926 . S
Mg168 O182 1.984 . S
Mg168 O185 1.988 . S
Mg168 O186 2.061 1_455 S
Mg169 O167 1.986 . S
Mg169 O177 2.238 1_565 S
Mg169 O181 2.042 . S
Mg169 O183 2.041 . S
Mg169 O190 2.038 1_565 S
C170 O176 1.247 . S
C170 O177 1.289 . S
C171 O189 1.245 . S
C171 O190 1.274 . S
O172 C160 1.241 . S
O172 Mg165 2.042 . S
O173 C160 1.280 . S
O173 Mg163 1.984 . S
O174 C161 1.277 . S
O174 Mg165 2.041 . S
O175 C161 1.245 . S
O175 Mg163 1.988 . S
O176 Mg163 2.061 1_455 S
O176 C170 1.247 . S
O177 Mg166 2.106 . S
O177 Mg169 2.238 1_545 S
O177 C170 1.289 . S
C178 O179 1.245 . S
C178 O180 1.274 . S
O179 Mg166 2.079 1_665 S
O179 C178 1.245 . S
O180 Mg165 2.038 1_565 S
O180 C178 1.274 . S
O181 Mg169 2.042 . S
O181 C184 1.241 . S
O182 Mg168 1.984 . S
O182 C184 1.280 . S
O183 Mg169 2.041 . S
O183 C187 1.277 . S
C184 O181 1.241 . S
C184 O182 1.280 . S
O185 Mg168 1.988 . S
O185 C187 1.245 . S
O186 C162 1.247 . S
O186 Mg168 2.061 1_655 S
C187 O183 1.277 . S
C187 O185 1.245 . S
O188 C162 1.289 . S
O188 Mg165 2.238 1_565 S
O188 Mg166 2.106 1_665 S
O189 Mg166 2.079 . S
O189 C171 1.245 . S
O190 Mg169 2.038 1_545 S
O190 C171 1.274 . S
C191 O203 1.241 . S
C191 O204 1.280 . S
C192 O205 1.277 . S
C192 O206 1.245 . S
C193 O217 1.247 . S
C193 O219 1.289 . S
Mg194 O195 1.926 . S
Mg194 O204 1.984 . S
Mg194 O206 1.988 1_554 S
Mg194 O207 2.061 . S
O195 Mg194 1.926 . S
O195 Mg196 1.986 1_554 S
O195 Mg197 1.917 . S
Mg196 O195 1.986 1_556 S
Mg196 O203 2.042 1_556 S
Mg196 O205 2.041 . S
Mg196 O211 2.038 1_546 S
Mg196 O219 2.238 1_545 S
Mg197 O195 1.917 . S
Mg197 O198 1.917 1_544 S
Mg197 O208 2.107 . S
Mg197 O210 2.079 1_545 S
Mg197 O219 2.106 1_544 S
Mg197 O220 2.078 1_554 S
O198 Mg197 1.917 1_566 S
O198 Mg199 1.926 . S
O198 Mg200 1.986 1_556 S
Mg199 O198 1.926 . S
Mg199 O213 1.984 . S
Mg199 O216 1.988 1_556 S
Mg199 O217 2.061 . S
Mg200 O198 1.986 1_554 S
Mg200 O208 2.238 1_565 S
Mg200 O212 2.042 1_554 S
Mg200 O214 2.041 . S
Mg200 O221 2.038 1_564 S
C201 O207 1.247 . S
C201 O208 1.289 . S
C202 O220 1.245 . S
C202 O221 1.274 . S
O203 C191 1.241 . S
O203 Mg196 2.042 1_554 S
O204 C191 1.280 . S
O204 Mg194 1.984 . S
O205 C192 1.277 . S
O205 Mg196 2.041 . S
O206 C192 1.245 . S
O206 Mg194 1.988 1_556 S
O207 Mg194 2.061 . S
O207 C201 1.247 . S
O208 Mg197 2.107 . S
O208 Mg200 2.238 1_545 S
O208 C201 1.289 . S
C209 O210 1.245 . S
C209 O211 1.274 . S
O210 Mg197 2.079 1_565 S
O210 C209 1.245 . S
O211 Mg196 2.038 1_564 S
O211 C209 1.274 . S
O212 Mg200 2.042 1_556 S
O212 C215 1.241 . S
O213 Mg199 1.984 . S
O213 C215 1.280 . S
O214 Mg200 2.041 . S
O214 C218 1.277 . S
C215 O212 1.241 . S
C215 O213 1.280 . S
O216 Mg199 1.988 1_554 S
O216 C218 1.245 . S
O217 C193 1.247 . S
O217 Mg199 2.061 . S
C218 O214 1.277 . S
C218 O216 1.245 . S
O219 C193 1.289 . S
O219 Mg196 2.238 1_565 S
O219 Mg197 2.106 1_566 S
O220 Mg197 2.078 1_556 S
O220 C202 1.245 . S
O221 Mg200 2.038 1_546 S
O221 C202 1.274 . S
C222 O234 1.241 . S
C222 O235 1.280 . S
C223 O236 1.277 . S
C223 O237 1.245 . S
C224 O248 1.247 . S
C224 O250 1.289 . S
Mg225 O226 1.926 . S
Mg225 O235 1.984 . S
Mg225 O237 1.988 1_554 S
Mg225 O238 2.061 1_655 S
O226 Mg225 1.926 . S
O226 Mg227 1.986 1_554 S
O226 Mg228 1.917 1_655 S
Mg227 O226 1.986 1_556 S
Mg227 O234 2.042 1_556 S
Mg227 O236 2.041 . S
Mg227 O242 2.038 1_556 S
Mg227 O250 2.238 . S
Mg228 O226 1.917 1_455 S
Mg228 O229 1.917 1_554 S
Mg228 O239 2.107 . S
Mg228 O241 2.079 1_455 S
Mg228 O250 2.106 1_454 S
Mg228 O251 2.078 1_554 S
O229 Mg228 1.917 1_556 S
O229 Mg230 1.926 . S
O229 Mg231 1.986 1_556 S
Mg230 O229 1.926 . S
Mg230 O244 1.984 . S
Mg230 O247 1.988 1_556 S
Mg230 O248 2.061 1_455 S
Mg231 O229 1.986 1_554 S
Mg231 O239 2.238 . S
Mg231 O243 2.042 1_554 S
Mg231 O245 2.041 . S
Mg231 O252 2.038 1_554 S
C232 O238 1.247 . S
C232 O239 1.289 . S
C233 O251 1.245 . S
C233 O252 1.274 . S
O234 C222 1.241 . S
O234 Mg227 2.042 1_554 S
O235 C222 1.280 . S
O235 Mg225 1.984 . S
O236 C223 1.277 . S
O236 Mg227 2.041 . S
O237 C223 1.245 . S
O237 Mg225 1.988 1_556 S
O238 Mg225 2.061 1_455 S
O238 C232 1.247 . S
O239 Mg228 2.107 . S
O239 Mg231 2.238 . S
O239 C232 1.289 . S
C240 O241 1.245 . S
C240 O242 1.274 . S
O241 Mg228 2.079 1_655 S
O241 C240 1.245 . S
O242 Mg227 2.038 1_554 S
O242 C240 1.274 . S
O243 Mg231 2.042 1_556 S
O243 C246 1.241 . S
O244 Mg230 1.984 . S
O244 C246 1.280 . S
O245 Mg231 2.041 . S
O245 C249 1.277 . S
C246 O243 1.241 . S
C246 O244 1.280 . S
O247 Mg230 1.988 1_554 S
O247 C249 1.245 . S
O248 C224 1.247 . S
O248 Mg230 2.061 1_655 S
C249 O245 1.277 . S
C249 O247 1.245 . S
O250 C224 1.289 . S
O250 Mg227 2.238 . S
O250 Mg228 2.106 1_656 S
O251 Mg228 2.078 1_556 S
O251 C233 1.245 . S
O252 Mg231 2.038 1_556 S
O252 C233 1.274 . S
C253 O265 1.241 . S
C253 O266 1.280 . S
C254 O267 1.277 . S
C254 O268 1.245 . S
C255 O279 1.247 . S
C255 O281 1.289 . S
Mg256 O257 1.926 . S
Mg256 O266 1.984 . S
Mg256 O268 1.988 1_554 S
Mg256 O269 2.061 . S
O257 Mg256 1.926 . S
O257 Mg258 1.986 1_554 S
O257 Mg259 1.917 . S
Mg258 O257 1.986 1_556 S
Mg258 O265 2.042 1_556 S
Mg258 O267 2.041 . S
Mg258 O273 2.038 1_556 S
Mg258 O281 2.238 . S
Mg259 O257 1.917 . S
Mg259 O260 1.917 1_554 S
Mg259 O270 2.107 . S
Mg259 O272 2.079 . S
Mg259 O281 2.106 1_554 S
Mg259 O282 2.078 1_554 S
O260 Mg259 1.917 1_556 S
O260 Mg261 1.926 . S
O260 Mg262 1.986 1_556 S
Mg261 O260 1.926 . S
Mg261 O275 1.984 . S
Mg261 O278 1.988 1_556 S
Mg261 O279 2.061 . S
Mg262 O260 1.986 1_554 S
Mg262 O270 2.238 . S
Mg262 O274 2.042 1_554 S
Mg262 O276 2.041 . S
Mg262 O283 2.038 1_554 S
C263 O269 1.247 . S
C263 O270 1.289 . S
C264 O282 1.245 . S
C264 O283 1.274 . S
O265 C253 1.241 . S
O265 Mg258 2.042 1_554 S
O266 C253 1.280 . S
O266 Mg256 1.984 . S
O267 C254 1.277 . S
O267 Mg258 2.041 . S
O268 C254 1.245 . S
O268 Mg256 1.988 1_556 S
O269 Mg256 2.061 . S
O269 C263 1.247 . S
O270 Mg259 2.107 . S
O270 Mg262 2.238 . S
O270 C263 1.289 . S
C271 O272 1.245 . S
C271 O273 1.274 . S
O272 Mg259 2.079 . S
O272 C271 1.245 . S
O273 Mg258 2.038 1_554 S
O273 C271 1.274 . S
O274 Mg262 2.042 1_556 S
O274 C277 1.241 . S
O275 Mg261 1.984 . S
O275 C277 1.280 . S
O276 Mg262 2.041 . S
O276 C280 1.277 . S
C277 O274 1.241 . S
C277 O275 1.280 . S
O278 Mg261 1.988 1_554 S
O278 C280 1.245 . S
O279 C255 1.247 . S
O279 Mg261 2.061 . S
C280 O276 1.277 . S
C280 O278 1.245 . S
O281 C255 1.289 . S
O281 Mg258 2.238 . S
O281 Mg259 2.106 1_556 S
O282 Mg259 2.078 1_556 S
O282 C264 1.245 . S
O283 Mg262 2.038 1_556 S
O283 C264 1.274 . S
C284 O296 1.241 . S
C284 O297 1.280 . S
C285 O298 1.277 . S
C285 O299 1.245 . S
C286 O310 1.247 . S
C286 O312 1.289 . S
Mg287 O288 1.926 . S
Mg287 O297 1.984 . S
Mg287 O299 1.988 . S
Mg287 O300 2.061 1_655 S
O288 Mg287 1.926 . S
O288 Mg289 1.986 . S
O288 Mg290 1.917 1_655 S
Mg289 O288 1.986 . S
Mg289 O296 2.042 . S
Mg289 O298 2.041 . S
Mg289 O304 2.038 . S
Mg289 O312 2.238 . S
Mg290 O288 1.917 1_455 S
Mg290 O291 1.917 . S
Mg290 O301 2.106 . S
Mg290 O303 2.079 1_455 S
Mg290 O312 2.106 1_455 S
Mg290 O313 2.079 . S
O291 Mg290 1.917 . S
O291 Mg292 1.926 . S
O291 Mg293 1.986 . S
Mg292 O291 1.926 . S
Mg292 O306 1.984 . S
Mg292 O309 1.988 . S
Mg292 O310 2.061 1_455 S
Mg293 O291 1.986 . S
Mg293 O301 2.238 . S
Mg293 O305 2.042 . S
Mg293 O307 2.041 . S
Mg293 O314 2.038 . S
C294 O300 1.247 . S
C294 O301 1.289 . S
C295 O313 1.245 . S
C295 O314 1.274 . S
O296 C284 1.241 . S
O296 Mg289 2.042 . S
O297 C284 1.280 . S
O297 Mg287 1.984 . S
O298 C285 1.277 . S
O298 Mg289 2.041 . S
O299 C285 1.245 . S
O299 Mg287 1.988 . S
O300 Mg287 2.061 1_455 S
O300 C294 1.247 . S
O301 Mg290 2.106 . S
O301 Mg293 2.238 . S
O301 C294 1.289 . S
C302 O303 1.245 . S
C302 O304 1.274 . S
O303 Mg290 2.079 1_655 S
O303 C302 1.245 . S
O304 Mg289 2.038 . S
O304 C302 1.274 . S
O305 Mg293 2.042 . S
O305 C308 1.241 . S
O306 Mg292 1.984 . S
O306 C308 1.280 . S
O307 Mg293 2.041 . S
O307 C311 1.277 . S
C308 O305 1.241 . S
C308 O306 1.280 . S
O309 Mg292 1.988 . S
O309 C311 1.245 . S
O310 C286 1.247 . S
O310 Mg292 2.061 1_655 S
C311 O307 1.277 . S
C311 O309 1.245 . S
O312 C286 1.289 . S
O312 Mg289 2.238 . S
O312 Mg290 2.106 1_655 S
O313 Mg290 2.079 . S
O313 C295 1.245 . S
O314 Mg293 2.038 . S
O314 C295 1.274 . S
C315 O327 1.241 . S
C315 O328 1.280 . S
C316 O329 1.277 . S
C316 O330 1.245 . S
C317 O341 1.247 . S
C317 O343 1.289 . S
Mg318 O319 1.926 . S
Mg318 O328 1.984 . S
Mg318 O330 1.988 . S
Mg318 O331 2.061 . S
O319 Mg318 1.926 . S
O319 Mg320 1.986 . S
O319 Mg321 1.917 . S
Mg320 O319 1.986 . S
Mg320 O327 2.042 . S
Mg320 O329 2.041 . S
Mg320 O335 2.038 1_545 S
Mg320 O343 2.238 1_545 S
Mg321 O319 1.917 . S
Mg321 O322 1.917 1_545 S
Mg321 O332 2.106 . S
Mg321 O334 2.079 1_545 S
Mg321 O343 2.106 1_545 S
Mg321 O344 2.079 . S
O322 Mg321 1.917 1_565 S
O322 Mg323 1.926 . S
O322 Mg324 1.986 . S
Mg323 O322 1.926 . S
Mg323 O337 1.984 . S
Mg323 O340 1.988 . S
Mg323 O341 2.061 . S
Mg324 O322 1.986 . S
Mg324 O332 2.238 1_565 S
Mg324 O336 2.042 . S
Mg324 O338 2.041 . S
Mg324 O345 2.038 1_565 S
C325 O331 1.247 . S
C325 O332 1.289 . S
C326 O344 1.245 . S
C326 O345 1.274 . S
O327 C315 1.241 . S
O327 Mg320 2.042 . S
O328 C315 1.280 . S
O328 Mg318 1.984 . S
O329 C316 1.277 . S
O329 Mg320 2.041 . S
O330 C316 1.245 . S
O330 Mg318 1.988 . S
O331 Mg318 2.061 . S
O331 C325 1.247 . S
O332 Mg321 2.106 . S
O332 Mg324 2.238 1_545 S
O332 C325 1.289 . S
C333 O334 1.245 . S
C333 O335 1.274 . S
O334 Mg321 2.079 1_565 S
O334 C333 1.245 . S
O335 Mg320 2.038 1_565 S
O335 C333 1.274 . S
O336 Mg324 2.042 . S
O336 C339 1.241 . S
O337 Mg323 1.984 . S
O337 C339 1.280 . S
O338 Mg324 2.041 . S
O338 C342 1.277 . S
C339 O336 1.241 . S
C339 O337 1.280 . S
O340 Mg323 1.988 . S
O340 C342 1.245 . S
O341 C317 1.247 . S
O341 Mg323 2.061 . S
C342 O338 1.277 . S
C342 O340 1.245 . S
O343 C317 1.289 . S
O343 Mg320 2.238 1_565 S
O343 Mg321 2.106 1_565 S
O344 Mg321 2.079 . S
O344 C326 1.245 . S
O345 Mg324 2.038 1_545 S
O345 C326 1.274 . S
C346 C347 1.391 . S
C346 C348 1.394 . S
C346 H362 0.931 . S
C347 C346 1.391 . S
C347 C351 1.376 . S
C348 C346 1.394 . S
C348 C349 1.369 . S
C348 C352 1.531 . S
C349 C348 1.369 . S
C349 C350 1.410 . S
C349 C357 1.503 . S
C350 C349 1.410 . S
C350 C351 1.392 . S
C350 C353 1.511 . S
C351 C347 1.376 . S
C351 C350 1.392 . S
C351 H363 0.929 . S
C352 C348 1.531 . S
C352 H364 0.960 . S
C352 H365 0.962 . S
C352 H366 0.960 . S
C353 C350 1.511 . S
C353 H367 0.961 . S
C353 H368 0.961 . S
C353 H369 0.961 . S
C354 C355 1.370 . S
C354 C356 1.363 . S
C354 H370 0.931 . S
C355 C354 1.370 . S
C355 C359 1.408 . S
C356 C354 1.363 . S
C356 C357 1.370 . S
C356 C360 1.524 . S
C357 C349 1.503 . S
C357 C356 1.370 . S
C357 C358 1.403 . S
C358 C357 1.403 . S
C358 C359 1.404 . S
C358 C361 1.539 . S
C359 C355 1.408 . S
C359 C358 1.404 . S
C359 H371 0.930 . S
C360 C356 1.524 . S
C360 H372 0.956 . S
C360 H373 0.961 . S
C360 H374 0.961 . S
C361 C358 1.539 . S
C361 H375 0.958 . S
C361 H376 0.961 . S
C361 H377 0.960 . S
H362 C346 0.931 . S
H363 C351 0.929 . S
H364 C352 0.960 . S
H365 C352 0.962 . S
H366 C352 0.960 . S
H367 C353 0.961 . S
H368 C353 0.961 . S
H369 C353 0.961 . S
H370 C354 0.931 . S
H371 C359 0.930 . S
H372 C360 0.956 . S
H373 C360 0.961 . S
H374 C360 0.961 . S
H375 C361 0.958 . S
H376 C361 0.961 . S
H377 C361 0.960 . S
C378 C379 1.391 . S
C378 C380 1.394 . S
C378 H394 0.931 . S
C379 C378 1.391 . S
C379 C383 1.376 . S
C380 C378 1.394 . S
C380 C381 1.369 . S
C380 C384 1.531 . S
C381 C380 1.369 . S
C381 C382 1.410 . S
C381 C389 1.503 . S
C382 C381 1.410 . S
C382 C383 1.392 . S
C382 C385 1.511 . S
C383 C379 1.376 . S
C383 C382 1.392 . S
C383 H395 0.929 . S
C384 C380 1.531 . S
C384 H396 0.960 . S
C384 H397 0.962 . S
C384 H398 0.960 . S
C385 C382 1.511 . S
C385 H399 0.961 . S
C385 H400 0.961 . S
C385 H401 0.961 . S
C386 C387 1.370 . S
C386 C388 1.363 . S
C386 H402 0.931 . S
C387 C386 1.370 . S
C387 C391 1.408 . S
C388 C386 1.363 . S
C388 C389 1.370 . S
C388 C392 1.524 . S
C389 C381 1.503 . S
C389 C388 1.370 . S
C389 C390 1.403 . S
C390 C389 1.403 . S
C390 C391 1.404 . S
C390 C393 1.539 . S
C391 C387 1.408 . S
C391 C390 1.404 . S
C391 H403 0.930 . S
C392 C388 1.524 . S
C392 H404 0.956 . S
C392 H405 0.961 . S
C392 H406 0.961 . S
C393 C390 1.539 . S
C393 H407 0.958 . S
C393 H408 0.961 . S
C393 H409 0.960 . S
H394 C378 0.931 . S
H395 C383 0.929 . S
H396 C384 0.960 . S
H397 C384 0.962 . S
H398 C384 0.960 . S
H399 C385 0.961 . S
H400 C385 0.961 . S
H401 C385 0.961 . S
H402 C386 0.931 . S
H403 C391 0.930 . S
H404 C392 0.956 . S
H405 C392 0.961 . S
H406 C392 0.961 . S
H407 C393 0.958 . S
H408 C393 0.961 . S
H409 C393 0.960 . S
C410 C411 1.391 . S
C410 C412 1.394 . S
C410 H426 0.931 . S
C411 C410 1.391 . S
C411 C415 1.376 . S
C412 C410 1.394 . S
C412 C413 1.369 . S
C412 C416 1.531 . S
C413 C412 1.369 . S
C413 C414 1.410 . S
C413 C421 1.503 . S
C414 C413 1.410 . S
C414 C415 1.392 . S
C414 C417 1.511 . S
C415 C411 1.376 . S
C415 C414 1.392 . S
C415 H427 0.929 . S
C416 C412 1.531 . S
C416 H428 0.960 . S
C416 H429 0.962 . S
C416 H430 0.960 . S
C417 C414 1.511 . S
C417 H431 0.961 . S
C417 H432 0.961 . S
C417 H433 0.961 . S
C418 C419 1.370 . S
C418 C420 1.363 . S
C418 H434 0.931 . S
C419 C418 1.370 . S
C419 C423 1.408 . S
C420 C418 1.363 . S
C420 C421 1.370 . S
C420 C424 1.524 . S
C421 C413 1.503 . S
C421 C420 1.370 . S
C421 C422 1.403 . S
C422 C421 1.403 . S
C422 C423 1.404 . S
C422 C425 1.539 . S
C423 C419 1.408 . S
C423 C422 1.404 . S
C423 H435 0.930 . S
C424 C420 1.524 . S
C424 H436 0.956 . S
C424 H437 0.961 . S
C424 H438 0.961 . S
C425 C422 1.539 . S
C425 H439 0.958 . S
C425 H440 0.961 . S
C425 H441 0.960 . S
H426 C410 0.931 . S
H427 C415 0.929 . S
H428 C416 0.960 . S
H429 C416 0.962 . S
H430 C416 0.960 . S
H431 C417 0.961 . S
H432 C417 0.961 . S
H433 C417 0.961 . S
H434 C418 0.931 . S
H435 C423 0.930 . S
H436 C424 0.956 . S
H437 C424 0.961 . S
H438 C424 0.961 . S
H439 C425 0.958 . S
H440 C425 0.961 . S
H441 C425 0.960 . S
C442 C443 1.391 . S
C442 C444 1.394 . S
C442 H458 0.931 . S
C443 C442 1.391 . S
C443 C447 1.376 . S
C444 C442 1.394 . S
C444 C445 1.369 . S
C444 C448 1.531 . S
C445 C444 1.369 . S
C445 C446 1.410 . S
C445 C453 1.503 . S
C446 C445 1.410 . S
C446 C447 1.392 . S
C446 C449 1.511 . S
C447 C443 1.376 . S
C447 C446 1.392 . S
C447 H459 0.929 . S
C448 C444 1.531 . S
C448 H460 0.960 . S
C448 H461 0.962 . S
C448 H462 0.960 . S
C449 C446 1.511 . S
C449 H463 0.961 . S
C449 H464 0.961 . S
C449 H465 0.961 . S
C450 C451 1.370 . S
C450 C452 1.363 . S
C450 H466 0.931 . S
C451 C450 1.370 . S
C451 C455 1.408 . S
C452 C450 1.363 . S
C452 C453 1.370 . S
C452 C456 1.524 . S
C453 C445 1.503 . S
C453 C452 1.370 . S
C453 C454 1.403 . S
C454 C453 1.403 . S
C454 C455 1.404 . S
C454 C457 1.539 . S
C455 C451 1.408 . S
C455 C454 1.404 . S
C455 H467 0.930 . S
C456 C452 1.524 . S
C456 H468 0.956 . S
C456 H469 0.961 . S
C456 H470 0.961 . S
C457 C454 1.539 . S
C457 H471 0.958 . S
C457 H472 0.961 . S
C457 H473 0.960 . S
H458 C442 0.931 . S
H459 C447 0.929 . S
H460 C448 0.960 . S
H461 C448 0.962 . S
H462 C448 0.960 . S
H463 C449 0.961 . S
H464 C449 0.961 . S
H465 C449 0.961 . S
H466 C450 0.931 . S
H467 C455 0.930 . S
H468 C456 0.956 . S
H469 C456 0.961 . S
H470 C456 0.961 . S
H471 C457 0.958 . S
H472 C457 0.961 . S
H473 C457 0.960 . S
C474 C475 1.391 . S
C474 C476 1.394 . S
C474 H490 0.931 . S
C475 C474 1.391 . S
C475 C479 1.376 . S
C476 C474 1.394 . S
C476 C477 1.369 . S
C476 C480 1.531 . S
C477 C476 1.369 . S
C477 C478 1.410 . S
C477 C485 1.503 . S
C478 C477 1.410 . S
C478 C479 1.392 . S
C478 C481 1.511 . S
C479 C475 1.376 . S
C479 C478 1.392 . S
C479 H491 0.929 . S
C480 C476 1.531 . S
C480 H492 0.960 . S
C480 H493 0.962 . S
C480 H494 0.960 . S
C481 C478 1.511 . S
C481 H495 0.961 . S
C481 H496 0.961 . S
C481 H497 0.961 . S
C482 C483 1.370 . S
C482 C484 1.363 . S
C482 H498 0.931 . S
C483 C482 1.370 . S
C483 C487 1.408 . S
C484 C482 1.363 . S
C484 C485 1.370 . S
C484 C488 1.524 . S
C485 C477 1.503 . S
C485 C484 1.370 . S
C485 C486 1.403 . S
C486 C485 1.403 . S
C486 C487 1.404 . S
C486 C489 1.539 . S
C487 C483 1.408 . S
C487 C486 1.404 . S
C487 H499 0.930 . S
C488 C484 1.524 . S
C488 H500 0.956 . S
C488 H501 0.961 . S
C488 H502 0.961 . S
C489 C486 1.539 . S
C489 H503 0.958 . S
C489 H504 0.961 . S
C489 H505 0.960 . S
H490 C474 0.931 . S
H491 C479 0.929 . S
H492 C480 0.960 . S
H493 C480 0.962 . S
H494 C480 0.960 . S
H495 C481 0.961 . S
H496 C481 0.961 . S
H497 C481 0.961 . S
H498 C482 0.931 . S
H499 C487 0.930 . S
H500 C488 0.956 . S
H501 C488 0.961 . S
H502 C488 0.961 . S
H503 C489 0.958 . S
H504 C489 0.961 . S
H505 C489 0.960 . S
C506 C507 1.391 . S
C506 C508 1.394 . S
C506 H522 0.931 . S
C507 C506 1.391 . S
C507 C511 1.376 . S
C508 C506 1.394 . S
C508 C509 1.369 . S
C508 C512 1.531 . S
C509 C508 1.369 . S
C509 C510 1.410 . S
C509 C517 1.503 . S
C510 C509 1.410 . S
C510 C511 1.392 . S
C510 C513 1.511 . S
C511 C507 1.376 . S
C511 C510 1.392 . S
C511 H523 0.929 . S
C512 C508 1.531 . S
C512 H524 0.960 . S
C512 H525 0.962 . S
C512 H526 0.960 . S
C513 C510 1.511 . S
C513 H527 0.961 . S
C513 H528 0.961 . S
C513 H529 0.961 . S
C514 C515 1.370 . S
C514 C516 1.363 . S
C514 H530 0.931 . S
C515 C514 1.370 . S
C515 C519 1.408 . S
C516 C514 1.363 . S
C516 C517 1.370 . S
C516 C520 1.524 . S
C517 C509 1.503 . S
C517 C516 1.370 . S
C517 C518 1.403 . S
C518 C517 1.403 . S
C518 C519 1.404 . S
C518 C521 1.539 . S
C519 C515 1.408 . S
C519 C518 1.404 . S
C519 H531 0.930 . S
C520 C516 1.524 . S
C520 H532 0.956 . S
C520 H533 0.961 . S
C520 H534 0.961 . S
C521 C518 1.539 . S
C521 H535 0.958 . S
C521 H536 0.961 . S
C521 H537 0.960 . S
H522 C506 0.931 . S
H523 C511 0.929 . S
H524 C512 0.960 . S
H525 C512 0.962 . S
H526 C512 0.960 . S
H527 C513 0.961 . S
H528 C513 0.961 . S
H529 C513 0.961 . S
H530 C514 0.931 . S
H531 C519 0.930 . S
H532 C520 0.956 . S
H533 C520 0.961 . S
H534 C520 0.961 . S
H535 C521 0.958 . S
H536 C521 0.961 . S
H537 C521 0.960 . S
C538 C539 1.391 . S
C538 C540 1.394 . S
C538 H554 0.931 . S
C539 C538 1.391 . S
C539 C543 1.376 . S
C540 C538 1.394 . S
C540 C541 1.369 . S
C540 C544 1.531 . S
C541 C540 1.369 . S
C541 C542 1.410 . S
C541 C549 1.503 . S
C542 C541 1.410 . S
C542 C543 1.392 . S
C542 C545 1.511 . S
C543 C539 1.376 . S
C543 C542 1.392 . S
C543 H555 0.929 . S
C544 C540 1.531 . S
C544 H556 0.960 . S
C544 H557 0.962 . S
C544 H558 0.960 . S
C545 C542 1.511 . S
C545 H559 0.961 . S
C545 H560 0.961 . S
C545 H561 0.961 . S
C546 C547 1.370 . S
C546 C548 1.363 . S
C546 H562 0.931 . S
C547 C546 1.370 . S
C547 C551 1.408 . S
C548 C546 1.363 . S
C548 C549 1.370 . S
C548 C552 1.524 . S
C549 C541 1.503 . S
C549 C548 1.370 . S
C549 C550 1.403 . S
C550 C549 1.403 . S
C550 C551 1.404 . S
C550 C553 1.539 . S
C551 C547 1.408 . S
C551 C550 1.404 . S
C551 H563 0.930 . S
C552 C548 1.524 . S
C552 H564 0.956 . S
C552 H565 0.961 . S
C552 H566 0.961 . S
C553 C550 1.539 . S
C553 H567 0.958 . S
C553 H568 0.961 . S
C553 H569 0.960 . S
H554 C538 0.931 . S
H555 C543 0.929 . S
H556 C544 0.960 . S
H557 C544 0.962 . S
H558 C544 0.960 . S
H559 C545 0.961 . S
H560 C545 0.961 . S
H561 C545 0.961 . S
H562 C546 0.931 . S
H563 C551 0.930 . S
H564 C552 0.956 . S
H565 C552 0.961 . S
H566 C552 0.961 . S
H567 C553 0.958 . S
H568 C553 0.961 . S
H569 C553 0.960 . S
C570 C571 1.391 . S
C570 C572 1.394 . S
C570 H586 0.931 . S
C571 C570 1.391 . S
C571 C575 1.376 . S
C572 C570 1.394 . S
C572 C573 1.369 . S
C572 C576 1.531 . S
C573 C572 1.369 . S
C573 C574 1.410 . S
C573 C581 1.503 . S
C574 C573 1.410 . S
C574 C575 1.392 . S
C574 C577 1.511 . S
C575 C571 1.376 . S
C575 C574 1.392 . S
C575 H587 0.929 . S
C576 C572 1.531 . S
C576 H588 0.960 . S
C576 H589 0.962 . S
C576 H590 0.960 . S
C577 C574 1.511 . S
C577 H591 0.961 . S
C577 H592 0.961 . S
C577 H593 0.961 . S
C578 C579 1.370 . S
C578 C580 1.363 . S
C578 H594 0.931 . S
C579 C578 1.370 . S
C579 C583 1.408 . S
C580 C578 1.363 . S
C580 C581 1.370 . S
C580 C584 1.524 . S
C581 C573 1.503 . S
C581 C580 1.370 . S
C581 C582 1.403 . S
C582 C581 1.403 . S
C582 C583 1.404 . S
C582 C585 1.539 . S
C583 C579 1.408 . S
C583 C582 1.404 . S
C583 H595 0.930 . S
C584 C580 1.524 . S
C584 H596 0.956 . S
C584 H597 0.961 . S
C584 H598 0.961 . S
C585 C582 1.539 . S
C585 H599 0.958 . S
C585 H600 0.961 . S
C585 H601 0.960 . S
H586 C570 0.931 . S
H587 C575 0.929 . S
H588 C576 0.960 . S
H589 C576 0.962 . S
H590 C576 0.960 . S
H591 C577 0.961 . S
H592 C577 0.961 . S
H593 C577 0.961 . S
H594 C578 0.931 . S
H595 C583 0.930 . S
H596 C584 0.956 . S
H597 C584 0.961 . S
H598 C584 0.961 . S
H599 C585 0.958 . S
H600 C585 0.961 . S
H601 C585 0.960 . S
C602 C603 1.391 . S
C602 C604 1.394 . S
C602 H618 0.931 . S
C603 C602 1.391 . S
C603 C607 1.376 . S
C604 C602 1.394 . S
C604 C605 1.369 . S
C604 C608 1.531 . S
C605 C604 1.369 . S
C605 C606 1.410 . S
C605 C613 1.503 . S
C606 C605 1.410 . S
C606 C607 1.392 . S
C606 C609 1.511 . S
C607 C603 1.376 . S
C607 C606 1.392 . S
C607 H619 0.929 . S
C608 C604 1.531 . S
C608 H620 0.960 . S
C608 H621 0.962 . S
C608 H622 0.960 . S
C609 C606 1.511 . S
C609 H623 0.961 . S
C609 H624 0.961 . S
C609 H625 0.961 . S
C610 C611 1.370 . S
C610 C612 1.363 . S
C610 H626 0.931 . S
C611 C610 1.370 . S
C611 C615 1.408 . S
C612 C610 1.363 . S
C612 C613 1.370 . S
C612 C616 1.524 . S
C613 C605 1.503 . S
C613 C612 1.370 . S
C613 C614 1.403 . S
C614 C613 1.403 . S
C614 C615 1.404 . S
C614 C617 1.539 . S
C615 C611 1.408 . S
C615 C614 1.404 . S
C615 H627 0.930 . S
C616 C612 1.524 . S
C616 H628 0.956 . S
C616 H629 0.961 . S
C616 H630 0.961 . S
C617 C614 1.539 . S
C617 H631 0.958 . S
C617 H632 0.961 . S
C617 H633 0.960 . S
H618 C602 0.931 . S
H619 C607 0.929 . S
H620 C608 0.960 . S
H621 C608 0.962 . S
H622 C608 0.960 . S
H623 C609 0.961 . S
H624 C609 0.961 . S
H625 C609 0.961 . S
H626 C610 0.931 . S
H627 C615 0.930 . S
H628 C616 0.956 . S
H629 C616 0.961 . S
H630 C616 0.961 . S
H631 C617 0.958 . S
H632 C617 0.961 . S
H633 C617 0.960 . S
C634 C635 1.391 . S
C634 C636 1.394 . S
C634 H650 0.931 . S
C635 C634 1.391 . S
C635 C639 1.376 . S
C636 C634 1.394 . S
C636 C637 1.369 . S
C636 C640 1.531 . S
C637 C636 1.369 . S
C637 C638 1.410 . S
C637 C645 1.503 . S
C638 C637 1.410 . S
C638 C639 1.392 . S
C638 C641 1.511 . S
C639 C635 1.376 . S
C639 C638 1.392 . S
C639 H651 0.929 . S
C640 C636 1.531 . S
C640 H652 0.960 . S
C640 H653 0.962 . S
C640 H654 0.960 . S
C641 C638 1.511 . S
C641 H655 0.961 . S
C641 H656 0.961 . S
C641 H657 0.961 . S
C642 C643 1.370 . S
C642 C644 1.363 . S
C642 H658 0.931 . S
C643 C642 1.370 . S
C643 C647 1.408 . S
C644 C642 1.363 . S
C644 C645 1.370 . S
C644 C648 1.524 . S
C645 C637 1.503 . S
C645 C644 1.370 . S
C645 C646 1.403 . S
C646 C645 1.403 . S
C646 C647 1.404 . S
C646 C649 1.539 . S
C647 C643 1.408 . S
C647 C646 1.404 . S
C647 H659 0.930 . S
C648 C644 1.524 . S
C648 H660 0.956 . S
C648 H661 0.961 . S
C648 H662 0.961 . S
C649 C646 1.539 . S
C649 H663 0.958 . S
C649 H664 0.961 . S
C649 H665 0.960 . S
H650 C634 0.931 . S
H651 C639 0.929 . S
H652 C640 0.960 . S
H653 C640 0.962 . S
H654 C640 0.960 . S
H655 C641 0.961 . S
H656 C641 0.961 . S
H657 C641 0.961 . S
H658 C642 0.931 . S
H659 C647 0.930 . S
H660 C648 0.956 . S
H661 C648 0.961 . S
H662 C648 0.961 . S
H663 C649 0.958 . S
H664 C649 0.961 . S
H665 C649 0.960 . S
C666 C667 1.391 . S
C666 C668 1.394 . S
C666 H682 0.931 . S
C667 C666 1.391 . S
C667 C671 1.376 . S
C668 C666 1.394 . S
C668 C669 1.369 . S
C668 C672 1.531 . S
C669 C668 1.369 . S
C669 C670 1.410 . S
C669 C677 1.503 . S
C670 C669 1.410 . S
C670 C671 1.392 . S
C670 C673 1.511 . S
C671 C667 1.376 . S
C671 C670 1.392 . S
C671 H683 0.929 . S
C672 C668 1.531 . S
C672 H684 0.960 . S
C672 H685 0.962 . S
C672 H686 0.960 . S
C673 C670 1.511 . S
C673 H687 0.961 . S
C673 H688 0.961 . S
C673 H689 0.961 . S
C674 C675 1.370 . S
C674 C676 1.363 . S
C674 H690 0.931 . S
C675 C674 1.370 . S
C675 C679 1.408 . S
C676 C674 1.363 . S
C676 C677 1.370 . S
C676 C680 1.524 . S
C677 C669 1.503 . S
C677 C676 1.370 . S
C677 C678 1.403 . S
C678 C677 1.403 . S
C678 C679 1.404 . S
C678 C681 1.539 . S
C679 C675 1.408 . S
C679 C678 1.404 . S
C679 H691 0.930 . S
C680 C676 1.524 . S
C680 H692 0.956 . S
C680 H693 0.961 . S
C680 H694 0.961 . S
C681 C678 1.539 . S
C681 H695 0.958 . S
C681 H696 0.961 . S
C681 H697 0.960 . S
H682 C666 0.931 . S
H683 C671 0.929 . S
H684 C672 0.960 . S
H685 C672 0.962 . S
H686 C672 0.960 . S
H687 C673 0.961 . S
H688 C673 0.961 . S
H689 C673 0.961 . S
H690 C674 0.931 . S
H691 C679 0.930 . S
H692 C680 0.956 . S
H693 C680 0.961 . S
H694 C680 0.961 . S
H695 C681 0.958 . S
H696 C681 0.961 . S
H697 C681 0.960 . S
C698 C699 1.391 . S
C698 C700 1.394 . S
C698 H714 0.931 . S
C699 C698 1.391 . S
C699 C703 1.376 . S
C700 C698 1.394 . S
C700 C701 1.369 . S
C700 C704 1.531 . S
C701 C700 1.369 . S
C701 C702 1.410 . S
C701 C709 1.503 . S
C702 C701 1.410 . S
C702 C703 1.392 . S
C702 C705 1.511 . S
C703 C699 1.376 . S
C703 C702 1.392 . S
C703 H715 0.929 . S
C704 C700 1.531 . S
C704 H716 0.960 . S
C704 H717 0.962 . S
C704 H718 0.960 . S
C705 C702 1.511 . S
C705 H719 0.961 . S
C705 H720 0.961 . S
C705 H721 0.961 . S
C706 C707 1.370 . S
C706 C708 1.363 . S
C706 H722 0.931 . S
C707 C706 1.370 . S
C707 C711 1.408 . S
C708 C706 1.363 . S
C708 C709 1.370 . S
C708 C712 1.524 . S
C709 C701 1.503 . S
C709 C708 1.370 . S
C709 C710 1.403 . S
C710 C709 1.403 . S
C710 C711 1.404 . S
C710 C713 1.539 . S
C711 C707 1.408 . S
C711 C710 1.404 . S
C711 H723 0.930 . S
C712 C708 1.524 . S
C712 H724 0.956 . S
C712 H725 0.961 . S
C712 H726 0.961 . S
C713 C710 1.539 . S
C713 H727 0.958 . S
C713 H728 0.961 . S
C713 H729 0.960 . S
H714 C698 0.931 . S
H715 C703 0.929 . S
H716 C704 0.960 . S
H717 C704 0.962 . S
H718 C704 0.960 . S
H719 C705 0.961 . S
H720 C705 0.961 . S
H721 C705 0.961 . S
H722 C706 0.931 . S
H723 C711 0.930 . S
H724 C712 0.956 . S
H725 C712 0.961 . S
H726 C712 0.961 . S
H727 C713 0.958 . S
H728 C713 0.961 . S
H729 C713 0.960 . S
C730 C731 1.391 . S
C730 C732 1.394 . S
C730 H746 0.931 . S
C731 C730 1.391 . S
C731 C735 1.376 . S
C732 C730 1.394 . S
C732 C733 1.369 . S
C732 C736 1.531 . S
C733 C732 1.369 . S
C733 C734 1.410 . S
C733 C741 1.503 . S
C734 C733 1.410 . S
C734 C735 1.392 . S
C734 C737 1.511 . S
C735 C731 1.376 . S
C735 C734 1.392 . S
C735 H747 0.929 . S
C736 C732 1.531 . S
C736 H748 0.960 . S
C736 H749 0.962 . S
C736 H750 0.960 . S
C737 C734 1.511 . S
C737 H751 0.961 . S
C737 H752 0.961 . S
C737 H753 0.961 . S
C738 C739 1.370 . S
C738 C740 1.363 . S
C738 H754 0.931 . S
C739 C738 1.370 . S
C739 C743 1.408 . S
C740 C738 1.363 . S
C740 C741 1.370 . S
C740 C744 1.524 . S
C741 C733 1.503 . S
C741 C740 1.370 . S
C741 C742 1.403 . S
C742 C741 1.403 . S
C742 C743 1.404 . S
C742 C745 1.539 . S
C743 C739 1.408 . S
C743 C742 1.404 . S
C743 H755 0.930 . S
C744 C740 1.524 . S
C744 H756 0.956 . S
C744 H757 0.961 . S
C744 H758 0.961 . S
C745 C742 1.539 . S
C745 H759 0.958 . S
C745 H760 0.961 . S
C745 H761 0.960 . S
H746 C730 0.931 . S
H747 C735 0.929 . S
H748 C736 0.960 . S
H749 C736 0.962 . S
H750 C736 0.960 . S
H751 C737 0.961 . S
H752 C737 0.961 . S
H753 C737 0.961 . S
H754 C738 0.931 . S
H755 C743 0.930 . S
H756 C744 0.956 . S
H757 C744 0.961 . S
H758 C744 0.961 . S
H759 C745 0.958 . S
H760 C745 0.961 . S
H761 C745 0.960 . S
C762 C763 1.391 . S
C762 C764 1.394 . S
C762 H778 0.931 . S
C763 C762 1.391 . S
C763 C767 1.376 . S
C764 C762 1.394 . S
C764 C765 1.369 . S
C764 C768 1.531 . S
C765 C764 1.369 . S
C765 C766 1.410 . S
C765 C773 1.503 . S
C766 C765 1.410 . S
C766 C767 1.392 . S
C766 C769 1.511 . S
C767 C763 1.376 . S
C767 C766 1.392 . S
C767 H779 0.929 . S
C768 C764 1.531 . S
C768 H780 0.960 . S
C768 H781 0.962 . S
C768 H782 0.960 . S
C769 C766 1.511 . S
C769 H783 0.961 . S
C769 H784 0.961 . S
C769 H785 0.961 . S
C770 C771 1.370 . S
C770 C772 1.363 . S
C770 H786 0.931 . S
C771 C770 1.370 . S
C771 C775 1.408 . S
C772 C770 1.363 . S
C772 C773 1.370 . S
C772 C776 1.524 . S
C773 C765 1.503 . S
C773 C772 1.370 . S
C773 C774 1.403 . S
C774 C773 1.403 . S
C774 C775 1.404 . S
C774 C777 1.539 . S
C775 C771 1.408 . S
C775 C774 1.404 . S
C775 H787 0.930 . S
C776 C772 1.524 . S
C776 H788 0.956 . S
C776 H789 0.961 . S
C776 H790 0.961 . S
C777 C774 1.539 . S
C777 H791 0.958 . S
C777 H792 0.961 . S
C777 H793 0.960 . S
H778 C762 0.931 . S
H779 C767 0.929 . S
H780 C768 0.960 . S
H781 C768 0.962 . S
H782 C768 0.960 . S
H783 C769 0.961 . S
H784 C769 0.961 . S
H785 C769 0.961 . S
H786 C770 0.931 . S
H787 C775 0.930 . S
H788 C776 0.956 . S
H789 C776 0.961 . S
H790 C776 0.961 . S
H791 C777 0.958 . S
H792 C777 0.961 . S
H793 C777 0.960 . S
C794 C795 1.391 . S
C794 C796 1.394 . S
C794 H810 0.931 . S
C795 C794 1.391 . S
C795 C799 1.376 . S
C796 C794 1.394 . S
C796 C797 1.369 . S
C796 C800 1.531 . S
C797 C796 1.369 . S
C797 C798 1.410 . S
C797 C805 1.503 . S
C798 C797 1.410 . S
C798 C799 1.392 . S
C798 C801 1.511 . S
C799 C795 1.376 . S
C799 C798 1.392 . S
C799 H811 0.929 . S
C800 C796 1.531 . S
C800 H812 0.960 . S
C800 H813 0.962 . S
C800 H814 0.960 . S
C801 C798 1.511 . S
C801 H815 0.961 . S
C801 H816 0.961 . S
C801 H817 0.961 . S
C802 C803 1.370 . S
C802 C804 1.363 . S
C802 H818 0.931 . S
C803 C802 1.370 . S
C803 C807 1.408 . S
C804 C802 1.363 . S
C804 C805 1.370 . S
C804 C808 1.524 . S
C805 C797 1.503 . S
C805 C804 1.370 . S
C805 C806 1.403 . S
C806 C805 1.403 . S
C806 C807 1.404 . S
C806 C809 1.539 . S
C807 C803 1.408 . S
C807 C806 1.404 . S
C807 H819 0.930 . S
C808 C804 1.524 . S
C808 H820 0.956 . S
C808 H821 0.961 . S
C808 H822 0.961 . S
C809 C806 1.539 . S
C809 H823 0.958 . S
C809 H824 0.961 . S
C809 H825 0.960 . S
H810 C794 0.931 . S
H811 C799 0.929 . S
H812 C800 0.960 . S
H813 C800 0.962 . S
H814 C800 0.960 . S
H815 C801 0.961 . S
H816 C801 0.961 . S
H817 C801 0.961 . S
H818 C802 0.931 . S
H819 C807 0.930 . S
H820 C808 0.956 . S
H821 C808 0.961 . S
H822 C808 0.961 . S
H823 C809 0.958 . S
H824 C809 0.961 . S
H825 C809 0.960 . S
C826 C827 1.391 . S
C826 C828 1.394 . S
C826 H842 0.931 . S
C827 C826 1.391 . S
C827 C831 1.376 . S
C828 C826 1.394 . S
C828 C829 1.369 . S
C828 C832 1.531 . S
C829 C828 1.369 . S
C829 C830 1.410 . S
C829 C837 1.503 . S
C830 C829 1.410 . S
C830 C831 1.392 . S
C830 C833 1.511 . S
C831 C827 1.376 . S
C831 C830 1.392 . S
C831 H843 0.929 . S
C832 C828 1.531 . S
C832 H844 0.960 . S
C832 H845 0.962 . S
C832 H846 0.960 . S
C833 C830 1.511 . S
C833 H847 0.961 . S
C833 H848 0.961 . S
C833 H849 0.961 . S
C834 C835 1.370 . S
C834 C836 1.363 . S
C834 H850 0.931 . S
C835 C834 1.370 . S
C835 C839 1.408 . S
C836 C834 1.363 . S
C836 C837 1.370 . S
C836 C840 1.524 . S
C837 C829 1.503 . S
C837 C836 1.370 . S
C837 C838 1.403 . S
C838 C837 1.403 . S
C838 C839 1.404 . S
C838 C841 1.539 . S
C839 C835 1.408 . S
C839 C838 1.404 . S
C839 H851 0.930 . S
C840 C836 1.524 . S
C840 H852 0.956 . S
C840 H853 0.961 . S
C840 H854 0.961 . S
C841 C838 1.539 . S
C841 H855 0.958 . S
C841 H856 0.961 . S
C841 H857 0.960 . S
H842 C826 0.931 . S
H843 C831 0.929 . S
H844 C832 0.960 . S
H845 C832 0.962 . S
H846 C832 0.960 . S
H847 C833 0.961 . S
H848 C833 0.961 . S
H849 C833 0.961 . S
H850 C834 0.931 . S
H851 C839 0.930 . S
H852 C840 0.956 . S
H853 C840 0.961 . S
H854 C840 0.961 . S
H855 C841 0.958 . S
H856 C841 0.961 . S
H857 C841 0.960 . S
C858 C859 1.391 . S
C858 C860 1.394 . S
C858 H874 0.931 . S
C859 C858 1.391 . S
C859 C863 1.376 . S
C860 C858 1.394 . S
C860 C861 1.369 . S
C860 C864 1.531 . S
C861 C860 1.369 . S
C861 C862 1.410 . S
C861 C869 1.503 . S
C862 C861 1.410 . S
C862 C863 1.392 . S
C862 C865 1.511 . S
C863 C859 1.376 . S
C863 C862 1.392 . S
C863 H875 0.929 . S
C864 C860 1.531 . S
C864 H876 0.960 . S
C864 H877 0.962 . S
C864 H878 0.960 . S
C865 C862 1.511 . S
C865 H879 0.961 . S
C865 H880 0.961 . S
C865 H881 0.961 . S
C866 C867 1.370 . S
C866 C868 1.363 . S
C866 H882 0.931 . S
C867 C866 1.370 . S
C867 C871 1.408 . S
C868 C866 1.363 . S
C868 C869 1.370 . S
C868 C872 1.524 . S
C869 C861 1.503 . S
C869 C868 1.370 . S
C869 C870 1.403 . S
C870 C869 1.403 . S
C870 C871 1.404 . S
C870 C873 1.539 . S
C871 C867 1.408 . S
C871 C870 1.404 . S
C871 H883 0.930 . S
C872 C868 1.524 . S
C872 H884 0.956 . S
C872 H885 0.961 . S
C872 H886 0.961 . S
C873 C870 1.539 . S
C873 H887 0.958 . S
C873 H888 0.961 . S
C873 H889 0.960 . S
H874 C858 0.931 . S
H875 C863 0.929 . S
H876 C864 0.960 . S
H877 C864 0.962 . S
H878 C864 0.960 . S
H879 C865 0.961 . S
H880 C865 0.961 . S
H881 C865 0.961 . S
H882 C866 0.931 . S
H883 C871 0.930 . S
H884 C872 0.956 . S
H885 C872 0.961 . S
H886 C872 0.961 . S
H887 C873 0.958 . S
H888 C873 0.961 . S
H889 C873 0.960 . S
C890 C891 1.391 . S
C890 C892 1.394 . S
C890 H906 0.931 . S
C891 C890 1.391 . S
C891 C895 1.376 . S
C892 C890 1.394 . S
C892 C893 1.369 . S
C892 C896 1.531 . S
C893 C892 1.369 . S
C893 C894 1.410 . S
C893 C901 1.503 . S
C894 C893 1.410 . S
C894 C895 1.392 . S
C894 C897 1.511 . S
C895 C891 1.376 . S
C895 C894 1.392 . S
C895 H907 0.929 . S
C896 C892 1.531 . S
C896 H908 0.960 . S
C896 H909 0.962 . S
C896 H910 0.960 . S
C897 C894 1.511 . S
C897 H911 0.961 . S
C897 H912 0.961 . S
C897 H913 0.961 . S
C898 C899 1.370 . S
C898 C900 1.363 . S
C898 H914 0.931 . S
C899 C898 1.370 . S
C899 C903 1.408 . S
C900 C898 1.363 . S
C900 C901 1.370 . S
C900 C904 1.524 . S
C901 C893 1.503 . S
C901 C900 1.370 . S
C901 C902 1.403 . S
C902 C901 1.403 . S
C902 C903 1.404 . S
C902 C905 1.539 . S
C903 C899 1.408 . S
C903 C902 1.404 . S
C903 H915 0.930 . S
C904 C900 1.524 . S
C904 H916 0.956 . S
C904 H917 0.961 . S
C904 H918 0.961 . S
C905 C902 1.539 . S
C905 H919 0.958 . S
C905 H920 0.961 . S
C905 H921 0.960 . S
H906 C890 0.931 . S
H907 C895 0.929 . S
H908 C896 0.960 . S
H909 C896 0.962 . S
H910 C896 0.960 . S
H911 C897 0.961 . S
H912 C897 0.961 . S
H913 C897 0.961 . S
H914 C898 0.931 . S
H915 C903 0.930 . S
H916 C904 0.956 . S
H917 C904 0.961 . S
H918 C904 0.961 . S
H919 C905 0.958 . S
H920 C905 0.961 . S
H921 C905 0.960 . S
C922 C923 1.391 . S
C922 C924 1.394 . S
C922 H938 0.931 . S
C923 C922 1.391 . S
C923 C927 1.376 . S
C924 C922 1.394 . S
C924 C925 1.369 . S
C924 C928 1.531 . S
C925 C924 1.369 . S
C925 C926 1.410 . S
C925 C933 1.503 . S
C926 C925 1.410 . S
C926 C927 1.392 . S
C926 C929 1.511 . S
C927 C923 1.376 . S
C927 C926 1.392 . S
C927 H939 0.929 . S
C928 C924 1.531 . S
C928 H940 0.960 . S
C928 H941 0.962 . S
C928 H942 0.960 . S
C929 C926 1.511 . S
C929 H943 0.961 . S
C929 H944 0.961 . S
C929 H945 0.961 . S
C930 C931 1.370 . S
C930 C932 1.363 . S
C930 H946 0.931 . S
C931 C930 1.370 . S
C931 C935 1.408 . S
C932 C930 1.363 . S
C932 C933 1.370 . S
C932 C936 1.524 . S
C933 C925 1.503 . S
C933 C932 1.370 . S
C933 C934 1.403 . S
C934 C933 1.403 . S
C934 C935 1.404 . S
C934 C937 1.539 . S
C935 C931 1.408 . S
C935 C934 1.404 . S
C935 H947 0.930 . S
C936 C932 1.524 . S
C936 H948 0.956 . S
C936 H949 0.961 . S
C936 H950 0.961 . S
C937 C934 1.539 . S
C937 H951 0.958 . S
C937 H952 0.961 . S
C937 H953 0.960 . S
H938 C922 0.931 . S
H939 C927 0.929 . S
H940 C928 0.960 . S
H941 C928 0.962 . S
H942 C928 0.960 . S
H943 C929 0.961 . S
H944 C929 0.961 . S
H945 C929 0.961 . S
H946 C930 0.931 . S
H947 C935 0.930 . S
H948 C936 0.956 . S
H949 C936 0.961 . S
H950 C936 0.961 . S
H951 C937 0.958 . S
H952 C937 0.961 . S
H953 C937 0.960 . S
C954 C955 1.391 . S
C954 C956 1.394 . S
C954 H970 0.931 . S
C955 C954 1.391 . S
C955 C959 1.376 . S
C956 C954 1.394 . S
C956 C957 1.369 . S
C956 C960 1.531 . S
C957 C956 1.369 . S
C957 C958 1.410 . S
C957 C965 1.503 . S
C958 C957 1.410 . S
C958 C959 1.392 . S
C958 C961 1.511 . S
C959 C955 1.376 . S
C959 C958 1.392 . S
C959 H971 0.929 . S
C960 C956 1.531 . S
C960 H972 0.960 . S
C960 H973 0.962 . S
C960 H974 0.960 . S
C961 C958 1.511 . S
C961 H975 0.961 . S
C961 H976 0.961 . S
C961 H977 0.961 . S
C962 C963 1.370 . S
C962 C964 1.363 . S
C962 H978 0.931 . S
C963 C962 1.370 . S
C963 C967 1.408 . S
C964 C962 1.363 . S
C964 C965 1.370 . S
C964 C968 1.524 . S
C965 C957 1.503 . S
C965 C964 1.370 . S
C965 C966 1.403 . S
C966 C965 1.403 . S
C966 C967 1.404 . S
C966 C969 1.539 . S
C967 C963 1.408 . S
C967 C966 1.404 . S
C967 H979 0.930 . S
C968 C964 1.524 . S
C968 H980 0.956 . S
C968 H981 0.961 . S
C968 H982 0.961 . S
C969 C966 1.539 . S
C969 H983 0.958 . S
C969 H984 0.961 . S
C969 H985 0.960 . S
H970 C954 0.931 . S
H971 C959 0.929 . S
H972 C960 0.960 . S
H973 C960 0.962 . S
H974 C960 0.960 . S
H975 C961 0.961 . S
H976 C961 0.961 . S
H977 C961 0.961 . S
H978 C962 0.931 . S
H979 C967 0.930 . S
H980 C968 0.956 . S
H981 C968 0.961 . S
H982 C968 0.961 . S
H983 C969 0.958 . S
H984 C969 0.961 . S
H985 C969 0.960 . S
C986 C987 1.391 . S
C986 C988 1.394 . S
C986 H1002 0.931 . S
C987 C986 1.391 . S
C987 C991 1.376 . S
C988 C986 1.394 . S
C988 C989 1.369 . S
C988 C992 1.531 . S
C989 C988 1.369 . S
C989 C990 1.410 . S
C989 C997 1.503 . S
C990 C989 1.410 . S
C990 C991 1.392 . S
C990 C993 1.511 . S
C991 C987 1.376 . S
C991 C990 1.392 . S
C991 H1003 0.929 . S
C992 C988 1.531 . S
C992 H1004 0.960 . S
C992 H1005 0.962 . S
C992 H1006 0.960 . S
C993 C990 1.511 . S
C993 H1007 0.961 . S
C993 H1008 0.961 . S
C993 H1009 0.961 . S
C994 C995 1.370 . S
C994 C996 1.363 . S
C994 H1010 0.931 . S
C995 C994 1.370 . S
C995 C999 1.408 . S
C996 C994 1.363 . S
C996 C997 1.370 . S
C996 C1000 1.524 . S
C997 C989 1.503 . S
C997 C996 1.370 . S
C997 C998 1.403 . S
C998 C997 1.403 . S
C998 C999 1.404 . S
C998 C1001 1.539 . S
C999 C995 1.408 . S
C999 C998 1.404 . S
C999 H1011 0.930 . S
C1000 C996 1.524 . S
C1000 H1012 0.956 . S
C1000 H1013 0.961 . S
C1000 H1014 0.961 . S
C1001 C998 1.539 . S
C1001 H1015 0.958 . S
C1001 H1016 0.961 . S
C1001 H1017 0.960 . S
H1002 C986 0.931 . S
H1003 C991 0.929 . S
H1004 C992 0.960 . S
H1005 C992 0.962 . S
H1006 C992 0.960 . S
H1007 C993 0.961 . S
H1008 C993 0.961 . S
H1009 C993 0.961 . S
H1010 C994 0.931 . S
H1011 C999 0.930 . S
H1012 C1000 0.956 . S
H1013 C1000 0.961 . S
H1014 C1000 0.961 . S
H1015 C1001 0.958 . S
H1016 C1001 0.961 . S
H1017 C1001 0.960 . S
C1018 C1019 1.391 . S
C1018 C1020 1.394 . S
C1018 H1034 0.931 . S
C1019 C1018 1.391 . S
C1019 C1023 1.376 . S
C1020 C1018 1.394 . S
C1020 C1021 1.369 . S
C1020 C1024 1.531 . S
C1021 C1020 1.369 . S
C1021 C1022 1.410 . S
C1021 C1029 1.503 . S
C1022 C1021 1.410 . S
C1022 C1023 1.392 . S
C1022 C1025 1.511 . S
C1023 C1019 1.376 . S
C1023 C1022 1.392 . S
C1023 H1035 0.929 . S
C1024 C1020 1.531 . S
C1024 H1036 0.960 . S
C1024 H1037 0.962 . S
C1024 H1038 0.960 . S
C1025 C1022 1.511 . S
C1025 H1039 0.961 . S
C1025 H1040 0.961 . S
C1025 H1041 0.961 . S
C1026 C1027 1.370 . S
C1026 C1028 1.363 . S
C1026 H1042 0.931 . S
C1027 C1026 1.370 . S
C1027 C1031 1.408 . S
C1028 C1026 1.363 . S
C1028 C1029 1.370 . S
C1028 C1032 1.524 . S
C1029 C1021 1.503 . S
C1029 C1028 1.370 . S
C1029 C1030 1.403 . S
C1030 C1029 1.403 . S
C1030 C1031 1.404 . S
C1030 C1033 1.539 . S
C1031 C1027 1.408 . S
C1031 C1030 1.404 . S
C1031 H1043 0.930 . S
C1032 C1028 1.524 . S
C1032 H1044 0.956 . S
C1032 H1045 0.961 . S
C1032 H1046 0.961 . S
C1033 C1030 1.539 . S
C1033 H1047 0.958 . S
C1033 H1048 0.961 . S
C1033 H1049 0.960 . S
H1034 C1018 0.931 . S
H1035 C1023 0.929 . S
H1036 C1024 0.960 . S
H1037 C1024 0.962 . S
H1038 C1024 0.960 . S
H1039 C1025 0.961 . S
H1040 C1025 0.961 . S
H1041 C1025 0.961 . S
H1042 C1026 0.931 . S
H1043 C1031 0.930 . S
H1044 C1032 0.956 . S
H1045 C1032 0.961 . S
H1046 C1032 0.961 . S
H1047 C1033 0.958 . S
H1048 C1033 0.961 . S
H1049 C1033 0.960 . S
C1050 C1051 1.391 . S
C1050 C1052 1.394 . S
C1050 H1066 0.931 . S
C1051 C1050 1.391 . S
C1051 C1055 1.376 . S
C1052 C1050 1.394 . S
C1052 C1053 1.369 . S
C1052 C1056 1.531 . S
C1053 C1052 1.369 . S
C1053 C1054 1.410 . S
C1053 C1061 1.503 . S
C1054 C1053 1.410 . S
C1054 C1055 1.392 . S
C1054 C1057 1.511 . S
C1055 C1051 1.376 . S
C1055 C1054 1.392 . S
C1055 H1067 0.929 . S
C1056 C1052 1.531 . S
C1056 H1068 0.960 . S
C1056 H1069 0.962 . S
C1056 H1070 0.960 . S
C1057 C1054 1.511 . S
C1057 H1071 0.961 . S
C1057 H1072 0.961 . S
C1057 H1073 0.961 . S
C1058 C1059 1.370 . S
C1058 C1060 1.363 . S
C1058 H1074 0.931 . S
C1059 C1058 1.370 . S
C1059 C1063 1.408 . S
C1060 C1058 1.363 . S
C1060 C1061 1.370 . S
C1060 C1064 1.524 . S
C1061 C1053 1.503 . S
C1061 C1060 1.370 . S
C1061 C1062 1.403 . S
C1062 C1061 1.403 . S
C1062 C1063 1.404 . S
C1062 C1065 1.539 . S
C1063 C1059 1.408 . S
C1063 C1062 1.404 . S
C1063 H1075 0.930 . S
C1064 C1060 1.524 . S
C1064 H1076 0.956 . S
C1064 H1077 0.961 . S
C1064 H1078 0.961 . S
C1065 C1062 1.539 . S
C1065 H1079 0.958 . S
C1065 H1080 0.961 . S
C1065 H1081 0.960 . S
H1066 C1050 0.931 . S
H1067 C1055 0.929 . S
H1068 C1056 0.960 . S
H1069 C1056 0.962 . S
H1070 C1056 0.960 . S
H1071 C1057 0.961 . S
H1072 C1057 0.961 . S
H1073 C1057 0.961 . S
H1074 C1058 0.931 . S
H1075 C1063 0.930 . S
H1076 C1064 0.956 . S
H1077 C1064 0.961 . S
H1078 C1064 0.961 . S
H1079 C1065 0.958 . S
H1080 C1065 0.961 . S
H1081 C1065 0.960 . S
C1082 C1083 1.391 . S
C1082 C1084 1.394 . S
C1082 H1098 0.931 . S
C1083 C1082 1.391 . S
C1083 C1087 1.376 . S
C1084 C1082 1.394 . S
C1084 C1085 1.369 . S
C1084 C1088 1.531 . S
C1085 C1084 1.369 . S
C1085 C1086 1.410 . S
C1085 C1093 1.503 . S
C1086 C1085 1.410 . S
C1086 C1087 1.392 . S
C1086 C1089 1.511 . S
C1087 C1083 1.376 . S
C1087 C1086 1.392 . S
C1087 H1099 0.929 . S
C1088 C1084 1.531 . S
C1088 H1100 0.960 . S
C1088 H1101 0.962 . S
C1088 H1102 0.960 . S
C1089 C1086 1.511 . S
C1089 H1103 0.961 . S
C1089 H1104 0.961 . S
C1089 H1105 0.961 . S
C1090 C1091 1.370 . S
C1090 C1092 1.363 . S
C1090 H1106 0.931 . S
C1091 C1090 1.370 . S
C1091 C1095 1.408 . S
C1092 C1090 1.363 . S
C1092 C1093 1.370 . S
C1092 C1096 1.524 . S
C1093 C1085 1.503 . S
C1093 C1092 1.370 . S
C1093 C1094 1.403 . S
C1094 C1093 1.403 . S
C1094 C1095 1.404 . S
C1094 C1097 1.539 . S
C1095 C1091 1.408 . S
C1095 C1094 1.404 . S
C1095 H1107 0.930 . S
C1096 C1092 1.524 . S
C1096 H1108 0.956 . S
C1096 H1109 0.961 . S
C1096 H1110 0.961 . S
C1097 C1094 1.539 . S
C1097 H1111 0.958 . S
C1097 H1112 0.961 . S
C1097 H1113 0.960 . S
H1098 C1082 0.931 . S
H1099 C1087 0.929 . S
H1100 C1088 0.960 . S
H1101 C1088 0.962 . S
H1102 C1088 0.960 . S
H1103 C1089 0.961 . S
H1104 C1089 0.961 . S
H1105 C1089 0.961 . S
H1106 C1090 0.931 . S
H1107 C1095 0.930 . S
H1108 C1096 0.956 . S
H1109 C1096 0.961 . S
H1110 C1096 0.961 . S
H1111 C1097 0.958 . S
H1112 C1097 0.961 . S
H1113 C1097 0.960 . S
C1114 C1115 1.391 . S
C1114 C1116 1.394 . S
C1114 H1130 0.931 . S
C1115 C1114 1.391 . S
C1115 C1119 1.376 . S
C1116 C1114 1.394 . S
C1116 C1117 1.369 . S
C1116 C1120 1.531 . S
C1117 C1116 1.369 . S
C1117 C1118 1.410 . S
C1117 C1125 1.503 . S
C1118 C1117 1.410 . S
C1118 C1119 1.392 . S
C1118 C1121 1.511 . S
C1119 C1115 1.376 . S
C1119 C1118 1.392 . S
C1119 H1131 0.929 . S
C1120 C1116 1.531 . S
C1120 H1132 0.960 . S
C1120 H1133 0.962 . S
C1120 H1134 0.960 . S
C1121 C1118 1.511 . S
C1121 H1135 0.961 . S
C1121 H1136 0.961 . S
C1121 H1137 0.961 . S
C1122 C1123 1.370 . S
C1122 C1124 1.363 . S
C1122 H1138 0.931 . S
C1123 C1122 1.370 . S
C1123 C1127 1.408 . S
C1124 C1122 1.363 . S
C1124 C1125 1.370 . S
C1124 C1128 1.524 . S
C1125 C1117 1.503 . S
C1125 C1124 1.370 . S
C1125 C1126 1.403 . S
C1126 C1125 1.403 . S
C1126 C1127 1.404 . S
C1126 C1129 1.539 . S
C1127 C1123 1.408 . S
C1127 C1126 1.404 . S
C1127 H1139 0.930 . S
C1128 C1124 1.524 . S
C1128 H1140 0.956 . S
C1128 H1141 0.961 . S
C1128 H1142 0.961 . S
C1129 C1126 1.539 . S
C1129 H1143 0.958 . S
C1129 H1144 0.961 . S
C1129 H1145 0.960 . S
H1130 C1114 0.931 . S
H1131 C1119 0.929 . S
H1132 C1120 0.960 . S
H1133 C1120 0.962 . S
H1134 C1120 0.960 . S
H1135 C1121 0.961 . S
H1136 C1121 0.961 . S
H1137 C1121 0.961 . S
H1138 C1122 0.931 . S
H1139 C1127 0.930 . S
H1140 C1128 0.956 . S
H1141 C1128 0.961 . S
H1142 C1128 0.961 . S
H1143 C1129 0.958 . S
H1144 C1129 0.961 . S
H1145 C1129 0.960 . S
C1146 C1147 1.391 . S
C1146 C1148 1.394 . S
C1146 H1162 0.931 . S
C1147 C1146 1.391 . S
C1147 C1151 1.376 . S
C1148 C1146 1.394 . S
C1148 C1149 1.369 . S
C1148 C1152 1.531 . S
C1149 C1148 1.369 . S
C1149 C1150 1.410 . S
C1149 C1157 1.503 . S
C1150 C1149 1.410 . S
C1150 C1151 1.392 . S
C1150 C1153 1.511 . S
C1151 C1147 1.376 . S
C1151 C1150 1.392 . S
C1151 H1163 0.929 . S
C1152 C1148 1.531 . S
C1152 H1164 0.960 . S
C1152 H1165 0.962 . S
C1152 H1166 0.960 . S
C1153 C1150 1.511 . S
C1153 H1167 0.961 . S
C1153 H1168 0.961 . S
C1153 H1169 0.961 . S
C1154 C1155 1.370 . S
C1154 C1156 1.363 . S
C1154 H1170 0.931 . S
C1155 C1154 1.370 . S
C1155 C1159 1.408 . S
C1156 C1154 1.363 . S
C1156 C1157 1.370 . S
C1156 C1160 1.524 . S
C1157 C1149 1.503 . S
C1157 C1156 1.370 . S
C1157 C1158 1.403 . S
C1158 C1157 1.403 . S
C1158 C1159 1.404 . S
C1158 C1161 1.539 . S
C1159 C1155 1.408 . S
C1159 C1158 1.404 . S
C1159 H1171 0.930 . S
C1160 C1156 1.524 . S
C1160 H1172 0.956 . S
C1160 H1173 0.961 . S
C1160 H1174 0.961 . S
C1161 C1158 1.539 . S
C1161 H1175 0.958 . S
C1161 H1176 0.961 . S
C1161 H1177 0.960 . S
H1162 C1146 0.931 . S
H1163 C1151 0.929 . S
H1164 C1152 0.960 . S
H1165 C1152 0.962 . S
H1166 C1152 0.960 . S
H1167 C1153 0.961 . S
H1168 C1153 0.961 . S
H1169 C1153 0.961 . S
H1170 C1154 0.931 . S
H1171 C1159 0.930 . S
H1172 C1160 0.956 . S
H1173 C1160 0.961 . S
H1174 C1160 0.961 . S
H1175 C1161 0.958 . S
H1176 C1161 0.961 . S
H1177 C1161 0.960 . S
C1178 C1179 1.391 . S
C1178 C1180 1.394 . S
C1178 H1194 0.931 . S
C1179 C1178 1.391 . S
C1179 C1183 1.376 . S
C1180 C1178 1.394 . S
C1180 C1181 1.369 . S
C1180 C1184 1.531 . S
C1181 C1180 1.369 . S
C1181 C1182 1.410 . S
C1181 C1189 1.503 . S
C1182 C1181 1.410 . S
C1182 C1183 1.392 . S
C1182 C1185 1.511 . S
C1183 C1179 1.376 . S
C1183 C1182 1.392 . S
C1183 H1195 0.929 . S
C1184 C1180 1.531 . S
C1184 H1196 0.960 . S
C1184 H1197 0.962 . S
C1184 H1198 0.960 . S
C1185 C1182 1.511 . S
C1185 H1199 0.961 . S
C1185 H1200 0.961 . S
C1185 H1201 0.961 . S
C1186 C1187 1.370 . S
C1186 C1188 1.363 . S
C1186 H1202 0.931 . S
C1187 C1186 1.370 . S
C1187 C1191 1.408 . S
C1188 C1186 1.363 . S
C1188 C1189 1.370 . S
C1188 C1192 1.524 . S
C1189 C1181 1.503 . S
C1189 C1188 1.370 . S
C1189 C1190 1.403 . S
C1190 C1189 1.403 . S
C1190 C1191 1.404 . S
C1190 C1193 1.539 . S
C1191 C1187 1.408 . S
C1191 C1190 1.404 . S
C1191 H1203 0.930 . S
C1192 C1188 1.524 . S
C1192 H1204 0.956 . S
C1192 H1205 0.961 . S
C1192 H1206 0.961 . S
C1193 C1190 1.539 . S
C1193 H1207 0.958 . S
C1193 H1208 0.961 . S
C1193 H1209 0.960 . S
H1194 C1178 0.931 . S
H1195 C1183 0.929 . S
H1196 C1184 0.960 . S
H1197 C1184 0.962 . S
H1198 C1184 0.960 . S
H1199 C1185 0.961 . S
H1200 C1185 0.961 . S
H1201 C1185 0.961 . S
H1202 C1186 0.931 . S
H1203 C1191 0.930 . S
H1204 C1192 0.956 . S
H1205 C1192 0.961 . S
H1206 C1192 0.961 . S
H1207 C1193 0.958 . S
H1208 C1193 0.961 . S
H1209 C1193 0.960 . S
C1210 C1211 1.391 . S
C1210 C1212 1.394 . S
C1210 H1226 0.931 . S
C1211 C1210 1.391 . S
C1211 C1215 1.376 . S
C1212 C1210 1.394 . S
C1212 C1213 1.369 . S
C1212 C1216 1.531 . S
C1213 C1212 1.369 . S
C1213 C1214 1.410 . S
C1213 C1221 1.503 . S
C1214 C1213 1.410 . S
C1214 C1215 1.392 . S
C1214 C1217 1.511 . S
C1215 C1211 1.376 . S
C1215 C1214 1.392 . S
C1215 H1227 0.929 . S
C1216 C1212 1.531 . S
C1216 H1228 0.960 . S
C1216 H1229 0.962 . S
C1216 H1230 0.960 . S
C1217 C1214 1.511 . S
C1217 H1231 0.961 . S
C1217 H1232 0.961 . S
C1217 H1233 0.961 . S
C1218 C1219 1.370 . S
C1218 C1220 1.363 . S
C1218 H1234 0.931 . S
C1219 C1218 1.370 . S
C1219 C1223 1.408 . S
C1220 C1218 1.363 . S
C1220 C1221 1.370 . S
C1220 C1224 1.524 . S
C1221 C1213 1.503 . S
C1221 C1220 1.370 . S
C1221 C1222 1.403 . S
C1222 C1221 1.403 . S
C1222 C1223 1.404 . S
C1222 C1225 1.539 . S
C1223 C1219 1.408 . S
C1223 C1222 1.404 . S
C1223 H1235 0.930 . S
C1224 C1220 1.524 . S
C1224 H1236 0.956 . S
C1224 H1237 0.961 . S
C1224 H1238 0.961 . S
C1225 C1222 1.539 . S
C1225 H1239 0.958 . S
C1225 H1240 0.961 . S
C1225 H1241 0.960 . S
H1226 C1210 0.931 . S
H1227 C1215 0.929 . S
H1228 C1216 0.960 . S
H1229 C1216 0.962 . S
H1230 C1216 0.960 . S
H1231 C1217 0.961 . S
H1232 C1217 0.961 . S
H1233 C1217 0.961 . S
H1234 C1218 0.931 . S
H1235 C1223 0.930 . S
H1236 C1224 0.956 . S
H1237 C1224 0.961 . S
H1238 C1224 0.961 . S
H1239 C1225 0.958 . S
H1240 C1225 0.961 . S
H1241 C1225 0.960 . S
C1242 C1243 1.391 . S
C1242 C1244 1.394 . S
C1242 H1258 0.931 . S
C1243 C1242 1.391 . S
C1243 C1247 1.376 . S
C1244 C1242 1.394 . S
C1244 C1245 1.369 . S
C1244 C1248 1.531 . S
C1245 C1244 1.369 . S
C1245 C1246 1.410 . S
C1245 C1253 1.503 . S
C1246 C1245 1.410 . S
C1246 C1247 1.392 . S
C1246 C1249 1.511 . S
C1247 C1243 1.376 . S
C1247 C1246 1.392 . S
C1247 H1259 0.929 . S
C1248 C1244 1.531 . S
C1248 H1260 0.960 . S
C1248 H1261 0.962 . S
C1248 H1262 0.960 . S
C1249 C1246 1.511 . S
C1249 H1263 0.961 . S
C1249 H1264 0.961 . S
C1249 H1265 0.961 . S
C1250 C1251 1.370 . S
C1250 C1252 1.363 . S
C1250 H1266 0.931 . S
C1251 C1250 1.370 . S
C1251 C1255 1.408 . S
C1252 C1250 1.363 . S
C1252 C1253 1.370 . S
C1252 C1256 1.524 . S
C1253 C1245 1.503 . S
C1253 C1252 1.370 . S
C1253 C1254 1.403 . S
C1254 C1253 1.403 . S
C1254 C1255 1.404 . S
C1254 C1257 1.539 . S
C1255 C1251 1.408 . S
C1255 C1254 1.404 . S
C1255 H1267 0.930 . S
C1256 C1252 1.524 . S
C1256 H1268 0.956 . S
C1256 H1269 0.961 . S
C1256 H1270 0.961 . S
C1257 C1254 1.539 . S
C1257 H1271 0.958 . S
C1257 H1272 0.961 . S
C1257 H1273 0.960 . S
H1258 C1242 0.931 . S
H1259 C1247 0.929 . S
H1260 C1248 0.960 . S
H1261 C1248 0.962 . S
H1262 C1248 0.960 . S
H1263 C1249 0.961 . S
H1264 C1249 0.961 . S
H1265 C1249 0.961 . S
H1266 C1250 0.931 . S
H1267 C1255 0.930 . S
H1268 C1256 0.956 . S
H1269 C1256 0.961 . S
H1270 C1256 0.961 . S
H1271 C1257 0.958 . S
H1272 C1257 0.961 . S
H1273 C1257 0.960 . S
C1274 C1275 1.391 . S
C1274 C1276 1.394 . S
C1274 H1290 0.931 . S
C1275 C1274 1.391 . S
C1275 C1279 1.376 . S
C1276 C1274 1.394 . S
C1276 C1277 1.369 . S
C1276 C1280 1.531 . S
C1277 C1276 1.369 . S
C1277 C1278 1.410 . S
C1277 C1285 1.503 . S
C1278 C1277 1.410 . S
C1278 C1279 1.392 . S
C1278 C1281 1.511 . S
C1279 C1275 1.376 . S
C1279 C1278 1.392 . S
C1279 H1291 0.929 . S
C1280 C1276 1.531 . S
C1280 H1292 0.960 . S
C1280 H1293 0.962 . S
C1280 H1294 0.960 . S
C1281 C1278 1.511 . S
C1281 H1295 0.961 . S
C1281 H1296 0.961 . S
C1281 H1297 0.961 . S
C1282 C1283 1.370 . S
C1282 C1284 1.363 . S
C1282 H1298 0.931 . S
C1283 C1282 1.370 . S
C1283 C1287 1.408 . S
C1284 C1282 1.363 . S
C1284 C1285 1.370 . S
C1284 C1288 1.524 . S
C1285 C1277 1.503 . S
C1285 C1284 1.370 . S
C1285 C1286 1.403 . S
C1286 C1285 1.403 . S
C1286 C1287 1.404 . S
C1286 C1289 1.539 . S
C1287 C1283 1.408 . S
C1287 C1286 1.404 . S
C1287 H1299 0.930 . S
C1288 C1284 1.524 . S
C1288 H1300 0.956 . S
C1288 H1301 0.961 . S
C1288 H1302 0.961 . S
C1289 C1286 1.539 . S
C1289 H1303 0.958 . S
C1289 H1304 0.961 . S
C1289 H1305 0.960 . S
H1290 C1274 0.931 . S
H1291 C1279 0.929 . S
H1292 C1280 0.960 . S
H1293 C1280 0.962 . S
H1294 C1280 0.960 . S
H1295 C1281 0.961 . S
H1296 C1281 0.961 . S
H1297 C1281 0.961 . S
H1298 C1282 0.931 . S
H1299 C1287 0.930 . S
H1300 C1288 0.956 . S
H1301 C1288 0.961 . S
H1302 C1288 0.961 . S
H1303 C1289 0.958 . S
H1304 C1289 0.961 . S
H1305 C1289 0.960 . S
C1306 C1307 1.391 . S
C1306 C1308 1.394 . S
C1306 H1322 0.931 . S
C1307 C1306 1.391 . S
C1307 C1311 1.376 . S
C1308 C1306 1.394 . S
C1308 C1309 1.369 . S
C1308 C1312 1.531 . S
C1309 C1308 1.369 . S
C1309 C1310 1.410 . S
C1309 C1317 1.503 . S
C1310 C1309 1.410 . S
C1310 C1311 1.392 . S
C1310 C1313 1.511 . S
C1311 C1307 1.376 . S
C1311 C1310 1.392 . S
C1311 H1323 0.929 . S
C1312 C1308 1.531 . S
C1312 H1324 0.960 . S
C1312 H1325 0.962 . S
C1312 H1326 0.960 . S
C1313 C1310 1.511 . S
C1313 H1327 0.961 . S
C1313 H1328 0.961 . S
C1313 H1329 0.961 . S
C1314 C1315 1.370 . S
C1314 C1316 1.363 . S
C1314 H1330 0.931 . S
C1315 C1314 1.370 . S
C1315 C1319 1.408 . S
C1316 C1314 1.363 . S
C1316 C1317 1.370 . S
C1316 C1320 1.524 . S
C1317 C1309 1.503 . S
C1317 C1316 1.370 . S
C1317 C1318 1.403 . S
C1318 C1317 1.403 . S
C1318 C1319 1.404 . S
C1318 C1321 1.539 . S
C1319 C1315 1.408 . S
C1319 C1318 1.404 . S
C1319 H1331 0.930 . S
C1320 C1316 1.524 . S
C1320 H1332 0.956 . S
C1320 H1333 0.961 . S
C1320 H1334 0.961 . S
C1321 C1318 1.539 . S
C1321 H1335 0.958 . S
C1321 H1336 0.961 . S
C1321 H1337 0.960 . S
H1322 C1306 0.931 . S
H1323 C1311 0.929 . S
H1324 C1312 0.960 . S
H1325 C1312 0.962 . S
H1326 C1312 0.960 . S
H1327 C1313 0.961 . S
H1328 C1313 0.961 . S
H1329 C1313 0.961 . S
H1330 C1314 0.931 . S
H1331 C1319 0.930 . S
H1332 C1320 0.956 . S
H1333 C1320 0.961 . S
H1334 C1320 0.961 . S
H1335 C1321 0.958 . S
H1336 C1321 0.961 . S
H1337 C1321 0.960 . S
C1338 C1339 1.391 . S
C1338 C1340 1.394 . S
C1338 H1354 0.931 . S
C1339 C1338 1.391 . S
C1339 C1343 1.376 . S
C1340 C1338 1.394 . S
C1340 C1341 1.369 . S
C1340 C1344 1.531 . S
C1341 C1340 1.369 . S
C1341 C1342 1.410 . S
C1341 C1349 1.503 . S
C1342 C1341 1.410 . S
C1342 C1343 1.392 . S
C1342 C1345 1.511 . S
C1343 C1339 1.376 . S
C1343 C1342 1.392 . S
C1343 H1355 0.929 . S
C1344 C1340 1.531 . S
C1344 H1356 0.960 . S
C1344 H1357 0.962 . S
C1344 H1358 0.960 . S
C1345 C1342 1.511 . S
C1345 H1359 0.961 . S
C1345 H1360 0.961 . S
C1345 H1361 0.961 . S
C1346 C1347 1.370 . S
C1346 C1348 1.363 . S
C1346 H1362 0.931 . S
C1347 C1346 1.370 . S
C1347 C1351 1.408 . S
C1348 C1346 1.363 . S
C1348 C1349 1.370 . S
C1348 C1352 1.524 . S
C1349 C1341 1.503 . S
C1349 C1348 1.370 . S
C1349 C1350 1.403 . S
C1350 C1349 1.403 . S
C1350 C1351 1.404 . S
C1350 C1353 1.539 . S
C1351 C1347 1.408 . S
C1351 C1350 1.404 . S
C1351 H1363 0.930 . S
C1352 C1348 1.524 . S
C1352 H1364 0.956 . S
C1352 H1365 0.961 . S
C1352 H1366 0.961 . S
C1353 C1350 1.539 . S
C1353 H1367 0.958 . S
C1353 H1368 0.961 . S
C1353 H1369 0.960 . S
H1354 C1338 0.931 . S
H1355 C1343 0.929 . S
H1356 C1344 0.960 . S
H1357 C1344 0.962 . S
H1358 C1344 0.960 . S
H1359 C1345 0.961 . S
H1360 C1345 0.961 . S
H1361 C1345 0.961 . S
H1362 C1346 0.931 . S
H1363 C1351 0.930 . S
H1364 C1352 0.956 . S
H1365 C1352 0.961 . S
H1366 C1352 0.961 . S
H1367 C1353 0.958 . S
H1368 C1353 0.961 . S
H1369 C1353 0.960 . S
C1370 C1371 1.391 . S
C1370 C1372 1.394 . S
C1370 H1386 0.931 . S
C1371 C1370 1.391 . S
C1371 C1375 1.376 . S
C1372 C1370 1.394 . S
C1372 C1373 1.369 . S
C1372 C1376 1.531 . S
C1373 C1372 1.369 . S
C1373 C1374 1.410 . S
C1373 C1381 1.503 . S
C1374 C1373 1.410 . S
C1374 C1375 1.392 . S
C1374 C1377 1.511 . S
C1375 C1371 1.376 . S
C1375 C1374 1.392 . S
C1375 H1387 0.929 . S
C1376 C1372 1.531 . S
C1376 H1388 0.960 . S
C1376 H1389 0.962 . S
C1376 H1390 0.960 . S
C1377 C1374 1.511 . S
C1377 H1391 0.961 . S
C1377 H1392 0.961 . S
C1377 H1393 0.961 . S
C1378 C1379 1.370 . S
C1378 C1380 1.363 . S
C1378 H1394 0.931 . S
C1379 C1378 1.370 . S
C1379 C1383 1.408 . S
C1380 C1378 1.363 . S
C1380 C1381 1.370 . S
C1380 C1384 1.524 . S
C1381 C1373 1.503 . S
C1381 C1380 1.370 . S
C1381 C1382 1.403 . S
C1382 C1381 1.403 . S
C1382 C1383 1.404 . S
C1382 C1385 1.539 . S
C1383 C1379 1.408 . S
C1383 C1382 1.404 . S
C1383 H1395 0.930 . S
C1384 C1380 1.524 . S
C1384 H1396 0.956 . S
C1384 H1397 0.961 . S
C1384 H1398 0.961 . S
C1385 C1382 1.539 . S
C1385 H1399 0.958 . S
C1385 H1400 0.961 . S
C1385 H1401 0.960 . S
H1386 C1370 0.931 . S
H1387 C1375 0.929 . S
H1388 C1376 0.960 . S
H1389 C1376 0.962 . S
H1390 C1376 0.960 . S
H1391 C1377 0.961 . S
H1392 C1377 0.961 . S
H1393 C1377 0.961 . S
H1394 C1378 0.931 . S
H1395 C1383 0.930 . S
H1396 C1384 0.956 . S
H1397 C1384 0.961 . S
H1398 C1384 0.961 . S
H1399 C1385 0.958 . S
H1400 C1385 0.961 . S
H1401 C1385 0.960 . S
C1402 C1403 1.391 . S
C1402 C1404 1.394 . S
C1402 H1418 0.931 . S
C1403 C1402 1.391 . S
C1403 C1407 1.376 . S
C1404 C1402 1.394 . S
C1404 C1405 1.369 . S
C1404 C1408 1.531 . S
C1405 C1404 1.369 . S
C1405 C1406 1.410 . S
C1405 C1413 1.503 . S
C1406 C1405 1.410 . S
C1406 C1407 1.392 . S
C1406 C1409 1.511 . S
C1407 C1403 1.376 . S
C1407 C1406 1.392 . S
C1407 H1419 0.929 . S
C1408 C1404 1.531 . S
C1408 H1420 0.960 . S
C1408 H1421 0.962 . S
C1408 H1422 0.960 . S
C1409 C1406 1.511 . S
C1409 H1423 0.961 . S
C1409 H1424 0.961 . S
C1409 H1425 0.961 . S
C1410 C1411 1.370 . S
C1410 C1412 1.363 . S
C1410 H1426 0.931 . S
C1411 C1410 1.370 . S
C1411 C1415 1.408 . S
C1412 C1410 1.363 . S
C1412 C1413 1.370 . S
C1412 C1416 1.524 . S
C1413 C1405 1.503 . S
C1413 C1412 1.370 . S
C1413 C1414 1.403 . S
C1414 C1413 1.403 . S
C1414 C1415 1.404 . S
C1414 C1417 1.539 . S
C1415 C1411 1.408 . S
C1415 C1414 1.404 . S
C1415 H1427 0.930 . S
C1416 C1412 1.524 . S
C1416 H1428 0.956 . S
C1416 H1429 0.961 . S
C1416 H1430 0.961 . S
C1417 C1414 1.539 . S
C1417 H1431 0.958 . S
C1417 H1432 0.961 . S
C1417 H1433 0.960 . S
H1418 C1402 0.931 . S
H1419 C1407 0.929 . S
H1420 C1408 0.960 . S
H1421 C1408 0.962 . S
H1422 C1408 0.960 . S
H1423 C1409 0.961 . S
H1424 C1409 0.961 . S
H1425 C1409 0.961 . S
H1426 C1410 0.931 . S
H1427 C1415 0.930 . S
H1428 C1416 0.956 . S
H1429 C1416 0.961 . S
H1430 C1416 0.961 . S
H1431 C1417 0.958 . S
H1432 C1417 0.961 . S
H1433 C1417 0.960 . S
C1434 C1435 1.391 . S
C1434 C1436 1.394 . S
C1434 H1450 0.931 . S
C1435 C1434 1.391 . S
C1435 C1439 1.376 . S
C1436 C1434 1.394 . S
C1436 C1437 1.369 . S
C1436 C1440 1.531 . S
C1437 C1436 1.369 . S
C1437 C1438 1.410 . S
C1437 C1445 1.503 . S
C1438 C1437 1.410 . S
C1438 C1439 1.392 . S
C1438 C1441 1.511 . S
C1439 C1435 1.376 . S
C1439 C1438 1.392 . S
C1439 H1451 0.929 . S
C1440 C1436 1.531 . S
C1440 H1452 0.960 . S
C1440 H1453 0.962 . S
C1440 H1454 0.960 . S
C1441 C1438 1.511 . S
C1441 H1455 0.961 . S
C1441 H1456 0.961 . S
C1441 H1457 0.961 . S
C1442 C1443 1.370 . S
C1442 C1444 1.363 . S
C1442 H1458 0.931 . S
C1443 C1442 1.370 . S
C1443 C1447 1.408 . S
C1444 C1442 1.363 . S
C1444 C1445 1.370 . S
C1444 C1448 1.524 . S
C1445 C1437 1.503 . S
C1445 C1444 1.370 . S
C1445 C1446 1.403 . S
C1446 C1445 1.403 . S
C1446 C1447 1.404 . S
C1446 C1449 1.539 . S
C1447 C1443 1.408 . S
C1447 C1446 1.404 . S
C1447 H1459 0.930 . S
C1448 C1444 1.524 . S
C1448 H1460 0.956 . S
C1448 H1461 0.961 . S
C1448 H1462 0.961 . S
C1449 C1446 1.539 . S
C1449 H1463 0.958 . S
C1449 H1464 0.961 . S
C1449 H1465 0.960 . S
H1450 C1434 0.931 . S
H1451 C1439 0.929 . S
H1452 C1440 0.960 . S
H1453 C1440 0.962 . S
H1454 C1440 0.960 . S
H1455 C1441 0.961 . S
H1456 C1441 0.961 . S
H1457 C1441 0.961 . S
H1458 C1442 0.931 . S
H1459 C1447 0.930 . S
H1460 C1448 0.956 . S
H1461 C1448 0.961 . S
H1462 C1448 0.961 . S
H1463 C1449 0.958 . S
H1464 C1449 0.961 . S
H1465 C1449 0.960 . S
C1466 C1467 1.391 . S
C1466 C1468 1.394 . S
C1466 H1482 0.931 . S
C1467 C1466 1.391 . S
C1467 C1471 1.376 . S
C1468 C1466 1.394 . S
C1468 C1469 1.369 . S
C1468 C1472 1.531 . S
C1469 C1468 1.369 . S
C1469 C1470 1.410 . S
C1469 C1477 1.503 . S
C1470 C1469 1.410 . S
C1470 C1471 1.392 . S
C1470 C1473 1.511 . S
C1471 C1467 1.376 . S
C1471 C1470 1.392 . S
C1471 H1483 0.929 . S
C1472 C1468 1.531 . S
C1472 H1484 0.960 . S
C1472 H1485 0.962 . S
C1472 H1486 0.960 . S
C1473 C1470 1.511 . S
C1473 H1487 0.961 . S
C1473 H1488 0.961 . S
C1473 H1489 0.961 . S
C1474 C1475 1.370 . S
C1474 C1476 1.363 . S
C1474 H1490 0.931 . S
C1475 C1474 1.370 . S
C1475 C1479 1.408 . S
C1476 C1474 1.363 . S
C1476 C1477 1.370 . S
C1476 C1480 1.524 . S
C1477 C1469 1.503 . S
C1477 C1476 1.370 . S
C1477 C1478 1.403 . S
C1478 C1477 1.403 . S
C1478 C1479 1.404 . S
C1478 C1481 1.539 . S
C1479 C1475 1.408 . S
C1479 C1478 1.404 . S
C1479 H1491 0.930 . S
C1480 C1476 1.524 . S
C1480 H1492 0.956 . S
C1480 H1493 0.961 . S
C1480 H1494 0.961 . S
C1481 C1478 1.539 . S
C1481 H1495 0.958 . S
C1481 H1496 0.961 . S
C1481 H1497 0.960 . S
H1482 C1466 0.931 . S
H1483 C1471 0.929 . S
H1484 C1472 0.960 . S
H1485 C1472 0.962 . S
H1486 C1472 0.960 . S
H1487 C1473 0.961 . S
H1488 C1473 0.961 . S
H1489 C1473 0.961 . S
H1490 C1474 0.931 . S
H1491 C1479 0.930 . S
H1492 C1480 0.956 . S
H1493 C1480 0.961 . S
H1494 C1480 0.961 . S
H1495 C1481 0.958 . S
H1496 C1481 0.961 . S
H1497 C1481 0.960 . S
C1498 C1499 1.391 . S
C1498 C1500 1.394 . S
C1498 H1514 0.931 . S
C1499 C1498 1.391 . S
C1499 C1503 1.376 . S
C1500 C1498 1.394 . S
C1500 C1501 1.369 . S
C1500 C1504 1.531 . S
C1501 C1500 1.369 . S
C1501 C1502 1.410 . S
C1501 C1509 1.503 . S
C1502 C1501 1.410 . S
C1502 C1503 1.392 . S
C1502 C1505 1.511 . S
C1503 C1499 1.376 . S
C1503 C1502 1.392 . S
C1503 H1515 0.929 . S
C1504 C1500 1.531 . S
C1504 H1516 0.960 . S
C1504 H1517 0.962 . S
C1504 H1518 0.960 . S
C1505 C1502 1.511 . S
C1505 H1519 0.961 . S
C1505 H1520 0.961 . S
C1505 H1521 0.961 . S
C1506 C1507 1.370 . S
C1506 C1508 1.363 . S
C1506 H1522 0.931 . S
C1507 C1506 1.370 . S
C1507 C1511 1.408 . S
C1508 C1506 1.363 . S
C1508 C1509 1.370 . S
C1508 C1512 1.524 . S
C1509 C1501 1.503 . S
C1509 C1508 1.370 . S
C1509 C1510 1.403 . S
C1510 C1509 1.403 . S
C1510 C1511 1.404 . S
C1510 C1513 1.539 . S
C1511 C1507 1.408 . S
C1511 C1510 1.404 . S
C1511 H1523 0.930 . S
C1512 C1508 1.524 . S
C1512 H1524 0.956 . S
C1512 H1525 0.961 . S
C1512 H1526 0.961 . S
C1513 C1510 1.539 . S
C1513 H1527 0.958 . S
C1513 H1528 0.961 . S
C1513 H1529 0.960 . S
H1514 C1498 0.931 . S
H1515 C1503 0.929 . S
H1516 C1504 0.960 . S
H1517 C1504 0.962 . S
H1518 C1504 0.960 . S
H1519 C1505 0.961 . S
H1520 C1505 0.961 . S
H1521 C1505 0.961 . S
H1522 C1506 0.931 . S
H1523 C1511 0.930 . S
H1524 C1512 0.956 . S
H1525 C1512 0.961 . S
H1526 C1512 0.961 . S
H1527 C1513 0.958 . S
H1528 C1513 0.961 . S
H1529 C1513 0.960 . S
C1530 C1531 1.391 . S
C1530 C1532 1.394 . S
C1530 H1546 0.931 . S
C1531 C1530 1.391 . S
C1531 C1535 1.376 . S
C1532 C1530 1.394 . S
C1532 C1533 1.369 . S
C1532 C1536 1.531 . S
C1533 C1532 1.369 . S
C1533 C1534 1.410 . S
C1533 C1541 1.503 . S
C1534 C1533 1.410 . S
C1534 C1535 1.392 . S
C1534 C1537 1.511 . S
C1535 C1531 1.376 . S
C1535 C1534 1.392 . S
C1535 H1547 0.929 . S
C1536 C1532 1.531 . S
C1536 H1548 0.960 . S
C1536 H1549 0.962 . S
C1536 H1550 0.960 . S
C1537 C1534 1.511 . S
C1537 H1551 0.961 . S
C1537 H1552 0.961 . S
C1537 H1553 0.961 . S
C1538 C1539 1.370 . S
C1538 C1540 1.363 . S
C1538 H1554 0.931 . S
C1539 C1538 1.370 . S
C1539 C1543 1.408 . S
C1540 C1538 1.363 . S
C1540 C1541 1.370 . S
C1540 C1544 1.524 . S
C1541 C1533 1.503 . S
C1541 C1540 1.370 . S
C1541 C1542 1.403 . S
C1542 C1541 1.403 . S
C1542 C1543 1.404 . S
C1542 C1545 1.539 . S
C1543 C1539 1.408 . S
C1543 C1542 1.404 . S
C1543 H1555 0.930 . S
C1544 C1540 1.524 . S
C1544 H1556 0.956 . S
C1544 H1557 0.961 . S
C1544 H1558 0.961 . S
C1545 C1542 1.539 . S
C1545 H1559 0.958 . S
C1545 H1560 0.961 . S
C1545 H1561 0.960 . S
H1546 C1530 0.931 . S
H1547 C1535 0.929 . S
H1548 C1536 0.960 . S
H1549 C1536 0.962 . S
H1550 C1536 0.960 . S
H1551 C1537 0.961 . S
H1552 C1537 0.961 . S
H1553 C1537 0.961 . S
H1554 C1538 0.931 . S
H1555 C1543 0.930 . S
H1556 C1544 0.956 . S
H1557 C1544 0.961 . S
H1558 C1544 0.961 . S
H1559 C1545 0.958 . S
H1560 C1545 0.961 . S
H1561 C1545 0.960 . S
C1562 C1563 1.391 . S
C1562 C1564 1.394 . S
C1562 H1578 0.931 . S
C1563 C1562 1.391 . S
C1563 C1567 1.376 . S
C1564 C1562 1.394 . S
C1564 C1565 1.369 . S
C1564 C1568 1.531 . S
C1565 C1564 1.369 . S
C1565 C1566 1.410 . S
C1565 C1573 1.503 . S
C1566 C1565 1.410 . S
C1566 C1567 1.392 . S
C1566 C1569 1.511 . S
C1567 C1563 1.376 . S
C1567 C1566 1.392 . S
C1567 H1579 0.929 . S
C1568 C1564 1.531 . S
C1568 H1580 0.960 . S
C1568 H1581 0.962 . S
C1568 H1582 0.960 . S
C1569 C1566 1.511 . S
C1569 H1583 0.961 . S
C1569 H1584 0.961 . S
C1569 H1585 0.961 . S
C1570 C1571 1.370 . S
C1570 C1572 1.363 . S
C1570 H1586 0.931 . S
C1571 C1570 1.370 . S
C1571 C1575 1.408 . S
C1572 C1570 1.363 . S
C1572 C1573 1.370 . S
C1572 C1576 1.524 . S
C1573 C1565 1.503 . S
C1573 C1572 1.370 . S
C1573 C1574 1.403 . S
C1574 C1573 1.403 . S
C1574 C1575 1.404 . S
C1574 C1577 1.539 . S
C1575 C1571 1.408 . S
C1575 C1574 1.404 . S
C1575 H1587 0.930 . S
C1576 C1572 1.524 . S
C1576 H1588 0.956 . S
C1576 H1589 0.961 . S
C1576 H1590 0.961 . S
C1577 C1574 1.539 . S
C1577 H1591 0.958 . S
C1577 H1592 0.961 . S
C1577 H1593 0.960 . S
H1578 C1562 0.931 . S
H1579 C1567 0.929 . S
H1580 C1568 0.960 . S
H1581 C1568 0.962 . S
H1582 C1568 0.960 . S
H1583 C1569 0.961 . S
H1584 C1569 0.961 . S
H1585 C1569 0.961 . S
H1586 C1570 0.931 . S
H1587 C1575 0.930 . S
H1588 C1576 0.956 . S
H1589 C1576 0.961 . S
H1590 C1576 0.961 . S
H1591 C1577 0.958 . S
H1592 C1577 0.961 . S
H1593 C1577 0.960 . S
C1594 C1595 1.391 . S
C1594 C1596 1.394 . S
C1594 H1610 0.931 . S
C1595 C1594 1.391 . S
C1595 C1599 1.376 . S
C1596 C1594 1.394 . S
C1596 C1597 1.369 . S
C1596 C1600 1.531 . S
C1597 C1596 1.369 . S
C1597 C1598 1.410 . S
C1597 C1605 1.503 . S
C1598 C1597 1.410 . S
C1598 C1599 1.392 . S
C1598 C1601 1.511 . S
C1599 C1595 1.376 . S
C1599 C1598 1.392 . S
C1599 H1611 0.929 . S
C1600 C1596 1.531 . S
C1600 H1612 0.960 . S
C1600 H1613 0.962 . S
C1600 H1614 0.960 . S
C1601 C1598 1.511 . S
C1601 H1615 0.961 . S
C1601 H1616 0.961 . S
C1601 H1617 0.961 . S
C1602 C1603 1.370 . S
C1602 C1604 1.363 . S
C1602 H1618 0.931 . S
C1603 C1602 1.370 . S
C1603 C1607 1.408 . S
C1604 C1602 1.363 . S
C1604 C1605 1.370 . S
C1604 C1608 1.524 . S
C1605 C1597 1.503 . S
C1605 C1604 1.370 . S
C1605 C1606 1.403 . S
C1606 C1605 1.403 . S
C1606 C1607 1.404 . S
C1606 C1609 1.539 . S
C1607 C1603 1.408 . S
C1607 C1606 1.404 . S
C1607 H1619 0.930 . S
C1608 C1604 1.524 . S
C1608 H1620 0.956 . S
C1608 H1621 0.961 . S
C1608 H1622 0.961 . S
C1609 C1606 1.539 . S
C1609 H1623 0.958 . S
C1609 H1624 0.961 . S
C1609 H1625 0.960 . S
H1610 C1594 0.931 . S
H1611 C1599 0.929 . S
H1612 C1600 0.960 . S
H1613 C1600 0.962 . S
H1614 C1600 0.960 . S
H1615 C1601 0.961 . S
H1616 C1601 0.961 . S
H1617 C1601 0.961 . S
H1618 C1602 0.931 . S
H1619 C1607 0.930 . S
H1620 C1608 0.956 . S
H1621 C1608 0.961 . S
H1622 C1608 0.961 . S
H1623 C1609 0.958 . S
H1624 C1609 0.961 . S
H1625 C1609 0.960 . S
C1626 C1627 1.391 . S
C1626 C1628 1.394 . S
C1626 H1642 0.931 . S
C1627 C1626 1.391 . S
C1627 C1631 1.376 . S
C1628 C1626 1.394 . S
C1628 C1629 1.369 . S
C1628 C1632 1.531 . S
C1629 C1628 1.369 . S
C1629 C1630 1.410 . S
C1629 C1637 1.503 . S
C1630 C1629 1.410 . S
C1630 C1631 1.392 . S
C1630 C1633 1.511 . S
C1631 C1627 1.376 . S
C1631 C1630 1.392 . S
C1631 H1643 0.929 . S
C1632 C1628 1.531 . S
C1632 H1644 0.960 . S
C1632 H1645 0.962 . S
C1632 H1646 0.960 . S
C1633 C1630 1.511 . S
C1633 H1647 0.961 . S
C1633 H1648 0.961 . S
C1633 H1649 0.961 . S
C1634 C1635 1.370 . S
C1634 C1636 1.363 . S
C1634 H1650 0.931 . S
C1635 C1634 1.370 . S
C1635 C1639 1.408 . S
C1636 C1634 1.363 . S
C1636 C1637 1.370 . S
C1636 C1640 1.524 . S
C1637 C1629 1.503 . S
C1637 C1636 1.370 . S
C1637 C1638 1.403 . S
C1638 C1637 1.403 . S
C1638 C1639 1.404 . S
C1638 C1641 1.539 . S
C1639 C1635 1.408 . S
C1639 C1638 1.404 . S
C1639 H1651 0.930 . S
C1640 C1636 1.524 . S
C1640 H1652 0.956 . S
C1640 H1653 0.961 . S
C1640 H1654 0.961 . S
C1641 C1638 1.539 . S
C1641 H1655 0.958 . S
C1641 H1656 0.961 . S
C1641 H1657 0.960 . S
H1642 C1626 0.931 . S
H1643 C1631 0.929 . S
H1644 C1632 0.960 . S
H1645 C1632 0.962 . S
H1646 C1632 0.960 . S
H1647 C1633 0.961 . S
H1648 C1633 0.961 . S
H1649 C1633 0.961 . S
H1650 C1634 0.931 . S
H1651 C1639 0.930 . S
H1652 C1640 0.956 . S
H1653 C1640 0.961 . S
H1654 C1640 0.961 . S
H1655 C1641 0.958 . S
H1656 C1641 0.961 . S
H1657 C1641 0.960 . S
C1658 C1659 1.391 . S
C1658 C1660 1.394 . S
C1658 H1674 0.931 . S
C1659 C1658 1.391 . S
C1659 C1663 1.376 . S
C1660 C1658 1.394 . S
C1660 C1661 1.369 . S
C1660 C1664 1.531 . S
C1661 C1660 1.369 . S
C1661 C1662 1.410 . S
C1661 C1669 1.503 . S
C1662 C1661 1.410 . S
C1662 C1663 1.392 . S
C1662 C1665 1.511 . S
C1663 C1659 1.376 . S
C1663 C1662 1.392 . S
C1663 H1675 0.929 . S
C1664 C1660 1.531 . S
C1664 H1676 0.960 . S
C1664 H1677 0.962 . S
C1664 H1678 0.960 . S
C1665 C1662 1.511 . S
C1665 H1679 0.961 . S
C1665 H1680 0.961 . S
C1665 H1681 0.961 . S
C1666 C1667 1.370 . S
C1666 C1668 1.363 . S
C1666 H1682 0.931 . S
C1667 C1666 1.370 . S
C1667 C1671 1.408 . S
C1668 C1666 1.363 . S
C1668 C1669 1.370 . S
C1668 C1672 1.524 . S
C1669 C1661 1.503 . S
C1669 C1668 1.370 . S
C1669 C1670 1.403 . S
C1670 C1669 1.403 . S
C1670 C1671 1.404 . S
C1670 C1673 1.539 . S
C1671 C1667 1.408 . S
C1671 C1670 1.404 . S
C1671 H1683 0.930 . S
C1672 C1668 1.524 . S
C1672 H1684 0.956 . S
C1672 H1685 0.961 . S
C1672 H1686 0.961 . S
C1673 C1670 1.539 . S
C1673 H1687 0.958 . S
C1673 H1688 0.961 . S
C1673 H1689 0.960 . S
H1674 C1658 0.931 . S
H1675 C1663 0.929 . S
H1676 C1664 0.960 . S
H1677 C1664 0.962 . S
H1678 C1664 0.960 . S
H1679 C1665 0.961 . S
H1680 C1665 0.961 . S
H1681 C1665 0.961 . S
H1682 C1666 0.931 . S
H1683 C1671 0.930 . S
H1684 C1672 0.956 . S
H1685 C1672 0.961 . S
H1686 C1672 0.961 . S
H1687 C1673 0.958 . S
H1688 C1673 0.961 . S
H1689 C1673 0.960 . S
C1690 C1691 1.391 . S
C1690 C1692 1.394 . S
C1690 H1706 0.931 . S
C1691 C1690 1.391 . S
C1691 C1695 1.376 . S
C1692 C1690 1.394 . S
C1692 C1693 1.369 . S
C1692 C1696 1.531 . S
C1693 C1692 1.369 . S
C1693 C1694 1.410 . S
C1693 C1701 1.503 . S
C1694 C1693 1.410 . S
C1694 C1695 1.392 . S
C1694 C1697 1.511 . S
C1695 C1691 1.376 . S
C1695 C1694 1.392 . S
C1695 H1707 0.929 . S
C1696 C1692 1.531 . S
C1696 H1708 0.960 . S
C1696 H1709 0.962 . S
C1696 H1710 0.960 . S
C1697 C1694 1.511 . S
C1697 H1711 0.961 . S
C1697 H1712 0.961 . S
C1697 H1713 0.961 . S
C1698 C1699 1.370 . S
C1698 C1700 1.363 . S
C1698 H1714 0.931 . S
C1699 C1698 1.370 . S
C1699 C1703 1.408 . S
C1700 C1698 1.363 . S
C1700 C1701 1.370 . S
C1700 C1704 1.524 . S
C1701 C1693 1.503 . S
C1701 C1700 1.370 . S
C1701 C1702 1.403 . S
C1702 C1701 1.403 . S
C1702 C1703 1.404 . S
C1702 C1705 1.539 . S
C1703 C1699 1.408 . S
C1703 C1702 1.404 . S
C1703 H1715 0.930 . S
C1704 C1700 1.524 . S
C1704 H1716 0.956 . S
C1704 H1717 0.961 . S
C1704 H1718 0.961 . S
C1705 C1702 1.539 . S
C1705 H1719 0.958 . S
C1705 H1720 0.961 . S
C1705 H1721 0.960 . S
H1706 C1690 0.931 . S
H1707 C1695 0.929 . S
H1708 C1696 0.960 . S
H1709 C1696 0.962 . S
H1710 C1696 0.960 . S
H1711 C1697 0.961 . S
H1712 C1697 0.961 . S
H1713 C1697 0.961 . S
H1714 C1698 0.931 . S
H1715 C1703 0.930 . S
H1716 C1704 0.956 . S
H1717 C1704 0.961 . S
H1718 C1704 0.961 . S
H1719 C1705 0.958 . S
H1720 C1705 0.961 . S
H1721 C1705 0.960 . S
C1722 C1723 1.391 . S
C1722 C1724 1.394 . S
C1722 H1738 0.931 . S
C1723 C1722 1.391 . S
C1723 C1727 1.376 . S
C1724 C1722 1.394 . S
C1724 C1725 1.369 . S
C1724 C1728 1.531 . S
C1725 C1724 1.369 . S
C1725 C1726 1.410 . S
C1725 C1733 1.503 . S
C1726 C1725 1.410 . S
C1726 C1727 1.392 . S
C1726 C1729 1.511 . S
C1727 C1723 1.376 . S
C1727 C1726 1.392 . S
C1727 H1739 0.929 . S
C1728 C1724 1.531 . S
C1728 H1740 0.960 . S
C1728 H1741 0.962 . S
C1728 H1742 0.960 . S
C1729 C1726 1.511 . S
C1729 H1743 0.961 . S
C1729 H1744 0.961 . S
C1729 H1745 0.961 . S
C1730 C1731 1.370 . S
C1730 C1732 1.363 . S
C1730 H1746 0.931 . S
C1731 C1730 1.370 . S
C1731 C1735 1.408 . S
C1732 C1730 1.363 . S
C1732 C1733 1.370 . S
C1732 C1736 1.524 . S
C1733 C1725 1.503 . S
C1733 C1732 1.370 . S
C1733 C1734 1.403 . S
C1734 C1733 1.403 . S
C1734 C1735 1.404 . S
C1734 C1737 1.539 . S
C1735 C1731 1.408 . S
C1735 C1734 1.404 . S
C1735 H1747 0.930 . S
C1736 C1732 1.524 . S
C1736 H1748 0.956 . S
C1736 H1749 0.961 . S
C1736 H1750 0.961 . S
C1737 C1734 1.539 . S
C1737 H1751 0.958 . S
C1737 H1752 0.961 . S
C1737 H1753 0.960 . S
H1738 C1722 0.931 . S
H1739 C1727 0.929 . S
H1740 C1728 0.960 . S
H1741 C1728 0.962 . S
H1742 C1728 0.960 . S
H1743 C1729 0.961 . S
H1744 C1729 0.961 . S
H1745 C1729 0.961 . S
H1746 C1730 0.931 . S
H1747 C1735 0.930 . S
H1748 C1736 0.956 . S
H1749 C1736 0.961 . S
H1750 C1736 0.961 . S
H1751 C1737 0.958 . S
H1752 C1737 0.961 . S
H1753 C1737 0.960 . S
C1754 C1755 1.391 . S
C1754 C1756 1.394 . S
C1754 H1770 0.931 . S
C1755 C1754 1.391 . S
C1755 C1759 1.376 . S
C1756 C1754 1.394 . S
C1756 C1757 1.369 . S
C1756 C1760 1.531 . S
C1757 C1756 1.369 . S
C1757 C1758 1.410 . S
C1757 C1765 1.503 . S
C1758 C1757 1.410 . S
C1758 C1759 1.392 . S
C1758 C1761 1.511 . S
C1759 C1755 1.376 . S
C1759 C1758 1.392 . S
C1759 H1771 0.929 . S
C1760 C1756 1.531 . S
C1760 H1772 0.960 . S
C1760 H1773 0.962 . S
C1760 H1774 0.960 . S
C1761 C1758 1.511 . S
C1761 H1775 0.961 . S
C1761 H1776 0.961 . S
C1761 H1777 0.961 . S
C1762 C1763 1.370 . S
C1762 C1764 1.363 . S
C1762 H1778 0.931 . S
C1763 C1762 1.370 . S
C1763 C1767 1.408 . S
C1764 C1762 1.363 . S
C1764 C1765 1.370 . S
C1764 C1768 1.524 . S
C1765 C1757 1.503 . S
C1765 C1764 1.370 . S
C1765 C1766 1.403 . S
C1766 C1765 1.403 . S
C1766 C1767 1.404 . S
C1766 C1769 1.539 . S
C1767 C1763 1.408 . S
C1767 C1766 1.404 . S
C1767 H1779 0.930 . S
C1768 C1764 1.524 . S
C1768 H1780 0.956 . S
C1768 H1781 0.961 . S
C1768 H1782 0.961 . S
C1769 C1766 1.539 . S
C1769 H1783 0.958 . S
C1769 H1784 0.961 . S
C1769 H1785 0.960 . S
H1770 C1754 0.931 . S
H1771 C1759 0.929 . S
H1772 C1760 0.960 . S
H1773 C1760 0.962 . S
H1774 C1760 0.960 . S
H1775 C1761 0.961 . S
H1776 C1761 0.961 . S
H1777 C1761 0.961 . S
H1778 C1762 0.931 . S
H1779 C1767 0.930 . S
H1780 C1768 0.956 . S
H1781 C1768 0.961 . S
H1782 C1768 0.961 . S
H1783 C1769 0.958 . S
H1784 C1769 0.961 . S
H1785 C1769 0.960 . S
C1786 C1787 1.391 . S
C1786 C1788 1.394 . S
C1786 H1802 0.931 . S
C1787 C1786 1.391 . S
C1787 C1791 1.376 . S
C1788 C1786 1.394 . S
C1788 C1789 1.369 . S
C1788 C1792 1.531 . S
C1789 C1788 1.369 . S
C1789 C1790 1.410 . S
C1789 C1797 1.503 . S
C1790 C1789 1.410 . S
C1790 C1791 1.392 . S
C1790 C1793 1.511 . S
C1791 C1787 1.376 . S
C1791 C1790 1.392 . S
C1791 H1803 0.929 . S
C1792 C1788 1.531 . S
C1792 H1804 0.960 . S
C1792 H1805 0.962 . S
C1792 H1806 0.960 . S
C1793 C1790 1.511 . S
C1793 H1807 0.961 . S
C1793 H1808 0.961 . S
C1793 H1809 0.961 . S
C1794 C1795 1.370 . S
C1794 C1796 1.363 . S
C1794 H1810 0.931 . S
C1795 C1794 1.370 . S
C1795 C1799 1.408 . S
C1796 C1794 1.363 . S
C1796 C1797 1.370 . S
C1796 C1800 1.524 . S
C1797 C1789 1.503 . S
C1797 C1796 1.370 . S
C1797 C1798 1.403 . S
C1798 C1797 1.403 . S
C1798 C1799 1.404 . S
C1798 C1801 1.539 . S
C1799 C1795 1.408 . S
C1799 C1798 1.404 . S
C1799 H1811 0.930 . S
C1800 C1796 1.524 . S
C1800 H1812 0.956 . S
C1800 H1813 0.961 . S
C1800 H1814 0.961 . S
C1801 C1798 1.539 . S
C1801 H1815 0.958 . S
C1801 H1816 0.961 . S
C1801 H1817 0.960 . S
H1802 C1786 0.931 . S
H1803 C1791 0.929 . S
H1804 C1792 0.960 . S
H1805 C1792 0.962 . S
H1806 C1792 0.960 . S
H1807 C1793 0.961 . S
H1808 C1793 0.961 . S
H1809 C1793 0.961 . S
H1810 C1794 0.931 . S
H1811 C1799 0.930 . S
H1812 C1800 0.956 . S
H1813 C1800 0.961 . S
H1814 C1800 0.961 . S
H1815 C1801 0.958 . S
H1816 C1801 0.961 . S
H1817 C1801 0.960 . S
C1818 C1819 1.391 . S
C1818 C1820 1.394 . S
C1818 H1834 0.931 . S
C1819 C1818 1.391 . S
C1819 C1823 1.376 . S
C1820 C1818 1.394 . S
C1820 C1821 1.369 . S
C1820 C1824 1.531 . S
C1821 C1820 1.369 . S
C1821 C1822 1.410 . S
C1821 C1829 1.503 . S
C1822 C1821 1.410 . S
C1822 C1823 1.392 . S
C1822 C1825 1.511 . S
C1823 C1819 1.376 . S
C1823 C1822 1.392 . S
C1823 H1835 0.929 . S
C1824 C1820 1.531 . S
C1824 H1836 0.960 . S
C1824 H1837 0.962 . S
C1824 H1838 0.960 . S
C1825 C1822 1.511 . S
C1825 H1839 0.961 . S
C1825 H1840 0.961 . S
C1825 H1841 0.961 . S
C1826 C1827 1.370 . S
C1826 C1828 1.363 . S
C1826 H1842 0.931 . S
C1827 C1826 1.370 . S
C1827 C1831 1.408 . S
C1828 C1826 1.363 . S
C1828 C1829 1.370 . S
C1828 C1832 1.524 . S
C1829 C1821 1.503 . S
C1829 C1828 1.370 . S
C1829 C1830 1.403 . S
C1830 C1829 1.403 . S
C1830 C1831 1.404 . S
C1830 C1833 1.539 . S
C1831 C1827 1.408 . S
C1831 C1830 1.404 . S
C1831 H1843 0.930 . S
C1832 C1828 1.524 . S
C1832 H1844 0.956 . S
C1832 H1845 0.961 . S
C1832 H1846 0.961 . S
C1833 C1830 1.539 . S
C1833 H1847 0.958 . S
C1833 H1848 0.961 . S
C1833 H1849 0.960 . S
H1834 C1818 0.931 . S
H1835 C1823 0.929 . S
H1836 C1824 0.960 . S
H1837 C1824 0.962 . S
H1838 C1824 0.960 . S
H1839 C1825 0.961 . S
H1840 C1825 0.961 . S
H1841 C1825 0.961 . S
H1842 C1826 0.931 . S
H1843 C1831 0.930 . S
H1844 C1832 0.956 . S
H1845 C1832 0.961 . S
H1846 C1832 0.961 . S
H1847 C1833 0.958 . S
H1848 C1833 0.961 . S
H1849 C1833 0.960 . S
C1850 C1851 1.391 . S
C1850 C1852 1.394 . S
C1850 H1866 0.931 . S
C1851 C1850 1.391 . S
C1851 C1855 1.376 . S
C1852 C1850 1.394 . S
C1852 C1853 1.369 . S
C1852 C1856 1.531 . S
C1853 C1852 1.369 . S
C1853 C1854 1.410 . S
C1853 C1861 1.503 . S
C1854 C1853 1.410 . S
C1854 C1855 1.392 . S
C1854 C1857 1.511 . S
C1855 C1851 1.376 . S
C1855 C1854 1.392 . S
C1855 H1867 0.929 . S
C1856 C1852 1.531 . S
C1856 H1868 0.960 . S
C1856 H1869 0.962 . S
C1856 H1870 0.960 . S
C1857 C1854 1.511 . S
C1857 H1871 0.961 . S
C1857 H1872 0.961 . S
C1857 H1873 0.961 . S
C1858 C1859 1.370 . S
C1858 C1860 1.363 . S
C1858 H1874 0.931 . S
C1859 C1858 1.370 . S
C1859 C1863 1.408 . S
C1860 C1858 1.363 . S
C1860 C1861 1.370 . S
C1860 C1864 1.524 . S
C1861 C1853 1.503 . S
C1861 C1860 1.370 . S
C1861 C1862 1.403 . S
C1862 C1861 1.403 . S
C1862 C1863 1.404 . S
C1862 C1865 1.539 . S
C1863 C1859 1.408 . S
C1863 C1862 1.404 . S
C1863 H1875 0.930 . S
C1864 C1860 1.524 . S
C1864 H1876 0.956 . S
C1864 H1877 0.961 . S
C1864 H1878 0.961 . S
C1865 C1862 1.539 . S
C1865 H1879 0.958 . S
C1865 H1880 0.961 . S
C1865 H1881 0.960 . S
H1866 C1850 0.931 . S
H1867 C1855 0.929 . S
H1868 C1856 0.960 . S
H1869 C1856 0.962 . S
H1870 C1856 0.960 . S
H1871 C1857 0.961 . S
H1872 C1857 0.961 . S
H1873 C1857 0.961 . S
H1874 C1858 0.931 . S
H1875 C1863 0.930 . S
H1876 C1864 0.956 . S
H1877 C1864 0.961 . S
H1878 C1864 0.961 . S
H1879 C1865 0.958 . S
H1880 C1865 0.961 . S
H1881 C1865 0.960 . S
C355 C171 2.139 . S
C347 C19 2.100 . S
C387 C161 1.633 . S
C379 C24 1.547 . S
C419 C162 0.993 . S
C411 C59 0.993 . S
C443 C69 1.414 . S
C451 C184 1.419 . S
C475 C82 1.584 . S
C483 C187 1.643 . S
C515 C170 1.006 . S
C507 C118 1.004 . S
C539 C132 1.382 . S
C547 C160 1.397 . S
C571 C158 2.146 . S
C579 C178 2.142 . S
C611 C191 1.724 . S
C603 C4 1.646 . S
C635 C29 0.998 . S
C643 C240 0.948 . S
C675 C218 1.661 . S
C667 C44 1.549 . S
C707 C232 0.999 . S
C699 C79 0.996 . S
C731 C98 1.022 . S
C739 C193 1.012 . S
C771 C246 1.401 . S
C763 C112 1.424 . S
C795 C122 1.191 . S
C803 C202 1.238 . S
C827 C152 1.373 . S
C835 C223 1.388 . S
C859 C9 1.318 . S
C867 C249 1.381 . S
C891 C92 1.005 . S
C899 C233 0.957 . S
C931 C192 1.655 . S
C923 C102 1.528 . S
C963 C224 1.004 . S
C955 C138 0.971 . S
C987 C142 1.656 . S
C995 C215 1.715 . S
C1019 C49 1.388 . S
C1027 C222 1.426 . S
C1059 C209 1.236 . S
C1051 C64 1.220 . S
C1083 C39 0.997 . S
C1091 C201 0.987 . S
C1115 C159 2.111 . S
C1123 C264 2.133 . S
C1147 C84 1.594 . S
C1155 C254 1.645 . S
C1187 C255 0.981 . S
C1179 C119 0.959 . S
C1219 C277 1.420 . S
C1211 C129 1.424 . S
C1243 C22 1.609 . S
C1251 C280 1.650 . S
C1283 C263 0.982 . S
C1275 C58 0.958 . S
C1307 C72 1.380 . S
C1315 C253 1.404 . S
C1339 C18 2.135 . S
C1347 C271 2.134 . S
C1371 C144 1.590 . S
C1379 C284 1.732 . S
C1411 C333 0.984 . S
C1403 C89 0.957 . S
C1435 C104 1.528 . S
C1443 C311 1.663 . S
C1467 C139 0.959 . S
C1475 C325 1.002 . S
C1507 C286 0.998 . S
C1499 C38 1.030 . S
C1531 C52 1.357 . S
C1539 C339 1.430 . S
C1571 C295 1.209 . S
C1563 C62 1.238 . S
C1603 C316 1.375 . S
C1595 C12 1.353 . S
C1635 C342 1.388 . S
C1627 C149 1.381 . S
C1659 C32 1.014 . S
C1667 C326 0.966 . S
C1691 C42 1.588 . S
C1699 C285 1.643 . S
C1731 C317 0.962 . S
C1723 C78 1.038 . S
C1755 C2 1.653 . S
C1763 C308 1.724 . S
C1787 C109 1.429 . S
C1795 C315 1.407 . S
C1827 C302 1.210 . S
C1819 C124 1.215 . S
C1859 C294 0.975 . S
C1851 C99 0.961 . S
