# Generated by pormake.
# Topology pyr, (3,6)-cn, num edge types: 1
# Building blocks:
#     Node 0, Type 0, BuildingBlock: WUSLED_clean_sbu_0, # of connection points: 3
#     Node 1, Type 0, BuildingBlock: WUSLED_clean_sbu_0, # of connection points: 3
#     Node 2, Type 0, BuildingBlock: WUSLED_clean_sbu_0, # of connection points: 3
#     Node 3, Type 0, BuildingBlock: WUSLED_clean_sbu_0, # of connection points: 3
#     Node 4, Type 0, BuildingBlock: WUSLED_clean_sbu_0, # of connection points: 3
#     Node 5, Type 0, BuildingBlock: WUSLED_clean_sbu_0, # of connection points: 3
#     Node 6, Type 0, BuildingBlock: WUSLED_clean_sbu_0, # of connection points: 3
#     Node 7, Type 0, BuildingBlock: WUSLED_clean_sbu_0, # of connection points: 3
#     Node 8, Type 1, BuildingBlock: LEVNOQ01_clean_sbu_1, # of connection points: 6
#     Node 9, Type 1, BuildingBlock: LEVNOQ01_clean_sbu_1, # of connection points: 6
#     Node 10, Type 1, BuildingBlock: LEVNOQ01_clean_sbu_1, # of connection points: 6
#     Node 11, Type 1, BuildingBlock: LEVNOQ01_clean_sbu_1, # of connection points: 6
#     Edge 12, Type (0, 1), None
#     Edge 13, Type (0, 1), None
#     Edge 14, Type (0, 1), None
#     Edge 15, Type (0, 1), None
#     Edge 16, Type (0, 1), None
#     Edge 17, Type (0, 1), None
#     Edge 18, Type (0, 1), None
#     Edge 19, Type (0, 1), None
#     Edge 20, Type (0, 1), None
#     Edge 21, Type (0, 1), None
#     Edge 22, Type (0, 1), None
#     Edge 23, Type (0, 1), None
#     Edge 24, Type (0, 1), None
#     Edge 25, Type (0, 1), None
#     Edge 26, Type (0, 1), None
#     Edge 27, Type (0, 1), None
#     Edge 28, Type (0, 1), None
#     Edge 29, Type (0, 1), None
#     Edge 30, Type (0, 1), None
#     Edge 31, Type (0, 1), None
#     Edge 32, Type (0, 1), None
#     Edge 33, Type (0, 1), None
#     Edge 34, Type (0, 1), None
#     Edge 35, Type (0, 1), None
# Relax obj value: 0.034
# Max RMSD: 0.108
# Mean RMSD: 0.045
data_MOF--net-pry--node1-WUSLED_clean_sbu_0--node2-LEVNOQ01_clean_sbu_1--edge1-none
_symmetry_space_group_name_H-M    P1
_symmetry_Int_Tables_number       1
_symmetry_cell_setting            triclinic
loop_
_symmetry_equiv_pos_as_xyz
'x, y, z'
_cell_length_a     27.750306
_cell_length_b     26.937915
_cell_length_c     26.152794
_cell_angle_alpha  92.990542
_cell_angle_beta   89.807753
_cell_angle_gamma 93.441218
loop_
_atom_site_label
_atom_site_type_symbol
_atom_site_fract_x
_atom_site_fract_y
_atom_site_fract_z
_atom_type_partial_charge
C0 C 0.12391 0.28193 0.07702 0.0
C1 C 0.07818 0.2832 0.09984 0.0
C2 C 0.06506 0.36251 0.06219 0.0
C3 C 0.04907 0.32282 0.09234 0.0
C4 C 0.11032 0.36037 0.03801 0.0
C5 C 0.13943 0.3204 0.04538 0.0
U6 U 0.16541 0.17766 0.15853 0.0
O7 O 0.18559 0.10206 0.13343 0.0
O8 O 0.23744 0.15336 0.17542 0.0
C9 C 0.22984 0.10967 0.15113 0.0
C10 C 0.15562 0.241 0.08626 0.0
C11 C 0.2693 0.09471 0.11695 0.0
C12 C 0.32856 0.11577 0.05208 0.0
C13 C 0.28533 0.1248 0.07751 0.0
C14 C 0.3384 0.04401 0.10232 0.0
C15 C 0.35663 0.07653 0.06567 0.0
C16 C 0.2951 0.05324 0.12796 0.0
C17 C 0.10656 0.15051 0.28659 0.0
C18 C 0.1097 0.07024 0.32423 0.0
C19 C 0.07463 0.13838 0.37233 0.0
C20 C 0.08504 0.16939 0.33167 0.0
C21 C 0.08512 0.08791 0.36802 0.0
C22 C 0.1206 0.10128 0.28408 0.0
C23 C 0.11121 0.18085 0.24117 0.0
O24 O 0.18645 0.24907 0.1243 0.0
O25 O 0.13429 0.19604 0.08511 0.0
O26 O 0.09731 0.15775 0.19766 0.0
O27 O 0.15196 0.20778 0.2371 0.0
H28 H 0.06529 0.25396 0.12429 0.0
H29 H 0.01451 0.32311 0.11171 0.0
H30 H 0.12397 0.39038 1.01496 0.0
H31 H 0.17455 0.32003 0.02719 0.0
H32 H 0.34143 0.14134 0.02373 0.0
H33 H 0.26588 0.1569 0.0684 0.0
H34 H 0.35919 0.0137 0.11383 0.0
H35 H 0.28321 0.02962 0.15841 0.0
H36 H 0.11819 0.0315 0.31982 0.0
H37 H 0.05518 0.15286 0.40529 0.0
H38 H 0.07424 0.20742 0.33448 0.0
H39 H 0.13783 0.08609 0.24997 0.0
C40 C 0.25943 0.91773 0.56673 0.0
C41 C 0.25725 0.96189 0.59717 0.0
C42 C 0.17701 0.9745 0.56412 0.0
C43 C 0.21668 0.98997 0.5958 0.0
C44 C 0.17988 0.93101 0.53228 0.0
C45 C 0.2208 0.90274 0.53373 0.0
U46 U 0.36653 0.8863 0.64434 0.0
O47 O 0.38992 0.81527 0.66985 0.0
O48 O 0.43903 0.86179 0.6234 0.0
C49 C 0.43269 0.82086 0.6485 0.0
C50 C 0.30033 0.88594 0.57268 0.0
C51 C 0.45454 0.77537 0.62838 0.0
C52 C 0.44928 0.69434 0.58234 0.0
C53 C 0.43149 0.74171 0.59218 0.0
C54 C 0.51393 0.71506 0.6432 0.0
C55 C 0.48952 0.68004 0.60948 0.0
C56 C 0.49682 0.76237 0.65218 0.0
C57 C 0.39673 0.95782 0.76809 0.0
C58 C 0.45474 0.92258 0.82286 0.0
C59 C 0.41639 0.99748 0.85187 0.0
C60 C 0.39072 0.99621 0.80555 0.0
C61 C 0.44787 0.95994 0.86139 0.0
C62 C 0.4296 0.92165 0.77673 0.0
C63 C 0.36674 0.95272 0.72156 0.0
O64 O 0.34355 0.90836 0.56863 0.0
O65 O 0.29658 0.85749 0.612 0.0
O66 O 0.33768 0.91236 0.71869 0.0
O67 O 0.38971 0.96055 0.6784 0.0
H68 H 0.2865 0.97401 0.62313 0.0
H69 H 0.21602 0.02332 0.62072 0.0
H70 H 0.14998 0.91795 0.50763 0.0
H71 H 0.22173 0.86854 0.51014 0.0
H72 H 0.42944 0.66771 0.55667 0.0
H73 H 0.39856 0.75098 0.57375 0.0
H74 H 0.54483 0.70492 0.66472 0.0
H75 H 0.51499 0.78777 0.6804 0.0
H76 H 0.47902 0.89335 0.82865 0.0
H77 H 0.41031 0.02668 0.88081 0.0
H78 H 0.36538 0.0244 0.79952 0.0
H79 H 0.4348 0.89176 0.74825 0.0
C80 C 0.6191 0.36136 0.73671 0.0
C81 C 0.62494 0.41073 0.75659 0.0
C82 C 0.57532 0.43791 0.68825 0.0
C83 C 0.60278 0.44852 0.73289 0.0
C84 C 0.57283 0.38931 0.6658 0.0
C85 C 0.59432 0.35105 0.69024 0.0
U86 U 0.70031 0.31719 0.83868 0.0
O87 O 0.68461 0.27953 0.9093 0.0
O88 O 0.72702 0.24253 0.84928 0.0
C89 C 0.70368 0.23823 0.89288 0.0
C90 C 0.63486 0.32065 0.76699 0.0
C91 C 0.6706 0.19409 0.89803 0.0
C92 C 0.58611 0.16524 0.89778 0.0
C93 C 0.62427 0.1934 0.87648 0.0
C94 C 0.64166 0.1316 0.95622 0.0
C95 C 0.59414 0.13671 0.93995 0.0
C96 C 0.67979 0.16057 0.93558 0.0
C97 C 0.79062 0.4203 0.89786 0.0
C98 C 0.86282 0.41615 0.94975 0.0
C99 C 0.8285 0.49551 0.93869 0.0
C100 C 0.79146 0.47172 0.90911 0.0
C101 C 0.86547 0.4683 0.95785 0.0
C102 C 0.8256 0.39222 0.91966 0.0
C103 C 0.75445 0.39857 0.86084 0.0
O104 O 0.67853 0.30611 0.75747 0.0
O105 O 0.62539 0.32581 0.81619 0.0
O106 O 0.71059 0.39074 0.87884 0.0
O107 O 0.76769 0.36299 0.82824 0.0
H108 H 0.6444 0.41966 0.79206 0.0
H109 H 0.6052 0.48577 0.75084 0.0
H110 H 0.55143 0.38026 0.63163 0.0
H111 H 0.58965 0.31317 0.67422 0.0
H112 H 0.54963 0.17027 0.8852 0.0
H113 H 0.61643 0.21925 0.84766 0.0
H114 H 0.64849 0.1105 0.98934 0.0
H115 H 0.71522 0.16088 0.95292 0.0
H116 H 0.89111 0.39435 0.96366 0.0
H117 H 0.82955 0.5357 0.94438 0.0
H118 H 0.76455 0.49394 0.89302 0.0
H119 H 0.82528 0.35233 0.91175 0.0
C120 C 0.76425 0.58418 0.47876 0.0
C121 C 0.74328 0.62744 0.49851 0.0
C122 C 0.67291 0.57759 0.5252 0.0
C123 C 0.69756 0.62416 0.52094 0.0
C124 C 0.69686 0.53414 0.51197 0.0
C125 C 0.7421 0.53748 0.48826 0.0
U126 U 0.87723 0.65102 0.42794 0.0
O127 O 0.93912 0.62771 0.38207 0.0
O128 O 0.88861 0.67772 0.35022 0.0
C129 C 0.92573 0.65044 0.34153 0.0
C130 C 0.80345 0.58785 0.4408 0.0
C131 C 0.92538 0.62072 0.2925 0.0
C132 C 0.92388 0.54012 0.24643 0.0
C133 C 0.9148 0.56909 0.29089 0.0
C134 C 0.94891 0.61441 0.20264 0.0
C135 C 0.94308 0.56229 0.20268 0.0
C136 C 0.94038 0.64343 0.24748 0.0
C137 C 0.93429 0.76317 0.5001 0.0
C138 C 0.99213 0.81176 0.45098 0.0
C139 C 0.95201 0.85063 0.52379 0.0
C140 C 0.92797 0.80486 0.53332 0.0
C141 C 0.98177 0.85481 0.48052 0.0
C142 C 0.96855 0.76616 0.46072 0.0
C143 C 0.89907 0.72045 0.49949 0.0
O144 O 0.80214 0.62648 0.41234 0.0
O145 O 0.84723 0.57938 0.45599 0.0
O146 O 0.91727 0.67644 0.498 0.0
O147 O 0.86398 0.72333 0.46635 0.0
H148 H 0.76012 0.66398 0.49233 0.0
H149 H 0.67978 0.6581 0.53079 0.0
H150 H 0.67844 0.49772 0.51445 0.0
H151 H 0.75779 0.50372 0.47356 0.0
H152 H 0.91929 0.49995 0.24748 0.0
H153 H 0.90252 0.55079 0.32489 0.0
H154 H 0.96438 0.63234 0.16974 0.0
H155 H 0.94841 0.68332 0.24789 0.0
H156 H 0.01485 0.81429 0.41731 0.0
H157 H 0.94302 0.88354 0.54659 0.0
H158 H 0.90144 0.80309 0.56376 0.0
H159 H 0.97372 0.73436 0.43458 0.0
C160 C 0.90163 0.76617 0.97485 0.0
C161 C 0.94904 0.76419 0.95656 0.0
C162 C 0.95844 0.68674 0.99937 0.0
C163 C 0.97716 0.72505 0.96882 0.0
C164 C 0.91151 0.68989 1.01923 0.0
C165 C 0.88342 0.72929 1.00705 0.0
U166 U 0.86366 0.8699 0.88838 0.0
O167 O 0.79143 0.89045 0.86702 0.0
O168 O 0.83792 0.94322 0.91395 0.0
C169 C 0.79477 0.93296 0.89416 0.0
C170 C 0.87075 0.80627 0.96096 0.0
C171 C 0.75327 0.94172 0.92805 0.0
C172 C 0.69196 0.90936 0.98595 0.0
C173 C 0.73623 0.90514 0.96096 0.0
C174 C 0.68295 0.98883 0.94885 0.0
C175 C 0.66402 0.95039 0.97878 0.0
C176 C 0.72718 0.98434 0.92342 0.0
C177 C 0.93085 0.9021 0.76453 0.0
C178 C 0.94125 0.98331 0.72814 0.0
C179 C 0.95977 0.90961 0.67668 0.0
C180 C 0.94592 0.88005 0.71765 0.0
C181 C 0.95927 0.96175 0.68233 0.0
C182 C 0.92685 0.95386 0.7686 0.0
C183 C 0.92318 0.87158 0.80983 0.0
O184 O 0.89119 0.85163 0.96348 0.0
O185 O 0.84353 0.79709 0.92009 0.0
O186 O 0.88338 0.84261 0.81031 0.0
O187 O 0.93312 0.89443 0.8546 0.0
H188 H 0.964 0.79236 0.93193 0.0
H189 H 0.0131 0.72387 0.95268 0.0
H190 H 0.89577 0.66093 0.04239 0.0
H191 H 0.84698 0.73036 1.02191 0.0
H192 H 0.67851 0.87925 1.009 0.0
H193 H 0.75594 0.87206 0.96521 0.0
H194 H 0.66218 0.02067 0.9423 0.0
H195 H 0.7398 0.01296 0.89813 0.0
H196 H 0.94048 0.02341 0.73361 0.0
H197 H 0.97413 0.89201 0.64219 0.0
H198 H 0.9491 0.84016 0.7135 0.0
H199 H 0.91475 0.9719 0.80394 0.0
C200 C 0.6266 0.08305 0.27754 0.0
C201 C 0.62878 0.04067 0.24425 0.0
C202 C 0.57193 0.0744 0.18622 0.0
C203 C 0.60146 0.0362 0.199 0.0
C204 C 0.5686 0.11589 0.22088 0.0
C205 C 0.59558 0.12011 0.26606 0.0
U206 U 0.67057 0.16048 0.3956 0.0
O207 O 0.64899 0.23187 0.3695 0.0
O208 O 0.60345 0.19224 0.42482 0.0
C209 C 0.61107 0.23305 0.3997 0.0
C210 C 0.65938 0.09063 0.32181 0.0
C211 C 0.60279 0.28138 0.42731 0.0
C212 C 0.54759 0.33454 0.47415 0.0
C213 C 0.5598 0.28728 0.45504 0.0
C214 C 0.62181 0.37064 0.43935 0.0
C215 C 0.57785 0.37693 0.46514 0.0
C216 C 0.6342 0.32352 0.42079 0.0
C217 C 0.78413 0.12814 0.4649 0.0
C218 C 0.85886 0.11033 0.50705 0.0
C219 C 0.83254 0.06212 0.43035 0.0
C220 C 0.79149 0.08957 0.42819 0.0
C221 C 0.86716 0.07258 0.46936 0.0
C222 C 0.81772 0.13799 0.50469 0.0
C223 C 0.74318 0.15995 0.45994 0.0
O224 O 0.63929 0.08693 0.36718 0.0
O225 O 0.69016 0.12944 0.31959 0.0
O226 O 0.70016 0.13898 0.46891 0.0
O227 O 0.74434 0.18601 0.41881 0.0
H228 H 0.65267 0.01173 0.25248 0.0
H229 H 0.60489 1.00382 0.17321 0.0
H230 H 0.54598 0.14585 0.21256 0.0
H231 H 0.5934 0.1531 0.29131 0.0
H232 H 0.51353 0.33812 0.49395 0.0
H233 H 0.53467 0.25558 0.46023 0.0
H234 H 0.64628 0.40242 0.43231 0.0
H235 H 0.6676 0.32057 0.39962 0.0
H236 H 0.88474 0.11945 0.53752 0.0
H237 H 0.8375 0.03319 0.40079 0.0
H238 H 0.76597 0.08143 0.39715 0.0
H239 H 0.81266 0.16777 0.53332 0.0
C240 C 0.23012 0.65412 0.1363 0.0
C241 C 0.20109 0.66534 0.09527 0.0
C242 C 0.15082 0.58931 0.10567 0.0
C243 C 0.16175 0.63323 0.08003 0.0
C244 C 0.18079 0.57773 0.14618 0.0
C245 C 0.22015 0.60992 0.16138 0.0
U246 U 0.33791 0.69263 0.22303 0.0
O247 O 0.3572 0.61739 0.23926 0.0
O248 O 0.31909 0.66143 0.2976 0.0
C249 C 0.34221 0.62092 0.28694 0.0
C250 C 0.27063 0.68882 0.15239 0.0
C251 C 0.37822 0.60834 0.32467 0.0
C252 C 0.40173 0.55911 0.39511 0.0
C253 C 0.36589 0.57524 0.36308 0.0
C254 C 0.46198 0.60967 0.35079 0.0
C255 C 0.45031 0.57524 0.38821 0.0
C256 C 0.42633 0.62634 0.3197 0.0
C257 C 0.41372 0.80732 0.18947 0.0
C258 C 0.46817 0.87409 0.16003 0.0
C259 C 0.40338 0.83867 0.10518 0.0
C260 C 0.38772 0.80742 0.14358 0.0
C261 C 0.44475 0.87087 0.11236 0.0
C262 C 0.45284 0.84217 0.19838 0.0
C263 C 0.40413 0.76654 0.22411 0.0
O264 O 0.31365 0.67206 0.14448 0.0
O265 O 0.26616 0.71186 0.1976 0.0
O266 O 0.41056 0.72211 0.20294 0.0
O267 O 0.36414 0.76812 0.25111 0.0
H268 H 0.20855 0.69924 0.07536 0.0
H269 H 0.1394 0.64333 0.04877 0.0
H270 H 0.17336 0.54428 0.16681 0.0
H271 H 0.24247 0.60065 0.19302 0.0
H272 H 0.39175 0.53282 0.42385 0.0
H273 H 0.32886 0.56095 0.36742 0.0
H274 H 0.49897 0.62354 0.34513 0.0
H275 H 0.43661 0.65216 0.29059 0.0
H276 H 0.50079 0.89785 0.1659 0.0
H277 H 0.38529 0.83502 0.06839 0.0
H278 H 0.35745 0.78075 0.13599 0.0
H279 H 0.47341 0.84245 0.23353 0.0
C280 C 0.04812 0.29495 0.60051 0.0
C281 C 0.082 0.27307 0.56779 0.0
C282 C 0.03812 0.19298 0.57378 0.0
C283 C 0.07699 0.22207 0.5545 0.0
C284 C 1.00036 0.21664 0.59892 0.0
C285 C 1.00544 0.26755 0.61245 0.0
U286 U 0.14336 0.3947 0.64558 0.0
O287 O 0.1398 0.46811 0.68571 0.0
O288 O 0.172 0.4074 0.72387 0.0
C289 C 0.15672 0.45258 0.7287 0.0
C290 C 0.06359 0.33789 0.63456 0.0
C291 C 0.1277 0.46281 0.77475 0.0
C292 C 0.04982 0.47356 0.81436 0.0
C293 C 0.0772 0.45971 0.77184 0.0
C294 C 0.1227 0.48978 0.86486 0.0
C295 C 0.07232 0.48989 0.8608 0.0
C296 C 0.15032 0.47654 0.82181 0.0
C297 C 0.26061 0.41735 0.57885 0.0
C298 C 0.31889 0.47432 0.62358 0.0
C299 C 0.33964 0.43488 0.54161 0.0
C300 C 0.2937 0.41029 0.53893 0.0
C301 C 0.3529 0.46653 0.58446 0.0
C302 C 0.27322 0.45001 0.62075 0.0
C303 C 0.21311 0.39055 0.57816 0.0
O304 O 0.09921 0.3285 0.66479 0.0
O305 O 0.06925 0.38168 0.6146 0.0
O306 O 0.1767 0.41912 0.57403 0.0
O307 O 0.20673 0.35845 0.61414 0.0
H308 H 0.11534 0.29366 0.55844 0.0
H309 H 0.10687 0.20442 0.53574 0.0
H310 H 0.97042 0.19471 0.61475 0.0
H311 H 0.97903 0.28378 0.63786 0.0
H312 H 1.01093 0.47323 0.81044 0.0
H313 H 0.05896 0.44822 0.73621 0.0
H314 H 0.14076 0.50273 0.90017 0.0
H315 H 0.18933 0.4785 0.8248 0.0
H316 H 0.32773 0.49864 0.65695 0.0
H317 H 0.36509 0.4281 0.51091 0.0
H318 H 0.28429 0.38529 0.50622 0.0
H319 H 0.24789 0.45608 0.65176 0.0
O320 O 0.01226 0.03005 0.66584 0.0
Mg321 Mg 0.0629 0.06595 0.61942 0.0
O322 O 0.98572 0.98484 0.5977 0.0
Mg323 Mg 0.01907 0.02297 0.52287 0.0
O324 O 0.03512 0.10296 0.56097 0.0
O325 O 0.06875 0.14002 0.63247 0.0
O326 O 0.05246 0.06292 0.44937 0.0
O327 O 0.94211 0.05094 0.50614 0.0
Mg328 Mg 0.98601 0.97979 0.42064 0.0
O329 O 1.00045 0.94387 0.48496 0.0
O330 O 0.0447 0.01104 0.38174 0.0
O331 O 0.92222 0.01913 0.42875 0.0
O332 O 0.97857 0.90515 0.40978 0.0
C333 C 0.13219 1.00215 0.56822 0.0
C334 C 0.98585 0.99426 0.64633 0.0
C335 C 0.04761 0.14303 0.58898 0.0
C336 C 0.06186 0.05155 0.40235 0.0
C337 C 0.91253 0.0458 0.46849 0.0
C338 C 0.98956 0.90308 0.4575 0.0
O339 O 0.12847 0.03346 0.6055 0.0
O340 O 0.09707 0.99322 0.53678 0.0
O341 O 0.42815 0.11684 0.037 0.0
Mg342 Mg 0.5025 0.1226 0.04727 0.0
O343 O 0.43224 0.03739 0.05149 0.0
Mg344 Mg 0.51061 0.01192 0.02557 0.0
O345 O 0.54087 0.08587 0.99236 0.0
O346 O 0.53889 0.1689 0.99965 0.0
O347 O 0.5891 0.98799 0.99958 0.0
O348 O 0.47589 0.99467 0.94359 0.0
Mg349 Mg 0.51687 0.91029 0.99627 0.0
O350 O 0.48163 0.93595 0.06127 0.0
O351 O 0.5914 0.90675 1.00078 0.0
O352 O 0.4869 0.91597 0.92353 0.0
O353 O 0.48214 0.85543 0.03278 0.0
C354 C 0.54733 0.0734 0.13576 0.0
C355 C 0.40756 0.07588 0.04836 0.0
C356 C 0.55492 0.12951 0.977 0.0
C357 C 0.61298 0.94875 0.99586 0.0
C358 C 0.47158 0.95707 0.91182 0.0
C359 C 0.47014 0.88876 0.06685 0.0
O360 O 0.53166 0.11366 0.12105 0.0
O361 O 0.54405 0.03355 0.10675 0.0
O362 O 0.50654 0.60945 0.65374 0.0
Mg363 Mg 0.48779 0.53314 0.65013 0.0
O364 O 0.49751 0.59794 0.57074 0.0
Mg365 Mg 0.5131 0.51424 0.54486 0.0
O366 O 0.53709 0.48404 0.62367 0.0
O367 O 0.51885 0.49866 0.70678 0.0
O368 O 0.52909 0.43527 0.51141 0.0
O369 O 0.5977 0.53585 0.54473 0.0
Mg370 Mg 0.55566 0.53732 0.46583 0.0
O371 O 0.48298 0.54207 0.46472 0.0
O372 O 0.58378 0.46469 0.45815 0.0
O373 O 0.59755 0.59949 0.49811 0.0
O374 O 0.5323 0.55718 0.39804 0.0
C375 C 0.4026 0.48897 0.5906 0.0
C376 C 0.50041 0.6271 0.61077 0.0
C377 C 0.54291 0.47533 0.6718 0.0
C378 C 0.56303 0.42787 0.47941 0.0
C379 C 0.6199 0.57446 0.5284 0.0
C380 C 0.48981 0.55637 0.41814 0.0
O381 O 0.41554 0.50824 0.63403 0.0
O382 O 0.43265 0.48674 0.55365 0.0
O383 O 1.00481 0.4135 0.09547 0.0
Mg384 Mg 0.02192 0.48966 0.11209 0.0
O385 O 0.05084 0.44642 0.03798 0.0
Mg386 Mg 1.00918 0.52403 0.03265 0.0
O387 O 0.97083 0.54055 0.11625 0.0
O388 O 0.99519 0.49849 0.18266 0.0
O389 O 0.96872 0.60353 0.02786 0.0
O390 O 0.93993 0.47631 1.00579 0.0
Mg391 Mg 0.99771 0.55762 0.95975 0.0
O392 O 0.04885 0.50804 0.94925 0.0
O393 O 0.0192 0.63342 0.97236 0.0
O394 O 0.9224 0.53665 0.95818 0.0
O395 O 0.01196 0.54377 0.88561 0.0
C396 C 0.1066 0.55774 0.09264 0.0
C397 C 0.03723 0.40816 0.06245 0.0
C398 C 0.96897 0.53131 0.16482 0.0
C399 C 0.98509 0.64071 1.00309 0.0
C400 C 0.91017 0.49553 0.97693 0.0
C401 C 0.0432 0.51442 0.90059 0.0
O402 O 0.09526 0.51988 0.11797 0.0
O403 O 0.07775 0.57034 0.05859 0.0
loop_
_geom_bond_atom_site_label_1
_geom_bond_atom_site_label_2
_geom_bond_distance
_geom_bond_site_symmetry_2
_ccdc_geom_bond_type
C0 C1 1.264 . S
C0 C5 1.479 . S
C0 C10 1.465 . S
C1 C0 1.264 . S
C1 C3 1.339 . S
C1 H28 0.931 . S
C2 C3 1.395 . S
C2 C4 1.320 . S
C3 C1 1.339 . S
C3 C2 1.395 . S
C3 H29 0.929 1_455 S
C4 C2 1.320 . S
C4 C5 1.405 . S
C4 H30 0.930 1_554 S
C5 C0 1.479 . S
C5 C4 1.405 . S
C5 H31 0.931 1_554 S
U6 O7 2.454 . S
U6 O8 2.458 . S
U6 C9 2.984 . S
U6 C10 2.847 . S
U6 C23 2.882 . S
U6 O24 2.441 . S
U6 O25 2.420 . S
U6 O26 2.455 . S
U6 O27 2.449 . S
O7 U6 2.454 . S
O7 C9 1.353 . S
O8 U6 2.458 . S
O8 C9 1.286 . S
C9 U6 2.984 . S
C9 O7 1.353 . S
C9 O8 1.286 . S
C9 C11 1.363 . S
C10 C0 1.465 . S
C10 U6 2.847 . S
C10 O24 1.249 . S
C10 O25 1.202 . S
C11 C9 1.363 . S
C11 C13 1.408 . S
C11 C16 1.342 . S
C12 C13 1.310 . S
C12 C15 1.461 . S
C12 H32 0.932 1_554 S
C13 C11 1.408 . S
C13 C12 1.310 . S
C13 H33 0.930 . S
C14 C15 1.474 . S
C14 C16 1.285 . S
C14 H34 0.929 . S
C15 C12 1.461 . S
C15 C14 1.474 . S
C16 C11 1.342 . S
C16 C14 1.285 . S
C16 H35 0.930 . S
C17 C20 1.424 . S
C17 C22 1.245 . S
C17 C23 1.428 . S
C18 C21 1.260 . S
C18 C22 1.477 . S
C18 H36 0.932 1_545 S
C19 C20 1.384 . S
C19 C21 1.479 . S
C19 H37 0.929 1_455 S
C20 C17 1.424 . S
C20 C19 1.384 . S
C20 H38 0.928 . S
C21 C18 1.260 . S
C21 C19 1.479 . S
C22 C17 1.245 . S
C22 C18 1.477 . S
C22 H39 0.932 . S
C23 U6 2.882 . S
C23 C17 1.428 . S
C23 O26 1.301 . S
C23 O27 1.282 . S
O24 U6 2.441 . S
O24 C10 1.249 . S
O25 U6 2.420 . S
O25 C10 1.202 . S
O26 U6 2.455 . S
O26 C23 1.301 . S
O27 U6 2.449 . S
O27 C23 1.282 . S
H28 C1 0.931 . S
H29 C3 0.929 1_655 S
H30 C4 0.930 1_556 S
H31 C5 0.931 1_556 S
H32 C12 0.932 1_556 S
H33 C13 0.930 . S
H34 C14 0.929 . S
H35 C16 0.930 . S
H36 C18 0.932 1_565 S
H37 C19 0.929 1_655 S
H38 C20 0.928 . S
H39 C22 0.932 . S
C40 C41 1.264 . S
C40 C45 1.479 . S
C40 C50 1.465 . S
C41 C40 1.264 . S
C41 C43 1.339 . S
C41 H68 0.931 . S
C42 C43 1.395 . S
C42 C44 1.320 . S
C43 C41 1.339 . S
C43 C42 1.395 . S
C43 H69 0.929 1_565 S
C44 C42 1.320 . S
C44 C45 1.405 . S
C44 H70 0.930 . S
C45 C40 1.479 . S
C45 C44 1.405 . S
C45 H71 0.931 . S
U46 O47 2.454 . S
U46 O48 2.458 . S
U46 C49 2.984 . S
U46 C50 2.847 . S
U46 C63 2.882 . S
U46 O64 2.441 . S
U46 O65 2.420 . S
U46 O66 2.455 . S
U46 O67 2.449 . S
O47 U46 2.454 . S
O47 C49 1.353 . S
O48 U46 2.458 . S
O48 C49 1.286 . S
C49 U46 2.984 . S
C49 O47 1.353 . S
C49 O48 1.286 . S
C49 C51 1.363 . S
C50 C40 1.465 . S
C50 U46 2.847 . S
C50 O64 1.249 . S
C50 O65 1.202 . S
C51 C49 1.363 . S
C51 C53 1.408 . S
C51 C56 1.342 . S
C52 C53 1.310 . S
C52 C55 1.461 . S
C52 H72 0.932 . S
C53 C51 1.408 . S
C53 C52 1.310 . S
C53 H73 0.930 . S
C54 C55 1.474 . S
C54 C56 1.285 . S
C54 H74 0.929 . S
C55 C52 1.461 . S
C55 C54 1.474 . S
C56 C51 1.342 . S
C56 C54 1.285 . S
C56 H75 0.930 . S
C57 C60 1.424 . S
C57 C62 1.245 . S
C57 C63 1.428 . S
C58 C61 1.260 . S
C58 C62 1.477 . S
C58 H76 0.932 . S
C59 C60 1.384 1_545 S
C59 C61 1.479 1_545 S
C59 H77 0.929 . S
C60 C57 1.424 . S
C60 C59 1.384 1_565 S
C60 H78 0.928 . S
C61 C58 1.260 . S
C61 C59 1.479 1_565 S
C62 C57 1.245 . S
C62 C58 1.477 . S
C62 H79 0.932 . S
C63 U46 2.882 . S
C63 C57 1.428 . S
C63 O66 1.301 . S
C63 O67 1.282 . S
O64 U46 2.441 . S
O64 C50 1.249 . S
O65 U46 2.420 . S
O65 C50 1.202 . S
O66 U46 2.455 . S
O66 C63 1.301 . S
O67 U46 2.449 . S
O67 C63 1.282 . S
H68 C41 0.931 . S
H69 C43 0.929 1_545 S
H70 C44 0.930 . S
H71 C45 0.931 . S
H72 C52 0.932 . S
H73 C53 0.930 . S
H74 C54 0.929 . S
H75 C56 0.930 . S
H76 C58 0.932 . S
H77 C59 0.929 . S
H78 C60 0.928 . S
H79 C62 0.932 . S
C80 C81 1.264 . S
C80 C85 1.479 . S
C80 C90 1.465 . S
C81 C80 1.264 . S
C81 C83 1.339 . S
C81 H108 0.931 . S
C82 C83 1.395 . S
C82 C84 1.320 . S
C83 C81 1.339 . S
C83 C82 1.395 . S
C83 H109 0.929 . S
C84 C82 1.320 . S
C84 C85 1.405 . S
C84 H110 0.930 . S
C85 C80 1.479 . S
C85 C84 1.405 . S
C85 H111 0.931 . S
U86 O87 2.454 . S
U86 O88 2.458 . S
U86 C89 2.984 . S
U86 C90 2.847 . S
U86 C103 2.882 . S
U86 O104 2.441 . S
U86 O105 2.420 . S
U86 O106 2.455 . S
U86 O107 2.449 . S
O87 U86 2.454 . S
O87 C89 1.353 . S
O88 U86 2.458 . S
O88 C89 1.286 . S
C89 U86 2.984 . S
C89 O87 1.353 . S
C89 O88 1.286 . S
C89 C91 1.363 . S
C90 C80 1.465 . S
C90 U86 2.847 . S
C90 O104 1.249 . S
C90 O105 1.202 . S
C91 C89 1.363 . S
C91 C93 1.408 . S
C91 C96 1.342 . S
C92 C93 1.310 . S
C92 C95 1.461 . S
C92 H112 0.932 . S
C93 C91 1.408 . S
C93 C92 1.310 . S
C93 H113 0.930 . S
C94 C95 1.474 . S
C94 C96 1.285 . S
C94 H114 0.929 1_556 S
C95 C92 1.461 . S
C95 C94 1.474 . S
C96 C91 1.342 . S
C96 C94 1.285 . S
C96 H115 0.930 . S
C97 C100 1.424 . S
C97 C102 1.245 . S
C97 C103 1.428 . S
C98 C101 1.260 . S
C98 C102 1.477 . S
C98 H116 0.932 1_556 S
C99 C100 1.384 . S
C99 C101 1.479 . S
C99 H117 0.929 . S
C100 C97 1.424 . S
C100 C99 1.384 . S
C100 H118 0.928 . S
C101 C98 1.260 . S
C101 C99 1.479 . S
C102 C97 1.245 . S
C102 C98 1.477 . S
C102 H119 0.932 . S
C103 U86 2.882 . S
C103 C97 1.428 . S
C103 O106 1.301 . S
C103 O107 1.282 . S
O104 U86 2.441 . S
O104 C90 1.249 . S
O105 U86 2.420 . S
O105 C90 1.202 . S
O106 U86 2.455 . S
O106 C103 1.301 . S
O107 U86 2.449 . S
O107 C103 1.282 . S
H108 C81 0.931 . S
H109 C83 0.929 . S
H110 C84 0.930 . S
H111 C85 0.931 . S
H112 C92 0.932 . S
H113 C93 0.930 . S
H114 C94 0.929 1_554 S
H115 C96 0.930 . S
H116 C98 0.932 1_554 S
H117 C99 0.929 . S
H118 C100 0.928 . S
H119 C102 0.932 . S
C120 C121 1.264 . S
C120 C125 1.479 . S
C120 C130 1.465 . S
C121 C120 1.264 . S
C121 C123 1.339 . S
C121 H148 0.931 . S
C122 C123 1.395 . S
C122 C124 1.320 . S
C123 C121 1.339 . S
C123 C122 1.395 . S
C123 H149 0.929 . S
C124 C122 1.320 . S
C124 C125 1.405 . S
C124 H150 0.930 . S
C125 C120 1.479 . S
C125 C124 1.405 . S
C125 H151 0.931 . S
U126 O127 2.454 . S
U126 O128 2.458 . S
U126 C129 2.984 . S
U126 C130 2.847 . S
U126 C143 2.882 . S
U126 O144 2.441 . S
U126 O145 2.420 . S
U126 O146 2.455 . S
U126 O147 2.449 . S
O127 U126 2.454 . S
O127 C129 1.353 . S
O128 U126 2.458 . S
O128 C129 1.286 . S
C129 U126 2.984 . S
C129 O127 1.353 . S
C129 O128 1.286 . S
C129 C131 1.363 . S
C130 C120 1.465 . S
C130 U126 2.847 . S
C130 O144 1.249 . S
C130 O145 1.202 . S
C131 C129 1.363 . S
C131 C133 1.408 . S
C131 C136 1.342 . S
C132 C133 1.310 . S
C132 C135 1.461 . S
C132 H152 0.932 . S
C133 C131 1.408 . S
C133 C132 1.310 . S
C133 H153 0.930 . S
C134 C135 1.474 . S
C134 C136 1.285 . S
C134 H154 0.929 1_655 S
C135 C132 1.461 . S
C135 C134 1.474 . S
C136 C131 1.342 . S
C136 C134 1.285 . S
C136 H155 0.930 . S
C137 C140 1.424 . S
C137 C142 1.245 . S
C137 C143 1.428 . S
C138 C141 1.260 1_455 S
C138 C142 1.477 1_455 S
C138 H156 0.932 . S
C139 C140 1.384 . S
C139 C141 1.479 . S
C139 H157 0.929 . S
C140 C137 1.424 . S
C140 C139 1.384 . S
C140 H158 0.928 . S
C141 C138 1.260 1_655 S
C141 C139 1.479 . S
C142 C137 1.245 . S
C142 C138 1.477 1_655 S
C142 H159 0.932 1_655 S
C143 U126 2.882 . S
C143 C137 1.428 . S
C143 O146 1.301 . S
C143 O147 1.282 . S
O144 U126 2.441 . S
O144 C130 1.249 . S
O145 U126 2.420 . S
O145 C130 1.202 . S
O146 U126 2.455 . S
O146 C143 1.301 . S
O147 U126 2.449 . S
O147 C143 1.282 . S
H148 C121 0.931 . S
H149 C123 0.929 . S
H150 C124 0.930 . S
H151 C125 0.931 . S
H152 C132 0.932 . S
H153 C133 0.930 . S
H154 C134 0.929 1_455 S
H155 C136 0.930 . S
H156 C138 0.932 . S
H157 C139 0.929 . S
H158 C140 0.928 . S
H159 C142 0.932 1_455 S
C160 C161 1.264 . S
C160 C165 1.479 . S
C160 C170 1.465 . S
C161 C160 1.264 . S
C161 C163 1.339 . S
C161 H188 0.931 . S
C162 C163 1.395 . S
C162 C164 1.320 . S
C163 C161 1.339 . S
C163 C162 1.395 . S
C163 H189 0.929 1_655 S
C164 C162 1.320 . S
C164 C165 1.405 . S
C164 H190 0.930 1_556 S
C165 C160 1.479 . S
C165 C164 1.405 . S
C165 H191 0.931 . S
U166 O167 2.454 . S
U166 O168 2.458 . S
U166 C169 2.984 . S
U166 C170 2.847 . S
U166 C183 2.882 . S
U166 O184 2.441 . S
U166 O185 2.420 . S
U166 O186 2.455 . S
U166 O187 2.449 . S
O167 U166 2.454 . S
O167 C169 1.353 . S
O168 U166 2.458 . S
O168 C169 1.286 . S
C169 U166 2.984 . S
C169 O167 1.353 . S
C169 O168 1.286 . S
C169 C171 1.363 . S
C170 C160 1.465 . S
C170 U166 2.847 . S
C170 O184 1.249 . S
C170 O185 1.202 . S
C171 C169 1.363 . S
C171 C173 1.408 . S
C171 C176 1.342 . S
C172 C173 1.310 . S
C172 C175 1.461 . S
C172 H192 0.932 1_556 S
C173 C171 1.408 . S
C173 C172 1.310 . S
C173 H193 0.930 . S
C174 C175 1.474 . S
C174 C176 1.285 . S
C174 H194 0.929 1_565 S
C175 C172 1.461 . S
C175 C174 1.474 . S
C176 C171 1.342 . S
C176 C174 1.285 . S
C176 H195 0.930 . S
C177 C180 1.424 . S
C177 C182 1.245 . S
C177 C183 1.428 . S
C178 C181 1.260 . S
C178 C182 1.477 . S
C178 H196 0.932 1_565 S
C179 C180 1.384 . S
C179 C181 1.479 . S
C179 H197 0.929 1_655 S
C180 C177 1.424 . S
C180 C179 1.384 . S
C180 H198 0.928 . S
C181 C178 1.260 . S
C181 C179 1.479 . S
C182 C177 1.245 . S
C182 C178 1.477 . S
C182 H199 0.932 . S
C183 U166 2.882 . S
C183 C177 1.428 . S
C183 O186 1.301 . S
C183 O187 1.282 . S
O184 U166 2.441 . S
O184 C170 1.249 . S
O185 U166 2.420 . S
O185 C170 1.202 . S
O186 U166 2.455 . S
O186 C183 1.301 . S
O187 U166 2.449 . S
O187 C183 1.282 . S
H188 C161 0.931 . S
H189 C163 0.929 1_455 S
H190 C164 0.930 1_554 S
H191 C165 0.931 . S
H192 C172 0.932 1_554 S
H193 C173 0.930 . S
H194 C174 0.929 1_545 S
H195 C176 0.930 . S
H196 C178 0.932 1_545 S
H197 C179 0.929 1_455 S
H198 C180 0.928 . S
H199 C182 0.932 . S
C200 C201 1.264 . S
C200 C205 1.479 . S
C200 C210 1.465 . S
C201 C200 1.264 . S
C201 C203 1.339 . S
C201 H228 0.931 . S
C202 C203 1.395 . S
C202 C204 1.320 . S
C203 C201 1.339 . S
C203 C202 1.395 . S
C203 H229 0.929 . S
C204 C202 1.320 . S
C204 C205 1.405 . S
C204 H230 0.930 . S
C205 C200 1.479 . S
C205 C204 1.405 . S
C205 H231 0.931 . S
U206 O207 2.454 . S
U206 O208 2.458 . S
U206 C209 2.984 . S
U206 C210 2.847 . S
U206 C223 2.882 . S
U206 O224 2.441 . S
U206 O225 2.420 . S
U206 O226 2.455 . S
U206 O227 2.449 . S
O207 U206 2.454 . S
O207 C209 1.353 . S
O208 U206 2.458 . S
O208 C209 1.286 . S
C209 U206 2.984 . S
C209 O207 1.353 . S
C209 O208 1.286 . S
C209 C211 1.363 . S
C210 C200 1.465 . S
C210 U206 2.847 . S
C210 O224 1.249 . S
C210 O225 1.202 . S
C211 C209 1.363 . S
C211 C213 1.408 . S
C211 C216 1.342 . S
C212 C213 1.310 . S
C212 C215 1.461 . S
C212 H232 0.932 . S
C213 C211 1.408 . S
C213 C212 1.310 . S
C213 H233 0.930 . S
C214 C215 1.474 . S
C214 C216 1.285 . S
C214 H234 0.929 . S
C215 C212 1.461 . S
C215 C214 1.474 . S
C216 C211 1.342 . S
C216 C214 1.285 . S
C216 H235 0.930 . S
C217 C220 1.424 . S
C217 C222 1.245 . S
C217 C223 1.428 . S
C218 C221 1.260 . S
C218 C222 1.477 . S
C218 H236 0.932 . S
C219 C220 1.384 . S
C219 C221 1.479 . S
C219 H237 0.929 . S
C220 C217 1.424 . S
C220 C219 1.384 . S
C220 H238 0.928 . S
C221 C218 1.260 . S
C221 C219 1.479 . S
C222 C217 1.245 . S
C222 C218 1.477 . S
C222 H239 0.932 . S
C223 U206 2.882 . S
C223 C217 1.428 . S
C223 O226 1.301 . S
C223 O227 1.282 . S
O224 U206 2.441 . S
O224 C210 1.249 . S
O225 U206 2.420 . S
O225 C210 1.202 . S
O226 U206 2.455 . S
O226 C223 1.301 . S
O227 U206 2.449 . S
O227 C223 1.282 . S
H228 C201 0.931 . S
H229 C203 0.929 . S
H230 C204 0.930 . S
H231 C205 0.931 . S
H232 C212 0.932 . S
H233 C213 0.930 . S
H234 C214 0.929 . S
H235 C216 0.930 . S
H236 C218 0.932 . S
H237 C219 0.929 . S
H238 C220 0.928 . S
H239 C222 0.932 . S
C240 C241 1.264 . S
C240 C245 1.479 . S
C240 C250 1.465 . S
C241 C240 1.264 . S
C241 C243 1.339 . S
C241 H268 0.931 . S
C242 C243 1.395 . S
C242 C244 1.320 . S
C243 C241 1.339 . S
C243 C242 1.395 . S
C243 H269 0.929 . S
C244 C242 1.320 . S
C244 C245 1.405 . S
C244 H270 0.930 . S
C245 C240 1.479 . S
C245 C244 1.405 . S
C245 H271 0.931 . S
U246 O247 2.454 . S
U246 O248 2.458 . S
U246 C249 2.984 . S
U246 C250 2.847 . S
U246 C263 2.882 . S
U246 O264 2.441 . S
U246 O265 2.420 . S
U246 O266 2.455 . S
U246 O267 2.449 . S
O247 U246 2.454 . S
O247 C249 1.353 . S
O248 U246 2.458 . S
O248 C249 1.286 . S
C249 U246 2.984 . S
C249 O247 1.353 . S
C249 O248 1.286 . S
C249 C251 1.363 . S
C250 C240 1.465 . S
C250 U246 2.847 . S
C250 O264 1.249 . S
C250 O265 1.202 . S
C251 C249 1.363 . S
C251 C253 1.408 . S
C251 C256 1.342 . S
C252 C253 1.310 . S
C252 C255 1.461 . S
C252 H272 0.932 . S
C253 C251 1.408 . S
C253 C252 1.310 . S
C253 H273 0.930 . S
C254 C255 1.474 . S
C254 C256 1.285 . S
C254 H274 0.929 . S
C255 C252 1.461 . S
C255 C254 1.474 . S
C256 C251 1.342 . S
C256 C254 1.285 . S
C256 H275 0.930 . S
C257 C260 1.424 . S
C257 C262 1.245 . S
C257 C263 1.428 . S
C258 C261 1.260 . S
C258 C262 1.477 . S
C258 H276 0.932 . S
C259 C260 1.384 . S
C259 C261 1.479 . S
C259 H277 0.929 . S
C260 C257 1.424 . S
C260 C259 1.384 . S
C260 H278 0.928 . S
C261 C258 1.260 . S
C261 C259 1.479 . S
C262 C257 1.245 . S
C262 C258 1.477 . S
C262 H279 0.932 . S
C263 U246 2.882 . S
C263 C257 1.428 . S
C263 O266 1.301 . S
C263 O267 1.282 . S
O264 U246 2.441 . S
O264 C250 1.249 . S
O265 U246 2.420 . S
O265 C250 1.202 . S
O266 U246 2.455 . S
O266 C263 1.301 . S
O267 U246 2.449 . S
O267 C263 1.282 . S
H268 C241 0.931 . S
H269 C243 0.929 . S
H270 C244 0.930 . S
H271 C245 0.931 . S
H272 C252 0.932 . S
H273 C253 0.930 . S
H274 C254 0.929 . S
H275 C256 0.930 . S
H276 C258 0.932 . S
H277 C259 0.929 . S
H278 C260 0.928 . S
H279 C262 0.932 . S
C280 C281 1.264 . S
C280 C285 1.479 . S
C280 C290 1.465 . S
C281 C280 1.264 . S
C281 C283 1.339 . S
C281 H308 0.931 . S
C282 C283 1.395 . S
C282 C284 1.320 1_455 S
C283 C281 1.339 . S
C283 C282 1.395 . S
C283 H309 0.929 . S
C284 C282 1.320 1_655 S
C284 C285 1.405 1_655 S
C284 H310 0.930 . S
C285 C280 1.479 . S
C285 C284 1.405 1_455 S
C285 H311 0.931 1_455 S
U286 O287 2.454 . S
U286 O288 2.458 . S
U286 C289 2.984 . S
U286 C290 2.847 . S
U286 C303 2.882 . S
U286 O304 2.441 . S
U286 O305 2.420 . S
U286 O306 2.455 . S
U286 O307 2.449 . S
O287 U286 2.454 . S
O287 C289 1.353 . S
O288 U286 2.458 . S
O288 C289 1.286 . S
C289 U286 2.984 . S
C289 O287 1.353 . S
C289 O288 1.286 . S
C289 C291 1.363 . S
C290 C280 1.465 . S
C290 U286 2.847 . S
C290 O304 1.249 . S
C290 O305 1.202 . S
C291 C289 1.363 . S
C291 C293 1.408 . S
C291 C296 1.342 . S
C292 C293 1.310 . S
C292 C295 1.461 . S
C292 H312 0.932 1_455 S
C293 C291 1.408 . S
C293 C292 1.310 . S
C293 H313 0.930 . S
C294 C295 1.474 . S
C294 C296 1.285 . S
C294 H314 0.929 . S
C295 C292 1.461 . S
C295 C294 1.474 . S
C296 C291 1.342 . S
C296 C294 1.285 . S
C296 H315 0.930 . S
C297 C300 1.424 . S
C297 C302 1.245 . S
C297 C303 1.428 . S
C298 C301 1.260 . S
C298 C302 1.477 . S
C298 H316 0.932 . S
C299 C300 1.384 . S
C299 C301 1.479 . S
C299 H317 0.929 . S
C300 C297 1.424 . S
C300 C299 1.384 . S
C300 H318 0.928 . S
C301 C298 1.260 . S
C301 C299 1.479 . S
C302 C297 1.245 . S
C302 C298 1.477 . S
C302 H319 0.932 . S
C303 U286 2.882 . S
C303 C297 1.428 . S
C303 O306 1.301 . S
C303 O307 1.282 . S
O304 U286 2.441 . S
O304 C290 1.249 . S
O305 U286 2.420 . S
O305 C290 1.202 . S
O306 U286 2.455 . S
O306 C303 1.301 . S
O307 U286 2.449 . S
O307 C303 1.282 . S
H308 C281 0.931 . S
H309 C283 0.929 . S
H310 C284 0.930 . S
H311 C285 0.931 1_655 S
H312 C292 0.932 1_655 S
H313 C293 0.930 . S
H314 C294 0.929 . S
H315 C296 0.930 . S
H316 C298 0.932 . S
H317 C299 0.929 . S
H318 C300 0.928 . S
H319 C302 0.932 . S
O320 Mg321 1.990 . S
O320 C334 1.253 1_445 S
Mg321 O320 1.990 . S
Mg321 O324 2.180 . S
Mg321 O325 2.117 . S
Mg321 O339 2.030 1_545 S
O322 Mg323 2.072 1_665 S
O322 C334 1.260 . S
Mg323 O322 2.072 1_445 S
Mg323 O324 2.099 . S
Mg323 O326 2.079 . S
Mg323 O327 2.072 1_455 S
Mg323 O329 2.099 1_445 S
Mg323 O340 2.079 1_545 S
O324 Mg321 2.180 . S
O324 Mg323 2.099 . S
O324 C335 1.279 . S
O325 Mg321 2.117 . S
O325 C335 1.250 . S
O326 Mg323 2.079 . S
O326 C336 1.264 . S
O327 Mg323 2.072 1_655 S
O327 C337 1.260 . S
Mg328 O329 2.180 . S
Mg328 O330 2.030 1_565 S
Mg328 O331 1.990 1_565 S
Mg328 O332 2.117 . S
O329 Mg323 2.099 1_665 S
O329 Mg328 2.180 . S
O329 C338 1.279 . S
O330 Mg328 2.030 1_545 S
O330 C336 1.248 1_655 S
O331 Mg328 1.990 1_545 S
O331 C337 1.253 . S
O332 Mg328 2.117 . S
O332 C338 1.250 . S
C333 O339 1.248 . S
C333 O340 1.264 . S
C334 O320 1.253 1_665 S
C334 O322 1.260 . S
C335 O324 1.279 . S
C335 O325 1.250 . S
C336 O326 1.264 . S
C336 O330 1.248 1_455 S
C337 O327 1.260 . S
C337 O331 1.253 . S
C338 O329 1.279 . S
C338 O332 1.250 . S
O339 Mg321 2.030 1_565 S
O339 C333 1.248 . S
O340 Mg323 2.079 1_565 S
O340 C333 1.264 . S
O341 Mg342 1.990 . S
O341 C355 1.253 . S
Mg342 O341 1.990 . S
Mg342 O345 2.180 1_554 S
Mg342 O346 2.117 1_554 S
Mg342 O360 2.030 . S
O343 Mg344 2.072 . S
O343 C355 1.260 . S
Mg344 O343 2.072 . S
Mg344 O345 2.099 1_554 S
Mg344 O347 2.079 1_544 S
Mg344 O348 2.072 1_554 S
Mg344 O350 2.099 1_545 S
Mg344 O361 2.079 . S
O345 Mg342 2.180 1_556 S
O345 Mg344 2.099 1_556 S
O345 C356 1.279 . S
O346 Mg342 2.117 1_556 S
O346 C356 1.250 . S
O347 Mg344 2.079 1_566 S
O347 C357 1.264 . S
O348 Mg344 2.072 1_556 S
O348 C358 1.260 1_545 S
Mg349 O350 2.180 1_556 S
Mg349 O351 2.030 . S
Mg349 O352 1.990 . S
Mg349 O353 2.117 1_556 S
O350 Mg344 2.099 1_565 S
O350 Mg349 2.180 1_554 S
O350 C359 1.279 . S
O351 Mg349 2.030 . S
O351 C357 1.248 . S
O352 Mg349 1.990 . S
O352 C358 1.253 . S
O353 Mg349 2.117 1_554 S
O353 C359 1.250 . S
C354 O360 1.248 . S
C354 O361 1.264 . S
C355 O341 1.253 . S
C355 O343 1.260 . S
C356 O345 1.279 . S
C356 O346 1.250 . S
C357 O347 1.264 . S
C357 O351 1.248 . S
C358 O348 1.260 1_565 S
C358 O352 1.253 . S
C359 O350 1.279 . S
C359 O353 1.250 . S
O360 Mg342 2.030 . S
O360 C354 1.248 . S
O361 Mg344 2.079 . S
O361 C354 1.264 . S
O362 Mg363 1.990 . S
O362 C376 1.253 . S
Mg363 O362 1.990 . S
Mg363 O366 2.180 . S
Mg363 O367 2.117 . S
Mg363 O381 2.030 . S
O364 Mg365 2.072 . S
O364 C376 1.260 . S
Mg365 O364 2.072 . S
Mg365 O366 2.099 . S
Mg365 O368 2.079 . S
Mg365 O369 2.072 . S
Mg365 O371 2.099 . S
Mg365 O382 2.079 . S
O366 Mg363 2.180 . S
O366 Mg365 2.099 . S
O366 C377 1.279 . S
O367 Mg363 2.117 . S
O367 C377 1.250 . S
O368 Mg365 2.079 . S
O368 C378 1.264 . S
O369 Mg365 2.072 . S
O369 C379 1.260 . S
Mg370 O371 2.180 . S
Mg370 O372 2.030 . S
Mg370 O373 1.990 . S
Mg370 O374 2.117 . S
O371 Mg365 2.099 . S
O371 Mg370 2.180 . S
O371 C380 1.279 . S
O372 Mg370 2.030 . S
O372 C378 1.248 . S
O373 Mg370 1.990 . S
O373 C379 1.253 . S
O374 Mg370 2.117 . S
O374 C380 1.250 . S
C375 O381 1.248 . S
C375 O382 1.264 . S
C376 O362 1.253 . S
C376 O364 1.260 . S
C377 O366 1.279 . S
C377 O367 1.250 . S
C378 O368 1.264 . S
C378 O372 1.248 . S
C379 O369 1.260 . S
C379 O373 1.253 . S
C380 O371 1.279 . S
C380 O374 1.250 . S
O381 Mg363 2.030 . S
O381 C375 1.248 . S
O382 Mg365 2.079 . S
O382 C375 1.264 . S
O383 Mg384 1.990 . S
O383 C397 1.253 . S
Mg384 O383 1.990 . S
Mg384 O387 2.180 . S
Mg384 O388 2.117 1_455 S
Mg384 O402 2.030 . S
O385 Mg386 2.072 . S
O385 C397 1.260 . S
Mg386 O385 2.072 . S
Mg386 O387 2.099 . S
Mg386 O389 2.079 1_454 S
Mg386 O390 2.072 1_454 S
Mg386 O392 2.099 1_554 S
Mg386 O403 2.079 . S
O387 Mg384 2.180 . S
O387 Mg386 2.099 . S
O387 C398 1.279 1_455 S
O388 Mg384 2.117 1_655 S
O388 C398 1.250 . S
O389 Mg386 2.079 1_656 S
O389 C399 1.264 . S
O390 Mg386 2.072 1_656 S
O390 C400 1.268 . S
Mg391 O392 2.180 1_655 S
Mg391 O393 2.030 . S
Mg391 O394 1.990 . S
Mg391 O395 2.117 1_655 S
O392 Mg386 2.099 1_556 S
O392 Mg391 2.180 1_455 S
O392 C401 1.279 . S
O393 Mg391 2.030 . S
O393 C399 1.248 . S
O394 Mg391 1.990 . S
O394 C400 1.253 . S
O395 Mg391 2.117 1_455 S
O395 C401 1.250 . S
C396 O402 1.248 . S
C396 O403 1.264 . S
C397 O383 1.253 . S
C397 O385 1.260 . S
C398 O387 1.279 1_655 S
C398 O388 1.250 . S
C399 O389 1.264 . S
C399 O393 1.248 . S
C400 O390 1.268 . S
C400 O394 1.253 . S
C401 O392 1.279 . S
C401 O395 1.250 . S
O402 Mg384 2.030 . S
O402 C396 1.248 . S
O403 Mg386 2.079 . S
O403 C396 1.264 . S
C21 C336 1.686 . S
C61 C358 1.681 . S
C377 C82 1.187 . S
C135 C398 1.958 . S
C355 C15 2.201 . S
C333 C42 2.110 . S
C400 C101 1.701 . S
C379 C122 2.248 . S
C2 C397 2.202 . S
C356 C95 1.331 . S
C141 C338 2.658 . S
C55 C376 2.115 . S
C334 C181 1.612 . S
C202 C354 1.441 . S
C255 C380 1.159 . S
C295 C401 1.916 . S
C175 C357 2.113 . S
C337 C221 2.171 . S
C396 C242 1.068 . S
C375 C301 2.263 . S
C162 C399 1.747 . S
C359 C261 1.205 . S
C335 C282 2.392 . S
C215 C378 2.105 . S
