# Generated by pormake.
# Topology pts, (4,4)-cn, num edge types: 1
# Building blocks:
#     Node 0, Type 0, BuildingBlock: NAWXER_clean_sbu_0, # of connection points: 4
#     Node 1, Type 0, BuildingBlock: NAWXER_clean_sbu_0, # of connection points: 4
#     Node 2, Type 1, BuildingBlock: QUQFOY_clean_sbu_1, # of connection points: 4
#     Node 3, Type 1, BuildingBlock: QUQFOY_clean_sbu_1, # of connection points: 4
#     Edge 4, Type (0, 1), BuildingBlock: MIFKUJ_clean_linker_0, # of connection points: 2
#     Edge 5, Type (0, 1), BuildingBlock: MIFKUJ_clean_linker_0, # of connection points: 2
#     Edge 6, Type (0, 1), BuildingBlock: MIFKUJ_clean_linker_0, # of connection points: 2
#     Edge 7, Type (0, 1), BuildingBlock: MIFKUJ_clean_linker_0, # of connection points: 2
#     Edge 8, Type (0, 1), BuildingBlock: MIFKUJ_clean_linker_0, # of connection points: 2
#     Edge 9, Type (0, 1), BuildingBlock: MIFKUJ_clean_linker_0, # of connection points: 2
#     Edge 10, Type (0, 1), BuildingBlock: MIFKUJ_clean_linker_0, # of connection points: 2
#     Edge 11, Type (0, 1), BuildingBlock: MIFKUJ_clean_linker_0, # of connection points: 2
# Relax obj value: 0.107
# Max RMSD: 0.244
# Mean RMSD: 0.141
data_MOF--net-pts--node1-NAWXER_clean_sbu_0--node2-QUQFOY_clean_sbu_1--edge1-MIFKUJ_clean_linker_0
_symmetry_space_group_name_H-M    P1
_symmetry_Int_Tables_number       1
_symmetry_cell_setting            triclinic
loop_
_symmetry_equiv_pos_as_xyz
'x, y, z'
_cell_length_a     28.43697
_cell_length_b     31.478432
_cell_length_c     51.271334
_cell_angle_alpha  90.088436
_cell_angle_beta   89.938591
_cell_angle_gamma 90.267021
loop_
_atom_site_label
_atom_site_type_symbol
_atom_site_fract_x
_atom_site_fract_y
_atom_site_fract_z
_atom_type_partial_charge
C0 C 0.44016 0.97095 0.96828 0.0
C1 C 0.55878 0.97456 0.03751 0.0
O2 O 0.4586 0.93873 0.97916 0.0
Zn3 Zn 0.49939 0.97024 1.00287 0.0
O4 O 0.4518 0.0084 0.97579 0.0
Zn5 Zn 0.49704 0.03889 1.00329 0.0
O6 O 0.53934 0.07086 0.98055 0.0
O7 O 0.54576 1.00129 0.97633 0.0
O8 O 0.54434 0.01119 0.03033 0.0
O9 O 0.54265 0.94138 0.0264 0.0
O10 O 0.44998 0.99733 0.02919 0.0
O11 O 0.45276 0.06726 0.02649 0.0
C12 C 0.55794 0.03887 0.96944 0.0
C13 C 0.43529 0.03381 0.03661 0.0
C14 C 0.95725 0.56247 0.47349 0.0
C15 C 0.96985 0.44831 0.53798 0.0
O16 O 0.92324 0.54137 0.48319 0.0
Zn17 Zn 0.96108 0.50428 0.50541 0.0
O18 O -0.00044 0.55279 0.47937 0.0
Zn19 Zn 0.03651 0.50868 0.50273 0.0
O20 O 0.06908 0.47315 0.47722 0.0
O21 O 0.99254 0.4615 0.47852 0.0
O22 O 0.00956 0.46254 0.52978 0.0
O23 O 0.93187 0.46416 0.52923 0.0
O24 O 0.99396 0.54798 0.5319 0.0
O25 O 0.07083 0.54779 0.52517 0.0
C26 C 0.03324 0.45231 0.46952 0.0
C27 C 0.03521 0.56195 0.53741 0.0
O28 O 0.94405 0.96521 0.23801 0.0
Cd29 Cd 0.00332 0.95799 0.26045 0.0
Cd30 Cd 0.99503 0.0472 0.26031 0.0
O31 O 0.93296 0.03443 0.24058 0.0
O32 O 0.00119 0.89583 0.2677 0.0
O33 O 0.99769 0.94436 0.29886 0.0
C34 C 0.99644 0.90483 0.29207 0.0
C35 C -0.00154 0.1022 0.29103 0.0
C36 C 0.92016 0.99794 0.23247 0.0
C37 C 0.08091 0.00642 0.23485 0.0
O38 O 0.05685 0.03933 0.2399 0.0
O39 O 0.06694 0.96996 0.24231 0.0
O40 O 0.99624 0.10976 0.26639 0.0
O41 O 0.99664 0.06308 0.29855 0.0
O42 O 0.95005 0.04661 0.77204 0.0
Cd43 Cd 0.00859 0.04549 0.74833 0.0
Cd44 Cd 0.98917 0.96111 0.74833 0.0
O45 O 0.92753 0.98021 0.76623 0.0
O46 O 0.01825 0.10635 0.73921 0.0
O47 O 0.00045 0.0573 0.70991 0.0
C48 C 0.00849 0.09676 0.71538 0.0
C49 C 0.98853 0.91217 0.71405 0.0
C50 C 0.92053 0.01688 0.7759 0.0
C51 C 0.07842 0.98923 0.77455 0.0
O52 O 0.04868 0.95949 0.77119 0.0
O53 O 0.07091 0.02593 0.76512 0.0
O54 O 0.97874 0.90098 0.73761 0.0
O55 O 0.99704 0.95189 0.70964 0.0
H56 H 0.39023 0.96705 0.05915 0.0
H57 H 0.33161 0.96813 0.09353 0.0
H58 H 0.33798 0.10501 0.09565 0.0
H59 H 0.3979 0.10431 0.06099 0.0
H60 H 0.33822 0.06902 0.14504 0.0
H61 H 0.24538 0.05838 0.06802 0.0
H62 H 0.22168 0.03042 0.02503 0.0
H63 H 0.19658 0.90756 0.05868 0.0
H64 H 0.22081 0.93461 0.10182 0.0
H65 H 0.12581 0.07968 0.22056 0.0
H66 H 0.18874 0.08788 0.18854 0.0
H67 H 0.19456 0.95187 0.17895 0.0
H68 H 0.13125 0.94328 0.21092 0.0
H69 H 0.18622 0.99367 0.13253 0.0
H70 H 0.28252 1.00438 0.20932 0.0
H71 H 0.30636 0.0329 0.25214 0.0
H72 H 0.3238 0.15698 0.21873 0.0
H73 H 0.29942 0.1293 0.17575 0.0
C74 C 0.37929 0.99757 0.06676 0.0
C75 C 0.39871 0.03568 0.05718 0.0
C76 C 0.34553 0.99806 0.08642 0.0
C77 C 0.32997 0.03663 0.09692 0.0
C78 C 0.34944 0.07489 0.0877 0.0
C79 C 0.38346 0.07445 0.06785 0.0
C80 C 0.29359 0.03618 0.11766 0.0
C81 C 0.30458 0.0533 0.1422 0.0
C82 C 0.25012 0.01488 0.11405 0.0
C83 C 0.23527 0.99848 0.08814 0.0
C84 C 0.23515 0.02532 0.06623 0.0
C85 C 0.22156 0.00964 0.04183 0.0
C86 C 0.20772 0.96722 0.03912 0.0
C87 C 0.20734 0.94041 0.06081 0.0
C88 C 0.22094 0.95592 0.08525 0.0
C89 C 0.14088 0.0514 0.21194 0.0
C90 C 0.12329 0.01079 0.21821 0.0
C91 C 0.17701 0.05619 0.1937 0.0
C92 C 0.19634 0.0205 0.18138 0.0
C93 C 0.18002 0.97983 0.18822 0.0
C94 C 0.14401 0.97497 0.20659 0.0
C95 C 0.23117 0.02576 0.16007 0.0
C96 C 0.21973 0.00964 0.13535 0.0
C97 C 0.27401 0.04815 0.16354 0.0
C98 C 0.28865 0.06485 0.18937 0.0
C99 C 0.29101 0.03783 0.21114 0.0
C100 C 0.30472 0.05382 0.23544 0.0
C101 C 0.31646 0.09675 0.23817 0.0
C102 C 0.31463 0.12375 0.21659 0.0
C103 C 0.30091 0.10792 0.19225 0.0
H104 H 0.32708 0.10907 0.257 0.0
H105 H 0.19722 0.95515 0.02022 0.0
H106 H 0.89365 0.40383 0.55726 0.0
H107 H 0.89524 0.34152 0.58601 0.0
H108 H 0.04664 0.34903 0.589 0.0
H109 H 0.04548 0.41047 0.56037 0.0
H110 H 0.01894 0.26925 0.58067 0.0
H111 H 0.97912 0.38361 0.63955 0.0
H112 H 0.93137 0.44358 0.65538 0.0
H113 H 0.81091 0.36147 0.66183 0.0
H114 H 0.85786 0.3011 0.6457 0.0
H115 H 0.0262 0.18124 0.72167 0.0
H116 H 0.01526 0.23809 0.6901 0.0
H117 H 0.96905 0.14668 0.63271 0.0
H118 H 0.98057 0.08919 0.66427 0.0
H119 H 0.93815 0.26556 0.66642 0.0
H120 H 0.00168 0.18511 0.57164 0.0
H121 H 0.05615 0.12888 0.55732 0.0
H122 H 0.14039 0.14883 0.62575 0.0
H123 H 0.08683 0.20556 0.64027 0.0
C124 C 0.9272 0.39231 0.56419 0.0
C125 C 0.9694 0.41219 0.5565 0.0
C126 C 0.92807 0.3567 0.58058 0.0
C127 C 0.9711 0.34059 0.58962 0.0
C128 C 0.01306 0.36066 0.58212 0.0
C129 C 0.01225 0.39603 0.56582 0.0
C130 C 0.97314 0.30292 0.60698 0.0
C131 C 0.00093 0.26828 0.59934 0.0
C132 C 0.95004 0.30177 0.63141 0.0
C133 C 0.92183 0.33799 0.64113 0.0
C134 C 0.94235 0.37844 0.64414 0.0
C135 C 0.91546 0.41248 0.6532 0.0
C136 C 0.8681 0.40637 0.65953 0.0
C137 C 0.84758 0.36617 0.65687 0.0
C138 C 0.87431 0.33204 0.64778 0.0
C139 C 0.01401 0.17306 0.70229 0.0
C140 C 0.00438 0.13061 0.69547 0.0
C141 C 0.00749 0.2057 0.6843 0.0
C142 C 0.99131 0.19673 0.65904 0.0
C143 C 0.98195 0.15434 0.65203 0.0
C144 C 0.98857 0.12152 0.67008 0.0
C145 C 0.98443 0.23207 0.64026 0.0
C146 C 0.95557 0.2662 0.64759 0.0
C147 C 0.0073 0.23311 0.61574 0.0
C148 C 0.03985 0.19914 0.6072 0.0
C149 C 0.03186 0.1775 0.58361 0.0
C150 C 0.06259 0.14557 0.57545 0.0
C151 C 0.10158 0.13515 0.59068 0.0
C152 C 0.11004 0.15678 0.61404 0.0
C153 C 0.07947 0.18878 0.62226 0.0
H154 H 0.12531 0.11041 0.58434 0.0
H155 H 0.84734 0.43276 0.66655 0.0
H156 H 0.58454 0.03826 0.07023 0.0
H157 H 0.64407 0.03732 0.10412 0.0
H158 H 0.67253 0.90557 0.08745 0.0
H159 H 0.61168 0.90598 0.05335 0.0
H160 H 0.67105 0.92261 0.14036 0.0
H161 H 0.74604 0.98036 0.06475 0.0
H162 H 0.75381 0.02769 0.0267 0.0
H163 H 0.75256 0.13666 0.07717 0.0
H164 H 0.74408 0.09 0.11552 0.0
H165 H 0.88901 0.92565 0.2085 0.0
H166 H 0.82581 0.91843 0.17683 0.0
H167 H 0.79408 0.05167 0.18506 0.0
H168 H 0.85842 0.05951 0.21644 0.0
H169 H 0.79896 0.03009 0.1352 0.0
H170 H 0.7219 0.97186 0.21084 0.0
H171 H 0.71352 0.92418 0.24869 0.0
H172 H 0.71924 0.81555 0.19805 0.0
H173 H 0.72827 0.86259 0.15991 0.0
C174 C 0.60331 0.00893 0.07367 0.0
C175 C 0.59374 0.97226 0.05883 0.0
C176 C 0.63744 0.00853 0.09308 0.0
C177 C 0.66338 0.97166 0.09796 0.0
C178 C 0.65304 0.93445 0.08385 0.0
C179 C 0.6184 0.93473 0.06438 0.0
C180 C 0.70177 0.97289 0.11751 0.0
C181 C 0.6995 0.94559 0.13906 0.0
C182 C 0.73832 1.0035 0.11601 0.0
C183 C 0.74409 0.03167 0.093 0.0
C184 C 0.74714 0.01443 0.06773 0.0
C185 C 0.7517 0.04114 0.0461 0.0
C186 C 0.75359 0.08516 0.04951 0.0
C187 C 0.75107 0.10255 0.07456 0.0
C188 C 0.74645 0.07599 0.09625 0.0
C189 C 0.86836 0.95345 0.20384 0.0
C190 C 0.87889 0.99325 0.21503 0.0
C191 C 0.832 0.94915 0.18576 0.0
C192 C 0.80482 0.98437 0.17873 0.0
C193 C 0.8146 0.02402 0.19021 0.0
C194 C 0.85127 0.02844 0.20821 0.0
C195 C 0.76793 0.98028 0.15838 0.0
C196 C 0.77061 0.00701 0.13655 0.0
C197 C 0.73192 0.94906 0.15964 0.0
C198 C 0.72619 0.92075 0.18254 0.0
C199 C 0.72171 0.9378 0.20779 0.0
C200 C 0.71678 0.91089 0.2293 0.0
C201 C 0.71596 0.86686 0.22579 0.0
C202 C 0.71993 0.84966 0.20075 0.0
C203 C 0.72489 0.87643 0.17918 0.0
H204 H 0.71216 0.84608 0.24246 0.0
H205 H 0.75708 0.10578 0.03274 0.0
H206 H 0.09493 0.63041 0.53669 0.0
H207 H 0.09109 0.69327 0.56495 0.0
H208 H 0.98139 0.63315 0.61026 0.0
H209 H 0.98356 0.57166 0.58129 0.0
H210 H 0.95496 0.70762 0.59959 0.0
H211 H 0.10035 0.65063 0.63236 0.0
H212 H 0.18167 0.62414 0.62937 0.0
H213 H 0.22718 0.74389 0.598 0.0
H214 H 0.14597 0.77092 0.60051 0.0
H215 H 0.95435 0.83129 0.7149 0.0
H216 H 0.96583 0.77549 0.68239 0.0
H217 H 0.04416 0.86275 0.63409 0.0
H218 H 0.03231 0.91924 0.66655 0.0
H219 H 0.08859 0.7812 0.64262 0.0
H220 H 0.94112 0.83847 0.61415 0.0
H221 H 0.85955 0.86315 0.6197 0.0
H222 H 0.81796 0.73918 0.64615 0.0
H223 H 0.89945 0.7139 0.64111 0.0
C224 C 0.07077 0.63043 0.55304 0.0
C225 C 0.03956 0.59629 0.55688 0.0
C226 C 0.06855 0.66634 0.5692 0.0
C227 C 0.03596 0.66811 0.58986 0.0
C228 C 0.00652 0.6329 0.59436 0.0
C229 C 0.00798 0.59762 0.57791 0.0
C230 C 0.02997 0.70726 0.6059 0.0
C231 C 0.98427 0.72328 0.60921 0.0
C232 C 0.06819 0.72881 0.61783 0.0
C233 C 0.11701 0.71262 0.61635 0.0
C234 C 0.12763 0.67119 0.62463 0.0
C235 C 0.17371 0.65611 0.62306 0.0
C236 C 0.20954 0.68227 0.61343 0.0
C237 C 0.19938 0.72363 0.60542 0.0
C238 C 0.15335 0.73886 0.60693 0.0
C239 C 0.97364 0.83881 0.69726 0.0
C240 C 0.99231 0.87971 0.69324 0.0
C241 C 0.98016 0.80687 0.67871 0.0
C242 C 0.0058 0.81503 0.65586 0.0
C243 C 0.02429 0.85587 0.65164 0.0
C244 C 0.01721 0.88813 0.67008 0.0
C245 C 0.01366 0.78036 0.63676 0.0
C246 C 0.05956 0.76545 0.6328 0.0
C247 C 0.97561 0.75934 0.62453 0.0
C248 C 0.92649 0.77439 0.62743 0.0
C249 C 0.91466 0.81656 0.62134 0.0
C250 C 0.86842 0.83064 0.62436 0.0
C251 C 0.83361 0.80277 0.63332 0.0
C252 C 0.84496 0.76073 0.63923 0.0
C253 C 0.89116 0.7465 0.63626 0.0
H254 H 0.79783 0.81374 0.63565 0.0
H255 H 0.24519 0.67053 0.61223 0.0
H256 H 0.38953 0.90005 0.9532 0.0
H257 H 0.32925 0.89625 0.9189 0.0
H258 H 0.35439 0.02811 0.9004 0.0
H259 H 0.41317 0.03236 0.93461 0.0
H260 H 0.26402 0.01399 0.90535 0.0
H261 H 0.39343 0.94511 0.86115 0.0
H262 H 0.45473 0.89064 0.8557 0.0
H263 H 0.34929 0.79255 0.85666 0.0
H264 H 0.28739 0.84646 0.86246 0.0
H265 H 0.14875 0.0455 0.7868 0.0
H266 H 0.21249 0.03551 0.81805 0.0
H267 H 0.16616 0.90678 0.83162 0.0
H268 H 0.10264 0.91619 0.8001 0.0
H269 H 0.26271 0.91316 0.83089 0.0
H270 H 0.13332 0.98259 0.87306 0.0
H271 H 0.07212 0.03725 0.87811 0.0
H272 H 0.17831 0.13456 0.88114 0.0
H273 H 0.24014 0.08051 0.87573 0.0
C274 C 0.38229 0.92806 0.94166 0.0
C275 C 0.4058 0.96657 0.94677 0.0
C276 C 0.348 0.92584 0.92204 0.0
C277 C 0.33731 0.96194 0.90706 0.0
C278 C 0.3617 0.99995 0.91181 0.0
C279 C 0.39539 1.00229 0.93143 0.0
C280 C 0.29956 0.96142 0.88707 0.0
C281 C 0.2641 0.99216 0.88895 0.0
C282 C 0.2987 0.93213 0.86609 0.0
C283 C 0.33586 0.89976 0.86254 0.0
C284 C 0.38336 0.9119 0.86041 0.0
C285 C 0.4182 0.88114 0.85722 0.0
C286 C 0.40593 0.83815 0.85591 0.0
C287 C 0.35876 0.82585 0.85772 0.0
C288 C 0.32378 0.85649 0.86094 0.0
C289 C 0.1524 0.01487 0.79616 0.0
C290 C 0.1202 0.98183 0.79116 0.0
C291 C 0.1888 0.00925 0.81407 0.0
C292 C 0.19351 0.97064 0.82749 0.0
C293 C 0.16302 0.93687 0.82156 0.0
C294 C 0.12663 0.94241 0.80358 0.0
C295 C 0.22832 0.96657 0.84884 0.0
C296 C 0.26276 0.93484 0.84736 0.0
C297 C 0.22842 0.99499 0.87024 0.0
C298 C 0.19132 0.02753 0.87378 0.0
C299 C 0.1436 0.01567 0.87464 0.0
C300 C 0.1088 0.04654 0.87758 0.0
C301 C 0.12131 0.08936 0.87989 0.0
C302 C 0.16867 0.10138 0.87933 0.0
C303 C 0.2036 0.07064 0.87635 0.0
H304 H 0.09432 0.11321 0.88216 0.0
H305 H 0.43295 0.81438 0.85344 0.0
H306 H 0.97671 0.38316 0.46785 0.0
H307 H 0.97997 0.32317 0.43773 0.0
H308 H 0.10108 0.37855 0.4 0.0
H309 H 0.09887 0.43876 0.43084 0.0
H310 H 0.01327 0.35068 0.36735 0.0
H311 H 0.12792 0.30158 0.43002 0.0
H312 H 0.15537 0.28609 0.47459 0.0
H313 H 0.04088 0.19839 0.48523 0.0
H314 H 0.01233 0.21384 0.44084 0.0
H315 H 0.04089 0.17792 0.28163 0.0
H316 H 0.05442 0.23626 0.31202 0.0
H317 H 0.98353 0.16566 0.37271 0.0
H318 H 0.97279 0.10579 0.34256 0.0
H319 H 0.05201 0.20331 0.39365 0.0
H320 H 0.93149 0.25234 0.33662 0.0
H321 H 0.8931 0.26892 0.29477 0.0
H322 H 0.00375 0.3572 0.27632 0.0
H323 H 0.04313 0.34075 0.31793 0.0
C324 C 0.00424 0.38258 0.45323 0.0
C325 C 0.03743 0.41575 0.45157 0.0
C326 C 0.00612 0.34819 0.43613 0.0
C327 C 0.04075 0.3465 0.41675 0.0
C328 C 0.07417 0.3794 0.41496 0.0
C329 C 0.07295 0.41359 0.43254 0.0
C330 C 0.04015 0.31091 0.39787 0.0
C331 C 0.02275 0.31853 0.37278 0.0
C332 C 0.05031 0.26888 0.40559 0.0
C333 C 0.06779 0.25914 0.43217 0.0
C334 C 0.10838 0.27925 0.44194 0.0
C335 C 0.12418 0.27042 0.46716 0.0
C336 C 0.09983 0.24134 0.48276 0.0
C337 C 0.0597 0.22092 0.47313 0.0
C338 C 0.04373 0.22966 0.44793 0.0
C339 C 0.02807 0.17487 0.30145 0.0
C340 C 0.00532 0.13752 0.30969 0.0
C341 C 0.03561 0.2084 0.31881 0.0
C342 C 0.01898 0.20607 0.34459 0.0
C343 C 0.99662 0.16846 0.35293 0.0
C344 C 0.99026 0.13431 0.3357 0.0
C345 C 0.02508 0.24277 0.36275 0.0
C346 C 0.0431 0.2354 0.38786 0.0
C347 C 0.01407 0.285 0.35532 0.0
C348 C 0.99051 0.29496 0.33026 0.0
C349 C 0.94782 0.27505 0.32355 0.0
C350 C 0.92585 0.28447 0.29988 0.0
C351 C 0.94605 0.314 0.28286 0.0
C352 C 0.98819 0.33428 0.2895 0.0
C353 C 0.01033 0.32495 0.31313 0.0
H354 H 0.92898 0.32125 0.26455 0.0
H355 H 0.1121 0.23457 0.50228 0.0
H356 H 0.58287 0.97915 0.9341 0.0
H357 H 0.64362 0.98331 0.90089 0.0
H358 H 0.67422 0.11263 0.92335 0.0
H359 H 0.61196 0.10898 0.95674 0.0
H360 H 0.67659 0.10135 0.86982 0.0
H361 H 0.74513 0.03545 0.94411 0.0
H362 H 0.74955 0.98513 0.98082 0.0
H363 H 0.747 0.88019 0.92723 0.0
H364 H 0.74185 0.92987 0.89019 0.0
H365 H 0.89752 0.09022 0.80158 0.0
H366 H 0.83487 0.10053 0.83353 0.0
H367 H 0.78833 0.97133 0.82163 0.0
H368 H 0.85137 0.96047 0.78992 0.0
H369 H 0.79873 0.98934 0.87253 0.0
H370 H 0.72567 0.05688 0.79835 0.0
H371 H 0.7213 0.10822 0.76216 0.0
H372 H 0.73465 0.21166 0.81639 0.0
H373 H 0.7397 0.16089 0.85289 0.0
C374 C 0.60234 0.00863 0.93205 0.0
C375 C 0.59307 0.04359 0.94833 0.0
C376 C 0.63714 0.01091 0.91302 0.0
C377 C 0.66417 0.04792 0.91004 0.0
C378 C 0.65393 0.08364 0.92549 0.0
C379 C 0.61849 0.08151 0.94454 0.0
C380 C 0.70382 0.04806 0.89121 0.0
C381 C 0.70384 0.07739 0.87063 0.0
C382 C 0.73906 0.01646 0.89215 0.0
C383 C 0.74282 0.98642 0.91437 0.0
C384 C 0.74524 1.00164 0.94015 0.0
C385 C 0.7479 0.97323 0.96102 0.0
C386 C 0.74849 0.92949 0.95636 0.0
C387 C 0.74654 0.91408 0.93081 0.0
C388 C 0.74382 0.94236 0.90987 0.0
C389 C 0.87366 0.06408 0.80551 0.0
C390 C 0.87963 0.02441 0.79323 0.0
C391 C 0.83771 0.07013 0.82374 0.0
C392 C 0.80679 0.03677 0.8299 0.0
C393 C 0.81189 0.9975 0.81719 0.0
C394 C 0.84786 0.99138 0.799 0.0
C395 C 0.77081 0.04183 0.85066 0.0
C396 C 0.77171 0.01353 0.87176 0.0
C397 C 0.7368 0.07457 0.85024 0.0
C398 C 0.73355 0.10508 0.82832 0.0
C399 C 0.72804 0.09057 0.80254 0.0
C400 C 0.72537 0.11956 0.78197 0.0
C401 C 0.72783 0.16317 0.78696 0.0
C402 C 0.73282 0.17787 0.81254 0.0
C403 C 0.73554 0.14901 0.83318 0.0
H404 H 0.72576 0.18557 0.77101 0.0
H405 H 0.75051 0.90754 0.97255 0.0
H406 H 0.00674 0.6356 0.47394 0.0
H407 H 0.00128 0.69511 0.4436 0.0
H408 H 0.88714 0.63233 0.40359 0.0
H409 H 0.89152 0.5727 0.4347 0.0
H410 H 0.97492 0.66112 0.37282 0.0
H411 H 0.85455 0.71137 0.43131 0.0
H412 H 0.82221 0.72926 0.47457 0.0
H413 H 0.93243 0.82106 0.48609 0.0
H414 H 0.96585 0.80327 0.44304 0.0
H415 H 0.95463 0.82871 0.28291 0.0
H416 H 0.93777 0.77217 0.31399 0.0
H417 H 0.00257 0.84615 0.3753 0.0
H418 H 0.01666 0.90421 0.34435 0.0
H419 H 0.93172 0.80945 0.39483 0.0
H420 H 0.05828 0.75794 0.34229 0.0
H421 H 0.10047 0.73924 0.30185 0.0
H422 H 0.99194 0.64951 0.28217 0.0
H423 H 0.9488 0.66806 0.32235 0.0
C424 C 0.97998 0.63473 0.45891 0.0
C425 C 0.94959 0.5996 0.45655 0.0
C426 C 0.97685 0.66877 0.44167 0.0
C427 C 0.94383 0.66805 0.42144 0.0
C428 C 0.91273 0.6334 0.41921 0.0
C429 C 0.91511 0.59957 0.43696 0.0
C430 C 0.94479 0.70236 0.40174 0.0
C431 C 0.96443 0.69344 0.37729 0.0
C432 C 0.93319 0.74468 0.40822 0.0
C433 C 0.91289 0.75575 0.43402 0.0
C434 C 0.87212 0.73513 0.44315 0.0
C435 C 0.85354 0.74531 0.46762 0.0
C436 C 0.8753 0.77622 0.4831 0.0
C437 C 0.91561 0.79711 0.47409 0.0
C438 C 0.93434 0.78704 0.44964 0.0
C439 C 0.96538 0.83289 0.30302 0.0
C440 C 0.98745 0.87064 0.31118 0.0
C441 C 0.95592 0.8004 0.32079 0.0
C442 C 0.96991 0.8042 0.34697 0.0
C443 C 0.9915 0.84224 0.35523 0.0
C444 C -0.00021 0.87535 0.33754 0.0
C445 C 0.96211 0.7685 0.36561 0.0
C446 C 0.94158 0.77714 0.39 0.0
C447 C 0.97421 0.72597 0.35936 0.0
C448 C 6e-05 0.71474 0.33518 0.0
C449 C 0.04324 0.73445 0.32924 0.0
C450 C 0.06736 0.72384 0.30638 0.0
C451 C 0.04883 0.6933 0.28941 0.0
C452 C 0.00621 0.67321 0.2953 0.0
C453 C 0.98193 0.68374 0.31813 0.0
H454 H 0.06755 0.68513 0.27172 0.0
H455 H 0.86088 0.78404 0.50204 0.0
loop_
_geom_bond_atom_site_label_1
_geom_bond_atom_site_label_2
_geom_bond_distance
_geom_bond_site_symmetry_2
_ccdc_geom_bond_type
C0 O2 1.245 . S
C0 O4 1.260 1_565 S
C1 O8 1.251 . S
C1 O9 1.254 1_545 S
O2 C0 1.245 . S
O2 Zn3 2.028 1_556 S
Zn3 O2 2.028 1_554 S
Zn3 O7 2.035 1_554 S
Zn3 O9 2.035 . S
Zn3 O10 2.028 . S
O4 C0 1.260 1_545 S
O4 Zn5 2.035 1_556 S
Zn5 O4 2.035 1_554 S
Zn5 O6 2.028 1_554 S
Zn5 O8 2.028 . S
Zn5 O11 2.035 . S
O6 Zn5 2.028 1_556 S
O6 C12 1.251 . S
O7 Zn3 2.035 1_556 S
O7 C12 1.254 1_565 S
O8 C1 1.251 . S
O8 Zn5 2.028 . S
O9 C1 1.254 1_565 S
O9 Zn3 2.035 . S
O10 Zn3 2.028 . S
O10 C13 1.245 . S
O11 Zn5 2.035 . S
O11 C13 1.260 1_545 S
C12 O6 1.251 . S
C12 O7 1.254 1_545 S
C13 O10 1.245 . S
C13 O11 1.260 1_565 S
C14 O16 1.246 . S
C14 O18 1.259 1_655 S
C15 O22 1.251 . S
C15 O23 1.254 1_455 S
O16 C14 1.246 . S
O16 Zn17 2.028 . S
Zn17 O16 2.028 . S
Zn17 O21 2.035 . S
Zn17 O23 2.035 . S
Zn17 O24 2.028 . S
O18 C14 1.259 1_455 S
O18 Zn19 2.035 . S
Zn19 O18 2.035 . S
Zn19 O20 2.028 . S
Zn19 O22 2.028 . S
Zn19 O25 2.035 . S
O20 Zn19 2.028 . S
O20 C26 1.251 . S
O21 Zn17 2.035 . S
O21 C26 1.254 1_655 S
O22 C15 1.251 . S
O22 Zn19 2.028 . S
O23 C15 1.254 1_655 S
O23 Zn17 2.035 . S
O24 Zn17 2.028 . S
O24 C27 1.246 . S
O25 Zn19 2.035 . S
O25 C27 1.259 1_455 S
C26 O20 1.251 . S
C26 O21 1.254 1_455 S
C27 O24 1.246 . S
C27 O25 1.259 1_655 S
O28 Cd29 2.223 1_655 S
O28 C36 1.315 . S
Cd29 O28 2.223 1_455 S
Cd29 O32 2.297 1_455 S
Cd29 O33 2.439 1_455 S
Cd29 O39 2.240 1_565 S
Cd30 O31 2.240 1_545 S
Cd30 O38 2.223 1_655 S
Cd30 O40 2.297 1_655 S
Cd30 O41 2.439 1_655 S
O31 Cd30 2.240 1_565 S
O31 C36 1.279 . S
O32 Cd29 2.297 1_655 S
O32 C34 1.247 . S
O33 Cd29 2.439 1_655 S
O33 C34 1.208 . S
C34 O32 1.247 . S
C34 O33 1.208 . S
C35 O40 1.247 . S
C35 O41 1.208 . S
C36 O28 1.315 . S
C36 O31 1.279 . S
C37 O38 1.315 . S
C37 O39 1.279 . S
O38 Cd30 2.223 1_455 S
O38 C37 1.315 . S
O39 Cd29 2.240 1_545 S
O39 C37 1.279 . S
O40 Cd30 2.297 1_455 S
O40 C35 1.247 . S
O41 Cd30 2.439 1_455 S
O41 C35 1.208 . S
O42 Cd43 2.223 1_655 S
O42 C50 1.315 . S
Cd43 O42 2.223 1_455 S
Cd43 O46 2.297 1_455 S
Cd43 O47 2.439 1_455 S
Cd43 O53 2.240 1_545 S
Cd44 O45 2.240 1_565 S
Cd44 O52 2.223 1_655 S
Cd44 O54 2.297 1_655 S
Cd44 O55 2.439 1_655 S
O45 Cd44 2.240 1_545 S
O45 C50 1.279 . S
O46 Cd43 2.297 1_655 S
O46 C48 1.247 . S
O47 Cd43 2.439 1_655 S
O47 C48 1.208 . S
C48 O46 1.247 . S
C48 O47 1.208 . S
C49 O54 1.247 . S
C49 O55 1.208 . S
C50 O42 1.315 . S
C50 O45 1.279 . S
C51 O52 1.315 . S
C51 O53 1.279 . S
O52 Cd44 2.223 1_455 S
O52 C51 1.315 . S
O53 Cd43 2.240 1_565 S
O53 C51 1.279 . S
O54 Cd44 2.297 1_455 S
O54 C49 1.247 . S
O55 Cd44 2.439 1_455 S
O55 C49 1.208 . S
H56 C74 0.951 . S
H57 C76 0.951 . S
H58 C78 0.950 . S
H59 C79 0.950 . S
H60 C81 0.950 . S
H61 C84 0.950 . S
H62 C85 0.950 . S
H63 C87 0.950 . S
H64 C88 0.950 . S
H65 C89 0.951 . S
H66 C91 0.951 . S
H67 C93 0.950 . S
H68 C94 0.950 . S
H69 C96 0.953 . S
H70 C99 0.950 . S
H71 C100 0.950 . S
H72 C102 0.950 . S
H73 C103 0.950 . S
C74 H56 0.951 . S
C74 C75 1.366 1_565 S
C74 C76 1.388 . S
C75 C74 1.366 1_545 S
C75 C79 1.385 . S
C76 H57 0.951 . S
C76 C74 1.388 . S
C76 C77 1.366 1_565 S
C77 C76 1.366 1_545 S
C77 C78 1.414 . S
C77 C80 1.499 . S
C78 H58 0.950 . S
C78 C77 1.414 . S
C78 C79 1.374 . S
C79 H59 0.950 . S
C79 C75 1.385 . S
C79 C78 1.374 . S
C80 C77 1.499 . S
C80 C81 1.373 . S
C80 C82 1.389 . S
C81 H60 0.950 . S
C81 C80 1.373 . S
C81 C97 1.377 . S
C82 C80 1.389 . S
C82 C83 1.524 . S
C82 C96 1.377 . S
C83 C82 1.524 . S
C83 C84 1.397 . S
C83 C88 1.363 1_545 S
C84 H61 0.950 . S
C84 C83 1.397 . S
C84 C85 1.334 . S
C85 H62 0.950 . S
C85 C84 1.334 . S
C85 C86 1.287 . S
C86 C85 1.287 . S
C86 C87 1.524 1_545 S
C86 H105 0.913 . S
C87 H63 0.950 . S
C87 C86 1.524 1_565 S
C87 C88 1.415 . S
C88 H64 0.950 . S
C88 C83 1.363 1_565 S
C88 C87 1.415 . S
C89 H65 0.951 . S
C89 C90 1.366 . S
C89 C91 1.388 . S
C90 C89 1.366 . S
C90 C94 1.385 1_545 S
C91 H66 0.951 . S
C91 C89 1.388 . S
C91 C92 1.366 . S
C92 C91 1.366 . S
C92 C93 1.414 1_545 S
C92 C95 1.499 . S
C93 H67 0.950 . S
C93 C92 1.414 1_565 S
C93 C94 1.374 . S
C94 H68 0.950 . S
C94 C90 1.385 1_565 S
C94 C93 1.374 . S
C95 C92 1.499 . S
C95 C96 1.373 . S
C95 C97 1.389 . S
C96 H69 0.953 . S
C96 C82 1.377 . S
C96 C95 1.373 . S
C97 C81 1.377 . S
C97 C95 1.389 . S
C97 C98 1.524 . S
C98 C97 1.524 . S
C98 C99 1.397 1_545 S
C98 C103 1.363 . S
C99 H70 0.950 . S
C99 C98 1.397 1_565 S
C99 C100 1.334 . S
C100 H71 0.950 . S
C100 C99 1.334 . S
C100 C101 1.287 1_565 S
C101 C100 1.287 1_545 S
C101 C102 1.524 . S
C101 H104 0.999 . S
C102 H72 0.950 . S
C102 C101 1.524 . S
C102 C103 1.415 . S
C103 H73 0.950 . S
C103 C98 1.363 . S
C103 C102 1.415 . S
H104 C101 0.999 . S
H105 C86 0.913 . S
H106 C124 0.951 . S
H107 C126 0.951 . S
H108 C128 0.950 . S
H109 C129 0.950 . S
H110 C131 0.950 . S
H111 C134 0.950 . S
H112 C135 0.950 . S
H113 C137 0.950 . S
H114 C138 0.950 . S
H115 C139 0.951 . S
H116 C141 0.951 . S
H117 C143 0.950 . S
H118 C144 0.950 . S
H119 C146 0.950 . S
H120 C149 0.950 1_655 S
H121 C150 0.950 . S
H122 C152 0.950 . S
H123 C153 0.950 . S
C124 H106 0.951 . S
C124 C125 1.366 . S
C124 C126 1.388 . S
C125 C124 1.366 . S
C125 C129 1.385 1_655 S
C126 H107 0.951 . S
C126 C124 1.388 . S
C126 C127 1.366 . S
C127 C126 1.366 . S
C127 C128 1.414 1_655 S
C127 C130 1.499 . S
C128 H108 0.950 . S
C128 C127 1.414 1_455 S
C128 C129 1.374 . S
C129 H109 0.950 . S
C129 C125 1.385 1_455 S
C129 C128 1.374 . S
C130 C127 1.499 . S
C130 C131 1.373 1_655 S
C130 C132 1.389 . S
C131 H110 0.950 . S
C131 C130 1.373 1_455 S
C131 C147 1.377 . S
C132 C130 1.389 . S
C132 C133 1.524 . S
C132 C146 1.377 . S
C133 C132 1.524 . S
C133 C134 1.397 . S
C133 C138 1.363 . S
C134 H111 0.950 . S
C134 C133 1.397 . S
C134 C135 1.334 . S
C135 H112 0.950 . S
C135 C134 1.334 . S
C135 C136 1.287 . S
C136 C135 1.287 . S
C136 C137 1.524 . S
C136 H155 0.913 . S
C137 H113 0.950 . S
C137 C136 1.524 . S
C137 C138 1.415 . S
C138 H114 0.950 . S
C138 C133 1.363 . S
C138 C137 1.415 . S
C139 H115 0.951 . S
C139 C140 1.366 1_455 S
C139 C141 1.388 . S
C140 C139 1.366 1_655 S
C140 C144 1.385 . S
C141 H116 0.951 . S
C141 C139 1.388 . S
C141 C142 1.366 1_455 S
C142 C141 1.366 1_655 S
C142 C143 1.414 . S
C142 C145 1.499 . S
C143 H117 0.950 . S
C143 C142 1.414 . S
C143 C144 1.374 . S
C144 H118 0.950 . S
C144 C140 1.385 . S
C144 C143 1.374 . S
C145 C142 1.499 . S
C145 C146 1.373 . S
C145 C147 1.389 1_655 S
C146 H119 0.950 . S
C146 C132 1.377 . S
C146 C145 1.373 . S
C147 C131 1.377 . S
C147 C145 1.389 1_455 S
C147 C148 1.524 . S
C148 C147 1.524 . S
C148 C149 1.397 . S
C148 C153 1.363 . S
C149 H120 0.950 1_455 S
C149 C148 1.397 . S
C149 C150 1.334 . S
C150 H121 0.950 . S
C150 C149 1.334 . S
C150 C151 1.287 . S
C151 C150 1.287 . S
C151 C152 1.524 . S
C151 H154 0.999 . S
C152 H122 0.950 . S
C152 C151 1.524 . S
C152 C153 1.415 . S
C153 H123 0.950 . S
C153 C148 1.363 . S
C153 C152 1.415 . S
H154 C151 0.999 . S
H155 C136 0.913 . S
H156 C174 0.951 . S
H157 C176 0.953 . S
H158 C178 0.950 . S
H159 C179 0.950 . S
H160 C181 0.950 . S
H161 C184 0.950 . S
H162 C185 0.950 . S
H163 C187 0.950 . S
H164 C188 0.950 . S
H165 C189 0.951 . S
H166 C191 0.951 . S
H167 C193 0.950 . S
H168 C194 0.950 . S
H169 C196 0.950 . S
H170 C199 0.950 . S
H171 C200 0.950 . S
H172 C202 0.950 . S
H173 C203 0.950 . S
C174 H156 0.951 . S
C174 C175 1.366 1_545 S
C174 C176 1.389 . S
C175 C174 1.366 1_565 S
C175 C179 1.385 . S
C176 H157 0.953 . S
C176 C174 1.389 . S
C176 C177 1.363 1_545 S
C177 C176 1.363 1_565 S
C177 C178 1.414 . S
C177 C180 1.499 . S
C178 H158 0.950 . S
C178 C177 1.414 . S
C178 C179 1.374 . S
C179 H159 0.950 . S
C179 C175 1.385 . S
C179 C178 1.374 . S
C180 C177 1.499 . S
C180 C181 1.373 . S
C180 C182 1.389 1_565 S
C181 H160 0.950 . S
C181 C180 1.373 . S
C181 C197 1.377 . S
C182 C180 1.389 1_545 S
C182 C183 1.524 . S
C182 C196 1.377 . S
C183 C182 1.524 . S
C183 C184 1.397 . S
C183 C188 1.363 . S
C184 H161 0.950 . S
C184 C183 1.397 . S
C184 C185 1.334 . S
C185 H162 0.950 . S
C185 C184 1.334 . S
C185 C186 1.287 . S
C186 C185 1.287 . S
C186 C187 1.524 . S
C186 H205 0.913 . S
C187 H163 0.950 . S
C187 C186 1.524 . S
C187 C188 1.415 . S
C188 H164 0.950 . S
C188 C183 1.363 . S
C188 C187 1.415 . S
C189 H165 0.951 . S
C189 C190 1.366 . S
C189 C191 1.388 . S
C190 C189 1.366 . S
C190 C194 1.385 . S
C191 H166 0.951 . S
C191 C189 1.388 . S
C191 C192 1.366 . S
C192 C191 1.366 . S
C192 C193 1.414 . S
C192 C195 1.499 . S
C193 H167 0.950 . S
C193 C192 1.414 . S
C193 C194 1.374 . S
C194 H168 0.950 . S
C194 C190 1.385 . S
C194 C193 1.374 . S
C195 C192 1.499 . S
C195 C196 1.373 1_565 S
C195 C197 1.389 . S
C196 H169 0.950 . S
C196 C182 1.377 . S
C196 C195 1.373 1_545 S
C197 C181 1.377 . S
C197 C195 1.389 . S
C197 C198 1.524 . S
C198 C197 1.524 . S
C198 C199 1.397 . S
C198 C203 1.363 . S
C199 H170 0.950 . S
C199 C198 1.397 . S
C199 C200 1.334 . S
C200 H171 0.950 . S
C200 C199 1.334 . S
C200 C201 1.287 . S
C201 C200 1.287 . S
C201 C202 1.524 . S
C201 H204 0.999 . S
C202 H172 0.950 . S
C202 C201 1.524 . S
C202 C203 1.415 . S
C203 H173 0.950 . S
C203 C198 1.363 . S
C203 C202 1.415 . S
H204 C201 0.999 . S
H205 C186 0.913 . S
H206 C224 0.951 . S
H207 C226 0.951 . S
H208 C228 0.951 1_655 S
H209 C229 0.950 . S
H210 C231 0.950 . S
H211 C234 0.950 . S
H212 C235 0.950 . S
H213 C237 0.950 . S
H214 C238 0.950 . S
H215 C239 0.951 . S
H216 C241 0.951 . S
H217 C243 0.950 . S
H218 C244 0.950 . S
H219 C246 0.950 . S
H220 C249 0.950 . S
H221 C250 0.950 . S
H222 C252 0.950 . S
H223 C253 0.950 . S
C224 H206 0.951 . S
C224 C225 1.366 . S
C224 C226 1.388 . S
C225 C224 1.366 . S
C225 C229 1.385 1_455 S
C226 H207 0.951 . S
C226 C224 1.388 . S
C226 C227 1.366 . S
C227 C226 1.366 . S
C227 C228 1.414 . S
C227 C230 1.499 . S
C228 H208 0.951 1_455 S
C228 C227 1.414 . S
C228 C229 1.374 1_455 S
C229 H209 0.950 . S
C229 C225 1.385 1_655 S
C229 C228 1.374 1_655 S
C230 C227 1.499 . S
C230 C231 1.373 1_455 S
C230 C232 1.389 . S
C231 H210 0.950 . S
C231 C230 1.373 1_655 S
C231 C247 1.377 . S
C232 C230 1.389 . S
C232 C233 1.524 . S
C232 C246 1.377 . S
C233 C232 1.524 . S
C233 C234 1.397 . S
C233 C238 1.363 . S
C234 H211 0.950 . S
C234 C233 1.397 . S
C234 C235 1.334 . S
C235 H212 0.950 . S
C235 C234 1.334 . S
C235 C236 1.287 . S
C236 C235 1.287 . S
C236 C237 1.524 . S
C236 H255 0.913 . S
C237 H213 0.950 . S
C237 C236 1.524 . S
C237 C238 1.415 . S
C238 H214 0.950 . S
C238 C233 1.363 . S
C238 C237 1.415 . S
C239 H215 0.951 . S
C239 C240 1.366 . S
C239 C241 1.388 . S
C240 C239 1.366 . S
C240 C244 1.385 . S
C241 H216 0.951 . S
C241 C239 1.388 . S
C241 C242 1.366 . S
C242 C241 1.366 . S
C242 C243 1.414 . S
C242 C245 1.499 . S
C243 H217 0.950 . S
C243 C242 1.414 . S
C243 C244 1.374 . S
C244 H218 0.950 . S
C244 C240 1.385 . S
C244 C243 1.374 . S
C245 C242 1.499 . S
C245 C246 1.373 . S
C245 C247 1.389 1_455 S
C246 H219 0.950 . S
C246 C232 1.377 . S
C246 C245 1.373 . S
C247 C231 1.377 . S
C247 C245 1.389 1_655 S
C247 C248 1.524 . S
C248 C247 1.524 . S
C248 C249 1.397 . S
C248 C253 1.363 . S
C249 H220 0.950 . S
C249 C248 1.397 . S
C249 C250 1.334 . S
C250 H221 0.950 . S
C250 C249 1.334 . S
C250 C251 1.287 . S
C251 C250 1.287 . S
C251 C252 1.524 . S
C251 H254 0.999 . S
C252 H222 0.950 . S
C252 C251 1.524 . S
C252 C253 1.415 . S
C253 H223 0.950 . S
C253 C248 1.363 . S
C253 C252 1.415 . S
H254 C251 0.999 . S
H255 C236 0.913 . S
H256 C274 0.951 . S
H257 C276 0.951 . S
H258 C278 0.950 . S
H259 C279 0.950 . S
H260 C281 0.950 . S
H261 C284 0.950 . S
H262 C285 0.950 . S
H263 C287 0.950 . S
H264 C288 0.950 . S
H265 C289 0.951 . S
H266 C291 0.951 1_545 S
H267 C293 0.950 . S
H268 C294 0.950 . S
H269 C296 0.950 . S
H270 C299 0.950 . S
H271 C300 0.950 . S
H272 C302 0.950 . S
H273 C303 0.950 . S
C274 H256 0.951 . S
C274 C275 1.366 . S
C274 C276 1.388 . S
C275 C274 1.366 . S
C275 C279 1.385 1_565 S
C276 H257 0.951 . S
C276 C274 1.388 . S
C276 C277 1.366 . S
C277 C276 1.366 . S
C277 C278 1.414 1_565 S
C277 C280 1.499 . S
C278 H258 0.950 . S
C278 C277 1.414 1_545 S
C278 C279 1.374 . S
C279 H259 0.950 . S
C279 C275 1.385 1_545 S
C279 C278 1.374 . S
C280 C277 1.499 . S
C280 C281 1.373 1_565 S
C280 C282 1.389 . S
C281 H260 0.950 . S
C281 C280 1.373 1_545 S
C281 C297 1.377 . S
C282 C280 1.389 . S
C282 C283 1.524 . S
C282 C296 1.377 . S
C283 C282 1.524 . S
C283 C284 1.397 . S
C283 C288 1.363 . S
C284 H261 0.950 . S
C284 C283 1.397 . S
C284 C285 1.334 . S
C285 H262 0.950 . S
C285 C284 1.334 . S
C285 C286 1.287 . S
C286 C285 1.287 . S
C286 C287 1.524 . S
C286 H305 0.913 . S
C287 H263 0.950 . S
C287 C286 1.524 . S
C287 C288 1.415 . S
C288 H264 0.950 . S
C288 C283 1.363 . S
C288 C287 1.415 . S
C289 H265 0.951 . S
C289 C290 1.366 . S
C289 C291 1.388 . S
C290 C289 1.366 . S
C290 C294 1.385 . S
C291 H266 0.951 1_565 S
C291 C289 1.388 . S
C291 C292 1.366 . S
C292 C291 1.366 . S
C292 C293 1.414 . S
C292 C295 1.499 . S
C293 H267 0.950 . S
C293 C292 1.414 . S
C293 C294 1.374 . S
C294 H268 0.950 . S
C294 C290 1.385 . S
C294 C293 1.374 . S
C295 C292 1.499 . S
C295 C296 1.373 . S
C295 C297 1.389 1_565 S
C296 H269 0.950 . S
C296 C282 1.377 . S
C296 C295 1.373 . S
C297 C281 1.377 . S
C297 C295 1.389 1_545 S
C297 C298 1.524 . S
C298 C297 1.524 . S
C298 C299 1.397 . S
C298 C303 1.363 . S
C299 H270 0.950 . S
C299 C298 1.397 . S
C299 C300 1.334 . S
C300 H271 0.950 . S
C300 C299 1.334 . S
C300 C301 1.287 . S
C301 C300 1.287 . S
C301 C302 1.524 . S
C301 H304 0.999 . S
C302 H272 0.950 . S
C302 C301 1.524 . S
C302 C303 1.415 . S
C303 H273 0.950 . S
C303 C298 1.363 . S
C303 C302 1.415 . S
H304 C301 0.999 . S
H305 C286 0.913 . S
H306 C324 0.951 . S
H307 C326 0.951 . S
H308 C328 0.950 . S
H309 C329 0.950 . S
H310 C331 0.950 1_655 S
H311 C334 0.950 . S
H312 C335 0.950 . S
H313 C337 0.950 . S
H314 C338 0.950 . S
H315 C339 0.951 . S
H316 C341 0.951 . S
H317 C343 0.950 1_655 S
H318 C344 0.950 1_655 S
H319 C346 0.950 . S
H320 C349 0.950 . S
H321 C350 0.950 . S
H322 C352 0.950 . S
H323 C353 0.950 . S
C324 H306 0.951 . S
C324 C325 1.366 1_655 S
C324 C326 1.388 . S
C325 C324 1.366 1_455 S
C325 C329 1.385 . S
C326 H307 0.951 . S
C326 C324 1.388 . S
C326 C327 1.366 1_655 S
C327 C326 1.366 1_455 S
C327 C328 1.414 . S
C327 C330 1.499 . S
C328 H308 0.950 . S
C328 C327 1.414 . S
C328 C329 1.374 . S
C329 H309 0.950 . S
C329 C325 1.385 . S
C329 C328 1.374 . S
C330 C327 1.499 . S
C330 C331 1.373 . S
C330 C332 1.389 . S
C331 H310 0.950 1_455 S
C331 C330 1.373 . S
C331 C347 1.377 . S
C332 C330 1.389 . S
C332 C333 1.524 . S
C332 C346 1.377 . S
C333 C332 1.524 . S
C333 C334 1.397 . S
C333 C338 1.363 . S
C334 H311 0.950 . S
C334 C333 1.397 . S
C334 C335 1.334 . S
C335 H312 0.950 . S
C335 C334 1.334 . S
C335 C336 1.287 . S
C336 C335 1.287 . S
C336 C337 1.524 . S
C336 H355 0.913 . S
C337 H313 0.950 . S
C337 C336 1.524 . S
C337 C338 1.415 . S
C338 H314 0.950 . S
C338 C333 1.363 . S
C338 C337 1.415 . S
C339 H315 0.951 . S
C339 C340 1.366 . S
C339 C341 1.388 . S
C340 C339 1.366 . S
C340 C344 1.385 . S
C341 H316 0.951 . S
C341 C339 1.388 . S
C341 C342 1.366 . S
C342 C341 1.366 . S
C342 C343 1.414 . S
C342 C345 1.499 . S
C343 H317 0.950 1_455 S
C343 C342 1.414 . S
C343 C344 1.374 . S
C344 H318 0.950 1_455 S
C344 C340 1.385 . S
C344 C343 1.374 . S
C345 C342 1.499 . S
C345 C346 1.373 . S
C345 C347 1.389 . S
C346 H319 0.950 . S
C346 C332 1.377 . S
C346 C345 1.373 . S
C347 C331 1.377 . S
C347 C345 1.389 . S
C347 C348 1.524 1_455 S
C348 C347 1.524 1_655 S
C348 C349 1.397 . S
C348 C353 1.363 1_655 S
C349 H320 0.950 . S
C349 C348 1.397 . S
C349 C350 1.334 . S
C350 H321 0.950 . S
C350 C349 1.334 . S
C350 C351 1.287 . S
C351 C350 1.287 . S
C351 C352 1.524 . S
C351 H354 0.999 . S
C352 H322 0.950 . S
C352 C351 1.524 . S
C352 C353 1.415 1_655 S
C353 H323 0.950 . S
C353 C348 1.363 1_455 S
C353 C352 1.415 1_455 S
H354 C351 0.999 . S
H355 C336 0.913 . S
H356 C374 0.951 . S
H357 C376 0.951 . S
H358 C378 0.950 . S
H359 C379 0.950 . S
H360 C381 0.950 . S
H361 C384 0.950 . S
H362 C385 0.950 . S
H363 C387 0.950 . S
H364 C388 0.950 . S
H365 C389 0.951 . S
H366 C391 0.951 . S
H367 C393 0.950 . S
H368 C394 0.950 . S
H369 C396 0.950 . S
H370 C399 0.950 . S
H371 C400 0.950 . S
H372 C402 0.950 . S
H373 C403 0.950 . S
C374 H356 0.951 . S
C374 C375 1.366 1_565 S
C374 C376 1.388 . S
C375 C374 1.366 1_545 S
C375 C379 1.385 . S
C376 H357 0.951 . S
C376 C374 1.388 . S
C376 C377 1.366 1_565 S
C377 C376 1.366 1_545 S
C377 C378 1.414 . S
C377 C380 1.499 . S
C378 H358 0.950 . S
C378 C377 1.414 . S
C378 C379 1.374 . S
C379 H359 0.950 . S
C379 C375 1.385 . S
C379 C378 1.374 . S
C380 C377 1.499 . S
C380 C381 1.373 . S
C380 C382 1.389 1_545 S
C381 H360 0.950 . S
C381 C380 1.373 . S
C381 C397 1.377 . S
C382 C380 1.389 1_565 S
C382 C383 1.524 . S
C382 C396 1.377 . S
C383 C382 1.524 . S
C383 C384 1.397 . S
C383 C388 1.363 . S
C384 H361 0.950 . S
C384 C383 1.397 . S
C384 C385 1.334 . S
C385 H362 0.950 . S
C385 C384 1.334 . S
C385 C386 1.287 . S
C386 C385 1.287 . S
C386 C387 1.524 . S
C386 H405 0.913 . S
C387 H363 0.950 . S
C387 C386 1.524 . S
C387 C388 1.415 . S
C388 H364 0.950 . S
C388 C383 1.363 . S
C388 C387 1.415 . S
C389 H365 0.951 . S
C389 C390 1.366 . S
C389 C391 1.388 . S
C390 C389 1.366 . S
C390 C394 1.385 . S
C391 H366 0.951 . S
C391 C389 1.388 . S
C391 C392 1.366 . S
C392 C391 1.366 . S
C392 C393 1.414 . S
C392 C395 1.499 . S
C393 H367 0.950 . S
C393 C392 1.414 . S
C393 C394 1.374 . S
C394 H368 0.950 . S
C394 C390 1.385 . S
C394 C393 1.374 . S
C395 C392 1.499 . S
C395 C396 1.373 1_545 S
C395 C397 1.389 . S
C396 H369 0.950 . S
C396 C382 1.377 . S
C396 C395 1.373 1_565 S
C397 C381 1.377 . S
C397 C395 1.389 . S
C397 C398 1.524 . S
C398 C397 1.524 . S
C398 C399 1.397 . S
C398 C403 1.363 . S
C399 H370 0.950 . S
C399 C398 1.397 . S
C399 C400 1.334 . S
C400 H371 0.950 . S
C400 C399 1.334 . S
C400 C401 1.287 . S
C401 C400 1.287 . S
C401 C402 1.524 . S
C401 H404 0.999 . S
C402 H372 0.950 . S
C402 C401 1.524 . S
C402 C403 1.415 . S
C403 H373 0.950 . S
C403 C398 1.363 . S
C403 C402 1.415 . S
H404 C401 0.999 . S
H405 C386 0.913 . S
H406 C424 0.951 . S
H407 C426 0.951 . S
H408 C428 0.950 . S
H409 C429 0.950 . S
H410 C431 0.950 . S
H411 C434 0.950 . S
H412 C435 0.950 . S
H413 C437 0.950 . S
H414 C438 0.950 1_455 S
H415 C439 0.951 . S
H416 C441 0.951 . S
H417 C443 0.950 . S
H418 C444 0.950 1_455 S
H419 C446 0.950 . S
H420 C449 0.950 . S
H421 C450 0.950 . S
H422 C452 0.950 . S
H423 C453 0.950 . S
C424 H406 0.951 . S
C424 C425 1.366 1_455 S
C424 C426 1.388 . S
C425 C424 1.366 1_655 S
C425 C429 1.385 . S
C426 H407 0.951 . S
C426 C424 1.388 . S
C426 C427 1.366 1_455 S
C427 C426 1.366 1_655 S
C427 C428 1.414 . S
C427 C430 1.499 . S
C428 H408 0.950 . S
C428 C427 1.414 . S
C428 C429 1.374 . S
C429 H409 0.950 . S
C429 C425 1.385 . S
C429 C428 1.374 . S
C430 C427 1.499 . S
C430 C431 1.373 . S
C430 C432 1.389 . S
C431 H410 0.950 . S
C431 C430 1.373 . S
C431 C447 1.377 . S
C432 C430 1.389 . S
C432 C433 1.524 . S
C432 C446 1.377 . S
C433 C432 1.524 . S
C433 C434 1.397 . S
C433 C438 1.363 . S
C434 H411 0.950 . S
C434 C433 1.397 . S
C434 C435 1.334 . S
C435 H412 0.950 . S
C435 C434 1.334 . S
C435 C436 1.287 . S
C436 C435 1.287 . S
C436 C437 1.524 . S
C436 H455 0.913 . S
C437 H413 0.950 . S
C437 C436 1.524 . S
C437 C438 1.415 . S
C438 H414 0.950 1_655 S
C438 C433 1.363 . S
C438 C437 1.415 . S
C439 H415 0.951 . S
C439 C440 1.366 . S
C439 C441 1.388 . S
C440 C439 1.366 . S
C440 C444 1.385 . S
C441 H416 0.951 . S
C441 C439 1.388 . S
C441 C442 1.366 . S
C442 C441 1.366 . S
C442 C443 1.414 1_655 S
C442 C445 1.499 . S
C443 H417 0.950 . S
C443 C442 1.414 1_455 S
C443 C444 1.374 1_455 S
C444 H418 0.950 1_655 S
C444 C440 1.385 . S
C444 C443 1.374 1_655 S
C445 C442 1.499 . S
C445 C446 1.373 . S
C445 C447 1.389 . S
C446 H419 0.950 . S
C446 C432 1.377 . S
C446 C445 1.373 . S
C447 C431 1.377 . S
C447 C445 1.389 . S
C447 C448 1.524 1_655 S
C448 C447 1.524 1_455 S
C448 C449 1.397 . S
C448 C453 1.363 1_455 S
C449 H420 0.950 . S
C449 C448 1.397 . S
C449 C450 1.334 . S
C450 H421 0.950 . S
C450 C449 1.334 . S
C450 C451 1.287 . S
C451 C450 1.287 . S
C451 C452 1.524 1_455 S
C451 H454 0.999 . S
C452 H422 0.950 . S
C452 C451 1.524 1_655 S
C452 C453 1.415 . S
C453 H423 0.950 . S
C453 C448 1.363 1_655 S
C453 C452 1.415 . S
H454 C451 0.999 . S
H455 C436 0.913 . S
C90 C37 1.544 . S
C75 C13 1.537 1_545 S
C140 C48 1.500 . S
C125 C15 1.554 1_655 S
C190 C36 1.544 . S
C175 C1 1.541 1_565 S
C240 C49 1.501 . S
C225 C27 1.556 1_455 S
C290 C51 1.544 . S
C275 C0 1.543 . S
C340 C35 1.501 . S
C325 C26 1.554 . S
C390 C50 1.544 . S
C375 C12 1.548 . S
C425 C14 1.554 . S
C440 C34 1.502 . S
