# Generated by pormake.
# Topology ocu, (6,8)-cn, num edge types: 1
# Building blocks:
#     Node 0, Type 0, BuildingBlock: BETDEL_clean_sbu_0, # of connection points: 6
#     Node 1, Type 0, BuildingBlock: BETDEL_clean_sbu_0, # of connection points: 6
#     Node 2, Type 0, BuildingBlock: BETDEL_clean_sbu_0, # of connection points: 6
#     Node 3, Type 0, BuildingBlock: BETDEL_clean_sbu_0, # of connection points: 6
#     Node 4, Type 0, BuildingBlock: BETDEL_clean_sbu_0, # of connection points: 6
#     Node 5, Type 0, BuildingBlock: BETDEL_clean_sbu_0, # of connection points: 6
#     Node 6, Type 0, BuildingBlock: BETDEL_clean_sbu_0, # of connection points: 6
#     Node 7, Type 0, BuildingBlock: BETDEL_clean_sbu_0, # of connection points: 6
#     Node 8, Type 1, BuildingBlock: AJUNOK_clean_sbu_0, # of connection points: 8
#     Node 9, Type 1, BuildingBlock: AJUNOK_clean_sbu_0, # of connection points: 8
#     Node 10, Type 1, BuildingBlock: AJUNOK_clean_sbu_0, # of connection points: 8
#     Node 11, Type 1, BuildingBlock: AJUNOK_clean_sbu_0, # of connection points: 8
#     Node 12, Type 1, BuildingBlock: AJUNOK_clean_sbu_0, # of connection points: 8
#     Node 13, Type 1, BuildingBlock: AJUNOK_clean_sbu_0, # of connection points: 8
#     Edge 14, Type (0, 1), BuildingBlock: EZIPEK_clean_linker_0, # of connection points: 2
#     Edge 15, Type (0, 1), BuildingBlock: EZIPEK_clean_linker_0, # of connection points: 2
#     Edge 16, Type (0, 1), BuildingBlock: EZIPEK_clean_linker_0, # of connection points: 2
#     Edge 17, Type (0, 1), BuildingBlock: EZIPEK_clean_linker_0, # of connection points: 2
#     Edge 18, Type (0, 1), BuildingBlock: EZIPEK_clean_linker_0, # of connection points: 2
#     Edge 19, Type (0, 1), BuildingBlock: EZIPEK_clean_linker_0, # of connection points: 2
#     Edge 20, Type (0, 1), BuildingBlock: EZIPEK_clean_linker_0, # of connection points: 2
#     Edge 21, Type (0, 1), BuildingBlock: EZIPEK_clean_linker_0, # of connection points: 2
#     Edge 22, Type (0, 1), BuildingBlock: EZIPEK_clean_linker_0, # of connection points: 2
#     Edge 23, Type (0, 1), BuildingBlock: EZIPEK_clean_linker_0, # of connection points: 2
#     Edge 24, Type (0, 1), BuildingBlock: EZIPEK_clean_linker_0, # of connection points: 2
#     Edge 25, Type (0, 1), BuildingBlock: EZIPEK_clean_linker_0, # of connection points: 2
#     Edge 26, Type (0, 1), BuildingBlock: EZIPEK_clean_linker_0, # of connection points: 2
#     Edge 27, Type (0, 1), BuildingBlock: EZIPEK_clean_linker_0, # of connection points: 2
#     Edge 28, Type (0, 1), BuildingBlock: EZIPEK_clean_linker_0, # of connection points: 2
#     Edge 29, Type (0, 1), BuildingBlock: EZIPEK_clean_linker_0, # of connection points: 2
#     Edge 30, Type (0, 1), BuildingBlock: EZIPEK_clean_linker_0, # of connection points: 2
#     Edge 31, Type (0, 1), BuildingBlock: EZIPEK_clean_linker_0, # of connection points: 2
#     Edge 32, Type (0, 1), BuildingBlock: EZIPEK_clean_linker_0, # of connection points: 2
#     Edge 33, Type (0, 1), BuildingBlock: EZIPEK_clean_linker_0, # of connection points: 2
#     Edge 34, Type (0, 1), BuildingBlock: EZIPEK_clean_linker_0, # of connection points: 2
#     Edge 35, Type (0, 1), BuildingBlock: EZIPEK_clean_linker_0, # of connection points: 2
#     Edge 36, Type (0, 1), BuildingBlock: EZIPEK_clean_linker_0, # of connection points: 2
#     Edge 37, Type (0, 1), BuildingBlock: EZIPEK_clean_linker_0, # of connection points: 2
#     Edge 38, Type (0, 1), BuildingBlock: EZIPEK_clean_linker_0, # of connection points: 2
#     Edge 39, Type (0, 1), BuildingBlock: EZIPEK_clean_linker_0, # of connection points: 2
#     Edge 40, Type (0, 1), BuildingBlock: EZIPEK_clean_linker_0, # of connection points: 2
#     Edge 41, Type (0, 1), BuildingBlock: EZIPEK_clean_linker_0, # of connection points: 2
#     Edge 42, Type (0, 1), BuildingBlock: EZIPEK_clean_linker_0, # of connection points: 2
#     Edge 43, Type (0, 1), BuildingBlock: EZIPEK_clean_linker_0, # of connection points: 2
#     Edge 44, Type (0, 1), BuildingBlock: EZIPEK_clean_linker_0, # of connection points: 2
#     Edge 45, Type (0, 1), BuildingBlock: EZIPEK_clean_linker_0, # of connection points: 2
#     Edge 46, Type (0, 1), BuildingBlock: EZIPEK_clean_linker_0, # of connection points: 2
#     Edge 47, Type (0, 1), BuildingBlock: EZIPEK_clean_linker_0, # of connection points: 2
#     Edge 48, Type (0, 1), BuildingBlock: EZIPEK_clean_linker_0, # of connection points: 2
#     Edge 49, Type (0, 1), BuildingBlock: EZIPEK_clean_linker_0, # of connection points: 2
#     Edge 50, Type (0, 1), BuildingBlock: EZIPEK_clean_linker_0, # of connection points: 2
#     Edge 51, Type (0, 1), BuildingBlock: EZIPEK_clean_linker_0, # of connection points: 2
#     Edge 52, Type (0, 1), BuildingBlock: EZIPEK_clean_linker_0, # of connection points: 2
#     Edge 53, Type (0, 1), BuildingBlock: EZIPEK_clean_linker_0, # of connection points: 2
#     Edge 54, Type (0, 1), BuildingBlock: EZIPEK_clean_linker_0, # of connection points: 2
#     Edge 55, Type (0, 1), BuildingBlock: EZIPEK_clean_linker_0, # of connection points: 2
#     Edge 56, Type (0, 1), BuildingBlock: EZIPEK_clean_linker_0, # of connection points: 2
#     Edge 57, Type (0, 1), BuildingBlock: EZIPEK_clean_linker_0, # of connection points: 2
#     Edge 58, Type (0, 1), BuildingBlock: EZIPEK_clean_linker_0, # of connection points: 2
#     Edge 59, Type (0, 1), BuildingBlock: EZIPEK_clean_linker_0, # of connection points: 2
#     Edge 60, Type (0, 1), BuildingBlock: EZIPEK_clean_linker_0, # of connection points: 2
#     Edge 61, Type (0, 1), BuildingBlock: EZIPEK_clean_linker_0, # of connection points: 2
# Relax obj value: 0.123
# Max RMSD: 0.260
# Mean RMSD: 0.184
data_MOF--net-ocu--node1-BETDEL_clean_sbu_0--node2-AJUNOK_clean_sbu_0--edge1-EZIPEK_clean_linker_0
_symmetry_space_group_name_H-M    P1
_symmetry_Int_Tables_number       1
_symmetry_cell_setting            triclinic
loop_
_symmetry_equiv_pos_as_xyz
'x, y, z'
_cell_length_a     32.033644
_cell_length_b     32.809095
_cell_length_c     26.875639
_cell_angle_alpha  100.02824
_cell_angle_beta   100.42163
_cell_angle_gamma 109.33767
loop_
_atom_site_label
_atom_site_type_symbol
_atom_site_fract_x
_atom_site_fract_y
_atom_site_fract_z
_atom_type_partial_charge
Dy0 Dy 0.29562 0.26961 0.28344 0.0
C1 C 0.16328 0.26333 0.11195 0.0
C2 C 0.34659 0.24587 0.35745 0.0
Dy3 Dy 0.21687 0.23895 0.18225 0.0
O4 O 0.35554 0.28693 0.35355 0.0
O5 O 0.30969 0.21913 0.32263 0.0
O6 O 0.33116 0.33433 0.26418 0.0
O7 O 0.28977 0.27793 0.20452 0.0
C8 C 0.31083 0.31953 0.2142 0.0
C9 C 0.20387 0.18735 0.24881 0.0
O10 O 0.25789 0.2002 0.15082 0.0
O11 O 0.31269 0.21945 0.22995 0.0
O12 O 0.15487 0.22221 0.11532 0.0
O13 O 0.2015 0.28974 0.14496 0.0
O14 O 0.18258 0.17296 0.19914 0.0
O15 O 0.22334 0.22927 0.25992 0.0
O16 O 0.25377 0.3074 0.31532 0.0
O17 O 0.1984 0.28716 0.23688 0.0
C18 C 0.29404 0.19625 0.1804 0.0
C19 C 0.21647 0.30989 0.28653 0.0
Dy20 Dy 0.78872 0.21873 0.22997 0.0
C21 C 0.65707 0.28056 0.14623 0.0
C22 C 0.8468 0.18442 0.27487 0.0
Dy23 Dy 0.7231 0.2617 0.2039 0.0
O24 O 0.85181 0.20256 0.2361 0.0
O25 O 0.80994 0.18406 0.28819 0.0
O26 O 0.77381 0.18463 0.14436 0.0
O27 O 0.72232 0.19524 0.17439 0.0
C28 C 0.73113 0.17996 0.13312 0.0
C29 C 0.77283 0.29461 0.30439 0.0
O30 O 0.6796 0.21068 0.236 0.0
O31 O 0.73787 0.19004 0.27416 0.0
O32 O 0.68523 0.30688 0.19001 0.0
O33 O 0.66537 0.24467 0.13394 0.0
O34 O 0.73161 0.29367 0.28802 0.0
O35 O 0.78658 0.28268 0.26516 0.0
O36 O 0.83577 0.28404 0.22365 0.0
O37 O 0.77983 0.29711 0.16968 0.0
C38 C 0.69561 0.18913 0.26667 0.0
C39 C 0.82358 0.30608 0.19074 0.0
Dy40 Dy 0.73374 0.75913 0.29091 0.0
C41 C 0.79894 0.70029 0.11726 0.0
C42 C 0.70676 0.80668 0.3647 0.0
Dy43 Dy 0.77935 0.75059 0.19562 0.0
O44 O 0.67954 0.77297 0.32615 0.0
O45 O 0.74869 0.8106 0.3663 0.0
O46 O 0.68541 0.68763 0.25958 0.0
O47 O 0.71244 0.72533 0.20929 0.0
C48 C 0.69064 0.68653 0.21222 0.0
C49 C 0.82428 0.82401 0.27209 0.0
O50 O 0.73496 0.78722 0.1657 0.0
O51 O 0.71305 0.80259 0.24273 0.0
O52 O 0.81574 0.74385 0.13177 0.0
O53 O 0.77164 0.68525 0.14567 0.0
O54 O 0.83084 0.82049 0.22519 0.0
O55 O 0.80063 0.78606 0.27606 0.0
O56 O 0.7731 0.71725 0.31861 0.0
O57 O 0.80746 0.71379 0.24896 0.0
C58 C 0.71362 0.80666 0.19449 0.0
C59 C 0.80009 0.70311 0.29319 0.0
Dy60 Dy 0.28354 0.70663 0.22996 0.0
C61 C 0.2304 0.83816 0.33786 0.0
C62 C 0.30073 0.64456 0.1664 0.0
Dy63 Dy 0.24669 0.77697 0.2731 0.0
O64 O 0.33006 0.68471 0.18916 0.0
O65 O 0.26221 0.63791 0.17879 0.0
O66 O 0.33477 0.72416 0.30695 0.0
O67 O 0.31403 0.77316 0.28151 0.0
C68 C 0.33658 0.76495 0.31941 0.0
C69 C 0.19193 0.71493 0.1858 0.0
O70 O 0.2799 0.81164 0.21966 0.0
O71 O 0.28556 0.74902 0.17103 0.0
O72 O 0.19933 0.80061 0.30941 0.0
O73 O 0.27047 0.84328 0.33024 0.0
O74 O 0.19024 0.75451 0.19752 0.0
O75 O 0.21803 0.7109 0.22358 0.0
O76 O 0.24125 0.67052 0.27802 0.0
O77 O 0.23879 0.73391 0.32918 0.0
C78 C 0.28575 0.79027 0.17677 0.0
C79 C 0.22976 0.69063 0.31756 0.0
Dy80 Dy 0.27703 0.69955 0.74889 0.0
C81 C 0.20654 0.82129 0.70548 0.0
C82 C 0.31688 0.65507 0.80341 0.0
Dy83 Dy 0.23249 0.75633 0.73019 0.0
O84 O 0.32479 0.66357 0.75993 0.0
O85 O 0.28722 0.67039 0.81681 0.0
O86 O 0.26882 0.66775 0.66505 0.0
O87 O 0.2184 0.68904 0.68524 0.0
C88 C 0.2315 0.67387 0.64711 0.0
C89 C 0.27622 0.77627 0.8326 0.0
O90 O 0.16913 0.7036 0.73297 0.0
O91 O 0.21091 0.66693 0.77075 0.0
O92 O 0.24696 0.82773 0.73191 0.0
O93 O 0.17995 0.77952 0.69263 0.0
O94 O 0.23474 0.77339 0.81515 0.0
O95 O 0.29172 0.7667 0.79397 0.0
O96 O 0.33408 0.75449 0.73435 0.0
O97 O 0.28186 0.77186 0.68174 0.0
C98 C 0.17154 0.67218 0.75643 0.0
C99 C 0.32414 0.77504 0.69851 0.0
Dy100 Dy 0.23019 0.24661 0.8045 0.0
C101 C 0.25707 0.14793 0.62072 0.0
C102 C 0.21164 0.30716 0.8717 0.0
Dy103 Dy 0.25004 0.20637 0.70237 0.0
O104 O 0.2011 0.26533 0.87159 0.0
O105 O 0.23542 0.3162 0.83826 0.0
O106 O 0.18134 0.17942 0.80587 0.0
O107 O 0.1912 0.1943 0.73492 0.0
C108 C 0.17346 0.16375 0.7559 0.0
C109 C 0.32141 0.27725 0.76809 0.0
O110 O 0.20699 0.24232 0.66649 0.0
O111 O 0.19018 0.26942 0.74367 0.0
O112 O 0.27343 0.19136 0.62927 0.0
O113 O 0.23341 0.13731 0.65425 0.0
O114 O 0.32558 0.24592 0.73534 0.0
O115 O 0.27962 0.27114 0.76021 0.0
O116 O 0.28293 0.21862 0.83737 0.0
O117 O 0.26912 0.16793 0.75921 0.0
C118 C 0.1873 0.26596 0.69289 0.0
C119 C 0.28818 0.18355 0.81012 0.0
Dy120 Dy 0.80823 0.20929 0.76584 0.0
C121 C 0.72919 0.32093 0.85004 0.0
C122 C 0.85144 0.17152 0.70776 0.0
Dy123 Dy 0.75419 0.26394 0.78979 0.0
O124 O 0.84588 0.16362 0.75243 0.0
O125 O 0.83362 0.19945 0.69527 0.0
O126 O 0.84195 0.2203 0.85007 0.0
O127 O 0.82382 0.27003 0.82379 0.0
C128 C 0.83875 0.25885 0.864 0.0
C129 C 0.72146 0.20998 0.69127 0.0
O130 O 0.79649 0.31115 0.75308 0.0
O131 O 0.83781 0.2675 0.73273 0.0
O132 O 0.70118 0.28961 0.80947 0.0
O133 O 0.77005 0.32088 0.85711 0.0
O134 O 0.71694 0.24817 0.70478 0.0
O135 O 0.73881 0.20194 0.73257 0.0
O136 O 0.74808 0.1572 0.77861 0.0
O137 O 0.72664 0.20857 0.82733 0.0
C138 C 0.82778 0.30337 0.73179 0.0
C139 C 0.72418 0.16729 0.81085 0.0
Dy140 Dy 0.79403 0.76055 0.78652 0.0
C141 C 0.69009 0.77362 0.6063 0.0
C142 C 0.83155 0.7303 0.86378 0.0
Dy143 Dy 0.73074 0.74113 0.67892 0.0
O144 O 0.846 0.77191 0.86141 0.0
O145 O 0.79506 0.70686 0.82646 0.0
O146 O 0.8378 0.8284 0.78029 0.0
O147 O 0.80359 0.7759 0.71313 0.0
C148 C 0.82695 0.81716 0.72924 0.0
C149 C 0.69917 0.68305 0.73377 0.0
O150 O 0.77368 0.70256 0.6526 0.0
O151 O 0.81683 0.71281 0.73649 0.0
O152 O 0.67761 0.73133 0.60565 0.0
O153 O 0.72744 0.79643 0.64276 0.0
O154 O 0.68768 0.67245 0.68268 0.0
O155 O 0.72151 0.72448 0.751 0.0
O156 O 0.75092 0.79719 0.81498 0.0
O157 O 0.70576 0.78551 0.73207 0.0
C158 C 0.80502 0.69442 0.68528 0.0
C159 C 0.71744 0.80318 0.78358 0.0
Cd160 Cd 0.99198 0.96313 0.54861 0.0
Cd161 Cd 0.07634 0.04665 0.44689 0.0
C162 C 0.0683 0.97171 0.64323 0.0
N163 N 0.05361 0.95608 0.59046 0.0
C164 C 0.10534 0.91919 0.58799 0.0
C165 C 0.1199 0.93337 0.64254 0.0
C166 C 0.10291 0.96149 0.6705 0.0
C167 C 0.07159 0.93114 0.56228 0.0
H168 H 0.05247 -0.00878 0.66393 0.0
H169 H 0.05787 0.91877 0.52038 0.0
C170 C 0.96624 0.95628 0.42483 0.0
C171 C 0.0306 0.09311 0.37299 0.0
C172 C 1.00151 0.11304 0.35393 0.0
C173 C 0.97482 0.12476 0.38498 0.0
C174 C 0.97882 0.11823 0.4354 0.0
C175 C 0.0088 0.0983 0.45306 0.0
N176 N 0.0331 0.08552 0.42137 0.0
H177 H 0.04976 0.08252 0.3481 0.0
H178 H 0.01177 0.09164 0.49106 0.0
C179 C 0.07625 0.94932 0.4222 0.0
N180 N 0.09709 -0.01047 0.45749 0.0
C181 C 0.16425 0.97513 0.48539 0.0
C182 C 0.14547 0.93586 0.4454 0.0
C183 C 0.10022 0.92135 0.41556 0.0
C184 C 0.13966 0.00265 0.48928 0.0
H185 H 0.04361 0.94139 0.3952 0.0
H186 H 0.15623 0.03641 0.51343 0.0
C187 C 0.08172 0.06416 0.56262 0.0
C188 C 0.93303 0.9078 0.59984 0.0
N189 N 0.96559 0.01772 0.56181 0.0
C190 C 0.96982 0.03623 0.61247 0.0
C191 C 0.94968 0.06652 0.62431 0.0
C192 C 0.92575 0.07764 0.58336 0.0
C193 C 0.9239 0.06026 0.53155 0.0
C194 C 0.94442 0.02971 0.52151 0.0
C195 C 0.13633 0.08016 0.38599 0.0
O196 O 0.9778 0.93439 0.45591 0.0
O197 O 0.99552 -0.00809 0.42028 0.0
O198 O 0.10459 0.08803 0.53744 0.0
O199 O 0.04985 0.0275 0.53698 0.0
O200 O 0.92919 0.89421 0.55121 0.0
O201 O 0.96364 0.94565 0.62361 0.0
O202 O 0.14629 0.09552 0.43511 0.0
O203 O 0.10058 0.04517 0.36569 0.0
H204 H 0.98853 0.02724 0.64356 0.0
H205 H 0.94226 0.01478 0.48172 0.0
H206 H 0.11785 0.89685 0.56627 0.0
H207 H 0.11377 0.97235 0.7128 0.0
H208 H 0.99858 0.11781 0.31472 0.0
H209 H 0.95818 0.12722 0.45981 0.0
H210 H 0.19956 0.98713 0.50787 0.0
H211 H 0.08561 0.89124 0.38396 0.0
H212 H 0.95153 0.08018 0.66476 0.0
H213 H 0.90517 0.0686 0.49967 0.0
Cd214 Cd 0.47491 0.97238 0.07086 0.0
Cd215 Cd 0.50971 -0.00495 0.90577 0.0
C216 C 0.57466 0.96573 0.12765 0.0
N217 N 0.53021 0.94024 0.1017 0.0
C218 C 0.54605 0.87371 0.1049 0.0
C219 C 0.59246 0.89929 0.12995 0.0
C220 C 0.60649 0.946 0.14096 0.0
C221 C 0.51572 0.89485 0.09043 0.0
H222 H 0.58616 0.00157 0.13755 0.0
H223 H 0.4805 0.87485 0.06984 0.0
C224 C 0.43008 0.92292 0.93039 0.0
C225 C 0.44132 0.03487 0.83491 0.0
C226 C 0.41342 0.05951 0.82491 0.0
C227 C 0.39861 0.07925 0.86556 0.0
C228 C 0.41199 0.07283 0.91548 0.0
C229 C 0.43997 0.04808 0.92381 0.0
N230 N 0.45439 0.02973 0.88391 0.0
H231 H 0.45343 0.02078 0.80369 0.0
H232 H 0.45112 0.04442 0.96268 0.0
C233 C 0.52813 0.90176 0.85702 0.0
N234 N 0.54867 0.94281 0.89148 0.0
C235 C 0.62199 0.93554 0.89917 0.0
C236 C 0.60204 0.89429 0.86174 0.0
C237 C 0.55418 0.87687 0.84168 0.0
C238 C 0.59464 0.95901 0.91375 0.0
H239 H 0.49174 0.88884 0.83992 0.0
H240 H 0.61049 -0.0089 0.94164 0.0
C241 C 0.55938 0.04395 0.04372 0.0
C242 C 0.40159 0.9072 0.08946 0.0
N243 N 0.44335 0.02852 0.0944 0.0
C244 C 0.45687 0.05737 0.14262 0.0
C245 C 0.43318 0.08547 0.15532 0.0
C246 C 0.39503 0.0838 0.11826 0.0
C247 C 0.38241 0.05427 0.06871 0.0
C248 C 0.40702 0.02694 0.05767 0.0
C249 C 0.57465 0.0504 0.868 0.0
O250 O 0.45648 0.94947 0.97362 0.0
O251 O 0.44019 0.92998 0.88832 0.0
O252 O 0.53187 0.01996 0.00034 0.0
O253 O 0.54697 0.03769 0.08495 0.0
O254 O 0.40379 0.90967 0.04331 0.0
O255 O 0.43406 0.93533 0.12745 0.0
O256 O 0.56832 0.06376 0.91228 0.0
O257 O 0.54766 0.01204 0.83949 0.0
H258 H 0.48529 0.05785 0.17177 0.0
H259 H 0.39626 0.00339 0.02002 0.0
H260 H 0.53351 0.8376 0.09583 0.0
H261 H 0.64184 0.96717 0.16016 0.0
H262 H 0.40418 0.06383 0.78593 0.0
H263 H 0.40166 0.08764 0.94802 0.0
H264 H 0.65864 0.95003 0.91608 0.0
H265 H 0.5373 0.84502 0.813 0.0
H266 H 0.4439 0.10763 0.19409 0.0
H267 H 0.35316 0.05173 0.03912 0.0
Cd268 Cd 0.98581 0.48693 0.06361 0.0
Cd269 Cd 0.00542 0.50937 0.90023 0.0
C270 C 0.06822 0.44937 0.07154 0.0
N271 N 0.02192 0.43566 0.06146 0.0
C272 C 0.01493 0.36026 0.05783 0.0
C273 C 0.06257 0.37361 0.06823 0.0
C274 C 0.08945 0.4186 0.0747 0.0
C275 C 0.9952 0.3921 0.0548 0.0
H276 H 0.08861 0.4843 0.07853 0.0
H277 H 0.95853 0.38213 0.04798 0.0
C278 C 0.93964 0.43059 0.93181 0.0
C279 C 0.92227 0.53977 0.86716 0.0
C280 C 0.89957 0.56941 0.86567 0.0
C281 C 0.91222 0.60599 0.90863 0.0
C282 C 0.94565 0.61099 0.95301 0.0
C283 C 0.9675 0.58074 0.95277 0.0
N284 N 0.95611 0.54647 0.90993 0.0
H285 H 0.91515 0.51324 0.83299 0.0
H286 H 0.99482 0.58601 0.98603 0.0
C287 C 0.05242 0.44587 0.85358 0.0
N288 N 0.05294 0.46912 0.90089 0.0
C289 C 0.10759 0.44366 0.94449 0.0
C290 C 0.10755 0.41924 0.89618 0.0
C291 C 0.08044 0.42139 0.85018 0.0
C292 C 0.0807 0.46945 0.94583 0.0
H293 H 0.02988 0.44605 0.81854 0.0
H294 H 0.08051 0.48798 0.98291 0.0
C295 C 0.06978 0.56554 0.0395 0.0
C296 C 0.94347 0.4486 0.13468 0.0
N297 N 0.9483 0.53631 0.06729 0.0
C298 C 0.95777 0.56758 0.11257 0.0
C299 C 0.93257 0.59506 0.11648 0.0
C300 C 0.89769 0.59 0.07323 0.0
C301 C 0.88852 0.55727 0.02744 0.0
C302 C 0.91444 0.53072 0.02521 0.0
C303 C 0.03855 0.55156 0.82466 0.0
O304 O 0.96168 0.46393 0.97038 0.0
O305 O 0.94425 0.4358 0.88716 0.0
O306 O 0.04781 0.54637 -0.00784 0.0
O307 O 0.05511 0.55047 0.07633 0.0
O308 O 0.9233 0.43852 0.08637 0.0
O309 O 0.98353 0.47877 0.15106 0.0
O310 O 0.05674 0.56674 0.87334 0.0
O311 O 1.00329 0.5156 0.80943 0.0
H312 H 0.98436 0.57063 0.1458 0.0
H313 H 0.9077 0.50591 0.98967 0.0
H314 H 0.99341 0.32581 0.05332 0.0
H315 H 0.12643 0.4299 0.08358 0.0
H316 H 0.87428 0.56531 0.83051 0.0
H317 H 0.95673 0.63956 0.98601 0.0
H318 H 0.12802 0.44256 0.98069 0.0
H319 H 0.0797 0.40291 0.81223 0.0
H320 H 0.93991 0.6197 0.15269 0.0
H321 H 0.8612 0.55194 -0.00596 0.0
Cd322 Cd 0.47021 0.45459 0.02645 0.0
Cd323 Cd 0.56178 0.52735 0.92325 0.0
C324 C 0.54143 0.41061 0.02231 0.0
N325 N 0.49535 0.398 0.00824 0.0
C326 C 0.48416 0.32296 0.01013 0.0
C327 C 0.53141 0.33668 0.03069 0.0
C328 C 0.56048 0.38009 0.03372 0.0
C329 C 0.4666 0.3548 -0.00147 0.0
H330 H 0.56305 0.4452 0.02973 0.0
H331 H 0.43013 0.34608 0.98635 0.0
C332 C 0.47676 0.43762 0.89109 0.0
C333 C 0.48699 0.55331 0.86989 0.0
C334 C 0.45358 0.57085 0.86024 0.0
C335 C 0.44041 0.58968 0.90247 0.0
C336 C 0.46026 0.59037 0.95349 0.0
C337 C 0.49361 0.57226 0.96134 0.0
N338 N 0.50626 0.55468 0.91966 0.0
H339 H 0.49808 0.53895 0.83789 0.0
H340 H 0.50944 0.57271 0.00052 0.0
C341 C 0.60762 0.46492 0.89215 0.0
N342 N 0.60741 0.48993 0.93769 0.0
C343 C 0.65838 0.46459 0.98742 0.0
C344 C 0.6585 0.43818 0.94071 0.0
C345 C 0.63352 0.43881 0.89268 0.0
C346 C 0.63288 0.49151 0.98481 0.0
H347 H 0.58741 0.46531 0.8555 0.0
H348 H 0.6332 0.51313 0.02007 0.0
C349 C 0.56654 0.53253 0.06129 0.0
C350 C 0.40801 0.40834 0.08004 0.0
N351 N 0.43601 0.50603 0.02295 0.0
C352 C 0.44775 0.53374 0.07128 0.0
C353 C 0.42052 0.55683 0.0844 0.0
C354 C 0.38044 0.55013 0.04766 0.0
C355 C 0.37042 0.52396 -0.00296 0.0
C356 C 0.39953 0.50255 0.985 0.0
C357 C 0.61468 0.584 0.87027 0.0
O358 O 0.4863 0.45611 0.9395 0.0
O359 O 0.50149 0.45877 0.86488 0.0
O360 O 0.55373 0.52136 0.01178 0.0
O361 O 0.54051 0.5105 0.08566 0.0
O362 O 0.39485 0.40589 0.03163 0.0
O363 O 0.44992 0.43131 0.10285 0.0
O364 O 0.62139 0.597 0.91962 0.0
O365 O 0.58485 0.5455 0.84719 0.0
H366 H 0.47587 0.53479 0.10115 0.0
H367 H 0.39114 0.48171 0.94625 0.0
H368 H 0.46123 0.28939 0.00731 0.0
H369 H 0.59718 0.39124 0.04938 0.0
H370 H 0.43844 0.57019 0.82049 0.0
H371 H 0.45074 0.60532 0.98658 0.0
H372 H 0.67778 0.46448 0.02482 0.0
H373 H 0.63345 0.41857 0.85615 0.0
H374 H 0.42863 0.57688 0.12398 0.0
H375 H 0.33946 0.51857 0.96823 0.0
Cd376 Cd 0.98591 0.46932 0.57043 0.0
Cd377 Cd 0.01689 0.51094 0.40911 0.0
C378 C 0.07225 0.44236 0.62793 0.0
N379 N 0.03446 0.42525 0.58657 0.0
C380 C 0.0454 0.35493 0.57116 0.0
C381 C 0.08416 0.37167 0.61411 0.0
C382 C 0.09761 0.41633 0.64226 0.0
C383 C 0.02104 0.38217 0.55817 0.0
H384 H 0.08205 0.47602 0.65082 0.0
H385 H 0.99051 0.3683 0.52618 0.0
C386 C 0.93375 0.42959 0.42588 0.0
C387 C 0.91943 0.52559 0.3552 0.0
C388 C 0.89047 0.54861 0.34197 0.0
C389 C 0.90663 0.59557 0.35867 0.0
C390 C 0.9519 0.61776 0.38975 0.0
C391 C 0.97934 0.59342 0.40303 0.0
N392 N 0.96329 0.54805 0.38532 0.0
H393 H 0.90666 0.48969 0.34093 0.0
H394 H 0.01402 0.6111 0.42697 0.0
C395 C 0.0369 0.42904 0.3322 0.0
N396 N 0.05135 0.45834 0.3803 0.0
C397 C 0.11796 0.43941 0.40047 0.0
C398 C 0.1044 0.40951 0.35105 0.0
C399 C 0.06297 0.40413 0.31682 0.0
C400 C 0.09102 0.46354 0.41414 0.0
H401 H 0.00585 0.4258 0.30515 0.0
H402 H 0.10257 0.48773 0.45137 0.0
C403 C 0.06614 0.54285 0.54801 0.0
C404 C 0.92866 0.4187 0.62105 0.0
N405 N 0.95667 0.52849 0.59385 0.0
C406 C 0.96622 0.55195 0.64447 0.0
C407 C 0.94371 0.58096 0.65841 0.0
C408 C 0.91049 0.58589 0.6202 0.0
C409 C 0.90242 0.56234 0.56817 0.0
C410 C 0.92597 0.53403 0.55589 0.0
C411 C 0.08883 0.57382 0.38795 0.0
O412 O 0.95797 0.4487 0.47271 0.0
O413 O 0.94747 0.4443 0.38862 0.0
O414 O 0.03622 0.52163 0.50486 0.0
O415 O 0.05798 0.53195 0.58929 0.0
O416 O 0.9163 0.41361 0.57188 0.0
O417 O 0.96744 0.44837 0.64646 0.0
O418 O 0.08507 0.57641 0.43458 0.0
O419 O 0.05788 0.54271 0.3512 0.0
H420 H 0.99018 0.54706 0.67454 0.0
H421 H 0.91855 0.51524 0.51608 0.0
H422 H 0.03352 0.32072 0.54839 0.0
H423 H 0.12698 0.43073 0.67584 0.0
H424 H 0.85586 0.52989 0.31805 0.0
H425 H 0.96608 0.6538 0.40356 0.0
H426 H 0.14966 0.44472 0.42794 0.0
H427 H 0.05132 0.38147 0.27829 0.0
H428 H 0.95107 0.59829 0.69905 0.0
H429 H 0.8772 0.56494 0.53737 0.0
Cd430 Cd 0.48123 0.97067 0.56153 0.0
Cd431 Cd 0.52634 0.03135 0.42648 0.0
C432 C 0.56598 0.94542 0.61174 0.0
N433 N 0.5344 0.93672 0.56607 0.0
C434 C 0.55386 0.87642 0.52786 0.0
C435 C 0.58737 0.88534 0.57393 0.0
C436 C 0.59366 0.92039 0.61626 0.0
C437 C 0.52771 0.90284 0.52464 0.0
H438 H 0.56904 0.97122 0.64488 0.0
H439 H 0.50067 0.89511 0.49 0.0
C440 C 0.45452 0.93993 0.42067 0.0
C441 C 0.45134 0.06901 0.38065 0.0
C442 C 0.43007 0.09957 0.37595 0.0
C443 C 0.43409 0.1314 0.42059 0.0
C444 C 0.45693 0.12999 0.46952 0.0
C445 C 0.47735 0.09854 0.47244 0.0
N446 N 0.47585 0.07005 0.42815 0.0
H447 H 0.45043 0.04607 0.34593 0.0
H448 H 0.49656 0.09884 0.50983 0.0
C449 C 0.57997 0.97294 0.37723 0.0
N450 N 0.57258 0.9883 0.42399 0.0
C451 C 0.61574 0.95073 0.46554 0.0
C452 C 0.62262 0.93335 0.41766 0.0
C453 C 0.60501 0.94524 0.37315 0.0
C454 C 0.59061 0.97836 0.46797 0.0
H455 H 0.56499 0.98084 0.34274 0.0
H456 H 0.58452 -0.00917 0.50466 0.0
C457 C 0.56419 0.06203 0.56915 0.0
C458 C 0.43245 0.90352 0.60593 0.0
N459 N 0.42675 0.00358 0.55872 0.0
C460 C 0.4409 0.04872 0.56908 0.0
C461 C 0.40934 0.06936 0.57113 0.0
C462 C 0.36301 0.04322 0.56364 0.0
C463 C 0.3491 -0.00331 0.55276 0.0
C464 C 0.38187 0.97742 0.55055 0.0
C465 C 0.5759 0.08333 0.36951 0.0
O466 O 0.47076 0.96338 0.4676 0.0
O467 O 0.46604 0.95852 0.38502 0.0
O468 O 0.5426 0.04429 0.52151 0.0
O469 O 0.54819 0.0427 0.60272 0.0
O470 O 0.43505 0.89494 0.55887 0.0
O471 O 0.45184 0.94414 0.63211 0.0
O472 O 0.59262 0.08746 0.4176 0.0
O473 O 0.53537 0.05552 0.34849 0.0
H474 H 0.4769 0.06877 0.57773 0.0
H475 H 0.37173 0.94166 0.54392 0.0
H476 H 0.54674 0.84813 0.49575 0.0
H477 H 0.61874 0.92744 0.65268 0.0
H478 H 0.41241 0.09971 0.33761 0.0
H479 H 0.46038 0.154 0.50473 0.0
H480 H 0.62895 0.94241 0.50043 0.0
H481 H 0.60971 0.93244 0.3355 0.0
H482 H 0.42124 0.10547 0.58109 0.0
H483 H 0.31377 0.97579 0.54827 0.0
C484 C 0.18365 0.11224 0.27195 0.0
C485 C 0.19768 0.15964 0.28771 0.0
C486 C 0.1722 0.15373 0.36678 0.0
C487 C 0.15995 0.10686 0.3532 0.0
N488 N 0.16565 0.04294 0.29942 0.0
N489 N 0.22787 0.22223 0.36466 0.0
C490 C 0.16916 0.08636 0.30765 0.0
C491 C 0.19949 0.17951 0.33968 0.0
N492 N 0.18455 0.09182 0.22356 0.0
N493 N 0.15543 0.17411 0.40274 0.0
H494 H 0.2515 0.24214 0.34878 0.0
H495 H 0.23194 0.23557 0.40424 0.0
H496 H 0.13042 0.15687 0.4195 0.0
H497 H 0.1618 0.20821 0.4102 0.0
H498 H 0.16894 0.05746 0.20764 0.0
H499 H 0.20034 0.10916 0.19884 0.0
H500 H 0.17612 0.02743 0.26953 0.0
H501 H 0.15657 0.02373 0.32566 0.0
C502 C 0.92412 0.20059 0.3304 0.0
C503 C 0.87964 0.16919 0.30304 0.0
C504 C 0.89646 0.10927 0.33379 0.0
C505 C 0.94043 0.14089 0.36208 0.0
N506 N 0.99525 0.21641 0.39422 0.0
N507 N 0.821 0.09528 0.2811 0.0
C508 C 0.95406 0.18657 0.36239 0.0
C509 C 0.86497 0.124 0.30568 0.0
N510 N 0.93762 0.24365 0.32575 0.0
N511 N 0.88575 0.06495 0.3322 0.0
H512 H 0.79801 0.10356 0.25601 0.0
H513 H 0.80637 0.06365 0.28694 0.0
H514 H 0.90709 0.05319 0.35464 0.0
H515 H 0.85677 0.03935 0.30708 0.0
H516 H 0.97117 0.26663 0.33934 0.0
H517 H 0.91565 0.25646 0.30627 0.0
H518 H 0.0058 0.25087 0.40032 0.0
H519 H 0.01803 0.20688 0.41794 0.0
C520 C 0.85757 0.86435 0.36919 0.0
C521 C 0.84893 0.86503 0.31545 0.0
C522 C 0.90711 0.94085 0.33883 0.0
C523 C 0.91881 0.93641 0.39052 0.0
N524 N 0.88481 0.9103 0.45733 0.0
N525 N 0.84903 0.91306 0.25648 0.0
C526 C 0.88659 0.90392 0.40644 0.0
C527 C 0.86837 0.90635 0.30244 0.0
N528 N 0.84222 0.8264 0.38574 0.0
N529 N 0.93238 0.97697 0.32413 0.0
H530 H 0.81874 0.88959 0.23085 0.0
H531 H 0.85968 0.94368 0.24697 0.0
H532 H 0.95538 0.00623 0.35084 0.0
H533 H 0.92939 0.97815 0.2852 0.0
H534 H 0.85331 0.82535 0.4243 0.0
H535 H 0.82086 0.79558 0.36189 0.0
H536 H 0.85892 0.88879 0.46969 0.0
H537 H 0.90618 0.93957 0.48531 0.0
C538 C 0.20111 0.85335 0.41445 0.0
C539 C 0.22065 0.86926 0.37505 0.0
C540 C 0.20122 0.935 0.39255 0.0
C541 C 0.17574 0.91558 0.42642 0.0
N542 N 0.14902 0.85644 0.46864 0.0
N543 N 0.24082 0.92421 0.32559 0.0
C544 C 0.17556 0.87509 0.43782 0.0
C545 C 0.22231 0.91046 0.36473 0.0
N546 N 0.2071 0.81738 0.42914 0.0
N547 N 0.20387 0.97609 0.38571 0.0
H548 H 0.25781 0.90768 0.30536 0.0
H549 H 0.23774 0.95077 0.3111 0.0
H550 H 0.18589 -0.00611 0.40179 0.0
H551 H 0.22596 -0.00586 0.36643 0.0
H552 H 0.19734 0.80654 0.46094 0.0
H553 H 0.22559 0.80062 0.41214 0.0
H554 H 0.14325 0.82446 0.47367 0.0
H555 H 0.13021 0.872 0.48679 0.0
C556 C 0.15079 0.85579 0.7155 0.0
C557 C 0.19053 0.85686 0.69931 0.0
C558 C 0.19176 0.92001 0.6634 0.0
C559 C 0.14711 0.91239 0.66975 0.0
N560 N 0.08043 0.86767 0.69417 0.0
N561 N 0.24893 0.88796 0.65579 0.0
C562 C 0.12566 0.87932 0.69446 0.0
C563 C 0.21181 0.88898 0.67357 0.0
N564 N 0.13719 0.83235 0.75093 0.0
N565 N 0.21421 0.95619 0.64665 0.0
H566 H 0.26446 0.86531 0.66211 0.0
H567 H 0.26237 0.90744 0.6315 0.0
H568 H 0.19963 0.97903 0.63812 0.0
H569 H 0.24838 0.96559 0.6456 0.0
H570 H 0.1103 0.83373 0.76708 0.0
H571 H 0.15596 0.81568 0.76855 0.0
H572 H 0.06258 0.84011 0.70658 0.0
H573 H 0.05932 0.88242 0.67709 0.0
C574 C 0.15015 0.08898 0.70152 0.0
C575 C 0.13653 0.12227 0.72494 0.0
C576 C 0.07751 0.10774 0.64639 0.0
C577 C 0.09472 0.078 0.62005 0.0
N578 N 0.1491 0.04173 0.62177 0.0
N579 N 0.0763 0.14899 0.73006 0.0
C580 C 0.13087 0.06817 0.64774 0.0
C581 C 0.09591 0.12619 0.7008 0.0
N582 N 0.18179 0.07786 0.73132 0.0
N583 N 0.04749 0.12213 0.61887 0.0
H584 H 0.09067 0.16298 0.77014 0.0
H585 H 0.0444 0.15027 0.71567 0.0
H586 H 0.0336 0.10976 0.57872 0.0
H587 H 0.03829 0.1479 0.63558 0.0
H588 H 0.19152 0.05146 0.71814 0.0
H589 H 0.19474 0.09311 0.77117 0.0
H590 H 0.18066 0.04036 0.63719 0.0
H591 H 0.13244 0.0217 0.58428 0.0
C592 C 0.84513 0.10139 0.64985 0.0
C593 C 0.86907 0.14797 0.67139 0.0
C594 C 0.9215 0.15014 0.61565 0.0
C595 C 0.89874 0.10358 0.59657 0.0
N596 N 0.83218 0.03702 0.58059 0.0
N597 N 0.92467 0.2187 0.66993 0.0
C598 C 0.85779 0.0801 0.60835 0.0
C599 C 0.90528 0.17318 0.65221 0.0
N600 N 0.81145 0.07729 0.66988 0.0
N601 N 0.96005 0.17127 0.60089 0.0
H602 H 0.91669 0.23658 0.70039 0.0
H603 H 0.94762 0.23913 0.6534 0.0
H604 H 0.97076 0.15472 0.57193 0.0
H605 H 0.98178 0.20437 0.61755 0.0
H606 H 0.79655 0.04258 0.65927 0.0
H607 H 0.80023 0.09131 0.69999 0.0
H608 H 0.79985 0.01889 0.58416 0.0
H609 H 0.84158 0.02089 0.55003 0.0
C610 C 0.88946 0.82786 0.68229 0.0
C611 C 0.85518 0.84188 0.69769 0.0
C612 C 0.87056 0.8981 0.64651 0.0
C613 C 0.90273 0.88201 0.62862 0.0
N614 N 0.93846 0.8279 0.62305 0.0
N615 N 0.81134 0.88872 0.69369 0.0
C616 C 0.91066 0.84559 0.64439 0.0
C617 C 0.84535 0.87669 0.67965 0.0
N618 N 0.90345 0.79928 0.70606 0.0
N619 N 0.86464 0.93426 0.63218 0.0
H620 H 0.79485 0.87593 0.72081 0.0
H621 H 0.79815 0.9098 0.67735 0.0
H622 H 0.88 0.94868 0.60514 0.0
H623 H 0.84588 0.95114 0.64811 0.0
H624 H 0.93122 0.79095 0.70052 0.0
H625 H 0.88994 0.7869 0.73529 0.0
H626 H 0.94178 0.79834 0.6284 0.0
H627 H 0.9556 0.84086 0.59643 0.0
C628 C 0.3176 0.13011 0.18493 0.0
C629 C 0.31554 0.16447 0.15961 0.0
C630 C 0.36753 0.14732 0.10873 0.0
C631 C 0.36716 0.11136 0.13182 0.0
N632 N 0.3339 0.0628 0.18369 0.0
N633 N 0.33445 0.20206 0.0926 0.0
C634 C 0.33996 0.10122 0.16764 0.0
C635 C 0.33895 0.1716 0.1197 0.0
N636 N 0.29885 0.12534 0.22643 0.0
N637 N 0.39704 0.1598 0.07829 0.0
H638 H 0.3163 0.22209 0.10158 0.0
H639 H 0.3459 0.20534 0.0591 0.0
H640 H 0.41857 0.1432 0.06971 0.0
H641 H 0.40311 0.18865 0.06498 0.0
H642 H 0.30491 0.10559 0.25113 0.0
H643 H 0.27944 0.14322 0.23847 0.0
H644 H 0.31039 0.05073 0.20488 0.0
H645 H 0.34925 0.04061 0.17174 0.0
C646 C 0.85369 0.38817 0.19603 0.0
C647 C 0.85905 0.34639 0.18562 0.0
C648 C 0.93395 0.38351 0.17114 0.0
C649 C 0.92263 0.42113 0.16778 0.0
N650 N 0.87408 0.46214 0.18039 0.0
N651 N 0.90424 0.30381 0.16058 0.0
C652 C 0.88335 0.42455 0.18182 0.0
C653 C 0.89964 0.34399 0.17346 0.0
N654 N 0.82174 0.39355 0.22126 0.0
N655 N 0.97717 0.38543 0.17119 0.0
H656 H 0.879 0.27357 0.1593 0.0
H657 H 0.93125 0.30005 0.14627 0.0
H658 H 1.00302 0.41448 0.17023 0.0
H659 H 0.9884 0.36006 0.17814 0.0
H660 H 0.81924 0.42434 0.23377 0.0
H661 H 0.80107 0.36831 0.23485 0.0
H662 H 0.84329 0.46476 0.18452 0.0
H663 H 0.89697 0.49015 0.173 0.0
C664 C 0.65692 0.8188 0.1227 0.0
C665 C 0.68746 0.83361 0.17364 0.0
C666 C 0.65317 0.88905 0.19689 0.0
C667 C 0.6261 0.87741 0.14467 0.0
N668 N 0.61342 0.83937 0.05462 0.0
N669 N 0.72358 0.89346 0.25252 0.0
C670 C 0.63149 0.84484 0.10653 0.0
C671 C 0.6884 0.87212 0.20854 0.0
N672 N 0.64957 0.77869 0.09052 0.0
N673 N 0.64395 0.91428 0.23634 0.0
H674 H 0.75123 0.8836 0.26146 0.0
H675 H 0.72788 0.92395 0.2765 0.0
H676 H 0.61671 0.92509 0.23052 0.0
H677 H 0.66016 0.92001 0.27562 0.0
H678 H 0.62408 0.76455 0.0555 0.0
H679 H 0.66532 0.7574 0.1011 0.0
H680 H 0.6198 0.81882 0.02517 0.0
H681 H 0.59648 0.85903 0.04096 0.0
C682 C 0.1618 0.63383 0.14039 0.0
C683 C 0.16543 0.67784 0.13823 0.0
C684 C 0.1159 0.64638 0.04891 0.0
C685 C 0.11409 0.60358 0.05385 0.0
N686 N 0.15735 0.56371 0.08966 0.0
N687 N 0.15792 0.72645 0.08136 0.0
C688 C 0.14685 0.60085 0.09363 0.0
C689 C 0.14641 0.68468 0.08951 0.0
N690 N 0.16498 0.62133 0.1862 0.0
N691 N 0.08818 0.65015 0.0066 0.0
H692 H 0.18231 0.75467 0.10868 0.0
H693 H 0.14697 0.73226 0.04528 0.0
H694 H 0.06907 0.62277 0.97491 0.0
H695 H 0.08407 0.67991 0.00362 0.0
H696 H 0.16068 0.58867 0.18783 0.0
H697 H 0.16289 0.64088 0.21982 0.0
H698 H 0.18142 0.56064 0.11914 0.0
H699 H 0.14517 0.53895 0.0546 0.0
C700 C 0.34791 0.80397 0.9043 0.0
C701 C 0.30745 0.80943 0.88177 0.0
C702 C 0.34498 0.89024 0.915 0.0
C703 C 0.3877 0.88513 0.92705 0.0
N704 N 0.43027 0.83806 0.94109 0.0
N705 N 0.26217 0.8542 0.89371 0.0
C706 C 0.38918 0.84219 0.92549 0.0
C707 C 0.30407 0.85153 0.89624 0.0
N708 N 0.34572 0.76225 0.90683 0.0
N709 N 0.34382 0.93183 0.91819 0.0
H710 H 0.23247 0.82578 0.88537 0.0
H711 H 0.25764 0.88385 0.90684 0.0
H712 H 0.37324 0.96078 0.93252 0.0
H713 H 0.31427 0.93745 0.90409 0.0
H714 H 0.3728 0.75548 0.92644 0.0
H715 H 0.31445 0.73523 0.89426 0.0
H716 H 0.43451 0.80762 0.93583 0.0
H717 H 0.46058 0.86573 0.95849 0.0
C718 C 0.20632 0.37812 0.91526 0.0
C719 C 0.18391 0.33334 0.88518 0.0
C720 C 0.11078 0.34347 0.8694 0.0
C721 C 0.13405 0.38972 0.8937 0.0
N722 N 0.20563 0.4528 0.9311 0.0
N723 N 0.11619 0.27671 0.82259 0.0
C724 C 0.18233 0.40761 0.91471 0.0
C725 C 0.13648 0.31671 0.85941 0.0
N726 N 0.2506 0.39243 0.94411 0.0
N727 N 0.06405 0.32453 0.8572 0.0
H728 H 0.13311 0.25577 0.81197 0.0
H729 H 0.08324 0.26623 0.79848 0.0
H730 H 0.0435 0.34249 0.86452 0.0
H731 H 0.04594 0.29013 0.84499 0.0
H732 H 0.26747 0.42354 0.97072 0.0
H733 H 0.26903 0.3715 0.94494 0.0
H734 H 0.24122 0.46774 0.94198 0.0
H735 H 0.18968 0.47568 0.9289 0.0
C736 C 0.6416 0.11919 0.78935 0.0
C737 C 0.68693 0.13166 0.82021 0.0
C738 C 0.65871 0.09161 0.88288 0.0
C739 C 0.61323 0.07783 0.85118 0.0
N740 N 0.56133 0.07325 0.77096 0.0
N741 N 0.73997 0.12229 0.88854 0.0
C742 C 0.60472 0.08948 0.80302 0.0
C743 C 0.69588 0.11537 0.86449 0.0
N744 N 0.63355 0.13774 0.74864 0.0
N745 N 0.6666 0.08307 0.93103 0.0
H746 H 0.76793 0.13992 0.87585 0.0
H747 H 0.74859 0.1072 0.91774 0.0
H748 H 0.64119 0.06408 0.94585 0.0
H749 H 0.6983 0.09753 0.95831 0.0
H750 H 0.60116 0.13453 0.72863 0.0
H751 H 0.65963 0.15901 0.73676 0.0
H752 H 0.55421 0.07494 0.73217 0.0
H753 H 0.53218 0.05619 0.78199 0.0
C754 C 0.90106 0.71016 0.87607 0.0
C755 C 0.85945 0.70817 0.88932 0.0
C756 C 0.85257 0.63903 0.91578 0.0
C757 C 0.89489 0.64209 0.90464 0.0
N758 N 0.96453 0.68532 0.88527 0.0
N759 N 0.80213 0.67766 0.93369 0.0
C760 C 0.92099 0.67949 0.88897 0.0
C761 C 0.83761 0.67497 0.91356 0.0
N762 N 0.91966 0.73833 0.84703 0.0
N763 N 0.82556 0.60089 0.92565 0.0
H764 H 0.79078 0.70396 0.93252 0.0
H765 H 0.78734 0.6567 0.95595 0.0
H766 H 0.83446 0.57303 0.92458 0.0
H767 H 0.79251 0.59519 0.92966 0.0
H768 H 0.9456 0.73588 0.82969 0.0
H769 H 0.90766 0.76225 0.83669 0.0
H770 H 0.98694 0.71472 0.88024 0.0
H771 H 0.97969 0.66233 0.89118 0.0
C772 C 0.1052 0.29418 0.12986 0.0
C773 C 0.12838 0.28124 0.09348 0.0
C774 C 0.10172 0.32302 0.03648 0.0
C775 C 0.08445 0.34105 0.07629 0.0
N776 N 0.07596 0.34927 0.16447 0.0
N777 N 0.1524 0.28588 0.0142 0.0
C778 C 0.08755 0.32789 0.12392 0.0
C779 C 0.12733 0.29603 0.04705 0.0
N780 N 0.10047 0.27446 0.17039 0.0
N781 N 0.09308 0.33107 0.98834 0.0
H782 H 0.16987 0.26458 0.01986 0.0
H783 H 0.15777 0.30035 0.98317 0.0
H784 H 0.07613 0.35216 0.97971 0.0
H785 H 0.09935 0.31369 0.95615 0.0
H786 H 0.08076 0.27987 0.19581 0.0
H787 H 0.11242 0.24912 0.17539 0.0
H788 H 0.08207 0.34442 0.20197 0.0
H789 H 0.06419 0.37511 0.1621 0.0
C790 C 0.12031 0.59292 0.74434 0.0
C791 C 0.12909 0.63912 0.7618 0.0
C792 C 0.06029 0.62024 0.79429 0.0
C793 C 0.05888 0.57622 0.78872 0.0
N794 N 0.08522 0.51873 0.75616 0.0
N795 N 0.10752 0.6974 0.80494 0.0
C796 C 0.08757 0.56166 0.76201 0.0
C797 C 0.09843 0.65306 0.786 0.0
N798 N 0.14268 0.57908 0.71024 0.0
N799 N 0.02557 0.63052 0.80891 0.0
H800 H 0.13607 0.72282 0.80191 0.0
H801 H 0.08878 0.70906 0.8277 0.0
H802 H 0.99742 0.60641 0.81501 0.0
H803 H 0.02238 0.66118 0.80957 0.0
H804 H 0.13612 0.54571 0.69404 0.0
H805 H 0.16481 0.60097 0.69413 0.0
H806 H 0.10994 0.50797 0.74459 0.0
H807 H 0.05937 0.49439 0.76522 0.0
C808 C 0.36596 0.17772 0.83727 0.0
C809 C 0.31843 0.16176 0.83514 0.0
C810 C 0.32364 0.09257 0.85502 0.0
C811 C 0.37108 0.1082 0.8565 0.0
N812 N 0.43941 0.1697 0.8601 0.0
N813 N 0.2564 0.11098 0.85851 0.0
C814 C 0.39278 0.15199 0.85074 0.0
C815 C 0.2986 0.12118 0.84894 0.0
N816 N 0.38551 0.2176 0.82604 0.0
N817 N 0.30198 0.0497 0.85748 0.0
H818 H 0.2387 0.13251 0.85677 0.0
H819 H 0.24129 0.084 0.8733 0.0
H820 H 0.31902 0.02794 0.86217 0.0
H821 H 0.26662 0.03463 0.8508 0.0
H822 H 0.41766 0.22851 0.81863 0.0
H823 H 0.36876 0.23969 0.82359 0.0
H824 H 0.45812 0.20289 0.86213 0.0
H825 H 0.46007 0.15206 0.87002 0.0
C826 C 0.91695 0.30865 0.91539 0.0
C827 C 0.86953 0.29352 0.91117 0.0
C828 C 0.87512 0.36888 0.94802 0.0
C829 C 0.91915 0.3849 0.93864 0.0
N830 N 0.98822 0.37241 0.93453 0.0
N831 N 0.81017 0.30338 0.94787 0.0
C832 C 0.94225 0.35533 0.92937 0.0
C833 C 0.8511 0.32196 0.93662 0.0
N834 N 0.93673 0.27835 0.90418 0.0
N835 N 0.85579 0.39814 0.96491 0.0
H836 H 0.79313 0.26873 0.93845 0.0
H837 H 0.79486 0.32151 0.96866 0.0
H838 H 0.87343 0.43246 0.97402 0.0
H839 H 0.82265 0.38859 0.96957 0.0
H840 H 0.97049 0.28647 0.90206 0.0
H841 H 0.91913 0.2443 0.89918 0.0
H842 H 0.00812 0.35341 0.93014 0.0
H843 H 0.00706 0.40647 0.94843 0.0
C844 C 0.67614 0.85745 0.7794 0.0
C845 C 0.68942 0.82774 0.80574 0.0
C846 C 0.6483 0.84472 0.87164 0.0
C847 C 0.6315 0.87061 0.84218 0.0
N848 N 0.62363 0.89538 0.76293 0.0
N849 N 0.67878 0.78626 0.87183 0.0
C850 C 0.64354 0.87485 0.79445 0.0
C851 C 0.67325 0.81975 0.85076 0.0
N852 N 0.69661 0.87135 0.74167 0.0
N853 N 0.64038 0.84381 0.91979 0.0
H854 H 0.69461 0.7656 0.85704 0.0
H855 H 0.66328 0.77566 0.90063 0.0
H856 H 0.6203 0.85946 0.93515 0.0
H857 H 0.65644 0.83035 0.94603 0.0
H858 H 0.69175 0.89615 0.72461 0.0
H859 H 0.72245 0.8619 0.73139 0.0
H860 H 0.62587 0.89374 0.72451 0.0
H861 H 0.60172 0.91083 0.77346 0.0
C862 C 0.86075 0.68949 0.07652 0.0
C863 C 0.81732 0.67128 0.08624 0.0
C864 C 0.82322 0.5981 0.0772 0.0
C865 C 0.86956 0.61785 0.07575 0.0
N866 N 0.93325 0.68216 0.0739 0.0
N867 N 0.74964 0.60553 0.06936 0.0
C868 C 0.88844 0.66342 0.0746 0.0
C869 C 0.79608 0.62452 0.07808 0.0
N870 N 0.87411 0.73049 0.06615 0.0
N871 N 0.80608 0.55505 0.08136 0.0
H872 H 0.72907 0.62433 0.06607 0.0
H873 H 0.73127 0.5712 0.05904 0.0
H874 H 0.82508 0.53467 0.08201 0.0
H875 H 0.77425 0.5406 0.08852 0.0
H876 H 0.90395 0.74458 0.05478 0.0
H877 H 0.85208 0.7477 0.06198 0.0
H878 H 0.95044 0.7162 0.07887 0.0
H879 H 0.95446 0.66408 0.07185 0.0
C880 C 0.30079 0.86039 0.14513 0.0
C881 C 0.29792 0.81567 0.137 0.0
C882 C 0.3488 0.82828 0.07943 0.0
C883 C 0.36108 0.87498 0.09887 0.0
N884 N 0.34281 0.9358 0.14115 0.0
N885 N 0.29206 0.75475 0.06888 0.0
C886 C 0.33475 0.89118 0.12843 0.0
C887 C 0.31357 0.79848 0.09549 0.0
N888 N 0.26889 0.87209 0.16506 0.0
N889 N 0.37236 0.81235 0.04862 0.0
H890 H 0.26266 0.73414 0.07681 0.0
H891 H 0.29905 0.74122 0.03478 0.0
H892 H 0.3986 0.83294 0.03605 0.0
H893 H 0.36769 0.77871 0.0383 0.0
H894 H 0.26707 0.90354 0.16921 0.0
H895 H 0.24059 0.84827 0.17121 0.0
H896 H 0.32872 0.95033 0.16775 0.0
H897 H 0.36479 0.95872 0.12593 0.0
C898 C 0.66177 0.14997 0.05802 0.0
C899 C 0.69473 0.14139 0.09288 0.0
C900 C 0.64338 0.06277 0.06899 0.0
C901 C 0.60671 0.07472 0.04799 0.0
N902 N 0.581 0.12954 0.0182 0.0
N903 N 0.71686 0.0874 0.13089 0.0
C904 C 0.61597 0.11808 0.04009 0.0
C905 C 0.68613 0.09689 0.0972 0.0
N906 N 0.67453 0.1884 0.04197 0.0
N907 N 0.63714 0.01875 0.06184 0.0
H908 H 0.74895 0.11073 0.15204 0.0
H909 H 0.7092 0.05663 0.14012 0.0
H910 H 0.6062 -0.00657 0.04005 0.0
H911 H 0.66374 0.00783 0.07252 0.0
H912 H 0.65329 0.1942 0.0121 0.0
H913 H 0.70809 0.21185 0.05481 0.0
H914 H 0.58522 0.16216 0.01667 0.0
H915 H 0.54738 0.1065 0.0038 0.0
C916 C 0.64446 0.66954 0.7907 0.0
C917 C 0.67464 0.65564 0.76564 0.0
C918 C 0.66854 0.59748 0.81311 0.0
C919 C 0.63938 0.61205 0.83929 0.0
N920 N 0.60252 0.66411 0.85773 0.0
N921 N 0.70416 0.59885 0.74079 0.0
C922 C 0.62829 0.64887 0.82958 0.0
C923 C 0.68354 0.61744 0.77337 0.0
N924 N 0.62832 0.69985 0.77393 0.0
N925 N 0.6834 0.56579 0.82798 0.0
H926 H 0.71327 0.61148 0.70963 0.0
H927 H 0.70803 0.56862 0.74107 0.0
H928 H 0.6737 0.55116 0.85771 0.0
H929 H 0.70853 0.55701 0.81454 0.0
H930 H 0.60317 0.7089 0.78686 0.0
H931 H 0.63704 0.71314 0.74302 0.0
H932 H 0.59712 0.69356 0.85677 0.0
H933 H 0.58872 0.64882 0.88508 0.0
C934 C 0.39207 0.6705 0.86218 0.0
C935 C 0.34599 0.64121 0.83904 0.0
C936 C 0.35975 0.58069 0.87038 0.0
C937 C 0.40624 0.60935 0.89171 0.0
N938 N 0.46497 0.68325 0.92017 0.0
N939 N 0.28243 0.57396 0.83278 0.0
C940 C 0.42173 0.6551 0.89216 0.0
C941 C 0.3285 0.59819 0.84755 0.0
N942 N 0.40773 0.71226 0.85375 0.0
N943 N 0.34638 0.53624 0.86879 0.0
H944 H 0.25871 0.58559 0.81442 0.0
H945 H 0.26743 0.54407 0.84254 0.0
H946 H 0.36861 0.52241 0.88558 0.0
H947 H 0.31418 0.51264 0.84831 0.0
H948 H 0.44213 0.73308 0.86401 0.0
H949 H 0.38637 0.72578 0.83438 0.0
H950 H 0.47686 0.71777 0.92602 0.0
H951 H 0.48808 0.67253 0.9414 0.0
C952 C 0.40058 0.33524 0.78261 0.0
C953 C 0.36063 0.31852 0.80056 0.0
C954 C 0.39716 0.37895 0.88065 0.0
C955 C 0.43852 0.39339 0.86469 0.0
N956 N 0.4829 0.3712 0.80924 0.0
N957 N 0.32778 0.31938 0.87482 0.0
C958 C 0.44132 0.36719 0.81833 0.0
C959 C 0.36093 0.33886 0.85175 0.0
N960 N 0.3995 0.32279 0.73105 0.0
N961 N 0.39062 0.40354 0.92247 0.0
H962 H 0.29854 0.29257 0.85472 0.0
H963 H 0.33075 0.32858 0.91487 0.0
H964 H 0.4166 0.42922 0.95008 0.0
H965 H 0.35831 0.39877 0.92874 0.0
H966 H 0.42728 0.33698 0.71616 0.0
H967 H 0.36944 0.30324 0.70227 0.0
H968 H 0.48645 0.35032 0.77762 0.0
H969 H 0.51366 0.39081 0.83697 0.0
C970 C 0.67552 0.33236 0.90126 0.0
C971 C 0.71612 0.35059 0.88549 0.0
C972 C 0.72835 0.42497 0.93501 0.0
C973 C 0.68308 0.40798 0.93972 0.0
N974 N 0.61235 0.34637 0.9275 0.0
N975 N 0.78002 0.41521 0.88327 0.0
C976 C 0.65666 0.36168 0.92412 0.0
C977 C 0.74308 0.39707 0.90227 0.0
N978 N 0.65532 0.28731 0.8947 0.0
N979 N 0.75593 0.46835 0.9592 0.0
H980 H 0.79078 0.39669 0.85646 0.0
H981 H 0.79777 0.44945 0.89038 0.0
H982 H 0.74503 0.48975 0.98222 0.0
H983 H 0.79065 0.48154 0.96072 0.0
H984 H 0.62635 0.27251 0.90722 0.0
H985 H 0.67001 0.26496 0.88124 0.0
H986 H 0.58901 0.3143 0.9082 0.0
H987 H 0.59832 0.36699 0.94665 0.0
C988 C 0.61227 0.28166 0.06069 0.0
C989 C 0.61927 0.28875 0.11565 0.0
C990 C 0.55788 0.31719 0.1127 0.0
C991 C 0.551 0.30953 0.05774 0.0
N992 N 0.5588 0.2698 0.97851 0.0
N993 N 0.58954 0.29976 0.19134 0.0
C994 C 0.57368 0.28636 0.03141 0.0
C995 C 0.58916 0.30228 0.14102 0.0
N996 N 0.6444 0.27457 0.03699 0.0
N997 N 0.5361 0.34036 0.13792 0.0
H998 H 0.61087 0.28734 0.21272 0.0
H999 H 0.56546 0.30558 0.20993 0.0
H1000 H 0.51129 0.35 0.11806 0.0
H1001 H 0.54432 0.35187 0.17846 0.0
H1002 H 0.64227 0.27301 -0.00245 0.0
H1003 H 0.67557 0.27532 0.05771 0.0
H1004 H 0.57154 0.24869 0.95797 0.0
H1005 H 0.5304 0.27338 0.95655 0.0
C1006 C 0.66296 0.60293 0.17826 0.0
C1007 C 0.67208 0.64564 0.16798 0.0
C1008 C 0.62425 0.61115 0.07859 0.0
C1009 C 0.61018 0.56934 0.09117 0.0
N1010 N 0.63141 0.52262 0.14228 0.0
N1011 N 0.68128 0.68471 0.09934 0.0
C1012 C 0.63451 0.56432 0.1378 0.0
C1013 C 0.65901 0.64826 0.1155 0.0
N1014 N 0.68155 0.59914 0.22634 0.0
N1015 N 0.60403 0.61654 0.03233 0.0
H1016 H 0.71004 0.71091 0.12274 0.0
H1017 H 0.67595 0.68586 0.06027 0.0
H1018 H 0.58542 0.59037 -0.00018 0.0
H1019 H 0.60632 0.64767 0.02628 0.0
H1020 H 0.67098 0.56977 0.23851 0.0
H1021 H 0.70778 0.62558 0.2543 0.0
H1022 H 0.65108 0.51659 0.17335 0.0
H1023 H 0.61261 0.49418 0.11177 0.0
C1024 C 0.32159 0.62828 0.08325 0.0
C1025 C 0.30855 0.61351 0.12658 0.0
C1026 C 0.32423 0.54651 0.10022 0.0
C1027 C 0.34706 0.5667 0.06515 0.0
N1028 N 0.36559 0.6247 0.01949 0.0
N1029 N 0.29454 0.55782 0.17603 0.0
C1030 C 0.34442 0.60658 0.05466 0.0
C1031 C 0.30785 0.57177 0.13433 0.0
N1032 N 0.31125 0.6625 0.06919 0.0
N1033 N 0.31908 0.5036 0.10107 0.0
H1034 H 0.2817 0.57529 0.20146 0.0
H1035 H 0.29846 0.5302 0.1872 0.0
H1036 H 0.33085 0.4845 0.076 0.0
H1037 H 0.29972 0.48566 0.12286 0.0
H1038 H 0.31637 0.6724 0.0353 0.0
H1039 H 0.29291 0.67768 0.08883 0.0
H1040 H 0.36994 0.65665 0.01512 0.0
H1041 H 0.38047 0.60825 -0.00418 0.0
C1042 C 0.3182 0.32133 0.12175 0.0
C1043 C 0.32403 0.34456 0.17395 0.0
C1044 C 0.37178 0.41334 0.15525 0.0
C1045 C 0.37563 0.38705 0.10962 0.0
N1046 N 0.35278 0.31465 0.04992 0.0
N1047 N 0.34609 0.41584 0.23506 0.0
C1048 C 0.34843 0.34084 0.09256 0.0
C1049 C 0.34766 0.39172 0.18906 0.0
N1050 N 0.28249 0.28183 0.09844 0.0
N1051 N 0.38946 0.45888 0.16483 0.0
H1052 H 0.32267 0.40246 0.25587 0.0
H1053 H 0.36737 0.44901 0.25232 0.0
H1054 H 0.40556 0.47548 0.13967 0.0
H1055 H 0.38483 0.48032 0.19482 0.0
H1056 H 0.27411 0.2666 0.05864 0.0
H1057 H 0.25792 0.26687 0.11667 0.0
H1058 H 0.33775 0.2799 0.03998 0.0
H1059 H 0.37424 0.32704 0.0269 0.0
C1060 C 0.83078 0.62872 0.68735 0.0
C1061 C 0.82989 0.66527 0.66548 0.0
C1062 C 0.88506 0.65205 0.61668 0.0
C1063 C 0.8824 0.61326 0.63503 0.0
N1064 N 0.84388 0.55944 0.67855 0.0
N1065 N 0.85393 0.70905 0.60488 0.0
C1066 C 0.85285 0.60028 0.66783 0.0
C1067 C 0.85599 0.67578 0.62838 0.0
N1068 N 0.81109 0.62106 0.7276 0.0
N1069 N 0.9173 0.66781 0.59042 0.0
H1070 H 0.83674 0.72984 0.61522 0.0
H1071 H 0.86718 0.71456 0.57295 0.0
H1072 H 0.93955 0.65206 0.58202 0.0
H1073 H 0.92491 0.69845 0.58097 0.0
H1074 H 0.8166 0.59948 0.74996 0.0
H1075 H 0.79194 0.63836 0.7415 0.0
H1076 H 0.81867 0.5458 0.69712 0.0
H1077 H 0.85814 0.53701 0.66417 0.0
C1078 C 0.34833 0.79534 0.62078 0.0
C1079 C 0.359 0.80233 0.67578 0.0
C1080 C 0.425 0.86952 0.68284 0.0
C1081 C 0.40818 0.86759 0.62938 0.0
N1082 N 0.3458 0.83179 0.55068 0.0
N1083 N 0.40376 0.85162 0.76035 0.0
C1084 C 0.3679 0.83109 0.59883 0.0
C1085 C 0.39659 0.84071 0.70734 0.0
N1086 N 0.31878 0.75472 0.58951 0.0
N1087 N 0.46847 0.89748 0.70998 0.0
H1088 H 0.38433 0.83153 0.7804 0.0
H1089 H 0.42621 0.88296 0.78342 0.0
H1090 H 0.492 0.9163 0.69261 0.0
H1091 H 0.48279 0.89756 0.74805 0.0
H1092 H 0.31259 0.74693 0.54889 0.0
H1093 H 0.30469 0.72758 0.60467 0.0
H1094 H 0.31411 0.80743 0.52961 0.0
H1095 H 0.35553 0.85918 0.53481 0.0
C1096 C 0.17903 0.32323 0.64116 0.0
C1097 C 0.15923 0.28917 0.66591 0.0
C1098 C 0.09097 0.31007 0.65804 0.0
C1099 C 0.10957 0.34232 0.63067 0.0
N1100 N 0.16807 0.37391 0.58818 0.0
N1101 N 0.09194 0.24428 0.68732 0.0
C1102 C 0.15262 0.34706 0.6198 0.0
C1103 C 0.11388 0.28101 0.6712 0.0
N1104 N 0.22397 0.33475 0.64056 0.0
N1105 N 0.05207 0.3082 0.67331 0.0
H1106 H 0.10701 0.22168 0.69542 0.0
H1107 H 0.05759 0.23374 0.68766 0.0
H1108 H 0.03403 0.32829 0.66405 0.0
H1109 H 0.03977 0.28947 0.69878 0.0
H1110 H 0.24207 0.36259 0.62888 0.0
H1111 H 0.24441 0.31853 0.65565 0.0
H1112 H 0.19647 0.37525 0.57384 0.0
H1113 H 0.15021 0.39218 0.57264 0.0
C1114 C 0.65755 0.17897 0.60625 0.0
C1115 C 0.68996 0.17269 0.64473 0.0
C1116 C 0.64717 0.09182 0.61668 0.0
C1117 C 0.61074 0.09864 0.58552 0.0
N1118 N 0.59143 0.14415 0.53112 0.0
N1119 N 0.72677 0.12188 0.66292 0.0
C1120 C 0.61883 0.14095 0.57413 0.0
C1121 C 0.68825 0.12863 0.64268 0.0
N1122 N 0.66448 0.22076 0.59947 0.0
N1123 N 0.6427 0.04982 0.6209 0.0
H1124 H 0.75796 0.14814 0.67837 0.0
H1125 H 0.72891 0.09056 0.65827 0.0
H1126 H 0.61654 0.02158 0.59571 0.0
H1127 H 0.66443 0.04316 0.64941 0.0
H1128 H 0.63971 0.22902 0.57741 0.0
H1129 H 0.69592 0.24724 0.61549 0.0
H1130 H 0.59584 0.17347 0.51922 0.0
H1131 H 0.56806 0.11588 0.50328 0.0
C1132 C 0.84394 0.31288 0.37453 0.0
C1133 C 0.80592 0.32354 0.35505 0.0
C1134 C 0.8481 0.40153 0.4026 0.0
C1135 C 0.88877 0.39242 0.41328 0.0
N1136 N 0.92555 0.33931 0.41489 0.0
N1137 N 0.76502 0.37122 0.37538 0.0
C1138 C 0.88653 0.34778 0.40208 0.0
C1139 C 0.80562 0.3658 0.377 0.0
N1140 N 0.83802 0.26908 0.36835 0.0
N1141 N 0.85055 0.44461 0.41383 0.0
H1142 H 0.73372 0.34436 0.36204 0.0
H1143 H 0.76256 0.40063 0.39401 0.0
H1144 H 0.88103 0.47146 0.43302 0.0
H1145 H 0.82315 0.45393 0.40124 0.0
H1146 H 0.86316 0.25781 0.38353 0.0
H1147 H 0.80543 0.24428 0.35308 0.0
H1148 H 0.92735 0.3081 0.40359 0.0
H1149 H 0.95692 0.36435 0.43576 0.0
C1150 C 0.64927 0.82712 0.40439 0.0
C1151 C 0.69171 0.84157 0.391 0.0
C1152 C 0.69392 0.91874 0.41101 0.0
C1153 C 0.64782 0.90239 0.41371 0.0
N1154 N 0.58008 0.84021 0.41002 0.0
N1155 N 0.75367 0.90298 0.3783 0.0
C1156 C 0.62521 0.8564 0.41017 0.0
C1157 C 0.71442 0.88802 0.39436 0.0
N1158 N 0.63236 0.7855 0.41264 0.0
N1159 N 0.7182 0.96377 0.42442 0.0
H1160 H 0.7709 0.88319 0.36544 0.0
H1161 H 0.7678 0.9352 0.37381 0.0
H1162 H 0.70392 0.98708 0.43588 0.0
H1163 H 0.75343 0.97785 0.42918 0.0
H1164 H 0.60382 0.77458 0.42742 0.0
H1165 H 0.64994 0.76382 0.41027 0.0
H1166 H 0.56019 0.80626 0.40105 0.0
H1167 H 0.56178 0.8608 0.41563 0.0
C1168 C 0.20685 0.63811 0.374 0.0
C1169 C 0.1951 0.66326 0.33992 0.0
C1170 C 0.11523 0.63463 0.34461 0.0
C1171 C 0.12635 0.60744 0.37603 0.0
N1172 N 0.18084 0.58132 0.42082 0.0
N1173 N 0.14033 0.69174 0.29917 0.0
C1174 C 0.17184 0.6091 0.39157 0.0
C1175 C 0.14999 0.66347 0.32726 0.0
N1176 N 0.25169 0.64331 0.39072 0.0
N1177 N 0.07078 0.63136 0.32952 0.0
H1178 H 0.16246 0.71005 0.28028 0.0
H1179 H 0.11085 0.69896 0.29612 0.0
H1180 H 0.04493 0.61359 0.34489 0.0
H1181 H 0.05854 0.64446 0.30009 0.0
H1182 H 0.26378 0.62919 0.41908 0.0
H1183 H 0.27785 0.66438 0.37831 0.0
H1184 H 0.21202 0.57738 0.4295 0.0
H1185 H 0.15624 0.56028 0.4351 0.0
C1186 C 0.35911 0.20086 0.41982 0.0
C1187 C 0.37722 0.22843 0.38765 0.0
C1188 C 0.44007 0.20119 0.3914 0.0
C1189 C 0.41715 0.16792 0.41507 0.0
N1190 N 0.35468 0.1353 0.45202 0.0
N1191 N 0.43397 0.2537 0.34012 0.0
C1192 C 0.37699 0.16797 0.4302 0.0
C1193 C 0.41801 0.22904 0.37356 0.0
N1194 N 0.32463 0.20633 0.44018 0.0
N1195 N 0.4831 0.20631 0.38634 0.0
H1196 H 0.41989 0.2756 0.32727 0.0
H1197 H 0.45962 0.25056 0.32267 0.0
H1198 H 0.5003 0.18654 0.39919 0.0
H1199 H 0.5034 0.23272 0.37413 0.0
H1200 H 0.31201 0.19002 0.46737 0.0
H1201 H 0.31179 0.23082 0.43358 0.0
H1202 H 0.32268 0.1307 0.45879 0.0
H1203 H 0.36689 0.11087 0.46054 0.0
C1204 C 0.61738 0.78818 0.60441 0.0
C1205 C 0.65879 0.79572 0.58824 0.0
C1206 C 0.65594 0.86515 0.56904 0.0
C1207 C 0.61231 0.85489 0.57941 0.0
N1208 N 0.54756 0.80261 0.59832 0.0
N1209 N 0.71227 0.83666 0.54527 0.0
C1210 C 0.59158 0.81484 0.59372 0.0
C1211 C 0.67614 0.83259 0.56696 0.0
N1212 N 0.60442 0.75869 0.63419 0.0
N1213 N 0.67929 0.90682 0.56428 0.0
H1214 H 0.72765 0.81312 0.54316 0.0
H1215 H 0.72366 0.86065 0.52485 0.0
H1216 H 0.66733 0.93267 0.57079 0.0
H1217 H 0.71275 0.91722 0.56046 0.0
H1218 H 0.57795 0.75674 0.65234 0.0
H1219 H 0.62224 0.73915 0.6456 0.0
H1220 H 0.52914 0.77117 0.60252 0.0
H1221 H 0.52824 0.82247 0.59411 0.0
C1222 C 0.66365 0.18034 0.34335 0.0
C1223 C 0.66441 0.1619 0.29207 0.0
C1224 C 0.60565 0.09118 0.28969 0.0
C1225 C 0.60275 0.11072 0.33995 0.0
N1226 N 0.61819 0.17775 0.40606 0.0
N1227 N 0.62999 0.10388 0.21173 0.0
C1228 C 0.62863 0.1565 0.36439 0.0
C1229 C 0.63332 0.11865 0.26364 0.0
N1230 N 0.69652 0.22032 0.37217 0.0
N1231 N 0.58445 0.04625 0.26788 0.0
H1232 H 0.65121 0.12221 0.1917 0.0
H1233 H 0.60362 0.07517 0.18763 0.0
H1234 H 0.56384 0.02413 0.28484 0.0
H1235 H 0.59042 0.03009 0.23454 0.0
H1236 H 0.70009 0.23295 0.41172 0.0
H1237 H 0.72273 0.23892 0.35787 0.0
H1238 H 0.63358 0.21205 0.42251 0.0
H1239 H 0.59031 0.16213 0.42009 0.0
C1240 C 0.82648 0.63803 0.27499 0.0
C1241 C 0.82324 0.67281 0.31247 0.0
C1242 C 0.8673 0.65047 0.38132 0.0
C1243 C 0.87692 0.62147 0.3429 0.0
N1244 N 0.87261 0.5961 0.25148 0.0
N1245 N 0.84834 0.71592 0.40264 0.0
C1246 C 0.85838 0.6176 0.28927 0.0
C1247 C 0.84554 0.67992 0.36611 0.0
N1248 N 0.79772 0.62286 0.22585 0.0
N1249 N 0.87766 0.64912 0.43245 0.0
H1250 H 0.83403 0.73876 0.39392 0.0
H1251 H 0.86864 0.72541 0.44083 0.0
H1252 H 0.89223 0.62737 0.44496 0.0
H1253 H 0.8674 0.66611 0.46139 0.0
H1254 H 0.79606 0.59514 0.19863 0.0
H1255 H 0.77161 0.63419 0.21448 0.0
H1256 H 0.8637 0.5964 0.21229 0.0
H1257 H 0.8972 0.58224 0.25989 0.0
C1258 C 0.41777 0.81662 0.35715 0.0
C1259 C 0.37232 0.80126 0.36167 0.0
C1260 C 0.38442 0.87391 0.41642 0.0
C1261 C 0.42837 0.89112 0.40736 0.0
N1262 N 0.48976 0.87871 0.37543 0.0
N1263 N 0.32058 0.80744 0.41372 0.0
C1264 C 0.44614 0.86206 0.38033 0.0
C1265 C 0.35829 0.82753 0.39732 0.0
N1266 N 0.43388 0.78749 0.33184 0.0
N1267 N 0.36619 0.90211 0.43925 0.0
H1268 H 0.30467 0.77276 0.40413 0.0
H1269 H 0.30917 0.82419 0.44152 0.0
H1270 H 0.38385 0.93655 0.45173 0.0
H1271 H 0.33238 0.89184 0.44186 0.0
H1272 H 0.46761 0.79543 0.32964 0.0
H1273 H 0.41422 0.75368 0.31624 0.0
H1274 H 0.50284 0.86282 0.34886 0.0
H1275 H 0.51309 0.90926 0.39885 0.0
C1276 C 0.16802 0.32814 0.34658 0.0
C1277 C 0.19249 0.33896 0.30833 0.0
C1278 C 0.16152 0.39822 0.30066 0.0
C1279 C 0.13415 0.38468 0.33545 0.0
N1280 N 0.10653 0.33271 0.38611 0.0
N1281 N 0.20943 0.38232 0.24554 0.0
C1282 C 0.13633 0.34867 0.35714 0.0
C1283 C 0.18821 0.37343 0.28442 0.0
N1284 N 0.175 0.29812 0.37301 0.0
N1285 N 0.16334 0.43592 0.28452 0.0
H1286 H 0.2328 0.36845 0.23599 0.0
H1287 H 0.20233 0.4018 0.22101 0.0
H1288 H 0.14415 0.45464 0.29505 0.0
H1289 H 0.1863 0.45069 0.26401 0.0
H1290 H 0.16255 0.29215 0.4053 0.0
H1291 H 0.19663 0.28179 0.36513 0.0
H1292 H 0.10228 0.30344 0.39815 0.0
H1293 H 0.08296 0.34672 0.39458 0.0
C1294 C 0.31774 0.11717 0.64226 0.0
C1295 C 0.28332 0.12067 0.60348 0.0
C1296 C 0.2986 0.06984 0.53667 0.0
C1297 C 0.33143 0.06545 0.57648 0.0
N1298 N 0.36215 0.07407 0.6681 0.0
N1299 N 0.23885 0.09928 0.51439 0.0
C1300 C 0.33773 0.0857 0.62954 0.0
C1301 C 0.27293 0.09647 0.55069 0.0
N1302 N 0.33337 0.14572 0.6909 0.0
N1303 N 0.29259 0.04897 0.48579 0.0
H1304 H 0.22084 0.11958 0.5238 0.0
H1305 H 0.22709 0.08062 0.47572 0.0
H1306 H 0.31009 0.02856 0.47489 0.0
H1307 H 0.27181 0.05295 0.45405 0.0
H1308 H 0.36187 0.14802 0.7187 0.0
H1309 H 0.32132 0.17074 0.70145 0.0
H1310 H 0.36333 0.08396 0.7075 0.0
H1311 H 0.37719 0.05069 0.66042 0.0
C1312 C 0.85294 0.31567 0.65161 0.0
C1313 C 0.85062 0.33397 0.70239 0.0
C1314 C 0.89078 0.40894 0.69386 0.0
C1315 C 0.9 0.38977 0.64764 0.0
N1316 N 0.89803 0.32378 0.58879 0.0
N1317 N 0.87366 0.39818 0.77566 0.0
C1318 C 0.88329 0.34281 0.62801 0.0
C1319 C 0.87103 0.38075 0.72466 0.0
N1320 N 0.82497 0.27291 0.62499 0.0
N1321 N 0.89965 0.45369 0.70756 0.0
H1322 H 0.86168 0.3786 0.80054 0.0
H1323 H 0.89182 0.43175 0.79462 0.0
H1324 H 0.91267 0.47516 0.6849 0.0
H1325 H 0.88943 0.46854 0.73819 0.0
H1326 H 0.82301 0.25958 0.58609 0.0
H1327 H 0.79983 0.25269 0.63943 0.0
H1328 H 0.88997 0.28947 0.57719 0.0
H1329 H 0.92222 0.34214 0.57182 0.0
C1330 C 0.19441 0.60185 0.57787 0.0
C1331 C 0.19692 0.64557 0.59752 0.0
C1332 C 0.11511 0.62234 0.55638 0.0
C1333 C 0.11101 0.57733 0.5516 0.0
N1334 N 0.14685 0.52339 0.55578 0.0
N1335 N 0.16453 0.7011 0.59106 0.0
C1336 C 0.15079 0.56671 0.56051 0.0
C1337 C 0.15871 0.65704 0.58098 0.0
N1338 N 0.2334 0.59421 0.57545 0.0
N1339 N 0.07711 0.63143 0.53944 0.0
H1340 H 0.19703 0.72623 0.60643 0.0
H1341 H 0.1382 0.71287 0.58391 0.0
H1342 H 0.04509 0.60618 0.52162 0.0
H1343 H 0.07737 0.66331 0.54027 0.0
H1344 H 0.23324 0.56313 0.5582 0.0
H1345 H 0.26508 0.6204 0.58425 0.0
H1346 H 0.17463 0.51434 0.56752 0.0
H1347 H 0.11533 0.49669 0.54294 0.0
loop_
_geom_bond_atom_site_label_1
_geom_bond_atom_site_label_2
_geom_bond_distance
_geom_bond_site_symmetry_2
_ccdc_geom_bond_type
Dy0 O4 2.398 . S
Dy0 O5 2.491 . S
Dy0 O6 2.403 . S
Dy0 O7 2.664 . S
Dy0 O11 2.326 . S
Dy0 O15 2.310 . S
Dy0 O16 2.351 . S
C1 O12 1.185 . S
C1 O13 1.355 . S
C2 O4 1.185 . S
C2 O5 1.355 . S
Dy3 O7 2.310 . S
Dy3 O10 2.351 . S
Dy3 O12 2.398 . S
Dy3 O13 2.491 . S
Dy3 O14 2.403 . S
Dy3 O15 2.664 . S
Dy3 O17 2.326 . S
O4 Dy0 2.398 . S
O4 C2 1.185 . S
O5 Dy0 2.491 . S
O5 C2 1.355 . S
O6 Dy0 2.403 . S
O6 C8 1.254 . S
O7 Dy0 2.664 . S
O7 Dy3 2.310 . S
O7 C8 1.268 . S
C8 O6 1.254 . S
C8 O7 1.268 . S
C9 O14 1.254 . S
C9 O15 1.268 . S
O10 Dy3 2.351 . S
O10 C18 1.249 . S
O11 Dy0 2.326 . S
O11 C18 1.267 . S
O12 C1 1.185 . S
O12 Dy3 2.398 . S
O13 C1 1.355 . S
O13 Dy3 2.491 . S
O14 Dy3 2.403 . S
O14 C9 1.254 . S
O15 Dy0 2.310 . S
O15 Dy3 2.664 . S
O15 C9 1.268 . S
O16 Dy0 2.351 . S
O16 C19 1.249 . S
O17 Dy3 2.326 . S
O17 C19 1.267 . S
C18 O10 1.249 . S
C18 O11 1.267 . S
C19 O16 1.249 . S
C19 O17 1.267 . S
Dy20 O24 2.398 . S
Dy20 O25 2.491 . S
Dy20 O26 2.403 . S
Dy20 O27 2.664 . S
Dy20 O31 2.326 . S
Dy20 O35 2.310 . S
Dy20 O36 2.351 . S
C21 O32 1.185 . S
C21 O33 1.355 . S
C22 O24 1.185 . S
C22 O25 1.355 . S
Dy23 O27 2.310 . S
Dy23 O30 2.351 . S
Dy23 O32 2.398 . S
Dy23 O33 2.491 . S
Dy23 O34 2.403 . S
Dy23 O35 2.664 . S
Dy23 O37 2.326 . S
O24 Dy20 2.398 . S
O24 C22 1.185 . S
O25 Dy20 2.491 . S
O25 C22 1.355 . S
O26 Dy20 2.403 . S
O26 C28 1.254 . S
O27 Dy20 2.664 . S
O27 Dy23 2.310 . S
O27 C28 1.268 . S
C28 O26 1.254 . S
C28 O27 1.268 . S
C29 O34 1.254 . S
C29 O35 1.268 . S
O30 Dy23 2.351 . S
O30 C38 1.249 . S
O31 Dy20 2.326 . S
O31 C38 1.267 . S
O32 C21 1.185 . S
O32 Dy23 2.398 . S
O33 C21 1.355 . S
O33 Dy23 2.491 . S
O34 Dy23 2.403 . S
O34 C29 1.254 . S
O35 Dy20 2.310 . S
O35 Dy23 2.664 . S
O35 C29 1.268 . S
O36 Dy20 2.351 . S
O36 C39 1.249 . S
O37 Dy23 2.326 . S
O37 C39 1.267 . S
C38 O30 1.249 . S
C38 O31 1.267 . S
C39 O36 1.249 . S
C39 O37 1.267 . S
Dy40 O44 2.398 . S
Dy40 O45 2.491 . S
Dy40 O46 2.403 . S
Dy40 O47 2.664 . S
Dy40 O51 2.326 . S
Dy40 O55 2.310 . S
Dy40 O56 2.351 . S
C41 O52 1.185 . S
C41 O53 1.355 . S
C42 O44 1.185 . S
C42 O45 1.355 . S
Dy43 O47 2.310 . S
Dy43 O50 2.351 . S
Dy43 O52 2.398 . S
Dy43 O53 2.491 . S
Dy43 O54 2.403 . S
Dy43 O55 2.664 . S
Dy43 O57 2.326 . S
O44 Dy40 2.398 . S
O44 C42 1.185 . S
O45 Dy40 2.491 . S
O45 C42 1.355 . S
O46 Dy40 2.403 . S
O46 C48 1.254 . S
O47 Dy40 2.664 . S
O47 Dy43 2.310 . S
O47 C48 1.268 . S
C48 O46 1.254 . S
C48 O47 1.268 . S
C49 O54 1.254 . S
C49 O55 1.268 . S
O50 Dy43 2.351 . S
O50 C58 1.249 . S
O51 Dy40 2.326 . S
O51 C58 1.267 . S
O52 C41 1.185 . S
O52 Dy43 2.398 . S
O53 C41 1.355 . S
O53 Dy43 2.491 . S
O54 Dy43 2.403 . S
O54 C49 1.254 . S
O55 Dy40 2.310 . S
O55 Dy43 2.664 . S
O55 C49 1.268 . S
O56 Dy40 2.351 . S
O56 C59 1.249 . S
O57 Dy43 2.326 . S
O57 C59 1.267 . S
C58 O50 1.249 . S
C58 O51 1.267 . S
C59 O56 1.249 . S
C59 O57 1.267 . S
Dy60 O64 2.398 . S
Dy60 O65 2.491 . S
Dy60 O66 2.403 . S
Dy60 O67 2.664 . S
Dy60 O71 2.326 . S
Dy60 O75 2.310 . S
Dy60 O76 2.351 . S
C61 O72 1.185 . S
C61 O73 1.355 . S
C62 O64 1.185 . S
C62 O65 1.355 . S
Dy63 O67 2.310 . S
Dy63 O70 2.351 . S
Dy63 O72 2.398 . S
Dy63 O73 2.491 . S
Dy63 O74 2.403 . S
Dy63 O75 2.664 . S
Dy63 O77 2.326 . S
O64 Dy60 2.398 . S
O64 C62 1.185 . S
O65 Dy60 2.491 . S
O65 C62 1.355 . S
O66 Dy60 2.403 . S
O66 C68 1.254 . S
O67 Dy60 2.664 . S
O67 Dy63 2.310 . S
O67 C68 1.268 . S
C68 O66 1.254 . S
C68 O67 1.268 . S
C69 O74 1.254 . S
C69 O75 1.268 . S
O70 Dy63 2.351 . S
O70 C78 1.249 . S
O71 Dy60 2.326 . S
O71 C78 1.267 . S
O72 C61 1.185 . S
O72 Dy63 2.398 . S
O73 C61 1.355 . S
O73 Dy63 2.491 . S
O74 Dy63 2.403 . S
O74 C69 1.254 . S
O75 Dy60 2.310 . S
O75 Dy63 2.664 . S
O75 C69 1.268 . S
O76 Dy60 2.351 . S
O76 C79 1.249 . S
O77 Dy63 2.326 . S
O77 C79 1.267 . S
C78 O70 1.249 . S
C78 O71 1.267 . S
C79 O76 1.249 . S
C79 O77 1.267 . S
Dy80 O84 2.398 . S
Dy80 O85 2.491 . S
Dy80 O86 2.403 . S
Dy80 O87 2.664 . S
Dy80 O91 2.326 . S
Dy80 O95 2.310 . S
Dy80 O96 2.351 . S
C81 O92 1.185 . S
C81 O93 1.355 . S
C82 O84 1.185 . S
C82 O85 1.355 . S
Dy83 O87 2.310 . S
Dy83 O90 2.351 . S
Dy83 O92 2.398 . S
Dy83 O93 2.491 . S
Dy83 O94 2.403 . S
Dy83 O95 2.664 . S
Dy83 O97 2.326 . S
O84 Dy80 2.398 . S
O84 C82 1.185 . S
O85 Dy80 2.491 . S
O85 C82 1.355 . S
O86 Dy80 2.403 . S
O86 C88 1.254 . S
O87 Dy80 2.664 . S
O87 Dy83 2.310 . S
O87 C88 1.268 . S
C88 O86 1.254 . S
C88 O87 1.268 . S
C89 O94 1.254 . S
C89 O95 1.268 . S
O90 Dy83 2.351 . S
O90 C98 1.249 . S
O91 Dy80 2.326 . S
O91 C98 1.267 . S
O92 C81 1.185 . S
O92 Dy83 2.398 . S
O93 C81 1.355 . S
O93 Dy83 2.491 . S
O94 Dy83 2.403 . S
O94 C89 1.254 . S
O95 Dy80 2.310 . S
O95 Dy83 2.664 . S
O95 C89 1.268 . S
O96 Dy80 2.351 . S
O96 C99 1.249 . S
O97 Dy83 2.326 . S
O97 C99 1.267 . S
C98 O90 1.249 . S
C98 O91 1.267 . S
C99 O96 1.249 . S
C99 O97 1.267 . S
Dy100 O104 2.398 . S
Dy100 O105 2.491 . S
Dy100 O106 2.403 . S
Dy100 O107 2.664 . S
Dy100 O111 2.326 . S
Dy100 O115 2.310 . S
Dy100 O116 2.351 . S
C101 O112 1.185 . S
C101 O113 1.355 . S
C102 O104 1.185 . S
C102 O105 1.355 . S
Dy103 O107 2.310 . S
Dy103 O110 2.351 . S
Dy103 O112 2.398 . S
Dy103 O113 2.491 . S
Dy103 O114 2.403 . S
Dy103 O115 2.664 . S
Dy103 O117 2.326 . S
O104 Dy100 2.398 . S
O104 C102 1.185 . S
O105 Dy100 2.491 . S
O105 C102 1.355 . S
O106 Dy100 2.403 . S
O106 C108 1.254 . S
O107 Dy100 2.664 . S
O107 Dy103 2.310 . S
O107 C108 1.268 . S
C108 O106 1.254 . S
C108 O107 1.268 . S
C109 O114 1.254 . S
C109 O115 1.268 . S
O110 Dy103 2.351 . S
O110 C118 1.249 . S
O111 Dy100 2.326 . S
O111 C118 1.267 . S
O112 C101 1.185 . S
O112 Dy103 2.398 . S
O113 C101 1.355 . S
O113 Dy103 2.491 . S
O114 Dy103 2.403 . S
O114 C109 1.254 . S
O115 Dy100 2.310 . S
O115 Dy103 2.664 . S
O115 C109 1.268 . S
O116 Dy100 2.351 . S
O116 C119 1.249 . S
O117 Dy103 2.326 . S
O117 C119 1.267 . S
C118 O110 1.249 . S
C118 O111 1.267 . S
C119 O116 1.249 . S
C119 O117 1.267 . S
Dy120 O124 2.398 . S
Dy120 O125 2.491 . S
Dy120 O126 2.403 . S
Dy120 O127 2.664 . S
Dy120 O131 2.326 . S
Dy120 O135 2.310 . S
Dy120 O136 2.351 . S
C121 O132 1.185 . S
C121 O133 1.355 . S
C122 O124 1.185 . S
C122 O125 1.355 . S
Dy123 O127 2.310 . S
Dy123 O130 2.351 . S
Dy123 O132 2.398 . S
Dy123 O133 2.491 . S
Dy123 O134 2.403 . S
Dy123 O135 2.664 . S
Dy123 O137 2.326 . S
O124 Dy120 2.398 . S
O124 C122 1.185 . S
O125 Dy120 2.491 . S
O125 C122 1.355 . S
O126 Dy120 2.403 . S
O126 C128 1.254 . S
O127 Dy120 2.664 . S
O127 Dy123 2.310 . S
O127 C128 1.268 . S
C128 O126 1.254 . S
C128 O127 1.268 . S
C129 O134 1.254 . S
C129 O135 1.268 . S
O130 Dy123 2.351 . S
O130 C138 1.249 . S
O131 Dy120 2.326 . S
O131 C138 1.267 . S
O132 C121 1.185 . S
O132 Dy123 2.398 . S
O133 C121 1.355 . S
O133 Dy123 2.491 . S
O134 Dy123 2.403 . S
O134 C129 1.254 . S
O135 Dy120 2.310 . S
O135 Dy123 2.664 . S
O135 C129 1.268 . S
O136 Dy120 2.351 . S
O136 C139 1.249 . S
O137 Dy123 2.326 . S
O137 C139 1.267 . S
C138 O130 1.249 . S
C138 O131 1.267 . S
C139 O136 1.249 . S
C139 O137 1.267 . S
Dy140 O144 2.398 . S
Dy140 O145 2.491 . S
Dy140 O146 2.403 . S
Dy140 O147 2.664 . S
Dy140 O151 2.326 . S
Dy140 O155 2.310 . S
Dy140 O156 2.351 . S
C141 O152 1.185 . S
C141 O153 1.355 . S
C142 O144 1.185 . S
C142 O145 1.355 . S
Dy143 O147 2.310 . S
Dy143 O150 2.351 . S
Dy143 O152 2.398 . S
Dy143 O153 2.491 . S
Dy143 O154 2.403 . S
Dy143 O155 2.664 . S
Dy143 O157 2.326 . S
O144 Dy140 2.398 . S
O144 C142 1.185 . S
O145 Dy140 2.491 . S
O145 C142 1.355 . S
O146 Dy140 2.403 . S
O146 C148 1.254 . S
O147 Dy140 2.664 . S
O147 Dy143 2.310 . S
O147 C148 1.268 . S
C148 O146 1.254 . S
C148 O147 1.268 . S
C149 O154 1.254 . S
C149 O155 1.268 . S
O150 Dy143 2.351 . S
O150 C158 1.249 . S
O151 Dy140 2.326 . S
O151 C158 1.267 . S
O152 C141 1.185 . S
O152 Dy143 2.398 . S
O153 C141 1.355 . S
O153 Dy143 2.491 . S
O154 Dy143 2.403 . S
O154 C149 1.254 . S
O155 Dy140 2.310 . S
O155 Dy143 2.664 . S
O155 C149 1.268 . S
O156 Dy140 2.351 . S
O156 C159 1.249 . S
O157 Dy143 2.326 . S
O157 C159 1.267 . S
C158 O150 1.249 . S
C158 O151 1.267 . S
C159 O156 1.249 . S
C159 O157 1.267 . S
Cd160 N163 2.334 1_655 S
Cd160 N189 2.304 1_565 S
Cd160 O196 2.268 . S
Cd160 O199 2.273 1_665 S
Cd160 O200 2.417 . S
Cd160 O201 2.330 . S
Cd161 N176 2.304 1_455 S
Cd161 N180 2.334 1_545 S
Cd161 O197 2.273 1_445 S
Cd161 O198 2.268 . S
Cd161 O202 2.417 . S
Cd161 O203 2.330 . S
C162 N163 1.332 . S
C162 C166 1.381 . S
C162 H168 0.931 . S
N163 Cd160 2.334 1_455 S
N163 C162 1.332 . S
N163 C167 1.328 . S
C164 C165 1.396 . S
C164 C167 1.378 . S
C164 H206 0.931 . S
C165 C164 1.396 . S
C165 C166 1.382 . S
C166 C162 1.381 . S
C166 C165 1.382 . S
C166 H207 0.930 . S
C167 N163 1.328 . S
C167 C164 1.378 . S
C167 H169 0.930 1_455 S
H168 C162 0.931 . S
H169 C167 0.930 1_655 S
C170 O196 1.238 . S
C170 O197 1.253 . S
C171 C172 1.379 . S
C171 N176 1.337 . S
C171 H177 0.929 . S
C172 C171 1.379 . S
C172 C173 1.380 . S
C172 H208 0.929 . S
C173 C172 1.380 . S
C173 C174 1.399 . S
C174 C173 1.399 . S
C174 C175 1.376 . S
C174 H209 0.931 . S
C175 C174 1.376 . S
C175 N176 1.338 . S
C175 H178 0.930 1_655 S
N176 Cd161 2.304 1_655 S
N176 C171 1.337 . S
N176 C175 1.338 . S
H177 C171 0.929 . S
H178 C175 0.930 1_455 S
C179 N180 1.332 . S
C179 C183 1.381 . S
C179 H185 0.931 . S
N180 Cd161 2.334 1_565 S
N180 C179 1.332 . S
N180 C184 1.328 . S
C181 C182 1.396 . S
C181 C184 1.378 . S
C181 H210 0.931 . S
C182 C181 1.396 . S
C182 C183 1.382 . S
C183 C179 1.381 . S
C183 C182 1.382 . S
C183 H211 0.930 . S
C184 N180 1.328 . S
C184 C181 1.378 . S
C184 H186 0.930 1_565 S
H185 C179 0.931 . S
H186 C184 0.930 1_545 S
C187 O198 1.238 . S
C187 O199 1.253 . S
C188 O200 1.239 . S
C188 O201 1.230 . S
N189 Cd160 2.304 1_545 S
N189 C190 1.337 . S
N189 C194 1.338 . S
C190 N189 1.337 . S
C190 C191 1.379 . S
C190 H204 0.929 . S
C191 C190 1.379 . S
C191 C192 1.380 . S
C191 H212 0.929 . S
C192 C191 1.380 . S
C192 C193 1.399 . S
C193 C192 1.399 . S
C193 C194 1.376 . S
C193 H213 0.931 . S
C194 N189 1.338 . S
C194 C193 1.376 . S
C194 H205 0.930 1_545 S
C195 O202 1.239 . S
C195 O203 1.230 . S
O196 Cd160 2.268 . S
O196 C170 1.238 . S
O197 Cd161 2.273 1_665 S
O197 C170 1.253 . S
O198 Cd161 2.268 . S
O198 C187 1.238 . S
O199 Cd160 2.273 1_445 S
O199 C187 1.253 . S
O200 Cd160 2.417 . S
O200 C188 1.239 . S
O201 Cd160 2.330 . S
O201 C188 1.230 . S
O202 Cd161 2.417 . S
O202 C195 1.239 . S
O203 Cd161 2.330 . S
O203 C195 1.230 . S
H204 C190 0.929 . S
H205 C194 0.930 1_565 S
H206 C164 0.931 . S
H207 C166 0.930 . S
H208 C172 0.929 . S
H209 C174 0.931 . S
H210 C181 0.931 . S
H211 C183 0.930 . S
H212 C191 0.929 . S
H213 C193 0.931 . S
Cd214 N217 2.334 . S
Cd214 N243 2.304 1_565 S
Cd214 O250 2.268 1_554 S
Cd214 O253 2.273 1_565 S
Cd214 O254 2.417 . S
Cd214 O255 2.330 . S
Cd215 N230 2.304 . S
Cd215 N234 2.334 1_545 S
Cd215 O251 2.273 1_545 S
Cd215 O252 2.268 1_556 S
Cd215 O256 2.417 . S
Cd215 O257 2.330 . S
C216 N217 1.332 . S
C216 C220 1.381 . S
C216 H222 0.931 . S
N217 Cd214 2.334 . S
N217 C216 1.332 . S
N217 C221 1.328 . S
C218 C219 1.396 . S
C218 C221 1.378 . S
C218 H260 0.931 1_554 S
C219 C218 1.396 . S
C219 C220 1.382 . S
C220 C216 1.381 . S
C220 C219 1.382 . S
C220 H261 0.930 . S
C221 N217 1.328 . S
C221 C218 1.378 . S
C221 H223 0.930 1_554 S
H222 C216 0.931 . S
H223 C221 0.930 1_556 S
C224 O250 1.238 . S
C224 O251 1.253 . S
C225 C226 1.379 . S
C225 N230 1.337 . S
C225 H231 0.929 . S
C226 C225 1.379 . S
C226 C227 1.380 . S
C226 H262 0.929 . S
C227 C226 1.380 . S
C227 C228 1.399 . S
C228 C227 1.399 . S
C228 C229 1.376 . S
C228 H263 0.931 1_556 S
C229 C228 1.376 . S
C229 N230 1.338 . S
C229 H232 0.930 1_556 S
N230 Cd215 2.304 . S
N230 C225 1.337 . S
N230 C229 1.338 . S
H231 C225 0.929 . S
H232 C229 0.930 1_554 S
C233 N234 1.332 . S
C233 C237 1.381 . S
C233 H239 0.931 . S
N234 Cd215 2.334 1_565 S
N234 C233 1.332 . S
N234 C238 1.328 . S
C235 C236 1.396 . S
C235 C238 1.378 . S
C235 H264 0.931 1_556 S
C236 C235 1.396 . S
C236 C237 1.382 . S
C237 C233 1.381 . S
C237 C236 1.382 . S
C237 H265 0.930 . S
C238 N234 1.328 . S
C238 C235 1.378 . S
C238 H240 0.930 1_566 S
H239 C233 0.931 . S
H240 C238 0.930 1_544 S
C241 O252 1.238 . S
C241 O253 1.253 . S
C242 O254 1.239 . S
C242 O255 1.230 . S
N243 Cd214 2.304 1_545 S
N243 C244 1.337 . S
N243 C248 1.338 . S
C244 N243 1.337 . S
C244 C245 1.379 . S
C244 H258 0.929 . S
C245 C244 1.379 . S
C245 C246 1.380 . S
C245 H266 0.929 . S
C246 C245 1.380 . S
C246 C247 1.399 . S
C247 C246 1.399 . S
C247 C248 1.376 . S
C247 H267 0.931 1_554 S
C248 N243 1.338 . S
C248 C247 1.376 . S
C248 H259 0.930 1_544 S
C249 O256 1.239 . S
C249 O257 1.230 . S
O250 Cd214 2.268 1_556 S
O250 C224 1.238 . S
O251 Cd215 2.273 1_565 S
O251 C224 1.253 . S
O252 Cd215 2.268 1_554 S
O252 C241 1.238 . S
O253 Cd214 2.273 1_545 S
O253 C241 1.253 . S
O254 Cd214 2.417 . S
O254 C242 1.239 . S
O255 Cd214 2.330 . S
O255 C242 1.230 . S
O256 Cd215 2.417 . S
O256 C249 1.239 . S
O257 Cd215 2.330 . S
O257 C249 1.230 . S
H258 C244 0.929 . S
H259 C248 0.930 1_566 S
H260 C218 0.931 1_556 S
H261 C220 0.930 . S
H262 C226 0.929 . S
H263 C228 0.931 1_554 S
H264 C235 0.931 1_554 S
H265 C237 0.930 . S
H266 C245 0.929 . S
H267 C247 0.931 1_556 S
Cd268 N271 2.334 1_655 S
Cd268 N297 2.304 . S
Cd268 O304 2.268 1_554 S
Cd268 O307 2.273 1_655 S
Cd268 O308 2.417 . S
Cd268 O309 2.330 . S
Cd269 N284 2.304 1_455 S
Cd269 N288 2.334 . S
Cd269 O305 2.273 1_455 S
Cd269 O306 2.268 1_556 S
Cd269 O310 2.417 . S
Cd269 O311 2.330 . S
C270 N271 1.332 . S
C270 C274 1.381 . S
C270 H276 0.931 . S
N271 Cd268 2.334 1_455 S
N271 C270 1.332 . S
N271 C275 1.328 . S
C272 C273 1.396 . S
C272 C275 1.378 . S
C272 H314 0.931 1_554 S
C273 C272 1.396 . S
C273 C274 1.382 . S
C274 C270 1.381 . S
C274 C273 1.382 . S
C274 H315 0.930 . S
C275 N271 1.328 . S
C275 C272 1.378 . S
C275 H277 0.930 1_454 S
H276 C270 0.931 . S
H277 C275 0.930 1_656 S
C278 O304 1.238 . S
C278 O305 1.253 . S
C279 C280 1.379 . S
C279 N284 1.337 . S
C279 H285 0.929 . S
C280 C279 1.379 . S
C280 C281 1.380 . S
C280 H316 0.929 . S
C281 C280 1.380 . S
C281 C282 1.399 . S
C282 C281 1.399 . S
C282 C283 1.376 . S
C282 H317 0.931 1_556 S
C283 C282 1.376 . S
C283 N284 1.338 . S
C283 H286 0.930 1_656 S
N284 Cd269 2.304 1_655 S
N284 C279 1.337 . S
N284 C283 1.338 . S
H285 C279 0.929 . S
H286 C283 0.930 1_454 S
C287 N288 1.332 . S
C287 C291 1.381 . S
C287 H293 0.931 . S
N288 Cd269 2.334 . S
N288 C287 1.332 . S
N288 C292 1.328 . S
C289 C290 1.396 . S
C289 C292 1.378 . S
C289 H318 0.931 1_556 S
C290 C289 1.396 . S
C290 C291 1.382 . S
C291 C287 1.381 . S
C291 C290 1.382 . S
C291 H319 0.930 . S
C292 N288 1.328 . S
C292 C289 1.378 . S
C292 H294 0.930 1_556 S
H293 C287 0.931 . S
H294 C292 0.930 1_554 S
C295 O306 1.238 . S
C295 O307 1.253 . S
C296 O308 1.239 . S
C296 O309 1.230 . S
N297 Cd268 2.304 . S
N297 C298 1.337 . S
N297 C302 1.338 . S
C298 N297 1.337 . S
C298 C299 1.379 . S
C298 H312 0.929 . S
C299 C298 1.379 . S
C299 C300 1.380 . S
C299 H320 0.929 . S
C300 C299 1.380 . S
C300 C301 1.399 . S
C301 C300 1.399 . S
C301 C302 1.376 . S
C301 H321 0.931 1_554 S
C302 N297 1.338 . S
C302 C301 1.376 . S
C302 H313 0.930 1_554 S
C303 O310 1.239 . S
C303 O311 1.230 . S
O304 Cd268 2.268 1_556 S
O304 C278 1.238 . S
O305 Cd269 2.273 1_655 S
O305 C278 1.253 . S
O306 Cd269 2.268 1_554 S
O306 C295 1.238 . S
O307 Cd268 2.273 1_455 S
O307 C295 1.253 . S
O308 Cd268 2.417 . S
O308 C296 1.239 . S
O309 Cd268 2.330 . S
O309 C296 1.230 . S
O310 Cd269 2.417 . S
O310 C303 1.239 . S
O311 Cd269 2.330 . S
O311 C303 1.230 . S
H312 C298 0.929 . S
H313 C302 0.930 1_556 S
H314 C272 0.931 1_556 S
H315 C274 0.930 . S
H316 C280 0.929 . S
H317 C282 0.931 1_554 S
H318 C289 0.931 1_554 S
H319 C291 0.930 . S
H320 C299 0.929 . S
H321 C301 0.931 1_556 S
Cd322 N325 2.334 . S
Cd322 N351 2.304 . S
Cd322 O358 2.268 1_554 S
Cd322 O361 2.273 . S
Cd322 O362 2.417 . S
Cd322 O363 2.330 . S
Cd323 N338 2.304 . S
Cd323 N342 2.334 . S
Cd323 O359 2.273 . S
Cd323 O360 2.268 1_556 S
Cd323 O364 2.417 . S
Cd323 O365 2.330 . S
C324 N325 1.332 . S
C324 C328 1.381 . S
C324 H330 0.931 . S
N325 Cd322 2.334 . S
N325 C324 1.332 . S
N325 C329 1.328 . S
C326 C327 1.396 . S
C326 C329 1.378 . S
C326 H368 0.931 1_554 S
C327 C326 1.396 . S
C327 C328 1.382 . S
C328 C324 1.381 . S
C328 C327 1.382 . S
C328 H369 0.930 . S
C329 N325 1.328 . S
C329 C326 1.378 . S
C329 H331 0.930 1_554 S
H330 C324 0.931 . S
H331 C329 0.930 1_556 S
C332 O358 1.238 . S
C332 O359 1.253 . S
C333 C334 1.379 . S
C333 N338 1.337 . S
C333 H339 0.929 . S
C334 C333 1.379 . S
C334 C335 1.380 . S
C334 H370 0.929 . S
C335 C334 1.380 . S
C335 C336 1.399 . S
C336 C335 1.399 . S
C336 C337 1.376 . S
C336 H371 0.931 1_556 S
C337 C336 1.376 . S
C337 N338 1.338 . S
C337 H340 0.930 1_556 S
N338 Cd323 2.304 . S
N338 C333 1.337 . S
N338 C337 1.338 . S
H339 C333 0.929 . S
H340 C337 0.930 1_554 S
C341 N342 1.332 . S
C341 C345 1.381 . S
C341 H347 0.931 . S
N342 Cd323 2.334 . S
N342 C341 1.332 . S
N342 C346 1.328 . S
C343 C344 1.396 . S
C343 C346 1.378 . S
C343 H372 0.931 1_556 S
C344 C343 1.396 . S
C344 C345 1.382 . S
C345 C341 1.381 . S
C345 C344 1.382 . S
C345 H373 0.930 . S
C346 N342 1.328 . S
C346 C343 1.378 . S
C346 H348 0.930 1_556 S
H347 C341 0.931 . S
H348 C346 0.930 1_554 S
C349 O360 1.238 . S
C349 O361 1.253 . S
C350 O362 1.239 . S
C350 O363 1.230 . S
N351 Cd322 2.304 . S
N351 C352 1.337 . S
N351 C356 1.338 . S
C352 N351 1.337 . S
C352 C353 1.379 . S
C352 H366 0.929 . S
C353 C352 1.379 . S
C353 C354 1.380 . S
C353 H374 0.929 . S
C354 C353 1.380 . S
C354 C355 1.399 . S
C355 C354 1.399 . S
C355 C356 1.376 . S
C355 H375 0.931 1_554 S
C356 N351 1.338 . S
C356 C355 1.376 . S
C356 H367 0.930 1_554 S
C357 O364 1.239 . S
C357 O365 1.230 . S
O358 Cd322 2.268 1_556 S
O358 C332 1.238 . S
O359 Cd323 2.273 . S
O359 C332 1.253 . S
O360 Cd323 2.268 1_554 S
O360 C349 1.238 . S
O361 Cd322 2.273 . S
O361 C349 1.253 . S
O362 Cd322 2.417 . S
O362 C350 1.239 . S
O363 Cd322 2.330 . S
O363 C350 1.230 . S
O364 Cd323 2.417 . S
O364 C357 1.239 . S
O365 Cd323 2.330 . S
O365 C357 1.230 . S
H366 C352 0.929 . S
H367 C356 0.930 1_556 S
H368 C326 0.931 1_556 S
H369 C328 0.930 . S
H370 C334 0.929 . S
H371 C336 0.931 1_554 S
H372 C343 0.931 1_554 S
H373 C345 0.930 . S
H374 C353 0.929 . S
H375 C355 0.931 1_556 S
Cd376 N379 2.334 1_655 S
Cd376 N405 2.304 . S
Cd376 O412 2.268 . S
Cd376 O415 2.273 1_655 S
Cd376 O416 2.417 . S
Cd376 O417 2.330 . S
Cd377 N392 2.304 1_455 S
Cd377 N396 2.334 . S
Cd377 O413 2.273 1_455 S
Cd377 O414 2.268 . S
Cd377 O418 2.417 . S
Cd377 O419 2.330 . S
C378 N379 1.332 . S
C378 C382 1.381 . S
C378 H384 0.931 . S
N379 Cd376 2.334 1_455 S
N379 C378 1.332 . S
N379 C383 1.328 . S
C380 C381 1.396 . S
C380 C383 1.378 . S
C380 H422 0.931 . S
C381 C380 1.396 . S
C381 C382 1.382 . S
C382 C378 1.381 . S
C382 C381 1.382 . S
C382 H423 0.930 . S
C383 N379 1.328 . S
C383 C380 1.378 . S
C383 H385 0.930 1_455 S
H384 C378 0.931 . S
H385 C383 0.930 1_655 S
C386 O412 1.238 . S
C386 O413 1.253 . S
C387 C388 1.379 . S
C387 N392 1.337 . S
C387 H393 0.929 . S
C388 C387 1.379 . S
C388 C389 1.380 . S
C388 H424 0.929 . S
C389 C388 1.380 . S
C389 C390 1.399 . S
C390 C389 1.399 . S
C390 C391 1.376 . S
C390 H425 0.931 . S
C391 C390 1.376 . S
C391 N392 1.338 . S
C391 H394 0.930 1_655 S
N392 Cd377 2.304 1_655 S
N392 C387 1.337 . S
N392 C391 1.338 . S
H393 C387 0.929 . S
H394 C391 0.930 1_455 S
C395 N396 1.332 . S
C395 C399 1.381 . S
C395 H401 0.931 . S
N396 Cd377 2.334 . S
N396 C395 1.332 . S
N396 C400 1.328 . S
C397 C398 1.396 . S
C397 C400 1.378 . S
C397 H426 0.931 . S
C398 C397 1.396 . S
C398 C399 1.382 . S
C399 C395 1.381 . S
C399 C398 1.382 . S
C399 H427 0.930 . S
C400 N396 1.328 . S
C400 C397 1.378 . S
C400 H402 0.930 . S
H401 C395 0.931 . S
H402 C400 0.930 . S
C403 O414 1.238 . S
C403 O415 1.253 . S
C404 O416 1.239 . S
C404 O417 1.230 . S
N405 Cd376 2.304 . S
N405 C406 1.337 . S
N405 C410 1.338 . S
C406 N405 1.337 . S
C406 C407 1.379 . S
C406 H420 0.929 . S
C407 C406 1.379 . S
C407 C408 1.380 . S
C407 H428 0.929 . S
C408 C407 1.380 . S
C408 C409 1.399 . S
C409 C408 1.399 . S
C409 C410 1.376 . S
C409 H429 0.931 . S
C410 N405 1.338 . S
C410 C409 1.376 . S
C410 H421 0.930 . S
C411 O418 1.239 . S
C411 O419 1.230 . S
O412 Cd376 2.268 . S
O412 C386 1.238 . S
O413 Cd377 2.273 1_655 S
O413 C386 1.253 . S
O414 Cd377 2.268 . S
O414 C403 1.238 . S
O415 Cd376 2.273 1_455 S
O415 C403 1.253 . S
O416 Cd376 2.417 . S
O416 C404 1.239 . S
O417 Cd376 2.330 . S
O417 C404 1.230 . S
O418 Cd377 2.417 . S
O418 C411 1.239 . S
O419 Cd377 2.330 . S
O419 C411 1.230 . S
H420 C406 0.929 . S
H421 C410 0.930 . S
H422 C380 0.931 . S
H423 C382 0.930 . S
H424 C388 0.929 . S
H425 C390 0.931 . S
H426 C397 0.931 . S
H427 C399 0.930 . S
H428 C407 0.929 . S
H429 C409 0.931 . S
Cd430 N433 2.334 . S
Cd430 N459 2.304 1_565 S
Cd430 O466 2.268 . S
Cd430 O469 2.273 1_565 S
Cd430 O470 2.417 . S
Cd430 O471 2.330 . S
Cd431 N446 2.304 . S
Cd431 N450 2.334 1_545 S
Cd431 O467 2.273 1_545 S
Cd431 O468 2.268 . S
Cd431 O472 2.417 . S
Cd431 O473 2.330 . S
C432 N433 1.332 . S
C432 C436 1.381 . S
C432 H438 0.931 . S
N433 Cd430 2.334 . S
N433 C432 1.332 . S
N433 C437 1.328 . S
C434 C435 1.396 . S
C434 C437 1.378 . S
C434 H476 0.931 . S
C435 C434 1.396 . S
C435 C436 1.382 . S
C436 C432 1.381 . S
C436 C435 1.382 . S
C436 H477 0.930 . S
C437 N433 1.328 . S
C437 C434 1.378 . S
C437 H439 0.930 . S
H438 C432 0.931 . S
H439 C437 0.930 . S
C440 O466 1.238 . S
C440 O467 1.253 . S
C441 C442 1.379 . S
C441 N446 1.337 . S
C441 H447 0.929 . S
C442 C441 1.379 . S
C442 C443 1.380 . S
C442 H478 0.929 . S
C443 C442 1.380 . S
C443 C444 1.399 . S
C444 C443 1.399 . S
C444 C445 1.376 . S
C444 H479 0.931 . S
C445 C444 1.376 . S
C445 N446 1.338 . S
C445 H448 0.930 . S
N446 Cd431 2.304 . S
N446 C441 1.337 . S
N446 C445 1.338 . S
H447 C441 0.929 . S
H448 C445 0.930 . S
C449 N450 1.332 . S
C449 C453 1.381 . S
C449 H455 0.931 . S
N450 Cd431 2.334 1_565 S
N450 C449 1.332 . S
N450 C454 1.328 . S
C451 C452 1.396 . S
C451 C454 1.378 . S
C451 H480 0.931 . S
C452 C451 1.396 . S
C452 C453 1.382 . S
C453 C449 1.381 . S
C453 C452 1.382 . S
C453 H481 0.930 . S
C454 N450 1.328 . S
C454 C451 1.378 . S
C454 H456 0.930 1_565 S
H455 C449 0.931 . S
H456 C454 0.930 1_545 S
C457 O468 1.238 . S
C457 O469 1.253 . S
C458 O470 1.239 . S
C458 O471 1.230 . S
N459 Cd430 2.304 1_545 S
N459 C460 1.337 . S
N459 C464 1.338 . S
C460 N459 1.337 . S
C460 C461 1.379 . S
C460 H474 0.929 . S
C461 C460 1.379 . S
C461 C462 1.380 . S
C461 H482 0.929 . S
C462 C461 1.380 . S
C462 C463 1.399 . S
C463 C462 1.399 . S
C463 C464 1.376 . S
C463 H483 0.931 . S
C464 N459 1.338 . S
C464 C463 1.376 . S
C464 H475 0.930 1_545 S
C465 O472 1.239 . S
C465 O473 1.230 . S
O466 Cd430 2.268 . S
O466 C440 1.238 . S
O467 Cd431 2.273 1_565 S
O467 C440 1.253 . S
O468 Cd431 2.268 . S
O468 C457 1.238 . S
O469 Cd430 2.273 1_545 S
O469 C457 1.253 . S
O470 Cd430 2.417 . S
O470 C458 1.239 . S
O471 Cd430 2.330 . S
O471 C458 1.230 . S
O472 Cd431 2.417 . S
O472 C465 1.239 . S
O473 Cd431 2.330 . S
O473 C465 1.230 . S
H474 C460 0.929 . S
H475 C464 0.930 1_565 S
H476 C434 0.931 . S
H477 C436 0.930 . S
H478 C442 0.929 . S
H479 C444 0.931 . S
H480 C451 0.931 . S
H481 C453 0.930 . S
H482 C461 0.929 . S
H483 C463 0.931 . S
C484 C485 1.363 . S
C484 C490 1.379 . S
C484 N492 1.356 . S
C485 C484 1.363 . S
C485 C491 1.363 . S
C486 C487 1.363 . S
C486 C491 1.379 . S
C486 N493 1.356 . S
C487 C486 1.363 . S
C487 C490 1.363 . S
N488 C490 1.356 . S
N488 H500 0.984 . S
N488 H501 0.985 . S
N489 C491 1.356 . S
N489 H494 0.984 . S
N489 H495 0.985 . S
C490 C484 1.379 . S
C490 C487 1.363 . S
C490 N488 1.356 . S
C491 C485 1.363 . S
C491 C486 1.379 . S
C491 N489 1.356 . S
N492 C484 1.356 . S
N492 H498 0.984 . S
N492 H499 0.984 . S
N493 C486 1.356 . S
N493 H496 0.984 . S
N493 H497 0.985 . S
H494 N489 0.984 . S
H495 N489 0.985 . S
H496 N493 0.984 . S
H497 N493 0.985 . S
H498 N492 0.984 . S
H499 N492 0.984 . S
H500 N488 0.984 . S
H501 N488 0.985 . S
C502 C503 1.363 . S
C502 C508 1.379 . S
C502 N510 1.356 . S
C503 C502 1.363 . S
C503 C509 1.363 . S
C504 C505 1.363 . S
C504 C509 1.379 . S
C504 N511 1.356 . S
C505 C504 1.363 . S
C505 C508 1.363 . S
N506 C508 1.356 . S
N506 H518 0.984 . S
N506 H519 0.985 . S
N507 C509 1.356 . S
N507 H512 0.984 . S
N507 H513 0.985 . S
C508 C502 1.379 . S
C508 C505 1.363 . S
C508 N506 1.356 . S
C509 C503 1.363 . S
C509 C504 1.379 . S
C509 N507 1.356 . S
N510 C502 1.356 . S
N510 H516 0.984 . S
N510 H517 0.984 . S
N511 C504 1.356 . S
N511 H514 0.984 . S
N511 H515 0.985 . S
H512 N507 0.984 . S
H513 N507 0.985 . S
H514 N511 0.984 . S
H515 N511 0.985 . S
H516 N510 0.984 . S
H517 N510 0.984 . S
H518 N506 0.984 . S
H519 N506 0.985 . S
C520 C521 1.363 . S
C520 C526 1.379 . S
C520 N528 1.356 . S
C521 C520 1.363 . S
C521 C527 1.363 . S
C522 C523 1.363 . S
C522 C527 1.379 . S
C522 N529 1.356 . S
C523 C522 1.363 . S
C523 C526 1.363 . S
N524 C526 1.356 . S
N524 H536 0.984 . S
N524 H537 0.985 . S
N525 C527 1.356 . S
N525 H530 0.984 . S
N525 H531 0.985 . S
C526 C520 1.379 . S
C526 C523 1.363 . S
C526 N524 1.356 . S
C527 C521 1.363 . S
C527 C522 1.379 . S
C527 N525 1.356 . S
N528 C520 1.356 . S
N528 H534 0.984 . S
N528 H535 0.984 . S
N529 C522 1.356 . S
N529 H532 0.984 . S
N529 H533 0.985 . S
H530 N525 0.984 . S
H531 N525 0.985 . S
H532 N529 0.984 . S
H533 N529 0.985 . S
H534 N528 0.984 . S
H535 N528 0.984 . S
H536 N524 0.984 . S
H537 N524 0.985 . S
C538 C539 1.363 . S
C538 C544 1.379 . S
C538 N546 1.356 . S
C539 C538 1.363 . S
C539 C545 1.363 . S
C540 C541 1.363 . S
C540 C545 1.379 . S
C540 N547 1.356 . S
C541 C540 1.363 . S
C541 C544 1.363 . S
N542 C544 1.356 . S
N542 H554 0.984 . S
N542 H555 0.985 . S
N543 C545 1.356 . S
N543 H548 0.984 . S
N543 H549 0.985 . S
C544 C538 1.379 . S
C544 C541 1.363 . S
C544 N542 1.356 . S
C545 C539 1.363 . S
C545 C540 1.379 . S
C545 N543 1.356 . S
N546 C538 1.356 . S
N546 H552 0.984 . S
N546 H553 0.984 . S
N547 C540 1.356 . S
N547 H550 0.984 . S
N547 H551 0.985 . S
H548 N543 0.984 . S
H549 N543 0.985 . S
H550 N547 0.984 . S
H551 N547 0.985 . S
H552 N546 0.984 . S
H553 N546 0.984 . S
H554 N542 0.984 . S
H555 N542 0.985 . S
C556 C557 1.363 . S
C556 C562 1.379 . S
C556 N564 1.356 . S
C557 C556 1.363 . S
C557 C563 1.363 . S
C558 C559 1.363 . S
C558 C563 1.379 . S
C558 N565 1.356 . S
C559 C558 1.363 . S
C559 C562 1.363 . S
N560 C562 1.356 . S
N560 H572 0.984 . S
N560 H573 0.985 . S
N561 C563 1.356 . S
N561 H566 0.984 . S
N561 H567 0.985 . S
C562 C556 1.379 . S
C562 C559 1.363 . S
C562 N560 1.356 . S
C563 C557 1.363 . S
C563 C558 1.379 . S
C563 N561 1.356 . S
N564 C556 1.356 . S
N564 H570 0.984 . S
N564 H571 0.984 . S
N565 C558 1.356 . S
N565 H568 0.984 . S
N565 H569 0.985 . S
H566 N561 0.984 . S
H567 N561 0.985 . S
H568 N565 0.984 . S
H569 N565 0.985 . S
H570 N564 0.984 . S
H571 N564 0.984 . S
H572 N560 0.984 . S
H573 N560 0.985 . S
C574 C575 1.363 . S
C574 C580 1.379 . S
C574 N582 1.356 . S
C575 C574 1.363 . S
C575 C581 1.363 . S
C576 C577 1.363 . S
C576 C581 1.379 . S
C576 N583 1.356 . S
C577 C576 1.363 . S
C577 C580 1.363 . S
N578 C580 1.356 . S
N578 H590 0.984 . S
N578 H591 0.985 . S
N579 C581 1.356 . S
N579 H584 0.984 . S
N579 H585 0.985 . S
C580 C574 1.379 . S
C580 C577 1.363 . S
C580 N578 1.356 . S
C581 C575 1.363 . S
C581 C576 1.379 . S
C581 N579 1.356 . S
N582 C574 1.356 . S
N582 H588 0.984 . S
N582 H589 0.984 . S
N583 C576 1.356 . S
N583 H586 0.984 . S
N583 H587 0.985 . S
H584 N579 0.984 . S
H585 N579 0.985 . S
H586 N583 0.984 . S
H587 N583 0.985 . S
H588 N582 0.984 . S
H589 N582 0.984 . S
H590 N578 0.984 . S
H591 N578 0.985 . S
C592 C593 1.363 . S
C592 C598 1.379 . S
C592 N600 1.356 . S
C593 C592 1.363 . S
C593 C599 1.363 . S
C594 C595 1.363 . S
C594 C599 1.379 . S
C594 N601 1.356 . S
C595 C594 1.363 . S
C595 C598 1.363 . S
N596 C598 1.356 . S
N596 H608 0.984 . S
N596 H609 0.985 . S
N597 C599 1.356 . S
N597 H602 0.984 . S
N597 H603 0.985 . S
C598 C592 1.379 . S
C598 C595 1.363 . S
C598 N596 1.356 . S
C599 C593 1.363 . S
C599 C594 1.379 . S
C599 N597 1.356 . S
N600 C592 1.356 . S
N600 H606 0.984 . S
N600 H607 0.984 . S
N601 C594 1.356 . S
N601 H604 0.984 . S
N601 H605 0.985 . S
H602 N597 0.984 . S
H603 N597 0.985 . S
H604 N601 0.984 . S
H605 N601 0.985 . S
H606 N600 0.984 . S
H607 N600 0.984 . S
H608 N596 0.984 . S
H609 N596 0.985 . S
C610 C611 1.363 . S
C610 C616 1.379 . S
C610 N618 1.356 . S
C611 C610 1.363 . S
C611 C617 1.363 . S
C612 C613 1.363 . S
C612 C617 1.379 . S
C612 N619 1.356 . S
C613 C612 1.363 . S
C613 C616 1.363 . S
N614 C616 1.356 . S
N614 H626 0.984 . S
N614 H627 0.985 . S
N615 C617 1.356 . S
N615 H620 0.984 . S
N615 H621 0.985 . S
C616 C610 1.379 . S
C616 C613 1.363 . S
C616 N614 1.356 . S
C617 C611 1.363 . S
C617 C612 1.379 . S
C617 N615 1.356 . S
N618 C610 1.356 . S
N618 H624 0.984 . S
N618 H625 0.984 . S
N619 C612 1.356 . S
N619 H622 0.984 . S
N619 H623 0.985 . S
H620 N615 0.984 . S
H621 N615 0.985 . S
H622 N619 0.984 . S
H623 N619 0.985 . S
H624 N618 0.984 . S
H625 N618 0.984 . S
H626 N614 0.984 . S
H627 N614 0.985 . S
C628 C629 1.363 . S
C628 C634 1.379 . S
C628 N636 1.356 . S
C629 C628 1.363 . S
C629 C635 1.363 . S
C630 C631 1.363 . S
C630 C635 1.379 . S
C630 N637 1.356 . S
C631 C630 1.363 . S
C631 C634 1.363 . S
N632 C634 1.356 . S
N632 H644 0.984 . S
N632 H645 0.985 . S
N633 C635 1.356 . S
N633 H638 0.984 . S
N633 H639 0.985 . S
C634 C628 1.379 . S
C634 C631 1.363 . S
C634 N632 1.356 . S
C635 C629 1.363 . S
C635 C630 1.379 . S
C635 N633 1.356 . S
N636 C628 1.356 . S
N636 H642 0.984 . S
N636 H643 0.984 . S
N637 C630 1.356 . S
N637 H640 0.984 . S
N637 H641 0.985 . S
H638 N633 0.984 . S
H639 N633 0.985 . S
H640 N637 0.984 . S
H641 N637 0.985 . S
H642 N636 0.984 . S
H643 N636 0.984 . S
H644 N632 0.984 . S
H645 N632 0.985 . S
C646 C647 1.363 . S
C646 C652 1.379 . S
C646 N654 1.356 . S
C647 C646 1.363 . S
C647 C653 1.363 . S
C648 C649 1.363 . S
C648 C653 1.379 . S
C648 N655 1.356 . S
C649 C648 1.363 . S
C649 C652 1.363 . S
N650 C652 1.356 . S
N650 H662 0.984 . S
N650 H663 0.985 . S
N651 C653 1.356 . S
N651 H656 0.984 . S
N651 H657 0.985 . S
C652 C646 1.379 . S
C652 C649 1.363 . S
C652 N650 1.356 . S
C653 C647 1.363 . S
C653 C648 1.379 . S
C653 N651 1.356 . S
N654 C646 1.356 . S
N654 H660 0.984 . S
N654 H661 0.984 . S
N655 C648 1.356 . S
N655 H658 0.984 . S
N655 H659 0.985 . S
H656 N651 0.984 . S
H657 N651 0.985 . S
H658 N655 0.984 . S
H659 N655 0.985 . S
H660 N654 0.984 . S
H661 N654 0.984 . S
H662 N650 0.984 . S
H663 N650 0.985 . S
C664 C665 1.363 . S
C664 C670 1.379 . S
C664 N672 1.356 . S
C665 C664 1.363 . S
C665 C671 1.363 . S
C666 C667 1.363 . S
C666 C671 1.379 . S
C666 N673 1.356 . S
C667 C666 1.363 . S
C667 C670 1.363 . S
N668 C670 1.356 . S
N668 H680 0.984 1_554 S
N668 H681 0.985 . S
N669 C671 1.356 . S
N669 H674 0.984 . S
N669 H675 0.985 . S
C670 C664 1.379 . S
C670 C667 1.363 . S
C670 N668 1.356 . S
C671 C665 1.363 . S
C671 C666 1.379 . S
C671 N669 1.356 . S
N672 C664 1.356 . S
N672 H678 0.984 . S
N672 H679 0.984 . S
N673 C666 1.356 . S
N673 H676 0.984 . S
N673 H677 0.985 . S
H674 N669 0.984 . S
H675 N669 0.985 . S
H676 N673 0.984 . S
H677 N673 0.985 . S
H678 N672 0.984 . S
H679 N672 0.984 . S
H680 N668 0.984 1_556 S
H681 N668 0.985 . S
C682 C683 1.363 . S
C682 C688 1.379 . S
C682 N690 1.356 . S
C683 C682 1.363 . S
C683 C689 1.363 . S
C684 C685 1.363 . S
C684 C689 1.379 . S
C684 N691 1.356 . S
C685 C684 1.363 . S
C685 C688 1.363 . S
N686 C688 1.356 . S
N686 H698 0.984 . S
N686 H699 0.985 . S
N687 C689 1.356 . S
N687 H692 0.984 . S
N687 H693 0.985 . S
C688 C682 1.379 . S
C688 C685 1.363 . S
C688 N686 1.356 . S
C689 C683 1.363 . S
C689 C684 1.379 . S
C689 N687 1.356 . S
N690 C682 1.356 . S
N690 H696 0.984 . S
N690 H697 0.984 . S
N691 C684 1.356 . S
N691 H694 0.984 . S
N691 H695 0.985 . S
H692 N687 0.984 . S
H693 N687 0.985 . S
H694 N691 0.984 . S
H695 N691 0.985 . S
H696 N690 0.984 . S
H697 N690 0.984 . S
H698 N686 0.984 . S
H699 N686 0.985 . S
C700 C701 1.363 . S
C700 C706 1.379 . S
C700 N708 1.356 . S
C701 C700 1.363 . S
C701 C707 1.363 . S
C702 C703 1.363 . S
C702 C707 1.379 . S
C702 N709 1.356 . S
C703 C702 1.363 . S
C703 C706 1.363 . S
N704 C706 1.356 . S
N704 H716 0.984 . S
N704 H717 0.985 . S
N705 C707 1.356 . S
N705 H710 0.984 . S
N705 H711 0.985 . S
C706 C700 1.379 . S
C706 C703 1.363 . S
C706 N704 1.356 . S
C707 C701 1.363 . S
C707 C702 1.379 . S
C707 N705 1.356 . S
N708 C700 1.356 . S
N708 H714 0.984 . S
N708 H715 0.984 . S
N709 C702 1.356 . S
N709 H712 0.984 . S
N709 H713 0.985 . S
H710 N705 0.984 . S
H711 N705 0.985 . S
H712 N709 0.984 . S
H713 N709 0.985 . S
H714 N708 0.984 . S
H715 N708 0.984 . S
H716 N704 0.984 . S
H717 N704 0.985 . S
C718 C719 1.363 . S
C718 C724 1.379 . S
C718 N726 1.356 . S
C719 C718 1.363 . S
C719 C725 1.363 . S
C720 C721 1.363 . S
C720 C725 1.379 . S
C720 N727 1.356 . S
C721 C720 1.363 . S
C721 C724 1.363 . S
N722 C724 1.356 . S
N722 H734 0.984 1_556 S
N722 H735 0.985 1_556 S
N723 C725 1.356 . S
N723 H728 0.984 . S
N723 H729 0.985 . S
C724 C718 1.379 . S
C724 C721 1.363 . S
C724 N722 1.356 . S
C725 C719 1.363 . S
C725 C720 1.379 . S
C725 N723 1.356 . S
N726 C718 1.356 . S
N726 H732 0.984 . S
N726 H733 0.984 . S
N727 C720 1.356 . S
N727 H730 0.984 . S
N727 H731 0.985 . S
H728 N723 0.984 . S
H729 N723 0.985 . S
H730 N727 0.984 . S
H731 N727 0.985 . S
H732 N726 0.984 . S
H733 N726 0.984 . S
H734 N722 0.984 1_554 S
H735 N722 0.985 1_554 S
C736 C737 1.363 . S
C736 C742 1.379 . S
C736 N744 1.356 . S
C737 C736 1.363 . S
C737 C743 1.363 . S
C738 C739 1.363 . S
C738 C743 1.379 . S
C738 N745 1.356 . S
C739 C738 1.363 . S
C739 C742 1.363 . S
N740 C742 1.356 . S
N740 H752 0.984 . S
N740 H753 0.985 . S
N741 C743 1.356 . S
N741 H746 0.984 . S
N741 H747 0.985 . S
C742 C736 1.379 . S
C742 C739 1.363 . S
C742 N740 1.356 . S
C743 C737 1.363 . S
C743 C738 1.379 . S
C743 N741 1.356 . S
N744 C736 1.356 . S
N744 H750 0.984 . S
N744 H751 0.984 . S
N745 C738 1.356 . S
N745 H748 0.984 . S
N745 H749 0.985 . S
H746 N741 0.984 . S
H747 N741 0.985 . S
H748 N745 0.984 . S
H749 N745 0.985 . S
H750 N744 0.984 . S
H751 N744 0.984 . S
H752 N740 0.984 . S
H753 N740 0.985 . S
C754 C755 1.363 . S
C754 C760 1.379 . S
C754 N762 1.356 . S
C755 C754 1.363 . S
C755 C761 1.363 . S
C756 C757 1.363 . S
C756 C761 1.379 . S
C756 N763 1.356 . S
C757 C756 1.363 . S
C757 C760 1.363 . S
N758 C760 1.356 . S
N758 H770 0.984 1_655 S
N758 H771 0.985 . S
N759 C761 1.356 . S
N759 H764 0.984 . S
N759 H765 0.985 . S
C760 C754 1.379 . S
C760 C757 1.363 . S
C760 N758 1.356 . S
C761 C755 1.363 . S
C761 C756 1.379 . S
C761 N759 1.356 . S
N762 C754 1.356 . S
N762 H768 0.984 . S
N762 H769 0.984 . S
N763 C756 1.356 . S
N763 H766 0.984 . S
N763 H767 0.985 . S
H764 N759 0.984 . S
H765 N759 0.985 . S
H766 N763 0.984 . S
H767 N763 0.985 . S
H768 N762 0.984 . S
H769 N762 0.984 . S
H770 N758 0.984 1_455 S
H771 N758 0.985 . S
C772 C773 1.363 . S
C772 C778 1.379 . S
C772 N780 1.356 . S
C773 C772 1.363 . S
C773 C779 1.363 . S
C774 C775 1.363 . S
C774 C779 1.379 . S
C774 N781 1.341 1_554 S
C775 C774 1.363 . S
C775 C778 1.363 . S
N776 C778 1.356 . S
N776 H788 0.984 . S
N776 H789 0.985 . S
N777 C779 1.356 . S
N777 H782 0.984 . S
N777 H783 0.985 . S
C778 C772 1.379 . S
C778 C775 1.363 . S
C778 N776 1.356 . S
C779 C773 1.363 . S
C779 C774 1.379 . S
C779 N777 1.356 . S
N780 C772 1.356 . S
N780 H786 0.984 . S
N780 H787 0.984 . S
N781 C774 1.341 1_556 S
N781 H784 0.990 . S
N781 H785 0.995 . S
H782 N777 0.984 . S
H783 N777 0.985 . S
H784 N781 0.990 . S
H785 N781 0.995 . S
H786 N780 0.984 . S
H787 N780 0.984 . S
H788 N776 0.984 . S
H789 N776 0.985 . S
C790 C791 1.363 . S
C790 C796 1.379 . S
C790 N798 1.356 . S
C791 C790 1.363 . S
C791 C797 1.363 . S
C792 C793 1.363 . S
C792 C797 1.379 . S
C792 N799 1.356 . S
C793 C792 1.363 . S
C793 C796 1.363 . S
N794 C796 1.356 . S
N794 H806 0.984 . S
N794 H807 0.985 . S
N795 C797 1.356 . S
N795 H800 0.984 . S
N795 H801 0.985 . S
C796 C790 1.379 . S
C796 C793 1.363 . S
C796 N794 1.356 . S
C797 C791 1.363 . S
C797 C792 1.379 . S
C797 N795 1.356 . S
N798 C790 1.356 . S
N798 H804 0.984 . S
N798 H805 0.984 . S
N799 C792 1.356 . S
N799 H802 0.984 . S
N799 H803 0.985 . S
H800 N795 0.984 . S
H801 N795 0.985 . S
H802 N799 0.984 . S
H803 N799 0.985 . S
H804 N798 0.984 . S
H805 N798 0.984 . S
H806 N794 0.984 . S
H807 N794 0.985 . S
C808 C809 1.363 . S
C808 C814 1.379 . S
C808 N816 1.356 . S
C809 C808 1.363 . S
C809 C815 1.363 . S
C810 C811 1.363 . S
C810 C815 1.379 . S
C810 N817 1.356 . S
C811 C810 1.363 . S
C811 C814 1.363 . S
N812 C814 1.356 . S
N812 H824 0.984 . S
N812 H825 0.985 . S
N813 C815 1.356 . S
N813 H818 0.984 . S
N813 H819 0.985 . S
C814 C808 1.379 . S
C814 C811 1.363 . S
C814 N812 1.356 . S
C815 C809 1.363 . S
C815 C810 1.379 . S
C815 N813 1.356 . S
N816 C808 1.356 . S
N816 H822 0.984 . S
N816 H823 0.984 . S
N817 C810 1.356 . S
N817 H820 0.984 . S
N817 H821 0.985 . S
H818 N813 0.984 . S
H819 N813 0.985 . S
H820 N817 0.984 . S
H821 N817 0.985 . S
H822 N816 0.984 . S
H823 N816 0.984 . S
H824 N812 0.984 . S
H825 N812 0.985 . S
C826 C827 1.363 . S
C826 C832 1.379 . S
C826 N834 1.356 . S
C827 C826 1.363 . S
C827 C833 1.363 . S
C828 C829 1.363 . S
C828 C833 1.379 . S
C828 N835 1.356 . S
C829 C828 1.363 . S
C829 C832 1.363 . S
N830 C832 1.356 . S
N830 H842 0.984 . S
N830 H843 0.985 . S
N831 C833 1.356 . S
N831 H836 0.984 . S
N831 H837 0.985 . S
C832 C826 1.379 . S
C832 C829 1.363 . S
C832 N830 1.356 . S
C833 C827 1.363 . S
C833 C828 1.379 . S
C833 N831 1.356 . S
N834 C826 1.356 . S
N834 H840 0.984 . S
N834 H841 0.984 . S
N835 C828 1.356 . S
N835 H838 0.984 . S
N835 H839 0.985 . S
H836 N831 0.984 . S
H837 N831 0.985 . S
H838 N835 0.984 . S
H839 N835 0.985 . S
H840 N834 0.984 . S
H841 N834 0.984 . S
H842 N830 0.984 . S
H843 N830 0.985 . S
C844 C845 1.363 . S
C844 C850 1.379 . S
C844 N852 1.356 . S
C845 C844 1.363 . S
C845 C851 1.363 . S
C846 C847 1.363 . S
C846 C851 1.379 . S
C846 N853 1.356 . S
C847 C846 1.363 . S
C847 C850 1.363 . S
N848 C850 1.356 . S
N848 H860 0.984 . S
N848 H861 0.985 . S
N849 C851 1.356 . S
N849 H854 0.984 . S
N849 H855 0.985 . S
C850 C844 1.379 . S
C850 C847 1.363 . S
C850 N848 1.356 . S
C851 C845 1.363 . S
C851 C846 1.379 . S
C851 N849 1.356 . S
N852 C844 1.356 . S
N852 H858 0.984 . S
N852 H859 0.984 . S
N853 C846 1.356 . S
N853 H856 0.984 . S
N853 H857 0.985 1_556 S
H854 N849 0.984 . S
H855 N849 0.985 . S
H856 N853 0.984 . S
H857 N853 0.985 1_554 S
H858 N852 0.984 . S
H859 N852 0.984 . S
H860 N848 0.984 . S
H861 N848 0.985 . S
C862 C863 1.363 . S
C862 C868 1.379 . S
C862 N870 1.356 . S
C863 C862 1.363 . S
C863 C869 1.363 . S
C864 C865 1.363 . S
C864 C869 1.379 . S
C864 N871 1.356 . S
C865 C864 1.363 . S
C865 C868 1.363 . S
N866 C868 1.356 . S
N866 H878 0.984 . S
N866 H879 0.985 . S
N867 C869 1.356 . S
N867 H872 0.984 . S
N867 H873 0.985 . S
C868 C862 1.379 . S
C868 C865 1.363 . S
C868 N866 1.356 . S
C869 C863 1.363 . S
C869 C864 1.379 . S
C869 N867 1.356 . S
N870 C862 1.356 . S
N870 H876 0.984 . S
N870 H877 0.984 . S
N871 C864 1.356 . S
N871 H874 0.984 . S
N871 H875 0.985 . S
H872 N867 0.984 . S
H873 N867 0.985 . S
H874 N871 0.984 . S
H875 N871 0.985 . S
H876 N870 0.984 . S
H877 N870 0.984 . S
H878 N866 0.984 . S
H879 N866 0.985 . S
C880 C881 1.363 . S
C880 C886 1.379 . S
C880 N888 1.356 . S
C881 C880 1.363 . S
C881 C887 1.363 . S
C882 C883 1.363 . S
C882 C887 1.379 . S
C882 N889 1.356 . S
C883 C882 1.363 . S
C883 C886 1.363 . S
N884 C886 1.356 . S
N884 H896 0.984 . S
N884 H897 0.985 . S
N885 C887 1.356 . S
N885 H890 0.984 . S
N885 H891 0.985 . S
C886 C880 1.379 . S
C886 C883 1.363 . S
C886 N884 1.356 . S
C887 C881 1.363 . S
C887 C882 1.379 . S
C887 N885 1.356 . S
N888 C880 1.356 . S
N888 H894 0.984 . S
N888 H895 0.984 . S
N889 C882 1.356 . S
N889 H892 0.984 . S
N889 H893 0.985 . S
H890 N885 0.984 . S
H891 N885 0.985 . S
H892 N889 0.984 . S
H893 N889 0.985 . S
H894 N888 0.984 . S
H895 N888 0.984 . S
H896 N884 0.984 . S
H897 N884 0.985 . S
C898 C899 1.363 . S
C898 C904 1.379 . S
C898 N906 1.356 . S
C899 C898 1.363 . S
C899 C905 1.363 . S
C900 C901 1.363 . S
C900 C905 1.379 . S
C900 N907 1.356 . S
C901 C900 1.363 . S
C901 C904 1.363 . S
N902 C904 1.356 . S
N902 H914 0.984 . S
N902 H915 0.985 . S
N903 C905 1.356 . S
N903 H908 0.984 . S
N903 H909 0.985 . S
C904 C898 1.379 . S
C904 C901 1.363 . S
C904 N902 1.356 . S
C905 C899 1.363 . S
C905 C900 1.379 . S
C905 N903 1.356 . S
N906 C898 1.356 . S
N906 H912 0.984 . S
N906 H913 0.984 . S
N907 C900 1.356 . S
N907 H910 0.984 . S
N907 H911 0.985 . S
H908 N903 0.984 . S
H909 N903 0.985 . S
H910 N907 0.984 . S
H911 N907 0.985 . S
H912 N906 0.984 . S
H913 N906 0.984 . S
H914 N902 0.984 . S
H915 N902 0.985 . S
C916 C917 1.363 . S
C916 C922 1.379 . S
C916 N924 1.356 . S
C917 C916 1.363 . S
C917 C923 1.363 . S
C918 C919 1.363 . S
C918 C923 1.379 . S
C918 N925 1.356 . S
C919 C918 1.363 . S
C919 C922 1.363 . S
N920 C922 1.356 . S
N920 H932 0.984 . S
N920 H933 0.985 . S
N921 C923 1.356 . S
N921 H926 0.984 . S
N921 H927 0.985 . S
C922 C916 1.379 . S
C922 C919 1.363 . S
C922 N920 1.356 . S
C923 C917 1.363 . S
C923 C918 1.379 . S
C923 N921 1.356 . S
N924 C916 1.356 . S
N924 H930 0.984 . S
N924 H931 0.984 . S
N925 C918 1.356 . S
N925 H928 0.984 . S
N925 H929 0.985 . S
H926 N921 0.984 . S
H927 N921 0.985 . S
H928 N925 0.984 . S
H929 N925 0.985 . S
H930 N924 0.984 . S
H931 N924 0.984 . S
H932 N920 0.984 . S
H933 N920 0.985 . S
C934 C935 1.363 . S
C934 C940 1.379 . S
C934 N942 1.356 . S
C935 C934 1.363 . S
C935 C941 1.363 . S
C936 C937 1.363 . S
C936 C941 1.379 . S
C936 N943 1.356 . S
C937 C936 1.363 . S
C937 C940 1.363 . S
N938 C940 1.356 . S
N938 H950 0.984 . S
N938 H951 0.985 . S
N939 C941 1.356 . S
N939 H944 0.984 . S
N939 H945 0.985 . S
C940 C934 1.379 . S
C940 C937 1.363 . S
C940 N938 1.356 . S
C941 C935 1.363 . S
C941 C936 1.379 . S
C941 N939 1.356 . S
N942 C934 1.356 . S
N942 H948 0.984 . S
N942 H949 0.984 . S
N943 C936 1.356 . S
N943 H946 0.984 . S
N943 H947 0.985 . S
H944 N939 0.984 . S
H945 N939 0.985 . S
H946 N943 0.984 . S
H947 N943 0.985 . S
H948 N942 0.984 . S
H949 N942 0.984 . S
H950 N938 0.984 . S
H951 N938 0.985 . S
C952 C953 1.363 . S
C952 C958 1.379 . S
C952 N960 1.356 . S
C953 C952 1.363 . S
C953 C959 1.363 . S
C954 C955 1.363 . S
C954 C959 1.379 . S
C954 N961 1.356 . S
C955 C954 1.363 . S
C955 C958 1.363 . S
N956 C958 1.356 . S
N956 H968 0.984 . S
N956 H969 0.985 . S
N957 C959 1.356 . S
N957 H962 0.984 . S
N957 H963 0.985 . S
C958 C952 1.379 . S
C958 C955 1.363 . S
C958 N956 1.356 . S
C959 C953 1.363 . S
C959 C954 1.379 . S
C959 N957 1.356 . S
N960 C952 1.356 . S
N960 H966 0.984 . S
N960 H967 0.984 . S
N961 C954 1.356 . S
N961 H964 0.984 . S
N961 H965 0.985 . S
H962 N957 0.984 . S
H963 N957 0.985 . S
H964 N961 0.984 . S
H965 N961 0.985 . S
H966 N960 0.984 . S
H967 N960 0.984 . S
H968 N956 0.984 . S
H969 N956 0.985 . S
C970 C971 1.363 . S
C970 C976 1.379 . S
C970 N978 1.356 . S
C971 C970 1.363 . S
C971 C977 1.363 . S
C972 C973 1.363 . S
C972 C977 1.379 . S
C972 N979 1.356 . S
C973 C972 1.363 . S
C973 C976 1.363 . S
N974 C976 1.356 . S
N974 H986 0.984 . S
N974 H987 0.985 . S
N975 C977 1.356 . S
N975 H980 0.984 . S
N975 H981 0.985 . S
C976 C970 1.379 . S
C976 C973 1.363 . S
C976 N974 1.356 . S
C977 C971 1.363 . S
C977 C972 1.379 . S
C977 N975 1.356 . S
N978 C970 1.356 . S
N978 H984 0.984 . S
N978 H985 0.984 . S
N979 C972 1.356 . S
N979 H982 0.984 . S
N979 H983 0.985 . S
H980 N975 0.984 . S
H981 N975 0.985 . S
H982 N979 0.984 . S
H983 N979 0.985 . S
H984 N978 0.984 . S
H985 N978 0.984 . S
H986 N974 0.984 . S
H987 N974 0.985 . S
C988 C989 1.363 . S
C988 C994 1.379 . S
C988 N996 1.356 . S
C989 C988 1.363 . S
C989 C995 1.363 . S
C990 C991 1.363 . S
C990 C995 1.379 . S
C990 N997 1.356 . S
C991 C990 1.363 . S
C991 C994 1.363 . S
N992 C994 1.356 . S
N992 H1004 0.984 1_554 S
N992 H1005 0.985 1_554 S
N993 C995 1.356 . S
N993 H998 0.984 . S
N993 H999 0.985 . S
C994 C988 1.379 . S
C994 C991 1.363 . S
C994 N992 1.356 . S
C995 C989 1.363 . S
C995 C990 1.379 . S
C995 N993 1.356 . S
N996 C988 1.356 . S
N996 H1002 0.984 . S
N996 H1003 0.984 . S
N997 C990 1.356 . S
N997 H1000 0.984 . S
N997 H1001 0.985 . S
H998 N993 0.984 . S
H999 N993 0.985 . S
H1000 N997 0.984 . S
H1001 N997 0.985 . S
H1002 N996 0.984 . S
H1003 N996 0.984 . S
H1004 N992 0.984 1_556 S
H1005 N992 0.985 1_556 S
C1006 C1007 1.363 . S
C1006 C1012 1.379 . S
C1006 N1014 1.356 . S
C1007 C1006 1.363 . S
C1007 C1013 1.363 . S
C1008 C1009 1.363 . S
C1008 C1013 1.379 . S
C1008 N1015 1.356 . S
C1009 C1008 1.363 . S
C1009 C1012 1.363 . S
N1010 C1012 1.356 . S
N1010 H1022 0.984 . S
N1010 H1023 0.985 . S
N1011 C1013 1.356 . S
N1011 H1016 0.984 . S
N1011 H1017 0.985 . S
C1012 C1006 1.379 . S
C1012 C1009 1.363 . S
C1012 N1010 1.356 . S
C1013 C1007 1.363 . S
C1013 C1008 1.379 . S
C1013 N1011 1.356 . S
N1014 C1006 1.356 . S
N1014 H1020 0.984 . S
N1014 H1021 0.984 . S
N1015 C1008 1.356 . S
N1015 H1018 0.984 . S
N1015 H1019 0.985 . S
H1016 N1011 0.984 . S
H1017 N1011 0.985 . S
H1018 N1015 0.984 . S
H1019 N1015 0.985 . S
H1020 N1014 0.984 . S
H1021 N1014 0.984 . S
H1022 N1010 0.984 . S
H1023 N1010 0.985 . S
C1024 C1025 1.363 . S
C1024 C1030 1.379 . S
C1024 N1032 1.356 . S
C1025 C1024 1.363 . S
C1025 C1031 1.363 . S
C1026 C1027 1.363 . S
C1026 C1031 1.379 . S
C1026 N1033 1.356 . S
C1027 C1026 1.363 . S
C1027 C1030 1.363 . S
N1028 C1030 1.356 . S
N1028 H1040 0.984 1_554 S
N1028 H1041 0.985 1_554 S
N1029 C1031 1.356 . S
N1029 H1034 0.984 . S
N1029 H1035 0.985 . S
C1030 C1024 1.379 . S
C1030 C1027 1.363 . S
C1030 N1028 1.356 . S
C1031 C1025 1.363 . S
C1031 C1026 1.379 . S
C1031 N1029 1.356 . S
N1032 C1024 1.356 . S
N1032 H1038 0.984 . S
N1032 H1039 0.984 . S
N1033 C1026 1.356 . S
N1033 H1036 0.984 . S
N1033 H1037 0.985 . S
H1034 N1029 0.984 . S
H1035 N1029 0.985 . S
H1036 N1033 0.984 . S
H1037 N1033 0.985 . S
H1038 N1032 0.984 . S
H1039 N1032 0.984 . S
H1040 N1028 0.984 1_556 S
H1041 N1028 0.985 1_556 S
C1042 C1043 1.363 . S
C1042 C1048 1.379 . S
C1042 N1050 1.356 . S
C1043 C1042 1.363 . S
C1043 C1049 1.363 . S
C1044 C1045 1.363 . S
C1044 C1049 1.379 . S
C1044 N1051 1.356 . S
C1045 C1044 1.363 . S
C1045 C1048 1.363 . S
N1046 C1048 1.356 . S
N1046 H1058 0.984 . S
N1046 H1059 0.985 . S
N1047 C1049 1.356 . S
N1047 H1052 0.984 . S
N1047 H1053 0.985 . S
C1048 C1042 1.379 . S
C1048 C1045 1.363 . S
C1048 N1046 1.356 . S
C1049 C1043 1.363 . S
C1049 C1044 1.379 . S
C1049 N1047 1.356 . S
N1050 C1042 1.356 . S
N1050 H1056 0.984 . S
N1050 H1057 0.984 . S
N1051 C1044 1.356 . S
N1051 H1054 0.984 . S
N1051 H1055 0.985 . S
H1052 N1047 0.984 . S
H1053 N1047 0.985 . S
H1054 N1051 0.984 . S
H1055 N1051 0.985 . S
H1056 N1050 0.984 . S
H1057 N1050 0.984 . S
H1058 N1046 0.984 . S
H1059 N1046 0.985 . S
C1060 C1061 1.363 . S
C1060 C1066 1.379 . S
C1060 N1068 1.356 . S
C1061 C1060 1.363 . S
C1061 C1067 1.363 . S
C1062 C1063 1.363 . S
C1062 C1067 1.379 . S
C1062 N1069 1.356 . S
C1063 C1062 1.363 . S
C1063 C1066 1.363 . S
N1064 C1066 1.356 . S
N1064 H1076 0.984 . S
N1064 H1077 0.985 . S
N1065 C1067 1.356 . S
N1065 H1070 0.984 . S
N1065 H1071 0.985 . S
C1066 C1060 1.379 . S
C1066 C1063 1.363 . S
C1066 N1064 1.356 . S
C1067 C1061 1.363 . S
C1067 C1062 1.379 . S
C1067 N1065 1.356 . S
N1068 C1060 1.356 . S
N1068 H1074 0.984 . S
N1068 H1075 0.984 . S
N1069 C1062 1.356 . S
N1069 H1072 0.984 . S
N1069 H1073 0.985 . S
H1070 N1065 0.984 . S
H1071 N1065 0.985 . S
H1072 N1069 0.984 . S
H1073 N1069 0.985 . S
H1074 N1068 0.984 . S
H1075 N1068 0.984 . S
H1076 N1064 0.984 . S
H1077 N1064 0.985 . S
C1078 C1079 1.363 . S
C1078 C1084 1.379 . S
C1078 N1086 1.356 . S
C1079 C1078 1.363 . S
C1079 C1085 1.363 . S
C1080 C1081 1.363 . S
C1080 C1085 1.379 . S
C1080 N1087 1.356 . S
C1081 C1080 1.363 . S
C1081 C1084 1.363 . S
N1082 C1084 1.356 . S
N1082 H1094 0.984 . S
N1082 H1095 0.985 . S
N1083 C1085 1.356 . S
N1083 H1088 0.984 . S
N1083 H1089 0.985 . S
C1084 C1078 1.379 . S
C1084 C1081 1.363 . S
C1084 N1082 1.356 . S
C1085 C1079 1.363 . S
C1085 C1080 1.379 . S
C1085 N1083 1.356 . S
N1086 C1078 1.356 . S
N1086 H1092 0.984 . S
N1086 H1093 0.984 . S
N1087 C1080 1.356 . S
N1087 H1090 0.984 . S
N1087 H1091 0.985 . S
H1088 N1083 0.984 . S
H1089 N1083 0.985 . S
H1090 N1087 0.984 . S
H1091 N1087 0.985 . S
H1092 N1086 0.984 . S
H1093 N1086 0.984 . S
H1094 N1082 0.984 . S
H1095 N1082 0.985 . S
C1096 C1097 1.363 . S
C1096 C1102 1.379 . S
C1096 N1104 1.356 . S
C1097 C1096 1.363 . S
C1097 C1103 1.363 . S
C1098 C1099 1.363 . S
C1098 C1103 1.379 . S
C1098 N1105 1.356 . S
C1099 C1098 1.363 . S
C1099 C1102 1.363 . S
N1100 C1102 1.356 . S
N1100 H1112 0.984 . S
N1100 H1113 0.985 . S
N1101 C1103 1.356 . S
N1101 H1106 0.984 . S
N1101 H1107 0.985 . S
C1102 C1096 1.379 . S
C1102 C1099 1.363 . S
C1102 N1100 1.356 . S
C1103 C1097 1.363 . S
C1103 C1098 1.379 . S
C1103 N1101 1.356 . S
N1104 C1096 1.356 . S
N1104 H1110 0.984 . S
N1104 H1111 0.984 . S
N1105 C1098 1.356 . S
N1105 H1108 0.984 . S
N1105 H1109 0.985 . S
H1106 N1101 0.984 . S
H1107 N1101 0.985 . S
H1108 N1105 0.984 . S
H1109 N1105 0.985 . S
H1110 N1104 0.984 . S
H1111 N1104 0.984 . S
H1112 N1100 0.984 . S
H1113 N1100 0.985 . S
C1114 C1115 1.363 . S
C1114 C1120 1.379 . S
C1114 N1122 1.356 . S
C1115 C1114 1.363 . S
C1115 C1121 1.363 . S
C1116 C1117 1.363 . S
C1116 C1121 1.379 . S
C1116 N1123 1.356 . S
C1117 C1116 1.363 . S
C1117 C1120 1.363 . S
N1118 C1120 1.356 . S
N1118 H1130 0.984 . S
N1118 H1131 0.985 . S
N1119 C1121 1.356 . S
N1119 H1124 0.984 . S
N1119 H1125 0.985 . S
C1120 C1114 1.379 . S
C1120 C1117 1.363 . S
C1120 N1118 1.356 . S
C1121 C1115 1.363 . S
C1121 C1116 1.379 . S
C1121 N1119 1.356 . S
N1122 C1114 1.356 . S
N1122 H1128 0.984 . S
N1122 H1129 0.984 . S
N1123 C1116 1.356 . S
N1123 H1126 0.984 . S
N1123 H1127 0.985 . S
H1124 N1119 0.984 . S
H1125 N1119 0.985 . S
H1126 N1123 0.984 . S
H1127 N1123 0.985 . S
H1128 N1122 0.984 . S
H1129 N1122 0.984 . S
H1130 N1118 0.984 . S
H1131 N1118 0.985 . S
C1132 C1133 1.363 . S
C1132 C1138 1.379 . S
C1132 N1140 1.356 . S
C1133 C1132 1.363 . S
C1133 C1139 1.363 . S
C1134 C1135 1.363 . S
C1134 C1139 1.379 . S
C1134 N1141 1.356 . S
C1135 C1134 1.363 . S
C1135 C1138 1.363 . S
N1136 C1138 1.356 . S
N1136 H1148 0.984 . S
N1136 H1149 0.985 . S
N1137 C1139 1.356 . S
N1137 H1142 0.984 . S
N1137 H1143 0.985 . S
C1138 C1132 1.379 . S
C1138 C1135 1.363 . S
C1138 N1136 1.356 . S
C1139 C1133 1.363 . S
C1139 C1134 1.379 . S
C1139 N1137 1.356 . S
N1140 C1132 1.356 . S
N1140 H1146 0.984 . S
N1140 H1147 0.984 . S
N1141 C1134 1.356 . S
N1141 H1144 0.984 . S
N1141 H1145 0.985 . S
H1142 N1137 0.984 . S
H1143 N1137 0.985 . S
H1144 N1141 0.984 . S
H1145 N1141 0.985 . S
H1146 N1140 0.984 . S
H1147 N1140 0.984 . S
H1148 N1136 0.984 . S
H1149 N1136 0.985 . S
C1150 C1151 1.363 . S
C1150 C1156 1.379 . S
C1150 N1158 1.356 . S
C1151 C1150 1.363 . S
C1151 C1157 1.363 . S
C1152 C1153 1.363 . S
C1152 C1157 1.379 . S
C1152 N1159 1.356 . S
C1153 C1152 1.363 . S
C1153 C1156 1.363 . S
N1154 C1156 1.356 . S
N1154 H1166 0.984 . S
N1154 H1167 0.985 . S
N1155 C1157 1.356 . S
N1155 H1160 0.984 . S
N1155 H1161 0.985 . S
C1156 C1150 1.379 . S
C1156 C1153 1.363 . S
C1156 N1154 1.356 . S
C1157 C1151 1.363 . S
C1157 C1152 1.379 . S
C1157 N1155 1.356 . S
N1158 C1150 1.356 . S
N1158 H1164 0.984 . S
N1158 H1165 0.984 . S
N1159 C1152 1.356 . S
N1159 H1162 0.984 . S
N1159 H1163 0.985 . S
H1160 N1155 0.984 . S
H1161 N1155 0.985 . S
H1162 N1159 0.984 . S
H1163 N1159 0.985 . S
H1164 N1158 0.984 . S
H1165 N1158 0.984 . S
H1166 N1154 0.984 . S
H1167 N1154 0.985 . S
C1168 C1169 1.363 . S
C1168 C1174 1.379 . S
C1168 N1176 1.356 . S
C1169 C1168 1.363 . S
C1169 C1175 1.363 . S
C1170 C1171 1.363 . S
C1170 C1175 1.379 . S
C1170 N1177 1.356 . S
C1171 C1170 1.363 . S
C1171 C1174 1.363 . S
N1172 C1174 1.356 . S
N1172 H1184 0.984 . S
N1172 H1185 0.985 . S
N1173 C1175 1.356 . S
N1173 H1178 0.984 . S
N1173 H1179 0.985 . S
C1174 C1168 1.379 . S
C1174 C1171 1.363 . S
C1174 N1172 1.356 . S
C1175 C1169 1.363 . S
C1175 C1170 1.379 . S
C1175 N1173 1.356 . S
N1176 C1168 1.356 . S
N1176 H1182 0.984 . S
N1176 H1183 0.984 . S
N1177 C1170 1.356 . S
N1177 H1180 0.984 . S
N1177 H1181 0.985 . S
H1178 N1173 0.984 . S
H1179 N1173 0.985 . S
H1180 N1177 0.984 . S
H1181 N1177 0.985 . S
H1182 N1176 0.984 . S
H1183 N1176 0.984 . S
H1184 N1172 0.984 . S
H1185 N1172 0.985 . S
C1186 C1187 1.363 . S
C1186 C1192 1.379 . S
C1186 N1194 1.356 . S
C1187 C1186 1.363 . S
C1187 C1193 1.363 . S
C1188 C1189 1.363 . S
C1188 C1193 1.379 . S
C1188 N1195 1.356 . S
C1189 C1188 1.363 . S
C1189 C1192 1.363 . S
N1190 C1192 1.356 . S
N1190 H1202 0.984 . S
N1190 H1203 0.985 . S
N1191 C1193 1.356 . S
N1191 H1196 0.984 . S
N1191 H1197 0.985 . S
C1192 C1186 1.379 . S
C1192 C1189 1.363 . S
C1192 N1190 1.356 . S
C1193 C1187 1.363 . S
C1193 C1188 1.379 . S
C1193 N1191 1.356 . S
N1194 C1186 1.356 . S
N1194 H1200 0.984 . S
N1194 H1201 0.984 . S
N1195 C1188 1.356 . S
N1195 H1198 0.984 . S
N1195 H1199 0.985 . S
H1196 N1191 0.984 . S
H1197 N1191 0.985 . S
H1198 N1195 0.984 . S
H1199 N1195 0.985 . S
H1200 N1194 0.984 . S
H1201 N1194 0.984 . S
H1202 N1190 0.984 . S
H1203 N1190 0.985 . S
C1204 C1205 1.363 . S
C1204 C1210 1.379 . S
C1204 N1212 1.356 . S
C1205 C1204 1.363 . S
C1205 C1211 1.363 . S
C1206 C1207 1.363 . S
C1206 C1211 1.379 . S
C1206 N1213 1.356 . S
C1207 C1206 1.363 . S
C1207 C1210 1.363 . S
N1208 C1210 1.356 . S
N1208 H1220 0.984 . S
N1208 H1221 0.985 . S
N1209 C1211 1.356 . S
N1209 H1214 0.984 . S
N1209 H1215 0.985 . S
C1210 C1204 1.379 . S
C1210 C1207 1.363 . S
C1210 N1208 1.356 . S
C1211 C1205 1.363 . S
C1211 C1206 1.379 . S
C1211 N1209 1.356 . S
N1212 C1204 1.356 . S
N1212 H1218 0.984 . S
N1212 H1219 0.984 . S
N1213 C1206 1.356 . S
N1213 H1216 0.984 . S
N1213 H1217 0.985 . S
H1214 N1209 0.984 . S
H1215 N1209 0.985 . S
H1216 N1213 0.984 . S
H1217 N1213 0.985 . S
H1218 N1212 0.984 . S
H1219 N1212 0.984 . S
H1220 N1208 0.984 . S
H1221 N1208 0.985 . S
C1222 C1223 1.363 . S
C1222 C1228 1.379 . S
C1222 N1230 1.356 . S
C1223 C1222 1.363 . S
C1223 C1229 1.363 . S
C1224 C1225 1.363 . S
C1224 C1229 1.379 . S
C1224 N1231 1.356 . S
C1225 C1224 1.363 . S
C1225 C1228 1.363 . S
N1226 C1228 1.356 . S
N1226 H1238 0.984 . S
N1226 H1239 0.985 . S
N1227 C1229 1.356 . S
N1227 H1232 0.984 . S
N1227 H1233 0.985 . S
C1228 C1222 1.379 . S
C1228 C1225 1.363 . S
C1228 N1226 1.356 . S
C1229 C1223 1.363 . S
C1229 C1224 1.379 . S
C1229 N1227 1.356 . S
N1230 C1222 1.356 . S
N1230 H1236 0.984 . S
N1230 H1237 0.984 . S
N1231 C1224 1.356 . S
N1231 H1234 0.984 . S
N1231 H1235 0.985 . S
H1232 N1227 0.984 . S
H1233 N1227 0.985 . S
H1234 N1231 0.984 . S
H1235 N1231 0.985 . S
H1236 N1230 0.984 . S
H1237 N1230 0.984 . S
H1238 N1226 0.984 . S
H1239 N1226 0.985 . S
C1240 C1241 1.363 . S
C1240 C1246 1.379 . S
C1240 N1248 1.356 . S
C1241 C1240 1.363 . S
C1241 C1247 1.363 . S
C1242 C1243 1.363 . S
C1242 C1247 1.379 . S
C1242 N1249 1.356 . S
C1243 C1242 1.363 . S
C1243 C1246 1.363 . S
N1244 C1246 1.356 . S
N1244 H1256 0.984 . S
N1244 H1257 0.985 . S
N1245 C1247 1.356 . S
N1245 H1250 0.984 . S
N1245 H1251 0.985 . S
C1246 C1240 1.379 . S
C1246 C1243 1.363 . S
C1246 N1244 1.356 . S
C1247 C1241 1.363 . S
C1247 C1242 1.379 . S
C1247 N1245 1.356 . S
N1248 C1240 1.356 . S
N1248 H1254 0.984 . S
N1248 H1255 0.984 . S
N1249 C1242 1.356 . S
N1249 H1252 0.984 . S
N1249 H1253 0.985 . S
H1250 N1245 0.984 . S
H1251 N1245 0.985 . S
H1252 N1249 0.984 . S
H1253 N1249 0.985 . S
H1254 N1248 0.984 . S
H1255 N1248 0.984 . S
H1256 N1244 0.984 . S
H1257 N1244 0.985 . S
C1258 C1259 1.363 . S
C1258 C1264 1.379 . S
C1258 N1266 1.356 . S
C1259 C1258 1.363 . S
C1259 C1265 1.363 . S
C1260 C1261 1.363 . S
C1260 C1265 1.379 . S
C1260 N1267 1.356 . S
C1261 C1260 1.363 . S
C1261 C1264 1.363 . S
N1262 C1264 1.356 . S
N1262 H1274 0.984 . S
N1262 H1275 0.985 . S
N1263 C1265 1.356 . S
N1263 H1268 0.984 . S
N1263 H1269 0.985 . S
C1264 C1258 1.379 . S
C1264 C1261 1.363 . S
C1264 N1262 1.356 . S
C1265 C1259 1.363 . S
C1265 C1260 1.379 . S
C1265 N1263 1.356 . S
N1266 C1258 1.356 . S
N1266 H1272 0.984 . S
N1266 H1273 0.984 . S
N1267 C1260 1.356 . S
N1267 H1270 0.984 . S
N1267 H1271 0.985 . S
H1268 N1263 0.984 . S
H1269 N1263 0.985 . S
H1270 N1267 0.984 . S
H1271 N1267 0.985 . S
H1272 N1266 0.984 . S
H1273 N1266 0.984 . S
H1274 N1262 0.984 . S
H1275 N1262 0.985 . S
C1276 C1277 1.363 . S
C1276 C1282 1.379 . S
C1276 N1284 1.356 . S
C1277 C1276 1.363 . S
C1277 C1283 1.363 . S
C1278 C1279 1.363 . S
C1278 C1283 1.379 . S
C1278 N1285 1.356 . S
C1279 C1278 1.363 . S
C1279 C1282 1.363 . S
N1280 C1282 1.356 . S
N1280 H1292 0.984 . S
N1280 H1293 0.985 . S
N1281 C1283 1.356 . S
N1281 H1286 0.984 . S
N1281 H1287 0.985 . S
C1282 C1276 1.379 . S
C1282 C1279 1.363 . S
C1282 N1280 1.356 . S
C1283 C1277 1.363 . S
C1283 C1278 1.379 . S
C1283 N1281 1.356 . S
N1284 C1276 1.356 . S
N1284 H1290 0.984 . S
N1284 H1291 0.984 . S
N1285 C1278 1.356 . S
N1285 H1288 0.984 . S
N1285 H1289 0.985 . S
H1286 N1281 0.984 . S
H1287 N1281 0.985 . S
H1288 N1285 0.984 . S
H1289 N1285 0.985 . S
H1290 N1284 0.984 . S
H1291 N1284 0.984 . S
H1292 N1280 0.984 . S
H1293 N1280 0.985 . S
C1294 C1295 1.363 . S
C1294 C1300 1.379 . S
C1294 N1302 1.356 . S
C1295 C1294 1.363 . S
C1295 C1301 1.363 . S
C1296 C1297 1.363 . S
C1296 C1301 1.379 . S
C1296 N1303 1.356 . S
C1297 C1296 1.363 . S
C1297 C1300 1.363 . S
N1298 C1300 1.356 . S
N1298 H1310 0.984 . S
N1298 H1311 0.985 . S
N1299 C1301 1.356 . S
N1299 H1304 0.984 . S
N1299 H1305 0.985 . S
C1300 C1294 1.379 . S
C1300 C1297 1.363 . S
C1300 N1298 1.356 . S
C1301 C1295 1.363 . S
C1301 C1296 1.379 . S
C1301 N1299 1.356 . S
N1302 C1294 1.356 . S
N1302 H1308 0.984 . S
N1302 H1309 0.984 . S
N1303 C1296 1.356 . S
N1303 H1306 0.984 . S
N1303 H1307 0.985 . S
H1304 N1299 0.984 . S
H1305 N1299 0.985 . S
H1306 N1303 0.984 . S
H1307 N1303 0.985 . S
H1308 N1302 0.984 . S
H1309 N1302 0.984 . S
H1310 N1298 0.984 . S
H1311 N1298 0.985 . S
C1312 C1313 1.363 . S
C1312 C1318 1.379 . S
C1312 N1320 1.356 . S
C1313 C1312 1.363 . S
C1313 C1319 1.363 . S
C1314 C1315 1.363 . S
C1314 C1319 1.379 . S
C1314 N1321 1.356 . S
C1315 C1314 1.363 . S
C1315 C1318 1.363 . S
N1316 C1318 1.356 . S
N1316 H1328 0.984 . S
N1316 H1329 0.985 . S
N1317 C1319 1.356 . S
N1317 H1322 0.984 . S
N1317 H1323 0.985 . S
C1318 C1312 1.379 . S
C1318 C1315 1.363 . S
C1318 N1316 1.356 . S
C1319 C1313 1.363 . S
C1319 C1314 1.379 . S
C1319 N1317 1.356 . S
N1320 C1312 1.356 . S
N1320 H1326 0.984 . S
N1320 H1327 0.984 . S
N1321 C1314 1.356 . S
N1321 H1324 0.984 . S
N1321 H1325 0.985 . S
H1322 N1317 0.984 . S
H1323 N1317 0.985 . S
H1324 N1321 0.984 . S
H1325 N1321 0.985 . S
H1326 N1320 0.984 . S
H1327 N1320 0.984 . S
H1328 N1316 0.984 . S
H1329 N1316 0.985 . S
C1330 C1331 1.363 . S
C1330 C1336 1.379 . S
C1330 N1338 1.356 . S
C1331 C1330 1.363 . S
C1331 C1337 1.363 . S
C1332 C1333 1.363 . S
C1332 C1337 1.379 . S
C1332 N1339 1.356 . S
C1333 C1332 1.363 . S
C1333 C1336 1.363 . S
N1334 C1336 1.356 . S
N1334 H1346 0.984 . S
N1334 H1347 0.985 . S
N1335 C1337 1.356 . S
N1335 H1340 0.984 . S
N1335 H1341 0.985 . S
C1336 C1330 1.379 . S
C1336 C1333 1.363 . S
C1336 N1334 1.356 . S
C1337 C1331 1.363 . S
C1337 C1332 1.379 . S
C1337 N1335 1.356 . S
N1338 C1330 1.356 . S
N1338 H1344 0.984 . S
N1338 H1345 0.984 . S
N1339 C1332 1.356 . S
N1339 H1342 0.984 . S
N1339 H1343 0.985 . S
H1340 N1335 0.984 . S
H1341 N1335 0.985 . S
H1342 N1339 0.984 . S
H1343 N1339 0.985 . S
H1344 N1338 0.984 . S
H1345 N1338 0.984 . S
H1346 N1334 0.984 . S
H1347 N1334 0.985 . S
C487 C195 1.427 . S
C485 C9 1.410 . S
C505 C173 1.438 . S
C503 C22 1.487 . S
C523 C170 0.845 . S
C521 C49 0.843 . S
C539 C61 1.500 . S
C541 C182 1.452 . S
C557 C81 1.482 . S
C559 C165 1.428 . S
C577 C187 0.844 . S
C575 C108 0.841 . S
C593 C122 1.506 . S
C595 C192 1.464 . S
C611 C148 1.409 . S
C613 C188 1.427 . S
C631 C246 2.277 . S
C629 C18 2.291 . S
C647 C39 1.363 . S
C649 C296 1.442 . S
C667 C219 2.269 . S
C665 C58 2.284 . S
C685 C295 0.908 . S
C683 C69 0.896 . S
C701 C89 0.891 . S
C703 C224 0.906 . S
C721 C290 1.434 . S
C719 C102 1.483 . S
C737 C139 1.366 . S
C739 C249 1.449 . S
C755 C142 1.488 . S
C757 C281 1.438 . S
C773 C1 1.493 . S
C775 C273 1.442 . S
C791 C98 1.369 . S
C793 C303 1.448 . S
C811 C227 2.286 . S
C809 C119 2.294 . S
C829 C278 0.918 . S
C827 C128 0.906 . S
C845 C159 2.292 . S
C847 C236 2.277 . S
C863 C41 1.498 . S
C865 C300 1.453 . S
C883 C242 1.454 . S
C881 C78 1.372 . S
C899 C28 0.900 . S
C901 C241 0.915 . S
C917 C149 1.410 . S
C919 C357 1.427 . S
C935 C82 1.487 . S
C937 C335 1.438 . S
C955 C332 0.845 . S
C953 C109 0.843 . S
C973 C344 1.452 . S
C971 C121 1.500 . S
C989 C21 1.482 . S
C991 C327 1.428 . S
C1009 C349 0.844 . S
C1007 C48 0.841 . S
C1025 C62 1.506 . S
C1027 C354 1.464 . S
C1043 C8 1.409 . S
C1045 C350 1.427 . S
C1061 C158 2.291 . S
C1063 C408 2.277 . S
C1081 C458 1.442 . S
C1079 C99 1.363 . S
C1097 C118 2.284 . S
C1099 C381 2.269 . S
C1115 C129 0.896 . S
C1117 C457 0.908 . S
C1135 C386 0.906 . S
C1133 C29 0.891 . S
C1151 C42 1.483 . S
C1153 C452 1.434 . S
C1171 C411 1.449 . S
C1169 C79 1.366 . S
C1189 C443 1.438 . S
C1187 C2 1.488 . S
C1207 C435 1.442 . S
C1205 C141 1.493 . S
C1223 C38 1.369 . S
C1225 C465 1.448 . S
C1241 C59 2.295 . S
C1243 C389 2.286 . S
C1261 C440 0.918 . S
C1259 C68 0.905 . S
C1277 C19 2.292 . S
C1279 C398 2.277 . S
C1295 C101 1.498 . S
C1297 C462 1.453 . S
C1315 C404 1.453 . S
C1313 C138 1.372 . S
C1333 C403 0.915 . S
C1331 C88 0.900 . S
