# Generated by pormake.
# Topology anh, (6,3)-cn, num edge types: 1
# Building blocks:
#     Node 0, Type 0, BuildingBlock: MIFKUJ_clean_sbu_0, # of connection points: 6
#     Node 1, Type 0, BuildingBlock: MIFKUJ_clean_sbu_0, # of connection points: 6
#     Node 2, Type 0, BuildingBlock: MIFKUJ_clean_sbu_0, # of connection points: 6
#     Node 3, Type 1, BuildingBlock: OLANEW_clean_sbu_2, # of connection points: 3
#     Node 4, Type 1, BuildingBlock: OLANEW_clean_sbu_2, # of connection points: 3
#     Node 5, Type 1, BuildingBlock: OLANEW_clean_sbu_2, # of connection points: 3
#     Node 6, Type 1, BuildingBlock: OLANEW_clean_sbu_2, # of connection points: 3
#     Node 7, Type 1, BuildingBlock: OLANEW_clean_sbu_2, # of connection points: 3
#     Node 8, Type 1, BuildingBlock: OLANEW_clean_sbu_2, # of connection points: 3
#     Edge 9, Type (0, 1), BuildingBlock: XUDNAN_clean_linker_2, # of connection points: 2
#     Edge 10, Type (0, 1), BuildingBlock: XUDNAN_clean_linker_2, # of connection points: 2
#     Edge 11, Type (0, 1), BuildingBlock: XUDNAN_clean_linker_2, # of connection points: 2
#     Edge 12, Type (0, 1), BuildingBlock: XUDNAN_clean_linker_2, # of connection points: 2
#     Edge 13, Type (0, 1), BuildingBlock: XUDNAN_clean_linker_2, # of connection points: 2
#     Edge 14, Type (0, 1), BuildingBlock: XUDNAN_clean_linker_2, # of connection points: 2
#     Edge 15, Type (0, 1), BuildingBlock: XUDNAN_clean_linker_2, # of connection points: 2
#     Edge 16, Type (0, 1), BuildingBlock: XUDNAN_clean_linker_2, # of connection points: 2
#     Edge 17, Type (0, 1), BuildingBlock: XUDNAN_clean_linker_2, # of connection points: 2
#     Edge 18, Type (0, 1), BuildingBlock: XUDNAN_clean_linker_2, # of connection points: 2
#     Edge 19, Type (0, 1), BuildingBlock: XUDNAN_clean_linker_2, # of connection points: 2
#     Edge 20, Type (0, 1), BuildingBlock: XUDNAN_clean_linker_2, # of connection points: 2
#     Edge 21, Type (0, 1), BuildingBlock: XUDNAN_clean_linker_2, # of connection points: 2
#     Edge 22, Type (0, 1), BuildingBlock: XUDNAN_clean_linker_2, # of connection points: 2
#     Edge 23, Type (0, 1), BuildingBlock: XUDNAN_clean_linker_2, # of connection points: 2
#     Edge 24, Type (0, 1), BuildingBlock: XUDNAN_clean_linker_2, # of connection points: 2
#     Edge 25, Type (0, 1), BuildingBlock: XUDNAN_clean_linker_2, # of connection points: 2
#     Edge 26, Type (0, 1), BuildingBlock: XUDNAN_clean_linker_2, # of connection points: 2
# Relax obj value: 0.070
# Max RMSD: 0.127
# Mean RMSD: 0.108
data_MOF--net-anh--node1-MIFKUJ_clean_sbu_0--node2-OLANEW_clean_sbu_2--edge1-XUDNAN_clean_linker_2
_symmetry_space_group_name_H-M    P1
_symmetry_Int_Tables_number       1
_symmetry_cell_setting            triclinic
loop_
_symmetry_equiv_pos_as_xyz
'x, y, z'
_cell_length_a     34.053485
_cell_length_b     34.121678
_cell_length_c     48.535289
_cell_angle_alpha  93.353628
_cell_angle_beta   90.902127
_cell_angle_gamma 119.95515
loop_
_atom_site_label
_atom_site_type_symbol
_atom_site_fract_x
_atom_site_fract_y
_atom_site_fract_z
_atom_type_partial_charge
Zn0 Zn 0.04941 0.55747 0.15953 0.0
Zn1 Zn 0.92908 0.46184 0.17315 0.0
C2 C 0.10969 0.52008 0.1618 0.0
O3 O 0.10228 0.51947 0.18829 0.0
C4 C 0.85533 0.47067 0.15475 0.0
O5 O 0.84585 0.43172 0.14192 0.0
O6 O 0.08816 0.62456 0.15595 0.0
O7 O 0.9921 0.53159 0.13599 0.0
O8 O 0.95662 0.458 0.13762 0.0
C9 C 0.10892 0.63731 0.13378 0.0
O10 O 0.10052 0.60671 0.11337 0.0
O11 O 0.08851 0.53201 0.14558 0.0
C12 C 0.88403 0.36277 0.17302 0.0
O13 O 0.92131 0.36694 0.16279 0.0
O14 O 0.88181 0.39808 0.17984 0.0
O15 O 0.97162 0.48871 0.20715 0.0
O16 O 0.0399 0.54696 0.19992 0.0
O17 O 0.89275 0.4935 0.16888 0.0
C18 C 0.9801 0.49268 0.1245 0.0
C19 C 0.01099 0.52016 0.21599 0.0
Zn20 Zn 0.50993 0.07458 0.50301 0.0
Zn21 Zn 0.51153 0.98194 0.49792 0.0
C22 C 0.60408 0.13365 0.51694 0.0
O23 O 0.58678 0.14965 0.53538 0.0
C24 C 0.41346 0.92561 0.48187 0.0
O25 O 0.4246 0.93846 0.45686 0.0
O26 O 0.50018 0.12806 0.50409 0.0
O27 O 0.47725 0.03905 0.46842 0.0
O28 O 0.52458 0.01385 0.46196 0.0
C29 C 0.52351 0.1599 0.48875 0.0
O30 O 0.55337 0.15727 0.47311 0.0
O31 O 0.57744 0.09942 0.50074 0.0
C32 C 0.53467 0.91631 0.51324 0.0
O33 O 0.52113 0.92389 0.53715 0.0
O34 O 0.53524 0.93884 0.49319 0.0
O35 O 0.53686 0.01761 0.53543 0.0
O36 O 0.48999 0.04452 0.53785 0.0
O37 O 0.44385 0.94019 0.50139 0.0
C38 C 0.50016 0.02888 0.4523 0.0
C39 C 0.51609 0.03342 0.54969 0.0
Zn40 Zn 0.57537 0.51397 0.82149 0.0
Zn41 Zn 0.48925 0.51975 0.82766 0.0
C42 C 0.55139 0.42932 0.84309 0.0
O43 O 0.58957 0.45576 0.8576 0.0
C44 C 0.51766 0.60288 0.80597 0.0
O45 O 0.48023 0.57536 0.79105 0.0
O46 O 0.63785 0.5228 0.81546 0.0
O47 O 0.5547 0.52704 0.78577 0.0
O48 O 0.48189 0.48373 0.79187 0.0
C49 C 0.6717 0.54416 0.83266 0.0
O50 O 0.66749 0.56418 0.85545 0.0
O51 O 0.53656 0.44689 0.82637 0.0
C52 C 0.38994 0.4939 0.83086 0.0
O53 O 0.3758 0.45104 0.82362 0.0
O54 O 0.43216 0.52227 0.83368 0.0
O55 O 0.50576 0.50136 0.86256 0.0
O56 O 0.57788 0.54875 0.85728 0.0
O57 O 0.53291 0.58616 0.82305 0.0
C58 C 0.51429 0.50189 0.77576 0.0
C59 C 0.5455 0.52799 0.87304 0.0
O60 O 0.47937 0.0411 0.2335 0.0
Cd61 Cd 0.48657 0.03879 0.18358 0.0
O62 O 0.50834 0.99722 0.23986 0.0
Cd63 Cd 0.49192 0.97206 0.19654 0.0
O64 O 0.43334 0.92686 0.16893 0.0
C65 C 0.39569 0.91289 0.18027 0.0
O66 O 0.39603 0.92763 0.20595 0.0
C67 C 0.49476 0.02345 0.24977 0.0
C68 C 0.57728 0.09922 0.17459 0.0
O69 O 0.54815 0.11251 0.17614 0.0
O70 O 0.56321 0.05696 0.17635 0.0
O71 O 0.55594 0.54128 0.56759 0.0
Cd72 Cd 0.57381 0.5471 0.51892 0.0
O73 O 0.48277 0.50177 0.55642 0.0
Cd74 Cd 0.49439 0.53081 0.5166 0.0
O75 O 0.51465 0.59574 0.50005 0.0
C76 C 0.52585 0.62728 0.51902 0.0
O77 O 0.52512 0.61762 0.5449 0.0
C78 C 0.51534 0.51656 0.57456 0.0
C79 C 0.55108 0.4594 0.49984 0.0
O80 O 0.59201 0.48867 0.50797 0.0
O81 O 0.52169 0.47234 0.49932 0.0
O82 O 0.0497 0.541 0.92016 0.0
Cd83 Cd 0.05978 0.55476 0.87127 0.0
O84 O 0.01628 0.46734 0.91013 0.0
Cd85 Cd 0.99858 0.47504 0.86818 0.0
O86 O 0.95196 0.48841 0.84451 0.0
C87 C 0.94057 0.51468 0.85709 0.0
O88 O 0.95922 0.533 0.88183 0.0
C89 C 0.03401 0.50118 0.92798 0.0
C90 C 0.13835 0.55392 0.85681 0.0
O91 O 0.13933 0.59108 0.86426 0.0
O92 O 0.09991 0.5171 0.8555 0.0
O93 O 0.06281 0.54119 0.43522 0.0
Cd94 Cd 0.06487 0.55239 0.48544 0.0
O95 O 0.99571 0.48039 0.42502 0.0
Cd96 Cd 0.97345 0.45955 0.46628 0.0
O97 O 0.91934 0.40243 0.48593 0.0
C98 C 0.91173 0.36328 0.47715 0.0
O99 O 0.93835 0.36031 0.45885 0.0
C100 C 0.03267 0.51287 0.41745 0.0
C101 C 0.13013 0.64372 0.49694 0.0
O102 O 0.14063 0.61268 0.49856 0.0
O103 O 0.08847 0.63141 0.49138 0.0
O104 O 0.55777 0.0085 0.7586 0.0
Cd105 Cd 0.55603 0.98829 0.80627 0.0
O106 O 0.54398 0.06424 0.76889 0.0
Cd107 Cd 0.53911 0.06734 0.81363 0.0
O108 O 0.5273 0.11871 0.83483 0.0
C109 C 0.49203 0.11933 0.82647 0.0
O110 O 0.46349 0.08689 0.80836 0.0
C111 C 0.55138 0.04007 0.75113 0.0
C112 C 0.56346 0.9105 0.80855 0.0
O113 O 0.52498 0.90772 0.80382 0.0
O114 O 0.59859 0.95013 0.81241 0.0
O115 O 0.4996 0.49481 0.0816 0.0
Cd116 Cd 0.49581 0.485 0.13105 0.0
O117 O 0.54078 0.56836 0.09124 0.0
Cd118 Cd 0.49883 0.56007 0.12641 0.0
O119 O 0.43087 0.55183 0.12748 0.0
C120 C 0.40102 0.53159 0.14485 0.0
O121 O 0.41054 0.51421 0.16563 0.0
C122 C 0.5269 0.53401 0.07403 0.0
C123 C 0.57922 0.49365 0.14686 0.0
O124 O 0.54517 0.45506 0.13845 0.0
O125 O 0.57334 0.52797 0.14898 0.0
H126 H 0.1616 0.49422 0.19088 0.0
H127 H 0.14503 0.5356 0.11061 0.0
H128 H 0.21547 0.53805 0.09653 0.0
H129 H 0.27775 0.56466 0.19996 0.0
H130 H 0.28915 0.52489 0.21613 0.0
H131 H 0.23462 0.52077 0.2189 0.0
H132 H 0.19477 0.43739 0.19821 0.0
H133 H 0.24922 0.441 0.19568 0.0
H134 H 0.21131 0.42406 0.16546 0.0
H135 H 0.29197 0.54501 0.09323 0.0
H136 H 0.36661 0.55064 0.09956 0.0
H137 H 0.33301 0.50315 0.18166 0.0
C138 C 0.17219 0.50279 0.17011 0.0
C139 C 0.14774 0.5147 0.15185 0.0
C140 C 0.163 0.52609 0.12493 0.0
C141 C 0.20305 0.52766 0.11674 0.0
C142 C 0.2271 0.51716 0.13557 0.0
C143 C 0.21191 0.50424 0.16154 0.0
C144 C 0.24523 0.49677 0.17831 0.0
C145 C 0.26271 0.52869 0.20489 0.0
C146 C 0.22385 0.44683 0.18479 0.0
C147 C 0.28234 0.50915 0.15808 0.0
C148 C 0.27104 0.52051 0.13349 0.0
C149 C 0.30089 0.5355 0.11221 0.0
C150 C 0.34335 0.53881 0.11609 0.0
C151 C 0.35567 0.52717 0.14108 0.0
C152 C 0.32448 0.51186 0.16223 0.0
H153 H 0.66425 0.2223 0.53326 0.0
H154 H 0.65425 0.10277 0.48956 0.0
H155 H 0.73499 0.14749 0.47863 0.0
H156 H 0.72953 0.29782 0.48528 0.0
H157 H 0.76318 0.34476 0.51031 0.0
H158 H 0.70674 0.30216 0.51785 0.0
H159 H 0.73814 0.28751 0.56269 0.0
H160 H 0.7948 0.33023 0.55534 0.0
H161 H 0.78262 0.27353 0.56085 0.0
H162 H 0.81474 0.20637 0.46957 0.0
H163 H 0.88653 0.27534 0.46121 0.0
H164 H 0.84365 0.35711 0.50966 0.0
C165 C 0.67934 0.20523 0.52199 0.0
C166 C 0.65323 0.15893 0.51254 0.0
C167 C 0.6738 0.13815 0.49714 0.0
C168 C 0.71963 0.16323 0.49092 0.0
C169 C 0.74423 0.20906 0.50015 0.0
C170 C 0.72478 0.22989 0.51531 0.0
C171 C 0.7573 0.28038 0.52062 0.0
C172 C 0.73804 0.30788 0.50774 0.0
C173 C 0.7689 0.29368 0.55173 0.0
C174 C 0.7979 0.2849 0.50568 0.0
C175 C 0.78987 0.24327 0.49433 0.0
C176 C 0.82158 0.23908 0.47858 0.0
C177 C 0.86228 0.27852 0.47393 0.0
C178 C 0.87084 0.3217 0.48482 0.0
C179 C 0.83837 0.32464 0.50126 0.0
H180 H 0.47519 0.64608 0.78667 0.0
H181 H 0.60128 0.67145 0.8269 0.0
H182 H 0.62862 0.75403 0.83036 0.0
H183 H 0.52122 0.74646 0.74793 0.0
H184 H 0.47325 0.75423 0.75345 0.0
H185 H 0.46601 0.69812 0.7521 0.0
H186 H 0.43154 0.68636 0.80023 0.0
H187 H 0.43892 0.74249 0.80183 0.0
H188 H 0.46344 0.72642 0.82904 0.0
H189 H 0.64072 0.83406 0.83029 0.0
H190 H 0.6356 0.90372 0.82837 0.0
H191 H 0.49946 0.82368 0.7905 0.0
C192 C 0.50897 0.66897 0.79572 0.0
C193 C 0.53643 0.65244 0.80618 0.0
C194 C 0.57989 0.68349 0.81855 0.0
C195 C 0.59564 0.73037 0.82059 0.0
C196 C 0.56728 0.74542 0.81041 0.0
C197 C 0.52479 0.7155 0.79831 0.0
C198 C 0.49954 0.73958 0.79056 0.0
C199 C 0.48943 0.73429 0.75914 0.0
C200 C 0.45579 0.72271 0.80636 0.0
C201 C 0.53437 0.7879 0.80023 0.0
C202 C 0.57342 0.79077 0.81137 0.0
C203 C 0.6103 0.83215 0.82159 0.0
C204 C 0.60708 0.87151 0.82041 0.0
C205 C 0.56708 0.8691 0.80939 0.0
C206 C 0.5304 0.82664 0.79919 0.0
H207 H 0.766 0.41887 0.13772 0.0
H208 H 0.86524 0.5529 0.17378 0.0
H209 H 0.80502 0.57335 0.17675 0.0
H210 H 0.70046 0.45239 0.09691 0.0
H211 H 0.64714 0.40295 0.10306 0.0
H212 H 0.69842 0.39991 0.10333 0.0
H213 H 0.68312 0.37136 0.15245 0.0
H214 H 0.63202 0.37475 0.15253 0.0
H215 H 0.67542 0.40464 0.17978 0.0
H216 H 0.73316 0.57879 0.17527 0.0
H217 H 0.65638 0.56898 0.16939 0.0
H218 H 0.60489 0.43029 0.13587 0.0
C219 C 0.77532 0.45274 0.146 0.0
C220 C 0.82044 0.48446 0.15532 0.0
C221 C 0.83093 0.52813 0.16641 0.0
C222 C 0.79694 0.53999 0.16822 0.0
C223 C 0.75268 0.50765 0.15908 0.0
C224 C 0.74189 0.4649 0.14822 0.0
C225 C 0.69178 0.43596 0.14023 0.0
C226 C 0.68401 0.42201 0.10903 0.0
C227 C 0.66927 0.39422 0.15727 0.0
C228 C 0.67593 0.46917 0.14806 0.0
C229 C 0.71148 0.51037 0.15888 0.0
C230 C 0.70508 0.5466 0.16694 0.0
C231 C 0.66134 0.54069 0.16355 0.0
C232 C 0.62455 0.49879 0.15232 0.0
C233 C 0.63213 0.46259 0.14478 0.0
H234 H 0.38464 0.8496 0.50967 0.0
H235 H 0.33671 0.92358 0.46329 0.0
H236 H 0.25728 0.86298 0.46801 0.0
H237 H 0.30877 0.74408 0.47641 0.0
H238 H 0.30056 0.7121 0.50619 0.0
H239 H 0.35271 0.76457 0.50358 0.0
H240 H 0.34089 0.79559 0.55082 0.0
H241 H 0.28856 0.7431 0.55359 0.0
H242 H 0.28888 0.79618 0.55605 0.0
H243 H 0.18392 0.79272 0.47529 0.0
H244 H 0.12238 0.71415 0.47932 0.0
H245 H 0.21849 0.68256 0.5173 0.0
C246 C 0.35723 0.85346 0.50124 0.0
C247 C 0.36634 0.89146 0.48666 0.0
C248 C 0.33005 0.89482 0.47483 0.0
C249 C 0.28497 0.86075 0.47754 0.0
C250 C 0.27697 0.82326 0.49172 0.0
C251 C 0.3121 0.81912 0.50308 0.0
C252 C 0.2947 0.77287 0.51404 0.0
C253 C 0.31541 0.74689 0.49916 0.0
C254 C 0.3038 0.77721 0.5455 0.0
C255 C 0.24442 0.75131 0.50653 0.0
C256 C 0.23481 0.7814 0.49435 0.0
C257 C 0.19097 0.76894 0.48494 0.0
C258 C 0.1562 0.72423 0.48739 0.0
C259 C 0.16563 0.69222 0.49862 0.0
C260 C 0.21022 0.70631 0.50874 0.0
H261 H 0.58665 0.38098 0.86528 0.0
H262 H 0.46682 0.36498 0.82152 0.0
H263 H 0.43368 0.2817 0.81844 0.0
H264 H 0.59558 0.30002 0.82467 0.0
H265 H 0.61503 0.27945 0.8521 0.0
H266 H 0.62579 0.33677 0.85504 0.0
H267 H 0.58604 0.32247 0.90148 0.0
H268 H 0.57518 0.26495 0.89871 0.0
H269 H 0.5289 0.27582 0.90296 0.0
H270 H 0.41756 0.2013 0.81554 0.0
H271 H 0.42096 0.13073 0.8111 0.0
H272 H 0.55229 0.19942 0.85586 0.0
C273 C 0.55289 0.35995 0.85571 0.0
C274 C 0.52912 0.37945 0.84384 0.0
C275 C 0.48553 0.35076 0.83089 0.0
C276 C 0.46636 0.30342 0.82915 0.0
C277 C 0.4912 0.28534 0.84051 0.0
C278 C 0.53352 0.31275 0.85358 0.0
C279 C 0.55531 0.28536 0.86147 0.0
C280 C 0.60058 0.30135 0.84747 0.0
C281 C 0.56172 0.28727 0.89304 0.0
C282 C 0.5194 0.23845 0.84989 0.0
C283 C 0.4823 0.23901 0.83837 0.0
C284 C 0.44614 0.20034 0.82482 0.0
C285 C 0.44844 0.16038 0.82238 0.0
C286 C 0.48686 0.15943 0.83318 0.0
C287 C 0.5222 0.19881 0.8477 0.0
H288 H 0.53961 0.864 0.5522 0.0
H289 H 0.54897 0.88213 0.46429 0.0
H290 H 0.55485 0.81312 0.45644 0.0
H291 H 0.61756 0.81778 0.55659 0.0
H292 H 0.58404 0.77882 0.58151 0.0
H293 H 0.58608 0.83251 0.58043 0.0
H294 H 0.49827 0.79061 0.57468 0.0
H295 H 0.49595 0.73689 0.57554 0.0
H296 H 0.46977 0.74765 0.54661 0.0
H297 H 0.55013 0.73706 0.45761 0.0
H298 H 0.53873 0.66208 0.46814 0.0
H299 H 0.53449 0.69551 0.55531 0.0
C300 C 0.54384 0.85404 0.53136 0.0
C301 C 0.54384 0.87845 0.50887 0.0
C302 C 0.5491 0.86407 0.48187 0.0
C303 C 0.55247 0.82491 0.4772 0.0
C304 C 0.55113 0.80093 0.49977 0.0
C305 C 0.54752 0.81529 0.52636 0.0
C306 C 0.54413 0.78215 0.54686 0.0
C307 C 0.58542 0.80413 0.56757 0.0
C308 C 0.49937 0.76321 0.56178 0.0
C309 C 0.54481 0.74612 0.52754 0.0
C310 C 0.5492 0.75762 0.50048 0.0
C311 C 0.54748 0.72804 0.47878 0.0
C312 C 0.54084 0.6855 0.48494 0.0
C313 C 0.53601 0.67309 0.51254 0.0
C314 C 0.53869 0.70419 0.53404 0.0
H315 H 0.74804 0.58063 0.86726 0.0
H316 H 0.68963 0.50166 0.78902 0.0
H317 H 0.7562 0.49155 0.78447 0.0
H318 H 0.86812 0.63586 0.84841 0.0
H319 H 0.88752 0.63285 0.88257 0.0
H320 H 0.83785 0.63825 0.878 0.0
H321 H 0.79113 0.56592 0.90399 0.0
H322 H 0.84048 0.5602 0.90854 0.0
H323 H 0.78913 0.51392 0.89195 0.0
H324 H 0.82554 0.48367 0.79075 0.0
H325 H 0.89198 0.47901 0.80739 0.0
H326 H 0.90477 0.56346 0.88129 0.0
C327 C 0.7496 0.56198 0.84888 0.0
C328 C 0.71364 0.54208 0.82846 0.0
C329 C 0.71684 0.51742 0.8049 0.0
C330 C 0.75457 0.51154 0.80209 0.0
C331 C 0.78899 0.53082 0.8229 0.0
C332 C 0.78698 0.55582 0.84574 0.0
C333 C 0.82691 0.5705 0.86605 0.0
C334 C 0.85687 0.62245 0.86891 0.0
C335 C 0.81094 0.55148 0.89429 0.0
C336 C 0.8509 0.5486 0.85151 0.0
C337 C 0.82887 0.52631 0.8265 0.0
C338 C 0.84343 0.50152 0.81013 0.0
C339 C 0.88117 0.49902 0.81976 0.0
C340 C 0.90371 0.52097 0.84559 0.0
C341 C 0.88862 0.54662 0.86134 0.0
H342 H 0.14479 0.70505 0.17561 0.0
H343 H 0.16194 0.67423 0.09013 0.0
H344 H 0.23412 0.74688 0.091 0.0
H345 H 0.19903 0.83107 0.17245 0.0
H346 H 0.22478 0.84141 0.2068 0.0
H347 H 0.17098 0.79085 0.19791 0.0
H348 H 0.20446 0.74174 0.21359 0.0
H349 H 0.25835 0.79192 0.22222 0.0
H350 H 0.25493 0.74769 0.19835 0.0
H351 H 0.3097 0.81681 0.10337 0.0
H352 H 0.38075 0.88007 0.12575 0.0
H353 H 0.31337 0.86536 0.20279 0.0
C354 C 0.16296 0.71417 0.1568 0.0
C355 C 0.14764 0.68397 0.1328 0.0
C356 C 0.1729 0.69687 0.10875 0.0
C357 C 0.21395 0.73813 0.10902 0.0
C358 C 0.22901 0.76633 0.13338 0.0
C359 C 0.20394 0.75517 0.15672 0.0
C360 C 0.22941 0.78922 0.18098 0.0
C361 C 0.20457 0.81465 0.19006 0.0
C362 C 0.23725 0.76626 0.2052 0.0
C363 C 0.27341 0.82025 0.16797 0.0
C364 C 0.27242 0.80684 0.14042 0.0
C365 C 0.31056 0.82819 0.12477 0.0
C366 C 0.3508 0.86395 0.13767 0.0
C367 C 0.35253 0.87784 0.16595 0.0
C368 C 0.31301 0.85604 0.18103 0.0
H369 H 0.5889 0.24712 0.48258 0.0
H370 H 0.4455 0.16245 0.49549 0.0
H371 H 0.43591 0.22974 0.49523 0.0
H372 H 0.60451 0.33915 0.52842 0.0
H373 H 0.64551 0.38237 0.50815 0.0
H374 H 0.64 0.32701 0.50652 0.0
H375 H 0.62612 0.31964 0.45337 0.0
H376 H 0.63131 0.37494 0.45481 0.0
H377 H 0.581 0.32645 0.43887 0.0
H378 H 0.44218 0.30587 0.49386 0.0
H379 H 0.46509 0.38697 0.4977 0.0
H380 H 0.60566 0.4229 0.48921 0.0
C381 C 0.55541 0.24278 0.48498 0.0
C382 C 0.51774 0.19979 0.48871 0.0
C383 C 0.47464 0.19528 0.49254 0.0
C384 C 0.46887 0.23316 0.49223 0.0
C385 C 0.50671 0.2752 0.48849 0.0
C386 C 0.54928 0.28036 0.48536 0.0
C387 C 0.58505 0.32978 0.48417 0.0
C388 C 0.62086 0.34549 0.50825 0.0
C389 C 0.60716 0.33818 0.45613 0.0
C390 C 0.55597 0.35167 0.48734 0.0
C391 C 0.51078 0.31949 0.48921 0.0
C392 C 0.47745 0.33141 0.49242 0.0
C393 C 0.49079 0.37756 0.49446 0.0
C394 C 0.53714 0.41118 0.49377 0.0
C395 C 0.56998 0.39793 0.48977 0.0
H396 H 0.2967 0.44433 0.834 0.0
H397 H 0.41028 0.58214 0.83466 0.0
H398 H 0.35795 0.61176 0.83956 0.0
H399 H 0.21606 0.46282 0.79548 0.0
H400 H 0.16867 0.42667 0.81528 0.0
H401 H 0.21483 0.41561 0.81114 0.0
H402 H 0.2262 0.41922 0.86433 0.0
H403 H 0.18 0.43012 0.86863 0.0
H404 H 0.23502 0.46883 0.88505 0.0
H405 H 0.29436 0.62714 0.84535 0.0
H406 H 0.22285 0.62714 0.85259 0.0
H407 H 0.14973 0.47985 0.84825 0.0
C408 C 0.31049 0.48069 0.83509 0.0
C409 C 0.35764 0.51082 0.834 0.0
C410 C 0.37435 0.55826 0.83563 0.0
C411 C 0.34488 0.57553 0.83831 0.0
C412 C 0.29871 0.54502 0.83941 0.0
C413 C 0.28148 0.49865 0.83794 0.0
C414 C 0.23043 0.47354 0.84035 0.0
C415 C 0.20607 0.44285 0.81399 0.0
C416 C 0.21715 0.44633 0.86612 0.0
C417 C 0.22184 0.5131 0.84341 0.0
C418 C 0.26174 0.55398 0.84275 0.0
C419 C 0.26281 0.59535 0.84581 0.0
C420 C 0.22201 0.59499 0.84991 0.0
C421 C 0.18067 0.55354 0.8509 0.0
C422 C 0.1807 0.51209 0.84736 0.0
H423 H 0.7974 0.34453 0.18068 0.0
H424 H 0.87737 0.27914 0.16591 0.0
H425 H 0.80729 0.20404 0.16423 0.0
H426 H 0.71631 0.26266 0.22376 0.0
H427 H 0.66947 0.26679 0.20943 0.0
H428 H 0.72612 0.31483 0.21038 0.0
H429 H 0.71866 0.31859 0.1575 0.0
H430 H 0.66197 0.27058 0.15643 0.0
H431 H 0.70369 0.26897 0.13473 0.0
H432 H 0.72794 0.13613 0.16411 0.0
H433 H 0.646 0.08089 0.16558 0.0
H434 H 0.61884 0.19191 0.17878 0.0
C435 C 0.80038 0.31447 0.1774 0.0
C436 C 0.84292 0.31764 0.17363 0.0
C437 C 0.84514 0.27746 0.16896 0.0
C438 C 0.80555 0.23471 0.16794 0.0
C439 C 0.7641 0.23289 0.17141 0.0
C440 C 0.76133 0.27175 0.17604 0.0
C441 C 0.71272 0.26083 0.17849 0.0
C442 C 0.70576 0.27724 0.20723 0.0
C443 C 0.69843 0.28093 0.15541 0.0
C444 C 0.68842 0.2096 0.17465 0.0
C445 C 0.71859 0.19408 0.17066 0.0
C446 C 0.70401 0.14791 0.16714 0.0
C447 C 0.65742 0.11681 0.16798 0.0
C448 C 0.626 0.13208 0.17216 0.0
C449 C 0.6419 0.17913 0.17531 0.0
H450 H 0.0156 0.55667 0.08669 0.0
H451 H 0.97568 0.41688 0.09898 0.0
H452 H 0.99372 0.40654 0.05101 0.0
H453 H 0.96749 0.53698 0.02053 0.0
H454 H 0.01167 0.58821 0.00752 0.0
H455 H 0.00146 0.5865 0.04378 0.0
H456 H 0.08539 0.61122 0.05529 0.0
H457 H 0.0962 0.61265 0.01903 0.0
H458 H 0.10908 0.57851 0.04028 0.0
H459 H 0.00748 0.40868 0.00065 0.0
H460 H 0.01637 0.42327 0.9513 0.0
H461 H 0.04881 0.56212 0.97185 0.0
C462 C 0.01184 0.52426 0.07953 0.0
C463 C 0.99459 0.4877 0.09662 0.0
C464 C 0.98895 0.44542 0.08626 0.0
C465 C 0.99932 0.43927 0.05909 0.0
C466 C 0.01556 0.4758 0.04263 0.0
C467 C 0.02208 0.51758 0.05248 0.0
C468 C 0.0365 0.55021 0.02991 0.0
C469 C 0.00222 0.56639 0.02516 0.0
C470 C 0.08466 0.59052 0.03653 0.0
C471 C 0.03546 0.51972 0.00561 0.0
C472 C 0.02382 0.47711 0.01346 0.0
C473 C 0.01737 0.44212 0.9943 0.0
C474 C 0.02232 0.45068 0.9663 0.0
C475 C 0.03352 0.49388 0.95774 0.0
C476 C 0.04097 0.52897 0.97779 0.0
H477 H 0.52812 0.99396 0.40924 0.0
H478 H 0.4674 0.07746 0.42812 0.0
H479 H 0.46256 0.08753 0.37862 0.0
H480 H 0.59448 0.0567 0.35278 0.0
H481 H 0.58474 0.00652 0.33235 0.0
H482 H 0.58539 0.00723 0.36951 0.0
H483 H 0.50522 0.93581 0.3665 0.0
H484 H 0.50434 0.93483 0.32936 0.0
H485 H 0.45949 0.93645 0.3477 0.0
H486 H 0.46261 0.08756 0.32747 0.0
H487 H 0.46534 0.0755 0.27717 0.0
H488 H 0.52491 0.99103 0.29084 0.0
C489 C 0.51412 0.0146 0.40294 0.0
C490 C 0.49812 0.0349 0.42253 0.0
C491 C 0.47964 0.06136 0.41347 0.0
C492 C 0.47692 0.06748 0.38541 0.0
C493 C 0.4927 0.04685 0.36662 0.0
C494 C 0.51081 0.02083 0.3749 0.0
C495 C 0.52377 0.00114 0.35025 0.0
C496 C 0.57515 0.01898 0.35129 0.0
C497 C 0.49657 0.94897 0.34835 0.0
C498 C 0.50973 0.01989 0.32689 0.0
C499 C 0.49222 0.04643 0.33686 0.0
C500 C 0.47636 0.06696 0.31936 0.0
C501 C 0.47807 0.05988 0.29081 0.0
C502 C 0.49532 0.03231 0.28002 0.0
C503 C 0.51163 0.01237 0.29841 0.0
H504 H 0.57575 0.53836 0.73587 0.0
H505 H 0.43176 0.45229 0.74721 0.0
H506 H 0.41649 0.44436 0.69666 0.0
H507 H 0.5641 0.59793 0.68177 0.0
H508 H 0.61098 0.60106 0.66331 0.0
H509 H 0.61062 0.59821 0.70023 0.0
H510 H 0.62005 0.52735 0.69493 0.0
H511 H 0.62048 0.52998 0.65797 0.0
H512 H 0.58007 0.47869 0.67282 0.0
H513 H 0.41688 0.44798 0.64496 0.0
H514 H 0.43276 0.46307 0.59606 0.0
H515 H 0.57656 0.54678 0.61901 0.0
C516 C 0.54099 0.51757 0.72778 0.0
C517 C 0.50495 0.49587 0.74551 0.0
C518 C 0.45995 0.46917 0.73403 0.0
C519 C 0.45093 0.46443 0.70535 0.0
C520 C 0.48729 0.48652 0.6885 0.0
C521 C 0.53141 0.5125 0.69929 0.0
C522 C 0.56431 0.53369 0.67683 0.0
C523 C 0.58893 0.5858 0.68078 0.0
C524 C 0.59822 0.51637 0.67557 0.0
C525 C 0.53176 0.51591 0.65168 0.0
C526 C 0.48751 0.48863 0.65881 0.0
C527 C 0.45142 0.46911 0.63911 0.0
C528 C 0.4608 0.47793 0.61139 0.0
C529 C 0.50592 0.50607 0.60367 0.0
C530 C 0.54174 0.52497 0.62417 0.0
H531 H 0.5376 0.98796 0.58679 0.0
H532 H 0.51483 0.10153 0.58044 0.0
H533 H 0.52719 0.11826 0.63086 0.0
H534 H 0.47767 0.95058 0.64785 0.0
H535 H 0.51522 0.93375 0.66287 0.0
H536 H 0.50911 0.93289 0.6259 0.0
H537 H 0.59597 0.98526 0.6238 0.0
H538 H 0.60239 0.98628 0.66082 0.0
H539 H 0.62403 0.0387 0.64437 0.0
H540 H 0.53824 0.12122 0.68121 0.0
H541 H 0.54405 0.10844 0.72995 0.0
H542 H 0.55723 0.99112 0.70533 0.0
C543 C 0.53591 0.01669 0.59608 0.0
C544 C 0.52541 0.04358 0.57979 0.0
C545 C 0.52263 0.08041 0.59259 0.0
C546 C 0.52987 0.09036 0.62118 0.0
C547 C 0.53951 0.06295 0.63674 0.0
C548 C 0.54234 0.02672 0.62481 0.0
C549 C 0.55002 0.00094 0.64674 0.0
C550 C 0.51065 0.95162 0.64578 0.0
C551 C 0.59584 0.00293 0.64375 0.0
C552 C 0.55047 0.02813 0.67277 0.0
C553 C 0.54487 0.064 0.66634 0.0
C554 C 0.54286 0.09339 0.68659 0.0
C555 C 0.54612 0.08571 0.71427 0.0
C556 C 0.55105 0.04871 0.72158 0.0
C557 C 0.55374 0.01983 0.70046 0.0
H558 H 0.49113 0.47402 0.91168 0.0
H559 H 0.61794 0.5985 0.90272 0.0
H560 H 0.62898 0.61246 0.95361 0.0
H561 H 0.45399 0.51354 0.96858 0.0
H562 H 0.43006 0.46119 0.98528 0.0
H563 H 0.43329 0.46035 0.9483 0.0
H564 H 0.4782 0.41757 0.95043 0.0
H565 H 0.47503 0.41819 0.98746 0.0
H566 H 0.52942 0.44137 0.97225 0.0
H567 H 0.62256 0.61565 0.0054 0.0
H568 H 0.6019 0.6051 0.05417 0.0
H569 H 0.48167 0.47637 0.02875 0.0
C570 C 0.52135 0.50412 0.92041 0.0
C571 C 0.55355 0.53537 0.90333 0.0
C572 C 0.59286 0.57413 0.9155 0.0
C573 C 0.59939 0.58235 0.94434 0.0
C574 C 0.56665 0.55107 0.9606 0.0
C575 C 0.52871 0.51245 0.94906 0.0
C576 C 0.49843 0.48429 0.97101 0.0
C577 C 0.45116 0.4796 0.96811 0.0
C578 C 0.4951 0.4376 0.97023 0.0
C579 C 0.52477 0.51354 0.99673 0.0
C580 C 0.56394 0.55201 0.99034 0.0
C581 C 0.59233 0.58534 0.01068 0.0
C582 C 0.58027 0.57916 0.03827 0.0
C583 C 0.54048 0.53974 0.04518 0.0
C584 C 0.51272 0.50646 0.02411 0.0
H585 H 0.95874 0.46977 0.25701 0.0
H586 H 0.09228 0.58231 0.24267 0.0
H587 H 0.11338 0.59092 0.29243 0.0
H588 H 0.94457 0.51625 0.32119 0.0
H589 H 0.91594 0.46251 0.33635 0.0
H590 H 0.9119 0.46449 0.29948 0.0
H591 H 0.94212 0.40852 0.29242 0.0
H592 H 0.94638 0.40646 0.32929 0.0
H593 H 0.99547 0.42207 0.30923 0.0
H594 H 0.11924 0.58853 0.34399 0.0
H595 H 0.10909 0.57575 0.39355 0.0
H596 H 0.97197 0.46439 0.37382 0.0
C597 C 0.99249 0.49619 0.26424 0.0
C598 C 0.02379 0.52538 0.24585 0.0
C599 C 0.06761 0.55953 0.2563 0.0
C600 C 0.07999 0.56466 0.28454 0.0
C601 C 0.04826 0.53532 0.30205 0.0
C602 C 0.00544 0.50176 0.29231 0.0
C603 C 0.97737 0.47518 0.31549 0.0
C604 C 0.93495 0.47992 0.31829 0.0
C605 C 0.9646 0.42509 0.31135 0.0
C606 C 0.01097 0.49931 0.33986 0.0
C607 C 0.05171 0.5338 0.33168 0.0
C608 C 0.08756 0.56148 0.35064 0.0
C609 C 0.08145 0.55395 0.37875 0.0
C610 C 0.03977 0.51899 0.38763 0.0
C611 C 0.00436 0.4912 0.36776 0.0
loop_
_geom_bond_atom_site_label_1
_geom_bond_atom_site_label_2
_geom_bond_distance
_geom_bond_site_symmetry_2
_ccdc_geom_bond_type
Zn0 O6 1.969 . S
Zn0 O7 1.965 . S
Zn0 O11 2.024 . S
Zn0 O16 1.969 . S
Zn1 O8 1.969 . S
Zn1 O14 1.969 . S
Zn1 O15 1.965 . S
Zn1 O17 2.024 . S
C2 O3 1.229 . S
C2 O11 1.058 . S
O3 C2 1.229 . S
C4 O5 1.229 . S
C4 O17 1.058 . S
O5 C4 1.229 . S
O6 Zn0 1.969 . S
O6 C9 1.267 . S
O7 Zn0 1.965 . S
O7 C18 1.260 1_455 S
O8 Zn1 1.969 . S
O8 C18 1.258 . S
C9 O6 1.267 . S
C9 O10 1.228 . S
O10 C9 1.228 . S
O11 Zn0 2.024 . S
O11 C2 1.058 . S
C12 O13 1.228 . S
C12 O14 1.267 . S
O13 C12 1.228 . S
O14 Zn1 1.969 . S
O14 C12 1.267 . S
O15 Zn1 1.965 . S
O15 C19 1.260 1_655 S
O16 Zn0 1.969 . S
O16 C19 1.258 . S
O17 Zn1 2.024 . S
O17 C4 1.058 . S
C18 O7 1.260 1_655 S
C18 O8 1.258 . S
C19 O15 1.260 1_455 S
C19 O16 1.258 . S
Zn20 O26 1.969 . S
Zn20 O27 1.965 . S
Zn20 O31 2.024 . S
Zn20 O36 1.969 . S
Zn21 O28 1.969 . S
Zn21 O34 1.969 . S
Zn21 O35 1.965 . S
Zn21 O37 2.024 . S
C22 O23 1.229 . S
C22 O31 1.058 . S
O23 C22 1.229 . S
C24 O25 1.229 . S
C24 O37 1.058 . S
O25 C24 1.229 . S
O26 Zn20 1.969 . S
O26 C29 1.267 . S
O27 Zn20 1.965 . S
O27 C38 1.260 . S
O28 Zn21 1.969 . S
O28 C38 1.258 1_565 S
C29 O26 1.267 . S
C29 O30 1.228 . S
O30 C29 1.228 . S
O31 Zn20 2.024 . S
O31 C22 1.058 . S
C32 O33 1.228 . S
C32 O34 1.267 . S
O33 C32 1.228 . S
O34 Zn21 1.969 . S
O34 C32 1.267 . S
O35 Zn21 1.965 . S
O35 C39 1.260 1_565 S
O36 Zn20 1.969 . S
O36 C39 1.258 . S
O37 Zn21 2.024 . S
O37 C24 1.058 . S
C38 O27 1.260 . S
C38 O28 1.258 1_545 S
C39 O35 1.260 1_545 S
C39 O36 1.258 . S
Zn40 O46 1.969 . S
Zn40 O47 1.965 . S
Zn40 O51 2.024 . S
Zn40 O56 1.969 . S
Zn41 O48 1.969 . S
Zn41 O54 1.969 . S
Zn41 O55 1.965 . S
Zn41 O57 2.024 . S
C42 O43 1.229 . S
C42 O51 1.058 . S
O43 C42 1.229 . S
C44 O45 1.229 . S
C44 O57 1.058 . S
O45 C44 1.229 . S
O46 Zn40 1.969 . S
O46 C49 1.267 . S
O47 Zn40 1.965 . S
O47 C58 1.260 . S
O48 Zn41 1.969 . S
O48 C58 1.258 . S
C49 O46 1.267 . S
C49 O50 1.228 . S
O50 C49 1.228 . S
O51 Zn40 2.024 . S
O51 C42 1.058 . S
C52 O53 1.228 . S
C52 O54 1.267 . S
O53 C52 1.228 . S
O54 Zn41 1.969 . S
O54 C52 1.267 . S
O55 Zn41 1.965 . S
O55 C59 1.260 . S
O56 Zn40 1.969 . S
O56 C59 1.258 . S
O57 Zn41 2.024 . S
O57 C44 1.058 . S
C58 O47 1.260 . S
C58 O48 1.258 . S
C59 O55 1.260 . S
C59 O56 1.258 . S
O60 Cd61 2.300 . S
O60 C67 1.275 . S
Cd61 O60 2.300 . S
Cd61 O69 2.381 . S
Cd61 O70 2.378 . S
O62 Cd63 2.385 . S
O62 C67 1.255 1_565 S
Cd63 O62 2.385 . S
Cd63 O64 2.317 . S
O64 Cd63 2.317 . S
O64 C65 1.232 . S
C65 O64 1.232 . S
C65 O66 1.218 . S
O66 C65 1.218 . S
C67 O60 1.275 . S
C67 O62 1.255 1_545 S
C68 O69 1.258 . S
C68 O70 1.256 . S
O69 Cd61 2.381 . S
O69 C68 1.258 . S
O70 Cd61 2.378 . S
O70 C68 1.256 . S
O71 Cd72 2.300 . S
O71 C78 1.275 . S
Cd72 O71 2.300 . S
Cd72 O80 2.381 . S
Cd72 O81 2.378 . S
O73 Cd74 2.385 . S
O73 C78 1.255 . S
Cd74 O73 2.385 . S
Cd74 O75 2.317 . S
O75 Cd74 2.317 . S
O75 C76 1.232 . S
C76 O75 1.232 . S
C76 O77 1.218 . S
O77 C76 1.218 . S
C78 O71 1.275 . S
C78 O73 1.255 . S
C79 O80 1.258 . S
C79 O81 1.256 . S
O80 Cd72 2.381 . S
O80 C79 1.258 . S
O81 Cd72 2.378 . S
O81 C79 1.256 . S
O82 Cd83 2.300 . S
O82 C89 1.275 . S
Cd83 O82 2.300 . S
Cd83 O91 2.381 . S
Cd83 O92 2.378 . S
O84 Cd85 2.385 . S
O84 C89 1.255 1_655 S
Cd85 O84 2.385 . S
Cd85 O86 2.317 . S
O86 Cd85 2.317 . S
O86 C87 1.232 . S
C87 O86 1.232 . S
C87 O88 1.218 . S
O88 C87 1.218 . S
C89 O82 1.275 . S
C89 O84 1.255 1_455 S
C90 O91 1.258 . S
C90 O92 1.256 . S
O91 Cd83 2.381 . S
O91 C90 1.258 . S
O92 Cd83 2.378 . S
O92 C90 1.256 . S
O93 Cd94 2.300 . S
O93 C100 1.275 . S
Cd94 O93 2.300 . S
Cd94 O102 2.381 . S
Cd94 O103 2.378 . S
O95 Cd96 2.385 . S
O95 C100 1.255 1_655 S
Cd96 O95 2.385 . S
Cd96 O97 2.317 . S
O97 Cd96 2.317 . S
O97 C98 1.232 . S
C98 O97 1.232 . S
C98 O99 1.218 . S
O99 C98 1.218 . S
C100 O93 1.275 . S
C100 O95 1.255 1_455 S
C101 O102 1.258 . S
C101 O103 1.256 . S
O102 Cd94 2.381 . S
O102 C101 1.258 . S
O103 Cd94 2.378 . S
O103 C101 1.256 . S
O104 Cd105 2.300 . S
O104 C111 1.275 1_565 S
Cd105 O104 2.300 . S
Cd105 O113 2.381 . S
Cd105 O114 2.378 . S
O106 Cd107 2.385 . S
O106 C111 1.255 . S
Cd107 O106 2.385 . S
Cd107 O108 2.317 . S
O108 Cd107 2.317 . S
O108 C109 1.232 . S
C109 O108 1.232 . S
C109 O110 1.218 . S
O110 C109 1.218 . S
C111 O104 1.275 1_545 S
C111 O106 1.255 . S
C112 O113 1.258 . S
C112 O114 1.256 . S
O113 Cd105 2.381 . S
O113 C112 1.258 . S
O114 Cd105 2.378 . S
O114 C112 1.256 . S
O115 Cd116 2.300 . S
O115 C122 1.275 . S
Cd116 O115 2.300 . S
Cd116 O124 2.381 . S
Cd116 O125 2.378 . S
O117 Cd118 2.385 . S
O117 C122 1.255 . S
Cd118 O117 2.385 . S
Cd118 O119 2.317 . S
O119 Cd118 2.317 . S
O119 C120 1.232 . S
C120 O119 1.232 . S
C120 O121 1.218 . S
O121 C120 1.218 . S
C122 O115 1.275 . S
C122 O117 1.255 . S
C123 O124 1.258 . S
C123 O125 1.256 . S
O124 Cd116 2.381 . S
O124 C123 1.258 . S
O125 Cd116 2.378 . S
O125 C123 1.256 . S
H126 C138 0.930 . S
H127 C140 0.930 . S
H128 C141 0.930 . S
H129 C145 0.959 . S
H130 C145 0.959 . S
H131 C145 0.961 . S
H132 C146 0.960 . S
H133 C146 0.961 . S
H134 C146 0.959 . S
H135 C149 0.929 . S
H136 C150 0.931 . S
H137 C152 0.930 . S
C138 H126 0.930 . S
C138 C139 1.399 . S
C138 C143 1.399 . S
C139 C138 1.399 . S
C139 C140 1.376 . S
C140 H127 0.930 . S
C140 C139 1.376 . S
C140 C141 1.388 . S
C141 H128 0.930 . S
C141 C140 1.388 . S
C141 C142 1.390 . S
C142 C141 1.390 . S
C142 C143 1.394 . S
C142 C148 1.465 . S
C143 C138 1.399 . S
C143 C142 1.394 . S
C143 C144 1.516 . S
C144 C143 1.516 . S
C144 C145 1.502 . S
C144 C146 1.561 . S
C144 C147 1.526 . S
C145 H129 0.959 . S
C145 H130 0.959 . S
C145 H131 0.961 . S
C145 C144 1.502 . S
C146 H132 0.960 . S
C146 H133 0.961 . S
C146 H134 0.959 . S
C146 C144 1.561 . S
C147 C144 1.526 . S
C147 C148 1.396 . S
C147 C152 1.390 . S
C148 C142 1.465 . S
C148 C147 1.396 . S
C148 C149 1.399 . S
C149 H135 0.929 . S
C149 C148 1.399 . S
C149 C150 1.385 . S
C150 H136 0.931 . S
C150 C149 1.385 . S
C150 C151 1.389 . S
C151 C150 1.389 . S
C151 C152 1.387 . S
C152 H137 0.930 . S
C152 C147 1.390 . S
C152 C151 1.387 . S
H153 C165 0.930 . S
H154 C167 0.930 . S
H155 C168 0.930 . S
H156 C172 0.959 . S
H157 C172 0.959 . S
H158 C172 0.961 . S
H159 C173 0.960 . S
H160 C173 0.961 . S
H161 C173 0.959 . S
H162 C176 0.929 . S
H163 C177 0.931 . S
H164 C179 0.930 . S
C165 H153 0.930 . S
C165 C166 1.399 . S
C165 C170 1.399 . S
C166 C165 1.399 . S
C166 C167 1.376 . S
C167 H154 0.930 . S
C167 C166 1.376 . S
C167 C168 1.388 . S
C168 H155 0.930 . S
C168 C167 1.388 . S
C168 C169 1.390 . S
C169 C168 1.390 . S
C169 C170 1.394 . S
C169 C175 1.465 . S
C170 C165 1.399 . S
C170 C169 1.394 . S
C170 C171 1.516 . S
C171 C170 1.516 . S
C171 C172 1.502 . S
C171 C173 1.561 . S
C171 C174 1.526 . S
C172 H156 0.959 . S
C172 H157 0.959 . S
C172 H158 0.961 . S
C172 C171 1.502 . S
C173 H159 0.960 . S
C173 H160 0.961 . S
C173 H161 0.959 . S
C173 C171 1.561 . S
C174 C171 1.526 . S
C174 C175 1.396 . S
C174 C179 1.390 . S
C175 C169 1.465 . S
C175 C174 1.396 . S
C175 C176 1.399 . S
C176 H162 0.929 . S
C176 C175 1.399 . S
C176 C177 1.385 . S
C177 H163 0.931 . S
C177 C176 1.385 . S
C177 C178 1.389 . S
C178 C177 1.389 . S
C178 C179 1.387 . S
C179 H164 0.930 . S
C179 C174 1.390 . S
C179 C178 1.387 . S
H180 C192 0.930 . S
H181 C194 0.930 . S
H182 C195 0.930 . S
H183 C199 0.959 . S
H184 C199 0.959 . S
H185 C199 0.961 . S
H186 C200 0.960 . S
H187 C200 0.961 . S
H188 C200 0.959 . S
H189 C203 0.929 . S
H190 C204 0.931 . S
H191 C206 0.930 . S
C192 H180 0.930 . S
C192 C193 1.399 . S
C192 C197 1.399 . S
C193 C192 1.399 . S
C193 C194 1.376 . S
C194 H181 0.930 . S
C194 C193 1.376 . S
C194 C195 1.388 . S
C195 H182 0.930 . S
C195 C194 1.388 . S
C195 C196 1.390 . S
C196 C195 1.390 . S
C196 C197 1.394 . S
C196 C202 1.465 . S
C197 C192 1.399 . S
C197 C196 1.394 . S
C197 C198 1.516 . S
C198 C197 1.516 . S
C198 C199 1.502 . S
C198 C200 1.561 . S
C198 C201 1.526 . S
C199 H183 0.959 . S
C199 H184 0.959 . S
C199 H185 0.961 . S
C199 C198 1.502 . S
C200 H186 0.960 . S
C200 H187 0.961 . S
C200 H188 0.959 . S
C200 C198 1.561 . S
C201 C198 1.526 . S
C201 C202 1.396 . S
C201 C206 1.390 . S
C202 C196 1.465 . S
C202 C201 1.396 . S
C202 C203 1.399 . S
C203 H189 0.929 . S
C203 C202 1.399 . S
C203 C204 1.385 . S
C204 H190 0.931 . S
C204 C203 1.385 . S
C204 C205 1.389 . S
C205 C204 1.389 . S
C205 C206 1.387 . S
C206 H191 0.930 . S
C206 C201 1.390 . S
C206 C205 1.387 . S
H207 C219 0.930 . S
H208 C221 0.930 . S
H209 C222 0.930 . S
H210 C226 0.959 . S
H211 C226 0.959 . S
H212 C226 0.961 . S
H213 C227 0.960 . S
H214 C227 0.961 . S
H215 C227 0.959 . S
H216 C230 0.929 . S
H217 C231 0.931 . S
H218 C233 0.930 . S
C219 H207 0.930 . S
C219 C220 1.399 . S
C219 C224 1.399 . S
C220 C219 1.399 . S
C220 C221 1.376 . S
C221 H208 0.930 . S
C221 C220 1.376 . S
C221 C222 1.388 . S
C222 H209 0.930 . S
C222 C221 1.388 . S
C222 C223 1.390 . S
C223 C222 1.390 . S
C223 C224 1.394 . S
C223 C229 1.465 . S
C224 C219 1.399 . S
C224 C223 1.394 . S
C224 C225 1.516 . S
C225 C224 1.516 . S
C225 C226 1.502 . S
C225 C227 1.561 . S
C225 C228 1.526 . S
C226 H210 0.959 . S
C226 H211 0.959 . S
C226 H212 0.961 . S
C226 C225 1.502 . S
C227 H213 0.960 . S
C227 H214 0.961 . S
C227 H215 0.959 . S
C227 C225 1.561 . S
C228 C225 1.526 . S
C228 C229 1.396 . S
C228 C233 1.390 . S
C229 C223 1.465 . S
C229 C228 1.396 . S
C229 C230 1.399 . S
C230 H216 0.929 . S
C230 C229 1.399 . S
C230 C231 1.385 . S
C231 H217 0.931 . S
C231 C230 1.385 . S
C231 C232 1.389 . S
C232 C231 1.389 . S
C232 C233 1.387 . S
C233 H218 0.930 . S
C233 C228 1.390 . S
C233 C232 1.387 . S
H234 C246 0.930 . S
H235 C248 0.930 . S
H236 C249 0.930 . S
H237 C253 0.959 . S
H238 C253 0.959 . S
H239 C253 0.961 . S
H240 C254 0.960 . S
H241 C254 0.961 . S
H242 C254 0.959 . S
H243 C257 0.929 . S
H244 C258 0.931 . S
H245 C260 0.930 . S
C246 H234 0.930 . S
C246 C247 1.399 . S
C246 C251 1.399 . S
C247 C246 1.399 . S
C247 C248 1.376 . S
C248 H235 0.930 . S
C248 C247 1.376 . S
C248 C249 1.388 . S
C249 H236 0.930 . S
C249 C248 1.388 . S
C249 C250 1.390 . S
C250 C249 1.390 . S
C250 C251 1.394 . S
C250 C256 1.465 . S
C251 C246 1.399 . S
C251 C250 1.394 . S
C251 C252 1.516 . S
C252 C251 1.516 . S
C252 C253 1.502 . S
C252 C254 1.561 . S
C252 C255 1.526 . S
C253 H237 0.959 . S
C253 H238 0.959 . S
C253 H239 0.961 . S
C253 C252 1.502 . S
C254 H240 0.960 . S
C254 H241 0.961 . S
C254 H242 0.959 . S
C254 C252 1.561 . S
C255 C252 1.526 . S
C255 C256 1.396 . S
C255 C260 1.390 . S
C256 C250 1.465 . S
C256 C255 1.396 . S
C256 C257 1.399 . S
C257 H243 0.929 . S
C257 C256 1.399 . S
C257 C258 1.385 . S
C258 H244 0.931 . S
C258 C257 1.385 . S
C258 C259 1.389 . S
C259 C258 1.389 . S
C259 C260 1.387 . S
C260 H245 0.930 . S
C260 C255 1.390 . S
C260 C259 1.387 . S
H261 C273 0.930 . S
H262 C275 0.930 . S
H263 C276 0.930 . S
H264 C280 0.959 . S
H265 C280 0.959 . S
H266 C280 0.961 . S
H267 C281 0.960 . S
H268 C281 0.961 . S
H269 C281 0.959 . S
H270 C284 0.929 . S
H271 C285 0.931 . S
H272 C287 0.930 . S
C273 H261 0.930 . S
C273 C274 1.399 . S
C273 C278 1.399 . S
C274 C273 1.399 . S
C274 C275 1.376 . S
C275 H262 0.930 . S
C275 C274 1.376 . S
C275 C276 1.388 . S
C276 H263 0.930 . S
C276 C275 1.388 . S
C276 C277 1.390 . S
C277 C276 1.390 . S
C277 C278 1.394 . S
C277 C283 1.465 . S
C278 C273 1.399 . S
C278 C277 1.394 . S
C278 C279 1.516 . S
C279 C278 1.516 . S
C279 C280 1.502 . S
C279 C281 1.561 . S
C279 C282 1.526 . S
C280 H264 0.959 . S
C280 H265 0.959 . S
C280 H266 0.961 . S
C280 C279 1.502 . S
C281 H267 0.960 . S
C281 H268 0.961 . S
C281 H269 0.959 . S
C281 C279 1.561 . S
C282 C279 1.526 . S
C282 C283 1.396 . S
C282 C287 1.390 . S
C283 C277 1.465 . S
C283 C282 1.396 . S
C283 C284 1.399 . S
C284 H270 0.929 . S
C284 C283 1.399 . S
C284 C285 1.385 . S
C285 H271 0.931 . S
C285 C284 1.385 . S
C285 C286 1.389 . S
C286 C285 1.389 . S
C286 C287 1.387 . S
C287 H272 0.930 . S
C287 C282 1.390 . S
C287 C286 1.387 . S
H288 C300 0.930 . S
H289 C302 0.930 . S
H290 C303 0.930 . S
H291 C307 0.959 . S
H292 C307 0.959 . S
H293 C307 0.961 . S
H294 C308 0.960 . S
H295 C308 0.961 . S
H296 C308 0.959 . S
H297 C311 0.929 . S
H298 C312 0.931 . S
H299 C314 0.930 . S
C300 H288 0.930 . S
C300 C301 1.399 . S
C300 C305 1.399 . S
C301 C300 1.399 . S
C301 C302 1.376 . S
C302 H289 0.930 . S
C302 C301 1.376 . S
C302 C303 1.388 . S
C303 H290 0.930 . S
C303 C302 1.388 . S
C303 C304 1.390 . S
C304 C303 1.390 . S
C304 C305 1.394 . S
C304 C310 1.465 . S
C305 C300 1.399 . S
C305 C304 1.394 . S
C305 C306 1.516 . S
C306 C305 1.516 . S
C306 C307 1.502 . S
C306 C308 1.561 . S
C306 C309 1.526 . S
C307 H291 0.959 . S
C307 H292 0.959 . S
C307 H293 0.961 . S
C307 C306 1.502 . S
C308 H294 0.960 . S
C308 H295 0.961 . S
C308 H296 0.959 . S
C308 C306 1.561 . S
C309 C306 1.526 . S
C309 C310 1.396 . S
C309 C314 1.390 . S
C310 C304 1.465 . S
C310 C309 1.396 . S
C310 C311 1.399 . S
C311 H297 0.929 . S
C311 C310 1.399 . S
C311 C312 1.385 . S
C312 H298 0.931 . S
C312 C311 1.385 . S
C312 C313 1.389 . S
C313 C312 1.389 . S
C313 C314 1.387 . S
C314 H299 0.930 . S
C314 C309 1.390 . S
C314 C313 1.387 . S
H315 C327 0.930 . S
H316 C329 0.930 . S
H317 C330 0.930 . S
H318 C334 0.959 . S
H319 C334 0.959 . S
H320 C334 0.961 . S
H321 C335 0.960 . S
H322 C335 0.961 . S
H323 C335 0.959 . S
H324 C338 0.929 . S
H325 C339 0.931 . S
H326 C341 0.930 . S
C327 H315 0.930 . S
C327 C328 1.399 . S
C327 C332 1.399 . S
C328 C327 1.399 . S
C328 C329 1.376 . S
C329 H316 0.930 . S
C329 C328 1.376 . S
C329 C330 1.388 . S
C330 H317 0.930 . S
C330 C329 1.388 . S
C330 C331 1.390 . S
C331 C330 1.390 . S
C331 C332 1.394 . S
C331 C337 1.465 . S
C332 C327 1.399 . S
C332 C331 1.394 . S
C332 C333 1.516 . S
C333 C332 1.516 . S
C333 C334 1.502 . S
C333 C335 1.561 . S
C333 C336 1.526 . S
C334 H318 0.959 . S
C334 H319 0.959 . S
C334 H320 0.961 . S
C334 C333 1.502 . S
C335 H321 0.960 . S
C335 H322 0.961 . S
C335 H323 0.959 . S
C335 C333 1.561 . S
C336 C333 1.526 . S
C336 C337 1.396 . S
C336 C341 1.390 . S
C337 C331 1.465 . S
C337 C336 1.396 . S
C337 C338 1.399 . S
C338 H324 0.929 . S
C338 C337 1.399 . S
C338 C339 1.385 . S
C339 H325 0.931 . S
C339 C338 1.385 . S
C339 C340 1.389 . S
C340 C339 1.389 . S
C340 C341 1.387 . S
C341 H326 0.930 . S
C341 C336 1.390 . S
C341 C340 1.387 . S
H342 C354 0.930 . S
H343 C356 0.930 . S
H344 C357 0.930 . S
H345 C361 0.959 . S
H346 C361 0.959 . S
H347 C361 0.961 . S
H348 C362 0.960 . S
H349 C362 0.961 . S
H350 C362 0.959 . S
H351 C365 0.929 . S
H352 C366 0.931 . S
H353 C368 0.930 . S
C354 H342 0.930 . S
C354 C355 1.399 . S
C354 C359 1.399 . S
C355 C354 1.399 . S
C355 C356 1.376 . S
C356 H343 0.930 . S
C356 C355 1.376 . S
C356 C357 1.388 . S
C357 H344 0.930 . S
C357 C356 1.388 . S
C357 C358 1.390 . S
C358 C357 1.390 . S
C358 C359 1.394 . S
C358 C364 1.465 . S
C359 C354 1.399 . S
C359 C358 1.394 . S
C359 C360 1.516 . S
C360 C359 1.516 . S
C360 C361 1.502 . S
C360 C362 1.561 . S
C360 C363 1.526 . S
C361 H345 0.959 . S
C361 H346 0.959 . S
C361 H347 0.961 . S
C361 C360 1.502 . S
C362 H348 0.960 . S
C362 H349 0.961 . S
C362 H350 0.959 . S
C362 C360 1.561 . S
C363 C360 1.526 . S
C363 C364 1.396 . S
C363 C368 1.390 . S
C364 C358 1.465 . S
C364 C363 1.396 . S
C364 C365 1.399 . S
C365 H351 0.929 . S
C365 C364 1.399 . S
C365 C366 1.385 . S
C366 H352 0.931 . S
C366 C365 1.385 . S
C366 C367 1.389 . S
C367 C366 1.389 . S
C367 C368 1.387 . S
C368 H353 0.930 . S
C368 C363 1.390 . S
C368 C367 1.387 . S
H369 C381 0.930 . S
H370 C383 0.930 . S
H371 C384 0.930 . S
H372 C388 0.959 . S
H373 C388 0.959 . S
H374 C388 0.961 . S
H375 C389 0.960 . S
H376 C389 0.961 . S
H377 C389 0.959 . S
H378 C392 0.929 . S
H379 C393 0.931 . S
H380 C395 0.930 . S
C381 H369 0.930 . S
C381 C382 1.399 . S
C381 C386 1.399 . S
C382 C381 1.399 . S
C382 C383 1.376 . S
C383 H370 0.930 . S
C383 C382 1.376 . S
C383 C384 1.388 . S
C384 H371 0.930 . S
C384 C383 1.388 . S
C384 C385 1.390 . S
C385 C384 1.390 . S
C385 C386 1.394 . S
C385 C391 1.465 . S
C386 C381 1.399 . S
C386 C385 1.394 . S
C386 C387 1.516 . S
C387 C386 1.516 . S
C387 C388 1.502 . S
C387 C389 1.561 . S
C387 C390 1.526 . S
C388 H372 0.959 . S
C388 H373 0.959 . S
C388 H374 0.961 . S
C388 C387 1.502 . S
C389 H375 0.960 . S
C389 H376 0.961 . S
C389 H377 0.959 . S
C389 C387 1.561 . S
C390 C387 1.526 . S
C390 C391 1.396 . S
C390 C395 1.390 . S
C391 C385 1.465 . S
C391 C390 1.396 . S
C391 C392 1.399 . S
C392 H378 0.929 . S
C392 C391 1.399 . S
C392 C393 1.385 . S
C393 H379 0.931 . S
C393 C392 1.385 . S
C393 C394 1.389 . S
C394 C393 1.389 . S
C394 C395 1.387 . S
C395 H380 0.930 . S
C395 C390 1.390 . S
C395 C394 1.387 . S
H396 C408 0.930 . S
H397 C410 0.930 . S
H398 C411 0.930 . S
H399 C415 0.959 . S
H400 C415 0.959 . S
H401 C415 0.961 . S
H402 C416 0.960 . S
H403 C416 0.961 . S
H404 C416 0.959 . S
H405 C419 0.929 . S
H406 C420 0.931 . S
H407 C422 0.930 . S
C408 H396 0.930 . S
C408 C409 1.399 . S
C408 C413 1.399 . S
C409 C408 1.399 . S
C409 C410 1.376 . S
C410 H397 0.930 . S
C410 C409 1.376 . S
C410 C411 1.388 . S
C411 H398 0.930 . S
C411 C410 1.388 . S
C411 C412 1.390 . S
C412 C411 1.390 . S
C412 C413 1.394 . S
C412 C418 1.465 . S
C413 C408 1.399 . S
C413 C412 1.394 . S
C413 C414 1.516 . S
C414 C413 1.516 . S
C414 C415 1.502 . S
C414 C416 1.561 . S
C414 C417 1.526 . S
C415 H399 0.959 . S
C415 H400 0.959 . S
C415 H401 0.961 . S
C415 C414 1.502 . S
C416 H402 0.960 . S
C416 H403 0.961 . S
C416 H404 0.959 . S
C416 C414 1.561 . S
C417 C414 1.526 . S
C417 C418 1.396 . S
C417 C422 1.390 . S
C418 C412 1.465 . S
C418 C417 1.396 . S
C418 C419 1.399 . S
C419 H405 0.929 . S
C419 C418 1.399 . S
C419 C420 1.385 . S
C420 H406 0.931 . S
C420 C419 1.385 . S
C420 C421 1.389 . S
C421 C420 1.389 . S
C421 C422 1.387 . S
C422 H407 0.930 . S
C422 C417 1.390 . S
C422 C421 1.387 . S
H423 C435 0.930 . S
H424 C437 0.930 . S
H425 C438 0.930 . S
H426 C442 0.959 . S
H427 C442 0.959 . S
H428 C442 0.961 . S
H429 C443 0.960 . S
H430 C443 0.961 . S
H431 C443 0.959 . S
H432 C446 0.929 . S
H433 C447 0.931 . S
H434 C449 0.930 . S
C435 H423 0.930 . S
C435 C436 1.399 . S
C435 C440 1.399 . S
C436 C435 1.399 . S
C436 C437 1.376 . S
C437 H424 0.930 . S
C437 C436 1.376 . S
C437 C438 1.388 . S
C438 H425 0.930 . S
C438 C437 1.388 . S
C438 C439 1.390 . S
C439 C438 1.390 . S
C439 C440 1.394 . S
C439 C445 1.465 . S
C440 C435 1.399 . S
C440 C439 1.394 . S
C440 C441 1.516 . S
C441 C440 1.516 . S
C441 C442 1.502 . S
C441 C443 1.561 . S
C441 C444 1.526 . S
C442 H426 0.959 . S
C442 H427 0.959 . S
C442 H428 0.961 . S
C442 C441 1.502 . S
C443 H429 0.960 . S
C443 H430 0.961 . S
C443 H431 0.959 . S
C443 C441 1.561 . S
C444 C441 1.526 . S
C444 C445 1.396 . S
C444 C449 1.390 . S
C445 C439 1.465 . S
C445 C444 1.396 . S
C445 C446 1.399 . S
C446 H432 0.929 . S
C446 C445 1.399 . S
C446 C447 1.385 . S
C447 H433 0.931 . S
C447 C446 1.385 . S
C447 C448 1.389 . S
C448 C447 1.389 . S
C448 C449 1.387 . S
C449 H434 0.930 . S
C449 C444 1.390 . S
C449 C448 1.387 . S
H450 C462 0.930 . S
H451 C464 0.932 1_655 S
H452 C465 0.930 . S
H453 C469 0.959 . S
H454 C469 0.961 1_455 S
H455 C469 0.961 . S
H456 C470 0.960 . S
H457 C470 0.961 . S
H458 C470 0.959 . S
H459 C473 0.929 . S
H460 C474 0.931 . S
H461 C476 0.930 . S
C462 H450 0.930 . S
C462 C463 1.399 . S
C462 C467 1.399 . S
C463 C462 1.399 . S
C463 C464 1.376 . S
C464 H451 0.932 1_455 S
C464 C463 1.376 . S
C464 C465 1.388 . S
C465 H452 0.930 . S
C465 C464 1.388 . S
C465 C466 1.390 . S
C466 C465 1.390 . S
C466 C467 1.394 . S
C466 C472 1.465 . S
C467 C462 1.399 . S
C467 C466 1.394 . S
C467 C468 1.516 . S
C468 C467 1.516 . S
C468 C469 1.502 1_455 S
C468 C470 1.561 . S
C468 C471 1.526 . S
C469 H453 0.959 . S
C469 H454 0.961 1_655 S
C469 H455 0.961 . S
C469 C468 1.502 1_655 S
C470 H456 0.960 . S
C470 H457 0.961 . S
C470 H458 0.959 . S
C470 C468 1.561 . S
C471 C468 1.526 . S
C471 C472 1.396 . S
C471 C476 1.390 1_554 S
C472 C466 1.465 . S
C472 C471 1.396 . S
C472 C473 1.399 1_554 S
C473 H459 0.929 . S
C473 C472 1.399 1_556 S
C473 C474 1.385 . S
C474 H460 0.931 . S
C474 C473 1.385 . S
C474 C475 1.389 . S
C475 C474 1.389 . S
C475 C476 1.387 . S
C476 H461 0.930 . S
C476 C471 1.390 1_556 S
C476 C475 1.387 . S
H477 C489 0.930 . S
H478 C491 0.930 . S
H479 C492 0.930 . S
H480 C496 0.959 . S
H481 C496 0.959 . S
H482 C496 0.961 . S
H483 C497 0.960 . S
H484 C497 0.961 . S
H485 C497 0.959 . S
H486 C500 0.929 . S
H487 C501 0.931 . S
H488 C503 0.930 . S
C489 H477 0.930 . S
C489 C490 1.399 1_565 S
C489 C494 1.399 . S
C490 C489 1.399 1_545 S
C490 C491 1.376 . S
C491 H478 0.930 . S
C491 C490 1.376 . S
C491 C492 1.388 . S
C492 H479 0.930 . S
C492 C491 1.388 . S
C492 C493 1.390 . S
C493 C492 1.390 . S
C493 C494 1.394 1_545 S
C493 C499 1.465 . S
C494 C489 1.399 . S
C494 C493 1.394 1_565 S
C494 C495 1.516 . S
C495 C494 1.516 . S
C495 C496 1.502 . S
C495 C497 1.561 . S
C495 C498 1.526 . S
C496 H480 0.959 . S
C496 H481 0.959 . S
C496 H482 0.961 . S
C496 C495 1.502 . S
C497 H483 0.960 . S
C497 H484 0.961 . S
C497 H485 0.959 . S
C497 C495 1.561 . S
C498 C495 1.526 . S
C498 C499 1.396 1_565 S
C498 C503 1.390 . S
C499 C493 1.465 . S
C499 C498 1.396 1_545 S
C499 C500 1.399 . S
C500 H486 0.929 . S
C500 C499 1.399 . S
C500 C501 1.385 . S
C501 H487 0.931 . S
C501 C500 1.385 . S
C501 C502 1.389 . S
C502 C501 1.389 . S
C502 C503 1.387 1_545 S
C503 H488 0.930 . S
C503 C498 1.390 . S
C503 C502 1.387 1_565 S
H504 C516 0.930 . S
H505 C518 0.930 . S
H506 C519 0.930 . S
H507 C523 0.959 . S
H508 C523 0.959 . S
H509 C523 0.961 . S
H510 C524 0.960 . S
H511 C524 0.961 . S
H512 C524 0.959 . S
H513 C527 0.929 . S
H514 C528 0.931 . S
H515 C530 0.930 . S
C516 H504 0.930 . S
C516 C517 1.399 . S
C516 C521 1.399 . S
C517 C516 1.399 . S
C517 C518 1.376 . S
C518 H505 0.930 . S
C518 C517 1.376 . S
C518 C519 1.388 . S
C519 H506 0.930 . S
C519 C518 1.388 . S
C519 C520 1.390 . S
C520 C519 1.390 . S
C520 C521 1.394 . S
C520 C526 1.465 . S
C521 C516 1.399 . S
C521 C520 1.394 . S
C521 C522 1.516 . S
C522 C521 1.516 . S
C522 C523 1.502 . S
C522 C524 1.561 . S
C522 C525 1.526 . S
C523 H507 0.959 . S
C523 H508 0.959 . S
C523 H509 0.961 . S
C523 C522 1.502 . S
C524 H510 0.960 . S
C524 H511 0.961 . S
C524 H512 0.959 . S
C524 C522 1.561 . S
C525 C522 1.526 . S
C525 C526 1.396 . S
C525 C530 1.390 . S
C526 C520 1.465 . S
C526 C525 1.396 . S
C526 C527 1.399 . S
C527 H513 0.929 . S
C527 C526 1.399 . S
C527 C528 1.385 . S
C528 H514 0.931 . S
C528 C527 1.385 . S
C528 C529 1.389 . S
C529 C528 1.389 . S
C529 C530 1.387 . S
C530 H515 0.930 . S
C530 C525 1.390 . S
C530 C529 1.387 . S
H531 C543 0.930 . S
H532 C545 0.930 . S
H533 C546 0.930 . S
H534 C550 0.959 . S
H535 C550 0.959 . S
H536 C550 0.961 . S
H537 C551 0.960 . S
H538 C551 0.961 . S
H539 C551 0.959 . S
H540 C554 0.929 . S
H541 C555 0.931 . S
H542 C557 0.930 . S
C543 H531 0.930 . S
C543 C544 1.399 1_565 S
C543 C548 1.399 . S
C544 C543 1.399 1_545 S
C544 C545 1.376 . S
C545 H532 0.930 . S
C545 C544 1.376 . S
C545 C546 1.388 . S
C546 H533 0.930 . S
C546 C545 1.388 . S
C546 C547 1.390 . S
C547 C546 1.390 . S
C547 C548 1.394 1_545 S
C547 C553 1.465 . S
C548 C543 1.399 . S
C548 C547 1.394 1_565 S
C548 C549 1.516 . S
C549 C548 1.516 . S
C549 C550 1.502 . S
C549 C551 1.561 . S
C549 C552 1.539 . S
C550 H534 0.959 . S
C550 H535 0.959 . S
C550 H536 0.961 . S
C550 C549 1.502 . S
C551 H537 0.960 . S
C551 H538 0.961 . S
C551 H539 0.959 . S
C551 C549 1.561 . S
C552 C549 1.539 . S
C552 C553 1.379 1_565 S
C552 C557 1.392 . S
C553 C547 1.465 . S
C553 C552 1.379 1_545 S
C553 C554 1.399 . S
C554 H540 0.929 . S
C554 C553 1.399 . S
C554 C555 1.385 . S
C555 H541 0.931 . S
C555 C554 1.385 . S
C555 C556 1.389 . S
C556 C555 1.389 . S
C556 C557 1.387 1_545 S
C557 H542 0.930 . S
C557 C552 1.392 . S
C557 C556 1.387 1_565 S
H558 C570 0.930 . S
H559 C572 0.930 . S
H560 C573 0.930 . S
H561 C577 0.959 . S
H562 C577 0.959 . S
H563 C577 0.961 . S
H564 C578 0.960 . S
H565 C578 0.961 . S
H566 C578 0.959 . S
H567 C581 0.929 . S
H568 C582 0.931 . S
H569 C584 0.930 . S
C570 H558 0.930 . S
C570 C571 1.399 . S
C570 C575 1.399 . S
C571 C570 1.399 . S
C571 C572 1.376 . S
C572 H559 0.930 . S
C572 C571 1.376 . S
C572 C573 1.388 . S
C573 H560 0.930 . S
C573 C572 1.388 . S
C573 C574 1.390 . S
C574 C573 1.390 . S
C574 C575 1.394 . S
C574 C580 1.465 . S
C575 C570 1.399 . S
C575 C574 1.394 . S
C575 C576 1.516 . S
C576 C575 1.516 . S
C576 C577 1.502 . S
C576 C578 1.561 . S
C576 C579 1.526 . S
C577 H561 0.959 . S
C577 H562 0.959 . S
C577 H563 0.961 . S
C577 C576 1.502 . S
C578 H564 0.960 . S
C578 H565 0.961 . S
C578 H566 0.959 . S
C578 C576 1.561 . S
C579 C576 1.526 . S
C579 C580 1.396 . S
C579 C584 1.390 1_556 S
C580 C574 1.465 . S
C580 C579 1.396 . S
C580 C581 1.399 1_556 S
C581 H567 0.929 . S
C581 C580 1.399 1_554 S
C581 C582 1.385 . S
C582 H568 0.931 . S
C582 C581 1.385 . S
C582 C583 1.389 . S
C583 C582 1.389 . S
C583 C584 1.387 . S
C584 H569 0.930 . S
C584 C579 1.390 1_554 S
C584 C583 1.387 . S
H585 C597 0.930 . S
H586 C599 0.930 . S
H587 C600 0.930 . S
H588 C604 0.959 . S
H589 C604 0.959 . S
H590 C604 0.961 . S
H591 C605 0.960 . S
H592 C605 0.961 . S
H593 C605 0.959 . S
H594 C608 0.929 . S
H595 C609 0.931 . S
H596 C611 0.930 . S
C597 H585 0.930 . S
C597 C598 1.399 1_655 S
C597 C602 1.399 . S
C598 C597 1.399 1_455 S
C598 C599 1.376 . S
C599 H586 0.930 . S
C599 C598 1.376 . S
C599 C600 1.388 . S
C600 H587 0.930 . S
C600 C599 1.388 . S
C600 C601 1.390 . S
C601 C600 1.390 . S
C601 C602 1.394 1_455 S
C601 C607 1.465 . S
C602 C597 1.399 . S
C602 C601 1.394 1_655 S
C602 C603 1.516 . S
C603 C602 1.516 . S
C603 C604 1.502 . S
C603 C605 1.561 . S
C603 C606 1.526 . S
C604 H588 0.959 . S
C604 H589 0.959 . S
C604 H590 0.961 . S
C604 C603 1.502 . S
C605 H591 0.960 . S
C605 H592 0.961 . S
C605 H593 0.959 . S
C605 C603 1.561 . S
C606 C603 1.526 . S
C606 C607 1.396 1_655 S
C606 C611 1.390 . S
C607 C601 1.465 . S
C607 C606 1.396 1_455 S
C607 C608 1.399 . S
C608 H594 0.929 . S
C608 C607 1.399 . S
C608 C609 1.385 . S
C609 H595 0.931 . S
C609 C608 1.385 . S
C609 C610 1.389 . S
C610 C609 1.389 . S
C610 C611 1.387 1_455 S
C611 H596 0.930 . S
C611 C606 1.390 . S
C611 C610 1.387 1_655 S
C139 C2 1.469 . S
C151 C120 1.318 . S
C166 C22 1.557 . S
C178 C98 1.463 . S
C193 C44 1.260 . S
C205 C112 1.372 . S
C220 C4 1.455 . S
C232 C123 1.446 . S
C259 C101 1.424 . S
C247 C24 1.463 . S
C286 C109 1.466 . S
C274 C42 1.634 . S
C301 C32 1.434 . S
C313 C76 1.209 . S
C328 C49 1.367 . S
C340 C87 1.117 . S
C355 C9 1.380 . S
C367 C65 1.244 . S
C394 C79 1.054 . S
C382 C29 1.147 . S
C421 C90 1.216 . S
C409 C52 1.116 . S
C436 C12 1.185 . S
C448 C68 1.114 . S
C475 C89 1.367 . S
C463 C18 1.474 1_455 S
C490 C38 1.456 . S
C502 C67 1.417 . S
C517 C58 1.495 . S
C529 C78 1.381 . S
C556 C111 1.461 . S
C544 C39 1.484 . S
C583 C122 1.419 . S
C571 C59 1.519 . S
C598 C19 1.492 . S
C610 C100 1.430 . S
