# Generated by pormake.
# Topology pth, (4,4)-cn, num edge types: 1
# Building blocks:
#     Node 0, Type 0, BuildingBlock: QUQFOY_clean_sbu_1, # of connection points: 4
#     Node 1, Type 0, BuildingBlock: QUQFOY_clean_sbu_1, # of connection points: 4
#     Node 2, Type 0, BuildingBlock: QUQFOY_clean_sbu_1, # of connection points: 4
#     Node 3, Type 1, BuildingBlock: MUDLON_clean_sbu_0, # of connection points: 4
#     Node 4, Type 1, BuildingBlock: MUDLON_clean_sbu_0, # of connection points: 4
#     Node 5, Type 1, BuildingBlock: MUDLON_clean_sbu_0, # of connection points: 4
#     Edge 6, Type (0, 1), BuildingBlock: TEMPAE_clean_linker_10, # of connection points: 2
#     Edge 7, Type (0, 1), BuildingBlock: TEMPAE_clean_linker_10, # of connection points: 2
#     Edge 8, Type (0, 1), BuildingBlock: TEMPAE_clean_linker_10, # of connection points: 2
#     Edge 9, Type (0, 1), BuildingBlock: TEMPAE_clean_linker_10, # of connection points: 2
#     Edge 10, Type (0, 1), BuildingBlock: TEMPAE_clean_linker_10, # of connection points: 2
#     Edge 11, Type (0, 1), BuildingBlock: TEMPAE_clean_linker_10, # of connection points: 2
#     Edge 12, Type (0, 1), BuildingBlock: TEMPAE_clean_linker_10, # of connection points: 2
#     Edge 13, Type (0, 1), BuildingBlock: TEMPAE_clean_linker_10, # of connection points: 2
#     Edge 14, Type (0, 1), BuildingBlock: TEMPAE_clean_linker_10, # of connection points: 2
#     Edge 15, Type (0, 1), BuildingBlock: TEMPAE_clean_linker_10, # of connection points: 2
#     Edge 16, Type (0, 1), BuildingBlock: TEMPAE_clean_linker_10, # of connection points: 2
#     Edge 17, Type (0, 1), BuildingBlock: TEMPAE_clean_linker_10, # of connection points: 2
# Relax obj value: 0.038
# Max RMSD: 0.129
# Mean RMSD: 0.076
data_MOF--net-pth--node1-QUQFOY_clean_sbu_1--node2-MUDLON_clean_sbu_0--edge1-TEMPAE_clean_linker_10
_symmetry_space_group_name_H-M    P1
_symmetry_Int_Tables_number       1
_symmetry_cell_setting            triclinic
loop_
_symmetry_equiv_pos_as_xyz
'x, y, z'
_cell_length_a     22.121757
_cell_length_b     23.90231
_cell_length_c     62.381162
_cell_angle_alpha  89.844638
_cell_angle_beta   90.101462
_cell_angle_gamma 120.03881
loop_
_atom_site_label
_atom_site_type_symbol
_atom_site_fract_x
_atom_site_fract_y
_atom_site_fract_z
_atom_type_partial_charge
O0 O 0.05777 0.10074 0.06212 0.0
Cd1 Cd 0.98265 0.03495 0.08206 0.0
Cd2 Cd 0.07038 0.99153 0.08352 0.0
O3 O 0.14271 0.08599 0.07395 0.0
O4 O 0.9324 0.0802 0.09239 0.0
O5 O 1.00175 0.0612 0.11293 0.0
C6 C 0.96507 0.08899 0.11037 0.0
C7 C 0.05833 0.93509 0.11523 0.0
C8 C 0.12236 0.11925 0.06332 0.0
C9 C 0.94148 0.91228 0.05915 0.0
O10 O 1.00624 0.93087 0.06018 0.0
O11 O 0.91714 0.94275 0.06949 0.0
O12 O 0.10568 0.94346 0.10139 0.0
O13 O 0.02334 0.96422 0.11191 0.0
O14 O 0.99259 0.08509 0.43042 0.0
Cd15 Cd 0.063 0.09243 0.40769 0.0
Cd16 Cd 0.98308 0.9689 0.40812 0.0
O17 O 0.90858 0.98861 0.42075 0.0
O18 O 0.09635 0.17775 0.3932 0.0
O19 O 0.02789 0.08348 0.37763 0.0
C20 C 0.05773 0.14576 0.37707 0.0
C21 C 0.9729 0.9003 0.3801 0.0
C22 C 0.92927 0.04019 0.43161 0.0
C23 C 0.12174 0.02368 0.42987 0.0
O24 O 0.05836 0.97887 0.42939 0.0
O25 O 0.1409 0.07499 0.41894 0.0
O26 O 0.94261 0.87755 0.3983 0.0
O27 O 1.00316 0.96196 0.37711 0.0
O28 O 0.91838 0.9503 0.72945 0.0
Cd29 Cd 0.9865 0.94295 0.75001 0.0
Cd30 Cd 0.03594 0.06796 0.75239 0.0
O31 O 0.93973 0.04675 0.73954 0.0
O32 O 0.93485 0.85163 0.76072 0.0
O33 O 0.96244 0.93655 0.78119 0.0
C34 C 0.93028 0.87457 0.77899 0.0
C35 C 0.08756 0.12313 0.7841 0.0
C36 C 0.90335 0.99508 0.72885 0.0
C37 C 0.12149 0.02379 0.72845 0.0
O38 O 0.10649 0.06818 0.73099 0.0
O39 O 0.08403 0.96882 0.73731 0.0
O40 O 0.08514 0.15366 0.76729 0.0
O41 O 0.05605 0.06086 0.78328 0.0
Mg42 Mg 0.99349 0.51198 0.24325 0.0
C43 C 0.91133 0.3867 0.27614 0.0
O44 O 0.85351 0.38863 0.27878 0.0
C45 C 0.92472 0.58688 0.2273 0.0
O46 O 0.92888 0.60223 0.24761 0.0
C47 C 0.9858 0.4237 0.21309 0.0
O48 O 0.92368 0.40926 0.22016 0.0
O49 O 0.03848 0.47637 0.21946 0.0
O50 O 0.95964 0.42787 0.26417 0.0
O51 O 0.04669 0.59502 0.26505 0.0
C52 C 1.0073 0.58561 0.28118 0.0
O53 O 0.95141 0.52847 0.28339 0.0
O54 O 0.93354 0.53999 0.22204 0.0
Mg55 Mg 0.52123 0.02646 0.58011 0.0
C56 C 0.42262 0.02389 0.55006 0.0
O57 O 0.45509 0.08171 0.5587 0.0
C58 C 0.61223 1.01139 0.60911 0.0
O59 O 0.64708 0.07002 0.60107 0.0
C60 C 0.42548 0.03749 0.60809 0.0
O61 O 0.39149 0.98057 0.59887 0.0
O62 O 0.48864 0.07571 0.60267 0.0
O63 O 0.43723 0.98155 0.55668 0.0
O64 O 0.6091 0.07476 0.55816 0.0
C65 C 0.62459 0.03324 0.5514 0.0
O66 O 0.59046 0.97422 0.55917 0.0
O67 O 0.55028 0.97373 0.6025 0.0
Mg68 Mg 0.5105 0.50324 0.92627 0.0
C69 C 0.39875 0.40006 0.90314 0.0
O70 O 0.37766 0.43978 0.90954 0.0
C71 C 0.63423 0.59667 0.94853 0.0
O72 O 0.61038 0.62884 0.93776 0.0
C73 C 0.43982 0.49388 0.96893 0.0
O74 O 0.50448 0.52858 0.97565 0.0
O75 O 0.42793 0.48781 0.94884 0.0
O76 O 0.46011 0.41256 0.9083 0.0
O77 O 0.55031 0.57455 0.90033 0.0
C78 C 0.60224 0.57289 0.89218 0.0
O79 O 0.61695 0.52938 0.89944 0.0
O80 O 0.60256 0.53528 0.94674 0.0
C81 C 1.00451 0.14542 0.14576 0.0
C82 C 0.96737 0.1355 0.12654 0.0
C83 C 0.01349 0.19404 0.16022 0.0
C84 C 0.98491 0.23395 0.15532 0.0
C85 C 0.94711 0.22398 0.136 0.0
C86 C 0.93861 0.1748 0.12189 0.0
C87 C 0.05332 0.20252 0.18077 0.0
C88 C 0.91552 0.26528 0.13022 0.0
C89 C 0.93723 0.31127 0.20016 0.0
C90 C 0.99121 0.376 0.19929 0.0
C91 C 0.93589 0.26456 0.18639 0.0
C92 C 0.98966 0.28278 0.17111 0.0
C93 C 0.04567 0.34766 0.1705 0.0
C94 C 0.04606 0.39364 0.18475 0.0
C95 C 0.87572 0.19592 0.18785 0.0
C96 C 0.1039 0.36882 0.15439 0.0
H97 H 0.02736 0.11563 0.14944 0.0
H98 H 0.9105 0.16803 0.10699 0.0
H99 H 0.09753 0.25282 0.18197 0.0
H100 H 0.01876 0.19411 0.19473 0.0
H101 H 0.07413 0.16887 0.1819 0.0
H102 H 0.89036 0.25331 0.11417 0.0
H103 H 0.87573 0.25862 0.14232 0.0
H104 H 0.95638 0.31712 0.13039 0.0
H105 H 0.89511 0.29692 0.21159 0.0
H106 H 0.08782 0.44353 0.18402 0.0
H107 H 0.89561 0.16186 0.18989 0.0
H108 H 0.8451 0.18279 0.17275 0.0
H109 H 0.84004 0.18897 0.20139 0.0
H110 H 0.12758 0.33754 0.15553 0.0
H111 H 0.14547 0.41991 0.15672 0.0
H112 H 0.08255 0.36344 0.13793 0.0
C113 C 0.81097 1.00132 0.44808 0.0
C114 C 0.88229 0.04725 0.44694 0.0
C115 C 0.76833 1.00545 0.46398 0.0
C116 C 0.79802 0.05608 0.47925 0.0
C117 C 0.86926 0.10392 0.47762 0.0
C118 C 0.91031 0.09918 0.46144 0.0
C119 C 0.69218 0.95411 0.46499 0.0
C120 C 0.90325 0.1581 0.49373 0.0
C121 C 0.67957 0.08496 0.51637 0.0
C122 C 0.67561 0.04727 0.53413 0.0
C123 C 0.71941 0.08863 0.49829 0.0
C124 C 0.75697 0.05489 0.4983 0.0
C125 C 0.75542 0.01928 0.51666 0.0
C126 C 0.71417 0.01536 0.53422 0.0
C127 C 0.71911 0.12634 0.47889 0.0
C128 C 0.79606 0.98397 0.51759 0.0
H129 H 0.78875 0.96141 0.43686 0.0
H130 H 0.96532 0.13515 0.46071 0.0
H131 H 0.68285 0.92321 0.47931 0.0
H132 H 0.65912 0.97666 0.46663 0.0
H133 H 0.67525 0.92279 0.45054 0.0
H134 H 0.9574 0.19468 0.48909 0.0
H135 H 0.87228 0.18264 0.49561 0.0
H136 H 0.90495 0.13795 0.50963 0.0
H137 H 0.64878 0.10876 0.51619 0.0
H138 H 0.71108 0.98624 0.54799 0.0
H139 H 0.69453 0.09291 0.46519 0.0
H140 H 0.77332 0.16191 0.47408 0.0
H141 H 0.69009 0.15239 0.48181 0.0
H142 H 0.77646 0.94571 0.50517 0.0
H143 H 0.79193 0.96116 0.53348 0.0
H144 H 0.85203 0.01784 0.51414 0.0
C145 C 0.88427 0.85635 0.81658 0.0
C146 C 0.88451 0.83146 0.79625 0.0
C147 C 0.83734 0.81703 0.83256 0.0
C148 C 0.78894 0.75142 0.82802 0.0
C149 C 0.7889 0.72609 0.80752 0.0
C150 C 0.83693 0.76627 0.79194 0.0
C151 C 0.83985 0.84556 0.85433 0.0
C152 C 0.73799 0.65646 0.80202 0.0
C153 C 0.7165 0.62933 0.87333 0.0
C154 C 0.64946 0.62081 0.8762 0.0
C155 C 0.76268 0.6727 0.85809 0.0
C156 C 0.74121 0.70809 0.84507 0.0
C157 C 0.67387 0.70047 0.848 0.0
C158 C 0.62886 0.65719 0.8637 0.0
C159 C 0.8343 0.68004 0.85577 0.0
C160 C 0.64899 0.73702 0.83426 0.0
H161 H 0.92068 0.90674 0.82002 0.0
H162 H 0.8362 0.7468 0.77621 0.0
H163 H 0.78813 0.83973 0.85829 0.0
H164 H 0.85186 0.81934 0.86679 0.0
H165 H 0.87975 0.89771 0.85518 0.0
H166 H 0.74259 0.64497 0.78507 0.0
H167 H 0.74718 0.62397 0.81255 0.0
H168 H 0.68371 0.64566 0.8049 0.0
H169 H 0.73331 0.60206 0.88312 0.0
H170 H 0.57716 0.65079 0.86585 0.0
H171 H 0.87517 0.73154 0.85753 0.0
H172 H 0.84004 0.66449 0.83952 0.0
H173 H 0.84405 0.65111 0.8678 0.0
H174 H 0.68578 0.78974 0.83554 0.0
H175 H 0.59598 0.72696 0.83888 0.0
H176 H 0.64794 0.72361 0.81719 0.0
C177 C 0.08414 0.86684 0.14013 0.0
C178 C 0.03843 0.88747 0.13292 0.0
C179 C 0.06283 0.81764 0.15565 0.0
C180 C 0.99352 0.78701 0.16364 0.0
C181 C 0.94723 0.80768 0.15637 0.0
C182 C 0.97052 0.85818 0.14135 0.0
C183 C 0.11444 0.79829 0.16344 0.0
C184 C 0.87253 0.77544 0.16407 0.0
C185 C 0.92557 0.62055 0.18896 0.0
C186 C 0.93245 0.63528 0.21089 0.0
C187 C 0.94304 0.66906 0.17338 0.0
C188 C 0.96979 0.73409 0.17988 0.0
C189 C 0.9752 0.74887 0.202 0.0
C190 C 0.95558 0.6993 0.21718 0.0
C191 C 0.93447 0.65099 0.14996 0.0
C192 C 1.00461 0.81758 0.20967 0.0
H193 H 0.13656 0.88915 0.13363 0.0
H194 H 0.93447 0.87313 0.13561 0.0
H195 H 0.11917 0.80258 0.18115 0.0
H196 H 0.0955 0.74698 0.15939 0.0
H197 H 0.16705 0.82848 0.15628 0.0
H198 H 0.84274 0.7964 0.15654 0.0
H199 H 0.84577 0.72302 0.16039 0.0
H200 H 0.8711 0.78015 0.18172 0.0
H201 H 0.9078 0.57131 0.18396 0.0
H202 H 0.96177 0.71155 0.23406 0.0
H203 H 0.98641 0.67326 0.14214 0.0
H204 H 0.90391 0.66998 0.14172 0.0
H205 H 0.90782 0.59785 0.14757 0.0
H206 H 0.05914 0.84756 0.20392 0.0
H207 H 1.00441 0.82091 0.22743 0.0
H208 H 0.97411 0.83878 0.20292 0.0
C209 C 0.14389 0.96261 0.45835 0.0
C210 C 0.1702 0.01666 0.44468 0.0
C211 C 0.18541 0.95764 0.47437 0.0
C212 C 0.25555 1.00745 0.47666 0.0
C213 C 0.28388 0.06024 0.46212 0.0
C214 C 0.24068 0.06452 0.44637 0.0
C215 C 0.15274 0.90103 0.48969 0.0
C216 C 0.35894 0.11368 0.46382 0.0
C217 C 0.33364 0.04209 0.53247 0.0
C218 C 0.374 1.01196 0.5322 0.0
C219 C 0.29402 0.03984 0.51463 0.0
C220 C 0.29618 1.008 0.49579 0.0
C221 C 0.336 0.97642 0.49552 0.0
C222 C 0.37398 0.97815 0.51389 0.0
C223 C 0.25068 0.07249 0.51587 0.0
C224 C 0.34037 0.94288 0.47562 0.0
H225 H 0.08962 0.92498 0.45717 0.0
H226 H 0.26164 0.10611 0.43579 0.0
H227 H 0.1859 0.87857 0.49127 0.0
H228 H 0.14864 0.91824 0.50584 0.0
H229 H 0.0997 0.86338 0.48451 0.0
H230 H 0.37546 0.14661 0.44974 0.0
H231 H 0.36577 0.14253 0.47846 0.0
H232 H 0.39402 0.09317 0.46533 0.0
H233 H 0.33376 0.06826 0.54667 0.0
H234 H 0.40624 0.95584 0.51358 0.0
H235 H 0.19543 0.03749 0.5119 0.0
H236 H 0.26969 0.11222 0.50393 0.0
H237 H 0.25257 0.09286 0.532 0.0
H238 H 0.28731 0.90615 0.47022 0.0
H239 H 0.37169 0.91884 0.47823 0.0
H240 H 0.36449 0.97861 0.46244 0.0
C241 C 0.16861 0.22627 0.80305 0.0
C242 C 0.12996 0.15853 0.80308 0.0
C243 C 0.21332 0.26041 0.82013 0.0
C244 C 0.21959 0.22609 0.83774 0.0
C245 C 0.18037 0.15772 0.83796 0.0
C246 C 0.13603 0.12476 0.82064 0.0
C247 C 0.25389 0.33337 0.81932 0.0
C248 C 0.18528 0.11943 0.85649 0.0
C249 C 0.37996 0.32354 0.8729 0.0
C250 C 0.35275 0.34658 0.88861 0.0
C251 C 0.33657 0.2817 0.85667 0.0
C252 C 0.26455 0.26235 0.85635 0.0
C253 C 0.23635 0.28227 0.87302 0.0
C254 C 0.28076 0.32417 0.88886 0.0
C255 C 0.36851 0.26122 0.83921 0.0
C256 C 0.15989 0.26236 0.87347 0.0
H257 H 0.16464 0.25279 0.78952 0.0
H258 H 0.1067 0.07239 0.82077 0.0
H259 H 0.23898 0.35333 0.83305 0.0
H260 H 0.31063 0.35102 0.82076 0.0
H261 H 0.24459 0.35275 0.80424 0.0
H262 H 0.15236 0.06645 0.85405 0.0
H263 H 0.24024 0.13144 0.85875 0.0
H264 H 0.16869 0.13258 0.87152 0.0
H265 H 0.43558 0.34095 0.87258 0.0
H266 H 0.25929 0.34131 0.90112 0.0
H267 H 0.36831 0.28496 0.82392 0.0
H268 H 0.33719 0.20827 0.83665 0.0
H269 H 0.42315 0.27436 0.84297 0.0
H270 H 0.14794 0.28514 0.85983 0.0
H271 H 0.14502 0.27689 0.88858 0.0
H272 H 0.1269 0.20926 0.87162 0.0
C273 C 0.83026 0.03717 0.71209 0.0
C274 C 0.84702 0.98807 0.71417 0.0
C275 C 0.78307 0.03368 0.69628 0.0
C276 C 0.75262 0.98024 0.6821 0.0
C277 C 0.7664 0.92897 0.68489 0.0
C278 C 0.81304 0.93334 0.70093 0.0
C279 C 0.76874 0.08887 0.69402 0.0
C280 C 0.73556 0.8714 0.67005 0.0
C281 C 0.60639 0.96023 0.64472 0.0
C282 C 0.64462 0.99376 0.62655 0.0
C283 C 0.64052 0.95453 0.66297 0.0
C284 C 0.7141 0.98199 0.66273 0.0
C285 C 0.75209 1.01283 0.64393 0.0
C286 C 0.71696 0.01891 0.62619 0.0
C287 C 0.59841 0.92194 0.6828 0.0
C288 C 0.83031 0.04133 0.64275 0.0
H289 H 0.85567 0.07932 0.72233 0.0
H290 H 0.82504 0.89475 0.70246 0.0
H291 H 0.79397 0.11655 0.67921 0.0
H292 H 0.71182 0.0702 0.69248 0.0
H293 H 0.78896 0.12247 0.70786 0.0
H294 H 0.74471 0.83229 0.67587 0.0
H295 H 0.67855 0.85152 0.66817 0.0
H296 H 0.75947 0.8868 0.65393 0.0
H297 H 0.55053 0.94168 0.64509 0.0
H298 H 0.74646 0.04479 0.61209 0.0
H299 H 0.6126 0.95826 0.69571 0.0
H300 H 0.61059 0.88492 0.68875 0.0
H301 H 0.54131 0.89857 0.67985 0.0
H302 H 0.8563 0.08143 0.65443 0.0
H303 H 0.85134 0.0603 0.62652 0.0
H304 H 0.84446 1.00429 0.6471 0.0
C305 C 0.92326 0.82167 0.03499 0.0
C306 C 0.89574 0.85619 0.04536 0.0
C307 C 0.88302 0.77188 0.0205 0.0
C308 C 0.81351 0.7561 0.01619 0.0
C309 C 0.78426 0.78853 0.02736 0.0
C310 C 0.82572 0.8382 0.04182 0.0
C311 C 0.91612 0.73842 1.00901 0.0
C312 C 0.71014 0.77289 0.02325 0.0
C313 C 0.73674 0.69778 0.961 0.0
C314 C 0.68909 0.63226 0.96468 0.0
C315 C 0.77954 0.73778 0.97744 0.0
C316 C 0.77431 0.71172 0.9982 0.0
C317 C 0.72927 0.64463 1.00174 0.0
C318 C 0.68717 0.60543 0.98484 0.0
C319 C 0.82758 0.80876 0.97282 0.0
C320 C 0.72255 0.61507 0.02363 0.0
H321 H 0.97708 0.83457 0.03777 0.0
H322 H 0.80381 0.86416 0.04985 0.0
H323 H 0.88134 0.68522 1.00957 0.0
H324 H 0.92392 0.75298 0.99188 0.0
H325 H 0.96752 0.75066 0.01599 0.0
H326 H 0.69301 0.79773 0.0347 0.0
H327 H 0.70587 0.78795 1.00674 0.0
H328 H 0.67388 0.72002 0.02443 0.0
H329 H 0.73845 0.71852 0.94536 0.0
H330 H 0.64977 0.55491 0.98778 0.0
H331 H 0.88152 0.82388 0.9781 0.0
H332 H 0.81007 0.83784 0.98197 0.0
H333 H 0.8288 0.82041 0.95552 0.0
H334 H 0.77484 0.63052 0.03051 0.0
H335 H 0.69214 0.56142 0.02315 0.0
H336 H 0.69581 0.6322 0.03459 0.0
C337 C 0.97378 0.79929 0.37085 0.0
C338 C 0.97967 0.85787 0.36417 0.0
C339 C 0.98602 0.7607 0.35661 0.0
C340 C 1.00282 0.78019 0.33495 0.0
C341 C 1.00853 0.83918 0.32804 0.0
C342 C 0.99777 0.87777 0.34282 0.0
C343 C 0.98027 0.69861 0.36473 0.0
C344 C 0.02435 0.86074 0.30496 0.0
C345 C 0.07242 0.69068 0.30153 0.0
C346 C 1.01007 0.63983 0.29339 0.0
C347 C 0.07155 0.73813 0.31475 0.0
C348 C 1.00714 0.73532 0.31926 0.0
C349 C 0.94486 0.68591 0.31003 0.0
C350 C 0.947 0.6384 0.29757 0.0
C351 C 0.13883 0.78939 0.32467 0.0
C352 C 0.87531 0.68183 0.31386 0.0
H353 H 0.96113 0.78416 0.38742 0.0
H354 H 1.00286 0.92324 0.33761 0.0
H355 H 0.93514 0.6567 0.35703 0.0
H356 H 0.02779 0.69661 0.36041 0.0
H357 H 0.97322 0.69334 0.38239 0.0
H358 H 0.0301 0.90916 0.30235 0.0
H359 H 0.07308 0.86224 0.29978 0.0
H360 H 0.98166 0.82537 0.29453 0.0
H361 H 0.12113 0.69175 0.29833 0.0
H362 H 0.89864 0.59956 0.29109 0.0
H363 H 0.13668 0.78218 0.3423 0.0
H364 H 0.14586 0.83808 0.32174 0.0
H365 H 0.185 0.78809 0.31832 0.0
H366 H 0.86004 0.66973 0.33091 0.0
H367 H 0.83316 0.64455 0.30369 0.0
H368 H 0.87919 0.72915 0.31055 0.0
C369 C 0.21265 0.09283 0.70161 0.0
C370 C 0.17913 0.03534 0.71363 0.0
C371 C 0.26087 0.10177 0.68551 0.0
C372 C 0.27669 0.05236 0.68142 0.0
C373 C 0.2465 0.99598 0.69438 0.0
C374 C 0.19773 0.98794 0.71026 0.0
C375 C 0.29138 0.16235 0.67198 0.0
C376 C 0.26292 0.94259 0.69072 0.0
C377 C 0.31862 0.02617 0.6248 0.0
C378 C 0.39102 0.05187 0.62569 0.0
C379 C 0.28145 0.02836 0.6426 0.0
C380 C 0.31742 0.05584 0.66198 0.0
C381 C 0.39108 0.0842 0.66277 0.0
C382 C 0.42727 0.08238 0.64447 0.0
C383 C 0.20321 0.99896 0.64087 0.0
C384 C 0.4311 0.11341 0.68319 0.0
H385 H 0.19909 0.13006 0.70413 0.0
H386 H 0.17268 0.94368 0.71957 0.0
H387 H 0.34869 0.18379 0.67038 0.0
H388 H 0.26876 0.15002 0.65562 0.0
H389 H 0.28045 0.1993 0.67878 0.0
H390 H 0.24217 0.90586 0.70373 0.0
H391 H 0.2396 0.91812 0.67531 0.0
H392 H 0.32018 0.96275 0.68955 0.0
H393 H 0.29065 1.00267 0.61023 0.0
H394 H 0.48317 0.1014 0.64525 0.0
H395 H 0.18757 0.0342 0.64614 0.0
H396 H 0.17686 0.95625 0.65159 0.0
H397 H 0.18394 0.98344 0.62427 0.0
H398 H 0.41694 0.14816 0.68997 0.0
H399 H 0.48849 0.13865 0.68065 0.0
H400 H 0.41696 0.0747 0.69529 0.0
C401 C 0.23609 0.18944 0.04429 0.0
C402 C 0.17215 0.17966 0.05207 0.0
C403 C 0.27928 0.24389 0.03162 0.0
C404 C 0.25851 0.29003 0.02702 0.0
C405 C 0.19552 0.2817 0.03569 0.0
C406 C 0.15293 0.22646 0.04792 0.0
C407 C 0.34587 0.25085 0.0225 0.0
C408 C 0.17213 0.33029 0.03159 0.0
C409 C 0.39844 0.4541 1.00616 0.0
C410 C 0.38649 0.44703 0.98397 0.0
C411 C 0.35601 0.40417 0.02045 0.0
C412 C 0.30088 0.34538 1.01233 0.0
C413 C 0.28668 0.339 0.99004 0.0
C414 C 0.32923 0.39007 0.97615 0.0
C415 C 0.37173 0.4135 0.04415 0.0
C416 C 0.22848 0.27707 0.98071 0.0
H417 H 0.25101 0.15333 0.04739 0.0
H418 H 0.10389 0.21958 0.05411 0.0
H419 H 0.34285 0.24922 1.00473 0.0
H420 H 0.39096 0.29837 0.02699 0.0
H421 H 0.35588 0.21212 0.02817 0.0
H422 H 0.12457 0.31928 0.04085 0.0
H423 H 0.21437 0.3796 0.03585 0.0
H424 H 0.16079 0.33084 0.01428 0.0
H425 H 0.4425 0.49796 0.01234 0.0
H426 H 0.3198 0.38384 0.95903 0.0
H427 H 0.38956 0.38002 0.04972 0.0
H428 H 0.3238 0.40174 0.05329 0.0
H429 H 0.41279 0.46373 0.04804 0.0
H430 H 0.23849 0.23679 0.98405 0.0
H431 H 0.22317 0.28039 0.96311 0.0
H432 H 0.17807 0.2646 0.98839 0.0
C433 C 0.06603 0.24547 0.36092 0.0
C434 C 0.04103 0.1788 0.35979 0.0
C435 C 0.04285 0.27596 0.34647 0.0
C436 C 0.99357 0.23901 0.33042 0.0
C437 C 0.96986 0.1721 0.32874 0.0
C438 C 0.9938 0.1428 0.34345 0.0
C439 C 0.06989 0.34753 0.34871 0.0
C440 C 0.91788 0.13114 0.31174 0.0
C441 C 0.88788 0.31145 0.30737 0.0
C442 C 0.92601 0.3421 0.28883 0.0
C443 C 0.90796 0.27598 0.32075 0.0
C444 C 0.96729 0.2708 0.3154 0.0
C445 C 1.00389 0.29914 0.29619 0.0
C446 C 0.98289 0.33435 0.28319 0.0
C447 C 0.86736 0.24616 0.34106 0.0
C448 C 0.06697 0.29441 0.28975 0.0
H449 H 0.10224 0.2737 0.37352 0.0
H450 H 0.97394 0.09122 0.34247 0.0
H451 H 0.09431 0.37274 0.33348 0.0
H452 H 0.02585 0.35598 0.35206 0.0
H453 H 0.10894 0.3696 0.36179 0.0
H454 H 0.90667 0.08034 0.31204 0.0
H455 H 0.8682 0.13115 0.31413 0.0
H456 H 0.93779 0.15176 0.29562 0.0
H457 H 0.84398 0.31717 0.31186 0.0
H458 H 0.01231 0.35721 0.26877 0.0
H459 H 0.90104 0.27007 0.35518 0.0
H460 H 0.85141 0.1942 0.34188 0.0
H461 H 0.81994 0.25078 0.34224 0.0
H462 H 0.10965 0.32075 0.30151 0.0
H463 H 0.08653 0.31502 0.27356 0.0
H464 H 0.05426 0.24324 0.28986 0.0
loop_
_geom_bond_atom_site_label_1
_geom_bond_atom_site_label_2
_geom_bond_distance
_geom_bond_site_symmetry_2
_ccdc_geom_bond_type
O0 Cd1 2.223 1_455 S
O0 C8 1.315 . S
Cd1 O0 2.223 1_655 S
Cd1 O4 2.297 . S
Cd1 O5 2.439 . S
Cd1 O11 2.240 1_545 S
Cd2 O3 2.240 1_565 S
Cd2 O10 2.223 1_455 S
Cd2 O12 2.297 . S
Cd2 O13 2.439 . S
O3 Cd2 2.240 1_545 S
O3 C8 1.279 . S
O4 Cd1 2.297 . S
O4 C6 1.247 . S
O5 Cd1 2.439 . S
O5 C6 1.208 . S
C6 O4 1.247 . S
C6 O5 1.208 . S
C7 O12 1.247 . S
C7 O13 1.208 . S
C8 O0 1.315 . S
C8 O3 1.279 . S
C9 O10 1.315 . S
C9 O11 1.279 . S
O10 Cd2 2.223 1_655 S
O10 C9 1.315 . S
O11 Cd1 2.240 1_565 S
O11 C9 1.279 . S
O12 Cd2 2.297 . S
O12 C7 1.247 . S
O13 Cd2 2.439 . S
O13 C7 1.208 . S
O14 Cd15 2.223 1_655 S
O14 C22 1.315 . S
Cd15 O14 2.223 1_455 S
Cd15 O18 2.297 . S
Cd15 O19 2.439 . S
Cd15 O25 2.240 . S
Cd16 O17 2.240 . S
Cd16 O24 2.223 1_655 S
Cd16 O26 2.297 . S
Cd16 O27 2.439 . S
O17 Cd16 2.240 . S
O17 C22 1.279 1_565 S
O18 Cd15 2.297 . S
O18 C20 1.247 . S
O19 Cd15 2.439 . S
O19 C20 1.208 . S
C20 O18 1.247 . S
C20 O19 1.208 . S
C21 O26 1.247 . S
C21 O27 1.208 . S
C22 O14 1.315 . S
C22 O17 1.279 1_545 S
C23 O24 1.315 . S
C23 O25 1.279 1_565 S
O24 Cd16 2.223 1_455 S
O24 C23 1.315 . S
O25 Cd15 2.240 . S
O25 C23 1.279 1_545 S
O26 Cd16 2.297 . S
O26 C21 1.247 . S
O27 Cd16 2.439 . S
O27 C21 1.208 . S
O28 Cd29 2.223 . S
O28 C36 1.315 . S
Cd29 O28 2.223 . S
Cd29 O32 2.297 . S
Cd29 O33 2.439 . S
Cd29 O39 2.240 1_655 S
Cd30 O31 2.240 1_455 S
Cd30 O38 2.223 . S
Cd30 O40 2.297 . S
Cd30 O41 2.439 . S
O31 Cd30 2.240 1_655 S
O31 C36 1.279 1_545 S
O32 Cd29 2.297 . S
O32 C34 1.247 . S
O33 Cd29 2.439 . S
O33 C34 1.208 . S
C34 O32 1.247 . S
C34 O33 1.208 . S
C35 O40 1.247 . S
C35 O41 1.208 . S
C36 O28 1.315 . S
C36 O31 1.279 1_565 S
C37 O38 1.315 . S
C37 O39 1.279 1_545 S
O38 Cd30 2.223 . S
O38 C37 1.315 . S
O39 Cd29 2.240 1_455 S
O39 C37 1.279 1_565 S
O40 Cd30 2.297 . S
O40 C35 1.247 . S
O41 Cd30 2.439 . S
O41 C35 1.208 . S
Mg42 O49 2.141 . S
Mg42 O50 2.048 . S
Mg42 O51 2.048 . S
Mg42 O54 2.141 . S
C43 O44 1.313 . S
C43 O50 1.195 1_655 S
O44 C43 1.313 . S
C45 O46 1.245 . S
C45 O54 1.289 1_655 S
O46 C45 1.245 . S
C47 O48 1.245 . S
C47 O49 1.289 1_655 S
O48 C47 1.245 . S
O49 Mg42 2.141 . S
O49 C47 1.289 1_455 S
O50 Mg42 2.048 . S
O50 C43 1.195 1_455 S
O51 Mg42 2.048 . S
O51 C52 1.195 1_455 S
C52 O51 1.195 1_655 S
C52 O53 1.313 . S
O53 C52 1.313 . S
O54 Mg42 2.141 . S
O54 C45 1.289 1_455 S
Mg55 O62 2.141 . S
Mg55 O63 2.048 . S
Mg55 O64 2.048 . S
Mg55 O67 2.141 . S
C56 O57 1.313 . S
C56 O63 1.195 1_565 S
O57 C56 1.313 . S
C58 O59 1.245 . S
C58 O67 1.289 1_565 S
O59 C58 1.245 . S
C60 O61 1.245 . S
C60 O62 1.289 1_565 S
O61 C60 1.245 . S
O62 Mg55 2.141 . S
O62 C60 1.289 1_545 S
O63 Mg55 2.048 . S
O63 C56 1.195 1_545 S
O64 Mg55 2.048 . S
O64 C65 1.195 1_545 S
C65 O64 1.195 1_565 S
C65 O66 1.313 . S
O66 C65 1.313 . S
O67 Mg55 2.141 . S
O67 C58 1.289 1_545 S
Mg68 O75 2.141 . S
Mg68 O76 2.048 . S
Mg68 O77 2.048 . S
Mg68 O80 2.141 . S
C69 O70 1.313 . S
C69 O76 1.195 . S
O70 C69 1.313 . S
C71 O72 1.245 . S
C71 O80 1.289 . S
O72 C71 1.245 . S
C73 O74 1.245 . S
C73 O75 1.289 . S
O74 C73 1.245 . S
O75 Mg68 2.141 . S
O75 C73 1.289 . S
O76 Mg68 2.048 . S
O76 C69 1.195 . S
O77 Mg68 2.048 . S
O77 C78 1.195 . S
C78 O77 1.195 . S
C78 O79 1.313 . S
O79 C78 1.313 . S
O80 Mg68 2.141 . S
O80 C71 1.289 . S
C81 C82 1.391 1_655 S
C81 C83 1.394 . S
C81 H97 0.931 . S
C82 C81 1.391 1_455 S
C82 C86 1.376 . S
C83 C81 1.394 . S
C83 C84 1.369 1_655 S
C83 C87 1.531 . S
C84 C83 1.369 1_455 S
C84 C85 1.410 . S
C84 C92 1.503 . S
C85 C84 1.410 . S
C85 C86 1.392 . S
C85 C88 1.511 . S
C86 C82 1.376 . S
C86 C85 1.392 . S
C86 H98 0.929 . S
C87 C83 1.531 . S
C87 H99 0.960 . S
C87 H100 0.962 . S
C87 H101 0.960 . S
C88 C85 1.511 . S
C88 H102 0.961 . S
C88 H103 0.961 . S
C88 H104 0.961 . S
C89 C90 1.370 1_655 S
C89 C91 1.363 . S
C89 H105 0.931 . S
C90 C89 1.370 1_455 S
C90 C94 1.408 . S
C91 C89 1.363 . S
C91 C92 1.370 1_655 S
C91 C95 1.524 . S
C92 C84 1.503 . S
C92 C91 1.370 1_455 S
C92 C93 1.403 . S
C93 C92 1.403 . S
C93 C94 1.404 . S
C93 C96 1.539 . S
C94 C90 1.408 . S
C94 C93 1.404 . S
C94 H106 0.930 . S
C95 C91 1.524 . S
C95 H107 0.956 . S
C95 H108 0.961 . S
C95 H109 0.961 . S
C96 C93 1.539 . S
C96 H110 0.958 . S
C96 H111 0.961 . S
C96 H112 0.960 . S
H97 C81 0.931 . S
H98 C86 0.929 . S
H99 C87 0.960 . S
H100 C87 0.962 . S
H101 C87 0.960 . S
H102 C88 0.961 . S
H103 C88 0.961 . S
H104 C88 0.961 . S
H105 C89 0.931 . S
H106 C94 0.930 . S
H107 C95 0.956 . S
H108 C95 0.961 . S
H109 C95 0.961 . S
H110 C96 0.958 . S
H111 C96 0.961 . S
H112 C96 0.960 . S
C113 C114 1.389 . S
C113 C115 1.394 . S
C113 H129 0.931 . S
C114 C113 1.389 . S
C114 C118 1.374 1_565 S
C115 C113 1.394 . S
C115 C116 1.369 . S
C115 C119 1.531 . S
C116 C115 1.369 . S
C116 C117 1.410 1_565 S
C116 C124 1.503 . S
C117 C116 1.410 1_545 S
C117 C118 1.392 . S
C117 C120 1.511 . S
C118 C114 1.374 1_545 S
C118 C117 1.392 . S
C118 H130 0.929 . S
C119 C115 1.531 . S
C119 H131 0.960 . S
C119 H132 0.962 . S
C119 H133 0.960 . S
C120 C117 1.511 . S
C120 H134 0.961 . S
C120 H135 0.961 . S
C120 H136 0.961 1_545 S
C121 C122 1.370 1_545 S
C121 C123 1.363 . S
C121 H137 0.931 . S
C122 C121 1.370 1_565 S
C122 C126 1.408 . S
C123 C121 1.363 . S
C123 C124 1.370 1_545 S
C123 C127 1.524 . S
C124 C116 1.503 . S
C124 C123 1.370 1_565 S
C124 C125 1.403 . S
C125 C124 1.403 . S
C125 C126 1.404 . S
C125 C128 1.539 . S
C126 C122 1.408 . S
C126 C125 1.404 . S
C126 H138 0.930 . S
C127 C123 1.524 . S
C127 H139 0.956 . S
C127 H140 0.961 . S
C127 H141 0.961 . S
C128 C125 1.539 . S
C128 H142 0.958 . S
C128 H143 0.961 . S
C128 H144 0.960 . S
H129 C113 0.931 . S
H130 C118 0.929 . S
H131 C119 0.960 . S
H132 C119 0.962 . S
H133 C119 0.960 . S
H134 C120 0.961 . S
H135 C120 0.961 . S
H136 C120 0.961 1_565 S
H137 C121 0.931 . S
H138 C126 0.930 . S
H139 C127 0.956 . S
H140 C127 0.961 . S
H141 C127 0.961 . S
H142 C128 0.958 . S
H143 C128 0.961 . S
H144 C128 0.960 . S
C145 C146 1.391 . S
C145 C147 1.394 . S
C145 H161 0.931 . S
C146 C145 1.391 . S
C146 C150 1.376 . S
C147 C145 1.394 . S
C147 C148 1.369 . S
C147 C151 1.531 . S
C148 C147 1.369 . S
C148 C149 1.410 . S
C148 C156 1.503 . S
C149 C148 1.410 . S
C149 C150 1.392 . S
C149 C152 1.511 . S
C150 C146 1.376 . S
C150 C149 1.392 . S
C150 H162 0.929 . S
C151 C147 1.531 . S
C151 H163 0.960 . S
C151 H164 0.962 . S
C151 H165 0.960 . S
C152 C149 1.511 . S
C152 H166 0.961 . S
C152 H167 0.961 . S
C152 H168 0.961 . S
C153 C154 1.370 . S
C153 C155 1.363 . S
C153 H169 0.931 . S
C154 C153 1.370 . S
C154 C158 1.408 . S
C155 C153 1.363 . S
C155 C156 1.370 . S
C155 C159 1.524 . S
C156 C148 1.503 . S
C156 C155 1.370 . S
C156 C157 1.403 . S
C157 C156 1.403 . S
C157 C158 1.404 . S
C157 C160 1.539 . S
C158 C154 1.408 . S
C158 C157 1.404 . S
C158 H170 0.930 . S
C159 C155 1.524 . S
C159 H171 0.956 . S
C159 H172 0.961 . S
C159 H173 0.961 . S
C160 C157 1.539 . S
C160 H174 0.958 . S
C160 H175 0.961 . S
C160 H176 0.960 . S
H161 C145 0.931 . S
H162 C150 0.929 . S
H163 C151 0.960 . S
H164 C151 0.962 . S
H165 C151 0.960 . S
H166 C152 0.961 . S
H167 C152 0.961 . S
H168 C152 0.961 . S
H169 C153 0.931 . S
H170 C158 0.930 . S
H171 C159 0.956 . S
H172 C159 0.961 . S
H173 C159 0.961 . S
H174 C160 0.958 . S
H175 C160 0.961 . S
H176 C160 0.960 . S
C177 C178 1.391 1_455 S
C177 C179 1.394 . S
C177 H193 0.931 . S
C178 C177 1.391 1_655 S
C178 C182 1.376 . S
C179 C177 1.394 . S
C179 C180 1.369 1_455 S
C179 C183 1.531 . S
C180 C179 1.369 1_655 S
C180 C181 1.410 . S
C180 C188 1.503 . S
C181 C180 1.410 . S
C181 C182 1.392 . S
C181 C184 1.511 . S
C182 C178 1.376 . S
C182 C181 1.392 . S
C182 H194 0.929 . S
C183 C179 1.531 . S
C183 H195 0.960 . S
C183 H196 0.962 . S
C183 H197 0.960 . S
C184 C181 1.511 . S
C184 H198 0.961 . S
C184 H199 0.961 . S
C184 H200 0.961 . S
C185 C186 1.370 1_455 S
C185 C187 1.363 . S
C185 H201 0.931 . S
C186 C185 1.370 1_655 S
C186 C190 1.408 . S
C187 C185 1.363 . S
C187 C188 1.370 1_455 S
C187 C191 1.524 . S
C188 C180 1.503 . S
C188 C187 1.370 1_655 S
C188 C189 1.403 . S
C189 C188 1.403 . S
C189 C190 1.404 . S
C189 C192 1.539 . S
C190 C186 1.408 . S
C190 C189 1.404 . S
C190 H202 0.930 . S
C191 C187 1.524 . S
C191 H203 0.956 . S
C191 H204 0.961 . S
C191 H205 0.961 . S
C192 C189 1.539 . S
C192 H206 0.958 . S
C192 H207 0.961 . S
C192 H208 0.960 . S
H193 C177 0.931 . S
H194 C182 0.929 . S
H195 C183 0.960 . S
H196 C183 0.962 . S
H197 C183 0.960 . S
H198 C184 0.961 . S
H199 C184 0.961 . S
H200 C184 0.961 . S
H201 C185 0.931 . S
H202 C190 0.930 . S
H203 C191 0.956 . S
H204 C191 0.961 . S
H205 C191 0.961 . S
H206 C192 0.958 . S
H207 C192 0.961 . S
H208 C192 0.960 . S
C209 C210 1.391 . S
C209 C211 1.394 . S
C209 H225 0.931 . S
C210 C209 1.391 . S
C210 C214 1.376 1_565 S
C211 C209 1.394 . S
C211 C212 1.369 . S
C211 C215 1.531 . S
C212 C211 1.369 . S
C212 C213 1.410 1_565 S
C212 C220 1.503 . S
C213 C212 1.410 1_545 S
C213 C214 1.392 . S
C213 C216 1.511 . S
C214 C210 1.376 1_545 S
C214 C213 1.392 . S
C214 H226 0.929 . S
C215 C211 1.531 . S
C215 H227 0.960 . S
C215 H228 0.962 . S
C215 H229 0.960 . S
C216 C213 1.511 . S
C216 H230 0.961 . S
C216 H231 0.961 . S
C216 H232 0.961 . S
C217 C218 1.370 1_545 S
C217 C219 1.363 . S
C217 H233 0.931 . S
C218 C217 1.370 1_565 S
C218 C222 1.408 . S
C219 C217 1.363 . S
C219 C220 1.370 1_545 S
C219 C223 1.524 . S
C220 C212 1.503 . S
C220 C219 1.370 1_565 S
C220 C221 1.403 . S
C221 C220 1.403 . S
C221 C222 1.404 . S
C221 C224 1.539 . S
C222 C218 1.408 . S
C222 C221 1.404 . S
C222 H234 0.930 . S
C223 C219 1.524 . S
C223 H235 0.956 . S
C223 H236 0.961 . S
C223 H237 0.961 . S
C224 C221 1.539 . S
C224 H238 0.958 . S
C224 H239 0.961 . S
C224 H240 0.960 . S
H225 C209 0.931 . S
H226 C214 0.929 . S
H227 C215 0.960 . S
H228 C215 0.962 . S
H229 C215 0.960 . S
H230 C216 0.961 . S
H231 C216 0.961 . S
H232 C216 0.961 . S
H233 C217 0.931 . S
H234 C222 0.930 . S
H235 C223 0.956 . S
H236 C223 0.961 . S
H237 C223 0.961 . S
H238 C224 0.958 . S
H239 C224 0.961 . S
H240 C224 0.960 . S
C241 C242 1.391 . S
C241 C243 1.394 . S
C241 H257 0.931 . S
C242 C241 1.391 . S
C242 C246 1.376 . S
C243 C241 1.394 . S
C243 C244 1.369 . S
C243 C247 1.531 . S
C244 C243 1.369 . S
C244 C245 1.410 . S
C244 C252 1.503 . S
C245 C244 1.410 . S
C245 C246 1.392 . S
C245 C248 1.511 . S
C246 C242 1.376 . S
C246 C245 1.392 . S
C246 H258 0.929 . S
C247 C243 1.531 . S
C247 H259 0.960 . S
C247 H260 0.962 . S
C247 H261 0.960 . S
C248 C245 1.511 . S
C248 H262 0.961 . S
C248 H263 0.961 . S
C248 H264 0.961 . S
C249 C250 1.370 . S
C249 C251 1.363 . S
C249 H265 0.931 . S
C250 C249 1.370 . S
C250 C254 1.408 . S
C251 C249 1.363 . S
C251 C252 1.370 . S
C251 C255 1.524 . S
C252 C244 1.503 . S
C252 C251 1.370 . S
C252 C253 1.403 . S
C253 C252 1.403 . S
C253 C254 1.404 . S
C253 C256 1.539 . S
C254 C250 1.408 . S
C254 C253 1.404 . S
C254 H266 0.930 . S
C255 C251 1.524 . S
C255 H267 0.956 . S
C255 H268 0.961 . S
C255 H269 0.961 . S
C256 C253 1.539 . S
C256 H270 0.958 . S
C256 H271 0.961 . S
C256 H272 0.960 . S
H257 C241 0.931 . S
H258 C246 0.929 . S
H259 C247 0.960 . S
H260 C247 0.962 . S
H261 C247 0.960 . S
H262 C248 0.961 . S
H263 C248 0.961 . S
H264 C248 0.961 . S
H265 C249 0.931 . S
H266 C254 0.930 . S
H267 C255 0.956 . S
H268 C255 0.961 . S
H269 C255 0.961 . S
H270 C256 0.958 . S
H271 C256 0.961 . S
H272 C256 0.960 . S
C273 C274 1.391 1_545 S
C273 C275 1.394 . S
C273 H289 0.931 . S
C274 C273 1.391 1_565 S
C274 C278 1.376 . S
C275 C273 1.394 . S
C275 C276 1.369 1_545 S
C275 C279 1.531 . S
C276 C275 1.369 1_565 S
C276 C277 1.410 . S
C276 C284 1.503 . S
C277 C276 1.410 . S
C277 C278 1.392 . S
C277 C280 1.511 . S
C278 C274 1.376 . S
C278 C277 1.392 . S
C278 H290 0.929 . S
C279 C275 1.531 . S
C279 H291 0.960 . S
C279 H292 0.962 . S
C279 H293 0.960 . S
C280 C277 1.511 . S
C280 H294 0.961 . S
C280 H295 0.961 . S
C280 H296 0.961 . S
C281 C282 1.370 1_545 S
C281 C283 1.363 . S
C281 H297 0.931 . S
C282 C281 1.370 1_565 S
C282 C286 1.408 . S
C283 C281 1.363 . S
C283 C284 1.370 1_545 S
C283 C287 1.524 . S
C284 C276 1.503 . S
C284 C283 1.370 1_565 S
C284 C285 1.403 . S
C285 C284 1.403 . S
C285 C286 1.404 . S
C285 C288 1.539 . S
C286 C282 1.408 . S
C286 C285 1.404 . S
C286 H298 0.930 . S
C287 C283 1.524 . S
C287 H299 0.956 . S
C287 H300 0.961 . S
C287 H301 0.961 . S
C288 C285 1.539 . S
C288 H302 0.958 . S
C288 H303 0.961 . S
C288 H304 0.960 . S
H289 C273 0.931 . S
H290 C278 0.929 . S
H291 C279 0.960 . S
H292 C279 0.962 . S
H293 C279 0.960 . S
H294 C280 0.961 . S
H295 C280 0.961 . S
H296 C280 0.961 . S
H297 C281 0.931 . S
H298 C286 0.930 . S
H299 C287 0.956 . S
H300 C287 0.961 . S
H301 C287 0.961 . S
H302 C288 0.958 . S
H303 C288 0.961 . S
H304 C288 0.960 . S
C305 C306 1.391 . S
C305 C307 1.394 . S
C305 H321 0.931 . S
C306 C305 1.391 . S
C306 C310 1.376 . S
C307 C305 1.394 . S
C307 C308 1.369 . S
C307 C311 1.531 . S
C308 C307 1.369 . S
C308 C309 1.410 . S
C308 C316 1.503 1_554 S
C309 C308 1.410 . S
C309 C310 1.392 . S
C309 C312 1.511 1_554 S
C310 C306 1.376 . S
C310 C309 1.392 . S
C310 H322 0.929 . S
C311 C307 1.531 . S
C311 H323 0.960 . S
C311 H324 0.962 1_554 S
C311 H325 0.960 . S
C312 C309 1.511 1_556 S
C312 H326 0.961 . S
C312 H327 0.961 . S
C312 H328 0.961 1_556 S
C313 C314 1.370 . S
C313 C315 1.363 . S
C313 H329 0.931 . S
C314 C313 1.370 . S
C314 C318 1.408 . S
C315 C313 1.363 . S
C315 C316 1.370 . S
C315 C319 1.524 . S
C316 C308 1.503 1_556 S
C316 C315 1.370 . S
C316 C317 1.403 . S
C317 C316 1.403 . S
C317 C318 1.404 . S
C317 C320 1.539 1_556 S
C318 C314 1.408 . S
C318 C317 1.404 . S
C318 H330 0.930 . S
C319 C315 1.524 . S
C319 H331 0.956 . S
C319 H332 0.961 . S
C319 H333 0.961 . S
C320 C317 1.539 1_554 S
C320 H334 0.958 . S
C320 H335 0.961 . S
C320 H336 0.960 . S
H321 C305 0.931 . S
H322 C310 0.929 . S
H323 C311 0.960 . S
H324 C311 0.962 1_556 S
H325 C311 0.960 . S
H326 C312 0.961 . S
H327 C312 0.961 . S
H328 C312 0.961 1_554 S
H329 C313 0.931 . S
H330 C318 0.930 . S
H331 C319 0.956 . S
H332 C319 0.961 . S
H333 C319 0.961 . S
H334 C320 0.958 . S
H335 C320 0.961 . S
H336 C320 0.960 . S
C337 C338 1.391 . S
C337 C339 1.394 . S
C337 H353 0.931 . S
C338 C337 1.391 . S
C338 C342 1.376 1_455 S
C339 C337 1.394 . S
C339 C340 1.369 1_455 S
C339 C343 1.531 . S
C340 C339 1.369 1_655 S
C340 C341 1.410 . S
C340 C348 1.503 . S
C341 C340 1.410 . S
C341 C342 1.392 . S
C341 C344 1.511 . S
C342 C338 1.376 1_655 S
C342 C341 1.392 . S
C342 H354 0.929 . S
C343 C339 1.531 . S
C343 H355 0.960 . S
C343 H356 0.962 . S
C343 H357 0.960 . S
C344 C341 1.511 . S
C344 H358 0.961 . S
C344 H359 0.961 . S
C344 H360 0.961 . S
C345 C346 1.370 1_455 S
C345 C347 1.363 . S
C345 H361 0.931 . S
C346 C345 1.370 1_655 S
C346 C350 1.408 . S
C347 C345 1.363 . S
C347 C348 1.370 1_455 S
C347 C351 1.524 . S
C348 C340 1.503 . S
C348 C347 1.370 1_655 S
C348 C349 1.403 . S
C349 C348 1.403 . S
C349 C350 1.404 . S
C349 C352 1.539 . S
C350 C346 1.408 . S
C350 C349 1.404 . S
C350 H362 0.930 . S
C351 C347 1.524 . S
C351 H363 0.956 . S
C351 H364 0.961 . S
C351 H365 0.961 . S
C352 C349 1.539 . S
C352 H366 0.958 . S
C352 H367 0.961 . S
C352 H368 0.960 . S
H353 C337 0.931 . S
H354 C342 0.929 . S
H355 C343 0.960 . S
H356 C343 0.962 . S
H357 C343 0.960 . S
H358 C344 0.961 . S
H359 C344 0.961 . S
H360 C344 0.961 . S
H361 C345 0.931 . S
H362 C350 0.930 . S
H363 C351 0.956 . S
H364 C351 0.961 . S
H365 C351 0.961 . S
H366 C352 0.958 . S
H367 C352 0.961 . S
H368 C352 0.960 . S
C369 C370 1.391 . S
C369 C371 1.394 . S
C369 H385 0.931 . S
C370 C369 1.391 . S
C370 C374 1.376 1_545 S
C371 C369 1.394 . S
C371 C372 1.369 . S
C371 C375 1.531 . S
C372 C371 1.369 . S
C372 C373 1.410 1_545 S
C372 C380 1.503 . S
C373 C372 1.410 1_565 S
C373 C374 1.392 . S
C373 C376 1.511 . S
C374 C370 1.376 1_565 S
C374 C373 1.392 . S
C374 H386 0.929 . S
C375 C371 1.531 . S
C375 H387 0.960 . S
C375 H388 0.962 . S
C375 H389 0.960 . S
C376 C373 1.511 . S
C376 H390 0.961 . S
C376 H391 0.961 . S
C376 H392 0.961 . S
C377 C378 1.370 1_565 S
C377 C379 1.363 . S
C377 H393 0.931 . S
C378 C377 1.370 1_545 S
C378 C382 1.408 . S
C379 C377 1.363 . S
C379 C380 1.370 1_565 S
C379 C383 1.524 . S
C380 C372 1.503 . S
C380 C379 1.370 1_545 S
C380 C381 1.403 . S
C381 C380 1.403 . S
C381 C382 1.404 . S
C381 C384 1.539 . S
C382 C378 1.408 . S
C382 C381 1.404 . S
C382 H394 0.930 . S
C383 C379 1.524 . S
C383 H395 0.956 . S
C383 H396 0.961 . S
C383 H397 0.961 . S
C384 C381 1.539 . S
C384 H398 0.958 . S
C384 H399 0.961 . S
C384 H400 0.960 . S
H385 C369 0.931 . S
H386 C374 0.929 . S
H387 C375 0.960 . S
H388 C375 0.962 . S
H389 C375 0.960 . S
H390 C376 0.961 . S
H391 C376 0.961 . S
H392 C376 0.961 . S
H393 C377 0.931 . S
H394 C382 0.930 . S
H395 C383 0.956 . S
H396 C383 0.961 . S
H397 C383 0.961 . S
H398 C384 0.958 . S
H399 C384 0.961 . S
H400 C384 0.960 . S
C401 C402 1.391 . S
C401 C403 1.394 1_554 S
C401 H417 0.931 . S
C402 C401 1.391 . S
C402 C406 1.376 . S
C403 C401 1.394 1_556 S
C403 C404 1.369 . S
C403 C407 1.531 . S
C404 C403 1.369 . S
C404 C405 1.410 1_556 S
C404 C412 1.503 . S
C405 C404 1.410 1_554 S
C405 C406 1.392 . S
C405 C408 1.511 . S
C406 C402 1.376 . S
C406 C405 1.392 . S
C406 H418 0.929 . S
C407 C403 1.531 . S
C407 H419 0.960 . S
C407 H420 0.962 . S
C407 H421 0.960 . S
C408 C405 1.511 . S
C408 H422 0.961 . S
C408 H423 0.961 . S
C408 H424 0.961 . S
C409 C410 1.370 . S
C409 C411 1.363 . S
C409 H425 0.931 . S
C410 C409 1.370 . S
C410 C414 1.408 . S
C411 C409 1.363 . S
C411 C412 1.370 . S
C411 C415 1.524 1_556 S
C412 C404 1.503 . S
C412 C411 1.370 . S
C412 C413 1.403 . S
C413 C412 1.403 . S
C413 C414 1.404 . S
C413 C416 1.539 . S
C414 C410 1.408 . S
C414 C413 1.404 . S
C414 H426 0.930 . S
C415 C411 1.524 1_554 S
C415 H427 0.956 . S
C415 H428 0.961 . S
C415 H429 0.961 . S
C416 C413 1.539 . S
C416 H430 0.958 . S
C416 H431 0.961 . S
C416 H432 0.960 . S
H417 C401 0.931 . S
H418 C406 0.929 . S
H419 C407 0.960 . S
H420 C407 0.962 . S
H421 C407 0.960 . S
H422 C408 0.961 . S
H423 C408 0.961 . S
H424 C408 0.961 . S
H425 C409 0.931 . S
H426 C414 0.930 . S
H427 C415 0.956 . S
H428 C415 0.961 . S
H429 C415 0.961 . S
H430 C416 0.958 . S
H431 C416 0.961 . S
H432 C416 0.960 . S
C433 C434 1.400 . S
C433 C435 1.394 . S
C433 H449 0.931 . S
C434 C433 1.400 . S
C434 C438 1.370 1_655 S
C435 C433 1.394 . S
C435 C436 1.369 1_655 S
C435 C439 1.531 . S
C436 C435 1.369 1_455 S
C436 C437 1.410 . S
C436 C444 1.503 . S
C437 C436 1.410 . S
C437 C438 1.392 . S
C437 C440 1.511 . S
C438 C434 1.370 1_455 S
C438 C437 1.392 . S
C438 H450 0.929 . S
C439 C435 1.531 . S
C439 H451 0.960 . S
C439 H452 0.962 . S
C439 H453 0.960 . S
C440 C437 1.511 . S
C440 H454 0.961 . S
C440 H455 0.961 . S
C440 H456 0.961 . S
C441 C442 1.370 1_655 S
C441 C443 1.363 . S
C441 H457 0.931 . S
C442 C441 1.370 1_455 S
C442 C446 1.408 . S
C443 C441 1.363 . S
C443 C444 1.370 1_655 S
C443 C447 1.524 . S
C444 C436 1.503 . S
C444 C443 1.370 1_455 S
C444 C445 1.403 . S
C445 C444 1.403 . S
C445 C446 1.404 . S
C445 C448 1.539 . S
C446 C442 1.408 . S
C446 C445 1.404 . S
C446 H458 0.930 . S
C447 C443 1.524 . S
C447 H459 0.956 . S
C447 H460 0.961 . S
C447 H461 0.961 . S
C448 C445 1.539 . S
C448 H462 0.958 . S
C448 H463 0.961 . S
C448 H464 0.960 . S
H449 C433 0.931 . S
H450 C438 0.929 . S
H451 C439 0.960 . S
H452 C439 0.962 . S
H453 C439 0.960 . S
H454 C440 0.961 . S
H455 C440 0.961 . S
H456 C440 0.961 . S
H457 C441 0.931 . S
H458 C446 0.930 . S
H459 C447 0.956 . S
H460 C447 0.961 . S
H461 C447 0.961 . S
H462 C448 0.958 . S
H463 C448 0.961 . S
H464 C448 0.960 . S
C90 C47 1.427 1_455 S
C82 C6 1.430 1_455 S
C114 C22 1.558 1_565 S
C122 C65 1.556 . S
C146 C34 1.319 . S
C154 C78 1.320 . S
C178 C7 1.430 1_655 S
C186 C45 1.419 . S
C218 C56 1.553 . S
C210 C23 1.521 . S
C242 C35 1.275 . S
C250 C69 1.313 . S
C282 C58 1.481 . S
C274 C36 1.474 . S
C306 C9 1.667 . S
C314 C71 1.697 . S
C346 C52 1.488 . S
C338 C21 1.457 1_455 S
C378 C60 1.492 1_545 S
C370 C37 1.467 . S
C410 C73 1.695 . S
C402 C8 1.662 . S
C434 C20 1.451 1_655 S
C442 C43 1.492 1_455 S
