# Generated by pormake.
# Topology dag, (6,3)-cn, num edge types: 1
# Building blocks:
#     Node 0, Type 0, BuildingBlock: IZENUY_clean_sbu_0, # of connection points: 6
#     Node 1, Type 0, BuildingBlock: IZENUY_clean_sbu_0, # of connection points: 6
#     Node 2, Type 0, BuildingBlock: IZENUY_clean_sbu_0, # of connection points: 6
#     Node 3, Type 0, BuildingBlock: IZENUY_clean_sbu_0, # of connection points: 6
#     Node 4, Type 1, BuildingBlock: WUSLED_clean_sbu_0, # of connection points: 3
#     Node 5, Type 1, BuildingBlock: WUSLED_clean_sbu_0, # of connection points: 3
#     Node 6, Type 1, BuildingBlock: WUSLED_clean_sbu_0, # of connection points: 3
#     Node 7, Type 1, BuildingBlock: WUSLED_clean_sbu_0, # of connection points: 3
#     Node 8, Type 1, BuildingBlock: WUSLED_clean_sbu_0, # of connection points: 3
#     Node 9, Type 1, BuildingBlock: WUSLED_clean_sbu_0, # of connection points: 3
#     Node 10, Type 1, BuildingBlock: WUSLED_clean_sbu_0, # of connection points: 3
#     Node 11, Type 1, BuildingBlock: WUSLED_clean_sbu_0, # of connection points: 3
#     Edge 12, Type (0, 1), BuildingBlock: XIVTED_clean_linker_0, # of connection points: 2
#     Edge 13, Type (0, 1), BuildingBlock: XIVTED_clean_linker_0, # of connection points: 2
#     Edge 14, Type (0, 1), BuildingBlock: XIVTED_clean_linker_0, # of connection points: 2
#     Edge 15, Type (0, 1), BuildingBlock: XIVTED_clean_linker_0, # of connection points: 2
#     Edge 16, Type (0, 1), BuildingBlock: XIVTED_clean_linker_0, # of connection points: 2
#     Edge 17, Type (0, 1), BuildingBlock: XIVTED_clean_linker_0, # of connection points: 2
#     Edge 18, Type (0, 1), BuildingBlock: XIVTED_clean_linker_0, # of connection points: 2
#     Edge 19, Type (0, 1), BuildingBlock: XIVTED_clean_linker_0, # of connection points: 2
#     Edge 20, Type (0, 1), BuildingBlock: XIVTED_clean_linker_0, # of connection points: 2
#     Edge 21, Type (0, 1), BuildingBlock: XIVTED_clean_linker_0, # of connection points: 2
#     Edge 22, Type (0, 1), BuildingBlock: XIVTED_clean_linker_0, # of connection points: 2
#     Edge 23, Type (0, 1), BuildingBlock: XIVTED_clean_linker_0, # of connection points: 2
#     Edge 24, Type (0, 1), BuildingBlock: XIVTED_clean_linker_0, # of connection points: 2
#     Edge 25, Type (0, 1), BuildingBlock: XIVTED_clean_linker_0, # of connection points: 2
#     Edge 26, Type (0, 1), BuildingBlock: XIVTED_clean_linker_0, # of connection points: 2
#     Edge 27, Type (0, 1), BuildingBlock: XIVTED_clean_linker_0, # of connection points: 2
#     Edge 28, Type (0, 1), BuildingBlock: XIVTED_clean_linker_0, # of connection points: 2
#     Edge 29, Type (0, 1), BuildingBlock: XIVTED_clean_linker_0, # of connection points: 2
#     Edge 30, Type (0, 1), BuildingBlock: XIVTED_clean_linker_0, # of connection points: 2
#     Edge 31, Type (0, 1), BuildingBlock: XIVTED_clean_linker_0, # of connection points: 2
#     Edge 32, Type (0, 1), BuildingBlock: XIVTED_clean_linker_0, # of connection points: 2
#     Edge 33, Type (0, 1), BuildingBlock: XIVTED_clean_linker_0, # of connection points: 2
#     Edge 34, Type (0, 1), BuildingBlock: XIVTED_clean_linker_0, # of connection points: 2
#     Edge 35, Type (0, 1), BuildingBlock: XIVTED_clean_linker_0, # of connection points: 2
# Relax obj value: 0.246
# Max RMSD: 0.191
# Mean RMSD: 0.158
data_MOF--net-dag--node1-IZENUY_clean_sbu_0--node2-WUSLED_clean_sbu_0--edge1-XIVTED_clean_linker_0
_symmetry_space_group_name_H-M    P1
_symmetry_Int_Tables_number       1
_symmetry_cell_setting            triclinic
loop_
_symmetry_equiv_pos_as_xyz
'x, y, z'
_cell_length_a     50.061776
_cell_length_b     52.23372
_cell_length_c     44.167237
_cell_angle_alpha  94.92081
_cell_angle_beta   90.329233
_cell_angle_gamma 90.15381
loop_
_atom_site_label
_atom_site_type_symbol
_atom_site_fract_x
_atom_site_fract_y
_atom_site_fract_z
_atom_type_partial_charge
Fe0 Fe 0.18491 0.84968 0.07839 0.0
Fe1 Fe 0.13163 0.86134 0.04811 0.0
O2 O 0.15518 0.83884 0.05931 0.0
Fe3 Fe 0.14855 0.80556 0.05137 0.0
O4 O 0.16577 0.79571 0.0853 0.0
O5 O 0.17718 0.83207 0.11084 0.0
O6 O 0.16901 0.87771 0.09921 0.0
C7 C 0.14458 0.88246 0.10493 0.0
C8 C 0.20173 0.80764 0.03765 0.0
O9 O 0.12636 0.87364 0.08708 0.0
C10 C 0.13126 0.82745 0.99803 0.0
O11 O 0.19504 0.86832 0.04741 0.0
O12 O 0.15602 0.88644 0.04214 0.0
O13 O 0.17842 0.80132 0.02885 0.0
O14 O 0.20567 0.82342 0.06077 0.0
C15 C 0.09894 0.82212 0.06798 0.0
O16 O 0.13592 0.85019 0.00863 0.0
O17 O 0.13025 0.80938 0.01549 0.0
C18 C 0.18068 0.88506 0.03647 0.0
O19 O 0.10242 0.84059 0.05172 0.0
O20 O 0.11809 0.80769 0.07377 0.0
C21 C 0.1724 0.80832 0.10996 0.0
Fe22 Fe 0.69136 0.6457 0.49279 0.0
Fe23 Fe 0.6523 0.68734 0.51891 0.0
O24 O 0.6608 0.65458 0.51086 0.0
Fe25 Fe 0.63851 0.63061 0.52107 0.0
O26 O 0.66436 0.60705 0.52786 0.0
O27 O 0.70215 0.62785 0.52429 0.0
O28 O 0.71028 0.67328 0.51093 0.0
C29 C 0.70529 0.688 0.53458 0.0
C30 C 0.65351 0.61069 0.46465 0.0
O31 O 0.68159 0.69283 0.54263 0.0
C32 C 0.60374 0.66821 0.5007 0.0
O33 O 0.6829 0.66286 0.46008 0.0
O34 O 0.66945 0.69839 0.48566 0.0
O35 O 0.63456 0.61833 0.4818 0.0
O36 O 0.67754 0.61662 0.47152 0.0
C37 C 0.63531 0.66418 0.57137 0.0
O38 O 0.62214 0.68379 0.4956 0.0
O39 O 0.60827 0.64954 0.5164 0.0
C40 C 0.67701 0.68637 0.46108 0.0
O41 O 0.63381 0.68226 0.55398 0.0
O42 O 0.64137 0.64176 0.56087 0.0
C43 C 0.68873 0.61021 0.53478 0.0
Fe44 Fe 0.85724 0.18997 0.01564 0.0
Fe45 Fe 0.87002 0.13275 0.01574 0.0
O46 O 0.8472 0.15739 0.00884 0.0
Fe47 Fe 0.8146 0.14929 0.99527 0.0
O48 O 0.81933 0.16644 0.96178 0.0
O49 O 0.83689 0.20154 0.98481 0.0
O50 O 0.8845 0.18574 0.9886 0.0
C51 C 0.9028 0.16939 0.99048 0.0
C52 C 0.80638 0.19213 0.0384 0.0
O53 O 0.89987 0.15097 0.00697 0.0
C54 C 0.82101 0.11248 0.03489 0.0
O55 O 0.87919 0.18429 0.04799 0.0
O56 O 0.87202 0.14382 0.05575 0.0
O57 O 0.79839 0.17706 0.01612 0.0
O58 O 0.83092 0.19641 0.04301 0.0
C59 C 0.8482 0.1134 0.96181 0.0
O60 O 0.84469 0.10956 0.02552 0.0
O61 O 0.80731 0.13131 0.02787 0.0
C62 C 0.8792 0.16624 0.06547 0.0
O63 O 0.86917 0.12049 0.97622 0.0
O64 O 0.82531 0.12018 0.97182 0.0
C65 C 0.82614 0.18967 0.96164 0.0
Fe66 Fe 0.36614 0.37092 0.55829 0.0
Fe67 Fe 0.31157 0.35309 0.57967 0.0
O68 O 0.34389 0.34574 0.56522 0.0
Fe69 Fe 0.35421 0.31346 0.55762 0.0
O70 O 0.38249 0.31787 0.58378 0.0
O71 O 0.39661 0.35299 0.56519 0.0
O72 O 0.36641 0.38236 0.5982 0.0
C73 C 0.34569 0.389 0.61304 0.0
C74 C 0.37408 0.33838 0.50761 0.0
O75 O 0.32264 0.38213 0.60319 0.0
C76 C 0.30259 0.31045 0.53635 0.0
O77 O 0.34012 0.39391 0.55 0.0
O78 O 0.30315 0.37129 0.54754 0.0
O79 O 0.37464 0.31996 0.5246 0.0
O80 O 0.36701 0.36063 0.518 0.0
C81 C 0.32488 0.31254 0.6124 0.0
O82 O 0.29506 0.32525 0.55892 0.0
O83 O 0.32704 0.30673 0.53106 0.0
C84 C 0.3163 0.39061 0.54087 0.0
O85 O 0.31743 0.3356 0.61278 0.0
O86 O 0.33533 0.30124 0.58889 0.0
C87 C 0.4007 0.3341 0.5806 0.0
C88 C 0.02264 0.18388 0.30469 0.0
C89 C 0.01159 0.16119 0.29052 0.0
C90 C 0.98159 0.18596 0.2609 0.0
C91 C 0.9913 0.1622 0.26892 0.0
C92 C 0.9921 0.20871 0.27595 0.0
C93 C 0.01254 0.20766 0.29764 0.0
U94 U 0.07911 0.14333 0.32579 0.0
O95 O 0.12234 0.14999 0.32977 0.0
O96 O 0.10005 0.13733 0.36857 0.0
C97 C 0.12313 0.14495 0.35841 0.0
C98 C 0.04667 0.18231 0.32371 0.0
C99 C 0.13835 0.16331 0.37881 0.0
C100 C 0.14706 0.20659 0.40148 0.0
C101 C 0.13093 0.18922 0.38358 0.0
C102 C 0.17765 0.17208 0.41031 0.0
C103 C 0.17085 0.19824 0.41458 0.0
C104 C 0.16155 0.15481 0.39258 0.0
C105 C 0.07849 0.07593 0.28222 0.0
C106 C 0.11277 0.04917 0.25693 0.0
C107 C 0.07089 0.03016 0.27079 0.0
C108 C 0.06223 0.05415 0.28335 0.0
C109 C 0.09592 0.02754 0.25653 0.0
C110 C 0.10417 0.07312 0.26971 0.0
C111 C 0.06718 0.10149 0.29119 0.0
O112 O 0.04517 0.166 0.34477 0.0
O113 O 0.06894 0.1802 0.30811 0.0
O114 O 0.05883 0.10565 0.31935 0.0
O115 O 0.07976 0.12125 0.28134 0.0
H116 H 0.01943 0.14263 0.29526 0.0
H117 H 0.98418 0.1443 0.25745 0.0
H118 H 0.98492 0.22732 0.27053 0.0
H119 H 0.02103 0.22537 0.30815 0.0
H120 H 0.14138 0.22665 0.40425 0.0
H121 H 0.11304 0.19607 0.373 0.0
H122 H 0.19559 0.16497 0.42053 0.0
H123 H 0.16749 0.13483 0.38918 0.0
H124 H 0.13206 0.04796 0.24595 0.0
H125 H 0.05762 0.01381 0.27147 0.0
H126 H 0.04238 0.05585 0.29296 0.0
H127 H 0.11722 0.08958 0.26861 0.0
C128 C 0.37095 0.58028 0.81205 0.0
C129 C 0.39078 0.5713 0.79155 0.0
C130 C 0.36406 0.53333 0.77626 0.0
C131 C 0.38737 0.54811 0.77381 0.0
C132 C 0.3444 0.54224 0.79728 0.0
C133 C 0.34783 0.56557 0.81503 0.0
U134 U 0.41326 0.63891 0.82853 0.0
O135 O 0.40403 0.6801 0.83156 0.0
O136 O 0.422 0.66325 0.87072 0.0
C137 C 0.41042 0.68343 0.86056 0.0
C138 C 0.37421 0.60547 0.82916 0.0
C139 C 0.38981 0.69572 0.88044 0.0
C140 C 0.34317 0.70208 0.89377 0.0
C141 C 0.36266 0.6903 0.87495 0.0
C142 C 0.37768 0.72449 0.92435 0.0
C143 C 0.35038 0.71928 0.9188 0.0
C144 C 0.3972 0.71283 0.90528 0.0
C145 C 0.47917 0.63665 0.78265 0.0
C146 C 0.50538 0.6719 0.76574 0.0
C147 C 0.52084 0.62805 0.75608 0.0
C148 C 0.49856 0.61932 0.77102 0.0
C149 C 0.52419 0.65438 0.75249 0.0
C150 C 0.48299 0.66309 0.7807 0.0
C151 C 0.454 0.62625 0.79336 0.0
O152 O 0.39374 0.60692 0.84926 0.0
O153 O 0.37384 0.62496 0.81224 0.0
O154 O 0.43208 0.63682 0.78375 0.0
O155 O 0.45305 0.62128 0.82201 0.0
H156 H 0.40871 0.58252 0.78885 0.0
H157 H 0.40271 0.54216 0.75752 0.0
H158 H 0.32634 0.53122 0.79997 0.0
H159 H 0.33233 0.57227 0.83077 0.0
H160 H 0.32239 0.69792 0.8884 0.0
H161 H 0.35649 0.67702 0.85598 0.0
H162 H 0.38401 0.73731 0.94362 0.0
H163 H 0.41808 0.7171 0.90999 0.0
H164 H 0.50753 0.69232 0.76373 0.0
H165 H 0.53457 0.61391 0.74582 0.0
H166 H 0.49583 0.59884 0.77218 0.0
H167 H 0.4682 0.67677 0.78965 0.0
C168 C 0.76121 0.92067 0.18119 0.0
C169 C 0.78373 0.92448 0.1634 0.0
C170 C 0.76468 0.96382 0.14704 0.0
C171 C 0.78548 0.94577 0.14659 0.0
C172 C 0.74225 0.96031 0.16538 0.0
C173 C 0.74048 0.93876 0.18229 0.0
U174 U 0.79523 0.86045 0.19639 0.0
O175 O 0.80327 0.8405 0.23728 0.0
O176 O 0.78208 0.82038 0.19845 0.0
C177 C 0.791 0.81937 0.22637 0.0
C178 C 0.75991 0.89741 0.19773 0.0
C179 C 0.77334 0.80716 0.24738 0.0
C180 C 0.73785 0.80865 0.28482 0.0
C181 C 0.75318 0.82078 0.26369 0.0
C182 C 0.76246 0.76922 0.27293 0.0
C183 C 0.74247 0.78274 0.28985 0.0
C184 C 0.77766 0.78131 0.25193 0.0
C185 C 0.86193 0.85247 0.15287 0.0
C186 C 0.89962 0.82506 0.16281 0.0
C187 C 0.89788 0.84669 0.11644 0.0
C188 C 0.87339 0.85749 0.12518 0.0
C189 C 0.91147 0.83055 0.13524 0.0
C190 C 0.87496 0.83591 0.17154 0.0
C191 C 0.83715 0.86587 0.16209 0.0
O192 O 0.7574 0.87592 0.18011 0.0
O193 O 0.77845 0.8961 0.21875 0.0
O194 O 0.83582 0.87525 0.19061 0.0
O195 O 0.81482 0.85502 0.15178 0.0
H196 H 0.8 0.91082 0.16236 0.0
H197 H 0.80329 0.94813 0.13329 0.0
H198 H 0.72592 0.9739 0.16616 0.0
H199 H 0.72294 0.93611 0.19592 0.0
H200 H 0.72247 0.81956 0.29724 0.0
H201 H 0.74955 0.84079 0.26037 0.0
H202 H 0.76698 0.74944 0.27655 0.0
H203 H 0.79325 0.77055 0.23962 0.0
H204 H 0.90948 0.81257 0.17768 0.0
H205 H 0.90659 0.85178 0.09537 0.0
H206 H 0.86366 0.87033 0.11057 0.0
H207 H 0.86631 0.83174 0.19301 0.0
C208 C 0.75419 0.42157 0.68204 0.0
C209 C 0.75421 0.42155 0.65015 0.0
C210 C 0.75241 0.46829 0.65413 0.0
C211 C 0.75343 0.44468 0.63637 0.0
C212 C 0.75387 0.46835 0.68594 0.0
C213 C 0.7549 0.44523 0.69973 0.0
U214 U 0.71087 0.3647 0.69551 0.0
O215 O 0.71912 0.32359 0.69837 0.0
O216 O 0.70046 0.34627 0.73675 0.0
C217 C 0.71036 0.32395 0.7264 0.0
C218 C 0.75069 0.39743 0.69701 0.0
C219 C 0.72709 0.31095 0.74776 0.0
C220 C 0.76418 0.31029 0.78344 0.0
C221 C 0.74951 0.3229 0.76207 0.0
C222 C 0.73435 0.27366 0.77588 0.0
C223 C 0.75666 0.28554 0.79071 0.0
C224 C 0.71977 0.28624 0.75463 0.0
C225 C 0.64311 0.36269 0.65411 0.0
C226 C 0.60491 0.33648 0.66579 0.0
C227 C 0.60453 0.35974 0.62061 0.0
C228 C 0.63003 0.36928 0.62784 0.0
C229 C 0.59155 0.34334 0.63956 0.0
C230 C 0.63057 0.34601 0.67296 0.0
C231 C 0.66936 0.37418 0.66175 0.0
O232 O 0.73204 0.39821 0.71792 0.0
O233 O 0.75028 0.37595 0.6791 0.0
O234 O 0.69016 0.36103 0.65121 0.0
O235 O 0.67246 0.38398 0.68996 0.0
H236 H 0.75366 0.4037 0.63575 0.0
H237 H 0.75212 0.44398 0.61183 0.0
H238 H 0.75343 0.48628 0.70021 0.0
H239 H 0.75507 0.44584 0.72431 0.0
H240 H 0.78139 0.31989 0.79424 0.0
H241 H 0.75545 0.34201 0.75695 0.0
H242 H 0.72765 0.25486 0.78126 0.0
H243 H 0.70243 0.2768 0.74389 0.0
H244 H 0.59553 0.32377 0.68071 0.0
H245 H 0.59467 0.36582 0.60055 0.0
H246 H 0.63938 0.3822 0.61311 0.0
H247 H 0.64048 0.34065 0.69334 0.0
C248 C 0.52175 0.30782 0.27407 0.0
C249 C 0.5018 0.32663 0.27305 0.0
C250 C 0.47917 0.31 0.31595 0.0
C251 C 0.48067 0.32759 0.29362 0.0
C252 C 0.4983 0.29026 0.31574 0.0
C253 C 0.51932 0.28917 0.29494 0.0
U254 U 0.57955 0.3488 0.25547 0.0
O255 O 0.62287 0.34208 0.25503 0.0
O256 O 0.60264 0.35376 0.21415 0.0
C257 C 0.62495 0.34575 0.22605 0.0
C258 C 0.5469 0.30978 0.25701 0.0
C259 C 0.6408 0.32649 0.20736 0.0
C260 C 0.65011 0.30181 0.15926 0.0
C261 C 0.63346 0.31825 0.1773 0.0
C262 C 0.68137 0.3011 0.20119 0.0
C263 C 0.67447 0.29336 0.17087 0.0
C264 C 0.66482 0.31757 0.21913 0.0
C265 C 0.57693 0.417 0.29594 0.0
C266 C 0.61435 0.44676 0.30146 0.0
C267 C 0.57145 0.45878 0.32345 0.0
C268 C 0.56084 0.43514 0.31216 0.0
C269 C 0.59845 0.46477 0.31867 0.0
C270 C 0.60365 0.42301 0.29017 0.0
C271 C 0.5659 0.39135 0.28746 0.0
O272 O 0.54663 0.32513 0.23486 0.0
O273 O 0.56834 0.31266 0.27428 0.0
O274 O 0.5785 0.37238 0.29897 0.0
O275 O 0.55908 0.38623 0.25879 0.0
H276 H 0.5031 0.34137 0.2573 0.0
H277 H 0.466 0.3427 0.29268 0.0
H278 H 0.49796 0.27651 0.33272 0.0
H279 H 0.53454 0.27459 0.29632 0.0
H280 H 0.64431 0.29645 0.13592 0.0
H281 H 0.61518 0.32491 0.16741 0.0
H282 H 0.69976 0.29463 0.21105 0.0
H283 H 0.6711 0.32371 0.24214 0.0
H284 H 0.63513 0.45086 0.29712 0.0
H285 H 0.55872 0.4719 0.33704 0.0
H286 H 0.54022 0.43068 0.31698 0.0
H287 H 0.61635 0.40912 0.27764 0.0
C288 C 0.14139 0.19272 0.89057 0.0
C289 C 0.13506 0.17962 0.91601 0.0
C290 C 0.08843 0.1921 0.91192 0.0
C291 C 0.10888 0.17944 0.92668 0.0
C292 C 0.09504 0.2059 0.88699 0.0
C293 C 0.12134 0.20614 0.87635 0.0
U294 U 0.20603 0.15634 0.88257 0.0
O295 O 0.2297 0.14403 0.84221 0.0
O296 O 0.24782 0.16898 0.87931 0.0
C297 C 0.25028 0.1584 0.85136 0.0
C298 C 0.16823 0.19037 0.87733 0.0
C299 C 0.25996 0.17556 0.82914 0.0
C300 C 0.25256 0.21108 0.79806 0.0
C301 C 0.24375 0.19547 0.82018 0.0
C302 C 0.29405 0.18726 0.79396 0.0
C303 C 0.27775 0.20704 0.78449 0.0
C304 C 0.2852 0.17165 0.81609 0.0
C305 C 0.20941 0.09575 0.92784 0.0
C306 C 0.2246 0.05184 0.91609 0.0
C307 C 0.2154 0.0674 0.9682 0.0
C308 C 0.20889 0.09148 0.95874 0.0
C309 C 0.22237 0.04703 0.94684 0.0
C310 C 0.21823 0.07599 0.90666 0.0
C311 C 0.19729 0.11947 0.91812 0.0
O312 O 0.18824 0.19395 0.89669 0.0
O313 O 0.17136 0.17012 0.85792 0.0
O314 O 0.18897 0.1187 0.88977 0.0
O315 O 0.20867 0.14141 0.9278 0.0
H316 H 0.15024 0.16899 0.92718 0.0
H317 H 0.10459 0.169 0.94626 0.0
H318 H 0.07974 0.21567 0.87497 0.0
H319 H 0.12587 0.21614 0.85649 0.0
H320 H 0.23935 0.22588 0.79104 0.0
H321 H 0.22413 0.19867 0.83 0.0
H322 H 0.31369 0.18385 0.78429 0.0
H323 H 0.29796 0.15638 0.82283 0.0
H324 H 0.23023 0.03661 0.89915 0.0
H325 H 0.21322 0.0643 0.992 0.0
H326 H 0.20204 0.10639 0.97545 0.0
H327 H 0.21899 0.07879 0.88266 0.0
C328 C 0.25461 0.58507 0.40173 0.0
C329 C 0.27589 0.58209 0.42186 0.0
C330 C 0.25723 0.5416 0.4354 0.0
C331 C 0.2772 0.56065 0.43848 0.0
C332 C 0.23598 0.54445 0.41493 0.0
C333 C 0.23464 0.56613 0.39824 0.0
U334 U 0.29136 0.64294 0.38189 0.0
O335 O 0.29815 0.66079 0.33936 0.0
O336 O 0.27991 0.68324 0.37825 0.0
C337 C 0.28724 0.68268 0.34967 0.0
C338 C 0.25416 0.60784 0.38434 0.0
C339 C 0.26873 0.69432 0.32896 0.0
C340 C 0.2327 0.6914 0.29171 0.0
C341 C 0.24858 0.68 0.31304 0.0
C342 C 0.25657 0.73157 0.30278 0.0
C343 C 0.23676 0.71727 0.28609 0.0
C344 C 0.27235 0.72019 0.32399 0.0
C345 C 0.36119 0.65051 0.41983 0.0
C346 C 0.40849 0.65481 0.40862 0.0
C347 C 0.39064 0.67512 0.45548 0.0
C348 C 0.3652 0.66582 0.44722 0.0
C349 C 0.41273 0.66908 0.4367 0.0
C350 C 0.38303 0.64556 0.40031 0.0
C351 C 0.33518 0.63745 0.41355 0.0
O352 O 0.25377 0.62988 0.40114 0.0
O353 O 0.27179 0.60743 0.36236 0.0
O354 O 0.33138 0.62642 0.38597 0.0
O355 O 0.31381 0.64922 0.42488 0.0
H356 H 0.29165 0.59637 0.42462 0.0
H357 H 0.29418 0.55882 0.45345 0.0
H358 H 0.2203 0.5301 0.41209 0.0
H359 H 0.21813 0.56809 0.38266 0.0
H360 H 0.21744 0.67993 0.27947 0.0
H361 H 0.24546 0.65997 0.31671 0.0
H362 H 0.26061 0.75136 0.29872 0.0
H363 H 0.2879 0.73148 0.33601 0.0
H364 H 0.42509 0.64952 0.39378 0.0
H365 H 0.39316 0.68633 0.4771 0.0
H366 H 0.34885 0.66985 0.46286 0.0
H367 H 0.38075 0.63361 0.37917 0.0
C368 C 0.8673 0.92629 0.75595 0.0
C369 C 0.8882 0.94436 0.75895 0.0
C370 C 0.86114 0.97282 0.79285 0.0
C371 C 0.88507 0.96744 0.77701 0.0
C372 C 0.83988 0.95513 0.78878 0.0
C373 C 0.84295 0.93213 0.77045 0.0
U374 U 0.91046 0.86738 0.74503 0.0
O375 O 0.90054 0.82635 0.74489 0.0
O376 O 0.92022 0.84074 0.70538 0.0
C377 C 0.9081 0.82127 0.71656 0.0
C378 C 0.87157 0.90034 0.74082 0.0
C379 C 0.88864 0.80662 0.69652 0.0
C380 C 0.86382 0.79965 0.64895 0.0
C381 C 0.88276 0.81353 0.66712 0.0
C382 C 0.85655 0.7716 0.68905 0.0
C383 C 0.85031 0.77874 0.65989 0.0
C384 C 0.87562 0.7853 0.70708 0.0
C385 C 0.9752 0.86933 0.79204 0.0
C386 C 0.99975 0.83193 0.80579 0.0
C387 C 0.01692 0.87474 0.81995 0.0
C388 C 0.99509 0.88529 0.80574 0.0
C389 C 0.01922 0.84795 0.82076 0.0
C390 C 0.9779 0.84255 0.79148 0.0
C391 C 0.95085 0.88107 0.78091 0.0
O392 O 0.89128 0.89784 0.72118 0.0
O393 O 0.87085 0.88186 0.75918 0.0
O394 O 0.92837 0.87171 0.79057 0.0
O395 O 0.95031 0.88508 0.75194 0.0
H396 H 0.90729 0.94033 0.74818 0.0
H397 H 0.90168 0.98081 0.7791 0.0
H398 H 0.82128 0.95844 0.80084 0.0
H399 H 0.82664 0.91838 0.76865 0.0
H400 H 0.85927 0.80567 0.62663 0.0
H401 H 0.89252 0.82979 0.65821 0.0
H402 H 0.8467 0.75534 0.6979 0.0
H403 H 0.88002 0.77936 0.72949 0.0
H404 H 0.00108 0.81123 0.80576 0.0
H405 H 0.03126 0.8877 0.83164 0.0
H406 H 0.99324 0.906 0.80647 0.0
H407 H 0.96269 0.82992 0.78087 0.0
H408 H 0.09449 0.89641 0.12426 0.0
H409 H 0.14543 0.00457 0.25088 0.0
H410 H 0.17795 0.91055 0.14491 0.0
H411 H 0.0634 0.99495 0.22114 0.0
H412 H 0.15751 0.96692 0.21691 0.0
H413 H 0.08263 0.92897 0.16464 0.0
C414 C 0.11037 0.90629 0.13734 0.0
C415 C 0.1373 0.90093 0.13086 0.0
C416 C 0.13684 0.97295 0.21809 0.0
C417 C 0.12376 0.93839 0.17731 0.0
C418 C 0.12993 0.99449 0.23739 0.0
C419 C 0.10335 0.00309 0.23884 0.0
C420 C 0.11704 0.9599 0.2001 0.0
C421 C 0.08407 0.98895 0.22118 0.0
C422 C 0.10355 0.92491 0.16046 0.0
C423 C 0.15693 0.91419 0.14892 0.0
N424 N 0.09134 0.96821 0.20247 0.0
N425 N 0.14978 0.93245 0.17119 0.0
H426 H 0.64378 0.63394 0.61795 0.0
H427 H 0.5211 0.69103 0.71164 0.0
H428 H 0.60304 0.70276 0.59603 0.0
H429 H 0.57574 0.63659 0.74627 0.0
H430 H 0.55304 0.69859 0.6719 0.0
H431 H 0.62141 0.63684 0.66708 0.0
C432 C 0.63036 0.64985 0.62364 0.0
C433 C 0.62498 0.66794 0.60271 0.0
C434 C 0.55825 0.68531 0.6885 0.0
C435 C 0.59906 0.67123 0.6588 0.0
C436 C 0.54007 0.6811 0.71141 0.0
C437 C 0.54549 0.66279 0.73213 0.0
C438 C 0.58189 0.67089 0.68602 0.0
C439 C 0.57035 0.65035 0.73032 0.0
C440 C 0.61765 0.65155 0.65175 0.0
C441 C 0.60765 0.68831 0.61142 0.0
N442 N 0.58741 0.65429 0.70736 0.0
N443 N 0.59494 0.68916 0.6386 0.0
H444 H 0.77902 0.11471 0.07543 0.0
H445 H 0.78188 0.96302 0.08855 0.0
H446 H 0.83474 0.06219 0.02919 0.0
H447 H 0.75252 0.01492 0.16208 0.0
H448 H 0.79185 0.99963 0.05988 0.0
H449 H 0.76066 0.07864 0.10159 0.0
C450 C 0.78723 0.09564 0.07065 0.0
C451 C 0.80857 0.09145 0.05032 0.0
C452 C 0.78308 0.00305 0.08222 0.0
C453 C 0.7875 0.05041 0.07948 0.0
C454 C 0.77742 0.98216 0.09865 0.0
C455 C 0.76693 0.98593 0.12808 0.0
C456 C 0.77813 0.02806 0.09511 0.0
C457 C 0.76077 0.01116 0.13954 0.0
C458 C 0.77683 0.07517 0.08559 0.0
C459 C 0.81852 0.0664 0.04493 0.0
N460 N 0.76672 0.03138 0.12314 0.0
N461 N 0.80786 0.04691 0.0593 0.0
H462 H 0.44398 0.33623 0.54504 0.0
H463 H 0.54923 0.33967 0.67854 0.0
H464 H 0.42034 0.32011 0.63517 0.0
H465 H 0.57051 0.32706 0.58389 0.0
H466 H 0.50235 0.33121 0.66454 0.0
H467 H 0.49065 0.33221 0.55962 0.0
C468 C 0.44873 0.33161 0.56792 0.0
C469 C 0.42845 0.32864 0.58904 0.0
C470 C 0.51738 0.32992 0.64695 0.0
C471 C 0.48191 0.32441 0.60615 0.0
C472 C 0.54415 0.33466 0.6549 0.0
C473 C 0.56379 0.33455 0.63227 0.0
C474 C 0.51026 0.32527 0.61616 0.0
C475 C 0.55599 0.32806 0.60201 0.0
C476 C 0.47537 0.3292 0.57622 0.0
C477 C 0.43555 0.32248 0.61829 0.0
N478 N 0.52985 0.32404 0.59484 0.0
N479 N 0.46184 0.321 0.62623 0.0
H480 H 0.6061 0.60363 0.43453 0.0
H481 H 0.64769 0.47189 0.34601 0.0
H482 H 0.68717 0.57574 0.43472 0.0
H483 H 0.57571 0.51267 0.32586 0.0
H484 H 0.66356 0.51003 0.37686 0.0
H485 H 0.59511 0.57072 0.39381 0.0
C486 C 0.62164 0.59063 0.42586 0.0
C487 C 0.64751 0.59223 0.43824 0.0
C488 C 0.64446 0.51073 0.36534 0.0
C489 C 0.63501 0.55434 0.39169 0.0
C490 C 0.63543 0.48899 0.34754 0.0
C491 C 0.61011 0.48889 0.33362 0.0
C492 C 0.62795 0.53242 0.3695 0.0
C493 C 0.59503 0.51159 0.33678 0.0
C494 C 0.61538 0.57192 0.40249 0.0
C495 C 0.66694 0.57511 0.42588 0.0
N496 N 0.60402 0.53228 0.35469 0.0
N497 N 0.6602 0.5566 0.40354 0.0
H498 H 0.94262 0.13425 0.9829 0.0
H499 H 0.04906 0.22912 0.91671 0.0
H500 H 0.92302 0.21209 0.96542 0.0
H501 H 0.06329 0.14914 0.92872 0.0
H502 H 0.00282 0.22391 0.93344 0.0
H503 H 0.98681 0.13996 0.9622 0.0
C504 C 0.9476 0.15261 0.97466 0.0
C505 C 0.9291 0.1728 0.97616 0.0
C506 C 0.01611 0.20754 0.93235 0.0
C507 C 0.98007 0.17953 0.95228 0.0
C508 C 0.04246 0.21047 0.92273 0.0
C509 C 0.06021 0.18961 0.92163 0.0
C510 C 0.00748 0.18357 0.94084 0.0
C511 C 0.05059 0.16593 0.92985 0.0
C512 C 0.97292 0.15585 0.96275 0.0
C513 C 0.93669 0.19603 0.96476 0.0
N514 N 0.02499 0.16361 0.93914 0.0
N515 N 0.96171 0.19884 0.95346 0.0
H516 H 0.27499 0.38823 0.49902 0.0
H517 H 0.27152 0.54092 0.49503 0.0
H518 H 0.3274 0.44137 0.55078 0.0
H519 H 0.2477 0.49053 0.41693 0.0
H520 H 0.28174 0.5035 0.52229 0.0
H521 H 0.25548 0.42472 0.47454 0.0
C522 C 0.28219 0.40753 0.50538 0.0
C523 C 0.30298 0.41182 0.52669 0.0
C524 C 0.27408 0.5006 0.49926 0.0
C525 C 0.2806 0.45327 0.49951 0.0
C526 C 0.2683 0.52195 0.48364 0.0
C527 C 0.25934 0.51888 0.45338 0.0
C528 C 0.27076 0.47585 0.4847 0.0
C529 C 0.25472 0.49378 0.44017 0.0
C530 C 0.27115 0.42823 0.49141 0.0
C531 C 0.31165 0.43714 0.53418 0.0
N532 N 0.26077 0.47313 0.45582 0.0
N533 N 0.30039 0.45684 0.5207 0.0
H534 H 0.14364 0.85546 0.9509 0.0
H535 H 0.01486 0.80902 0.85839 0.0
H536 H 0.09607 0.79089 0.97353 0.0
H537 H 0.07176 0.86287 0.8269 0.0
H538 H 0.04728 0.79755 0.89638 0.0
H539 H 0.12103 0.85426 0.90176 0.0
C540 C 0.12871 0.84073 0.94526 0.0
C541 C 0.12144 0.82347 0.96642 0.0
C542 C 0.05287 0.81153 0.88081 0.0
C543 C 0.09507 0.82225 0.91041 0.0
C544 C 0.0344 0.818 0.85894 0.0
C545 C 0.0404 0.8373 0.83974 0.0
C546 C 0.07741 0.82463 0.8837 0.0
C547 C 0.066 0.84839 0.84175 0.0
C548 C 0.11581 0.84002 0.91717 0.0
C549 C 0.10218 0.80462 0.95788 0.0
N550 N 0.08338 0.8422 0.86366 0.0
N551 N 0.08925 0.80483 0.93072 0.0
H552 H 0.89359 0.09131 0.93731 0.0
H553 H 0.81761 0.00415 0.80568 0.0
H554 H 0.80802 0.09281 0.92448 0.0
H555 H 0.89993 0.99367 0.83158 0.0
H556 H 0.81434 0.03985 0.84518 0.0
H557 H 0.89688 0.059 0.89434 0.0
C558 C 0.87546 0.08492 0.92542 0.0
C559 C 0.85044 0.09467 0.93477 0.0
C560 C 0.83313 0.02978 0.84204 0.0
C561 C 0.85414 0.05756 0.88533 0.0
C562 C 0.83501 0.00933 0.81956 0.0
C563 C 0.85909 0.99577 0.81519 0.0
C564 C 0.85551 0.03681 0.86023 0.0
C565 C 0.88106 0.00371 0.83363 0.0
C566 C 0.87737 0.06641 0.90086 0.0
C567 C 0.82771 0.08571 0.91825 0.0
N568 N 0.87871 0.02361 0.85532 0.0
N569 N 0.83009 0.0676 0.89438 0.0
H570 H 0.38596 0.37468 0.46817 0.0
H571 H 0.4516 0.27309 0.34427 0.0
H572 H 0.38807 0.29292 0.47642 0.0
H573 H 0.46186 0.35529 0.34528 0.0
H574 H 0.4228 0.2798 0.38877 0.0
H575 H 0.40804 0.36761 0.41893 0.0
C576 C 0.39086 0.35523 0.45956 0.0
C577 C 0.38541 0.3344 0.47666 0.0
C578 C 0.4312 0.29636 0.37905 0.0
C579 C 0.41068 0.32619 0.42028 0.0
C580 C 0.44773 0.29254 0.3537 0.0
C581 C 0.45935 0.31362 0.34097 0.0
C582 C 0.42618 0.32144 0.39182 0.0
C583 C 0.45315 0.33841 0.35394 0.0
C584 C 0.40353 0.35122 0.43146 0.0
C585 C 0.39214 0.30961 0.46422 0.0
N586 N 0.43715 0.34161 0.37869 0.0
N587 N 0.40453 0.30621 0.43688 0.0
H588 H 0.15986 0.90338 0.98624 0.0
H589 H 0.24635 0.02969 0.99758 0.0
H590 H 0.2276 0.91204 0.04698 0.0
H591 H 0.20051 0.00374 0.91769 0.0
H592 H 0.24124 0.98697 0.01613 0.0
H593 H 0.17546 0.94009 0.96054 0.0
C594 C 0.17826 0.91291 0.99388 0.0
C595 C 0.19245 0.90484 0.01875 0.0
C596 C 0.23279 0.99054 0.99426 0.0
C597 C 0.21018 0.94723 0.98991 0.0
C598 C 0.23559 0.01491 0.98374 0.0
C599 C 0.22369 0.02037 0.95612 0.0
C600 C 0.21759 0.97169 0.9773 0.0
C601 C 0.21017 1.00043 0.93899 0.0
C602 C 0.18721 0.93381 0.97918 0.0
C603 C 0.2162 0.91771 0.02777 0.0
N604 N 0.20714 0.97716 0.95007 0.0
N605 N 0.22411 0.93866 0.01368 0.0
H606 H 0.5848 0.69464 0.45352 0.0
H607 H 0.43262 0.66534 0.49378 0.0
H608 H 0.55904 0.65307 0.52856 0.0
H609 H 0.45598 0.68555 0.40492 0.0
H610 H 0.4788 0.66994 0.51063 0.0
H611 H 0.53761 0.69955 0.43878 0.0
C612 C 0.56925 0.68679 0.467 0.0
C613 C 0.5758 0.67321 0.49209 0.0
C614 C 0.47385 0.6736 0.4875 0.0
C615 C 0.52223 0.67897 0.47571 0.0
C616 C 0.44736 0.67124 0.47792 0.0
C617 C 0.44034 0.67497 0.44782 0.0
C618 C 0.49366 0.67968 0.4669 0.0
C619 C 0.46057 0.68214 0.42821 0.0
C620 C 0.54243 0.68952 0.45856 0.0
C621 C 0.55496 0.66339 0.5088 0.0
N622 N 0.4864 0.68411 0.43803 0.0
N623 N 0.52921 0.66646 0.50032 0.0
H624 H 0.3913 0.4053 0.64357 0.0
H625 H 0.31781 0.5155 0.74789 0.0
H626 H 0.30572 0.41542 0.6442 0.0
H627 H 0.40112 0.49658 0.75794 0.0
H628 H 0.31261 0.47817 0.71107 0.0
H629 H 0.39513 0.43816 0.68617 0.0
C630 C 0.37329 0.41435 0.65273 0.0
C631 C 0.34816 0.40771 0.64008 0.0
C632 C 0.33199 0.48208 0.72151 0.0
C633 C 0.35243 0.44546 0.68888 0.0
C634 C 0.33494 0.50333 0.74272 0.0
C635 C 0.36001 0.50939 0.75593 0.0
C636 C 0.35428 0.46682 0.71325 0.0
C637 C 0.38154 0.49302 0.74791 0.0
C638 C 0.37549 0.43308 0.67713 0.0
C639 C 0.32552 0.41997 0.65311 0.0
N640 N 0.37823 0.47265 0.72695 0.0
N641 N 0.32821 0.43839 0.67661 0.0
H642 H 0.05397 0.82531 0.03432 0.0
H643 H 0.95568 0.82672 0.17193 0.0
H644 H 0.08168 0.80577 0.12201 0.0
H645 H 0.92925 0.81285 0.07873 0.0
H646 H 0.00164 0.81795 0.15545 0.0
H647 H 0.00797 0.82045 0.05077 0.0
C648 C 0.05028 0.81973 0.05701 0.0
C649 C 0.07151 0.81605 0.07694 0.0
C650 C 0.98568 0.8164 0.13874 0.0
C651 C 0.01891 0.8109 0.09617 0.0
C652 C 0.95941 0.8213 0.14811 0.0
C653 C 0.93859 0.82102 0.1266 0.0
C654 C 0.99114 0.81149 0.10764 0.0
C655 C 0.94472 0.81404 0.09602 0.0
C656 C 0.02404 0.81685 0.06635 0.0
C657 C 0.06574 0.8087 0.10601 0.0
N658 N 0.97045 0.80998 0.08742 0.0
N659 N 0.03987 0.80681 0.11502 0.0
H660 H 0.74076 0.59289 0.53447 0.0
H661 H 0.71633 0.50551 0.67182 0.0
H662 H 0.66516 0.58619 0.57954 0.0
H663 H 0.77538 0.48563 0.60306 0.0
H664 H 0.70358 0.54258 0.64494 0.0
H665 H 0.75942 0.56027 0.56579 0.0
C666 C 0.72823 0.58475 0.55111 0.0
C667 C 0.70134 0.592 0.55428 0.0
C668 C 0.71951 0.53025 0.63588 0.0
C669 C 0.72251 0.55532 0.59022 0.0
C670 C 0.72697 0.50921 0.65135 0.0
C671 C 0.74692 0.4924 0.63964 0.0
C672 C 0.73219 0.53474 0.60857 0.0
C673 C 0.75973 0.49799 0.61271 0.0
C674 C 0.73881 0.56613 0.56882 0.0
C675 C 0.68589 0.58089 0.57612 0.0
N676 N 0.75211 0.51869 0.59801 0.0
N677 N 0.69671 0.5632 0.59328 0.0
H678 H 0.87882 0.13402 0.11136 0.0
H679 H 0.98033 0.21957 0.21635 0.0
H680 H 0.90603 0.20891 0.09017 0.0
H681 H 0.93903 0.1537 0.24637 0.0
H682 H 0.9523 0.21686 0.17081 0.0
H683 H 0.90024 0.14115 0.16125 0.0
C684 C 0.88922 0.152 0.11721 0.0
C685 C 0.89082 0.17079 0.09639 0.0
C686 C 0.94918 0.20316 0.18752 0.0
C687 C 0.91545 0.17906 0.1535 0.0
C688 C 0.96506 0.20481 0.21371 0.0
C689 C 0.96228 0.18668 0.23521 0.0
C690 C 0.9305 0.1831 0.18258 0.0
C691 C 0.94234 0.16776 0.23015 0.0
C692 C 0.90136 0.1561 0.14577 0.0
C693 C 0.90437 0.19381 0.10539 0.0
N694 N 0.92745 0.16629 0.20424 0.0
N695 N 0.91636 0.19719 0.13313 0.0
H696 H 0.18191 0.82904 0.16814 0.0
H697 H 0.22249 0.69535 0.22953 0.0
H698 H 0.17431 0.75629 0.11444 0.0
H699 H 0.21699 0.76633 0.28688 0.0
H700 H 0.20263 0.71673 0.18784 0.0
H701 H 0.19313 0.80612 0.21238 0.0
C702 C 0.18248 0.80824 0.16566 0.0
C703 C 0.1774 0.7946 0.13742 0.0
C704 C 0.20552 0.72756 0.20963 0.0
C705 C 0.19034 0.76819 0.18805 0.0
C706 C 0.21671 0.71531 0.23355 0.0
C707 C 0.22171 0.72911 0.26173 0.0
C708 C 0.19944 0.75387 0.21381 0.0
C709 C 0.21406 0.75505 0.26539 0.0
C710 C 0.18881 0.79514 0.19098 0.0
C711 C 0.17819 0.76762 0.1357 0.0
N712 N 0.20357 0.76663 0.24165 0.0
N713 N 0.1848 0.75533 0.16058 0.0
H714 H 0.75812 0.69179 0.51874 0.0
H715 H 0.80101 0.76439 0.67839 0.0
H716 H 0.70276 0.71361 0.59097 0.0
H717 H 0.85152 0.76166 0.59937 0.0
H718 H 0.76613 0.74178 0.64778 0.0
H719 H 0.794 0.71361 0.54903 0.0
C720 C 0.75351 0.70113 0.54094 0.0
C721 C 0.72737 0.70095 0.55229 0.0
C722 C 0.78483 0.74612 0.63709 0.0
C723 C 0.76827 0.72572 0.58701 0.0
C724 C 0.8048 0.75887 0.65461 0.0
C725 C 0.82919 0.76485 0.64139 0.0
C726 C 0.78931 0.73908 0.60614 0.0
C727 C 0.8329 0.75757 0.61036 0.0
C728 C 0.77396 0.71362 0.55814 0.0
C729 C 0.72255 0.71338 0.58119 0.0
N730 N 0.81319 0.74495 0.59377 0.0
N731 N 0.7428 0.72516 0.59756 0.0
H732 H 0.81652 0.22813 0.08575 0.0
H733 H 0.66291 0.25352 0.12769 0.0
H734 H 0.75147 0.18886 0.03654 0.0
H735 H 0.72894 0.29733 0.16883 0.0
H736 H 0.69458 0.22838 0.09526 0.0
H737 H 0.7843 0.25208 0.11788 0.0
C738 C 0.79544 0.2245 0.08166 0.0
C739 C 0.78674 0.20647 0.05825 0.0
C740 C 0.70209 0.24347 0.11145 0.0
C741 C 0.74955 0.23398 0.09522 0.0
C742 C 0.68402 0.25791 0.12988 0.0
C743 C 0.69324 0.27752 0.15118 0.0
C744 C 0.72957 0.24868 0.11433 0.0
C745 C 0.72087 0.28212 0.1532 0.0
C746 C 0.777 0.23825 0.10006 0.0
C747 C 0.7591 0.20262 0.05422 0.0
N748 N 0.73799 0.26784 0.13506 0.0
N749 N 0.74148 0.21627 0.07252 0.0
H750 H 0.30152 0.32957 0.66654 0.0
H751 H 0.30433 0.19129 0.73206 0.0
H752 H 0.33576 0.2619 0.61893 0.0
H753 H 0.27118 0.25893 0.78078 0.0
H754 H 0.31741 0.2173 0.69125 0.0
H755 H 0.29143 0.30444 0.70926 0.0
C756 C 0.30698 0.30946 0.66505 0.0
C757 C 0.31939 0.29783 0.63895 0.0
C758 C 0.30735 0.22649 0.7109 0.0
C759 C 0.30787 0.26892 0.68789 0.0
C760 C 0.30002 0.21166 0.73435 0.0
C761 C 0.2866 0.2229 0.75995 0.0
C762 C 0.30122 0.25281 0.71295 0.0
C763 C 0.28116 0.24935 0.76131 0.0
C764 C 0.30121 0.29511 0.68949 0.0
C765 C 0.32608 0.27169 0.63847 0.0
N766 N 0.28843 0.26338 0.73814 0.0
N767 N 0.32016 0.25814 0.66249 0.0
H768 H 0.68851 0.66695 0.40298 0.0
H769 H 0.72735 0.80311 0.34664 0.0
H770 H 0.67748 0.73861 0.45777 0.0
H771 H 0.72391 0.73304 0.2873 0.0
H772 H 0.70741 0.78032 0.38703 0.0
H773 H 0.70032 0.69104 0.35995 0.0
C774 C 0.68843 0.68775 0.40595 0.0
C775 C 0.6822 0.70074 0.43416 0.0
C776 C 0.7108 0.77 0.36508 0.0
C777 C 0.69587 0.7285 0.38492 0.0
C778 C 0.72205 0.78305 0.3419 0.0
C779 C 0.72763 0.76995 0.31354 0.0
C780 C 0.70523 0.74359 0.35997 0.0
C781 C 0.72056 0.74383 0.30897 0.0
C782 C 0.69512 0.70151 0.38132 0.0
C783 C 0.68223 0.72775 0.43652 0.0
N784 N 0.70999 0.73149 0.33199 0.0
N785 N 0.68922 0.74071 0.41232 0.0
H786 H 0.80833 0.16978 0.90576 0.0
H787 H 0.77701 0.30641 0.84538 0.0
H788 H 0.82808 0.24172 0.95657 0.0
H789 H 0.76933 0.23441 0.79021 0.0
H790 H 0.79708 0.28347 0.88579 0.0
H791 H 0.79476 0.19336 0.86291 0.0
C792 C 0.80989 0.19054 0.90791 0.0
C793 C 0.81919 0.20377 0.93495 0.0
C794 C 0.79118 0.27273 0.86475 0.0
C795 C 0.80357 0.23098 0.88583 0.0
C796 C 0.77986 0.28584 0.84156 0.0
C797 C 0.7712 0.27232 0.81439 0.0
C798 C 0.79377 0.24587 0.86083 0.0
C799 C 0.77516 0.2456 0.81097 0.0
C800 C 0.8022 0.20401 0.88336 0.0
C801 C 0.82097 0.2307 0.93623 0.0
N802 N 0.78594 0.23328 0.83396 0.0
N803 N 0.81303 0.24342 0.91212 0.0
H804 H 0.31196 0.27685 0.48672 0.0
H805 H 0.15853 0.23779 0.45749 0.0
H806 H 0.24777 0.3101 0.54181 0.0
H807 H 0.22508 0.20076 0.41024 0.0
H808 H 0.18999 0.26684 0.48627 0.0
H809 H 0.2795 0.25121 0.45621 0.0
C810 C 0.29101 0.27882 0.49243 0.0
C811 C 0.28265 0.29557 0.51709 0.0
C812 C 0.19765 0.25235 0.46957 0.0
C813 C 0.24516 0.26607 0.48198 0.0
C814 C 0.17971 0.23587 0.45306 0.0
C815 C 0.18922 0.21666 0.43165 0.0
C816 C 0.22522 0.24969 0.46441 0.0
C817 C 0.21688 0.21495 0.42691 0.0
C818 C 0.27243 0.26411 0.47493 0.0
C819 C 0.25515 0.29736 0.52312 0.0
N820 N 0.23384 0.23119 0.44315 0.0
N821 N 0.23737 0.28271 0.50574 0.0
H822 H 0.25448 0.82243 0.03948 0.0
H823 H 0.30336 0.69831 0.93686 0.0
H824 H 0.20121 0.76342 0.99994 0.0
H825 H 0.34946 0.76859 0.94666 0.0
H826 H 0.26792 0.71966 0.9669 0.0
H827 H 0.29181 0.80064 0.01228 0.0
C828 C 0.25066 0.80487 0.02521 0.0
C829 C 0.22468 0.79477 0.02191 0.0
C830 C 0.28582 0.73039 0.96249 0.0
C831 C 0.26718 0.76975 0.9911 0.0
C832 C 0.30605 0.71826 0.94518 0.0
C833 C 0.3294 0.73171 0.93877 0.0
C834 C 0.28895 0.75613 0.97389 0.0
C835 C 0.33196 0.75735 0.95112 0.0
C836 C 0.27192 0.79253 0.00965 0.0
C837 C 0.22084 0.77201 0.00304 0.0
N838 N 0.31196 0.76875 0.96804 0.0
N839 N 0.24185 0.76024 0.98847 0.0
loop_
_geom_bond_atom_site_label_1
_geom_bond_atom_site_label_2
_geom_bond_distance
_geom_bond_site_symmetry_2
_ccdc_geom_bond_type
Fe0 O2 1.918 . S
Fe0 O5 1.997 . S
Fe0 O6 2.002 . S
Fe0 O11 1.976 . S
Fe0 O14 1.996 . S
Fe1 O2 1.918 . S
Fe1 O9 1.997 . S
Fe1 O12 1.996 . S
Fe1 O16 1.976 . S
Fe1 O19 2.002 . S
O2 Fe0 1.918 . S
O2 Fe1 1.918 . S
O2 Fe3 1.918 . S
Fe3 O2 1.918 . S
Fe3 O4 2.002 . S
Fe3 O13 1.976 . S
Fe3 O17 1.996 . S
Fe3 O20 1.997 . S
O4 Fe3 2.002 . S
O4 C21 1.295 . S
O5 Fe0 1.997 . S
O5 C21 1.235 . S
O6 Fe0 2.002 . S
O6 C7 1.295 . S
C7 O6 1.295 . S
C7 O9 1.235 . S
C8 O13 1.287 . S
C8 O14 1.255 . S
O9 Fe1 1.997 . S
O9 C7 1.235 . S
C10 O16 1.293 . S
C10 O17 1.262 . S
O11 Fe0 1.976 . S
O11 C18 1.287 . S
O12 Fe1 1.996 . S
O12 C18 1.255 . S
O13 Fe3 1.976 . S
O13 C8 1.287 . S
O14 Fe0 1.996 . S
O14 C8 1.255 . S
C15 O19 1.295 . S
C15 O20 1.235 . S
O16 Fe1 1.976 . S
O16 C10 1.293 . S
O17 Fe3 1.996 . S
O17 C10 1.262 . S
C18 O11 1.287 . S
C18 O12 1.255 . S
O19 Fe1 2.002 . S
O19 C15 1.295 . S
O20 Fe3 1.997 . S
O20 C15 1.235 . S
C21 O4 1.295 . S
C21 O5 1.235 . S
Fe22 O24 1.918 . S
Fe22 O27 1.997 . S
Fe22 O28 2.002 . S
Fe22 O33 1.976 . S
Fe22 O36 1.996 . S
Fe23 O24 1.918 . S
Fe23 O31 1.997 . S
Fe23 O34 1.996 . S
Fe23 O38 1.976 . S
Fe23 O41 2.002 . S
O24 Fe22 1.918 . S
O24 Fe23 1.918 . S
O24 Fe25 1.918 . S
Fe25 O24 1.918 . S
Fe25 O26 2.002 . S
Fe25 O35 1.976 . S
Fe25 O39 1.996 . S
Fe25 O42 1.997 . S
O26 Fe25 2.002 . S
O26 C43 1.295 . S
O27 Fe22 1.997 . S
O27 C43 1.235 . S
O28 Fe22 2.002 . S
O28 C29 1.295 . S
C29 O28 1.295 . S
C29 O31 1.235 . S
C30 O35 1.287 . S
C30 O36 1.255 . S
O31 Fe23 1.997 . S
O31 C29 1.235 . S
C32 O38 1.287 . S
C32 O39 1.255 . S
O33 Fe22 1.976 . S
O33 C40 1.287 . S
O34 Fe23 1.996 . S
O34 C40 1.255 . S
O35 Fe25 1.976 . S
O35 C30 1.287 . S
O36 Fe22 1.996 . S
O36 C30 1.255 . S
C37 O41 1.295 . S
C37 O42 1.235 . S
O38 Fe23 1.976 . S
O38 C32 1.287 . S
O39 Fe25 1.996 . S
O39 C32 1.255 . S
C40 O33 1.287 . S
C40 O34 1.255 . S
O41 Fe23 2.002 . S
O41 C37 1.295 . S
O42 Fe25 1.997 . S
O42 C37 1.235 . S
C43 O26 1.295 . S
C43 O27 1.235 . S
Fe44 O46 1.918 . S
Fe44 O49 1.997 1_554 S
Fe44 O50 2.002 . S
Fe44 O55 1.976 . S
Fe44 O58 1.996 . S
Fe45 O46 1.918 . S
Fe45 O53 1.997 . S
Fe45 O56 1.996 . S
Fe45 O60 1.976 . S
Fe45 O63 2.002 1_554 S
O46 Fe44 1.918 . S
O46 Fe45 1.918 . S
O46 Fe47 1.918 1_554 S
Fe47 O46 1.918 1_556 S
Fe47 O48 2.002 . S
Fe47 O57 1.976 1_556 S
Fe47 O61 1.996 1_556 S
Fe47 O64 1.997 . S
O48 Fe47 2.002 . S
O48 C65 1.295 . S
O49 Fe44 1.997 1_556 S
O49 C65 1.235 . S
O50 Fe44 2.002 . S
O50 C51 1.295 1_554 S
C51 O50 1.295 1_556 S
C51 O53 1.235 1_556 S
C52 O57 1.287 . S
C52 O58 1.255 . S
O53 Fe45 1.997 . S
O53 C51 1.235 1_554 S
C54 O60 1.287 . S
C54 O61 1.255 . S
O55 Fe44 1.976 . S
O55 C62 1.287 . S
O56 Fe45 1.996 . S
O56 C62 1.255 . S
O57 Fe47 1.976 1_554 S
O57 C52 1.287 . S
O58 Fe44 1.996 . S
O58 C52 1.255 . S
C59 O63 1.295 . S
C59 O64 1.235 . S
O60 Fe45 1.976 . S
O60 C54 1.287 . S
O61 Fe47 1.996 1_554 S
O61 C54 1.255 . S
C62 O55 1.287 . S
C62 O56 1.255 . S
O63 Fe45 2.002 1_556 S
O63 C59 1.295 . S
O64 Fe47 1.997 . S
O64 C59 1.235 . S
C65 O48 1.295 . S
C65 O49 1.235 . S
Fe66 O68 1.918 . S
Fe66 O71 1.997 . S
Fe66 O72 2.002 . S
Fe66 O77 1.976 . S
Fe66 O80 1.996 . S
Fe67 O68 1.918 . S
Fe67 O75 1.997 . S
Fe67 O78 1.996 . S
Fe67 O82 1.976 . S
Fe67 O85 2.002 . S
O68 Fe66 1.918 . S
O68 Fe67 1.918 . S
O68 Fe69 1.918 . S
Fe69 O68 1.918 . S
Fe69 O70 2.002 . S
Fe69 O79 1.976 . S
Fe69 O83 1.996 . S
Fe69 O86 1.997 . S
O70 Fe69 2.002 . S
O70 C87 1.295 . S
O71 Fe66 1.997 . S
O71 C87 1.235 . S
O72 Fe66 2.002 . S
O72 C73 1.295 . S
C73 O72 1.295 . S
C73 O75 1.235 . S
C74 O79 1.287 . S
C74 O80 1.255 . S
O75 Fe67 1.997 . S
O75 C73 1.235 . S
C76 O82 1.287 . S
C76 O83 1.255 . S
O77 Fe66 1.976 . S
O77 C84 1.287 . S
O78 Fe67 1.996 . S
O78 C84 1.255 . S
O79 Fe69 1.976 . S
O79 C74 1.287 . S
O80 Fe66 1.996 . S
O80 C74 1.255 . S
C81 O85 1.295 . S
C81 O86 1.235 . S
O82 Fe67 1.976 . S
O82 C76 1.287 . S
O83 Fe69 1.996 . S
O83 C76 1.255 . S
C84 O77 1.287 . S
C84 O78 1.255 . S
O85 Fe67 2.002 . S
O85 C81 1.295 . S
O86 Fe69 1.997 . S
O86 C81 1.235 . S
C87 O70 1.295 . S
C87 O71 1.235 . S
C88 C89 1.264 1_455 S
C88 C93 1.479 1_455 S
C88 C98 1.465 . S
C89 C88 1.264 1_655 S
C89 C91 1.339 . S
C89 H116 0.931 1_655 S
C90 C91 1.395 . S
C90 C92 1.320 . S
C91 C89 1.339 . S
C91 C90 1.395 . S
C91 H117 0.929 . S
C92 C90 1.320 . S
C92 C93 1.405 . S
C92 H118 0.930 . S
C93 C88 1.479 1_655 S
C93 C92 1.405 . S
C93 H119 0.931 1_655 S
U94 O95 2.454 . S
U94 O96 2.458 . S
U94 C97 2.984 . S
U94 C98 2.847 . S
U94 C111 2.882 . S
U94 O112 2.441 . S
U94 O113 2.420 . S
U94 O114 2.455 . S
U94 O115 2.449 . S
O95 U94 2.454 . S
O95 C97 1.353 . S
O96 U94 2.458 . S
O96 C97 1.286 . S
C97 U94 2.984 . S
C97 O95 1.353 . S
C97 O96 1.286 . S
C97 C99 1.363 . S
C98 C88 1.465 . S
C98 U94 2.847 . S
C98 O112 1.249 . S
C98 O113 1.202 . S
C99 C97 1.363 . S
C99 C101 1.408 . S
C99 C104 1.342 . S
C100 C101 1.310 . S
C100 C103 1.461 . S
C100 H120 0.932 . S
C101 C99 1.408 . S
C101 C100 1.310 . S
C101 H121 0.930 . S
C102 C103 1.474 . S
C102 C104 1.285 . S
C102 H122 0.929 . S
C103 C100 1.461 . S
C103 C102 1.474 . S
C104 C99 1.342 . S
C104 C102 1.285 . S
C104 H123 0.930 . S
C105 C108 1.424 . S
C105 C110 1.245 . S
C105 C111 1.428 . S
C106 C109 1.260 . S
C106 C110 1.477 . S
C106 H124 0.932 . S
C107 C108 1.384 . S
C107 C109 1.479 . S
C107 H125 0.929 . S
C108 C105 1.424 . S
C108 C107 1.384 . S
C108 H126 0.928 . S
C109 C106 1.260 . S
C109 C107 1.479 . S
C110 C105 1.245 . S
C110 C106 1.477 . S
C110 H127 0.932 . S
C111 U94 2.882 . S
C111 C105 1.428 . S
C111 O114 1.301 . S
C111 O115 1.282 . S
O112 U94 2.441 . S
O112 C98 1.249 . S
O113 U94 2.420 . S
O113 C98 1.202 . S
O114 U94 2.455 . S
O114 C111 1.301 . S
O115 U94 2.449 . S
O115 C111 1.282 . S
H116 C89 0.931 1_455 S
H117 C91 0.929 . S
H118 C92 0.930 . S
H119 C93 0.931 1_455 S
H120 C100 0.932 . S
H121 C101 0.930 . S
H122 C102 0.929 . S
H123 C104 0.930 . S
H124 C106 0.932 . S
H125 C107 0.929 . S
H126 C108 0.928 . S
H127 C110 0.932 . S
C128 C129 1.264 . S
C128 C133 1.479 . S
C128 C138 1.465 . S
C129 C128 1.264 . S
C129 C131 1.339 . S
C129 H156 0.931 . S
C130 C131 1.395 . S
C130 C132 1.320 . S
C131 C129 1.339 . S
C131 C130 1.395 . S
C131 H157 0.929 . S
C132 C130 1.320 . S
C132 C133 1.405 . S
C132 H158 0.930 . S
C133 C128 1.479 . S
C133 C132 1.405 . S
C133 H159 0.931 . S
U134 O135 2.454 . S
U134 O136 2.458 . S
U134 C137 2.984 . S
U134 C138 2.847 . S
U134 C151 2.882 . S
U134 O152 2.441 . S
U134 O153 2.420 . S
U134 O154 2.455 . S
U134 O155 2.449 . S
O135 U134 2.454 . S
O135 C137 1.353 . S
O136 U134 2.458 . S
O136 C137 1.286 . S
C137 U134 2.984 . S
C137 O135 1.353 . S
C137 O136 1.286 . S
C137 C139 1.363 . S
C138 C128 1.465 . S
C138 U134 2.847 . S
C138 O152 1.249 . S
C138 O153 1.202 . S
C139 C137 1.363 . S
C139 C141 1.408 . S
C139 C144 1.342 . S
C140 C141 1.310 . S
C140 C143 1.461 . S
C140 H160 0.932 . S
C141 C139 1.408 . S
C141 C140 1.310 . S
C141 H161 0.930 . S
C142 C143 1.474 . S
C142 C144 1.285 . S
C142 H162 0.929 . S
C143 C140 1.461 . S
C143 C142 1.474 . S
C144 C139 1.342 . S
C144 C142 1.285 . S
C144 H163 0.930 . S
C145 C148 1.424 . S
C145 C150 1.245 . S
C145 C151 1.428 . S
C146 C149 1.260 . S
C146 C150 1.477 . S
C146 H164 0.932 . S
C147 C148 1.384 . S
C147 C149 1.479 . S
C147 H165 0.929 . S
C148 C145 1.424 . S
C148 C147 1.384 . S
C148 H166 0.928 . S
C149 C146 1.260 . S
C149 C147 1.479 . S
C150 C145 1.245 . S
C150 C146 1.477 . S
C150 H167 0.932 . S
C151 U134 2.882 . S
C151 C145 1.428 . S
C151 O154 1.301 . S
C151 O155 1.282 . S
O152 U134 2.441 . S
O152 C138 1.249 . S
O153 U134 2.420 . S
O153 C138 1.202 . S
O154 U134 2.455 . S
O154 C151 1.301 . S
O155 U134 2.449 . S
O155 C151 1.282 . S
H156 C129 0.931 . S
H157 C131 0.929 . S
H158 C132 0.930 . S
H159 C133 0.931 . S
H160 C140 0.932 . S
H161 C141 0.930 . S
H162 C142 0.929 . S
H163 C144 0.930 . S
H164 C146 0.932 . S
H165 C147 0.929 . S
H166 C148 0.928 . S
H167 C150 0.932 . S
C168 C169 1.264 . S
C168 C173 1.479 . S
C168 C178 1.465 . S
C169 C168 1.264 . S
C169 C171 1.339 . S
C169 H196 0.931 . S
C170 C171 1.395 . S
C170 C172 1.320 . S
C171 C169 1.339 . S
C171 C170 1.395 . S
C171 H197 0.929 . S
C172 C170 1.320 . S
C172 C173 1.405 . S
C172 H198 0.930 . S
C173 C168 1.479 . S
C173 C172 1.405 . S
C173 H199 0.931 . S
U174 O175 2.454 . S
U174 O176 2.458 . S
U174 C177 2.984 . S
U174 C178 2.847 . S
U174 C191 2.882 . S
U174 O192 2.441 . S
U174 O193 2.420 . S
U174 O194 2.455 . S
U174 O195 2.449 . S
O175 U174 2.454 . S
O175 C177 1.353 . S
O176 U174 2.458 . S
O176 C177 1.286 . S
C177 U174 2.984 . S
C177 O175 1.353 . S
C177 O176 1.286 . S
C177 C179 1.363 . S
C178 C168 1.465 . S
C178 U174 2.847 . S
C178 O192 1.249 . S
C178 O193 1.202 . S
C179 C177 1.363 . S
C179 C181 1.408 . S
C179 C184 1.342 . S
C180 C181 1.310 . S
C180 C183 1.461 . S
C180 H200 0.932 . S
C181 C179 1.408 . S
C181 C180 1.310 . S
C181 H201 0.930 . S
C182 C183 1.474 . S
C182 C184 1.285 . S
C182 H202 0.929 . S
C183 C180 1.461 . S
C183 C182 1.474 . S
C184 C179 1.342 . S
C184 C182 1.285 . S
C184 H203 0.930 . S
C185 C188 1.424 . S
C185 C190 1.245 . S
C185 C191 1.428 . S
C186 C189 1.260 . S
C186 C190 1.477 . S
C186 H204 0.932 . S
C187 C188 1.384 . S
C187 C189 1.479 . S
C187 H205 0.929 . S
C188 C185 1.424 . S
C188 C187 1.384 . S
C188 H206 0.928 . S
C189 C186 1.260 . S
C189 C187 1.479 . S
C190 C185 1.245 . S
C190 C186 1.477 . S
C190 H207 0.932 . S
C191 U174 2.882 . S
C191 C185 1.428 . S
C191 O194 1.301 . S
C191 O195 1.282 . S
O192 U174 2.441 . S
O192 C178 1.249 . S
O193 U174 2.420 . S
O193 C178 1.202 . S
O194 U174 2.455 . S
O194 C191 1.301 . S
O195 U174 2.449 . S
O195 C191 1.282 . S
H196 C169 0.931 . S
H197 C171 0.929 . S
H198 C172 0.930 . S
H199 C173 0.931 . S
H200 C180 0.932 . S
H201 C181 0.930 . S
H202 C182 0.929 . S
H203 C184 0.930 . S
H204 C186 0.932 . S
H205 C187 0.929 . S
H206 C188 0.928 . S
H207 C190 0.932 . S
C208 C209 1.264 . S
C208 C213 1.479 . S
C208 C218 1.465 . S
C209 C208 1.264 . S
C209 C211 1.339 . S
C209 H236 0.931 . S
C210 C211 1.395 . S
C210 C212 1.320 . S
C211 C209 1.339 . S
C211 C210 1.395 . S
C211 H237 0.929 . S
C212 C210 1.320 . S
C212 C213 1.405 . S
C212 H238 0.930 . S
C213 C208 1.479 . S
C213 C212 1.405 . S
C213 H239 0.931 . S
U214 O215 2.454 . S
U214 O216 2.458 . S
U214 C217 2.984 . S
U214 C218 2.847 . S
U214 C231 2.882 . S
U214 O232 2.441 . S
U214 O233 2.420 . S
U214 O234 2.455 . S
U214 O235 2.449 . S
O215 U214 2.454 . S
O215 C217 1.353 . S
O216 U214 2.458 . S
O216 C217 1.286 . S
C217 U214 2.984 . S
C217 O215 1.353 . S
C217 O216 1.286 . S
C217 C219 1.363 . S
C218 C208 1.465 . S
C218 U214 2.847 . S
C218 O232 1.249 . S
C218 O233 1.202 . S
C219 C217 1.363 . S
C219 C221 1.408 . S
C219 C224 1.342 . S
C220 C221 1.310 . S
C220 C223 1.461 . S
C220 H240 0.932 . S
C221 C219 1.408 . S
C221 C220 1.310 . S
C221 H241 0.930 . S
C222 C223 1.474 . S
C222 C224 1.285 . S
C222 H242 0.929 . S
C223 C220 1.461 . S
C223 C222 1.474 . S
C224 C219 1.342 . S
C224 C222 1.285 . S
C224 H243 0.930 . S
C225 C228 1.424 . S
C225 C230 1.245 . S
C225 C231 1.428 . S
C226 C229 1.260 . S
C226 C230 1.477 . S
C226 H244 0.932 . S
C227 C228 1.384 . S
C227 C229 1.479 . S
C227 H245 0.929 . S
C228 C225 1.424 . S
C228 C227 1.384 . S
C228 H246 0.928 . S
C229 C226 1.260 . S
C229 C227 1.479 . S
C230 C225 1.245 . S
C230 C226 1.477 . S
C230 H247 0.932 . S
C231 U214 2.882 . S
C231 C225 1.428 . S
C231 O234 1.301 . S
C231 O235 1.282 . S
O232 U214 2.441 . S
O232 C218 1.249 . S
O233 U214 2.420 . S
O233 C218 1.202 . S
O234 U214 2.455 . S
O234 C231 1.301 . S
O235 U214 2.449 . S
O235 C231 1.282 . S
H236 C209 0.931 . S
H237 C211 0.929 . S
H238 C212 0.930 . S
H239 C213 0.931 . S
H240 C220 0.932 . S
H241 C221 0.930 . S
H242 C222 0.929 . S
H243 C224 0.930 . S
H244 C226 0.932 . S
H245 C227 0.929 . S
H246 C228 0.928 . S
H247 C230 0.932 . S
C248 C249 1.264 . S
C248 C253 1.479 . S
C248 C258 1.465 . S
C249 C248 1.264 . S
C249 C251 1.339 . S
C249 H276 0.931 . S
C250 C251 1.395 . S
C250 C252 1.320 . S
C251 C249 1.339 . S
C251 C250 1.395 . S
C251 H277 0.929 . S
C252 C250 1.320 . S
C252 C253 1.405 . S
C252 H278 0.930 . S
C253 C248 1.479 . S
C253 C252 1.405 . S
C253 H279 0.931 . S
U254 O255 2.454 . S
U254 O256 2.458 . S
U254 C257 2.984 . S
U254 C258 2.847 . S
U254 C271 2.882 . S
U254 O272 2.441 . S
U254 O273 2.420 . S
U254 O274 2.455 . S
U254 O275 2.449 . S
O255 U254 2.454 . S
O255 C257 1.353 . S
O256 U254 2.458 . S
O256 C257 1.286 . S
C257 U254 2.984 . S
C257 O255 1.353 . S
C257 O256 1.286 . S
C257 C259 1.363 . S
C258 C248 1.465 . S
C258 U254 2.847 . S
C258 O272 1.249 . S
C258 O273 1.202 . S
C259 C257 1.363 . S
C259 C261 1.408 . S
C259 C264 1.342 . S
C260 C261 1.310 . S
C260 C263 1.461 . S
C260 H280 0.932 . S
C261 C259 1.408 . S
C261 C260 1.310 . S
C261 H281 0.930 . S
C262 C263 1.474 . S
C262 C264 1.285 . S
C262 H282 0.929 . S
C263 C260 1.461 . S
C263 C262 1.474 . S
C264 C259 1.342 . S
C264 C262 1.285 . S
C264 H283 0.930 . S
C265 C268 1.424 . S
C265 C270 1.245 . S
C265 C271 1.428 . S
C266 C269 1.260 . S
C266 C270 1.477 . S
C266 H284 0.932 . S
C267 C268 1.384 . S
C267 C269 1.479 . S
C267 H285 0.929 . S
C268 C265 1.424 . S
C268 C267 1.384 . S
C268 H286 0.928 . S
C269 C266 1.260 . S
C269 C267 1.479 . S
C270 C265 1.245 . S
C270 C266 1.477 . S
C270 H287 0.932 . S
C271 U254 2.882 . S
C271 C265 1.428 . S
C271 O274 1.301 . S
C271 O275 1.282 . S
O272 U254 2.441 . S
O272 C258 1.249 . S
O273 U254 2.420 . S
O273 C258 1.202 . S
O274 U254 2.455 . S
O274 C271 1.301 . S
O275 U254 2.449 . S
O275 C271 1.282 . S
H276 C249 0.931 . S
H277 C251 0.929 . S
H278 C252 0.930 . S
H279 C253 0.931 . S
H280 C260 0.932 . S
H281 C261 0.930 . S
H282 C262 0.929 . S
H283 C264 0.930 . S
H284 C266 0.932 . S
H285 C267 0.929 . S
H286 C268 0.928 . S
H287 C270 0.932 . S
C288 C289 1.264 . S
C288 C293 1.479 . S
C288 C298 1.465 . S
C289 C288 1.264 . S
C289 C291 1.339 . S
C289 H316 0.931 . S
C290 C291 1.395 . S
C290 C292 1.320 . S
C291 C289 1.339 . S
C291 C290 1.395 . S
C291 H317 0.929 . S
C292 C290 1.320 . S
C292 C293 1.405 . S
C292 H318 0.930 . S
C293 C288 1.479 . S
C293 C292 1.405 . S
C293 H319 0.931 . S
U294 O295 2.454 . S
U294 O296 2.458 . S
U294 C297 2.984 . S
U294 C298 2.847 . S
U294 C311 2.882 . S
U294 O312 2.441 . S
U294 O313 2.420 . S
U294 O314 2.455 . S
U294 O315 2.449 . S
O295 U294 2.454 . S
O295 C297 1.353 . S
O296 U294 2.458 . S
O296 C297 1.286 . S
C297 U294 2.984 . S
C297 O295 1.353 . S
C297 O296 1.286 . S
C297 C299 1.363 . S
C298 C288 1.465 . S
C298 U294 2.847 . S
C298 O312 1.249 . S
C298 O313 1.202 . S
C299 C297 1.363 . S
C299 C301 1.408 . S
C299 C304 1.342 . S
C300 C301 1.310 . S
C300 C303 1.461 . S
C300 H320 0.932 . S
C301 C299 1.408 . S
C301 C300 1.310 . S
C301 H321 0.930 . S
C302 C303 1.474 . S
C302 C304 1.285 . S
C302 H322 0.929 . S
C303 C300 1.461 . S
C303 C302 1.474 . S
C304 C299 1.342 . S
C304 C302 1.285 . S
C304 H323 0.930 . S
C305 C308 1.424 . S
C305 C310 1.245 . S
C305 C311 1.428 . S
C306 C309 1.260 . S
C306 C310 1.477 . S
C306 H324 0.932 . S
C307 C308 1.384 . S
C307 C309 1.479 . S
C307 H325 0.929 . S
C308 C305 1.424 . S
C308 C307 1.384 . S
C308 H326 0.928 . S
C309 C306 1.260 . S
C309 C307 1.479 . S
C310 C305 1.245 . S
C310 C306 1.477 . S
C310 H327 0.932 . S
C311 U294 2.882 . S
C311 C305 1.428 . S
C311 O314 1.301 . S
C311 O315 1.282 . S
O312 U294 2.441 . S
O312 C298 1.249 . S
O313 U294 2.420 . S
O313 C298 1.202 . S
O314 U294 2.455 . S
O314 C311 1.301 . S
O315 U294 2.449 . S
O315 C311 1.282 . S
H316 C289 0.931 . S
H317 C291 0.929 . S
H318 C292 0.930 . S
H319 C293 0.931 . S
H320 C300 0.932 . S
H321 C301 0.930 . S
H322 C302 0.929 . S
H323 C304 0.930 . S
H324 C306 0.932 . S
H325 C307 0.929 . S
H326 C308 0.928 . S
H327 C310 0.932 . S
C328 C329 1.264 . S
C328 C333 1.479 . S
C328 C338 1.465 . S
C329 C328 1.264 . S
C329 C331 1.339 . S
C329 H356 0.931 . S
C330 C331 1.395 . S
C330 C332 1.320 . S
C331 C329 1.339 . S
C331 C330 1.395 . S
C331 H357 0.929 . S
C332 C330 1.320 . S
C332 C333 1.405 . S
C332 H358 0.930 . S
C333 C328 1.479 . S
C333 C332 1.405 . S
C333 H359 0.931 . S
U334 O335 2.454 . S
U334 O336 2.458 . S
U334 C337 2.984 . S
U334 C338 2.847 . S
U334 C351 2.882 . S
U334 O352 2.441 . S
U334 O353 2.420 . S
U334 O354 2.455 . S
U334 O355 2.449 . S
O335 U334 2.454 . S
O335 C337 1.353 . S
O336 U334 2.458 . S
O336 C337 1.286 . S
C337 U334 2.984 . S
C337 O335 1.353 . S
C337 O336 1.286 . S
C337 C339 1.363 . S
C338 C328 1.465 . S
C338 U334 2.847 . S
C338 O352 1.249 . S
C338 O353 1.202 . S
C339 C337 1.363 . S
C339 C341 1.408 . S
C339 C344 1.342 . S
C340 C341 1.310 . S
C340 C343 1.461 . S
C340 H360 0.932 . S
C341 C339 1.408 . S
C341 C340 1.310 . S
C341 H361 0.930 . S
C342 C343 1.474 . S
C342 C344 1.285 . S
C342 H362 0.929 . S
C343 C340 1.461 . S
C343 C342 1.474 . S
C344 C339 1.342 . S
C344 C342 1.285 . S
C344 H363 0.930 . S
C345 C348 1.424 . S
C345 C350 1.245 . S
C345 C351 1.428 . S
C346 C349 1.260 . S
C346 C350 1.477 . S
C346 H364 0.932 . S
C347 C348 1.384 . S
C347 C349 1.479 . S
C347 H365 0.929 . S
C348 C345 1.424 . S
C348 C347 1.384 . S
C348 H366 0.928 . S
C349 C346 1.260 . S
C349 C347 1.479 . S
C350 C345 1.245 . S
C350 C346 1.477 . S
C350 H367 0.932 . S
C351 U334 2.882 . S
C351 C345 1.428 . S
C351 O354 1.301 . S
C351 O355 1.282 . S
O352 U334 2.441 . S
O352 C338 1.249 . S
O353 U334 2.420 . S
O353 C338 1.202 . S
O354 U334 2.455 . S
O354 C351 1.301 . S
O355 U334 2.449 . S
O355 C351 1.282 . S
H356 C329 0.931 . S
H357 C331 0.929 . S
H358 C332 0.930 . S
H359 C333 0.931 . S
H360 C340 0.932 . S
H361 C341 0.930 . S
H362 C342 0.929 . S
H363 C344 0.930 . S
H364 C346 0.932 . S
H365 C347 0.929 . S
H366 C348 0.928 . S
H367 C350 0.932 . S
C368 C369 1.264 . S
C368 C373 1.479 . S
C368 C378 1.465 . S
C369 C368 1.264 . S
C369 C371 1.339 . S
C369 H396 0.931 . S
C370 C371 1.395 . S
C370 C372 1.320 . S
C371 C369 1.339 . S
C371 C370 1.395 . S
C371 H397 0.929 . S
C372 C370 1.320 . S
C372 C373 1.405 . S
C372 H398 0.930 . S
C373 C368 1.479 . S
C373 C372 1.405 . S
C373 H399 0.931 . S
U374 O375 2.454 . S
U374 O376 2.458 . S
U374 C377 2.984 . S
U374 C378 2.847 . S
U374 C391 2.882 . S
U374 O392 2.441 . S
U374 O393 2.420 . S
U374 O394 2.455 . S
U374 O395 2.449 . S
O375 U374 2.454 . S
O375 C377 1.353 . S
O376 U374 2.458 . S
O376 C377 1.286 . S
C377 U374 2.984 . S
C377 O375 1.353 . S
C377 O376 1.286 . S
C377 C379 1.363 . S
C378 C368 1.465 . S
C378 U374 2.847 . S
C378 O392 1.249 . S
C378 O393 1.202 . S
C379 C377 1.363 . S
C379 C381 1.408 . S
C379 C384 1.342 . S
C380 C381 1.310 . S
C380 C383 1.461 . S
C380 H400 0.932 . S
C381 C379 1.408 . S
C381 C380 1.310 . S
C381 H401 0.930 . S
C382 C383 1.474 . S
C382 C384 1.285 . S
C382 H402 0.929 . S
C383 C380 1.461 . S
C383 C382 1.474 . S
C384 C379 1.342 . S
C384 C382 1.285 . S
C384 H403 0.930 . S
C385 C388 1.425 1_655 S
C385 C390 1.245 . S
C385 C391 1.428 . S
C386 C389 1.260 . S
C386 C390 1.477 1_455 S
C386 H404 0.932 . S
C387 C388 1.382 . S
C387 C389 1.479 . S
C387 H405 0.929 . S
C388 C385 1.425 1_455 S
C388 C387 1.382 . S
C388 H406 0.929 1_455 S
C389 C386 1.260 . S
C389 C387 1.479 . S
C390 C385 1.245 . S
C390 C386 1.477 1_655 S
C390 H407 0.932 . S
C391 U374 2.882 . S
C391 C385 1.428 . S
C391 O394 1.301 . S
C391 O395 1.282 . S
O392 U374 2.441 . S
O392 C378 1.249 . S
O393 U374 2.420 . S
O393 C378 1.202 . S
O394 U374 2.455 . S
O394 C391 1.301 . S
O395 U374 2.449 . S
O395 C391 1.282 . S
H396 C369 0.931 . S
H397 C371 0.929 . S
H398 C372 0.930 . S
H399 C373 0.931 . S
H400 C380 0.932 . S
H401 C381 0.930 . S
H402 C382 0.929 . S
H403 C384 0.930 . S
H404 C386 0.932 . S
H405 C387 0.929 . S
H406 C388 0.929 1_655 S
H407 C390 0.932 . S
H408 C414 0.930 . S
H409 C418 0.930 . S
H410 C423 0.929 . S
H411 C421 0.929 1_545 S
H412 C416 0.929 . S
H413 C422 0.929 . S
C414 H408 0.930 . S
C414 C415 1.367 . S
C414 C422 1.378 . S
C415 C414 1.367 . S
C415 C423 1.433 . S
C416 H412 0.929 . S
C416 C418 1.378 . S
C416 C420 1.350 . S
C417 C420 1.463 . S
C417 C422 1.350 . S
C417 N425 1.427 . S
C418 H409 0.930 . S
C418 C416 1.378 . S
C418 C419 1.367 . S
C419 C418 1.367 . S
C419 C421 1.433 . S
C420 C416 1.350 . S
C420 C417 1.463 . S
C420 N424 1.427 . S
C421 H411 0.929 1_565 S
C421 C419 1.433 . S
C421 N424 1.384 . S
C422 H413 0.929 . S
C422 C414 1.378 . S
C422 C417 1.350 . S
C423 H410 0.929 . S
C423 C415 1.433 . S
C423 N425 1.384 . S
N424 C420 1.427 . S
N424 C421 1.384 . S
N425 C417 1.427 . S
N425 C423 1.384 . S
H426 C432 0.930 . S
H427 C436 0.930 . S
H428 C441 0.929 . S
H429 C439 0.929 . S
H430 C434 0.929 . S
H431 C440 0.929 . S
C432 H426 0.930 . S
C432 C433 1.367 . S
C432 C440 1.378 . S
C433 C432 1.367 . S
C433 C441 1.433 . S
C434 H430 0.929 . S
C434 C436 1.378 . S
C434 C438 1.350 . S
C435 C438 1.463 . S
C435 C440 1.350 . S
C435 N443 1.427 . S
C436 H427 0.930 . S
C436 C434 1.378 . S
C436 C437 1.367 . S
C437 C436 1.367 . S
C437 C439 1.433 . S
C438 C434 1.350 . S
C438 C435 1.463 . S
C438 N442 1.427 . S
C439 H429 0.929 . S
C439 C437 1.433 . S
C439 N442 1.384 . S
C440 H431 0.929 . S
C440 C432 1.378 . S
C440 C435 1.350 . S
C441 H428 0.929 . S
C441 C433 1.433 . S
C441 N443 1.384 . S
N442 C438 1.427 . S
N442 C439 1.384 . S
N443 C435 1.427 . S
N443 C441 1.384 . S
H444 C450 0.930 . S
H445 C454 0.930 . S
H446 C459 0.929 . S
H447 C457 0.930 1_545 S
H448 C452 0.929 . S
H449 C458 0.929 . S
C450 H444 0.930 . S
C450 C451 1.367 . S
C450 C458 1.378 . S
C451 C450 1.367 . S
C451 C459 1.433 . S
C452 H448 0.929 . S
C452 C454 1.378 . S
C452 C456 1.350 1_565 S
C453 C456 1.463 . S
C453 C458 1.350 . S
C453 N461 1.427 . S
C454 H445 0.930 . S
C454 C452 1.378 . S
C454 C455 1.367 . S
C455 C454 1.367 . S
C455 C457 1.454 . S
C456 C452 1.350 1_545 S
C456 C453 1.463 . S
C456 N460 1.427 . S
C457 H447 0.930 1_565 S
C457 C455 1.454 . S
C457 N460 1.364 1_565 S
C458 H449 0.929 . S
C458 C450 1.378 . S
C458 C453 1.350 . S
C459 H446 0.929 . S
C459 C451 1.433 . S
C459 N461 1.384 . S
N460 C456 1.427 . S
N460 C457 1.364 1_545 S
N461 C453 1.427 . S
N461 C459 1.384 . S
H462 C468 0.930 . S
H463 C472 0.930 . S
H464 C477 0.929 . S
H465 C475 0.929 . S
H466 C470 0.929 . S
H467 C476 0.929 . S
C468 H462 0.930 . S
C468 C469 1.367 . S
C468 C476 1.378 . S
C469 C468 1.367 . S
C469 C477 1.433 . S
C470 H466 0.929 . S
C470 C472 1.378 . S
C470 C474 1.350 . S
C471 C474 1.463 . S
C471 C476 1.350 . S
C471 N479 1.427 . S
C472 H463 0.930 . S
C472 C470 1.378 . S
C472 C473 1.367 . S
C473 C472 1.367 . S
C473 C475 1.433 . S
C474 C470 1.350 . S
C474 C471 1.463 . S
C474 N478 1.427 . S
C475 H465 0.929 . S
C475 C473 1.433 . S
C475 N478 1.384 . S
C476 H467 0.929 . S
C476 C468 1.378 . S
C476 C471 1.350 . S
C477 H464 0.929 . S
C477 C469 1.433 . S
C477 N479 1.384 . S
N478 C474 1.427 . S
N478 C475 1.384 . S
N479 C471 1.427 . S
N479 C477 1.384 . S
H480 C486 0.930 . S
H481 C490 0.930 . S
H482 C495 0.929 . S
H483 C493 0.929 . S
H484 C488 0.929 . S
H485 C494 0.929 . S
C486 H480 0.930 . S
C486 C487 1.367 . S
C486 C494 1.378 . S
C487 C486 1.367 . S
C487 C495 1.433 . S
C488 H484 0.929 . S
C488 C490 1.378 . S
C488 C492 1.350 . S
C489 C492 1.463 . S
C489 C494 1.350 . S
C489 N497 1.427 . S
C490 H481 0.930 . S
C490 C488 1.378 . S
C490 C491 1.367 . S
C491 C490 1.367 . S
C491 C493 1.433 . S
C492 C488 1.350 . S
C492 C489 1.463 . S
C492 N496 1.427 . S
C493 H483 0.929 . S
C493 C491 1.433 . S
C493 N496 1.384 . S
C494 H485 0.929 . S
C494 C486 1.378 . S
C494 C489 1.350 . S
C495 H482 0.929 . S
C495 C487 1.433 . S
C495 N497 1.384 . S
N496 C492 1.427 . S
N496 C493 1.384 . S
N497 C489 1.427 . S
N497 C495 1.384 . S
H498 C504 0.930 . S
H499 C508 0.930 1_554 S
H500 C513 0.929 . S
H501 C511 0.929 . S
H502 C506 0.929 . S
H503 C512 0.929 . S
C504 H498 0.930 . S
C504 C505 1.367 . S
C504 C512 1.378 . S
C505 C504 1.367 . S
C505 C513 1.433 1_556 S
C506 H502 0.929 . S
C506 C508 1.378 1_554 S
C506 C510 1.350 1_554 S
C507 C510 1.463 1_655 S
C507 C512 1.350 . S
C507 N515 1.427 1_556 S
C508 H499 0.930 1_556 S
C508 C506 1.378 1_556 S
C508 C509 1.367 . S
C509 C508 1.367 . S
C509 C511 1.433 . S
C510 C506 1.350 1_556 S
C510 C507 1.463 1_455 S
C510 N514 1.427 . S
C511 H501 0.929 . S
C511 C509 1.433 . S
C511 N514 1.384 . S
C512 H503 0.929 . S
C512 C504 1.378 . S
C512 C507 1.350 . S
C513 H500 0.929 . S
C513 C505 1.433 1_554 S
C513 N515 1.384 . S
N514 C510 1.427 . S
N514 C511 1.384 . S
N515 C507 1.427 1_554 S
N515 C513 1.384 . S
H516 C522 0.930 . S
H517 C526 0.930 . S
H518 C531 0.929 . S
H519 C529 0.929 . S
H520 C524 0.929 . S
H521 C530 0.929 . S
C522 H516 0.930 . S
C522 C523 1.367 . S
C522 C530 1.378 . S
C523 C522 1.367 . S
C523 C531 1.433 . S
C524 H520 0.929 . S
C524 C526 1.378 . S
C524 C528 1.350 . S
C525 C528 1.463 . S
C525 C530 1.350 . S
C525 N533 1.427 . S
C526 H517 0.930 . S
C526 C524 1.378 . S
C526 C527 1.367 . S
C527 C526 1.367 . S
C527 C529 1.433 . S
C528 C524 1.350 . S
C528 C525 1.463 . S
C528 N532 1.427 . S
C529 H519 0.929 . S
C529 C527 1.433 . S
C529 N532 1.384 . S
C530 H521 0.929 . S
C530 C522 1.378 . S
C530 C525 1.350 . S
C531 H518 0.929 . S
C531 C523 1.433 . S
C531 N533 1.384 . S
N532 C528 1.427 . S
N532 C529 1.384 . S
N533 C525 1.427 . S
N533 C531 1.384 . S
H534 C540 0.930 . S
H535 C544 0.930 . S
H536 C549 0.929 . S
H537 C547 0.929 . S
H538 C542 0.929 . S
H539 C548 0.929 . S
C540 H534 0.930 . S
C540 C541 1.367 . S
C540 C548 1.378 . S
C541 C540 1.367 . S
C541 C549 1.433 . S
C542 H538 0.929 . S
C542 C544 1.378 . S
C542 C546 1.350 . S
C543 C546 1.463 . S
C543 C548 1.350 . S
C543 N551 1.427 . S
C544 H535 0.930 . S
C544 C542 1.378 . S
C544 C545 1.367 . S
C545 C544 1.367 . S
C545 C547 1.433 . S
C546 C542 1.350 . S
C546 C543 1.463 . S
C546 N550 1.427 . S
C547 H537 0.929 . S
C547 C545 1.433 . S
C547 N550 1.384 . S
C548 H539 0.929 . S
C548 C540 1.378 . S
C548 C543 1.350 . S
C549 H536 0.929 . S
C549 C541 1.433 . S
C549 N551 1.384 . S
N550 C546 1.427 . S
N550 C547 1.384 . S
N551 C543 1.427 . S
N551 C549 1.384 . S
H552 C558 0.930 . S
H553 C562 0.930 . S
H554 C567 0.929 . S
H555 C565 0.929 1_565 S
H556 C560 0.929 . S
H557 C566 0.929 . S
C558 H552 0.930 . S
C558 C559 1.367 . S
C558 C566 1.378 . S
C559 C558 1.367 . S
C559 C567 1.433 . S
C560 H556 0.929 . S
C560 C562 1.378 . S
C560 C564 1.350 . S
C561 C564 1.463 . S
C561 C566 1.350 . S
C561 N569 1.427 . S
C562 H553 0.930 . S
C562 C560 1.378 . S
C562 C563 1.367 . S
C563 C562 1.367 . S
C563 C565 1.433 . S
C564 C560 1.350 . S
C564 C561 1.463 . S
C564 N568 1.427 . S
C565 H555 0.929 1_545 S
C565 C563 1.433 . S
C565 N568 1.384 . S
C566 H557 0.929 . S
C566 C558 1.378 . S
C566 C561 1.350 . S
C567 H554 0.929 . S
C567 C559 1.433 . S
C567 N569 1.384 . S
N568 C564 1.427 . S
N568 C565 1.384 . S
N569 C561 1.427 . S
N569 C567 1.384 . S
H570 C576 0.930 . S
H571 C580 0.930 . S
H572 C585 0.929 . S
H573 C583 0.929 . S
H574 C578 0.929 . S
H575 C584 0.929 . S
C576 H570 0.930 . S
C576 C577 1.367 . S
C576 C584 1.378 . S
C577 C576 1.367 . S
C577 C585 1.433 . S
C578 H574 0.929 . S
C578 C580 1.378 . S
C578 C582 1.350 . S
C579 C582 1.463 . S
C579 C584 1.350 . S
C579 N587 1.427 . S
C580 H571 0.930 . S
C580 C578 1.378 . S
C580 C581 1.367 . S
C581 C580 1.367 . S
C581 C583 1.433 . S
C582 C578 1.350 . S
C582 C579 1.463 . S
C582 N586 1.427 . S
C583 H573 0.929 . S
C583 C581 1.433 . S
C583 N586 1.384 . S
C584 H575 0.929 . S
C584 C576 1.378 . S
C584 C579 1.350 . S
C585 H572 0.929 . S
C585 C577 1.433 . S
C585 N587 1.384 . S
N586 C582 1.427 . S
N586 C583 1.384 . S
N587 C579 1.427 . S
N587 C585 1.384 . S
H588 C594 0.930 . S
H589 C598 0.930 . S
H590 C603 0.929 . S
H591 C601 0.929 . S
H592 C596 0.929 . S
H593 C602 0.929 . S
C594 H588 0.930 . S
C594 C595 1.367 . S
C594 C602 1.378 . S
C595 C594 1.367 . S
C595 C603 1.433 . S
C596 H592 0.929 . S
C596 C598 1.378 1_564 S
C596 C600 1.350 . S
C597 C600 1.463 . S
C597 C602 1.350 . S
C597 N605 1.427 . S
C598 H589 0.930 . S
C598 C596 1.378 1_546 S
C598 C599 1.367 . S
C599 C598 1.367 . S
C599 C601 1.433 . S
C600 C596 1.350 . S
C600 C597 1.463 . S
C600 N604 1.426 1_564 S
C601 H591 0.929 . S
C601 C599 1.433 . S
C601 N604 1.385 . S
C602 H593 0.929 . S
C602 C594 1.378 . S
C602 C597 1.350 . S
C603 H590 0.929 . S
C603 C595 1.433 . S
C603 N605 1.384 . S
N604 C600 1.426 1_546 S
N604 C601 1.385 . S
N605 C597 1.427 . S
N605 C603 1.384 . S
H606 C612 0.930 . S
H607 C616 0.930 . S
H608 C621 0.929 . S
H609 C619 0.929 . S
H610 C614 0.929 . S
H611 C620 0.929 . S
C612 H606 0.930 . S
C612 C613 1.367 . S
C612 C620 1.378 . S
C613 C612 1.367 . S
C613 C621 1.433 . S
C614 H610 0.929 . S
C614 C616 1.378 . S
C614 C618 1.350 . S
C615 C618 1.463 . S
C615 C620 1.350 . S
C615 N623 1.427 . S
C616 H607 0.930 . S
C616 C614 1.378 . S
C616 C617 1.367 . S
C617 C616 1.367 . S
C617 C619 1.433 . S
C618 C614 1.350 . S
C618 C615 1.463 . S
C618 N622 1.427 . S
C619 H609 0.929 . S
C619 C617 1.433 . S
C619 N622 1.384 . S
C620 H611 0.929 . S
C620 C612 1.378 . S
C620 C615 1.350 . S
C621 H608 0.929 . S
C621 C613 1.433 . S
C621 N623 1.384 . S
N622 C618 1.427 . S
N622 C619 1.384 . S
N623 C615 1.427 . S
N623 C621 1.384 . S
H624 C630 0.930 . S
H625 C634 0.930 . S
H626 C639 0.929 . S
H627 C637 0.929 . S
H628 C632 0.929 . S
H629 C638 0.929 . S
C630 H624 0.930 . S
C630 C631 1.367 . S
C630 C638 1.378 . S
C631 C630 1.367 . S
C631 C639 1.433 . S
C632 H628 0.929 . S
C632 C634 1.378 . S
C632 C636 1.350 . S
C633 C636 1.463 . S
C633 C638 1.350 . S
C633 N641 1.427 . S
C634 H625 0.930 . S
C634 C632 1.378 . S
C634 C635 1.367 . S
C635 C634 1.367 . S
C635 C637 1.433 . S
C636 C632 1.350 . S
C636 C633 1.463 . S
C636 N640 1.427 . S
C637 H627 0.929 . S
C637 C635 1.433 . S
C637 N640 1.384 . S
C638 H629 0.929 . S
C638 C630 1.378 . S
C638 C633 1.350 . S
C639 H626 0.929 . S
C639 C631 1.433 . S
C639 N641 1.384 . S
N640 C636 1.427 . S
N640 C637 1.384 . S
N641 C633 1.427 . S
N641 C639 1.384 . S
H642 C648 0.930 . S
H643 C652 0.930 . S
H644 C657 0.929 . S
H645 C655 0.929 . S
H646 C650 0.929 . S
H647 C656 0.929 . S
C648 H642 0.930 . S
C648 C649 1.367 . S
C648 C656 1.378 . S
C649 C648 1.367 . S
C649 C657 1.433 . S
C650 H646 0.929 . S
C650 C652 1.378 . S
C650 C654 1.350 . S
C651 C654 1.463 1_455 S
C651 C656 1.350 . S
C651 N659 1.427 . S
C652 H643 0.930 . S
C652 C650 1.378 . S
C652 C653 1.367 . S
C653 C652 1.367 . S
C653 C655 1.433 . S
C654 C650 1.350 . S
C654 C651 1.463 1_655 S
C654 N658 1.427 . S
C655 H645 0.929 . S
C655 C653 1.433 . S
C655 N658 1.384 . S
C656 H647 0.929 . S
C656 C648 1.378 . S
C656 C651 1.350 . S
C657 H644 0.929 . S
C657 C649 1.433 . S
C657 N659 1.384 . S
N658 C654 1.427 . S
N658 C655 1.384 . S
N659 C651 1.427 . S
N659 C657 1.384 . S
H660 C666 0.930 . S
H661 C670 0.930 . S
H662 C675 0.929 . S
H663 C673 0.929 . S
H664 C668 0.929 . S
H665 C674 0.929 . S
C666 H660 0.930 . S
C666 C667 1.367 . S
C666 C674 1.378 . S
C667 C666 1.367 . S
C667 C675 1.433 . S
C668 H664 0.929 . S
C668 C670 1.378 . S
C668 C672 1.350 . S
C669 C672 1.463 . S
C669 C674 1.350 . S
C669 N677 1.427 . S
C670 H661 0.930 . S
C670 C668 1.378 . S
C670 C671 1.367 . S
C671 C670 1.367 . S
C671 C673 1.433 . S
C672 C668 1.350 . S
C672 C669 1.463 . S
C672 N676 1.427 . S
C673 H663 0.929 . S
C673 C671 1.433 . S
C673 N676 1.384 . S
C674 H665 0.929 . S
C674 C666 1.378 . S
C674 C669 1.350 . S
C675 H662 0.929 . S
C675 C667 1.433 . S
C675 N677 1.384 . S
N676 C672 1.427 . S
N676 C673 1.384 . S
N677 C669 1.427 . S
N677 C675 1.384 . S
H678 C684 0.930 . S
H679 C688 0.930 . S
H680 C693 0.929 . S
H681 C691 0.929 . S
H682 C686 0.929 . S
H683 C692 0.929 . S
C684 H678 0.930 . S
C684 C685 1.367 . S
C684 C692 1.378 . S
C685 C684 1.367 . S
C685 C693 1.433 . S
C686 H682 0.929 . S
C686 C688 1.378 . S
C686 C690 1.350 . S
C687 C690 1.463 . S
C687 C692 1.350 . S
C687 N695 1.427 . S
C688 H679 0.930 . S
C688 C686 1.378 . S
C688 C689 1.367 . S
C689 C688 1.367 . S
C689 C691 1.433 . S
C690 C686 1.350 . S
C690 C687 1.463 . S
C690 N694 1.427 . S
C691 H681 0.929 . S
C691 C689 1.433 . S
C691 N694 1.384 . S
C692 H683 0.929 . S
C692 C684 1.378 . S
C692 C687 1.350 . S
C693 H680 0.929 . S
C693 C685 1.433 . S
C693 N695 1.384 . S
N694 C690 1.427 . S
N694 C691 1.384 . S
N695 C687 1.427 . S
N695 C693 1.384 . S
H696 C702 0.930 . S
H697 C706 0.930 . S
H698 C711 0.929 . S
H699 C709 0.929 . S
H700 C704 0.929 . S
H701 C710 0.929 . S
C702 H696 0.930 . S
C702 C703 1.367 . S
C702 C710 1.378 . S
C703 C702 1.367 . S
C703 C711 1.433 . S
C704 H700 0.929 . S
C704 C706 1.378 . S
C704 C708 1.350 . S
C705 C708 1.463 . S
C705 C710 1.350 . S
C705 N713 1.427 . S
C706 H697 0.930 . S
C706 C704 1.378 . S
C706 C707 1.367 . S
C707 C706 1.367 . S
C707 C709 1.433 . S
C708 C704 1.350 . S
C708 C705 1.463 . S
C708 N712 1.427 . S
C709 H699 0.929 . S
C709 C707 1.433 . S
C709 N712 1.384 . S
C710 H701 0.929 . S
C710 C702 1.378 . S
C710 C705 1.350 . S
C711 H698 0.929 . S
C711 C703 1.433 . S
C711 N713 1.384 . S
N712 C708 1.427 . S
N712 C709 1.384 . S
N713 C705 1.427 . S
N713 C711 1.384 . S
H714 C720 0.930 . S
H715 C724 0.930 . S
H716 C729 0.929 . S
H717 C727 0.929 . S
H718 C722 0.929 . S
H719 C728 0.929 . S
C720 H714 0.930 . S
C720 C721 1.367 . S
C720 C728 1.378 . S
C721 C720 1.367 . S
C721 C729 1.433 . S
C722 H718 0.929 . S
C722 C724 1.378 . S
C722 C726 1.350 . S
C723 C726 1.463 . S
C723 C728 1.350 . S
C723 N731 1.427 . S
C724 H715 0.930 . S
C724 C722 1.378 . S
C724 C725 1.367 . S
C725 C724 1.367 . S
C725 C727 1.433 . S
C726 C722 1.350 . S
C726 C723 1.463 . S
C726 N730 1.427 . S
C727 H717 0.929 . S
C727 C725 1.433 . S
C727 N730 1.384 . S
C728 H719 0.929 . S
C728 C720 1.378 . S
C728 C723 1.350 . S
C729 H716 0.929 . S
C729 C721 1.433 . S
C729 N731 1.384 . S
N730 C726 1.427 . S
N730 C727 1.384 . S
N731 C723 1.427 . S
N731 C729 1.384 . S
H732 C738 0.930 . S
H733 C742 0.930 . S
H734 C747 0.929 . S
H735 C745 0.929 . S
H736 C740 0.929 . S
H737 C746 0.929 . S
C738 H732 0.930 . S
C738 C739 1.367 . S
C738 C746 1.378 . S
C739 C738 1.367 . S
C739 C747 1.433 . S
C740 H736 0.929 . S
C740 C742 1.378 . S
C740 C744 1.350 . S
C741 C744 1.463 . S
C741 C746 1.350 . S
C741 N749 1.427 . S
C742 H733 0.930 . S
C742 C740 1.378 . S
C742 C743 1.367 . S
C743 C742 1.367 . S
C743 C745 1.433 . S
C744 C740 1.350 . S
C744 C741 1.463 . S
C744 N748 1.427 . S
C745 H735 0.929 . S
C745 C743 1.433 . S
C745 N748 1.384 . S
C746 H737 0.929 . S
C746 C738 1.378 . S
C746 C741 1.350 . S
C747 H734 0.929 . S
C747 C739 1.433 . S
C747 N749 1.384 . S
N748 C744 1.427 . S
N748 C745 1.384 . S
N749 C741 1.427 . S
N749 C747 1.384 . S
H750 C756 0.930 . S
H751 C760 0.930 . S
H752 C765 0.929 . S
H753 C763 0.929 . S
H754 C758 0.929 . S
H755 C764 0.929 . S
C756 H750 0.930 . S
C756 C757 1.367 . S
C756 C764 1.378 . S
C757 C756 1.367 . S
C757 C765 1.433 . S
C758 H754 0.929 . S
C758 C760 1.378 . S
C758 C762 1.350 . S
C759 C762 1.463 . S
C759 C764 1.350 . S
C759 N767 1.427 . S
C760 H751 0.930 . S
C760 C758 1.378 . S
C760 C761 1.367 . S
C761 C760 1.367 . S
C761 C763 1.433 . S
C762 C758 1.350 . S
C762 C759 1.463 . S
C762 N766 1.427 . S
C763 H753 0.929 . S
C763 C761 1.433 . S
C763 N766 1.384 . S
C764 H755 0.929 . S
C764 C756 1.378 . S
C764 C759 1.350 . S
C765 H752 0.929 . S
C765 C757 1.433 . S
C765 N767 1.384 . S
N766 C762 1.427 . S
N766 C763 1.384 . S
N767 C759 1.427 . S
N767 C765 1.384 . S
H768 C774 0.930 . S
H769 C778 0.930 . S
H770 C783 0.929 . S
H771 C781 0.929 . S
H772 C776 0.929 . S
H773 C782 0.929 . S
C774 H768 0.930 . S
C774 C775 1.367 . S
C774 C782 1.378 . S
C775 C774 1.367 . S
C775 C783 1.433 . S
C776 H772 0.929 . S
C776 C778 1.378 . S
C776 C780 1.350 . S
C777 C780 1.463 . S
C777 C782 1.350 . S
C777 N785 1.427 . S
C778 H769 0.930 . S
C778 C776 1.378 . S
C778 C779 1.367 . S
C779 C778 1.367 . S
C779 C781 1.433 . S
C780 C776 1.350 . S
C780 C777 1.463 . S
C780 N784 1.427 . S
C781 H771 0.929 . S
C781 C779 1.433 . S
C781 N784 1.384 . S
C782 H773 0.929 . S
C782 C774 1.378 . S
C782 C777 1.350 . S
C783 H770 0.929 . S
C783 C775 1.433 . S
C783 N785 1.384 . S
N784 C780 1.427 . S
N784 C781 1.384 . S
N785 C777 1.427 . S
N785 C783 1.384 . S
H786 C792 0.930 . S
H787 C796 0.930 . S
H788 C801 0.929 . S
H789 C799 0.929 . S
H790 C794 0.929 . S
H791 C800 0.929 . S
C792 H786 0.930 . S
C792 C793 1.367 . S
C792 C800 1.378 . S
C793 C792 1.367 . S
C793 C801 1.433 . S
C794 H790 0.929 . S
C794 C796 1.378 . S
C794 C798 1.350 . S
C795 C798 1.463 . S
C795 C800 1.350 . S
C795 N803 1.427 . S
C796 H787 0.930 . S
C796 C794 1.378 . S
C796 C797 1.367 . S
C797 C796 1.367 . S
C797 C799 1.433 . S
C798 C794 1.350 . S
C798 C795 1.463 . S
C798 N802 1.427 . S
C799 H789 0.929 . S
C799 C797 1.433 . S
C799 N802 1.384 . S
C800 H791 0.929 . S
C800 C792 1.378 . S
C800 C795 1.350 . S
C801 H788 0.929 . S
C801 C793 1.433 . S
C801 N803 1.384 . S
N802 C798 1.427 . S
N802 C799 1.384 . S
N803 C795 1.427 . S
N803 C801 1.384 . S
H804 C810 0.930 . S
H805 C814 0.930 . S
H806 C819 0.929 . S
H807 C817 0.929 . S
H808 C812 0.929 . S
H809 C818 0.929 . S
C810 H804 0.930 . S
C810 C811 1.367 . S
C810 C818 1.378 . S
C811 C810 1.367 . S
C811 C819 1.433 . S
C812 H808 0.929 . S
C812 C814 1.378 . S
C812 C816 1.350 . S
C813 C816 1.463 . S
C813 C818 1.350 . S
C813 N821 1.427 . S
C814 H805 0.930 . S
C814 C812 1.378 . S
C814 C815 1.367 . S
C815 C814 1.367 . S
C815 C817 1.433 . S
C816 C812 1.350 . S
C816 C813 1.463 . S
C816 N820 1.427 . S
C817 H807 0.929 . S
C817 C815 1.433 . S
C817 N820 1.384 . S
C818 H809 0.929 . S
C818 C810 1.378 . S
C818 C813 1.350 . S
C819 H806 0.929 . S
C819 C811 1.433 . S
C819 N821 1.384 . S
N820 C816 1.427 . S
N820 C817 1.384 . S
N821 C813 1.427 . S
N821 C819 1.384 . S
H822 C828 0.930 . S
H823 C832 0.930 . S
H824 C837 0.929 . S
H825 C835 0.929 . S
H826 C830 0.929 . S
H827 C836 0.929 . S
C828 H822 0.930 . S
C828 C829 1.367 . S
C828 C836 1.378 . S
C829 C828 1.367 . S
C829 C837 1.433 . S
C830 H826 0.929 . S
C830 C832 1.378 . S
C830 C834 1.350 . S
C831 C834 1.463 1_554 S
C831 C836 1.350 . S
C831 N839 1.427 . S
C832 H823 0.930 . S
C832 C830 1.378 . S
C832 C833 1.367 . S
C833 C832 1.367 . S
C833 C835 1.433 . S
C834 C830 1.350 . S
C834 C831 1.463 1_556 S
C834 N838 1.427 . S
C835 H825 0.929 . S
C835 C833 1.433 . S
C835 N838 1.384 . S
C836 H827 0.929 . S
C836 C828 1.378 . S
C836 C831 1.350 . S
C837 H824 0.929 . S
C837 C829 1.433 . S
C837 N839 1.384 . S
N838 C834 1.427 . S
N838 C835 1.384 . S
N839 C831 1.427 . S
N839 C837 1.384 . S
C415 C7 1.703 . S
C419 C109 1.553 1_565 S
C433 C37 1.690 . S
C437 C149 1.467 . S
C451 C54 1.832 . S
C455 C170 1.665 . S
C473 C229 1.549 . S
C469 C87 1.544 . S
C491 C269 1.491 . S
C487 C30 1.637 . S
C505 C51 1.579 . S
C509 C290 1.513 . S
C523 C84 1.938 . S
C527 C330 1.764 . S
C541 C10 1.621 1_556 S
C545 C389 1.435 . S
C559 C59 1.654 . S
C563 C370 1.549 1_545 S
C581 C250 1.419 . S
C577 C74 1.558 . S
C599 C309 1.721 . S
C595 C18 1.946 . S
C613 C32 1.565 . S
C617 C349 1.445 . S
C635 C130 1.530 . S
C631 C73 1.644 . S
C649 C15 1.623 . S
C653 C189 1.532 . S
C671 C210 1.853 . S
C667 C43 1.916 . S
C689 C90 1.418 . S
C685 C62 1.574 . S
C707 C343 1.575 . S
C703 C21 1.654 . S
C725 C383 1.391 . S
C721 C29 1.418 . S
C739 C52 1.337 . S
C743 C263 1.300 . S
C761 C303 1.566 . S
C757 C81 1.647 . S
C779 C183 1.535 . S
C775 C40 1.593 . S
C793 C65 1.591 . S
C797 C223 1.531 . S
C815 C103 1.346 . S
C811 C76 1.382 . S
C833 C143 1.394 . S
C829 C8 1.439 . S
