# Generated by pormake.
# Topology gar, (4,6)-cn, num edge types: 1
# Building blocks:
#     Node 0, Type 0, BuildingBlock: CEKHIL_clean_sbu_0, # of connection points: 4
#     Node 1, Type 0, BuildingBlock: CEKHIL_clean_sbu_0, # of connection points: 4
#     Node 2, Type 0, BuildingBlock: CEKHIL_clean_sbu_0, # of connection points: 4
#     Node 3, Type 0, BuildingBlock: CEKHIL_clean_sbu_0, # of connection points: 4
#     Node 4, Type 0, BuildingBlock: CEKHIL_clean_sbu_0, # of connection points: 4
#     Node 5, Type 0, BuildingBlock: CEKHIL_clean_sbu_0, # of connection points: 4
#     Node 6, Type 0, BuildingBlock: CEKHIL_clean_sbu_0, # of connection points: 4
#     Node 7, Type 0, BuildingBlock: CEKHIL_clean_sbu_0, # of connection points: 4
#     Node 8, Type 0, BuildingBlock: CEKHIL_clean_sbu_0, # of connection points: 4
#     Node 9, Type 0, BuildingBlock: CEKHIL_clean_sbu_0, # of connection points: 4
#     Node 10, Type 0, BuildingBlock: CEKHIL_clean_sbu_0, # of connection points: 4
#     Node 11, Type 0, BuildingBlock: CEKHIL_clean_sbu_0, # of connection points: 4
#     Node 12, Type 0, BuildingBlock: CEKHIL_clean_sbu_0, # of connection points: 4
#     Node 13, Type 0, BuildingBlock: CEKHIL_clean_sbu_0, # of connection points: 4
#     Node 14, Type 0, BuildingBlock: CEKHIL_clean_sbu_0, # of connection points: 4
#     Node 15, Type 0, BuildingBlock: CEKHIL_clean_sbu_0, # of connection points: 4
#     Node 16, Type 0, BuildingBlock: CEKHIL_clean_sbu_0, # of connection points: 4
#     Node 17, Type 0, BuildingBlock: CEKHIL_clean_sbu_0, # of connection points: 4
#     Node 18, Type 0, BuildingBlock: CEKHIL_clean_sbu_0, # of connection points: 4
#     Node 19, Type 0, BuildingBlock: CEKHIL_clean_sbu_0, # of connection points: 4
#     Node 20, Type 0, BuildingBlock: CEKHIL_clean_sbu_0, # of connection points: 4
#     Node 21, Type 0, BuildingBlock: CEKHIL_clean_sbu_0, # of connection points: 4
#     Node 22, Type 0, BuildingBlock: CEKHIL_clean_sbu_0, # of connection points: 4
#     Node 23, Type 0, BuildingBlock: CEKHIL_clean_sbu_0, # of connection points: 4
#     Node 24, Type 1, BuildingBlock: CUWYAW_clean_sbu_0, # of connection points: 6
#     Node 25, Type 1, BuildingBlock: CUWYAW_clean_sbu_0, # of connection points: 6
#     Node 26, Type 1, BuildingBlock: CUWYAW_clean_sbu_0, # of connection points: 6
#     Node 27, Type 1, BuildingBlock: CUWYAW_clean_sbu_0, # of connection points: 6
#     Node 28, Type 1, BuildingBlock: CUWYAW_clean_sbu_0, # of connection points: 6
#     Node 29, Type 1, BuildingBlock: CUWYAW_clean_sbu_0, # of connection points: 6
#     Node 30, Type 1, BuildingBlock: CUWYAW_clean_sbu_0, # of connection points: 6
#     Node 31, Type 1, BuildingBlock: CUWYAW_clean_sbu_0, # of connection points: 6
#     Node 32, Type 1, BuildingBlock: CUWYAW_clean_sbu_0, # of connection points: 6
#     Node 33, Type 1, BuildingBlock: CUWYAW_clean_sbu_0, # of connection points: 6
#     Node 34, Type 1, BuildingBlock: CUWYAW_clean_sbu_0, # of connection points: 6
#     Node 35, Type 1, BuildingBlock: CUWYAW_clean_sbu_0, # of connection points: 6
#     Node 36, Type 1, BuildingBlock: CUWYAW_clean_sbu_0, # of connection points: 6
#     Node 37, Type 1, BuildingBlock: CUWYAW_clean_sbu_0, # of connection points: 6
#     Node 38, Type 1, BuildingBlock: CUWYAW_clean_sbu_0, # of connection points: 6
#     Node 39, Type 1, BuildingBlock: CUWYAW_clean_sbu_0, # of connection points: 6
#     Edge 40, Type (0, 1), BuildingBlock: OJICUG_clean_linker_0, # of connection points: 2
#     Edge 41, Type (0, 1), BuildingBlock: OJICUG_clean_linker_0, # of connection points: 2
#     Edge 42, Type (0, 1), BuildingBlock: OJICUG_clean_linker_0, # of connection points: 2
#     Edge 43, Type (0, 1), BuildingBlock: OJICUG_clean_linker_0, # of connection points: 2
#     Edge 44, Type (0, 1), BuildingBlock: OJICUG_clean_linker_0, # of connection points: 2
#     Edge 45, Type (0, 1), BuildingBlock: OJICUG_clean_linker_0, # of connection points: 2
#     Edge 46, Type (0, 1), BuildingBlock: OJICUG_clean_linker_0, # of connection points: 2
#     Edge 47, Type (0, 1), BuildingBlock: OJICUG_clean_linker_0, # of connection points: 2
#     Edge 48, Type (0, 1), BuildingBlock: OJICUG_clean_linker_0, # of connection points: 2
#     Edge 49, Type (0, 1), BuildingBlock: OJICUG_clean_linker_0, # of connection points: 2
#     Edge 50, Type (0, 1), BuildingBlock: OJICUG_clean_linker_0, # of connection points: 2
#     Edge 51, Type (0, 1), BuildingBlock: OJICUG_clean_linker_0, # of connection points: 2
#     Edge 52, Type (0, 1), BuildingBlock: OJICUG_clean_linker_0, # of connection points: 2
#     Edge 53, Type (0, 1), BuildingBlock: OJICUG_clean_linker_0, # of connection points: 2
#     Edge 54, Type (0, 1), BuildingBlock: OJICUG_clean_linker_0, # of connection points: 2
#     Edge 55, Type (0, 1), BuildingBlock: OJICUG_clean_linker_0, # of connection points: 2
#     Edge 56, Type (0, 1), BuildingBlock: OJICUG_clean_linker_0, # of connection points: 2
#     Edge 57, Type (0, 1), BuildingBlock: OJICUG_clean_linker_0, # of connection points: 2
#     Edge 58, Type (0, 1), BuildingBlock: OJICUG_clean_linker_0, # of connection points: 2
#     Edge 59, Type (0, 1), BuildingBlock: OJICUG_clean_linker_0, # of connection points: 2
#     Edge 60, Type (0, 1), BuildingBlock: OJICUG_clean_linker_0, # of connection points: 2
#     Edge 61, Type (0, 1), BuildingBlock: OJICUG_clean_linker_0, # of connection points: 2
#     Edge 62, Type (0, 1), BuildingBlock: OJICUG_clean_linker_0, # of connection points: 2
#     Edge 63, Type (0, 1), BuildingBlock: OJICUG_clean_linker_0, # of connection points: 2
#     Edge 64, Type (0, 1), BuildingBlock: OJICUG_clean_linker_0, # of connection points: 2
#     Edge 65, Type (0, 1), BuildingBlock: OJICUG_clean_linker_0, # of connection points: 2
#     Edge 66, Type (0, 1), BuildingBlock: OJICUG_clean_linker_0, # of connection points: 2
#     Edge 67, Type (0, 1), BuildingBlock: OJICUG_clean_linker_0, # of connection points: 2
#     Edge 68, Type (0, 1), BuildingBlock: OJICUG_clean_linker_0, # of connection points: 2
#     Edge 69, Type (0, 1), BuildingBlock: OJICUG_clean_linker_0, # of connection points: 2
#     Edge 70, Type (0, 1), BuildingBlock: OJICUG_clean_linker_0, # of connection points: 2
#     Edge 71, Type (0, 1), BuildingBlock: OJICUG_clean_linker_0, # of connection points: 2
#     Edge 72, Type (0, 1), BuildingBlock: OJICUG_clean_linker_0, # of connection points: 2
#     Edge 73, Type (0, 1), BuildingBlock: OJICUG_clean_linker_0, # of connection points: 2
#     Edge 74, Type (0, 1), BuildingBlock: OJICUG_clean_linker_0, # of connection points: 2
#     Edge 75, Type (0, 1), BuildingBlock: OJICUG_clean_linker_0, # of connection points: 2
#     Edge 76, Type (0, 1), BuildingBlock: OJICUG_clean_linker_0, # of connection points: 2
#     Edge 77, Type (0, 1), BuildingBlock: OJICUG_clean_linker_0, # of connection points: 2
#     Edge 78, Type (0, 1), BuildingBlock: OJICUG_clean_linker_0, # of connection points: 2
#     Edge 79, Type (0, 1), BuildingBlock: OJICUG_clean_linker_0, # of connection points: 2
#     Edge 80, Type (0, 1), BuildingBlock: OJICUG_clean_linker_0, # of connection points: 2
#     Edge 81, Type (0, 1), BuildingBlock: OJICUG_clean_linker_0, # of connection points: 2
#     Edge 82, Type (0, 1), BuildingBlock: OJICUG_clean_linker_0, # of connection points: 2
#     Edge 83, Type (0, 1), BuildingBlock: OJICUG_clean_linker_0, # of connection points: 2
#     Edge 84, Type (0, 1), BuildingBlock: OJICUG_clean_linker_0, # of connection points: 2
#     Edge 85, Type (0, 1), BuildingBlock: OJICUG_clean_linker_0, # of connection points: 2
#     Edge 86, Type (0, 1), BuildingBlock: OJICUG_clean_linker_0, # of connection points: 2
#     Edge 87, Type (0, 1), BuildingBlock: OJICUG_clean_linker_0, # of connection points: 2
#     Edge 88, Type (0, 1), BuildingBlock: OJICUG_clean_linker_0, # of connection points: 2
#     Edge 89, Type (0, 1), BuildingBlock: OJICUG_clean_linker_0, # of connection points: 2
#     Edge 90, Type (0, 1), BuildingBlock: OJICUG_clean_linker_0, # of connection points: 2
#     Edge 91, Type (0, 1), BuildingBlock: OJICUG_clean_linker_0, # of connection points: 2
#     Edge 92, Type (0, 1), BuildingBlock: OJICUG_clean_linker_0, # of connection points: 2
#     Edge 93, Type (0, 1), BuildingBlock: OJICUG_clean_linker_0, # of connection points: 2
#     Edge 94, Type (0, 1), BuildingBlock: OJICUG_clean_linker_0, # of connection points: 2
#     Edge 95, Type (0, 1), BuildingBlock: OJICUG_clean_linker_0, # of connection points: 2
#     Edge 96, Type (0, 1), BuildingBlock: OJICUG_clean_linker_0, # of connection points: 2
#     Edge 97, Type (0, 1), BuildingBlock: OJICUG_clean_linker_0, # of connection points: 2
#     Edge 98, Type (0, 1), BuildingBlock: OJICUG_clean_linker_0, # of connection points: 2
#     Edge 99, Type (0, 1), BuildingBlock: OJICUG_clean_linker_0, # of connection points: 2
#     Edge 100, Type (0, 1), BuildingBlock: OJICUG_clean_linker_0, # of connection points: 2
#     Edge 101, Type (0, 1), BuildingBlock: OJICUG_clean_linker_0, # of connection points: 2
#     Edge 102, Type (0, 1), BuildingBlock: OJICUG_clean_linker_0, # of connection points: 2
#     Edge 103, Type (0, 1), BuildingBlock: OJICUG_clean_linker_0, # of connection points: 2
#     Edge 104, Type (0, 1), BuildingBlock: OJICUG_clean_linker_0, # of connection points: 2
#     Edge 105, Type (0, 1), BuildingBlock: OJICUG_clean_linker_0, # of connection points: 2
#     Edge 106, Type (0, 1), BuildingBlock: OJICUG_clean_linker_0, # of connection points: 2
#     Edge 107, Type (0, 1), BuildingBlock: OJICUG_clean_linker_0, # of connection points: 2
#     Edge 108, Type (0, 1), BuildingBlock: OJICUG_clean_linker_0, # of connection points: 2
#     Edge 109, Type (0, 1), BuildingBlock: OJICUG_clean_linker_0, # of connection points: 2
#     Edge 110, Type (0, 1), BuildingBlock: OJICUG_clean_linker_0, # of connection points: 2
#     Edge 111, Type (0, 1), BuildingBlock: OJICUG_clean_linker_0, # of connection points: 2
#     Edge 112, Type (0, 1), BuildingBlock: OJICUG_clean_linker_0, # of connection points: 2
#     Edge 113, Type (0, 1), BuildingBlock: OJICUG_clean_linker_0, # of connection points: 2
#     Edge 114, Type (0, 1), BuildingBlock: OJICUG_clean_linker_0, # of connection points: 2
#     Edge 115, Type (0, 1), BuildingBlock: OJICUG_clean_linker_0, # of connection points: 2
#     Edge 116, Type (0, 1), BuildingBlock: OJICUG_clean_linker_0, # of connection points: 2
#     Edge 117, Type (0, 1), BuildingBlock: OJICUG_clean_linker_0, # of connection points: 2
#     Edge 118, Type (0, 1), BuildingBlock: OJICUG_clean_linker_0, # of connection points: 2
#     Edge 119, Type (0, 1), BuildingBlock: OJICUG_clean_linker_0, # of connection points: 2
#     Edge 120, Type (0, 1), BuildingBlock: OJICUG_clean_linker_0, # of connection points: 2
#     Edge 121, Type (0, 1), BuildingBlock: OJICUG_clean_linker_0, # of connection points: 2
#     Edge 122, Type (0, 1), BuildingBlock: OJICUG_clean_linker_0, # of connection points: 2
#     Edge 123, Type (0, 1), BuildingBlock: OJICUG_clean_linker_0, # of connection points: 2
#     Edge 124, Type (0, 1), BuildingBlock: OJICUG_clean_linker_0, # of connection points: 2
#     Edge 125, Type (0, 1), BuildingBlock: OJICUG_clean_linker_0, # of connection points: 2
#     Edge 126, Type (0, 1), BuildingBlock: OJICUG_clean_linker_0, # of connection points: 2
#     Edge 127, Type (0, 1), BuildingBlock: OJICUG_clean_linker_0, # of connection points: 2
#     Edge 128, Type (0, 1), BuildingBlock: OJICUG_clean_linker_0, # of connection points: 2
#     Edge 129, Type (0, 1), BuildingBlock: OJICUG_clean_linker_0, # of connection points: 2
#     Edge 130, Type (0, 1), BuildingBlock: OJICUG_clean_linker_0, # of connection points: 2
#     Edge 131, Type (0, 1), BuildingBlock: OJICUG_clean_linker_0, # of connection points: 2
#     Edge 132, Type (0, 1), BuildingBlock: OJICUG_clean_linker_0, # of connection points: 2
#     Edge 133, Type (0, 1), BuildingBlock: OJICUG_clean_linker_0, # of connection points: 2
#     Edge 134, Type (0, 1), BuildingBlock: OJICUG_clean_linker_0, # of connection points: 2
#     Edge 135, Type (0, 1), BuildingBlock: OJICUG_clean_linker_0, # of connection points: 2
# Relax obj value: 0.279
# Max RMSD: 0.349
# Mean RMSD: 0.162
data_MOF--net-gar--node1-CEKHIL_clean_sbu_0--node2-CUWYAW_clean_sbu_0--edge1-OJICUG_clean_linker_0
_symmetry_space_group_name_H-M    P1
_symmetry_Int_Tables_number       1
_symmetry_cell_setting            triclinic
loop_
_symmetry_equiv_pos_as_xyz
'x, y, z'
_cell_length_a     49.39705
_cell_length_b     39.209467
_cell_length_c     38.654329
_cell_angle_alpha  98.170696
_cell_angle_beta   96.436038
_cell_angle_gamma 98.37848
loop_
_atom_site_label
_atom_site_type_symbol
_atom_site_fract_x
_atom_site_fract_y
_atom_site_fract_z
_atom_type_partial_charge
Co0 Co 0.14874 0.38878 0.47588 0.0
O1 O 0.18144 0.39027 0.45333 0.0
O2 O 0.13848 0.37175 0.42654 0.0
C3 C 0.1585 0.44128 0.5101 0.0
O4 O 0.10991 0.38338 0.48871 0.0
Co5 Co 0.14964 0.38975 0.55601 0.0
O6 O 0.10843 0.38173 0.54632 0.0
C7 C 0.16518 0.33153 0.51213 0.0
C8 C 0.16481 0.37598 0.42472 0.0
C9 C 0.09655 0.38004 0.51497 0.0
O10 O 0.15234 0.34054 0.48501 0.0
O11 O 0.17138 0.35197 0.5417 0.0
O12 O 0.14844 0.43863 0.47699 0.0
O13 O 0.16504 0.4132 0.51985 0.0
Co14 Co 1.03393 0.73981 0.73898 0.0
O15 O 1.00058 0.74179 0.75885 0.0
O16 O 1.03903 0.72956 0.7865 0.0
C17 C 1.03576 0.78987 0.71746 0.0
O18 O 0.07235 0.73697 0.72602 0.0
Co19 Co 1.03335 0.73845 0.65563 0.0
O20 O 0.07433 0.74587 0.66958 0.0
C21 C 1.00834 0.6831 0.6856 0.0
C22 C 1.01402 0.73612 0.78773 0.0
C23 C 0.08572 0.74208 0.69991 0.0
O24 O 1.02139 0.68992 0.71696 0.0
O25 O 1.00171 0.70844 0.67129 0.0
O26 O 1.04419 0.79048 0.75067 0.0
O27 O 1.02372 0.76009 0.70007 0.0
Co28 Co 0.65044 0.88693 0.97651 0.0
O29 O 0.68309 0.88619 0.95381 0.0
O30 O 0.64006 0.86678 0.9278 0.0
C31 C 0.66037 0.94109 1.0076 0.0
O32 O 0.6116 0.88316 0.98938 0.0
Co33 Co 0.65124 0.89377 0.05726 0.0
O34 O 0.61006 0.88642 0.0476 0.0
C35 C 0.66691 0.83302 1.01759 0.0
C36 C 0.66634 0.87044 0.92579 0.0
C37 C 0.5982 0.88247 1.01593 0.0
O38 O 0.65404 0.83995 0.98934 0.0
O39 O 0.67296 0.85528 0.04597 0.0
O40 O 0.65028 0.9364 0.9743 0.0
O41 O 0.66688 0.91388 1.01929 0.0
Co42 Co 0.53533 0.24211 0.24252 0.0
O43 O 0.50213 0.24396 0.26284 0.0
O44 O 0.54106 0.23316 0.29056 0.0
C45 C 0.53621 0.29143 0.21972 0.0
O46 O 0.57366 0.23963 0.22902 0.0
Co47 Co 0.53356 0.23894 0.15863 0.0
O48 O 0.57461 0.24673 0.17188 0.0
C49 C 0.51016 0.18418 0.19039 0.0
C50 C 0.51594 0.23927 0.29188 0.0
C51 C 0.5865 0.24399 0.2023 0.0
O52 O 0.52339 0.19176 0.22164 0.0
O53 O 0.50275 0.20898 0.17581 0.0
O54 O 0.54497 0.29289 0.25298 0.0
O55 O 0.52437 0.26126 0.20307 0.0
Co56 Co 0.13383 0.83684 0.22094 0.0
O57 O 0.094 0.83356 0.21406 0.0
O58 O 0.1184 0.82545 0.26275 0.0
C59 C 0.14118 0.88678 0.19777 0.0
O60 O 0.17485 0.83857 0.23919 0.0
Co61 Co 0.17022 0.83734 0.16102 0.0
O62 O 0.20241 0.84994 0.19842 0.0
C63 C 0.13591 0.77145 0.17066 0.0
C64 C 0.0943 0.82657 0.24592 0.0
C65 C 0.19904 0.84516 0.22962 0.0
O66 O 0.12996 0.78603 0.20022 0.0
O67 O 0.14992 0.78803 0.15051 0.0
O68 O 0.13783 0.88792 0.23081 0.0
O69 O 0.13983 0.856 0.1801 0.0
Co70 Co 0.54075 0.78461 0.48065 0.0
O71 O 0.58032 0.78765 0.48872 0.0
O72 O 0.55488 0.76471 0.43804 0.0
C73 C 0.54176 0.84064 0.50485 0.0
O74 O 0.49893 0.77901 0.46303 0.0
Co75 Co 0.50845 0.79625 0.54445 0.0
O76 O 0.47821 0.801 0.5083 0.0
C77 C 0.53248 0.73189 0.5298 0.0
C78 C 0.57944 0.77382 0.45613 0.0
C79 C 0.47772 0.78932 0.47572 0.0
O80 O 0.53628 0.73852 0.49884 0.0
O81 O 0.52401 0.75316 0.55287 0.0
O82 O 0.54533 0.83265 0.47212 0.0
O83 O 0.53933 0.81498 0.52243 0.0
Co84 Co 0.6359 0.33978 0.72153 0.0
O85 O 0.59605 0.33654 0.71434 0.0
O86 O 0.62019 0.32919 0.7635 0.0
C87 C 0.64365 0.38941 0.69756 0.0
O88 O 0.677 0.342 0.74032 0.0
Co89 Co 0.67159 0.33778 0.66101 0.0
O90 O 0.70404 0.34253 0.69727 0.0
C91 C 0.63659 0.27334 0.67166 0.0
C92 C 0.59615 0.33001 0.74633 0.0
C93 C 0.70087 0.34272 0.72949 0.0
O94 O 0.63181 0.28848 0.70167 0.0
O95 O 0.64989 0.28942 0.65059 0.0
O96 O 0.6401 0.39093 0.73057 0.0
O97 O 0.64199 0.35839 0.68025 0.0
Co98 Co 1.04218 0.28382 0.98002 0.0
O99 O 0.08186 0.28857 0.98712 0.0
O100 O 0.05611 0.26637 0.93641 0.0
C101 C 1.04179 0.33868 1.00635 0.0
O102 O 1.00016 0.27686 0.96323 0.0
Co103 Co 1.01023 0.28951 0.04389 0.0
O104 O 0.98009 0.2976 1.00951 0.0
C105 C 1.0334 0.22565 1.02407 0.0
C106 C 0.08077 0.27571 0.9542 0.0
C107 C 0.9792 0.28702 0.97667 0.0
O108 O 1.0397 0.23675 0.99576 0.0
O109 O 1.02264 0.24346 0.04768 0.0
O110 O 1.04493 0.33203 0.97333 0.0
O111 O 1.04057 0.31234 1.0232 0.0
Co112 Co 0.46459 0.08282 0.3548 0.0
O113 O 0.46715 0.13566 0.36023 0.0
O114 O 0.42937 0.10001 0.34077 0.0
C115 C 0.49105 0.07963 0.40993 0.0
O116 O 0.44617 1.03002 0.34888 0.0
Co117 Co 0.50677 1.03313 0.35366 0.0
O118 O 0.47656 0.9935 0.35429 0.0
C119 C 0.49823 0.06658 0.29043 0.0
C120 C 0.4407 0.13237 0.34958 0.0
C121 C 0.45167 0.99883 0.35057 0.0
O122 O 0.47698 0.0787 0.30297 0.0
O123 O 0.51352 0.04988 0.30829 0.0
O124 O 0.46573 0.08588 0.40805 0.0
O125 O 0.49957 0.07686 0.3795 0.0
Co126 Co 0.29308 0.18394 0.56117 0.0
O127 O 0.33308 0.19231 0.56549 0.0
O128 O 0.30799 0.14279 0.57178 0.0
C129 C 0.28736 0.20832 0.51141 0.0
O130 O 0.25162 0.16398 0.55757 0.0
Co131 Co 0.2578 0.24285 0.5634 0.0
O132 O 0.22503 0.20583 0.55629 0.0
C133 C 0.29066 0.23227 0.62856 0.0
C134 C 0.33237 0.16056 0.57175 0.0
C135 C 0.22778 0.17402 0.55585 0.0
O136 O 0.29534 0.20279 0.61305 0.0
O137 O 0.27819 0.25308 0.61246 0.0
O138 O 0.29102 0.17593 0.50961 0.0
O139 O 0.28795 0.22488 0.54285 0.0
Co140 Co 0.21845 1.0294 0.86846 0.0
O141 O 0.21533 0.97603 0.86203 0.0
O142 O 0.25263 1.00969 0.85785 0.0
C143 C 0.1957 0.03655 0.92148 0.0
O144 O 0.23772 0.08264 0.87338 0.0
Co145 Co 0.17872 0.08129 0.87299 0.0
O146 O 0.20928 0.12173 0.8784 0.0
C147 C 0.18176 0.04332 0.80151 0.0
C148 C 0.2413 0.97781 0.85751 0.0
C149 C 0.23349 0.11502 0.8761 0.0
O150 O 0.20257 1.02929 0.81467 0.0
O151 O 0.16901 0.0625 0.82142 0.0
O152 O 0.22101 1.03054 0.92182 0.0
O153 O 0.18483 0.03799 0.88988 0.0
Co154 Co 0.2834 0.92829 1.02526 0.0
O155 O 0.25155 0.95117 1.02521 0.0
O156 O 0.29506 0.97763 0.0404 0.0
C157 C 0.27191 0.89284 0.97305 0.0
O158 O 0.3215 0.91487 0.02764 0.0
Co159 Co 0.27958 0.84871 1.026 0.0
O160 O 0.32066 0.85749 0.02868 0.0
C161 C 0.27087 0.89462 0.08775 0.0
C162 C 0.26897 0.97993 0.03654 0.0
C163 C 0.33362 0.8882 0.02924 0.0
O164 O 0.28193 0.92125 0.07544 0.0
O165 O 0.262 0.86506 0.06826 0.0
O166 O 0.28231 0.92557 0.97435 0.0
O167 O 0.2655 0.88424 1.00236 0.0
Co168 Co 0.37871 0.42312 0.12164 0.0
O169 O 0.3389 0.41344 0.11853 0.0
O170 O 0.36399 0.46432 0.14159 0.0
C171 C 0.37881 0.39927 0.06483 0.0
O172 O 0.42053 0.44335 0.12724 0.0
Co173 Co 0.41299 0.36353 0.10893 0.0
O174 O 0.44242 0.40127 0.10321 0.0
C175 C 0.38941 0.37603 0.17603 0.0
C176 C 0.33949 0.44572 0.13206 0.0
C177 C 0.44219 0.43299 0.11587 0.0
O178 O 0.38241 0.40486 0.16839 0.0
O179 O 0.39998 0.35533 0.15471 0.0
O180 O 0.37493 0.4313 0.0729 0.0
O181 O 0.38119 0.38216 0.09086 0.0
Co182 Co 0.89278 0.17426 0.13447 0.0
O183 O 0.92616 0.15494 0.13374 0.0
O184 O 0.88805 0.13033 0.152 0.0
C185 C 0.889 0.18764 0.08 0.0
O186 O 0.8545 0.18645 0.13819 0.0
Co187 Co 0.89317 0.25289 0.12662 0.0
O188 O 0.85243 0.24058 0.12557 0.0
C189 C 0.91626 0.23446 0.19149 0.0
C190 C 0.91298 0.12843 0.14491 0.0
C191 C 0.84123 0.21167 0.13329 0.0
O192 O 0.90537 0.20208 0.18273 0.0
O193 O 0.92144 0.25399 0.16853 0.0
O194 O 0.88117 0.15569 0.0846 0.0
O195 O 0.90241 0.20845 0.10732 0.0
Co196 Co 0.2083 0.52873 0.3675 0.0
O197 O 0.20567 0.47586 0.3644 0.0
O198 O 0.24263 0.50931 0.35793 0.0
C199 C 0.18596 0.53843 0.41989 0.0
O200 O 0.22627 0.58166 0.36984 0.0
Co201 Co 0.16665 0.57866 0.36904 0.0
O202 O 0.19723 0.61933 0.37991 0.0
C203 C 0.1702 0.53714 0.2995 0.0
C204 C 0.23156 0.4777 0.35956 0.0
C205 C 0.22141 0.61361 0.37559 0.0
O206 O 0.19174 0.525 0.31352 0.0
O207 O 0.15694 0.5567 0.31822 0.0
O208 O 0.2117 0.53397 0.42119 0.0
O209 O 0.17473 0.53712 0.38791 0.0
Co210 Co 0.87976 0.92703 0.62464 0.0
O211 O 0.83989 0.91788 0.61962 0.0
O212 O 0.8649 0.96922 0.64122 0.0
C213 C 0.88146 0.90026 0.56931 0.0
O214 O 0.92167 0.94684 0.63155 0.0
Co215 Co 0.91363 0.86745 0.62005 0.0
O216 O 0.94357 0.90321 0.61158 0.0
C217 C 0.8881 0.88463 0.68428 0.0
C218 C 0.84044 0.95054 0.63163 0.0
C219 C 0.9434 0.9355 0.62163 0.0
O220 O 0.88135 0.91199 0.67281 0.0
O221 O 0.89994 0.86255 0.66638 0.0
O222 O 0.87794 0.9326 0.57549 0.0
O223 O 0.88262 0.88433 0.59644 0.0
Co224 Co 0.96225 0.06886 0.33413 0.0
O225 O 0.96687 0.12203 0.34069 0.0
O226 O 0.9283 0.08895 0.31958 0.0
C227 C 0.98641 0.06479 0.38992 0.0
O228 O 0.9418 1.01573 0.32784 0.0
Co229 Co 1.00187 1.01642 0.33493 0.0
O230 O 0.97113 0.97996 0.34176 0.0
C231 C 0.99806 0.05162 0.27171 0.0
C232 C 0.94067 0.12078 0.32994 0.0
C233 C 0.94641 0.98514 0.33482 0.0
O234 O 0.977 0.06529 0.28323 0.0
O235 O 1.01094 1.03264 0.28988 0.0
O236 O 0.9615 0.07232 0.38668 0.0
O237 O 0.99608 0.06103 0.36026 0.0
Co238 Co 0.39068 0.67944 0.63006 0.0
O239 O 0.42458 0.66131 0.62896 0.0
O240 O 0.38706 0.63535 0.64741 0.0
C241 C 0.3862 0.69284 0.5756 0.0
O242 O 0.35206 0.69033 0.63417 0.0
Co243 Co 0.38958 0.75762 0.62238 0.0
O244 O 0.34894 0.74412 0.62129 0.0
C245 C 0.41252 0.73997 0.68841 0.0
C246 C 0.41205 0.63436 0.6401 0.0
C247 C 0.33827 0.71509 0.62926 0.0
O248 O 0.40305 0.70725 0.67846 0.0
O249 O 0.41582 0.7615 0.66676 0.0
O250 O 0.37902 0.66077 0.5802 0.0
O251 O 0.39952 0.71383 0.60285 0.0
Co252 Co 0.46252 0.56986 0.83504 0.0
O253 O 0.46707 0.62303 0.84226 0.0
O254 O 0.42854 0.59 0.82082 0.0
C255 C 0.48661 0.56535 0.89076 0.0
O256 O 0.44218 0.51668 0.82796 0.0
Co257 Co 0.50223 0.51753 0.83544 0.0
O258 O 0.47147 0.48068 0.84134 0.0
C259 C 0.49819 0.55301 0.77239 0.0
C260 C 0.44085 0.62179 0.83162 0.0
C261 C 0.44677 0.4859 0.83432 0.0
O262 O 0.47725 0.56678 0.78414 0.0
O263 O 0.51109 0.53391 0.79039 0.0
O264 O 0.46165 0.57272 0.8875 0.0
O265 O 0.49637 0.56192 0.86114 0.0
Co266 Co 0.70872 1.0297 0.86815 0.0
O267 O 0.70606 0.97696 0.86572 0.0
O268 O 0.74308 1.01017 0.85898 0.0
C269 C 0.68641 0.03991 0.92032 0.0
O270 O 0.7266 0.08254 0.87021 0.0
Co271 Co 0.66686 0.07953 0.8691 0.0
O272 O 0.69749 0.1201 0.88054 0.0
C273 C 0.67081 0.03785 0.79977 0.0
C274 C 0.73199 0.97869 0.86113 0.0
C275 C 0.72168 0.11443 0.87618 0.0
O276 O 0.69223 1.02563 0.81404 0.0
O277 O 0.65751 0.05754 0.81827 0.0
O278 O 0.71214 0.0354 0.9218 0.0
O279 O 0.67517 0.03828 0.88829 0.0
Co280 Co 0.79303 0.68664 0.06548 0.0
O281 O 0.83306 0.69515 0.06973 0.0
O282 O 0.80805 0.64525 0.07503 0.0
C283 C 0.78713 0.71213 1.01648 0.0
O284 O 0.75163 0.6663 0.0617 0.0
Co285 Co 0.7573 0.74512 0.06897 0.0
O286 O 0.7247 0.70784 0.0615 0.0
C287 C 0.79036 0.73357 0.1336 0.0
C288 C 0.83241 0.66315 0.07523 0.0
C289 C 0.72769 0.67605 0.06034 0.0
O290 O 0.79529 0.70446 0.11757 0.0
O291 O 0.77769 0.75454 0.11799 0.0
O292 O 0.79086 0.67972 1.01395 0.0
O293 O 0.7877 0.72806 0.04817 0.0
Co294 Co 0.96451 0.58399 0.85549 0.0
O295 O 0.96737 0.6369 0.86101 0.0
O296 O 0.92938 0.60164 0.84175 0.0
C297 C 0.99115 0.58033 0.91042 0.0
O298 O 0.94583 0.53126 0.84974 0.0
Co299 Co 1.00647 0.53393 0.85379 0.0
O300 O 0.97617 0.49466 0.8552 0.0
C301 C 0.99766 0.56736 0.79058 0.0
C302 C 0.94092 0.63393 0.85051 0.0
C303 C 0.9513 0.50009 0.85168 0.0
O304 O 0.97663 0.57977 0.80346 0.0
O305 O 1.01291 0.55041 0.8082 0.0
O306 O 0.96593 0.58696 0.9088 0.0
O307 O 0.9995 0.57762 0.8799 0.0
Co308 Co 0.78058 0.4182 0.52223 0.0
O309 O 0.74759 0.43787 0.52627 0.0
O310 O 0.79041 0.46715 0.5403 0.0
C311 C 0.7686 0.38558 0.46877 0.0
O312 O 0.81952 0.40766 0.52165 0.0
Co313 Co 0.77992 0.33853 0.51777 0.0
O314 O 0.8209 0.35043 0.52099 0.0
C315 C 0.77127 0.37987 0.58247 0.0
C316 C 0.76402 0.46698 0.5395 0.0
C317 C 0.83275 0.38182 0.52231 0.0
O318 O 0.7812 0.40775 0.5714 0.0
O319 O 0.76332 0.35073 0.56191 0.0
O320 O 0.77763 0.41893 0.47164 0.0
O321 O 0.7637 0.37462 0.49761 0.0
Co322 Co 0.71862 0.52895 0.36956 0.0
O323 O 0.71548 0.47552 0.36286 0.0
O324 O 0.75269 0.50917 0.35843 0.0
C325 C 0.69621 0.53656 0.42294 0.0
O326 O 0.7378 0.58216 0.37466 0.0
Co327 Co 0.67855 0.58081 0.37426 0.0
O328 O 0.70927 0.62115 0.38022 0.0
C329 C 0.68152 0.5428 0.30274 0.0
C330 C 0.74137 0.47725 0.3579 0.0
C331 C 0.73349 0.61451 0.37782 0.0
O332 O 0.70246 0.52893 0.31583 0.0
O333 O 0.66874 0.56188 0.32271 0.0
O334 O 0.72144 0.53023 0.42305 0.0
O335 O 0.68527 0.53783 0.39132 0.0
C336 C 0.1564 0.11555 0.14825 0.0
Eu337 Eu 0.11147 0.07557 0.11542 0.0
C338 C 0.1829 0.12088 0.13411 0.0
C339 C 0.20616 0.11164 0.15253 0.0
C340 C 0.22675 0.09992 0.13418 0.0
C341 C 0.22424 0.09748 0.09729 0.0
C342 C 0.20342 0.1123 0.08 0.0
C343 C 0.1828 0.1238 0.09824 0.0
C344 C 0.06399 0.06677 0.15032 0.0
C345 C 0.11628 0.99835 0.1254 0.0
C346 C 1.03017 0.9909 0.04336 0.0
Eu347 Eu 0.07655 1.02783 0.07518 0.0
C348 C 1.00403 0.98927 0.05865 0.0
C349 C 0.98112 0.99946 0.04044 0.0
C350 C 0.96073 1.0117 0.05892 0.0
C351 C 0.96317 1.01397 0.0958 0.0
C352 C 0.98411 0.9996 0.11319 0.0
C353 C 1.0044 0.98732 0.09481 0.0
C354 C 0.12387 0.03518 0.03992 0.0
C355 C 0.07252 0.1047 0.06622 0.0
O356 O 0.13594 0.12778 0.13266 0.0
O357 O 0.14888 0.08359 0.15327 0.0
O358 O 0.07825 0.09619 0.14681 0.0
O359 O 0.07497 0.04273 0.13403 0.0
O360 O 0.13139 1.02826 0.12384 0.0
O361 O 0.09033 0.99278 0.11191 0.0
O362 O 1.04958 0.97719 0.05928 0.0
O363 O 1.03966 1.02163 0.03644 0.0
O364 O 0.10902 1.00625 0.04361 0.0
O365 O 0.11345 0.05987 0.05626 0.0
O366 O 0.05718 0.07679 0.0726 0.0
O367 O 0.09907 0.10755 0.07472 0.0
H368 H 0.20664 0.10912 0.18014 0.0
H369 H 0.24261 0.08874 0.14824 0.0
H370 H 0.2013 0.11123 0.05164 0.0
H371 H 0.16517 0.13087 0.08324 0.0
H372 H 0.9805 1.00151 1.01271 0.0
H373 H 0.94482 1.02289 0.04497 0.0
H374 H 0.98618 1.0009 0.14156 0.0
H375 H 1.02182 0.97975 0.10974 0.0
C376 C 0.30746 0.84807 0.44701 0.0
Eu377 Eu 0.32354 0.82697 0.3869 0.0
C378 C 0.30182 0.82789 0.47528 0.0
C379 C 0.31833 0.83859 0.508 0.0
C380 C 0.32675 0.81351 0.52705 0.0
C381 C 0.31875 0.77781 0.51321 0.0
C382 C 0.29765 0.76769 0.4846 0.0
C383 C 0.28881 0.79291 0.46604 0.0
C384 C 0.29621 0.83577 0.32436 0.0
C385 C 0.30077 0.74103 0.36572 0.0
C386 C 0.351 0.77379 0.26313 0.0
Eu387 Eu 0.34202 0.78947 0.32765 0.0
C388 C 0.34543 0.79495 0.23547 0.0
C389 C 0.3248 0.78078 0.20709 0.0
C390 C 0.31166 0.80273 0.18803 0.0
C391 C 0.31883 0.83926 0.19714 0.0
C392 C 0.34118 0.85326 0.22346 0.0
C393 C 0.35457 0.83126 0.24218 0.0
C394 C 0.37294 0.78148 0.38751 0.0
C395 C 0.36812 0.87412 0.353 0.0
O396 O 0.33332 0.85188 0.44167 0.0
O397 O 0.29058 0.83927 0.41749 0.0
O398 O 0.30537 0.86079 0.35045 0.0
O399 O 0.30198 0.80745 0.33261 0.0
O400 O 0.30435 0.76967 0.3899 0.0
O401 O 0.31284 0.74202 0.33701 0.0
O402 O 0.32873 0.76035 0.27482 0.0
O403 O 0.3709 0.78742 0.28873 0.0
O404 O 0.36523 0.75728 0.36013 0.0
O405 O 0.36425 0.80936 0.38186 0.0
O406 O 0.36338 0.84649 0.32755 0.0
O407 O 0.35591 0.87269 0.3815 0.0
H408 H 0.32806 0.8656 0.51608 0.0
H409 H 0.3421 0.82193 0.55017 0.0
H410 H 0.29047 0.74038 0.47395 0.0
H411 H 0.27493 0.78441 0.44169 0.0
H412 H 0.31741 0.75289 0.2014 0.0
H413 H 0.29533 0.79102 0.16677 0.0
H414 H 0.34754 0.88123 0.23073 0.0
H415 H 0.37083 0.84302 0.26344 0.0
C416 C 0.50667 0.05912 0.63023 0.0
Eu417 Eu 0.55742 0.05361 0.61981 0.0
C418 C 0.48245 0.07503 0.61787 0.0
C419 C 0.48144 0.11062 0.62852 0.0
C420 C 0.45742 0.12447 0.61969 0.0
C421 C 0.43368 0.10312 0.60007 0.0
C422 C 0.43493 0.06766 0.58887 0.0
C423 C 0.45894 0.05382 0.59774 0.0
C424 C 0.59924 0.03887 0.66858 0.0
C425 C 0.59974 0.12585 0.62365 0.0
C426 C 0.66412 0.04804 0.57669 0.0
Eu427 Eu 0.61278 0.05291 0.58494 0.0
C428 C 0.68842 1.0325 0.58984 0.0
C429 C 0.69413 1.00148 0.57113 0.0
C430 C 0.71828 0.98839 0.58106 0.0
C431 C 0.73767 1.00599 0.60992 0.0
C432 C 0.73186 0.03691 0.62888 0.0
C433 C 0.70759 0.04999 0.61897 0.0
C434 C 0.57087 0.06577 0.53497 0.0
C435 C 0.56983 0.98156 0.57846 0.0
O436 O 0.51313 1.03332 0.60899 0.0
O437 O 0.52848 0.07993 0.64801 0.0
O438 O 0.57373 0.0394 0.67351 0.0
O439 O 0.6005 0.04469 0.63716 0.0
O440 O 0.57398 0.11121 0.62428 0.0
O441 O 0.61869 0.10805 0.6127 0.0
O442 O 0.6569 0.07363 0.59743 0.0
O443 O 0.64275 1.02696 0.55818 0.0
O444 O 0.59639 0.06441 0.53037 0.0
O445 O 0.56935 0.06121 0.56686 0.0
O446 O 0.59595 0.99589 0.58038 0.0
O447 O 0.55061 0.99901 0.58927 0.0
H448 H 0.49898 0.12773 0.64442 0.0
H449 H 0.45724 0.15176 0.62923 0.0
H450 H 0.41729 0.05046 0.5733 0.0
H451 H 0.4589 1.02624 0.58937 0.0
H452 H 0.6802 0.98763 0.54817 0.0
H453 H 0.72213 0.96489 0.56532 0.0
H454 H 0.74609 0.05109 0.65139 0.0
H455 H 0.70412 0.07418 0.63382 0.0
C456 C 0.41639 0.26942 0.84444 0.0
Eu457 Eu 0.36632 0.28209 0.85023 0.0
C458 C 0.44292 0.28244 0.83265 0.0
C459 C 0.46629 0.26794 0.84289 0.0
C460 C 0.49126 0.27745 0.83007 0.0
C461 C 0.49356 0.30185 0.80667 0.0
C462 C 0.47011 0.31691 0.79701 0.0
C463 C 0.44503 0.30723 0.8098 0.0
C464 C 0.32267 0.23284 0.86338 0.0
C465 C 0.32587 0.27943 0.77752 0.0
C466 C 0.26138 0.3261 0.85672 0.0
Eu467 Eu 0.3124 0.31704 0.85172 0.0
C468 C 0.23601 0.31297 0.87166 0.0
C469 C 0.2306 0.32978 0.90417 0.0
C470 C 0.2056 0.32009 0.91687 0.0
C471 C 0.18509 0.29337 0.89739 0.0
C472 C 0.19056 0.27629 0.86496 0.0
C473 C 0.21568 0.28597 0.85226 0.0
C474 C 0.35619 0.36673 0.83968 0.0
C475 C 0.35384 0.32412 0.92303 0.0
O476 O 0.40966 0.28663 0.87292 0.0
O477 O 0.39521 0.2581 0.81995 0.0
O478 O 0.34794 0.22797 0.86192 0.0
O479 O 0.32239 0.26442 0.85887 0.0
O480 O 0.35125 0.2787 0.79211 0.0
O481 O 0.30685 0.29006 0.7958 0.0
O482 O 0.26859 0.30617 0.83031 0.0
O483 O 0.28273 0.34331 0.87867 0.0
O484 O 0.33081 0.37152 0.84085 0.0
O485 O 0.3565 0.33498 0.84371 0.0
O486 O 0.32777 0.32065 0.90912 0.0
O487 O 0.37322 0.31424 0.9048 0.0
H488 H 0.46507 0.24853 0.86026 0.0
H489 H 0.50855 0.26478 0.83775 0.0
H490 H 0.47107 0.33614 0.77948 0.0
H491 H 0.42722 0.31869 0.80143 0.0
H492 H 0.24544 0.35113 0.91954 0.0
H493 H 0.20205 0.33438 0.9416 0.0
H494 H 0.17541 0.25546 0.84933 0.0
H495 H 0.21893 0.2727 0.82689 0.0
C496 C 0.10145 0.95287 0.56152 0.0
Eu497 Eu 0.09592 1.01778 0.57465 0.0
C498 C 0.09709 0.92879 0.58645 0.0
C499 C 0.10336 0.89497 0.58059 0.0
C500 C 0.09714 0.87237 0.60454 0.0
C501 C 0.08536 0.88405 0.63461 0.0
C502 C 0.08012 0.91822 0.64089 0.0
C503 C 0.08551 0.94021 0.61667 0.0
C504 C 0.1298 0.07398 0.56082 0.0
C505 C 0.12121 0.04559 0.65944 0.0
C506 C 0.08069 0.14898 0.61996 0.0
Eu507 Eu 0.08233 0.08281 0.6083 0.0
C508 C 0.09317 0.17388 0.59905 0.0
C509 C 0.11092 0.20415 0.6161 0.0
C510 C 0.12799 0.22354 0.59698 0.0
C511 C 0.1279 0.21257 0.5606 0.0
C512 C 0.10979 0.18251 0.54363 0.0
C513 C 0.0924 0.16368 0.56255 0.0
C514 C 1.04709 1.02779 0.62155 0.0
C515 C 0.05663 0.05367 0.52339 0.0
O516 O 0.07908 0.96435 0.55024 0.0
O517 O 0.12252 0.97797 0.57172 0.0
O518 O 0.12169 0.04529 0.53859 0.0
O519 O 0.12108 0.07062 0.5898 0.0
O520 O 0.11457 1.01865 0.63327 0.0
O521 O 0.11238 0.07521 0.65519 0.0
O522 O 0.0987 0.13467 0.63777 0.0
O523 O 0.05957 0.12611 0.60377 0.0
O524 O 0.05515 0.05673 0.64355 0.0
O525 O 0.05674 1.03023 0.59286 0.0
O526 O 0.06167 0.07981 0.55044 0.0
O527 O 0.06722 1.02494 0.52635 0.0
H528 H 0.11214 0.88585 0.55722 0.0
H529 H 0.10074 0.84564 0.59921 0.0
H530 H 0.07023 0.9272 0.66337 0.0
H531 H 0.07951 0.96575 0.62089 0.0
H532 H 0.11225 0.21211 0.64433 0.0
H533 H 0.14109 0.24724 0.61074 0.0
H534 H 0.10923 0.17324 0.51576 0.0
H535 H 0.07915 0.14039 0.54858 0.0
C536 C 0.29069 0.74869 0.75513 0.0
Eu537 Eu 0.32075 0.77907 0.8136 0.0
C538 C 0.26067 0.7443 0.74405 0.0
C539 C 0.24191 0.72913 0.76446 0.0
C540 C 0.21362 0.72831 0.75593 0.0
C541 C 0.20327 0.74253 0.7267 0.0
C542 C 0.22222 0.75788 0.70644 0.0
C543 C 0.25057 0.75848 0.71487 0.0
C544 C 0.3027 0.78436 0.87758 0.0
C545 C 0.30997 0.85959 0.84466 0.0
C546 C 0.39389 0.85236 0.93367 0.0
Eu547 Eu 0.36425 0.82252 0.87445 0.0
C548 C 0.42356 0.85713 0.94706 0.0
C549 C 0.44357 0.8705 0.92732 0.0
C550 C 0.4716 0.87407 0.93983 0.0
C551 C 0.48044 0.86455 0.97256 0.0
C552 C 0.46023 0.84977 0.99151 0.0
C553 C 0.43212 0.84641 0.97904 0.0
C554 C 0.38212 0.81714 0.81072 0.0
C555 C 0.3748 0.74207 0.84266 0.0
O556 O 0.30386 0.78089 0.7594 0.0
O557 O 0.2988 0.7316 0.7802 0.0
O558 O 0.28655 0.77562 0.84787 0.0
O559 O 0.32721 0.78301 0.87149 0.0
O560 O 0.30185 0.83073 0.82051 0.0
O561 O 0.33326 0.86225 0.8671 0.0
O562 O 0.3808 0.82012 0.92872 0.0
O563 O 0.38676 0.86951 0.90821 0.0
O564 O 0.39853 0.82431 0.84027 0.0
O565 O 0.35767 0.81885 0.81672 0.0
O566 O 0.38232 0.7702 0.86785 0.0
O567 O 0.35235 0.7403 0.81917 0.0
H568 H 0.24904 0.71867 0.78767 0.0
H569 H 0.20003 0.71738 0.77308 0.0
H570 H 0.21529 0.76921 0.68379 0.0
H571 H 0.26467 0.7706 0.69891 0.0
H572 H 0.43764 0.87799 0.90198 0.0
H573 H 0.48627 0.88392 0.92338 0.0
H574 H 0.46594 0.84152 1.01646 0.0
H575 H 0.41701 0.83549 0.99445 0.0
C576 C 0.63775 0.15434 0.14749 0.0
Eu577 Eu 0.60873 0.09387 0.1218 0.0
C578 C 0.66769 0.16619 0.14949 0.0
C579 C 0.68656 0.1453 0.16096 0.0
C580 C 0.71463 0.15438 0.15911 0.0
C581 C 0.72471 0.18474 0.14591 0.0
C582 C 0.70565 0.20559 0.13434 0.0
C583 C 0.67745 0.19647 0.13629 0.0
C584 C 0.62909 1.033 0.11857 0.0
C585 C 0.6192 0.06008 0.04096 0.0
C586 C 0.5388 0.96769 0.05515 0.0
Eu587 Eu 0.56671 1.02879 0.08197 0.0
C588 C 0.50906 0.95379 0.05017 0.0
C589 C 0.4898 0.973 0.03635 0.0
C590 C 0.46161 0.96054 0.03308 0.0
C591 C 0.45186 0.92843 0.04337 0.0
C592 C 0.47128 0.90989 0.05842 0.0
C593 C 0.49961 0.92233 0.06149 0.0
C594 C 0.54602 0.0892 0.08542 0.0
C595 C 0.55644 0.06262 0.16288 0.0
O596 O 0.62418 0.14736 0.11546 0.0
O597 O 0.63023 0.13091 0.16721 0.0
O598 O 0.64424 0.0636 0.12632 0.0
O599 O 0.6043 0.03694 0.12046 0.0
O600 O 0.62707 0.08562 0.06867 0.0
O601 O 0.59659 0.03655 0.04014 0.0
O602 O 0.55059 0.97534 0.08801 0.0
O603 O 0.54677 0.9914 0.036 0.0
O604 O 0.53098 0.05848 0.07785 0.0
O605 O 0.57091 0.08567 0.08347 0.0
O606 O 0.54972 0.03592 0.13607 0.0
O607 O 0.57793 0.08758 0.16274 0.0
H608 H 0.67961 0.1213 0.17052 0.0
H609 H 0.72823 0.13682 0.16712 0.0
H610 H 0.71243 0.22935 0.12434 0.0
H611 H 0.66321 0.21281 0.12701 0.0
H612 H 0.49645 0.99795 0.02841 0.0
H613 H 0.44751 0.97659 1.02295 0.0
H614 H 0.46476 0.8853 0.06704 0.0
H615 H 0.51415 0.90739 0.07276 0.0
C616 C 0.40328 0.36446 0.40673 0.0
Eu617 Eu 0.3564 0.32823 0.37503 0.0
C618 C 0.43056 0.35371 0.4137 0.0
C619 C 0.43323 0.32395 0.4295 0.0
C620 C 0.45511 0.30586 0.42375 0.0
C621 C 0.47406 0.3169 0.4016 0.0
C622 C 0.47393 0.34955 0.39076 0.0
C623 C 0.45231 0.36797 0.3969 0.0
C624 C 0.31836 0.29132 0.40679 0.0
C625 C 0.36996 0.24698 0.34813 0.0
C626 C 0.26915 0.24314 0.29251 0.0
Eu627 Eu 0.31511 0.28031 0.32565 0.0
C628 C 0.24102 0.25184 0.29011 0.0
C629 C 0.23566 0.28257 0.27766 0.0
C630 C 0.21474 0.29952 0.2897 0.0
C631 C 0.19944 0.28608 0.31453 0.0
C632 C 0.20149 0.25245 0.32183 0.0
C633 C 0.22206 0.23517 0.30932 0.0
C634 C 0.35376 0.31526 0.29377 0.0
C635 C 0.30128 0.36113 0.35436 0.0
O636 O 0.39453 0.36325 0.37329 0.0
O637 O 0.38373 0.35162 0.42371 0.0
O638 O 0.32752 0.3245 0.41642 0.0
O639 O 0.32979 0.27936 0.38121 0.0
O640 O 0.3795 0.27984 0.36408 0.0
O641 O 0.34404 0.23958 0.33217 0.0
O642 O 0.27963 0.23994 0.32429 0.0
O643 O 0.28696 0.26125 0.27675 0.0
O644 O 0.34485 0.28196 0.28581 0.0
O645 O 0.34216 0.32872 0.31863 0.0
O646 O 0.29133 0.32778 0.3401 0.0
O647 O 0.32781 0.36903 0.36777 0.0
H648 H 0.41699 0.31246 0.44297 0.0
H649 H 0.4551 0.28088 0.43264 0.0
H650 H 0.48832 0.35844 0.37346 0.0
H651 H 0.45085 0.39102 0.38477 0.0
H652 H 0.24961 0.29582 0.26227 0.0
H653 H 0.21328 0.3254 0.28365 0.0
H654 H 0.18972 0.24167 0.34093 0.0
H655 H 0.2255 0.21122 0.31878 0.0
C656 C 0.60159 0.45315 0.06173 0.0
Eu657 Eu 0.59596 0.51795 0.07552 0.0
C658 C 0.59649 0.42888 0.08632 0.0
C659 C 0.60292 0.39512 0.08088 0.0
C660 C 0.59637 0.37261 0.10482 0.0
C661 C 0.5841 0.38434 0.13444 0.0
C662 C 0.57852 0.41838 0.14018 0.0
C663 C 0.58426 0.44027 0.11599 0.0
C664 C 0.62998 0.57477 0.06322 0.0
C665 C 0.62072 0.54483 0.1606 0.0
C666 C 0.58011 0.64823 0.12212 0.0
Eu667 Eu 0.58167 0.58211 0.1097 0.0
C668 C 0.59419 0.67309 0.10251 0.0
C669 C 0.60842 0.70547 0.12006 0.0
C670 C 0.62629 0.72596 0.10276 0.0
C671 C 0.63039 0.71401 0.06786 0.0
C672 C 0.616 0.68166 0.05047 0.0
C673 C 0.59805 0.66152 0.06757 0.0
C674 C 0.54623 0.52641 0.12136 0.0
C675 C 0.55654 0.55396 1.02442 0.0
O676 O 0.57949 0.46481 0.04981 0.0
O677 O 0.62259 0.47817 0.07277 0.0
O678 O 0.62209 0.54643 0.04043 0.0
O679 O 0.62086 0.57079 0.09182 0.0
O680 O 0.61432 0.5181 0.13418 0.0
O681 O 0.61166 0.57436 0.15656 0.0
O682 O 0.59693 0.6334 0.14118 0.0
O683 O 0.55952 0.62575 0.10403 0.0
O684 O 0.55389 0.55509 0.14386 0.0
O685 O 0.55637 0.52958 0.09315 0.0
O686 O 0.56083 0.57957 0.05194 0.0
O687 O 0.56774 0.5256 0.02697 0.0
H688 H 0.61221 0.38603 0.05794 0.0
H689 H 0.60027 0.34598 0.09993 0.0
H690 H 0.5683 0.42739 0.16233 0.0
H691 H 0.57822 0.4658 0.1199 0.0
H692 H 0.60625 0.71445 0.14728 0.0
H693 H 0.63663 0.75129 0.11658 0.0
H694 H 0.6189 0.67164 1.02378 0.0
H695 H 0.58813 0.63624 0.05369 0.0
C696 C 0.79192 0.25024 0.24966 0.0
Eu697 Eu 0.8215 0.27904 0.3089 0.0
C698 C 0.76179 0.2456 0.23941 0.0
C699 C 0.74363 0.22964 0.26005 0.0
C700 C 0.71527 0.22907 0.25289 0.0
C701 C 0.70421 0.24429 0.22477 0.0
C702 C 0.72256 0.26031 0.20418 0.0
C703 C 0.751 0.26073 0.21129 0.0
C704 C 0.80237 0.28156 0.37204 0.0
C705 C 0.80996 0.35892 0.3419 0.0
C706 C 0.89265 0.35019 0.43156 0.0
Eu707 Eu 0.86394 0.32141 0.37143 0.0
C708 C 0.92224 0.35491 0.44536 0.0
C709 C 0.94238 0.36984 0.42667 0.0
C710 C 0.97034 0.37336 0.43945 0.0
C711 C 0.97897 0.36224 0.4714 0.0
C712 C 0.95867 0.34601 0.4893 0.0
C713 C 0.9306 0.34268 0.47656 0.0
C714 C 0.88318 0.31752 0.3085 0.0
C715 C 0.87491 0.24139 0.33879 0.0
O716 O 0.80466 0.28271 0.25514 0.0
O717 O 0.80062 0.23218 0.27355 0.0
O718 O 0.78669 0.27323 0.34197 0.0
O719 O 0.82709 0.28122 0.3665 0.0
O720 O 0.80206 0.33039 0.31724 0.0
O721 O 0.83316 0.36133 0.36437 0.0
O722 O 0.87961 0.31789 0.42574 0.0
O723 O 0.88575 0.36793 0.40652 0.0
O724 O 0.89899 0.32427 0.33853 0.0
O725 O 0.85853 0.31904 0.31379 0.0
O726 O 0.88194 0.26907 0.36457 0.0
O727 O 0.85302 0.24012 0.31451 0.0
H728 H 0.75131 0.21845 0.28251 0.0
H729 H 0.70221 0.21756 0.27028 0.0
H730 H 0.71506 0.27217 0.18217 0.0
H731 H 0.76463 0.27345 0.19518 0.0
H732 H 0.93663 0.3786 0.40194 0.0
H733 H 0.98515 0.38447 0.42382 0.0
H734 H 0.96428 0.33667 0.5137 0.0
H735 H 0.9154 0.33061 0.49116 0.0
C736 C 0.13517 0.6553 0.64443 0.0
Eu737 Eu 0.1069 0.59395 0.62029 0.0
C738 C 0.16505 0.66764 0.64681 0.0
C739 C 0.18408 0.64681 0.65797 0.0
C740 C 0.21213 0.65624 0.65615 0.0
C741 C 0.22201 0.68689 0.64331 0.0
C742 C 0.2028 0.70781 0.6323 0.0
C743 C 0.17463 0.69831 0.63416 0.0
C744 C 0.12791 0.53381 0.62068 0.0
C745 C 0.11852 0.55761 0.54079 0.0
C746 C 1.03813 0.46557 0.55628 0.0
Eu747 Eu 0.06581 0.52714 0.58213 0.0
C748 C 1.00837 0.45161 0.55 0.0
C749 C 0.98937 0.47099 0.53588 0.0
C750 C 0.96111 0.4583 0.53128 0.0
C751 C 0.95105 0.42577 0.54052 0.0
C752 C 0.97025 0.40697 0.55569 0.0
C753 C 0.9986 0.41967 0.56015 0.0
C754 C 1.04436 0.58684 0.58238 0.0
C755 C 0.055 0.56303 0.66217 0.0
O756 O 0.12205 0.64698 0.6122 0.0
O757 O 0.12766 0.63261 0.6649 0.0
O758 O 0.14277 0.56461 0.62708 0.0
O759 O 0.10298 0.53748 0.62168 0.0
O760 O 0.12567 0.58426 0.56757 0.0
O761 O 0.09642 0.53348 0.54078 0.0
O762 O 1.04891 0.47434 0.58947 0.0
O763 O 1.0469 0.48844 0.53666 0.0
O764 O 1.02968 0.55592 0.57591 0.0
O765 O 0.06937 0.58359 0.58117 0.0
O766 O 1.04891 0.53544 0.63624 0.0
O767 O 0.07587 0.58855 0.66112 0.0
H768 H 0.17726 0.62259 0.66718 0.0
H769 H 0.22586 0.63868 0.66382 0.0
H770 H 0.20944 0.73184 0.62269 0.0
H771 H 0.16026 0.71462 0.62517 0.0
H772 H 0.99628 0.49623 0.52872 0.0
H773 H 0.94722 0.47451 0.52101 0.0
H774 H 0.9636 0.38199 0.56344 0.0
H775 H 1.01293 0.40452 0.57153 0.0
C776 C 0.91645 0.76932 0.34891 0.0
Eu777 Eu 0.86647 0.78217 0.35473 0.0
C778 C 0.94258 0.78128 0.33574 0.0
C779 C 0.96577 0.76609 0.34507 0.0
C780 C 0.99044 0.77498 0.33142 0.0
C781 C 0.9926 0.79946 0.30809 0.0
C782 C 0.96931 0.81509 0.2992 0.0
C783 C 0.94452 0.80602 0.31283 0.0
C784 C 0.82284 0.7328 0.36753 0.0
C785 C 0.82574 0.7796 0.28258 0.0
C786 C 0.76148 0.82599 0.36238 0.0
Eu787 Eu 0.81252 0.81712 0.35691 0.0
C788 C 0.73594 0.81218 0.37672 0.0
C789 C 0.73022 0.82818 0.40941 0.0
C790 C 0.70507 0.818 0.42158 0.0
C791 C 0.68468 0.79156 0.4014 0.0
C792 C 0.69048 0.77526 0.36879 0.0
C793 C 0.71576 0.78544 0.35662 0.0
C794 C 0.85614 0.86675 0.3441 0.0
C795 C 0.85409 0.82287 0.4283 0.0
O796 O 0.91011 0.78843 0.37651 0.0
O797 O 0.89497 0.75641 0.32527 0.0
O798 O 0.84807 0.72789 0.36592 0.0
O799 O 0.82261 0.76448 0.36344 0.0
O800 O 0.85137 0.77972 0.29681 0.0
O801 O 0.80663 0.78938 0.30123 0.0
O802 O 0.76873 0.80707 0.3353 0.0
O803 O 0.78282 0.84241 0.38484 0.0
O804 O 0.83082 0.87159 0.34573 0.0
O805 O 0.8565 0.83504 0.34826 0.0
O806 O 0.82813 0.82037 0.41427 0.0
O807 O 0.87337 0.81278 0.41 0.0
H808 H 0.96464 0.74672 0.36249 0.0
H809 H 1.00761 0.76188 0.33848 0.0
H810 H 0.97021 0.83436 0.28171 0.0
H811 H 0.92681 0.81797 0.30518 0.0
H812 H 0.74494 0.84932 0.42533 0.0
H813 H 0.7013 0.83174 0.44647 0.0
H814 H 0.67545 0.75467 0.35259 0.0
H815 H 0.71923 0.77276 0.3311 0.0
C816 C 0.80995 0.34649 0.95191 0.0
Eu817 Eu 0.82468 0.32719 0.89057 0.0
C818 C 0.80628 0.32545 0.98004 0.0
C819 C 0.82413 0.33573 1.0118 0.0
C820 C 0.83309 0.31039 0.03005 0.0
C821 C 0.82433 0.27475 1.01645 0.0
C822 C 0.80244 0.26505 0.98877 0.0
C823 C 0.7931 0.29052 0.97098 0.0
C824 C 0.79667 0.33756 0.82918 0.0
C825 C 0.80119 0.24189 0.86781 0.0
C826 C 0.85482 0.27263 0.76805 0.0
Eu827 Eu 0.84336 0.29055 0.83121 0.0
C828 C 0.85026 0.29153 0.73845 0.0
C829 C 0.83239 0.27431 0.7084 0.0
C830 C 0.81869 0.2935 0.68658 0.0
C831 C 0.8225 0.33018 0.69474 0.0
C832 C 0.84257 0.34739 0.72272 0.0
C833 C 0.85663 0.32819 0.74413 0.0
C834 C 0.87365 0.28178 0.89138 0.0
C835 C 0.86835 0.37522 0.85584 0.0
O836 O 0.83543 0.35221 0.94525 0.0
O837 O 0.79233 0.33721 0.92307 0.0
O838 O 0.80492 0.36146 0.85655 0.0
O839 O 0.80324 0.30886 0.83555 0.0
O840 O 0.80537 0.26989 0.89276 0.0
O841 O 0.81291 0.24357 0.83894 0.0
O842 O 0.83192 0.25995 0.77885 0.0
O843 O 0.87367 0.28807 0.79421 0.0
O844 O 0.86531 0.2576 0.86424 0.0
O845 O 0.86544 0.30985 0.8856 0.0
O846 O 0.86351 0.34773 0.83027 0.0
O847 O 0.85657 0.37341 0.88466 0.0
H848 H 0.83409 0.36267 1.01972 0.0
H849 H 0.84908 0.31854 0.05252 0.0
H850 H 0.7947 0.23782 0.9783 0.0
H851 H 0.77833 0.28224 0.94741 0.0
H852 H 0.82724 0.24606 0.70351 0.0
H853 H 0.80428 0.2795 0.66414 0.0
H854 H 0.84637 0.3756 0.72935 0.0
H855 H 0.87084 0.34221 0.76665 0.0
C856 C 0.90394 0.86382 0.91307 0.0
Eu857 Eu 0.8572 0.82913 0.87958 0.0
C858 C 0.93171 0.85363 0.91446 0.0
C859 C 0.93777 0.82605 0.93218 0.0
C860 C 0.95872 0.80758 0.92294 0.0
C861 C 0.97382 0.81661 0.89613 0.0
C862 C 0.97079 0.84742 0.88263 0.0
C863 C 0.9499 0.86597 0.89187 0.0
C864 C 0.81756 0.79517 0.91172 0.0
C865 C 0.87097 0.74966 0.85057 0.0
C866 C 0.77128 0.73746 0.80059 0.0
Eu867 Eu 0.81395 0.7824 0.83117 0.0
C868 C 0.74319 0.74508 0.79234 0.0
C869 C 0.74009 0.77741 0.78189 0.0
C870 C 0.71937 0.7951 0.79344 0.0
C871 C 0.70181 0.78061 0.81549 0.0
C872 C 0.7017 0.74578 0.82025 0.0
C873 C 0.72215 0.72784 0.80823 0.0
C874 C 0.84232 0.83114 0.79982 0.0
C875 C 0.80111 0.86167 0.85936 0.0
O876 O 0.89316 0.86957 0.8823 0.0
O877 O 0.88597 0.84522 0.92813 0.0
O878 O 0.82732 0.82823 0.92043 0.0
O879 O 0.82886 0.78234 0.88659 0.0
O880 O 0.8793 0.78021 0.8719 0.0
O881 O 0.84655 0.74476 0.83027 0.0
O882 O 0.77951 0.74248 0.83456 0.0
O883 O 0.79037 0.75066 0.783 0.0
O884 O 0.81575 0.82223 0.79457 0.0
O885 O 0.85302 0.81381 0.82135 0.0
O886 O 0.79005 0.82789 0.84995 0.0
O887 O 0.82846 0.86947 0.86801 0.0
H888 H 0.92455 0.81627 0.95035 0.0
H889 H 0.96081 0.78384 0.93361 0.0
H890 H 0.98224 0.85467 0.86173 0.0
H891 H 0.94608 0.88751 0.87831 0.0
H892 H 0.75592 0.79134 0.76949 0.0
H893 H 0.71972 0.82196 0.78947 0.0
H894 H 0.6883 0.73424 0.83732 0.0
H895 H 0.72409 0.70294 0.81653 0.0
C896 C 0.65686 0.61653 0.65715 0.0
Eu897 Eu 0.61254 0.5794 0.61933 0.0
C898 C 0.68551 0.61023 0.65549 0.0
C899 C 0.69472 0.5833 0.67169 0.0
C900 C 0.71436 0.56542 0.65756 0.0
C901 C 0.72534 0.57479 0.62767 0.0
C902 C 0.72007 0.6056 0.61578 0.0
C903 C 0.70031 0.62347 0.62985 0.0
C904 C 0.56367 0.56921 0.65083 0.0
C905 C 0.61787 0.50144 0.62589 0.0
C906 C 0.53202 0.49439 0.54341 0.0
Eu907 Eu 0.57801 0.53155 0.57597 0.0
C908 C 0.50566 0.49383 0.55811 0.0
C909 C 0.48309 0.50378 0.53888 0.0
C910 C 0.46263 0.51708 0.55644 0.0
C911 C 0.46464 0.52069 0.59339 0.0
C912 C 0.48529 0.50681 0.61195 0.0
C913 C 0.50562 0.49341 0.59449 0.0
C914 C 0.62654 0.54014 0.54362 0.0
C915 C 0.57204 0.61164 0.57321 0.0
O916 O 0.64473 0.6254 0.62884 0.0
O917 O 0.6406 0.59278 0.66888 0.0
O918 O 0.57803 0.59897 0.64855 0.0
O919 O 0.5752 0.54557 0.63467 0.0
O920 O 0.63277 0.53187 0.62574 0.0
O921 O 0.59204 0.49572 0.61176 0.0
O922 O 0.55104 0.48084 0.56032 0.0
O923 O 0.54198 0.52463 0.53576 0.0
O924 O 0.61116 0.51091 0.54526 0.0
O925 O 0.6156 0.56445 0.56 0.0
O926 O 0.55834 0.57976 0.56917 0.0
O927 O 0.59709 0.61866 0.58978 0.0
H928 H 0.68432 0.57308 0.69219 0.0
H929 H 0.71861 0.54196 0.66743 0.0
H930 H 0.72859 0.61339 0.59292 0.0
H931 H 0.69419 0.64479 0.61749 0.0
H932 H 0.48281 0.50475 0.51097 0.0
H933 H 0.44694 0.5279 0.54161 0.0
H934 H 0.48705 0.50919 0.64039 0.0
H935 H 0.52278 0.48613 0.6102 0.0
C936 C 1.00588 0.55844 0.12901 0.0
Eu937 Eu 0.05667 0.55234 0.1193 0.0
C938 C 0.98196 0.57517 0.11718 0.0
C939 C 0.95841 0.55476 0.09634 0.0
C940 C 0.93457 0.56917 0.08812 0.0
C941 C 0.93351 0.60442 0.10067 0.0
C942 C 0.95733 0.62503 0.12091 0.0
C943 C 0.98119 0.61061 0.12912 0.0
C944 C 0.09839 0.538 0.16846 0.0
C945 C 0.09938 0.62414 0.12213 0.0
C946 C 0.16396 0.54517 0.0776 0.0
Eu947 Eu 0.11254 0.55072 0.08488 0.0
C948 C 0.18797 0.52913 0.09098 0.0
C949 C 0.19346 0.4979 0.07241 0.0
C950 C 0.21743 0.48445 0.0825 0.0
C951 C 0.23686 0.50187 0.11142 0.0
C952 C 0.23122 0.53295 0.13028 0.0
C953 C 0.20715 0.54639 0.1202 0.0
C954 C 0.07076 0.56364 0.03462 0.0
C955 C 0.06944 0.47953 0.08017 0.0
O956 O 1.01227 0.53314 0.10702 0.0
O957 O 1.02771 0.57841 0.14773 0.0
O958 O 0.07289 0.53879 0.17339 0.0
O959 O 0.09963 0.54346 0.13695 0.0
O960 O 0.07357 0.60967 0.12279 0.0
O961 O 0.1184 0.60619 0.1117 0.0
O962 O 0.15673 0.57073 0.09839 0.0
O963 O 0.14261 0.52455 0.05848 0.0
O964 O 0.09622 0.56177 0.02997 0.0
O965 O 0.06927 0.5593 0.06656 0.0
O966 O 0.09552 0.49393 0.08169 0.0
O967 O 1.0501 0.4971 0.09036 0.0
H968 H 0.95818 0.52732 0.08697 0.0
H969 H 0.91688 0.55255 0.07202 0.0
H970 H 0.95731 0.65213 0.13145 0.0
H971 H 0.99877 0.6271 0.14558 0.0
H972 H 0.17952 0.48419 0.04939 0.0
H973 H 0.22111 0.46084 0.06681 0.0
H974 H 0.24546 0.54702 0.15284 0.0
H975 H 0.20387 0.57071 0.13497 0.0
C976 C 1.02602 0.17124 0.05138 0.0
C977 C 1.04127 0.19215 0.03124 0.0
H978 H 1.02365 0.12624 0.07747 0.0
C979 C 0.06571 0.18244 1.02059 0.0
H980 H 1.0071 0.17818 0.05991 0.0
C981 C 0.0755 0.15349 0.03145 0.0
C982 C 0.06063 0.1331 0.05224 0.0
H983 H 0.07799 0.19821 1.00531 0.0
H984 H 0.09496 0.14733 1.02401 0.0
C985 C 1.03541 0.14157 0.06133 0.0
C986 C 0.24963 0.8637 0.2525 0.0
C987 C 0.22389 0.84379 0.25459 0.0
H988 H 0.29277 0.87702 0.2734 0.0
C989 C 0.22246 0.82069 0.27927 0.0
H990 H 0.25142 0.88159 0.23363 0.0
C991 C 0.24623 0.81728 0.30106 0.0
C992 C 0.27178 0.83755 0.29929 0.0
H993 H 0.20305 0.80465 0.2812 0.0
H994 H 0.24454 0.79927 0.31983 0.0
C995 C 0.27328 0.86102 0.27506 0.0
C996 C 0.56516 0.90182 0.51018 0.0
C997 C 0.54683 0.87711 0.52267 0.0
H998 H 0.58731 0.954 0.51892 0.0
C999 C 0.53548 0.88703 0.55358 0.0
H1000 H 0.5744 0.89474 0.4866 0.0
C1001 C 0.54244 0.92135 0.57173 0.0
C1002 C 0.56161 0.94556 0.55981 0.0
H1003 H 0.52135 0.86827 0.56369 0.0
H1004 H 0.53347 0.9287 0.59545 0.0
C1005 C 0.57279 0.93556 0.52887 0.0
C1006 C 0.54433 0.32235 0.74183 0.0
C1007 C 0.57006 0.32365 0.76213 0.0
H1008 H 0.5003 0.31413 0.73953 0.0
C1009 C 0.57051 0.31869 0.79748 0.0
H1010 H 0.54317 0.32599 0.71448 0.0
C1011 C 0.54584 0.31229 0.81206 0.0
C1012 C 0.52 0.31049 0.79165 0.0
H1013 H 0.58994 0.31974 0.81397 0.0
H1014 H 0.54709 0.3089 0.83948 0.0
C1015 C 0.51967 0.31582 0.75634 0.0
C1016 C 1.03768 0.81319 0.66175 0.0
C1017 C 1.0469 0.81682 0.698 0.0
H1018 H 1.04381 0.83096 0.61306 0.0
C1019 C 0.0692 0.84292 0.71353 0.0
H1020 H 1.02033 0.79351 0.64918 0.0
C1021 C 0.08249 0.86452 0.69271 0.0
C1022 C 0.07385 0.85959 0.65627 0.0
H1023 H 0.07679 0.84601 0.74138 0.0
H1024 H 0.09952 0.88486 0.70486 0.0
C1025 C 0.05128 0.83413 0.64098 0.0
C1026 C 0.55019 0.85363 1.0199 0.0
C1027 C 0.56802 0.87989 1.00883 0.0
H1028 H 0.50876 0.8269 1.01594 0.0
C1029 C 0.55693 0.90215 0.98782 0.0
H1030 H 0.55841 0.83595 0.03586 0.0
C1031 C 0.52856 0.89805 0.97756 0.0
C1032 C 0.51052 0.87044 0.98658 0.0
H1033 H 0.57025 0.92267 0.97895 0.0
H1034 H 0.52094 0.91652 0.9622 0.0
C1035 C 0.52172 0.84861 1.00848 0.0
C1036 C 0.54723 0.16026 0.16207 0.0
C1037 C 0.51915 0.15733 0.16601 0.0
H1038 H 0.57747 0.14381 0.1312 0.0
C1039 C 0.49972 0.13441 0.14096 0.0
H1040 H 0.56258 0.17802 0.18075 0.0
C1041 C 0.50847 0.11352 0.11339 0.0
C1042 C 0.53671 0.11631 0.10965 0.0
H1043 H 0.47784 0.13278 0.14269 0.0
H1044 H 0.49317 0.09478 0.09529 0.0
C1045 C 0.55578 0.14098 0.13339 0.0
C1046 C 0.19985 0.3447 0.39993 0.0
C1047 C 0.17514 0.35788 0.39428 0.0
H1048 H 0.22593 0.31031 0.37915 0.0
C1049 C 0.15848 0.34829 0.36128 0.0
H1050 H 0.21288 0.35121 0.42521 0.0
C1051 C 0.16629 0.32519 0.33454 0.0
C1052 C 0.19027 0.31073 0.34119 0.0
H1053 H 0.13916 0.35793 0.35653 0.0
H1054 H 0.15333 0.31787 0.30927 0.0
C1055 C 0.20706 0.32085 0.37386 0.0
C1056 C 1.01931 1.02709 0.21741 0.0
C1057 C 1.00969 0.05586 0.23634 0.0
H1058 H 1.04266 1.00723 0.17704 0.0
C1059 C 1.0174 0.08832 0.22497 0.0
H1060 H 1.01472 1.00154 0.22498 0.0
C1061 C 1.03427 0.09166 0.19716 0.0
C1062 C 1.0443 0.0628 0.17893 0.0
H1063 H 1.0116 0.11162 0.23872 0.0
H1064 H 1.03995 0.11735 0.19037 0.0
C1065 C 1.03584 1.03036 0.18961 0.0
C1066 C 0.34163 0.69654 0.54103 0.0
C1067 C 0.37026 0.70795 0.54928 0.0
H1068 H 0.30242 0.71054 0.52429 0.0
C1069 C 0.38191 0.74004 0.5411 0.0
H1070 H 0.33216 0.67201 0.54761 0.0
C1071 C 0.36501 0.76208 0.52836 0.0
C1072 C 0.33613 0.75252 0.52385 0.0
H1073 H 0.40395 0.74926 0.54722 0.0
H1074 H 0.37458 0.78722 0.52325 0.0
C1075 C 0.32459 0.71882 0.52841 0.0
C1076 C 0.6668 0.04882 0.73512 0.0
C1077 C 0.65804 1.02881 0.76096 0.0
H1078 H 0.65623 0.06714 0.68557 0.0
C1079 C 0.63104 1.00947 0.75297 0.0
H1080 H 0.68675 0.06556 0.74051 0.0
C1081 C 0.61324 1.01128 0.72209 0.0
C1082 C 0.62138 1.03225 0.69698 0.0
H1083 H 0.62271 0.9949 0.77227 0.0
H1084 H 0.59227 0.99734 0.71877 0.0
C1085 C 0.649 0.05009 0.7035 0.0
C1086 C 0.38658 0.35152 1.01832 0.0
C1087 C 0.37481 0.38145 0.02798 0.0
H1088 H 0.38965 0.31 0.97677 0.0
C1089 C 0.35701 0.39271 1.0027 0.0
H1090 H 0.40033 0.34234 0.03748 0.0
C1091 C 0.3502 0.37366 0.96875 0.0
C1092 C 0.36168 0.34358 0.95908 0.0
H1093 H 0.34747 0.4155 1.00951 0.0
H1094 H 0.33596 0.38257 0.94994 0.0
C1095 C 0.38045 0.33303 0.98381 0.0
C1096 C 1.00025 0.07985 0.45764 0.0
C1097 C 1.00334 0.06112 0.42463 0.0
H1098 H 1.01458 0.09325 0.51363 0.0
C1099 C 1.02425 0.03995 0.42483 0.0
H1100 H 0.98477 0.09672 0.45905 0.0
C1101 C 1.04098 0.03723 0.45643 0.0
C1102 C 1.03836 0.0565 0.48935 0.0
H1103 H 1.02764 1.0251 0.40031 0.0
H1104 H 0.05644 1.02033 0.45489 0.0
C1105 C 1.01764 0.07801 0.48916 0.0
C1106 C 0.42617 0.78262 0.74431 0.0
C1107 C 0.40714 0.75565 0.72309 0.0
H1108 H 0.43296 0.82321 0.78943 0.0
C1109 C 0.37982 0.74963 0.73039 0.0
H1110 H 0.44709 0.78845 0.73833 0.0
C1111 C 0.37138 0.77085 0.75771 0.0
C1112 C 0.39025 0.79752 0.77929 0.0
H1113 H 0.36446 0.72982 0.71357 0.0
H1114 H 0.35022 0.76583 0.76226 0.0
C1115 C 0.41791 0.80288 0.77285 0.0
C1116 C 0.68216 0.06088 0.98675 0.0
C1117 C 0.66996 0.04543 0.95203 0.0
H1118 H 0.67649 0.07857 0.0409 0.0
C1119 C 0.64085 0.03542 0.94743 0.0
H1120 H 0.70431 0.06913 0.99209 0.0
C1121 C 0.62487 0.04003 0.97577 0.0
C1122 C 0.63683 0.05617 1.01028 0.0
H1123 H 0.6302 1.02331 0.92162 0.0
H1124 H 0.60278 1.03112 0.97038 0.0
C1125 C 0.66597 0.06658 1.01499 0.0
C1126 C 0.36849 0.38195 0.23322 0.0
C1127 C 0.38374 0.36428 0.20992 0.0
H1128 H 0.34732 0.38052 0.27887 0.0
C1129 C 0.39182 0.33289 0.21771 0.0
H1130 H 0.362 0.40621 0.22818 0.0
C1131 C 0.38325 0.31823 0.24625 0.0
C1132 C 0.36673 0.33472 0.26822 0.0
H1133 H 0.40388 0.31861 0.20085 0.0
H1134 H 0.38873 0.29319 0.25038 0.0
C1135 C 0.36017 0.36734 0.26231 0.0
C1136 C 0.27651 0.04034 0.07115 0.0
C1137 C 0.25933 1.01312 0.04748 0.0
H1138 H 0.27888 0.08904 0.10571 0.0
C1139 C 0.23193 1.01651 0.03696 0.0
H1140 H 0.29777 0.03831 0.07975 0.0
C1141 C 0.22141 0.04562 0.05127 0.0
C1142 C 0.2379 0.07179 0.07673 0.0
H1143 H 0.21828 0.99593 1.01882 0.0
H1144 H 0.19974 0.04641 0.0443 0.0
C1145 C 0.26578 0.06933 0.08598 0.0
C1146 C 0.69725 0.61804 0.03705 0.0
C1147 C 0.70262 0.65 0.0602 0.0
H1148 H 0.66946 0.56967 1.01886 0.0
C1149 C 0.68364 0.65727 0.08368 0.0
H1150 H 0.71148 0.61184 1.01862 0.0
C1151 C 0.66021 0.63275 0.08471 0.0
C1152 C 0.65448 0.60104 0.06119 0.0
H1153 H 0.68729 0.68168 0.10191 0.0
H1154 H 0.64649 0.63869 0.10389 0.0
C1155 C 0.67314 0.59405 0.0371 0.0
C1156 C 0.74638 0.41079 0.33973 0.0
C1157 C 0.75817 0.44605 0.35374 0.0
H1158 H 0.75235 0.35712 0.32412 0.0
C1159 C 0.78731 0.45157 0.36359 0.0
H1160 H 0.72431 0.40438 0.33159 0.0
C1161 C 0.8035 0.42397 0.36018 0.0
C1162 C 0.79196 0.38891 0.34541 0.0
H1163 H 0.79787 0.47767 0.37463 0.0
H1164 H 0.82551 0.43043 0.36884 0.0
C1165 C 0.76279 0.38326 0.33521 0.0
C1166 C 0.8751 0.41043 0.50218 0.0
C1167 C 0.86299 0.38941 0.52457 0.0
H1168 H 0.91216 0.43632 0.48798 0.0
C1169 C 0.87988 0.37858 0.5511 0.0
H1170 H 0.86245 0.41896 0.48139 0.0
C1171 C 0.90845 0.39009 0.55628 0.0
C1172 C 0.92076 0.41189 0.53432 0.0
H1173 H 0.87085 0.36268 0.56895 0.0
H1174 H 0.92061 0.38276 0.57825 0.0
C1175 C 0.90365 0.42092 0.5065 0.0
C1176 C 0.43121 0.19568 0.3705 0.0
C1177 C 0.4235 0.16264 0.34861 0.0
H1178 H 0.42055 0.24623 0.38893 0.0
C1179 C 0.39755 0.15793 0.32701 0.0
H1180 H 0.45045 0.20095 0.38824 0.0
C1181 C 0.3807 0.18471 0.32669 0.0
C1182 C 0.38843 0.21785 0.34843 0.0
H1183 H 0.39013 0.13319 0.30991 0.0
H1184 H 0.36135 0.17922 0.30919 0.0
C1185 C 0.41393 0.22213 0.3708 0.0
C1186 C 0.38409 0.16541 0.5774 0.0
C1187 C 0.35815 0.1456 0.57857 0.0
H1188 H 0.42796 0.16757 0.58254 0.0
C1189 C 0.35719 0.11154 0.5864 0.0
H1190 H 0.38563 0.19168 0.57131 0.0
C1191 C 0.38157 0.09773 0.59309 0.0
C1192 C 0.40759 0.11758 0.59211 0.0
H1193 H 0.3376 0.09558 0.58761 0.0
H1194 H 0.37999 0.07165 0.5997 0.0
C1195 C 0.40844 0.1516 0.58405 0.0
C1196 C 0.75093 0.67979 0.37577 0.0
C1197 C 0.75659 0.64526 0.37661 0.0
H1198 H 0.76619 0.73382 0.37218 0.0
C1199 C 0.78426 0.64085 0.37485 0.0
H1200 H 0.73007 0.68495 0.37682 0.0
C1201 C 0.80506 0.66923 0.37235 0.0
C1202 C 0.79942 0.70359 0.37119 0.0
H1203 H 0.78996 0.61525 0.37521 0.0
H1204 H 0.82588 0.664 0.37099 0.0
C1205 C 0.7718 0.70823 0.37302 0.0
C1206 C 0.93045 0.43567 0.83244 0.0
C1207 C 0.9284 0.46909 0.85024 0.0
H1208 H 0.91324 0.38091 0.81915 0.0
C1209 C 0.90551 0.47144 0.8688 0.0
H1210 H 0.94769 0.43243 0.81796 0.0
C1211 C 0.88608 0.44136 0.8705 0.0
C1212 C 0.88822 0.40793 0.8527 0.0
H1213 H 0.90317 0.49639 0.88322 0.0
H1214 H 0.86934 0.44432 0.88594 0.0
C1215 C 0.91054 0.4059 0.8331 0.0
C1216 C 0.13143 0.91077 0.14231 0.0
C1217 C 0.13959 0.91696 0.17904 0.0
H1218 H 0.11723 0.93194 0.09673 0.0
C1219 C 0.14313 0.9513 0.1973 0.0
H1220 H 0.12843 0.88463 0.1274 0.0
C1221 C 0.13747 0.97864 0.17926 0.0
C1222 C 0.12754 0.97171 0.14304 0.0
H1223 H 0.14935 0.95679 0.22557 0.0
H1224 H 0.13924 1.00474 0.19394 0.0
C1225 C 0.125 0.93777 0.12464 0.0
C1226 C 0.94419 0.26099 0.92336 0.0
C1227 C 0.95241 0.28561 0.95422 0.0
H1228 H 0.91249 0.23968 0.87999 0.0
C1229 C 0.93401 0.30817 0.96484 0.0
H1230 H 0.95769 0.24303 0.91467 0.0
C1231 C 0.90825 0.30657 0.94482 0.0
C1232 C 0.89998 0.28185 0.91412 0.0
H1233 H 0.93966 0.32745 0.98854 0.0
H1234 H 0.89482 0.32472 0.95333 0.0
C1235 C 0.91813 0.25886 0.90376 0.0
C1236 C 0.64072 0.21666 0.63633 0.0
C1237 C 0.62691 0.2355 0.66045 0.0
H1238 H 0.64292 0.16759 0.6059 0.0
C1239 C 0.60361 0.21808 0.67225 0.0
H1240 H 0.65879 0.22927 0.6268 0.0
C1241 C 0.59417 0.18248 0.65971 0.0
C1242 C 0.60825 0.16374 0.63578 0.0
H1243 H 0.59248 0.23205 0.69066 0.0
H1244 H 0.57619 0.16953 0.66916 0.0
C1245 C 0.63163 0.18124 0.62435 0.0
C1246 C 0.60669 0.77058 0.40423 0.0
C1247 C 0.60569 0.7724 0.44066 0.0
H1248 H 0.63229 0.77555 0.36317 0.0
C1249 C 0.63076 0.77718 0.46335 0.0
H1250 H 0.58779 0.76716 0.38605 0.0
C1251 C 0.65614 0.78183 0.45037 0.0
C1252 C 0.65737 0.78212 0.41423 0.0
H1253 H 0.63084 0.77841 0.49154 0.0
H1254 H 0.67489 0.78596 0.46892 0.0
C1255 C 0.63226 0.77542 0.39116 0.0
C1256 C 0.14275 0.27027 0.49364 0.0
C1257 C 0.16486 0.29423 0.51336 0.0
H1258 H 0.1128 0.22563 0.49409 0.0
C1259 C 0.18017 0.28435 0.54208 0.0
H1260 H 0.13093 0.27679 0.47085 0.0
C1261 C 0.16991 0.25457 0.55535 0.0
C1262 C 0.14432 0.23468 0.53994 0.0
H1263 H 0.19792 0.30191 0.55703 0.0
H1264 H 0.18043 0.24933 0.57968 0.0
C1265 C 0.13224 0.24082 0.50717 0.0
C1266 C 0.62672 0.21647 0.22073 0.0
C1267 C 0.61632 0.24362 0.20658 0.0
H1268 H 0.66219 0.19411 0.23547 0.0
C1269 C 0.63458 0.27047 0.19713 0.0
H1270 H 0.61284 0.19516 0.22757 0.0
C1271 C 0.66308 0.27082 0.20301 0.0
C1272 C 0.67379 0.24372 0.2175 0.0
H1273 H 0.62683 0.29174 0.18627 0.0
H1274 H 0.67659 0.29281 0.19691 0.0
C1275 C 0.65508 0.21619 0.2256 0.0
C1276 C 0.62533 0.96647 0.0379 0.0
C1277 C 0.6531 0.96814 0.03324 0.0
H1278 H 0.59646 0.98113 0.07157 0.0
C1279 C 0.67343 0.98858 0.05912 0.0
H1280 H 0.60934 0.95097 1.01835 0.0
C1281 C 0.66574 1.00851 0.0883 0.0
C1282 C 0.63772 1.00641 0.09302 0.0
H1283 H 0.69512 0.98912 0.05672 0.0
H1284 H 0.68163 1.02586 0.10688 0.0
C1285 C 0.61793 0.98355 0.06858 0.0
C1286 C 1.02176 0.76374 0.85103 0.0
C1287 C 1.0035 0.74608 0.82115 0.0
H1288 H 1.02658 0.80088 0.89901 0.0
C1289 C 0.97521 0.74735 0.81987 0.0
H1290 H 1.04376 0.7636 0.85233 0.0
C1291 C 0.96578 0.76925 0.84565 0.0
C1292 C 0.98419 0.78913 0.87397 0.0
H1293 H 0.96073 0.73422 0.79708 0.0
H1294 H 0.94433 0.77267 0.84209 0.0
C1295 C 1.0121 0.78539 0.87741 0.0
C1296 C 0.17218 1.00786 0.96981 0.0
C1297 C 0.17893 0.0376 0.95354 0.0
H1298 H 0.15027 0.98359 1.00782 0.0
C1299 C 0.16734 0.06724 0.96676 0.0
H1300 H 0.17991 0.98416 0.96078 0.0
C1301 C 0.15052 0.06725 0.99491 0.0
C1302 C 0.14343 0.03719 1.01077 0.0
H1303 H 0.17133 0.09078 0.95526 0.0
H1304 H 0.14252 0.0908 1.00372 0.0
C1305 C 0.15478 1.00753 0.99712 0.0
C1306 C 0.76428 0.34984 0.63352 0.0
C1307 C 0.77811 0.37769 0.61986 0.0
H1308 H 0.76774 0.31286 0.66855 0.0
C1309 C 0.80385 0.39537 0.63742 0.0
H1310 H 0.74419 0.3362 0.62076 0.0
C1311 C 0.81774 0.38133 0.66393 0.0
C1312 C 0.80566 0.35008 0.67372 0.0
H1313 H 0.81493 0.41711 0.62757 0.0
H1314 H 0.83888 0.39305 0.67406 0.0
C1315 C 0.778 0.33613 0.66039 0.0
C1316 C 0.53772 0.07225 0.44101 0.0
C1317 C 0.50994 0.0759 0.44348 0.0
H1318 H 0.57735 0.06664 0.46628 0.0
C1319 C 0.50181 0.07607 0.47769 0.0
H1320 H 0.54539 0.07193 0.41582 0.0
C1321 C 0.52076 0.07266 0.50768 0.0
C1322 C 0.54868 0.06927 0.50471 0.0
H1323 H 0.48078 0.07879 0.48136 0.0
H1324 H 0.51353 0.07288 0.53313 0.0
C1325 C 0.55639 0.0692 0.47054 0.0
C1326 C 0.78543 0.76688 0.19164 0.0
C1327 C 0.79945 0.74401 0.17187 0.0
H1328 H 0.78279 0.79597 0.24178 0.0
C1329 C 0.82262 0.73299 0.18871 0.0
H1330 H 0.76746 0.77579 0.17948 0.0
C1331 C 0.83176 0.74514 0.22464 0.0
C1332 C 0.81752 0.76789 0.24431 0.0
H1333 H 0.83393 0.71558 0.174 0.0
H1334 H 0.84966 0.73634 0.2371 0.0
C1335 C 0.79422 0.77846 0.22741 0.0
C1336 C 0.16674 0.07331 0.7505 0.0
C1337 C 0.17176 0.04178 0.76204 0.0
H1338 H 0.14769 0.09928 0.71129 0.0
C1339 C 0.16078 1.01073 0.73805 0.0
H1340 H 0.17414 0.09794 0.76786 0.0
C1341 C 0.14509 1.01154 0.70463 0.0
C1342 C 0.13928 0.04335 0.69408 0.0
H1343 H 0.16309 0.98571 0.74574 0.0
H1344 H 0.13666 0.98704 0.68758 0.0
C1345 C 0.15103 0.0741 0.71775 0.0
C1346 C 0.80413 0.36091 0.43895 0.0
C1347 C 0.77609 0.36068 0.44124 0.0
H1348 H 0.83453 0.33338 0.41954 0.0
C1349 C 0.7567 0.33212 0.42354 0.0
H1350 H 0.81944 0.38259 0.45248 0.0
C1351 C 0.76538 0.30503 0.40216 0.0
C1352 C 0.79368 0.30525 0.40019 0.0
H1353 H 0.73497 0.33092 0.42607 0.0
H1354 H 0.75002 0.2842 0.38687 0.0
C1355 C 0.81286 0.33249 0.42036 0.0
C1356 C 0.52873 0.09706 0.25044 0.0
C1357 C 0.50711 0.07027 0.254 0.0
H1358 H 0.56058 0.11609 0.22056 0.0
C1359 C 0.50161 0.04127 0.22626 0.0
H1360 H 0.53492 0.11916 0.27149 0.0
C1361 C 0.51679 0.03913 0.19683 0.0
C1362 C 0.53893 0.06549 0.19382 0.0
H1363 H 0.4863 1.0191 0.22818 0.0
H1364 H 0.51169 1.01597 0.17692 0.0
C1365 C 0.54403 0.09488 0.22115 0.0
C1366 C 0.78971 0.76862 0.99292 0.0
C1367 C 0.78923 0.73223 0.98688 0.0
H1368 H 0.79897 0.81719 0.97378 0.0
C1369 C 0.79441 0.71643 0.95389 0.0
H1370 H 0.7856 0.78163 1.01799 0.0
C1371 C 0.80191 0.73688 0.92851 0.0
C1372 C 0.80456 0.77353 0.93573 0.0
H1373 H 0.79409 0.6885 0.94833 0.0
H1374 H 0.80708 0.72409 0.90396 0.0
C1375 C 0.79738 0.78908 0.96764 0.0
C1376 C 0.9525 0.09648 0.15066 0.0
C1377 C 0.92405 0.09554 0.14217 0.0
H1378 H 0.98697 0.07048 0.14296 0.0
C1379 C 0.90765 0.06484 0.12317 0.0
H1380 H 0.96556 0.12007 0.16484 0.0
C1381 C 0.92002 0.03672 0.10979 0.0
C1382 C 0.94877 0.0387 0.11627 0.0
H1383 H 0.88571 0.06386 0.11576 0.0
H1384 H 0.90742 1.0144 0.09273 0.0
C1385 C 0.96471 0.06811 0.13817 0.0
C1386 C 0.48811 0.44923 0.09549 0.0
C1387 C 0.46851 0.45783 0.1178 0.0
H1388 H 0.5277 0.46394 0.07927 0.0
C1389 C 0.47517 0.48895 0.14225 0.0
H1390 H 0.48381 0.42558 0.0763 0.0
C1391 C 0.50083 0.51076 0.14443 0.0
C1392 C 0.52013 0.50218 0.12171 0.0
H1393 H 0.46071 0.49625 0.16004 0.0
H1394 H 0.50531 0.53462 0.16336 0.0
C1395 C 0.51339 0.47121 0.09727 0.0
C1396 C 0.43529 0.68662 0.85491 0.0
C1397 C 0.42492 0.65363 0.83363 0.0
H1398 H 0.42859 0.73892 0.87507 0.0
C1399 C 0.3978 0.65075 0.81551 0.0
H1400 H 0.45573 0.69074 0.86977 0.0
C1401 C 0.38216 0.67886 0.81822 0.0
C1402 C 0.39223 0.71165 0.83992 0.0
H1403 H 0.38841 0.62637 0.79887 0.0
H1404 H 0.36171 0.67454 0.80334 0.0
C1405 C 0.41938 0.71462 0.85817 0.0
C1406 C 0.3 0.69249 0.66085 0.0
C1407 C 0.30882 0.70971 0.63372 0.0
H1408 H 0.26624 0.67385 0.68664 0.0
C1409 C 0.28931 0.72139 0.61095 0.0
H1410 H 0.3148 0.68403 0.67931 0.0
C1411 C 0.26119 0.71428 0.61411 0.0
C1412 C 0.25209 0.69631 0.64087 0.0
H1413 H 0.29568 0.735 0.58997 0.0
H1414 H 0.24665 0.7221 0.5949 0.0
C1415 C 0.27206 0.6864 0.66477 0.0
C1416 C 0.77837 0.95449 0.86569 0.0
C1417 C 0.74901 0.94796 0.86034 0.0
H1418 H 0.81699 0.93446 0.87031 0.0
C1419 C 0.73707 0.91204 0.85453 0.0
H1420 H 0.78902 0.98122 0.87034 0.0
C1421 C 0.75357 0.88463 0.85372 0.0
C1422 C 0.78293 0.89127 0.85975 0.0
H1423 H 0.7148 0.9049 0.85005 0.0
H1424 H 0.74321 0.85792 0.84818 0.0
C1425 C 0.79474 0.92718 0.86575 0.0
C1426 C 0.78873 0.943 0.622 0.0
C1427 C 0.81429 0.9655 0.63073 0.0
H1428 H 0.74487 0.93788 0.60942 0.0
C1429 C 0.81432 1.00174 0.6352 0.0
H1430 H 0.78779 0.91493 0.61856 0.0
C1431 C 0.78946 1.01502 0.62957 0.0
C1432 C 0.76398 0.99237 0.61932 0.0
H1433 H 0.83361 1.01983 0.64173 0.0
H1434 H 0.79038 0.04302 0.63188 0.0
C1435 C 0.76401 0.9562 0.61645 0.0
C1436 C 0.42912 0.42132 0.83914 0.0
C1437 C 0.42329 0.45492 0.83386 0.0
H1438 H 0.4138 0.36798 0.84506 0.0
C1439 C 0.39504 0.45807 0.82961 0.0
H1440 H 0.45034 0.41702 0.84268 0.0
C1441 C 0.37395 0.4295 0.83102 0.0
C1442 C 0.3798 0.3961 0.83661 0.0
H1443 H 0.38911 0.4829 0.82564 0.0
H1444 H 0.35271 0.43382 0.82798 0.0
C1445 C 0.40797 0.39269 0.84045 0.0
C1446 C 0.26617 0.64353 0.35595 0.0
C1447 C 0.24364 0.64522 0.37539 0.0
H1448 H 0.30119 0.67153 0.33713 0.0
C1449 C 0.24112 0.67874 0.39261 0.0
H1450 H 0.26895 0.61864 0.34188 0.0
C1451 C 0.25991 0.70906 0.39035 0.0
C1452 C 0.28197 0.70768 0.37021 0.0
H1453 H 0.22419 0.68174 0.40771 0.0
H1454 H 0.25638 0.73394 0.40342 0.0
C1455 C 0.2847 0.67415 0.35307 0.0
C1456 C 0.5508 0.69998 0.57606 0.0
C1457 C 0.54022 0.69956 0.54067 0.0
H1458 H 0.56946 0.67236 0.61374 0.0
C1459 C 0.53842 0.66881 0.51624 0.0
H1460 H 0.55262 0.72333 0.59546 0.0
C1461 C 0.54737 0.63916 0.5271 0.0
C1462 C 0.559 0.64041 0.56219 0.0
H1463 H 0.5303 0.6678 0.48883 0.0
H1464 H 0.54632 0.61588 0.50787 0.0
C1465 C 0.56047 0.6709 0.58656 0.0
C1466 C 0.72943 0.36119 0.78914 0.0
C1467 C 0.72562 0.34203 0.75493 0.0
H1468 H 0.75533 0.37557 0.83901 0.0
C1469 C 0.74571 0.32182 0.74505 0.0
H1470 H 0.71436 0.377 0.79746 0.0
C1471 C 0.76886 0.32032 0.76905 0.0
C1472 C 0.77278 0.33977 0.80313 0.0
H1473 H 0.74312 0.30644 0.71898 0.0
H1474 H 0.78375 0.3041 0.76095 0.0
C1475 C 0.75298 0.3605 0.81279 0.0
C1476 C 1.03624 0.38438 0.05641 0.0
C1477 C 1.04703 0.37486 1.02497 0.0
H1478 H 1.03441 0.42592 0.09859 0.0
C1479 C 0.06468 0.39996 1.01202 0.0
H1480 H 1.02262 0.36532 0.06685 0.0
C1481 C 0.0721 0.43372 0.03057 0.0
C1482 C 0.0614 0.4434 0.06192 0.0
H1483 H 0.0735 0.39327 0.98801 0.0
H1484 H 0.08604 0.45244 1.02014 0.0
C1485 C 1.04298 0.41878 0.0745 0.0
C1486 C 0.06922 0.81528 0.29743 0.0
C1487 C 0.06842 0.82029 0.26207 0.0
H1488 H 1.04628 0.80576 0.33989 0.0
C1489 C 1.04256 0.81931 0.24221 0.0
H1490 H 0.08876 0.81612 0.31358 0.0
C1491 C 1.0181 0.81305 0.25718 0.0
C1492 C 1.0188 0.8077 0.29251 0.0
H1493 H 1.04115 0.82301 0.21486 0.0
H1494 H 0.99859 0.81163 0.24074 0.0
C1495 C 1.04476 0.80917 0.31247 0.0
C1496 C 0.53749 0.31344 0.16321 0.0
C1497 C 0.54686 0.31798 0.1995 0.0
H1498 H 0.54312 0.33027 0.11394 0.0
C1499 C 0.56889 0.34466 0.21446 0.0
H1500 H 0.52032 0.29329 0.15106 0.0
C1501 C 0.58177 0.36596 0.19307 0.0
C1502 C 0.57299 0.36018 0.15663 0.0
H1503 H 0.57659 0.34847 0.24233 0.0
H1504 H 0.5986 0.38675 0.2048 0.0
C1505 C 0.55069 0.33412 0.14187 0.0
C1506 C 1.04868 0.34973 0.51733 0.0
C1507 C 0.06637 0.37735 0.50817 0.0
H1508 H 1.00735 0.32216 0.5117 0.0
C1509 C 0.05516 0.40101 0.48911 0.0
H1510 H 0.05701 0.33099 0.53177 0.0
C1511 C 1.02682 0.39686 0.4787 0.0
C1512 C 1.00896 0.36801 0.48572 0.0
H1513 H 0.0684 0.42267 0.48187 0.0
H1514 H 1.01907 0.41629 0.4648 0.0
C1515 C 1.02023 0.34481 0.50583 0.0
C1516 C 0.99773 0.63261 0.63682 0.0
C1517 C 1.01718 0.65624 0.66118 0.0
H1518 H 0.99129 0.59182 0.59213 0.0
C1519 C 1.04516 0.6596 0.65676 0.0
H1520 H 0.97589 0.63065 0.63892 0.0
C1521 C 0.05365 0.63994 0.62838 0.0
C1522 C 1.03471 0.61439 0.60555 0.0
H1523 H 0.06049 0.67788 0.67493 0.0
H1524 H 0.07527 0.64307 0.62588 0.0
C1525 C 1.0065 0.61126 0.60959 0.0
C1526 C 0.66017 0.84192 0.86253 0.0
C1527 C 0.67649 0.85115 0.89578 0.0
H1528 H 0.65562 0.8123 0.81017 0.0
C1529 C 0.70088 0.83734 0.90184 0.0
H1530 H 0.64107 0.85198 0.85746 0.0
C1531 C 0.70831 0.81369 0.87567 0.0
C1532 C 0.6921 0.80442 0.84252 0.0
H1533 H 0.71358 0.8435 0.92735 0.0
H1534 H 0.72704 0.80289 0.88114 0.0
C1535 C 0.66821 0.81905 0.83574 0.0
C1536 C 0.51992 0.52881 0.71837 0.0
C1537 C 0.5097 0.55728 0.73695 0.0
H1538 H 0.54366 0.50944 0.67821 0.0
C1539 C 0.51648 0.58961 0.72497 0.0
H1540 H 0.51598 0.50336 0.72635 0.0
C1541 C 0.53316 0.59317 0.69702 0.0
C1542 C 0.54387 0.56466 0.67921 0.0
H1543 H 0.51014 0.61269 0.73837 0.0
H1544 H 0.5382 0.6188 0.6898 0.0
C1545 C 0.53626 0.53228 0.69042 0.0
C1546 C 0.88618 0.23467 0.0449 0.0
C1547 C 0.87372 0.20309 0.05336 0.0
H1548 H 0.88016 0.28199 1.02637 0.0
C1549 C 0.84501 0.19266 0.04498 0.0
H1550 H 0.9083 0.24313 0.05113 0.0
C1551 C 0.82869 0.2155 0.03198 0.0
C1552 C 0.84102 0.24875 0.02708 0.0
H1553 H 0.83492 0.16856 0.05179 0.0
H1554 H 0.80643 0.20803 0.02791 0.0
C1555 C 0.86998 0.25724 0.03168 0.0
C1556 C 0.13008 0.50912 0.25314 0.0
C1557 C 0.15722 0.52807 0.26078 0.0
H1558 H 0.09119 0.49726 0.21923 0.0
C1559 C 0.16608 0.54761 0.23466 0.0
H1560 H 0.12171 0.49489 0.27266 0.0
C1561 C 0.14823 0.54883 0.20308 0.0
C1562 C 0.12049 0.53141 0.1969 0.0
H1563 H 0.18617 0.56404 0.23977 0.0
H1564 H 0.15554 0.56552 0.18487 0.0
C1565 C 0.11225 0.51088 0.2223 0.0
C1566 C 0.85852 0.89208 0.50763 0.0
C1567 C 0.87634 0.88088 0.53296 0.0
H1568 H 0.83709 0.88178 0.45513 0.0
C1569 C 0.88736 0.85027 0.52364 0.0
H1570 H 0.8495 0.91537 0.51412 0.0
C1571 C 0.8807 0.83133 0.48928 0.0
C1572 C 0.8621 0.84213 0.46446 0.0
H1573 H 0.9011 0.84111 0.54283 0.0
H1574 H 0.88948 0.80794 0.48237 0.0
C1575 C 0.85117 0.87265 0.47396 0.0
C1576 C 0.49995 0.5797 0.9586 0.0
C1577 C 0.50351 0.56162 0.92548 0.0
H1578 H 0.51377 0.59251 1.01474 0.0
C1579 C 0.52482 0.54106 0.92563 0.0
H1580 H 0.48413 0.59609 0.96006 0.0
C1581 C 0.54148 0.53828 0.95728 0.0
C1582 C 0.53836 0.5569 0.99032 0.0
H1583 H 0.52858 0.52672 0.90104 0.0
H1584 H 0.55727 0.52186 0.95568 0.0
C1585 C 0.51724 0.5778 0.99018 0.0
C1586 C 0.88141 0.24943 0.22886 0.0
C1587 C 0.9094 0.25274 0.22425 0.0
H1588 H 0.85113 0.26876 0.25761 0.0
C1589 C 0.92863 0.27875 0.2464 0.0
H1590 H 0.86599 0.23036 0.21127 0.0
C1591 C 0.91995 0.30042 0.27355 0.0
C1592 C 0.8918 0.29736 0.27772 0.0
H1593 H 0.95017 0.2825 0.24245 0.0
H1594 H 0.93518 0.31975 0.2911 0.0
C1595 C 0.8727 0.27199 0.25483 0.0
C1596 C 0.14048 0.53226 0.44737 0.0
C1597 C 0.16947 0.54345 0.45171 0.0
H1598 H 0.10251 0.52677 0.47055 0.0
C1599 C 0.18149 0.5597 0.48629 0.0
H1600 H 0.12996 0.51951 0.4217 0.0
C1601 C 0.16524 0.5651 0.51455 0.0
C1602 C 0.13623 0.55354 0.51011 0.0
H1603 H 0.20353 0.5689 0.49147 0.0
H1604 H 0.17563 0.57785 0.54029 0.0
C1605 C 0.12447 0.53653 0.47577 0.0
C1606 C 0.89308 0.85391 0.73696 0.0
C1607 C 0.87951 0.87619 0.71811 0.0
H1608 H 0.89238 0.82285 0.77851 0.0
C1609 C 0.85559 0.88683 0.72955 0.0
H1610 H 0.91163 0.84535 0.72888 0.0
C1611 C 0.84435 0.87339 0.75743 0.0
C1612 C 0.85711 0.84971 0.775 0.0
H1613 H 0.84456 0.9038 0.71556 0.0
H1614 H 0.82504 0.88052 0.76442 0.0
C1615 C 0.88215 0.84111 0.76544 0.0
C1616 C 0.72695 0.49087 0.56832 0.0
C1617 C 0.75348 0.49645 0.5584 0.0
H1618 H 0.69779 0.51131 0.59883 0.0
C1619 C 0.77075 0.52878 0.57054 0.0
H1620 H 0.7132 0.46623 0.55952 0.0
C1621 C 0.76176 0.55481 0.593 0.0
C1622 C 0.73574 0.54832 0.60416 0.0
H1623 H 0.79135 0.53366 0.56329 0.0
H1624 H 0.77527 0.57954 0.6023 0.0
C1625 C 0.71827 0.51644 0.59121 0.0
C1626 C 0.18231 0.15742 0.57697 0.0
C1627 C 0.20248 0.14835 0.55595 0.0
H1628 H 0.1441 0.14064 0.5958 0.0
C1629 C 0.19816 0.11485 0.53566 0.0
H1630 H 0.18511 0.18299 0.59305 0.0
C1631 C 0.17402 0.09108 0.53615 0.0
C1632 C 0.15424 0.09992 0.55793 0.0
H1633 H 0.21329 0.10719 0.51916 0.0
H1634 H 0.17123 0.06544 0.52023 0.0
C1635 C 0.15877 0.13325 0.57849 0.0
C1636 C 0.28727 0.95237 0.86448 0.0
C1637 C 0.25817 0.9467 0.85417 0.0
H1638 H 0.32547 0.93133 0.87078 0.0
C1639 C 0.24646 0.91134 0.84061 0.0
H1640 H 0.29775 0.97857 0.87524 0.0
C1641 C 0.26291 0.88382 0.8369 0.0
C1642 C 0.29202 0.8896 0.84752 0.0
H1643 H 0.22443 0.90484 0.83218 0.0
H1644 H 0.25254 0.85758 0.82607 0.0
C1645 C 0.3035 0.92478 0.86186 0.0
C1646 C 0.3808 0.88367 0.05726 0.0
C1647 C 0.3638 0.89402 0.0305 0.0
H1648 H 0.42187 0.88761 0.08351 0.0
C1649 C 0.37583 0.91337 1.00674 0.0
H1650 H 0.37183 0.86904 0.07612 0.0
C1651 C 0.40437 0.92288 1.00999 0.0
C1652 C 0.42161 0.91472 0.03814 0.0
H1653 H 0.36315 0.92168 0.98585 0.0
H1654 H 0.41277 0.93711 0.99053 0.0
C1655 C 0.40948 0.89431 0.06136 0.0
C1656 C 0.9315 0.69703 0.87254 0.0
C1657 C 0.92396 0.66451 0.8497 0.0
H1658 H 0.92107 0.74743 0.89192 0.0
C1659 C 0.89845 0.66063 0.82732 0.0
H1660 H 0.95043 0.70169 0.8908 0.0
C1661 C 0.88182 0.68771 0.82721 0.0
C1662 C 0.88927 0.72024 0.85009 0.0
H1663 H 0.89119 0.63633 0.80944 0.0
H1664 H 0.86278 0.68284 0.80913 0.0
C1665 C 0.91441 0.7237 0.87314 0.0
C1666 C 0.88417 0.66797 0.08091 0.0
C1667 C 0.85817 0.64799 0.08142 0.0
H1668 H 0.92805 0.66998 0.08591 0.0
C1669 C 0.85712 0.61347 0.08792 0.0
H1670 H 0.88579 0.69461 0.07585 0.0
C1671 C 0.88143 0.59935 0.09391 0.0
C1672 C 0.90751 0.61934 0.09354 0.0
H1673 H 0.83749 0.59734 0.08861 0.0
H1674 H 0.87976 0.57288 0.09946 0.0
C1675 C 0.90848 0.65386 0.08688 0.0
C1676 C 0.28423 0.1412 0.8724 0.0
C1677 C 0.25658 0.14566 0.87433 0.0
H1678 H 0.32577 0.16417 0.86781 0.0
C1679 C 0.25091 0.18012 0.87301 0.0
H1680 H 0.28996 0.11566 0.87308 0.0
C1681 C 0.27171 0.20842 0.86964 0.0
C1682 C 0.29931 0.20373 0.86762 0.0
H1683 H 0.23008 0.18534 0.87415 0.0
H1684 H 0.26606 0.23394 0.86847 0.0
C1685 C 0.30498 0.16945 0.86928 0.0
C1686 C 0.40538 0.97022 0.36626 0.0
C1687 C 0.42876 0.96777 0.34868 0.0
H1688 H 0.36864 0.94324 0.38221 0.0
C1689 C 0.43111 0.93428 0.33129 0.0
H1690 H 0.40277 0.99521 0.38029 0.0
C1691 C 0.41104 0.90454 0.33146 0.0
C1692 C 0.38822 0.90669 0.35015 0.0
H1693 H 0.44871 0.93098 0.31752 0.0
H1694 H 0.41397 0.87948 0.3179 0.0
C1695 C 0.38578 0.94019 0.36749 0.0
C1696 C 0.64733 0.45403 0.69615 0.0
C1697 C 0.64168 0.41934 0.67848 0.0
H1698 H 0.64507 0.50787 0.69259 0.0
C1699 C 0.63116 0.41279 0.64238 0.0
H1700 H 0.65542 0.45981 0.72394 0.0
C1701 C 0.62451 0.4399 0.62496 0.0
C1702 C 0.62918 0.47429 0.64286 0.0
H1703 H 0.62648 0.38638 0.62797 0.0
H1704 H 0.61495 0.43384 0.5977 0.0
C1705 C 0.64152 0.48144 0.67825 0.0
C1706 C 0.44348 0.7621 0.42189 0.0
C1707 C 0.4511 0.78712 0.45255 0.0
H1708 H 0.41245 0.7399 0.37796 0.0
C1709 C 0.43226 0.80942 0.46223 0.0
H1710 H 0.45731 0.74432 0.4139 0.0
C1711 C 0.40671 0.80719 0.44152 0.0
C1712 C 0.39905 0.78211 0.41098 0.0
H1713 H 0.43741 0.82902 0.48574 0.0
H1714 H 0.39296 0.82516 0.44933 0.0
C1715 C 0.41761 0.75936 0.40156 0.0
C1716 C 0.14029 0.71502 0.13483 0.0
C1717 C 0.1263 0.73371 0.15883 0.0
H1718 H 0.14271 0.66592 0.1045 0.0
C1719 C 0.10287 0.71622 0.17028 0.0
H1720 H 0.15844 0.72773 0.12555 0.0
C1721 C 0.09353 0.68068 0.15768 0.0
C1722 C 0.10782 0.66202 0.13401 0.0
H1723 H 0.09158 0.73007 0.18858 0.0
H1724 H 0.07548 0.66771 0.16696 0.0
C1725 C 0.13128 0.67956 0.12278 0.0
C1726 C 0.13211 0.28 0.96058 0.0
C1727 C 0.10683 0.2749 0.93827 0.0
H1728 H 0.1762 0.28884 0.96533 0.0
C1729 C 0.10737 0.27274 0.90174 0.0
H1730 H 0.13253 0.28144 0.98884 0.0
C1731 C 0.13272 0.27743 0.88815 0.0
C1732 C 0.15803 0.28433 0.91082 0.0
H1733 H 0.0883 0.26901 0.88384 0.0
H1734 H 0.13243 0.27721 0.86007 0.0
C1735 C 0.15726 0.28452 0.9471 0.0
C1736 C 0.68127 0.78876 0.05242 0.0
C1737 C 0.66727 0.79636 1.02143 0.0
H1738 H 0.68036 0.75557 0.09179 0.0
C1739 C 0.64703 0.77053 1.00058 0.0
H1740 H 0.69767 0.80778 0.06838 0.0
C1741 C 0.6368 0.74107 1.01429 0.0
C1742 C 0.64723 0.73697 0.04854 0.0
H1743 H 0.63631 0.77525 0.97613 0.0
H1744 H 0.61865 0.72399 0.99979 0.0
C1745 C 0.67117 0.75916 0.06604 0.0
C1746 C 0.13411 0.76801 0.69539 0.0
C1747 C 0.11552 0.74149 0.70485 0.0
H1748 H 0.17632 0.7902 0.69626 0.0
C1749 C 0.12559 0.71465 0.71998 0.0
H1750 H 0.12664 0.78905 0.68379 0.0
C1751 C 0.15393 0.71443 0.72594 0.0
C1752 C 0.17293 0.74173 0.718 0.0
H1753 H 0.11148 0.69358 0.72685 0.0
H1754 H 0.16082 0.69264 0.73666 0.0
C1755 C 0.16257 0.76843 0.70236 0.0
C1756 C 0.17201 0.48885 0.5616 0.0
C1757 C 0.15143 0.46716 0.53703 0.0
H1758 H 0.18054 0.52779 0.60809 0.0
C1759 C 0.12392 0.4643 0.54313 0.0
H1760 H 0.19356 0.49037 0.55799 0.0
C1761 C 0.11699 0.48199 0.57373 0.0
C1762 C 0.13681 0.50641 0.59651 0.0
H1763 H 0.10773 0.44803 0.52448 0.0
H1764 H 0.09572 0.47896 0.57773 0.0
C1765 C 0.16465 0.50923 0.59071 0.0
C1766 C 0.52336 0.26692 0.35538 0.0
C1767 C 0.50532 0.24917 0.32531 0.0
H1768 H 0.52753 0.30312 0.40396 0.0
C1769 C 0.47694 0.24973 0.32402 0.0
H1770 H 0.54543 0.26745 0.35665 0.0
C1771 C 0.4671 0.27069 0.35017 0.0
C1772 C 0.48512 0.29027 0.37903 0.0
H1773 H 0.46262 0.2367 0.30105 0.0
H1774 H 0.44559 0.27379 0.34641 0.0
C1775 C 0.51326 0.28762 0.38216 0.0
C1776 C 0.65801 0.55982 0.4574 0.0
C1777 C 0.68002 0.5401 0.45561 0.0
H1778 H 0.62531 0.57682 0.48551 0.0
C1779 C 0.68481 0.52224 0.48464 0.0
H1780 H 0.65298 0.57397 0.43609 0.0
C1781 C 0.66805 0.523 0.51275 0.0
C1782 C 0.64623 0.54291 0.51471 0.0
H1783 H 0.70098 0.50634 0.48504 0.0
H1784 H 0.67209 0.50739 0.5331 0.0
C1785 C 0.64195 0.56165 0.48627 0.0
C1786 C 0.3048 0.90756 0.1414 0.0
C1787 C 0.27779 0.89333 0.12541 0.0
H1788 H 0.33962 0.90038 0.17589 0.0
C1789 C 0.26222 0.86785 0.14045 0.0
H1790 H 0.31728 0.92738 0.13048 0.0
C1791 C 0.27502 0.85246 0.16677 0.0
C1792 C 0.30352 0.86227 0.17809 0.0
H1793 H 0.24119 0.85688 0.12893 0.0
H1794 H 0.26318 0.83086 0.17597 0.0
C1795 C 0.31776 0.89176 0.16729 0.0
C1796 C 1.00202 0.57609 0.97803 0.0
C1797 C 1.01001 0.57588 0.94374 0.0
H1798 H 1.01378 0.57231 0.03331 0.0
C1799 C 1.0376 0.57144 0.94098 0.0
H1800 H 0.98114 0.57939 0.98194 0.0
C1801 C 0.05623 0.56769 0.97029 0.0
C1802 C 1.04865 0.56781 1.00454 0.0
H1803 H 1.04517 0.57103 0.91572 0.0
H1804 H 0.07704 0.56455 0.96582 0.0
C1805 C 1.0209 0.57199 1.0078 0.0
C1806 C 0.28634 0.26717 0.68611 0.0
C1807 C 0.29981 0.24326 0.6668 0.0
H1808 H 0.28405 0.29725 0.73589 0.0
C1809 C 0.32245 0.23154 0.68408 0.0
H1810 H 0.26879 0.27667 0.67363 0.0
C1811 C 0.33157 0.24391 0.71999 0.0
C1812 C 0.31782 0.26762 0.73922 0.0
H1813 H 0.33336 0.21332 0.66976 0.0
H1814 H 0.34902 0.23449 0.73279 0.0
C1815 C 0.29509 0.27899 0.72187 0.0
C1816 C 0.66061 0.51014 0.23919 0.0
C1817 C 0.6714 0.54122 0.26327 0.0
H1818 H 0.6366 0.48634 0.18865 0.0
C1819 C 0.66615 0.57267 0.25176 0.0
H1820 H 0.6631 0.48515 0.24682 0.0
C1821 C 0.65039 0.57337 0.219 0.0
C1822 C 0.63883 0.54261 0.19525 0.0
H1823 H 0.6734 0.59732 0.26914 0.0
H1824 H 0.64689 0.59851 0.21259 0.0
C1825 C 0.64487 0.51086 0.20575 0.0
C1826 C 0.30668 0.86468 0.94443 0.0
C1827 C 0.27883 0.86577 0.947 0.0
H1828 H 0.33609 0.83589 0.92419 0.0
C1829 C 0.25879 0.83767 0.92974 0.0
H1830 H 0.32246 0.88594 0.95765 0.0
C1831 C 0.26666 0.80986 0.90835 0.0
C1832 C 0.29477 0.80894 0.90577 0.0
H1833 H 0.23717 0.83755 0.93232 0.0
H1834 H 0.25081 0.78943 0.89337 0.0
C1835 C 0.31457 0.83574 0.92556 0.0
C1836 C 1.02684 0.5982 0.7493 0.0
C1837 C 1.00618 0.57069 0.75386 0.0
H1838 H 0.05779 0.61784 0.7184 0.0
C1839 C 1.00141 0.54104 0.72689 0.0
H1840 H 1.03249 0.62091 0.76973 0.0
C1841 C 1.01638 0.53892 0.69727 0.0
C1842 C 1.0376 0.56601 0.69325 0.0
H1843 H 0.98686 0.5184 0.72958 0.0
H1844 H 1.01189 0.51522 0.67804 0.0
C1845 C 1.04196 0.59605 0.71978 0.0
C1846 C 0.29669 0.21215 0.44932 0.0
C1847 C 0.28969 0.22781 0.48138 0.0
H1848 H 0.31102 0.22007 0.40024 0.0
C1849 C 0.28864 0.26385 0.48641 0.0
H1850 H 0.29762 0.18448 0.44459 0.0
C1851 C 0.29653 0.28425 0.46121 0.0
C1852 C 0.30548 0.26903 0.43035 0.0
H1853 H 0.28311 0.27672 0.5107 0.0
H1854 H 0.2968 0.31218 0.46665 0.0
C1855 C 0.30444 0.23258 0.42398 0.0
C1856 C 0.40811 0.57073 0.61904 0.0
C1857 C 0.42401 0.60207 0.63738 0.0
H1858 H 0.40873 0.51995 0.58983 0.0
C1859 C 0.45262 0.60411 0.64556 0.0
H1860 H 0.38604 0.56888 0.61185 0.0
C1861 C 0.4654 0.57605 0.63366 0.0
C1862 C 0.44986 0.54584 0.61264 0.0
H1863 H 0.4653 0.62819 0.65923 0.0
H1864 H 0.48771 0.57911 0.63842 0.0
C1865 C 0.42103 0.54292 0.60622 0.0
C1866 C 0.98913 0.95 0.60008 0.0
C1867 C 0.96972 0.95988 0.62209 0.0
H1868 H 1.02844 0.96357 0.58263 0.0
C1869 C 0.97642 0.99212 0.64483 0.0
H1870 H 0.98474 0.92539 0.58214 0.0
C1871 C 1.00197 1.01371 0.64563 0.0
C1872 C 1.02109 1.00388 0.62316 0.0
H1873 H 0.96211 1.00044 0.66229 0.0
H1874 H 1.00648 0.03845 0.66332 0.0
C1875 C 1.01429 0.97181 0.60037 0.0
C1876 C 0.89796 0.14991 0.31249 0.0
C1877 C 0.92483 0.15269 0.33131 0.0
H1878 H 0.86214 0.17389 0.29924 0.0
C1879 C 0.93502 0.18568 0.35267 0.0
H1880 H 0.88871 0.12553 0.29574 0.0
C1881 C 0.91916 0.21375 0.35539 0.0
C1882 C 0.89227 0.21089 0.33644 0.0
H1883 H 0.95526 0.18973 0.36805 0.0
H1884 H 0.92822 0.23802 0.37244 0.0
C1885 C 0.88239 0.17812 0.31462 0.0
C1886 C 0.79251 0.21852 0.11425 0.0
C1887 C 0.81174 0.20694 0.13749 0.0
H1888 H 0.74997 0.21932 0.09746 0.0
C1889 C 0.80259 0.19011 0.1647 0.0
H1890 H 0.79917 0.23181 0.0932 0.0
C1891 C 0.77457 0.18424 0.1682 0.0
C1892 C 0.75486 0.19397 0.14382 0.0
H1893 H 0.81717 0.18172 0.18349 0.0
H1894 H 0.76849 0.17198 0.19014 0.0
C1895 C 0.7643 0.21163 0.11702 0.0
C1896 C 0.23686 0.411 0.34905 0.0
C1897 C 0.24861 0.44696 0.35793 0.0
H1898 H 0.24342 0.35703 0.33941 0.0
C1899 C 0.27791 0.45362 0.36532 0.0
H1900 H 0.21466 0.40378 0.34286 0.0
C1901 C 0.29436 0.42639 0.3645 0.0
C1902 C 0.2828 0.39045 0.35533 0.0
H1903 H 0.28841 0.48038 0.37232 0.0
H1904 H 0.31655 0.43378 0.37086 0.0
C1905 C 0.25353 0.38372 0.3472 0.0
C1906 C 0.28772 0.43837 0.12307 0.0
C1907 C 0.31334 0.46072 0.13205 0.0
H1908 H 0.24387 0.43351 0.11038 0.0
C1909 C 0.31344 0.497 0.13699 0.0
H1910 H 0.28672 0.41029 0.11921 0.0
C1911 C 0.28864 0.51045 0.13149 0.0
C1912 C 0.2631 0.48797 0.12089 0.0
H1913 H 0.33276 0.515 0.14365 0.0
H1914 H 0.28966 0.53849 0.13408 0.0
C1915 C 0.26304 0.45174 0.11767 0.0
C1916 C 0.89471 0.95757 0.33171 0.0
C1917 C 0.92295 0.95434 0.33529 0.0
H1918 H 0.85249 0.9336 0.33155 0.0
C1919 C 0.92884 0.92085 0.34093 0.0
H1920 H 0.88872 0.98232 0.32753 0.0
C1921 C 0.90779 0.89242 0.3432 0.0
C1922 C 0.87963 0.89593 0.34005 0.0
H1923 H 0.95006 0.91648 0.34399 0.0
H1924 H 0.9137 0.86781 0.34801 0.0
C1925 C 0.87371 0.92921 0.3341 0.0
C1926 C 0.7662 0.14456 0.85642 0.0
C1927 C 0.74389 0.14604 0.87624 0.0
H1928 H 0.80111 0.17282 0.83765 0.0
C1929 C 0.74158 0.17935 0.89417 0.0
H1930 H 0.76879 0.11982 0.84183 0.0
C1931 C 0.76043 0.20971 0.89226 0.0
C1932 C 0.78227 0.20853 0.87174 0.0
H1933 H 0.7248 0.18213 0.9096 0.0
H1934 H 0.75714 0.23446 0.90594 0.0
C1935 C 0.78477 0.17522 0.85387 0.0
loop_
_geom_bond_atom_site_label_1
_geom_bond_atom_site_label_2
_geom_bond_distance
_geom_bond_site_symmetry_2
_ccdc_geom_bond_type
Co0 O1 2.216 . S
Co0 O2 2.091 . S
Co0 O4 2.004 . S
Co0 O10 2.021 . S
Co0 O12 2.137 . S
Co0 O13 2.244 . S
O1 Co0 2.216 . S
O1 C8 1.247 . S
O2 Co0 2.091 . S
O2 C8 1.261 . S
C3 O12 1.247 . S
C3 O13 1.272 . S
O4 Co0 2.004 . S
O4 C9 1.259 . S
Co5 O6 2.061 . S
Co5 O11 2.052 . S
Co5 O13 2.135 . S
O6 Co5 2.061 . S
O6 C9 1.235 . S
C7 O10 1.238 . S
C7 O11 1.241 . S
C8 O1 1.247 . S
C8 O2 1.261 . S
C9 O4 1.259 . S
C9 O6 1.235 . S
O10 Co0 2.021 . S
O10 C7 1.238 . S
O11 Co5 2.052 . S
O11 C7 1.241 . S
O12 Co0 2.137 . S
O12 C3 1.247 . S
O13 Co0 2.244 . S
O13 C3 1.272 . S
O13 Co5 2.135 . S
Co14 O15 2.216 1_455 S
Co14 O16 2.091 1_455 S
Co14 O18 2.004 . S
Co14 O24 2.021 . S
Co14 O26 2.137 . S
Co14 O27 2.244 . S
O15 Co14 2.216 1_655 S
O15 C22 1.247 . S
O16 Co14 2.091 1_655 S
O16 C22 1.261 . S
C17 O26 1.247 . S
C17 O27 1.272 . S
O18 Co14 2.004 . S
O18 C23 1.259 . S
Co19 O20 2.061 . S
Co19 O25 2.052 . S
Co19 O27 2.135 . S
O20 Co19 2.061 . S
O20 C23 1.235 . S
C21 O24 1.238 . S
C21 O25 1.241 . S
C22 O15 1.247 . S
C22 O16 1.261 . S
C23 O18 1.259 . S
C23 O20 1.235 . S
O24 Co14 2.021 . S
O24 C21 1.238 . S
O25 Co19 2.052 . S
O25 C21 1.241 . S
O26 Co14 2.137 . S
O26 C17 1.247 . S
O27 Co14 2.244 . S
O27 C17 1.272 . S
O27 Co19 2.135 . S
Co28 O29 2.216 1_556 S
Co28 O30 2.091 . S
Co28 O32 2.004 . S
Co28 O38 2.021 1_556 S
Co28 O40 2.138 1_556 S
Co28 O41 2.244 1_556 S
O29 Co28 2.216 1_554 S
O29 C36 1.247 1_554 S
O30 Co28 2.091 . S
O30 C36 1.261 . S
C31 O40 1.250 . S
C31 O41 1.272 . S
O32 Co28 2.004 . S
O32 C37 1.259 . S
Co33 O34 2.061 . S
Co33 O39 2.052 . S
Co33 O41 2.135 . S
O34 Co33 2.061 . S
O34 C37 1.235 1_554 S
C35 O38 1.238 . S
C35 O39 1.241 . S
C36 O29 1.247 1_556 S
C36 O30 1.261 . S
C37 O32 1.259 . S
C37 O34 1.235 1_556 S
O38 Co28 2.021 1_554 S
O38 C35 1.238 . S
O39 Co33 2.052 . S
O39 C35 1.241 . S
O40 Co28 2.138 1_554 S
O40 C31 1.250 . S
O41 Co28 2.244 1_554 S
O41 C31 1.272 . S
O41 Co33 2.135 . S
Co42 O43 2.216 . S
Co42 O44 2.091 . S
Co42 O46 2.004 . S
Co42 O52 2.021 . S
Co42 O54 2.137 . S
Co42 O55 2.244 . S
O43 Co42 2.216 . S
O43 C50 1.247 . S
O44 Co42 2.091 . S
O44 C50 1.261 . S
C45 O54 1.247 . S
C45 O55 1.272 . S
O46 Co42 2.004 . S
O46 C51 1.259 . S
Co47 O48 2.061 . S
Co47 O53 2.052 . S
Co47 O55 2.135 . S
O48 Co47 2.061 . S
O48 C51 1.235 . S
C49 O52 1.238 . S
C49 O53 1.241 . S
C50 O43 1.247 . S
C50 O44 1.261 . S
C51 O46 1.259 . S
C51 O48 1.235 . S
O52 Co42 2.021 . S
O52 C49 1.238 . S
O53 Co47 2.052 . S
O53 C49 1.241 . S
O54 Co42 2.137 . S
O54 C45 1.247 . S
O55 Co42 2.244 . S
O55 C45 1.272 . S
O55 Co47 2.135 . S
Co56 O57 2.216 . S
Co56 O58 2.091 . S
Co56 O60 2.004 . S
Co56 O66 2.021 . S
Co56 O68 2.137 . S
Co56 O69 2.244 . S
O57 Co56 2.216 . S
O57 C64 1.247 . S
O58 Co56 2.091 . S
O58 C64 1.261 . S
C59 O68 1.247 . S
C59 O69 1.272 . S
O60 Co56 2.004 . S
O60 C65 1.259 . S
Co61 O62 2.061 . S
Co61 O67 2.052 . S
Co61 O69 2.135 . S
O62 Co61 2.061 . S
O62 C65 1.235 . S
C63 O66 1.238 . S
C63 O67 1.241 . S
C64 O57 1.247 . S
C64 O58 1.261 . S
C65 O60 1.259 . S
C65 O62 1.235 . S
O66 Co56 2.021 . S
O66 C63 1.238 . S
O67 Co61 2.052 . S
O67 C63 1.241 . S
O68 Co56 2.137 . S
O68 C59 1.247 . S
O69 Co56 2.244 . S
O69 C59 1.272 . S
O69 Co61 2.135 . S
Co70 O71 2.216 . S
Co70 O72 2.091 . S
Co70 O74 2.004 . S
Co70 O80 2.021 . S
Co70 O82 2.137 . S
Co70 O83 2.244 . S
O71 Co70 2.216 . S
O71 C78 1.247 . S
O72 Co70 2.091 . S
O72 C78 1.261 . S
C73 O82 1.247 . S
C73 O83 1.272 . S
O74 Co70 2.004 . S
O74 C79 1.259 . S
Co75 O76 2.061 . S
Co75 O81 2.052 . S
Co75 O83 2.135 . S
O76 Co75 2.061 . S
O76 C79 1.235 . S
C77 O80 1.238 . S
C77 O81 1.241 . S
C78 O71 1.247 . S
C78 O72 1.261 . S
C79 O74 1.259 . S
C79 O76 1.235 . S
O80 Co70 2.021 . S
O80 C77 1.238 . S
O81 Co75 2.052 . S
O81 C77 1.241 . S
O82 Co70 2.137 . S
O82 C73 1.247 . S
O83 Co70 2.244 . S
O83 C73 1.272 . S
O83 Co75 2.135 . S
Co84 O85 2.216 . S
Co84 O86 2.091 . S
Co84 O88 2.004 . S
Co84 O94 2.021 . S
Co84 O96 2.137 . S
Co84 O97 2.244 . S
O85 Co84 2.216 . S
O85 C92 1.247 . S
O86 Co84 2.091 . S
O86 C92 1.261 . S
C87 O96 1.247 . S
C87 O97 1.272 . S
O88 Co84 2.004 . S
O88 C93 1.259 . S
Co89 O90 2.061 . S
Co89 O95 2.052 . S
Co89 O97 2.135 . S
O90 Co89 2.061 . S
O90 C93 1.235 . S
C91 O94 1.238 . S
C91 O95 1.241 . S
C92 O85 1.247 . S
C92 O86 1.261 . S
C93 O88 1.259 . S
C93 O90 1.235 . S
O94 Co84 2.021 . S
O94 C91 1.238 . S
O95 Co89 2.052 . S
O95 C91 1.241 . S
O96 Co84 2.137 . S
O96 C87 1.247 . S
O97 Co84 2.244 . S
O97 C87 1.272 . S
O97 Co89 2.135 . S
Co98 O99 2.216 . S
Co98 O100 2.091 . S
Co98 O102 2.004 1_455 S
Co98 O108 2.021 . S
Co98 O110 2.137 . S
Co98 O111 2.244 1_556 S
O99 Co98 2.216 . S
O99 C106 1.247 . S
O100 Co98 2.091 . S
O100 C106 1.261 . S
C101 O110 1.247 . S
C101 O111 1.272 1_556 S
O102 Co98 2.004 1_655 S
O102 C107 1.259 . S
Co103 O104 2.061 1_554 S
Co103 O109 2.052 . S
Co103 O111 2.135 1_655 S
O104 Co103 2.061 1_556 S
O104 C107 1.235 . S
C105 O108 1.234 1_655 S
C105 O109 1.249 1_556 S
C106 O99 1.247 . S
C106 O100 1.261 . S
C107 O102 1.259 . S
C107 O104 1.235 . S
O108 Co98 2.021 . S
O108 C105 1.234 1_455 S
O109 Co103 2.052 . S
O109 C105 1.249 1_554 S
O110 Co98 2.137 . S
O110 C101 1.247 . S
O111 Co98 2.244 1_554 S
O111 C101 1.272 1_554 S
O111 Co103 2.135 1_455 S
Co112 O113 2.216 . S
Co112 O114 2.091 . S
Co112 O116 2.004 1_545 S
Co112 O122 2.021 . S
Co112 O124 2.137 . S
Co112 O125 2.244 . S
O113 Co112 2.216 . S
O113 C120 1.247 . S
O114 Co112 2.091 . S
O114 C120 1.261 . S
C115 O124 1.247 . S
C115 O125 1.272 . S
O116 Co112 2.004 1_565 S
O116 C121 1.259 . S
Co117 O118 2.061 . S
Co117 O123 2.052 1_565 S
Co117 O125 2.135 1_565 S
O118 Co117 2.061 . S
O118 C121 1.235 . S
C119 O122 1.238 . S
C119 O123 1.241 . S
C120 O113 1.247 . S
C120 O114 1.261 . S
C121 O116 1.259 . S
C121 O118 1.235 . S
O122 Co112 2.021 . S
O122 C119 1.238 . S
O123 Co117 2.052 1_545 S
O123 C119 1.241 . S
O124 Co112 2.137 . S
O124 C115 1.247 . S
O125 Co112 2.244 . S
O125 C115 1.272 . S
O125 Co117 2.135 1_545 S
Co126 O127 2.216 . S
Co126 O128 2.091 . S
Co126 O130 2.004 . S
Co126 O136 2.021 . S
Co126 O138 2.137 . S
Co126 O139 2.244 . S
O127 Co126 2.216 . S
O127 C134 1.247 . S
O128 Co126 2.091 . S
O128 C134 1.261 . S
C129 O138 1.247 . S
C129 O139 1.272 . S
O130 Co126 2.004 . S
O130 C135 1.259 . S
Co131 O132 2.061 . S
Co131 O137 2.052 . S
Co131 O139 2.135 . S
O132 Co131 2.061 . S
O132 C135 1.235 . S
C133 O136 1.238 . S
C133 O137 1.241 . S
C134 O127 1.247 . S
C134 O128 1.261 . S
C135 O130 1.259 . S
C135 O132 1.235 . S
O136 Co126 2.021 . S
O136 C133 1.238 . S
O137 Co131 2.052 . S
O137 C133 1.241 . S
O138 Co126 2.137 . S
O138 C129 1.247 . S
O139 Co126 2.244 . S
O139 C129 1.272 . S
O139 Co131 2.135 . S
Co140 O141 2.216 . S
Co140 O142 2.091 . S
Co140 O144 2.004 1_565 S
Co140 O150 2.021 . S
Co140 O152 2.141 1_565 S
Co140 O153 2.244 1_565 S
O141 Co140 2.216 . S
O141 C148 1.247 . S
O142 Co140 2.091 . S
O142 C148 1.261 . S
C143 O152 1.257 . S
C143 O153 1.272 . S
O144 Co140 2.004 1_545 S
O144 C149 1.259 . S
Co145 O146 2.061 . S
Co145 O151 2.052 . S
Co145 O153 2.135 . S
O146 Co145 2.061 . S
O146 C149 1.235 . S
C147 O150 1.251 . S
C147 O151 1.225 1_565 S
C148 O141 1.247 . S
C148 O142 1.261 . S
C149 O144 1.259 . S
C149 O146 1.235 . S
O150 Co140 2.021 . S
O150 C147 1.251 . S
O151 Co145 2.052 . S
O151 C147 1.225 1_545 S
O152 Co140 2.141 1_545 S
O152 C143 1.257 . S
O153 Co140 2.244 1_545 S
O153 C143 1.272 . S
O153 Co145 2.135 . S
Co154 O155 2.216 . S
Co154 O156 2.091 1_556 S
Co154 O158 2.004 1_556 S
Co154 O164 2.021 1_556 S
Co154 O166 2.137 . S
Co154 O167 2.244 . S
O155 Co154 2.216 . S
O155 C162 1.247 1_556 S
O156 Co154 2.091 1_554 S
O156 C162 1.261 . S
C157 O166 1.247 . S
C157 O167 1.272 . S
O158 Co154 2.004 1_554 S
O158 C163 1.259 . S
Co159 O160 2.061 1_556 S
Co159 O165 2.052 1_556 S
Co159 O167 2.135 . S
O160 Co159 2.061 1_554 S
O160 C163 1.235 . S
C161 O164 1.238 . S
C161 O165 1.241 . S
C162 O155 1.247 1_554 S
C162 O156 1.261 . S
C163 O158 1.259 . S
C163 O160 1.235 . S
O164 Co154 2.021 1_554 S
O164 C161 1.238 . S
O165 Co159 2.052 1_554 S
O165 C161 1.241 . S
O166 Co154 2.137 . S
O166 C157 1.247 . S
O167 Co154 2.244 . S
O167 C157 1.272 . S
O167 Co159 2.135 . S
Co168 O169 2.216 . S
Co168 O170 2.091 . S
Co168 O172 2.004 . S
Co168 O178 2.021 . S
Co168 O180 2.137 . S
Co168 O181 2.244 . S
O169 Co168 2.216 . S
O169 C176 1.247 . S
O170 Co168 2.091 . S
O170 C176 1.261 . S
C171 O180 1.247 . S
C171 O181 1.272 . S
O172 Co168 2.004 . S
O172 C177 1.259 . S
Co173 O174 2.061 . S
Co173 O179 2.052 . S
Co173 O181 2.135 . S
O174 Co173 2.061 . S
O174 C177 1.235 . S
C175 O178 1.238 . S
C175 O179 1.241 . S
C176 O169 1.247 . S
C176 O170 1.261 . S
C177 O172 1.259 . S
C177 O174 1.235 . S
O178 Co168 2.021 . S
O178 C175 1.238 . S
O179 Co173 2.052 . S
O179 C175 1.241 . S
O180 Co168 2.137 . S
O180 C171 1.247 . S
O181 Co168 2.244 . S
O181 C171 1.272 . S
O181 Co173 2.135 . S
Co182 O183 2.216 . S
Co182 O184 2.091 . S
Co182 O186 2.004 . S
Co182 O192 2.021 . S
Co182 O194 2.137 . S
Co182 O195 2.244 . S
O183 Co182 2.216 . S
O183 C190 1.247 . S
O184 Co182 2.091 . S
O184 C190 1.261 . S
C185 O194 1.247 . S
C185 O195 1.272 . S
O186 Co182 2.004 . S
O186 C191 1.259 . S
Co187 O188 2.061 . S
Co187 O193 2.052 . S
Co187 O195 2.135 . S
O188 Co187 2.061 . S
O188 C191 1.235 . S
C189 O192 1.238 . S
C189 O193 1.241 . S
C190 O183 1.247 . S
C190 O184 1.261 . S
C191 O186 1.259 . S
C191 O188 1.235 . S
O192 Co182 2.021 . S
O192 C189 1.238 . S
O193 Co187 2.052 . S
O193 C189 1.241 . S
O194 Co182 2.137 . S
O194 C185 1.247 . S
O195 Co182 2.244 . S
O195 C185 1.272 . S
O195 Co187 2.135 . S
Co196 O197 2.216 . S
Co196 O198 2.091 . S
Co196 O200 2.004 . S
Co196 O206 2.021 . S
Co196 O208 2.137 . S
Co196 O209 2.244 . S
O197 Co196 2.216 . S
O197 C204 1.247 . S
O198 Co196 2.091 . S
O198 C204 1.261 . S
C199 O208 1.247 . S
C199 O209 1.272 . S
O200 Co196 2.004 . S
O200 C205 1.259 . S
Co201 O202 2.061 . S
Co201 O207 2.052 . S
Co201 O209 2.135 . S
O202 Co201 2.061 . S
O202 C205 1.235 . S
C203 O206 1.238 . S
C203 O207 1.241 . S
C204 O197 1.247 . S
C204 O198 1.261 . S
C205 O200 1.259 . S
C205 O202 1.235 . S
O206 Co196 2.021 . S
O206 C203 1.238 . S
O207 Co201 2.052 . S
O207 C203 1.241 . S
O208 Co196 2.137 . S
O208 C199 1.247 . S
O209 Co196 2.244 . S
O209 C199 1.272 . S
O209 Co201 2.135 . S
Co210 O211 2.216 . S
Co210 O212 2.091 . S
Co210 O214 2.004 . S
Co210 O220 2.021 . S
Co210 O222 2.137 . S
Co210 O223 2.244 . S
O211 Co210 2.216 . S
O211 C218 1.247 . S
O212 Co210 2.091 . S
O212 C218 1.261 . S
C213 O222 1.247 . S
C213 O223 1.272 . S
O214 Co210 2.004 . S
O214 C219 1.259 . S
Co215 O216 2.061 . S
Co215 O221 2.052 . S
Co215 O223 2.135 . S
O216 Co215 2.061 . S
O216 C219 1.235 . S
C217 O220 1.238 . S
C217 O221 1.241 . S
C218 O211 1.247 . S
C218 O212 1.261 . S
C219 O214 1.259 . S
C219 O216 1.235 . S
O220 Co210 2.021 . S
O220 C217 1.238 . S
O221 Co215 2.052 . S
O221 C217 1.241 . S
O222 Co210 2.137 . S
O222 C213 1.247 . S
O223 Co210 2.244 . S
O223 C213 1.272 . S
O223 Co215 2.135 . S
Co224 O225 2.216 . S
Co224 O226 2.091 . S
Co224 O228 2.004 1_545 S
Co224 O234 2.021 . S
Co224 O236 2.137 . S
Co224 O237 2.244 . S
O225 Co224 2.216 . S
O225 C232 1.247 . S
O226 Co224 2.091 . S
O226 C232 1.261 . S
C227 O236 1.247 . S
C227 O237 1.272 . S
O228 Co224 2.004 1_565 S
O228 C233 1.259 . S
Co229 O230 2.061 . S
Co229 O235 2.052 1_565 S
Co229 O237 2.135 1_565 S
O230 Co229 2.061 . S
O230 C233 1.235 . S
C231 O234 1.238 . S
C231 O235 1.241 . S
C232 O225 1.247 . S
C232 O226 1.261 . S
C233 O228 1.259 . S
C233 O230 1.235 . S
O234 Co224 2.021 . S
O234 C231 1.238 . S
O235 Co229 2.052 1_545 S
O235 C231 1.241 . S
O236 Co224 2.137 . S
O236 C227 1.247 . S
O237 Co224 2.244 . S
O237 C227 1.272 . S
O237 Co229 2.135 1_545 S
Co238 O239 2.216 . S
Co238 O240 2.091 . S
Co238 O242 2.004 . S
Co238 O248 2.021 . S
Co238 O250 2.137 . S
Co238 O251 2.244 . S
O239 Co238 2.216 . S
O239 C246 1.247 . S
O240 Co238 2.091 . S
O240 C246 1.261 . S
C241 O250 1.247 . S
C241 O251 1.272 . S
O242 Co238 2.004 . S
O242 C247 1.259 . S
Co243 O244 2.061 . S
Co243 O249 2.052 . S
Co243 O251 2.135 . S
O244 Co243 2.061 . S
O244 C247 1.235 . S
C245 O248 1.238 . S
C245 O249 1.241 . S
C246 O239 1.247 . S
C246 O240 1.261 . S
C247 O242 1.259 . S
C247 O244 1.235 . S
O248 Co238 2.021 . S
O248 C245 1.238 . S
O249 Co243 2.052 . S
O249 C245 1.241 . S
O250 Co238 2.137 . S
O250 C241 1.247 . S
O251 Co238 2.244 . S
O251 C241 1.272 . S
O251 Co243 2.135 . S
Co252 O253 2.216 . S
Co252 O254 2.091 . S
Co252 O256 2.004 . S
Co252 O262 2.021 . S
Co252 O264 2.137 . S
Co252 O265 2.244 . S
O253 Co252 2.216 . S
O253 C260 1.247 . S
O254 Co252 2.091 . S
O254 C260 1.261 . S
C255 O264 1.247 . S
C255 O265 1.272 . S
O256 Co252 2.004 . S
O256 C261 1.259 . S
Co257 O258 2.061 . S
Co257 O263 2.052 . S
Co257 O265 2.135 . S
O258 Co257 2.061 . S
O258 C261 1.235 . S
C259 O262 1.238 . S
C259 O263 1.241 . S
C260 O253 1.247 . S
C260 O254 1.261 . S
C261 O256 1.259 . S
C261 O258 1.235 . S
O262 Co252 2.021 . S
O262 C259 1.238 . S
O263 Co257 2.052 . S
O263 C259 1.241 . S
O264 Co252 2.137 . S
O264 C255 1.247 . S
O265 Co252 2.244 . S
O265 C255 1.272 . S
O265 Co257 2.135 . S
Co266 O267 2.216 1_545 S
Co266 O268 2.091 1_545 S
Co266 O270 2.004 . S
Co266 O276 2.018 . S
Co266 O278 2.137 . S
Co266 O279 2.244 . S
O267 Co266 2.216 1_565 S
O267 C274 1.247 . S
O268 Co266 2.091 1_565 S
O268 C274 1.261 . S
C269 O278 1.247 . S
C269 O279 1.272 . S
O270 Co266 2.004 . S
O270 C275 1.259 . S
Co271 O272 2.061 . S
Co271 O277 2.052 . S
Co271 O279 2.135 . S
O272 Co271 2.061 . S
O272 C275 1.235 . S
C273 O276 1.243 . S
C273 O277 1.241 . S
C274 O267 1.247 . S
C274 O268 1.261 . S
C275 O270 1.259 . S
C275 O272 1.235 . S
O276 Co266 2.018 . S
O276 C273 1.243 . S
O277 Co271 2.052 . S
O277 C273 1.241 . S
O278 Co266 2.137 . S
O278 C269 1.247 . S
O279 Co266 2.244 . S
O279 C269 1.272 . S
O279 Co271 2.135 . S
Co280 O281 2.216 . S
Co280 O282 2.091 . S
Co280 O284 2.004 . S
Co280 O290 2.021 . S
Co280 O292 2.172 . S
Co280 O293 2.244 . S
O281 Co280 2.216 . S
O281 C288 1.247 . S
O282 Co280 2.091 . S
O282 C288 1.261 . S
C283 O292 1.247 . S
C283 O293 1.272 . S
O284 Co280 2.004 . S
O284 C289 1.259 . S
Co285 O286 2.061 . S
Co285 O291 2.052 . S
Co285 O293 2.135 . S
O286 Co285 2.061 . S
O286 C289 1.235 . S
C287 O290 1.238 . S
C287 O291 1.241 . S
C288 O281 1.247 . S
C288 O282 1.261 . S
C289 O284 1.259 . S
C289 O286 1.235 . S
O290 Co280 2.021 . S
O290 C287 1.238 . S
O291 Co285 2.052 . S
O291 C287 1.241 . S
O292 Co280 2.172 . S
O292 C283 1.247 . S
O293 Co280 2.244 . S
O293 C283 1.272 . S
O293 Co285 2.135 . S
Co294 O295 2.216 . S
Co294 O296 2.091 . S
Co294 O298 2.004 . S
Co294 O304 2.021 . S
Co294 O306 2.137 . S
Co294 O307 2.244 . S
O295 Co294 2.216 . S
O295 C302 1.247 . S
O296 Co294 2.091 . S
O296 C302 1.261 . S
C297 O306 1.247 . S
C297 O307 1.272 . S
O298 Co294 2.004 . S
O298 C303 1.259 . S
Co299 O300 2.061 . S
Co299 O305 2.052 . S
Co299 O307 2.135 . S
O300 Co299 2.061 . S
O300 C303 1.235 . S
C301 O304 1.238 . S
C301 O305 1.241 . S
C302 O295 1.247 . S
C302 O296 1.261 . S
C303 O298 1.259 . S
C303 O300 1.235 . S
O304 Co294 2.021 . S
O304 C301 1.238 . S
O305 Co299 2.052 . S
O305 C301 1.241 . S
O306 Co294 2.137 . S
O306 C297 1.247 . S
O307 Co294 2.244 . S
O307 C297 1.272 . S
O307 Co299 2.135 . S
Co308 O309 2.216 . S
Co308 O310 2.091 . S
Co308 O312 2.004 . S
Co308 O318 2.021 . S
Co308 O320 2.137 . S
Co308 O321 2.244 . S
O309 Co308 2.216 . S
O309 C316 1.247 . S
O310 Co308 2.091 . S
O310 C316 1.261 . S
C311 O320 1.247 . S
C311 O321 1.272 . S
O312 Co308 2.004 . S
O312 C317 1.259 . S
Co313 O314 2.061 . S
Co313 O319 2.052 . S
Co313 O321 2.135 . S
O314 Co313 2.061 . S
O314 C317 1.235 . S
C315 O318 1.238 . S
C315 O319 1.241 . S
C316 O309 1.247 . S
C316 O310 1.261 . S
C317 O312 1.259 . S
C317 O314 1.235 . S
O318 Co308 2.021 . S
O318 C315 1.238 . S
O319 Co313 2.052 . S
O319 C315 1.241 . S
O320 Co308 2.137 . S
O320 C311 1.247 . S
O321 Co308 2.244 . S
O321 C311 1.272 . S
O321 Co313 2.135 . S
Co322 O323 2.216 . S
Co322 O324 2.091 . S
Co322 O326 2.004 . S
Co322 O332 2.021 . S
Co322 O334 2.137 . S
Co322 O335 2.244 . S
O323 Co322 2.216 . S
O323 C330 1.247 . S
O324 Co322 2.091 . S
O324 C330 1.261 . S
C325 O334 1.247 . S
C325 O335 1.272 . S
O326 Co322 2.004 . S
O326 C331 1.259 . S
Co327 O328 2.061 . S
Co327 O333 2.052 . S
Co327 O335 2.135 . S
O328 Co327 2.061 . S
O328 C331 1.235 . S
C329 O332 1.238 . S
C329 O333 1.241 . S
C330 O323 1.247 . S
C330 O324 1.261 . S
C331 O326 1.259 . S
C331 O328 1.235 . S
O332 Co322 2.021 . S
O332 C329 1.238 . S
O333 Co327 2.052 . S
O333 C329 1.241 . S
O334 Co322 2.137 . S
O334 C325 1.247 . S
O335 Co322 2.244 . S
O335 C325 1.272 . S
O335 Co327 2.135 . S
C336 Eu337 2.835 . S
C336 C338 1.500 1_545 S
C336 O356 1.257 1_545 S
C336 O357 1.260 . S
Eu337 C336 2.835 . S
Eu337 O356 2.473 1_545 S
Eu337 O357 2.480 . S
Eu337 O358 2.430 . S
Eu337 O359 2.670 . S
Eu337 O360 2.394 1_545 S
Eu337 O365 2.355 . S
Eu337 O367 2.374 . S
C338 C336 1.500 1_565 S
C338 C339 1.377 . S
C338 C343 1.377 . S
C339 C338 1.377 . S
C339 C340 1.395 . S
C339 H368 0.931 . S
C340 C339 1.395 . S
C340 C341 1.383 . S
C340 H369 0.931 . S
C341 C340 1.383 . S
C341 C342 1.394 . S
C342 C341 1.394 . S
C342 C343 1.378 . S
C342 H370 0.931 . S
C343 C338 1.377 . S
C343 C342 1.378 . S
C343 H371 0.931 . S
C344 O358 1.259 . S
C344 O359 1.270 . S
C345 O360 1.251 . S
C345 O361 1.251 . S
C346 Eu347 2.835 1_655 S
C346 C348 1.500 . S
C346 O362 1.257 . S
C346 O363 1.260 . S
Eu347 C346 2.835 1_455 S
Eu347 O359 2.355 . S
Eu347 O361 2.374 1_545 S
Eu347 O362 2.473 1_455 S
Eu347 O363 2.480 1_455 S
Eu347 O364 2.430 1_545 S
Eu347 O365 2.670 . S
Eu347 O366 2.394 . S
C348 C346 1.500 . S
C348 C349 1.377 . S
C348 C353 1.377 . S
C349 C348 1.377 . S
C349 C350 1.395 . S
C349 H372 0.931 1_554 S
C350 C349 1.395 . S
C350 C351 1.383 . S
C350 H373 0.931 1_554 S
C351 C350 1.383 . S
C351 C352 1.394 . S
C352 C351 1.394 . S
C352 C353 1.378 . S
C352 H374 0.931 . S
C353 C348 1.377 . S
C353 C352 1.378 . S
C353 H375 0.931 . S
C354 O364 1.260 1_545 S
C354 O365 1.270 . S
C355 O366 1.251 . S
C355 O367 1.251 . S
O356 C336 1.257 1_565 S
O356 Eu337 2.473 1_565 S
O357 C336 1.260 . S
O357 Eu337 2.480 . S
O358 Eu337 2.430 . S
O358 C344 1.259 . S
O359 Eu337 2.670 . S
O359 C344 1.270 . S
O359 Eu347 2.355 . S
O360 Eu337 2.394 1_565 S
O360 C345 1.251 . S
O361 C345 1.251 . S
O361 Eu347 2.374 1_565 S
O362 C346 1.257 . S
O362 Eu347 2.473 1_655 S
O363 C346 1.260 . S
O363 Eu347 2.480 1_655 S
O364 Eu347 2.430 1_565 S
O364 C354 1.260 1_565 S
O365 Eu337 2.355 . S
O365 Eu347 2.670 . S
O365 C354 1.270 . S
O366 Eu347 2.394 . S
O366 C355 1.251 . S
O367 Eu337 2.374 . S
O367 C355 1.251 . S
H368 C339 0.931 . S
H369 C340 0.931 . S
H370 C342 0.931 . S
H371 C343 0.931 . S
H372 C349 0.931 1_556 S
H373 C350 0.931 1_556 S
H374 C352 0.931 . S
H375 C353 0.931 . S
C376 Eu377 2.835 . S
C376 C378 1.500 . S
C376 O396 1.257 . S
C376 O397 1.260 . S
Eu377 C376 2.835 . S
Eu377 O396 2.473 . S
Eu377 O397 2.480 . S
Eu377 O398 2.430 . S
Eu377 O399 2.670 . S
Eu377 O400 2.394 . S
Eu377 O405 2.355 . S
Eu377 O407 2.374 . S
C378 C376 1.500 . S
C378 C379 1.377 . S
C378 C383 1.377 . S
C379 C378 1.377 . S
C379 C380 1.395 . S
C379 H408 0.931 . S
C380 C379 1.395 . S
C380 C381 1.383 . S
C380 H409 0.931 . S
C381 C380 1.383 . S
C381 C382 1.394 . S
C382 C381 1.394 . S
C382 C383 1.378 . S
C382 H410 0.931 . S
C383 C378 1.377 . S
C383 C382 1.378 . S
C383 H411 0.931 . S
C384 O398 1.259 . S
C384 O399 1.270 . S
C385 O400 1.251 . S
C385 O401 1.251 . S
C386 Eu387 2.835 . S
C386 C388 1.500 . S
C386 O402 1.257 . S
C386 O403 1.260 . S
Eu387 C386 2.835 . S
Eu387 O399 2.355 . S
Eu387 O401 2.374 . S
Eu387 O402 2.473 . S
Eu387 O403 2.480 . S
Eu387 O404 2.430 . S
Eu387 O405 2.670 . S
Eu387 O406 2.394 . S
C388 C386 1.500 . S
C388 C389 1.377 . S
C388 C393 1.377 . S
C389 C388 1.377 . S
C389 C390 1.395 . S
C389 H412 0.931 . S
C390 C389 1.395 . S
C390 C391 1.383 . S
C390 H413 0.931 . S
C391 C390 1.383 . S
C391 C392 1.394 . S
C392 C391 1.394 . S
C392 C393 1.378 . S
C392 H414 0.931 . S
C393 C388 1.377 . S
C393 C392 1.378 . S
C393 H415 0.931 . S
C394 O404 1.259 . S
C394 O405 1.270 . S
C395 O406 1.251 . S
C395 O407 1.251 . S
O396 C376 1.257 . S
O396 Eu377 2.473 . S
O397 C376 1.260 . S
O397 Eu377 2.480 . S
O398 Eu377 2.430 . S
O398 C384 1.259 . S
O399 Eu377 2.670 . S
O399 C384 1.270 . S
O399 Eu387 2.355 . S
O400 Eu377 2.394 . S
O400 C385 1.251 . S
O401 C385 1.251 . S
O401 Eu387 2.374 . S
O402 C386 1.257 . S
O402 Eu387 2.473 . S
O403 C386 1.260 . S
O403 Eu387 2.480 . S
O404 Eu387 2.430 . S
O404 C394 1.259 . S
O405 Eu377 2.355 . S
O405 Eu387 2.670 . S
O405 C394 1.270 . S
O406 Eu387 2.394 . S
O406 C395 1.251 . S
O407 Eu377 2.374 . S
O407 C395 1.251 . S
H408 C379 0.931 . S
H409 C380 0.931 . S
H410 C382 0.931 . S
H411 C383 0.931 . S
H412 C389 0.931 . S
H413 C390 0.931 . S
H414 C392 0.931 . S
H415 C393 0.931 . S
C416 Eu417 2.835 . S
C416 C418 1.500 . S
C416 O436 1.257 . S
C416 O437 1.260 . S
Eu417 C416 2.835 . S
Eu417 O436 2.473 . S
Eu417 O437 2.480 . S
Eu417 O438 2.430 . S
Eu417 O439 2.670 . S
Eu417 O440 2.394 . S
Eu417 O445 2.355 . S
Eu417 O447 2.374 1_545 S
C418 C416 1.500 . S
C418 C419 1.377 . S
C418 C423 1.377 . S
C419 C418 1.377 . S
C419 C420 1.395 . S
C419 H448 0.931 . S
C420 C419 1.395 . S
C420 C421 1.383 . S
C420 H449 0.931 . S
C421 C420 1.383 . S
C421 C422 1.394 . S
C422 C421 1.394 . S
C422 C423 1.378 . S
C422 H450 0.931 . S
C423 C418 1.377 . S
C423 C422 1.378 . S
C423 H451 0.931 . S
C424 O438 1.259 . S
C424 O439 1.270 . S
C425 O440 1.251 . S
C425 O441 1.251 . S
C426 Eu427 2.835 1_565 S
C426 C428 1.500 . S
C426 O442 1.257 . S
C426 O443 1.248 1_565 S
Eu427 C426 2.835 1_545 S
Eu427 O439 2.355 . S
Eu427 O441 2.374 . S
Eu427 O442 2.473 1_545 S
Eu427 O443 2.488 . S
Eu427 O444 2.430 . S
Eu427 O445 2.670 . S
Eu427 O446 2.394 1_545 S
C428 C426 1.500 . S
C428 C429 1.377 . S
C428 C433 1.377 . S
C429 C428 1.377 . S
C429 C430 1.395 . S
C429 H452 0.931 . S
C430 C429 1.395 . S
C430 C431 1.383 . S
C430 H453 0.931 . S
C431 C430 1.383 . S
C431 C432 1.394 . S
C432 C431 1.394 . S
C432 C433 1.378 . S
C432 H454 0.931 . S
C433 C428 1.377 . S
C433 C432 1.378 . S
C433 H455 0.931 . S
C434 O444 1.259 . S
C434 O445 1.270 . S
C435 O446 1.251 . S
C435 O447 1.251 . S
O436 C416 1.257 . S
O436 Eu417 2.473 . S
O437 C416 1.260 . S
O437 Eu417 2.480 . S
O438 Eu417 2.430 . S
O438 C424 1.259 . S
O439 Eu417 2.670 . S
O439 C424 1.270 . S
O439 Eu427 2.355 . S
O440 Eu417 2.394 . S
O440 C425 1.251 . S
O441 C425 1.251 . S
O441 Eu427 2.374 . S
O442 C426 1.257 . S
O442 Eu427 2.473 1_565 S
O443 C426 1.248 1_545 S
O443 Eu427 2.488 . S
O444 Eu427 2.430 . S
O444 C434 1.259 . S
O445 Eu417 2.355 . S
O445 Eu427 2.670 . S
O445 C434 1.270 . S
O446 Eu427 2.394 1_565 S
O446 C435 1.251 . S
O447 Eu417 2.374 1_565 S
O447 C435 1.251 . S
H448 C419 0.931 . S
H449 C420 0.931 . S
H450 C422 0.931 . S
H451 C423 0.931 . S
H452 C429 0.931 . S
H453 C430 0.931 . S
H454 C432 0.931 . S
H455 C433 0.931 . S
C456 Eu457 2.835 . S
C456 C458 1.500 . S
C456 O476 1.257 . S
C456 O477 1.260 . S
Eu457 C456 2.835 . S
Eu457 O476 2.473 . S
Eu457 O477 2.480 . S
Eu457 O478 2.430 . S
Eu457 O479 2.670 . S
Eu457 O480 2.394 . S
Eu457 O485 2.355 . S
Eu457 O487 2.374 . S
C458 C456 1.500 . S
C458 C459 1.377 . S
C458 C463 1.377 . S
C459 C458 1.377 . S
C459 C460 1.395 . S
C459 H488 0.931 . S
C460 C459 1.395 . S
C460 C461 1.383 . S
C460 H489 0.931 . S
C461 C460 1.383 . S
C461 C462 1.394 . S
C462 C461 1.394 . S
C462 C463 1.378 . S
C462 H490 0.931 . S
C463 C458 1.377 . S
C463 C462 1.378 . S
C463 H491 0.931 . S
C464 O478 1.259 . S
C464 O479 1.270 . S
C465 O480 1.251 . S
C465 O481 1.251 . S
C466 Eu467 2.835 . S
C466 C468 1.500 . S
C466 O482 1.257 . S
C466 O483 1.260 . S
Eu467 C466 2.835 . S
Eu467 O479 2.355 . S
Eu467 O481 2.374 . S
Eu467 O482 2.473 . S
Eu467 O483 2.480 . S
Eu467 O484 2.430 . S
Eu467 O485 2.670 . S
Eu467 O486 2.394 . S
C468 C466 1.500 . S
C468 C469 1.377 . S
C468 C473 1.377 . S
C469 C468 1.377 . S
C469 C470 1.395 . S
C469 H492 0.931 . S
C470 C469 1.395 . S
C470 C471 1.383 . S
C470 H493 0.931 . S
C471 C470 1.383 . S
C471 C472 1.394 . S
C472 C471 1.394 . S
C472 C473 1.378 . S
C472 H494 0.931 . S
C473 C468 1.377 . S
C473 C472 1.378 . S
C473 H495 0.931 . S
C474 O484 1.259 . S
C474 O485 1.270 . S
C475 O486 1.251 . S
C475 O487 1.251 . S
O476 C456 1.257 . S
O476 Eu457 2.473 . S
O477 C456 1.260 . S
O477 Eu457 2.480 . S
O478 Eu457 2.430 . S
O478 C464 1.259 . S
O479 Eu457 2.670 . S
O479 C464 1.270 . S
O479 Eu467 2.355 . S
O480 Eu457 2.394 . S
O480 C465 1.251 . S
O481 C465 1.251 . S
O481 Eu467 2.374 . S
O482 C466 1.257 . S
O482 Eu467 2.473 . S
O483 C466 1.260 . S
O483 Eu467 2.480 . S
O484 Eu467 2.430 . S
O484 C474 1.259 . S
O485 Eu457 2.355 . S
O485 Eu467 2.670 . S
O485 C474 1.270 . S
O486 Eu467 2.394 . S
O486 C475 1.251 . S
O487 Eu457 2.374 . S
O487 C475 1.251 . S
H488 C459 0.931 . S
H489 C460 0.931 . S
H490 C462 0.931 . S
H491 C463 0.931 . S
H492 C469 0.931 . S
H493 C470 0.931 . S
H494 C472 0.931 . S
H495 C473 0.931 . S
C496 Eu497 2.835 . S
C496 C498 1.500 . S
C496 O516 1.257 . S
C496 O517 1.260 . S
Eu497 C496 2.835 . S
Eu497 O516 2.473 . S
Eu497 O517 2.480 . S
Eu497 O518 2.441 . S
Eu497 O519 2.670 1_565 S
Eu497 O520 2.394 . S
Eu497 O525 2.371 . S
Eu497 O527 2.374 . S
C498 C496 1.500 . S
C498 C499 1.377 . S
C498 C503 1.377 . S
C499 C498 1.377 . S
C499 C500 1.395 . S
C499 H528 0.931 . S
C500 C499 1.395 . S
C500 C501 1.383 . S
C500 H529 0.931 . S
C501 C500 1.383 . S
C501 C502 1.394 . S
C502 C501 1.394 . S
C502 C503 1.378 . S
C502 H530 0.931 . S
C503 C498 1.377 . S
C503 C502 1.378 . S
C503 H531 0.931 . S
C504 O518 1.227 1_545 S
C504 O519 1.270 . S
C505 O520 1.251 1_545 S
C505 O521 1.251 . S
C506 Eu507 2.835 . S
C506 C508 1.500 . S
C506 O522 1.257 . S
C506 O523 1.260 . S
Eu507 C506 2.835 . S
Eu507 O519 2.355 . S
Eu507 O521 2.374 . S
Eu507 O522 2.473 . S
Eu507 O523 2.480 . S
Eu507 O524 2.430 1_455 S
Eu507 O525 2.641 1_545 S
Eu507 O526 2.394 . S
C508 C506 1.500 . S
C508 C509 1.377 . S
C508 C513 1.377 . S
C509 C508 1.377 . S
C509 C510 1.395 . S
C509 H532 0.931 1_455 S
C510 C509 1.395 . S
C510 C511 1.383 . S
C510 H533 0.931 1_455 S
C511 C510 1.383 . S
C511 C512 1.394 . S
C512 C511 1.394 . S
C512 C513 1.378 . S
C512 H534 0.931 . S
C513 C508 1.377 . S
C513 C512 1.378 . S
C513 H535 0.931 . S
C514 O524 1.259 . S
C514 O525 1.258 1_645 S
C515 O526 1.251 . S
C515 O527 1.251 1_545 S
O516 C496 1.257 . S
O516 Eu497 2.473 . S
O517 C496 1.260 . S
O517 Eu497 2.480 . S
O518 Eu497 2.441 . S
O518 C504 1.227 1_565 S
O519 Eu497 2.670 1_545 S
O519 C504 1.270 . S
O519 Eu507 2.355 . S
O520 Eu497 2.394 . S
O520 C505 1.251 1_565 S
O521 C505 1.251 . S
O521 Eu507 2.374 . S
O522 C506 1.257 . S
O522 Eu507 2.473 . S
O523 C506 1.260 . S
O523 Eu507 2.480 . S
O524 Eu507 2.430 1_655 S
O524 C514 1.259 . S
O525 Eu497 2.371 . S
O525 Eu507 2.641 1_565 S
O525 C514 1.258 1_465 S
O526 Eu507 2.394 . S
O526 C515 1.251 . S
O527 Eu497 2.374 . S
O527 C515 1.251 1_565 S
H528 C499 0.931 . S
H529 C500 0.931 . S
H530 C502 0.931 . S
H531 C503 0.931 . S
H532 C509 0.931 1_655 S
H533 C510 0.931 1_655 S
H534 C512 0.931 . S
H535 C513 0.931 . S
C536 Eu537 2.835 . S
C536 C538 1.500 . S
C536 O556 1.257 . S
C536 O557 1.260 . S
Eu537 C536 2.835 . S
Eu537 O556 2.473 . S
Eu537 O557 2.480 . S
Eu537 O558 2.430 . S
Eu537 O559 2.670 . S
Eu537 O560 2.394 . S
Eu537 O565 2.355 . S
Eu537 O567 2.374 . S
C538 C536 1.500 . S
C538 C539 1.377 . S
C538 C543 1.377 . S
C539 C538 1.377 . S
C539 C540 1.395 . S
C539 H568 0.931 . S
C540 C539 1.395 . S
C540 C541 1.383 . S
C540 H569 0.931 . S
C541 C540 1.383 . S
C541 C542 1.394 . S
C542 C541 1.394 . S
C542 C543 1.378 . S
C542 H570 0.931 . S
C543 C538 1.377 . S
C543 C542 1.378 . S
C543 H571 0.931 . S
C544 O558 1.259 . S
C544 O559 1.270 . S
C545 O560 1.251 . S
C545 O561 1.251 . S
C546 Eu547 2.835 . S
C546 C548 1.500 . S
C546 O562 1.257 . S
C546 O563 1.260 . S
Eu547 C546 2.835 . S
Eu547 O559 2.355 . S
Eu547 O561 2.374 . S
Eu547 O562 2.473 . S
Eu547 O563 2.480 . S
Eu547 O564 2.430 . S
Eu547 O565 2.670 . S
Eu547 O566 2.394 . S
C548 C546 1.500 . S
C548 C549 1.377 . S
C548 C553 1.377 . S
C549 C548 1.377 . S
C549 C550 1.395 . S
C549 H572 0.931 . S
C550 C549 1.395 . S
C550 C551 1.383 . S
C550 H573 0.931 . S
C551 C550 1.383 . S
C551 C552 1.394 . S
C552 C551 1.394 . S
C552 C553 1.378 . S
C552 H574 0.931 . S
C553 C548 1.377 . S
C553 C552 1.378 . S
C553 H575 0.931 . S
C554 O564 1.259 . S
C554 O565 1.270 . S
C555 O566 1.251 . S
C555 O567 1.251 . S
O556 C536 1.257 . S
O556 Eu537 2.473 . S
O557 C536 1.260 . S
O557 Eu537 2.480 . S
O558 Eu537 2.430 . S
O558 C544 1.259 . S
O559 Eu537 2.670 . S
O559 C544 1.270 . S
O559 Eu547 2.355 . S
O560 Eu537 2.394 . S
O560 C545 1.251 . S
O561 C545 1.251 . S
O561 Eu547 2.374 . S
O562 C546 1.257 . S
O562 Eu547 2.473 . S
O563 C546 1.260 . S
O563 Eu547 2.480 . S
O564 Eu547 2.430 . S
O564 C554 1.259 . S
O565 Eu537 2.355 . S
O565 Eu547 2.670 . S
O565 C554 1.270 . S
O566 Eu547 2.394 . S
O566 C555 1.251 . S
O567 Eu537 2.374 . S
O567 C555 1.251 . S
H568 C539 0.931 . S
H569 C540 0.931 . S
H570 C542 0.931 . S
H571 C543 0.931 . S
H572 C549 0.931 . S
H573 C550 0.931 . S
H574 C552 0.931 . S
H575 C553 0.931 . S
C576 Eu577 2.835 . S
C576 C578 1.500 . S
C576 O596 1.257 . S
C576 O597 1.260 . S
Eu577 C576 2.835 . S
Eu577 O596 2.473 . S
Eu577 O597 2.480 . S
Eu577 O598 2.430 1_545 S
Eu577 O599 2.670 1_545 S
Eu577 O600 2.394 . S
Eu577 O605 2.355 . S
Eu577 O607 2.374 . S
C578 C576 1.500 . S
C578 C579 1.377 . S
C578 C583 1.377 . S
C579 C578 1.377 . S
C579 C580 1.395 . S
C579 H608 0.931 . S
C580 C579 1.395 . S
C580 C581 1.383 . S
C580 H609 0.931 . S
C581 C580 1.383 . S
C581 C582 1.394 . S
C582 C581 1.394 . S
C582 C583 1.378 . S
C582 H610 0.931 . S
C583 C578 1.377 . S
C583 C582 1.378 . S
C583 H611 0.931 . S
C584 O598 1.259 . S
C584 O599 1.270 . S
C585 O600 1.251 . S
C585 O601 1.251 . S
C586 Eu587 2.835 1_565 S
C586 C588 1.500 . S
C586 O602 1.257 . S
C586 O603 1.260 1_565 S
Eu587 C586 2.835 1_545 S
Eu587 O599 2.355 1_545 S
Eu587 O601 2.374 . S
Eu587 O602 2.473 1_545 S
Eu587 O603 2.480 . S
Eu587 O604 2.430 . S
Eu587 O605 2.670 . S
Eu587 O606 2.394 . S
C588 C586 1.500 . S
C588 C589 1.377 . S
C588 C593 1.377 . S
C589 C588 1.377 . S
C589 C590 1.395 . S
C589 H612 0.931 . S
C590 C589 1.395 . S
C590 C591 1.383 . S
C590 H613 0.931 . S
C591 C590 1.383 . S
C591 C592 1.394 . S
C592 C591 1.394 . S
C592 C593 1.378 . S
C592 H614 0.931 . S
C593 C588 1.377 . S
C593 C592 1.378 . S
C593 H615 0.931 . S
C594 O604 1.259 . S
C594 O605 1.270 . S
C595 O606 1.251 . S
C595 O607 1.251 . S
O596 C576 1.257 . S
O596 Eu577 2.473 . S
O597 C576 1.260 . S
O597 Eu577 2.480 . S
O598 Eu577 2.430 1_565 S
O598 C584 1.259 . S
O599 Eu577 2.670 1_565 S
O599 C584 1.270 . S
O599 Eu587 2.355 1_565 S
O600 Eu577 2.394 . S
O600 C585 1.251 . S
O601 C585 1.251 . S
O601 Eu587 2.374 . S
O602 C586 1.257 . S
O602 Eu587 2.473 1_565 S
O603 C586 1.260 1_545 S
O603 Eu587 2.480 . S
O604 Eu587 2.430 . S
O604 C594 1.259 . S
O605 Eu577 2.355 . S
O605 Eu587 2.670 . S
O605 C594 1.270 . S
O606 Eu587 2.394 . S
O606 C595 1.251 . S
O607 Eu577 2.374 . S
O607 C595 1.251 . S
H608 C579 0.931 . S
H609 C580 0.931 . S
H610 C582 0.931 . S
H611 C583 0.931 . S
H612 C589 0.931 . S
H613 C590 0.931 . S
H614 C592 0.931 . S
H615 C593 0.931 . S
C616 Eu617 2.835 . S
C616 C618 1.500 . S
C616 O636 1.257 . S
C616 O637 1.260 . S
Eu617 C616 2.835 . S
Eu617 O636 2.473 . S
Eu617 O637 2.480 . S
Eu617 O638 2.430 . S
Eu617 O639 2.670 . S
Eu617 O640 2.394 . S
Eu617 O645 2.355 . S
Eu617 O647 2.374 . S
C618 C616 1.500 . S
C618 C619 1.377 . S
C618 C623 1.377 . S
C619 C618 1.377 . S
C619 C620 1.395 . S
C619 H648 0.931 . S
C620 C619 1.395 . S
C620 C621 1.383 . S
C620 H649 0.931 . S
C621 C620 1.383 . S
C621 C622 1.394 . S
C622 C621 1.394 . S
C622 C623 1.378 . S
C622 H650 0.931 . S
C623 C618 1.377 . S
C623 C622 1.378 . S
C623 H651 0.931 . S
C624 O638 1.259 . S
C624 O639 1.270 . S
C625 O640 1.251 . S
C625 O641 1.251 . S
C626 Eu627 2.835 . S
C626 C628 1.500 . S
C626 O642 1.257 . S
C626 O643 1.260 . S
Eu627 C626 2.835 . S
Eu627 O639 2.355 . S
Eu627 O641 2.374 . S
Eu627 O642 2.473 . S
Eu627 O643 2.480 . S
Eu627 O644 2.430 . S
Eu627 O645 2.670 . S
Eu627 O646 2.394 . S
C628 C626 1.500 . S
C628 C629 1.377 . S
C628 C633 1.377 . S
C629 C628 1.377 . S
C629 C630 1.395 . S
C629 H652 0.931 . S
C630 C629 1.395 . S
C630 C631 1.383 . S
C630 H653 0.931 . S
C631 C630 1.383 . S
C631 C632 1.394 . S
C632 C631 1.394 . S
C632 C633 1.378 . S
C632 H654 0.931 . S
C633 C628 1.377 . S
C633 C632 1.378 . S
C633 H655 0.931 . S
C634 O644 1.259 . S
C634 O645 1.270 . S
C635 O646 1.251 . S
C635 O647 1.251 . S
O636 C616 1.257 . S
O636 Eu617 2.473 . S
O637 C616 1.260 . S
O637 Eu617 2.480 . S
O638 Eu617 2.430 . S
O638 C624 1.259 . S
O639 Eu617 2.670 . S
O639 C624 1.270 . S
O639 Eu627 2.355 . S
O640 Eu617 2.394 . S
O640 C625 1.251 . S
O641 C625 1.251 . S
O641 Eu627 2.374 . S
O642 C626 1.257 . S
O642 Eu627 2.473 . S
O643 C626 1.260 . S
O643 Eu627 2.480 . S
O644 Eu627 2.430 . S
O644 C634 1.259 . S
O645 Eu617 2.355 . S
O645 Eu627 2.670 . S
O645 C634 1.270 . S
O646 Eu627 2.394 . S
O646 C635 1.251 . S
O647 Eu617 2.374 . S
O647 C635 1.251 . S
H648 C619 0.931 . S
H649 C620 0.931 . S
H650 C622 0.931 . S
H651 C623 0.931 . S
H652 C629 0.931 . S
H653 C630 0.931 . S
H654 C632 0.931 . S
H655 C633 0.931 . S
C656 Eu657 2.835 . S
C656 C658 1.500 . S
C656 O676 1.257 . S
C656 O677 1.260 . S
Eu657 C656 2.835 . S
Eu657 O676 2.473 . S
Eu657 O677 2.480 . S
Eu657 O678 2.430 . S
Eu657 O679 2.670 . S
Eu657 O680 2.394 . S
Eu657 O685 2.355 . S
Eu657 O687 2.374 . S
C658 C656 1.500 . S
C658 C659 1.377 . S
C658 C663 1.377 . S
C659 C658 1.377 . S
C659 C660 1.395 . S
C659 H688 0.931 . S
C660 C659 1.395 . S
C660 C661 1.383 . S
C660 H689 0.931 . S
C661 C660 1.383 . S
C661 C662 1.394 . S
C662 C661 1.394 . S
C662 C663 1.378 . S
C662 H690 0.931 . S
C663 C658 1.377 . S
C663 C662 1.378 . S
C663 H691 0.931 . S
C664 O678 1.259 . S
C664 O679 1.270 . S
C665 O680 1.251 . S
C665 O681 1.251 . S
C666 Eu667 2.835 . S
C666 C668 1.500 . S
C666 O682 1.257 . S
C666 O683 1.260 . S
Eu667 C666 2.835 . S
Eu667 O679 2.355 . S
Eu667 O681 2.374 . S
Eu667 O682 2.473 . S
Eu667 O683 2.480 . S
Eu667 O684 2.430 . S
Eu667 O685 2.670 . S
Eu667 O686 2.394 . S
C668 C666 1.500 . S
C668 C669 1.377 . S
C668 C673 1.377 . S
C669 C668 1.377 . S
C669 C670 1.395 . S
C669 H692 0.931 . S
C670 C669 1.395 . S
C670 C671 1.383 . S
C670 H693 0.931 . S
C671 C670 1.383 . S
C671 C672 1.394 . S
C672 C671 1.394 . S
C672 C673 1.378 . S
C672 H694 0.931 . S
C673 C668 1.377 . S
C673 C672 1.378 . S
C673 H695 0.931 . S
C674 O684 1.259 . S
C674 O685 1.270 . S
C675 O686 1.251 . S
C675 O687 1.251 . S
O676 C656 1.257 . S
O676 Eu657 2.473 . S
O677 C656 1.260 . S
O677 Eu657 2.480 . S
O678 Eu657 2.430 . S
O678 C664 1.259 . S
O679 Eu657 2.670 . S
O679 C664 1.270 . S
O679 Eu667 2.355 . S
O680 Eu657 2.394 . S
O680 C665 1.251 . S
O681 C665 1.251 . S
O681 Eu667 2.374 . S
O682 C666 1.257 . S
O682 Eu667 2.473 . S
O683 C666 1.260 . S
O683 Eu667 2.480 . S
O684 Eu667 2.430 . S
O684 C674 1.259 . S
O685 Eu657 2.355 . S
O685 Eu667 2.670 . S
O685 C674 1.270 . S
O686 Eu667 2.394 . S
O686 C675 1.251 . S
O687 Eu657 2.374 . S
O687 C675 1.251 . S
H688 C659 0.931 . S
H689 C660 0.931 . S
H690 C662 0.931 . S
H691 C663 0.931 . S
H692 C669 0.931 . S
H693 C670 0.931 . S
H694 C672 0.931 . S
H695 C673 0.931 . S
C696 Eu697 2.835 . S
C696 C698 1.500 . S
C696 O716 1.257 . S
C696 O717 1.260 . S
Eu697 C696 2.835 . S
Eu697 O716 2.473 . S
Eu697 O717 2.480 . S
Eu697 O718 2.430 . S
Eu697 O719 2.670 . S
Eu697 O720 2.394 . S
Eu697 O725 2.355 . S
Eu697 O727 2.374 . S
C698 C696 1.500 . S
C698 C699 1.377 . S
C698 C703 1.377 . S
C699 C698 1.377 . S
C699 C700 1.395 . S
C699 H728 0.931 . S
C700 C699 1.395 . S
C700 C701 1.383 . S
C700 H729 0.931 . S
C701 C700 1.383 . S
C701 C702 1.394 . S
C702 C701 1.394 . S
C702 C703 1.378 . S
C702 H730 0.931 . S
C703 C698 1.377 . S
C703 C702 1.378 . S
C703 H731 0.931 . S
C704 O718 1.259 . S
C704 O719 1.270 . S
C705 O720 1.251 . S
C705 O721 1.251 . S
C706 Eu707 2.835 . S
C706 C708 1.500 . S
C706 O722 1.257 . S
C706 O723 1.260 . S
Eu707 C706 2.835 . S
Eu707 O719 2.355 . S
Eu707 O721 2.374 . S
Eu707 O722 2.473 . S
Eu707 O723 2.480 . S
Eu707 O724 2.430 . S
Eu707 O725 2.670 . S
Eu707 O726 2.394 . S
C708 C706 1.500 . S
C708 C709 1.377 . S
C708 C713 1.377 . S
C709 C708 1.377 . S
C709 C710 1.395 . S
C709 H732 0.931 . S
C710 C709 1.395 . S
C710 C711 1.383 . S
C710 H733 0.931 . S
C711 C710 1.383 . S
C711 C712 1.394 . S
C712 C711 1.394 . S
C712 C713 1.378 . S
C712 H734 0.931 . S
C713 C708 1.377 . S
C713 C712 1.378 . S
C713 H735 0.931 . S
C714 O724 1.259 . S
C714 O725 1.270 . S
C715 O726 1.251 . S
C715 O727 1.251 . S
O716 C696 1.257 . S
O716 Eu697 2.473 . S
O717 C696 1.260 . S
O717 Eu697 2.480 . S
O718 Eu697 2.430 . S
O718 C704 1.259 . S
O719 Eu697 2.670 . S
O719 C704 1.270 . S
O719 Eu707 2.355 . S
O720 Eu697 2.394 . S
O720 C705 1.251 . S
O721 C705 1.251 . S
O721 Eu707 2.374 . S
O722 C706 1.257 . S
O722 Eu707 2.473 . S
O723 C706 1.260 . S
O723 Eu707 2.480 . S
O724 Eu707 2.430 . S
O724 C714 1.259 . S
O725 Eu697 2.355 . S
O725 Eu707 2.670 . S
O725 C714 1.270 . S
O726 Eu707 2.394 . S
O726 C715 1.251 . S
O727 Eu697 2.374 . S
O727 C715 1.251 . S
H728 C699 0.931 . S
H729 C700 0.931 . S
H730 C702 0.931 . S
H731 C703 0.931 . S
H732 C709 0.931 . S
H733 C710 0.931 . S
H734 C712 0.931 . S
H735 C713 0.931 . S
C736 Eu737 2.835 . S
C736 C738 1.500 . S
C736 O756 1.257 . S
C736 O757 1.260 . S
Eu737 C736 2.835 . S
Eu737 O756 2.473 . S
Eu737 O757 2.480 . S
Eu737 O758 2.430 . S
Eu737 O759 2.670 . S
Eu737 O760 2.394 . S
Eu737 O765 2.355 . S
Eu737 O767 2.374 . S
C738 C736 1.500 . S
C738 C739 1.377 . S
C738 C743 1.377 . S
C739 C738 1.377 . S
C739 C740 1.395 . S
C739 H768 0.931 . S
C740 C739 1.395 . S
C740 C741 1.383 . S
C740 H769 0.931 . S
C741 C740 1.383 . S
C741 C742 1.394 . S
C742 C741 1.394 . S
C742 C743 1.378 . S
C742 H770 0.931 . S
C743 C738 1.377 . S
C743 C742 1.378 . S
C743 H771 0.931 . S
C744 O758 1.259 . S
C744 O759 1.270 . S
C745 O760 1.251 . S
C745 O761 1.251 . S
C746 Eu747 2.835 1_655 S
C746 C748 1.500 . S
C746 O762 1.257 . S
C746 O763 1.260 . S
Eu747 C746 2.835 1_455 S
Eu747 O759 2.355 . S
Eu747 O761 2.374 . S
Eu747 O762 2.473 1_455 S
Eu747 O763 2.480 1_455 S
Eu747 O764 2.430 . S
Eu747 O765 2.670 . S
Eu747 O766 2.394 1_455 S
C748 C746 1.500 . S
C748 C749 1.377 . S
C748 C753 1.377 . S
C749 C748 1.377 . S
C749 C750 1.395 . S
C749 H772 0.931 . S
C750 C749 1.395 . S
C750 C751 1.383 . S
C750 H773 0.931 . S
C751 C750 1.383 . S
C751 C752 1.394 . S
C752 C751 1.394 . S
C752 C753 1.378 . S
C752 H774 0.931 . S
C753 C748 1.377 . S
C753 C752 1.378 . S
C753 H775 0.931 . S
C754 O764 1.259 . S
C754 O765 1.270 . S
C755 O766 1.251 1_455 S
C755 O767 1.251 . S
O756 C736 1.257 . S
O756 Eu737 2.473 . S
O757 C736 1.260 . S
O757 Eu737 2.480 . S
O758 Eu737 2.430 . S
O758 C744 1.259 . S
O759 Eu737 2.670 . S
O759 C744 1.270 . S
O759 Eu747 2.355 . S
O760 Eu737 2.394 . S
O760 C745 1.251 . S
O761 C745 1.251 . S
O761 Eu747 2.374 . S
O762 C746 1.257 . S
O762 Eu747 2.473 1_655 S
O763 C746 1.260 . S
O763 Eu747 2.480 1_655 S
O764 Eu747 2.430 . S
O764 C754 1.259 . S
O765 Eu737 2.355 . S
O765 Eu747 2.670 . S
O765 C754 1.270 . S
O766 Eu747 2.394 1_655 S
O766 C755 1.251 1_655 S
O767 Eu737 2.374 . S
O767 C755 1.251 . S
H768 C739 0.931 . S
H769 C740 0.931 . S
H770 C742 0.931 . S
H771 C743 0.931 . S
H772 C749 0.931 . S
H773 C750 0.931 . S
H774 C752 0.931 . S
H775 C753 0.931 . S
C776 Eu777 2.835 . S
C776 C778 1.500 . S
C776 O796 1.257 . S
C776 O797 1.260 . S
Eu777 C776 2.835 . S
Eu777 O796 2.473 . S
Eu777 O797 2.480 . S
Eu777 O798 2.430 . S
Eu777 O799 2.670 . S
Eu777 O800 2.394 . S
Eu777 O805 2.355 . S
Eu777 O807 2.374 . S
C778 C776 1.500 . S
C778 C779 1.377 . S
C778 C783 1.377 . S
C779 C778 1.377 . S
C779 C780 1.395 . S
C779 H808 0.931 . S
C780 C779 1.395 . S
C780 C781 1.383 . S
C780 H809 0.931 . S
C781 C780 1.383 . S
C781 C782 1.394 . S
C782 C781 1.394 . S
C782 C783 1.378 . S
C782 H810 0.931 . S
C783 C778 1.377 . S
C783 C782 1.378 . S
C783 H811 0.931 . S
C784 O798 1.259 . S
C784 O799 1.270 . S
C785 O800 1.251 . S
C785 O801 1.251 . S
C786 Eu787 2.835 . S
C786 C788 1.500 . S
C786 O802 1.257 . S
C786 O803 1.260 . S
Eu787 C786 2.835 . S
Eu787 O799 2.355 . S
Eu787 O801 2.374 . S
Eu787 O802 2.473 . S
Eu787 O803 2.480 . S
Eu787 O804 2.430 . S
Eu787 O805 2.670 . S
Eu787 O806 2.394 . S
C788 C786 1.500 . S
C788 C789 1.377 . S
C788 C793 1.377 . S
C789 C788 1.377 . S
C789 C790 1.395 . S
C789 H812 0.931 . S
C790 C789 1.395 . S
C790 C791 1.383 . S
C790 H813 0.931 . S
C791 C790 1.383 . S
C791 C792 1.394 . S
C792 C791 1.394 . S
C792 C793 1.378 . S
C792 H814 0.931 . S
C793 C788 1.377 . S
C793 C792 1.378 . S
C793 H815 0.931 . S
C794 O804 1.259 . S
C794 O805 1.270 . S
C795 O806 1.251 . S
C795 O807 1.251 . S
O796 C776 1.257 . S
O796 Eu777 2.473 . S
O797 C776 1.260 . S
O797 Eu777 2.480 . S
O798 Eu777 2.430 . S
O798 C784 1.259 . S
O799 Eu777 2.670 . S
O799 C784 1.270 . S
O799 Eu787 2.355 . S
O800 Eu777 2.394 . S
O800 C785 1.251 . S
O801 C785 1.251 . S
O801 Eu787 2.374 . S
O802 C786 1.257 . S
O802 Eu787 2.473 . S
O803 C786 1.260 . S
O803 Eu787 2.480 . S
O804 Eu787 2.430 . S
O804 C794 1.259 . S
O805 Eu777 2.355 . S
O805 Eu787 2.670 . S
O805 C794 1.270 . S
O806 Eu787 2.394 . S
O806 C795 1.251 . S
O807 Eu777 2.374 . S
O807 C795 1.251 . S
H808 C779 0.931 . S
H809 C780 0.931 . S
H810 C782 0.931 . S
H811 C783 0.931 . S
H812 C789 0.931 . S
H813 C790 0.931 . S
H814 C792 0.931 . S
H815 C793 0.931 . S
C816 Eu817 2.835 . S
C816 C818 1.500 . S
C816 O836 1.257 . S
C816 O837 1.260 . S
Eu817 C816 2.835 . S
Eu817 O836 2.473 . S
Eu817 O837 2.480 . S
Eu817 O838 2.430 . S
Eu817 O839 2.670 . S
Eu817 O840 2.394 . S
Eu817 O845 2.355 . S
Eu817 O847 2.374 . S
C818 C816 1.500 . S
C818 C819 1.377 . S
C818 C823 1.377 . S
C819 C818 1.377 . S
C819 C820 1.395 1_556 S
C819 H848 0.931 . S
C820 C819 1.395 1_554 S
C820 C821 1.383 . S
C820 H849 0.931 . S
C821 C820 1.383 . S
C821 C822 1.394 . S
C822 C821 1.394 . S
C822 C823 1.378 1_554 S
C822 H850 0.931 . S
C823 C818 1.377 . S
C823 C822 1.378 1_556 S
C823 H851 0.931 . S
C824 O838 1.259 . S
C824 O839 1.270 . S
C825 O840 1.251 . S
C825 O841 1.251 . S
C826 Eu827 2.835 . S
C826 C828 1.500 . S
C826 O842 1.257 . S
C826 O843 1.260 . S
Eu827 C826 2.835 . S
Eu827 O839 2.355 . S
Eu827 O841 2.374 . S
Eu827 O842 2.473 . S
Eu827 O843 2.480 . S
Eu827 O844 2.430 . S
Eu827 O845 2.670 . S
Eu827 O846 2.394 . S
C828 C826 1.500 . S
C828 C829 1.377 . S
C828 C833 1.377 . S
C829 C828 1.377 . S
C829 C830 1.395 . S
C829 H852 0.931 . S
C830 C829 1.395 . S
C830 C831 1.383 . S
C830 H853 0.931 . S
C831 C830 1.383 . S
C831 C832 1.394 . S
C832 C831 1.394 . S
C832 C833 1.378 . S
C832 H854 0.931 . S
C833 C828 1.377 . S
C833 C832 1.378 . S
C833 H855 0.931 . S
C834 O844 1.259 . S
C834 O845 1.270 . S
C835 O846 1.251 . S
C835 O847 1.251 . S
O836 C816 1.257 . S
O836 Eu817 2.473 . S
O837 C816 1.260 . S
O837 Eu817 2.480 . S
O838 Eu817 2.430 . S
O838 C824 1.259 . S
O839 Eu817 2.670 . S
O839 C824 1.270 . S
O839 Eu827 2.355 . S
O840 Eu817 2.394 . S
O840 C825 1.251 . S
O841 C825 1.251 . S
O841 Eu827 2.374 . S
O842 C826 1.257 . S
O842 Eu827 2.473 . S
O843 C826 1.260 . S
O843 Eu827 2.480 . S
O844 Eu827 2.430 . S
O844 C834 1.259 . S
O845 Eu817 2.355 . S
O845 Eu827 2.670 . S
O845 C834 1.270 . S
O846 Eu827 2.394 . S
O846 C835 1.251 . S
O847 Eu817 2.374 . S
O847 C835 1.251 . S
H848 C819 0.931 . S
H849 C820 0.931 . S
H850 C822 0.931 . S
H851 C823 0.931 . S
H852 C829 0.931 . S
H853 C830 0.931 . S
H854 C832 0.931 . S
H855 C833 0.931 . S
C856 Eu857 2.835 . S
C856 C858 1.500 . S
C856 O876 1.257 . S
C856 O877 1.260 . S
Eu857 C856 2.835 . S
Eu857 O876 2.473 . S
Eu857 O877 2.480 . S
Eu857 O878 2.430 . S
Eu857 O879 2.670 . S
Eu857 O880 2.394 . S
Eu857 O885 2.355 . S
Eu857 O887 2.374 . S
C858 C856 1.500 . S
C858 C859 1.377 . S
C858 C863 1.377 . S
C859 C858 1.377 . S
C859 C860 1.395 . S
C859 H888 0.931 . S
C860 C859 1.395 . S
C860 C861 1.383 . S
C860 H889 0.931 . S
C861 C860 1.383 . S
C861 C862 1.394 . S
C862 C861 1.394 . S
C862 C863 1.378 . S
C862 H890 0.931 . S
C863 C858 1.377 . S
C863 C862 1.378 . S
C863 H891 0.931 . S
C864 O878 1.259 . S
C864 O879 1.270 . S
C865 O880 1.251 . S
C865 O881 1.251 . S
C866 Eu867 2.835 . S
C866 C868 1.500 . S
C866 O882 1.257 . S
C866 O883 1.260 . S
Eu867 C866 2.835 . S
Eu867 O879 2.355 . S
Eu867 O881 2.374 . S
Eu867 O882 2.473 . S
Eu867 O883 2.480 . S
Eu867 O884 2.430 . S
Eu867 O885 2.670 . S
Eu867 O886 2.394 . S
C868 C866 1.500 . S
C868 C869 1.377 . S
C868 C873 1.377 . S
C869 C868 1.377 . S
C869 C870 1.395 . S
C869 H892 0.931 . S
C870 C869 1.395 . S
C870 C871 1.383 . S
C870 H893 0.931 . S
C871 C870 1.383 . S
C871 C872 1.394 . S
C872 C871 1.394 . S
C872 C873 1.378 . S
C872 H894 0.931 . S
C873 C868 1.377 . S
C873 C872 1.378 . S
C873 H895 0.931 . S
C874 O884 1.259 . S
C874 O885 1.270 . S
C875 O886 1.251 . S
C875 O887 1.251 . S
O876 C856 1.257 . S
O876 Eu857 2.473 . S
O877 C856 1.260 . S
O877 Eu857 2.480 . S
O878 Eu857 2.430 . S
O878 C864 1.259 . S
O879 Eu857 2.670 . S
O879 C864 1.270 . S
O879 Eu867 2.355 . S
O880 Eu857 2.394 . S
O880 C865 1.251 . S
O881 C865 1.251 . S
O881 Eu867 2.374 . S
O882 C866 1.257 . S
O882 Eu867 2.473 . S
O883 C866 1.260 . S
O883 Eu867 2.480 . S
O884 Eu867 2.430 . S
O884 C874 1.259 . S
O885 Eu857 2.355 . S
O885 Eu867 2.670 . S
O885 C874 1.270 . S
O886 Eu867 2.394 . S
O886 C875 1.251 . S
O887 Eu857 2.374 . S
O887 C875 1.251 . S
H888 C859 0.931 . S
H889 C860 0.931 . S
H890 C862 0.931 . S
H891 C863 0.931 . S
H892 C869 0.931 . S
H893 C870 0.931 . S
H894 C872 0.931 . S
H895 C873 0.931 . S
C896 Eu897 2.835 . S
C896 C898 1.500 . S
C896 O916 1.257 . S
C896 O917 1.260 . S
Eu897 C896 2.835 . S
Eu897 O916 2.473 . S
Eu897 O917 2.480 . S
Eu897 O918 2.430 . S
Eu897 O919 2.670 . S
Eu897 O920 2.394 . S
Eu897 O925 2.355 . S
Eu897 O927 2.374 . S
C898 C896 1.500 . S
C898 C899 1.377 . S
C898 C903 1.377 . S
C899 C898 1.377 . S
C899 C900 1.395 . S
C899 H928 0.931 . S
C900 C899 1.395 . S
C900 C901 1.383 . S
C900 H929 0.931 . S
C901 C900 1.383 . S
C901 C902 1.394 . S
C902 C901 1.394 . S
C902 C903 1.378 . S
C902 H930 0.931 . S
C903 C898 1.377 . S
C903 C902 1.378 . S
C903 H931 0.931 . S
C904 O918 1.259 . S
C904 O919 1.270 . S
C905 O920 1.251 . S
C905 O921 1.251 . S
C906 Eu907 2.835 . S
C906 C908 1.500 . S
C906 O922 1.257 . S
C906 O923 1.260 . S
Eu907 C906 2.835 . S
Eu907 O919 2.355 . S
Eu907 O921 2.374 . S
Eu907 O922 2.473 . S
Eu907 O923 2.480 . S
Eu907 O924 2.430 . S
Eu907 O925 2.670 . S
Eu907 O926 2.394 . S
C908 C906 1.500 . S
C908 C909 1.377 . S
C908 C913 1.377 . S
C909 C908 1.377 . S
C909 C910 1.395 . S
C909 H932 0.931 . S
C910 C909 1.395 . S
C910 C911 1.383 . S
C910 H933 0.931 . S
C911 C910 1.383 . S
C911 C912 1.394 . S
C912 C911 1.394 . S
C912 C913 1.378 . S
C912 H934 0.931 . S
C913 C908 1.377 . S
C913 C912 1.378 . S
C913 H935 0.931 . S
C914 O924 1.259 . S
C914 O925 1.270 . S
C915 O926 1.251 . S
C915 O927 1.251 . S
O916 C896 1.257 . S
O916 Eu897 2.473 . S
O917 C896 1.260 . S
O917 Eu897 2.480 . S
O918 Eu897 2.430 . S
O918 C904 1.259 . S
O919 Eu897 2.670 . S
O919 C904 1.270 . S
O919 Eu907 2.355 . S
O920 Eu897 2.394 . S
O920 C905 1.251 . S
O921 C905 1.251 . S
O921 Eu907 2.374 . S
O922 C906 1.257 . S
O922 Eu907 2.473 . S
O923 C906 1.260 . S
O923 Eu907 2.480 . S
O924 Eu907 2.430 . S
O924 C914 1.259 . S
O925 Eu897 2.355 . S
O925 Eu907 2.670 . S
O925 C914 1.270 . S
O926 Eu907 2.394 . S
O926 C915 1.251 . S
O927 Eu897 2.374 . S
O927 C915 1.251 . S
H928 C899 0.931 . S
H929 C900 0.931 . S
H930 C902 0.931 . S
H931 C903 0.931 . S
H932 C909 0.931 . S
H933 C910 0.931 . S
H934 C912 0.931 . S
H935 C913 0.931 . S
C936 Eu937 2.835 1_655 S
C936 C938 1.500 . S
C936 O956 1.257 . S
C936 O957 1.260 . S
Eu937 C936 2.835 1_455 S
Eu937 O956 2.473 1_455 S
Eu937 O957 2.480 1_455 S
Eu937 O958 2.430 . S
Eu937 O959 2.670 . S
Eu937 O960 2.394 . S
Eu937 O965 2.355 . S
Eu937 O967 2.374 . S
C938 C936 1.500 . S
C938 C939 1.377 . S
C938 C943 1.377 . S
C939 C938 1.377 . S
C939 C940 1.395 . S
C939 H968 0.931 . S
C940 C939 1.395 . S
C940 C941 1.383 . S
C940 H969 0.931 . S
C941 C940 1.383 . S
C941 C942 1.394 . S
C942 C941 1.394 . S
C942 C943 1.378 . S
C942 H970 0.931 . S
C943 C938 1.377 . S
C943 C942 1.378 . S
C943 H971 0.931 . S
C944 O958 1.259 . S
C944 O959 1.270 . S
C945 O960 1.251 . S
C945 O961 1.251 . S
C946 Eu947 2.835 . S
C946 C948 1.500 . S
C946 O962 1.257 . S
C946 O963 1.260 . S
Eu947 C946 2.835 . S
Eu947 O959 2.355 . S
Eu947 O961 2.374 . S
Eu947 O962 2.473 . S
Eu947 O963 2.480 . S
Eu947 O964 2.430 . S
Eu947 O965 2.670 . S
Eu947 O966 2.394 . S
C948 C946 1.500 . S
C948 C949 1.377 . S
C948 C953 1.377 . S
C949 C948 1.377 . S
C949 C950 1.395 . S
C949 H972 0.931 1_554 S
C950 C949 1.395 . S
C950 C951 1.383 . S
C950 H973 0.931 1_554 S
C951 C950 1.383 . S
C951 C952 1.394 . S
C952 C951 1.394 . S
C952 C953 1.378 . S
C952 H974 0.931 . S
C953 C948 1.377 . S
C953 C952 1.378 . S
C953 H975 0.931 . S
C954 O964 1.259 . S
C954 O965 1.270 . S
C955 O966 1.251 . S
C955 O967 1.251 . S
O956 C936 1.257 . S
O956 Eu937 2.473 1_655 S
O957 C936 1.260 . S
O957 Eu937 2.480 1_655 S
O958 Eu937 2.430 . S
O958 C944 1.259 . S
O959 Eu937 2.670 . S
O959 C944 1.270 . S
O959 Eu947 2.355 . S
O960 Eu937 2.394 . S
O960 C945 1.251 . S
O961 C945 1.251 . S
O961 Eu947 2.374 . S
O962 C946 1.257 . S
O962 Eu947 2.473 . S
O963 C946 1.260 . S
O963 Eu947 2.480 . S
O964 Eu947 2.430 . S
O964 C954 1.259 . S
O965 Eu937 2.355 . S
O965 Eu947 2.670 . S
O965 C954 1.270 . S
O966 Eu947 2.394 . S
O966 C955 1.251 . S
O967 Eu937 2.374 . S
O967 C955 1.251 . S
H968 C939 0.931 . S
H969 C940 0.931 . S
H970 C942 0.931 . S
H971 C943 0.931 . S
H972 C949 0.931 1_556 S
H973 C950 0.931 1_556 S
H974 C952 0.931 . S
H975 C953 0.931 . S
C976 C977 1.387 1_556 S
C976 H980 0.950 . S
C976 C985 1.390 1_556 S
C977 C976 1.387 1_554 S
C977 C979 1.387 . S
H978 C985 0.950 . S
C979 C977 1.387 . S
C979 C981 1.390 . S
C979 H983 0.950 . S
H980 C976 0.950 . S
C981 C979 1.390 . S
C981 C982 1.387 . S
C981 H984 0.950 . S
C982 C981 1.387 . S
C982 C985 1.387 . S
H983 C979 0.950 . S
H984 C981 0.950 . S
C985 C976 1.390 1_554 S
C985 H978 0.950 . S
C985 C982 1.387 . S
C986 C987 1.387 . S
C986 H990 0.950 . S
C986 C995 1.390 . S
C987 C986 1.387 . S
C987 C989 1.387 . S
H988 C995 0.950 . S
C989 C987 1.387 . S
C989 C991 1.390 . S
C989 H993 0.950 . S
H990 C986 0.950 . S
C991 C989 1.390 . S
C991 C992 1.387 . S
C991 H994 0.950 . S
C992 C991 1.387 . S
C992 C995 1.387 . S
H993 C989 0.950 . S
H994 C991 0.950 . S
C995 C986 1.390 . S
C995 H988 0.950 . S
C995 C992 1.387 . S
C996 C997 1.387 . S
C996 H1000 0.950 . S
C996 C1005 1.390 . S
C997 C996 1.387 . S
C997 C999 1.387 . S
H998 C1005 0.950 . S
C999 C997 1.387 . S
C999 C1001 1.390 . S
C999 H1003 0.950 . S
H1000 C996 0.950 . S
C1001 C999 1.390 . S
C1001 C1002 1.387 . S
C1001 H1004 0.950 . S
C1002 C1001 1.387 . S
C1002 C1005 1.387 . S
H1003 C999 0.950 . S
H1004 C1001 0.950 . S
C1005 C996 1.390 . S
C1005 H998 0.950 . S
C1005 C1002 1.387 . S
C1006 C1007 1.387 . S
C1006 H1010 0.950 . S
C1006 C1015 1.390 . S
C1007 C1006 1.387 . S
C1007 C1009 1.387 . S
H1008 C1015 0.950 . S
C1009 C1007 1.387 . S
C1009 C1011 1.390 . S
C1009 H1013 0.950 . S
H1010 C1006 0.950 . S
C1011 C1009 1.390 . S
C1011 C1012 1.387 . S
C1011 H1014 0.950 . S
C1012 C1011 1.387 . S
C1012 C1015 1.387 . S
H1013 C1009 0.950 . S
H1014 C1011 0.950 . S
C1015 C1006 1.390 . S
C1015 H1008 0.950 . S
C1015 C1012 1.387 . S
C1016 C1017 1.387 . S
C1016 H1020 0.950 . S
C1016 C1025 1.390 . S
C1017 C1016 1.387 . S
C1017 C1019 1.387 . S
H1018 C1025 0.950 . S
C1019 C1017 1.387 . S
C1019 C1021 1.390 . S
C1019 H1023 0.950 . S
H1020 C1016 0.950 . S
C1021 C1019 1.390 . S
C1021 C1022 1.387 . S
C1021 H1024 0.950 . S
C1022 C1021 1.387 . S
C1022 C1025 1.387 . S
H1023 C1019 0.950 . S
H1024 C1021 0.950 . S
C1025 C1016 1.390 . S
C1025 H1018 0.950 . S
C1025 C1022 1.387 . S
C1026 C1027 1.387 . S
C1026 H1030 0.950 . S
C1026 C1035 1.390 . S
C1027 C1026 1.387 . S
C1027 C1029 1.387 . S
H1028 C1035 0.950 . S
C1029 C1027 1.387 . S
C1029 C1031 1.390 . S
C1029 H1033 0.950 . S
H1030 C1026 0.950 . S
C1031 C1029 1.390 . S
C1031 C1032 1.387 . S
C1031 H1034 0.950 . S
C1032 C1031 1.387 . S
C1032 C1035 1.387 . S
H1033 C1029 0.950 . S
H1034 C1031 0.950 . S
C1035 C1026 1.390 . S
C1035 H1028 0.950 . S
C1035 C1032 1.387 . S
C1036 C1037 1.387 . S
C1036 H1040 0.950 . S
C1036 C1045 1.390 . S
C1037 C1036 1.387 . S
C1037 C1039 1.387 . S
H1038 C1045 0.950 . S
C1039 C1037 1.387 . S
C1039 C1041 1.390 . S
C1039 H1043 0.950 . S
H1040 C1036 0.950 . S
C1041 C1039 1.390 . S
C1041 C1042 1.387 . S
C1041 H1044 0.950 . S
C1042 C1041 1.387 . S
C1042 C1045 1.387 . S
H1043 C1039 0.950 . S
H1044 C1041 0.950 . S
C1045 C1036 1.390 . S
C1045 H1038 0.950 . S
C1045 C1042 1.387 . S
C1046 C1047 1.387 . S
C1046 H1050 0.950 . S
C1046 C1055 1.390 . S
C1047 C1046 1.387 . S
C1047 C1049 1.387 . S
H1048 C1055 0.950 . S
C1049 C1047 1.387 . S
C1049 C1051 1.390 . S
C1049 H1053 0.950 . S
H1050 C1046 0.950 . S
C1051 C1049 1.390 . S
C1051 C1052 1.387 . S
C1051 H1054 0.950 . S
C1052 C1051 1.387 . S
C1052 C1055 1.387 . S
H1053 C1049 0.950 . S
H1054 C1051 0.950 . S
C1055 C1046 1.390 . S
C1055 H1048 0.950 . S
C1055 C1052 1.387 . S
C1056 C1057 1.387 . S
C1056 H1060 0.950 1_545 S
C1056 C1065 1.390 . S
C1057 C1056 1.387 . S
C1057 C1059 1.387 . S
H1058 C1065 0.950 1_465 S
C1059 C1057 1.387 . S
C1059 C1061 1.390 . S
C1059 H1063 0.950 . S
H1060 C1056 0.950 1_565 S
C1061 C1059 1.390 . S
C1061 C1062 1.387 1_655 S
C1061 H1064 0.950 . S
C1062 C1061 1.387 1_455 S
C1062 C1065 1.387 1_455 S
H1063 C1059 0.950 . S
H1064 C1061 0.950 . S
C1065 C1056 1.390 . S
C1065 H1058 0.950 1_645 S
C1065 C1062 1.387 1_655 S
C1066 C1067 1.387 . S
C1066 H1070 0.950 . S
C1066 C1075 1.390 . S
C1067 C1066 1.387 . S
C1067 C1069 1.387 . S
H1068 C1075 0.950 . S
C1069 C1067 1.387 . S
C1069 C1071 1.390 . S
C1069 H1073 0.950 . S
H1070 C1066 0.950 . S
C1071 C1069 1.390 . S
C1071 C1072 1.387 . S
C1071 H1074 0.950 . S
C1072 C1071 1.387 . S
C1072 C1075 1.387 . S
H1073 C1069 0.950 . S
H1074 C1071 0.950 . S
C1075 C1066 1.390 . S
C1075 H1068 0.950 . S
C1075 C1072 1.387 . S
C1076 C1077 1.387 . S
C1076 H1080 0.950 . S
C1076 C1085 1.390 . S
C1077 C1076 1.387 . S
C1077 C1079 1.387 1_545 S
H1078 C1085 0.950 . S
C1079 C1077 1.387 1_565 S
C1079 C1081 1.390 . S
C1079 H1083 0.950 . S
H1080 C1076 0.950 . S
C1081 C1079 1.390 . S
C1081 C1082 1.387 1_565 S
C1081 H1084 0.950 . S
C1082 C1081 1.387 1_545 S
C1082 C1085 1.387 . S
H1083 C1079 0.950 . S
H1084 C1081 0.950 . S
C1085 C1076 1.390 . S
C1085 H1078 0.950 . S
C1085 C1082 1.387 . S
C1086 C1087 1.387 . S
C1086 H1090 0.950 . S
C1086 C1095 1.390 . S
C1087 C1086 1.387 . S
C1087 C1089 1.387 . S
H1088 C1095 0.950 . S
C1089 C1087 1.387 . S
C1089 C1091 1.390 . S
C1089 H1093 0.950 . S
H1090 C1086 0.950 . S
C1091 C1089 1.390 . S
C1091 C1092 1.387 . S
C1091 H1094 0.950 . S
C1092 C1091 1.387 . S
C1092 C1095 1.387 . S
H1093 C1089 0.950 . S
H1094 C1091 0.950 . S
C1095 C1086 1.390 . S
C1095 H1088 0.950 . S
C1095 C1092 1.387 . S
C1096 C1097 1.387 . S
C1096 H1100 0.950 . S
C1096 C1105 1.390 . S
C1097 C1096 1.387 . S
C1097 C1099 1.387 . S
H1098 C1105 0.950 1_455 S
C1099 C1097 1.387 . S
C1099 C1101 1.390 . S
C1099 H1103 0.950 1_545 S
H1100 C1096 0.950 . S
C1101 C1099 1.390 . S
C1101 C1102 1.400 . S
C1101 H1104 0.950 1_545 S
C1102 C1101 1.400 . S
C1102 C1105 1.401 . S
H1103 C1099 0.950 1_565 S
H1104 C1101 0.950 1_565 S
C1105 C1096 1.390 . S
C1105 H1098 0.950 1_655 S
C1105 C1102 1.401 . S
C1106 C1107 1.387 . S
C1106 H1110 0.950 . S
C1106 C1115 1.390 . S
C1107 C1106 1.387 . S
C1107 C1109 1.387 . S
H1108 C1115 0.950 . S
C1109 C1107 1.387 . S
C1109 C1111 1.390 . S
C1109 H1113 0.950 . S
H1110 C1106 0.950 . S
C1111 C1109 1.390 . S
C1111 C1112 1.387 . S
C1111 H1114 0.950 . S
C1112 C1111 1.387 . S
C1112 C1115 1.387 . S
H1113 C1109 0.950 . S
H1114 C1111 0.950 . S
C1115 C1106 1.390 . S
C1115 H1108 0.950 . S
C1115 C1112 1.387 . S
C1116 C1117 1.387 1_565 S
C1116 H1120 0.950 . S
C1116 C1125 1.390 1_565 S
C1117 C1116 1.387 1_545 S
C1117 C1119 1.387 . S
H1118 C1125 0.950 1_565 S
C1119 C1117 1.387 . S
C1119 C1121 1.390 . S
C1119 H1123 0.950 . S
H1120 C1116 0.950 . S
C1121 C1119 1.390 . S
C1121 C1122 1.387 . S
C1121 H1124 0.950 . S
C1122 C1121 1.387 . S
C1122 C1125 1.387 . S
H1123 C1119 0.950 . S
H1124 C1121 0.950 . S
C1125 C1116 1.390 1_545 S
C1125 H1118 0.950 1_545 S
C1125 C1122 1.387 . S
C1126 C1127 1.387 . S
C1126 H1130 0.950 . S
C1126 C1135 1.390 . S
C1127 C1126 1.387 . S
C1127 C1129 1.387 . S
H1128 C1135 0.950 . S
C1129 C1127 1.387 . S
C1129 C1131 1.390 . S
C1129 H1133 0.950 . S
H1130 C1126 0.950 . S
C1131 C1129 1.390 . S
C1131 C1132 1.387 . S
C1131 H1134 0.950 . S
C1132 C1131 1.387 . S
C1132 C1135 1.387 . S
H1133 C1129 0.950 . S
H1134 C1131 0.950 . S
C1135 C1126 1.390 . S
C1135 H1128 0.950 . S
C1135 C1132 1.387 . S
C1136 C1137 1.387 . S
C1136 H1140 0.950 . S
C1136 C1145 1.390 . S
C1137 C1136 1.387 . S
C1137 C1139 1.387 . S
H1138 C1145 0.950 . S
C1139 C1137 1.387 . S
C1139 C1141 1.390 . S
C1139 H1143 0.950 . S
H1140 C1136 0.950 . S
C1141 C1139 1.390 . S
C1141 C1142 1.387 . S
C1141 H1144 0.950 . S
C1142 C1141 1.387 . S
C1142 C1145 1.387 . S
H1143 C1139 0.950 . S
H1144 C1141 0.950 . S
C1145 C1136 1.390 . S
C1145 H1138 0.950 . S
C1145 C1142 1.387 . S
C1146 C1147 1.387 . S
C1146 H1150 0.977 . S
C1146 C1155 1.390 . S
C1147 C1146 1.387 . S
C1147 C1149 1.387 . S
H1148 C1155 0.950 . S
C1149 C1147 1.387 . S
C1149 C1151 1.390 . S
C1149 H1153 0.950 . S
H1150 C1146 0.977 . S
C1151 C1149 1.390 . S
C1151 C1152 1.387 . S
C1151 H1154 0.950 . S
C1152 C1151 1.387 . S
C1152 C1155 1.387 . S
H1153 C1149 0.950 . S
H1154 C1151 0.950 . S
C1155 C1146 1.390 . S
C1155 H1148 0.950 . S
C1155 C1152 1.387 . S
C1156 C1157 1.387 . S
C1156 H1160 0.950 . S
C1156 C1165 1.390 . S
C1157 C1156 1.387 . S
C1157 C1159 1.387 . S
H1158 C1165 0.950 . S
C1159 C1157 1.387 . S
C1159 C1161 1.390 . S
C1159 H1163 0.950 . S
H1160 C1156 0.950 . S
C1161 C1159 1.390 . S
C1161 C1162 1.387 . S
C1161 H1164 0.950 . S
C1162 C1161 1.387 . S
C1162 C1165 1.387 . S
H1163 C1159 0.950 . S
H1164 C1161 0.950 . S
C1165 C1156 1.390 . S
C1165 H1158 0.950 . S
C1165 C1162 1.387 . S
C1166 C1167 1.387 . S
C1166 H1170 0.950 . S
C1166 C1175 1.390 . S
C1167 C1166 1.387 . S
C1167 C1169 1.387 . S
H1168 C1175 0.950 . S
C1169 C1167 1.387 . S
C1169 C1171 1.390 . S
C1169 H1173 0.950 . S
H1170 C1166 0.950 . S
C1171 C1169 1.390 . S
C1171 C1172 1.387 . S
C1171 H1174 0.950 . S
C1172 C1171 1.387 . S
C1172 C1175 1.387 . S
H1173 C1169 0.950 . S
H1174 C1171 0.950 . S
C1175 C1166 1.390 . S
C1175 H1168 0.950 . S
C1175 C1172 1.387 . S
C1176 C1177 1.387 . S
C1176 H1180 0.950 . S
C1176 C1185 1.390 . S
C1177 C1176 1.387 . S
C1177 C1179 1.387 . S
H1178 C1185 0.950 . S
C1179 C1177 1.387 . S
C1179 C1181 1.390 . S
C1179 H1183 0.950 . S
H1180 C1176 0.950 . S
C1181 C1179 1.390 . S
C1181 C1182 1.387 . S
C1181 H1184 0.950 . S
C1182 C1181 1.387 . S
C1182 C1185 1.387 . S
H1183 C1179 0.950 . S
H1184 C1181 0.950 . S
C1185 C1176 1.390 . S
C1185 H1178 0.950 . S
C1185 C1182 1.387 . S
C1186 C1187 1.387 . S
C1186 H1190 0.950 . S
C1186 C1195 1.390 . S
C1187 C1186 1.387 . S
C1187 C1189 1.387 . S
H1188 C1195 0.950 . S
C1189 C1187 1.387 . S
C1189 C1191 1.390 . S
C1189 H1193 0.950 . S
H1190 C1186 0.950 . S
C1191 C1189 1.390 . S
C1191 C1192 1.387 . S
C1191 H1194 0.950 . S
C1192 C1191 1.387 . S
C1192 C1195 1.387 . S
H1193 C1189 0.950 . S
H1194 C1191 0.950 . S
C1195 C1186 1.390 . S
C1195 H1188 0.950 . S
C1195 C1192 1.387 . S
C1196 C1197 1.387 . S
C1196 H1200 0.950 . S
C1196 C1205 1.390 . S
C1197 C1196 1.387 . S
C1197 C1199 1.387 . S
H1198 C1205 0.950 . S
C1199 C1197 1.387 . S
C1199 C1201 1.390 . S
C1199 H1203 0.950 . S
H1200 C1196 0.950 . S
C1201 C1199 1.390 . S
C1201 C1202 1.387 . S
C1201 H1204 0.950 . S
C1202 C1201 1.387 . S
C1202 C1205 1.387 . S
H1203 C1199 0.950 . S
H1204 C1201 0.950 . S
C1205 C1196 1.390 . S
C1205 H1198 0.950 . S
C1205 C1202 1.387 . S
C1206 C1207 1.387 . S
C1206 H1210 0.950 . S
C1206 C1215 1.390 . S
C1207 C1206 1.387 . S
C1207 C1209 1.387 . S
H1208 C1215 0.950 . S
C1209 C1207 1.387 . S
C1209 C1211 1.390 . S
C1209 H1213 0.950 . S
H1210 C1206 0.950 . S
C1211 C1209 1.390 . S
C1211 C1212 1.387 . S
C1211 H1214 0.950 . S
C1212 C1211 1.387 . S
C1212 C1215 1.387 . S
H1213 C1209 0.950 . S
H1214 C1211 0.950 . S
C1215 C1206 1.390 . S
C1215 H1208 0.950 . S
C1215 C1212 1.387 . S
C1216 C1217 1.387 . S
C1216 H1220 0.950 . S
C1216 C1225 1.390 . S
C1217 C1216 1.387 . S
C1217 C1219 1.387 . S
H1218 C1225 0.950 . S
C1219 C1217 1.387 . S
C1219 C1221 1.390 . S
C1219 H1223 0.950 . S
H1220 C1216 0.950 . S
C1221 C1219 1.390 . S
C1221 C1222 1.387 . S
C1221 H1224 0.950 . S
C1222 C1221 1.387 . S
C1222 C1225 1.387 . S
H1223 C1219 0.950 . S
H1224 C1221 0.950 . S
C1225 C1216 1.390 . S
C1225 H1218 0.950 . S
C1225 C1222 1.387 . S
C1226 C1227 1.387 . S
C1226 H1230 0.950 . S
C1226 C1235 1.390 . S
C1227 C1226 1.387 . S
C1227 C1229 1.387 . S
H1228 C1235 0.950 . S
C1229 C1227 1.387 . S
C1229 C1231 1.390 . S
C1229 H1233 0.950 . S
H1230 C1226 0.950 . S
C1231 C1229 1.390 . S
C1231 C1232 1.387 . S
C1231 H1234 0.950 . S
C1232 C1231 1.387 . S
C1232 C1235 1.387 . S
H1233 C1229 0.950 . S
H1234 C1231 0.950 . S
C1235 C1226 1.390 . S
C1235 H1228 0.950 . S
C1235 C1232 1.387 . S
C1236 C1237 1.387 . S
C1236 H1240 0.950 . S
C1236 C1245 1.390 . S
C1237 C1236 1.387 . S
C1237 C1239 1.387 . S
H1238 C1245 0.950 . S
C1239 C1237 1.387 . S
C1239 C1241 1.390 . S
C1239 H1243 0.950 . S
H1240 C1236 0.950 . S
C1241 C1239 1.390 . S
C1241 C1242 1.387 . S
C1241 H1244 0.950 . S
C1242 C1241 1.387 . S
C1242 C1245 1.387 . S
H1243 C1239 0.950 . S
H1244 C1241 0.950 . S
C1245 C1236 1.390 . S
C1245 H1238 0.950 . S
C1245 C1242 1.387 . S
C1246 C1247 1.387 . S
C1246 H1250 0.950 . S
C1246 C1255 1.390 . S
C1247 C1246 1.387 . S
C1247 C1249 1.387 . S
H1248 C1255 0.950 . S
C1249 C1247 1.387 . S
C1249 C1251 1.390 . S
C1249 H1253 0.950 . S
H1250 C1246 0.950 . S
C1251 C1249 1.390 . S
C1251 C1252 1.387 . S
C1251 H1254 0.950 . S
C1252 C1251 1.387 . S
C1252 C1255 1.387 . S
H1253 C1249 0.950 . S
H1254 C1251 0.950 . S
C1255 C1246 1.390 . S
C1255 H1248 0.950 . S
C1255 C1252 1.387 . S
C1256 C1257 1.387 . S
C1256 H1260 0.950 . S
C1256 C1265 1.390 . S
C1257 C1256 1.387 . S
C1257 C1259 1.387 . S
H1258 C1265 0.950 . S
C1259 C1257 1.387 . S
C1259 C1261 1.390 . S
C1259 H1263 0.950 . S
H1260 C1256 0.950 . S
C1261 C1259 1.390 . S
C1261 C1262 1.387 . S
C1261 H1264 0.950 . S
C1262 C1261 1.387 . S
C1262 C1265 1.387 . S
H1263 C1259 0.950 . S
H1264 C1261 0.950 . S
C1265 C1256 1.390 . S
C1265 H1258 0.950 . S
C1265 C1262 1.387 . S
C1266 C1267 1.387 . S
C1266 H1270 0.950 . S
C1266 C1275 1.390 . S
C1267 C1266 1.387 . S
C1267 C1269 1.387 . S
H1268 C1275 0.950 . S
C1269 C1267 1.387 . S
C1269 C1271 1.390 . S
C1269 H1273 0.950 . S
H1270 C1266 0.950 . S
C1271 C1269 1.390 . S
C1271 C1272 1.387 . S
C1271 H1274 0.950 . S
C1272 C1271 1.387 . S
C1272 C1275 1.387 . S
H1273 C1269 0.950 . S
H1274 C1271 0.950 . S
C1275 C1266 1.390 . S
C1275 H1268 0.950 . S
C1275 C1272 1.387 . S
C1276 C1277 1.387 . S
C1276 H1280 0.950 . S
C1276 C1285 1.390 . S
C1277 C1276 1.387 . S
C1277 C1279 1.387 . S
H1278 C1285 0.950 . S
C1279 C1277 1.387 . S
C1279 C1281 1.390 . S
C1279 H1283 0.950 . S
H1280 C1276 0.950 . S
C1281 C1279 1.390 . S
C1281 C1282 1.387 . S
C1281 H1284 0.950 . S
C1282 C1281 1.387 . S
C1282 C1285 1.387 . S
H1283 C1279 0.950 . S
H1284 C1281 0.950 . S
C1285 C1276 1.390 . S
C1285 H1278 0.950 . S
C1285 C1282 1.387 . S
C1286 C1287 1.387 . S
C1286 H1290 0.950 . S
C1286 C1295 1.390 . S
C1287 C1286 1.387 . S
C1287 C1289 1.387 . S
H1288 C1295 0.950 . S
C1289 C1287 1.387 . S
C1289 C1291 1.390 . S
C1289 H1293 0.950 . S
H1290 C1286 0.950 . S
C1291 C1289 1.390 . S
C1291 C1292 1.387 . S
C1291 H1294 0.950 . S
C1292 C1291 1.387 . S
C1292 C1295 1.387 . S
H1293 C1289 0.950 . S
H1294 C1291 0.950 . S
C1295 C1286 1.390 . S
C1295 H1288 0.950 . S
C1295 C1292 1.387 . S
C1296 C1297 1.387 1_565 S
C1296 H1300 0.950 . S
C1296 C1305 1.390 . S
C1297 C1296 1.387 1_545 S
C1297 C1299 1.387 . S
H1298 C1305 0.950 . S
C1299 C1297 1.387 . S
C1299 C1301 1.390 . S
C1299 H1303 0.950 . S
H1300 C1296 0.950 . S
C1301 C1299 1.390 . S
C1301 C1302 1.387 . S
C1301 H1304 0.950 . S
C1302 C1301 1.387 . S
C1302 C1305 1.387 1_545 S
H1303 C1299 0.950 . S
H1304 C1301 0.950 . S
C1305 C1296 1.390 . S
C1305 H1298 0.950 . S
C1305 C1302 1.387 1_565 S
C1306 C1307 1.387 . S
C1306 H1310 0.950 . S
C1306 C1315 1.390 . S
C1307 C1306 1.387 . S
C1307 C1309 1.387 . S
H1308 C1315 0.950 . S
C1309 C1307 1.387 . S
C1309 C1311 1.390 . S
C1309 H1313 0.950 . S
H1310 C1306 0.950 . S
C1311 C1309 1.390 . S
C1311 C1312 1.387 . S
C1311 H1314 0.950 . S
C1312 C1311 1.387 . S
C1312 C1315 1.387 . S
H1313 C1309 0.950 . S
H1314 C1311 0.950 . S
C1315 C1306 1.390 . S
C1315 H1308 0.950 . S
C1315 C1312 1.387 . S
C1316 C1317 1.387 . S
C1316 H1320 0.950 . S
C1316 C1325 1.390 . S
C1317 C1316 1.387 . S
C1317 C1319 1.387 . S
H1318 C1325 0.965 . S
C1319 C1317 1.387 . S
C1319 C1321 1.390 . S
C1319 H1323 0.950 . S
H1320 C1316 0.950 . S
C1321 C1319 1.390 . S
C1321 C1322 1.387 . S
C1321 H1324 0.950 . S
C1322 C1321 1.387 . S
C1322 C1325 1.387 . S
H1323 C1319 0.950 . S
H1324 C1321 0.950 . S
C1325 C1316 1.390 . S
C1325 H1318 0.965 . S
C1325 C1322 1.387 . S
C1326 C1327 1.387 . S
C1326 H1330 0.950 . S
C1326 C1335 1.390 . S
C1327 C1326 1.387 . S
C1327 C1329 1.387 . S
H1328 C1335 0.950 . S
C1329 C1327 1.387 . S
C1329 C1331 1.390 . S
C1329 H1333 0.950 . S
H1330 C1326 0.950 . S
C1331 C1329 1.390 . S
C1331 C1332 1.387 . S
C1331 H1334 0.950 . S
C1332 C1331 1.387 . S
C1332 C1335 1.387 . S
H1333 C1329 0.950 . S
H1334 C1331 0.950 . S
C1335 C1326 1.390 . S
C1335 H1328 0.950 . S
C1335 C1332 1.387 . S
C1336 C1337 1.387 1_545 S
C1336 H1340 0.950 . S
C1336 C1345 1.390 . S
C1337 C1336 1.387 1_565 S
C1337 C1339 1.387 . S
H1338 C1345 0.950 . S
C1339 C1337 1.387 . S
C1339 C1341 1.390 . S
C1339 H1343 0.950 . S
H1340 C1336 0.950 . S
C1341 C1339 1.390 . S
C1341 C1342 1.387 1_565 S
C1341 H1344 0.950 . S
C1342 C1341 1.387 1_545 S
C1342 C1345 1.387 . S
H1343 C1339 0.950 . S
H1344 C1341 0.950 . S
C1345 C1336 1.390 . S
C1345 H1338 0.950 . S
C1345 C1342 1.387 . S
C1346 C1347 1.387 . S
C1346 H1350 0.950 . S
C1346 C1355 1.390 . S
C1347 C1346 1.387 . S
C1347 C1349 1.387 . S
H1348 C1355 0.950 . S
C1349 C1347 1.387 . S
C1349 C1351 1.390 . S
C1349 H1353 0.950 . S
H1350 C1346 0.950 . S
C1351 C1349 1.390 . S
C1351 C1352 1.387 . S
C1351 H1354 0.950 . S
C1352 C1351 1.387 . S
C1352 C1355 1.387 . S
H1353 C1349 0.950 . S
H1354 C1351 0.950 . S
C1355 C1346 1.390 . S
C1355 H1348 0.950 . S
C1355 C1352 1.387 . S
C1356 C1357 1.387 . S
C1356 H1360 0.950 . S
C1356 C1365 1.390 . S
C1357 C1356 1.387 . S
C1357 C1359 1.387 1_545 S
H1358 C1365 0.950 . S
C1359 C1357 1.387 1_565 S
C1359 C1361 1.390 . S
C1359 H1363 0.950 . S
H1360 C1356 0.950 . S
C1361 C1359 1.390 . S
C1361 C1362 1.387 1_565 S
C1361 H1364 0.950 . S
C1362 C1361 1.387 1_545 S
C1362 C1365 1.387 . S
H1363 C1359 0.950 . S
H1364 C1361 0.950 . S
C1365 C1356 1.390 . S
C1365 H1358 0.950 . S
C1365 C1362 1.387 . S
C1366 C1367 1.387 . S
C1366 H1370 0.950 . S
C1366 C1375 1.390 . S
C1367 C1366 1.387 . S
C1367 C1369 1.387 . S
H1368 C1375 0.950 . S
C1369 C1367 1.387 . S
C1369 C1371 1.390 . S
C1369 H1373 0.950 . S
H1370 C1366 0.950 . S
C1371 C1369 1.390 . S
C1371 C1372 1.387 . S
C1371 H1374 0.950 . S
C1372 C1371 1.387 . S
C1372 C1375 1.387 . S
H1373 C1369 0.950 . S
H1374 C1371 0.950 . S
C1375 C1366 1.390 . S
C1375 H1368 0.950 . S
C1375 C1372 1.387 . S
C1376 C1377 1.387 . S
C1376 H1380 0.950 . S
C1376 C1385 1.390 . S
C1377 C1376 1.387 . S
C1377 C1379 1.387 . S
H1378 C1385 0.950 . S
C1379 C1377 1.387 . S
C1379 C1381 1.390 . S
C1379 H1383 0.950 . S
H1380 C1376 0.950 . S
C1381 C1379 1.390 . S
C1381 C1382 1.387 . S
C1381 H1384 0.950 . S
C1382 C1381 1.387 . S
C1382 C1385 1.387 . S
H1383 C1379 0.950 . S
H1384 C1381 0.950 . S
C1385 C1376 1.390 . S
C1385 H1378 0.950 . S
C1385 C1382 1.387 . S
C1386 C1387 1.387 . S
C1386 H1390 0.950 . S
C1386 C1395 1.390 . S
C1387 C1386 1.387 . S
C1387 C1389 1.387 . S
H1388 C1395 0.950 . S
C1389 C1387 1.387 . S
C1389 C1391 1.390 . S
C1389 H1393 0.950 . S
H1390 C1386 0.950 . S
C1391 C1389 1.390 . S
C1391 C1392 1.387 . S
C1391 H1394 0.950 . S
C1392 C1391 1.387 . S
C1392 C1395 1.387 . S
H1393 C1389 0.950 . S
H1394 C1391 0.950 . S
C1395 C1386 1.390 . S
C1395 H1388 0.950 . S
C1395 C1392 1.387 . S
C1396 C1397 1.387 . S
C1396 H1400 0.950 . S
C1396 C1405 1.390 . S
C1397 C1396 1.387 . S
C1397 C1399 1.387 . S
H1398 C1405 0.950 . S
C1399 C1397 1.387 . S
C1399 C1401 1.390 . S
C1399 H1403 0.950 . S
H1400 C1396 0.950 . S
C1401 C1399 1.390 . S
C1401 C1402 1.387 . S
C1401 H1404 0.950 . S
C1402 C1401 1.387 . S
C1402 C1405 1.387 . S
H1403 C1399 0.950 . S
H1404 C1401 0.950 . S
C1405 C1396 1.390 . S
C1405 H1398 0.950 . S
C1405 C1402 1.387 . S
C1406 C1407 1.387 . S
C1406 H1410 0.950 . S
C1406 C1415 1.390 . S
C1407 C1406 1.387 . S
C1407 C1409 1.387 . S
H1408 C1415 0.950 . S
C1409 C1407 1.387 . S
C1409 C1411 1.390 . S
C1409 H1413 0.950 . S
H1410 C1406 0.950 . S
C1411 C1409 1.390 . S
C1411 C1412 1.387 . S
C1411 H1414 0.950 . S
C1412 C1411 1.387 . S
C1412 C1415 1.387 . S
H1413 C1409 0.950 . S
H1414 C1411 0.950 . S
C1415 C1406 1.390 . S
C1415 H1408 0.950 . S
C1415 C1412 1.387 . S
C1416 C1417 1.387 . S
C1416 H1420 0.950 . S
C1416 C1425 1.390 . S
C1417 C1416 1.387 . S
C1417 C1419 1.387 . S
H1418 C1425 0.950 . S
C1419 C1417 1.387 . S
C1419 C1421 1.390 . S
C1419 H1423 0.950 . S
H1420 C1416 0.950 . S
C1421 C1419 1.390 . S
C1421 C1422 1.387 . S
C1421 H1424 0.950 . S
C1422 C1421 1.387 . S
C1422 C1425 1.387 . S
H1423 C1419 0.950 . S
H1424 C1421 0.950 . S
C1425 C1416 1.390 . S
C1425 H1418 0.950 . S
C1425 C1422 1.387 . S
C1426 C1427 1.387 . S
C1426 H1430 0.950 . S
C1426 C1435 1.390 . S
C1427 C1426 1.387 . S
C1427 C1429 1.387 . S
H1428 C1435 0.950 . S
C1429 C1427 1.387 . S
C1429 C1431 1.390 . S
C1429 H1433 0.950 . S
H1430 C1426 0.950 . S
C1431 C1429 1.390 . S
C1431 C1432 1.387 . S
C1431 H1434 0.950 . S
C1432 C1431 1.387 . S
C1432 C1435 1.387 . S
H1433 C1429 0.950 . S
H1434 C1431 0.950 . S
C1435 C1426 1.390 . S
C1435 H1428 0.950 . S
C1435 C1432 1.387 . S
C1436 C1437 1.387 . S
C1436 H1440 0.950 . S
C1436 C1445 1.390 . S
C1437 C1436 1.387 . S
C1437 C1439 1.387 . S
H1438 C1445 0.950 . S
C1439 C1437 1.387 . S
C1439 C1441 1.390 . S
C1439 H1443 0.950 . S
H1440 C1436 0.950 . S
C1441 C1439 1.390 . S
C1441 C1442 1.387 . S
C1441 H1444 0.950 . S
C1442 C1441 1.387 . S
C1442 C1445 1.387 . S
H1443 C1439 0.950 . S
H1444 C1441 0.950 . S
C1445 C1436 1.390 . S
C1445 H1438 0.950 . S
C1445 C1442 1.387 . S
C1446 C1447 1.387 . S
C1446 H1450 0.950 . S
C1446 C1455 1.390 . S
C1447 C1446 1.387 . S
C1447 C1449 1.387 . S
H1448 C1455 0.950 . S
C1449 C1447 1.387 . S
C1449 C1451 1.390 . S
C1449 H1453 0.950 . S
H1450 C1446 0.950 . S
C1451 C1449 1.390 . S
C1451 C1452 1.387 . S
C1451 H1454 0.950 . S
C1452 C1451 1.387 . S
C1452 C1455 1.387 . S
H1453 C1449 0.950 . S
H1454 C1451 0.950 . S
C1455 C1446 1.390 . S
C1455 H1448 0.950 . S
C1455 C1452 1.387 . S
C1456 C1457 1.387 . S
C1456 H1460 0.950 . S
C1456 C1465 1.390 . S
C1457 C1456 1.387 . S
C1457 C1459 1.387 . S
H1458 C1465 0.950 . S
C1459 C1457 1.387 . S
C1459 C1461 1.390 . S
C1459 H1463 0.950 . S
H1460 C1456 0.950 . S
C1461 C1459 1.390 . S
C1461 C1462 1.387 . S
C1461 H1464 0.950 . S
C1462 C1461 1.387 . S
C1462 C1465 1.387 . S
H1463 C1459 0.950 . S
H1464 C1461 0.950 . S
C1465 C1456 1.390 . S
C1465 H1458 0.950 . S
C1465 C1462 1.387 . S
C1466 C1467 1.387 . S
C1466 H1470 0.950 . S
C1466 C1475 1.390 . S
C1467 C1466 1.387 . S
C1467 C1469 1.387 . S
H1468 C1475 0.950 . S
C1469 C1467 1.387 . S
C1469 C1471 1.390 . S
C1469 H1473 0.950 . S
H1470 C1466 0.950 . S
C1471 C1469 1.390 . S
C1471 C1472 1.387 . S
C1471 H1474 0.950 . S
C1472 C1471 1.387 . S
C1472 C1475 1.387 . S
H1473 C1469 0.950 . S
H1474 C1471 0.950 . S
C1475 C1466 1.390 . S
C1475 H1468 0.950 . S
C1475 C1472 1.387 . S
C1476 C1477 1.387 . S
C1476 H1480 0.950 . S
C1476 C1485 1.390 . S
C1477 C1476 1.387 . S
C1477 C1479 1.387 1_554 S
H1478 C1485 0.950 . S
C1479 C1477 1.387 1_556 S
C1479 C1481 1.390 1_556 S
C1479 H1483 0.950 . S
H1480 C1476 0.950 . S
C1481 C1479 1.390 1_554 S
C1481 C1482 1.387 . S
C1481 H1484 0.950 1_554 S
C1482 C1481 1.387 . S
C1482 C1485 1.387 . S
H1483 C1479 0.950 . S
H1484 C1481 0.950 1_556 S
C1485 C1476 1.390 . S
C1485 H1478 0.950 . S
C1485 C1482 1.387 . S
C1486 C1487 1.387 . S
C1486 H1490 0.950 1_655 S
C1486 C1495 1.390 . S
C1487 C1486 1.387 . S
C1487 C1489 1.387 . S
H1488 C1495 0.950 . S
C1489 C1487 1.387 . S
C1489 C1491 1.390 . S
C1489 H1493 0.950 . S
H1490 C1486 0.950 1_455 S
C1491 C1489 1.390 . S
C1491 C1492 1.387 . S
C1491 H1494 0.950 . S
C1492 C1491 1.387 . S
C1492 C1495 1.387 . S
H1493 C1489 0.950 . S
H1494 C1491 0.950 . S
C1495 C1486 1.390 . S
C1495 H1488 0.950 . S
C1495 C1492 1.387 . S
C1496 C1497 1.387 . S
C1496 H1500 0.950 . S
C1496 C1505 1.390 . S
C1497 C1496 1.387 . S
C1497 C1499 1.387 . S
H1498 C1505 0.950 . S
C1499 C1497 1.387 . S
C1499 C1501 1.390 . S
C1499 H1503 0.950 . S
H1500 C1496 0.950 . S
C1501 C1499 1.390 . S
C1501 C1502 1.387 . S
C1501 H1504 0.950 . S
C1502 C1501 1.387 . S
C1502 C1505 1.387 . S
H1503 C1499 0.950 . S
H1504 C1501 0.950 . S
C1505 C1496 1.390 . S
C1505 H1498 0.950 . S
C1505 C1502 1.387 . S
C1506 C1507 1.387 1_655 S
C1506 H1510 0.950 . S
C1506 C1515 1.390 . S
C1507 C1506 1.387 1_455 S
C1507 C1509 1.387 1_455 S
H1508 C1515 0.950 . S
C1509 C1507 1.387 1_655 S
C1509 C1511 1.390 . S
C1509 H1513 0.950 1_655 S
H1510 C1506 0.950 . S
C1511 C1509 1.390 . S
C1511 C1512 1.387 . S
C1511 H1514 0.950 . S
C1512 C1511 1.387 . S
C1512 C1515 1.387 . S
H1513 C1509 0.950 1_455 S
H1514 C1511 0.950 . S
C1515 C1506 1.390 . S
C1515 H1508 0.950 . S
C1515 C1512 1.387 . S
C1516 C1517 1.387 1_455 S
C1516 H1520 0.950 1_455 S
C1516 C1525 1.390 . S
C1517 C1516 1.387 1_655 S
C1517 C1519 1.387 1_655 S
H1518 C1525 0.950 . S
C1519 C1517 1.387 1_455 S
C1519 C1521 1.390 . S
C1519 H1523 0.950 1_455 S
H1520 C1516 0.950 1_655 S
C1521 C1519 1.390 . S
C1521 C1522 1.387 . S
C1521 H1524 0.950 . S
C1522 C1521 1.387 . S
C1522 C1525 1.387 . S
H1523 C1519 0.950 1_655 S
H1524 C1521 0.950 . S
C1525 C1516 1.390 . S
C1525 H1518 0.950 . S
C1525 C1522 1.387 . S
C1526 C1527 1.387 . S
C1526 H1530 0.950 . S
C1526 C1535 1.390 . S
C1527 C1526 1.387 . S
C1527 C1529 1.387 . S
H1528 C1535 0.950 . S
C1529 C1527 1.387 . S
C1529 C1531 1.390 . S
C1529 H1533 0.950 . S
H1530 C1526 0.950 . S
C1531 C1529 1.390 . S
C1531 C1532 1.387 . S
C1531 H1534 0.950 . S
C1532 C1531 1.387 . S
C1532 C1535 1.387 . S
H1533 C1529 0.950 . S
H1534 C1531 0.950 . S
C1535 C1526 1.390 . S
C1535 H1528 0.950 . S
C1535 C1532 1.387 . S
C1536 C1537 1.387 . S
C1536 H1540 0.950 . S
C1536 C1545 1.390 . S
C1537 C1536 1.387 . S
C1537 C1539 1.387 . S
H1538 C1545 0.950 . S
C1539 C1537 1.387 . S
C1539 C1541 1.390 . S
C1539 H1543 0.950 . S
H1540 C1536 0.950 . S
C1541 C1539 1.390 . S
C1541 C1542 1.387 . S
C1541 H1544 0.950 . S
C1542 C1541 1.387 . S
C1542 C1545 1.387 . S
H1543 C1539 0.950 . S
H1544 C1541 0.950 . S
C1545 C1536 1.390 . S
C1545 H1538 0.950 . S
C1545 C1542 1.387 . S
C1546 C1547 1.387 . S
C1546 H1550 0.950 . S
C1546 C1555 1.390 . S
C1547 C1546 1.387 . S
C1547 C1549 1.387 . S
H1548 C1555 0.950 . S
C1549 C1547 1.387 . S
C1549 C1551 1.390 . S
C1549 H1553 0.950 . S
H1550 C1546 0.950 . S
C1551 C1549 1.390 . S
C1551 C1552 1.387 . S
C1551 H1554 0.950 . S
C1552 C1551 1.387 . S
C1552 C1555 1.387 . S
H1553 C1549 0.950 . S
H1554 C1551 0.950 . S
C1555 C1546 1.390 . S
C1555 H1548 0.950 . S
C1555 C1552 1.387 . S
C1556 C1557 1.387 . S
C1556 H1560 0.950 . S
C1556 C1565 1.390 . S
C1557 C1556 1.387 . S
C1557 C1559 1.387 . S
H1558 C1565 0.950 . S
C1559 C1557 1.387 . S
C1559 C1561 1.390 . S
C1559 H1563 0.950 . S
H1560 C1556 0.950 . S
C1561 C1559 1.390 . S
C1561 C1562 1.387 . S
C1561 H1564 0.950 . S
C1562 C1561 1.387 . S
C1562 C1565 1.387 . S
H1563 C1559 0.950 . S
H1564 C1561 0.950 . S
C1565 C1556 1.390 . S
C1565 H1558 0.950 . S
C1565 C1562 1.387 . S
C1566 C1567 1.387 . S
C1566 H1570 0.950 . S
C1566 C1575 1.390 . S
C1567 C1566 1.387 . S
C1567 C1569 1.387 . S
H1568 C1575 0.950 . S
C1569 C1567 1.387 . S
C1569 C1571 1.390 . S
C1569 H1573 0.950 . S
H1570 C1566 0.950 . S
C1571 C1569 1.390 . S
C1571 C1572 1.387 . S
C1571 H1574 0.950 . S
C1572 C1571 1.387 . S
C1572 C1575 1.387 . S
H1573 C1569 0.950 . S
H1574 C1571 0.950 . S
C1575 C1566 1.390 . S
C1575 H1568 0.950 . S
C1575 C1572 1.387 . S
C1576 C1577 1.387 . S
C1576 H1580 0.950 . S
C1576 C1585 1.390 . S
C1577 C1576 1.387 . S
C1577 C1579 1.387 . S
H1578 C1585 0.950 . S
C1579 C1577 1.387 . S
C1579 C1581 1.390 . S
C1579 H1583 0.950 . S
H1580 C1576 0.950 . S
C1581 C1579 1.390 . S
C1581 C1582 1.387 . S
C1581 H1584 0.950 . S
C1582 C1581 1.387 . S
C1582 C1585 1.387 . S
H1583 C1579 0.950 . S
H1584 C1581 0.950 . S
C1585 C1576 1.390 . S
C1585 H1578 0.950 . S
C1585 C1582 1.387 . S
C1586 C1587 1.387 . S
C1586 H1590 0.950 . S
C1586 C1595 1.390 . S
C1587 C1586 1.387 . S
C1587 C1589 1.387 . S
H1588 C1595 0.950 . S
C1589 C1587 1.387 . S
C1589 C1591 1.390 . S
C1589 H1593 0.950 . S
H1590 C1586 0.950 . S
C1591 C1589 1.390 . S
C1591 C1592 1.387 . S
C1591 H1594 0.950 . S
C1592 C1591 1.387 . S
C1592 C1595 1.387 . S
H1593 C1589 0.950 . S
H1594 C1591 0.950 . S
C1595 C1586 1.390 . S
C1595 H1588 0.950 . S
C1595 C1592 1.387 . S
C1596 C1597 1.387 . S
C1596 H1600 0.950 . S
C1596 C1605 1.390 . S
C1597 C1596 1.387 . S
C1597 C1599 1.387 . S
H1598 C1605 0.950 . S
C1599 C1597 1.387 . S
C1599 C1601 1.390 . S
C1599 H1603 0.950 . S
H1600 C1596 0.950 . S
C1601 C1599 1.390 . S
C1601 C1602 1.387 . S
C1601 H1604 0.950 . S
C1602 C1601 1.387 . S
C1602 C1605 1.387 . S
H1603 C1599 0.950 . S
H1604 C1601 0.950 . S
C1605 C1596 1.390 . S
C1605 H1598 0.950 . S
C1605 C1602 1.387 . S
C1606 C1607 1.387 . S
C1606 H1610 0.950 . S
C1606 C1615 1.390 . S
C1607 C1606 1.387 . S
C1607 C1609 1.387 . S
H1608 C1615 0.950 . S
C1609 C1607 1.387 . S
C1609 C1611 1.390 . S
C1609 H1613 0.950 . S
H1610 C1606 0.950 . S
C1611 C1609 1.390 . S
C1611 C1612 1.387 . S
C1611 H1614 0.950 . S
C1612 C1611 1.387 . S
C1612 C1615 1.387 . S
H1613 C1609 0.950 . S
H1614 C1611 0.950 . S
C1615 C1606 1.390 . S
C1615 H1608 0.950 . S
C1615 C1612 1.387 . S
C1616 C1617 1.387 . S
C1616 H1620 0.950 . S
C1616 C1625 1.390 . S
C1617 C1616 1.387 . S
C1617 C1619 1.387 . S
H1618 C1625 0.950 . S
C1619 C1617 1.387 . S
C1619 C1621 1.390 . S
C1619 H1623 0.950 . S
H1620 C1616 0.950 . S
C1621 C1619 1.390 . S
C1621 C1622 1.387 . S
C1621 H1624 0.950 . S
C1622 C1621 1.387 . S
C1622 C1625 1.387 . S
H1623 C1619 0.950 . S
H1624 C1621 0.950 . S
C1625 C1616 1.390 . S
C1625 H1618 0.950 . S
C1625 C1622 1.387 . S
C1626 C1627 1.387 . S
C1626 H1630 0.950 . S
C1626 C1635 1.390 . S
C1627 C1626 1.387 . S
C1627 C1629 1.387 . S
H1628 C1635 0.950 . S
C1629 C1627 1.387 . S
C1629 C1631 1.390 . S
C1629 H1633 0.950 . S
H1630 C1626 0.950 . S
C1631 C1629 1.390 . S
C1631 C1632 1.387 . S
C1631 H1634 0.950 . S
C1632 C1631 1.387 . S
C1632 C1635 1.387 . S
H1633 C1629 0.950 . S
H1634 C1631 0.950 . S
C1635 C1626 1.390 . S
C1635 H1628 0.950 . S
C1635 C1632 1.387 . S
C1636 C1637 1.387 . S
C1636 H1640 0.950 . S
C1636 C1645 1.390 . S
C1637 C1636 1.387 . S
C1637 C1639 1.387 . S
H1638 C1645 0.950 . S
C1639 C1637 1.387 . S
C1639 C1641 1.390 . S
C1639 H1643 0.950 . S
H1640 C1636 0.950 . S
C1641 C1639 1.390 . S
C1641 C1642 1.387 . S
C1641 H1644 0.950 . S
C1642 C1641 1.387 . S
C1642 C1645 1.387 . S
H1643 C1639 0.950 . S
H1644 C1641 0.950 . S
C1645 C1636 1.390 . S
C1645 H1638 0.950 . S
C1645 C1642 1.387 . S
C1646 C1647 1.387 . S
C1646 H1650 0.950 . S
C1646 C1655 1.390 . S
C1647 C1646 1.387 . S
C1647 C1649 1.387 1_554 S
H1648 C1655 0.950 . S
C1649 C1647 1.387 1_556 S
C1649 C1651 1.390 . S
C1649 H1653 0.950 . S
H1650 C1646 0.950 . S
C1651 C1649 1.390 . S
C1651 C1652 1.387 1_556 S
C1651 H1654 0.950 . S
C1652 C1651 1.387 1_554 S
C1652 C1655 1.387 . S
H1653 C1649 0.950 . S
H1654 C1651 0.950 . S
C1655 C1646 1.390 . S
C1655 H1648 0.950 . S
C1655 C1652 1.387 . S
C1656 C1657 1.387 . S
C1656 H1660 0.950 . S
C1656 C1665 1.390 . S
C1657 C1656 1.387 . S
C1657 C1659 1.387 . S
H1658 C1665 0.950 . S
C1659 C1657 1.387 . S
C1659 C1661 1.390 . S
C1659 H1663 0.950 . S
H1660 C1656 0.950 . S
C1661 C1659 1.390 . S
C1661 C1662 1.387 . S
C1661 H1664 0.950 . S
C1662 C1661 1.387 . S
C1662 C1665 1.387 . S
H1663 C1659 0.950 . S
H1664 C1661 0.950 . S
C1665 C1656 1.390 . S
C1665 H1658 0.950 . S
C1665 C1662 1.387 . S
C1666 C1667 1.387 . S
C1666 H1670 0.950 . S
C1666 C1675 1.390 . S
C1667 C1666 1.387 . S
C1667 C1669 1.387 . S
H1668 C1675 0.950 . S
C1669 C1667 1.387 . S
C1669 C1671 1.390 . S
C1669 H1673 0.950 . S
H1670 C1666 0.950 . S
C1671 C1669 1.390 . S
C1671 C1672 1.387 . S
C1671 H1674 0.950 . S
C1672 C1671 1.387 . S
C1672 C1675 1.387 . S
H1673 C1669 0.950 . S
H1674 C1671 0.950 . S
C1675 C1666 1.390 . S
C1675 H1668 0.950 . S
C1675 C1672 1.387 . S
C1676 C1677 1.387 . S
C1676 H1680 0.950 . S
C1676 C1685 1.390 . S
C1677 C1676 1.387 . S
C1677 C1679 1.387 . S
H1678 C1685 0.950 . S
C1679 C1677 1.387 . S
C1679 C1681 1.390 . S
C1679 H1683 0.950 . S
H1680 C1676 0.950 . S
C1681 C1679 1.390 . S
C1681 C1682 1.387 . S
C1681 H1684 0.950 . S
C1682 C1681 1.387 . S
C1682 C1685 1.387 . S
H1683 C1679 0.950 . S
H1684 C1681 0.950 . S
C1685 C1676 1.390 . S
C1685 H1678 0.950 . S
C1685 C1682 1.387 . S
C1686 C1687 1.387 . S
C1686 H1690 0.950 . S
C1686 C1695 1.390 . S
C1687 C1686 1.387 . S
C1687 C1689 1.387 . S
H1688 C1695 0.950 . S
C1689 C1687 1.387 . S
C1689 C1691 1.390 . S
C1689 H1693 0.950 . S
H1690 C1686 0.950 . S
C1691 C1689 1.390 . S
C1691 C1692 1.387 . S
C1691 H1694 0.950 . S
C1692 C1691 1.387 . S
C1692 C1695 1.387 . S
H1693 C1689 0.950 . S
H1694 C1691 0.950 . S
C1695 C1686 1.390 . S
C1695 H1688 0.950 . S
C1695 C1692 1.387 . S
C1696 C1697 1.387 . S
C1696 H1700 0.950 . S
C1696 C1705 1.390 . S
C1697 C1696 1.387 . S
C1697 C1699 1.387 . S
H1698 C1705 0.950 . S
C1699 C1697 1.387 . S
C1699 C1701 1.390 . S
C1699 H1703 0.950 . S
H1700 C1696 0.950 . S
C1701 C1699 1.390 . S
C1701 C1702 1.387 . S
C1701 H1704 0.950 . S
C1702 C1701 1.387 . S
C1702 C1705 1.387 . S
H1703 C1699 0.950 . S
H1704 C1701 0.950 . S
C1705 C1696 1.390 . S
C1705 H1698 0.950 . S
C1705 C1702 1.387 . S
C1706 C1707 1.387 . S
C1706 H1710 0.950 . S
C1706 C1715 1.390 . S
C1707 C1706 1.387 . S
C1707 C1709 1.387 . S
H1708 C1715 0.950 . S
C1709 C1707 1.387 . S
C1709 C1711 1.390 . S
C1709 H1713 0.950 . S
H1710 C1706 0.950 . S
C1711 C1709 1.390 . S
C1711 C1712 1.387 . S
C1711 H1714 0.950 . S
C1712 C1711 1.387 . S
C1712 C1715 1.387 . S
H1713 C1709 0.950 . S
H1714 C1711 0.950 . S
C1715 C1706 1.390 . S
C1715 H1708 0.950 . S
C1715 C1712 1.387 . S
C1716 C1717 1.387 . S
C1716 H1720 0.950 . S
C1716 C1725 1.390 . S
C1717 C1716 1.387 . S
C1717 C1719 1.387 . S
H1718 C1725 0.950 . S
C1719 C1717 1.387 . S
C1719 C1721 1.390 . S
C1719 H1723 0.950 . S
H1720 C1716 0.950 . S
C1721 C1719 1.390 . S
C1721 C1722 1.387 . S
C1721 H1724 0.950 . S
C1722 C1721 1.387 . S
C1722 C1725 1.387 . S
H1723 C1719 0.950 . S
H1724 C1721 0.950 . S
C1725 C1716 1.390 . S
C1725 H1718 0.950 . S
C1725 C1722 1.387 . S
C1726 C1727 1.387 . S
C1726 H1730 0.950 . S
C1726 C1735 1.390 . S
C1727 C1726 1.387 . S
C1727 C1729 1.387 . S
H1728 C1735 0.950 . S
C1729 C1727 1.387 . S
C1729 C1731 1.390 . S
C1729 H1733 0.950 . S
H1730 C1726 0.950 . S
C1731 C1729 1.390 . S
C1731 C1732 1.387 . S
C1731 H1734 0.950 . S
C1732 C1731 1.387 . S
C1732 C1735 1.387 . S
H1733 C1729 0.950 . S
H1734 C1731 0.950 . S
C1735 C1726 1.390 . S
C1735 H1728 0.950 . S
C1735 C1732 1.387 . S
C1736 C1737 1.387 . S
C1736 H1740 0.950 . S
C1736 C1745 1.390 . S
C1737 C1736 1.387 . S
C1737 C1739 1.387 . S
H1738 C1745 0.950 . S
C1739 C1737 1.387 . S
C1739 C1741 1.390 . S
C1739 H1743 0.950 1_554 S
H1740 C1736 0.950 . S
C1741 C1739 1.390 . S
C1741 C1742 1.387 . S
C1741 H1744 0.950 1_554 S
C1742 C1741 1.387 . S
C1742 C1745 1.387 . S
H1743 C1739 0.950 1_556 S
H1744 C1741 0.950 1_556 S
C1745 C1736 1.390 . S
C1745 H1738 0.950 . S
C1745 C1742 1.387 . S
C1746 C1747 1.387 . S
C1746 H1750 0.950 . S
C1746 C1755 1.390 . S
C1747 C1746 1.387 . S
C1747 C1749 1.387 . S
H1748 C1755 0.950 . S
C1749 C1747 1.387 . S
C1749 C1751 1.390 . S
C1749 H1753 0.950 . S
H1750 C1746 0.950 . S
C1751 C1749 1.390 . S
C1751 C1752 1.387 . S
C1751 H1754 0.950 . S
C1752 C1751 1.387 . S
C1752 C1755 1.387 . S
H1753 C1749 0.950 . S
H1754 C1751 0.950 . S
C1755 C1746 1.390 . S
C1755 H1748 0.950 . S
C1755 C1752 1.387 . S
C1756 C1757 1.387 . S
C1756 H1760 0.950 . S
C1756 C1765 1.390 . S
C1757 C1756 1.387 . S
C1757 C1759 1.387 . S
H1758 C1765 0.950 . S
C1759 C1757 1.387 . S
C1759 C1761 1.390 . S
C1759 H1763 0.950 . S
H1760 C1756 0.950 . S
C1761 C1759 1.390 . S
C1761 C1762 1.387 . S
C1761 H1764 0.950 . S
C1762 C1761 1.387 . S
C1762 C1765 1.387 . S
H1763 C1759 0.950 . S
H1764 C1761 0.950 . S
C1765 C1756 1.390 . S
C1765 H1758 0.950 . S
C1765 C1762 1.387 . S
C1766 C1767 1.387 . S
C1766 H1770 0.950 . S
C1766 C1775 1.390 . S
C1767 C1766 1.387 . S
C1767 C1769 1.387 . S
H1768 C1775 0.950 . S
C1769 C1767 1.387 . S
C1769 C1771 1.390 . S
C1769 H1773 0.950 . S
H1770 C1766 0.950 . S
C1771 C1769 1.390 . S
C1771 C1772 1.387 . S
C1771 H1774 0.950 . S
C1772 C1771 1.387 . S
C1772 C1775 1.387 . S
H1773 C1769 0.950 . S
H1774 C1771 0.950 . S
C1775 C1766 1.390 . S
C1775 H1768 0.950 . S
C1775 C1772 1.387 . S
C1776 C1777 1.387 . S
C1776 H1780 0.950 . S
C1776 C1785 1.390 . S
C1777 C1776 1.387 . S
C1777 C1779 1.387 . S
H1778 C1785 0.950 . S
C1779 C1777 1.387 . S
C1779 C1781 1.390 . S
C1779 H1783 0.950 . S
H1780 C1776 0.950 . S
C1781 C1779 1.390 . S
C1781 C1782 1.387 . S
C1781 H1784 0.950 . S
C1782 C1781 1.387 . S
C1782 C1785 1.387 . S
H1783 C1779 0.950 . S
H1784 C1781 0.950 . S
C1785 C1776 1.390 . S
C1785 H1778 0.950 . S
C1785 C1782 1.387 . S
C1786 C1787 1.387 . S
C1786 H1790 0.950 . S
C1786 C1795 1.390 . S
C1787 C1786 1.387 . S
C1787 C1789 1.387 . S
H1788 C1795 0.950 . S
C1789 C1787 1.387 . S
C1789 C1791 1.390 . S
C1789 H1793 0.950 . S
H1790 C1786 0.950 . S
C1791 C1789 1.390 . S
C1791 C1792 1.387 . S
C1791 H1794 0.950 . S
C1792 C1791 1.387 . S
C1792 C1795 1.387 . S
H1793 C1789 0.950 . S
H1794 C1791 0.950 . S
C1795 C1786 1.390 . S
C1795 H1788 0.950 . S
C1795 C1792 1.387 . S
C1796 C1797 1.387 . S
C1796 H1800 0.950 . S
C1796 C1805 1.390 . S
C1797 C1796 1.387 . S
C1797 C1799 1.387 . S
H1798 C1805 0.950 . S
C1799 C1797 1.387 . S
C1799 C1801 1.390 . S
C1799 H1803 0.950 . S
H1800 C1796 0.950 . S
C1801 C1799 1.390 . S
C1801 C1802 1.387 . S
C1801 H1804 0.950 . S
C1802 C1801 1.387 . S
C1802 C1805 1.387 . S
H1803 C1799 0.950 . S
H1804 C1801 0.950 . S
C1805 C1796 1.390 . S
C1805 H1798 0.950 . S
C1805 C1802 1.387 . S
C1806 C1807 1.387 . S
C1806 H1810 0.950 . S
C1806 C1815 1.390 . S
C1807 C1806 1.387 . S
C1807 C1809 1.387 . S
H1808 C1815 0.950 . S
C1809 C1807 1.387 . S
C1809 C1811 1.390 . S
C1809 H1813 0.950 . S
H1810 C1806 0.950 . S
C1811 C1809 1.390 . S
C1811 C1812 1.387 . S
C1811 H1814 0.950 . S
C1812 C1811 1.387 . S
C1812 C1815 1.387 . S
H1813 C1809 0.950 . S
H1814 C1811 0.950 . S
C1815 C1806 1.390 . S
C1815 H1808 0.950 . S
C1815 C1812 1.387 . S
C1816 C1817 1.387 . S
C1816 H1820 0.950 . S
C1816 C1825 1.390 . S
C1817 C1816 1.387 . S
C1817 C1819 1.387 . S
H1818 C1825 0.950 . S
C1819 C1817 1.387 . S
C1819 C1821 1.390 . S
C1819 H1823 0.950 . S
H1820 C1816 0.950 . S
C1821 C1819 1.390 . S
C1821 C1822 1.387 . S
C1821 H1824 0.950 . S
C1822 C1821 1.387 . S
C1822 C1825 1.387 . S
H1823 C1819 0.950 . S
H1824 C1821 0.950 . S
C1825 C1816 1.390 . S
C1825 H1818 0.950 . S
C1825 C1822 1.387 . S
C1826 C1827 1.387 . S
C1826 H1830 0.950 . S
C1826 C1835 1.390 . S
C1827 C1826 1.387 . S
C1827 C1829 1.387 . S
H1828 C1835 0.950 . S
C1829 C1827 1.387 . S
C1829 C1831 1.390 . S
C1829 H1833 0.950 . S
H1830 C1826 0.950 . S
C1831 C1829 1.390 . S
C1831 C1832 1.387 . S
C1831 H1834 0.950 . S
C1832 C1831 1.387 . S
C1832 C1835 1.387 . S
H1833 C1829 0.950 . S
H1834 C1831 0.950 . S
C1835 C1826 1.390 . S
C1835 H1828 0.950 . S
C1835 C1832 1.387 . S
C1836 C1837 1.387 . S
C1836 H1840 0.950 . S
C1836 C1845 1.390 . S
C1837 C1836 1.387 . S
C1837 C1839 1.387 . S
H1838 C1845 0.950 . S
C1839 C1837 1.387 . S
C1839 C1841 1.390 . S
C1839 H1843 0.950 . S
H1840 C1836 0.950 . S
C1841 C1839 1.390 . S
C1841 C1842 1.387 . S
C1841 H1844 0.950 . S
C1842 C1841 1.387 . S
C1842 C1845 1.387 . S
H1843 C1839 0.950 . S
H1844 C1841 0.950 . S
C1845 C1836 1.390 . S
C1845 H1838 0.950 . S
C1845 C1842 1.387 . S
C1846 C1847 1.387 . S
C1846 H1850 0.950 . S
C1846 C1855 1.390 . S
C1847 C1846 1.387 . S
C1847 C1849 1.387 . S
H1848 C1855 0.950 . S
C1849 C1847 1.387 . S
C1849 C1851 1.390 . S
C1849 H1853 0.950 . S
H1850 C1846 0.950 . S
C1851 C1849 1.390 . S
C1851 C1852 1.387 . S
C1851 H1854 0.950 . S
C1852 C1851 1.387 . S
C1852 C1855 1.387 . S
H1853 C1849 0.950 . S
H1854 C1851 0.950 . S
C1855 C1846 1.390 . S
C1855 H1848 0.950 . S
C1855 C1852 1.387 . S
C1856 C1857 1.387 . S
C1856 H1860 0.950 . S
C1856 C1865 1.390 . S
C1857 C1856 1.387 . S
C1857 C1859 1.387 . S
H1858 C1865 0.950 . S
C1859 C1857 1.387 . S
C1859 C1861 1.390 . S
C1859 H1863 0.950 . S
H1860 C1856 0.950 . S
C1861 C1859 1.390 . S
C1861 C1862 1.387 . S
C1861 H1864 0.950 . S
C1862 C1861 1.387 . S
C1862 C1865 1.387 . S
H1863 C1859 0.950 . S
H1864 C1861 0.950 . S
C1865 C1856 1.390 . S
C1865 H1858 0.950 . S
C1865 C1862 1.387 . S
C1866 C1867 1.387 . S
C1866 H1870 0.950 . S
C1866 C1875 1.390 . S
C1867 C1866 1.387 . S
C1867 C1869 1.387 . S
H1868 C1875 0.950 . S
C1869 C1867 1.387 . S
C1869 C1871 1.390 . S
C1869 H1873 0.950 . S
H1870 C1866 0.950 . S
C1871 C1869 1.390 . S
C1871 C1872 1.387 . S
C1871 H1874 0.950 . S
C1872 C1871 1.387 . S
C1872 C1875 1.387 . S
H1873 C1869 0.950 . S
H1874 C1871 0.950 . S
C1875 C1866 1.390 . S
C1875 H1868 0.950 . S
C1875 C1872 1.387 . S
C1876 C1877 1.387 . S
C1876 H1880 0.950 . S
C1876 C1885 1.390 . S
C1877 C1876 1.387 . S
C1877 C1879 1.387 . S
H1878 C1885 0.950 . S
C1879 C1877 1.387 . S
C1879 C1881 1.390 . S
C1879 H1883 0.950 . S
H1880 C1876 0.950 . S
C1881 C1879 1.390 . S
C1881 C1882 1.387 . S
C1881 H1884 0.950 . S
C1882 C1881 1.387 . S
C1882 C1885 1.387 . S
H1883 C1879 0.950 . S
H1884 C1881 0.950 . S
C1885 C1876 1.390 . S
C1885 H1878 0.950 . S
C1885 C1882 1.387 . S
C1886 C1887 1.387 . S
C1886 H1890 0.950 . S
C1886 C1895 1.390 . S
C1887 C1886 1.387 . S
C1887 C1889 1.387 . S
H1888 C1895 0.950 . S
C1889 C1887 1.387 . S
C1889 C1891 1.390 . S
C1889 H1893 0.950 . S
H1890 C1886 0.950 . S
C1891 C1889 1.390 . S
C1891 C1892 1.387 . S
C1891 H1894 0.950 . S
C1892 C1891 1.387 . S
C1892 C1895 1.387 . S
H1893 C1889 0.950 . S
H1894 C1891 0.950 . S
C1895 C1886 1.390 . S
C1895 H1888 0.950 . S
C1895 C1892 1.387 . S
C1896 C1897 1.387 . S
C1896 H1900 0.950 . S
C1896 C1905 1.390 . S
C1897 C1896 1.387 . S
C1897 C1899 1.387 . S
H1898 C1905 0.950 . S
C1899 C1897 1.387 . S
C1899 C1901 1.390 . S
C1899 H1903 0.950 . S
H1900 C1896 0.950 . S
C1901 C1899 1.390 . S
C1901 C1902 1.387 . S
C1901 H1904 0.950 . S
C1902 C1901 1.387 . S
C1902 C1905 1.387 . S
H1903 C1899 0.950 . S
H1904 C1901 0.950 . S
C1905 C1896 1.390 . S
C1905 H1898 0.950 . S
C1905 C1902 1.387 . S
C1906 C1907 1.387 . S
C1906 H1910 0.950 . S
C1906 C1915 1.390 . S
C1907 C1906 1.387 . S
C1907 C1909 1.387 . S
H1908 C1915 0.950 . S
C1909 C1907 1.387 . S
C1909 C1911 1.390 . S
C1909 H1913 0.950 . S
H1910 C1906 0.950 . S
C1911 C1909 1.390 . S
C1911 C1912 1.387 . S
C1911 H1914 0.950 . S
C1912 C1911 1.387 . S
C1912 C1915 1.387 . S
H1913 C1909 0.950 . S
H1914 C1911 0.950 . S
C1915 C1906 1.390 . S
C1915 H1908 0.950 . S
C1915 C1912 1.387 . S
C1916 C1917 1.387 . S
C1916 H1920 0.950 . S
C1916 C1925 1.390 . S
C1917 C1916 1.387 . S
C1917 C1919 1.387 . S
H1918 C1925 0.950 . S
C1919 C1917 1.387 . S
C1919 C1921 1.390 . S
C1919 H1923 0.950 . S
H1920 C1916 0.950 . S
C1921 C1919 1.390 . S
C1921 C1922 1.387 . S
C1921 H1924 0.950 . S
C1922 C1921 1.387 . S
C1922 C1925 1.387 . S
H1923 C1919 0.950 . S
H1924 C1921 0.950 . S
C1925 C1916 1.390 . S
C1925 H1918 0.950 . S
C1925 C1922 1.387 . S
C1926 C1927 1.387 . S
C1926 H1930 0.950 . S
C1926 C1935 1.390 . S
C1927 C1926 1.387 . S
C1927 C1929 1.387 . S
H1928 C1935 0.950 . S
C1929 C1927 1.387 . S
C1929 C1931 1.390 . S
C1929 H1933 0.950 . S
H1930 C1926 0.950 . S
C1931 C1929 1.390 . S
C1931 C1932 1.387 . S
C1931 H1934 0.950 . S
C1932 C1931 1.387 . S
C1932 C1935 1.387 . S
H1933 C1929 0.950 . S
H1934 C1931 0.950 . S
C1935 C1926 1.390 . S
C1935 H1928 0.950 . S
C1935 C1932 1.387 . S
C977 C105 2.246 1_454 S
C982 C355 2.182 . S
C987 C65 2.313 . S
C992 C384 2.309 . S
C997 C73 1.344 . S
C1002 C435 1.318 . S
C1012 C461 1.615 . S
C1007 C92 1.675 . S
C1017 C17 0.914 . S
C1022 C501 0.912 . S
C1032 C551 0.525 . S
C1027 C37 0.520 . S
C1042 C594 0.907 . S
C1037 C49 1.041 . S
C1047 C8 1.800 . S
C1052 C631 1.760 . S
C1062 C344 2.532 . S
C1057 C231 2.416 . S
C1067 C241 0.813 . S
C1072 C381 0.811 . S
C1082 C424 2.365 . S
C1077 C273 2.255 . S
C1092 C475 1.400 . S
C1087 C171 1.426 1_556 S
C1097 C227 2.023 . S
C1102 C515 1.959 1_655 S
C1112 C554 0.781 . S
C1107 C245 0.861 . S
C1122 C585 2.106 1_556 S
C1117 C269 2.193 . S
C1132 C634 2.174 . S
C1127 C175 2.140 . S
C1142 C341 1.992 . S
C1137 C162 2.079 . S
C1147 C289 2.323 . S
C1152 C664 2.316 . S
C1162 C705 2.455 . S
C1157 C330 2.478 . S
C1172 C751 0.746 . S
C1167 C317 0.744 . S
C1177 C120 2.603 . S
C1182 C625 2.547 . S
C1187 C134 1.653 . S
C1192 C421 1.593 . S
C1197 C331 2.210 . S
C1202 C784 2.205 . S
C1212 C835 1.952 . S
C1207 C303 2.002 . S
C1222 C345 2.171 . S
C1217 C59 2.228 . S
C1232 C834 2.338 . S
C1227 C107 2.332 . S
C1237 C91 1.385 . S
C1242 C425 1.359 . S
C1247 C78 1.674 . S
C1252 C791 1.642 . S
C1262 C511 0.925 . S
C1257 C7 0.903 . S
C1267 C51 0.614 . S
C1272 C701 0.610 . S
C1282 C584 0.821 . S
C1277 C31 0.731 . S
C1292 C861 1.698 . S
C1287 C22 1.691 . S
C1302 C354 2.541 1_556 S
C1297 C143 2.525 . S
C1312 C831 0.833 . S
C1307 C315 0.812 . S
C1317 C115 2.389 . S
C1322 C434 2.379 . S
C1327 C287 1.456 . S
C1332 C785 1.438 . S
C1337 C147 1.933 . S
C1342 C505 2.004 . S
C1352 C704 0.752 . S
C1347 C311 0.708 . S
C1357 C119 2.127 . S
C1362 C595 2.144 . S
C1367 C283 2.131 1_556 S
C1372 C864 2.153 . S
C1377 C190 2.015 . S
C1382 C351 1.997 . S
C1387 C177 2.359 . S
C1392 C674 2.361 . S
C1397 C260 2.496 . S
C1402 C555 2.478 . S
C1407 C247 0.753 . S
C1412 C741 0.752 . S
C1422 C875 2.553 . S
C1417 C274 2.599 . S
C1427 C218 1.636 . S
C1432 C431 1.610 . S
C1442 C474 2.231 . S
C1437 C261 2.227 . S
C1452 C385 1.978 . S
C1447 C205 2.034 . S
C1457 C77 2.246 . S
C1462 C915 2.177 . S
C1472 C824 2.295 . S
C1467 C93 2.300 . S
C1477 C101 1.355 1_554 S
C1482 C955 1.330 . S
C1487 C64 1.666 1_655 S
C1492 C781 1.606 . S
C1497 C45 0.912 . S
C1502 C661 0.910 . S
C1512 C711 0.594 . S
C1507 C9 0.589 . S
C1522 C754 0.923 . S
C1517 C21 1.063 1_655 S
C1532 C871 1.669 . S
C1527 C36 1.705 . S
C1542 C904 2.532 . S
C1537 C259 2.415 . S
C1547 C185 0.814 . S
C1552 C821 0.809 . S
C1562 C944 2.373 . S
C1557 C203 2.263 . S
C1572 C795 1.387 . S
C1567 C213 1.416 . S
C1582 C675 1.971 1_556 S
C1577 C255 2.018 . S
C1587 C189 0.837 . S
C1592 C714 0.746 . S
C1602 C745 2.095 . S
C1597 C199 2.177 . S
C1607 C217 2.125 . S
C1612 C874 2.159 . S
C1622 C901 2.049 . S
C1617 C316 2.137 . S
C1627 C135 2.323 . S
C1632 C504 2.316 . S
C1642 C545 2.451 . S
C1637 C148 2.475 . S
C1652 C591 0.728 . S
C1647 C163 0.728 . S
C1662 C865 2.536 . S
C1657 C302 2.596 . S
C1667 C288 1.650 . S
C1672 C941 1.591 . S
C1682 C464 2.214 . S
C1677 C149 2.219 . S
C1692 C395 1.960 . S
C1687 C121 2.006 . S
C1697 C87 2.235 . S
C1702 C905 2.175 . S
C1712 C394 2.336 . S
C1707 C79 2.330 . S
C1717 C63 1.397 . S
C1722 C945 1.369 . S
C1727 C106 1.664 . S
C1732 C471 1.633 . S
C1737 C35 0.904 . S
C1742 C671 0.926 . S
C1752 C541 0.626 . S
C1747 C23 0.625 . S
C1757 C3 0.819 . S
C1762 C744 0.903 . S
C1767 C50 1.682 . S
C1772 C621 1.689 . S
C1782 C914 2.542 . S
C1777 C325 2.525 . S
C1787 C161 0.779 . S
C1792 C391 0.790 . S
C1802 C954 2.394 1_656 S
C1797 C297 2.403 . S
C1807 C133 1.454 . S
C1812 C465 1.435 . S
C1817 C329 1.954 . S
C1822 C665 2.018 . S
C1832 C544 0.685 . S
C1827 C157 0.641 . S
C1837 C301 2.117 . S
C1842 C755 2.135 1_655 S
C1852 C624 2.148 . S
C1847 C129 2.124 . S
C1862 C911 2.004 . S
C1857 C246 2.023 . S
C1872 C514 2.350 1_565 S
C1867 C219 2.348 . S
C1877 C232 2.495 . S
C1882 C715 2.476 . S
C1892 C581 0.777 . S
C1887 C191 0.776 . S
C1897 C204 2.600 . S
C1902 C635 2.549 . S
C1907 C176 1.640 . S
C1912 C951 1.613 . S
C1922 C794 2.235 . S
C1917 C233 2.231 . S
C1932 C825 1.974 . S
C1927 C275 2.027 . S
