# Generated by pormake.
# Topology pth, (4,4)-cn, num edge types: 1
# Building blocks:
#     Node 0, Type 0, BuildingBlock: UXUYUI_clean_sbu_0, # of connection points: 4
#     Node 1, Type 0, BuildingBlock: UXUYUI_clean_sbu_0, # of connection points: 4
#     Node 2, Type 0, BuildingBlock: UXUYUI_clean_sbu_0, # of connection points: 4
#     Node 3, Type 1, BuildingBlock: NAWXER_clean_sbu_0, # of connection points: 4
#     Node 4, Type 1, BuildingBlock: NAWXER_clean_sbu_0, # of connection points: 4
#     Node 5, Type 1, BuildingBlock: NAWXER_clean_sbu_0, # of connection points: 4
#     Edge 6, Type (0, 1), None
#     Edge 7, Type (0, 1), None
#     Edge 8, Type (0, 1), None
#     Edge 9, Type (0, 1), None
#     Edge 10, Type (0, 1), None
#     Edge 11, Type (0, 1), None
#     Edge 12, Type (0, 1), None
#     Edge 13, Type (0, 1), None
#     Edge 14, Type (0, 1), None
#     Edge 15, Type (0, 1), None
#     Edge 16, Type (0, 1), None
#     Edge 17, Type (0, 1), None
# Relax obj value: 0.086
# Max RMSD: 0.218
# Mean RMSD: 0.120
data_MOF--net-pth--node1-UXUYUI_clean_sbu_0--node2-NAWXER_clean_sbu_0--edge1-none
_symmetry_space_group_name_H-M    P1
_symmetry_Int_Tables_number       1
_symmetry_cell_setting            triclinic
loop_
_symmetry_equiv_pos_as_xyz
'x, y, z'
_cell_length_a     15.587882
_cell_length_b     15.58828
_cell_length_c     37.78738
_cell_angle_alpha  90.000023
_cell_angle_beta   89.999967
_cell_angle_gamma 120.00096
loop_
_atom_site_label
_atom_site_type_symbol
_atom_site_fract_x
_atom_site_fract_y
_atom_site_fract_z
_atom_type_partial_charge
Li0 Li 0.10153 0.07264 0.07988 0.0
Li1 Li 0.98436 0.07264 0.12409 0.0
Li2 Li 0.03557 0.94071 0.12409 0.0
Li3 Li 0.91839 0.94071 0.07988 0.0
C4 C 0.21553 0.15172 0.13944 0.0
N5 N 0.41319 0.28492 0.15265 0.0
C6 C 0.24475 0.24749 0.15124 0.0
C7 C 0.28687 0.12326 0.13515 0.0
C8 C 0.34499 0.31391 0.15755 0.0
C9 C 0.38637 0.19169 0.14176 0.0
C10 C 0.94945 0.15172 0.06454 0.0
C11 C 0.81858 0.19169 0.06221 0.0
N12 N 0.88499 0.28491 0.05131 0.0
C13 C 0.01601 0.24749 0.05273 0.0
C14 C 0.84965 0.12326 0.06882 0.0
C15 C 0.98218 0.3139 0.04642 0.0
C16 C 0.2466 0.12075 0.02477 0.0
N17 N 0.21529 0.1569 0.05157 0.0
C18 C 0.33705 0.32276 0.03654 0.0
C19 C 0.26039 0.25568 0.05819 0.0
C20 C 0.36896 0.28793 1.0081 0.0
C21 C 0.3249 0.18547 1.00279 0.0
H22 H 0.20846 0.04212 1.01949 0.0
H23 H 0.23373 0.2828 0.07936 0.0
C24 C 0.8874 0.12075 0.17921 0.0
N25 N 0.95487 0.1569 0.1524 0.0
C26 C 0.87384 0.18548 0.20118 0.0
C27 C 0.99898 0.32276 0.16743 0.0
C28 C 1.00855 0.25568 0.14578 0.0
C29 C 0.93224 0.28794 0.19588 0.0
H30 H 0.8469 0.04212 0.18448 0.0
H31 H 0.06234 0.28281 0.12462 0.0
C32 C 0.07047 0.86163 0.06454 0.0
N33 N 0.13493 0.72843 0.05131 0.0
C34 C 1.00391 0.76585 0.05273 0.0
C35 C 0.17027 0.89008 0.06882 0.0
C36 C 0.03774 0.69944 0.04642 0.0
C37 C 0.20134 0.82166 0.06221 0.0
C38 C 0.8044 0.86163 0.13944 0.0
C39 C 0.77518 0.76586 0.15125 0.0
C40 C 0.73305 0.89008 0.13515 0.0
C41 C 0.67494 0.69944 0.15756 0.0
C42 C 0.63355 0.82165 0.14176 0.0
N43 N 0.60674 0.72843 0.15266 0.0
C44 C 0.13253 0.89259 0.17921 0.0
C45 C 0.01137 0.75767 0.14578 0.0
C46 C 0.14609 0.82786 0.20118 0.0
N47 N 0.06505 0.85644 0.1524 0.0
C48 C 0.02094 0.69058 0.16743 0.0
C49 C 0.08768 0.72541 0.19588 0.0
H50 H 0.17302 0.97122 0.18448 0.0
H51 H 0.95758 0.73054 0.12462 0.0
C52 C 0.77331 0.89259 0.02477 0.0
N53 N 0.80463 0.85644 0.05157 0.0
C54 C 0.69502 0.82786 1.00279 0.0
C55 C 0.68288 0.69058 0.03655 0.0
C56 C 0.75953 0.75766 0.0582 0.0
C57 C 0.65097 0.7254 1.0081 0.0
H58 H 0.81146 0.97122 1.01949 0.0
H59 H 0.7862 0.73054 0.07936 0.0
O60 O 0.11767 0.08605 0.13256 0.0
O61 O 0.98164 0.08605 0.07142 0.0
O62 O 0.03829 0.92729 0.07142 0.0
O63 O 0.90225 0.92729 0.13256 0.0
H64 H 0.19088 0.27064 0.15543 0.0
H65 H 0.26568 0.04883 0.12723 0.0
H66 H 0.36854 0.38846 0.16639 0.0
H67 H 0.44221 0.17052 0.13838 0.0
H68 H 0.74156 0.17051 0.06559 0.0
H69 H 0.09303 0.27064 0.04854 0.0
H70 H 0.7964 0.04883 0.07674 0.0
H71 H 0.03319 0.38845 0.03758 0.0
H72 H 0.36872 0.40147 0.0412 0.0
H73 H 0.34617 0.15619 0.98059 0.0
H74 H 0.82327 0.1562 0.22338 0.0
H75 H 0.04603 0.40148 0.16277 0.0
H76 H 0.9269 0.74271 0.04854 0.0
H77 H 0.22352 0.96452 0.07675 0.0
H78 H 0.98674 0.62489 0.03758 0.0
H79 H 0.27836 0.84283 0.06559 0.0
H80 H 0.82905 0.74271 0.15544 0.0
H81 H 0.75424 0.96451 0.12723 0.0
H82 H 0.65139 0.62489 0.1664 0.0
H83 H 0.57771 0.84282 0.13838 0.0
H84 H 0.19665 0.85715 0.22338 0.0
H85 H 0.97389 0.61187 0.16277 0.0
H86 H 0.67375 0.85714 0.98059 0.0
H87 H 0.65121 0.61187 0.04121 0.0
Li88 Li 0.98435 0.9151 0.41321 0.0
Li89 Li 0.10153 0.03228 0.45742 0.0
Li90 Li 0.91839 0.98106 0.45742 0.0
Li91 Li 0.03557 0.09824 0.41321 0.0
C92 C 0.94945 0.80111 0.47277 0.0
N93 N 0.885 0.60346 0.48599 0.0
C94 C 0.01601 0.7719 0.48457 0.0
C95 C 0.84965 0.72977 0.46848 0.0
C96 C 0.98218 0.67166 0.49088 0.0
C97 C 0.81858 0.63027 0.47509 0.0
C98 C 0.21553 0.06719 0.39786 0.0
C99 C 0.38637 0.19806 0.39554 0.0
N100 N 0.41318 0.13165 0.38464 0.0
C101 C 0.24474 1.00063 0.38605 0.0
C102 C 0.28687 0.16699 0.40216 0.0
C103 C 0.34498 0.03447 0.37975 0.0
C104 C 0.88739 0.77002 0.3581 0.0
N105 N 0.95486 0.80135 0.3849 0.0
C106 C 0.99897 0.67959 0.36987 0.0
C107 C 1.00854 0.75625 0.39152 0.0
C108 C 0.93222 0.64768 0.34143 0.0
C109 C 0.87382 0.69173 0.33612 0.0
H110 H 0.8469 0.80816 0.35282 0.0
H111 H 0.06234 0.78292 0.41268 0.0
C112 C 0.2466 0.12923 0.51254 0.0
N113 N 0.21529 0.06177 0.48573 0.0
C114 C 0.32489 0.14279 0.53452 0.0
C115 C 0.33705 0.01767 0.50076 0.0
C116 C 0.26039 0.0081 0.47911 0.0
C117 C 0.36894 0.08439 0.52921 0.0
H118 H 0.20845 0.16971 0.51781 0.0
H119 H 0.23373 0.95431 0.45794 0.0
C120 C 0.80439 0.94616 0.39787 0.0
N121 N 0.60674 0.8817 0.38465 0.0
C122 C 0.77518 0.01271 0.38606 0.0
C123 C 0.73305 0.84636 0.40216 0.0
C124 C 0.67493 0.97888 0.37975 0.0
C125 C 0.63355 0.81529 0.39554 0.0
C126 C 0.07047 0.21223 0.47277 0.0
C127 C 1.00391 0.24144 0.48457 0.0
C128 C 0.17028 0.28358 0.46848 0.0
C129 C 0.03774 0.34168 0.49088 0.0
C130 C 0.20134 0.38307 0.4751 0.0
N131 N 0.13493 0.40988 0.48599 0.0
C132 C 0.77332 0.88411 0.51254 0.0
C133 C 0.75953 1.00525 0.47911 0.0
C134 C 0.69503 0.87055 0.53451 0.0
N135 N 0.80463 0.95158 0.48573 0.0
C136 C 0.68288 0.99568 0.50076 0.0
C137 C 0.65097 0.92895 0.52921 0.0
H138 H 0.81146 0.84362 0.51781 0.0
H139 H 0.78619 0.05903 0.45794 0.0
C140 C 0.13253 0.24333 0.3581 0.0
N141 N 0.06505 0.212 0.3849 0.0
C142 C 0.14609 0.32162 0.33612 0.0
C143 C 0.02094 0.33374 0.36988 0.0
C144 C 0.01137 0.25709 0.39153 0.0
C145 C 0.08768 0.36566 0.34143 0.0
H146 H 0.17303 0.20519 0.35282 0.0
H147 H 0.95758 0.23042 0.41269 0.0
O148 O 0.98163 0.89897 0.46588 0.0
O149 O 0.11767 0.035 0.40475 0.0
O150 O 0.90225 0.97835 0.40475 0.0
O151 O 0.03829 0.11438 0.46588 0.0
H152 H 0.09303 0.82577 0.48876 0.0
H153 H 0.7964 0.75095 0.46056 0.0
H154 H 0.03319 0.64812 0.49972 0.0
H155 H 0.74156 0.57443 0.47171 0.0
H156 H 0.44221 0.27507 0.39893 0.0
H157 H 0.19087 0.92362 0.38186 0.0
H158 H 0.26568 0.22023 0.41008 0.0
H159 H 0.36853 0.98346 0.3709 0.0
H160 H 0.04602 0.64793 0.37453 0.0
H161 H 0.82325 0.67045 0.31393 0.0
H162 H 0.34616 0.19334 0.55671 0.0
H163 H 0.36871 0.97062 0.4961 0.0
H164 H 0.82905 0.08972 0.38187 0.0
H165 H 0.75424 0.79312 0.41008 0.0
H166 H 0.65139 0.02988 0.3709 0.0
H167 H 0.57771 0.73827 0.39893 0.0
H168 H 0.9269 0.18757 0.48876 0.0
H169 H 0.22352 0.26239 0.46056 0.0
H170 H 0.98673 0.36523 0.49972 0.0
H171 H 0.27836 0.43891 0.47171 0.0
H172 H 0.67376 0.81999 0.55671 0.0
H173 H 0.65121 0.04272 0.4961 0.0
H174 H 0.19666 0.3429 0.31393 0.0
H175 H 0.97388 0.3654 0.37453 0.0
Li176 Li 0.07593 0.98107 0.74655 0.0
Li177 Li 0.07593 0.09824 0.79076 0.0
Li178 Li 0.94399 0.9151 0.79076 0.0
Li179 Li 0.94399 0.03228 0.74655 0.0
C180 C 0.15502 0.94617 0.8061 0.0
N181 N 0.28822 0.88172 0.81932 0.0
C182 C 0.25079 0.01273 0.81791 0.0
C183 C 0.12656 0.84637 0.80182 0.0
C184 C 0.31721 0.9789 0.82421 0.0
C185 C 0.19499 0.8153 0.80843 0.0
C186 C 0.15501 0.21223 0.7312 0.0
C187 C 0.19498 0.38307 0.72888 0.0
N188 N 0.28821 0.40989 0.71798 0.0
C189 C 0.25078 0.24145 0.71939 0.0
C190 C 0.12655 0.28357 0.73549 0.0
C191 C 0.31719 0.34169 0.71308 0.0
C192 C 0.12403 0.8841 0.69143 0.0
N193 N 0.16019 0.95158 0.71823 0.0
C194 C 0.32605 0.99568 0.70321 0.0
C195 C 0.25897 1.00526 0.72486 0.0
C196 C 0.29121 0.92894 0.67476 0.0
C197 C 0.18876 0.87054 0.66946 0.0
H198 H 0.0454 0.84361 0.68616 0.0
H199 H 0.2861 0.05905 0.74602 0.0
C200 C 0.12404 0.2433 0.84588 0.0
N201 N 0.16019 0.21199 0.81907 0.0
C202 C 0.18877 0.32159 0.86785 0.0
C203 C 0.32605 0.33376 0.8341 0.0
C204 C 0.25897 0.2571 0.81244 0.0
C205 C 0.29122 0.36565 0.86255 0.0
H206 H 0.04541 0.20515 0.85115 0.0
H207 H 0.2861 0.23045 0.79128 0.0
C208 C 0.86491 0.80111 0.7312 0.0
N209 N 0.73171 0.60346 0.71798 0.0
C210 C 0.76914 0.7719 0.71939 0.0
C211 C 0.89336 0.72977 0.73549 0.0
C212 C 0.70272 0.67165 0.71308 0.0
C213 C 0.82494 0.63027 0.72888 0.0
C214 C 0.86491 0.06718 0.8061 0.0
C215 C 0.76913 1.00062 0.81791 0.0
C216 C 0.89337 0.16698 0.80182 0.0
C217 C 0.70272 0.03445 0.82422 0.0
C218 C 0.82494 0.19805 0.80843 0.0
N219 N 0.73171 0.13163 0.81933 0.0
C220 C 0.89589 0.77004 0.84587 0.0
C221 C 0.76095 0.75624 0.81244 0.0
C222 C 0.83116 0.69175 0.86785 0.0
N223 N 0.85973 0.80135 0.81907 0.0
C224 C 0.69387 0.67959 0.8341 0.0
C225 C 0.7287 0.64769 0.86255 0.0
H226 H 0.97452 0.80818 0.85115 0.0
H227 H 0.73382 0.7829 0.79128 0.0
C228 C 0.89588 0.12924 0.69143 0.0
N229 N 0.85973 0.06176 0.71824 0.0
C230 C 0.83115 0.1428 0.66946 0.0
C231 C 0.69386 0.01765 0.70321 0.0
C232 C 0.76095 0.00808 0.72486 0.0
C233 C 0.72869 0.08439 0.67476 0.0
H234 H 0.97451 0.16973 0.68616 0.0
H235 H 0.73382 0.95429 0.74602 0.0
O236 O 0.08934 0.97835 0.79922 0.0
O237 O 0.08934 0.11438 0.73808 0.0
O238 O 0.93058 0.89897 0.73808 0.0
O239 O 0.93058 0.035 0.79922 0.0
H240 H 0.27394 0.08974 0.82209 0.0
H241 H 0.05212 0.79312 0.7939 0.0
H242 H 0.39176 0.02991 0.83305 0.0
H243 H 0.17382 0.73829 0.80505 0.0
H244 H 0.17381 0.43891 0.73227 0.0
H245 H 0.27393 0.18758 0.7152 0.0
H246 H 0.05212 0.26238 0.74342 0.0
H247 H 0.39175 0.36524 0.70424 0.0
H248 H 0.40476 0.04273 0.70786 0.0
H249 H 0.15947 0.81997 0.64726 0.0
H250 H 0.15948 0.34286 0.89005 0.0
H251 H 0.40477 0.36543 0.82944 0.0
H252 H 0.74599 0.82576 0.7152 0.0
H253 H 0.9678 0.75096 0.74342 0.0
H254 H 0.62817 0.6481 0.70424 0.0
H255 H 0.84611 0.57443 0.73227 0.0
H256 H 0.74599 0.9236 0.8221 0.0
H257 H 0.9678 0.22023 0.7939 0.0
H258 H 0.62816 0.98344 0.83306 0.0
H259 H 0.84611 0.27506 0.80505 0.0
H260 H 0.86044 0.67048 0.89005 0.0
H261 H 0.61515 0.64792 0.82944 0.0
H262 H 0.86043 0.19336 0.64726 0.0
H263 H 0.61515 0.9706 0.70787 0.0
C264 C 0.93753 0.58194 0.31458 0.0
C265 C 0.93754 0.35897 0.22273 0.0
O266 O 0.0235 0.59856 0.30536 0.0
Zn267 Zn 0.09046 0.54693 0.26865 0.0
O268 O 0.86055 0.51319 0.2996 0.0
Zn269 Zn 0.92945 0.46642 0.26865 0.0
O270 O 0.99641 0.41478 0.30536 0.0
O271 O 0.15936 0.50015 0.2996 0.0
O272 O 0.86056 0.35074 0.2377 0.0
O273 O 0.02351 0.42832 0.23194 0.0
O274 O 0.15936 0.6626 0.23771 0.0
O275 O 0.99641 0.58502 0.23194 0.0
C276 C 0.08238 0.4314 0.31458 0.0
C277 C 0.08238 0.65437 0.22273 0.0
C278 C 0.65765 0.07909 0.64791 0.0
C279 C 0.43468 0.07909 0.55606 0.0
O280 O 0.58831 0.99312 0.63869 0.0
Zn281 Zn 0.4697 0.92616 0.60198 0.0
O282 O 0.66589 0.15607 0.63293 0.0
Zn283 Zn 0.55021 0.08717 0.60199 0.0
O284 O 0.4316 0.02021 0.63869 0.0
O285 O 0.35403 0.85726 0.63293 0.0
O286 O 0.50343 0.15607 0.57104 0.0
O287 O 0.41806 0.99312 0.56528 0.0
O288 O 0.51648 0.85727 0.57104 0.0
O289 O 0.60186 0.02021 0.56528 0.0
C290 C 0.36226 0.93424 0.64791 0.0
C291 C 0.58524 0.93425 0.55606 0.0
C292 C 0.4347 0.35897 0.98125 0.0
C293 C 0.65766 0.58195 0.88939 0.0
O294 O 0.41807 0.42831 0.97203 0.0
Zn295 Zn 0.46971 0.54692 0.93532 0.0
O296 O 0.50345 0.35075 0.96627 0.0
Zn297 Zn 0.55022 0.46642 0.93532 0.0
O298 O 0.60186 0.58502 0.97203 0.0
O299 O 0.51648 0.66259 0.96627 0.0
O300 O 0.6659 0.5132 0.90437 0.0
O301 O 0.58831 0.59857 0.89861 0.0
O302 O 0.35403 0.50014 0.90438 0.0
O303 O 0.43161 0.41477 0.89861 0.0
C304 C 0.58523 0.65436 0.98125 0.0
C305 C 0.36226 0.43139 0.88939 0.0
loop_
_geom_bond_atom_site_label_1
_geom_bond_atom_site_label_2
_geom_bond_distance
_geom_bond_site_symmetry_2
_ccdc_geom_bond_type
Li0 N17 1.990 . S
Li0 O60 1.956 . S
Li0 O61 1.970 1_455 S
Li0 O62 1.961 1_545 S
Li1 N25 1.990 . S
Li1 O60 1.970 1_655 S
Li1 O61 1.956 . S
Li1 O63 1.961 1_545 S
Li2 N47 1.990 . S
Li2 O60 1.961 1_565 S
Li2 O62 1.956 . S
Li2 O63 1.970 1_455 S
Li3 N53 1.990 . S
Li3 O61 1.961 1_565 S
Li3 O62 1.970 1_655 S
Li3 O63 1.956 . S
C4 C6 1.348 . S
C4 C7 1.356 . S
C4 O60 1.325 . S
N5 C8 1.314 . S
N5 C9 1.279 . S
C6 C4 1.348 . S
C6 C8 1.353 . S
C6 H64 0.929 . S
C7 C4 1.356 . S
C7 C9 1.358 . S
C7 H65 0.930 . S
C8 N5 1.314 . S
C8 C6 1.353 . S
C8 H66 0.930 . S
C9 N5 1.279 . S
C9 C7 1.358 . S
C9 H67 0.930 . S
C10 C13 1.348 1_655 S
C10 C14 1.356 . S
C10 O61 1.325 . S
C11 N12 1.279 1_554 S
C11 C14 1.358 . S
C11 H68 0.930 . S
N12 C11 1.279 1_556 S
N12 C15 1.315 1_556 S
C13 C10 1.348 1_455 S
C13 C15 1.351 1_455 S
C13 H69 0.929 . S
C14 C10 1.356 . S
C14 C11 1.358 . S
C14 H70 0.930 . S
C15 N12 1.315 1_554 S
C15 C13 1.351 1_655 S
C15 H71 0.931 1_654 S
C16 N17 1.314 1_556 S
C16 C21 1.353 . S
C16 H22 0.930 . S
N17 Li0 1.990 . S
N17 C16 1.314 1_554 S
N17 C19 1.279 . S
C18 C19 1.358 . S
C18 C20 1.356 1_554 S
C18 H72 0.930 . S
C19 N17 1.279 . S
C19 C18 1.358 . S
C19 H23 0.930 . S
C20 C18 1.356 1_556 S
C20 C21 1.348 . S
C21 C16 1.353 . S
C21 C20 1.348 . S
C21 H73 0.929 . S
H22 C16 0.930 . S
H23 C19 0.930 . S
C24 N25 1.314 . S
C24 C26 1.353 . S
C24 H30 0.930 . S
N25 Li1 1.990 . S
N25 C24 1.314 . S
N25 C28 1.279 . S
C26 C24 1.353 . S
C26 C29 1.348 . S
C26 H74 0.929 . S
C27 C28 1.358 . S
C27 C29 1.356 . S
C27 H75 0.930 . S
C28 N25 1.279 . S
C28 C27 1.358 . S
C28 H31 0.930 . S
C29 C26 1.348 . S
C29 C27 1.356 . S
H30 C24 0.930 . S
H31 C28 0.930 . S
C32 C34 1.348 1_455 S
C32 C35 1.356 . S
C32 O62 1.325 . S
N33 C36 1.315 1_556 S
N33 C37 1.279 1_556 S
C34 C32 1.348 1_655 S
C34 C36 1.351 1_655 S
C34 H76 0.929 . S
C35 C32 1.356 . S
C35 C37 1.358 . S
C35 H77 0.930 . S
C36 N33 1.315 1_554 S
C36 C34 1.351 1_455 S
C36 H78 0.931 1_454 S
C37 N33 1.279 1_554 S
C37 C35 1.358 . S
C37 H79 0.930 . S
C38 C39 1.348 . S
C38 C40 1.356 . S
C38 O63 1.325 . S
C39 C38 1.348 . S
C39 C41 1.353 . S
C39 H80 0.929 . S
C40 C38 1.356 . S
C40 C42 1.358 . S
C40 H81 0.930 . S
C41 C39 1.353 . S
C41 N43 1.314 . S
C41 H82 0.930 . S
C42 C40 1.358 . S
C42 N43 1.279 . S
C42 H83 0.930 . S
N43 C41 1.314 . S
N43 C42 1.279 . S
C44 C46 1.353 . S
C44 N47 1.314 . S
C44 H50 0.930 . S
C45 N47 1.279 . S
C45 C48 1.358 . S
C45 H51 0.930 . S
C46 C44 1.353 . S
C46 C49 1.348 . S
C46 H84 0.929 . S
N47 Li2 1.990 . S
N47 C44 1.314 . S
N47 C45 1.279 . S
C48 C45 1.358 . S
C48 C49 1.356 . S
C48 H85 0.930 . S
C49 C46 1.348 . S
C49 C48 1.356 . S
H50 C44 0.930 . S
H51 C45 0.930 . S
C52 N53 1.314 1_556 S
C52 C54 1.353 . S
C52 H58 0.930 . S
N53 Li3 1.990 . S
N53 C52 1.314 1_554 S
N53 C56 1.279 . S
C54 C52 1.353 . S
C54 C57 1.348 . S
C54 H86 0.929 . S
C55 C56 1.358 . S
C55 C57 1.356 1_554 S
C55 H87 0.930 . S
C56 N53 1.279 . S
C56 C55 1.358 . S
C56 H59 0.930 . S
C57 C54 1.348 . S
C57 C55 1.356 1_556 S
H58 C52 0.930 . S
H59 C56 0.930 . S
O60 Li0 1.956 . S
O60 Li1 1.970 1_455 S
O60 Li2 1.961 1_545 S
O60 C4 1.325 . S
O61 Li0 1.970 1_655 S
O61 Li1 1.956 . S
O61 Li3 1.961 1_545 S
O61 C10 1.325 . S
O62 Li0 1.961 1_565 S
O62 Li2 1.956 . S
O62 Li3 1.970 1_455 S
O62 C32 1.325 . S
O63 Li1 1.961 1_565 S
O63 Li2 1.970 1_655 S
O63 Li3 1.956 . S
O63 C38 1.325 . S
H64 C6 0.929 . S
H65 C7 0.930 . S
H66 C8 0.930 . S
H67 C9 0.930 . S
H68 C11 0.930 . S
H69 C13 0.929 . S
H70 C14 0.930 . S
H71 C15 0.931 1_456 S
H72 C18 0.930 . S
H73 C21 0.929 . S
H74 C26 0.929 . S
H75 C27 0.930 . S
H76 C34 0.929 . S
H77 C35 0.930 . S
H78 C36 0.931 1_656 S
H79 C37 0.930 . S
H80 C39 0.929 . S
H81 C40 0.930 . S
H82 C41 0.930 . S
H83 C42 0.930 . S
H84 C46 0.929 . S
H85 C48 0.930 . S
H86 C54 0.929 . S
H87 C55 0.930 . S
Li88 N105 1.990 . S
Li88 O148 1.956 . S
Li88 O149 1.970 1_665 S
Li88 O150 1.961 . S
Li89 N113 1.990 . S
Li89 O148 1.970 1_445 S
Li89 O149 1.956 . S
Li89 O151 1.961 . S
Li90 N135 1.990 . S
Li90 O148 1.961 . S
Li90 O150 1.956 . S
Li90 O151 1.970 1_665 S
Li91 N141 1.990 . S
Li91 O149 1.961 . S
Li91 O150 1.970 1_445 S
Li91 O151 1.956 . S
C92 C94 1.348 1_655 S
C92 C95 1.356 . S
C92 O148 1.325 . S
N93 C96 1.314 . S
N93 C97 1.279 . S
C94 C92 1.348 1_455 S
C94 C96 1.353 1_455 S
C94 H152 0.929 . S
C95 C92 1.356 . S
C95 C97 1.358 . S
C95 H153 0.930 . S
C96 N93 1.314 . S
C96 C94 1.353 1_655 S
C96 H154 0.930 1_655 S
C97 N93 1.279 . S
C97 C95 1.358 . S
C97 H155 0.930 . S
C98 C101 1.348 1_545 S
C98 C102 1.356 . S
C98 O149 1.325 . S
C99 N100 1.279 . S
C99 C102 1.358 . S
C99 H156 0.930 . S
N100 C99 1.279 . S
N100 C103 1.314 . S
C101 C98 1.348 1_565 S
C101 C103 1.353 1_565 S
C101 H157 0.929 . S
C102 C98 1.356 . S
C102 C99 1.358 . S
C102 H158 0.930 . S
C103 N100 1.314 . S
C103 C101 1.353 1_545 S
C103 H159 0.930 1_545 S
C104 N105 1.314 . S
C104 C109 1.353 . S
C104 H110 0.930 . S
N105 Li88 1.990 . S
N105 C104 1.314 . S
N105 C107 1.279 . S
C106 C107 1.358 . S
C106 C108 1.356 . S
C106 H160 0.930 . S
C107 N105 1.279 . S
C107 C106 1.358 . S
C107 H111 0.930 . S
C108 C106 1.356 . S
C108 C109 1.348 . S
C109 C104 1.353 . S
C109 C108 1.348 . S
C109 H161 0.929 . S
H110 C104 0.930 . S
H111 C107 0.930 . S
C112 N113 1.314 . S
C112 C114 1.353 . S
C112 H118 0.930 . S
N113 Li89 1.990 . S
N113 C112 1.314 . S
N113 C116 1.279 . S
C114 C112 1.353 . S
C114 C117 1.348 . S
C114 H162 0.929 . S
C115 C116 1.358 . S
C115 C117 1.356 . S
C115 H163 0.930 . S
C116 N113 1.279 . S
C116 C115 1.358 . S
C116 H119 0.930 . S
C117 C114 1.348 . S
C117 C115 1.356 . S
H118 C112 0.930 . S
H119 C116 0.930 . S
C120 C122 1.348 1_565 S
C120 C123 1.356 . S
C120 O150 1.325 . S
N121 C124 1.314 . S
N121 C125 1.279 . S
C122 C120 1.348 1_545 S
C122 C124 1.353 1_545 S
C122 H164 0.929 . S
C123 C120 1.356 . S
C123 C125 1.358 . S
C123 H165 0.930 . S
C124 N121 1.314 . S
C124 C122 1.353 1_565 S
C124 H166 0.930 1_565 S
C125 N121 1.279 . S
C125 C123 1.358 . S
C125 H167 0.930 . S
C126 C127 1.348 1_455 S
C126 C128 1.356 . S
C126 O151 1.325 . S
C127 C126 1.348 1_655 S
C127 C129 1.353 1_655 S
C127 H168 0.929 . S
C128 C126 1.356 . S
C128 C130 1.358 . S
C128 H169 0.930 . S
C129 C127 1.353 1_455 S
C129 N131 1.314 . S
C129 H170 0.930 1_455 S
C130 C128 1.358 . S
C130 N131 1.279 . S
C130 H171 0.930 . S
N131 C129 1.314 . S
N131 C130 1.279 . S
C132 C134 1.353 . S
C132 N135 1.314 . S
C132 H138 0.930 . S
C133 N135 1.279 . S
C133 C136 1.358 . S
C133 H139 0.930 . S
C134 C132 1.353 . S
C134 C137 1.348 . S
C134 H172 0.929 . S
N135 Li90 1.990 . S
N135 C132 1.314 . S
N135 C133 1.279 . S
C136 C133 1.358 . S
C136 C137 1.356 . S
C136 H173 0.930 . S
C137 C134 1.348 . S
C137 C136 1.356 . S
H138 C132 0.930 . S
H139 C133 0.930 . S
C140 N141 1.314 . S
C140 C142 1.353 . S
C140 H146 0.930 . S
N141 Li91 1.990 . S
N141 C140 1.314 . S
N141 C144 1.279 . S
C142 C140 1.353 . S
C142 C145 1.348 . S
C142 H174 0.929 . S
C143 C144 1.358 . S
C143 C145 1.356 . S
C143 H175 0.930 . S
C144 N141 1.279 . S
C144 C143 1.358 . S
C144 H147 0.930 . S
C145 C142 1.348 . S
C145 C143 1.356 . S
H146 C140 0.930 . S
H147 C144 0.930 . S
O148 Li88 1.956 . S
O148 Li89 1.970 1_665 S
O148 Li90 1.961 . S
O148 C92 1.325 . S
O149 Li88 1.970 1_445 S
O149 Li89 1.956 . S
O149 Li91 1.961 . S
O149 C98 1.325 . S
O150 Li88 1.961 . S
O150 Li90 1.956 . S
O150 Li91 1.970 1_665 S
O150 C120 1.325 . S
O151 Li89 1.961 . S
O151 Li90 1.970 1_445 S
O151 Li91 1.956 . S
O151 C126 1.325 . S
H152 C94 0.929 . S
H153 C95 0.930 . S
H154 C96 0.930 1_455 S
H155 C97 0.930 . S
H156 C99 0.930 . S
H157 C101 0.929 . S
H158 C102 0.930 . S
H159 C103 0.930 1_565 S
H160 C106 0.930 . S
H161 C109 0.929 . S
H162 C114 0.929 . S
H163 C115 0.930 . S
H164 C122 0.929 . S
H165 C123 0.930 . S
H166 C124 0.930 1_545 S
H167 C125 0.930 . S
H168 C127 0.929 . S
H169 C128 0.930 . S
H170 C129 0.930 1_655 S
H171 C130 0.930 . S
H172 C134 0.929 . S
H173 C136 0.930 . S
H174 C142 0.929 . S
H175 C143 0.930 . S
Li176 N193 1.990 . S
Li176 O236 1.956 . S
Li176 O237 1.970 1_565 S
Li176 O238 1.961 1_455 S
Li177 N201 1.990 . S
Li177 O236 1.970 1_545 S
Li177 O237 1.956 . S
Li177 O239 1.961 1_455 S
Li178 N223 1.990 . S
Li178 O236 1.961 1_655 S
Li178 O238 1.956 . S
Li178 O239 1.970 1_565 S
Li179 N229 1.990 . S
Li179 O237 1.961 1_655 S
Li179 O238 1.970 1_545 S
Li179 O239 1.956 . S
C180 C182 1.348 1_565 S
C180 C183 1.356 . S
C180 O236 1.325 . S
N181 C184 1.314 . S
N181 C185 1.279 . S
C182 C180 1.348 1_545 S
C182 C184 1.353 1_545 S
C182 H240 0.929 . S
C183 C180 1.356 . S
C183 C185 1.358 . S
C183 H241 0.930 . S
C184 N181 1.314 . S
C184 C182 1.353 1_565 S
C184 H242 0.930 1_565 S
C185 N181 1.279 . S
C185 C183 1.358 . S
C185 H243 0.930 . S
C186 C189 1.348 . S
C186 C190 1.356 . S
C186 O237 1.325 . S
C187 N188 1.279 . S
C187 C190 1.358 . S
C187 H244 0.930 . S
N188 C187 1.279 . S
N188 C191 1.314 . S
C189 C186 1.348 . S
C189 C191 1.353 . S
C189 H245 0.929 . S
C190 C186 1.356 . S
C190 C187 1.358 . S
C190 H246 0.930 . S
C191 N188 1.314 . S
C191 C189 1.353 . S
C191 H247 0.930 . S
C192 N193 1.314 . S
C192 C197 1.353 . S
C192 H198 0.930 . S
N193 Li176 1.990 . S
N193 C192 1.314 . S
N193 C195 1.279 . S
C194 C195 1.358 . S
C194 C196 1.356 . S
C194 H248 0.930 . S
C195 N193 1.279 . S
C195 C194 1.358 . S
C195 H199 0.930 . S
C196 C194 1.356 . S
C196 C197 1.348 . S
C197 C192 1.353 . S
C197 C196 1.348 . S
C197 H249 0.929 . S
H198 C192 0.930 . S
H199 C195 0.930 . S
C200 N201 1.314 . S
C200 C202 1.353 . S
C200 H206 0.930 . S
N201 Li177 1.990 . S
N201 C200 1.314 . S
N201 C204 1.279 . S
C202 C200 1.353 . S
C202 C205 1.348 . S
C202 H250 0.929 . S
C203 C204 1.358 . S
C203 C205 1.356 . S
C203 H251 0.930 . S
C204 N201 1.279 . S
C204 C203 1.358 . S
C204 H207 0.930 . S
C205 C202 1.348 . S
C205 C203 1.356 . S
H206 C200 0.930 . S
H207 C204 0.930 . S
C208 C210 1.348 . S
C208 C211 1.356 . S
C208 O238 1.325 . S
N209 C212 1.314 . S
N209 C213 1.279 . S
C210 C208 1.348 . S
C210 C212 1.353 . S
C210 H252 0.929 . S
C211 C208 1.356 . S
C211 C213 1.358 . S
C211 H253 0.930 . S
C212 N209 1.314 . S
C212 C210 1.353 . S
C212 H254 0.930 . S
C213 N209 1.279 . S
C213 C211 1.358 . S
C213 H255 0.930 . S
C214 C215 1.348 1_545 S
C214 C216 1.356 . S
C214 O239 1.325 . S
C215 C214 1.348 1_565 S
C215 C217 1.353 1_565 S
C215 H256 0.929 . S
C216 C214 1.356 . S
C216 C218 1.358 . S
C216 H257 0.930 . S
C217 C215 1.353 1_545 S
C217 N219 1.314 . S
C217 H258 0.930 1_545 S
C218 C216 1.358 . S
C218 N219 1.279 . S
C218 H259 0.930 . S
N219 C217 1.314 . S
N219 C218 1.279 . S
C220 C222 1.353 . S
C220 N223 1.314 . S
C220 H226 0.930 . S
C221 N223 1.279 . S
C221 C224 1.358 . S
C221 H227 0.930 . S
C222 C220 1.353 . S
C222 C225 1.348 . S
C222 H260 0.929 . S
N223 Li178 1.990 . S
N223 C220 1.314 . S
N223 C221 1.279 . S
C224 C221 1.358 . S
C224 C225 1.356 . S
C224 H261 0.930 . S
C225 C222 1.348 . S
C225 C224 1.356 . S
H226 C220 0.930 . S
H227 C221 0.930 . S
C228 N229 1.314 . S
C228 C230 1.353 . S
C228 H234 0.930 . S
N229 Li179 1.990 . S
N229 C228 1.314 . S
N229 C232 1.279 . S
C230 C228 1.353 . S
C230 C233 1.348 . S
C230 H262 0.929 . S
C231 C232 1.358 . S
C231 C233 1.356 . S
C231 H263 0.930 . S
C232 N229 1.279 . S
C232 C231 1.358 . S
C232 H235 0.930 . S
C233 C230 1.348 . S
C233 C231 1.356 . S
H234 C228 0.930 . S
H235 C232 0.930 . S
O236 Li176 1.956 . S
O236 Li177 1.970 1_565 S
O236 Li178 1.961 1_455 S
O236 C180 1.325 . S
O237 Li176 1.970 1_545 S
O237 Li177 1.956 . S
O237 Li179 1.961 1_455 S
O237 C186 1.325 . S
O238 Li176 1.961 1_655 S
O238 Li178 1.956 . S
O238 Li179 1.970 1_565 S
O238 C208 1.325 . S
O239 Li177 1.961 1_655 S
O239 Li178 1.970 1_545 S
O239 Li179 1.956 . S
O239 C214 1.325 . S
H240 C182 0.929 . S
H241 C183 0.930 . S
H242 C184 0.930 1_545 S
H243 C185 0.930 . S
H244 C187 0.930 . S
H245 C189 0.929 . S
H246 C190 0.930 . S
H247 C191 0.930 . S
H248 C194 0.930 . S
H249 C197 0.929 . S
H250 C202 0.929 . S
H251 C203 0.930 . S
H252 C210 0.929 . S
H253 C211 0.930 . S
H254 C212 0.930 . S
H255 C213 0.930 . S
H256 C215 0.929 . S
H257 C216 0.930 . S
H258 C217 0.930 1_565 S
H259 C218 0.930 . S
H260 C222 0.929 . S
H261 C224 0.930 . S
H262 C230 0.929 . S
H263 C231 0.930 . S
C264 O266 1.252 . S
C264 O268 1.255 1_455 S
C265 O272 1.249 . S
C265 O273 1.257 1_655 S
O266 C264 1.252 . S
O266 Zn267 2.028 . S
Zn267 O266 2.028 . S
Zn267 O271 2.035 . S
Zn267 O273 2.035 . S
Zn267 O274 2.028 . S
O268 C264 1.255 1_655 S
O268 Zn269 2.035 . S
Zn269 O268 2.035 . S
Zn269 O270 2.028 . S
Zn269 O272 2.028 . S
Zn269 O275 2.035 . S
O270 Zn269 2.028 . S
O270 C276 1.249 . S
O271 Zn267 2.035 . S
O271 C276 1.257 1_455 S
O272 C265 1.249 . S
O272 Zn269 2.028 . S
O273 C265 1.257 1_455 S
O273 Zn267 2.035 . S
O274 Zn267 2.028 . S
O274 C277 1.252 . S
O275 Zn269 2.035 . S
O275 C277 1.255 1_655 S
C276 O270 1.249 . S
C276 O271 1.257 1_655 S
C277 O274 1.252 . S
C277 O275 1.255 1_455 S
C278 O280 1.248 . S
C278 O282 1.256 1_565 S
C279 O286 1.250 . S
C279 O287 1.253 1_545 S
O280 C278 1.248 . S
O280 Zn281 2.028 . S
Zn281 O280 2.028 . S
Zn281 O285 2.035 . S
Zn281 O287 2.035 . S
Zn281 O288 2.028 . S
O282 C278 1.256 1_545 S
O282 Zn283 2.035 . S
Zn283 O282 2.035 . S
Zn283 O284 2.028 . S
Zn283 O286 2.028 . S
Zn283 O289 2.035 . S
O284 Zn283 2.028 . S
O284 C290 1.250 . S
O285 Zn281 2.035 . S
O285 C290 1.253 1_565 S
O286 C279 1.250 . S
O286 Zn283 2.028 . S
O287 C279 1.253 1_565 S
O287 Zn281 2.035 . S
O288 Zn281 2.028 . S
O288 C291 1.248 . S
O289 Zn283 2.035 . S
O289 C291 1.256 1_545 S
C290 O284 1.250 . S
C290 O285 1.253 1_545 S
C291 O288 1.248 . S
C291 O289 1.256 1_565 S
C292 O294 1.247 . S
C292 O296 1.258 . S
C293 O300 1.247 . S
C293 O301 1.258 . S
O294 C292 1.247 . S
O294 Zn295 2.028 . S
Zn295 O294 2.028 . S
Zn295 O299 2.035 . S
Zn295 O301 2.035 . S
Zn295 O302 2.028 . S
O296 C292 1.258 . S
O296 Zn297 2.035 . S
Zn297 O296 2.035 . S
Zn297 O298 2.028 . S
Zn297 O300 2.028 . S
Zn297 O303 2.035 . S
O298 Zn297 2.028 . S
O298 C304 1.247 . S
O299 Zn295 2.035 . S
O299 C304 1.258 . S
O300 C293 1.247 . S
O300 Zn297 2.028 . S
O301 C293 1.258 . S
O301 Zn295 2.035 . S
O302 Zn295 2.028 . S
O302 C305 1.247 . S
O303 Zn297 2.035 . S
O303 C305 1.258 . S
C304 O298 1.247 . S
C304 O299 1.258 . S
C305 O302 1.247 . S
C305 O303 1.258 . S
C265 C29 2.000 . S
C137 C291 2.002 . S
C225 C293 2.000 . S
C49 C277 2.002 . S
C279 C117 2.003 . S
C205 C305 1.999 . S
C278 C233 2.006 1_565 S
C57 C304 2.007 . S
C264 C108 2.002 1_455 S
C290 C196 2.003 1_545 S
C292 C20 2.005 . S
C145 C276 2.003 1_455 S
