# Generated by pormake.
# Topology pth, (4,4)-cn, num edge types: 1
# Building blocks:
#     Node 0, Type 0, BuildingBlock: AZAVOO_clean_sbu_0, # of connection points: 4
#     Node 1, Type 0, BuildingBlock: AZAVOO_clean_sbu_0, # of connection points: 4
#     Node 2, Type 0, BuildingBlock: AZAVOO_clean_sbu_0, # of connection points: 4
#     Node 3, Type 1, BuildingBlock: MUDLON_clean_sbu_0, # of connection points: 4
#     Node 4, Type 1, BuildingBlock: MUDLON_clean_sbu_0, # of connection points: 4
#     Node 5, Type 1, BuildingBlock: MUDLON_clean_sbu_0, # of connection points: 4
#     Edge 6, Type (0, 1), BuildingBlock: CIFDUS_clean_linker_0, # of connection points: 2
#     Edge 7, Type (0, 1), BuildingBlock: CIFDUS_clean_linker_0, # of connection points: 2
#     Edge 8, Type (0, 1), BuildingBlock: CIFDUS_clean_linker_0, # of connection points: 2
#     Edge 9, Type (0, 1), BuildingBlock: CIFDUS_clean_linker_0, # of connection points: 2
#     Edge 10, Type (0, 1), BuildingBlock: CIFDUS_clean_linker_0, # of connection points: 2
#     Edge 11, Type (0, 1), BuildingBlock: CIFDUS_clean_linker_0, # of connection points: 2
#     Edge 12, Type (0, 1), BuildingBlock: CIFDUS_clean_linker_0, # of connection points: 2
#     Edge 13, Type (0, 1), BuildingBlock: CIFDUS_clean_linker_0, # of connection points: 2
#     Edge 14, Type (0, 1), BuildingBlock: CIFDUS_clean_linker_0, # of connection points: 2
#     Edge 15, Type (0, 1), BuildingBlock: CIFDUS_clean_linker_0, # of connection points: 2
#     Edge 16, Type (0, 1), BuildingBlock: CIFDUS_clean_linker_0, # of connection points: 2
#     Edge 17, Type (0, 1), BuildingBlock: CIFDUS_clean_linker_0, # of connection points: 2
# Relax obj value: 0.105
# Max RMSD: 0.231
# Mean RMSD: 0.137
data_MOF--net-pth--node1-AZAVOO_clean_sbu_0--node2-MUDLON_clean_sbu_0--edge1-CIFDUS_clean_linker_0
_symmetry_space_group_name_H-M    P1
_symmetry_Int_Tables_number       1
_symmetry_cell_setting            triclinic
loop_
_symmetry_equiv_pos_as_xyz
'x, y, z'
_cell_length_a     19.615232
_cell_length_b     20.074994
_cell_length_c     52.32671
_cell_angle_alpha  90.998518
_cell_angle_beta   93.555349
_cell_angle_gamma 122.28005
loop_
_atom_site_label
_atom_site_type_symbol
_atom_site_fract_x
_atom_site_fract_y
_atom_site_fract_z
_atom_type_partial_charge
Mg0 Mg 0.18116 0.10379 0.08788 0.0
O1 O 0.07373 0.05075 0.05671 0.0
O2 O 0.09987 0.14401 0.02931 0.0
Mg3 Mg 0.22069 0.25655 0.04287 0.0
C4 C 0.05457 0.07401 0.03648 0.0
C5 C 0.12208 0.01003 0.13664 0.0
O6 O 0.17341 0.08245 0.14622 0.0
O7 O 0.13965 0.17785 0.10775 0.0
O8 O 0.1687 0.26988 0.07931 0.0
O9 O 0.24953 0.07071 0.06264 0.0
O10 O 0.25826 0.18508 0.06305 0.0
C11 C 0.14288 0.24008 0.10065 0.0
C12 C 0.27875 0.13958 0.05359 0.0
O13 O 0.10869 0.99791 0.1124 0.0
Mg14 Mg 0.95705 0.04437 0.41387 0.0
O15 O 0.06742 0.07186 0.44065 0.0
O16 O 0.10777 0.18313 0.46371 0.0
Mg17 Mg 0.02009 0.22328 0.4538 0.0
C18 C 0.11527 0.12554 0.45777 0.0
C19 C 0.03733 0.96847 0.38193 0.0
O20 O 0.10482 0.03736 0.38712 0.0
O21 O 0.02863 0.14493 0.38747 0.0
O22 O 0.05268 0.24831 0.41227 0.0
O23 O 0.87529 0.97525 0.44429 0.0
O24 O 0.92569 0.10183 0.44012 0.0
C25 C 0.0539 0.21811 0.39074 0.0
C26 C 0.88233 0.04011 0.45247 0.0
O27 O 0.97178 0.95651 0.3899 0.0
Mg28 Mg 1.01201 1.00253 0.75238 0.0
O29 O 0.08901 0.11759 0.77708 0.0
O30 O 0.01522 0.13647 0.80341 0.0
Mg31 Mg 0.8849 0.02903 0.79496 0.0
C32 C 0.08301 0.15838 0.79469 0.0
C33 C 0.18761 0.06495 0.73837 0.0
O34 O 0.19351 0.05765 0.76318 0.0
O35 O 0.95206 0.05213 0.72667 0.0
O36 O 0.87148 0.05942 0.7536 0.0
O37 O 0.02487 0.93199 0.78393 0.0
O38 O 0.9277 0.95569 0.77956 0.0
C39 C 0.89681 0.06533 0.73131 0.0
C40 C 0.95953 0.92309 0.79197 0.0
O41 O 0.11912 0.04539 0.72741 0.0
Mg42 Mg 0.08553 0.58418 0.24876 0.0
C43 C 1.01121 0.41548 0.26533 0.0
O44 O 0.02327 0.40133 0.242 0.0
C45 C 0.97335 0.61426 0.20761 0.0
O46 O 0.92014 0.53917 0.20149 0.0
C47 C 0.1178 0.52276 0.20311 0.0
O48 O 0.0533 0.5244 0.19628 0.0
O49 O 0.15416 0.55295 0.2252 0.0
O50 O 0.01925 0.48126 0.27124 0.0
O51 O 0.14162 0.67938 0.27887 0.0
C52 C 0.08333 0.67479 0.29004 0.0
O53 O 1.00951 0.6158 0.28277 0.0
O54 O 0.0322 0.63476 0.22428 0.0
Mg55 Mg 0.53336 0.10904 0.58853 0.0
C56 C 0.37351 1.00619 0.54787 0.0
O57 O 0.36882 0.93883 0.55019 0.0
C58 C 0.60276 0.01219 0.60951 0.0
O59 O 0.61616 1.00599 0.58562 0.0
C60 C 0.51814 0.17622 0.63846 0.0
O61 O 0.56348 0.15063 0.64747 0.0
O62 O 0.5101 0.18028 0.61432 0.0
O63 O 0.42845 0.06771 0.561 0.0
O64 O 0.63507 0.1592 0.56453 0.0
C65 C 0.61974 0.10842 0.54649 0.0
O66 O 0.54754 0.04337 0.54389 0.0
O67 O 0.55803 0.03821 0.61454 0.0
Mg68 Mg 0.59513 0.54282 0.9278 0.0
C69 C 0.46939 0.47808 0.88435 0.0
O70 O 0.53212 0.48314 0.87469 0.0
C71 C 0.68486 0.70794 0.95311 0.0
O72 O 0.68978 0.72536 0.92893 0.0
C73 C 0.60419 0.43972 0.9676 0.0
O74 O 0.66381 0.50868 0.97758 0.0
O75 O 0.57167 0.43613 0.94543 0.0
O76 O 0.47789 0.50467 0.9074 0.0
O77 O 0.68361 0.59166 0.89948 0.0
C78 C 0.76002 0.62466 0.90285 0.0
O79 O 0.79338 0.62244 0.9251 0.0
O80 O 0.64221 0.63583 0.95836 0.0
H81 H 0.20026 0.29017 0.1504 0.0
H82 H 0.04491 0.29327 0.08909 0.0
H83 H 0.02629 0.3836 0.11521 0.0
H84 H 0.0576 0.46474 0.15455 0.0
H85 H 0.21712 0.46803 0.21587 0.0
H86 H 0.23278 0.37389 0.19042 0.0
C87 C 0.16111 0.30958 0.14309 0.0
C88 C 0.1226 0.28419 0.11811 0.0
C89 C 0.15321 0.36403 0.15791 0.0
C90 C 0.07404 0.31136 0.10841 0.0
C91 C 0.06402 0.36345 0.12324 0.0
C92 C 0.09624 0.44533 0.16239 0.0
C93 C 0.13631 0.47364 0.18708 0.0
C94 C 0.10421 0.391 0.14782 0.0
C95 C 0.18626 0.44787 0.19682 0.0
C96 C 0.19454 0.39342 0.18237 0.0
H97 H 0.89189 0.16914 0.47485 0.0
H98 H 0.76992 0.916 0.4777 0.0
H99 H 0.6806 0.91648 0.50802 0.0
H100 H 0.63004 0.98668 0.53067 0.0
H101 H 0.75271 0.23983 0.52947 0.0
H102 H 0.84995 0.24173 0.50151 0.0
C103 C 0.84677 0.11419 0.4824 0.0
C104 C 0.83729 0.04245 0.4738 0.0
C105 C 0.79541 0.11489 0.49984 0.0
C106 C 0.7785 0.97193 0.48391 0.0
C107 C 0.72711 0.97211 0.50116 0.0
C108 C 0.67827 0.04246 0.52437 0.0
C109 C 0.68355 0.11298 0.53164 0.0
C110 C 0.7338 0.0429 0.50871 0.0
C111 C 0.74733 0.18487 0.52391 0.0
C112 C 0.80261 0.1858 0.50793 0.0
H113 H 1.01062 0.85057 0.82562 0.0
H114 H 0.81238 0.88175 0.80602 0.0
H115 H 0.73427 0.79139 0.83771 0.0
H116 H 0.71877 0.70085 0.87004 0.0
H117 H 0.91532 0.67099 0.89286 0.0
H118 H 0.99709 0.76276 0.86086 0.0
C119 C 0.95068 0.83801 0.82851 0.0
C120 C 0.91782 0.87329 0.81336 0.0
C121 C 0.90518 0.78543 0.84712 0.0
C122 C 0.83993 0.85632 0.81739 0.0
C123 C 0.79458 0.80401 0.83546 0.0
C124 C 0.77929 0.71373 0.86792 0.0
C125 C 0.81042 0.67809 0.88343 0.0
C126 C 0.82611 0.76765 0.85018 0.0
C127 C 0.88977 0.69721 0.88092 0.0
C128 C 0.93649 0.74977 0.86268 0.0
H129 H 0.01506 0.85216 0.1238 0.0
H130 H 0.15215 0.01803 0.18841 0.0
H131 H 0.11006 0.90975 0.21651 0.0
H132 H 0.04594 0.76868 0.22214 0.0
H133 H 0.90894 0.60071 0.15822 0.0
H134 H 0.93782 0.70886 0.13066 0.0
C135 C 0.03496 0.86461 0.14408 0.0
C136 C 0.08779 0.94337 0.15383 0.0
C137 C 1.0106 0.80165 0.1603 0.0
C138 C 0.11219 0.95825 0.18024 0.0
C139 C 0.08817 0.89626 0.1964 0.0
C140 C 0.02131 0.75556 0.20226 0.0
C141 C 0.97611 0.67681 0.19218 0.0
C142 C 0.03911 0.81785 0.18653 0.0
C143 C 0.94379 0.66078 0.16648 0.0
C144 C 0.96093 0.7227 0.15066 0.0
H145 H 0.11756 0.99154 0.46383 0.0
H146 H 0.24833 0.23984 0.4871 0.0
H147 H 0.33933 0.22414 0.51656 0.0
H148 H 0.37791 0.13999 0.5372 0.0
H149 H 0.24746 0.8909 0.51528 0.0
H150 H 0.15983 0.90691 0.4839 0.0
C151 C 0.16669 0.04244 0.47508 0.0
C152 C 0.17596 0.11688 0.47321 0.0
C153 C 0.21814 0.03271 0.49247 0.0
C154 C 0.23952 0.18192 0.48816 0.0
C155 C 0.29151 0.17296 0.50509 0.0
C156 C 0.33038 0.08885 0.52561 0.0
C157 C 0.31914 0.01411 0.52879 0.0
C158 C 0.28054 0.09851 0.5077 0.0
C159 C 0.25735 0.94901 0.51339 0.0
C160 C 0.20734 0.95821 0.49539 0.0
H161 H 0.10705 0.23869 0.84076 0.0
H162 H 0.22991 0.23767 0.77517 0.0
H163 H 0.35858 0.34251 0.79625 0.0
H164 H 0.4382 0.42519 0.83454 0.0
H165 H 0.31916 0.4248 0.9012 0.0
H166 H 0.18721 0.33107 0.87831 0.0
C167 C 0.16177 0.26232 0.83092 0.0
C168 C 0.15856 0.22956 0.80645 0.0
C169 C 0.23649 0.32213 0.84339 0.0
C170 C 0.23033 0.26097 0.79405 0.0
C171 C 0.30418 0.32105 0.8061 0.0
C172 C 0.38345 0.40545 0.84405 0.0
C173 C 0.3888 0.43146 0.86967 0.0
C174 C 0.30826 0.35058 0.83099 0.0
C175 C 0.31697 0.4057 0.88151 0.0
C176 C 0.24146 0.35172 0.86846 0.0
H177 H 0.86872 1.00508 0.68202 0.0
H178 H 0.81348 0.13839 0.73285 0.0
H179 H 0.71306 0.12836 0.70036 0.0
H180 H 0.63715 0.07732 0.65835 0.0
H181 H 0.69214 0.9449 0.60705 0.0
H182 H 0.79467 0.9569 0.63919 0.0
C183 C 0.83609 0.03353 0.68575 0.0
C184 C 0.84921 0.07309 0.70977 0.0
C185 C 0.77669 0.0257 0.66719 0.0
C186 C 0.80499 0.10809 0.71447 0.0
C187 C 0.74695 0.1017 0.696 0.0
C188 C 0.67078 0.0503 0.65423 0.0
C189 C 0.65625 0.0097 0.63033 0.0
C190 C 0.73116 0.05931 0.6725 0.0
C191 C 0.70148 0.97594 0.62534 0.0
C192 C 0.76071 0.98341 0.64363 0.0
H193 H 0.9383 0.92118 0.04524 0.0
H194 H 1.00396 0.0982 0.98971 0.0
H195 H 0.89121 1.00243 0.96009 0.0
H196 H 0.78069 0.86619 0.94836 0.0
H197 H 0.71418 0.68821 1.00345 0.0
H198 H 0.81948 0.78674 0.03479 0.0
C199 C 0.9276 0.93911 0.02677 0.0
C200 C 0.98055 0.01692 0.01974 0.0
C201 C 0.86239 0.88343 0.00962 0.0
C202 C 0.96489 0.03887 0.99573 0.0
C203 C 0.90029 0.984 0.97867 0.0
C204 C 0.7884 0.84901 0.96733 0.0
C205 C 0.73986 0.76962 0.97339 0.0
C206 C 0.84964 0.90578 0.98519 0.0
C207 C 0.75058 0.74878 0.99818 0.0
C208 C 0.81119 0.80509 0.01611 0.0
H209 H 0.16282 0.97485 0.35892 0.0
H210 H 0.90998 0.81805 0.3709 0.0
H211 H 0.90504 0.71328 0.34523 0.0
H212 H 0.96928 0.66719 0.31813 0.0
H213 H 0.22045 0.82123 0.30425 0.0
H214 H 0.22956 0.92567 0.3323 0.0
C215 C 0.10675 0.91767 0.35598 0.0
C216 C 0.03669 0.90479 0.36677 0.0
C217 C 0.10401 0.85712 0.34094 0.0
C218 C 0.96469 0.83013 0.36278 0.0
C219 C 0.96176 0.76992 0.3481 0.0
C220 C 0.02644 0.7234 0.32125 0.0
C221 C 0.09401 0.7364 0.30895 0.0
C222 C 0.03066 0.783 0.33692 0.0
C223 C 0.16753 0.80953 0.3135 0.0
C224 C 0.17254 0.86935 0.32943 0.0
H225 H 0.20665 0.11245 0.68911 0.0
H226 H 0.33166 0.08367 0.75463 0.0
H227 H 0.44881 0.12505 0.73043 0.0
H228 H 0.51214 0.15971 0.68987 0.0
H229 H 0.38846 0.18862 0.62402 0.0
H230 H 0.27589 0.15907 0.64932 0.0
C231 C 0.25965 0.11551 0.69811 0.0
C232 C 0.25968 0.09387 0.72358 0.0
C233 C 0.32751 0.13994 0.68408 0.0
C234 C 0.32946 0.09938 0.73504 0.0
C235 C 0.39673 0.12318 0.72121 0.0
C236 C 0.46128 0.16096 0.6811 0.0
C237 C 0.45879 0.17574 0.65496 0.0
C238 C 0.396 0.14243 0.69562 0.0
C239 C 0.39233 0.17749 0.64408 0.0
C240 C 0.32742 0.15985 0.65849 0.0
H241 H 0.44023 0.23191 0.05942 0.0
H242 H 0.23824 0.11432 1.00224 0.0
H243 H 0.3267 0.18975 0.96882 0.0
H244 H 0.45622 0.30358 0.95756 0.0
H245 H 0.6561 0.42637 0.01572 0.0
H246 H 0.57467 0.33338 0.04694 0.0
C247 C 0.41657 0.22108 0.03946 0.0
C248 C 0.33367 0.16724 0.03303 0.0
C249 C 0.46728 0.26635 0.02064 0.0
C250 C 0.30245 0.15456 0.00736 0.0
C251 C 0.35285 0.19825 0.98837 0.0
C252 C 0.48275 0.30891 0.97689 0.0
C253 C 0.56191 0.3728 0.98437 0.0
C254 C 0.43471 0.25647 0.99498 0.0
C255 C 0.59518 0.37841 0.00949 0.0
C256 C 0.54849 0.3254 0.02742 0.0
H257 H 0.99835 0.16677 0.34065 0.0
H258 H 0.13865 0.3783 0.39046 0.0
H259 H 0.13387 0.45708 0.35633 0.0
H260 H 0.08168 0.46512 0.31357 0.0
H261 H 0.94569 0.25611 0.26271 0.0
H262 H 0.95546 0.17676 0.29618 0.0
C263 C 0.02973 0.23034 0.34382 0.0
C264 C 0.06862 0.26643 0.36818 0.0
C265 C 0.02535 0.27539 0.32419 0.0
C266 C 0.10819 0.34889 0.37197 0.0
C267 C 0.10482 0.39398 0.35252 0.0
C268 C 0.05328 0.40199 0.30991 0.0
C269 C 1.0111 0.36601 0.28597 0.0
C270 C 0.06151 0.35756 0.32887 0.0
C271 C 0.97714 0.28474 0.28119 0.0
C272 C 0.98334 0.23959 0.30023 0.0
loop_
_geom_bond_atom_site_label_1
_geom_bond_atom_site_label_2
_geom_bond_distance
_geom_bond_site_symmetry_2
_ccdc_geom_bond_type
Mg0 O1 2.028 . S
Mg0 O7 1.986 . S
Mg0 O9 2.114 . S
Mg0 O10 2.251 . S
Mg0 O13 2.010 . S
O1 Mg0 2.028 . S
O1 C4 1.250 1_455 S
O2 Mg3 2.028 1_655 S
O2 C4 1.248 . S
Mg3 O2 2.028 1_455 S
Mg3 O8 2.032 . S
Mg3 O10 2.079 . S
C4 O1 1.250 1_655 S
C4 O2 1.248 . S
C5 O6 1.264 1_565 S
C5 O13 1.249 1_565 S
O6 C5 1.264 1_545 S
O7 Mg0 1.986 . S
O7 C11 1.246 . S
O8 Mg3 2.032 . S
O8 C11 1.259 . S
O9 Mg0 2.114 . S
O9 C12 1.252 . S
O10 Mg0 2.251 . S
O10 Mg3 2.079 . S
O10 C12 1.273 . S
C11 O7 1.246 . S
C11 O8 1.259 . S
C12 O9 1.252 . S
C12 O10 1.273 . S
O13 Mg0 2.010 . S
O13 C5 1.249 1_545 S
Mg14 O15 2.028 1_655 S
Mg14 O21 1.986 1_655 S
Mg14 O23 2.114 1_545 S
Mg14 O24 2.251 . S
Mg14 O27 2.010 1_545 S
O15 Mg14 2.028 1_455 S
O15 C18 1.250 . S
O16 Mg17 2.028 . S
O16 C18 1.248 . S
Mg17 O16 2.028 . S
Mg17 O22 2.032 . S
Mg17 O24 2.079 1_455 S
C18 O15 1.250 . S
C18 O16 1.248 . S
C19 O20 1.264 . S
C19 O27 1.249 . S
O20 C19 1.264 . S
O21 Mg14 1.986 1_455 S
O21 C25 1.246 . S
O22 Mg17 2.032 . S
O22 C25 1.259 . S
O23 Mg14 2.114 1_565 S
O23 C26 1.252 1_565 S
O24 Mg14 2.251 . S
O24 Mg17 2.079 1_655 S
O24 C26 1.273 . S
C25 O21 1.246 . S
C25 O22 1.259 . S
C26 O23 1.252 1_545 S
C26 O24 1.273 . S
O27 Mg14 2.010 1_565 S
O27 C19 1.249 . S
Mg28 O29 2.028 . S
Mg28 O35 1.986 1_455 S
Mg28 O37 2.114 1_545 S
Mg28 O38 2.251 1_445 S
Mg28 O41 2.010 . S
O29 Mg28 2.028 . S
O29 C32 1.250 . S
O30 Mg31 2.028 1_455 S
O30 C32 1.248 . S
Mg31 O30 2.028 1_655 S
Mg31 O36 2.032 . S
Mg31 O38 2.079 1_545 S
C32 O29 1.250 . S
C32 O30 1.248 . S
C33 O34 1.264 . S
C33 O41 1.249 1_565 S
O34 C33 1.264 . S
O35 Mg28 1.986 1_655 S
O35 C39 1.246 . S
O36 Mg31 2.032 . S
O36 C39 1.259 . S
O37 Mg28 2.114 1_565 S
O37 C40 1.252 1_455 S
O38 Mg28 2.251 1_665 S
O38 Mg31 2.079 1_565 S
O38 C40 1.273 . S
C39 O35 1.246 . S
C39 O36 1.259 . S
C40 O37 1.252 1_655 S
C40 O38 1.273 . S
O41 Mg28 2.010 . S
O41 C33 1.249 1_545 S
Mg42 O49 2.141 . S
Mg42 O50 2.048 . S
Mg42 O51 2.048 . S
Mg42 O54 2.141 . S
C43 O44 1.313 1_455 S
C43 O50 1.195 . S
O44 C43 1.313 1_655 S
C45 O46 1.245 1_455 S
C45 O54 1.289 . S
O46 C45 1.245 1_655 S
C47 O48 1.245 1_455 S
C47 O49 1.289 . S
O48 C47 1.245 1_655 S
O49 Mg42 2.141 . S
O49 C47 1.289 . S
O50 Mg42 2.048 . S
O50 C43 1.195 . S
O51 Mg42 2.048 . S
O51 C52 1.195 . S
C52 O51 1.195 . S
C52 O53 1.313 1_455 S
O53 C52 1.313 1_655 S
O54 Mg42 2.141 . S
O54 C45 1.289 . S
Mg55 O62 2.141 . S
Mg55 O63 2.048 . S
Mg55 O64 2.048 . S
Mg55 O67 2.141 . S
C56 O57 1.313 . S
C56 O63 1.195 . S
O57 C56 1.313 . S
C58 O59 1.245 . S
C58 O67 1.289 . S
O59 C58 1.245 . S
C60 O61 1.245 . S
C60 O62 1.289 . S
O61 C60 1.245 . S
O62 Mg55 2.141 . S
O62 C60 1.289 . S
O63 Mg55 2.048 . S
O63 C56 1.195 . S
O64 Mg55 2.048 . S
O64 C65 1.195 . S
C65 O64 1.195 . S
C65 O66 1.313 . S
O66 C65 1.313 . S
O67 Mg55 2.141 . S
O67 C58 1.289 . S
Mg68 O75 2.141 . S
Mg68 O76 2.048 . S
Mg68 O77 2.048 . S
Mg68 O80 2.141 . S
C69 O70 1.313 . S
C69 O76 1.195 . S
O70 C69 1.313 . S
C71 O72 1.245 . S
C71 O80 1.289 . S
O72 C71 1.245 . S
C73 O74 1.245 . S
C73 O75 1.289 . S
O74 C73 1.245 . S
O75 Mg68 2.141 . S
O75 C73 1.289 . S
O76 Mg68 2.048 . S
O76 C69 1.195 . S
O77 Mg68 2.048 . S
O77 C78 1.195 . S
C78 O77 1.195 . S
C78 O79 1.313 . S
O79 C78 1.313 . S
O80 Mg68 2.141 . S
O80 C71 1.289 . S
H81 C87 0.930 . S
H82 C90 0.930 . S
H83 C91 0.930 . S
H84 C92 0.930 1_655 S
H85 C95 0.930 . S
H86 C96 0.930 . S
C87 H81 0.930 . S
C87 C88 1.355 . S
C87 C89 1.415 . S
C88 C87 1.355 . S
C88 C90 1.419 1_455 S
C89 C87 1.415 . S
C89 C94 1.425 . S
C89 C96 1.409 . S
C90 H82 0.930 . S
C90 C88 1.419 1_655 S
C90 C91 1.362 . S
C91 H83 0.930 . S
C91 C90 1.362 . S
C91 C94 1.409 1_655 S
C92 H84 0.930 1_455 S
C92 C93 1.355 . S
C92 C94 1.415 . S
C93 C92 1.355 . S
C93 C95 1.419 . S
C94 C89 1.425 . S
C94 C91 1.409 1_455 S
C94 C92 1.415 . S
C95 H85 0.930 . S
C95 C93 1.419 . S
C95 C96 1.362 . S
C96 H86 0.930 . S
C96 C89 1.409 . S
C96 C95 1.362 . S
H97 C103 0.930 . S
H98 C106 0.930 1_565 S
H99 C107 0.930 . S
H100 C108 0.930 . S
H101 C111 0.930 . S
H102 C112 0.930 . S
C103 H97 0.930 . S
C103 C104 1.355 . S
C103 C105 1.415 . S
C104 C103 1.355 . S
C104 C106 1.419 . S
C105 C103 1.415 . S
C105 C110 1.425 . S
C105 C112 1.409 . S
C106 H98 0.930 1_545 S
C106 C104 1.419 . S
C106 C107 1.362 . S
C107 H99 0.930 . S
C107 C106 1.362 . S
C107 C110 1.409 . S
C108 H100 0.930 . S
C108 C109 1.355 . S
C108 C110 1.415 . S
C109 C108 1.355 . S
C109 C111 1.419 . S
C110 C105 1.425 . S
C110 C107 1.409 . S
C110 C108 1.415 . S
C111 H101 0.930 . S
C111 C109 1.419 . S
C111 C112 1.362 . S
C112 H102 0.930 . S
C112 C105 1.409 . S
C112 C111 1.362 . S
H113 C119 0.930 . S
H114 C122 0.930 . S
H115 C123 0.930 . S
H116 C124 0.930 . S
H117 C127 0.930 . S
H118 C128 0.930 . S
C119 H113 0.930 . S
C119 C120 1.355 . S
C119 C121 1.415 . S
C120 C119 1.355 . S
C120 C122 1.419 . S
C121 C119 1.415 . S
C121 C126 1.425 . S
C121 C128 1.409 . S
C122 H114 0.930 . S
C122 C120 1.419 . S
C122 C123 1.362 . S
C123 H115 0.930 . S
C123 C122 1.362 . S
C123 C126 1.409 . S
C124 H116 0.930 . S
C124 C125 1.355 . S
C124 C126 1.415 . S
C125 C124 1.355 . S
C125 C127 1.419 . S
C126 C121 1.425 . S
C126 C123 1.409 . S
C126 C124 1.415 . S
C127 H117 0.930 . S
C127 C125 1.419 . S
C127 C128 1.362 . S
C128 H118 0.930 . S
C128 C121 1.409 . S
C128 C127 1.362 . S
H129 C135 0.930 . S
H130 C138 0.930 1_545 S
H131 C139 0.930 . S
H132 C140 0.930 . S
H133 C143 0.930 . S
H134 C144 0.930 . S
C135 H129 0.930 . S
C135 C136 1.355 . S
C135 C137 1.415 . S
C136 C135 1.355 . S
C136 C138 1.419 . S
C137 C135 1.415 . S
C137 C142 1.425 . S
C137 C144 1.409 . S
C138 H130 0.930 1_565 S
C138 C136 1.419 . S
C138 C139 1.362 . S
C139 H131 0.930 . S
C139 C138 1.362 . S
C139 C142 1.409 . S
C140 H132 0.930 . S
C140 C141 1.355 . S
C140 C142 1.415 . S
C141 C140 1.355 . S
C141 C143 1.419 . S
C142 C137 1.425 . S
C142 C139 1.409 . S
C142 C140 1.415 . S
C143 H133 0.930 . S
C143 C141 1.419 . S
C143 C144 1.362 . S
C144 H134 0.930 . S
C144 C137 1.409 . S
C144 C143 1.362 . S
H145 C151 0.930 . S
H146 C154 0.930 . S
H147 C155 0.930 . S
H148 C156 0.930 . S
H149 C159 0.930 . S
H150 C160 0.930 . S
C151 H145 0.930 . S
C151 C152 1.355 . S
C151 C153 1.415 . S
C152 C151 1.355 . S
C152 C154 1.419 . S
C153 C151 1.415 . S
C153 C158 1.425 . S
C153 C160 1.409 . S
C154 H146 0.930 . S
C154 C152 1.419 . S
C154 C155 1.362 . S
C155 H147 0.930 . S
C155 C154 1.362 . S
C155 C158 1.409 . S
C156 H148 0.930 . S
C156 C157 1.355 . S
C156 C158 1.415 . S
C157 C156 1.355 . S
C157 C159 1.419 . S
C158 C153 1.425 . S
C158 C155 1.409 . S
C158 C156 1.415 . S
C159 H149 0.930 . S
C159 C157 1.419 . S
C159 C160 1.362 . S
C160 H150 0.930 . S
C160 C153 1.409 . S
C160 C159 1.362 . S
H161 C167 0.930 . S
H162 C170 0.930 . S
H163 C171 0.930 . S
H164 C172 0.930 . S
H165 C175 0.930 . S
H166 C176 0.930 . S
C167 H161 0.930 . S
C167 C168 1.355 . S
C167 C169 1.415 . S
C168 C167 1.355 . S
C168 C170 1.419 . S
C169 C167 1.415 . S
C169 C174 1.425 . S
C169 C176 1.409 . S
C170 H162 0.930 . S
C170 C168 1.419 . S
C170 C171 1.362 . S
C171 H163 0.930 . S
C171 C170 1.362 . S
C171 C174 1.409 . S
C172 H164 0.930 . S
C172 C173 1.355 . S
C172 C174 1.415 . S
C173 C172 1.355 . S
C173 C175 1.419 . S
C174 C169 1.425 . S
C174 C171 1.409 . S
C174 C172 1.415 . S
C175 H165 0.930 . S
C175 C173 1.419 . S
C175 C176 1.362 . S
C176 H166 0.930 . S
C176 C169 1.409 . S
C176 C175 1.362 . S
H177 C183 0.930 . S
H178 C186 0.930 . S
H179 C187 0.930 . S
H180 C188 0.930 . S
H181 C191 0.930 . S
H182 C192 0.930 . S
C183 H177 0.930 . S
C183 C184 1.355 . S
C183 C185 1.415 . S
C184 C183 1.355 . S
C184 C186 1.419 . S
C185 C183 1.415 . S
C185 C190 1.425 . S
C185 C192 1.409 . S
C186 H178 0.930 . S
C186 C184 1.419 . S
C186 C187 1.362 . S
C187 H179 0.930 . S
C187 C186 1.362 . S
C187 C190 1.409 . S
C188 H180 0.930 . S
C188 C189 1.355 . S
C188 C190 1.415 . S
C189 C188 1.355 . S
C189 C191 1.419 . S
C190 C185 1.425 . S
C190 C187 1.409 . S
C190 C188 1.415 . S
C191 H181 0.930 . S
C191 C189 1.419 . S
C191 C192 1.362 . S
C192 H182 0.930 . S
C192 C185 1.409 . S
C192 C191 1.362 . S
H193 C199 0.930 . S
H194 C202 0.930 1_445 S
H195 C203 0.930 . S
H196 C204 0.930 . S
H197 C207 0.920 1_554 S
H198 C208 0.930 . S
C199 H193 0.930 . S
C199 C200 1.355 . S
C199 C201 1.415 . S
C200 C199 1.355 . S
C200 C202 1.419 . S
C201 C199 1.415 . S
C201 C206 1.425 1_554 S
C201 C208 1.409 . S
C202 H194 0.930 1_665 S
C202 C200 1.419 . S
C202 C203 1.362 1_554 S
C203 H195 0.930 . S
C203 C202 1.362 1_556 S
C203 C206 1.409 . S
C204 H196 0.930 . S
C204 C205 1.355 . S
C204 C206 1.415 . S
C205 C204 1.355 . S
C205 C207 1.453 . S
C206 C201 1.425 1_556 S
C206 C203 1.409 . S
C206 C204 1.415 . S
C207 H197 0.920 1_556 S
C207 C205 1.453 . S
C207 C208 1.335 1_556 S
C208 H198 0.930 . S
C208 C201 1.409 . S
C208 C207 1.335 1_554 S
H209 C215 0.930 . S
H210 C218 0.930 . S
H211 C219 0.930 . S
H212 C220 0.930 . S
H213 C223 0.930 . S
H214 C224 0.930 . S
C215 H209 0.930 . S
C215 C216 1.355 . S
C215 C217 1.415 . S
C216 C215 1.355 . S
C216 C218 1.419 1_655 S
C217 C215 1.415 . S
C217 C222 1.425 1_655 S
C217 C224 1.409 . S
C218 H210 0.930 . S
C218 C216 1.419 1_455 S
C218 C219 1.362 . S
C219 H211 0.930 . S
C219 C218 1.362 . S
C219 C222 1.409 . S
C220 H212 0.930 . S
C220 C221 1.355 . S
C220 C222 1.415 . S
C221 C220 1.355 . S
C221 C223 1.419 1_455 S
C222 C217 1.425 1_455 S
C222 C219 1.409 . S
C222 C220 1.415 . S
C223 H213 0.930 . S
C223 C221 1.419 1_655 S
C223 C224 1.362 . S
C224 H214 0.930 . S
C224 C217 1.409 . S
C224 C223 1.362 . S
H225 C231 0.930 . S
H226 C234 0.930 . S
H227 C235 0.930 1_565 S
H228 C236 0.930 . S
H229 C239 0.930 . S
H230 C240 0.930 . S
C231 H225 0.930 . S
C231 C232 1.355 . S
C231 C233 1.415 . S
C232 C231 1.355 . S
C232 C234 1.419 1_545 S
C233 C231 1.415 . S
C233 C238 1.425 . S
C233 C240 1.409 . S
C234 H226 0.930 . S
C234 C232 1.419 1_565 S
C234 C235 1.362 1_565 S
C235 H227 0.930 1_545 S
C235 C234 1.362 1_545 S
C235 C238 1.409 . S
C236 H228 0.930 . S
C236 C237 1.355 . S
C236 C238 1.415 . S
C237 C236 1.355 . S
C237 C239 1.419 . S
C238 C233 1.425 . S
C238 C235 1.409 . S
C238 C236 1.415 . S
C239 H229 0.930 . S
C239 C237 1.419 . S
C239 C240 1.362 . S
C240 H230 0.930 . S
C240 C233 1.409 . S
C240 C239 1.362 . S
H241 C247 0.930 . S
H242 C250 0.930 . S
H243 C251 0.930 . S
H244 C252 0.930 . S
H245 C255 0.930 . S
H246 C256 0.930 . S
C247 H241 0.930 . S
C247 C248 1.355 . S
C247 C249 1.415 . S
C248 C247 1.355 . S
C248 C250 1.419 . S
C249 C247 1.415 . S
C249 C254 1.425 1_554 S
C249 C256 1.409 . S
C250 H242 0.930 . S
C250 C248 1.419 . S
C250 C251 1.362 1_554 S
C251 H243 0.930 . S
C251 C250 1.362 1_556 S
C251 C254 1.409 . S
C252 H244 0.930 . S
C252 C253 1.355 . S
C252 C254 1.415 . S
C253 C252 1.355 . S
C253 C255 1.419 . S
C254 C249 1.425 1_556 S
C254 C251 1.409 . S
C254 C252 1.415 . S
C255 H245 0.930 . S
C255 C253 1.419 . S
C255 C256 1.362 1_556 S
C256 H246 0.930 . S
C256 C249 1.409 . S
C256 C255 1.362 1_554 S
H257 C263 0.930 . S
H258 C266 0.930 . S
H259 C267 0.930 . S
H260 C268 0.930 . S
H261 C271 0.930 1_655 S
H262 C272 0.930 1_655 S
C263 H257 0.930 . S
C263 C264 1.355 . S
C263 C265 1.415 . S
C264 C263 1.355 . S
C264 C266 1.419 . S
C265 C263 1.415 . S
C265 C270 1.425 . S
C265 C272 1.409 . S
C266 H258 0.930 . S
C266 C264 1.419 . S
C266 C267 1.362 . S
C267 H259 0.930 . S
C267 C266 1.362 . S
C267 C270 1.409 . S
C268 H260 0.930 . S
C268 C269 1.355 . S
C268 C270 1.415 . S
C269 C268 1.355 . S
C269 C271 1.419 . S
C270 C265 1.425 . S
C270 C267 1.409 . S
C270 C268 1.415 . S
C271 H261 0.930 1_455 S
C271 C269 1.419 . S
C271 C272 1.362 . S
C272 H262 0.930 1_455 S
C272 C265 1.409 . S
C272 C271 1.362 . S
C93 C47 1.390 . S
C88 C11 1.385 . S
C104 C26 1.537 . S
C109 C65 1.534 . S
C120 C40 1.413 . S
C125 C78 1.407 . S
C136 C5 1.143 . S
C141 C45 1.369 . S
C157 C56 1.546 . S
C152 C18 1.508 . S
C168 C32 1.409 . S
C173 C69 1.443 . S
C189 C58 1.263 . S
C184 C39 1.266 . S
C200 C4 1.339 1_565 S
C205 C71 1.383 . S
C221 C52 1.412 . S
C216 C19 1.293 . S
C237 C60 1.322 . S
C232 C33 1.148 1_545 S
C253 C73 1.352 . S
C248 C12 1.359 . S
C264 C25 1.444 . S
C269 C43 1.456 . S
