# Generated by pormake.
# Topology ocu, (6,8)-cn, num edge types: 1
# Building blocks:
#     Node 0, Type 0, BuildingBlock: FUNLAD_clean_sbu_0, # of connection points: 6
#     Node 1, Type 0, BuildingBlock: FUNLAD_clean_sbu_0, # of connection points: 6
#     Node 2, Type 0, BuildingBlock: FUNLAD_clean_sbu_0, # of connection points: 6
#     Node 3, Type 0, BuildingBlock: FUNLAD_clean_sbu_0, # of connection points: 6
#     Node 4, Type 0, BuildingBlock: FUNLAD_clean_sbu_0, # of connection points: 6
#     Node 5, Type 0, BuildingBlock: FUNLAD_clean_sbu_0, # of connection points: 6
#     Node 6, Type 0, BuildingBlock: FUNLAD_clean_sbu_0, # of connection points: 6
#     Node 7, Type 0, BuildingBlock: FUNLAD_clean_sbu_0, # of connection points: 6
#     Node 8, Type 1, BuildingBlock: GIZVER_clean_sbu_0, # of connection points: 8
#     Node 9, Type 1, BuildingBlock: GIZVER_clean_sbu_0, # of connection points: 8
#     Node 10, Type 1, BuildingBlock: GIZVER_clean_sbu_0, # of connection points: 8
#     Node 11, Type 1, BuildingBlock: GIZVER_clean_sbu_0, # of connection points: 8
#     Node 12, Type 1, BuildingBlock: GIZVER_clean_sbu_0, # of connection points: 8
#     Node 13, Type 1, BuildingBlock: GIZVER_clean_sbu_0, # of connection points: 8
#     Edge 14, Type (0, 1), BuildingBlock: KIFKEQ_clean_linker_1, # of connection points: 2
#     Edge 15, Type (0, 1), BuildingBlock: KIFKEQ_clean_linker_1, # of connection points: 2
#     Edge 16, Type (0, 1), BuildingBlock: KIFKEQ_clean_linker_1, # of connection points: 2
#     Edge 17, Type (0, 1), BuildingBlock: KIFKEQ_clean_linker_1, # of connection points: 2
#     Edge 18, Type (0, 1), BuildingBlock: KIFKEQ_clean_linker_1, # of connection points: 2
#     Edge 19, Type (0, 1), BuildingBlock: KIFKEQ_clean_linker_1, # of connection points: 2
#     Edge 20, Type (0, 1), BuildingBlock: KIFKEQ_clean_linker_1, # of connection points: 2
#     Edge 21, Type (0, 1), BuildingBlock: KIFKEQ_clean_linker_1, # of connection points: 2
#     Edge 22, Type (0, 1), BuildingBlock: KIFKEQ_clean_linker_1, # of connection points: 2
#     Edge 23, Type (0, 1), BuildingBlock: KIFKEQ_clean_linker_1, # of connection points: 2
#     Edge 24, Type (0, 1), BuildingBlock: KIFKEQ_clean_linker_1, # of connection points: 2
#     Edge 25, Type (0, 1), BuildingBlock: KIFKEQ_clean_linker_1, # of connection points: 2
#     Edge 26, Type (0, 1), BuildingBlock: KIFKEQ_clean_linker_1, # of connection points: 2
#     Edge 27, Type (0, 1), BuildingBlock: KIFKEQ_clean_linker_1, # of connection points: 2
#     Edge 28, Type (0, 1), BuildingBlock: KIFKEQ_clean_linker_1, # of connection points: 2
#     Edge 29, Type (0, 1), BuildingBlock: KIFKEQ_clean_linker_1, # of connection points: 2
#     Edge 30, Type (0, 1), BuildingBlock: KIFKEQ_clean_linker_1, # of connection points: 2
#     Edge 31, Type (0, 1), BuildingBlock: KIFKEQ_clean_linker_1, # of connection points: 2
#     Edge 32, Type (0, 1), BuildingBlock: KIFKEQ_clean_linker_1, # of connection points: 2
#     Edge 33, Type (0, 1), BuildingBlock: KIFKEQ_clean_linker_1, # of connection points: 2
#     Edge 34, Type (0, 1), BuildingBlock: KIFKEQ_clean_linker_1, # of connection points: 2
#     Edge 35, Type (0, 1), BuildingBlock: KIFKEQ_clean_linker_1, # of connection points: 2
#     Edge 36, Type (0, 1), BuildingBlock: KIFKEQ_clean_linker_1, # of connection points: 2
#     Edge 37, Type (0, 1), BuildingBlock: KIFKEQ_clean_linker_1, # of connection points: 2
#     Edge 38, Type (0, 1), BuildingBlock: KIFKEQ_clean_linker_1, # of connection points: 2
#     Edge 39, Type (0, 1), BuildingBlock: KIFKEQ_clean_linker_1, # of connection points: 2
#     Edge 40, Type (0, 1), BuildingBlock: KIFKEQ_clean_linker_1, # of connection points: 2
#     Edge 41, Type (0, 1), BuildingBlock: KIFKEQ_clean_linker_1, # of connection points: 2
#     Edge 42, Type (0, 1), BuildingBlock: KIFKEQ_clean_linker_1, # of connection points: 2
#     Edge 43, Type (0, 1), BuildingBlock: KIFKEQ_clean_linker_1, # of connection points: 2
#     Edge 44, Type (0, 1), BuildingBlock: KIFKEQ_clean_linker_1, # of connection points: 2
#     Edge 45, Type (0, 1), BuildingBlock: KIFKEQ_clean_linker_1, # of connection points: 2
#     Edge 46, Type (0, 1), BuildingBlock: KIFKEQ_clean_linker_1, # of connection points: 2
#     Edge 47, Type (0, 1), BuildingBlock: KIFKEQ_clean_linker_1, # of connection points: 2
#     Edge 48, Type (0, 1), BuildingBlock: KIFKEQ_clean_linker_1, # of connection points: 2
#     Edge 49, Type (0, 1), BuildingBlock: KIFKEQ_clean_linker_1, # of connection points: 2
#     Edge 50, Type (0, 1), BuildingBlock: KIFKEQ_clean_linker_1, # of connection points: 2
#     Edge 51, Type (0, 1), BuildingBlock: KIFKEQ_clean_linker_1, # of connection points: 2
#     Edge 52, Type (0, 1), BuildingBlock: KIFKEQ_clean_linker_1, # of connection points: 2
#     Edge 53, Type (0, 1), BuildingBlock: KIFKEQ_clean_linker_1, # of connection points: 2
#     Edge 54, Type (0, 1), BuildingBlock: KIFKEQ_clean_linker_1, # of connection points: 2
#     Edge 55, Type (0, 1), BuildingBlock: KIFKEQ_clean_linker_1, # of connection points: 2
#     Edge 56, Type (0, 1), BuildingBlock: KIFKEQ_clean_linker_1, # of connection points: 2
#     Edge 57, Type (0, 1), BuildingBlock: KIFKEQ_clean_linker_1, # of connection points: 2
#     Edge 58, Type (0, 1), BuildingBlock: KIFKEQ_clean_linker_1, # of connection points: 2
#     Edge 59, Type (0, 1), BuildingBlock: KIFKEQ_clean_linker_1, # of connection points: 2
#     Edge 60, Type (0, 1), BuildingBlock: KIFKEQ_clean_linker_1, # of connection points: 2
#     Edge 61, Type (0, 1), BuildingBlock: KIFKEQ_clean_linker_1, # of connection points: 2
# Relax obj value: 0.239
# Max RMSD: 0.291
# Mean RMSD: 0.224
data_MOF--net-ocu--node1-FUNLAD_clean_sbu_0--node2-GIZVER_clean_sbu_0--edge1-KIFKEQ_clean_linker_1
_symmetry_space_group_name_H-M    P1
_symmetry_Int_Tables_number       1
_symmetry_cell_setting            triclinic
loop_
_symmetry_equiv_pos_as_xyz
'x, y, z'
_cell_length_a     42.375625
_cell_length_b     43.929077
_cell_length_c     32.311993
_cell_angle_alpha  83.06357
_cell_angle_beta   85.071108
_cell_angle_gamma 94.203774
loop_
_atom_site_label
_atom_site_type_symbol
_atom_site_fract_x
_atom_site_fract_y
_atom_site_fract_z
_atom_type_partial_charge
C0 C 0.23174 0.30023 0.31169 0.0
N1 N 0.20992 0.22026 0.25715 0.0
C2 C 0.19016 0.21066 0.29239 0.0
C3 C 0.16347 0.19059 0.29072 0.0
C4 C 0.1575 0.18007 0.2526 0.0
C5 C 0.17839 0.18986 0.21687 0.0
C6 C 0.20447 0.21046 0.21974 0.0
Zn7 Zn 0.24734 0.25117 0.25896 0.0
C8 C 0.24488 0.30455 0.19133 0.0
N9 N 0.32496 0.31736 0.25683 0.0
C10 C 0.33122 0.32658 0.29431 0.0
C11 C 0.34443 0.3269 0.22133 0.0
C12 C 0.37181 0.34608 0.22283 0.0
C13 C 0.37881 0.35579 0.26107 0.0
C14 C 0.35807 0.3463 0.29705 0.0
Zn15 Zn 0.2873 0.28669 0.25515 0.0
O16 O 0.21979 0.2755 0.30042 0.0
C17 C 0.29019 0.23367 0.32274 0.0
O18 O 0.2601 0.30999 0.29796 0.0
H19 H 0.3389 0.31937 0.19194 0.0
H20 H 0.19505 0.21869 0.32173 0.0
H21 H 0.31562 0.31833 0.32228 0.0
O22 O 0.26383 0.22398 0.31088 0.0
O23 O 0.30416 0.25891 0.3047 0.0
H24 H 0.22025 0.21877 0.19196 0.0
O25 O 0.31425 0.26286 0.21167 0.0
O26 O 0.2748 0.22708 0.2182 0.0
O27 O 0.27016 0.3147 0.20539 0.0
O28 O 0.2314 0.27849 0.20726 0.0
C29 C 0.30253 0.23732 0.20246 0.0
H30 H 0.1479 0.18294 0.31903 0.0
H31 H 0.17436 0.18194 0.18713 0.0
H32 H 0.3872 0.35358 0.19432 0.0
H33 H 0.36284 0.35365 0.32688 0.0
C34 C 0.71747 0.3052 0.21662 0.0
N35 N 0.75089 0.2243 0.18184 0.0
C36 C 0.71929 0.22289 0.17616 0.0
C37 C 0.70627 0.20306 0.15071 0.0
C38 C 0.72542 0.18349 0.13121 0.0
C39 C 0.75801 0.18489 0.13698 0.0
C40 C 0.77044 0.20582 0.16261 0.0
Zn41 Zn 0.76145 0.25264 0.22714 0.0
C42 C 0.80885 0.30468 0.20519 0.0
N43 N 0.76504 0.31035 0.32413 0.0
C44 C 0.76795 0.34107 0.31044 0.0
C45 C 0.77527 0.29939 0.36147 0.0
C46 C 0.79193 0.31925 0.3844 0.0
C47 C 0.79794 0.35061 0.36871 0.0
C48 C 0.78417 0.36165 0.33244 0.0
Zn49 Zn 0.75706 0.28155 0.27962 0.0
O50 O 0.73046 0.28382 0.20036 0.0
C51 C 0.70966 0.22979 0.30166 0.0
O52 O 0.72347 0.3102 0.25317 0.0
H53 H 0.77296 0.27492 0.37182 0.0
H54 H 0.70332 0.23616 0.19291 0.0
H55 H 0.76025 0.34946 0.28044 0.0
O56 O 0.72306 0.22614 0.26607 0.0
O57 O 0.71886 0.25325 0.31857 0.0
H58 H 0.79528 0.20651 0.16817 0.0
O59 O 0.79089 0.25221 0.30493 0.0
O60 O 0.79302 0.2225 0.25488 0.0
O61 O 0.79452 0.30921 0.23989 0.0
O62 O 0.80095 0.28015 0.18956 0.0
C63 C 0.80165 0.22918 0.28976 0.0
H64 H 0.68095 0.20215 0.1476 0.0
H65 H 0.77338 0.16966 0.12269 0.0
H66 H 0.80206 0.3097 0.41226 0.0
H67 H 0.78755 0.38575 0.3197 0.0
C68 C 0.78419 0.7329 0.32033 0.0
N69 N 0.82102 0.81802 0.26055 0.0
C70 C 0.82305 0.82166 0.30153 0.0
C71 C 0.84889 0.83839 0.31363 0.0
C72 C 0.87303 0.85175 0.28345 0.0
C73 C 0.87048 0.84858 0.24113 0.0
C74 C 0.84398 0.83121 0.23024 0.0
Zn75 Zn 0.78354 0.78817 0.25171 0.0
C76 C 0.80033 0.73983 0.20103 0.0
N77 N 0.70589 0.72203 0.24985 0.0
C78 C 0.68333 0.70809 0.2802 0.0
C79 C 0.70462 0.71753 0.20904 0.0
C80 C 0.68052 0.69834 0.19732 0.0
C81 C 0.65713 0.68365 0.22763 0.0
C82 C 0.65834 0.68855 0.26961 0.0
Zn83 Zn 0.74289 0.75242 0.25855 0.0
O84 O 0.79783 0.75797 0.30129 0.0
C85 C 0.72581 0.80036 0.30942 0.0
O86 O 0.75739 0.72307 0.30982 0.0
H87 H 0.72226 0.72907 0.18507 0.0
H88 H 0.805 0.81078 0.32543 0.0
H89 H 0.68463 0.71221 0.31237 0.0
O90 O 0.75386 0.81007 0.29405 0.0
O91 O 0.71364 0.775 0.30015 0.0
H92 H 0.84208 0.82775 0.19793 0.0
O93 O 0.72916 0.78228 0.20735 0.0
O94 O 0.76877 0.81806 0.2018 0.0
O95 O 0.77268 0.73006 0.2177 0.0
O96 O 0.81241 0.76571 0.20875 0.0
C97 C 0.74276 0.80781 0.18957 0.0
H98 H 0.85019 0.84064 0.3465 0.0
H99 H 0.88888 0.85888 0.21716 0.0
H100 H 0.68009 0.69504 0.16465 0.0
H101 H 0.64045 0.67735 0.29366 0.0
C102 C 0.22607 0.81232 0.27847 0.0
N103 N 0.30379 0.78287 0.33745 0.0
C104 C 0.30635 0.81419 0.33492 0.0
C105 C 0.32202 0.8292 0.36351 0.0
C106 C 0.33622 0.8123 0.39516 0.0
C107 C 0.33433 0.78001 0.39708 0.0
C108 C 0.31755 0.76557 0.36781 0.0
Zn109 Zn 0.27929 0.76821 0.28913 0.0
C110 C 0.22309 0.72448 0.31214 0.0
N111 N 0.22709 0.7557 0.18441 0.0
C112 C 0.19477 0.75441 0.18996 0.0
C113 C 0.24217 0.74303 0.15251 0.0
C114 C 0.22463 0.72596 0.12718 0.0
C115 C 0.1914 0.72279 0.13413 0.0
C116 C 0.17637 0.73822 0.16473 0.0
Zn117 Zn 0.25183 0.76772 0.2328 0.0
O118 O 0.24692 0.80137 0.30049 0.0
C119 C 0.30757 0.81147 0.20959 0.0
O120 O 0.22167 0.80233 0.24405 0.0
H121 H 0.26784 0.74421 0.14854 0.0
H122 H 0.2966 0.8281 0.31009 0.0
H123 H 0.18314 0.76391 0.216 0.0
O124 O 0.31017 0.80129 0.24754 0.0
O125 O 0.28386 0.80129 0.19204 0.0
H126 H 0.31585 0.74078 0.36913 0.0
O127 O 0.28259 0.73279 0.22274 0.0
O128 O 0.31078 0.73471 0.27658 0.0
O129 O 0.22015 0.73509 0.27435 0.0
O130 O 0.24748 0.7338 0.32931 0.0
C131 C 0.30482 0.72315 0.24353 0.0
H132 H 0.3236 0.85414 0.36026 0.0
H133 H 0.34542 0.76624 0.42094 0.0
H134 H 0.23686 0.71417 0.1038 0.0
H135 H 0.15072 0.73588 0.17108 0.0
C136 C 0.22262 0.80169 0.71558 0.0
N137 N 0.26231 0.7208 0.68808 0.0
C138 C 0.25416 0.7308 0.64918 0.0
C139 C 0.23859 0.71032 0.62606 0.0
C140 C 0.23158 0.67933 0.64314 0.0
C141 C 0.2436 0.66914 0.68109 0.0
C142 C 0.25876 0.69033 0.70323 0.0
Zn143 Zn 0.26666 0.75084 0.73191 0.0
C144 C 0.31529 0.8014 0.71403 0.0
N145 N 0.26516 0.80934 0.82884 0.0
C146 C 0.26995 0.83982 0.81388 0.0
C147 C 0.27381 0.79879 0.86729 0.0
C148 C 0.29153 0.81832 0.88956 0.0
C149 C 0.30004 0.84913 0.87241 0.0
C150 C 0.28711 0.86018 0.83539 0.0
Zn151 Zn 0.26004 0.77934 0.78451 0.0
O152 O 0.23513 0.77938 0.70082 0.0
C153 C 0.21198 0.72757 0.80255 0.0
O154 O 0.2283 0.80752 0.75201 0.0
H155 H 0.26989 0.77455 0.87889 0.0
H156 H 0.25703 0.75508 0.6376 0.0
H157 H 0.26342 0.8479 0.7831 0.0
O158 O 0.22705 0.7238 0.76801 0.0
O159 O 0.22003 0.75123 0.81991 0.0
H160 H 0.26483 0.68272 0.73439 0.0
O161 O 0.29084 0.75089 0.81549 0.0
O162 O 0.29888 0.72311 0.76424 0.0
O163 O 0.30053 0.80576 0.74858 0.0
O164 O 0.30609 0.77835 0.69637 0.0
C165 C 0.30392 0.72891 0.80086 0.0
H166 H 0.22987 0.71923 0.59684 0.0
H167 H 0.23945 0.64532 0.69497 0.0
H168 H 0.30073 0.80856 0.91801 0.0
H169 H 0.29206 0.88393 0.82148 0.0
C170 C 0.2846 0.22291 0.82328 0.0
N171 N 0.32087 0.30901 0.7632 0.0
C172 C 0.32272 0.31335 0.80396 0.0
C173 C 0.34717 0.33237 0.81524 0.0
C174 C 0.37021 0.3471 0.78449 0.0
C175 C 0.36826 0.34252 0.74253 0.0
C176 C 0.34302 0.32309 0.73242 0.0
Zn177 Zn 0.28387 0.27857 0.75481 0.0
C178 C 0.30095 0.23092 0.70349 0.0
N179 N 0.2058 0.21286 0.75258 0.0
C180 C 0.18239 0.20011 0.78255 0.0
C181 C 0.20393 0.20939 0.71152 0.0
C182 C 0.17775 0.19348 0.69895 0.0
C183 C 0.15305 0.18077 0.72872 0.0
C184 C 0.15551 0.18356 0.77117 0.0
Zn185 Zn 0.24339 0.24263 0.76165 0.0
O186 O 0.29793 0.2486 0.80566 0.0
C187 C 0.22659 0.29066 0.81288 0.0
O188 O 0.25856 0.21254 0.8112 0.0
H189 H 0.22225 0.22003 0.68783 0.0
H190 H 0.3053 0.30179 0.8282 0.0
H191 H 0.18411 0.20349 0.81492 0.0
O192 O 0.25416 0.30068 0.79613 0.0
O193 O 0.21465 0.26476 0.80502 0.0
H194 H 0.34122 0.31911 0.70028 0.0
O195 O 0.22877 0.27303 0.71238 0.0
O196 O 0.26914 0.308 0.70387 0.0
O197 O 0.27298 0.22106 0.71898 0.0
O198 O 0.31304 0.25628 0.71284 0.0
C199 C 0.24232 0.29817 0.69343 0.0
H200 H 0.34814 0.33553 0.84789 0.0
H201 H 0.38584 0.35381 0.71814 0.0
H202 H 0.17654 0.19153 0.66598 0.0
H203 H 0.13667 0.17378 0.79485 0.0
C204 C 0.72042 0.31076 0.76456 0.0
N205 N 0.80016 0.2831 0.82203 0.0
C206 C 0.80357 0.31435 0.81975 0.0
C207 C 0.82347 0.32868 0.84469 0.0
C208 C 0.84041 0.3109 0.87229 0.0
C209 C 0.83583 0.27867 0.87579 0.0
C210 C 0.81536 0.26505 0.84993 0.0
Zn211 Zn 0.77543 0.26808 0.77533 0.0
C212 C 0.7214 0.22345 0.80018 0.0
N213 N 0.72328 0.25077 0.67239 0.0
C214 C 0.70816 0.26765 0.64306 0.0
C215 C 0.72071 0.21942 0.67585 0.0
C216 C 0.7023 0.20387 0.65041 0.0
C217 C 0.68578 0.22036 0.62095 0.0
C218 C 0.68906 0.25271 0.61665 0.0
Zn219 Zn 0.74803 0.26685 0.71922 0.0
O220 O 0.74237 0.3011 0.7858 0.0
C221 C 0.80287 0.31099 0.69419 0.0
O222 O 0.71552 0.29983 0.73077 0.0
H223 H 0.73189 0.20597 0.69974 0.0
H224 H 0.79217 0.32857 0.79686 0.0
H225 H 0.71003 0.29249 0.64104 0.0
O226 O 0.80571 0.30097 0.73216 0.0
O227 O 0.77869 0.30111 0.67715 0.0
H228 H 0.81273 0.24029 0.85086 0.0
O229 O 0.78122 0.23411 0.70889 0.0
O230 O 0.80754 0.2352 0.76434 0.0
O231 O 0.71824 0.23375 0.76241 0.0
O232 O 0.74523 0.23382 0.81735 0.0
C233 C 0.80285 0.22432 0.73055 0.0
H234 H 0.82667 0.3536 0.84112 0.0
H235 H 0.84894 0.26437 0.8967 0.0
H236 H 0.70008 0.17891 0.65477 0.0
H237 H 0.67625 0.26609 0.59432 0.0
C238 C 0.72993 0.79357 0.80938 0.0
N239 N 0.70729 0.71269 0.7576 0.0
C240 C 0.68818 0.70349 0.79353 0.0
C241 C 0.66044 0.68464 0.79275 0.0
C242 C 0.65269 0.67495 0.75478 0.0
C243 C 0.67321 0.68388 0.71844 0.0
C244 C 0.70045 0.70323 0.72048 0.0
Zn245 Zn 0.74473 0.74394 0.75762 0.0
C246 C 0.73984 0.79628 0.68916 0.0
N247 N 0.82156 0.81152 0.75111 0.0
C248 C 0.82763 0.82149 0.78821 0.0
C249 C 0.84047 0.82144 0.71521 0.0
C250 C 0.8669 0.84208 0.71588 0.0
C251 C 0.87345 0.85282 0.75367 0.0
C252 C 0.85344 0.84264 0.7901 0.0
Zn253 Zn 0.78441 0.78 0.75098 0.0
O254 O 0.71812 0.7679 0.80079 0.0
C255 C 0.78905 0.72755 0.81966 0.0
O256 O 0.75743 0.80388 0.79282 0.0
H257 H 0.83512 0.81324 0.68615 0.0
H258 H 0.69416 0.71124 0.82262 0.0
H259 H 0.81254 0.81291 0.81651 0.0
O260 O 0.76296 0.71706 0.80793 0.0
O261 O 0.80217 0.7532 0.80159 0.0
H262 H 0.71575 0.71123 0.69216 0.0
O263 O 0.81127 0.756 0.70855 0.0
O264 O 0.77169 0.72034 0.71484 0.0
O265 O 0.7663 0.8066 0.70005 0.0
O266 O 0.72663 0.77088 0.7078 0.0
C267 C 0.79945 0.73063 0.69903 0.0
H268 H 0.64523 0.67759 0.82152 0.0
H269 H 0.66784 0.67659 0.68879 0.0
H270 H 0.8818 0.84999 0.68708 0.0
H271 H 0.85795 0.85067 0.81962 0.0
Co272 Co 0.0555 0.95854 0.47709 0.0
Co273 Co 0.07389 0.9874 0.53607 0.0
Co274 Co 0.01439 0.01844 0.50397 0.0
O275 O 0.05496 1.00024 0.48864 0.0
H276 H 0.06953 1.01438 0.46955 0.0
O277 O 0.97367 0.03633 0.51949 0.0
Co278 Co 0.97244 0.07786 0.53112 0.0
Co279 Co 0.95528 0.04913 0.47206 0.0
H280 H 0.95907 0.02199 0.53827 0.0
O281 O 0.11573 0.97805 0.53649 0.0
O282 O 0.07256 0.9455 0.53231 0.0
O283 O 0.05095 0.99336 0.58806 0.0
O284 O 1.00524 0.99123 0.55904 0.0
O285 O 0.03834 0.04845 0.53274 0.0
O286 O 0.9683 0.11484 0.54629 0.0
O287 O 0.93383 0.0724 0.55871 0.0
O288 O 0.01422 0.08755 0.50603 0.0
O289 O 0.02376 0.04565 0.44891 0.0
O290 O 0.97819 0.04392 0.41977 0.0
O291 O 0.95369 0.0906 0.47654 0.0
O292 O 0.91319 0.05475 0.47196 0.0
C293 C 0.08633 0.93545 0.44436 0.0
C294 C 0.99285 0.96006 0.47871 0.0
C295 C 0.02083 0.99002 0.59134 0.0
C296 C 0.10201 0.95026 0.54069 0.0
C297 C 0.94184 0.10063 0.56473 0.0
C298 C 0.035 0.07709 0.52881 0.0
C299 C 1.00829 0.04704 0.41655 0.0
C300 C 0.92468 0.08338 0.4675 0.0
O301 O 0.05949 0.92148 0.46196 0.0
O302 O 0.09447 0.96357 0.4507 0.0
O303 O 0.99023 0.98877 0.47492 0.0
O304 O 1.01343 0.94907 0.50128 0.0
Co305 Co 0.55365 0.95218 0.98668 0.0
Co306 Co 0.55163 0.96867 0.06043 0.0
Co307 Co 0.51547 0.01575 1.00319 0.0
O308 O 0.55251 0.99085 0.00822 0.0
H309 H 0.57247 1.00335 1.00183 0.0
O310 O 0.47842 0.04077 0.99841 0.0
Co311 Co 0.47735 0.0792 0.02102 0.0
Co312 Co 0.47929 0.06373 0.94685 0.0
H313 H 0.45844 0.02827 1.00455 0.0
O314 O 0.58959 0.96286 0.08047 0.0
O315 O 0.56125 0.93152 0.04351 0.0
O316 O 0.51221 0.96202 0.09544 0.0
O317 O 0.48583 0.98858 0.04861 0.0
O318 O 0.53288 0.0418 0.04389 0.0
O319 O 0.47343 0.11355 0.04323 0.0
O320 O 0.43474 0.07694 0.03679 0.0
O321 O 0.52257 0.08643 0.01028 0.0
O322 O 0.54514 0.04296 0.95767 0.0
O323 O 0.51875 0.07078 0.9121 0.0
O324 O 0.46928 0.10051 0.96471 0.0
O325 O 0.44134 0.06951 0.92686 0.0
C326 C 0.58743 0.92797 0.95917 0.0
C327 C 0.49104 0.96069 0.97339 0.0
C328 C 0.48632 0.96995 0.08227 0.0
C329 C 0.58629 0.93771 0.06322 0.0
C330 C 0.44375 0.10306 0.04968 0.0
C331 C 0.54044 0.07049 0.03265 0.0
C332 C 0.54462 0.06224 0.92461 0.0
C333 C 0.44429 0.09434 0.94487 0.0
O334 O 0.55773 0.91748 0.96539 0.0
O335 O 0.59628 0.95431 0.97152 0.0
O336 O 0.49811 0.98953 0.96251 0.0
O337 O 0.50844 0.94515 0.99698 0.0
Co338 Co 0.05724 0.45402 0.99318 0.0
Co339 Co 0.05671 0.47128 0.06596 0.0
Co340 Co 0.01408 0.51416 0.01001 0.0
O341 O 0.05435 0.49305 0.01393 0.0
H342 H 0.07319 0.50697 0.0058 0.0
O343 O 0.97371 0.53513 0.00589 0.0
Co344 Co 0.96975 0.57421 0.02599 0.0
Co345 Co 0.97207 0.55667 0.95357 0.0
H346 H 0.95493 0.52106 0.01352 0.0
O347 O 0.0963 0.46738 0.08388 0.0
O348 O 0.06858 0.43492 0.04832 0.0
O349 O 0.01766 0.4594 0.10044 0.0
O350 O 0.98757 0.48551 0.05786 0.0
O351 O 0.03005 0.54338 0.04817 0.0
O352 O 0.96432 0.60892 0.04617 0.0
O353 O 0.92728 0.56973 0.04462 0.0
O354 O 1.01335 0.58415 0.01176 0.0
O355 O 0.04062 0.54285 0.96247 0.0
O356 O 1.01088 0.56748 0.91806 0.0
O357 O 0.95884 0.59295 0.96991 0.0
O358 O 0.93354 0.5591 0.93371 0.0
C359 C 0.09088 0.43126 0.96253 0.0
C360 C 0.99488 0.45611 0.98457 0.0
C361 C 0.99053 0.46552 0.08955 0.0
C362 C 0.09382 0.44216 0.06672 0.0
C363 C 0.9354 0.59682 0.05547 0.0
C364 C 0.03214 0.57245 0.03674 0.0
C365 C 0.03788 0.56177 0.92965 0.0
C366 C 0.93465 0.58487 0.94976 0.0
O367 O 0.06192 0.41934 0.97237 0.0
O368 O 0.0994 0.45827 0.97333 0.0
O369 O 0.99821 0.48496 0.97164 0.0
O370 O 1.01384 0.4443 0.00909 0.0
Co371 Co 0.55274 0.45802 0.96918 0.0
Co372 Co 0.57333 0.48507 0.02794 0.0
Co373 Co 0.51271 0.51649 1.00505 0.0
O374 O 0.55235 0.49915 0.98334 0.0
H375 H 0.56611 0.514 0.96419 0.0
O376 O 0.47316 0.53406 0.02657 0.0
Co377 Co 0.47323 0.57525 0.04089 0.0
Co378 Co 0.45184 0.54833 0.98192 0.0
H379 H 0.45942 0.51931 0.04589 0.0
O380 O 0.61532 0.47893 0.02347 0.0
O381 O 0.57334 0.44401 0.02154 0.0
O382 O 0.55369 0.48885 0.08285 0.0
O383 O 0.50632 0.48731 0.05854 0.0
O384 O 0.53917 0.54475 0.03362 0.0
O385 O 0.46995 0.61182 0.05837 0.0
O386 O 0.43493 0.56983 0.07007 0.0
O387 O 0.51446 0.58524 0.01397 0.0
O388 O 0.51895 0.54567 0.9516 0.0
O389 O 0.47156 0.5442 0.9271 0.0
O390 O 0.45398 0.58965 0.98794 0.0
O391 O 0.41005 0.55728 0.98633 0.0
C392 C 0.58231 0.4356 0.93261 0.0
C393 C 0.48976 0.45941 0.97747 0.0
C394 C 0.52366 0.4855 0.08907 0.0
C395 C 0.60282 0.45059 0.02907 0.0
C396 C 0.44337 0.59783 0.0768 0.0
C397 C 0.53634 0.5733 0.03318 0.0
C398 C 0.50162 0.54742 0.92104 0.0
C399 C 0.42413 0.58497 0.98128 0.0
O400 O 0.55608 0.42143 0.95182 0.0
O401 O 0.59067 0.4637 0.93902 0.0
O402 O 0.48643 0.48795 0.97664 0.0
O403 O 0.51179 0.44793 0.99698 0.0
Co404 Co 0.07813 0.47339 0.51312 0.0
Co405 Co 0.05793 0.48057 0.44143 0.0
Co406 Co 0.01494 0.51592 0.50364 0.0
O407 O 0.03693 0.47809 0.49407 0.0
H408 H 0.02283 0.45947 0.5002 0.0
O409 O 0.99296 0.55372 0.5132 0.0
Co410 Co 0.95153 0.55829 0.4948 0.0
Co411 Co 0.9726 0.55132 0.56622 0.0
H412 H 1.00699 0.57236 0.50678 0.0
O413 O 0.06026 0.44554 0.41714 0.0
O414 O 0.0961 0.46651 0.4559 0.0
O415 O 0.06849 0.52045 0.41118 0.0
O416 O 0.04208 0.54542 0.4573 0.0
O417 O 0.9828 0.50373 0.46519 0.0
O418 O 0.91467 0.5645 0.47621 0.0
O419 O 0.95525 0.59997 0.47957 0.0
O420 O 0.94199 0.51546 0.50588 0.0
O421 O 0.9877 0.48646 0.54994 0.0
O422 O 0.96236 0.51156 0.59682 0.0
O423 O 0.9341 0.56493 0.55233 0.0
O424 O 0.97021 0.58647 0.59021 0.0
C425 C 0.10253 0.43883 0.53971 0.0
C426 C 0.07655 0.53233 0.52866 0.0
C427 C 0.06178 0.54531 0.42472 0.0
C428 C 0.08733 0.44514 0.43324 0.0
C429 C 0.92673 0.5928 0.469 0.0
C430 C 0.95339 0.49927 0.479 0.0
C431 C 0.96836 0.48668 0.58283 0.0
C432 C 0.94294 0.58652 0.5746 0.0
O433 O 0.11476 0.46709 0.53236 0.0
O434 O 0.07414 0.43174 0.52869 0.0
O435 O 0.04706 0.52813 0.54216 0.0
O436 O 0.08788 0.51614 0.50175 0.0
Co437 Co 0.58022 0.97707 0.51166 0.0
Co438 Co 0.55805 0.98584 0.44128 0.0
Co439 Co 0.51295 1.01454 0.50853 0.0
O440 O 0.5381 0.98 0.49463 0.0
H441 H 0.52545 0.96046 0.49952 0.0
O442 O 0.48816 0.04939 0.52199 0.0
Co443 Co 0.44625 0.05225 0.5051 0.0
Co444 Co 0.46879 0.04468 0.57515 0.0
H445 H 0.50082 0.0689 0.51642 0.0
O446 O 0.56081 0.95245 0.41436 0.0
O447 O 0.5974 0.97321 0.45254 0.0
O448 O 0.56292 0.02652 0.4118 0.0
O449 O 0.53561 0.04704 0.46199 0.0
O450 O 0.48033 1.00082 0.47204 0.0
O451 O 0.4086 0.05778 0.48785 0.0
O452 O 0.44853 0.09378 0.49189 0.0
O453 O 0.43851 1.00845 0.51425 0.0
O454 O 0.4902 0.98226 0.55545 0.0
O455 O 0.46363 1.0044 0.60472 0.0
O456 O 0.4294 0.05718 0.56389 0.0
O457 O 0.46626 0.07856 0.60114 0.0
C458 C 0.6067 0.94272 0.53409 0.0
C459 C 0.5735 0.03678 0.52949 0.0
C460 C 0.55348 0.0498 0.42729 0.0
C461 C 0.5884 0.95226 0.42919 0.0
C462 C 0.41998 0.08639 0.48179 0.0
C463 C 0.45214 0.99232 0.48876 0.0
C464 C 0.47228 0.98052 0.59006 0.0
C465 C 0.4386 0.07854 0.58649 0.0
O466 O 0.61783 0.97139 0.52891 0.0
O467 O 0.57823 0.93539 0.52364 0.0
O468 O 0.54522 0.02794 0.54532 0.0
O469 O 0.58784 0.02105 0.50406 0.0
H470 H 0.09554 0.18803 0.27125 0.0
H471 H 0.15871 0.12184 0.23289 0.0
H472 H 0.05326 0.14716 0.29158 0.0
H473 H 0.11629 0.08047 0.25349 0.0
H474 H 0.98513 0.07452 0.34623 0.0
H475 H 0.01671 0.10085 0.28357 0.0
H476 H 0.10167 0.06726 0.33107 0.0
H477 H 0.07033 0.04113 0.39327 0.0
C478 C 0.0998 0.1648 0.26555 0.0
C479 C 0.13024 0.15771 0.25149 0.0
C480 C 0.07556 0.1414 0.27675 0.0
C481 C 0.08173 0.11057 0.27473 0.0
C482 C 0.11109 0.10405 0.25558 0.0
C483 C 0.13529 0.12761 0.24389 0.0
C484 C 1.01042 0.072 0.34258 0.0
C485 C 0.02557 0.05675 0.37511 0.0
C486 C 0.0284 0.0869 0.30664 0.0
C487 C 0.06161 0.0864 0.30274 0.0
C488 C 0.07609 0.06795 0.33303 0.0
C489 C 0.05822 0.0534 0.36905 0.0
H490 H 0.81882 0.17171 0.27729 0.0
H491 H 0.83138 0.24226 0.35815 0.0
H492 H 0.8492 0.13805 0.3216 0.0
H493 H 0.86173 0.20858 0.40232 0.0
H494 H 0.94096 0.14564 0.44614 0.0
H495 H 0.913 0.18219 0.40217 0.0
H496 H 0.83915 0.11057 0.39462 0.0
H497 H 0.86664 0.07432 0.43828 0.0
C498 C 0.82832 0.18017 0.30422 0.0
C499 C 0.82251 0.20963 0.31421 0.0
C500 C 0.84554 0.16081 0.32979 0.0
C501 C 0.85766 0.17056 0.36571 0.0
C502 C 0.85285 0.20043 0.37483 0.0
C503 C 0.83533 0.21966 0.34955 0.0
C504 C 0.91856 0.13782 0.43554 0.0
C505 C 0.90623 0.10694 0.44567 0.0
C506 C 0.90258 0.15875 0.41029 0.0
C507 C 0.87413 0.14912 0.3943 0.0
C508 C 0.86135 0.11856 0.40564 0.0
C509 C 0.87706 0.09783 0.43109 0.0
H510 H 0.92348 0.82828 0.3178 0.0
H511 H 0.88101 0.913 0.28533 0.0
H512 H 0.95894 0.85426 0.3609 0.0
H513 H 0.91523 0.93893 0.32933 0.0
H514 H 0.98675 0.98376 0.39862 0.0
H515 H 0.96586 0.95786 0.34352 0.0
H516 H 0.95188 0.87252 0.42747 0.0
H517 H 0.97443 0.89857 0.48246 0.0
C518 C 0.92265 0.85277 0.31882 0.0
C519 C 0.90013 0.86895 0.29785 0.0
C520 C 0.94246 0.86753 0.34403 0.0
C521 C 0.93971 0.8986 0.34912 0.0
C522 C 0.91842 0.91512 0.32581 0.0
C523 C 0.89885 0.9004 0.30038 0.0
C524 C 0.97925 0.95944 0.40541 0.0
C525 C 0.98146 0.94327 0.44522 0.0
C526 C 0.96727 0.94457 0.3737 0.0
C527 C 0.95666 0.9132 0.38109 0.0
C528 C 0.96008 0.89667 0.42048 0.0
C529 C 0.97267 0.91156 0.45217 0.0
H530 H 0.16649 0.82609 0.25972 0.0
H531 H 0.24205 0.85025 0.33457 0.0
H532 H 0.13215 0.85933 0.29556 0.0
H533 H 0.20801 0.88295 0.37019 0.0
H534 H 0.14576 0.95582 0.40771 0.0
H535 H 0.17949 0.9302 0.36015 0.0
H536 H 0.10745 0.85413 0.37026 0.0
H537 H 0.07351 0.8798 0.41741 0.0
C538 C 0.1759 0.83894 0.28317 0.0
C539 C 0.20672 0.83545 0.2947 0.0
C540 C 0.15626 0.85771 0.30382 0.0
C541 C 0.16744 0.8735 0.33576 0.0
C542 C 0.19886 0.87126 0.34549 0.0
C543 C 0.21826 0.85236 0.32527 0.0
C544 C 0.1371 0.93365 0.39976 0.0
C545 C 0.10713 0.91967 0.41659 0.0
C546 C 0.15637 0.91906 0.37248 0.0
C547 C 0.14595 0.89031 0.36142 0.0
C548 C 0.11582 0.87653 0.37777 0.0
C549 C 0.09661 0.89104 0.4052 0.0
H550 H 0.2236 0.80852 0.63058 0.0
H551 H 0.17785 0.83964 0.74067 0.0
H552 H 0.19354 0.8424 0.58614 0.0
H553 H 0.147 0.87294 0.69586 0.0
H554 H 0.07568 0.90066 0.59494 0.0
H555 H 0.10372 0.86324 0.63752 0.0
H556 H 0.1935 0.90541 0.57636 0.0
H557 H 0.16562 0.94344 0.53478 0.0
C558 C 0.20687 0.82234 0.64535 0.0
C559 C 0.20312 0.82141 0.68922 0.0
C560 C 0.18976 0.84176 0.61983 0.0
C561 C 0.16793 0.86016 0.63759 0.0
C562 C 0.16356 0.85879 0.68145 0.0
C563 C 0.18128 0.83987 0.70702 0.0
C564 C 0.10137 0.90159 0.5901 0.0
C565 C 0.11849 0.92487 0.56142 0.0
C566 C 0.11737 0.8804 0.61474 0.0
C567 C 0.15073 0.8816 0.61032 0.0
C568 C 0.16776 0.904 0.58032 0.0
C569 C 0.15183 0.92568 0.55652 0.0
H570 H 0.14066 0.11956 0.72904 0.0
H571 H 0.10558 0.20719 0.69087 0.0
H572 H 0.106 0.09514 0.68407 0.0
H573 H 0.06976 0.18284 0.64671 0.0
H574 H 0.05639 0.13782 0.52493 0.0
H575 H 0.07785 0.16326 0.58116 0.0
H576 H 0.05502 0.0794 0.66672 0.0
H577 H 0.0351 0.05402 0.61042 0.0
C578 C 0.1243 0.13323 0.7125 0.0
C579 C 0.1253 0.16501 0.71367 0.0
C580 C 0.10449 0.11937 0.68651 0.0
C581 C 0.08528 0.13711 0.66126 0.0
C582 C 0.08464 0.16861 0.66507 0.0
C583 C 0.10466 0.18247 0.69086 0.0
C584 C 0.05588 0.12507 0.55588 0.0
C585 C 0.04499 0.09383 0.56305 0.0
C586 C 0.06787 0.13961 0.58824 0.0
C587 C 0.06859 0.12323 0.62847 0.0
C588 C 0.0557 0.09249 0.63598 0.0
C589 C 0.04428 0.07793 0.60363 0.0
H590 H 0.8634 0.21261 0.74753 0.0
H591 H 0.78651 0.18432 0.67724 0.0
H592 H 0.89782 0.17911 0.71228 0.0
H593 H 0.82059 0.15138 0.64222 0.0
H594 H 0.88365 0.07933 0.60485 0.0
H595 H 0.85045 0.10512 0.65287 0.0
H596 H 0.92092 0.18285 0.63713 0.0
H597 H 0.95431 0.15706 0.58956 0.0
C598 C 0.85375 0.19883 0.72522 0.0
C599 C 0.8225 0.20123 0.71474 0.0
C600 C 0.8734 0.17988 0.70491 0.0
C601 C 0.86185 0.16284 0.6744 0.0
C602 C 0.83006 0.16403 0.66583 0.0
C603 C 0.81063 0.18309 0.68567 0.0
C604 C 0.89207 0.1019 0.61168 0.0
C605 C 0.9214 0.11632 0.59308 0.0
C606 C 0.87312 0.11658 0.63924 0.0
C607 C 0.88323 0.14588 0.6488 0.0
C608 C 0.9128 0.16006 0.6308 0.0
C609 C 0.93168 0.14545 0.60312 0.0
H610 H 0.87158 0.91068 0.77459 0.0
H611 H 0.93536 0.84634 0.73207 0.0
H612 H 0.91327 0.95281 0.75441 0.0
H613 H 0.97694 0.88797 0.71221 0.0
H614 H 0.95879 0.99543 0.61528 0.0
H615 H 0.92767 0.96794 0.67681 0.0
H616 H 1.01303 0.93415 0.7228 0.0
H617 H 0.04437 0.96183 0.66087 0.0
C618 C 0.89498 0.90547 0.76266 0.0
C619 C 0.9004 0.87569 0.75391 0.0
C620 C 0.91877 0.92945 0.75123 0.0
C621 C 0.94812 0.92368 0.73128 0.0
C622 C 0.95465 0.89313 0.72775 0.0
C623 C 0.93081 0.86932 0.73865 0.0
C624 C 0.97102 0.98286 0.6391 0.0
C625 C 1.00372 0.97984 0.63275 0.0
C626 C 0.95328 0.9675 0.67473 0.0
C627 C 0.96796 0.94859 0.70428 0.0
C628 C 1.00121 0.94845 0.70027 0.0
C629 C 0.01904 0.96414 0.66476 0.0
H630 H 0.36026 0.25378 0.15725 0.0
H631 H 0.28715 0.17855 0.18685 0.0
H632 H 0.39231 0.22175 0.11692 0.0
H633 H 0.31965 0.14615 0.14794 0.0
H634 H 0.37852 0.10153 0.04872 0.0
H635 H 0.34283 0.13524 0.08141 0.0
H636 H 0.42285 0.17969 0.13167 0.0
H637 H 0.45806 0.14709 0.09833 0.0
C638 C 0.35102 0.23042 0.15513 0.0
C639 C 0.32127 0.2187 0.17558 0.0
C640 C 0.36946 0.21193 0.13221 0.0
C641 C 0.35881 0.18112 0.12956 0.0
C642 C 0.32857 0.16976 0.14891 0.0
C643 C 0.31 0.18834 0.17152 0.0
C644 C 0.38829 0.11846 0.06692 0.0
C645 C 0.42109 0.12168 0.07083 0.0
C646 C 0.36791 0.1378 0.08565 0.0
C647 C 0.37997 0.16054 0.10886 0.0
C648 C 0.41272 0.16315 0.11317 0.0
C649 C 0.43294 0.14417 0.09429 0.0
H650 H 0.81275 0.36603 0.21151 0.0
H651 H 0.86196 0.29801 0.15177 0.0
H652 H 0.85496 0.40559 0.18233 0.0
H653 H 0.90492 0.33778 0.12336 0.0
H654 H 0.99073 0.40959 0.13711 0.0
H655 H 0.94638 0.3712 0.16036 0.0
H656 H 0.88155 0.43311 0.10812 0.0
H657 H 0.92634 0.47166 0.08336 0.0
C658 C 0.83254 0.3595 0.19191 0.0
C659 C 0.83391 0.32869 0.18409 0.0
C660 C 0.85668 0.3823 0.17504 0.0
C661 C 0.8834 0.37493 0.15061 0.0
C662 C 0.8847 0.34421 0.14223 0.0
C663 C 0.86004 0.32144 0.15831 0.0
C664 C 0.96706 0.41542 0.13086 0.0
C665 C 0.96232 0.44418 0.10866 0.0
C666 C 0.94162 0.39308 0.14381 0.0
C667 C 0.91042 0.39888 0.13584 0.0
C668 C 0.90533 0.42788 0.11474 0.0
C669 C 0.93099 0.45007 0.1008 0.0
H670 H 0.70051 0.78667 0.13871 0.0
H671 H 0.74624 0.87037 0.17121 0.0
H672 H 0.66566 0.8165 0.0968 0.0
H673 H 0.71038 0.90029 0.13139 0.0
H674 H 0.64957 0.95226 0.05045 0.0
H675 H 0.69159 0.91983 0.06948 0.0
H676 H 0.621 0.84312 0.10826 0.0
H677 H 0.57939 0.87545 0.0864 0.0
C678 C 0.70333 0.81155 0.13643 0.0
C679 C 0.72602 0.82623 0.15833 0.0
C680 C 0.6831 0.82868 0.11274 0.0
C681 C 0.68463 0.86091 0.11102 0.0
C682 C 0.70857 0.8756 0.13126 0.0
C683 C 0.72921 0.85846 0.15432 0.0
C684 C 0.64328 0.92821 0.06214 0.0
C685 C 0.61134 0.91631 0.06739 0.0
C686 C 0.6673 0.90967 0.07348 0.0
C687 C 0.65986 0.87893 0.09153 0.0
C688 C 0.62791 0.86656 0.09426 0.0
C689 C 0.60391 0.88504 0.08187 0.0
H690 H 0.18832 0.66085 0.15048 0.0
H691 H 0.15128 0.73455 0.07385 0.0
H692 H 0.1512 0.62351 0.12583 0.0
H693 H 0.11546 0.69733 0.04659 0.0
H694 H 0.02832 0.632 0.04824 0.0
H695 H 0.06882 0.66749 0.06859 0.0
H696 H 0.13396 0.596 0.07365 0.0
H697 H 0.09215 0.55981 0.05567 0.0
C698 C 0.1727 0.66883 0.12736 0.0
C699 C 0.17246 0.70037 0.1139 0.0
C700 C 0.15149 0.64748 0.11303 0.0
C701 C 0.12988 0.65725 0.08446 0.0
C702 C 0.13101 0.68889 0.06946 0.0
C703 C 0.15177 0.71026 0.08454 0.0
C704 C 0.05126 0.62382 0.05391 0.0
C705 C 0.05706 0.59313 0.05059 0.0
C706 C 0.07474 0.64433 0.0651 0.0
C707 C 0.10505 0.63495 0.07229 0.0
C708 C 0.11085 0.60408 0.06892 0.0
C709 C 0.08696 0.58328 0.05858 0.0
H710 H 0.34643 0.89037 0.82883 0.0
H711 H 0.31198 0.85075 0.9551 0.0
H712 H 0.39008 0.9185 0.85534 0.0
H713 H 0.35655 0.87863 0.98152 0.0
H714 H 0.46358 0.90232 1.00012 0.0
H715 H 0.41542 0.87738 0.97837 0.0
H716 H 0.4025 0.96025 0.89736 0.0
H717 H 0.45066 0.98519 0.91892 0.0
C718 C 0.34762 0.88811 0.86239 0.0
C719 C 0.32522 0.86832 0.88974 0.0
C720 C 0.37293 0.90421 0.87758 0.0
C721 C 0.37689 0.90087 0.92056 0.0
C722 C 0.35438 0.88147 0.94814 0.0
C723 C 0.32881 0.86548 0.93295 0.0
C724 C 0.45048 0.91526 0.97768 0.0
C725 C 0.46126 0.9457 0.96096 0.0
C726 C 0.42268 0.90103 0.9655 0.0
C727 C 0.40512 0.91675 0.93598 0.0
C728 C 0.41564 0.94734 0.91978 0.0
C729 C 0.44325 0.96167 0.93224 0.0
H730 H 0.1673 0.27746 0.85572 0.0
H731 H 0.24488 0.34859 0.82918 0.0
H732 H 0.13658 0.31163 0.89425 0.0
H733 H 0.21386 0.38302 0.86623 0.0
H734 H 0.15599 0.4306 0.96408 0.0
H735 H 0.1902 0.39539 0.93175 0.0
H736 H 0.1093 0.3559 0.8778 0.0
H737 H 0.07557 0.39001 0.9107 0.0
C738 C 0.17783 0.30032 0.85817 0.0
C739 C 0.20845 0.31027 0.83904 0.0
C740 C 0.16016 0.32007 0.88001 0.0
C741 C 0.17253 0.35036 0.88296 0.0
C742 C 0.20358 0.35988 0.865 0.0
C743 C 0.22131 0.34009 0.84343 0.0
C744 C 0.14579 0.41457 0.94491 0.0
C745 C 0.11313 0.41302 0.94 0.0
C746 C 0.16528 0.39431 0.92648 0.0
C747 C 0.15245 0.37234 0.90262 0.0
C748 C 0.11995 0.37172 0.89688 0.0
C749 C 0.10061 0.3916 0.91546 0.0
H750 H 0.72857 0.17552 0.8617 0.0
H751 H 0.65908 0.21689 0.78802 0.0
H752 H 0.68891 0.13303 0.89038 0.0
H753 H 0.61924 0.17612 0.81794 0.0
H754 H 0.55754 0.08965 0.84379 0.0
H755 H 0.60203 0.12624 0.81497 0.0
H756 H 0.64297 0.11397 0.93335 0.0
H757 H 0.59953 0.07537 0.96075 0.0
C758 C 0.70467 0.17583 0.85228 0.0
C759 C 0.69706 0.19948 0.82238 0.0
C760 C 0.68181 0.15144 0.86868 0.0
C761 C 0.65067 0.1504 0.856 0.0
C762 C 0.64303 0.17504 0.8275 0.0
C763 C 0.66588 0.19886 0.81064 0.0
C764 C 0.57644 0.09422 0.86332 0.0
C765 C 0.57473 0.07968 0.90471 0.0
C766 C 0.60185 0.11573 0.84706 0.0
C767 C 0.62596 0.12421 0.87205 0.0
C768 C 0.62512 0.10832 0.91283 0.0
C769 C 0.60004 0.08611 0.92872 0.0
H770 H 0.76896 0.6714 0.86457 0.0
H771 H 0.84767 0.74152 0.84482 0.0
H772 H 0.80047 0.63774 0.90688 0.0
H773 H 0.87942 0.70761 0.88567 0.0
H774 H 0.92992 0.64344 0.97111 0.0
H775 H 0.89054 0.67908 0.95051 0.0
H776 H 0.8439 0.60936 0.88785 0.0
H777 H 0.88219 0.57394 0.90917 0.0
C778 C 0.79281 0.67979 0.86968 0.0
C779 C 0.80593 0.70895 0.85074 0.0
C780 C 0.81097 0.66044 0.89375 0.0
C781 C 0.84273 0.66972 0.89914 0.0
C782 C 0.85504 0.6997 0.88252 0.0
C783 C 0.83683 0.7191 0.85872 0.0
C784 C 0.91099 0.63569 0.95339 0.0
C785 C 0.90956 0.60599 0.94124 0.0
C786 C 0.88847 0.65612 0.94149 0.0
C787 C 0.86407 0.6472 0.91729 0.0
C788 C 0.86196 0.61701 0.90694 0.0
C789 C 0.88429 0.59671 0.91882 0.0
H790 H 0.24981 0.36706 0.17695 0.0
H791 H 0.20293 0.28631 0.13776 0.0
H792 H 0.21576 0.39931 0.13788 0.0
H793 H 0.17005 0.31867 0.09591 0.0
H794 H 0.08612 0.37971 0.08482 0.0
H795 H 0.12637 0.34577 0.10603 0.0
H796 H 0.19838 0.42242 0.07805 0.0
H797 H 0.15742 0.45647 0.06026 0.0
C798 C 0.2329 0.3563 0.15872 0.0
C799 C 0.22883 0.32418 0.1607 0.0
C800 C 0.21333 0.37485 0.13596 0.0
C801 C 0.18964 0.36177 0.11378 0.0
C802 C 0.18728 0.32965 0.11342 0.0
C803 C 0.20637 0.31106 0.13705 0.0
C804 C 0.11066 0.38905 0.08276 0.0
C805 C 0.11869 0.42067 0.07178 0.0
C806 C 0.13392 0.36959 0.09465 0.0
C807 C 0.16585 0.38129 0.09468 0.0
C808 C 0.17403 0.41263 0.08005 0.0
C809 C 0.15063 0.43217 0.06944 0.0
H810 H 0.18268 0.7175 0.88386 0.0
H811 H 0.18311 0.68232 0.7647 0.0
H812 H 0.14248 0.67574 0.91429 0.0
H813 H 0.1434 0.6411 0.79482 0.0
H814 H 0.04541 0.5939 0.85079 0.0
H815 H 0.08708 0.6338 0.82141 0.0
H816 H 0.13545 0.61792 0.93326 0.0
H817 H 0.09368 0.57767 0.96267 0.0
C818 C 0.17411 0.70109 0.86408 0.0
C819 C 0.18616 0.70355 0.8217 0.0
C820 C 0.15127 0.67694 0.88161 0.0
C821 C 0.13957 0.65489 0.85708 0.0
C822 C 0.15148 0.65767 0.81468 0.0
C823 C 0.17443 0.68143 0.7974 0.0
C824 C 0.06522 0.59842 0.86887 0.0
C825 C 0.06619 0.58216 0.909 0.0
C826 C 0.08917 0.62145 0.85202 0.0
C827 C 0.11469 0.62938 0.87496 0.0
C828 C 0.11605 0.61274 0.91481 0.0
C829 C 0.09229 0.58928 0.93144 0.0
H830 H 0.32694 0.24402 0.87404 0.0
H831 H 0.28214 0.16028 0.84041 0.0
H832 H 0.36267 0.21437 0.91466 0.0
H833 H 0.31886 0.13056 0.87897 0.0
H834 H 0.38118 0.07884 0.95809 0.0
H835 H 0.33848 0.1107 0.94014 0.0
H836 H 0.40776 0.18858 0.90204 0.0
H837 H 0.45009 0.15678 0.92281 0.0
C838 C 0.3245 0.21915 0.87583 0.0
C839 C 0.30179 0.20444 0.85397 0.0
C840 C 0.34525 0.20214 0.89876 0.0
C841 C 0.34424 0.16997 0.89978 0.0
C842 C 0.32029 0.15519 0.87962 0.0
C843 C 0.29915 0.17222 0.85731 0.0
C844 C 0.38706 0.10301 0.94679 0.0
C845 C 0.41883 0.11539 0.94144 0.0
C846 C 0.36263 0.12124 0.93605 0.0
C847 C 0.36948 0.15217 0.91852 0.0
C848 C 0.40129 0.16499 0.91566 0.0
C849 C 0.4257 0.1468 0.92744 0.0
H850 H 0.83935 0.31901 0.95495 0.0
H851 H 0.89526 0.34054 0.83566 0.0
H852 H 0.87502 0.35527 0.98514 0.0
H853 H 0.93095 0.37636 0.86543 0.0
H854 H 0.96306 0.46457 0.9144 0.0
H855 H 0.92527 0.42736 0.89016 0.0
H856 H 0.93126 0.36437 1.00218 0.0
H857 H 0.96874 0.40151 0.02646 0.0
C858 C 0.85981 0.33087 0.93568 0.0
C859 C 0.86493 0.32697 0.89326 0.0
C860 C 0.88002 0.35173 0.95271 0.0
C861 C 0.9054 0.36906 0.92737 0.0
C862 C 0.91118 0.3639 0.88545 0.0
C863 C 0.89112 0.34311 0.86858 0.0
C864 C 0.95593 0.44296 0.93403 0.0
C865 C 0.96915 0.43575 0.97194 0.0
C866 C 0.93455 0.42156 0.92006 0.0
C867 C 0.92575 0.39275 0.94401 0.0
C868 C 0.93765 0.3863 0.98302 0.0
C869 C 0.95925 0.40752 0.99674 0.0
H870 H 0.74462 0.85297 0.82298 0.0
H871 H 0.67326 0.77655 0.8567 0.0
H872 H 0.71188 0.88539 0.86159 0.0
H873 H 0.64103 0.80862 0.89668 0.0
H874 H 0.57364 0.88232 0.91279 0.0
H875 H 0.6094 0.84971 0.88051 0.0
H876 H 0.68896 0.89702 0.92813 0.0
H877 H 0.6527 0.93071 0.95978 0.0
C878 C 0.72214 0.84293 0.83919 0.0
C879 C 0.71136 0.81224 0.83633 0.0
C880 C 0.70344 0.86152 0.8616 0.0
C881 C 0.67359 0.84982 0.88192 0.0
C882 C 0.66354 0.81867 0.88059 0.0
C883 C 0.68209 0.80018 0.85787 0.0
C884 C 0.59876 0.88586 0.91652 0.0
C885 C 0.61033 0.90914 0.93889 0.0
C886 C 0.61931 0.86688 0.89824 0.0
C887 C 0.6521 0.87032 0.90211 0.0
C888 C 0.66385 0.89382 0.92428 0.0
C889 C 0.64314 0.91313 0.94242 0.0
H890 H 0.86054 0.75161 0.16046 0.0
H891 H 0.78083 0.68262 0.18317 0.0
H892 H 0.89101 0.7167 0.12293 0.0
H893 H 0.81154 0.64747 0.14702 0.0
H894 H 0.87068 0.59909 0.05064 0.0
H895 H 0.83659 0.63496 0.08188 0.0
H896 H 0.91624 0.6712 0.14134 0.0
H897 H 0.94985 0.63642 0.10964 0.0
C898 C 0.84947 0.72908 0.15735 0.0
C899 C 0.81835 0.71991 0.17519 0.0
C900 C 0.86699 0.70891 0.13608 0.0
C901 C 0.85392 0.67898 0.13239 0.0
C902 C 0.82237 0.67031 0.14892 0.0
C903 C 0.80482 0.6905 0.16996 0.0
C904 C 0.88058 0.6145 0.07086 0.0
C905 C 0.91289 0.61499 0.07765 0.0
C906 C 0.86119 0.63515 0.08862 0.0
C907 C 0.87378 0.65646 0.11361 0.0
C908 C 0.90585 0.65592 0.12133 0.0
C909 C 0.92509 0.63566 0.10347 0.0
H910 H 0.30173 0.85823 0.14594 0.0
H911 H 0.3695 0.81833 0.22397 0.0
H912 H 0.342 0.89992 0.11649 0.0
H913 H 0.41 0.85826 0.1933 0.0
H914 H 0.47279 0.94419 0.16381 0.0
H915 H 0.42795 0.90826 0.19347 0.0
H916 H 0.38837 0.91738 0.07399 0.0
H917 H 0.43215 0.95528 0.04561 0.0
C918 C 0.32539 0.85807 0.15622 0.0
C919 C 0.33232 0.83508 0.1875 0.0
C920 C 0.34861 0.88199 0.13934 0.0
C921 C 0.37948 0.88319 0.15287 0.0
C922 C 0.38644 0.85923 0.18294 0.0
C923 C 0.3632 0.83588 0.20027 0.0
C924 C 0.45412 0.93904 0.14418 0.0
C925 C 0.45624 0.95256 0.10228 0.0
C926 C 0.4285 0.91793 0.16096 0.0
C927 C 0.4046 0.90883 0.13601 0.0
C928 C 0.40598 0.92359 0.09454 0.0
C929 C 0.43125 0.94541 0.0781 0.0
H930 H 0.71084 0.19158 0.05055 0.0
H931 H 0.70092 0.12588 0.16205 0.0
H932 H 0.6696 0.1613 0.02099 0.0
H933 H 0.65894 0.09607 0.13374 0.0
H934 H 0.5884 0.04168 0.06896 0.0
H935 H 0.63914 0.06486 0.0853 0.0
H936 H 0.61361 0.1544 0.03479 0.0
H937 H 0.56344 0.13109 0.01735 0.0
C938 C 0.70064 0.16997 0.06797 0.0
C939 C 0.70945 0.16066 0.10814 0.0
C940 C 0.67655 0.1529 0.0515 0.0
C941 C 0.66034 0.12644 0.07522 0.0
C942 C 0.67091 0.11606 0.11424 0.0
C943 C 0.69517 0.13302 0.13049 0.0
C944 C 0.59365 0.06632 0.06124 0.0
C945 C 0.57158 0.08455 0.04224 0.0
C946 C 0.62281 0.07965 0.07066 0.0
C947 C 0.63069 0.1116 0.06153 0.0
C948 C 0.60882 0.12968 0.04173 0.0
C949 C 0.57975 0.11634 0.03213 0.0
H950 H 0.59266 0.68685 0.77864 0.0
H951 H 0.64764 0.6178 0.7305 0.0
H952 H 0.54781 0.64877 0.79883 0.0
H953 H 0.6025 0.57924 0.75066 0.0
H954 H 0.47678 0.58006 0.85586 0.0
H955 H 0.50683 0.60643 0.79192 0.0
H956 H 0.59056 0.56304 0.82728 0.0
H957 H 0.56071 0.53692 0.89051 0.0
C958 C 0.59454 0.66369 0.77088 0.0
C959 C 0.62355 0.65483 0.75418 0.0
C960 C 0.56876 0.6419 0.78193 0.0
C961 C 0.57191 0.61087 0.77703 0.0
C962 C 0.59963 0.60296 0.75512 0.0
C963 C 0.6254 0.62492 0.7437 0.0
C964 C 0.50133 0.57544 0.8491 0.0
C965 C 0.51688 0.55739 0.87858 0.0
C966 C 0.51843 0.59038 0.81248 0.0
C967 C 0.55109 0.58713 0.80492 0.0
C968 C 0.5654 0.56596 0.83201 0.0
C969 C 0.54847 0.55138 0.86869 0.0
H970 H 0.30249 0.72373 0.88558 0.0
H971 H 0.34883 0.69053 0.77738 0.0
H972 H 0.33265 0.69121 0.93136 0.0
H973 H 0.37972 0.65837 0.82368 0.0
H974 H 0.4506 0.6332 0.92513 0.0
H975 H 0.42258 0.66947 0.88086 0.0
H976 H 0.33286 0.6292 0.94458 0.0
H977 H 0.36072 0.59235 0.98806 0.0
C978 C 0.31934 0.7097 0.8715 0.0
C979 C 0.32328 0.70967 0.82779 0.0
C980 C 0.3365 0.69106 0.89779 0.0
C981 C 0.35847 0.67245 0.88098 0.0
C982 C 0.36301 0.67276 0.83729 0.0
C983 C 0.34527 0.69098 0.81089 0.0
C984 C 0.42494 0.63252 0.93024 0.0
C985 C 0.40778 0.61011 0.96016 0.0
C986 C 0.40896 0.653 0.90461 0.0
C987 C 0.37564 0.65188 0.90922 0.0
C988 C 0.35859 0.63047 0.94049 0.0
C989 C 0.37449 0.60951 0.96539 0.0
H990 H 0.36554 0.40549 0.79937 0.0
H991 H 0.429 0.33316 0.80379 0.0
H992 H 0.39841 0.43349 0.84262 0.0
H993 H 0.46305 0.36161 0.84624 0.0
H994 H 0.4682 0.48598 0.906 0.0
H995 H 0.44647 0.46118 0.85068 0.0
H996 H 0.45848 0.37213 0.91778 0.0
H997 H 0.48192 0.39737 0.9728 0.0
C998 C 0.38747 0.39639 0.80808 0.0
C999 C 0.3952 0.36762 0.79785 0.0
C1000 C 0.40631 0.4123 0.83304 0.0
C1001 C 0.43332 0.39969 0.84829 0.0
C1002 C 0.44216 0.37172 0.83558 0.0
C1003 C 0.42311 0.35572 0.81068 0.0
C1004 C 0.46621 0.46109 0.9092 0.0
C1005 C 0.47623 0.44359 0.94432 0.0
C1006 C 0.45374 0.44685 0.87728 0.0
C1007 C 0.45034 0.41464 0.87986 0.0
C1008 C 0.46107 0.39703 0.9145 0.0
C1009 C 0.47412 0.4114 0.9463 0.0
H1010 H 0.7368 0.35047 0.81839 0.0
H1011 H 0.65938 0.3224 0.74892 0.0
H1012 H 0.70294 0.38321 0.85416 0.0
H1013 H 0.62516 0.35571 0.78495 0.0
H1014 H 0.56866 0.37966 0.90662 0.0
H1015 H 0.60165 0.35322 0.85933 0.0
H1016 H 0.67366 0.42957 0.84454 0.0
H1017 H 0.64083 0.45599 0.89226 0.0
C1018 C 0.7126 0.35167 0.81029 0.0
C1019 C 0.70064 0.33369 0.78107 0.0
C1020 C 0.69326 0.37064 0.83063 0.0
C1021 C 0.66136 0.37195 0.82251 0.0
C1022 C 0.64962 0.35491 0.79205 0.0
C1023 C 0.6692 0.33606 0.77123 0.0
C1024 C 0.59152 0.39086 0.89327 0.0
C1025 C 0.60229 0.41979 0.90357 0.0
C1026 C 0.61023 0.37584 0.86576 0.0
C1027 C 0.64019 0.38935 0.84813 0.0
C1028 C 0.65074 0.41851 0.85788 0.0
C1029 C 0.63195 0.43362 0.88523 0.0
H1030 H 0.70108 0.36317 0.22731 0.0
H1031 H 0.68846 0.29125 0.14858 0.0
H1032 H 0.67261 0.39701 0.18032 0.0
H1033 H 0.66009 0.32496 0.10191 0.0
H1034 H 0.58409 0.38921 0.05266 0.0
H1035 H 0.60964 0.35282 0.09981 0.0
H1036 H 0.68605 0.42233 0.10545 0.0
H1037 H 0.66096 0.45851 0.05847 0.0
C1038 C 0.69185 0.35446 0.20038 0.0
C1039 C 0.69716 0.32465 0.19153 0.0
C1040 C 0.6758 0.37387 0.17331 0.0
C1041 C 0.6644 0.36367 0.13724 0.0
C1042 C 0.66851 0.33341 0.12948 0.0
C1043 C 0.68488 0.31418 0.15617 0.0
C1044 C 0.60659 0.39657 0.06343 0.0
C1045 C 0.62033 0.42686 0.05187 0.0
C1046 C 0.62114 0.37577 0.09054 0.0
C1047 C 0.64951 0.38497 0.10692 0.0
C1048 C 0.66383 0.41482 0.09408 0.0
C1049 C 0.64954 0.43544 0.06673 0.0
H1050 H 0.66398 0.62675 0.20795 0.0
H1051 H 0.59696 0.69574 0.21202 0.0
H1052 H 0.63129 0.59927 0.16404 0.0
H1053 H 0.5631 0.66771 0.16883 0.0
H1054 H 0.54234 0.63509 0.04078 0.0
H1055 H 0.56644 0.65958 0.09601 0.0
H1056 H 0.58395 0.57011 0.15698 0.0
H1057 H 0.56165 0.54616 0.10147 0.0
C1058 C 0.64137 0.63516 0.20092 0.0
C1059 C 0.63257 0.6629 0.21375 0.0
C1060 C 0.62262 0.61955 0.17559 0.0
C1061 C 0.59459 0.6314 0.16255 0.0
C1062 C 0.58477 0.65823 0.17778 0.0
C1063 C 0.60373 0.67395 0.20311 0.0
C1064 C 0.55152 0.6208 0.06594 0.0
C1065 C 0.55065 0.58877 0.06617 0.0
C1066 C 0.56495 0.63474 0.09788 0.0
C1067 C 0.57734 0.61681 0.13088 0.0
C1068 C 0.57534 0.58472 0.13166 0.0
C1069 C 0.5625 0.57095 0.09961 0.0
H1070 H 0.3651 0.70988 0.26051 0.0
H1071 H 0.28838 0.6845 0.1882 0.0
H1072 H 0.39906 0.67644 0.22451 0.0
H1073 H 0.32209 0.65162 0.15235 0.0
H1074 H 0.38386 0.57816 0.11444 0.0
H1075 H 0.3505 0.60462 0.16151 0.0
H1076 H 0.42363 0.67976 0.15071 0.0
H1077 H 0.45712 0.65327 0.10409 0.0
C1078 C 0.35535 0.69677 0.23756 0.0
C1079 C 0.32421 0.69995 0.22696 0.0
C1080 C 0.37481 0.67786 0.21674 0.0
C1081 C 0.36326 0.66157 0.18545 0.0
C1082 C 0.33161 0.66363 0.17653 0.0
C1083 C 0.31236 0.68266 0.19693 0.0
C1084 C 0.39286 0.60027 0.12221 0.0
C1085 C 0.42301 0.61373 0.10525 0.0
C1086 C 0.37376 0.61541 0.14917 0.0
C1087 C 0.3845 0.64421 0.15989 0.0
C1088 C 0.41489 0.65739 0.14352 0.0
C1089 C 0.43391 0.64235 0.11641 0.0
H1090 H 0.38076 0.41358 0.28299 0.0
H1091 H 0.43987 0.34574 0.23986 0.0
H1092 H 0.42404 0.45378 0.2607 0.0
H1093 H 0.48294 0.38546 0.2176 0.0
H1094 H 0.55019 0.45653 0.15571 0.0
H1095 H 0.52153 0.43071 0.2209 0.0
H1096 H 0.43483 0.46703 0.18323 0.0
H1097 H 0.46326 0.4926 0.11869 0.0
C1098 C 0.40356 0.40714 0.27061 0.0
C1099 C 0.40707 0.37699 0.26202 0.0
C1100 C 0.42827 0.43005 0.25792 0.0
C1101 C 0.45654 0.42283 0.23659 0.0
C1102 C 0.46148 0.3918 0.23395 0.0
C1103 C 0.43676 0.36904 0.24627 0.0
C1104 C 0.5252 0.45969 0.16208 0.0
C1105 C 0.50857 0.4756 0.13169 0.0
C1106 C 0.50891 0.4451 0.19945 0.0
C1107 C 0.47593 0.44656 0.20692 0.0
C1108 C 0.46027 0.46558 0.17861 0.0
C1109 C 0.47642 0.4798 0.14119 0.0
H1110 H 0.85862 0.74659 0.65785 0.0
H1111 H 0.78348 0.67289 0.67955 0.0
H1112 H 0.8921 0.71423 0.6201 0.0
H1113 H 0.81729 0.64024 0.64277 0.0
H1114 H 0.88142 0.59255 0.55474 0.0
H1115 H 0.84552 0.62999 0.57724 0.0
H1116 H 0.91975 0.67036 0.64225 0.0
H1117 H 0.95538 0.63389 0.61933 0.0
C1118 C 0.84914 0.72357 0.65432 0.0
C1119 C 0.8185 0.71223 0.67219 0.0
C1120 C 0.86839 0.70494 0.6328 0.0
C1121 C 0.85757 0.67445 0.62883 0.0
C1122 C 0.82634 0.66365 0.64492 0.0
C1123 C 0.80702 0.68233 0.6663 0.0
C1124 C 0.89006 0.60961 0.57354 0.0
C1125 C 0.9212 0.60996 0.58555 0.0
C1126 C 0.86949 0.63099 0.58655 0.0
C1127 C 0.87971 0.65322 0.61161 0.0
C1128 C 0.91112 0.65397 0.62248 0.0
C1129 C 0.93155 0.63273 0.60959 0.0
H1130 H 0.35448 0.83589 0.75562 0.0
H1131 H 0.33842 0.8169 0.6309 0.0
H1132 H 0.39715 0.87448 0.72725 0.0
H1133 H 0.38014 0.85732 0.60172 0.0
H1134 H 0.4682 0.92412 0.55951 0.0
H1135 H 0.4338 0.87797 0.58907 0.0
H1136 H 0.40354 0.92385 0.69491 0.0
H1137 H 0.43849 0.96862 0.66667 0.0
C1138 C 0.36002 0.84009 0.72194 0.0
C1139 C 0.3428 0.82341 0.69557 0.0
C1140 C 0.38446 0.86256 0.70548 0.0
C1141 C 0.39203 0.86985 0.66188 0.0
C1142 C 0.37541 0.85241 0.63542 0.0
C1143 C 0.35129 0.82929 0.6521 0.0
C1144 C 0.45488 0.92392 0.58971 0.0
C1145 C 0.45639 0.95025 0.61066 0.0
C1146 C 0.43468 0.89755 0.60643 0.0
C1147 C 0.41554 0.89679 0.64463 0.0
C1148 C 0.41812 0.92284 0.66601 0.0
C1149 C 0.43825 0.94889 0.64952 0.0
H1150 H 0.18457 0.28215 0.66765 0.0
H1151 H 0.26 0.35558 0.65001 0.0
H1152 H 0.15145 0.31448 0.62698 0.0
H1153 H 0.22714 0.3877 0.60746 0.0
H1154 H 0.1466 0.44939 0.59256 0.0
H1155 H 0.18211 0.41435 0.62321 0.0
H1156 H 0.13975 0.34136 0.56208 0.0
H1157 H 0.10304 0.37688 0.53208 0.0
C1158 C 0.1944 0.30506 0.65436 0.0
C1159 C 0.22483 0.31648 0.66274 0.0
C1160 C 0.17536 0.32355 0.63066 0.0
C1161 C 0.18631 0.35392 0.6144 0.0
C1162 C 0.21759 0.36466 0.62042 0.0
C1163 C 0.2366 0.34619 0.6445 0.0
C1164 C 0.14474 0.42583 0.58565 0.0
C1165 C 0.12196 0.41583 0.56001 0.0
C1166 C 0.16545 0.40577 0.60287 0.0
C1167 C 0.16433 0.37508 0.59462 0.0
C1168 C 0.14122 0.36484 0.56927 0.0
C1169 C 0.12009 0.38505 0.55221 0.0
H1170 H 0.69374 0.20697 0.54038 0.0
H1171 H 0.62936 0.1914 0.65291 0.0
H1172 H 0.66384 0.16571 0.51163 0.0
H1173 H 0.60031 0.14971 0.62569 0.0
H1174 H 0.635 0.06173 0.50879 0.0
H1175 H 0.65853 0.1111 0.5238 0.0
H1176 H 0.56707 0.13118 0.57918 0.0
H1177 H 0.54414 0.08139 0.56619 0.0
C1178 C 0.67253 0.19537 0.55826 0.0
C1179 C 0.66343 0.20257 0.59847 0.0
C1180 C 0.65573 0.17137 0.54224 0.0
C1181 C 0.62977 0.15395 0.56644 0.0
C1182 C 0.61974 0.16268 0.60568 0.0
C1183 C 0.63635 0.18668 0.6214 0.0
C1184 C 0.61998 0.07671 0.52422 0.0
C1185 C 0.58784 0.06729 0.53696 0.0
C1186 C 0.63336 0.10526 0.53238 0.0
C1187 C 0.61483 0.12525 0.55307 0.0
C1188 C 0.58235 0.11623 0.56413 0.0
C1189 C 0.56914 0.08758 0.55658 0.0
H1190 H 0.84364 0.39273 0.32666 0.0
H1191 H 0.80567 0.35407 0.45189 0.0
H1192 H 0.88208 0.42613 0.35522 0.0
H1193 H 0.84521 0.38692 0.48065 0.0
H1194 H 0.89305 0.47873 0.51173 0.0
H1195 H 0.85667 0.44109 0.48704 0.0
H1196 H 0.9296 0.42537 0.39193 0.0
H1197 H 0.96603 0.46367 0.41622 0.0
C1198 C 0.84334 0.39147 0.36038 0.0
C1199 C 0.82117 0.37101 0.387 0.0
C1200 C 0.86582 0.4103 0.37675 0.0
C1201 C 0.86687 0.40917 0.42023 0.0
C1202 C 0.84489 0.38855 0.44698 0.0
C1203 C 0.82235 0.36959 0.43053 0.0
C1204 C 0.90144 0.46723 0.48559 0.0
C1205 C 0.93236 0.47457 0.46553 0.0
C1206 C 0.8806 0.44539 0.47168 0.0
C1207 C 0.89008 0.43034 0.4373 0.0
C1208 C 0.92136 0.43693 0.41808 0.0
C1209 C 0.94231 0.45876 0.43211 0.0
H1210 H 0.7447 0.85671 0.33105 0.0
H1211 H 0.6646 0.78825 0.34622 0.0
H1212 H 0.71242 0.89151 0.36575 0.0
H1213 H 0.6325 0.82282 0.38208 0.0
H1214 H 0.57538 0.90717 0.38099 0.0
H1215 H 0.60907 0.86896 0.35902 0.0
H1216 H 0.68315 0.90371 0.4291 0.0
H1217 H 0.64922 0.94307 0.45063 0.0
C1218 C 0.72032 0.84884 0.34241 0.0
C1219 C 0.70712 0.81978 0.33528 0.0
C1220 C 0.70185 0.86879 0.36265 0.0
C1221 C 0.66971 0.8602 0.37637 0.0
C1222 C 0.657 0.83048 0.37118 0.0
C1223 C 0.67545 0.81055 0.3508 0.0
C1224 C 0.5988 0.90682 0.39199 0.0
C1225 C 0.6096 0.92851 0.41742 0.0
C1226 C 0.61808 0.88452 0.37965 0.0
C1227 C 0.64883 0.88299 0.39241 0.0
C1228 C 0.65965 0.90437 0.4184 0.0
C1229 C 0.64021 0.92689 0.43083 0.0
H1230 H 0.2294 0.6761 0.37293 0.0
H1231 H 0.16005 0.71954 0.3009 0.0
H1232 H 0.18879 0.63425 0.40189 0.0
H1233 H 0.11947 0.67841 0.33086 0.0
H1234 H 0.05292 0.60639 0.43339 0.0
H1235 H 0.09097 0.65168 0.41029 0.0
H1236 H 0.15705 0.59356 0.35736 0.0
H1237 H 0.11923 0.54891 0.37857 0.0
C1238 C 0.2054 0.6771 0.36402 0.0
C1239 C 0.19804 0.70113 0.3345 0.0
C1240 C 0.18218 0.65311 0.38045 0.0
C1241 C 0.1509 0.65308 0.36866 0.0
C1242 C 0.14322 0.67788 0.34077 0.0
C1243 C 0.16656 0.70136 0.32352 0.0
C1244 C 0.07532 0.60337 0.41619 0.0
C1245 C 0.08258 0.57388 0.40739 0.0
C1246 C 0.09718 0.62927 0.40323 0.0
C1247 C 0.12717 0.62608 0.38246 0.0
C1248 C 0.13433 0.59673 0.37367 0.0
C1249 C 0.11232 0.57115 0.38549 0.0
H1250 H 0.35056 0.24431 0.34357 0.0
H1251 H 0.26687 0.18043 0.3729 0.0
H1252 H 0.3803 0.21034 0.3871 0.0
H1253 H 0.29633 0.14689 0.41846 0.0
H1254 H 0.36875 0.07616 0.43934 0.0
H1255 H 0.33565 0.11319 0.40774 0.0
H1256 H 0.39111 0.18659 0.45325 0.0
H1257 H 0.42539 0.14906 0.48375 0.0
C1258 C 0.33825 0.22326 0.36009 0.0
C1259 C 0.30641 0.21485 0.35426 0.0
C1260 C 0.35535 0.20383 0.38543 0.0
C1261 C 0.34095 0.1756 0.40603 0.0
C1262 C 0.30847 0.16809 0.40224 0.0
C1263 C 0.29146 0.18739 0.37637 0.0
C1264 C 0.37389 0.10019 0.44284 0.0
C1265 C 0.39987 0.10973 0.46377 0.0
C1266 C 0.35459 0.12149 0.42502 0.0
C1267 C 0.36042 0.15299 0.42806 0.0
C1268 C 0.38612 0.16255 0.4498 0.0
C1269 C 0.40578 0.14112 0.46729 0.0
H1270 H 0.67863 0.78526 0.67137 0.0
H1271 H 0.76201 0.84895 0.63716 0.0
H1272 H 0.64775 0.81885 0.62877 0.0
H1273 H 0.73141 0.88203 0.59269 0.0
H1274 H 0.65906 0.95288 0.57449 0.0
H1275 H 0.69251 0.91588 0.60516 0.0
H1276 H 0.63526 0.84227 0.56282 0.0
H1277 H 0.60063 0.87984 0.53308 0.0
C1278 C 0.6906 0.80616 0.65398 0.0
C1279 C 0.72273 0.81466 0.65818 0.0
C1280 C 0.67285 0.82537 0.62921 0.0
C1281 C 0.68686 0.85345 0.60761 0.0
C1282 C 0.71956 0.86097 0.60973 0.0
C1283 C 0.73723 0.84192 0.63499 0.0
C1284 C 0.65357 0.92883 0.57143 0.0
C1285 C 0.62701 0.91929 0.55155 0.0
C1286 C 0.67308 0.90753 0.58874 0.0
C1287 C 0.66691 0.87597 0.58629 0.0
C1288 C 0.64057 0.86636 0.56573 0.0
C1289 C 0.62072 0.88783 0.54866 0.0
H1290 H 0.70072 0.171 0.28501 0.0
H1291 H 0.66187 0.23344 0.36531 0.0
H1292 H 0.66043 0.13105 0.31518 0.0
H1293 H 0.61967 0.19332 0.39468 0.0
H1294 H 0.56724 0.10148 0.46531 0.0
H1295 H 0.60373 0.14622 0.43686 0.0
H1296 H 0.60851 0.11362 0.31563 0.0
H1297 H 0.5745 0.06798 0.34517 0.0
C1298 C 0.68321 0.17639 0.30891 0.0
C1299 C 0.68456 0.2057 0.32238 0.0
C1300 C 0.65962 0.15335 0.32608 0.0
C1301 C 0.63583 0.15874 0.35691 0.0
C1302 C 0.63741 0.18801 0.37108 0.0
C1303 C 0.66159 0.21115 0.35418 0.0
C1304 C 0.57593 0.10406 0.43252 0.0
C1305 C 0.56841 0.08069 0.40784 0.0
C1306 C 0.59687 0.12992 0.416 0.0
C1307 C 0.61022 0.13349 0.37396 0.0
C1308 C 0.60015 0.11136 0.34854 0.0
C1309 C 0.58006 0.08524 0.36532 0.0
H1310 H 0.84108 0.7497 0.34781 0.0
H1311 H 0.76747 0.6747 0.3619 0.0
H1312 H 0.87484 0.71742 0.38741 0.0
H1313 H 0.80095 0.64258 0.40343 0.0
H1314 H 0.88327 0.58271 0.41525 0.0
H1315 H 0.84683 0.6175 0.38623 0.0
H1316 H 0.88714 0.68937 0.45111 0.0
H1317 H 0.92478 0.65415 0.47941 0.0
C1318 C 0.83177 0.72645 0.36014 0.0
C1319 C 0.8017 0.71459 0.35099 0.0
C1320 C 0.85117 0.70797 0.38323 0.0
C1321 C 0.84096 0.67718 0.39809 0.0
C1322 C 0.80995 0.66598 0.39151 0.0
C1323 C 0.79057 0.68444 0.36804 0.0
C1324 C 0.88449 0.60599 0.42327 0.0
C1325 C 0.90696 0.61578 0.44945 0.0
C1326 C 0.86324 0.62588 0.40702 0.0
C1327 C 0.8635 0.65616 0.41685 0.0
C1328 C 0.88633 0.66622 0.44272 0.0
C1329 C 0.908 0.6462 0.45877 0.0
H1330 H 0.39932 0.81328 0.40807 0.0
H1331 H 0.31236 0.85225 0.44467 0.0
H1332 H 0.42968 0.85302 0.439 0.0
H1333 H 0.34222 0.8923 0.47423 0.0
H1334 H 0.40029 0.95976 0.53428 0.0
H1335 H 0.37465 0.9103 0.52319 0.0
H1336 H 0.44377 0.90647 0.41787 0.0
H1337 H 0.47015 0.95522 0.43022 0.0
C1338 C 0.38666 0.82972 0.42401 0.0
C1339 C 0.35354 0.82972 0.42405 0.0
C1340 C 0.40402 0.85282 0.44112 0.0
C1341 C 0.38855 0.87636 0.45852 0.0
C1342 C 0.35512 0.87462 0.4615 0.0
C1343 C 0.33789 0.85162 0.4445 0.0
C1344 C 0.41007 0.94831 0.50882 0.0
C1345 C 0.43699 0.96176 0.48269 0.0
C1346 C 0.39535 0.91988 0.50245 0.0
C1347 C 0.40684 0.90432 0.46933 0.0
C1348 C 0.43439 0.91739 0.44405 0.0
C1349 C 0.44935 0.94563 0.45079 0.0
H1350 H 0.24796 0.35718 0.33367 0.0
H1351 H 0.17126 0.28511 0.34909 0.0
H1352 H 0.21371 0.39003 0.36937 0.0
H1353 H 0.13731 0.31764 0.38584 0.0
H1354 H 0.07563 0.39905 0.38604 0.0
H1355 H 0.11122 0.36239 0.36359 0.0
H1356 H 0.1838 0.4 0.43364 0.0
H1357 H 0.14801 0.43766 0.45562 0.0
C1358 C 0.22396 0.34812 0.34533 0.0
C1359 C 0.21223 0.31864 0.33799 0.0
C1360 C 0.20437 0.36692 0.36609 0.0
C1361 C 0.1726 0.35666 0.38012 0.0
C1362 C 0.16145 0.32654 0.37471 0.0
C1363 C 0.18097 0.30781 0.35379 0.0
C1364 C 0.09909 0.39956 0.39698 0.0
C1365 C 0.10901 0.42162 0.42233 0.0
C1366 C 0.11948 0.37821 0.38435 0.0
C1367 C 0.15043 0.3781 0.3968 0.0
C1368 C 0.16022 0.39965 0.42308 0.0
C1369 C 0.13969 0.42117 0.4358 0.0
H1370 H 0.28224 0.17453 0.68203 0.0
H1371 H 0.36208 0.24331 0.66648 0.0
H1372 H 0.31471 0.13971 0.64773 0.0
H1373 H 0.39437 0.20872 0.63093 0.0
H1374 H 0.45171 0.12434 0.63354 0.0
H1375 H 0.41799 0.16286 0.6545 0.0
H1376 H 0.34404 0.12715 0.58496 0.0
H1377 H 0.37793 0.08748 0.56459 0.0
C1378 C 0.3066 0.18247 0.67063 0.0
C1379 C 0.31968 0.21161 0.67759 0.0
C1380 C 0.32517 0.16251 0.65061 0.0
C1381 C 0.3573 0.17119 0.63693 0.0
C1382 C 0.36988 0.20101 0.64183 0.0
C1383 C 0.35132 0.22095 0.66202 0.0
C1384 C 0.42831 0.12455 0.62246 0.0
C1385 C 0.4175 0.1025 0.59758 0.0
C1386 C 0.40902 0.14703 0.63419 0.0
C1387 C 0.37829 0.14835 0.6213 0.0
C1388 C 0.3675 0.12665 0.59577 0.0
C1389 C 0.38693 0.10395 0.584 0.0
H1390 H 0.86601 0.31396 0.70394 0.0
H1391 H 0.79716 0.36011 0.63407 0.0
H1392 H 0.90743 0.35422 0.67393 0.0
H1393 H 0.83869 0.40116 0.60501 0.0
H1394 H 0.91135 0.48409 0.62978 0.0
H1395 H 0.87226 0.44035 0.6501 0.0
H1396 H 0.93579 0.3811 0.59461 0.0
H1397 H 0.97512 0.42552 0.57237 0.0
C1398 C 0.85979 0.33255 0.68173 0.0
C1399 C 0.82821 0.33381 0.6714 0.0
C1400 C 0.8836 0.35554 0.66445 0.0
C1401 C 0.87636 0.38087 0.63717 0.0
C1402 C 0.84497 0.38186 0.62596 0.0
C1403 C 0.82123 0.35834 0.64243 0.0
C1404 C 0.91744 0.46178 0.62211 0.0
C1405 C 0.94687 0.45848 0.59978 0.0
C1406 C 0.89468 0.43675 0.63338 0.0
C1407 C 0.90075 0.40736 0.62362 0.0
C1408 C 0.93041 0.40357 0.60239 0.0
C1409 C 0.95302 0.42895 0.58997 0.0
H1410 H 0.2267 0.67385 0.5598 0.0
H1411 H 0.1841 0.63871 0.68431 0.0
H1412 H 0.18757 0.64115 0.53019 0.0
H1413 H 0.1461 0.60534 0.65498 0.0
H1414 H 0.06341 0.56892 0.59018 0.0
H1415 H 0.10008 0.60643 0.61562 0.0
H1416 H 0.17474 0.58717 0.52517 0.0
H1417 H 0.13816 0.55039 0.49927 0.0
C1418 C 0.20913 0.65908 0.58084 0.0
C1419 C 0.20886 0.65866 0.62444 0.0
C1420 C 0.18681 0.6402 0.56391 0.0
C1421 C 0.16363 0.6206 0.59021 0.0
C1422 C 0.16331 0.62038 0.63375 0.0
C1423 C 0.18555 0.63916 0.65061 0.0
C1424 C 0.08758 0.57288 0.57557 0.0
C1425 C 0.09789 0.55639 0.54302 0.0
C1426 C 0.10867 0.59424 0.59027 0.0
C1427 C 0.14048 0.59966 0.57265 0.0
C1428 C 0.15041 0.58382 0.53925 0.0
C1429 C 0.12942 0.56248 0.52464 0.0
loop_
_geom_bond_atom_site_label_1
_geom_bond_atom_site_label_2
_geom_bond_distance
_geom_bond_site_symmetry_2
_ccdc_geom_bond_type
C0 O16 1.251 . S
C0 O18 1.254 . S
N1 C2 1.333 . S
N1 C6 1.307 . S
N1 Zn7 2.020 . S
C2 N1 1.333 . S
C2 C3 1.379 . S
C2 H20 0.952 . S
C3 C2 1.379 . S
C3 C4 1.390 . S
C3 H30 0.949 . S
C4 C3 1.390 . S
C4 C5 1.357 . S
C5 C4 1.357 . S
C5 C6 1.370 . S
C5 H31 0.950 . S
C6 N1 1.307 . S
C6 C5 1.370 . S
C6 H24 0.948 . S
Zn7 N1 2.020 . S
Zn7 O16 2.039 . S
Zn7 O22 2.034 . S
Zn7 O26 2.025 . S
Zn7 O28 2.024 . S
C8 O27 1.246 . S
C8 O28 1.249 . S
N9 C10 1.307 . S
N9 C11 1.333 . S
N9 Zn15 2.020 . S
C10 N9 1.307 . S
C10 C14 1.370 . S
C10 H21 0.948 . S
C11 N9 1.333 . S
C11 C12 1.379 . S
C11 H19 0.952 . S
C12 C11 1.379 . S
C12 C13 1.390 . S
C12 H32 0.949 . S
C13 C12 1.390 . S
C13 C14 1.357 . S
C14 C10 1.370 . S
C14 C13 1.357 . S
C14 H33 0.950 . S
Zn15 N9 2.020 . S
Zn15 O18 2.025 . S
Zn15 O23 2.024 . S
Zn15 O25 2.039 . S
Zn15 O27 2.034 . S
O16 C0 1.251 . S
O16 Zn7 2.039 . S
C17 O22 1.246 . S
C17 O23 1.249 . S
O18 C0 1.254 . S
O18 Zn15 2.025 . S
H19 C11 0.952 . S
H20 C2 0.952 . S
H21 C10 0.948 . S
O22 Zn7 2.034 . S
O22 C17 1.246 . S
O23 Zn15 2.024 . S
O23 C17 1.249 . S
H24 C6 0.948 . S
O25 Zn15 2.039 . S
O25 C29 1.251 . S
O26 Zn7 2.025 . S
O26 C29 1.254 . S
O27 C8 1.246 . S
O27 Zn15 2.034 . S
O28 Zn7 2.024 . S
O28 C8 1.249 . S
C29 O25 1.251 . S
C29 O26 1.254 . S
H30 C3 0.949 . S
H31 C5 0.950 . S
H32 C12 0.949 . S
H33 C14 0.950 . S
C34 O50 1.251 . S
C34 O52 1.254 . S
N35 C36 1.333 . S
N35 C40 1.307 . S
N35 Zn41 2.020 . S
C36 N35 1.333 . S
C36 C37 1.379 . S
C36 H54 0.952 . S
C37 C36 1.379 . S
C37 C38 1.390 . S
C37 H64 0.949 . S
C38 C37 1.390 . S
C38 C39 1.357 . S
C39 C38 1.357 . S
C39 C40 1.370 . S
C39 H65 0.950 . S
C40 N35 1.307 . S
C40 C39 1.370 . S
C40 H58 0.948 . S
Zn41 N35 2.020 . S
Zn41 O50 2.039 . S
Zn41 O56 2.034 . S
Zn41 O60 2.025 . S
Zn41 O62 2.024 . S
C42 O61 1.246 . S
C42 O62 1.249 . S
N43 C44 1.307 . S
N43 C45 1.333 . S
N43 Zn49 2.020 . S
C44 N43 1.307 . S
C44 C48 1.370 . S
C44 H55 0.948 . S
C45 N43 1.333 . S
C45 C46 1.379 . S
C45 H53 0.952 . S
C46 C45 1.379 . S
C46 C47 1.390 . S
C46 H66 0.949 . S
C47 C46 1.390 . S
C47 C48 1.357 . S
C48 C44 1.370 . S
C48 C47 1.357 . S
C48 H67 0.950 . S
Zn49 N43 2.020 . S
Zn49 O52 2.025 . S
Zn49 O57 2.024 . S
Zn49 O59 2.039 . S
Zn49 O61 2.034 . S
O50 C34 1.251 . S
O50 Zn41 2.039 . S
C51 O56 1.246 . S
C51 O57 1.249 . S
O52 C34 1.254 . S
O52 Zn49 2.025 . S
H53 C45 0.952 . S
H54 C36 0.952 . S
H55 C44 0.948 . S
O56 Zn41 2.034 . S
O56 C51 1.246 . S
O57 Zn49 2.024 . S
O57 C51 1.249 . S
H58 C40 0.948 . S
O59 Zn49 2.039 . S
O59 C63 1.251 . S
O60 Zn41 2.025 . S
O60 C63 1.254 . S
O61 C42 1.246 . S
O61 Zn49 2.034 . S
O62 Zn41 2.024 . S
O62 C42 1.249 . S
C63 O59 1.251 . S
C63 O60 1.254 . S
H64 C37 0.949 . S
H65 C39 0.950 . S
H66 C46 0.949 . S
H67 C48 0.950 . S
C68 O84 1.251 . S
C68 O86 1.254 . S
N69 C70 1.333 . S
N69 C74 1.307 . S
N69 Zn75 2.020 . S
C70 N69 1.333 . S
C70 C71 1.379 . S
C70 H88 0.952 . S
C71 C70 1.379 . S
C71 C72 1.390 . S
C71 H98 0.949 . S
C72 C71 1.390 . S
C72 C73 1.357 . S
C73 C72 1.357 . S
C73 C74 1.370 . S
C73 H99 0.950 . S
C74 N69 1.307 . S
C74 C73 1.370 . S
C74 H92 0.948 . S
Zn75 N69 2.020 . S
Zn75 O84 2.039 . S
Zn75 O90 2.034 . S
Zn75 O94 2.025 . S
Zn75 O96 2.024 . S
C76 O95 1.246 . S
C76 O96 1.249 . S
N77 C78 1.307 . S
N77 C79 1.333 . S
N77 Zn83 2.020 . S
C78 N77 1.307 . S
C78 C82 1.370 . S
C78 H89 0.948 . S
C79 N77 1.333 . S
C79 C80 1.379 . S
C79 H87 0.952 . S
C80 C79 1.379 . S
C80 C81 1.390 . S
C80 H100 0.949 . S
C81 C80 1.390 . S
C81 C82 1.357 . S
C82 C78 1.370 . S
C82 C81 1.357 . S
C82 H101 0.950 . S
Zn83 N77 2.020 . S
Zn83 O86 2.025 . S
Zn83 O91 2.024 . S
Zn83 O93 2.039 . S
Zn83 O95 2.034 . S
O84 C68 1.251 . S
O84 Zn75 2.039 . S
C85 O90 1.246 . S
C85 O91 1.249 . S
O86 C68 1.254 . S
O86 Zn83 2.025 . S
H87 C79 0.952 . S
H88 C70 0.952 . S
H89 C78 0.948 . S
O90 Zn75 2.034 . S
O90 C85 1.246 . S
O91 Zn83 2.024 . S
O91 C85 1.249 . S
H92 C74 0.948 . S
O93 Zn83 2.039 . S
O93 C97 1.251 . S
O94 Zn75 2.025 . S
O94 C97 1.254 . S
O95 C76 1.246 . S
O95 Zn83 2.034 . S
O96 Zn75 2.024 . S
O96 C76 1.249 . S
C97 O93 1.251 . S
C97 O94 1.254 . S
H98 C71 0.949 . S
H99 C73 0.950 . S
H100 C80 0.949 . S
H101 C82 0.950 . S
C102 O118 1.251 . S
C102 O120 1.254 . S
N103 C104 1.333 . S
N103 C108 1.307 . S
N103 Zn109 2.020 . S
C104 N103 1.333 . S
C104 C105 1.379 . S
C104 H122 0.952 . S
C105 C104 1.379 . S
C105 C106 1.390 . S
C105 H132 0.949 . S
C106 C105 1.390 . S
C106 C107 1.357 . S
C107 C106 1.357 . S
C107 C108 1.370 . S
C107 H133 0.950 . S
C108 N103 1.307 . S
C108 C107 1.370 . S
C108 H126 0.948 . S
Zn109 N103 2.020 . S
Zn109 O118 2.039 . S
Zn109 O124 2.034 . S
Zn109 O128 2.025 . S
Zn109 O130 2.024 . S
C110 O129 1.246 . S
C110 O130 1.249 . S
N111 C112 1.307 . S
N111 C113 1.333 . S
N111 Zn117 2.020 . S
C112 N111 1.307 . S
C112 C116 1.370 . S
C112 H123 0.948 . S
C113 N111 1.333 . S
C113 C114 1.379 . S
C113 H121 0.952 . S
C114 C113 1.379 . S
C114 C115 1.390 . S
C114 H134 0.949 . S
C115 C114 1.390 . S
C115 C116 1.357 . S
C116 C112 1.370 . S
C116 C115 1.357 . S
C116 H135 0.950 . S
Zn117 N111 2.020 . S
Zn117 O120 2.025 . S
Zn117 O125 2.024 . S
Zn117 O127 2.039 . S
Zn117 O129 2.034 . S
O118 C102 1.251 . S
O118 Zn109 2.039 . S
C119 O124 1.246 . S
C119 O125 1.249 . S
O120 C102 1.254 . S
O120 Zn117 2.025 . S
H121 C113 0.952 . S
H122 C104 0.952 . S
H123 C112 0.948 . S
O124 Zn109 2.034 . S
O124 C119 1.246 . S
O125 Zn117 2.024 . S
O125 C119 1.249 . S
H126 C108 0.948 . S
O127 Zn117 2.039 . S
O127 C131 1.251 . S
O128 Zn109 2.025 . S
O128 C131 1.254 . S
O129 C110 1.246 . S
O129 Zn117 2.034 . S
O130 Zn109 2.024 . S
O130 C110 1.249 . S
C131 O127 1.251 . S
C131 O128 1.254 . S
H132 C105 0.949 . S
H133 C107 0.950 . S
H134 C114 0.949 . S
H135 C116 0.950 . S
C136 O152 1.251 . S
C136 O154 1.254 . S
N137 C138 1.333 . S
N137 C142 1.307 . S
N137 Zn143 2.020 . S
C138 N137 1.333 . S
C138 C139 1.379 . S
C138 H156 0.952 . S
C139 C138 1.379 . S
C139 C140 1.390 . S
C139 H166 0.949 . S
C140 C139 1.390 . S
C140 C141 1.357 . S
C141 C140 1.357 . S
C141 C142 1.370 . S
C141 H167 0.950 . S
C142 N137 1.307 . S
C142 C141 1.370 . S
C142 H160 0.948 . S
Zn143 N137 2.020 . S
Zn143 O152 2.039 . S
Zn143 O158 2.034 . S
Zn143 O162 2.025 . S
Zn143 O164 2.024 . S
C144 O163 1.246 . S
C144 O164 1.249 . S
N145 C146 1.307 . S
N145 C147 1.333 . S
N145 Zn151 2.020 . S
C146 N145 1.307 . S
C146 C150 1.370 . S
C146 H157 0.948 . S
C147 N145 1.333 . S
C147 C148 1.379 . S
C147 H155 0.952 . S
C148 C147 1.379 . S
C148 C149 1.390 . S
C148 H168 0.949 . S
C149 C148 1.390 . S
C149 C150 1.357 . S
C150 C146 1.370 . S
C150 C149 1.357 . S
C150 H169 0.950 . S
Zn151 N145 2.020 . S
Zn151 O154 2.025 . S
Zn151 O159 2.024 . S
Zn151 O161 2.039 . S
Zn151 O163 2.034 . S
O152 C136 1.251 . S
O152 Zn143 2.039 . S
C153 O158 1.246 . S
C153 O159 1.249 . S
O154 C136 1.254 . S
O154 Zn151 2.025 . S
H155 C147 0.952 . S
H156 C138 0.952 . S
H157 C146 0.948 . S
O158 Zn143 2.034 . S
O158 C153 1.246 . S
O159 Zn151 2.024 . S
O159 C153 1.249 . S
H160 C142 0.948 . S
O161 Zn151 2.039 . S
O161 C165 1.251 . S
O162 Zn143 2.025 . S
O162 C165 1.254 . S
O163 C144 1.246 . S
O163 Zn151 2.034 . S
O164 Zn143 2.024 . S
O164 C144 1.249 . S
C165 O161 1.251 . S
C165 O162 1.254 . S
H166 C139 0.949 . S
H167 C141 0.950 . S
H168 C148 0.949 . S
H169 C150 0.950 . S
C170 O186 1.251 . S
C170 O188 1.254 . S
N171 C172 1.333 . S
N171 C176 1.307 . S
N171 Zn177 2.020 . S
C172 N171 1.333 . S
C172 C173 1.379 . S
C172 H190 0.952 . S
C173 C172 1.379 . S
C173 C174 1.390 . S
C173 H200 0.949 . S
C174 C173 1.390 . S
C174 C175 1.357 . S
C175 C174 1.357 . S
C175 C176 1.370 . S
C175 H201 0.950 . S
C176 N171 1.307 . S
C176 C175 1.370 . S
C176 H194 0.948 . S
Zn177 N171 2.020 . S
Zn177 O186 2.039 . S
Zn177 O192 2.034 . S
Zn177 O196 2.025 . S
Zn177 O198 2.024 . S
C178 O197 1.246 . S
C178 O198 1.249 . S
N179 C180 1.307 . S
N179 C181 1.333 . S
N179 Zn185 2.020 . S
C180 N179 1.307 . S
C180 C184 1.370 . S
C180 H191 0.948 . S
C181 N179 1.333 . S
C181 C182 1.379 . S
C181 H189 0.952 . S
C182 C181 1.379 . S
C182 C183 1.390 . S
C182 H202 0.949 . S
C183 C182 1.390 . S
C183 C184 1.357 . S
C184 C180 1.370 . S
C184 C183 1.357 . S
C184 H203 0.950 . S
Zn185 N179 2.020 . S
Zn185 O188 2.025 . S
Zn185 O193 2.024 . S
Zn185 O195 2.039 . S
Zn185 O197 2.034 . S
O186 C170 1.251 . S
O186 Zn177 2.039 . S
C187 O192 1.246 . S
C187 O193 1.249 . S
O188 C170 1.254 . S
O188 Zn185 2.025 . S
H189 C181 0.952 . S
H190 C172 0.952 . S
H191 C180 0.948 . S
O192 Zn177 2.034 . S
O192 C187 1.246 . S
O193 Zn185 2.024 . S
O193 C187 1.249 . S
H194 C176 0.948 . S
O195 Zn185 2.039 . S
O195 C199 1.251 . S
O196 Zn177 2.025 . S
O196 C199 1.254 . S
O197 C178 1.246 . S
O197 Zn185 2.034 . S
O198 Zn177 2.024 . S
O198 C178 1.249 . S
C199 O195 1.251 . S
C199 O196 1.254 . S
H200 C173 0.949 . S
H201 C175 0.950 . S
H202 C182 0.949 . S
H203 C184 0.950 . S
C204 O220 1.251 . S
C204 O222 1.254 . S
N205 C206 1.333 . S
N205 C210 1.307 . S
N205 Zn211 2.020 . S
C206 N205 1.333 . S
C206 C207 1.379 . S
C206 H224 0.952 . S
C207 C206 1.379 . S
C207 C208 1.390 . S
C207 H234 0.949 . S
C208 C207 1.390 . S
C208 C209 1.357 . S
C209 C208 1.357 . S
C209 C210 1.370 . S
C209 H235 0.950 . S
C210 N205 1.307 . S
C210 C209 1.370 . S
C210 H228 0.948 . S
Zn211 N205 2.020 . S
Zn211 O220 2.039 . S
Zn211 O226 2.034 . S
Zn211 O230 2.025 . S
Zn211 O232 2.024 . S
C212 O231 1.246 . S
C212 O232 1.249 . S
N213 C214 1.307 . S
N213 C215 1.333 . S
N213 Zn219 2.020 . S
C214 N213 1.307 . S
C214 C218 1.370 . S
C214 H225 0.948 . S
C215 N213 1.333 . S
C215 C216 1.379 . S
C215 H223 0.952 . S
C216 C215 1.379 . S
C216 C217 1.390 . S
C216 H236 0.949 . S
C217 C216 1.390 . S
C217 C218 1.357 . S
C218 C214 1.370 . S
C218 C217 1.357 . S
C218 H237 0.950 . S
Zn219 N213 2.020 . S
Zn219 O222 2.025 . S
Zn219 O227 2.024 . S
Zn219 O229 2.039 . S
Zn219 O231 2.034 . S
O220 C204 1.251 . S
O220 Zn211 2.039 . S
C221 O226 1.246 . S
C221 O227 1.249 . S
O222 C204 1.254 . S
O222 Zn219 2.025 . S
H223 C215 0.952 . S
H224 C206 0.952 . S
H225 C214 0.948 . S
O226 Zn211 2.034 . S
O226 C221 1.246 . S
O227 Zn219 2.024 . S
O227 C221 1.249 . S
H228 C210 0.948 . S
O229 Zn219 2.039 . S
O229 C233 1.251 . S
O230 Zn211 2.025 . S
O230 C233 1.254 . S
O231 C212 1.246 . S
O231 Zn219 2.034 . S
O232 Zn211 2.024 . S
O232 C212 1.249 . S
C233 O229 1.251 . S
C233 O230 1.254 . S
H234 C207 0.949 . S
H235 C209 0.950 . S
H236 C216 0.949 . S
H237 C218 0.950 . S
C238 O254 1.251 . S
C238 O256 1.254 . S
N239 C240 1.333 . S
N239 C244 1.307 . S
N239 Zn245 2.020 . S
C240 N239 1.333 . S
C240 C241 1.379 . S
C240 H258 0.952 . S
C241 C240 1.379 . S
C241 C242 1.390 . S
C241 H268 0.949 . S
C242 C241 1.390 . S
C242 C243 1.357 . S
C243 C242 1.357 . S
C243 C244 1.370 . S
C243 H269 0.950 . S
C244 N239 1.307 . S
C244 C243 1.370 . S
C244 H262 0.948 . S
Zn245 N239 2.020 . S
Zn245 O254 2.039 . S
Zn245 O260 2.034 . S
Zn245 O264 2.025 . S
Zn245 O266 2.024 . S
C246 O265 1.246 . S
C246 O266 1.249 . S
N247 C248 1.307 . S
N247 C249 1.333 . S
N247 Zn253 2.020 . S
C248 N247 1.307 . S
C248 C252 1.370 . S
C248 H259 0.948 . S
C249 N247 1.333 . S
C249 C250 1.379 . S
C249 H257 0.952 . S
C250 C249 1.379 . S
C250 C251 1.390 . S
C250 H270 0.949 . S
C251 C250 1.390 . S
C251 C252 1.357 . S
C252 C248 1.370 . S
C252 C251 1.357 . S
C252 H271 0.950 . S
Zn253 N247 2.020 . S
Zn253 O256 2.025 . S
Zn253 O261 2.024 . S
Zn253 O263 2.039 . S
Zn253 O265 2.034 . S
O254 C238 1.251 . S
O254 Zn245 2.039 . S
C255 O260 1.246 . S
C255 O261 1.249 . S
O256 C238 1.254 . S
O256 Zn253 2.025 . S
H257 C249 0.952 . S
H258 C240 0.952 . S
H259 C248 0.948 . S
O260 Zn245 2.034 . S
O260 C255 1.246 . S
O261 Zn253 2.024 . S
O261 C255 1.249 . S
H262 C244 0.948 . S
O263 Zn253 2.039 . S
O263 C267 1.251 . S
O264 Zn245 2.025 . S
O264 C267 1.254 . S
O265 C246 1.246 . S
O265 Zn253 2.034 . S
O266 Zn245 2.024 . S
O266 C246 1.249 . S
C267 O263 1.251 . S
C267 O264 1.254 . S
H268 C241 0.949 . S
H269 C243 0.950 . S
H270 C250 0.949 . S
H271 C252 0.950 . S
Co272 O275 2.042 . S
Co272 O282 2.264 . S
Co272 O301 2.286 . S
Co272 O302 2.069 . S
Co272 O304 2.015 1_455 S
Co273 O275 2.122 . S
Co273 O281 2.073 . S
Co273 O282 2.327 . S
Co273 O283 1.976 1_455 S
Co274 O275 2.085 1_545 S
Co274 O277 2.089 1_455 S
Co274 O284 2.110 1_445 S
Co274 O285 2.145 . S
Co274 O289 2.112 . S
Co274 O303 2.142 1_445 S
O275 Co272 2.042 . S
O275 Co273 2.122 . S
O275 Co274 2.085 1_565 S
O275 H276 0.980 . S
H276 O275 0.980 . S
O277 Co274 2.089 1_655 S
O277 Co278 2.042 . S
O277 Co279 2.122 . S
O277 H280 0.980 . S
Co278 O277 2.042 . S
Co278 O286 2.286 . S
Co278 O287 2.069 . S
Co278 O288 2.015 1_655 S
Co278 O291 2.264 . S
Co279 O277 2.122 . S
Co279 O290 1.976 1_655 S
Co279 O291 2.327 . S
Co279 O292 2.073 . S
H280 O277 0.980 . S
O281 Co273 2.073 . S
O281 C296 1.245 . S
O282 Co272 2.264 . S
O282 Co273 2.327 . S
O282 C296 1.257 . S
O283 Co273 1.976 1_655 S
O283 C295 1.251 . S
O284 Co274 2.110 1_665 S
O284 C295 1.274 . S
O285 Co274 2.145 . S
O285 C298 1.246 . S
O286 Co278 2.286 . S
O286 C297 1.259 . S
O287 Co278 2.069 . S
O287 C297 1.289 . S
O288 Co278 2.015 1_455 S
O288 C298 1.257 . S
O289 Co274 2.112 . S
O289 C299 1.274 . S
O290 Co279 1.976 1_455 S
O290 C299 1.251 . S
O291 Co278 2.264 . S
O291 Co279 2.327 . S
O291 C300 1.257 . S
O292 Co279 2.073 . S
O292 C300 1.245 . S
C293 O301 1.259 . S
C293 O302 1.289 . S
C294 O303 1.246 . S
C294 O304 1.257 . S
C295 O283 1.251 . S
C295 O284 1.274 . S
C296 O281 1.245 . S
C296 O282 1.257 . S
C297 O286 1.259 . S
C297 O287 1.289 . S
C298 O285 1.246 . S
C298 O288 1.257 . S
C299 O289 1.274 . S
C299 O290 1.251 . S
C300 O291 1.257 . S
C300 O292 1.245 . S
O301 Co272 2.286 . S
O301 C293 1.259 . S
O302 Co272 2.069 . S
O302 C293 1.289 . S
O303 Co274 2.142 1_665 S
O303 C294 1.246 . S
O304 Co272 2.015 1_655 S
O304 C294 1.257 . S
Co305 O308 2.042 1_556 S
Co305 O315 2.264 1_556 S
Co305 O334 2.286 . S
Co305 O335 2.069 . S
Co305 O337 2.015 . S
Co306 O308 2.122 . S
Co306 O314 2.073 . S
Co306 O315 2.327 . S
Co306 O316 1.976 . S
Co307 O308 2.085 1_545 S
Co307 O310 2.089 1_554 S
Co307 O317 2.110 1_545 S
Co307 O318 2.145 . S
Co307 O322 2.112 1_554 S
Co307 O336 2.142 1_544 S
O308 Co305 2.042 1_554 S
O308 Co306 2.122 . S
O308 Co307 2.085 1_565 S
O308 H309 0.980 . S
H309 O308 0.980 . S
O310 Co307 2.089 1_556 S
O310 Co311 2.042 1_556 S
O310 Co312 2.122 . S
O310 H313 0.980 . S
Co311 O310 2.042 1_554 S
Co311 O319 2.286 . S
Co311 O320 2.069 . S
Co311 O321 2.015 . S
Co311 O324 2.264 1_554 S
Co312 O310 2.122 . S
Co312 O323 1.976 . S
Co312 O324 2.327 . S
Co312 O325 2.073 . S
H313 O310 0.980 . S
O314 Co306 2.073 . S
O314 C329 1.245 . S
O315 Co305 2.264 1_554 S
O315 Co306 2.327 . S
O315 C329 1.257 . S
O316 Co306 1.976 . S
O316 C328 1.251 . S
O317 Co307 2.110 1_565 S
O317 C328 1.274 . S
O318 Co307 2.145 . S
O318 C331 1.246 . S
O319 Co311 2.286 . S
O319 C330 1.259 . S
O320 Co311 2.069 . S
O320 C330 1.289 . S
O321 Co311 2.015 . S
O321 C331 1.257 . S
O322 Co307 2.112 1_556 S
O322 C332 1.274 . S
O323 Co312 1.976 . S
O323 C332 1.251 . S
O324 Co311 2.264 1_556 S
O324 Co312 2.327 . S
O324 C333 1.257 . S
O325 Co312 2.073 . S
O325 C333 1.245 . S
C326 O334 1.259 . S
C326 O335 1.289 . S
C327 O336 1.246 . S
C327 O337 1.257 . S
C328 O316 1.251 . S
C328 O317 1.274 . S
C329 O314 1.245 . S
C329 O315 1.257 . S
C330 O319 1.259 . S
C330 O320 1.289 . S
C331 O318 1.246 . S
C331 O321 1.257 . S
C332 O322 1.274 . S
C332 O323 1.251 . S
C333 O324 1.257 . S
C333 O325 1.245 . S
O334 Co305 2.286 . S
O334 C326 1.259 . S
O335 Co305 2.069 . S
O335 C326 1.289 . S
O336 Co307 2.142 1_566 S
O336 C327 1.246 . S
O337 Co305 2.015 . S
O337 C327 1.257 . S
Co338 O341 2.042 1_556 S
Co338 O348 2.264 1_556 S
Co338 O367 2.286 . S
Co338 O368 2.069 . S
Co338 O370 2.015 1_455 S
Co339 O341 2.122 . S
Co339 O347 2.073 . S
Co339 O348 2.327 . S
Co339 O349 1.976 1_455 S
Co340 O341 2.087 . S
Co340 O343 2.087 1_454 S
Co340 O350 2.111 1_455 S
Co340 O351 2.143 . S
Co340 O355 2.111 1_554 S
Co340 O369 2.143 1_454 S
O341 Co338 2.042 1_554 S
O341 Co339 2.122 . S
O341 Co340 2.087 . S
O341 H342 0.980 . S
H342 O341 0.980 . S
O343 Co340 2.087 1_656 S
O343 Co344 2.042 1_556 S
O343 Co345 2.122 . S
O343 H346 0.980 . S
Co344 O343 2.042 1_554 S
Co344 O352 2.286 . S
Co344 O353 2.069 . S
Co344 O354 2.015 1_655 S
Co344 O357 2.264 1_554 S
Co345 O343 2.122 . S
Co345 O356 1.976 1_655 S
Co345 O357 2.327 . S
Co345 O358 2.073 . S
H346 O343 0.980 . S
O347 Co339 2.073 . S
O347 C362 1.245 . S
O348 Co338 2.264 1_554 S
O348 Co339 2.327 . S
O348 C362 1.257 . S
O349 Co339 1.976 1_655 S
O349 C361 1.251 . S
O350 Co340 2.111 1_655 S
O350 C361 1.274 . S
O351 Co340 2.143 . S
O351 C364 1.246 . S
O352 Co344 2.286 . S
O352 C363 1.259 . S
O353 Co344 2.069 . S
O353 C363 1.289 . S
O354 Co344 2.015 1_455 S
O354 C364 1.257 . S
O355 Co340 2.111 1_556 S
O355 C365 1.274 . S
O356 Co345 1.976 1_455 S
O356 C365 1.251 . S
O357 Co344 2.264 1_556 S
O357 Co345 2.327 . S
O357 C366 1.257 . S
O358 Co345 2.073 . S
O358 C366 1.245 . S
C359 O367 1.259 . S
C359 O368 1.289 . S
C360 O369 1.246 . S
C360 O370 1.257 . S
C361 O349 1.251 . S
C361 O350 1.274 . S
C362 O347 1.245 . S
C362 O348 1.257 . S
C363 O352 1.259 . S
C363 O353 1.289 . S
C364 O351 1.246 . S
C364 O354 1.257 . S
C365 O355 1.274 . S
C365 O356 1.251 . S
C366 O357 1.257 . S
C366 O358 1.245 . S
O367 Co338 2.286 . S
O367 C359 1.259 . S
O368 Co338 2.069 . S
O368 C359 1.289 . S
O369 Co340 2.143 1_656 S
O369 C360 1.246 . S
O370 Co338 2.015 1_655 S
O370 C360 1.257 . S
Co371 O374 2.042 1_556 S
Co371 O381 2.264 1_556 S
Co371 O400 2.286 . S
Co371 O401 2.069 . S
Co371 O403 2.015 . S
Co372 O374 2.122 . S
Co372 O380 2.073 . S
Co372 O381 2.327 . S
Co372 O382 1.976 . S
Co373 O374 2.087 . S
Co373 O376 2.087 1_554 S
Co373 O383 2.111 . S
Co373 O384 2.143 . S
Co373 O388 2.111 1_554 S
Co373 O402 2.143 1_554 S
O374 Co371 2.042 1_554 S
O374 Co372 2.122 . S
O374 Co373 2.087 . S
O374 H375 0.980 . S
H375 O374 0.980 . S
O376 Co373 2.087 1_556 S
O376 Co377 2.042 1_556 S
O376 Co378 2.122 . S
O376 H379 0.980 . S
Co377 O376 2.042 1_554 S
Co377 O385 2.286 . S
Co377 O386 2.069 . S
Co377 O387 2.015 . S
Co377 O390 2.264 1_554 S
Co378 O376 2.122 . S
Co378 O389 1.976 . S
Co378 O390 2.327 . S
Co378 O391 2.073 . S
H379 O376 0.980 . S
O380 Co372 2.073 . S
O380 C395 1.245 . S
O381 Co371 2.264 1_554 S
O381 Co372 2.327 . S
O381 C395 1.257 . S
O382 Co372 1.976 . S
O382 C394 1.251 . S
O383 Co373 2.111 . S
O383 C394 1.274 . S
O384 Co373 2.143 . S
O384 C397 1.246 . S
O385 Co377 2.286 . S
O385 C396 1.259 . S
O386 Co377 2.069 . S
O386 C396 1.289 . S
O387 Co377 2.015 . S
O387 C397 1.257 . S
O388 Co373 2.111 1_556 S
O388 C398 1.274 . S
O389 Co378 1.976 . S
O389 C398 1.251 . S
O390 Co377 2.264 1_556 S
O390 Co378 2.327 . S
O390 C399 1.257 . S
O391 Co378 2.073 . S
O391 C399 1.245 . S
C392 O400 1.259 . S
C392 O401 1.289 . S
C393 O402 1.246 . S
C393 O403 1.257 . S
C394 O382 1.251 . S
C394 O383 1.274 . S
C395 O380 1.245 . S
C395 O381 1.257 . S
C396 O385 1.259 . S
C396 O386 1.289 . S
C397 O384 1.246 . S
C397 O387 1.257 . S
C398 O388 1.274 . S
C398 O389 1.251 . S
C399 O390 1.257 . S
C399 O391 1.245 . S
O400 Co371 2.286 . S
O400 C392 1.259 . S
O401 Co371 2.069 . S
O401 C392 1.289 . S
O402 Co373 2.143 1_556 S
O402 C393 1.246 . S
O403 Co371 2.015 . S
O403 C393 1.257 . S
Co404 O407 2.042 . S
Co404 O414 2.264 . S
Co404 O433 2.286 . S
Co404 O434 2.069 . S
Co404 O436 2.015 . S
Co405 O407 2.122 . S
Co405 O413 2.073 . S
Co405 O414 2.327 . S
Co405 O415 1.976 . S
Co406 O407 2.087 . S
Co406 O409 2.087 1_455 S
Co406 O416 2.111 . S
Co406 O417 2.143 1_455 S
Co406 O421 2.111 1_455 S
Co406 O435 2.143 . S
O407 Co404 2.042 . S
O407 Co405 2.122 . S
O407 Co406 2.087 . S
O407 H408 0.980 . S
H408 O407 0.980 . S
O409 Co406 2.087 1_655 S
O409 Co410 2.042 . S
O409 Co411 2.122 . S
O409 H412 0.980 . S
Co410 O409 2.042 . S
Co410 O418 2.286 . S
Co410 O419 2.069 . S
Co410 O420 2.015 . S
Co410 O423 2.264 . S
Co411 O409 2.122 . S
Co411 O422 1.976 . S
Co411 O423 2.327 . S
Co411 O424 2.073 . S
H412 O409 0.980 . S
O413 Co405 2.073 . S
O413 C428 1.245 . S
O414 Co404 2.264 . S
O414 Co405 2.327 . S
O414 C428 1.257 . S
O415 Co405 1.976 . S
O415 C427 1.251 . S
O416 Co406 2.111 . S
O416 C427 1.274 . S
O417 Co406 2.143 1_655 S
O417 C430 1.246 . S
O418 Co410 2.286 . S
O418 C429 1.259 . S
O419 Co410 2.069 . S
O419 C429 1.289 . S
O420 Co410 2.015 . S
O420 C430 1.257 . S
O421 Co406 2.111 1_655 S
O421 C431 1.274 . S
O422 Co411 1.976 . S
O422 C431 1.251 . S
O423 Co410 2.264 . S
O423 Co411 2.327 . S
O423 C432 1.257 . S
O424 Co411 2.073 . S
O424 C432 1.245 . S
C425 O433 1.259 . S
C425 O434 1.289 . S
C426 O435 1.246 . S
C426 O436 1.257 . S
C427 O415 1.251 . S
C427 O416 1.274 . S
C428 O413 1.245 . S
C428 O414 1.257 . S
C429 O418 1.259 . S
C429 O419 1.289 . S
C430 O417 1.246 . S
C430 O420 1.257 . S
C431 O421 1.274 . S
C431 O422 1.251 . S
C432 O423 1.257 . S
C432 O424 1.245 . S
O433 Co404 2.286 . S
O433 C425 1.259 . S
O434 Co404 2.069 . S
O434 C425 1.289 . S
O435 Co406 2.143 . S
O435 C426 1.246 . S
O436 Co404 2.015 . S
O436 C426 1.257 . S
Co437 O440 2.042 . S
Co437 O447 2.264 . S
Co437 O466 2.286 . S
Co437 O467 2.069 . S
Co437 O469 2.015 1_565 S
Co438 O440 2.122 . S
Co438 O446 2.073 . S
Co438 O447 2.327 . S
Co438 O448 1.976 1_565 S
Co439 O440 2.085 1_545 S
Co439 O442 2.089 . S
Co439 O449 2.113 . S
Co439 O450 2.142 1_545 S
Co439 O454 2.109 1_545 S
Co439 O468 2.145 . S
O440 Co437 2.042 . S
O440 Co438 2.122 . S
O440 Co439 2.085 1_565 S
O440 H441 0.980 . S
H441 O440 0.980 . S
O442 Co439 2.089 . S
O442 Co443 2.042 . S
O442 Co444 2.122 . S
O442 H445 0.980 . S
Co443 O442 2.042 . S
Co443 O451 2.286 . S
Co443 O452 2.069 . S
Co443 O453 2.015 1_545 S
Co443 O456 2.264 . S
Co444 O442 2.122 . S
Co444 O455 1.976 1_545 S
Co444 O456 2.327 . S
Co444 O457 2.073 . S
H445 O442 0.980 . S
O446 Co438 2.073 . S
O446 C461 1.245 . S
O447 Co437 2.264 . S
O447 Co438 2.327 . S
O447 C461 1.257 . S
O448 Co438 1.976 1_545 S
O448 C460 1.251 . S
O449 Co439 2.113 . S
O449 C460 1.274 . S
O450 Co439 2.142 1_565 S
O450 C463 1.246 . S
O451 Co443 2.286 . S
O451 C462 1.259 . S
O452 Co443 2.069 . S
O452 C462 1.289 . S
O453 Co443 2.015 1_565 S
O453 C463 1.257 . S
O454 Co439 2.109 1_565 S
O454 C464 1.274 . S
O455 Co444 1.976 1_565 S
O455 C464 1.251 . S
O456 Co443 2.264 . S
O456 Co444 2.327 . S
O456 C465 1.257 . S
O457 Co444 2.073 . S
O457 C465 1.245 . S
C458 O466 1.259 . S
C458 O467 1.289 . S
C459 O468 1.246 . S
C459 O469 1.257 . S
C460 O448 1.251 . S
C460 O449 1.274 . S
C461 O446 1.245 . S
C461 O447 1.257 . S
C462 O451 1.259 . S
C462 O452 1.289 . S
C463 O450 1.246 . S
C463 O453 1.257 . S
C464 O454 1.274 . S
C464 O455 1.251 . S
C465 O456 1.257 . S
C465 O457 1.245 . S
O466 Co437 2.286 . S
O466 C458 1.259 . S
O467 Co437 2.069 . S
O467 C458 1.289 . S
O468 Co439 2.145 . S
O468 C459 1.246 . S
O469 Co437 2.015 1_545 S
O469 C459 1.257 . S
H470 C478 0.950 . S
H471 C483 0.950 . S
H472 C480 0.950 . S
H473 C482 0.950 . S
H474 C484 0.950 . S
H475 C486 0.950 . S
H476 C488 0.950 . S
H477 C489 0.950 . S
C478 H470 0.950 . S
C478 C479 1.386 . S
C478 C480 1.391 . S
C479 C478 1.386 . S
C479 C483 1.393 . S
C480 H472 0.950 . S
C480 C478 1.391 . S
C480 C481 1.400 . S
C481 C480 1.400 . S
C481 C482 1.398 . S
C481 C487 1.491 . S
C482 H473 0.950 . S
C482 C481 1.398 . S
C482 C483 1.391 . S
C483 H471 0.950 . S
C483 C479 1.393 . S
C483 C482 1.391 . S
C484 H474 0.950 . S
C484 C485 1.386 . S
C484 C486 1.391 . S
C485 C484 1.386 . S
C485 C489 1.393 . S
C486 H475 0.950 . S
C486 C484 1.391 . S
C486 C487 1.400 . S
C487 C481 1.491 . S
C487 C486 1.400 . S
C487 C488 1.398 . S
C488 H476 0.950 . S
C488 C487 1.398 . S
C488 C489 1.391 . S
C489 H477 0.950 . S
C489 C485 1.393 . S
C489 C488 1.391 . S
H490 C498 0.950 . S
H491 C503 0.950 . S
H492 C500 0.950 . S
H493 C502 0.950 . S
H494 C504 0.950 . S
H495 C506 0.950 . S
H496 C508 0.950 . S
H497 C509 0.950 . S
C498 H490 0.950 . S
C498 C499 1.386 . S
C498 C500 1.391 . S
C499 C498 1.386 . S
C499 C503 1.393 . S
C500 H492 0.950 . S
C500 C498 1.391 . S
C500 C501 1.400 . S
C501 C500 1.400 . S
C501 C502 1.398 . S
C501 C507 1.491 . S
C502 H493 0.950 . S
C502 C501 1.398 . S
C502 C503 1.391 . S
C503 H491 0.950 . S
C503 C499 1.393 . S
C503 C502 1.391 . S
C504 H494 0.950 . S
C504 C505 1.386 . S
C504 C506 1.391 . S
C505 C504 1.386 . S
C505 C509 1.393 . S
C506 H495 0.950 . S
C506 C504 1.391 . S
C506 C507 1.400 . S
C507 C501 1.491 . S
C507 C506 1.400 . S
C507 C508 1.398 . S
C508 H496 0.950 . S
C508 C507 1.398 . S
C508 C509 1.391 . S
C509 H497 0.950 . S
C509 C505 1.393 . S
C509 C508 1.391 . S
H510 C518 0.950 . S
H511 C523 0.950 . S
H512 C520 0.950 . S
H513 C522 0.950 . S
H514 C524 0.950 . S
H515 C526 0.950 . S
H516 C528 0.950 . S
H517 C529 0.950 . S
C518 H510 0.950 . S
C518 C519 1.386 . S
C518 C520 1.391 . S
C519 C518 1.386 . S
C519 C523 1.393 . S
C520 H512 0.950 . S
C520 C518 1.391 . S
C520 C521 1.400 . S
C521 C520 1.400 . S
C521 C522 1.398 . S
C521 C527 1.491 . S
C522 H513 0.950 . S
C522 C521 1.398 . S
C522 C523 1.391 . S
C523 H511 0.950 . S
C523 C519 1.393 . S
C523 C522 1.391 . S
C524 H514 0.950 . S
C524 C525 1.386 . S
C524 C526 1.391 . S
C525 C524 1.386 . S
C525 C529 1.393 . S
C526 H515 0.950 . S
C526 C524 1.391 . S
C526 C527 1.400 . S
C527 C521 1.491 . S
C527 C526 1.400 . S
C527 C528 1.398 . S
C528 H516 0.950 . S
C528 C527 1.398 . S
C528 C529 1.391 . S
C529 H517 0.950 . S
C529 C525 1.393 . S
C529 C528 1.391 . S
H530 C538 0.950 . S
H531 C543 0.950 . S
H532 C540 0.950 . S
H533 C542 0.950 . S
H534 C544 0.950 . S
H535 C546 0.950 . S
H536 C548 0.950 . S
H537 C549 0.950 . S
C538 H530 0.950 . S
C538 C539 1.386 . S
C538 C540 1.391 . S
C539 C538 1.386 . S
C539 C543 1.393 . S
C540 H532 0.950 . S
C540 C538 1.391 . S
C540 C541 1.400 . S
C541 C540 1.400 . S
C541 C542 1.398 . S
C541 C547 1.491 . S
C542 H533 0.950 . S
C542 C541 1.398 . S
C542 C543 1.391 . S
C543 H531 0.950 . S
C543 C539 1.393 . S
C543 C542 1.391 . S
C544 H534 0.950 . S
C544 C545 1.386 . S
C544 C546 1.391 . S
C545 C544 1.386 . S
C545 C549 1.393 . S
C546 H535 0.950 . S
C546 C544 1.391 . S
C546 C547 1.400 . S
C547 C541 1.491 . S
C547 C546 1.400 . S
C547 C548 1.398 . S
C548 H536 0.950 . S
C548 C547 1.398 . S
C548 C549 1.391 . S
C549 H537 0.950 . S
C549 C545 1.393 . S
C549 C548 1.391 . S
H550 C558 0.950 . S
H551 C563 0.950 . S
H552 C560 0.950 . S
H553 C562 0.950 . S
H554 C564 0.950 . S
H555 C566 0.950 . S
H556 C568 0.950 . S
H557 C569 0.950 . S
C558 H550 0.950 . S
C558 C559 1.386 . S
C558 C560 1.391 . S
C559 C558 1.386 . S
C559 C563 1.393 . S
C560 H552 0.950 . S
C560 C558 1.391 . S
C560 C561 1.400 . S
C561 C560 1.400 . S
C561 C562 1.398 . S
C561 C567 1.491 . S
C562 H553 0.950 . S
C562 C561 1.398 . S
C562 C563 1.391 . S
C563 H551 0.950 . S
C563 C559 1.393 . S
C563 C562 1.391 . S
C564 H554 0.950 . S
C564 C565 1.386 . S
C564 C566 1.391 . S
C565 C564 1.386 . S
C565 C569 1.393 . S
C566 H555 0.950 . S
C566 C564 1.391 . S
C566 C567 1.400 . S
C567 C561 1.491 . S
C567 C566 1.400 . S
C567 C568 1.398 . S
C568 H556 0.950 . S
C568 C567 1.398 . S
C568 C569 1.391 . S
C569 H557 0.950 . S
C569 C565 1.393 . S
C569 C568 1.391 . S
H570 C578 0.950 . S
H571 C583 0.950 . S
H572 C580 0.950 . S
H573 C582 0.950 . S
H574 C584 0.950 . S
H575 C586 0.950 . S
H576 C588 0.950 . S
H577 C589 0.950 . S
C578 H570 0.950 . S
C578 C579 1.386 . S
C578 C580 1.391 . S
C579 C578 1.386 . S
C579 C583 1.393 . S
C580 H572 0.950 . S
C580 C578 1.391 . S
C580 C581 1.400 . S
C581 C580 1.400 . S
C581 C582 1.398 . S
C581 C587 1.491 . S
C582 H573 0.950 . S
C582 C581 1.398 . S
C582 C583 1.391 . S
C583 H571 0.950 . S
C583 C579 1.393 . S
C583 C582 1.391 . S
C584 H574 0.950 . S
C584 C585 1.386 . S
C584 C586 1.391 . S
C585 C584 1.386 . S
C585 C589 1.393 . S
C586 H575 0.950 . S
C586 C584 1.391 . S
C586 C587 1.400 . S
C587 C581 1.491 . S
C587 C586 1.400 . S
C587 C588 1.398 . S
C588 H576 0.950 . S
C588 C587 1.398 . S
C588 C589 1.391 . S
C589 H577 0.950 . S
C589 C585 1.393 . S
C589 C588 1.391 . S
H590 C598 0.950 . S
H591 C603 0.950 . S
H592 C600 0.950 . S
H593 C602 0.950 . S
H594 C604 0.950 . S
H595 C606 0.950 . S
H596 C608 0.950 . S
H597 C609 0.950 . S
C598 H590 0.950 . S
C598 C599 1.386 . S
C598 C600 1.391 . S
C599 C598 1.386 . S
C599 C603 1.393 . S
C600 H592 0.950 . S
C600 C598 1.391 . S
C600 C601 1.400 . S
C601 C600 1.400 . S
C601 C602 1.398 . S
C601 C607 1.491 . S
C602 H593 0.950 . S
C602 C601 1.398 . S
C602 C603 1.391 . S
C603 H591 0.950 . S
C603 C599 1.393 . S
C603 C602 1.391 . S
C604 H594 0.950 . S
C604 C605 1.386 . S
C604 C606 1.391 . S
C605 C604 1.386 . S
C605 C609 1.393 . S
C606 H595 0.950 . S
C606 C604 1.391 . S
C606 C607 1.400 . S
C607 C601 1.491 . S
C607 C606 1.400 . S
C607 C608 1.398 . S
C608 H596 0.950 . S
C608 C607 1.398 . S
C608 C609 1.391 . S
C609 H597 0.950 . S
C609 C605 1.393 . S
C609 C608 1.391 . S
H610 C618 0.950 . S
H611 C623 0.950 . S
H612 C620 0.950 . S
H613 C622 0.950 . S
H614 C624 0.950 . S
H615 C626 0.950 . S
H616 C628 0.950 . S
H617 C629 0.950 . S
C618 H610 0.950 . S
C618 C619 1.386 . S
C618 C620 1.391 . S
C619 C618 1.386 . S
C619 C623 1.393 . S
C620 H612 0.950 . S
C620 C618 1.391 . S
C620 C621 1.400 . S
C621 C620 1.400 . S
C621 C622 1.398 . S
C621 C627 1.491 . S
C622 H613 0.950 . S
C622 C621 1.398 . S
C622 C623 1.391 . S
C623 H611 0.950 . S
C623 C619 1.393 . S
C623 C622 1.391 . S
C624 H614 0.950 . S
C624 C625 1.386 . S
C624 C626 1.391 . S
C625 C624 1.386 . S
C625 C629 1.393 . S
C626 H615 0.950 . S
C626 C624 1.391 . S
C626 C627 1.400 . S
C627 C621 1.491 . S
C627 C626 1.400 . S
C627 C628 1.398 . S
C628 H616 0.950 . S
C628 C627 1.398 . S
C628 C629 1.391 . S
C629 H617 0.950 . S
C629 C625 1.393 . S
C629 C628 1.391 . S
H630 C638 0.950 . S
H631 C643 0.950 . S
H632 C640 0.950 . S
H633 C642 0.950 . S
H634 C644 0.950 . S
H635 C646 0.950 . S
H636 C648 0.950 . S
H637 C649 0.950 . S
C638 H630 0.950 . S
C638 C639 1.386 . S
C638 C640 1.391 . S
C639 C638 1.386 . S
C639 C643 1.393 . S
C640 H632 0.950 . S
C640 C638 1.391 . S
C640 C641 1.400 . S
C641 C640 1.400 . S
C641 C642 1.398 . S
C641 C647 1.491 . S
C642 H633 0.950 . S
C642 C641 1.398 . S
C642 C643 1.391 . S
C643 H631 0.950 . S
C643 C639 1.393 . S
C643 C642 1.391 . S
C644 H634 0.950 . S
C644 C645 1.386 . S
C644 C646 1.391 . S
C645 C644 1.386 . S
C645 C649 1.393 . S
C646 H635 0.950 . S
C646 C644 1.391 . S
C646 C647 1.400 . S
C647 C641 1.491 . S
C647 C646 1.400 . S
C647 C648 1.398 . S
C648 H636 0.950 . S
C648 C647 1.398 . S
C648 C649 1.391 . S
C649 H637 0.950 . S
C649 C645 1.393 . S
C649 C648 1.391 . S
H650 C658 0.950 . S
H651 C663 0.950 . S
H652 C660 0.950 . S
H653 C662 0.950 . S
H654 C664 0.950 . S
H655 C666 0.950 . S
H656 C668 0.950 . S
H657 C669 0.950 . S
C658 H650 0.950 . S
C658 C659 1.386 . S
C658 C660 1.391 . S
C659 C658 1.386 . S
C659 C663 1.393 . S
C660 H652 0.950 . S
C660 C658 1.391 . S
C660 C661 1.400 . S
C661 C660 1.400 . S
C661 C662 1.398 . S
C661 C667 1.491 . S
C662 H653 0.950 . S
C662 C661 1.398 . S
C662 C663 1.391 . S
C663 H651 0.950 . S
C663 C659 1.393 . S
C663 C662 1.391 . S
C664 H654 0.950 . S
C664 C665 1.386 . S
C664 C666 1.391 . S
C665 C664 1.386 . S
C665 C669 1.393 . S
C666 H655 0.950 . S
C666 C664 1.391 . S
C666 C667 1.400 . S
C667 C661 1.491 . S
C667 C666 1.400 . S
C667 C668 1.398 . S
C668 H656 0.950 . S
C668 C667 1.398 . S
C668 C669 1.391 . S
C669 H657 0.950 . S
C669 C665 1.393 . S
C669 C668 1.391 . S
H670 C678 0.950 . S
H671 C683 0.950 . S
H672 C680 0.950 . S
H673 C682 0.950 . S
H674 C684 0.950 . S
H675 C686 0.950 . S
H676 C688 0.950 . S
H677 C689 0.950 . S
C678 H670 0.950 . S
C678 C679 1.386 . S
C678 C680 1.391 . S
C679 C678 1.386 . S
C679 C683 1.393 . S
C680 H672 0.950 . S
C680 C678 1.391 . S
C680 C681 1.400 . S
C681 C680 1.400 . S
C681 C682 1.398 . S
C681 C687 1.491 . S
C682 H673 0.950 . S
C682 C681 1.398 . S
C682 C683 1.391 . S
C683 H671 0.950 . S
C683 C679 1.393 . S
C683 C682 1.391 . S
C684 H674 0.950 . S
C684 C685 1.386 . S
C684 C686 1.391 . S
C685 C684 1.386 . S
C685 C689 1.393 . S
C686 H675 0.950 . S
C686 C684 1.391 . S
C686 C687 1.400 . S
C687 C681 1.491 . S
C687 C686 1.400 . S
C687 C688 1.398 . S
C688 H676 0.950 . S
C688 C687 1.398 . S
C688 C689 1.391 . S
C689 H677 0.950 . S
C689 C685 1.393 . S
C689 C688 1.391 . S
H690 C698 0.950 . S
H691 C703 0.950 . S
H692 C700 0.950 . S
H693 C702 0.950 . S
H694 C704 0.950 . S
H695 C706 0.950 . S
H696 C708 0.950 . S
H697 C709 0.950 . S
C698 H690 0.950 . S
C698 C699 1.386 . S
C698 C700 1.391 . S
C699 C698 1.386 . S
C699 C703 1.393 . S
C700 H692 0.950 . S
C700 C698 1.391 . S
C700 C701 1.400 . S
C701 C700 1.400 . S
C701 C702 1.398 . S
C701 C707 1.491 . S
C702 H693 0.950 . S
C702 C701 1.398 . S
C702 C703 1.391 . S
C703 H691 0.950 . S
C703 C699 1.393 . S
C703 C702 1.391 . S
C704 H694 0.950 . S
C704 C705 1.386 . S
C704 C706 1.391 . S
C705 C704 1.386 . S
C705 C709 1.393 . S
C706 H695 0.950 . S
C706 C704 1.391 . S
C706 C707 1.400 . S
C707 C701 1.491 . S
C707 C706 1.400 . S
C707 C708 1.398 . S
C708 H696 0.950 . S
C708 C707 1.398 . S
C708 C709 1.391 . S
C709 H697 0.950 . S
C709 C705 1.393 . S
C709 C708 1.391 . S
H710 C718 0.950 . S
H711 C723 0.950 . S
H712 C720 0.950 . S
H713 C722 0.950 . S
H714 C724 0.950 . S
H715 C726 0.950 . S
H716 C728 0.950 . S
H717 C729 0.950 . S
C718 H710 0.950 . S
C718 C719 1.386 . S
C718 C720 1.391 . S
C719 C718 1.386 . S
C719 C723 1.393 . S
C720 H712 0.950 . S
C720 C718 1.391 . S
C720 C721 1.400 . S
C721 C720 1.400 . S
C721 C722 1.398 . S
C721 C727 1.491 . S
C722 H713 0.950 . S
C722 C721 1.398 . S
C722 C723 1.391 . S
C723 H711 0.950 . S
C723 C719 1.393 . S
C723 C722 1.391 . S
C724 H714 0.950 . S
C724 C725 1.386 . S
C724 C726 1.391 . S
C725 C724 1.386 . S
C725 C729 1.393 . S
C726 H715 0.950 . S
C726 C724 1.391 . S
C726 C727 1.400 . S
C727 C721 1.491 . S
C727 C726 1.400 . S
C727 C728 1.398 . S
C728 H716 0.950 . S
C728 C727 1.398 . S
C728 C729 1.391 . S
C729 H717 0.950 . S
C729 C725 1.393 . S
C729 C728 1.391 . S
H730 C738 0.950 . S
H731 C743 0.950 . S
H732 C740 0.950 . S
H733 C742 0.950 . S
H734 C744 0.950 . S
H735 C746 0.950 . S
H736 C748 0.950 . S
H737 C749 0.950 . S
C738 H730 0.950 . S
C738 C739 1.386 . S
C738 C740 1.391 . S
C739 C738 1.386 . S
C739 C743 1.393 . S
C740 H732 0.950 . S
C740 C738 1.391 . S
C740 C741 1.400 . S
C741 C740 1.400 . S
C741 C742 1.398 . S
C741 C747 1.491 . S
C742 H733 0.950 . S
C742 C741 1.398 . S
C742 C743 1.391 . S
C743 H731 0.950 . S
C743 C739 1.393 . S
C743 C742 1.391 . S
C744 H734 0.950 . S
C744 C745 1.386 . S
C744 C746 1.391 . S
C745 C744 1.386 . S
C745 C749 1.393 . S
C746 H735 0.950 . S
C746 C744 1.391 . S
C746 C747 1.400 . S
C747 C741 1.491 . S
C747 C746 1.400 . S
C747 C748 1.398 . S
C748 H736 0.950 . S
C748 C747 1.398 . S
C748 C749 1.391 . S
C749 H737 0.950 . S
C749 C745 1.393 . S
C749 C748 1.391 . S
H750 C758 0.950 . S
H751 C763 0.950 . S
H752 C760 0.950 . S
H753 C762 0.950 . S
H754 C764 0.950 . S
H755 C766 0.950 . S
H756 C768 0.950 . S
H757 C769 0.950 . S
C758 H750 0.950 . S
C758 C759 1.386 . S
C758 C760 1.391 . S
C759 C758 1.386 . S
C759 C763 1.393 . S
C760 H752 0.950 . S
C760 C758 1.391 . S
C760 C761 1.400 . S
C761 C760 1.400 . S
C761 C762 1.398 . S
C761 C767 1.491 . S
C762 H753 0.950 . S
C762 C761 1.398 . S
C762 C763 1.391 . S
C763 H751 0.950 . S
C763 C759 1.393 . S
C763 C762 1.391 . S
C764 H754 0.950 . S
C764 C765 1.386 . S
C764 C766 1.391 . S
C765 C764 1.386 . S
C765 C769 1.393 . S
C766 H755 0.950 . S
C766 C764 1.391 . S
C766 C767 1.400 . S
C767 C761 1.491 . S
C767 C766 1.400 . S
C767 C768 1.398 . S
C768 H756 0.950 . S
C768 C767 1.398 . S
C768 C769 1.391 . S
C769 H757 0.950 . S
C769 C765 1.393 . S
C769 C768 1.391 . S
H770 C778 0.950 . S
H771 C783 0.950 . S
H772 C780 0.950 . S
H773 C782 0.950 . S
H774 C784 0.950 . S
H775 C786 0.950 . S
H776 C788 0.950 . S
H777 C789 0.950 . S
C778 H770 0.950 . S
C778 C779 1.386 . S
C778 C780 1.391 . S
C779 C778 1.386 . S
C779 C783 1.393 . S
C780 H772 0.950 . S
C780 C778 1.391 . S
C780 C781 1.400 . S
C781 C780 1.400 . S
C781 C782 1.398 . S
C781 C787 1.491 . S
C782 H773 0.950 . S
C782 C781 1.398 . S
C782 C783 1.391 . S
C783 H771 0.950 . S
C783 C779 1.393 . S
C783 C782 1.391 . S
C784 H774 0.950 . S
C784 C785 1.386 . S
C784 C786 1.391 . S
C785 C784 1.386 . S
C785 C789 1.393 . S
C786 H775 0.950 . S
C786 C784 1.391 . S
C786 C787 1.400 . S
C787 C781 1.491 . S
C787 C786 1.400 . S
C787 C788 1.398 . S
C788 H776 0.950 . S
C788 C787 1.398 . S
C788 C789 1.391 . S
C789 H777 0.950 . S
C789 C785 1.393 . S
C789 C788 1.391 . S
H790 C798 0.950 . S
H791 C803 0.950 . S
H792 C800 0.950 . S
H793 C802 0.950 . S
H794 C804 0.950 . S
H795 C806 0.950 . S
H796 C808 0.950 . S
H797 C809 0.950 . S
C798 H790 0.950 . S
C798 C799 1.386 . S
C798 C800 1.391 . S
C799 C798 1.386 . S
C799 C803 1.393 . S
C800 H792 0.950 . S
C800 C798 1.391 . S
C800 C801 1.400 . S
C801 C800 1.400 . S
C801 C802 1.398 . S
C801 C807 1.491 . S
C802 H793 0.950 . S
C802 C801 1.398 . S
C802 C803 1.391 . S
C803 H791 0.950 . S
C803 C799 1.393 . S
C803 C802 1.391 . S
C804 H794 0.950 . S
C804 C805 1.386 . S
C804 C806 1.391 . S
C805 C804 1.386 . S
C805 C809 1.393 . S
C806 H795 0.950 . S
C806 C804 1.391 . S
C806 C807 1.400 . S
C807 C801 1.491 . S
C807 C806 1.400 . S
C807 C808 1.398 . S
C808 H796 0.950 . S
C808 C807 1.398 . S
C808 C809 1.391 . S
C809 H797 0.950 . S
C809 C805 1.393 . S
C809 C808 1.391 . S
H810 C818 0.950 . S
H811 C823 0.950 . S
H812 C820 0.950 . S
H813 C822 0.950 . S
H814 C824 0.950 . S
H815 C826 0.950 . S
H816 C828 0.950 . S
H817 C829 0.950 . S
C818 H810 0.950 . S
C818 C819 1.386 . S
C818 C820 1.391 . S
C819 C818 1.386 . S
C819 C823 1.393 . S
C820 H812 0.950 . S
C820 C818 1.391 . S
C820 C821 1.400 . S
C821 C820 1.400 . S
C821 C822 1.398 . S
C821 C827 1.491 . S
C822 H813 0.950 . S
C822 C821 1.398 . S
C822 C823 1.391 . S
C823 H811 0.950 . S
C823 C819 1.393 . S
C823 C822 1.391 . S
C824 H814 0.950 . S
C824 C825 1.386 . S
C824 C826 1.391 . S
C825 C824 1.386 . S
C825 C829 1.393 . S
C826 H815 0.950 . S
C826 C824 1.391 . S
C826 C827 1.400 . S
C827 C821 1.491 . S
C827 C826 1.400 . S
C827 C828 1.398 . S
C828 H816 0.950 . S
C828 C827 1.398 . S
C828 C829 1.391 . S
C829 H817 0.950 . S
C829 C825 1.393 . S
C829 C828 1.391 . S
H830 C838 0.950 . S
H831 C843 0.950 . S
H832 C840 0.950 . S
H833 C842 0.950 . S
H834 C844 0.950 . S
H835 C846 0.950 . S
H836 C848 0.950 . S
H837 C849 0.950 . S
C838 H830 0.950 . S
C838 C839 1.386 . S
C838 C840 1.391 . S
C839 C838 1.386 . S
C839 C843 1.393 . S
C840 H832 0.950 . S
C840 C838 1.391 . S
C840 C841 1.400 . S
C841 C840 1.400 . S
C841 C842 1.398 . S
C841 C847 1.491 . S
C842 H833 0.950 . S
C842 C841 1.398 . S
C842 C843 1.391 . S
C843 H831 0.950 . S
C843 C839 1.393 . S
C843 C842 1.391 . S
C844 H834 0.950 . S
C844 C845 1.386 . S
C844 C846 1.391 . S
C845 C844 1.386 . S
C845 C849 1.393 . S
C846 H835 0.950 . S
C846 C844 1.391 . S
C846 C847 1.400 . S
C847 C841 1.491 . S
C847 C846 1.400 . S
C847 C848 1.398 . S
C848 H836 0.950 . S
C848 C847 1.398 . S
C848 C849 1.391 . S
C849 H837 0.950 . S
C849 C845 1.393 . S
C849 C848 1.391 . S
H850 C858 0.950 . S
H851 C863 0.950 . S
H852 C860 0.950 . S
H853 C862 0.950 . S
H854 C864 0.950 . S
H855 C866 0.950 . S
H856 C868 0.950 . S
H857 C869 0.950 . S
C858 H850 0.950 . S
C858 C859 1.386 . S
C858 C860 1.391 . S
C859 C858 1.386 . S
C859 C863 1.393 . S
C860 H852 0.950 . S
C860 C858 1.391 . S
C860 C861 1.400 . S
C861 C860 1.400 . S
C861 C862 1.398 . S
C861 C867 1.491 . S
C862 H853 0.950 . S
C862 C861 1.398 . S
C862 C863 1.391 . S
C863 H851 0.950 . S
C863 C859 1.393 . S
C863 C862 1.391 . S
C864 H854 0.950 . S
C864 C865 1.386 . S
C864 C866 1.391 . S
C865 C864 1.386 . S
C865 C869 1.393 . S
C866 H855 0.950 . S
C866 C864 1.391 . S
C866 C867 1.400 . S
C867 C861 1.491 . S
C867 C866 1.400 . S
C867 C868 1.398 . S
C868 H856 0.950 . S
C868 C867 1.398 . S
C868 C869 1.391 . S
C869 H857 0.950 . S
C869 C865 1.393 . S
C869 C868 1.391 . S
H870 C878 0.950 . S
H871 C883 0.950 . S
H872 C880 0.950 . S
H873 C882 0.950 . S
H874 C884 0.950 . S
H875 C886 0.950 . S
H876 C888 0.950 . S
H877 C889 0.950 . S
C878 H870 0.950 . S
C878 C879 1.386 . S
C878 C880 1.391 . S
C879 C878 1.386 . S
C879 C883 1.393 . S
C880 H872 0.950 . S
C880 C878 1.391 . S
C880 C881 1.400 . S
C881 C880 1.400 . S
C881 C882 1.398 . S
C881 C887 1.491 . S
C882 H873 0.950 . S
C882 C881 1.398 . S
C882 C883 1.391 . S
C883 H871 0.950 . S
C883 C879 1.393 . S
C883 C882 1.391 . S
C884 H874 0.950 . S
C884 C885 1.386 . S
C884 C886 1.391 . S
C885 C884 1.386 . S
C885 C889 1.393 . S
C886 H875 0.950 . S
C886 C884 1.391 . S
C886 C887 1.400 . S
C887 C881 1.491 . S
C887 C886 1.400 . S
C887 C888 1.398 . S
C888 H876 0.950 . S
C888 C887 1.398 . S
C888 C889 1.391 . S
C889 H877 0.950 . S
C889 C885 1.393 . S
C889 C888 1.391 . S
H890 C898 0.950 . S
H891 C903 0.950 . S
H892 C900 0.950 . S
H893 C902 0.950 . S
H894 C904 0.950 . S
H895 C906 0.950 . S
H896 C908 0.950 . S
H897 C909 0.950 . S
C898 H890 0.950 . S
C898 C899 1.386 . S
C898 C900 1.391 . S
C899 C898 1.386 . S
C899 C903 1.393 . S
C900 H892 0.950 . S
C900 C898 1.391 . S
C900 C901 1.400 . S
C901 C900 1.400 . S
C901 C902 1.398 . S
C901 C907 1.491 . S
C902 H893 0.950 . S
C902 C901 1.398 . S
C902 C903 1.391 . S
C903 H891 0.950 . S
C903 C899 1.393 . S
C903 C902 1.391 . S
C904 H894 0.950 . S
C904 C905 1.386 . S
C904 C906 1.391 . S
C905 C904 1.386 . S
C905 C909 1.393 . S
C906 H895 0.950 . S
C906 C904 1.391 . S
C906 C907 1.400 . S
C907 C901 1.491 . S
C907 C906 1.400 . S
C907 C908 1.398 . S
C908 H896 0.950 . S
C908 C907 1.398 . S
C908 C909 1.391 . S
C909 H897 0.950 . S
C909 C905 1.393 . S
C909 C908 1.391 . S
H910 C918 0.950 . S
H911 C923 0.950 . S
H912 C920 0.950 . S
H913 C922 0.950 . S
H914 C924 0.950 . S
H915 C926 0.950 . S
H916 C928 0.950 . S
H917 C929 0.950 . S
C918 H910 0.950 . S
C918 C919 1.386 . S
C918 C920 1.391 . S
C919 C918 1.386 . S
C919 C923 1.393 . S
C920 H912 0.950 . S
C920 C918 1.391 . S
C920 C921 1.400 . S
C921 C920 1.400 . S
C921 C922 1.398 . S
C921 C927 1.491 . S
C922 H913 0.950 . S
C922 C921 1.398 . S
C922 C923 1.391 . S
C923 H911 0.950 . S
C923 C919 1.393 . S
C923 C922 1.391 . S
C924 H914 0.950 . S
C924 C925 1.386 . S
C924 C926 1.391 . S
C925 C924 1.386 . S
C925 C929 1.393 . S
C926 H915 0.950 . S
C926 C924 1.391 . S
C926 C927 1.400 . S
C927 C921 1.491 . S
C927 C926 1.400 . S
C927 C928 1.398 . S
C928 H916 0.950 . S
C928 C927 1.398 . S
C928 C929 1.391 . S
C929 H917 0.950 . S
C929 C925 1.393 . S
C929 C928 1.391 . S
H930 C938 0.950 . S
H931 C943 0.950 . S
H932 C940 0.950 . S
H933 C942 0.950 . S
H934 C944 0.950 . S
H935 C946 0.950 . S
H936 C948 0.950 . S
H937 C949 0.950 . S
C938 H930 0.950 . S
C938 C939 1.386 . S
C938 C940 1.391 . S
C939 C938 1.386 . S
C939 C943 1.393 . S
C940 H932 0.950 . S
C940 C938 1.391 . S
C940 C941 1.400 . S
C941 C940 1.400 . S
C941 C942 1.398 . S
C941 C947 1.491 . S
C942 H933 0.950 . S
C942 C941 1.398 . S
C942 C943 1.391 . S
C943 H931 0.950 . S
C943 C939 1.393 . S
C943 C942 1.391 . S
C944 H934 0.950 . S
C944 C945 1.386 . S
C944 C946 1.391 . S
C945 C944 1.386 . S
C945 C949 1.393 . S
C946 H935 0.950 . S
C946 C944 1.391 . S
C946 C947 1.400 . S
C947 C941 1.491 . S
C947 C946 1.400 . S
C947 C948 1.398 . S
C948 H936 0.950 . S
C948 C947 1.398 . S
C948 C949 1.391 . S
C949 H937 0.950 . S
C949 C945 1.393 . S
C949 C948 1.391 . S
H950 C958 0.950 . S
H951 C963 0.950 . S
H952 C960 0.950 . S
H953 C962 0.950 . S
H954 C964 0.950 . S
H955 C966 0.950 . S
H956 C968 0.950 . S
H957 C969 0.950 . S
C958 H950 0.950 . S
C958 C959 1.386 . S
C958 C960 1.391 . S
C959 C958 1.386 . S
C959 C963 1.393 . S
C960 H952 0.950 . S
C960 C958 1.391 . S
C960 C961 1.400 . S
C961 C960 1.400 . S
C961 C962 1.398 . S
C961 C967 1.491 . S
C962 H953 0.950 . S
C962 C961 1.398 . S
C962 C963 1.391 . S
C963 H951 0.950 . S
C963 C959 1.393 . S
C963 C962 1.391 . S
C964 H954 0.950 . S
C964 C965 1.386 . S
C964 C966 1.391 . S
C965 C964 1.386 . S
C965 C969 1.393 . S
C966 H955 0.950 . S
C966 C964 1.391 . S
C966 C967 1.400 . S
C967 C961 1.491 . S
C967 C966 1.400 . S
C967 C968 1.398 . S
C968 H956 0.950 . S
C968 C967 1.398 . S
C968 C969 1.391 . S
C969 H957 0.950 . S
C969 C965 1.393 . S
C969 C968 1.391 . S
H970 C978 0.950 . S
H971 C983 0.950 . S
H972 C980 0.950 . S
H973 C982 0.950 . S
H974 C984 0.950 . S
H975 C986 0.950 . S
H976 C988 0.950 . S
H977 C989 0.950 . S
C978 H970 0.950 . S
C978 C979 1.386 . S
C978 C980 1.391 . S
C979 C978 1.386 . S
C979 C983 1.393 . S
C980 H972 0.950 . S
C980 C978 1.391 . S
C980 C981 1.400 . S
C981 C980 1.400 . S
C981 C982 1.398 . S
C981 C987 1.491 . S
C982 H973 0.950 . S
C982 C981 1.398 . S
C982 C983 1.391 . S
C983 H971 0.950 . S
C983 C979 1.393 . S
C983 C982 1.391 . S
C984 H974 0.950 . S
C984 C985 1.386 . S
C984 C986 1.391 . S
C985 C984 1.386 . S
C985 C989 1.393 . S
C986 H975 0.950 . S
C986 C984 1.391 . S
C986 C987 1.400 . S
C987 C981 1.491 . S
C987 C986 1.400 . S
C987 C988 1.398 . S
C988 H976 0.950 . S
C988 C987 1.398 . S
C988 C989 1.391 . S
C989 H977 0.950 . S
C989 C985 1.393 . S
C989 C988 1.391 . S
H990 C998 0.950 . S
H991 C1003 0.950 . S
H992 C1000 0.950 . S
H993 C1002 0.950 . S
H994 C1004 0.950 . S
H995 C1006 0.950 . S
H996 C1008 0.950 . S
H997 C1009 0.950 . S
C998 H990 0.950 . S
C998 C999 1.386 . S
C998 C1000 1.391 . S
C999 C998 1.386 . S
C999 C1003 1.393 . S
C1000 H992 0.950 . S
C1000 C998 1.391 . S
C1000 C1001 1.400 . S
C1001 C1000 1.400 . S
C1001 C1002 1.398 . S
C1001 C1007 1.491 . S
C1002 H993 0.950 . S
C1002 C1001 1.398 . S
C1002 C1003 1.391 . S
C1003 H991 0.950 . S
C1003 C999 1.393 . S
C1003 C1002 1.391 . S
C1004 H994 0.950 . S
C1004 C1005 1.386 . S
C1004 C1006 1.391 . S
C1005 C1004 1.386 . S
C1005 C1009 1.393 . S
C1006 H995 0.950 . S
C1006 C1004 1.391 . S
C1006 C1007 1.400 . S
C1007 C1001 1.491 . S
C1007 C1006 1.400 . S
C1007 C1008 1.398 . S
C1008 H996 0.950 . S
C1008 C1007 1.398 . S
C1008 C1009 1.391 . S
C1009 H997 0.950 . S
C1009 C1005 1.393 . S
C1009 C1008 1.391 . S
H1010 C1018 0.950 . S
H1011 C1023 0.950 . S
H1012 C1020 0.950 . S
H1013 C1022 0.950 . S
H1014 C1024 0.950 . S
H1015 C1026 0.950 . S
H1016 C1028 0.950 . S
H1017 C1029 0.950 . S
C1018 H1010 0.950 . S
C1018 C1019 1.386 . S
C1018 C1020 1.391 . S
C1019 C1018 1.386 . S
C1019 C1023 1.393 . S
C1020 H1012 0.950 . S
C1020 C1018 1.391 . S
C1020 C1021 1.400 . S
C1021 C1020 1.400 . S
C1021 C1022 1.398 . S
C1021 C1027 1.491 . S
C1022 H1013 0.950 . S
C1022 C1021 1.398 . S
C1022 C1023 1.391 . S
C1023 H1011 0.950 . S
C1023 C1019 1.393 . S
C1023 C1022 1.391 . S
C1024 H1014 0.950 . S
C1024 C1025 1.386 . S
C1024 C1026 1.391 . S
C1025 C1024 1.386 . S
C1025 C1029 1.393 . S
C1026 H1015 0.950 . S
C1026 C1024 1.391 . S
C1026 C1027 1.400 . S
C1027 C1021 1.491 . S
C1027 C1026 1.400 . S
C1027 C1028 1.398 . S
C1028 H1016 0.950 . S
C1028 C1027 1.398 . S
C1028 C1029 1.391 . S
C1029 H1017 0.950 . S
C1029 C1025 1.393 . S
C1029 C1028 1.391 . S
H1030 C1038 0.950 . S
H1031 C1043 0.950 . S
H1032 C1040 0.950 . S
H1033 C1042 0.950 . S
H1034 C1044 0.950 . S
H1035 C1046 0.950 . S
H1036 C1048 0.950 . S
H1037 C1049 0.950 . S
C1038 H1030 0.950 . S
C1038 C1039 1.386 . S
C1038 C1040 1.391 . S
C1039 C1038 1.386 . S
C1039 C1043 1.393 . S
C1040 H1032 0.950 . S
C1040 C1038 1.391 . S
C1040 C1041 1.400 . S
C1041 C1040 1.400 . S
C1041 C1042 1.398 . S
C1041 C1047 1.491 . S
C1042 H1033 0.950 . S
C1042 C1041 1.398 . S
C1042 C1043 1.391 . S
C1043 H1031 0.950 . S
C1043 C1039 1.393 . S
C1043 C1042 1.391 . S
C1044 H1034 0.950 . S
C1044 C1045 1.386 . S
C1044 C1046 1.391 . S
C1045 C1044 1.386 . S
C1045 C1049 1.393 . S
C1046 H1035 0.950 . S
C1046 C1044 1.391 . S
C1046 C1047 1.400 . S
C1047 C1041 1.491 . S
C1047 C1046 1.400 . S
C1047 C1048 1.398 . S
C1048 H1036 0.950 . S
C1048 C1047 1.398 . S
C1048 C1049 1.391 . S
C1049 H1037 0.950 . S
C1049 C1045 1.393 . S
C1049 C1048 1.391 . S
H1050 C1058 0.950 . S
H1051 C1063 0.950 . S
H1052 C1060 0.950 . S
H1053 C1062 0.950 . S
H1054 C1064 0.950 . S
H1055 C1066 0.950 . S
H1056 C1068 0.950 . S
H1057 C1069 0.950 . S
C1058 H1050 0.950 . S
C1058 C1059 1.386 . S
C1058 C1060 1.391 . S
C1059 C1058 1.386 . S
C1059 C1063 1.393 . S
C1060 H1052 0.950 . S
C1060 C1058 1.391 . S
C1060 C1061 1.400 . S
C1061 C1060 1.400 . S
C1061 C1062 1.398 . S
C1061 C1067 1.491 . S
C1062 H1053 0.950 . S
C1062 C1061 1.398 . S
C1062 C1063 1.391 . S
C1063 H1051 0.950 . S
C1063 C1059 1.393 . S
C1063 C1062 1.391 . S
C1064 H1054 0.950 . S
C1064 C1065 1.386 . S
C1064 C1066 1.391 . S
C1065 C1064 1.386 . S
C1065 C1069 1.393 . S
C1066 H1055 0.950 . S
C1066 C1064 1.391 . S
C1066 C1067 1.400 . S
C1067 C1061 1.491 . S
C1067 C1066 1.400 . S
C1067 C1068 1.398 . S
C1068 H1056 0.950 . S
C1068 C1067 1.398 . S
C1068 C1069 1.391 . S
C1069 H1057 0.950 . S
C1069 C1065 1.393 . S
C1069 C1068 1.391 . S
H1070 C1078 0.950 . S
H1071 C1083 0.950 . S
H1072 C1080 0.950 . S
H1073 C1082 0.950 . S
H1074 C1084 0.950 . S
H1075 C1086 0.950 . S
H1076 C1088 0.950 . S
H1077 C1089 0.950 . S
C1078 H1070 0.950 . S
C1078 C1079 1.386 . S
C1078 C1080 1.391 . S
C1079 C1078 1.386 . S
C1079 C1083 1.393 . S
C1080 H1072 0.950 . S
C1080 C1078 1.391 . S
C1080 C1081 1.400 . S
C1081 C1080 1.400 . S
C1081 C1082 1.398 . S
C1081 C1087 1.491 . S
C1082 H1073 0.950 . S
C1082 C1081 1.398 . S
C1082 C1083 1.391 . S
C1083 H1071 0.950 . S
C1083 C1079 1.393 . S
C1083 C1082 1.391 . S
C1084 H1074 0.950 . S
C1084 C1085 1.386 . S
C1084 C1086 1.391 . S
C1085 C1084 1.386 . S
C1085 C1089 1.393 . S
C1086 H1075 0.950 . S
C1086 C1084 1.391 . S
C1086 C1087 1.400 . S
C1087 C1081 1.491 . S
C1087 C1086 1.400 . S
C1087 C1088 1.398 . S
C1088 H1076 0.950 . S
C1088 C1087 1.398 . S
C1088 C1089 1.391 . S
C1089 H1077 0.950 . S
C1089 C1085 1.393 . S
C1089 C1088 1.391 . S
H1090 C1098 0.950 . S
H1091 C1103 0.950 . S
H1092 C1100 0.950 . S
H1093 C1102 0.950 . S
H1094 C1104 0.950 . S
H1095 C1106 0.950 . S
H1096 C1108 0.950 . S
H1097 C1109 0.948 1_556 S
C1098 H1090 0.950 . S
C1098 C1099 1.386 . S
C1098 C1100 1.391 . S
C1099 C1098 1.386 . S
C1099 C1103 1.393 . S
C1100 H1092 0.950 . S
C1100 C1098 1.391 . S
C1100 C1101 1.400 . S
C1101 C1100 1.400 . S
C1101 C1102 1.398 . S
C1101 C1107 1.491 . S
C1102 H1093 0.950 . S
C1102 C1101 1.398 . S
C1102 C1103 1.391 . S
C1103 H1091 0.950 . S
C1103 C1099 1.393 . S
C1103 C1102 1.391 . S
C1104 H1094 0.950 . S
C1104 C1105 1.386 . S
C1104 C1106 1.391 . S
C1105 C1104 1.386 . S
C1105 C1109 1.393 . S
C1106 H1095 0.950 . S
C1106 C1104 1.391 . S
C1106 C1107 1.400 . S
C1107 C1101 1.491 . S
C1107 C1106 1.400 . S
C1107 C1108 1.398 . S
C1108 H1096 0.950 . S
C1108 C1107 1.398 . S
C1108 C1109 1.391 . S
C1109 H1097 0.948 1_554 S
C1109 C1105 1.393 . S
C1109 C1108 1.391 . S
H1110 C1118 0.950 . S
H1111 C1123 0.950 . S
H1112 C1120 0.950 . S
H1113 C1122 0.950 . S
H1114 C1124 0.950 . S
H1115 C1126 0.950 . S
H1116 C1128 0.950 . S
H1117 C1129 0.950 . S
C1118 H1110 0.950 . S
C1118 C1119 1.386 . S
C1118 C1120 1.391 . S
C1119 C1118 1.386 . S
C1119 C1123 1.393 . S
C1120 H1112 0.950 . S
C1120 C1118 1.391 . S
C1120 C1121 1.400 . S
C1121 C1120 1.400 . S
C1121 C1122 1.398 . S
C1121 C1127 1.491 . S
C1122 H1113 0.950 . S
C1122 C1121 1.398 . S
C1122 C1123 1.391 . S
C1123 H1111 0.950 . S
C1123 C1119 1.393 . S
C1123 C1122 1.391 . S
C1124 H1114 0.950 . S
C1124 C1125 1.386 . S
C1124 C1126 1.391 . S
C1125 C1124 1.386 . S
C1125 C1129 1.393 . S
C1126 H1115 0.950 . S
C1126 C1124 1.391 . S
C1126 C1127 1.400 . S
C1127 C1121 1.491 . S
C1127 C1126 1.400 . S
C1127 C1128 1.398 . S
C1128 H1116 0.950 . S
C1128 C1127 1.398 . S
C1128 C1129 1.391 . S
C1129 H1117 0.950 . S
C1129 C1125 1.393 . S
C1129 C1128 1.391 . S
H1130 C1138 0.950 . S
H1131 C1143 0.950 . S
H1132 C1140 0.950 . S
H1133 C1142 0.950 . S
H1134 C1144 0.950 . S
H1135 C1146 0.950 . S
H1136 C1148 0.950 . S
H1137 C1149 0.950 . S
C1138 H1130 0.950 . S
C1138 C1139 1.386 . S
C1138 C1140 1.391 . S
C1139 C1138 1.386 . S
C1139 C1143 1.393 . S
C1140 H1132 0.950 . S
C1140 C1138 1.391 . S
C1140 C1141 1.400 . S
C1141 C1140 1.400 . S
C1141 C1142 1.398 . S
C1141 C1147 1.491 . S
C1142 H1133 0.950 . S
C1142 C1141 1.398 . S
C1142 C1143 1.391 . S
C1143 H1131 0.950 . S
C1143 C1139 1.393 . S
C1143 C1142 1.391 . S
C1144 H1134 0.950 . S
C1144 C1145 1.386 . S
C1144 C1146 1.391 . S
C1145 C1144 1.386 . S
C1145 C1149 1.393 . S
C1146 H1135 0.950 . S
C1146 C1144 1.391 . S
C1146 C1147 1.400 . S
C1147 C1141 1.491 . S
C1147 C1146 1.400 . S
C1147 C1148 1.398 . S
C1148 H1136 0.950 . S
C1148 C1147 1.398 . S
C1148 C1149 1.391 . S
C1149 H1137 0.950 . S
C1149 C1145 1.393 . S
C1149 C1148 1.391 . S
H1150 C1158 0.950 . S
H1151 C1163 0.950 . S
H1152 C1160 0.950 . S
H1153 C1162 0.950 . S
H1154 C1164 0.950 . S
H1155 C1166 0.950 . S
H1156 C1168 0.950 . S
H1157 C1169 0.950 . S
C1158 H1150 0.950 . S
C1158 C1159 1.386 . S
C1158 C1160 1.391 . S
C1159 C1158 1.386 . S
C1159 C1163 1.393 . S
C1160 H1152 0.950 . S
C1160 C1158 1.391 . S
C1160 C1161 1.400 . S
C1161 C1160 1.400 . S
C1161 C1162 1.398 . S
C1161 C1167 1.491 . S
C1162 H1153 0.950 . S
C1162 C1161 1.398 . S
C1162 C1163 1.391 . S
C1163 H1151 0.950 . S
C1163 C1159 1.393 . S
C1163 C1162 1.391 . S
C1164 H1154 0.950 . S
C1164 C1165 1.386 . S
C1164 C1166 1.391 . S
C1165 C1164 1.386 . S
C1165 C1169 1.393 . S
C1166 H1155 0.950 . S
C1166 C1164 1.391 . S
C1166 C1167 1.400 . S
C1167 C1161 1.491 . S
C1167 C1166 1.400 . S
C1167 C1168 1.398 . S
C1168 H1156 0.950 . S
C1168 C1167 1.398 . S
C1168 C1169 1.391 . S
C1169 H1157 0.950 . S
C1169 C1165 1.393 . S
C1169 C1168 1.391 . S
H1170 C1178 0.950 . S
H1171 C1183 0.950 . S
H1172 C1180 0.950 . S
H1173 C1182 0.950 . S
H1174 C1184 0.950 . S
H1175 C1186 0.950 . S
H1176 C1188 0.950 . S
H1177 C1189 0.950 . S
C1178 H1170 0.950 . S
C1178 C1179 1.386 . S
C1178 C1180 1.391 . S
C1179 C1178 1.386 . S
C1179 C1183 1.393 . S
C1180 H1172 0.950 . S
C1180 C1178 1.391 . S
C1180 C1181 1.400 . S
C1181 C1180 1.400 . S
C1181 C1182 1.398 . S
C1181 C1187 1.491 . S
C1182 H1173 0.950 . S
C1182 C1181 1.398 . S
C1182 C1183 1.391 . S
C1183 H1171 0.950 . S
C1183 C1179 1.393 . S
C1183 C1182 1.391 . S
C1184 H1174 0.950 . S
C1184 C1185 1.386 . S
C1184 C1186 1.391 . S
C1185 C1184 1.386 . S
C1185 C1189 1.393 . S
C1186 H1175 0.950 . S
C1186 C1184 1.391 . S
C1186 C1187 1.400 . S
C1187 C1181 1.491 . S
C1187 C1186 1.400 . S
C1187 C1188 1.398 . S
C1188 H1176 0.950 . S
C1188 C1187 1.398 . S
C1188 C1189 1.391 . S
C1189 H1177 0.950 . S
C1189 C1185 1.393 . S
C1189 C1188 1.391 . S
H1190 C1198 0.950 . S
H1191 C1203 0.950 . S
H1192 C1200 0.950 . S
H1193 C1202 0.950 . S
H1194 C1204 0.950 . S
H1195 C1206 0.950 . S
H1196 C1208 0.950 . S
H1197 C1209 0.950 . S
C1198 H1190 0.950 . S
C1198 C1199 1.386 . S
C1198 C1200 1.391 . S
C1199 C1198 1.386 . S
C1199 C1203 1.393 . S
C1200 H1192 0.950 . S
C1200 C1198 1.391 . S
C1200 C1201 1.400 . S
C1201 C1200 1.400 . S
C1201 C1202 1.398 . S
C1201 C1207 1.491 . S
C1202 H1193 0.950 . S
C1202 C1201 1.398 . S
C1202 C1203 1.391 . S
C1203 H1191 0.950 . S
C1203 C1199 1.393 . S
C1203 C1202 1.391 . S
C1204 H1194 0.950 . S
C1204 C1205 1.386 . S
C1204 C1206 1.391 . S
C1205 C1204 1.386 . S
C1205 C1209 1.393 . S
C1206 H1195 0.950 . S
C1206 C1204 1.391 . S
C1206 C1207 1.400 . S
C1207 C1201 1.491 . S
C1207 C1206 1.400 . S
C1207 C1208 1.398 . S
C1208 H1196 0.950 . S
C1208 C1207 1.398 . S
C1208 C1209 1.391 . S
C1209 H1197 0.950 . S
C1209 C1205 1.393 . S
C1209 C1208 1.391 . S
H1210 C1218 0.950 . S
H1211 C1223 0.950 . S
H1212 C1220 0.950 . S
H1213 C1222 0.950 . S
H1214 C1224 0.950 . S
H1215 C1226 0.950 . S
H1216 C1228 0.950 . S
H1217 C1229 0.950 . S
C1218 H1210 0.950 . S
C1218 C1219 1.386 . S
C1218 C1220 1.391 . S
C1219 C1218 1.386 . S
C1219 C1223 1.393 . S
C1220 H1212 0.950 . S
C1220 C1218 1.391 . S
C1220 C1221 1.400 . S
C1221 C1220 1.400 . S
C1221 C1222 1.398 . S
C1221 C1227 1.491 . S
C1222 H1213 0.950 . S
C1222 C1221 1.398 . S
C1222 C1223 1.391 . S
C1223 H1211 0.950 . S
C1223 C1219 1.393 . S
C1223 C1222 1.391 . S
C1224 H1214 0.950 . S
C1224 C1225 1.386 . S
C1224 C1226 1.391 . S
C1225 C1224 1.386 . S
C1225 C1229 1.393 . S
C1226 H1215 0.950 . S
C1226 C1224 1.391 . S
C1226 C1227 1.400 . S
C1227 C1221 1.491 . S
C1227 C1226 1.400 . S
C1227 C1228 1.398 . S
C1228 H1216 0.950 . S
C1228 C1227 1.398 . S
C1228 C1229 1.391 . S
C1229 H1217 0.950 . S
C1229 C1225 1.393 . S
C1229 C1228 1.391 . S
H1230 C1238 0.950 . S
H1231 C1243 0.950 . S
H1232 C1240 0.950 . S
H1233 C1242 0.950 . S
H1234 C1244 0.950 . S
H1235 C1246 0.950 . S
H1236 C1248 0.950 . S
H1237 C1249 0.950 . S
C1238 H1230 0.950 . S
C1238 C1239 1.386 . S
C1238 C1240 1.391 . S
C1239 C1238 1.386 . S
C1239 C1243 1.393 . S
C1240 H1232 0.950 . S
C1240 C1238 1.391 . S
C1240 C1241 1.400 . S
C1241 C1240 1.400 . S
C1241 C1242 1.398 . S
C1241 C1247 1.491 . S
C1242 H1233 0.950 . S
C1242 C1241 1.398 . S
C1242 C1243 1.391 . S
C1243 H1231 0.950 . S
C1243 C1239 1.393 . S
C1243 C1242 1.391 . S
C1244 H1234 0.950 . S
C1244 C1245 1.386 . S
C1244 C1246 1.391 . S
C1245 C1244 1.386 . S
C1245 C1249 1.393 . S
C1246 H1235 0.950 . S
C1246 C1244 1.391 . S
C1246 C1247 1.400 . S
C1247 C1241 1.491 . S
C1247 C1246 1.400 . S
C1247 C1248 1.398 . S
C1248 H1236 0.950 . S
C1248 C1247 1.398 . S
C1248 C1249 1.391 . S
C1249 H1237 0.950 . S
C1249 C1245 1.393 . S
C1249 C1248 1.391 . S
H1250 C1258 0.950 . S
H1251 C1263 0.950 . S
H1252 C1260 0.950 . S
H1253 C1262 0.950 . S
H1254 C1264 0.950 . S
H1255 C1266 0.950 . S
H1256 C1268 0.950 . S
H1257 C1269 0.950 . S
C1258 H1250 0.950 . S
C1258 C1259 1.386 . S
C1258 C1260 1.391 . S
C1259 C1258 1.386 . S
C1259 C1263 1.393 . S
C1260 H1252 0.950 . S
C1260 C1258 1.391 . S
C1260 C1261 1.400 . S
C1261 C1260 1.400 . S
C1261 C1262 1.398 . S
C1261 C1267 1.491 . S
C1262 H1253 0.950 . S
C1262 C1261 1.398 . S
C1262 C1263 1.391 . S
C1263 H1251 0.950 . S
C1263 C1259 1.393 . S
C1263 C1262 1.391 . S
C1264 H1254 0.950 . S
C1264 C1265 1.386 . S
C1264 C1266 1.391 . S
C1265 C1264 1.386 . S
C1265 C1269 1.393 . S
C1266 H1255 0.950 . S
C1266 C1264 1.391 . S
C1266 C1267 1.400 . S
C1267 C1261 1.491 . S
C1267 C1266 1.400 . S
C1267 C1268 1.398 . S
C1268 H1256 0.950 . S
C1268 C1267 1.398 . S
C1268 C1269 1.391 . S
C1269 H1257 0.950 . S
C1269 C1265 1.393 . S
C1269 C1268 1.391 . S
H1270 C1278 0.950 . S
H1271 C1283 0.950 . S
H1272 C1280 0.950 . S
H1273 C1282 0.950 . S
H1274 C1284 0.950 . S
H1275 C1286 0.950 . S
H1276 C1288 0.950 . S
H1277 C1289 0.950 . S
C1278 H1270 0.950 . S
C1278 C1279 1.386 . S
C1278 C1280 1.391 . S
C1279 C1278 1.386 . S
C1279 C1283 1.393 . S
C1280 H1272 0.950 . S
C1280 C1278 1.391 . S
C1280 C1281 1.400 . S
C1281 C1280 1.400 . S
C1281 C1282 1.398 . S
C1281 C1287 1.491 . S
C1282 H1273 0.950 . S
C1282 C1281 1.398 . S
C1282 C1283 1.391 . S
C1283 H1271 0.950 . S
C1283 C1279 1.393 . S
C1283 C1282 1.391 . S
C1284 H1274 0.950 . S
C1284 C1285 1.386 . S
C1284 C1286 1.391 . S
C1285 C1284 1.386 . S
C1285 C1289 1.393 . S
C1286 H1275 0.950 . S
C1286 C1284 1.391 . S
C1286 C1287 1.400 . S
C1287 C1281 1.491 . S
C1287 C1286 1.400 . S
C1287 C1288 1.398 . S
C1288 H1276 0.950 . S
C1288 C1287 1.398 . S
C1288 C1289 1.391 . S
C1289 H1277 0.950 . S
C1289 C1285 1.393 . S
C1289 C1288 1.391 . S
H1290 C1298 0.950 . S
H1291 C1303 0.950 . S
H1292 C1300 0.950 . S
H1293 C1302 0.950 . S
H1294 C1304 0.950 . S
H1295 C1306 0.950 . S
H1296 C1308 0.950 . S
H1297 C1309 0.950 . S
C1298 H1290 0.950 . S
C1298 C1299 1.386 . S
C1298 C1300 1.391 . S
C1299 C1298 1.386 . S
C1299 C1303 1.393 . S
C1300 H1292 0.950 . S
C1300 C1298 1.391 . S
C1300 C1301 1.400 . S
C1301 C1300 1.400 . S
C1301 C1302 1.398 . S
C1301 C1307 1.491 . S
C1302 H1293 0.950 . S
C1302 C1301 1.398 . S
C1302 C1303 1.391 . S
C1303 H1291 0.950 . S
C1303 C1299 1.393 . S
C1303 C1302 1.391 . S
C1304 H1294 0.950 . S
C1304 C1305 1.386 . S
C1304 C1306 1.391 . S
C1305 C1304 1.386 . S
C1305 C1309 1.393 . S
C1306 H1295 0.950 . S
C1306 C1304 1.391 . S
C1306 C1307 1.400 . S
C1307 C1301 1.491 . S
C1307 C1306 1.400 . S
C1307 C1308 1.398 . S
C1308 H1296 0.950 . S
C1308 C1307 1.398 . S
C1308 C1309 1.391 . S
C1309 H1297 0.950 . S
C1309 C1305 1.393 . S
C1309 C1308 1.391 . S
H1310 C1318 0.950 . S
H1311 C1323 0.950 . S
H1312 C1320 0.950 . S
H1313 C1322 0.950 . S
H1314 C1324 0.950 . S
H1315 C1326 0.950 . S
H1316 C1328 0.950 . S
H1317 C1329 0.950 . S
C1318 H1310 0.950 . S
C1318 C1319 1.386 . S
C1318 C1320 1.391 . S
C1319 C1318 1.386 . S
C1319 C1323 1.393 . S
C1320 H1312 0.950 . S
C1320 C1318 1.391 . S
C1320 C1321 1.400 . S
C1321 C1320 1.400 . S
C1321 C1322 1.398 . S
C1321 C1327 1.491 . S
C1322 H1313 0.950 . S
C1322 C1321 1.398 . S
C1322 C1323 1.391 . S
C1323 H1311 0.950 . S
C1323 C1319 1.393 . S
C1323 C1322 1.391 . S
C1324 H1314 0.950 . S
C1324 C1325 1.386 . S
C1324 C1326 1.391 . S
C1325 C1324 1.386 . S
C1325 C1329 1.393 . S
C1326 H1315 0.950 . S
C1326 C1324 1.391 . S
C1326 C1327 1.400 . S
C1327 C1321 1.491 . S
C1327 C1326 1.400 . S
C1327 C1328 1.398 . S
C1328 H1316 0.950 . S
C1328 C1327 1.398 . S
C1328 C1329 1.391 . S
C1329 H1317 0.950 . S
C1329 C1325 1.393 . S
C1329 C1328 1.391 . S
H1330 C1338 0.950 . S
H1331 C1343 0.950 . S
H1332 C1340 0.950 . S
H1333 C1342 0.950 . S
H1334 C1344 0.950 . S
H1335 C1346 0.950 . S
H1336 C1348 0.950 . S
H1337 C1349 0.950 . S
C1338 H1330 0.950 . S
C1338 C1339 1.386 . S
C1338 C1340 1.391 . S
C1339 C1338 1.386 . S
C1339 C1343 1.393 . S
C1340 H1332 0.950 . S
C1340 C1338 1.391 . S
C1340 C1341 1.400 . S
C1341 C1340 1.400 . S
C1341 C1342 1.398 . S
C1341 C1347 1.491 . S
C1342 H1333 0.950 . S
C1342 C1341 1.398 . S
C1342 C1343 1.391 . S
C1343 H1331 0.950 . S
C1343 C1339 1.393 . S
C1343 C1342 1.391 . S
C1344 H1334 0.950 . S
C1344 C1345 1.386 . S
C1344 C1346 1.391 . S
C1345 C1344 1.386 . S
C1345 C1349 1.393 . S
C1346 H1335 0.950 . S
C1346 C1344 1.391 . S
C1346 C1347 1.400 . S
C1347 C1341 1.491 . S
C1347 C1346 1.400 . S
C1347 C1348 1.398 . S
C1348 H1336 0.950 . S
C1348 C1347 1.398 . S
C1348 C1349 1.391 . S
C1349 H1337 0.950 . S
C1349 C1345 1.393 . S
C1349 C1348 1.391 . S
H1350 C1358 0.950 . S
H1351 C1363 0.950 . S
H1352 C1360 0.950 . S
H1353 C1362 0.950 . S
H1354 C1364 0.950 . S
H1355 C1366 0.950 . S
H1356 C1368 0.950 . S
H1357 C1369 0.950 . S
C1358 H1350 0.950 . S
C1358 C1359 1.386 . S
C1358 C1360 1.391 . S
C1359 C1358 1.386 . S
C1359 C1363 1.393 . S
C1360 H1352 0.950 . S
C1360 C1358 1.391 . S
C1360 C1361 1.400 . S
C1361 C1360 1.400 . S
C1361 C1362 1.398 . S
C1361 C1367 1.491 . S
C1362 H1353 0.950 . S
C1362 C1361 1.398 . S
C1362 C1363 1.391 . S
C1363 H1351 0.950 . S
C1363 C1359 1.393 . S
C1363 C1362 1.391 . S
C1364 H1354 0.950 . S
C1364 C1365 1.386 . S
C1364 C1366 1.391 . S
C1365 C1364 1.386 . S
C1365 C1369 1.393 . S
C1366 H1355 0.950 . S
C1366 C1364 1.391 . S
C1366 C1367 1.400 . S
C1367 C1361 1.491 . S
C1367 C1366 1.400 . S
C1367 C1368 1.398 . S
C1368 H1356 0.950 . S
C1368 C1367 1.398 . S
C1368 C1369 1.391 . S
C1369 H1357 0.950 . S
C1369 C1365 1.393 . S
C1369 C1368 1.391 . S
H1370 C1378 0.950 . S
H1371 C1383 0.950 . S
H1372 C1380 0.950 . S
H1373 C1382 0.950 . S
H1374 C1384 0.950 . S
H1375 C1386 0.950 . S
H1376 C1388 0.950 . S
H1377 C1389 0.950 . S
C1378 H1370 0.950 . S
C1378 C1379 1.386 . S
C1378 C1380 1.391 . S
C1379 C1378 1.386 . S
C1379 C1383 1.393 . S
C1380 H1372 0.950 . S
C1380 C1378 1.391 . S
C1380 C1381 1.400 . S
C1381 C1380 1.400 . S
C1381 C1382 1.398 . S
C1381 C1387 1.491 . S
C1382 H1373 0.950 . S
C1382 C1381 1.398 . S
C1382 C1383 1.391 . S
C1383 H1371 0.950 . S
C1383 C1379 1.393 . S
C1383 C1382 1.391 . S
C1384 H1374 0.950 . S
C1384 C1385 1.386 . S
C1384 C1386 1.391 . S
C1385 C1384 1.386 . S
C1385 C1389 1.393 . S
C1386 H1375 0.950 . S
C1386 C1384 1.391 . S
C1386 C1387 1.400 . S
C1387 C1381 1.491 . S
C1387 C1386 1.400 . S
C1387 C1388 1.398 . S
C1388 H1376 0.950 . S
C1388 C1387 1.398 . S
C1388 C1389 1.391 . S
C1389 H1377 0.950 . S
C1389 C1385 1.393 . S
C1389 C1388 1.391 . S
H1390 C1398 0.950 . S
H1391 C1403 0.950 . S
H1392 C1400 0.950 . S
H1393 C1402 0.950 . S
H1394 C1404 0.950 . S
H1395 C1406 0.950 . S
H1396 C1408 0.950 . S
H1397 C1409 0.950 . S
C1398 H1390 0.950 . S
C1398 C1399 1.386 . S
C1398 C1400 1.391 . S
C1399 C1398 1.386 . S
C1399 C1403 1.393 . S
C1400 H1392 0.950 . S
C1400 C1398 1.391 . S
C1400 C1401 1.400 . S
C1401 C1400 1.400 . S
C1401 C1402 1.398 . S
C1401 C1407 1.491 . S
C1402 H1393 0.950 . S
C1402 C1401 1.398 . S
C1402 C1403 1.391 . S
C1403 H1391 0.950 . S
C1403 C1399 1.393 . S
C1403 C1402 1.391 . S
C1404 H1394 0.950 . S
C1404 C1405 1.386 . S
C1404 C1406 1.391 . S
C1405 C1404 1.386 . S
C1405 C1409 1.393 . S
C1406 H1395 0.950 . S
C1406 C1404 1.391 . S
C1406 C1407 1.400 . S
C1407 C1401 1.491 . S
C1407 C1406 1.400 . S
C1407 C1408 1.398 . S
C1408 H1396 0.950 . S
C1408 C1407 1.398 . S
C1408 C1409 1.391 . S
C1409 H1397 0.950 . S
C1409 C1405 1.393 . S
C1409 C1408 1.391 . S
H1410 C1418 0.950 . S
H1411 C1423 0.950 . S
H1412 C1420 0.950 . S
H1413 C1422 0.950 . S
H1414 C1424 0.950 . S
H1415 C1426 0.950 . S
H1416 C1428 0.950 . S
H1417 C1429 0.950 . S
C1418 H1410 0.950 . S
C1418 C1419 1.386 . S
C1418 C1420 1.391 . S
C1419 C1418 1.386 . S
C1419 C1423 1.393 . S
C1420 H1412 0.950 . S
C1420 C1418 1.391 . S
C1420 C1421 1.400 . S
C1421 C1420 1.400 . S
C1421 C1422 1.398 . S
C1421 C1427 1.491 . S
C1422 H1413 0.950 . S
C1422 C1421 1.398 . S
C1422 C1423 1.391 . S
C1423 H1411 0.950 . S
C1423 C1419 1.393 . S
C1423 C1422 1.391 . S
C1424 H1414 0.950 . S
C1424 C1425 1.386 . S
C1424 C1426 1.391 . S
C1425 C1424 1.386 . S
C1425 C1429 1.393 . S
C1426 H1415 0.950 . S
C1426 C1424 1.391 . S
C1426 C1427 1.400 . S
C1427 C1421 1.491 . S
C1427 C1426 1.400 . S
C1427 C1428 1.398 . S
C1428 H1416 0.950 . S
C1428 C1427 1.398 . S
C1428 C1429 1.391 . S
C1429 H1417 0.950 . S
C1429 C1425 1.393 . S
C1429 C1428 1.391 . S
C485 C299 0.610 . S
C479 C4 0.265 . S
C505 C300 1.825 . S
C499 C63 1.940 . S
C525 C294 1.029 . S
C519 C72 1.063 . S
C539 C102 1.173 . S
C545 C293 1.161 . S
C559 C136 1.940 . S
C565 C296 1.822 . S
C585 C298 1.052 . S
C579 C183 1.062 . S
C599 C233 1.190 . S
C605 C297 1.179 . S
C619 C251 0.271 . S
C625 C295 0.614 . S
C645 C330 1.568 . S
C639 C29 1.555 . S
C659 C42 2.120 . S
C665 C361 2.067 . S
C685 C329 1.494 . S
C679 C97 1.524 . S
C705 C364 1.171 . S
C699 C115 1.155 . S
C719 C149 1.267 . S
C725 C327 1.279 . S
C745 C359 1.558 . S
C739 C187 1.580 . S
C759 C212 1.904 . S
C765 C332 1.885 . S
C779 C255 1.508 . S
C785 C366 1.444 . S
C799 C8 1.515 . S
C805 C362 1.426 . S
C819 C153 2.122 . S
C825 C365 2.063 . S
C845 C333 1.472 . S
C839 C170 1.542 . S
C865 C360 1.171 . S
C859 C208 1.191 . S
C879 C238 1.555 . S
C885 C326 1.569 . S
C899 C76 1.577 . S
C905 C363 1.570 . S
C925 C328 1.873 . S
C919 C119 1.909 . S
C939 C38 1.270 . S
C945 C331 1.269 . S
C959 C242 0.249 . S
C965 C398 0.609 . S
C979 C165 1.423 . S
C985 C399 1.335 . S
C1005 C393 1.042 . S
C999 C174 1.053 . S
C1025 C392 1.685 . S
C1019 C204 1.707 . S
C1039 C34 1.404 . S
C1045 C395 1.295 . S
C1065 C397 1.048 . S
C1059 C81 1.060 . S
C1079 C131 1.705 . S
C1085 C396 1.682 . S
C1099 C13 0.210 . S
C1105 C394 0.559 . S
C1119 C267 1.715 . S
C1125 C432 1.654 . S
C1145 C464 1.895 . S
C1139 C144 1.908 . S
C1159 C199 1.357 . S
C1165 C425 1.359 . S
C1179 C217 1.294 . S
C1185 C459 1.338 . S
C1205 C430 1.155 . S
C1199 C47 1.130 . S
C1219 C85 1.826 . S
C1225 C461 1.775 . S
C1245 C427 2.059 . S
C1239 C110 2.134 . S
C1265 C462 1.382 . S
C1259 C17 1.382 . S
C1285 C458 1.391 . S
C1279 C246 1.377 . S
C1299 C51 1.907 . S
C1305 C460 1.900 . S
C1319 C68 1.369 . S
C1325 C429 1.356 . S
C1345 C463 1.337 . S
C1339 C106 1.290 . S
C1359 C0 1.714 . S
C1365 C428 1.648 . S
C1379 C178 1.837 . S
C1385 C465 1.765 . S
C1405 C431 2.060 . S
C1399 C221 2.137 . S
C1425 C426 1.156 . S
C1419 C140 1.154 . S
