# Generated by pormake.
# Topology iac, (4,6)-cn, num edge types: 1
# Building blocks:
#     Node 0, Type 0, BuildingBlock: KUFVIS_clean_sbu_0, # of connection points: 4
#     Node 1, Type 0, BuildingBlock: KUFVIS_clean_sbu_0, # of connection points: 4
#     Node 2, Type 0, BuildingBlock: KUFVIS_clean_sbu_0, # of connection points: 4
#     Node 3, Type 0, BuildingBlock: KUFVIS_clean_sbu_0, # of connection points: 4
#     Node 4, Type 0, BuildingBlock: KUFVIS_clean_sbu_0, # of connection points: 4
#     Node 5, Type 0, BuildingBlock: KUFVIS_clean_sbu_0, # of connection points: 4
#     Node 6, Type 0, BuildingBlock: KUFVIS_clean_sbu_0, # of connection points: 4
#     Node 7, Type 0, BuildingBlock: KUFVIS_clean_sbu_0, # of connection points: 4
#     Node 8, Type 0, BuildingBlock: KUFVIS_clean_sbu_0, # of connection points: 4
#     Node 9, Type 0, BuildingBlock: KUFVIS_clean_sbu_0, # of connection points: 4
#     Node 10, Type 0, BuildingBlock: KUFVIS_clean_sbu_0, # of connection points: 4
#     Node 11, Type 0, BuildingBlock: KUFVIS_clean_sbu_0, # of connection points: 4
#     Node 12, Type 0, BuildingBlock: KUFVIS_clean_sbu_0, # of connection points: 4
#     Node 13, Type 0, BuildingBlock: KUFVIS_clean_sbu_0, # of connection points: 4
#     Node 14, Type 0, BuildingBlock: KUFVIS_clean_sbu_0, # of connection points: 4
#     Node 15, Type 0, BuildingBlock: KUFVIS_clean_sbu_0, # of connection points: 4
#     Node 16, Type 0, BuildingBlock: KUFVIS_clean_sbu_0, # of connection points: 4
#     Node 17, Type 0, BuildingBlock: KUFVIS_clean_sbu_0, # of connection points: 4
#     Node 18, Type 0, BuildingBlock: KUFVIS_clean_sbu_0, # of connection points: 4
#     Node 19, Type 0, BuildingBlock: KUFVIS_clean_sbu_0, # of connection points: 4
#     Node 20, Type 0, BuildingBlock: KUFVIS_clean_sbu_0, # of connection points: 4
#     Node 21, Type 0, BuildingBlock: KUFVIS_clean_sbu_0, # of connection points: 4
#     Node 22, Type 0, BuildingBlock: KUFVIS_clean_sbu_0, # of connection points: 4
#     Node 23, Type 0, BuildingBlock: KUFVIS_clean_sbu_0, # of connection points: 4
#     Node 24, Type 1, BuildingBlock: JUFBIX_clean_sbu_0, # of connection points: 6
#     Node 25, Type 1, BuildingBlock: JUFBIX_clean_sbu_0, # of connection points: 6
#     Node 26, Type 1, BuildingBlock: JUFBIX_clean_sbu_0, # of connection points: 6
#     Node 27, Type 1, BuildingBlock: JUFBIX_clean_sbu_0, # of connection points: 6
#     Node 28, Type 1, BuildingBlock: JUFBIX_clean_sbu_0, # of connection points: 6
#     Node 29, Type 1, BuildingBlock: JUFBIX_clean_sbu_0, # of connection points: 6
#     Node 30, Type 1, BuildingBlock: JUFBIX_clean_sbu_0, # of connection points: 6
#     Node 31, Type 1, BuildingBlock: JUFBIX_clean_sbu_0, # of connection points: 6
#     Node 32, Type 1, BuildingBlock: JUFBIX_clean_sbu_0, # of connection points: 6
#     Node 33, Type 1, BuildingBlock: JUFBIX_clean_sbu_0, # of connection points: 6
#     Node 34, Type 1, BuildingBlock: JUFBIX_clean_sbu_0, # of connection points: 6
#     Node 35, Type 1, BuildingBlock: JUFBIX_clean_sbu_0, # of connection points: 6
#     Node 36, Type 1, BuildingBlock: JUFBIX_clean_sbu_0, # of connection points: 6
#     Node 37, Type 1, BuildingBlock: JUFBIX_clean_sbu_0, # of connection points: 6
#     Node 38, Type 1, BuildingBlock: JUFBIX_clean_sbu_0, # of connection points: 6
#     Node 39, Type 1, BuildingBlock: JUFBIX_clean_sbu_0, # of connection points: 6
#     Edge 40, Type (0, 1), BuildingBlock: UVAHIK_clean_linker_0, # of connection points: 2
#     Edge 41, Type (0, 1), BuildingBlock: UVAHIK_clean_linker_0, # of connection points: 2
#     Edge 42, Type (0, 1), BuildingBlock: UVAHIK_clean_linker_0, # of connection points: 2
#     Edge 43, Type (0, 1), BuildingBlock: UVAHIK_clean_linker_0, # of connection points: 2
#     Edge 44, Type (0, 1), BuildingBlock: UVAHIK_clean_linker_0, # of connection points: 2
#     Edge 45, Type (0, 1), BuildingBlock: UVAHIK_clean_linker_0, # of connection points: 2
#     Edge 46, Type (0, 1), BuildingBlock: UVAHIK_clean_linker_0, # of connection points: 2
#     Edge 47, Type (0, 1), BuildingBlock: UVAHIK_clean_linker_0, # of connection points: 2
#     Edge 48, Type (0, 1), BuildingBlock: UVAHIK_clean_linker_0, # of connection points: 2
#     Edge 49, Type (0, 1), BuildingBlock: UVAHIK_clean_linker_0, # of connection points: 2
#     Edge 50, Type (0, 1), BuildingBlock: UVAHIK_clean_linker_0, # of connection points: 2
#     Edge 51, Type (0, 1), BuildingBlock: UVAHIK_clean_linker_0, # of connection points: 2
#     Edge 52, Type (0, 1), BuildingBlock: UVAHIK_clean_linker_0, # of connection points: 2
#     Edge 53, Type (0, 1), BuildingBlock: UVAHIK_clean_linker_0, # of connection points: 2
#     Edge 54, Type (0, 1), BuildingBlock: UVAHIK_clean_linker_0, # of connection points: 2
#     Edge 55, Type (0, 1), BuildingBlock: UVAHIK_clean_linker_0, # of connection points: 2
#     Edge 56, Type (0, 1), BuildingBlock: UVAHIK_clean_linker_0, # of connection points: 2
#     Edge 57, Type (0, 1), BuildingBlock: UVAHIK_clean_linker_0, # of connection points: 2
#     Edge 58, Type (0, 1), BuildingBlock: UVAHIK_clean_linker_0, # of connection points: 2
#     Edge 59, Type (0, 1), BuildingBlock: UVAHIK_clean_linker_0, # of connection points: 2
#     Edge 60, Type (0, 1), BuildingBlock: UVAHIK_clean_linker_0, # of connection points: 2
#     Edge 61, Type (0, 1), BuildingBlock: UVAHIK_clean_linker_0, # of connection points: 2
#     Edge 62, Type (0, 1), BuildingBlock: UVAHIK_clean_linker_0, # of connection points: 2
#     Edge 63, Type (0, 1), BuildingBlock: UVAHIK_clean_linker_0, # of connection points: 2
#     Edge 64, Type (0, 1), BuildingBlock: UVAHIK_clean_linker_0, # of connection points: 2
#     Edge 65, Type (0, 1), BuildingBlock: UVAHIK_clean_linker_0, # of connection points: 2
#     Edge 66, Type (0, 1), BuildingBlock: UVAHIK_clean_linker_0, # of connection points: 2
#     Edge 67, Type (0, 1), BuildingBlock: UVAHIK_clean_linker_0, # of connection points: 2
#     Edge 68, Type (0, 1), BuildingBlock: UVAHIK_clean_linker_0, # of connection points: 2
#     Edge 69, Type (0, 1), BuildingBlock: UVAHIK_clean_linker_0, # of connection points: 2
#     Edge 70, Type (0, 1), BuildingBlock: UVAHIK_clean_linker_0, # of connection points: 2
#     Edge 71, Type (0, 1), BuildingBlock: UVAHIK_clean_linker_0, # of connection points: 2
#     Edge 72, Type (0, 1), BuildingBlock: UVAHIK_clean_linker_0, # of connection points: 2
#     Edge 73, Type (0, 1), BuildingBlock: UVAHIK_clean_linker_0, # of connection points: 2
#     Edge 74, Type (0, 1), BuildingBlock: UVAHIK_clean_linker_0, # of connection points: 2
#     Edge 75, Type (0, 1), BuildingBlock: UVAHIK_clean_linker_0, # of connection points: 2
#     Edge 76, Type (0, 1), BuildingBlock: UVAHIK_clean_linker_0, # of connection points: 2
#     Edge 77, Type (0, 1), BuildingBlock: UVAHIK_clean_linker_0, # of connection points: 2
#     Edge 78, Type (0, 1), BuildingBlock: UVAHIK_clean_linker_0, # of connection points: 2
#     Edge 79, Type (0, 1), BuildingBlock: UVAHIK_clean_linker_0, # of connection points: 2
#     Edge 80, Type (0, 1), BuildingBlock: UVAHIK_clean_linker_0, # of connection points: 2
#     Edge 81, Type (0, 1), BuildingBlock: UVAHIK_clean_linker_0, # of connection points: 2
#     Edge 82, Type (0, 1), BuildingBlock: UVAHIK_clean_linker_0, # of connection points: 2
#     Edge 83, Type (0, 1), BuildingBlock: UVAHIK_clean_linker_0, # of connection points: 2
#     Edge 84, Type (0, 1), BuildingBlock: UVAHIK_clean_linker_0, # of connection points: 2
#     Edge 85, Type (0, 1), BuildingBlock: UVAHIK_clean_linker_0, # of connection points: 2
#     Edge 86, Type (0, 1), BuildingBlock: UVAHIK_clean_linker_0, # of connection points: 2
#     Edge 87, Type (0, 1), BuildingBlock: UVAHIK_clean_linker_0, # of connection points: 2
#     Edge 88, Type (0, 1), BuildingBlock: UVAHIK_clean_linker_0, # of connection points: 2
#     Edge 89, Type (0, 1), BuildingBlock: UVAHIK_clean_linker_0, # of connection points: 2
#     Edge 90, Type (0, 1), BuildingBlock: UVAHIK_clean_linker_0, # of connection points: 2
#     Edge 91, Type (0, 1), BuildingBlock: UVAHIK_clean_linker_0, # of connection points: 2
#     Edge 92, Type (0, 1), BuildingBlock: UVAHIK_clean_linker_0, # of connection points: 2
#     Edge 93, Type (0, 1), BuildingBlock: UVAHIK_clean_linker_0, # of connection points: 2
#     Edge 94, Type (0, 1), BuildingBlock: UVAHIK_clean_linker_0, # of connection points: 2
#     Edge 95, Type (0, 1), BuildingBlock: UVAHIK_clean_linker_0, # of connection points: 2
#     Edge 96, Type (0, 1), BuildingBlock: UVAHIK_clean_linker_0, # of connection points: 2
#     Edge 97, Type (0, 1), BuildingBlock: UVAHIK_clean_linker_0, # of connection points: 2
#     Edge 98, Type (0, 1), BuildingBlock: UVAHIK_clean_linker_0, # of connection points: 2
#     Edge 99, Type (0, 1), BuildingBlock: UVAHIK_clean_linker_0, # of connection points: 2
#     Edge 100, Type (0, 1), BuildingBlock: UVAHIK_clean_linker_0, # of connection points: 2
#     Edge 101, Type (0, 1), BuildingBlock: UVAHIK_clean_linker_0, # of connection points: 2
#     Edge 102, Type (0, 1), BuildingBlock: UVAHIK_clean_linker_0, # of connection points: 2
#     Edge 103, Type (0, 1), BuildingBlock: UVAHIK_clean_linker_0, # of connection points: 2
#     Edge 104, Type (0, 1), BuildingBlock: UVAHIK_clean_linker_0, # of connection points: 2
#     Edge 105, Type (0, 1), BuildingBlock: UVAHIK_clean_linker_0, # of connection points: 2
#     Edge 106, Type (0, 1), BuildingBlock: UVAHIK_clean_linker_0, # of connection points: 2
#     Edge 107, Type (0, 1), BuildingBlock: UVAHIK_clean_linker_0, # of connection points: 2
#     Edge 108, Type (0, 1), BuildingBlock: UVAHIK_clean_linker_0, # of connection points: 2
#     Edge 109, Type (0, 1), BuildingBlock: UVAHIK_clean_linker_0, # of connection points: 2
#     Edge 110, Type (0, 1), BuildingBlock: UVAHIK_clean_linker_0, # of connection points: 2
#     Edge 111, Type (0, 1), BuildingBlock: UVAHIK_clean_linker_0, # of connection points: 2
#     Edge 112, Type (0, 1), BuildingBlock: UVAHIK_clean_linker_0, # of connection points: 2
#     Edge 113, Type (0, 1), BuildingBlock: UVAHIK_clean_linker_0, # of connection points: 2
#     Edge 114, Type (0, 1), BuildingBlock: UVAHIK_clean_linker_0, # of connection points: 2
#     Edge 115, Type (0, 1), BuildingBlock: UVAHIK_clean_linker_0, # of connection points: 2
#     Edge 116, Type (0, 1), BuildingBlock: UVAHIK_clean_linker_0, # of connection points: 2
#     Edge 117, Type (0, 1), BuildingBlock: UVAHIK_clean_linker_0, # of connection points: 2
#     Edge 118, Type (0, 1), BuildingBlock: UVAHIK_clean_linker_0, # of connection points: 2
#     Edge 119, Type (0, 1), BuildingBlock: UVAHIK_clean_linker_0, # of connection points: 2
#     Edge 120, Type (0, 1), BuildingBlock: UVAHIK_clean_linker_0, # of connection points: 2
#     Edge 121, Type (0, 1), BuildingBlock: UVAHIK_clean_linker_0, # of connection points: 2
#     Edge 122, Type (0, 1), BuildingBlock: UVAHIK_clean_linker_0, # of connection points: 2
#     Edge 123, Type (0, 1), BuildingBlock: UVAHIK_clean_linker_0, # of connection points: 2
#     Edge 124, Type (0, 1), BuildingBlock: UVAHIK_clean_linker_0, # of connection points: 2
#     Edge 125, Type (0, 1), BuildingBlock: UVAHIK_clean_linker_0, # of connection points: 2
#     Edge 126, Type (0, 1), BuildingBlock: UVAHIK_clean_linker_0, # of connection points: 2
#     Edge 127, Type (0, 1), BuildingBlock: UVAHIK_clean_linker_0, # of connection points: 2
#     Edge 128, Type (0, 1), BuildingBlock: UVAHIK_clean_linker_0, # of connection points: 2
#     Edge 129, Type (0, 1), BuildingBlock: UVAHIK_clean_linker_0, # of connection points: 2
#     Edge 130, Type (0, 1), BuildingBlock: UVAHIK_clean_linker_0, # of connection points: 2
#     Edge 131, Type (0, 1), BuildingBlock: UVAHIK_clean_linker_0, # of connection points: 2
#     Edge 132, Type (0, 1), BuildingBlock: UVAHIK_clean_linker_0, # of connection points: 2
#     Edge 133, Type (0, 1), BuildingBlock: UVAHIK_clean_linker_0, # of connection points: 2
#     Edge 134, Type (0, 1), BuildingBlock: UVAHIK_clean_linker_0, # of connection points: 2
#     Edge 135, Type (0, 1), BuildingBlock: UVAHIK_clean_linker_0, # of connection points: 2
# Relax obj value: 0.213
# Max RMSD: 0.232
# Mean RMSD: 0.105
data_MOF--net-iac--node1-KUFVIS_clean_sbu_0--node2-JUFBIX_clean_sbu_0--edge1-UVAHIK_clean_linker_0
_symmetry_space_group_name_H-M    P1
_symmetry_Int_Tables_number       1
_symmetry_cell_setting            triclinic
loop_
_symmetry_equiv_pos_as_xyz
'x, y, z'
_cell_length_a     69.50446
_cell_length_b     69.665303
_cell_length_c     71.334921
_cell_angle_alpha  89.615379
_cell_angle_beta   88.538396
_cell_angle_gamma 89.425702
loop_
_atom_site_label
_atom_site_type_symbol
_atom_site_fract_x
_atom_site_fract_y
_atom_site_fract_z
_atom_type_partial_charge
Mn0 Mn 0.02499 0.27296 0.14614 0.0
Mn1 Mn 0.99726 0.26723 0.1082 0.0
C2 C 0.02055 0.24236 0.1339 0.0
C3 C 0.05455 0.27903 0.16028 0.0
C4 C 0.9807 0.27382 0.14743 0.0
O5 O 0.02293 0.30044 0.1354 0.0
O6 O 0.00593 0.29427 0.10969 0.0
C7 C 0.02712 0.27361 0.07855 0.0
N8 N 0.01319 0.26237 0.0865 0.0
C9 C 0.01759 0.23854 0.06247 0.0
C10 C 0.03192 0.24992 0.05395 0.0
C11 C 0.03673 0.2675 0.06206 0.0
C12 C 0.00849 0.24539 0.07887 0.0
H13 H 0.03085 0.28713 0.08476 0.0
C14 C 0.01491 0.30581 0.12024 0.0
O15 O 0.03819 0.282 0.16896 0.0
O16 O 0.05382 0.27315 0.14307 0.0
N17 N 0.98773 0.24185 0.10473 0.0
C18 C 0.97429 0.23217 0.11521 0.0
C19 C 0.9682 0.21408 0.10928 0.0
C20 C 0.97579 0.20626 0.09254 0.0
C21 C 0.98938 0.21663 0.08184 0.0
C22 C 0.99484 0.23462 0.08841 0.0
H23 H 0.96834 0.23814 0.12805 0.0
O24 O 0.02588 0.24458 0.15103 0.0
O25 O 0.01823 0.25811 0.12422 0.0
O26 O 0.99678 0.27417 0.15568 0.0
O27 O 0.97936 0.27176 0.12974 0.0
C28 C 0.99807 0.20962 0.06515 0.0
C29 C 0.01221 0.22054 0.0555 0.0
H30 H 0.03941 0.24523 0.04126 0.0
H31 H 0.04783 0.27632 0.05561 0.0
H32 H 0.95771 0.20616 0.11762 0.0
H33 H 0.97121 0.19222 0.08811 0.0
H34 H 0.99422 0.1957 0.05979 0.0
H35 H 0.01899 0.21487 0.04284 0.0
Mn36 Mn 0.03105 0.78416 0.41223 0.0
Mn37 Mn 0.00137 0.77833 0.4501 0.0
C38 C 0.01882 0.81053 0.42763 0.0
C39 C 0.06104 0.78587 0.39747 0.0
C40 C 0.98814 0.77467 0.4104 0.0
O41 O 0.0356 0.75638 0.41928 0.0
O42 O 0.01531 0.75392 0.44427 0.0
C43 C 0.03173 0.77251 0.47802 0.0
N44 N 0.01595 0.78233 0.47207 0.0
C45 C 0.01611 0.80295 0.49899 0.0
C46 C 0.03229 0.79298 0.50547 0.0
C47 C 0.04016 0.77773 0.4949 0.0
C48 C 0.00836 0.79713 0.48205 0.0
H49 H 0.03785 0.76081 0.46993 0.0
C50 C 0.02781 0.74686 0.43267 0.0
O51 O 0.04589 0.78073 0.38863 0.0
O52 O 0.05887 0.78991 0.41518 0.0
N53 N 0.98689 0.80058 0.45772 0.0
C54 C 0.97131 0.80877 0.4495 0.0
C55 C 0.96179 0.82431 0.45825 0.0
C56 C 0.9682 0.83107 0.4755 0.0
C57 C 0.98396 0.8221 0.48392 0.0
C58 C 0.99281 0.80662 0.47458 0.0
H59 H 0.96626 0.80358 0.43629 0.0
O60 O 0.02507 0.81198 0.41038 0.0
O61 O 0.02034 0.79374 0.43565 0.0
O62 O 0.00458 0.77783 0.40284 0.0
O63 O 0.98503 0.7745 0.42812 0.0
C64 C 0.99133 0.82802 0.50114 0.0
C65 C 0.00746 0.81853 0.50862 0.0
H66 H 0.03884 0.79697 0.51848 0.0
H67 H 0.05269 0.77002 0.49976 0.0
H68 H 0.94958 0.83108 0.45171 0.0
H69 H 0.96092 0.84316 0.48213 0.0
H70 H 0.98479 0.83996 0.50868 0.0
H71 H 0.01312 0.82334 0.52178 0.0
Mn72 Mn 0.52583 0.77081 0.6455 0.0
Mn73 Mn 0.49811 0.76596 0.60748 0.0
C74 C 0.5207 0.74036 0.6331 0.0
C75 C 0.55564 0.77637 0.65945 0.0
C76 C 0.48151 0.77282 0.64669 0.0
O77 O 0.52456 0.79827 0.6348 0.0
O78 O 0.50731 0.79288 0.6091 0.0
C79 C 0.52816 0.77194 0.57792 0.0
N80 N 0.51401 0.76091 0.5858 0.0
C81 C 0.51814 0.73706 0.56174 0.0
C82 C 0.53268 0.74822 0.5533 0.0
C83 C 0.53774 0.76571 0.56145 0.0
C84 C 0.50907 0.74403 0.5781 0.0
H85 H 0.53209 0.78538 0.58416 0.0
C86 C 0.51666 0.80404 0.61973 0.0
O87 O 0.53939 0.77981 0.66819 0.0
O88 O 0.55463 0.77009 0.64241 0.0
N89 N 0.48813 0.74078 0.60388 0.0
C90 C 0.47456 0.73124 0.61434 0.0
C91 C 0.46828 0.71323 0.6084 0.0
C92 C 0.47583 0.70532 0.59168 0.0
C93 C 0.48957 0.71552 0.58101 0.0
C94 C 0.49522 0.73345 0.58758 0.0
H95 H 0.46866 0.73728 0.62717 0.0
O96 O 0.52594 0.74235 0.65031 0.0
O97 O 0.51878 0.75624 0.62354 0.0
O98 O 0.49759 0.77289 0.65499 0.0
O99 O 0.48025 0.77069 0.62899 0.0
C100 C 0.49823 0.7084 0.56435 0.0
C101 C 0.51254 0.71914 0.55475 0.0
H102 H 0.54016 0.74344 0.54064 0.0
H103 H 0.549 0.77436 0.55507 0.0
H104 H 0.45767 0.70544 0.61671 0.0
H105 H 0.4711 0.69133 0.58725 0.0
H106 H 0.49422 0.69453 0.55898 0.0
H107 H 0.5193 0.71338 0.54212 0.0
Mn108 Mn 0.51995 0.27068 0.90866 0.0
Mn109 Mn 0.49432 0.27962 0.9486 0.0
C110 C 0.51055 0.30164 0.91566 0.0
C111 C 0.5488 0.26544 0.89243 0.0
C112 C 0.47716 0.26248 0.91395 0.0
O113 O 0.52373 0.24641 0.92401 0.0
O114 O 0.50857 0.2549 0.95105 0.0
C115 C 0.52683 0.28518 0.974 0.0
N116 N 0.51028 0.29181 0.96631 0.0
C117 C 0.51109 0.32077 0.98447 0.0
C118 C 0.52806 0.31418 0.99269 0.0
C119 C 0.536 0.29635 0.98737 0.0
C120 C 0.50264 0.30904 0.97118 0.0
H121 H 0.53299 0.27149 0.96993 0.0
C122 C 0.51886 0.24326 0.9411 0.0
O123 O 0.53272 0.25868 0.88659 0.0
O124 O 0.54817 0.27525 0.90788 0.0
N125 N 0.47995 0.30321 0.94852 0.0
C126 C 0.46401 0.30787 0.93866 0.0
C127 C 0.45432 0.32529 0.94228 0.0
C128 C 0.46104 0.33767 0.95606 0.0
C129 C 0.47751 0.33262 0.96598 0.0
C130 C 0.48643 0.31497 0.96192 0.0
H131 H 0.45868 0.29837 0.92815 0.0
O132 O 0.51518 0.29703 0.89852 0.0
O133 O 0.51196 0.28813 0.92824 0.0
O134 O 0.49244 0.26335 0.90382 0.0
O135 O 0.47628 0.2676 0.93112 0.0
C136 C 0.48553 0.34449 0.97959 0.0
C137 C 0.50238 0.33862 0.98875 0.0
H138 H 0.53519 0.32276 0.00299 0.0
H139 H 0.54915 0.29121 0.99357 0.0
H140 H 0.44166 0.32913 0.93451 0.0
H141 H 0.45346 0.35104 0.95888 0.0
H142 H 0.47903 0.35829 0.98292 0.0
H143 H 0.50859 0.348 0.99897 0.0
Mn144 Mn 0.15254 0.01892 0.28495 0.0
Mn145 Mn 0.19159 0.03147 0.30901 0.0
C146 C 0.1552 0.04982 0.29536 0.0
C147 C 0.1381 0.01383 0.25652 0.0
C148 C 0.15818 0.00934 0.32624 0.0
O149 O 0.17137 0.99715 0.27996 0.0
O150 O 0.19756 0.00769 0.29454 0.0
C151 C 0.21718 0.04164 0.27672 0.0
N152 N 0.2081 0.04662 0.29315 0.0
C153 C 0.2216 0.07829 0.29175 0.0
C154 C 0.2312 0.07346 0.27488 0.0
C155 C 0.22894 0.05507 0.26732 0.0
C156 C 0.21007 0.06431 0.30048 0.0
H157 H 0.21542 0.02754 0.27083 0.0
C158 C 0.18895 0.99554 0.28437 0.0
O159 O 0.13213 0.00511 0.2717 0.0
O160 O 0.1525 0.0254 0.2579 0.0
N161 N 0.18814 0.05426 0.32361 0.0
C162 C 0.17753 0.05679 0.33976 0.0
C163 C 0.17819 0.07443 0.34912 0.0
C164 C 0.18985 0.08921 0.34189 0.0
C165 C 0.20073 0.08624 0.32533 0.0
C166 C 0.19968 0.06828 0.31674 0.0
H167 H 0.16863 0.04545 0.34547 0.0
O168 O 0.13853 0.04325 0.29089 0.0
O169 O 0.16989 0.03826 0.29305 0.0
O170 O 0.14783 0.00944 0.31174 0.0
O171 O 0.17504 0.01649 0.32655 0.0
C172 C 0.21245 0.10045 0.31693 0.0
C173 C 0.2228 0.0965 0.3001 0.0
H174 H 0.24024 0.08379 0.26755 0.0
H175 H 0.23623 0.05127 0.25426 0.0
H176 H 0.16975 0.07661 0.3619 0.0
H177 H 0.19034 0.10278 0.34917 0.0
H178 H 0.21342 0.11453 0.32318 0.0
H179 H 0.23159 0.10761 0.29366 0.0
Mn180 Mn 0.25625 0.89562 0.53816 0.0
Mn181 Mn 0.26231 0.93334 0.50921 0.0
C182 C 0.28684 0.90682 0.53242 0.0
C183 C 0.24738 0.88559 0.56807 0.0
C184 C 0.25437 0.89279 0.49612 0.0
O185 O 0.22938 0.90635 0.53485 0.0
O186 O 0.23611 0.93466 0.52101 0.0
C187 C 0.26119 0.96474 0.53699 0.0
N188 N 0.27045 0.95532 0.52268 0.0
C189 C 0.29692 0.9773 0.52304 0.0
C190 C 0.28757 0.98737 0.53765 0.0
C191 C 0.26967 0.981 0.54471 0.0
C192 C 0.2878 0.96115 0.51597 0.0
H193 H 0.24748 0.95983 0.54252 0.0
C194 C 0.22451 0.92308 0.52938 0.0
O195 O 0.24553 0.87431 0.55378 0.0
O196 O 0.25478 0.90234 0.56493 0.0
N197 N 0.28717 0.93411 0.49701 0.0
C198 C 0.29463 0.92242 0.48335 0.0
C199 C 0.31248 0.92678 0.47481 0.0
C200 C 0.32242 0.94318 0.48027 0.0
C201 C 0.31451 0.95499 0.49437 0.0
C202 C 0.29655 0.95005 0.50222 0.0
H203 H 0.28699 0.90994 0.47886 0.0
O204 O 0.28439 0.88993 0.53983 0.0
O205 O 0.27135 0.91684 0.52946 0.0
O206 O 0.25607 0.88438 0.51194 0.0
O207 O 0.25462 0.91106 0.49403 0.0
C208 C 0.32378 0.97141 0.50099 0.0
C209 C 0.31505 0.98248 0.51541 0.0
H210 H 0.29407 -9e-05 0.54366 0.0
H211 H 0.26243 0.98861 0.55608 0.0
H212 H 0.31851 0.91758 0.46394 0.0
H213 H 0.3361 0.94658 0.4735 0.0
H214 H 0.33774 0.97552 0.49526 0.0
H215 H 0.32245 0.99491 0.52059 0.0
Mn216 Mn 0.40243 0.02633 0.75684 0.0
Mn217 Mn 0.36086 0.00953 0.77577 0.0
C218 C 0.40046 0.99442 0.76425 0.0
C219 C 0.41912 0.03621 0.73015 0.0
C220 C 0.39039 0.03099 0.79793 0.0
O221 O 0.38345 0.04774 0.75274 0.0
O222 O 0.35578 0.03448 0.76285 0.0
C223 C 0.34123 0.00179 0.7403 0.0
N224 N 0.34758 0.99556 0.75721 0.0
C225 C 0.33426 0.96423 0.75269 0.0
C226 C 0.32747 0.97034 0.73527 0.0
C227 C 0.33105 0.98917 0.72901 0.0
C228 C 0.34446 0.9774 0.76324 0.0
H229 H 0.34392 0.01627 0.73548 0.0
C230 C 0.36531 0.04818 0.75516 0.0
O231 O 0.42329 0.0429 0.74651 0.0
O232 O 0.40582 0.02332 0.72951 0.0
N233 N 0.36279 0.9855 0.7888 0.0
C234 C 0.37073 0.98172 0.80572 0.0
C235 C 0.36812 0.96363 0.81415 0.0
C236 C 0.35725 0.94968 0.8052 0.0
C237 C 0.34934 0.95383 0.78775 0.0
C238 C 0.35218 0.9722 0.78015 0.0
H239 H 0.37893 0.99242 0.81277 0.0
O240 O 0.41713 0.00229 0.76137 0.0
O241 O 0.38531 0.00526 0.76173 0.0
O242 O 0.4029 0.03278 0.78464 0.0
O243 O 0.37398 0.0232 0.79595 0.0
C244 C 0.33883 0.94042 0.77754 0.0
C245 C 0.33143 0.94558 0.75995 0.0
H246 H 0.31956 0.96067 0.72655 0.0
H247 H 0.32592 0.99396 0.71556 0.0
H248 H 0.37438 0.96048 0.82758 0.0
H249 H 0.35507 0.93582 0.81183 0.0
H250 H 0.33657 0.92604 0.78299 0.0
H251 H 0.32357 0.93508 0.75212 0.0
Mn252 Mn 0.26146 0.15625 0.02284 0.0
Mn253 Mn 0.25879 0.11685 0.99546 0.0
C254 C 0.23188 0.1413 0.01871 0.0
C255 C 0.26647 0.17016 0.0526 0.0
C256 C 0.26163 0.15732 0.97931 0.0
O257 O 0.28963 0.14719 0.02068 0.0
O258 O 0.28586 0.12097 0.00292 0.0
C259 C 0.26882 0.08787 0.02426 0.0
N260 N 0.25648 0.09461 0.01117 0.0
C261 C 0.23518 0.06801 0.01652 0.0
C262 C 0.24772 0.06071 0.02998 0.0
C263 C 0.26457 0.07073 0.03391 0.0
C264 C 0.24013 0.08519 0.00742 0.0
H265 H 0.2818 0.09551 0.02732 0.0
C266 C 0.29636 0.13236 0.0122 0.0
O267 O 0.26886 0.17986 0.03712 0.0
O268 O 0.26147 0.15241 0.05077 0.0
N269 N 0.23361 0.11065 0.98719 0.0
C270 C 0.22267 0.11997 0.97434 0.0
C271 C 0.2052 0.11194 0.969 0.0
C272 C 0.19924 0.09434 0.97678 0.0
C273 C 0.21084 0.08491 0.98981 0.0
C274 C 0.22814 0.09356 0.99454 0.0
H275 H 0.22713 0.13352 0.96835 0.0
O276 O 0.2326 0.15905 0.02402 0.0
O277 O 0.24845 0.13276 0.01606 0.0
O278 O 0.26236 0.16607 0.99507 0.0
O279 O 0.26052 0.13906 0.97812 0.0
C280 C 0.2058 0.06736 0.99845 0.0
C281 C 0.21789 0.05899 0.0119 0.0
H282 H 0.2445 0.04749 0.03744 0.0
H283 H 0.27428 0.06523 0.04433 0.0
H284 H 0.19631 0.11934 0.95897 0.0
H285 H 0.18568 0.08828 0.97275 0.0
H286 H 0.19254 0.06031 0.99503 0.0
H287 H 0.21371 0.04564 0.01866 0.0
Mn288 Mn 0.7469 0.39851 0.03859 0.0
Mn289 Mn 0.74072 0.43408 0.007 0.0
C290 C 0.77283 0.41644 0.02907 0.0
C291 C 0.74439 0.38867 0.06962 0.0
C292 C 0.74302 0.39187 0.99674 0.0
O293 O 0.71809 0.40213 0.03819 0.0
O294 O 0.7155 0.42812 0.0195 0.0
C295 C 0.73056 0.46555 0.03321 0.0
N296 N 0.74212 0.45833 0.0192 0.0
C297 C 0.76126 0.48694 0.01832 0.0
C298 C 0.74947 0.49473 0.03264 0.0
C299 C 0.73408 0.48397 0.04014 0.0
C300 C 0.75702 0.46853 0.01194 0.0
H301 H 0.71877 0.45728 0.03907 0.0
C302 C 0.70823 0.41532 0.03049 0.0
O303 O 0.7436 0.37636 0.05604 0.0
O304 O 0.74693 0.40653 0.06511 0.0
N305 N 0.76386 0.44151 0.99386 0.0
C306 C 0.77422 0.43169 0.9805 0.0
C307 C 0.7903 0.44034 0.97178 0.0
C308 C 0.79545 0.45905 0.97673 0.0
C309 C 0.78439 0.46899 0.99028 0.0
C310 C 0.76842 0.4597 0.99838 0.0
H311 H 0.77033 0.41733 0.9766 0.0
O312 O 0.77543 0.3999 0.03714 0.0
O313 O 0.75511 0.42228 0.02744 0.0
O314 O 0.74666 0.38535 0.01305 0.0
O315 O 0.73972 0.40962 0.99325 0.0
C316 C 0.78876 0.48763 0.99629 0.0
C317 C 0.77724 0.49658 0.01033 0.0
H318 H 0.75218 0.50891 0.03807 0.0
H319 H 0.72497 0.48985 0.05126 0.0
H320 H 0.79875 0.43259 0.96131 0.0
H321 H 0.80797 0.4656 0.9701 0.0
H322 H 0.8011 0.49512 0.99037 0.0
H323 H 0.78088 0.51082 0.01499 0.0
Mn324 Mn 0.88581 0.52963 0.25927 0.0
Mn325 Mn 0.84409 0.52377 0.28397 0.0
C326 C 0.87742 0.49944 0.26938 0.0
C327 C 0.90202 0.53394 0.23083 0.0
C328 C 0.88062 0.5382 0.30105 0.0
O329 O 0.87171 0.55468 0.25521 0.0
O330 O 0.84365 0.54864 0.2702 0.0
C331 C 0.81837 0.52053 0.25172 0.0
N332 N 0.82523 0.5133 0.26806 0.0
C333 C 0.80295 0.48713 0.26778 0.0
C334 C 0.79555 0.49433 0.251 0.0
C335 C 0.80339 0.51104 0.24287 0.0
C336 C 0.81807 0.49705 0.27579 0.0
H337 H 0.82423 0.53347 0.24553 0.0
C338 C 0.8546 0.55933 0.26005 0.0
O339 O 0.90887 0.5403 0.24634 0.0
O340 O 0.88591 0.52465 0.23191 0.0
N341 N 0.84164 0.50047 0.29811 0.0
C342 C 0.85081 0.49507 0.31398 0.0
C343 C 0.84485 0.47852 0.32376 0.0
C344 C 0.82923 0.46796 0.31738 0.0
C345 C 0.81986 0.47391 0.30112 0.0
C346 C 0.82654 0.49043 0.29189 0.0
H347 H 0.8626 0.50332 0.31915 0.0
O348 O 0.89507 0.50315 0.26431 0.0
O349 O 0.86481 0.51328 0.26745 0.0
O350 O 0.89112 0.53705 0.28619 0.0
O351 O 0.86273 0.53412 0.30168 0.0
C352 C 0.8042 0.46406 0.29366 0.0
C353 C 0.79591 0.47053 0.27689 0.0
H354 H 0.7839 0.48714 0.24422 0.0
H355 H 0.79779 0.51666 0.2299 0.0
H356 H 0.85215 0.47401 0.33628 0.0
H357 H 0.8246 0.45527 0.32503 0.0
H358 H 0.79854 0.45137 0.3006 0.0
H359 H 0.78409 0.46266 0.27114 0.0
Mn360 Mn 0.76591 0.65612 0.52251 0.0
Mn361 Mn 0.76323 0.61704 0.49482 0.0
C362 C 0.73618 0.64128 0.51824 0.0
C363 C 0.77115 0.66954 0.55246 0.0
C364 C 0.76764 0.65779 0.47932 0.0
O365 O 0.79419 0.64701 0.51967 0.0
O366 O 0.78984 0.61933 0.5042 0.0
C367 C 0.76927 0.58693 0.52364 0.0
N368 N 0.75844 0.59465 0.50979 0.0
C369 C 0.73505 0.56956 0.51328 0.0
C370 C 0.74609 0.56119 0.5274 0.0
C371 C 0.76323 0.56997 0.53266 0.0
C372 C 0.74181 0.58645 0.50478 0.0
H373 H 0.78236 0.59372 0.52782 0.0
C374 C 0.80053 0.63117 0.51272 0.0
O375 O 0.77346 0.67946 0.5371 0.0
O376 O 0.76622 0.65179 0.5504 0.0
N377 N 0.73831 0.61278 0.48486 0.0
C378 C 0.72888 0.62315 0.47161 0.0
C379 C 0.71126 0.61653 0.46508 0.0
C380 C 0.70362 0.59926 0.47209 0.0
C381 C 0.71365 0.58875 0.48559 0.0
C382 C 0.73124 0.59596 0.49144 0.0
H383 H 0.73471 0.63638 0.46607 0.0
O384 O 0.73694 0.65886 0.52405 0.0
O385 O 0.75276 0.63292 0.51531 0.0
O386 O 0.76651 0.66645 0.49511 0.0
O387 O 0.76755 0.63948 0.478 0.0
C388 C 0.70677 0.57154 0.49366 0.0
C389 C 0.71742 0.562 0.50755 0.0
H390 H 0.74144 0.54815 0.53445 0.0
H391 H 0.77174 0.5637 0.54367 0.0
H392 H 0.7036 0.62473 0.45465 0.0
H393 H 0.68999 0.59425 0.46706 0.0
H394 H 0.69315 0.56569 0.4895 0.0
H395 H 0.71183 0.54895 0.51387 0.0
Mn396 Mn 0.64237 0.51818 0.79091 0.0
Mn397 Mn 0.68284 0.52336 0.81544 0.0
C398 C 0.65085 0.54808 0.80124 0.0
C399 C 0.62733 0.51593 0.76237 0.0
C400 C 0.64584 0.50736 0.8322 0.0
O401 O 0.65697 0.49335 0.78593 0.0
O402 O 0.68431 0.49903 0.80111 0.0
C403 C 0.71074 0.52823 0.78376 0.0
N404 N 0.70243 0.53486 0.79998 0.0
C405 C 0.72368 0.56189 0.80028 0.0
C406 C 0.73253 0.55532 0.7836 0.0
C407 C 0.72594 0.53848 0.77525 0.0
C408 C 0.70843 0.55121 0.80796 0.0
H409 H 0.70583 0.51518 0.77741 0.0
C410 C 0.6739 0.48862 0.79075 0.0
O411 O 0.6198 0.50842 0.77753 0.0
O412 O 0.64356 0.52477 0.76383 0.0
N413 N 0.68362 0.54633 0.82994 0.0
C414 C 0.67287 0.55125 0.84544 0.0
C415 C 0.67718 0.56809 0.85514 0.0
C416 C 0.69271 0.57947 0.84902 0.0
C417 C 0.7037 0.57398 0.83316 0.0
C418 C 0.69857 0.5572 0.82392 0.0
H419 H 0.66106 0.54245 0.85033 0.0
O420 O 0.63318 0.54473 0.79688 0.0
O421 O 0.66306 0.53396 0.79908 0.0
O422 O 0.6358 0.50925 0.81759 0.0
O423 O 0.66357 0.51186 0.83275 0.0
C424 C 0.71952 0.58451 0.82612 0.0
C425 C 0.72938 0.5786 0.80958 0.0
H426 H 0.74435 0.56312 0.77706 0.0
H427 H 0.73267 0.53335 0.76235 0.0
H428 H 0.66863 0.57222 0.86737 0.0
H429 H 0.69603 0.59242 0.85656 0.0
H430 H 0.724 0.59742 0.83312 0.0
H431 H 0.74125 0.58707 0.80408 0.0
Mn432 Mn 0.01905 0.78527 0.89623 0.0
Mn433 Mn 0.98597 0.79206 0.93112 0.0
C434 C 0.01291 0.816 0.90775 0.0
C435 C 0.0506 0.77912 0.88522 0.0
C436 C 0.97534 0.78427 0.89081 0.0
O437 O 0.01595 0.75817 0.90756 0.0
O438 O 0.99525 0.76491 0.93155 0.0
C439 C 0.01081 0.78657 0.96387 0.0
N440 N 0.99846 0.79776 0.95396 0.0
C441 C 0.0002 0.82321 0.9765 0.0
C442 C 0.01285 0.8119 0.987 0.0
C443 C 0.01819 0.79351 0.98064 0.0
C444 C 0.9932 0.81546 0.95997 0.0
H445 H 0.01503 0.77246 0.959 0.0
C446 C 0.00614 0.7532 0.92224 0.0
O447 O 0.0358 0.77558 0.87513 0.0
O448 O 0.04706 0.78546 0.90205 0.0
N449 N 0.97616 0.81782 0.93237 0.0
C450 C 0.96486 0.82737 0.91999 0.0
C451 C 0.95879 0.84624 0.92393 0.0
C452 C 0.96433 0.85505 0.94058 0.0
C453 C 0.97585 0.84489 0.95317 0.0
C454 C 0.98134 0.82607 0.94856 0.0
H455 H 0.96063 0.82071 0.90713 0.0
O456 O 0.02028 0.81363 0.89102 0.0
O457 O 0.00914 0.80033 0.91708 0.0
O458 O 0.99254 0.78384 0.88413 0.0
O459 O 0.97136 0.78669 0.90822 0.0
C460 C 0.98247 0.85286 0.96989 0.0
C461 C 0.99463 0.84202 0.98155 0.0
H462 H 0.01869 0.81726 0.99987 0.0
H463 H 0.02802 0.78474 0.98862 0.0
H464 H 0.94994 0.85401 0.91412 0.0
H465 H 0.9598 0.86968 0.94347 0.0
H466 H 0.97854 0.86741 0.97378 0.0
H467 H 0.99986 0.8484 0.99423 0.0
Mn468 Mn 0.00328 0.30218 0.64067 0.0
Mn469 Mn 0.98244 0.28742 0.60118 0.0
C470 C 0.01232 0.27345 0.62735 0.0
C471 C 0.02728 0.31785 0.65631 0.0
C472 C 0.96286 0.28564 0.63949 0.0
O473 O 0.99119 0.32666 0.63076 0.0
O474 O 0.97889 0.31566 0.60393 0.0
C475 C 0.00788 0.30683 0.57322 0.0
N476 N 1.00007 0.29041 0.58038 0.0
C477 C 0.0168 0.27122 0.55714 0.0
C478 C 0.02494 0.28794 0.54945 0.0
C479 C 0.02048 0.30581 0.55755 0.0
C480 C 0.00426 0.27314 0.5727 0.0
H481 H 0.00454 0.3206 0.57945 0.0
C482 C 0.98223 0.32917 0.61552 0.0
O483 O 0.01068 0.31451 0.66438 0.0
O484 O 0.02938 0.31332 0.63876 0.0
N485 N 0.98515 0.26042 0.5969 0.0
C486 C 0.97696 0.24559 0.60665 0.0
C487 C 0.98048 0.22667 0.60072 0.0
C488 C 0.99227 0.2232 0.58479 0.0
C489 C 0.00039 0.2387 0.5749 0.0
C490 C 0.99629 0.25726 0.5814 0.0
H491 H 0.96794 0.24818 0.61894 0.0
O492 O 0.01503 0.27644 0.645 0.0
O493 O 0.00426 0.28733 0.61804 0.0
O494 O 0.97691 0.29221 0.64847 0.0
O495 O 0.96326 0.28339 0.62174 0.0
C496 C 0.01267 0.23646 0.55903 0.0
C497 C 0.02091 0.2527 0.55019 0.0
H498 H 0.03475 0.2872 0.53742 0.0
H499 H 0.02677 0.31877 0.55174 0.0
H500 H 0.97418 0.21478 0.60846 0.0
H501 H 0.99508 0.20858 0.58036 0.0
H502 H 0.0161 0.22228 0.55368 0.0
H503 H 0.03057 0.25076 0.53817 0.0
Mn504 Mn 0.51011 0.27474 0.39726 0.0
Mn505 Mn 0.50488 0.30197 0.35828 0.0
C506 C 0.47976 0.27885 0.38417 0.0
C507 C 0.51654 0.24514 0.41216 0.0
C508 C 0.51183 0.3187 0.3969 0.0
O509 O 0.5378 0.27668 0.38636 0.0
O510 O 0.53159 0.29165 0.35893 0.0
C511 C 0.50929 0.2717 0.32948 0.0
N512 N 0.49887 0.28638 0.3373 0.0
C513 C 0.47412 0.28318 0.31457 0.0
C514 C 0.48478 0.26828 0.30605 0.0
C515 C 0.50238 0.26244 0.31361 0.0
C516 C 0.48177 0.29191 0.33033 0.0
H517 H 0.52268 0.26701 0.3354 0.0
C518 C 0.54303 0.28301 0.37011 0.0
O519 O 0.51892 0.26142 0.42047 0.0
O520 O 0.51086 0.246 0.39497 0.0
N521 N 0.47954 0.31257 0.3558 0.0
C522 C 0.47036 0.32614 0.36651 0.0
C523 C 0.45216 0.33298 0.36135 0.0
C524 C 0.44365 0.32592 0.34517 0.0
C525 C 0.45341 0.31204 0.3343 0.0
C526 C 0.47156 0.30585 0.34008 0.0
H527 H 0.47686 0.3317 0.37892 0.0
O528 O 0.48126 0.27379 0.40162 0.0
O529 O 0.49593 0.28139 0.37508 0.0
O530 O 0.51092 0.30283 0.40589 0.0
O531 O 0.51057 0.31975 0.37907 0.0
C532 C 0.44567 0.30385 0.31817 0.0
C533 C 0.45599 0.28938 0.30835 0.0
H534 H 0.47944 0.26102 0.29388 0.0
H535 H 0.51057 0.25078 0.30726 0.0
H536 H 0.44471 0.34367 0.36983 0.0
H537 H 0.42956 0.33114 0.3413 0.0
H538 H 0.43164 0.30831 0.3134 0.0
H539 H 0.44972 0.28291 0.2962 0.0
Mn540 Mn 0.50925 0.78906 0.13715 0.0
Mn541 Mn 0.49165 0.7681 0.09869 0.0
C542 C 0.51861 0.75836 0.12962 0.0
C543 C 0.53175 0.80749 0.15213 0.0
C544 C 0.46894 0.77219 0.13519 0.0
O545 O 0.4984 0.81155 0.12266 0.0
O546 O 0.48841 0.79648 0.09685 0.0
C547 C 0.52008 0.78288 0.0707 0.0
N548 N 0.51108 0.76779 0.07925 0.0
C549 C 0.52872 0.74514 0.05995 0.0
C550 C 0.5381 0.76045 0.05086 0.0
C551 C 0.53379 0.7794 0.05629 0.0
C552 C 0.51518 0.7495 0.07419 0.0
H553 H 0.51683 0.79746 0.07486 0.0
C554 C 0.49087 0.81165 0.10655 0.0
O555 O 0.51445 0.80538 0.15907 0.0
O556 O 0.53555 0.79988 0.13587 0.0
N557 N 0.49389 0.7407 0.09837 0.0
C558 C 0.48411 0.72754 0.10903 0.0
C559 C 0.48697 0.70788 0.10556 0.0
C560 C 0.49969 0.70197 0.09106 0.0
C561 C 0.50945 0.71578 0.08017 0.0
C562 C 0.50591 0.73516 0.08418 0.0
H563 H 0.47424 0.732 0.12014 0.0
O564 O 0.52007 0.7645 0.14663 0.0
O565 O 0.51187 0.77044 0.11735 0.0
O566 O 0.4822 0.7803 0.14412 0.0
O567 O 0.47074 0.76729 0.11801 0.0
C568 C 0.5228 0.71106 0.06569 0.0
C569 C 0.53248 0.72573 0.05563 0.0
H570 H 0.54873 0.75783 0.03977 0.0
H571 H 0.54103 0.79128 0.04939 0.0
H572 H 0.47939 0.69731 0.11404 0.0
H573 H 0.50191 0.6868 0.08847 0.0
H574 H 0.52593 0.69618 0.06235 0.0
H575 H 0.54288 0.72192 0.04468 0.0
Mn576 Mn 0.9048 0.03227 0.74439 0.0
Mn577 Mn 0.86867 0.00767 0.76552 0.0
C578 C 0.90327 -0.00041 0.74064 0.0
C579 C 0.91648 0.05064 0.71948 0.0
C580 C 0.9028 0.02317 0.78608 0.0
O581 O 0.88529 0.05288 0.75159 0.0
O582 O 0.86055 0.0349 0.76238 0.0
C583 C 0.83992 0.00977 0.73565 0.0
N584 N 0.85089 0.99912 0.74745 0.0
C585 C 0.83693 0.96975 0.73693 0.0
C586 C 0.82542 0.9804 0.7247 0.0
C587 C 0.82699 0.00049 0.724 0.0
C588 C 0.84963 0.97978 0.74811 0.0
H589 H 0.84103 0.02522 0.73515 0.0
C590 C 0.86802 0.05106 0.75779 0.0
O591 O 0.92366 0.05192 0.73605 0.0
O592 O 0.90237 0.03881 0.71748 0.0
N593 N 0.87443 0.98104 0.76936 0.0
C594 C 0.88729 0.97284 0.78117 0.0
C595 C 0.8878 0.95278 0.7833 0.0
C596 C 0.87495 0.9414 0.77344 0.0
C597 C 0.86187 0.95016 0.76135 0.0
C598 C 0.86199 0.97021 0.75984 0.0
H599 H 0.897 0.98153 0.78898 0.0
O600 O 0.91942 0.0084 0.73754 0.0
O601 O 0.88854 0.01022 0.7456 0.0
O602 O 0.91204 0.02925 0.77164 0.0
O603 O 0.88623 0.01548 0.78543 0.0
C604 C 0.84882 0.93979 0.75062 0.0
C605 C 0.83646 0.94956 0.73831 0.0
H606 H 0.81542 0.9733 0.71571 0.0
H607 H 0.8182 0.0088 0.71456 0.0
H608 H 0.89797 0.94612 0.79261 0.0
H609 H 0.87531 0.92596 0.77522 0.0
H610 H 0.84835 0.92427 0.75152 0.0
H611 H 0.82675 0.9414 0.72988 0.0
Mn612 Mn 0.79807 0.14951 0.50005 0.0
Mn613 Mn 0.80084 0.10633 0.4789 0.0
C614 C 0.77148 0.13039 0.49949 0.0
C615 C 0.80113 0.16829 0.52653 0.0
C616 C 0.79744 0.14382 0.45764 0.0
O617 O 0.82679 0.14508 0.49706 0.0
O618 O 0.82713 0.1157 0.48402 0.0
C619 C 0.81593 0.08386 0.51075 0.0
N620 N 0.80221 0.08676 0.49772 0.0
C621 C 0.78432 0.05944 0.50898 0.0
C622 C 0.79833 0.05607 0.52244 0.0
C623 C 0.81419 0.06836 0.52335 0.0
C624 C 0.78689 0.07503 0.49672 0.0
H625 H 0.82808 0.09334 0.51155 0.0
C626 C 0.83565 0.13051 0.49027 0.0
O627 O 0.80174 0.17591 0.50984 0.0
O628 O 0.79966 0.14978 0.52767 0.0
N629 N 0.7765 0.09555 0.47311 0.0
C630 C 0.76384 0.10131 0.45987 0.0
C631 C 0.74692 0.09085 0.45749 0.0
C632 C 0.74327 0.07451 0.46862 0.0
C633 C 0.75666 0.0687 0.48195 0.0
C634 C 0.77335 0.0796 0.48358 0.0
H635 H 0.76656 0.11389 0.45132 0.0
O636 O 0.76964 0.14867 0.50236 0.0
O637 O 0.78895 0.12368 0.49743 0.0
O638 O 0.79652 0.15472 0.47194 0.0
O639 O 0.79912 0.12556 0.45861 0.0
C640 C 0.75392 0.05275 0.49394 0.0
C641 C 0.76773 0.04814 0.50746 0.0
H642 H 0.79699 0.0442 0.53226 0.0
H643 H 0.82501 0.06591 0.53376 0.0
H644 H 0.73666 0.09543 0.44717 0.0
H645 H 0.7301 0.06661 0.46689 0.0
H646 H 0.74113 0.04408 0.49304 0.0
H647 H 0.76534 0.03599 0.51676 0.0
Mn648 Mn 0.63936 0.01371 0.28184 0.0
Mn649 Mn 0.67836 0.03312 0.30118 0.0
C650 C 0.64744 0.04496 0.27513 0.0
C651 C 0.62499 0.99659 0.2583 0.0
C652 C 0.64089 0.02611 0.32258 0.0
O653 O 0.65427 0.99052 0.29108 0.0
O654 O 0.68106 0.00473 0.3013 0.0
C655 C 0.70788 0.02222 0.27247 0.0
N656 N 0.69836 0.03604 0.28255 0.0
C657 C 0.71763 0.06091 0.26826 0.0
C658 C 0.72771 0.04693 0.25777 0.0
C659 C 0.72275 0.02751 0.25984 0.0
C660 C 0.70287 0.05478 0.28053 0.0
H661 H 0.70416 0.00727 0.27409 0.0
C662 C 0.67104 0.98984 0.29798 0.0
O663 O 0.61723 0.9977 0.27501 0.0
O664 O 0.64153 0.00477 0.25553 0.0
N665 N 0.67757 0.06057 0.30179 0.0
C666 C 0.666 0.0723 0.31245 0.0
C667 C 0.66876 0.09224 0.31169 0.0
C668 C 0.68352 0.09987 0.30016 0.0
C669 C 0.69539 0.08749 0.2895 0.0
C670 C 0.69194 0.06776 0.29081 0.0
H671 H 0.65472 0.06649 0.32143 0.0
O672 O 0.62996 0.03923 0.27281 0.0
O673 O 0.65957 0.03223 0.28122 0.0
O674 O 0.63158 0.02023 0.30865 0.0
O675 O 0.65855 0.03099 0.32146 0.0
C676 C 0.71046 0.09396 0.27755 0.0
C677 C 0.72154 0.08068 0.26691 0.0
H678 H 0.73921 0.05096 0.24804 0.0
H679 H 0.73043 0.01665 0.25176 0.0
H680 H 0.65956 0.10169 0.31999 0.0
H681 H 0.68557 0.11526 0.29957 0.0
H682 H 0.71349 0.10914 0.27627 0.0
H683 H 0.73293 0.08585 0.2576 0.0
Mn684 Mn 0.77318 0.89591 0.01924 0.0
Mn685 Mn 0.77731 0.93465 0.99063 0.0
C686 C 0.80316 0.91042 0.01402 0.0
C687 C 0.76766 0.88213 0.04937 0.0
C688 C 0.77167 0.89411 0.97611 0.0
O689 O 0.74515 0.90597 0.01765 0.0
O690 O 0.75052 0.93292 0.00066 0.0
C691 C 0.77068 0.96578 0.01816 0.0
N692 N 0.78207 0.95724 0.00475 0.0
C693 C 0.80575 0.98206 0.00674 0.0
C694 C 0.79424 0.99117 0.02052 0.0
C695 C 0.77666 0.98296 0.02629 0.0
C696 C 0.79904 0.96497 0.99915 0.0
H697 H 0.75714 0.95954 0.02259 0.0
C698 C 0.73935 0.92175 0.01015 0.0
O699 O 0.76518 0.87253 0.0341 0.0
O700 O 0.77277 0.89988 0.04715 0.0
N701 N 0.80272 0.93802 0.98025 0.0
C702 C 0.8127 0.92675 0.96778 0.0
C703 C 0.83096 0.93252 0.96115 0.0
C704 C 0.83868 0.94988 0.96727 0.0
C705 C 0.82808 0.9613 0.98002 0.0
C706 C 0.80997 0.95481 0.98614 0.0
H707 H 0.80682 0.91342 0.96298 0.0
O708 O 0.8021 0.8927 0.01966 0.0
O709 O 0.78674 0.91892 0.01142 0.0
O710 O 0.77252 0.88553 0.99201 0.0
O711 O 0.77269 0.91233 0.97434 0.0
C712 C 0.8349 0.97871 0.98712 0.0
C713 C 0.82375 0.98907 0.00048 0.0
H714 H 0.79882 0.00439 0.02686 0.0
H715 H 0.76773 0.98987 0.03696 0.0
H716 H 0.83906 0.92361 0.95134 0.0
H717 H 0.85281 0.95423 0.9622 0.0
H718 H 0.84885 0.9841 0.98262 0.0
H719 H 0.8293 0.00228 0.00607 0.0
Mn720 Mn 0.29348 0.65277 0.00608 0.0
Mn721 Mn 0.28856 0.6129 0.9801 0.0
C722 C 0.26392 0.63859 0.00397 0.0
C723 C 0.29933 0.66795 0.03415 0.0
C724 C 0.29167 0.6526 0.96324 0.0
O725 O 0.32107 0.64366 0.00252 0.0
O726 O 0.31618 0.61729 0.98517 0.0
C727 C 0.30067 0.58464 0.00873 0.0
N728 N 0.28723 0.59126 0.99666 0.0
C729 C 0.26538 0.56606 0.0057 0.0
C730 C 0.27904 0.55889 0.01814 0.0
C731 C 0.29675 0.56824 0.01968 0.0
C732 C 0.27013 0.5824 0.9951 0.0
H733 H 0.31425 0.59184 0.01001 0.0
C734 C 0.32721 0.62912 0.99331 0.0
O735 O 0.30154 0.67687 0.01821 0.0
O736 O 0.29474 0.64995 0.03367 0.0
N737 N 0.26261 0.60693 0.97415 0.0
C738 C 0.25078 0.61605 0.96194 0.0
C739 C 0.23236 0.60871 0.95903 0.0
C740 C 0.22636 0.59201 0.96855 0.0
C741 C 0.23892 0.58271 0.98081 0.0
C742 C 0.25716 0.5906 0.98305 0.0
H743 H 0.25531 0.6289 0.95461 0.0
O744 O 0.26512 0.65652 0.00848 0.0
O745 O 0.28007 0.62942 0.00089 0.0
O746 O 0.29333 0.66137 0.97873 0.0
O747 O 0.28941 0.63448 0.96206 0.0
C748 C 0.23395 0.56608 0.99111 0.0
C749 C 0.24714 0.5578 0.00359 0.0
H750 H 0.27604 0.5463 0.02667 0.0
H751 H 0.30733 0.56284 0.02932 0.0
H752 H 0.22276 0.61597 0.94953 0.0
H753 H 0.21207 0.58651 0.96641 0.0
H754 H 0.21993 0.55967 0.9897 0.0
H755 H 0.24306 0.54515 0.0116 0.0
Mn756 Mn 0.13943 0.51415 0.78795 0.0
Mn757 Mn 0.17908 0.51902 0.81369 0.0
C758 C 0.15015 0.54416 0.79571 0.0
C759 C 0.12523 0.51193 0.759 0.0
C760 C 0.14054 0.50643 0.82996 0.0
O761 O 0.15238 0.48807 0.7856 0.0
O762 O 0.17943 0.49352 0.80157 0.0
C763 C 0.20885 0.51907 0.78326 0.0
N764 N 0.20003 0.52787 0.79819 0.0
C765 C 0.22184 0.55444 0.79598 0.0
C766 C 0.23123 0.54561 0.78065 0.0
C767 C 0.22466 0.52788 0.77422 0.0
C768 C 0.20617 0.54498 0.80443 0.0
H769 H 0.20385 0.50544 0.77828 0.0
C770 C 0.16877 0.48288 0.79165 0.0
O771 O 0.11657 0.50551 0.7741 0.0
O772 O 0.14235 0.51881 0.7607 0.0
N773 N 0.18038 0.54337 0.82582 0.0
C774 C 0.16887 0.5506 0.83986 0.0
C775 C 0.17291 0.56868 0.84731 0.0
C776 C 0.18881 0.57906 0.84033 0.0
C777 C 0.20049 0.57127 0.82593 0.0
C778 C 0.19575 0.5532 0.81905 0.0
H779 H 0.15665 0.54267 0.84527 0.0
O780 O 0.13229 0.54182 0.79145 0.0
O781 O 0.16091 0.52887 0.79555 0.0
O782 O 0.13122 0.50777 0.81485 0.0
O783 O 0.15841 0.5102 0.831 0.0
C784 C 0.21651 0.58083 0.81796 0.0
C785 C 0.2272 0.5724 0.80302 0.0
H786 H 0.2434 0.55239 0.7736 0.0
H787 H 0.23177 0.52102 0.76233 0.0
H788 H 0.1638 0.57462 0.85839 0.0
H789 H 0.19184 0.59303 0.84607 0.0
H790 H 0.22057 0.5948 0.82303 0.0
H791 H 0.23931 0.58003 0.79682 0.0
Mn792 Mn 0.27699 0.39448 0.51951 0.0
Mn793 Mn 0.28229 0.43492 0.49342 0.0
C794 C 0.30753 0.40814 0.51475 0.0
C795 C 0.27131 0.379 0.54885 0.0
C796 C 0.27505 0.39559 0.47639 0.0
O797 O 0.24931 0.40558 0.51867 0.0
O798 O 0.25547 0.4337 0.50383 0.0
C799 C 0.27788 0.46365 0.52368 0.0
N800 N 0.2883 0.45613 0.50903 0.0
C801 C 0.3132 0.47951 0.51251 0.0
C802 C 0.30254 0.48774 0.5274 0.0
C803 C 0.28485 0.4797 0.53307 0.0
C804 C 0.30547 0.46357 0.50363 0.0
H805 H 0.26444 0.45734 0.52827 0.0
C806 C 0.24403 0.42212 0.5125 0.0
O807 O 0.26809 0.37057 0.53308 0.0
O808 O 0.27721 0.39658 0.54762 0.0
N809 N 0.30763 0.43808 0.48274 0.0
C810 C 0.31679 0.42757 0.4691 0.0
C811 C 0.33506 0.43319 0.46237 0.0
C812 C 0.34367 0.44961 0.46964 0.0
C813 C 0.33392 0.46027 0.48358 0.0
C814 C 0.31567 0.45407 0.48963 0.0
H815 H 0.31026 0.41495 0.46342 0.0
O816 O 0.30588 0.39017 0.51938 0.0
O817 O 0.29139 0.41736 0.51289 0.0
O818 O 0.27551 0.38604 0.49177 0.0
O819 O 0.27668 0.41387 0.47576 0.0
C820 C 0.34175 0.47659 0.49198 0.0
C821 C 0.33142 0.48617 0.50646 0.0
H822 H 0.30793 0.50004 0.53476 0.0
H823 H 0.27666 0.48582 0.54472 0.0
H824 H 0.34252 0.42486 0.45164 0.0
H825 H 0.35783 0.4538 0.46454 0.0
H826 H 0.35586 0.48168 0.48764 0.0
H827 H 0.33777 0.49847 0.51306 0.0
Mn828 Mn 0.38957 0.5394 0.24981 0.0
Mn829 Mn 0.35711 0.51274 0.27405 0.0
C830 C 0.38986 0.5067 0.24641 0.0
C831 C 0.39792 0.55775 0.2237 0.0
C832 C 0.39223 0.53016 0.29138 0.0
O833 O 0.3696 0.5588 0.25862 0.0
O834 O 0.34721 0.53958 0.27204 0.0
C835 C 0.32553 0.51348 0.24697 0.0
N836 N 0.33818 0.50335 0.25755 0.0
C837 C 0.32544 0.4733 0.24729 0.0
C838 C 0.3122 0.48341 0.23636 0.0
C839 C 0.3123 0.50358 0.23615 0.0
C840 C 0.3383 0.48394 0.25775 0.0
H841 H 0.32556 0.52898 0.2468 0.0
C842 C 0.35326 0.5561 0.26667 0.0
O843 O 0.4064 0.55999 0.23955 0.0
O844 O 0.3842 0.54527 0.22326 0.0
N845 N 0.36468 0.48642 0.27699 0.0
C846 C 0.379 0.47886 0.28754 0.0
C847 C 0.38106 0.45884 0.28904 0.0
C848 C 0.36829 0.44682 0.27982 0.0
C849 C 0.35367 0.45493 0.26905 0.0
C850 C 0.35223 0.47497 0.26818 0.0
H851 H 0.38874 0.48802 0.2948 0.0
O852 O 0.40507 0.51652 0.24188 0.0
O853 O 0.37489 0.51638 0.25251 0.0
O854 O 0.39948 0.5371 0.27627 0.0
O855 O 0.37619 0.52135 0.29223 0.0
C856 C 0.3406 0.44391 0.25896 0.0
C857 C 0.32656 0.45309 0.24801 0.0
H858 H 0.302 0.47583 0.22797 0.0
H859 H 0.30218 0.51148 0.22769 0.0
H860 H 0.39241 0.45268 0.29734 0.0
H861 H 0.36989 0.43139 0.28107 0.0
H862 H 0.34139 0.42837 0.25931 0.0
H863 H 0.3168 0.44447 0.24007 0.0
Co864 Co 0.01192 0.03608 0.01023 0.0
C865 C 0.00886 0.05816 0.04263 0.0
Co866 Co 0.01957 0.02012 0.03562 0.0
C867 C 0.99525 0.04275 0.97479 0.0
C868 C 0.00993 0.0677 0.98401 0.0
N869 N 0.00554 0.04952 0.98899 0.0
N870 N 0.99306 0.05589 0.96106 0.0
C871 C 0.00219 0.07169 0.9668 0.0
H872 H 0.98933 0.02845 0.97465 0.0
H873 H 0.01831 0.07735 0.99229 0.0
C874 C 0.02278 0.99818 0.00307 0.0
N875 N 0.02579 0.00636 0.05676 0.0
C876 C 0.03688 0.01183 0.07094 0.0
C877 C 0.02024 0.98838 0.06124 0.0
N878 N 0.03848 0.99798 0.08414 0.0
C879 C 0.02799 0.98319 0.0781 0.0
C880 C 0.98093 0.01632 0.02646 0.0
O881 O 0.01733 0.01376 0.99542 0.0
O882 O 0.02539 0.99796 0.02064 0.0
O883 O 0.99351 0.01155 0.03831 0.0
O884 O 0.98571 0.0278 0.01326 0.0
O885 O 0.01374 0.04251 0.05062 0.0
H886 H 0.01121 0.97957 0.05274 0.0
H887 H 0.04346 0.02582 0.07163 0.0
O888 O 0.00664 0.05827 0.025 0.0
O889 O 0.03802 0.0443 0.00724 0.0
O890 O 0.04571 0.02871 0.03277 0.0
C891 C 0.05057 0.03977 0.01922 0.0
H892 H 0.00352 0.085 0.95898 0.0
H893 H 0.02628 0.9695 0.08517 0.0
Co894 Co 0.2741 0.7758 0.2779 0.0
C895 C 0.26563 0.73744 0.27325 0.0
Co896 Co 0.25576 0.7703 0.25385 0.0
C897 C 0.28456 0.7935 0.31188 0.0
C898 C 0.30367 0.77016 0.30511 0.0
N899 N 0.2885 0.78023 0.29869 0.0
N900 N 0.29643 0.79202 0.32646 0.0
C901 C 0.30852 0.77733 0.32231 0.0
H902 H 0.27247 0.80339 0.31128 0.0
H903 H 0.31028 0.75796 0.29809 0.0
C904 C 0.26399 0.80877 0.25875 0.0
N905 N 0.24154 0.76579 0.2329 0.0
C906 C 0.24621 0.75277 0.21965 0.0
C907 C 0.22707 0.77629 0.22566 0.0
N908 N 0.23567 0.75496 0.20421 0.0
C909 C 0.22355 0.76975 0.20787 0.0
C910 C 0.23463 0.77681 0.28605 0.0
O911 O 0.27364 0.80243 0.27239 0.0
O912 O 0.25509 0.79701 0.24866 0.0
O913 O 0.23301 0.77286 0.2688 0.0
O914 O 0.25128 0.77863 0.29268 0.0
O915 O 0.2565 0.74358 0.2592 0.0
H916 H 0.22046 0.78869 0.23234 0.0
H917 H 0.25833 0.74295 0.22066 0.0
O918 O 0.27437 0.74927 0.28339 0.0
O919 O 0.29682 0.77289 0.26305 0.0
O920 O 0.27868 0.76782 0.23899 0.0
C921 C 0.2953 0.76927 0.24575 0.0
H922 H 0.3197 0.77188 0.33126 0.0
H923 H 0.21361 0.77601 0.19806 0.0
Co924 Co 0.51233 0.02764 0.52166 0.0
C925 C 0.52653 0.0637 0.51184 0.0
Co926 Co 0.53958 0.03405 0.53503 0.0
C927 C 0.4744 0.01317 0.5175 0.0
C928 C 0.48632 0.02356 0.49142 0.0
N929 N 0.4899 0.02197 0.50987 0.0
N930 N 0.46144 0.0089 0.5045 0.0
C931 C 0.46883 0.01534 0.48804 0.0
H932 H 0.47314 0.00895 0.53211 0.0
H933 H 0.49616 0.02955 0.48099 0.0
C934 C 0.52522 0.99785 0.54466 0.0
N935 N 0.5621 0.03944 0.5468 0.0
C936 C 0.57897 0.04444 0.53857 0.0
C937 C 0.56555 0.03871 0.56533 0.0
N938 N 0.59282 0.04681 0.55117 0.0
C939 C 0.58447 0.04338 0.56807 0.0
C940 C 0.50722 0.04563 0.55556 0.0
O941 O 0.51218 0.00285 0.53339 0.0
O942 O 0.53868 0.00957 0.54775 0.0
O943 O 0.52547 0.04547 0.55492 0.0
O944 O 0.49812 0.038 0.54236 0.0
O945 O 0.54041 0.05853 0.52214 0.0
H946 H 0.55504 0.03486 0.57612 0.0
H947 H 0.58101 0.04648 0.52359 0.0
O948 O 0.51252 0.05234 0.51 0.0
O949 O 0.52663 0.01743 0.501 0.0
O950 O 0.55367 0.02278 0.51498 0.0
C951 C 0.54487 0.01667 0.50091 0.0
H952 H 0.46229 0.01373 0.47454 0.0
H953 H 0.5916 0.04391 0.58137 0.0
Co954 Co 0.27603 0.26835 0.76421 0.0
C955 C 0.26489 0.27713 0.72814 0.0
Co956 Co 0.24741 0.25677 0.75873 0.0
C957 C 0.31254 0.26746 0.78133 0.0
C958 C 0.30919 0.29301 0.76491 0.0
N959 N 0.3004 0.27647 0.76969 0.0
N960 N 0.32844 0.27779 0.78439 0.0
C961 C 0.32645 0.29388 0.77395 0.0
H962 H 0.3092 0.254 0.78825 0.0
H963 H 0.30312 0.30404 0.75602 0.0
C964 C 0.25861 0.24851 0.795 0.0
N965 N 0.22285 0.24914 0.75342 0.0
C966 C 0.21045 0.25995 0.74361 0.0
C967 C 0.21268 0.23366 0.75909 0.0
N968 N 0.19294 0.25203 0.7429 0.0
C969 C 0.19413 0.23547 0.7527 0.0
C970 C 0.27577 0.23108 0.74993 0.0
O971 O 0.2732 0.25791 0.78921 0.0
O972 O 0.24493 0.24599 0.78375 0.0
O973 O 0.25764 0.23338 0.75009 0.0
O974 O 0.2864 0.24457 0.75548 0.0
O975 O 0.25019 0.26763 0.73359 0.0
H976 H 0.21822 0.22212 0.76768 0.0
H977 H 0.21397 0.27391 0.73778 0.0
O978 O 0.27859 0.27901 0.73944 0.0
O979 O 0.26561 0.29189 0.77271 0.0
O980 O 0.23713 0.28026 0.76745 0.0
C981 C 0.24746 0.29398 0.77275 0.0
H982 H 0.33644 0.30569 0.77325 0.0
H983 H 0.18245 0.22554 0.75516 0.0
Co984 Co 0.02811 0.0392 0.52288 0.0
C985 C 0.02024 0.06146 0.55399 0.0
Co986 Co 0.04955 0.06171 0.52696 0.0
C987 C 0.01284 0.00213 0.51536 0.0
C988 C 0.99047 0.02318 0.51919 0.0
N989 N 0.00976 0.02081 0.5192 0.0
N990 N 0.99626 0.99272 0.51281 0.0
C991 C 0.98212 0.00591 0.51515 0.0
H992 H 0.02703 0.9957 0.51383 0.0
H993 H 0.983 0.03666 0.52169 0.0
C994 C 0.05727 0.03917 0.49587 0.0
N995 N 0.06781 0.08031 0.53075 0.0
C996 C 0.06462 0.09686 0.53997 0.0
C997 C 0.08674 0.0805 0.52595 0.0
N998 N 0.0807 0.10723 0.54138 0.0
C999 C 0.09473 0.09721 0.53242 0.0
C1000 C 0.05822 0.02705 0.54429 0.0
O1001 O 0.04231 0.0304 0.50162 0.0
O1002 O 0.06273 0.0539 0.50462 0.0
O1003 O 0.06422 0.0439 0.5408 0.0
O1004 O 0.04207 0.02196 0.53813 0.0
O1005 O 0.03612 0.06918 0.54934 0.0
H1006 H 0.09433 0.06908 0.51858 0.0
H1007 H 0.05072 0.1013 0.5457 0.0
O1008 O 0.01394 0.04796 0.54411 0.0
O1009 O 0.01442 0.05653 0.5076 0.0
O1010 O 0.03474 0.07957 0.51312 0.0
C1011 C 0.01956 0.07387 0.50546 0.0
H1012 H 0.96688 0.00328 0.51392 0.0
H1013 H 0.10968 0.10136 0.5312 0.0
Co1014 Co 0.27206 0.79639 0.77739 0.0
C1015 C 0.23619 0.78421 0.78924 0.0
Co1016 Co 0.26363 0.77032 0.76279 0.0
C1017 C 0.29882 0.82104 0.79382 0.0
C1018 C 0.27118 0.83471 0.7926 0.0
N1019 N 0.2805 0.81804 0.78905 0.0
N1020 N 0.30163 0.83912 0.79966 0.0
C1021 C 0.28417 0.84774 0.7991 0.0
H1022 H 0.31008 0.81032 0.79214 0.0
H1023 H 0.25622 0.83751 0.78962 0.0
C1024 C 0.29952 0.78215 0.75089 0.0
N1025 N 0.2553 0.7486 0.75131 0.0
C1026 C 0.24757 0.73353 0.76049 0.0
C1027 C 0.25406 0.74438 0.73295 0.0
N1028 N 0.24149 0.72005 0.74872 0.0
C1029 C 0.24541 0.72675 0.7313 0.0
C1030 C 0.25246 0.80362 0.74491 0.0
O1031 O 0.29565 0.79547 0.76253 0.0
O1032 O 0.28716 0.76912 0.74861 0.0
O1033 O 0.25249 0.78545 0.74402 0.0
O1034 O 0.26044 0.81169 0.75857 0.0
O1035 O 0.23997 0.77146 0.77701 0.0
H1036 H 0.25878 0.75367 0.72155 0.0
H1037 H 0.24581 0.73278 0.7756 0.0
O1038 O 0.24859 0.7971 0.79208 0.0
O1039 O 0.28352 0.78114 0.79617 0.0
O1040 O 0.27483 0.75514 0.78176 0.0
C1041 C 0.28293 0.76298 0.79543 0.0
H1042 H 0.28122 0.86276 0.80182 0.0
H1043 H 0.24223 0.71947 0.7184 0.0
Co1044 Co 0.51639 0.02469 0.01179 0.0
C1045 C 0.55004 0.00965 0.02629 0.0
Co1046 Co 0.51978 0.03232 0.04135 0.0
C1047 C 0.49678 0.0189 0.97761 0.0
C1048 C 0.52729 0.01688 0.97327 0.0
N1049 N 0.51349 0.01924 0.98674 0.0
N1050 N 0.49956 0.01684 0.959 0.0
C1051 C 0.51873 0.01533 0.95615 0.0
H1052 H 0.48277 0.02078 0.98435 0.0
H1053 H 0.5426 0.01721 0.9756 0.0
C1054 C 0.48601 0.04722 0.02666 0.0
N1055 N 0.52258 0.03772 0.06633 0.0
C1056 C 0.52884 0.02544 0.07955 0.0
C1057 C 0.51824 0.05407 0.07553 0.0
N1058 N 0.52856 0.03338 0.09676 0.0
C1059 C 0.5219 0.05146 0.09426 0.0
C1060 C 0.53556 0.05898 0.01721 0.0
O1061 O 0.49278 0.03903 0.01205 0.0
O1062 O 0.49551 0.04606 0.04163 0.0
O1063 O 0.53262 0.0552 0.03449 0.0
O1064 O 0.5299 0.04726 0.005 0.0
O1065 O 0.54415 0.01853 0.04093 0.0
H1066 H 0.5126 0.06698 0.06908 0.0
H1067 H 0.53362 0.01096 0.07647 0.0
O1068 O 0.53986 0.01044 0.01177 0.0
O1069 O 0.50287 0.00219 0.01857 0.0
O1070 O 0.50681 0.00943 0.04806 0.0
C1071 C 0.5004 0.99815 0.03584 0.0
H1072 H 0.52603 0.0144 0.94259 0.0
H1073 H 0.51955 0.06202 0.10515 0.0
Co1074 Co 0.26625 0.26453 0.27421 0.0
C1075 C 0.30521 0.27309 0.27804 0.0
Co1076 Co 0.27502 0.29096 0.25957 0.0
C1077 C 0.24184 0.23813 0.29473 0.0
C1078 C 0.27023 0.22676 0.28979 0.0
N1079 N 0.25919 0.2425 0.28703 0.0
N1080 N 0.24157 0.22023 0.30206 0.0
C1081 C 0.25946 0.21308 0.29904 0.0
H1082 H 0.22949 0.2477 0.29451 0.0
H1083 H 0.28494 0.22502 0.28474 0.0
C1084 C 0.23604 0.28261 0.25588 0.0
N1085 N 0.28234 0.31254 0.24625 0.0
C1086 C 0.29672 0.32468 0.24989 0.0
C1087 C 0.27657 0.31744 0.22893 0.0
N1088 N 0.30042 0.33665 0.23536 0.0
C1089 C 0.28771 0.33225 0.22217 0.0
C1090 C 0.27708 0.25812 0.2368 0.0
O1091 O 0.24022 0.26839 0.26632 0.0
O1092 O 0.24911 0.29461 0.25162 0.0
O1093 O 0.28025 0.27603 0.23751 0.0
O1094 O 0.27128 0.24961 0.25173 0.0
O1095 O 0.30095 0.28725 0.26758 0.0
H1096 H 0.2657 0.31001 0.22127 0.0
H1097 H 0.30515 0.32393 0.26243 0.0
O1098 O 0.29223 0.26093 0.28209 0.0
O1099 O 0.26124 0.27943 0.29648 0.0
O1100 O 0.2698 0.3059 0.28184 0.0
C1101 C 0.26425 0.29744 0.29692 0.0
H1102 H 0.26411 0.19857 0.30222 0.0
H1103 H 0.28693 0.33887 0.20844 0.0
Co1104 Co 0.51248 0.5191 0.02902 0.0
C1105 C 0.50453 0.54 0.06072 0.0
Co1106 Co 0.53597 0.53873 0.03574 0.0
C1107 C 0.49615 0.48462 0.01644 0.0
C1108 C 0.47434 0.50629 0.0197 0.0
N1109 N 0.49319 0.50271 0.02238 0.0
N1110 N 0.48009 0.47678 0.0098 0.0
C1111 C 0.46625 0.49035 0.01178 0.0
H1112 H 0.51023 0.47783 0.01569 0.0
H1113 H 0.46723 0.51991 0.02238 0.0
C1114 C 0.54363 0.51793 0.0038 0.0
N1115 N 0.55559 0.55501 0.04222 0.0
C1116 C 0.55354 0.57078 0.0529 0.0
C1117 C 0.57467 0.55385 0.0381 0.0
N1118 N 0.57042 0.57937 0.05574 0.0
C1119 C 0.58385 0.56902 0.04632 0.0
C1120 C 0.53964 0.50235 0.0514 0.0
O1121 O 0.5274 0.51076 0.00804 0.0
O1122 O 0.55025 0.53104 0.01401 0.0
O1123 O 0.54758 0.51863 0.04954 0.0
O1124 O 0.5236 0.49951 0.04383 0.0
O1125 O 0.5214 0.54611 0.05732 0.0
H1126 H 0.58152 0.5426 0.02987 0.0
H1127 H 0.53988 0.57607 0.05849 0.0
O1128 O 0.49748 0.52763 0.04991 0.0
O1129 O 0.50175 0.53861 0.01419 0.0
O1130 O 0.52412 0.55894 0.02192 0.0
C1131 C 0.50895 0.55525 0.01311 0.0
H1132 H 0.4516 0.48911 0.00717 0.0
H1133 H 0.59912 0.57195 0.04582 0.0
Co1134 Co 0.76996 0.28496 0.27514 0.0
C1135 C 0.73289 0.27173 0.28358 0.0
Co1136 Co 0.76078 0.26181 0.25673 0.0
C1137 C 0.7956 0.30905 0.29536 0.0
C1138 C 0.76602 0.31638 0.30075 0.0
N1139 N 0.77753 0.30386 0.29134 0.0
N1140 N 0.79586 0.3245 0.30665 0.0
C1141 C 0.77722 0.32903 0.31017 0.0
H1142 H 0.80836 0.3021 0.28951 0.0
H1143 H 0.7505 0.31693 0.30007 0.0
C1144 C 0.79792 0.2749 0.2484 0.0
N1145 N 0.75308 0.24318 0.24045 0.0
C1146 C 0.74122 0.22845 0.24433 0.0
C1147 C 0.75703 0.242 0.22187 0.0
N1148 N 0.73747 0.21818 0.22892 0.0
C1149 C 0.7475 0.22655 0.21475 0.0
C1150 C 0.75182 0.29843 0.24395 0.0
O1151 O 0.79377 0.28685 0.26128 0.0
O1152 O 0.7856 0.26231 0.24436 0.0
O1153 O 0.75166 0.28067 0.24018 0.0
O1154 O 0.75902 0.3039 0.25919 0.0
O1155 O 0.73604 0.2614 0.2692 0.0
H1156 H 0.76593 0.25198 0.21395 0.0
H1157 H 0.73545 0.22534 0.25824 0.0
O1158 O 0.74607 0.28279 0.28888 0.0
O1159 O 0.78091 0.26611 0.29083 0.0
O1160 O 0.76987 0.2429 0.27353 0.0
C1161 C 0.7789 0.24831 0.28779 0.0
H1162 H 0.77201 0.34151 0.31778 0.0
H1163 H 0.74755 0.22213 0.20023 0.0
Co1164 Co 0.02262 0.52841 0.50398 0.0
C1165 C 0.05733 0.51536 0.5187 0.0
Co1166 Co 0.02935 0.54193 0.53076 0.0
C1167 C 0.00042 0.51802 0.47211 0.0
C1168 C 0.03015 0.51048 0.46829 0.0
N1169 N 0.01731 0.51759 0.48102 0.0
N1170 N 0.00228 0.51198 0.45424 0.0
C1171 C 0.02096 0.50704 0.45183 0.0
H1172 H 0.98726 0.52405 0.47808 0.0
H1173 H 0.04546 0.50906 0.47036 0.0
C1174 C 0.99454 0.55491 0.51652 0.0
N1175 N 0.03479 0.55293 0.55338 0.0
C1176 C 0.03951 0.54373 0.56931 0.0
C1177 C 0.03481 0.57175 0.5577 0.0
N1178 N 0.04252 0.55603 0.5834 0.0
C1179 C 0.03968 0.57371 0.57617 0.0
C1180 C 0.04364 0.56183 0.50003 0.0
O1181 O 0.99962 0.54409 0.50295 0.0
O1182 O 0.00549 0.55599 0.53046 0.0
O1183 O 0.04193 0.56231 0.51779 0.0
O1184 O 0.03657 0.54786 0.4913 0.0
O1185 O 0.05325 0.52781 0.53119 0.0
H1186 H 0.03146 0.58329 0.54806 0.0
H1187 H 0.04103 0.52829 0.57046 0.0
O1188 O 0.04559 0.51293 0.50556 0.0
O1189 O 0.00856 0.50906 0.51655 0.0
O1190 O 0.0166 0.52142 0.54341 0.0
C1191 C 0.00796 0.50861 0.53435 0.0
H1192 H 0.02773 0.50227 0.43882 0.0
H1193 H 0.04082 0.58704 0.58375 0.0
Co1194 Co 0.77825 0.77937 0.26846 0.0
C1195 C 0.76375 0.79086 0.23406 0.0
Co1196 Co 0.74857 0.76968 0.26486 0.0
C1197 C 0.81631 0.77783 0.28279 0.0
C1198 C 0.81226 0.80264 0.26544 0.0
N1199 N 0.80336 0.78669 0.27188 0.0
N1200 N 0.8328 0.78771 0.28367 0.0
C1201 C 0.83044 0.80327 0.27264 0.0
H1202 H 0.81358 0.76457 0.29034 0.0
H1203 H 0.80571 0.8135 0.25669 0.0
C1204 C 0.76299 0.75816 0.29928 0.0
N1205 N 0.72336 0.76286 0.26156 0.0
C1206 C 0.70967 0.77462 0.25481 0.0
C1207 C 0.71428 0.74631 0.26568 0.0
N1208 N 0.69229 0.76624 0.25458 0.0
C1209 C 0.69513 0.74832 0.26135 0.0
C1210 C 0.77542 0.74371 0.25177 0.0
O1211 O 0.77765 0.76709 0.29287 0.0
O1212 O 0.74819 0.75741 0.28918 0.0
O1213 O 0.7574 0.74653 0.25378 0.0
O1214 O 0.78702 0.75632 0.25733 0.0
O1215 O 0.74902 0.78201 0.24044 0.0
H1216 H 0.7211 0.73371 0.27161 0.0
H1217 H 0.71253 0.7891 0.25001 0.0
O1218 O 0.77854 0.7915 0.24416 0.0
O1219 O 0.76948 0.80244 0.27957 0.0
O1220 O 0.73992 0.7928 0.27606 0.0
C1221 C 0.75152 0.80536 0.28164 0.0
H1222 H 0.84069 0.81476 0.27072 0.0
H1223 H 0.68416 0.73753 0.26332 0.0
Co1224 Co 0.76308 0.26718 0.77823 0.0
C1225 C 0.76474 0.22904 0.76837 0.0
Co1226 Co 0.74779 0.26104 0.75229 0.0
C1227 C 0.76721 0.28328 0.81459 0.0
C1228 C 0.79123 0.26518 0.80716 0.0
N1229 N 0.77447 0.27216 0.8007 0.0
N1230 N 0.77869 0.28352 0.82953 0.0
C1231 C 0.79384 0.27211 0.82495 0.0
H1232 H 0.75349 0.29071 0.81388 0.0
H1233 H 0.80082 0.25557 0.79949 0.0
C1234 C 0.74621 0.29923 0.76212 0.0
N1235 N 0.7368 0.25605 0.72953 0.0
C1236 C 0.74633 0.24794 0.7149 0.0
C1237 C 0.71974 0.26175 0.72268 0.0
N1238 N 0.7363 0.24882 0.69903 0.0
C1239 C 0.71937 0.25725 0.70384 0.0
C1240 C 0.7241 0.25793 0.78305 0.0
O1241 O 0.7566 0.29348 0.77548 0.0
O1242 O 0.74049 0.28719 0.75024 0.0
O1243 O 0.72437 0.25581 0.76536 0.0
O1244 O 0.73936 0.26287 0.79109 0.0
O1245 O 0.75519 0.23484 0.75445 0.0
H1246 H 0.70877 0.2696 0.73056 0.0
H1247 H 0.76081 0.24218 0.7157 0.0
O1248 O 0.76946 0.24097 0.78076 0.0
O1249 O 0.78675 0.27142 0.76532 0.0
O1250 O 0.77139 0.26643 0.73946 0.0
C1251 C 0.78687 0.27034 0.74758 0.0
H1252 H 0.80599 0.26911 0.83374 0.0
H1253 H 0.70808 0.26095 0.69424 0.0
Co1254 Co 0.76737 0.76554 0.77356 0.0
C1255 C 0.80629 0.77493 0.77704 0.0
Co1256 Co 0.77566 0.79204 0.75882 0.0
C1257 C 0.74402 0.73844 0.79459 0.0
C1258 C 0.77314 0.7287 0.79046 0.0
N1259 N 0.7611 0.74346 0.78667 0.0
N1260 N 0.74503 0.72123 0.80329 0.0
C1261 C 0.76333 0.71509 0.80073 0.0
H1262 H 0.73104 0.74709 0.79384 0.0
H1263 H 0.78801 0.72766 0.78573 0.0
C1264 C 0.73665 0.78267 0.75558 0.0
N1265 N 0.78229 0.8138 0.74539 0.0
C1266 C 0.79698 0.82576 0.74847 0.0
C1267 C 0.77586 0.81884 0.72834 0.0
N1268 N 0.80027 0.83771 0.73383 0.0
C1269 C 0.78696 0.83351 0.72116 0.0
C1270 C 0.77818 0.75912 0.73616 0.0
O1271 O 0.74156 0.76818 0.76533 0.0
O1272 O 0.74918 0.79543 0.75181 0.0
O1273 O 0.78029 0.77722 0.73656 0.0
O1274 O 0.7733 0.75051 0.75134 0.0
O1275 O 0.80205 0.78855 0.76591 0.0
H1276 H 0.76464 0.81149 0.72107 0.0
H1277 H 0.80603 0.82479 0.76058 0.0
O1278 O 0.79325 0.76313 0.7818 0.0
O1279 O 0.7614 0.78054 0.7956 0.0
O1280 O 0.77115 0.8068 0.78131 0.0
C1281 C 0.76496 0.79843 0.7962 0.0
H1282 H 0.76896 0.70127 0.80514 0.0
H1283 H 0.78584 0.84003 0.70741 0.0
Co1284 Co 0.51722 0.53405 0.50782 0.0
C1285 C 0.51342 0.55627 0.54019 0.0
Co1286 Co 0.52439 0.51822 0.53342 0.0
C1287 C 0.50106 0.54116 0.47209 0.0
C1288 C 0.51581 0.56582 0.48191 0.0
N1289 N 0.5113 0.54757 0.48649 0.0
N1290 N 0.49893 0.55466 0.45868 0.0
C1291 C 0.50813 0.57026 0.46479 0.0
H1292 H 0.49495 0.52694 0.47166 0.0
H1293 H 0.52408 0.57528 0.49049 0.0
C1294 C 0.52818 0.49614 0.50083 0.0
N1295 N 0.53018 0.50456 0.55477 0.0
C1296 C 0.54005 0.51054 0.56961 0.0
C1297 C 0.52478 0.4865 0.55914 0.0
N1298 N 0.54093 0.49698 0.58317 0.0
C1299 C 0.53134 0.48182 0.57663 0.0
C1300 C 0.48589 0.51426 0.52357 0.0
O1301 O 0.52317 0.51182 0.49305 0.0
O1302 O 0.53024 0.49587 0.5185 0.0
O1303 O 0.4982 0.50982 0.5358 0.0
O1304 O 0.49097 0.52548 0.51023 0.0
O1305 O 0.51843 0.54071 0.54827 0.0
H1306 H 0.51642 0.47742 0.55027 0.0
H1307 H 0.54602 0.52478 0.57064 0.0
O1308 O 0.51137 0.55624 0.52254 0.0
O1309 O 0.54329 0.54249 0.50545 0.0
O1310 O 0.55072 0.52669 0.53093 0.0
C1311 C 0.55571 0.53791 0.51753 0.0
H1312 H 0.50937 0.58381 0.45736 0.0
H1313 H 0.52925 0.46829 0.58392 0.0
Co1314 Co 0.00314 0.52815 0.01933 0.0
C1315 C 0.01665 0.56467 0.00954 0.0
Co1316 Co 0.03008 0.53548 0.03294 0.0
C1317 C 0.96439 0.51523 0.01498 0.0
C1318 C 0.97721 0.52502 0.9891 0.0
N1319 N 0.98076 0.52243 0.00744 0.0
N1320 N 0.95068 0.51324 0.00208 0.0
C1321 C 0.95874 0.51937 0.98575 0.0
H1322 H 0.96251 0.51184 0.02973 0.0
H1323 H 0.9874 0.53069 0.97882 0.0
C1324 C 0.01651 0.49884 0.04248 0.0
N1325 N 0.05262 0.54141 0.04445 0.0
C1326 C 0.06785 0.5503 0.03639 0.0
C1327 C 0.05774 0.53781 0.06225 0.0
N1328 N 0.08232 0.55244 0.04838 0.0
C1329 C 0.07609 0.54454 0.0647 0.0
C1330 C 0.99746 0.54576 0.05356 0.0
O1331 O 0.00306 0.50355 0.03153 0.0
O1332 O 0.0299 0.51078 0.04517 0.0
O1333 O 0.01573 0.54602 0.05332 0.0
O1334 O 0.98885 0.53868 0.03977 0.0
O1335 O 0.0301 0.56018 0.02056 0.0
H1336 H 0.04874 0.53075 0.07273 0.0
H1337 H 0.0684 0.55481 0.02183 0.0
O1338 O 0.00331 0.55267 0.00713 0.0
O1339 O 0.01744 0.51751 0.99915 0.0
O1340 O 0.04439 0.52476 0.01251 0.0
C1341 C 0.03567 0.51736 0.99897 0.0
H1342 H 0.9519 0.51954 0.97229 0.0
H1343 H 0.08409 0.54388 0.07751 0.0
C1344 C 0.01019 0.20803 0.13516 0.0
C1345 C 0.01996 0.22289 0.12572 0.0
C1346 C 0.00942 0.18964 0.12733 0.0
C1347 C 0.03141 0.15886 0.08886 0.0
H1348 H 0.98502 0.1292 0.09729 0.0
C1349 C 0.01037 0.09408 0.04335 0.0
C1350 C 0.00807 0.07658 0.05312 0.0
C1351 C 0.01173 0.11142 0.05301 0.0
C1352 C 0.9981 0.1373 0.09493 0.0
H1353 H 0.03843 0.22973 0.10185 0.0
H1354 H 0.0365 0.19814 0.08763 0.0
H1355 H 0.98805 0.16037 0.11232 0.0
H1356 H 0.00487 0.06377 0.08078 0.0
H1357 H 0.00642 0.09438 0.09768 0.0
H1358 H 0.04084 0.13608 0.07059 0.0
C1359 C 0.02927 0.20038 0.10105 0.0
C1360 C 0.99997 0.15516 0.10366 0.0
C1361 C 0.03012 0.2187 0.109 0.0
C1362 C 0.00655 0.07698 0.07283 0.0
C1363 C 0.00745 0.09446 0.0825 0.0
C1364 C 0.02931 0.14124 0.07981 0.0
C1365 C 0.01858 0.18559 0.10989 0.0
C1366 C 0.01669 0.16627 0.10081 0.0
C1367 C 0.01039 0.11181 0.07267 0.0
C1368 C 0.01266 0.13027 0.08275 0.0
H1369 H 0.00278 0.21075 0.14844 0.0
H1370 H 0.00162 0.17864 0.13502 0.0
H1371 H 0.04471 0.16655 0.08652 0.0
H1372 H 0.01177 0.09435 0.02819 0.0
H1373 H 0.01392 0.12458 0.04509 0.0
C1374 C 0.09672 0.79125 0.39691 0.0
C1375 C 0.07979 0.78715 0.38744 0.0
C1376 C 0.11435 0.79225 0.38703 0.0
C1377 C 0.1348 0.79905 0.33924 0.0
H1378 H 0.1789 0.77073 0.35751 0.0
C1379 C 0.19891 0.77793 0.29122 0.0
C1380 C 0.21746 0.77949 0.29836 0.0
C1381 C 0.18273 0.78061 0.30293 0.0
C1382 C 0.1668 0.77894 0.35236 0.0
H1383 H 0.06798 0.78098 0.36026 0.0
H1384 H 0.09853 0.78265 0.3432 0.0
H1385 H 0.14951 0.77286 0.37693 0.0
H1386 H 0.23363 0.78518 0.32336 0.0
H1387 H 0.20534 0.78991 0.34374 0.0
H1388 H 0.15189 0.80484 0.31454 0.0
C1389 C 0.09825 0.7853 0.35815 0.0
C1390 C 0.15001 0.78018 0.36349 0.0
C1391 C 0.08076 0.7842 0.36798 0.0
C1392 C 0.21951 0.7838 0.31743 0.0
C1393 C 0.20333 0.78645 0.32914 0.0
C1394 C 0.15155 0.79781 0.32814 0.0
C1395 C 0.11522 0.78934 0.36754 0.0
C1396 C 0.13373 0.78991 0.35685 0.0
C1397 C 0.18479 0.78489 0.322 0.0
C1398 C 0.16758 0.78743 0.33442 0.0
H1399 H 0.09637 0.79359 0.41191 0.0
H1400 H 0.12724 0.79545 0.39458 0.0
H1401 H 0.12256 0.80693 0.33393 0.0
H1402 H 0.19687 0.7746 0.27659 0.0
H1403 H 0.1686 0.77904 0.2971 0.0
C1404 C 0.53088 0.83735 0.62227 0.0
C1405 C 0.51804 0.82465 0.61391 0.0
C1406 C 0.5321 0.8566 0.61624 0.0
C1407 C 0.50436 0.89442 0.59143 0.0
H1408 H 0.55385 0.91804 0.58146 0.0
C1409 C 0.51062 0.96519 0.54918 0.0
C1410 C 0.52471 0.97856 0.55387 0.0
C1411 C 0.5101 0.94698 0.55763 0.0
C1412 C 0.53988 0.91183 0.58442 0.0
H1413 H 0.49632 0.82256 0.59266 0.0
H1414 H 0.49838 0.85576 0.58241 0.0
H1415 H 0.55244 0.88557 0.59461 0.0
H1416 H 0.54931 0.98314 0.57133 0.0
H1417 H 0.54821 0.95151 0.58633 0.0
H1418 H 0.49171 0.92052 0.58141 0.0
C1419 C 0.50748 0.85096 0.59366 0.0
C1420 C 0.53909 0.89315 0.59197 0.0
C1421 C 0.50641 0.83179 0.5995 0.0
C1422 C 0.53827 0.97321 0.56732 0.0
C1423 C 0.53771 0.95498 0.57585 0.0
C1424 C 0.50513 0.91308 0.58404 0.0
C1425 C 0.52032 0.86366 0.6019 0.0
C1426 C 0.52132 0.88408 0.59529 0.0
C1427 C 0.52359 0.94157 0.57115 0.0
C1428 C 0.52289 0.922 0.58011 0.0
H1429 H 0.5401 0.8324 0.63336 0.0
H1430 H 0.54209 0.86601 0.62296 0.0
H1431 H 0.4904 0.88806 0.59414 0.0
H1432 H 0.49999 0.96872 0.53883 0.0
H1433 H 0.49923 0.93704 0.55329 0.0
C1434 C 0.44109 0.26119 0.91253 0.0
C1435 C 0.45933 0.257 0.90453 0.0
C1436 C 0.42457 0.25942 0.9019 0.0
C1437 C 0.39712 0.27099 0.87136 0.0
H1438 H 0.39252 0.23422 0.8312 0.0
C1439 C 0.35346 0.28825 0.80608 0.0
C1440 C 0.34284 0.27349 0.79804 0.0
C1441 C 0.36617 0.28421 0.82046 0.0
C1442 C 0.39336 0.24448 0.84248 0.0
H1443 H 0.47431 0.2459 0.87973 0.0
H1444 H 0.44582 0.24316 0.86129 0.0
H1445 H 0.41591 0.22854 0.85544 0.0
H1446 H 0.33798 0.24274 0.79839 0.0
H1447 H 0.35955 0.23585 0.82383 0.0
H1448 H 0.37444 0.28683 0.85853 0.0
C1449 C 0.4441 0.24775 0.87571 0.0
C1450 C 0.40691 0.2413 0.8563 0.0
C1451 C 0.46053 0.24951 0.88628 0.0
C1452 C 0.34563 0.25454 0.80444 0.0
C1453 C 0.35819 0.25053 0.81893 0.0
C1454 C 0.38344 0.27408 0.85765 0.0
C1455 C 0.426 0.25333 0.88314 0.0
C1456 C 0.40934 0.2548 0.87058 0.0
C1457 C 0.36848 0.26534 0.82724 0.0
C1458 C 0.38178 0.26114 0.84275 0.0
H1459 H 0.43965 0.26681 0.92662 0.0
H1460 H 0.41077 0.26349 0.90813 0.0
H1461 H 0.3987 0.28178 0.88205 0.0
H1462 H 0.35165 0.30301 0.80164 0.0
H1463 H 0.3742 0.29591 0.82625 0.0
C1464 C 0.99968 0.84061 0.43059 0.0
C1465 C 0.01338 0.82793 0.43789 0.0
C1466 C 0.99501 0.8576 0.43997 0.0
C1467 C 0.00013 0.88211 0.48572 0.0
H1468 H 0.99172 0.92801 0.45586 0.0
C1469 C 0.00786 0.95921 0.51296 0.0
C1470 C 0.99444 0.97309 0.50717 0.0
C1471 C 0.00729 0.94056 0.50605 0.0
C1472 C 0.99371 0.91525 0.46438 0.0
H1473 H 0.03417 0.82341 0.45956 0.0
H1474 H 0.02653 0.85341 0.47577 0.0
H1475 H 0.99683 0.89735 0.44032 0.0
H1476 H 0.96952 0.97823 0.49013 0.0
H1477 H 0.96857 0.94555 0.47792 0.0
H1478 H 0.99781 0.90035 0.50975 0.0
C1479 C 0.01862 0.84991 0.46338 0.0
C1480 C 0.99662 0.89766 0.4555 0.0
C1481 C 0.02305 0.83278 0.45414 0.0
C1482 C 0.97997 0.96778 0.49489 0.0
C1483 C 0.97951 0.94916 0.48781 0.0
C1484 C 0.99739 0.89976 0.4946 0.0
C1485 C 0.00446 0.86248 0.45647 0.0
C1486 C 0.0001 0.88091 0.46604 0.0
C1487 C 0.99338 0.93549 0.49308 0.0
C1488 C 0.99438 0.91651 0.48398 0.0
H1489 H 0.99234 0.83718 0.41784 0.0
H1490 H 0.98393 0.86685 0.43433 0.0
H1491 H 0.00245 0.86945 0.49427 0.0
H1492 H 0.01901 0.9629 0.52259 0.0
H1493 H 0.01823 0.93032 0.51024 0.0
C1494 C 0.44568 0.77803 0.64897 0.0
C1495 C 0.46324 0.77491 0.65797 0.0
C1496 C 0.42833 0.77933 0.65929 0.0
C1497 C 0.39241 0.77025 0.6823 0.0
H1498 H 0.38962 0.79373 0.7314 0.0
C1499 C 0.32349 0.76573 0.72923 0.0
C1500 C 0.31832 0.78161 0.7404 0.0
C1501 C 0.34128 0.76503 0.71957 0.0
C1502 C 0.39005 0.78728 0.71762 0.0
H1503 H 0.47614 0.77084 0.68508 0.0
H1504 H 0.44582 0.77267 0.70307 0.0
H1505 H 0.42015 0.79294 0.71384 0.0
H1506 H 0.3279 0.80928 0.75008 0.0
H1507 H 0.35867 0.80831 0.73286 0.0
H1508 H 0.36224 0.76517 0.68574 0.0
C1509 C 0.44551 0.77448 0.688 0.0
C1510 C 0.40769 0.78658 0.70763 0.0
C1511 C 0.46294 0.77333 0.67765 0.0
C1512 C 0.33141 0.7968 0.74163 0.0
C1513 C 0.34916 0.79616 0.73184 0.0
C1514 C 0.37478 0.77106 0.69222 0.0
C1515 C 0.4279 0.77736 0.67894 0.0
C1516 C 0.40914 0.77806 0.68979 0.0
C1517 C 0.35438 0.78026 0.72065 0.0
C1518 C 0.37329 0.77955 0.71006 0.0
H1519 H 0.44527 0.77949 0.63386 0.0
H1520 H 0.41522 0.782 0.65177 0.0
H1521 H 0.39289 0.76329 0.66877 0.0
H1522 H 0.31386 0.7537 0.72807 0.0
H1523 H 0.34483 0.75236 0.71144 0.0
C1524 C 0.52604 0.22403 0.9698 0.0
C1525 C 0.52578 0.22545 0.95015 0.0
C1526 C 0.53229 0.20717 0.97847 0.0
C1527 C 0.55744 0.1605 0.96957 0.0
H1528 H 0.52591 0.1438 0.01211 0.0
C1529 C 0.54619 0.08196 0.99212 0.0
C1530 C 0.54318 0.07781 0.01127 0.0
C1531 C 0.54959 0.10076 0.98613 0.0
C1532 C 0.53516 0.14841 0.00052 0.0
H1533 H 0.53223 0.21043 0.92417 0.0
H1534 H 0.54242 0.18071 0.9393 0.0
H1535 H 0.52051 0.17534 0.99862 0.0
H1536 H 0.54314 0.08976 0.03929 0.0
H1537 H 0.54906 0.12262 0.02878 0.0
H1538 H 0.57134 0.13292 0.97101 0.0
C1539 C 0.53827 0.19279 0.94803 0.0
C1540 C 0.53206 0.16653 0.99274 0.0
C1541 C 0.53225 0.20977 0.93934 0.0
C1542 C 0.54523 0.09253 0.02442 0.0
C1543 C 0.54855 0.11135 0.01842 0.0
C1544 C 0.56043 0.14224 0.97728 0.0
C1545 C 0.53816 0.19123 0.96771 0.0
C1546 C 0.54291 0.17268 0.97697 0.0
C1547 C 0.54998 0.11574 0.99919 0.0
C1548 C 0.54908 0.13592 0.99263 0.0
H1549 H 0.52145 0.23596 0.97854 0.0
H1550 H 0.53239 0.20661 0.99364 0.0
H1551 H 0.56628 0.16493 0.95762 0.0
H1552 H 0.54485 0.0709 0.98165 0.0
H1553 H 0.55055 0.10373 0.97121 0.0
C1554 C 0.07345 0.28008 0.18973 0.0
C1555 C 0.07307 0.28109 0.17006 0.0
C1556 C 0.09088 0.28092 0.19912 0.0
C1557 C 0.14462 0.27747 0.19072 0.0
H1558 H 0.14539 0.29622 0.24177 0.0
C1559 C 0.21463 0.29438 0.23033 0.0
C1560 C 0.2168 0.28419 0.24726 0.0
C1561 C 0.19704 0.2945 0.22114 0.0
C1562 C 0.14535 0.29089 0.22753 0.0
H1563 H 0.09072 0.2843 0.14484 0.0
H1564 H 0.121 0.28696 0.16111 0.0
H1565 H 0.11525 0.29642 0.22503 0.0
H1566 H 0.20195 0.26653 0.26804 0.0
H1567 H 0.1709 0.26748 0.25233 0.0
H1568 H 0.17507 0.27288 0.19319 0.0
C1569 C 0.10798 0.2847 0.16942 0.0
C1570 C 0.12801 0.29083 0.21789 0.0
C1571 C 0.09054 0.28337 0.16001 0.0
C1572 C 0.20075 0.27457 0.25506 0.0
C1573 C 0.18299 0.27511 0.24609 0.0
C1574 C 0.16203 0.27799 0.20023 0.0
C1575 C 0.10851 0.28328 0.18918 0.0
C1576 C 0.12726 0.28395 0.19934 0.0
C1577 C 0.18105 0.28484 0.22889 0.0
C1578 C 0.16256 0.28457 0.21878 0.0
H1579 H 0.06027 0.27808 0.19791 0.0
H1580 H 0.09043 0.27927 0.21421 0.0
H1581 H 0.14485 0.27164 0.17671 0.0
H1582 H 0.22672 0.3018 0.22383 0.0
H1583 H 0.19593 0.30217 0.20794 0.0
C1584 C 0.13539 0.02089 0.22236 0.0
C1585 C 0.12877 0.01099 0.23844 0.0
C1586 C 0.12622 0.01877 0.20535 0.0
C1587 C 0.09396 0.98714 0.17985 0.0
H1588 H 0.08355 0.03313 0.15072 0.0
C1589 C 0.04348 0.98792 0.11692 0.0
C1590 C 0.04916 0.99882 0.10112 0.0
C1591 C 0.05369 0.98891 0.13347 0.0
C1592 C 0.08657 0.02013 0.15857 0.0
H1593 H 0.10756 0.99088 0.2493 0.0
H1594 H 0.09142 0.98729 0.21955 0.0
H1595 H 0.10059 0.0356 0.18001 0.0
H1596 H 0.07031 0.01892 0.09015 0.0
H1597 H 0.08815 0.02065 0.11903 0.0
H1598 H 0.07986 0.97168 0.1584 0.0
C1599 C 0.10381 0.99655 0.22008 0.0
C1600 C 0.09632 0.02154 0.17534 0.0
C1601 C 0.11298 0.99869 0.23712 0.0
C1602 C 0.06537 0.01062 0.10218 0.0
C1603 C 0.0756 0.01159 0.11871 0.0
C1604 C 0.08422 0.98572 0.16305 0.0
C1605 C 0.11025 0.0067 0.20406 0.0
C1606 C 0.10009 0.00507 0.18616 0.0
C1607 C 0.06982 0.00081 0.13455 0.0
C1608 C 0.0804 0.00221 0.15225 0.0
H1609 H 0.1476 0.0304 0.22291 0.0
H1610 H 0.13167 0.02656 0.19317 0.0
H1611 H 0.09689 0.97418 0.18779 0.0
H1612 H 0.03091 0.9789 0.11663 0.0
H1613 H 0.04872 0.98065 0.14553 0.0
C1614 C 0.25155 0.88953 0.46142 0.0
C1615 C 0.25446 0.88093 0.47901 0.0
C1616 C 0.25508 0.87922 0.44498 0.0
C1617 C 0.26371 0.83057 0.42579 0.0
H1618 H 0.29311 0.8584 0.38766 0.0
C1619 C 0.29805 0.79329 0.36094 0.0
C1620 C 0.29448 0.8024 0.34374 0.0
C1621 C 0.29385 0.80272 0.3778 0.0
C1622 C 0.28481 0.85049 0.39813 0.0
H1623 H 0.26219 0.85433 0.49312 0.0
H1624 H 0.26851 0.83642 0.46442 0.0
H1625 H 0.2825 0.87474 0.41622 0.0
H1626 H 0.28469 0.82873 0.33059 0.0
H1627 H 0.27734 0.8452 0.35998 0.0
H1628 H 0.26617 0.80627 0.40763 0.0
C1629 C 0.2634 0.85112 0.46334 0.0
C1630 C 0.27863 0.85986 0.41444 0.0
C1631 C 0.25978 0.86141 0.47981 0.0
C1632 C 0.28741 0.82134 0.34368 0.0
C1633 C 0.28334 0.8308 0.36048 0.0
C1634 C 0.26995 0.82117 0.40947 0.0
C1635 C 0.26166 0.86011 0.44577 0.0
C1636 C 0.2679 0.85005 0.42838 0.0
C1637 C 0.28619 0.82146 0.37771 0.0
C1638 C 0.28046 0.83109 0.39544 0.0
H1639 H 0.24726 0.90448 0.46028 0.0
H1640 H 0.25316 0.88639 0.43163 0.0
H1641 H 0.25536 0.82268 0.43623 0.0
H1642 H 0.30335 0.77864 0.36138 0.0
H1643 H 0.29638 0.79528 0.39091 0.0
C1644 C 0.42054 0.0388 0.69541 0.0
C1645 C 0.42812 0.04375 0.71276 0.0
C1646 C 0.42857 0.04609 0.67882 0.0
C1647 C 0.47379 0.06163 0.65873 0.0
H1648 H 0.44224 0.07548 0.61653 0.0
C1649 C 0.50704 0.06464 0.58501 0.0
C1650 C 0.49698 0.05375 0.57203 0.0
C1651 C 0.49815 0.07029 0.60184 0.0
C1652 C 0.45125 0.07174 0.6282 0.0
H1653 H 0.44984 0.06041 0.72644 0.0
H1654 H 0.46426 0.07287 0.69715 0.0
H1655 H 0.42745 0.07254 0.64783 0.0
H1656 H 0.46941 0.0413 0.56586 0.0
H1657 H 0.45401 0.05067 0.59548 0.0
H1658 H 0.49736 0.05959 0.6391 0.0
C1659 C 0.45199 0.06345 0.69653 0.0
C1660 C 0.44281 0.07011 0.64608 0.0
C1661 C 0.4438 0.05629 0.71323 0.0
C1662 C 0.47752 0.04963 0.57565 0.0
C1663 C 0.46867 0.05515 0.59257 0.0
C1664 C 0.48222 0.06316 0.64086 0.0
C1665 C 0.44443 0.05837 0.67919 0.0
C1666 C 0.45388 0.06429 0.66134 0.0
C1667 C 0.47909 0.06502 0.60609 0.0
C1668 C 0.47089 0.06748 0.62529 0.0
H1669 H 0.40838 0.02927 0.69461 0.0
H1670 H 0.42269 0.04163 0.66564 0.0
H1671 H 0.48263 0.05698 0.67024 0.0
H1672 H 0.522 0.06829 0.58245 0.0
H1673 H 0.50643 0.07818 0.61183 0.0
C1674 C 0.26699 0.1878 0.95988 0.0
C1675 C 0.26125 0.16848 0.96123 0.0
C1676 C 0.26659 0.19773 0.94257 0.0
C1677 C 0.24246 0.19855 0.89715 0.0
H1678 H 0.28816 0.22302 0.87657 0.0
C1679 C 0.24573 0.22533 0.81965 0.0
C1680 C 0.25795 0.24056 0.81454 0.0
C1681 C 0.24589 0.21742 0.83785 0.0
C1682 C 0.27505 0.21666 0.88212 0.0
H1683 H 0.2505 0.1447 0.94507 0.0
H1684 H 0.24916 0.1621 0.91553 0.0
H1685 H 0.28861 0.2088 0.90789 0.0
H1686 H 0.27958 0.2597 0.82489 0.0
H1687 H 0.27916 0.2468 0.85662 0.0
H1688 H 0.22857 0.20675 0.87189 0.0
C1689 C 0.25413 0.16954 0.92776 0.0
C1690 C 0.27541 0.2084 0.90016 0.0
C1691 C 0.25496 0.15954 0.94481 0.0
C1692 C 0.27005 0.24789 0.82824 0.0
C1693 C 0.26993 0.24028 0.84653 0.0
C1694 C 0.24195 0.20715 0.8793 0.0
C1695 C 0.25997 0.18873 0.92633 0.0
C1696 C 0.2592 0.199 0.90781 0.0
C1697 C 0.25799 0.22474 0.8517 0.0
C1698 C 0.25831 0.21616 0.87126 0.0
H1699 H 0.27199 0.19518 0.97212 0.0
H1700 H 0.27119 0.21253 0.94194 0.0
H1701 H 0.22965 0.19156 0.90269 0.0
H1702 H 0.23635 0.21919 0.80943 0.0
H1703 H 0.23672 0.20527 0.84086 0.0
C1704 C 0.12913 0.00219 0.34625 0.0
C1705 C 0.14927 0.00295 0.34422 0.0
C1706 C 0.12041 0.00028 0.36397 0.0
C1707 C 0.1312 0.01171 0.4128 0.0
H1708 H 0.07908 0.99376 0.42121 0.0
C1709 C 0.06605 0.01303 0.47333 0.0
C1710 C 0.06859 0.03188 0.47964 0.0
C1711 C 0.07716 0.00592 0.45829 0.0
C1712 C 0.09376 0.99858 0.4193 0.0
H1713 H 0.17609 0.00026 0.35895 0.0
H1714 H 0.16086 0.99612 0.38984 0.0
H1715 H 0.09665 0.98487 0.39264 0.0
H1716 H 0.08456 0.05813 0.47511 0.0
H1717 H 0.10334 0.0461 0.4484 0.0
H1718 H 0.1285 0.02507 0.43959 0.0
C1719 C 0.15178 0.99779 0.37782 0.0
C1720 C 0.10377 0.99367 0.40276 0.0
C1721 C 0.16052 2e-05 0.3601 0.0
C1722 C 0.08235 0.04352 0.47059 0.0
C1723 C 0.09326 0.03652 0.4554 0.0
C1724 C 0.12132 0.01635 0.42944 0.0
C1725 C 0.13162 0.99878 0.38007 0.0
C1726 C 0.12237 0.00075 0.399 0.0
C1727 C 0.09088 0.0176 0.4491 0.0
C1728 C 0.10223 0.01044 0.4326 0.0
H1729 H 0.12001 0.00442 0.33433 0.0
H1730 H 0.10487 0.00131 0.36506 0.0
H1731 H 0.14542 0.0176 0.41042 0.0
H1732 H 0.05566 0.00365 0.48019 0.0
H1733 H 0.07511 0.99122 0.454 0.0
C1734 C 0.23565 0.86106 0.59134 0.0
C1735 C 0.24118 0.87996 0.58718 0.0
C1736 C 0.23101 0.8557 0.60981 0.0
C1737 C 0.243 0.86922 0.65722 0.0
H1738 H 0.20497 0.83123 0.67174 0.0
C1739 C 0.24426 0.83521 0.73006 0.0
C1740 C 0.24412 0.81506 0.72964 0.0
C1741 C 0.23834 0.84585 0.71455 0.0
C1742 C 0.2156 0.84192 0.6679 0.0
H1743 H 0.245 0.90838 0.59875 0.0
H1744 H 0.23679 0.89905 0.63085 0.0
H1745 H 0.20503 0.84483 0.64005 0.0
H1746 H 0.23647 0.79028 0.7132 0.0
H1747 H 0.22673 0.80873 0.68609 0.0
H1748 H 0.25428 0.86568 0.68454 0.0
C1749 C 0.23638 0.88829 0.61997 0.0
C1750 C 0.21564 0.84966 0.64979 0.0
C1751 C 0.2411 0.89361 0.60159 0.0
C1752 C 0.23689 0.8058 0.71391 0.0
C1753 C 0.23108 0.8164 0.69841 0.0
C1754 C 0.24302 0.86145 0.67524 0.0
C1755 C 0.23175 0.8692 0.62434 0.0
C1756 C 0.22969 0.86299 0.64414 0.0
C1757 C 0.23228 0.83651 0.69833 0.0
C1758 C 0.22969 0.84729 0.6806 0.0
H1759 H 0.23549 0.85028 0.58047 0.0
H1760 H 0.22768 0.84082 0.6128 0.0
H1761 H 0.25418 0.87929 0.65321 0.0
H1762 H 0.24952 0.84275 0.74211 0.0
H1763 H 0.23914 0.86136 0.71499 0.0
C1764 C 0.41352 0.04559 0.81988 0.0
C1765 C 0.39609 0.0361 0.81707 0.0
C1766 C 0.42095 0.04681 0.83781 0.0
C1767 C 0.42288 0.01719 0.87867 0.0
H1768 H 0.44962 0.05972 0.90081 0.0
C1769 C 0.47037 0.03283 0.94756 0.0
C1770 C 0.48528 0.01924 0.94501 0.0
C1771 C 0.45701 0.03596 0.9336 0.0
C1772 C 0.44204 0.04779 0.89485 0.0
H1773 H 0.37181 0.02221 0.83117 0.0
H1774 H 0.38513 0.02395 0.86237 0.0
H1775 H 0.42936 0.06546 0.87364 0.0
H1776 H 0.49778 0.99804 0.92621 0.0
H1777 H 0.47405 0.00323 0.90175 0.0
H1778 H 0.43629 -0.00064 0.89925 0.0
C1779 C 0.39301 0.03033 0.85065 0.0
C1780 C 0.43053 0.05107 0.87937 0.0
C1781 C 0.38543 0.02936 0.83277 0.0
C1782 C 0.48641 0.00858 0.92841 0.0
C1783 C 0.47283 0.01148 0.91456 0.0
C1784 C 0.43463 0.01387 0.89392 0.0
C1785 C 0.41115 0.03842 0.85317 0.0
C1786 C 0.42108 0.03574 0.87103 0.0
C1787 C 0.45817 0.02533 0.917 0.0
C1788 C 0.44451 0.02909 0.90193 0.0
H1789 H 0.42197 0.05117 0.80813 0.0
H1790 H 0.435 0.0531 0.83943 0.0
H1791 H 0.41593 0.0051 0.8723 0.0
H1792 H 0.46937 0.04142 0.96015 0.0
H1793 H 0.4458 0.0467 0.93574 0.0
C1794 C 0.26521 0.16807 0.08796 0.0
C1795 C 0.26888 0.17888 0.07152 0.0
C1796 C 0.26696 0.17626 0.10577 0.0
C1797 C 0.26862 0.22371 0.13003 0.0
H1798 H 0.28716 0.19318 0.17159 0.0
C1799 C 0.28388 0.2581 0.20191 0.0
C1800 C 0.27847 0.24798 0.21834 0.0
C1801 C 0.2835 0.24937 0.18426 0.0
C1802 C 0.28176 0.2019 0.16022 0.0
H1803 H 0.27751 0.20687 0.06114 0.0
H1804 H 0.28084 0.22107 0.0921 0.0
H1805 H 0.28515 0.17886 0.14058 0.0
H1806 H 0.26875 0.22038 0.22887 0.0
H1807 H 0.2681 0.20511 0.19808 0.0
H1808 H 0.26525 0.24675 0.14964 0.0
C1809 C 0.27628 0.2063 0.09128 0.0
C1810 C 0.28058 0.19365 0.14234 0.0
C1811 C 0.2745 0.1981 0.07344 0.0
C1812 C 0.27312 0.22864 0.21659 0.0
C1813 C 0.27279 0.21985 0.19887 0.0
C1814 C 0.26985 0.23196 0.14787 0.0
C1815 C 0.27246 0.19555 0.10778 0.0
C1816 C 0.27397 0.20441 0.12691 0.0
C1817 C 0.27771 0.23017 0.18238 0.0
C1818 C 0.27645 0.22121 0.16328 0.0
H1819 H 0.26078 0.15325 0.08709 0.0
H1820 H 0.26359 0.16751 0.11799 0.0
H1821 H 0.26309 0.23245 0.11873 0.0
H1822 H 0.28811 0.273 0.2026 0.0
H1823 H 0.28775 0.25774 0.17202 0.0
C1824 C 0.21095 0.11446 0.03028 0.0
C1825 C 0.21333 0.13098 0.01914 0.0
C1826 C 0.19341 0.10466 0.03083 0.0
C1827 C 0.14143 0.1096 0.01773 0.0
H1828 H 0.14244 0.05417 0.0229 0.0
C1829 C 0.0741 0.06344 0.00523 0.0
C1830 C 0.07 0.0487 0.01828 0.0
C1831 C 0.09167 0.07313 0.00538 0.0
C1832 C 0.14187 0.06966 0.02158 0.0
H1833 H 0.19896 0.15099 0.0008 0.0
H1834 H 0.16865 0.13354 0.00088 0.0
H1835 H 0.17238 0.07192 0.02358 0.0
H1836 H 0.08153 0.0324 0.04151 0.0
H1837 H 0.11229 0.04915 0.0416 0.0
H1838 H 0.11084 0.10719 0.01557 0.0
C1839 C 0.18011 0.1281 0.00949 0.0
C1840 C 0.15911 0.07994 0.02199 0.0
C1841 C 0.19756 0.13807 0.00925 0.0
C1842 C 0.08419 0.04359 0.03119 0.0
C1843 C 0.10187 0.05319 0.03122 0.0
C1844 C 0.12421 0.09931 0.01718 0.0
C1845 C 0.17776 0.11111 0.02017 0.0
C1846 C 0.15923 0.1001 0.02002 0.0
C1847 C 0.10574 0.06828 0.01848 0.0
C1848 C 0.12418 0.07919 0.01906 0.0
H1849 H 0.22271 0.10908 0.03857 0.0
H1850 H 0.19219 0.09204 0.03968 0.0
H1851 H 0.14065 0.12509 0.01664 0.0
H1852 H 0.06354 0.06782 0.99511 0.0
H1853 H 0.09423 0.08448 0.9952 0.0
C1854 C 0.67997 0.40688 0.05128 0.0
C1855 C 0.68745 0.41639 0.03525 0.0
C1856 C 0.66062 0.40911 0.05665 0.0
C1857 C 0.62502 0.43168 0.07085 0.0
H1858 H 0.58492 0.43473 0.03413 0.0
C1859 C 0.56786 0.48952 0.06846 0.0
C1860 C 0.55051 0.48614 0.05945 0.0
C1861 C 0.58088 0.47452 0.07136 0.0
C1862 C 0.59571 0.43346 0.04477 0.0
H1863 H 0.68033 0.43496 0.01186 0.0
H1864 H 0.64656 0.43873 0.02117 0.0
H1865 H 0.61568 0.41977 0.02571 0.0
H1866 H 0.53206 0.46407 0.0486 0.0
H1867 H 0.55496 0.43787 0.05357 0.0
H1868 H 0.60545 0.44652 0.08952 0.0
C1869 C 0.65566 0.42953 0.02954 0.0
C1870 C 0.6134 0.42507 0.03984 0.0
C1871 C 0.67504 0.42753 0.02431 0.0
C1872 C 0.54543 0.46716 0.0554 0.0
C1873 C 0.55854 0.45215 0.0582 0.0
C1874 C 0.60733 0.44019 0.07576 0.0
C1875 C 0.64836 0.42061 0.04592 0.0
C1876 C 0.62849 0.42496 0.05253 0.0
C1877 C 0.57682 0.4559 0.06521 0.0
C1878 C 0.59286 0.442 0.06244 0.0
H1879 H 0.68919 0.39821 0.06005 0.0
H1880 H 0.65531 0.40211 0.06934 0.0
H1881 H 0.63644 0.43175 0.0809 0.0
H1882 H 0.57205 0.50398 0.07195 0.0
H1883 H 0.59487 0.47793 0.07675 0.0
C1884 C 0.88367 0.47051 0.28884 0.0
C1885 C 0.87249 0.47995 0.27544 0.0
C1886 C 0.87918 0.45185 0.29458 0.0
C1887 C 0.83807 0.42042 0.29867 0.0
H1888 H 0.87468 0.37837 0.30324 0.0
C1889 C 0.81101 0.34981 0.32493 0.0
C1890 C 0.81195 0.33674 0.31003 0.0
C1891 C 0.82345 0.36538 0.32514 0.0
C1892 C 0.86444 0.39015 0.30232 0.0
H1893 H 0.8494 0.47695 0.25597 0.0
H1894 H 0.84117 0.44437 0.26625 0.0
H1895 H 0.8859 0.41021 0.29275 0.0
H1896 H 0.82845 0.32821 0.28512 0.0
H1897 H 0.85013 0.35535 0.28559 0.0
H1898 H 0.81658 0.40069 0.30796 0.0
C1899 C 0.85306 0.45153 0.27269 0.0
C1900 C 0.8708 0.40824 0.29629 0.0
C1901 C 0.85761 0.47015 0.26693 0.0
C1902 C 0.82724 0.33805 0.29677 0.0
C1903 C 0.83975 0.35359 0.29704 0.0
C1904 C 0.83183 0.40264 0.3051 0.0
C1905 C 0.86359 0.44236 0.28681 0.0
C1906 C 0.85753 0.42341 0.29408 0.0
C1907 C 0.83709 0.36799 0.31052 0.0
C1908 C 0.84486 0.38726 0.30672 0.0
H1909 H 0.89555 0.47777 0.2952 0.0
H1910 H 0.8875 0.44507 0.30548 0.0
H1911 H 0.82758 0.43177 0.29704 0.0
H1912 H 0.79972 0.34884 0.33562 0.0
H1913 H 0.82132 0.37625 0.33581 0.0
C1914 C 0.82639 0.60592 0.51463 0.0
C1915 C 0.82117 0.62551 0.51473 0.0
C1916 C 0.84564 0.60011 0.51591 0.0
C1917 C 0.89478 0.61392 0.50473 0.0
H1918 H 0.90885 0.57471 0.5409 0.0
C1919 C 0.96536 0.56761 0.49989 0.0
C1920 C 0.9757 0.56537 0.5165 0.0
C1921 C 0.94725 0.57676 0.50011 0.0
C1922 C 0.9052 0.58573 0.53078 0.0
H1923 H 0.83235 0.65437 0.51616 0.0
H1924 H 0.86631 0.64413 0.51779 0.0
H1925 H 0.8759 0.58745 0.54094 0.0
H1926 H 0.97501 0.57113 0.54635 0.0
H1927 H 0.94325 0.5866 0.54677 0.0
H1928 H 0.92396 0.61164 0.49413 0.0
C1929 C 0.85527 0.63333 0.51697 0.0
C1930 C 0.88631 0.59298 0.53077 0.0
C1931 C 0.83584 0.63918 0.51614 0.0
C1932 C 0.96751 0.57264 0.53328 0.0
C1933 C 0.94926 0.58144 0.53356 0.0
C1934 C 0.91361 0.60635 0.50448 0.0
C1935 C 0.86035 0.6137 0.51693 0.0
C1936 C 0.88083 0.6071 0.51771 0.0
C1937 C 0.93886 0.58356 0.517 0.0
C1938 C 0.91903 0.59212 0.51748 0.0
H1939 H 0.81556 0.59495 0.51357 0.0
H1940 H 0.84907 0.58491 0.51572 0.0
H1941 H 0.89095 0.62467 0.4944 0.0
H1942 H 0.97121 0.5622 0.48672 0.0
H1943 H 0.93956 0.57804 0.48714 0.0
C1944 C 0.16933 0.08097 0.28629 0.0
C1945 C 0.15733 0.0704 0.29844 0.0
C1946 C 0.17129 0.10065 0.28875 0.0
C1947 C 0.16709 0.14346 0.29182 0.0
H1948 H 0.18237 0.15849 0.34148 0.0
C1949 C 0.20694 0.21304 0.30038 0.0
C1950 C 0.22501 0.20944 0.3082 0.0
C1951 C 0.192 0.19998 0.30307 0.0
C1952 C 0.17784 0.1546 0.3276 0.0
H1953 H 0.13673 0.07186 0.32165 0.0
H1954 H 0.14055 0.10654 0.3264 0.0
H1955 H 0.16799 0.12706 0.33693 0.0
H1956 H 0.24086 0.19071 0.32673 0.0
H1957 H 0.21502 0.16771 0.33111 0.0
H1958 H 0.17795 0.17037 0.28219 0.0
C1959 C 0.14858 0.09957 0.31512 0.0
C1960 C 0.16957 0.13665 0.32501 0.0
C1961 C 0.14644 0.07984 0.31246 0.0
C1962 C 0.22721 0.19361 0.32025 0.0
C1963 C 0.21229 0.18057 0.32295 0.0
C1964 C 0.17522 0.16141 0.29442 0.0
C1965 C 0.16116 0.11011 0.30335 0.0
C1966 C 0.1651 0.13055 0.30692 0.0
C1967 C 0.19486 0.18314 0.31364 0.0
C1968 C 0.18156 0.16678 0.31217 0.0
H1969 H 0.17739 0.07396 0.27504 0.0
H1970 H 0.1813 0.10832 0.27963 0.0
H1971 H 0.16343 0.13922 0.27778 0.0
H1972 H 0.20476 0.22513 0.29105 0.0
H1973 H 0.17863 0.20244 0.29592 0.0
C1974 C 0.31072 0.93105 0.54107 0.0
C1975 C 0.30613 0.91484 0.53066 0.0
C1976 C 0.32908 0.93885 0.53949 0.0
C1977 C 0.36887 0.94314 0.50599 0.0
H1978 H 0.39638 0.96279 0.54824 0.0
C1979 C 0.44075 0.9824 0.4953 0.0
C1980 C 0.4446 0.99753 0.50744 0.0
C1981 C 0.42498 0.97056 0.49881 0.0
C1982 C 0.38873 0.95768 0.53625 0.0
H1983 H 0.31704 0.89296 0.51172 0.0
H1984 H 0.34927 0.90689 0.50851 0.0
H1985 H 0.36694 0.94468 0.55374 0.0
H1986 H 0.43512 0.01255 0.53246 0.0
H1987 H 0.40682 0.99269 0.53811 0.0
H1988 H 0.38978 0.95695 0.48837 0.0
C1989 C 0.33864 0.91372 0.51768 0.0
C1990 C 0.37197 0.94716 0.53944 0.0
C1991 C 0.32031 0.90579 0.51948 0.0
C1992 C 0.43235 0.00087 0.523 0.0
C1993 C 0.41631 0.98934 0.52629 0.0
C1994 C 0.38533 0.95404 0.50275 0.0
C1995 C 0.34309 0.93047 0.52749 0.0
C1996 C 0.36177 0.94001 0.52432 0.0
C1997 C 0.41249 0.97392 0.51432 0.0
C1998 C 0.3954 0.96162 0.51783 0.0
H1999 H 0.3 0.93786 0.55017 0.0
H2000 H 0.33208 0.95184 0.5471 0.0
H2001 H 0.3613 0.93776 0.49409 0.0
H2002 H 0.45028 0.97942 0.48341 0.0
H2003 H 0.42281 0.95861 0.4895 0.0
C2004 C 0.8272 0.58237 0.25573 0.0
C2005 C 0.84689 0.57792 0.25338 0.0
C2006 C 0.82 0.6001 0.24984 0.0
C2007 C 0.83517 0.64927 0.24355 0.0
H2008 H 0.78548 0.65615 0.22075 0.0
C2009 C 0.80227 0.72411 0.23792 0.0
C2010 C 0.78303 0.72546 0.24428 0.0
C2011 C 0.81038 0.70632 0.23333 0.0
C2012 C 0.79937 0.65445 0.22713 0.0
H2013 H 0.87432 0.58837 0.24243 0.0
H2014 H 0.86168 0.61943 0.23236 0.0
H2015 H 0.79933 0.62391 0.22373 0.0
H2016 H 0.7568 0.70957 0.24973 0.0
H2017 H 0.77111 0.67839 0.24242 0.0
H2018 H 0.83491 0.67947 0.24798 0.0
C2019 C 0.85191 0.60917 0.2388 0.0
C2020 C 0.80729 0.63603 0.22879 0.0
C2021 C 0.85911 0.59139 0.24458 0.0
C2022 C 0.77169 0.70891 0.24488 0.0
C2023 C 0.77988 0.69105 0.24056 0.0
C2024 C 0.82721 0.66762 0.24204 0.0
C2025 C 0.83233 0.61375 0.24157 0.0
C2026 C 0.82506 0.63327 0.2374 0.0
C2027 C 0.79949 0.6895 0.23533 0.0
C2028 C 0.80902 0.67039 0.23421 0.0
H2029 H 0.81736 0.57225 0.26229 0.0
H2030 H 0.80488 0.60337 0.25235 0.0
H2031 H 0.84877 0.64752 0.25048 0.0
H2032 H 0.81125 0.73672 0.23703 0.0
H2033 H 0.82539 0.70567 0.2289 0.0
C2034 C 0.6996 0.46325 0.79104 0.0
C2035 C 0.68204 0.4701 0.78413 0.0
C2036 C 0.70713 0.4456 0.78522 0.0
C2037 C 0.69245 0.39954 0.76562 0.0
H2038 H 0.74761 0.39139 0.76028 0.0
C2039 C 0.72598 0.32542 0.74843 0.0
C2040 C 0.74032 0.31957 0.76085 0.0
C2041 C 0.71952 0.34446 0.74817 0.0
C2042 C 0.73218 0.3935 0.7617 0.0
H2043 H 0.65889 0.46395 0.76527 0.0
H2044 H 0.67224 0.4332 0.75492 0.0
H2045 H 0.73488 0.4238 0.76519 0.0
H2046 H 0.75958 0.32916 0.78227 0.0
H2047 H 0.74837 0.3624 0.78171 0.0
H2048 H 0.68982 0.36917 0.76235 0.0
C2049 C 0.67998 0.44138 0.7651 0.0
C2050 C 0.72488 0.412 0.76457 0.0
C2051 C 0.67237 0.45903 0.77099 0.0
C2052 C 0.74849 0.33323 0.77257 0.0
C2053 C 0.74217 0.35228 0.77217 0.0
C2054 C 0.69975 0.38105 0.7626 0.0
C2055 C 0.69738 0.43441 0.77226 0.0
C2056 C 0.70497 0.41516 0.76702 0.0
C2057 C 0.72745 0.35801 0.76016 0.0
C2058 C 0.71969 0.37782 0.76105 0.0
H2059 H 0.70743 0.47136 0.8012 0.0
H2060 H 0.72038 0.44051 0.79129 0.0
H2061 H 0.67706 0.40143 0.76767 0.0
H2062 H 0.71942 0.31521 0.73922 0.0
H2063 H 0.70823 0.34857 0.73871 0.0
C2064 C 0.02372 0.83667 0.93379 0.0
C2065 C 0.01397 0.83494 0.91692 0.0
C2066 C 0.02533 0.85453 0.94246 0.0
C2067 C 0.00387 0.90378 0.94328 0.0
H2068 H 0.05011 0.91587 0.96994 0.0
C2069 C 0.01726 0.97945 0.97367 0.0
C2070 C 0.02416 0.98011 0.99203 0.0
C2071 C 0.0167 0.96204 0.96395 0.0
C2072 C 0.03703 0.91268 0.96267 0.0
H2073 H 0.99949 0.85063 0.89508 0.0
H2074 H 0.00232 0.88201 0.91008 0.0
H2075 H 0.04783 0.8852 0.95393 0.0
H2076 H 0.03627 0.96293 0.01437 0.0
H2077 H 0.03552 0.93267 0.99734 0.0
H2078 H 0.9932 0.93142 0.95192 0.0
C2079 C 0.00819 0.86948 0.91703 0.0
C2080 C 0.03568 0.89503 0.95351 0.0
C2081 C 0.00664 0.85155 0.90835 0.0
C2082 C 0.03096 0.963 1.00022 0.0
C2083 C 0.03056 0.94563 0.99043 0.0
C2084 C 0.00529 0.92151 0.95233 0.0
C2085 C 0.01748 0.87122 0.93428 0.0
C2086 C 0.01905 0.89026 0.94374 0.0
C2087 C 0.02317 0.94486 0.97226 0.0
C2088 C 0.02186 0.92616 0.96222 0.0
H2089 H 0.03006 0.82413 0.94037 0.0
H2090 H 0.03243 0.85514 0.95576 0.0
H2091 H 0.99068 0.90055 0.93623 0.0
H2092 H 0.01183 0.99231 0.96692 0.0
H2093 H 0.01114 0.96203 0.9499 0.0
C2094 C 0.92784 0.27722 0.641 0.0
C2095 C 0.94497 0.2812 0.65023 0.0
C2096 C 0.91064 0.27472 0.65124 0.0
C2097 C 0.8908 0.26447 0.69868 0.0
H2098 H 0.84626 0.29292 0.68155 0.0
C2099 C 0.82255 0.27485 0.74516 0.0
C2100 C 0.80485 0.27257 0.7364 0.0
C2101 C 0.83963 0.27567 0.73445 0.0
C2102 C 0.8585 0.28472 0.68641 0.0
H2103 H 0.95757 0.28485 0.67754 0.0
H2104 H 0.92762 0.28057 0.69527 0.0
H2105 H 0.87609 0.2933 0.66283 0.0
H2106 H 0.79112 0.26982 0.70959 0.0
H2107 H 0.82087 0.27098 0.69098 0.0
H2108 H 0.87324 0.25593 0.72229 0.0
C2109 C 0.9275 0.27932 0.68015 0.0
C2110 C 0.87555 0.2849 0.67567 0.0
C2111 C 0.94464 0.2819 0.66994 0.0
C2112 C 0.80453 0.27153 0.71675 0.0
C2113 C 0.82157 0.27232 0.70607 0.0
C2114 C 0.87373 0.26426 0.70941 0.0
C2115 C 0.91027 0.27602 0.6709 0.0
C2116 C 0.8919 0.27487 0.68175 0.0
C2117 C 0.83932 0.27424 0.7148 0.0
C2118 C 0.85744 0.27446 0.70343 0.0
H2119 H 0.9276 0.27651 0.62584 0.0
H2120 H 0.89759 0.27195 0.64378 0.0
H2121 H 0.90312 0.25644 0.7036 0.0
H2122 H 0.82324 0.27573 0.76028 0.0
H2123 H 0.85308 0.27745 0.74155 0.0
C2124 C 0.52034 0.20907 0.41247 0.0
C2125 C 0.5193 0.22655 0.42223 0.0
C2126 C 0.52227 0.19157 0.42218 0.0
C2127 C 0.51128 0.16891 0.46769 0.0
H2128 H 0.54893 0.13008 0.45282 0.0
C2129 C 0.50918 0.09046 0.49539 0.0
C2130 C 0.52649 0.08263 0.50201 0.0
C2131 C 0.50892 0.10816 0.48596 0.0
C2132 C 0.53839 0.14082 0.45717 0.0
H2133 H 0.51952 0.23927 0.44988 0.0
H2134 H 0.52242 0.20879 0.46677 0.0
H2135 H 0.54741 0.16062 0.4355 0.0
H2136 H 0.55719 0.08727 0.50365 0.0
H2137 H 0.55678 0.11807 0.48669 0.0
H2138 H 0.50198 0.14903 0.48909 0.0
C2139 C 0.52188 0.20862 0.45161 0.0
C2140 C 0.53743 0.15823 0.44718 0.0
C2141 C 0.52032 0.2261 0.4419 0.0
C2142 C 0.5436 0.09292 0.49881 0.0
C2143 C 0.54339 0.1105 0.48901 0.0
C2144 C 0.512 0.15139 0.47743 0.0
C2145 C 0.52283 0.19113 0.44189 0.0
C2146 C 0.5239 0.17252 0.45237 0.0
C2147 C 0.52602 0.11836 0.48255 0.0
C2148 C 0.52558 0.13713 0.47233 0.0
H2149 H 0.51961 0.2089 0.39732 0.0
H2150 H 0.52286 0.17834 0.4143 0.0
H2151 H 0.50061 0.17956 0.47198 0.0
H2152 H 0.49573 0.08295 0.49761 0.0
H2153 H 0.49533 0.11374 0.48105 0.0
C2154 C 0.56641 0.81442 0.15687 0.0
C2155 C 0.54731 0.81472 0.16378 0.0
C2156 C 0.58165 0.81574 0.16916 0.0
C2157 C 0.61218 0.82089 0.19856 0.0
H2158 H 0.6036 0.78275 0.23772 0.0
C2159 C 0.67248 0.79485 0.24712 0.0
C2160 C 0.6747 0.77475 0.24799 0.0
C2161 C 0.65611 0.80318 0.2394 0.0
C2162 C 0.60616 0.79352 0.22694 0.0
H2163 H 0.52913 0.819 0.18862 0.0
H2164 H 0.55577 0.82135 0.21004 0.0
H2165 H 0.57672 0.79384 0.21911 0.0
H2166 H 0.66105 0.74771 0.24193 0.0
H2167 H 0.63235 0.76225 0.22872 0.0
H2168 H 0.64186 0.81984 0.20591 0.0
C2169 C 0.55895 0.81975 0.19519 0.0
C2170 C 0.59075 0.80007 0.21643 0.0
C2171 C 0.54371 0.8185 0.18289 0.0
C2172 C 0.65978 0.76319 0.24164 0.0
C2173 C 0.64333 0.77153 0.23406 0.0
C2174 C 0.6276 0.81444 0.2092 0.0
C2175 C 0.57802 0.81737 0.18856 0.0
C2176 C 0.59368 0.81342 0.20179 0.0
C2177 C 0.64149 0.7916 0.23261 0.0
C2178 C 0.62481 0.80029 0.22312 0.0
H2179 H 0.56965 0.81166 0.14219 0.0
H2180 H 0.5962 0.81384 0.16362 0.0
H2181 H 0.61483 0.83122 0.1874 0.0
H2182 H 0.68341 0.80424 0.25231 0.0
H2183 H 0.65492 0.81868 0.23868 0.0
C2184 C 0.0356 0.26165 0.60305 0.0
C2185 C 0.02278 0.2577 0.61805 0.0
C2186 C 0.04678 0.24696 0.59504 0.0
C2187 C 0.06571 0.1984 0.60504 0.0
H2188 H 0.06679 0.19245 0.55101 0.0
C2189 C 0.07267 0.12635 0.56912 0.0
C2190 C 0.08216 0.12472 0.55163 0.0
C2191 C 0.07125 0.144 0.57803 0.0
C2192 C 0.06708 0.19416 0.56609 0.0
H2193 H 0.01217 0.23588 0.63724 0.0
H2194 H 0.03142 0.20996 0.62306 0.0
H2195 H 0.05212 0.2211 0.56491 0.0
H2196 H 0.09854 0.13976 0.53008 0.0
H2197 H 0.09588 0.17114 0.54566 0.0
H2198 H 0.0801 0.17115 0.60625 0.0
C2199 C 0.03287 0.22436 0.61742 0.0
C2200 C 0.05855 0.2105 0.57405 0.0
C2201 C 0.02172 0.23907 0.62541 0.0
C2202 C 0.09121 0.14081 0.54361 0.0
C2203 C 0.08958 0.15866 0.55245 0.0
C2204 C 0.07429 0.18211 0.59709 0.0
C2205 C 0.04556 0.22817 0.60219 0.0
C2206 C 0.05711 0.2124 0.59364 0.0
C2207 C 0.07918 0.16046 0.56954 0.0
C2208 C 0.07438 0.17949 0.57758 0.0
H2209 H 0.03713 0.27615 0.59768 0.0
H2210 H 0.05657 0.25035 0.58347 0.0
H2211 H 0.06527 0.19975 0.62017 0.0
H2212 H 0.06571 0.11403 0.57556 0.0
H2213 H 0.06293 0.14493 0.59105 0.0
C2214 C 0.56666 0.27846 0.34357 0.0
C2215 C 0.56312 0.27988 0.36301 0.0
C2216 C 0.58534 0.27655 0.33621 0.0
C2217 C 0.63652 0.26643 0.34865 0.0
H2218 H 0.64594 0.28965 0.29972 0.0
C2219 C 0.71221 0.27821 0.3123 0.0
C2220 C 0.71405 0.27124 0.29385 0.0
C2221 C 0.6943 0.27833 0.32179 0.0
C2222 C 0.64349 0.28301 0.31334 0.0
H2223 H 0.57662 0.28011 0.39001 0.0
H2224 H 0.60961 0.27768 0.3771 0.0
H2225 H 0.61424 0.29243 0.31463 0.0
H2226 H 0.69854 0.2588 0.27099 0.0
H2227 H 0.66715 0.25966 0.28737 0.0
H2228 H 0.66635 0.25786 0.3474 0.0
C2229 C 0.59778 0.27753 0.36753 0.0
C2230 C 0.62524 0.28445 0.32191 0.0
C2231 C 0.57886 0.279 0.37498 0.0
C2232 C 0.69761 0.26425 0.28518 0.0
C2233 C 0.67965 0.26478 0.29452 0.0
C2234 C 0.65497 0.26536 0.34019 0.0
C2235 C 0.60129 0.27655 0.34796 0.0
C2236 C 0.6213 0.27587 0.33954 0.0
C2237 C 0.6778 0.27189 0.31289 0.0
C2238 C 0.65852 0.27339 0.32231 0.0
H2239 H 0.55492 0.27883 0.33389 0.0
H2240 H 0.58719 0.27511 0.32117 0.0
H2241 H 0.63414 0.2595 0.36211 0.0
H2242 H 0.72462 0.28362 0.3194 0.0
H2243 H 0.69324 0.28398 0.33589 0.0
C2244 C 0.48581 0.84718 0.1091 0.0
C2245 C 0.48509 0.83035 0.09839 0.0
C2246 C 0.48142 0.86496 0.10111 0.0
C2247 C 0.483 0.8893 0.0559 0.0
H2248 H 0.45769 0.93046 0.08369 0.0
C2249 C 0.48529 0.96672 0.02838 0.0
C2250 C 0.4914 0.97992 0.04175 0.0
C2251 C 0.47893 0.94856 0.03399 0.0
C2252 C 0.46474 0.91909 0.07573 0.0
H2253 H 0.47848 0.81898 0.07103 0.0
H2254 H 0.47087 0.85012 0.05712 0.0
H2255 H 0.45689 0.89774 0.09619 0.0
H2256 H 0.49458 0.98487 0.07152 0.0
H2257 H 0.48384 0.95321 0.08122 0.0
H2258 H 0.49167 0.91066 0.03592 0.0
C2259 C 0.47495 0.84948 0.07167 0.0
C2260 C 0.46428 0.90039 0.08288 0.0
C2261 C 0.47928 0.83166 0.07967 0.0
C2262 C 0.49004 0.975 0.06086 0.0
C2263 C 0.48371 0.95688 0.06645 0.0
C2264 C 0.48351 0.90798 0.04879 0.0
C2265 C 0.47625 0.86633 0.08224 0.0
C2266 C 0.47392 0.88543 0.07331 0.0
C2267 C 0.47855 0.94329 0.05305 0.0
C2268 C 0.47491 0.92317 0.05892 0.0
H2269 H 0.49013 0.84671 0.12358 0.0
H2270 H 0.48281 0.87773 0.10954 0.0
H2271 H 0.49073 0.8781 0.0483 0.0
H2272 H 0.48601 0.97016 0.01355 0.0
H2273 H 0.47481 0.93846 0.02337 0.0
C2274 C 0.96121 0.78734 0.85868 0.0
C2275 C 0.95909 0.78224 0.87775 0.0
C2276 C 0.94565 0.78607 0.84659 0.0
C2277 C 0.90062 0.76076 0.83946 0.0
H2278 H 0.88476 0.80529 0.81068 0.0
C2279 C 0.82778 0.76248 0.80217 0.0
C2280 C 0.82536 0.77398 0.78611 0.0
C2281 C 0.84489 0.7629 0.8121 0.0
C2282 C 0.88913 0.79253 0.81825 0.0
H2283 H 0.93893 0.77147 0.89891 0.0
H2284 H 0.91202 0.76867 0.87767 0.0
H2285 H 0.91312 0.80699 0.83003 0.0
H2286 H 0.83942 0.79456 0.7676 0.0
H2287 H 0.86966 0.7946 0.78431 0.0
H2288 H 0.87723 0.74597 0.8274 0.0
C2289 C 0.92568 0.77387 0.87216 0.0
C2290 C 0.90538 0.7936 0.82947 0.0
C2291 C 0.94109 0.77555 0.88433 0.0
C2292 C 0.84078 0.78551 0.77991 0.0
C2293 C 0.85809 0.78568 0.78968 0.0
C2294 C 0.88463 0.75953 0.82796 0.0
C2295 C 0.92773 0.77924 0.85318 0.0
C2296 C 0.91113 0.77781 0.84042 0.0
C2297 C 0.86035 0.77457 0.80613 0.0
C2298 C 0.87836 0.7755 0.81738 0.0
H2299 H 0.97482 0.79265 0.85315 0.0
H2300 H 0.94767 0.79025 0.83203 0.0
H2301 H 0.90487 0.74826 0.84754 0.0
H2302 H 0.81616 0.75359 0.80754 0.0
H2303 H 0.84564 0.75444 0.82484 0.0
C2304 C 0.93028 0.03299 0.80571 0.0
C2305 C 0.91152 0.02581 0.80457 0.0
C2306 C 0.93822 0.0365 0.82308 0.0
C2307 C 0.93364 0.02425 0.87319 0.0
H2308 H 0.96413 0.0701 0.87886 0.0
C2309 C 0.9825 0.03482 0.93581 0.0
C2310 C 0.98331 0.05317 0.94376 0.0
C2311 C 0.97278 0.03197 0.91923 0.0
C2312 C 0.95548 0.05736 0.87758 0.0
H2313 H 0.88649 0.0164 0.82087 0.0
H2314 H 0.90035 0.02274 0.85123 0.0
H2315 H 0.94862 0.06418 0.84925 0.0
H2316 H 0.97456 0.08293 0.94066 0.0
H2317 H 0.95744 0.07797 0.91161 0.0
H2318 H 0.94028 0.01757 0.90162 0.0
C2319 C 0.90895 0.02547 0.83864 0.0
C2320 C 0.9468 0.05384 0.86054 0.0
C2321 C 0.901 0.0219 0.82123 0.0
C2322 C 0.97432 0.06868 0.93472 0.0
C2323 C 0.96452 0.06582 0.91813 0.0
C2324 C 0.94229 0.0278 0.89025 0.0
C2325 C 0.92758 0.03297 0.83972 0.0
C2326 C 0.93599 0.03713 0.8581 0.0
C2327 C 0.96362 0.04742 0.91025 0.0
C2328 C 0.95349 0.04427 0.89254 0.0
H2329 H 0.93887 0.03603 0.79318 0.0
H2330 H 0.95276 0.0419 0.82346 0.0
H2331 H 0.92549 0.0112 0.87171 0.0
H2332 H 0.98962 0.02266 0.94224 0.0
H2333 H 0.97272 0.01771 0.9133 0.0
C2334 C 0.80081 0.17119 0.56128 0.0
C2335 C 0.7997 0.18007 0.54361 0.0
C2336 C 0.79621 0.18141 0.57753 0.0
C2337 C 0.79272 0.20817 0.61061 0.0
H2338 H 0.74483 0.23723 0.60968 0.0
C2339 C 0.7633 0.24651 0.67613 0.0
C2340 C 0.74363 0.24424 0.68054 0.0
C2341 C 0.77086 0.24122 0.65864 0.0
C2342 C 0.7582 0.22913 0.61015 0.0
H2343 H 0.79383 0.20687 0.52911 0.0
H2344 H 0.78583 0.22485 0.55768 0.0
H2345 H 0.75821 0.22349 0.58067 0.0
H2346 H 0.71629 0.23534 0.66984 0.0
H2347 H 0.72958 0.22568 0.63911 0.0
H2348 H 0.7924 0.21309 0.64012 0.0
C2349 C 0.7901 0.2099 0.55887 0.0
C2350 C 0.766 0.22149 0.59351 0.0
C2351 C 0.79486 0.19967 0.54256 0.0
C2352 C 0.7315 0.2372 0.66679 0.0
C2353 C 0.73911 0.23176 0.64922 0.0
C2354 C 0.78496 0.21581 0.62719 0.0
C2355 C 0.79031 0.20073 0.57648 0.0
C2356 C 0.78319 0.21068 0.59364 0.0
C2357 C 0.75895 0.23342 0.64511 0.0
C2358 C 0.7675 0.22619 0.6272 0.0
H2359 H 0.80451 0.1561 0.56253 0.0
H2360 H 0.79636 0.17389 0.59087 0.0
H2361 H 0.80605 0.20002 0.61113 0.0
H2362 H 0.77292 0.25241 0.68623 0.0
H2363 H 0.7861 0.24313 0.65577 0.0
C2364 C 0.6114 0.02114 0.34267 0.0
C2365 C 0.63098 0.02593 0.34114 0.0
C2366 C 0.6024 0.01895 0.3602 0.0
C2367 C 0.61277 0.00806 0.40928 0.0
H2368 H 0.56095 0.02758 0.41837 0.0
C2369 C 0.57572 0.01407 0.4824 0.0
C2370 C 0.55571 0.0114 0.48366 0.0
C2371 C 0.58543 0.01299 0.46508 0.0
C2372 C 0.5753 0.02174 0.41594 0.0
H2373 H 0.65629 0.03284 0.35692 0.0
H2374 H 0.64039 0.02923 0.38762 0.0
H2375 H 0.57688 0.03325 0.38812 0.0
H2376 H 0.53047 0.00377 0.46813 0.0
H2377 H 0.54752 0.00161 0.43794 0.0
H2378 H 0.61119 0.99674 0.43727 0.0
C2379 C 0.63216 0.02687 0.37516 0.0
C2380 C 0.58445 0.02508 0.39865 0.0
C2381 C 0.6412 0.0291 0.35758 0.0
C2382 C 0.54587 0.0061 0.46757 0.0
C2383 C 0.55559 0.00499 0.45027 0.0
C2384 C 0.6036 0.00472 0.42662 0.0
C2385 C 0.61274 0.02153 0.37661 0.0
C2386 C 0.60327 0.0183 0.39514 0.0
C2387 C 0.57529 0.00918 0.44875 0.0
C2388 C 0.58477 0.01154 0.4301 0.0
H2389 H 0.60306 0.01861 0.33032 0.0
H2390 H 0.58745 0.01468 0.36088 0.0
H2391 H 0.62719 0.00242 0.40684 0.0
H2392 H 0.58372 0.01811 0.49457 0.0
H2393 H 0.60061 0.01634 0.46433 0.0
C2394 C 0.76283 0.85316 0.07042 0.0
C2395 C 0.76574 0.87304 0.06838 0.0
C2396 C 0.76208 0.84446 0.08826 0.0
C2397 C 0.77538 0.8528 0.13821 0.0
H2398 H 0.74295 0.80874 0.14791 0.0
C2399 C 0.78054 0.80837 0.20727 0.0
C2400 C 0.76368 0.8003 0.21515 0.0
C2401 C 0.78052 0.81721 0.1895 0.0
C2402 C 0.75197 0.82115 0.1456 0.0
H2403 H 0.76974 0.89936 0.08374 0.0
H2404 H 0.76794 0.8844 0.11473 0.0
H2405 H 0.74271 0.8244 0.11732 0.0
H2406 H 0.73345 0.79547 0.21034 0.0
H2407 H 0.73327 0.81116 0.17968 0.0
H2408 H 0.7842 0.84993 0.16665 0.0
C2409 C 0.76668 0.87534 0.10256 0.0
C2410 C 0.75205 0.83002 0.12784 0.0
C2411 C 0.76755 0.88401 0.08472 0.0
C2412 C 0.74676 0.8014 0.20474 0.0
C2413 C 0.7467 0.81034 0.18701 0.0
C2414 C 0.77523 0.84399 0.15599 0.0
C2415 C 0.7641 0.85538 0.10467 0.0
C2416 C 0.76379 0.84599 0.12379 0.0
C2417 C 0.76359 0.8184 0.17905 0.0
C2418 C 0.76358 0.82796 0.16001 0.0
H2419 H 0.76149 0.84421 0.05818 0.0
H2420 H 0.76035 0.82905 0.0891 0.0
H2421 H 0.78484 0.86485 0.13575 0.0
H2422 H 0.79389 0.80775 0.21478 0.0
H2423 H 0.79393 0.82287 0.18388 0.0
C2424 C 0.91775 0.05833 0.68531 0.0
C2425 C 0.92488 0.06115 0.7033 0.0
C2426 C 0.92723 0.06611 0.66962 0.0
C2427 C 0.94716 0.08737 0.63793 0.0
H2428 H 0.00183 0.07569 0.63814 0.0
C2429 C 0.01735 0.08041 0.58368 0.0
C2430 C 0.00911 0.06815 0.57059 0.0
C2431 C 0.00694 0.08591 0.59982 0.0
C2432 C 0.98669 0.0795 0.63794 0.0
H2433 H 0.94667 0.0755 0.71916 0.0
H2434 H 0.96319 0.08926 0.69168 0.0
H2435 H 0.9831 0.07451 0.66736 0.0
H2436 H 0.98327 0.05275 0.56368 0.0
H2437 H 0.96518 0.06232 0.59176 0.0
H2438 H 0.95065 0.09108 0.60822 0.0
C2439 C 0.95045 0.08076 0.6897 0.0
C2440 C 0.97593 0.07886 0.6547 0.0
C2441 C 0.94096 0.07292 0.70543 0.0
C2442 C 0.99006 0.06209 0.57358 0.0
C2443 C 0.97962 0.06775 0.58955 0.0
C2444 C 0.95791 0.08788 0.62115 0.0
C2445 C 0.94402 0.07694 0.67159 0.0
C2446 C 0.9559 0.08199 0.65475 0.0
C2447 C 0.98803 0.07946 0.60297 0.0
C2448 C 0.97761 0.08318 0.62092 0.0
H2449 H 0.90532 0.04939 0.68324 0.0
H2450 H 0.92201 0.06266 0.65589 0.0
H2451 H 0.93183 0.09025 0.63759 0.0
H2452 H 0.03198 0.08539 0.58167 0.0
H2453 H 0.01372 0.09496 0.60996 0.0
C2454 C 0.80468 0.14309 0.42316 0.0
C2455 C 0.79705 0.15282 0.4389 0.0
C2456 C 0.80518 0.15199 0.40557 0.0
C2457 C 0.79524 0.17023 0.36827 0.0
H2458 H 0.80353 0.22513 0.36618 0.0
C2459 C 0.77592 0.21701 0.3046 0.0
C2460 C 0.78576 0.23427 0.30158 0.0
C2461 C 0.7804 0.20523 0.31981 0.0
C2462 C 0.8016 0.20972 0.36636 0.0
H2463 H 0.78336 0.17921 0.44851 0.0
H2464 H 0.78357 0.19447 0.41778 0.0
H2465 H 0.80531 0.20843 0.39592 0.0
H2466 H 0.80909 0.252 0.3108 0.0
H2467 H 0.81763 0.23098 0.33676 0.0
H2468 H 0.79208 0.1715 0.33854 0.0
C2469 C 0.78979 0.18023 0.41906 0.0
C2470 C 0.80223 0.2002 0.38354 0.0
C2471 C 0.78954 0.17144 0.43667 0.0
C2472 C 0.8011 0.23887 0.31306 0.0
C2473 C 0.80588 0.22689 0.32799 0.0
C2474 C 0.79487 0.17974 0.35098 0.0
C2475 C 0.79785 0.17072 0.40335 0.0
C2476 C 0.79861 0.18043 0.38479 0.0
C2477 C 0.79505 0.21035 0.33203 0.0
C2478 C 0.79767 0.19968 0.34988 0.0
H2479 H 0.8107 0.12875 0.42448 0.0
H2480 H 0.81168 0.14434 0.39382 0.0
H2481 H 0.79231 0.15499 0.36873 0.0
H2482 H 0.76398 0.21321 0.29593 0.0
H2483 H 0.77162 0.19272 0.32255 0.0
C2484 C 0.6221 0.98981 0.22421 0.0
C2485 C 0.61414 0.98907 0.24249 0.0
C2486 C 0.61045 0.98732 0.20879 0.0
C2487 C 0.5827 0.97951 0.17757 0.0
H2488 H 0.53928 0.01456 0.18359 0.0
C2489 C 0.53624 0.00434 0.11553 0.0
C2490 C 0.5346 0.02446 0.11398 0.0
C2491 C 0.54319 0.99579 0.13182 0.0
C2492 C 0.55123 0.00458 0.18175 0.0
H2493 H 0.58826 0.983 0.25905 0.0
H2494 H 0.56792 0.97863 0.23206 0.0
H2495 H 0.55723 0.00466 0.21094 0.0
H2496 H 0.5387 0.05124 0.12871 0.0
H2497 H 0.55043 0.03631 0.15711 0.0
H2498 H 0.57723 0.98036 0.14815 0.0
C2499 C 0.58309 0.98144 0.22968 0.0
C2500 C 0.56138 0.99872 0.19742 0.0
C2501 C 0.59476 0.98388 0.24511 0.0
C2502 C 0.53951 0.03575 0.12938 0.0
C2503 C 0.54624 0.02718 0.14571 0.0
C2504 C 0.57243 0.98529 0.16188 0.0
C2505 C 0.59063 0.98406 0.21139 0.0
C2506 C 0.57764 0.98666 0.19541 0.0
C2507 C 0.54837 0.00715 0.147 0.0
C2508 C 0.55704 0.99842 0.16378 0.0
H2509 H 0.63703 0.99364 0.22176 0.0
H2510 H 0.61669 0.9895 0.19488 0.0
H2511 H 0.5951 0.97011 0.17564 0.0
H2512 H 0.53222 0.9951 0.10419 0.0
H2513 H 0.54455 0.9803 0.13254 0.0
C2514 C 0.77803 0.86447 0.95632 0.0
C2515 C 0.7695 0.88275 0.95858 0.0
C2516 C 0.77707 0.85473 0.93911 0.0
C2517 C 0.74861 0.85008 0.89669 0.0
H2518 H 0.7959 0.83376 0.87123 0.0
C2519 C 0.75212 0.8019 0.82949 0.0
C2520 C 0.76371 0.80882 0.81448 0.0
C2521 C 0.75215 0.81079 0.84714 0.0
C2522 C 0.78256 0.83821 0.87817 0.0
H2523 H 0.75279 0.90477 0.94461 0.0
H2524 H 0.75047 0.88748 0.91505 0.0
H2525 H 0.79711 0.84856 0.90232 0.0
H2526 H 0.78454 0.83052 0.80647 0.0
H2527 H 0.78499 0.84563 0.83739 0.0
H2528 H 0.73404 0.83941 0.8727 0.0
C2529 C 0.75816 0.88081 0.92644 0.0
C2530 C 0.78325 0.84656 0.89604 0.0
C2531 C 0.75955 0.89074 0.94339 0.0
C2532 C 0.77528 0.82491 0.81761 0.0
C2533 C 0.77567 0.83348 0.83539 0.0
C2534 C 0.74788 0.84128 0.87904 0.0
C2535 C 0.76711 0.86279 0.92395 0.0
C2536 C 0.7663 0.85279 0.90545 0.0
C2537 C 0.76416 0.82651 0.8504 0.0
C2538 C 0.76487 0.83543 0.86944 0.0
H2539 H 0.78592 0.85795 0.96765 0.0
H2540 H 0.78408 0.84084 0.93767 0.0
H2541 H 0.73529 0.8547 0.90356 0.0
H2542 H 0.74311 0.7895 0.82763 0.0
H2543 H 0.74315 0.80503 0.8584 0.0
C2544 C 0.83855 0.91452 0.0068 0.0
C2545 C 0.82139 0.92117 0.01542 0.0
C2546 C 0.85568 0.92489 0.00835 0.0
C2547 C 0.87373 0.97352 0.02035 0.0
H2548 H 0.92275 0.9471 0.02474 0.0
C2549 C 0.94743 0.01252 0.01422 0.0
C2550 C 0.96172 0.00693 0.02684 0.0
C2551 C 0.9301 0.00241 0.01336 0.0
C2552 C 0.90916 0.95472 0.02359 0.0
H2553 H 0.80901 0.94286 0.03375 0.0
H2554 H 0.83873 0.96087 0.03663 0.0
H2555 H 0.89329 0.92854 0.02232 0.0
H2556 H 0.96871 0.98634 0.04864 0.0
H2557 H 0.93859 0.96875 0.04709 0.0
H2558 H 0.88963 -0.0003 0.02168 0.0
C2559 C 0.83897 0.94811 0.02804 0.0
C2560 C 0.89226 0.94406 0.02199 0.0
C2561 C 0.8219 0.93779 0.02641 0.0
C2562 C 0.95804 0.99115 0.0388 0.0
C2563 C 0.94082 0.98093 0.03779 0.0
C2564 C 0.89065 0.98417 0.0217 0.0
C2565 C 0.85611 0.94195 0.01889 0.0
C2566 C 0.87425 0.95329 0.02038 0.0
C2567 C 0.92668 0.98629 0.02494 0.0
C2568 C 0.90861 0.97493 0.02342 0.0
H2569 H 0.83861 0.90155 0.99851 0.0
H2570 H 0.8685 0.9197 0.00102 0.0
H2571 H 0.86023 0.98123 0.01913 0.0
H2572 H 0.94978 0.02451 0.00471 0.0
H2573 H 0.91961 0.00689 0.00321 0.0
C2574 C 0.35558 0.61414 0.97687 0.0
C2575 C 0.34819 0.6259 0.99131 0.0
C2576 C 0.37529 0.61066 0.97498 0.0
C2577 C 0.42337 0.62593 0.9905 0.0
H2578 H 0.43569 0.57218 0.98254 0.0
C2579 C 0.4928 0.58715 0.01316 0.0
C2580 C 0.49809 0.57034 0.00354 0.0
C2581 C 0.47725 0.59826 0.00709 0.0
C2582 C 0.43266 0.58735 0.98427 0.0
H2583 H 0.35575 0.64377 0.01475 0.0
H2584 H 0.39028 0.63707 0.01186 0.0
H2585 H 0.40263 0.58288 0.98142 0.0
H2586 H 0.49341 0.5532 0.97894 0.0
H2587 H 0.467 0.57312 0.96773 0.0
H2588 H 0.45361 0.63004 0.99416 0.0
C2589 C 0.3808 0.63088 0.00176 0.0
C2590 C 0.4136 0.59349 0.9837 0.0
C2591 C 0.36102 0.63456 0.00353 0.0
C2592 C 0.4894 0.56608 0.98659 0.0
C2593 C 0.47421 0.57739 0.98031 0.0
C2594 C 0.44258 0.61973 0.99112 0.0
C2595 C 0.38809 0.61862 0.98765 0.0
C2596 C 0.40867 0.61278 0.98699 0.0
C2597 C 0.46708 0.59274 0.99123 0.0
C2598 C 0.44738 0.60031 0.98819 0.0
H2599 H 0.34614 0.60757 0.96696 0.0
H2600 H 0.38048 0.60148 0.96371 0.0
H2601 H 0.42 0.64093 0.99294 0.0
H2602 H 0.49928 0.59055 0.02637 0.0
H2603 H 0.47212 0.60999 0.01582 0.0
C2604 C 0.15119 0.57923 0.80281 0.0
C2605 C 0.15877 0.5631 0.79347 0.0
C2606 C 0.15951 0.59723 0.79972 0.0
C2607 C 0.17331 0.63414 0.77924 0.0
H2608 H 0.22909 0.63651 0.77724 0.0
C2609 C 0.21693 0.69544 0.74376 0.0
C2610 C 0.23206 0.70264 0.75421 0.0
C2611 C 0.20698 0.67921 0.75003 0.0
C2612 C 0.21351 0.63612 0.77791 0.0
H2613 H 0.17959 0.55302 0.77259 0.0
H2614 H 0.19423 0.58417 0.76739 0.0
H2615 H 0.21345 0.60674 0.78633 0.0
H2616 H 0.24902 0.69845 0.77901 0.0
H2617 H 0.23179 0.67003 0.78986 0.0
H2618 H 0.17353 0.66357 0.77017 0.0
C2619 C 0.18238 0.583 0.77749 0.0
C2620 C 0.20457 0.61908 0.7831 0.0
C2621 C 0.17407 0.56519 0.7805 0.0
C2622 C 0.23729 0.69323 0.77081 0.0
C2623 C 0.2275 0.67699 0.77697 0.0
C2624 C 0.1823 0.65121 0.7738 0.0
C2625 C 0.1753 0.59915 0.78715 0.0
C2626 C 0.18443 0.61786 0.78361 0.0
C2627 C 0.21223 0.66987 0.76668 0.0
C2628 C 0.20248 0.65223 0.77296 0.0
H2629 H 0.13908 0.57785 0.81256 0.0
H2630 H 0.15378 0.60955 0.80725 0.0
H2631 H 0.15774 0.63345 0.77937 0.0
H2632 H 0.21256 0.70261 0.73103 0.0
H2633 H 0.19536 0.6738 0.74177 0.0
C2634 C 0.20804 0.41652 0.51551 0.0
C2635 C 0.22383 0.42902 0.51568 0.0
C2636 C 0.18907 0.42381 0.51695 0.0
C2637 C 0.15974 0.4631 0.53559 0.0
H2638 H 0.12667 0.45842 0.493 0.0
C2639 C 0.09122 0.51049 0.52955 0.0
C2640 C 0.07557 0.50396 0.51936 0.0
C2641 C 0.10855 0.50001 0.52984 0.0
C2642 C 0.1354 0.45961 0.50527 0.0
H2643 H 0.23191 0.4589 0.51805 0.0
H2644 H 0.19915 0.47129 0.52146 0.0
H2645 H 0.15759 0.44154 0.49307 0.0
H2646 H 0.06576 0.48096 0.50183 0.0
H2647 H 0.09545 0.46218 0.50308 0.0
H2648 H 0.13768 0.48066 0.54818 0.0
C2649 C 0.20138 0.45596 0.51988 0.0
C2650 C 0.15322 0.44992 0.50522 0.0
C2651 C 0.22018 0.44881 0.51791 0.0
C2652 C 0.07759 0.4865 0.5097 0.0
C2653 C 0.09478 0.47578 0.51032 0.0
C2654 C 0.14176 0.47243 0.53588 0.0
C2655 C 0.1856 0.44363 0.51917 0.0
C2656 C 0.16572 0.45184 0.52023 0.0
C2657 C 0.11067 0.48239 0.5203 0.0
C2658 C 0.12939 0.47122 0.52054 0.0
H2659 H 0.21033 0.40124 0.51366 0.0
H2660 H 0.17712 0.41399 0.51635 0.0
H2661 H 0.16907 0.46479 0.54739 0.0
H2662 H 0.09023 0.52397 0.53703 0.0
H2663 H 0.12039 0.50603 0.53732 0.0
C2664 C 0.88659 0.97592 0.72155 0.0
C2665 C 0.90101 0.97988 0.73422 0.0
C2666 C 0.88302 0.95709 0.71644 0.0
C2667 C 0.87622 0.91652 0.70639 0.0
H2668 H 0.87699 0.88371 0.75042 0.0
C2669 C 0.82575 0.85193 0.71367 0.0
C2670 C 0.81641 0.85021 0.73128 0.0
C2671 C 0.84164 0.86388 0.71127 0.0
C2672 C 0.87666 0.89269 0.73798 0.0
H2673 H 0.92496 0.9681 0.74942 0.0
H2674 H 0.91898 0.93486 0.74034 0.0
H2675 H 0.89649 0.91228 0.74929 0.0
H2676 H 0.81629 0.85939 0.76017 0.0
H2677 H 0.84344 0.88096 0.75594 0.0
H2678 H 0.85501 0.89783 0.69584 0.0
C2679 C 0.90981 0.94615 0.73493 0.0
C2680 C 0.88813 0.909 0.73717 0.0
C2681 C 0.91329 0.9651 0.74012 0.0
C2682 C 0.82334 0.86045 0.74649 0.0
C2683 C 0.83903 0.87262 0.74406 0.0
C2684 C 0.86452 0.90038 0.70733 0.0
C2685 C 0.89406 0.94182 0.72367 0.0
C2686 C 0.88708 0.9218 0.72188 0.0
C2687 C 0.84834 0.87455 0.7264 0.0
C2688 C 0.86383 0.88888 0.72359 0.0
H2689 H 0.87747 0.98733 0.71626 0.0
H2690 H 0.87066 0.95459 0.70791 0.0
H2691 H 0.87568 0.92556 0.69401 0.0
H2692 H 0.8209 0.84384 0.70181 0.0
H2693 H 0.84861 0.8648 0.69755 0.0
C2694 C 0.75504 0.10359 0.51613 0.0
C2695 C 0.7547 0.11821 0.50255 0.0
C2696 C 0.73828 0.0936 0.52083 0.0
C2697 C 0.70091 0.06971 0.5196 0.0
H2698 H 0.65833 0.1027 0.5356 0.0
C2699 C 0.62184 0.04571 0.53073 0.0
C2700 C 0.61236 0.05216 0.54717 0.0
C2701 C 0.64036 0.05198 0.52611 0.0
C2702 C 0.67015 0.09334 0.53128 0.0
H2703 H 0.73682 0.13463 0.48378 0.0
H2704 H 0.7073 0.11731 0.49217 0.0
H2705 H 0.68853 0.11697 0.52457 0.0
H2706 H 0.61481 0.06974 0.57189 0.0
H2707 H 0.64721 0.08103 0.56363 0.0
H2708 H 0.68228 0.04606 0.52607 0.0
C2709 C 0.7206 0.11323 0.49879 0.0
C2710 C 0.6873 0.10148 0.52481 0.0
C2711 C 0.73739 0.12304 0.49397 0.0
C2712 C 0.62189 0.06454 0.55919 0.0
C2713 C 0.6403 0.07103 0.55443 0.0
C2714 C 0.68359 0.06154 0.52581 0.0
C2715 C 0.72089 0.0986 0.51241 0.0
C2716 C 0.70278 0.08974 0.51892 0.0
C2717 C 0.64955 0.06499 0.53773 0.0
C2718 C 0.66812 0.07333 0.53174 0.0
H2719 H 0.76813 0.10027 0.52348 0.0
H2720 H 0.73872 0.08256 0.53159 0.0
H2721 H 0.71273 0.06043 0.51511 0.0
H2722 H 0.61483 0.03598 0.52137 0.0
H2723 H 0.6472 0.04722 0.51311 0.0
C2724 C 0.1956 0.45906 0.78945 0.0
C2725 C 0.176 0.46344 0.78732 0.0
C2726 C 0.20246 0.44049 0.78656 0.0
C2727 C 0.18731 0.39097 0.78907 0.0
H2728 H 0.236 0.38122 0.76289 0.0
C2729 C 0.21844 0.31511 0.77541 0.0
C2730 C 0.23844 0.31267 0.77702 0.0
C2731 C 0.21008 0.33329 0.77692 0.0
C2732 C 0.2225 0.38377 0.77043 0.0
H2733 H 0.14829 0.45194 0.78001 0.0
H2734 H 0.16041 0.41922 0.77504 0.0
H2735 H 0.22237 0.41358 0.76314 0.0
H2736 H 0.26521 0.32711 0.78247 0.0
H2737 H 0.25049 0.3589 0.78544 0.0
H2738 H 0.18759 0.36119 0.79661 0.0
C2739 C 0.17034 0.43027 0.77902 0.0
C2740 C 0.21466 0.40223 0.77045 0.0
C2741 C 0.16346 0.44896 0.78176 0.0
C2742 C 0.24978 0.32859 0.78107 0.0
C2743 C 0.24139 0.34678 0.78261 0.0
C2744 C 0.19518 0.37248 0.78909 0.0
C2745 C 0.18987 0.42589 0.78157 0.0
C2746 C 0.19713 0.40602 0.77997 0.0
C2747 C 0.22154 0.34934 0.78011 0.0
C2748 C 0.21297 0.36879 0.77996 0.0
H2749 H 0.20566 0.46992 0.79359 0.0
H2750 H 0.21755 0.43743 0.7888 0.0
H2751 H 0.17388 0.39362 0.7967 0.0
H2752 H 0.20931 0.30309 0.77228 0.0
H2753 H 0.19476 0.33487 0.77483 0.0
C2754 C 0.32166 0.57106 0.27681 0.0
C2755 C 0.3408 0.57308 0.27021 0.0
C2756 C 0.31014 0.58727 0.28036 0.0
C2757 C 0.3138 0.63871 0.29049 0.0
H2758 H 0.26304 0.64352 0.26951 0.0
C2759 C 0.26403 0.70333 0.26293 0.0
C2760 C 0.26741 0.71671 0.27706 0.0
C2761 C 0.2688 0.684 0.26557 0.0
C2762 C 0.27714 0.64233 0.27554 0.0
H2763 H 0.36275 0.59373 0.26208 0.0
H2764 H 0.34271 0.62179 0.26819 0.0
H2765 H 0.28062 0.61298 0.26712 0.0
H2766 H 0.27662 0.72021 0.30565 0.0
H2767 H 0.28448 0.68642 0.31043 0.0
H2768 H 0.31102 0.66815 0.29798 0.0
C2769 C 0.33668 0.60771 0.27082 0.0
C2770 C 0.28712 0.62483 0.27431 0.0
C2771 C 0.34811 0.5916 0.26718 0.0
C2772 C 0.27418 0.71023 0.29439 0.0
C2773 C 0.27872 0.6909 0.29711 0.0
C2774 C 0.30389 0.65612 0.29172 0.0
C2775 C 0.31764 0.60573 0.27754 0.0
C2776 C 0.30579 0.62309 0.28126 0.0
C2777 C 0.27686 0.67772 0.28246 0.0
C2778 C 0.28568 0.65831 0.2838 0.0
H2779 H 0.31556 0.55698 0.27922 0.0
H2780 H 0.29549 0.58539 0.28553 0.0
H2781 H 0.32807 0.63765 0.29621 0.0
H2782 H 0.25878 0.70794 0.24944 0.0
H2783 H 0.26733 0.67426 0.25393 0.0
C2784 C 0.53061 0.71713 0.60791 0.0
C2785 C 0.52024 0.72099 0.62459 0.0
C2786 C 0.53001 0.69893 0.59966 0.0
C2787 C 0.50154 0.65304 0.60144 0.0
H2788 H 0.54314 0.63518 0.56858 0.0
C2789 C 0.51021 0.57511 0.57036 0.0
C2790 C 0.51217 0.57471 0.55067 0.0
C2791 C 0.51054 0.59263 0.58005 0.0
C2792 C 0.5314 0.64 0.57772 0.0
H2793 H 0.50285 0.70836 0.64689 0.0
H2794 H 0.50214 0.67645 0.63296 0.0
H2795 H 0.54611 0.66562 0.58475 0.0
H2796 H 0.5161 0.59253 0.52582 0.0
H2797 H 0.5173 0.62283 0.54276 0.0
H2798 H 0.48732 0.62674 0.59478 0.0
C2799 C 0.50993 0.68763 0.62552 0.0
C2800 C 0.53298 0.65762 0.58693 0.0
C2801 C 0.51045 0.70591 0.63366 0.0
C2802 C 0.51437 0.59225 0.54095 0.0
C2803 C 0.51518 0.60964 0.55064 0.0
C2804 C 0.5002 0.63518 0.59256 0.0
C2805 C 0.51939 0.68389 0.60815 0.0
C2806 C 0.518 0.6646 0.59883 0.0
C2807 C 0.51337 0.61004 0.57029 0.0
C2808 C 0.51503 0.62857 0.58045 0.0
H2809 H 0.53894 0.72832 0.60103 0.0
H2810 H 0.53744 0.69698 0.58629 0.0
H2811 H 0.48944 0.65789 0.61006 0.0
H2812 H 0.50858 0.56188 0.57828 0.0
H2813 H 0.50916 0.59252 0.5952 0.0
C2814 C 0.5666 0.25344 0.86402 0.0
C2815 C 0.56691 0.26227 0.88166 0.0
C2816 C 0.58356 0.25091 0.85343 0.0
C2817 C 0.63605 0.24812 0.85665 0.0
H2818 H 0.63598 0.26424 0.80449 0.0
C2819 C 0.70574 0.26013 0.81344 0.0
C2820 C 0.70617 0.25549 0.79429 0.0
C2821 C 0.68867 0.25889 0.82403 0.0
C2822 C 0.63618 0.25933 0.81892 0.0
H2823 H 0.58523 0.27504 0.90224 0.0
H2824 H 0.61498 0.27055 0.88368 0.0
H2825 H 0.6063 0.26601 0.82334 0.0
H2826 H 0.68917 0.24542 0.77133 0.0
H2827 H 0.65933 0.2429 0.78997 0.0
H2828 H 0.66591 0.24143 0.85228 0.0
C2829 C 0.60158 0.26555 0.87812 0.0
C2830 C 0.61919 0.26042 0.82973 0.0
C2831 C 0.58457 0.26822 0.88868 0.0
C2832 C 0.68925 0.24917 0.78604 0.0
C2833 C 0.67216 0.24783 0.79669 0.0
C2834 C 0.65301 0.24689 0.84581 0.0
C2835 C 0.60119 0.25703 0.86033 0.0
C2836 C 0.61903 0.25503 0.84874 0.0
C2837 C 0.67165 0.25288 0.81576 0.0
C2838 C 0.65333 0.25272 0.82689 0.0
H2839 H 0.55322 0.24866 0.85826 0.0
H2840 H 0.5829 0.24413 0.83985 0.0
H2841 H 0.63623 0.24362 0.87121 0.0
H2842 H 0.71851 0.26513 0.82023 0.0
H2843 H 0.68873 0.2632 0.83859 0.0
C2844 C 0.0285 0.33955 0.12169 0.0
C2845 C 0.01572 0.32634 0.11402 0.0
C2846 C 0.02948 0.35853 0.1148 0.0
C2847 C 0.01639 0.38784 0.07272 0.0
H2848 H 0.02361 0.4315 0.10508 0.0
C2849 C 0.00335 0.46553 0.04694 0.0
C2850 C 0.01678 0.47955 0.05169 0.0
C2851 C 0.00393 0.44719 0.0551 0.0
C2852 C 0.02176 0.41944 0.09582 0.0
H2853 H 0.99341 0.32324 0.09349 0.0
H2854 H 0.9948 0.35591 0.082 0.0
H2855 H 0.02354 0.39902 0.11842 0.0
H2856 H 0.04118 0.48523 0.06912 0.0
H2857 H 0.0421 0.45322 0.08344 0.0
H2858 H 0.01432 0.40817 0.0502 0.0
C2859 C 0.00455 0.35163 0.0929 0.0
C2860 C 0.02176 0.40078 0.10347 0.0
C2861 C 0.00367 0.33279 0.09965 0.0
C2862 C 0.03062 0.4748 0.06509 0.0
C2863 C 0.0311 0.45646 0.07338 0.0
C2864 C 0.01625 0.40642 0.06514 0.0
C2865 C 0.01764 0.36477 0.10012 0.0
C2866 C 0.01882 0.3847 0.09205 0.0
C2867 C 0.01787 0.44234 0.06836 0.0
C2868 C 0.01871 0.42252 0.07658 0.0
H2869 H 0.03801 0.33513 0.13275 0.0
H2870 H 0.03981 0.36817 0.12069 0.0
H2871 H 0.01461 0.37589 0.06332 0.0
H2872 H 0.99245 0.46865 0.03674 0.0
H2873 H 0.99334 0.43679 0.05108 0.0
C2874 C 0.95295 0.76955 0.40473 0.0
C2875 C 0.97182 0.77235 0.39771 0.0
C2876 C 0.93752 0.76919 0.3925 0.0
C2877 C 0.9237 0.7891 0.34775 0.0
H2878 H 0.88481 0.74964 0.34689 0.0
C2879 C 0.86732 0.78877 0.29051 0.0
C2880 C 0.84847 0.78385 0.29591 0.0
C2881 C 0.88238 0.78589 0.30283 0.0
C2882 C 0.89542 0.7609 0.34711 0.0
H2883 H 0.98929 0.77611 0.37221 0.0
H2884 H 0.96246 0.7757 0.35118 0.0
H2885 H 0.91071 0.74725 0.36941 0.0
H2886 H 0.83048 0.77214 0.31838 0.0
H2887 H 0.8566 0.76757 0.34007 0.0
H2888 H 0.90839 0.80312 0.32595 0.0
C2889 C 0.95961 0.77391 0.3661 0.0
C2890 C 0.91023 0.75948 0.35997 0.0
C2891 C 0.97497 0.77408 0.37821 0.0
C2892 C 0.84495 0.77578 0.31376 0.0
C2893 C 0.85994 0.77313 0.32617 0.0
C2894 C 0.90883 0.79066 0.3351 0.0
C2895 C 0.94075 0.77183 0.37314 0.0
C2896 C 0.92457 0.77348 0.36023 0.0
C2897 C 0.87882 0.77832 0.32092 0.0
C2898 C 0.8946 0.77651 0.33448 0.0
H2899 H 0.95003 0.76813 0.41966 0.0
H2900 H 0.92303 0.76759 0.39821 0.0
H2901 H 0.93448 0.80023 0.3479 0.0
H2902 H 0.87039 0.7948 0.27675 0.0
H2903 H 0.89681 0.78966 0.29817 0.0
C2904 C 0.49441 0.33351 0.91188 0.0
C2905 C 0.50801 0.32182 0.92074 0.0
C2906 C 0.49142 0.35244 0.9178 0.0
C2907 C 0.51233 0.39043 0.94757 0.0
H2908 H 0.45893 0.4046 0.9575 0.0
C2909 C 0.49194 0.44395 0.00438 0.0
C2910 C 0.47951 0.4591 0.99959 0.0
C2911 C 0.49432 0.42819 0.99264 0.0
C2912 C 0.47389 0.40093 0.9546 0.0
H2913 H 0.53072 0.32092 0.94089 0.0
H2914 H 0.52538 0.35362 0.95156 0.0
H2915 H 0.46663 0.37638 0.93853 0.0
H2916 H 0.45887 0.46911 0.97937 0.0
H2917 H 0.46283 0.44121 0.95881 0.0
H2918 H 0.51956 0.41473 0.96399 0.0
C2919 C 0.51685 0.34847 0.94019 0.0
C2920 C 0.47834 0.38479 0.94372 0.0
C2921 C 0.51973 0.32962 0.93433 0.0
C2922 C 0.46846 0.45757 0.98344 0.0
C2923 C 0.47081 0.44169 0.97165 0.0
C2924 C 0.50789 0.40646 0.95845 0.0
C2925 C 0.5023 0.35996 0.93236 0.0
C2926 C 0.49761 0.37896 0.94069 0.0
C2927 C 0.48426 0.42722 0.97586 0.0
C2928 C 0.48865 0.41149 0.96258 0.0
H2929 H 0.4856 0.32777 0.90098 0.0
H2930 H 0.48036 0.36102 0.91125 0.0
H2931 H 0.52733 0.3867 0.94501 0.0
H2932 H 0.50035 0.44462 0.01692 0.0
H2933 H 0.5044 0.41696 0.99646 0.0
C2934 C 0.94525 0.28092 0.15034 0.0
C2935 C 0.96253 0.2754 0.15883 0.0
C2936 C 0.92795 0.28176 0.16078 0.0
C2937 C 0.90334 0.26108 0.20186 0.0
H2938 H 0.86873 0.30489 0.19797 0.0
C2939 C 0.82343 0.25982 0.22751 0.0
C2940 C 0.81696 0.27543 0.23847 0.0
C2941 C 0.84155 0.26014 0.21847 0.0
C2942 C 0.87828 0.29259 0.19925 0.0
H2943 H 0.97506 0.26642 0.18504 0.0
H2944 H 0.94467 0.26752 0.2032 0.0
H2945 H 0.89988 0.30516 0.18113 0.0
H2946 H 0.82447 0.3037 0.24835 0.0
H2947 H 0.85593 0.3044 0.23218 0.0
H2948 H 0.88157 0.24835 0.21968 0.0
C2949 C 0.94464 0.27133 0.18845 0.0
C2950 C 0.89605 0.2927 0.18953 0.0
C2951 C 0.96206 0.27082 0.17807 0.0
C2952 C 0.82899 0.29144 0.24002 0.0
C2953 C 0.84699 0.29188 0.23071 0.0
C2954 C 0.88543 0.26083 0.21132 0.0
C2955 C 0.9274 0.27679 0.1799 0.0
C2956 C 0.90878 0.27694 0.19072 0.0
C2957 C 0.85352 0.27619 0.21992 0.0
C2958 C 0.87268 0.27658 0.21011 0.0
H2959 H 0.94507 0.28458 0.13556 0.0
H2960 H 0.91488 0.28588 0.15377 0.0
H2961 H 0.91278 0.24868 0.20294 0.0
H2962 H 0.81456 0.24725 0.22605 0.0
H2963 H 0.84612 0.2479 0.21012 0.0
C2964 C 0.02088 0.71373 0.44408 0.0
C2965 C 0.03359 0.72662 0.43518 0.0
C2966 C 0.02639 0.69468 0.44696 0.0
C2967 C 0.06693 0.66448 0.45619 0.0
H2968 H 0.03213 0.62346 0.44407 0.0
C2969 C 0.0517 0.57833 0.46971 0.0
C2970 C 0.05154 0.57835 0.48942 0.0
C2971 C 0.05528 0.5952 0.45964 0.0
C2972 C 0.04226 0.63464 0.44722 0.0
H2973 H 0.06204 0.72978 0.42235 0.0
H2974 H 0.07187 0.69633 0.42796 0.0
H2975 H 0.0261 0.65578 0.43224 0.0
H2976 H 0.05693 0.59554 0.51396 0.0
H2977 H 0.06304 0.62503 0.49635 0.0
H2978 H 0.08246 0.64349 0.47211 0.0
C2979 C 0.05758 0.70105 0.4324 0.0
C2980 C 0.03869 0.65314 0.44056 0.0
C2981 C 0.05193 0.72008 0.42916 0.0
C2982 C 0.05679 0.59511 0.49878 0.0
C2983 C 0.06043 0.61198 0.48869 0.0
C2984 C 0.07038 0.64596 0.46307 0.0
C2985 C 0.04481 0.68823 0.44128 0.0
C2986 C 0.05065 0.66829 0.44546 0.0
C2987 C 0.05885 0.61236 0.46908 0.0
C2988 C 0.05775 0.63099 0.45906 0.0
H2989 H 0.00665 0.71834 0.4488 0.0
H2990 H 0.01638 0.68506 0.45403 0.0
H2991 H 0.07629 0.67602 0.46018 0.0
H2992 H 0.04795 0.56557 0.46206 0.0
H2993 H 0.05424 0.59507 0.44451 0.0
C2994 C 0.57514 0.78751 0.68652 0.0
C2995 C 0.57438 0.77876 0.66883 0.0
C2996 C 0.59262 0.78898 0.69579 0.0
C2997 C 0.64073 0.76628 0.69848 0.0
H2998 H 0.65432 0.81254 0.72482 0.0
C2999 C 0.7046 0.76801 0.74898 0.0
C3000 C 0.71716 0.78369 0.74731 0.0
C3001 C 0.68705 0.76805 0.73973 0.0
C3002 C 0.65078 0.79954 0.71748 0.0
H3003 H 0.59157 0.76485 0.64698 0.0
H3004 H 0.62202 0.76727 0.66321 0.0
H3005 H 0.62437 0.81162 0.70753 0.0
H3006 H 0.7207 0.81197 0.73491 0.0
H3007 H 0.68993 0.81215 0.71898 0.0
H3008 H 0.66707 0.75416 0.70842 0.0
C3009 C 0.60906 0.77297 0.66994 0.0
C3010 C 0.63353 0.79896 0.70768 0.0
C3011 C 0.59161 0.77169 0.66057 0.0
C3012 C 0.71139 0.79967 0.73658 0.0
C3013 C 0.69372 0.79979 0.72746 0.0
C3014 C 0.65785 0.76678 0.70844 0.0
C3015 C 0.6098 0.78154 0.68773 0.0
C3016 C 0.62828 0.78232 0.69801 0.0
C3017 C 0.68144 0.78384 0.72867 0.0
C3018 C 0.66312 0.78341 0.71809 0.0
H3019 H 0.56217 0.79311 0.69331 0.0
H3020 H 0.59259 0.79552 0.70952 0.0
H3021 H 0.6371 0.75317 0.69136 0.0
H3022 H 0.70851 0.75543 0.75711 0.0
H3023 H 0.67786 0.75564 0.74121 0.0
C3024 C 0.60134 0.50324 0.74241 0.0
C3025 C 0.61799 0.51428 0.74413 0.0
C3026 C 0.59274 0.50142 0.72503 0.0
C3027 C 0.58921 0.52467 0.67884 0.0
H3028 H 0.57333 0.47437 0.66256 0.0
C3029 C 0.56547 0.51077 0.6034 0.0
C3030 C 0.54967 0.49867 0.60114 0.0
C3031 C 0.57377 0.51262 0.6209 0.0
C3032 C 0.57747 0.48855 0.667 0.0
H3033 H 0.63864 0.53219 0.72908 0.0
H3034 H 0.62363 0.529 0.69876 0.0
H3035 H 0.58757 0.4779 0.69322 0.0
H3036 H 0.53002 0.47921 0.6155 0.0
H3037 H 0.54438 0.48253 0.64608 0.0
H3038 H 0.57902 0.53537 0.6527 0.0
C3039 C 0.61715 0.52186 0.71085 0.0
C3040 C 0.58563 0.49056 0.68454 0.0
C3041 C 0.6258 0.52359 0.72819 0.0
C3042 C 0.54237 0.48841 0.61673 0.0
C3043 C 0.5506 0.49032 0.63425 0.0
C3044 C 0.58097 0.52268 0.66133 0.0
C3045 C 0.60058 0.5107 0.70909 0.0
C3046 C 0.59163 0.50863 0.69061 0.0
C3047 C 0.56638 0.50247 0.63654 0.0
C3048 C 0.57506 0.50459 0.65519 0.0
H3049 H 0.59498 0.49591 0.75445 0.0
H3050 H 0.57986 0.49289 0.72411 0.0
H3051 H 0.59347 0.53881 0.68327 0.0
H3052 H 0.57159 0.51863 0.59158 0.0
H3053 H 0.58612 0.52184 0.62213 0.0
C3054 C 0.73722 0.38463 0.96312 0.0
C3055 C 0.74398 0.37861 0.98063 0.0
C3056 C 0.74016 0.37323 0.94731 0.0
C3057 C 0.75336 0.32444 0.93111 0.0
H3058 H 0.7702 0.35191 0.88623 0.0
C3059 C 0.78228 0.28658 0.86377 0.0
C3060 C 0.77518 0.2937 0.84678 0.0
C3061 C 0.77845 0.29632 0.88055 0.0
C3062 C 0.76535 0.34405 0.8986 0.0
H3063 H 0.75841 0.35548 0.99539 0.0
H3064 H 0.76375 0.33565 0.96764 0.0
H3065 H 0.76277 0.36964 0.91481 0.0
H3066 H 0.75884 0.31677 0.83401 0.0
H3067 H 0.75203 0.33365 0.86322 0.0
H3068 H 0.75613 0.29881 0.91476 0.0
C3069 C 0.75602 0.34913 0.96622 0.0
C3070 C 0.76104 0.3542 0.91496 0.0
C3071 C 0.75299 0.36052 0.98212 0.0
C3072 C 0.76432 0.31081 0.84688 0.0
C3073 C 0.76059 0.32058 0.86359 0.0
C3074 C 0.75775 0.31425 0.91469 0.0
C3075 C 0.75003 0.3556 0.94858 0.0
C3076 C 0.75481 0.34455 0.93135 0.0
C3077 C 0.7676 0.31344 0.88059 0.0
C3078 C 0.76362 0.324 0.89824 0.0
H3079 H 0.73001 0.39838 0.9615 0.0
H3080 H 0.73495 0.3784 0.93399 0.0
H3081 H 0.74848 0.31662 0.94348 0.0
H3082 H 0.79054 0.27333 0.86415 0.0
H3083 H 0.78414 0.29057 0.89344 0.0
C3084 C 0.9294 0.54757 0.21195 0.0
C3085 C 0.91173 0.53795 0.21265 0.0
C3086 C 0.93836 0.55191 0.19474 0.0
C3087 C 0.92911 0.55797 0.14445 0.0
H3088 H 0.98336 0.54554 0.13808 0.0
C3089 C 0.96687 0.54718 0.07261 0.0
C3090 C 0.98649 0.55159 0.07058 0.0
C3091 C 0.95725 0.54961 0.08985 0.0
C3092 C 0.96831 0.54952 0.1397 0.0
H3093 H 0.88951 0.5254 0.19594 0.0
H3094 H 0.90527 0.53286 0.16584 0.0
H3095 H 0.96763 0.54126 0.16862 0.0
H3096 H 0.01102 0.56351 0.0845 0.0
H3097 H 0.9941 0.56814 0.11449 0.0
H3098 H 0.92975 0.56594 0.11541 0.0
C3099 C 0.91207 0.53721 0.1786 0.0
C3100 C 0.95929 0.54698 0.1572 0.0
C3101 C 0.90315 0.53279 0.19582 0.0
C3102 C 0.99594 0.55977 0.08571 0.0
C3103 C 0.98629 0.56232 0.10291 0.0
C3104 C 0.93817 0.56061 0.12694 0.0
C3105 C 0.92977 0.5468 0.1779 0.0
C3106 C 0.93954 0.55087 0.15967 0.0
C3107 C 0.96704 0.55662 0.10535 0.0
C3108 C 0.95781 0.5561 0.1243 0.0
H3109 H 0.93632 0.55182 0.22469 0.0
H3110 H 0.95193 0.55943 0.19459 0.0
H3111 H 0.91392 0.56136 0.14607 0.0
H3112 H 0.95917 0.54087 0.0612 0.0
H3113 H 0.94247 0.54494 0.09128 0.0
C3114 C 0.76665 0.68938 0.46112 0.0
C3115 C 0.76824 0.66919 0.46135 0.0
C3116 C 0.76617 0.69965 0.44403 0.0
C3117 C 0.75626 0.69288 0.39312 0.0
H3118 H 0.78128 0.74201 0.38665 0.0
C3119 C 0.74717 0.73875 0.32541 0.0
C3120 C 0.76329 0.7487 0.3182 0.0
C3121 C 0.74755 0.72972 0.34308 0.0
C3122 C 0.7743 0.72824 0.38812 0.0
H3123 H 0.77097 0.6442 0.44339 0.0
H3124 H 0.77042 0.66192 0.41403 0.0
H3125 H 0.78281 0.72515 0.41673 0.0
H3126 H 0.7925 0.7569 0.32423 0.0
H3127 H 0.79323 0.74106 0.35481 0.0
H3128 H 0.7481 0.69569 0.36447 0.0
C3129 C 0.76916 0.6699 0.42699 0.0
C3130 C 0.77498 0.71864 0.40552 0.0
C3131 C 0.76965 0.65969 0.44397 0.0
C3132 C 0.77976 0.74943 0.32927 0.0
C3133 C 0.78014 0.74042 0.34695 0.0
C3134 C 0.75554 0.70247 0.37577 0.0
C3135 C 0.76721 0.69003 0.42667 0.0
C3136 C 0.76608 0.70072 0.40828 0.0
C3137 C 0.76406 0.73034 0.35415 0.0
C3138 C 0.7646 0.72028 0.37291 0.0
H3139 H 0.76546 0.69727 0.47413 0.0
H3140 H 0.76453 0.71511 0.44445 0.0
H3141 H 0.74896 0.67928 0.39464 0.0
H3142 H 0.73419 0.7379 0.31738 0.0
H3143 H 0.73475 0.72239 0.34815 0.0
C3144 C 0.61755 0.49323 0.84967 0.0
C3145 C 0.63617 0.5009 0.84979 0.0
C3146 C 0.60765 0.48922 0.8665 0.0
C3147 C 0.61334 0.48641 0.91846 0.0
H3148 H 0.56059 0.5051 0.91935 0.0
C3149 C 0.57368 0.51655 0.98383 0.0
C3150 C 0.55445 0.5112 0.98703 0.0
C3151 C 0.58363 0.51068 0.96759 0.0
C3152 C 0.5752 0.49952 0.91927 0.0
H3153 H 0.65938 0.5094 0.86769 0.0
H3154 H 0.64195 0.50314 0.89685 0.0
H3155 H 0.57815 0.50251 0.88958 0.0
H3156 H 0.53068 0.49511 0.97602 0.0
H3157 H 0.54801 0.48523 0.94744 0.0
H3158 H 0.61056 0.48463 0.94842 0.0
C3159 C 0.63506 0.49978 0.88385 0.0
C3160 C 0.58527 0.49793 0.90219 0.0
C3161 C 0.64503 0.50355 0.86706 0.0
C3162 C 0.54548 0.49953 0.9739 0.0
C3163 C 0.55535 0.49387 0.95756 0.0
C3164 C 0.60333 0.48826 0.93558 0.0
C3165 C 0.61608 0.49301 0.8838 0.0
C3166 C 0.60462 0.49181 0.90161 0.0
C3167 C 0.57444 0.49955 0.95419 0.0
C3168 C 0.58431 0.49522 0.93613 0.0
H3169 H 0.61043 0.49075 0.83659 0.0
H3170 H 0.5932 0.48361 0.86595 0.0
H3171 H 0.6281 0.48126 0.91849 0.0
H3172 H 0.58099 0.52543 0.99377 0.0
H3173 H 0.5983 0.5154 0.96519 0.0
C3174 C 0.74545 0.39599 0.10375 0.0
C3175 C 0.7419 0.38285 0.0894 0.0
C3176 C 0.74293 0.39064 0.12253 0.0
C3177 C 0.71878 0.35565 0.15355 0.0
H3178 H 0.7622 0.36265 0.1858 0.0
C3179 C 0.73503 0.30567 0.21436 0.0
C3180 C 0.74477 0.31234 0.23001 0.0
C3181 C 0.73063 0.31808 0.1997 0.0
C3182 C 0.7497 0.36103 0.17721 0.0
H3183 H 0.73264 0.35396 0.08338 0.0
H3184 H 0.72821 0.34461 0.11625 0.0
H3185 H 0.7626 0.37716 0.15465 0.0
H3186 H 0.75636 0.33752 0.24321 0.0
H3187 H 0.74855 0.3594 0.21743 0.0
H3188 H 0.70609 0.33909 0.17588 0.0
C3189 C 0.73285 0.35907 0.11293 0.0
C3190 C 0.75 0.36926 0.15932 0.0
C3191 C 0.73556 0.36435 0.09415 0.0
C3192 C 0.74895 0.33197 0.23125 0.0
C3193 C 0.74456 0.34445 0.21648 0.0
C3194 C 0.7184 0.34756 0.17149 0.0
C3195 C 0.73659 0.37215 0.12728 0.0
C3196 C 0.73486 0.36604 0.14711 0.0
C3197 C 0.73584 0.33749 0.20033 0.0
C3198 C 0.7342 0.34953 0.18323 0.0
H3199 H 0.75031 0.41039 0.10049 0.0
H3200 H 0.74588 0.40098 0.13334 0.0
H3201 H 0.70677 0.35328 0.14449 0.0
H3202 H 0.73147 0.29064 0.21305 0.0
H3203 H 0.72415 0.31215 0.1874 0.0
C3204 C 0.90993 0.5466 0.31872 0.0
C3205 C 0.8902 0.54232 0.31884 0.0
C3206 C 0.91991 0.54691 0.3354 0.0
C3207 C 0.91796 0.52414 0.38152 0.0
H3208 H 0.96237 0.55593 0.38986 0.0
C3209 C 0.96852 0.514 0.44444 0.0
C3210 C 0.9883 0.5147 0.43992 0.0
C3211 C 0.95494 0.51886 0.43106 0.0
C3212 C 0.95002 0.54692 0.38767 0.0
H3213 H 0.86517 0.53666 0.33681 0.0
H3214 H 0.88267 0.53736 0.36598 0.0
H3215 H 0.94072 0.56406 0.36455 0.0
H3216 H 0.00933 0.52073 0.41772 0.0
H3217 H 0.98568 0.52886 0.39432 0.0
H3218 H 0.92753 0.50679 0.40443 0.0
C3219 C 0.89043 0.54009 0.35289 0.0
C3220 C 0.93761 0.5516 0.37324 0.0
C3221 C 0.8804 0.53981 0.33617 0.0
C3222 C 0.99422 0.51982 0.4216 0.0
C3223 C 0.98068 0.52478 0.40828 0.0
C3224 C 0.93033 0.51952 0.39602 0.0
C3225 C 0.91041 0.543 0.3526 0.0
C3226 C 0.92174 0.53997 0.3697 0.0
C3227 C 0.96093 0.52464 0.41296 0.0
C3228 C 0.94675 0.53058 0.3989 0.0
H3229 H 0.91793 0.54876 0.30566 0.0
H3230 H 0.93533 0.54906 0.33466 0.0
H3231 H 0.906 0.51473 0.379 0.0
H3232 H 0.96357 0.50998 0.45842 0.0
H3233 H 0.93979 0.5186 0.43502 0.0
C3234 C 0.77844 0.6975 0.57355 0.0
C3235 C 0.7734 0.67812 0.57147 0.0
C3236 C 0.77993 0.70563 0.59145 0.0
C3237 C 0.76456 0.69833 0.64166 0.0
H3238 H 0.80388 0.73583 0.65112 0.0
C3239 C 0.77561 0.72908 0.71649 0.0
C3240 C 0.77987 0.74873 0.71785 0.0
C3241 C 0.77572 0.7199 0.69896 0.0
C3242 C 0.79265 0.72554 0.64875 0.0
H3243 H 0.76615 0.65213 0.58683 0.0
H3244 H 0.76889 0.66617 0.61788 0.0
H3245 H 0.80221 0.72129 0.62024 0.0
H3246 H 0.78782 0.77397 0.70156 0.0
H3247 H 0.78788 0.75815 0.67128 0.0
H3248 H 0.75489 0.70268 0.67012 0.0
C3249 C 0.77147 0.67523 0.6057 0.0
C3250 C 0.79169 0.71716 0.63093 0.0
C3251 C 0.77003 0.6671 0.58782 0.0
C3252 C 0.78458 0.75881 0.70119 0.0
C3253 C 0.78469 0.74965 0.68371 0.0
C3254 C 0.7655 0.70673 0.65948 0.0
C3255 C 0.77637 0.69466 0.60785 0.0
C3256 C 0.77758 0.70345 0.62704 0.0
C3257 C 0.7801 0.73007 0.68223 0.0
C3258 C 0.77951 0.72056 0.66333 0.0
H3259 H 0.78108 0.70648 0.56132 0.0
H3260 H 0.7835 0.72068 0.5924 0.0
H3261 H 0.75329 0.68809 0.63925 0.0
H3262 H 0.77187 0.72082 0.72895 0.0
H3263 H 0.77236 0.70477 0.69854 0.0
C3264 C 0.71532 0.61435 0.52977 0.0
C3265 C 0.71767 0.63083 0.51853 0.0
C3266 C 0.69794 0.60426 0.53007 0.0
C3267 C 0.65607 0.59104 0.53507 0.0
H3268 H 0.63168 0.58296 0.48756 0.0
C3269 C 0.58943 0.54161 0.52949 0.0
C3270 C 0.57513 0.54695 0.5168 0.0
C3271 C 0.60714 0.5512 0.52956 0.0
C3272 C 0.63806 0.58525 0.50104 0.0
H3273 H 0.70328 0.65054 0.49989 0.0
H3274 H 0.67296 0.63277 0.50003 0.0
H3275 H 0.66104 0.60165 0.48857 0.0
H3276 H 0.56844 0.56667 0.49418 0.0
H3277 H 0.59882 0.58355 0.49457 0.0
H3278 H 0.6329 0.57508 0.54768 0.0
C3279 C 0.68466 0.62738 0.50838 0.0
C3280 C 0.65502 0.59598 0.50158 0.0
C3281 C 0.70197 0.63761 0.50833 0.0
C3282 C 0.57913 0.56198 0.50405 0.0
C3283 C 0.59672 0.57166 0.50423 0.0
C3284 C 0.63898 0.58048 0.53458 0.0
C3285 C 0.68246 0.61042 0.5191 0.0
C3286 C 0.66427 0.59906 0.5186 0.0
C3287 C 0.61102 0.56654 0.51705 0.0
C3288 C 0.62963 0.57742 0.51755 0.0
H3289 H 0.72706 0.60912 0.53818 0.0
H3290 H 0.69685 0.59129 0.53846 0.0
H3291 H 0.66266 0.59326 0.54847 0.0
H3292 H 0.58689 0.53012 0.53953 0.0
H3293 H 0.61779 0.54651 0.53945 0.0
C3294 C 0.19029 0.91696 0.53934 0.0
C3295 C 0.20498 0.93 0.53457 0.0
C3296 C 0.17225 0.92361 0.54568 0.0
C3297 C 0.14868 0.96393 0.569 0.0
H3298 H 0.10427 0.95408 0.53887 0.0
C3299 C 0.08935 0.01854 0.55882 0.0
C3300 C 0.07111 0.01288 0.55308 0.0
C3301 C 0.1033 0.00483 0.56307 0.0
C3302 C 0.11628 0.95655 0.54789 0.0
H3303 H 0.21228 0.96018 0.53264 0.0
H3304 H 0.18091 0.97171 0.54399 0.0
H3305 H 0.13409 0.93627 0.53287 0.0
H3306 H 0.05244 0.98849 0.54931 0.0
H3307 H 0.07681 0.96447 0.55709 0.0
H3308 H 0.13118 0.98456 0.58372 0.0
C3309 C 0.18341 0.95638 0.54281 0.0
C3310 C 0.13339 0.94641 0.54433 0.0
C3311 C 0.20126 0.94978 0.53612 0.0
C3312 C 0.06647 0.99328 0.55348 0.0
C3313 C 0.08045 0.97952 0.55783 0.0
C3314 C 0.13151 0.97385 0.57278 0.0
C3315 C 0.16883 0.94336 0.54774 0.0
C3316 C 0.14991 0.95072 0.55426 0.0
C3317 C 0.09929 0.98514 0.5618 0.0
C3318 C 0.11542 0.97102 0.56159 0.0
H3319 H 0.19275 0.90162 0.53826 0.0
H3320 H 0.1611 0.91337 0.54927 0.0
H3321 H 0.16126 0.96723 0.577 0.0
H3322 H 0.09332 0.03354 0.55883 0.0
H3323 H 0.11765 0.00976 0.56591 0.0
C3324 C 0.41005 0.96588 0.78289 0.0
C3325 C 0.39954 0.97385 0.7682 0.0
C3326 C 0.40856 0.94636 0.78714 0.0
C3327 C 0.38737 0.91186 0.80249 0.0
H3328 H 0.37154 0.87495 0.76571 0.0
C3329 C 0.32104 0.86591 0.81114 0.0
C3330 C 0.31992 0.84833 0.80173 0.0
C3331 C 0.33796 0.87653 0.81024 0.0
C3332 C 0.3763 0.88481 0.77627 0.0
H3333 H 0.38157 0.96778 0.74474 0.0
H3334 H 0.37822 0.93388 0.7524 0.0
H3335 H 0.39048 0.9024 0.75566 0.0
H3336 H 0.33646 0.82744 0.78526 0.0
H3337 H 0.36587 0.84578 0.78404 0.0
H3338 H 0.37229 0.89472 0.82296 0.0
C3339 C 0.3876 0.94242 0.76082 0.0
C3340 C 0.38699 0.90068 0.77045 0.0
C3341 C 0.3891 0.96191 0.75663 0.0
C3342 C 0.33664 0.84087 0.79274 0.0
C3343 C 0.35355 0.85145 0.79189 0.0
C3344 C 0.37662 0.89601 0.80831 0.0
C3345 C 0.39674 0.93453 0.77655 0.0
C3346 C 0.39145 0.91506 0.7833 0.0
C3347 C 0.35413 0.86972 0.79996 0.0
C3348 C 0.37002 0.88297 0.79508 0.0
H3349 H 0.41876 0.9749 0.79154 0.0
H3350 H 0.4161 0.94068 0.7991 0.0
H3351 H 0.39075 0.92251 0.81285 0.0
H3352 H 0.30857 0.87189 0.81848 0.0
H3353 H 0.33788 0.89066 0.81648 0.0
C3354 C 0.32586 0.11479 1.00029 0.0
C3355 C 0.31717 0.12721 0.01358 0.0
C3356 C 0.34488 0.10846 0.00212 0.0
C3357 C 0.38191 0.09922 0.03699 0.0
H3358 H 0.41605 0.09587 0.99329 0.0
C3359 C 0.46034 0.06885 0.04122 0.0
C3360 C 0.46728 0.05782 0.02599 0.0
C3361 C 0.44272 0.07886 0.04025 0.0
C3362 C 0.40668 0.09644 0.00564 0.0
H3363 H 0.32195 0.14279 0.03921 0.0
H3364 H 0.35529 0.13149 0.04253 0.0
H3365 H 0.3844 0.11075 0.99053 0.0
H3366 H 0.46087 0.04856 0.99787 0.0
H3367 H 0.43024 0.06542 0.99637 0.0
H3368 H 0.40394 0.08437 0.052 0.0
C3369 C 0.34725 0.12675 0.03064 0.0
C3370 C 0.38852 0.1051 0.00405 0.0
C3371 C 0.32821 0.13335 0.02865 0.0
C3372 C 0.45611 0.05699 0.00985 0.0
C3373 C 0.43851 0.06685 0.00893 0.0
C3374 C 0.40006 0.09036 0.03856 0.0
C3375 C 0.35579 0.11414 0.01742 0.0
C3376 C 0.37577 0.10638 0.01962 0.0
C3377 C 0.43153 0.07804 0.02405 0.0
C3378 C 0.41263 0.08857 0.02282 0.0
H3379 H 0.31785 0.10974 0.98849 0.0
H3380 H 0.35089 0.09863 0.99178 0.0
H3381 H 0.37239 0.0998 0.04924 0.0
H3382 H 0.46858 0.06988 0.05384 0.0
H3383 H 0.43801 0.08746 0.05213 0.0
C3384 C 0.64794 0.57987 0.81702 0.0
C3385 C 0.65711 0.56786 0.8038 0.0
C3386 C 0.65433 0.59867 0.81936 0.0
C3387 C 0.69785 0.62733 0.81036 0.0
H3388 H 0.66497 0.6714 0.8211 0.0
C3389 C 0.73286 0.69681 0.82532 0.0
C3390 C 0.72948 0.70987 0.8107 0.0
C3391 C 0.71998 0.68203 0.82911 0.0
C3392 C 0.67423 0.65908 0.81837 0.0
H3393 H 0.67846 0.56628 0.78127 0.0
H3394 H 0.68934 0.59909 0.78488 0.0
H3395 H 0.65053 0.6397 0.81652 0.0
H3396 H 0.70896 0.71927 0.79012 0.0
H3397 H 0.68644 0.69314 0.79659 0.0
H3398 H 0.72147 0.64641 0.81196 0.0
C3399 C 0.67791 0.59393 0.79414 0.0
C3400 C 0.66604 0.64101 0.81576 0.0
C3401 C 0.67173 0.57515 0.79204 0.0
C3402 C 0.71188 0.70934 0.80146 0.0
C3403 C 0.69897 0.69445 0.8052 0.0
C3404 C 0.70597 0.6451 0.81337 0.0
C3405 C 0.66965 0.60576 0.80814 0.0
C3406 C 0.67783 0.62497 0.81154 0.0
C3407 C 0.70357 0.68005 0.81824 0.0
C3408 C 0.6943 0.66116 0.81728 0.0
H3409 H 0.63631 0.5745 0.82593 0.0
H3410 H 0.6477 0.6074 0.83028 0.0
H3411 H 0.70737 0.61548 0.8069 0.0
H3412 H 0.74619 0.6972 0.83285 0.0
H3413 H 0.72369 0.67116 0.83938 0.0
C3414 C 0.80482 0.42187 0.01406 0.0
C3415 C 0.7894 0.42869 0.0252 0.0
C3416 C 0.82112 0.4331 0.01116 0.0
C3417 C 0.84859 0.46474 0.99926 0.0
H3418 H 0.87288 0.48631 0.04261 0.0
C3419 C 0.91678 0.51098 0.99279 0.0
C3420 C 0.93154 0.50594 0.00506 0.0
C3421 C 0.89837 0.50345 0.99537 0.0
C3422 C 0.86623 0.48038 0.03039 0.0
H3423 H 0.77916 0.4516 0.04333 0.0
H3424 H 0.80779 0.47143 0.03828 0.0
H3425 H 0.84249 0.4693 0.04664 0.0
H3426 H 0.93847 0.48902 0.02969 0.0
H3427 H 0.90633 0.47601 0.03423 0.0
H3428 H 0.87259 0.47533 0.98307 0.0
C3429 C 0.80713 0.45763 0.03144 0.0
C3430 C 0.84878 0.47082 0.03267 0.0
C3431 C 0.79074 0.44645 0.03416 0.0
C3432 C 0.92739 0.49344 0.02014 0.0
C3433 C 0.90897 0.48598 0.02276 0.0
C3434 C 0.86598 0.47439 0.99696 0.0
C3435 C 0.82241 0.4511 0.01981 0.0
C3436 C 0.83999 0.46263 0.01716 0.0
C3437 C 0.89433 0.4908 0.01032 0.0
C3438 C 0.87513 0.48201 0.01255 0.0
H3439 H 0.80416 0.40792 0.00748 0.0
H3440 H 0.83287 0.42755 0.00246 0.0
H3441 H 0.84198 0.45871 0.98706 0.0
H3442 H 0.91938 0.52084 0.98124 0.0
H3443 H 0.88727 0.50758 0.9857 0.0
C3444 C 0.36547 0.08098 0.74091 0.0
C3445 C 0.35505 0.0658 0.74924 0.0
C3446 C 0.35644 0.09838 0.73691 0.0
C3447 C 0.31033 0.12296 0.7305 0.0
H3448 H 0.33597 0.16594 0.75305 0.0
C3449 C 0.27308 0.19588 0.74472 0.0
C3450 C 0.28437 0.21248 0.74453 0.0
C3451 C 0.28161 0.17791 0.74176 0.0
C3452 C 0.3288 0.15424 0.74626 0.0
H3453 H 0.32666 0.05666 0.75879 0.0
H3454 H 0.31084 0.08732 0.75177 0.0
H3455 H 0.35074 0.13428 0.75405 0.0
H3456 H 0.31312 0.22358 0.73977 0.0
H3457 H 0.32794 0.1923 0.73389 0.0
H3458 H 0.28835 0.14299 0.72268 0.0
C3459 C 0.32604 0.08558 0.74841 0.0
C3460 C 0.33724 0.13607 0.74694 0.0
C3461 C 0.33513 0.06811 0.75252 0.0
C3462 C 0.30413 0.21096 0.74026 0.0
C3463 C 0.31261 0.19303 0.737 0.0
C3464 C 0.30195 0.14126 0.7296 0.0
C3465 C 0.33677 0.10099 0.74104 0.0
C3466 C 0.32801 0.12026 0.73924 0.0
C3467 C 0.30156 0.17624 0.73829 0.0
C3468 C 0.31101 0.15707 0.73766 0.0
H3469 H 0.38079 0.07968 0.73792 0.0
H3470 H 0.36494 0.10999 0.731 0.0
H3471 H 0.30304 0.11095 0.72436 0.0
H3472 H 0.25779 0.19665 0.74802 0.0
H3473 H 0.27269 0.1653 0.74308 0.0
C3474 C 0.21682 0.97255 0.2862 0.0
C3475 C 0.19985 0.97856 0.27751 0.0
C3476 C 0.22626 0.95568 0.28054 0.0
C3477 C 0.21592 0.91002 0.25733 0.0
H3478 H 0.27119 0.90238 0.25933 0.0
C3479 C 0.2495 0.83659 0.24171 0.0
C3480 C 0.26148 0.82963 0.25585 0.0
C3481 C 0.2446 0.85603 0.24082 0.0
C3482 C 0.25574 0.90436 0.25868 0.0
H3483 H 0.18015 0.97226 0.25529 0.0
H3484 H 0.19686 0.94318 0.24513 0.0
H3485 H 0.2574 0.93445 0.26431 0.0
H3486 H 0.27883 0.83781 0.27933 0.0
H3487 H 0.27015 0.87176 0.27782 0.0
H3488 H 0.21417 0.87998 0.25204 0.0
C3489 C 0.20256 0.95113 0.2567 0.0
C3490 C 0.24784 0.92267 0.26159 0.0
C3491 C 0.19301 0.96784 0.2625 0.0
C3492 C 0.2695 0.84272 0.2683 0.0
C3493 C 0.26462 0.86219 0.26738 0.0
C3494 C 0.22381 0.89181 0.2543 0.0
C3495 C 0.21904 0.94459 0.26593 0.0
C3496 C 0.22779 0.92564 0.26124 0.0
C3497 C 0.25161 0.86891 0.25403 0.0
C3498 C 0.24376 0.88872 0.25521 0.0
H3499 H 0.22245 0.98051 0.29781 0.0
H3500 H 0.23878 0.95097 0.2881 0.0
H3501 H 0.20041 0.91165 0.25734 0.0
H3502 H 0.24322 0.8269 0.2318 0.0
H3503 H 0.23477 0.8609 0.2302 0.0
C3504 C 0.51747 0.33659 0.42701 0.0
C3505 C 0.51437 0.33689 0.40757 0.0
C3506 C 0.51986 0.3537 0.43694 0.0
C3507 C 0.51017 0.40629 0.43426 0.0
H3508 H 0.54794 0.40914 0.47317 0.0
C3509 C 0.52664 0.47834 0.47028 0.0
C3510 C 0.52955 0.47807 0.48973 0.0
C3511 C 0.52586 0.46121 0.46012 0.0
C3512 C 0.53716 0.40858 0.4625 0.0
H3513 H 0.51136 0.35577 0.38346 0.0
H3514 H 0.5156 0.38542 0.4007 0.0
H3515 H 0.54415 0.37926 0.45605 0.0
H3516 H 0.53428 0.45936 0.51362 0.0
H3517 H 0.53275 0.42955 0.496 0.0
H3518 H 0.503 0.43548 0.44079 0.0
C3519 C 0.51602 0.37194 0.40833 0.0
C3520 C 0.53499 0.39139 0.45265 0.0
C3521 C 0.51371 0.35485 0.3984 0.0
C3522 C 0.53216 0.46018 0.49864 0.0
C3523 C 0.53132 0.44302 0.48848 0.0
C3524 C 0.51229 0.42344 0.44414 0.0
C3525 C 0.51913 0.37165 0.42776 0.0
C3526 C 0.52147 0.38998 0.43836 0.0
C3527 C 0.52788 0.44325 0.4691 0.0
C3528 C 0.52584 0.4249 0.45841 0.0
H3529 H 0.51806 0.3231 0.43462 0.0
H3530 H 0.522 0.35286 0.45191 0.0
H3531 H 0.49937 0.40572 0.42361 0.0
H3532 H 0.52457 0.49182 0.4629 0.0
H3533 H 0.52356 0.46208 0.44518 0.0
C3534 C 0.43426 0.76227 0.13594 0.0
C3535 C 0.45062 0.76828 0.14543 0.0
C3536 C 0.41687 0.75925 0.14577 0.0
C3537 C 0.39651 0.75076 0.19335 0.0
H3538 H 0.35072 0.77577 0.17456 0.0
C3539 C 0.33103 0.76868 0.24081 0.0
C3540 C 0.31258 0.7666 0.23357 0.0
C3541 C 0.34734 0.76629 0.22924 0.0
C3542 C 0.36328 0.76841 0.17985 0.0
H3543 H 0.46162 0.7753 0.17277 0.0
H3544 H 0.43143 0.77011 0.18973 0.0
H3545 H 0.38032 0.77565 0.15544 0.0
H3546 H 0.29673 0.76007 0.20859 0.0
H3547 H 0.32528 0.75581 0.18842 0.0
H3548 H 0.37962 0.74386 0.21791 0.0
C3549 C 0.43204 0.76763 0.17475 0.0
C3550 C 0.38022 0.76833 0.16889 0.0
C3551 C 0.44931 0.77078 0.16496 0.0
C3552 C 0.31077 0.76189 0.21456 0.0
C3553 C 0.3271 0.7595 0.20299 0.0
C3554 C 0.37958 0.7508 0.20428 0.0
C3555 C 0.41561 0.76198 0.16526 0.0
C3556 C 0.3971 0.7599 0.17574 0.0
C3557 C 0.34555 0.76174 0.21019 0.0
C3558 C 0.36292 0.76001 0.19783 0.0
H3559 H 0.43479 0.76017 0.1209 0.0
H3560 H 0.40442 0.7548 0.13814 0.0
H3561 H 0.40925 0.74388 0.19883 0.0
H3562 H 0.33289 0.7723 0.2554 0.0
H3563 H 0.36137 0.76841 0.23513 0.0
C3564 C 0.9962 0.72742 0.94525 0.0
C3565 C 0.00755 0.73306 0.92955 0.0
C3566 C 0.99766 0.7089 0.95277 0.0
C3567 C 0.02977 0.66615 0.95523 0.0
H3568 H 0.98323 0.64159 0.97393 0.0
C3569 C 0.03081 0.59723 0.00216 0.0
C3570 C 0.01641 0.58353 0.9995 0.0
C3571 C 0.0303 0.61501 0.99275 0.0
C3572 C 0.9964 0.64809 0.96865 0.0
H3573 H 0.02945 0.72325 0.90954 0.0
H3574 H 0.03189 0.69072 0.92266 0.0
H3575 H 0.98117 0.67274 0.95854 0.0
H3576 H 0.99036 0.57777 0.98448 0.0
H3577 H 0.98957 0.60847 0.96806 0.0
H3578 H 0.04495 0.64127 0.9652 0.0
C3579 C 0.02193 0.70084 0.92919 0.0
C3580 C 0.99523 0.66614 0.95998 0.0
C3581 C 0.02043 0.71947 0.92158 0.0
C3582 C 0.00163 0.58799 0.98703 0.0
C3583 C 0.00112 0.6057 0.97765 0.0
C3584 C 0.03095 0.64805 0.96396 0.0
C3585 C 0.01052 0.69529 0.9449 0.0
C3586 C 0.01189 0.67554 0.95326 0.0
C3587 C 0.01535 0.61956 0.98044 0.0
C3588 C 0.01427 0.63877 0.97087 0.0
H3589 H 0.98618 0.73739 0.95194 0.0
H3590 H 0.98888 0.70537 0.96505 0.0
H3591 H 0.04293 0.67297 0.95037 0.0
H3592 H 0.04244 0.5943 0.01163 0.0
H3593 H 0.04141 0.62534 0.99544 0.0
C3594 C 0.04397 0.31802 0.68673 0.0
C3595 C 0.04424 0.32222 0.66744 0.0
C3596 C 0.06119 0.3156 0.69615 0.0
C3597 C 0.11002 0.29936 0.68349 0.0
H3598 H 0.11784 0.30281 0.73698 0.0
C3599 C 0.17891 0.27179 0.71799 0.0
C3600 C 0.17646 0.26062 0.73432 0.0
C3601 C 0.16335 0.28155 0.71036 0.0
C3602 C 0.11575 0.3017 0.72203 0.0
H3603 H 0.06243 0.33002 0.64353 0.0
H3604 H 0.09247 0.32672 0.66017 0.0
H3605 H 0.09035 0.31936 0.72318 0.0
H3606 H 0.15587 0.25073 0.75543 0.0
H3607 H 0.12838 0.26782 0.74194 0.0
H3608 H 0.13529 0.28163 0.68235 0.0
C3609 C 0.07905 0.32437 0.66784 0.0
C3610 C 0.10008 0.31122 0.71411 0.0
C3611 C 0.06183 0.32647 0.65834 0.0
C3612 C 0.15805 0.25912 0.74274 0.0
C3613 C 0.14245 0.26908 0.73518 0.0
C3614 C 0.12572 0.29004 0.69136 0.0
C3615 C 0.07896 0.31764 0.68648 0.0
C3616 C 0.09688 0.30994 0.69476 0.0
C3617 C 0.14501 0.28045 0.71896 0.0
C3618 C 0.1286 0.2909 0.71072 0.0
H3619 H 0.0306 0.31472 0.69414 0.0
H3620 H 0.06052 0.31047 0.7105 0.0
H3621 H 0.1078 0.29757 0.66864 0.0
H3622 H 0.19294 0.27305 0.71117 0.0
H3623 H 0.16574 0.29025 0.69788 0.0
C3624 C 0.52336 0.72356 0.13524 0.0
C3625 C 0.52748 0.73996 0.1245 0.0
C3626 C 0.53183 0.70599 0.13048 0.0
C3627 C 0.57083 0.68286 0.10184 0.0
H3628 H 0.5346 0.64096 0.10104 0.0
C3629 C 0.58147 0.61249 0.05952 0.0
C3630 C 0.57288 0.59596 0.06707 0.0
C3631 C 0.57977 0.62991 0.0691 0.0
C3632 C 0.54506 0.65237 0.10152 0.0
H3633 H 0.54527 0.75173 0.10199 0.0
H3634 H 0.55973 0.72082 0.09313 0.0
H3635 H 0.5242 0.67182 0.1131 0.0
H3636 H 0.55757 0.58384 0.09101 0.0
H3637 H 0.5552 0.61399 0.10815 0.0
H3638 H 0.59158 0.66323 0.08978 0.0
C3639 C 0.54983 0.72139 0.10509 0.0
C3640 C 0.53906 0.67011 0.10841 0.0
C3641 C 0.54132 0.73897 0.10989 0.0
C3642 C 0.56412 0.59657 0.08496 0.0
C3643 C 0.56267 0.61381 0.09464 0.0
C3644 C 0.57688 0.66499 0.09493 0.0
C3645 C 0.54478 0.70462 0.11505 0.0
C3646 C 0.55181 0.68559 0.10859 0.0
C3647 C 0.56961 0.63084 0.0864 0.0
C3648 C 0.56401 0.64958 0.09468 0.0
H3649 H 0.5132 0.72426 0.14699 0.0
H3650 H 0.52804 0.69341 0.13873 0.0
H3651 H 0.58102 0.69452 0.10193 0.0
H3652 H 0.58818 0.6122 0.04565 0.0
H3653 H 0.58521 0.64282 0.06237 0.0
C3654 C 0.08591 0.78635 0.88624 0.0
C3655 C 0.07052 0.77754 0.87731 0.0
C3656 C 0.10435 0.78651 0.87782 0.0
C3657 C 0.13561 0.76212 0.84262 0.0
H3658 H 0.16211 0.81076 0.83902 0.0
C3659 C 0.20288 0.77141 0.79446 0.0
C3660 C 0.21759 0.78371 0.8 0.0
C3661 C 0.1854 0.77055 0.80458 0.0
C3662 C 0.15513 0.79696 0.84014 0.0
H3663 H 0.06262 0.76149 0.85279 0.0
H3664 H 0.09486 0.76144 0.8383 0.0
H3665 H 0.13121 0.80886 0.85589 0.0
H3666 H 0.22541 0.80471 0.82067 0.0
H3667 H 0.19512 0.80283 0.83869 0.0
H3668 H 0.15953 0.75006 0.8272 0.0
C3669 C 0.09264 0.7683 0.85177 0.0
C3670 C 0.13735 0.79591 0.84979 0.0
C3671 C 0.07415 0.76837 0.86006 0.0
C3672 C 0.21435 0.79515 0.81595 0.0
C3673 C 0.1969 0.79413 0.82623 0.0
C3674 C 0.15349 0.7631 0.83317 0.0
C3675 C 0.1079 0.77762 0.86041 0.0
C3676 C 0.12728 0.77851 0.85098 0.0
C3677 C 0.18215 0.78178 0.82072 0.0
C3678 C 0.16344 0.7806 0.83157 0.0
H3679 H 0.0836 0.7936 0.8995 0.0
H3680 H 0.11584 0.79365 0.88491 0.0
H3681 H 0.12834 0.74844 0.8435 0.0
H3682 H 0.2048 0.76248 0.78217 0.0
H3683 H 0.17435 0.76118 0.79956 0.0
C3684 C 0.96527 0.35215 0.59433 0.0
C3685 C 0.9765 0.34891 0.61019 0.0
C3686 C 0.96208 0.37075 0.58771 0.0
C3687 C 0.96782 0.4225 0.59831 0.0
H3688 H 0.98171 0.42569 0.54541 0.0
C3689 C 0.0013 0.48927 0.56337 0.0
C3690 C 0.99793 0.4929 0.54434 0.0
C3691 C 0.99334 0.4732 0.57227 0.0
C3692 C 0.97732 0.42515 0.56008 0.0
H3693 H 0.99198 0.36282 0.63232 0.0
H3694 H 0.98674 0.39524 0.62051 0.0
H3695 H 0.97668 0.39457 0.55987 0.0
H3696 H 0.98246 0.48349 0.52008 0.0
H3697 H 0.96825 0.45567 0.53573 0.0
H3698 H 0.96918 0.4532 0.59854 0.0
C3699 C 0.98023 0.3834 0.61332 0.0
C3700 C 0.97444 0.40725 0.56839 0.0
C3701 C 0.98336 0.36478 0.62 0.0
C3702 C 0.98557 0.48085 0.53468 0.0
C3703 C 0.97745 0.46491 0.54364 0.0
C3704 C 0.97065 0.44049 0.58995 0.0
C3705 C 0.97012 0.38651 0.59675 0.0
C3706 C 0.97012 0.40568 0.58768 0.0
C3707 C 0.98173 0.46057 0.56236 0.0
C3708 C 0.97591 0.44196 0.57083 0.0
H3709 H 0.95949 0.34028 0.5866 0.0
H3710 H 0.95394 0.37276 0.57509 0.0
H3711 H 0.9643 0.42171 0.61318 0.0
H3712 H 0.01074 0.49837 0.57118 0.0
H3713 H 0.99711 0.47017 0.58664 0.0
C3714 C 0.4602 0.26464 0.35906 0.0
C3715 C 0.4613 0.27699 0.37445 0.0
C3716 C 0.44318 0.2632 0.34913 0.0
C3717 C 0.40291 0.25615 0.33499 0.0
H3718 H 0.37429 0.3031 0.32553 0.0
C3719 C 0.32855 0.25676 0.29954 0.0
C3720 C 0.32425 0.27196 0.28719 0.0
C3721 C 0.34546 0.25678 0.30985 0.0
C3722 C 0.38217 0.28986 0.32789 0.0
H3723 H 0.44511 0.29637 0.39252 0.0
H3724 H 0.41519 0.29406 0.37509 0.0
H3725 H 0.40275 0.30394 0.34482 0.0
H3726 H 0.3348 0.2989 0.27573 0.0
H3727 H 0.36435 0.29881 0.29351 0.0
H3728 H 0.38255 0.24212 0.31782 0.0
C3729 C 0.42764 0.28578 0.37039 0.0
C3730 C 0.39838 0.2903 0.33921 0.0
C3731 C 0.4447 0.28705 0.38045 0.0
C3732 C 0.33761 0.28692 0.28506 0.0
C3733 C 0.35449 0.28697 0.29543 0.0
C3734 C 0.38667 0.2557 0.32375 0.0
C3735 C 0.42674 0.27404 0.3544 0.0
C3736 C 0.40902 0.27346 0.34289 0.0
C3737 C 0.35855 0.27203 0.30818 0.0
C3738 C 0.37606 0.27255 0.31999 0.0
H3739 H 0.47271 0.25636 0.35444 0.0
H3740 H 0.44315 0.2541 0.33689 0.0
H3741 H 0.41061 0.24285 0.3376 0.0
H3742 H 0.31858 0.24504 0.30164 0.0
H3743 H 0.34794 0.2451 0.31962 0.0
C3744 C 0.42163 0.54019 0.30811 0.0
C3745 C 0.40297 0.53257 0.30881 0.0
C3746 C 0.43173 0.54279 0.32451 0.0
C3747 C 0.44526 0.55738 0.36161 0.0
H3748 H 0.44341 0.51862 0.40085 0.0
C3749 C 0.47909 0.56856 0.43372 0.0
C3750 C 0.48858 0.55271 0.44163 0.0
C3751 C 0.46838 0.56641 0.41759 0.0
C3752 C 0.44419 0.52951 0.38996 0.0
H3753 H 0.38032 0.52165 0.32737 0.0
H3754 H 0.39787 0.52649 0.35605 0.0
H3755 H 0.42538 0.51398 0.37244 0.0
H3756 H 0.49492 0.52235 0.43857 0.0
H3757 H 0.47647 0.5186 0.4103 0.0
H3758 H 0.46456 0.57261 0.37886 0.0
C3759 C 0.40477 0.5302 0.34275 0.0
C3760 C 0.43366 0.52697 0.37379 0.0
C3761 C 0.39468 0.5275 0.32631 0.0
C3762 C 0.48745 0.53474 0.43295 0.0
C3763 C 0.47685 0.53259 0.41679 0.0
C3764 C 0.45586 0.55988 0.37774 0.0
C3765 C 0.42339 0.53792 0.34202 0.0
C3766 C 0.43416 0.54083 0.35941 0.0
C3767 C 0.46706 0.54836 0.40902 0.0
C3768 C 0.45551 0.54593 0.39205 0.0
H3769 H 0.42854 0.54412 0.29487 0.0
H3770 H 0.44619 0.54843 0.32345 0.0
H3771 H 0.44574 0.56845 0.35088 0.0
H3772 H 0.47955 0.58252 0.44026 0.0
H3773 H 0.46081 0.57878 0.41206 0.0
C3774 C 0.29755 0.6682 0.0691 0.0
C3775 C 0.29903 0.67838 0.05207 0.0
C3776 C 0.29318 0.67783 0.08578 0.0
C3777 C 0.26603 0.71958 0.10149 0.0
H3778 H 0.2875 0.70791 0.14991 0.0
C3779 C 0.24032 0.75723 0.16989 0.0
C3780 C 0.24011 0.7462 0.18644 0.0
C3781 C 0.24789 0.74957 0.15319 0.0
C3782 C 0.28118 0.71114 0.13652 0.0
H3783 H 0.29844 0.70672 0.03929 0.0
H3784 H 0.2907 0.72353 0.06851 0.0
H3785 H 0.30229 0.69411 0.12164 0.0
H3786 H 0.24643 0.71828 0.19835 0.0
H3787 H 0.25904 0.7046 0.16909 0.0
H3788 H 0.24454 0.73609 0.11631 0.0
C3789 C 0.29279 0.7081 0.06888 0.0
C3790 C 0.28976 0.70335 0.12035 0.0
C3791 C 0.29737 0.69849 0.05221 0.0
C3792 C 0.24662 0.72709 0.18578 0.0
C3793 C 0.25401 0.71936 0.16908 0.0
C3794 C 0.25733 0.72724 0.11767 0.0
C3795 C 0.29006 0.69778 0.0857 0.0
C3796 C 0.28217 0.70738 0.1027 0.0
C3797 C 0.25523 0.73067 0.1527 0.0
C3798 C 0.26468 0.72294 0.1354 0.0
H3799 H 0.29881 0.65269 0.06941 0.0
H3800 H 0.2911 0.66951 0.09855 0.0
H3801 H 0.25969 0.72266 0.08807 0.0
H3802 H 0.23565 0.7721 0.1701 0.0
H3803 H 0.24874 0.75873 0.14088 0.0
C3804 C 0.11129 0.49339 0.84656 0.0
C3805 C 0.13004 0.50067 0.8473 0.0
C3806 C 0.10096 0.48909 0.86305 0.0
C3807 C 0.10532 0.48319 0.91462 0.0
H3808 H 0.05392 0.50536 0.91572 0.0
C3809 C 0.06655 0.5109 0.98131 0.0
C3810 C 0.04647 0.50914 0.98286 0.0
C3811 C 0.07647 0.50457 0.96522 0.0
C3812 C 0.06807 0.4987 0.91559 0.0
H3813 H 0.15294 0.5084 0.8659 0.0
H3814 H 0.13474 0.50143 0.89459 0.0
H3815 H 0.07191 0.5036 0.88621 0.0
H3816 H 0.02114 0.49829 0.96938 0.0
H3817 H 0.0385 0.48719 0.94136 0.0
H3818 H 0.10167 0.47917 0.9443 0.0
C3819 C 0.12813 0.49868 0.8813 0.0
C3820 C 0.0784 0.49766 0.89865 0.0
C3821 C 0.13851 0.50285 0.86483 0.0
C3822 C 0.03661 0.50007 0.96848 0.0
C3823 C 0.04652 0.49372 0.95244 0.0
C3824 C 0.09499 0.48429 0.93163 0.0
C3825 C 0.10912 0.49212 0.88059 0.0
C3826 C 0.09731 0.49036 0.89805 0.0
C3827 C 0.06646 0.49635 0.95045 0.0
C3828 C 0.07645 0.49249 0.93231 0.0
H3829 H 0.10446 0.49126 0.83326 0.0
H3830 H 0.08643 0.48378 0.86207 0.0
H3831 H 0.11977 0.47721 0.91452 0.0
H3832 H 0.07454 0.51776 0.99221 0.0
H3833 H 0.09182 0.50697 0.96398 0.0
C3834 C 0.25968 0.35119 0.56898 0.0
C3835 C 0.26939 0.36876 0.56731 0.0
C3836 C 0.25853 0.3413 0.58623 0.0
C3837 C 0.2671 0.34738 0.63807 0.0
H3838 H 0.26463 0.29181 0.63844 0.0
C3839 C 0.27902 0.30132 0.70531 0.0
C3840 C 0.26561 0.28674 0.70931 0.0
C3841 C 0.2791 0.31113 0.68803 0.0
C3842 C 0.26519 0.30734 0.6386 0.0
H3843 H 0.28569 0.38955 0.58261 0.0
H3844 H 0.28444 0.37214 0.61226 0.0
H3845 H 0.26564 0.30914 0.60863 0.0
H3846 H 0.2419 0.27096 0.69793 0.0
H3847 H 0.24243 0.28771 0.66759 0.0
H3848 H 0.26735 0.34536 0.66812 0.0
C3849 C 0.27705 0.36613 0.60053 0.0
C3850 C 0.26565 0.31739 0.62142 0.0
C3851 C 0.27791 0.37616 0.58337 0.0
C3852 C 0.25248 0.28204 0.69537 0.0
C3853 C 0.25281 0.29163 0.67793 0.0
C3854 C 0.26698 0.3373 0.6552 0.0
C3855 C 0.26734 0.34848 0.60234 0.0
C3856 C 0.26661 0.33763 0.62079 0.0
C3857 C 0.266 0.30645 0.67409 0.0
C3858 C 0.26601 0.31714 0.65574 0.0
H3859 H 0.25287 0.34508 0.55693 0.0
H3860 H 0.25055 0.32804 0.58687 0.0
H3861 H 0.26735 0.36289 0.63849 0.0
H3862 H 0.28929 0.30543 0.71569 0.0
H3863 H 0.28956 0.32235 0.68553 0.0
C3864 C 0.3976 0.56197 0.18904 0.0
C3865 C 0.40523 0.56699 0.20634 0.0
C3866 C 0.40716 0.56695 0.17233 0.0
C3867 C 0.42914 0.57989 0.13762 0.0
H3868 H 0.48295 0.56587 0.14229 0.0
C3869 C 0.5012 0.56121 0.08874 0.0
C3870 C 0.49303 0.54796 0.07654 0.0
C3871 C 0.49028 0.56903 0.10354 0.0
C3872 C 0.46807 0.57022 0.14072 0.0
H3873 H 0.42756 0.58309 0.21973 0.0
H3874 H 0.44412 0.59211 0.19047 0.0
H3875 H 0.46337 0.57178 0.1703 0.0
H3876 H 0.46692 0.53283 0.07005 0.0
H3877 H 0.44793 0.54629 0.09608 0.0
H3878 H 0.43376 0.57713 0.10795 0.0
C3879 C 0.43103 0.58387 0.18984 0.0
C3880 C 0.45682 0.57372 0.1568 0.0
C3881 C 0.4215 0.57877 0.20659 0.0
C3882 C 0.47364 0.54291 0.07927 0.0
C3883 C 0.46271 0.5508 0.09404 0.0
C3884 C 0.44039 0.57626 0.12151 0.0
C3885 C 0.4245 0.57717 0.17259 0.0
C3886 C 0.43706 0.57791 0.15548 0.0
C3887 C 0.47096 0.56383 0.10639 0.0
C3888 C 0.4598 0.57076 0.12298 0.0
H3889 H 0.38497 0.55303 0.18839 0.0
H3890 H 0.40174 0.56145 0.15934 0.0
H3891 H 0.41404 0.58342 0.13613 0.0
H3892 H 0.51607 0.56551 0.08693 0.0
H3893 H 0.49696 0.57911 0.1128 0.0
C3894 C 0.28936 0.65555 0.92834 0.0
C3895 C 0.29307 0.66397 0.94571 0.0
C3896 C 0.29119 0.66625 0.91178 0.0
C3897 C 0.29115 0.71602 0.89448 0.0
H3898 H 0.31272 0.69333 0.84899 0.0
C3899 C 0.29788 0.75997 0.82677 0.0
C3900 C 0.28991 0.75119 0.81113 0.0
C3901 C 0.30185 0.74918 0.84277 0.0
C3902 C 0.30667 0.69982 0.8616 0.0
H3903 H 0.30185 0.6902 0.95927 0.0
H3904 H 0.30519 0.70871 0.93042 0.0
H3905 H 0.31206 0.67468 0.87814 0.0
H3906 H 0.28102 0.72406 0.79948 0.0
H3907 H 0.28781 0.7053 0.8275 0.0
H3908 H 0.28545 0.74102 0.87796 0.0
C3909 C 0.30059 0.69394 0.92962 0.0
C3910 C 0.30622 0.68915 0.87824 0.0
C3911 C 0.29869 0.68329 0.94616 0.0
C3912 C 0.2871 0.73125 0.81135 0.0
C3913 C 0.29109 0.72047 0.82736 0.0
C3914 C 0.29165 0.72669 0.87789 0.0
C3915 C 0.29682 0.68555 0.91227 0.0
C3916 C 0.29824 0.69708 0.89479 0.0
C3917 C 0.29794 0.72944 0.84341 0.0
C3918 C 0.29921 0.71863 0.86124 0.0
H3919 H 0.28495 0.64072 0.92749 0.0
H3920 H 0.28789 0.65948 0.89864 0.0
H3921 H 0.28464 0.72244 0.90692 0.0
H3922 H 0.30037 0.77529 0.82695 0.0
H3923 H 0.30743 0.75639 0.85487 0.0
C3924 C 0.09775 0.5043 0.73823 0.0
C3925 C 0.11543 0.51336 0.74096 0.0
C3926 C 0.08774 0.50748 0.72169 0.0
C3927 C 0.07958 0.54412 0.68728 0.0
H3928 H 0.06878 0.50462 0.65113 0.0
C3929 C 0.06061 0.56301 0.61172 0.0
C3930 C 0.04805 0.55117 0.60211 0.0
C3931 C 0.06669 0.55787 0.62956 0.0
C3932 C 0.07128 0.51579 0.66123 0.0
H3933 H 0.13672 0.53246 0.72841 0.0
H3934 H 0.11905 0.53828 0.69986 0.0
H3935 H 0.08318 0.49576 0.68093 0.0
H3936 H 0.03142 0.52507 0.60375 0.0
H3937 H 0.04156 0.51629 0.6352 0.0
H3938 H 0.06761 0.56419 0.66797 0.0
C3939 C 0.11303 0.52867 0.71043 0.0
C3940 C 0.07959 0.51068 0.67822 0.0
C3941 C 0.12315 0.52523 0.72672 0.0
C3942 C 0.04133 0.5343 0.61081 0.0
C3943 C 0.04719 0.52927 0.62878 0.0
C3944 C 0.071 0.5492 0.67049 0.0
C3945 C 0.09516 0.52005 0.70791 0.0
C3946 C 0.08421 0.52489 0.69111 0.0
C3947 C 0.06009 0.54091 0.63831 0.0
C3948 C 0.06723 0.53518 0.65702 0.0
H3949 H 0.09149 0.49507 0.749 0.0
H3950 H 0.07396 0.50069 0.71992 0.0
H3951 H 0.08288 0.55526 0.69719 0.0
H3952 H 0.06619 0.57595 0.6052 0.0
H3953 H 0.07697 0.56698 0.63626 0.0
C3954 C 0.26959 0.36531 0.45756 0.0
C3955 C 0.27299 0.3852 0.45816 0.0
C3956 C 0.26793 0.35579 0.44032 0.0
C3957 C 0.28043 0.36081 0.38923 0.0
H3958 H 0.2424 0.32121 0.38311 0.0
C3959 C 0.26701 0.32772 0.3161 0.0
C3960 C 0.26301 0.30799 0.31518 0.0
C3961 C 0.26746 0.33718 0.33344 0.0
C3962 C 0.25329 0.33206 0.38455 0.0
H3963 H 0.27728 0.41052 0.44069 0.0
H3964 H 0.27436 0.39408 0.41097 0.0
H3965 H 0.24502 0.33703 0.41334 0.0
H3966 H 0.25611 0.28287 0.33207 0.0
H3967 H 0.25712 0.29917 0.36212 0.0
H3968 H 0.28889 0.35576 0.36059 0.0
C3969 C 0.27313 0.38572 0.42379 0.0
C3970 C 0.25478 0.34118 0.40199 0.0
C3971 C 0.27466 0.39522 0.44096 0.0
C3972 C 0.25911 0.2981 0.33212 0.0
C3973 C 0.25963 0.30753 0.34946 0.0
C3974 C 0.279 0.35164 0.37184 0.0
C3975 C 0.26978 0.36584 0.42313 0.0
C3976 C 0.26834 0.35577 0.4046 0.0
C3977 C 0.264 0.32721 0.35047 0.0
C3978 C 0.26537 0.33713 0.36914 0.0
H3979 H 0.26823 0.35703 0.47042 0.0
H3980 H 0.26553 0.34046 0.44046 0.0
H3981 H 0.29129 0.3717 0.39068 0.0
H3982 H 0.27009 0.33587 0.30341 0.0
H3983 H 0.27053 0.35239 0.33346 0.0
C3984 C 0.34269 0.41226 0.50615 0.0
C3985 C 0.32617 0.41817 0.51636 0.0
C3986 C 0.35997 0.42246 0.50739 0.0
C3987 C 0.39045 0.45404 0.50379 0.0
H3988 H 0.40645 0.47395 0.5515 0.0
C3989 C 0.45387 0.50759 0.509 0.0
C3990 C 0.46661 0.5049 0.52386 0.0
C3991 C 0.43661 0.4973 0.5084 0.0
C3992 C 0.40231 0.46843 0.53805 0.0
H3993 H 0.31518 0.43822 0.53713 0.0
H3994 H 0.34512 0.45599 0.53937 0.0
H3995 H 0.37756 0.45452 0.55017 0.0
H3996 H 0.47081 0.48936 0.5499 0.0
H3997 H 0.44087 0.47153 0.54886 0.0
H3998 H 0.41538 0.46774 0.49171 0.0
C3999 C 0.34485 0.44371 0.53015 0.0
C4000 C 0.38556 0.4574 0.53725 0.0
C4001 C 0.32759 0.43366 0.52873 0.0
C4002 C 0.46136 0.49195 0.53829 0.0
C4003 C 0.44408 0.48172 0.53772 0.0
C4004 C 0.40718 0.46514 0.50457 0.0
C4005 C 0.36124 0.4385 0.51926 0.0
C4006 C 0.37937 0.44999 0.52012 0.0
C4007 C 0.43152 0.48405 0.52266 0.0
C4008 C 0.41341 0.47249 0.52173 0.0
H4009 H 0.34207 0.40011 0.4968 0.0
H4010 H 0.37235 0.41777 0.49905 0.0
H4011 H 0.38606 0.44884 0.4903 0.0
H4012 H 0.45742 0.51736 0.49759 0.0
H4013 H 0.42724 0.49974 0.49671 0.0
C4014 C 0.86698 0.11638 0.47896 0.0
C4015 C 0.8569 0.13101 0.48861 0.0
C4016 C 0.88691 0.11707 0.47667 0.0
C4017 C 0.92809 0.12587 0.46615 0.0
H4018 H 0.95639 0.13098 0.51193 0.0
C4019 C 0.0064 0.10702 0.50091 0.0
C4020 C 0.00665 0.0875 0.49605 0.0
C4021 C 0.99124 0.11894 0.49537 0.0
C4022 C 0.94887 0.13011 0.49886 0.0
H4023 H 0.85997 0.15794 0.50339 0.0
H4024 H 0.89499 0.15891 0.49957 0.0
H4025 H 0.92239 0.13957 0.5118 0.0
H4026 H 0.9926 0.06561 0.48003 0.0
H4027 H 0.96635 0.0863 0.47029 0.0
H4028 H 0.95432 0.11516 0.45358 0.0
C4029 C 0.88732 0.147 0.49372 0.0
C4030 C 0.92935 0.13497 0.49881 0.0
C4031 C 0.86728 0.14638 0.49593 0.0
C4032 C 0.99264 0.08057 0.48409 0.0
C4033 C 0.97769 0.0925 0.47838 0.0
C4034 C 0.94761 0.12101 0.4662 0.0
C4035 C 0.8973 0.13235 0.48401 0.0
C4036 C 0.91858 0.13192 0.48273 0.0
C4037 C 0.97635 0.11155 0.48467 0.0
C4038 C 0.95791 0.12212 0.48283 0.0
H4039 H 0.8595 0.10434 0.47309 0.0
H4040 H 0.89425 0.10533 0.4695 0.0
H4041 H 0.92019 0.12381 0.45344 0.0
H4042 H 0.01707 0.11272 0.51012 0.0
H4043 H 0.99059 0.13361 0.50031 0.0
C4044 C 0.64555 0.08041 0.27097 0.0
C4045 C 0.65392 0.06274 0.26613 0.0
C4046 C 0.65228 0.09727 0.26248 0.0
C4047 C 0.69539 0.1153 0.23633 0.0
H4048 H 0.66436 0.16171 0.23357 0.0
C4049 C 0.72915 0.1871 0.21505 0.0
C4050 C 0.72517 0.20179 0.228 0.0
C4051 C 0.71817 0.17043 0.21534 0.0
C4052 C 0.67316 0.14882 0.23424 0.0
H4053 H 0.67414 0.04815 0.24745 0.0
H4054 H 0.68524 0.07731 0.23185 0.0
H4055 H 0.64907 0.13136 0.24186 0.0
H4056 H 0.70579 0.2112 0.25048 0.0
H4057 H 0.68685 0.18199 0.25122 0.0
H4058 H 0.71951 0.1328 0.22905 0.0
C4059 C 0.67436 0.07856 0.24291 0.0
C4060 C 0.66445 0.13144 0.2391 0.0
C4061 C 0.668 0.06183 0.25177 0.0
C4062 C 0.70941 0.19994 0.24059 0.0
C4063 C 0.69839 0.18334 0.24082 0.0
C4064 C 0.70405 0.13261 0.23141 0.0
C4065 C 0.66699 0.09658 0.2485 0.0
C4066 C 0.67557 0.11456 0.24082 0.0
C4067 C 0.70294 0.16824 0.2285 0.0
C4068 C 0.69312 0.14962 0.2308 0.0
H4069 H 0.63439 0.08124 0.28182 0.0
H4070 H 0.64641 0.11082 0.2674 0.0
H4071 H 0.70454 0.10274 0.23746 0.0
H4072 H 0.74122 0.18817 0.20522 0.0
H4073 H 0.72189 0.15904 0.2056 0.0
C4074 C 0.70534 0.91842 0.02397 0.0
C4075 C 0.71886 0.92826 0.01254 0.0
C4076 C 0.68633 0.92546 0.02623 0.0
C4077 C 0.65028 0.95055 0.03632 0.0
H4078 H 0.62711 0.97375 0.99268 0.0
C4079 C 0.58127 0.9991 0.04086 0.0
C4080 C 0.56845 0.99848 0.02592 0.0
C4081 C 0.59885 0.98894 0.03997 0.0
C4082 C 0.63315 0.96715 0.00502 0.0
H4083 H 0.72266 0.95344 0.99465 0.0
H4084 H 0.69021 0.96547 0.99869 0.0
H4085 H 0.65836 0.9582 0.98957 0.0
H4086 H 0.56389 0.98603 0.99861 0.0
H4087 H 0.59405 0.96816 0.99723 0.0
H4088 H 0.62477 0.95937 0.0517 0.0
C4089 C 0.694 0.95218 0.0057 0.0
C4090 C 0.65129 0.9584 0.00327 0.0
C4091 C 0.71281 0.94524 0.00349 0.0
C4092 C 0.57345 0.98707 0.01031 0.0
C4093 C 0.59089 0.97685 0.00947 0.0
C4094 C 0.63201 0.95932 0.03808 0.0
C4095 C 0.68041 0.94241 0.017 0.0
C4096 C 0.66028 0.95021 0.01891 0.0
C4097 C 0.60401 0.97782 0.02414 0.0
C4098 C 0.62323 0.96789 0.02246 0.0
H4099 H 0.70944 0.90537 0.03124 0.0
H4100 H 0.67622 0.91751 0.035 0.0
H4101 H 0.65677 0.94449 0.04869 0.0
H4102 H 0.57788 0.0077 0.05312 0.0
H4103 H 0.6086 0.99022 0.05148 0.0
C4104 C 0.40232 0.47307 0.24507 0.0
C4105 C 0.38846 0.48684 0.24021 0.0
C4106 C 0.40012 0.45395 0.23974 0.0
C4107 C 0.38164 0.41496 0.24188 0.0
H4108 H 0.34987 0.40153 0.20019 0.0
C4109 C 0.32189 0.3602 0.24922 0.0
C4110 C 0.31602 0.3499 0.23359 0.0
C4111 C 0.33659 0.37359 0.24739 0.0
C4112 C 0.35908 0.40476 0.21174 0.0
H4113 H 0.36312 0.49249 0.22405 0.0
H4114 H 0.35866 0.45931 0.21539 0.0
H4115 H 0.36719 0.43154 0.19936 0.0
H4116 H 0.3216 0.34455 0.20407 0.0
H4117 H 0.34758 0.36773 0.20085 0.0
H4118 H 0.37337 0.3882 0.25432 0.0
C4119 C 0.37127 0.46283 0.22322 0.0
C4120 C 0.36884 0.42213 0.21137 0.0
C4121 C 0.37352 0.48182 0.22852 0.0
C4122 C 0.3256 0.35266 0.21623 0.0
C4123 C 0.34051 0.36587 0.21443 0.0
C4124 C 0.37205 0.39747 0.24216 0.0
C4125 C 0.38416 0.4485 0.2293 0.0
C4126 C 0.37916 0.428 0.22699 0.0
C4127 C 0.34593 0.37675 0.22991 0.0
C4128 C 0.35977 0.39271 0.2276 0.0
H4129 H 0.41434 0.47694 0.25359 0.0
H4130 H 0.41054 0.44338 0.24431 0.0
H4131 H 0.38967 0.4188 0.25407 0.0
H4132 H 0.31464 0.35835 0.26272 0.0
H4133 H 0.34007 0.38201 0.25953 0.0
C4134 C 0.22878 0.63604 0.99919 0.0
C4135 C 0.24561 0.62873 0.00704 0.0
C4136 C 0.21112 0.62739 0.00323 0.0
C4137 C 0.18944 0.58287 0.02259 0.0
H4138 H 0.14471 0.61577 0.03081 0.0
C4139 C 0.11721 0.55502 0.05347 0.0
C4140 C 0.10059 0.56124 0.04433 0.0
C4141 C 0.13504 0.56318 0.04898 0.0
C4142 C 0.15704 0.6064 0.02839 0.0
H4143 H 0.25734 0.60779 0.02627 0.0
H4144 H 0.22647 0.59271 0.0336 0.0
H4145 H 0.17564 0.63002 0.02242 0.0
H4146 H 0.08949 0.58122 0.02372 0.0
H4147 H 0.12058 0.59536 0.0158 0.0
H4148 H 0.17078 0.55926 0.02879 0.0
C4149 C 0.2269 0.60457 0.02371 0.0
C4150 C 0.17474 0.61454 0.02352 0.0
C4151 C 0.24455 0.61314 0.01953 0.0
C4152 C 0.10208 0.57596 0.03083 0.0
C4153 C 0.11985 0.5842 0.02643 0.0
C4154 C 0.17173 0.57473 0.02754 0.0
C4155 C 0.20997 0.61161 0.01562 0.0
C4156 C 0.19113 0.60287 0.02053 0.0
C4157 C 0.13651 0.57782 0.03539 0.0
C4158 C 0.15537 0.58642 0.03045 0.0
H4159 H 0.22934 0.64833 0.98981 0.0
H4160 H 0.19837 0.63304 0.99664 0.0
H4161 H 0.20174 0.57347 0.02018 0.0
H4162 H 0.1165 0.54361 0.06382 0.0
H4163 H 0.14765 0.55812 0.05622 0.0
C4164 C 0.69852 0.96937 0.3086 0.0
C4165 C 0.6796 0.97084 0.30215 0.0
C4166 C 0.70698 0.95144 0.31167 0.0
C4167 C 0.69664 0.89981 0.31739 0.0
H4168 H 0.7464 0.89295 0.29237 0.0
C4169 C 0.72423 0.82738 0.29007 0.0
C4170 C 0.74408 0.82339 0.28982 0.0
C4171 C 0.71723 0.84505 0.29639 0.0
C4172 C 0.73273 0.89466 0.29984 0.0
H4173 H 0.65448 0.95458 0.29458 0.0
H4174 H 0.66938 0.92329 0.2997 0.0
H4175 H 0.7323 0.9249 0.29478 0.0
H4176 H 0.77208 0.83431 0.29694 0.0
H4177 H 0.75978 0.86519 0.30817 0.0
H4178 H 0.69684 0.86941 0.32191 0.0
C4179 C 0.67757 0.93605 0.30256 0.0
C4180 C 0.72464 0.91298 0.30118 0.0
C4181 C 0.66911 0.95398 0.29944 0.0
C4182 C 0.75672 0.83707 0.29678 0.0
C4183 C 0.74969 0.85475 0.30318 0.0
C4184 C 0.70478 0.88146 0.31611 0.0
C4185 C 0.69668 0.93461 0.3084 0.0
C4186 C 0.70629 0.91565 0.3095 0.0
C4187 C 0.72992 0.85906 0.30266 0.0
C4188 C 0.72266 0.87865 0.30684 0.0
H4189 H 0.70699 0.98205 0.31096 0.0
H4190 H 0.72168 0.95072 0.31633 0.0
H4191 H 0.68259 0.90155 0.32413 0.0
H4192 H 0.71412 0.81711 0.28481 0.0
H4193 H 0.70195 0.84803 0.29554 0.0
C4194 C 0.83667 0.06732 0.76621 0.0
C4195 C 0.85593 0.06855 0.75978 0.0
C4196 C 0.82535 0.08387 0.76826 0.0
C4197 C 0.82914 0.13604 0.7742 0.0
H4198 H 0.77658 0.13733 0.75716 0.0
C4199 C 0.76943 0.19648 0.75435 0.0
C4200 C 0.77153 0.20896 0.76953 0.0
C4201 C 0.77785 0.17821 0.75464 0.0
C4202 C 0.79124 0.13716 0.76196 0.0
H4203 H 0.87828 0.08818 0.75025 0.0
H4204 H 0.85846 0.11694 0.75368 0.0
H4205 H 0.79563 0.10778 0.75417 0.0
H4206 H 0.78307 0.21174 0.79736 0.0
H4207 H 0.7975 0.17976 0.79795 0.0
H4208 H 0.82506 0.16551 0.78143 0.0
C4209 C 0.85223 0.1032 0.75739 0.0
C4210 C 0.80207 0.12023 0.76041 0.0
C4211 C 0.86355 0.08668 0.75533 0.0
C4212 C 0.78137 0.20251 0.78537 0.0
C4213 C 0.78971 0.18424 0.78568 0.0
C4214 C 0.81833 0.15292 0.77576 0.0
C4215 C 0.83305 0.10197 0.76395 0.0
C4216 C 0.8212 0.11958 0.76632 0.0
C4217 C 0.78845 0.17208 0.77013 0.0
C4218 C 0.79933 0.15372 0.76952 0.0
H4219 H 0.83032 0.05359 0.76975 0.0
H4220 H 0.81065 0.08252 0.77349 0.0
H4221 H 0.84377 0.13589 0.7791 0.0
H4222 H 0.76193 0.20106 0.74194 0.0
H4223 H 0.77677 0.16922 0.74239 0.0
loop_
_geom_bond_atom_site_label_1
_geom_bond_atom_site_label_2
_geom_bond_distance
_geom_bond_site_symmetry_2
_ccdc_geom_bond_type
Mn0 O5 2.095 . S
Mn0 O15 2.162 . S
Mn0 O16 2.297 . S
Mn0 O24 2.385 . S
Mn0 O25 2.209 . S
Mn0 O26 2.094 1_455 S
Mn1 O6 2.121 1_655 S
Mn1 N8 2.257 . S
Mn1 N17 2.282 . S
Mn1 O25 2.215 1_655 S
Mn1 O27 2.117 . S
C2 O24 1.234 . S
C2 O25 1.283 . S
C3 O15 1.281 . S
C3 O16 1.236 . S
C4 O26 1.240 . S
C4 O27 1.264 . S
O5 Mn0 2.095 . S
O5 C14 1.250 . S
O6 Mn1 2.121 1_455 S
O6 C14 1.258 . S
C7 N8 1.326 1_455 S
C7 C11 1.460 . S
C7 H13 0.929 . S
N8 Mn1 2.257 . S
N8 C7 1.326 1_655 S
N8 C12 1.362 . S
C9 C10 1.258 . S
C9 C12 1.431 . S
C9 C29 1.449 . S
C10 C9 1.258 . S
C10 C11 1.477 1_655 S
C10 H30 0.931 . S
C11 C7 1.460 . S
C11 C10 1.477 1_455 S
C11 H31 0.930 . S
C12 N8 1.362 . S
C12 C9 1.431 . S
C12 C22 1.476 . S
H13 C7 0.929 . S
C14 O5 1.250 . S
C14 O6 1.258 . S
O15 Mn0 2.162 . S
O15 C3 1.281 . S
O16 Mn0 2.297 . S
O16 C3 1.236 . S
N17 Mn1 2.282 . S
N17 C18 1.328 . S
N17 C22 1.318 . S
C18 N17 1.328 . S
C18 C19 1.457 . S
C18 H23 0.929 . S
C19 C18 1.457 . S
C19 C20 1.291 . S
C19 H32 0.931 . S
C20 C19 1.291 . S
C20 C21 1.373 . S
C20 H33 0.929 . S
C21 C20 1.373 . S
C21 C22 1.396 . S
C21 C28 1.403 . S
C22 C12 1.476 . S
C22 N17 1.318 . S
C22 C21 1.396 . S
H23 C18 0.929 . S
O24 Mn0 2.385 . S
O24 C2 1.234 . S
O25 Mn0 2.209 . S
O25 Mn1 2.215 1_455 S
O25 C2 1.283 . S
O26 Mn0 2.094 1_655 S
O26 C4 1.240 . S
O27 Mn1 2.117 . S
O27 C4 1.264 . S
C28 C21 1.403 . S
C28 C29 1.399 . S
C28 H34 0.929 . S
C29 C9 1.449 . S
C29 C28 1.399 . S
C29 H35 0.930 . S
H30 C10 0.931 . S
H31 C11 0.930 . S
H32 C19 0.931 . S
H33 C20 0.929 . S
H34 C28 0.929 . S
H35 C29 0.930 . S
Mn36 O41 2.095 . S
Mn36 O51 2.162 . S
Mn36 O52 2.297 . S
Mn36 O60 2.385 . S
Mn36 O61 2.209 . S
Mn36 O62 2.094 . S
Mn37 O42 2.121 . S
Mn37 N44 2.257 . S
Mn37 N53 2.282 1_455 S
Mn37 O61 2.215 . S
Mn37 O63 2.117 1_455 S
C38 O60 1.234 . S
C38 O61 1.283 . S
C39 O51 1.281 . S
C39 O52 1.236 . S
C40 O62 1.263 . S
C40 O63 1.260 1_455 S
O41 Mn36 2.095 . S
O41 C50 1.250 . S
O42 Mn37 2.121 . S
O42 C50 1.258 . S
C43 N44 1.326 . S
C43 C47 1.460 . S
C43 H49 0.929 . S
N44 Mn37 2.257 . S
N44 C43 1.326 . S
N44 C48 1.362 . S
C45 C46 1.258 . S
C45 C48 1.431 . S
C45 C65 1.449 1_455 S
C46 C45 1.258 . S
C46 C47 1.477 . S
C46 H66 0.931 . S
C47 C43 1.460 . S
C47 C46 1.477 . S
C47 H67 0.930 . S
C48 N44 1.362 . S
C48 C45 1.431 . S
C48 C58 1.476 1_455 S
H49 C43 0.929 . S
C50 O41 1.250 . S
C50 O42 1.258 . S
O51 Mn36 2.162 . S
O51 C39 1.281 . S
O52 Mn36 2.297 . S
O52 C39 1.236 . S
N53 Mn37 2.282 1_655 S
N53 C54 1.328 . S
N53 C58 1.318 . S
C54 N53 1.328 . S
C54 C55 1.457 . S
C54 H59 0.929 . S
C55 C54 1.457 . S
C55 C56 1.291 . S
C55 H68 0.931 . S
C56 C55 1.291 . S
C56 C57 1.373 . S
C56 H69 0.929 . S
C57 C56 1.373 . S
C57 C58 1.396 . S
C57 C64 1.403 . S
C58 C48 1.476 1_655 S
C58 N53 1.318 . S
C58 C57 1.396 . S
H59 C54 0.929 . S
O60 Mn36 2.385 . S
O60 C38 1.234 . S
O61 Mn36 2.209 . S
O61 Mn37 2.215 . S
O61 C38 1.283 . S
O62 Mn36 2.094 . S
O62 C40 1.263 . S
O63 Mn37 2.117 1_655 S
O63 C40 1.260 1_655 S
C64 C57 1.403 . S
C64 C65 1.399 . S
C64 H70 0.929 . S
C65 C45 1.449 1_655 S
C65 C64 1.399 . S
C65 H71 0.930 . S
H66 C46 0.931 . S
H67 C47 0.930 . S
H68 C55 0.931 . S
H69 C56 0.929 . S
H70 C64 0.929 . S
H71 C65 0.930 . S
Mn72 O77 2.095 . S
Mn72 O87 2.162 . S
Mn72 O88 2.297 . S
Mn72 O96 2.385 . S
Mn72 O97 2.209 . S
Mn72 O98 2.094 . S
Mn73 O78 2.121 . S
Mn73 N80 2.257 . S
Mn73 N89 2.282 . S
Mn73 O97 2.215 . S
Mn73 O99 2.117 . S
C74 O96 1.234 . S
C74 O97 1.283 . S
C75 O87 1.281 . S
C75 O88 1.236 . S
C76 O98 1.240 . S
C76 O99 1.264 . S
O77 Mn72 2.095 . S
O77 C86 1.250 . S
O78 Mn73 2.121 . S
O78 C86 1.258 . S
C79 N80 1.326 . S
C79 C83 1.460 . S
C79 H85 0.929 . S
N80 Mn73 2.257 . S
N80 C79 1.326 . S
N80 C84 1.362 . S
C81 C82 1.258 . S
C81 C84 1.431 . S
C81 C101 1.449 . S
C82 C81 1.258 . S
C82 C83 1.477 . S
C82 H102 0.931 . S
C83 C79 1.460 . S
C83 C82 1.477 . S
C83 H103 0.930 . S
C84 N80 1.362 . S
C84 C81 1.431 . S
C84 C94 1.476 . S
H85 C79 0.929 . S
C86 O77 1.250 . S
C86 O78 1.258 . S
O87 Mn72 2.162 . S
O87 C75 1.281 . S
O88 Mn72 2.297 . S
O88 C75 1.236 . S
N89 Mn73 2.282 . S
N89 C90 1.328 . S
N89 C94 1.318 . S
C90 N89 1.328 . S
C90 C91 1.457 . S
C90 H95 0.929 . S
C91 C90 1.457 . S
C91 C92 1.291 . S
C91 H104 0.931 . S
C92 C91 1.291 . S
C92 C93 1.373 . S
C92 H105 0.929 . S
C93 C92 1.373 . S
C93 C94 1.396 . S
C93 C100 1.403 . S
C94 C84 1.476 . S
C94 N89 1.318 . S
C94 C93 1.396 . S
H95 C90 0.929 . S
O96 Mn72 2.385 . S
O96 C74 1.234 . S
O97 Mn72 2.209 . S
O97 Mn73 2.215 . S
O97 C74 1.283 . S
O98 Mn72 2.094 . S
O98 C76 1.240 . S
O99 Mn73 2.117 . S
O99 C76 1.264 . S
C100 C93 1.403 . S
C100 C101 1.399 . S
C100 H106 0.929 . S
C101 C81 1.449 . S
C101 C100 1.399 . S
C101 H107 0.930 . S
H102 C82 0.931 . S
H103 C83 0.930 . S
H104 C91 0.931 . S
H105 C92 0.929 . S
H106 C100 0.929 . S
H107 C101 0.930 . S
Mn108 O113 2.095 . S
Mn108 O123 2.162 . S
Mn108 O124 2.297 . S
Mn108 O132 2.385 . S
Mn108 O133 2.209 . S
Mn108 O134 2.094 . S
Mn109 O114 2.121 . S
Mn109 N116 2.257 . S
Mn109 N125 2.282 . S
Mn109 O133 2.215 . S
Mn109 O135 2.117 . S
C110 O132 1.234 . S
C110 O133 1.283 . S
C111 O123 1.281 . S
C111 O124 1.236 . S
C112 O134 1.240 . S
C112 O135 1.264 . S
O113 Mn108 2.095 . S
O113 C122 1.250 . S
O114 Mn109 2.121 . S
O114 C122 1.258 . S
C115 N116 1.326 . S
C115 C119 1.460 . S
C115 H121 0.929 . S
N116 Mn109 2.257 . S
N116 C115 1.326 . S
N116 C120 1.362 . S
C117 C118 1.258 . S
C117 C120 1.431 . S
C117 C137 1.449 . S
C118 C117 1.258 . S
C118 C119 1.477 . S
C118 H138 0.931 1_556 S
C119 C115 1.460 . S
C119 C118 1.477 . S
C119 H139 0.930 . S
C120 N116 1.362 . S
C120 C117 1.431 . S
C120 C130 1.476 . S
H121 C115 0.929 . S
C122 O113 1.250 . S
C122 O114 1.258 . S
O123 Mn108 2.162 . S
O123 C111 1.281 . S
O124 Mn108 2.297 . S
O124 C111 1.236 . S
N125 Mn109 2.282 . S
N125 C126 1.328 . S
N125 C130 1.318 . S
C126 N125 1.328 . S
C126 C127 1.457 . S
C126 H131 0.929 . S
C127 C126 1.457 . S
C127 C128 1.291 . S
C127 H140 0.931 . S
C128 C127 1.291 . S
C128 C129 1.373 . S
C128 H141 0.929 . S
C129 C128 1.373 . S
C129 C130 1.396 . S
C129 C136 1.403 . S
C130 C120 1.476 . S
C130 N125 1.318 . S
C130 C129 1.396 . S
H131 C126 0.929 . S
O132 Mn108 2.385 . S
O132 C110 1.234 . S
O133 Mn108 2.209 . S
O133 Mn109 2.215 . S
O133 C110 1.283 . S
O134 Mn108 2.094 . S
O134 C112 1.240 . S
O135 Mn109 2.117 . S
O135 C112 1.264 . S
C136 C129 1.403 . S
C136 C137 1.399 . S
C136 H142 0.929 . S
C137 C117 1.449 . S
C137 C136 1.399 . S
C137 H143 0.930 . S
H138 C118 0.931 1_554 S
H139 C119 0.930 . S
H140 C127 0.931 . S
H141 C128 0.929 . S
H142 C136 0.929 . S
H143 C137 0.930 . S
Mn144 O149 2.095 1_545 S
Mn144 O159 2.162 . S
Mn144 O160 2.297 . S
Mn144 O168 2.385 . S
Mn144 O169 2.209 . S
Mn144 O170 2.094 . S
Mn145 O150 2.121 1_545 S
Mn145 N152 2.257 . S
Mn145 N161 2.282 . S
Mn145 O169 2.215 . S
Mn145 O171 2.117 . S
C146 O168 1.234 . S
C146 O169 1.283 . S
C147 O159 1.281 . S
C147 O160 1.236 . S
C148 O170 1.240 . S
C148 O171 1.264 . S
O149 Mn144 2.095 1_565 S
O149 C158 1.250 . S
O150 Mn145 2.121 1_565 S
O150 C158 1.258 . S
C151 N152 1.326 . S
C151 C155 1.460 . S
C151 H157 0.929 1_545 S
N152 Mn145 2.257 . S
N152 C151 1.326 . S
N152 C156 1.362 . S
C153 C154 1.258 . S
C153 C156 1.431 . S
C153 C173 1.449 . S
C154 C153 1.258 . S
C154 C155 1.477 . S
C154 H174 0.931 . S
C155 C151 1.460 . S
C155 C154 1.477 . S
C155 H175 0.930 . S
C156 N152 1.362 . S
C156 C153 1.431 . S
C156 C166 1.476 . S
H157 C151 0.929 1_565 S
C158 O149 1.250 . S
C158 O150 1.258 . S
O159 Mn144 2.162 . S
O159 C147 1.281 . S
O160 Mn144 2.297 . S
O160 C147 1.236 . S
N161 Mn145 2.282 . S
N161 C162 1.328 . S
N161 C166 1.318 . S
C162 N161 1.328 . S
C162 C163 1.457 . S
C162 H167 0.929 . S
C163 C162 1.457 . S
C163 C164 1.291 . S
C163 H176 0.931 . S
C164 C163 1.291 . S
C164 C165 1.373 . S
C164 H177 0.929 . S
C165 C164 1.373 . S
C165 C166 1.396 . S
C165 C172 1.403 . S
C166 C156 1.476 . S
C166 N161 1.318 . S
C166 C165 1.396 . S
H167 C162 0.929 . S
O168 Mn144 2.385 . S
O168 C146 1.234 . S
O169 Mn144 2.209 . S
O169 Mn145 2.215 . S
O169 C146 1.283 . S
O170 Mn144 2.094 . S
O170 C148 1.240 . S
O171 Mn145 2.117 . S
O171 C148 1.264 . S
C172 C165 1.403 . S
C172 C173 1.399 . S
C172 H178 0.929 . S
C173 C153 1.449 . S
C173 C172 1.399 . S
C173 H179 0.930 . S
H174 C154 0.931 . S
H175 C155 0.930 . S
H176 C163 0.931 . S
H177 C164 0.929 . S
H178 C172 0.929 . S
H179 C173 0.930 . S
Mn180 O185 2.095 . S
Mn180 O195 2.162 . S
Mn180 O196 2.297 . S
Mn180 O204 2.385 . S
Mn180 O205 2.209 . S
Mn180 O206 2.094 . S
Mn181 O186 2.121 . S
Mn181 N188 2.257 . S
Mn181 N197 2.282 . S
Mn181 O205 2.215 . S
Mn181 O207 2.117 . S
C182 O204 1.234 . S
C182 O205 1.283 . S
C183 O195 1.281 . S
C183 O196 1.236 . S
C184 O206 1.240 . S
C184 O207 1.264 . S
O185 Mn180 2.095 . S
O185 C194 1.250 . S
O186 Mn181 2.121 . S
O186 C194 1.258 . S
C187 N188 1.326 . S
C187 C191 1.460 . S
C187 H193 0.929 . S
N188 Mn181 2.257 . S
N188 C187 1.326 . S
N188 C192 1.362 . S
C189 C190 1.251 1_565 S
C189 C192 1.431 . S
C189 C209 1.449 . S
C190 C189 1.251 1_545 S
C190 C191 1.475 1_545 S
C190 H210 0.940 . S
C191 C187 1.460 . S
C191 C190 1.475 1_565 S
C191 H211 0.930 1_565 S
C192 N188 1.362 . S
C192 C189 1.431 . S
C192 C202 1.476 . S
H193 C187 0.929 . S
C194 O185 1.250 . S
C194 O186 1.258 . S
O195 Mn180 2.162 . S
O195 C183 1.281 . S
O196 Mn180 2.297 . S
O196 C183 1.236 . S
N197 Mn181 2.282 . S
N197 C198 1.328 . S
N197 C202 1.318 . S
C198 N197 1.328 . S
C198 C199 1.457 . S
C198 H203 0.929 . S
C199 C198 1.457 . S
C199 C200 1.291 . S
C199 H212 0.931 . S
C200 C199 1.291 . S
C200 C201 1.373 . S
C200 H213 0.929 . S
C201 C200 1.373 . S
C201 C202 1.396 . S
C201 C208 1.403 . S
C202 C192 1.476 . S
C202 N197 1.318 . S
C202 C201 1.396 . S
H203 C198 0.929 . S
O204 Mn180 2.385 . S
O204 C182 1.234 . S
O205 Mn180 2.209 . S
O205 Mn181 2.215 . S
O205 C182 1.283 . S
O206 Mn180 2.094 . S
O206 C184 1.240 . S
O207 Mn181 2.117 . S
O207 C184 1.264 . S
C208 C201 1.403 . S
C208 C209 1.399 . S
C208 H214 0.929 . S
C209 C189 1.449 . S
C209 C208 1.399 . S
C209 H215 0.930 1_565 S
H210 C190 0.940 . S
H211 C191 0.930 1_545 S
H212 C199 0.931 . S
H213 C200 0.929 . S
H214 C208 0.929 . S
H215 C209 0.930 1_545 S
Mn216 O221 2.095 . S
Mn216 O231 2.162 . S
Mn216 O232 2.297 . S
Mn216 O240 2.385 . S
Mn216 O241 2.209 . S
Mn216 O242 2.094 . S
Mn217 O222 2.121 . S
Mn217 N224 2.257 . S
Mn217 N233 2.282 . S
Mn217 O241 2.215 . S
Mn217 O243 2.117 . S
C218 O240 1.234 . S
C218 O241 1.283 . S
C219 O231 1.281 . S
C219 O232 1.236 . S
C220 O242 1.240 . S
C220 O243 1.264 . S
O221 Mn216 2.095 . S
O221 C230 1.250 . S
O222 Mn217 2.121 . S
O222 C230 1.258 . S
C223 N224 1.326 . S
C223 C227 1.460 . S
C223 H229 0.929 . S
N224 Mn217 2.257 . S
N224 C223 1.326 . S
N224 C228 1.362 . S
C225 C226 1.258 . S
C225 C228 1.431 . S
C225 C245 1.449 1_545 S
C226 C225 1.258 . S
C226 C227 1.477 . S
C226 H246 0.931 . S
C227 C223 1.460 . S
C227 C226 1.477 . S
C227 H247 0.930 . S
C228 N224 1.362 . S
C228 C225 1.431 . S
C228 C238 1.476 . S
H229 C223 0.929 . S
C230 O221 1.250 . S
C230 O222 1.258 . S
O231 Mn216 2.162 . S
O231 C219 1.281 . S
O232 Mn216 2.297 . S
O232 C219 1.236 . S
N233 Mn217 2.282 . S
N233 C234 1.328 . S
N233 C238 1.318 . S
C234 N233 1.328 . S
C234 C235 1.457 1_545 S
C234 H239 0.929 . S
C235 C234 1.457 1_565 S
C235 C236 1.291 . S
C235 H248 0.931 . S
C236 C235 1.291 . S
C236 C237 1.373 . S
C236 H249 0.929 . S
C237 C236 1.373 . S
C237 C238 1.396 1_565 S
C237 C244 1.403 . S
C238 C228 1.476 . S
C238 N233 1.318 . S
C238 C237 1.396 1_545 S
H239 C234 0.929 . S
O240 Mn216 2.385 . S
O240 C218 1.234 . S
O241 Mn216 2.209 . S
O241 Mn217 2.215 . S
O241 C218 1.283 . S
O242 Mn216 2.094 . S
O242 C220 1.240 . S
O243 Mn217 2.117 . S
O243 C220 1.264 . S
C244 C237 1.403 . S
C244 C245 1.399 . S
C244 H250 0.929 . S
C245 C225 1.449 1_565 S
C245 C244 1.399 . S
C245 H251 0.930 . S
H246 C226 0.931 . S
H247 C227 0.930 . S
H248 C235 0.931 . S
H249 C236 0.929 . S
H250 C244 0.929 . S
H251 C245 0.930 . S
Mn252 O257 2.095 . S
Mn252 O267 2.162 . S
Mn252 O268 2.297 . S
Mn252 O276 2.385 . S
Mn252 O277 2.209 . S
Mn252 O278 2.137 . S
Mn253 O258 2.121 1_556 S
Mn253 N260 2.257 . S
Mn253 N269 2.282 . S
Mn253 O277 2.215 1_556 S
Mn253 O279 2.117 . S
C254 O276 1.234 . S
C254 O277 1.283 . S
C255 O267 1.281 . S
C255 O268 1.236 . S
C256 O278 1.194 1_556 S
C256 O279 1.264 . S
O257 Mn252 2.095 . S
O257 C266 1.250 . S
O258 Mn253 2.121 1_554 S
O258 C266 1.258 . S
C259 N260 1.326 1_554 S
C259 C263 1.460 . S
C259 H265 0.929 . S
N260 Mn253 2.257 . S
N260 C259 1.326 1_556 S
N260 C264 1.362 . S
C261 C262 1.258 . S
C261 C264 1.431 . S
C261 C281 1.449 . S
C262 C261 1.258 . S
C262 C263 1.477 1_556 S
C262 H282 0.931 . S
C263 C259 1.460 . S
C263 C262 1.477 1_554 S
C263 H283 0.930 . S
C264 N260 1.362 . S
C264 C261 1.431 . S
C264 C274 1.476 . S
H265 C259 0.929 . S
C266 O257 1.250 . S
C266 O258 1.258 . S
O267 Mn252 2.162 . S
O267 C255 1.281 . S
O268 Mn252 2.297 . S
O268 C255 1.236 . S
N269 Mn253 2.282 . S
N269 C270 1.328 . S
N269 C274 1.318 . S
C270 N269 1.328 . S
C270 C271 1.457 . S
C270 H275 0.929 . S
C271 C270 1.457 . S
C271 C272 1.291 . S
C271 H284 0.931 . S
C272 C271 1.291 . S
C272 C273 1.373 . S
C272 H285 0.929 . S
C273 C272 1.373 . S
C273 C274 1.396 . S
C273 C280 1.403 . S
C274 C264 1.476 . S
C274 N269 1.318 . S
C274 C273 1.396 . S
H275 C270 0.929 . S
O276 Mn252 2.385 . S
O276 C254 1.234 . S
O277 Mn252 2.209 . S
O277 Mn253 2.215 1_554 S
O277 C254 1.283 . S
O278 Mn252 2.137 . S
O278 C256 1.194 1_554 S
O279 Mn253 2.117 . S
O279 C256 1.264 . S
C280 C273 1.403 . S
C280 C281 1.399 . S
C280 H286 0.929 . S
C281 C261 1.449 . S
C281 C280 1.399 . S
C281 H287 0.930 . S
H282 C262 0.931 . S
H283 C263 0.930 . S
H284 C271 0.931 . S
H285 C272 0.929 . S
H286 C280 0.929 . S
H287 C281 0.930 . S
Mn288 O293 2.095 . S
Mn288 O303 2.162 . S
Mn288 O304 2.297 . S
Mn288 O312 2.385 . S
Mn288 O313 2.209 . S
Mn288 O314 2.094 . S
Mn289 O294 2.121 . S
Mn289 N296 2.257 . S
Mn289 N305 2.282 1_554 S
Mn289 O313 2.215 . S
Mn289 O315 2.108 1_554 S
C290 O312 1.234 . S
C290 O313 1.283 . S
C291 O303 1.281 . S
C291 O304 1.236 . S
C292 O314 1.240 . S
C292 O315 1.260 1_554 S
O293 Mn288 2.095 . S
O293 C302 1.250 . S
O294 Mn289 2.121 . S
O294 C302 1.258 . S
C295 N296 1.326 . S
C295 C299 1.460 . S
C295 H301 0.929 . S
N296 Mn289 2.257 . S
N296 C295 1.326 . S
N296 C300 1.362 . S
C297 C298 1.258 . S
C297 C300 1.431 . S
C297 C317 1.449 1_554 S
C298 C297 1.258 . S
C298 C299 1.477 . S
C298 H318 0.931 . S
C299 C295 1.460 . S
C299 C298 1.477 . S
C299 H319 0.930 . S
C300 N296 1.362 . S
C300 C297 1.431 . S
C300 C310 1.476 1_554 S
H301 C295 0.929 . S
C302 O293 1.250 . S
C302 O294 1.258 . S
O303 Mn288 2.162 . S
O303 C291 1.281 . S
O304 Mn288 2.297 . S
O304 C291 1.236 . S
N305 Mn289 2.282 1_556 S
N305 C306 1.328 . S
N305 C310 1.318 . S
C306 N305 1.328 . S
C306 C307 1.457 . S
C306 H311 0.929 . S
C307 C306 1.457 . S
C307 C308 1.291 . S
C307 H320 0.931 . S
C308 C307 1.291 . S
C308 C309 1.373 . S
C308 H321 0.929 . S
C309 C308 1.373 . S
C309 C310 1.396 . S
C309 C316 1.403 . S
C310 C300 1.476 1_556 S
C310 N305 1.318 . S
C310 C309 1.396 . S
H311 C306 0.929 . S
O312 Mn288 2.385 . S
O312 C290 1.234 . S
O313 Mn288 2.209 . S
O313 Mn289 2.215 . S
O313 C290 1.283 . S
O314 Mn288 2.094 . S
O314 C292 1.240 . S
O315 Mn289 2.108 1_556 S
O315 C292 1.260 1_556 S
C316 C309 1.403 . S
C316 C317 1.399 . S
C316 H322 0.929 . S
C317 C297 1.449 1_556 S
C317 C316 1.399 . S
C317 H323 0.930 . S
H318 C298 0.931 . S
H319 C299 0.930 . S
H320 C307 0.931 . S
H321 C308 0.929 . S
H322 C316 0.929 . S
H323 C317 0.930 . S
Mn324 O329 2.095 . S
Mn324 O339 2.162 . S
Mn324 O340 2.297 . S
Mn324 O348 2.385 . S
Mn324 O349 2.209 . S
Mn324 O350 2.094 . S
Mn325 O330 2.121 . S
Mn325 N332 2.257 . S
Mn325 N341 2.282 . S
Mn325 O349 2.215 . S
Mn325 O351 2.117 . S
C326 O348 1.234 . S
C326 O349 1.283 . S
C327 O339 1.281 . S
C327 O340 1.236 . S
C328 O350 1.240 . S
C328 O351 1.264 . S
O329 Mn324 2.095 . S
O329 C338 1.250 . S
O330 Mn325 2.121 . S
O330 C338 1.258 . S
C331 N332 1.326 . S
C331 C335 1.460 . S
C331 H337 0.929 . S
N332 Mn325 2.257 . S
N332 C331 1.326 . S
N332 C336 1.362 . S
C333 C334 1.258 . S
C333 C336 1.431 . S
C333 C353 1.449 . S
C334 C333 1.258 . S
C334 C335 1.477 . S
C334 H354 0.931 . S
C335 C331 1.460 . S
C335 C334 1.477 . S
C335 H355 0.930 . S
C336 N332 1.362 . S
C336 C333 1.431 . S
C336 C346 1.476 . S
H337 C331 0.929 . S
C338 O329 1.250 . S
C338 O330 1.258 . S
O339 Mn324 2.162 . S
O339 C327 1.281 . S
O340 Mn324 2.297 . S
O340 C327 1.236 . S
N341 Mn325 2.282 . S
N341 C342 1.328 . S
N341 C346 1.318 . S
C342 N341 1.328 . S
C342 C343 1.457 . S
C342 H347 0.929 . S
C343 C342 1.457 . S
C343 C344 1.291 . S
C343 H356 0.931 . S
C344 C343 1.291 . S
C344 C345 1.373 . S
C344 H357 0.929 . S
C345 C344 1.373 . S
C345 C346 1.396 . S
C345 C352 1.403 . S
C346 C336 1.476 . S
C346 N341 1.318 . S
C346 C345 1.396 . S
H347 C342 0.929 . S
O348 Mn324 2.385 . S
O348 C326 1.234 . S
O349 Mn324 2.209 . S
O349 Mn325 2.215 . S
O349 C326 1.283 . S
O350 Mn324 2.094 . S
O350 C328 1.240 . S
O351 Mn325 2.117 . S
O351 C328 1.264 . S
C352 C345 1.403 . S
C352 C353 1.399 . S
C352 H358 0.929 . S
C353 C333 1.449 . S
C353 C352 1.399 . S
C353 H359 0.930 . S
H354 C334 0.931 . S
H355 C335 0.930 . S
H356 C343 0.931 . S
H357 C344 0.929 . S
H358 C352 0.929 . S
H359 C353 0.930 . S
Mn360 O365 2.095 . S
Mn360 O375 2.162 . S
Mn360 O376 2.297 . S
Mn360 O384 2.385 . S
Mn360 O385 2.209 . S
Mn360 O386 2.094 . S
Mn361 O366 2.121 . S
Mn361 N368 2.257 . S
Mn361 N377 2.282 . S
Mn361 O385 2.215 . S
Mn361 O387 2.117 . S
C362 O384 1.234 . S
C362 O385 1.283 . S
C363 O375 1.281 . S
C363 O376 1.236 . S
C364 O386 1.240 . S
C364 O387 1.264 . S
O365 Mn360 2.095 . S
O365 C374 1.250 . S
O366 Mn361 2.121 . S
O366 C374 1.258 . S
C367 N368 1.326 . S
C367 C371 1.460 . S
C367 H373 0.929 . S
N368 Mn361 2.257 . S
N368 C367 1.326 . S
N368 C372 1.362 . S
C369 C370 1.258 . S
C369 C372 1.431 . S
C369 C389 1.449 . S
C370 C369 1.258 . S
C370 C371 1.477 . S
C370 H390 0.931 . S
C371 C367 1.460 . S
C371 C370 1.477 . S
C371 H391 0.930 . S
C372 N368 1.362 . S
C372 C369 1.431 . S
C372 C382 1.476 . S
H373 C367 0.929 . S
C374 O365 1.250 . S
C374 O366 1.258 . S
O375 Mn360 2.162 . S
O375 C363 1.281 . S
O376 Mn360 2.297 . S
O376 C363 1.236 . S
N377 Mn361 2.282 . S
N377 C378 1.328 . S
N377 C382 1.318 . S
C378 N377 1.328 . S
C378 C379 1.457 . S
C378 H383 0.929 . S
C379 C378 1.457 . S
C379 C380 1.291 . S
C379 H392 0.931 . S
C380 C379 1.291 . S
C380 C381 1.373 . S
C380 H393 0.929 . S
C381 C380 1.373 . S
C381 C382 1.396 . S
C381 C388 1.403 . S
C382 C372 1.476 . S
C382 N377 1.318 . S
C382 C381 1.396 . S
H383 C378 0.929 . S
O384 Mn360 2.385 . S
O384 C362 1.234 . S
O385 Mn360 2.209 . S
O385 Mn361 2.215 . S
O385 C362 1.283 . S
O386 Mn360 2.094 . S
O386 C364 1.240 . S
O387 Mn361 2.117 . S
O387 C364 1.264 . S
C388 C381 1.403 . S
C388 C389 1.399 . S
C388 H394 0.929 . S
C389 C369 1.449 . S
C389 C388 1.399 . S
C389 H395 0.930 . S
H390 C370 0.931 . S
H391 C371 0.930 . S
H392 C379 0.931 . S
H393 C380 0.929 . S
H394 C388 0.929 . S
H395 C389 0.930 . S
Mn396 O401 2.095 . S
Mn396 O411 2.162 . S
Mn396 O412 2.297 . S
Mn396 O420 2.385 . S
Mn396 O421 2.209 . S
Mn396 O422 2.094 . S
Mn397 O402 2.121 . S
Mn397 N404 2.257 . S
Mn397 N413 2.282 . S
Mn397 O421 2.215 . S
Mn397 O423 2.117 . S
C398 O420 1.234 . S
C398 O421 1.283 . S
C399 O411 1.281 . S
C399 O412 1.236 . S
C400 O422 1.240 . S
C400 O423 1.264 . S
O401 Mn396 2.095 . S
O401 C410 1.250 . S
O402 Mn397 2.121 . S
O402 C410 1.258 . S
C403 N404 1.326 . S
C403 C407 1.460 . S
C403 H409 0.929 . S
N404 Mn397 2.257 . S
N404 C403 1.326 . S
N404 C408 1.362 . S
C405 C406 1.258 . S
C405 C408 1.431 . S
C405 C425 1.449 . S
C406 C405 1.258 . S
C406 C407 1.477 . S
C406 H426 0.931 . S
C407 C403 1.460 . S
C407 C406 1.477 . S
C407 H427 0.930 . S
C408 N404 1.362 . S
C408 C405 1.431 . S
C408 C418 1.476 . S
H409 C403 0.929 . S
C410 O401 1.250 . S
C410 O402 1.258 . S
O411 Mn396 2.162 . S
O411 C399 1.281 . S
O412 Mn396 2.297 . S
O412 C399 1.236 . S
N413 Mn397 2.282 . S
N413 C414 1.328 . S
N413 C418 1.318 . S
C414 N413 1.328 . S
C414 C415 1.457 . S
C414 H419 0.929 . S
C415 C414 1.457 . S
C415 C416 1.291 . S
C415 H428 0.931 . S
C416 C415 1.291 . S
C416 C417 1.373 . S
C416 H429 0.929 . S
C417 C416 1.373 . S
C417 C418 1.396 . S
C417 C424 1.403 . S
C418 C408 1.476 . S
C418 N413 1.318 . S
C418 C417 1.396 . S
H419 C414 0.929 . S
O420 Mn396 2.385 . S
O420 C398 1.234 . S
O421 Mn396 2.209 . S
O421 Mn397 2.215 . S
O421 C398 1.283 . S
O422 Mn396 2.094 . S
O422 C400 1.240 . S
O423 Mn397 2.117 . S
O423 C400 1.264 . S
C424 C417 1.403 . S
C424 C425 1.399 . S
C424 H430 0.929 . S
C425 C405 1.449 . S
C425 C424 1.399 . S
C425 H431 0.930 . S
H426 C406 0.931 . S
H427 C407 0.930 . S
H428 C415 0.931 . S
H429 C416 0.929 . S
H430 C424 0.929 . S
H431 C425 0.930 . S
Mn432 O437 2.095 . S
Mn432 O447 2.162 . S
Mn432 O448 2.297 . S
Mn432 O456 2.385 . S
Mn432 O457 2.209 . S
Mn432 O458 2.094 1_455 S
Mn433 O438 2.121 1_655 S
Mn433 N440 2.257 . S
Mn433 N449 2.282 . S
Mn433 O457 2.215 1_655 S
Mn433 O459 2.117 . S
C434 O456 1.234 . S
C434 O457 1.283 . S
C435 O447 1.281 . S
C435 O448 1.236 . S
C436 O458 1.240 . S
C436 O459 1.264 . S
O437 Mn432 2.095 . S
O437 C446 1.250 . S
O438 Mn433 2.121 1_455 S
O438 C446 1.258 . S
C439 N440 1.332 . S
C439 C443 1.459 . S
C439 H445 0.924 1_655 S
N440 Mn433 2.257 . S
N440 C439 1.332 . S
N440 C444 1.362 . S
C441 C442 1.258 . S
C441 C444 1.431 . S
C441 C461 1.449 . S
C442 C441 1.258 . S
C442 C443 1.475 . S
C442 H462 0.931 1_556 S
C443 C439 1.459 . S
C443 C442 1.475 . S
C443 H463 0.932 1_655 S
C444 N440 1.362 . S
C444 C441 1.431 . S
C444 C454 1.476 . S
H445 C439 0.924 1_455 S
C446 O437 1.250 . S
C446 O438 1.258 . S
O447 Mn432 2.162 . S
O447 C435 1.281 . S
O448 Mn432 2.297 . S
O448 C435 1.236 . S
N449 Mn433 2.282 . S
N449 C450 1.328 . S
N449 C454 1.318 . S
C450 N449 1.328 . S
C450 C451 1.457 . S
C450 H455 0.929 . S
C451 C450 1.457 . S
C451 C452 1.291 . S
C451 H464 0.931 . S
C452 C451 1.291 . S
C452 C453 1.373 . S
C452 H465 0.929 . S
C453 C452 1.373 . S
C453 C454 1.396 . S
C453 C460 1.403 . S
C454 C444 1.476 . S
C454 N449 1.318 . S
C454 C453 1.396 . S
H455 C450 0.929 . S
O456 Mn432 2.385 . S
O456 C434 1.234 . S
O457 Mn432 2.209 . S
O457 Mn433 2.215 1_455 S
O457 C434 1.283 . S
O458 Mn432 2.094 1_655 S
O458 C436 1.240 . S
O459 Mn433 2.117 . S
O459 C436 1.264 . S
C460 C453 1.403 . S
C460 C461 1.399 . S
C460 H466 0.929 . S
C461 C441 1.449 . S
C461 C460 1.399 . S
C461 H467 0.930 . S
H462 C442 0.931 1_554 S
H463 C443 0.932 1_455 S
H464 C451 0.931 . S
H465 C452 0.929 . S
H466 C460 0.929 . S
H467 C461 0.930 . S
Mn468 O473 2.095 1_455 S
Mn468 O483 2.162 . S
Mn468 O484 2.297 . S
Mn468 O492 2.385 . S
Mn468 O493 2.209 1_455 S
Mn468 O494 2.094 1_455 S
Mn469 O474 2.121 . S
Mn469 N476 2.257 . S
Mn469 N485 2.282 . S
Mn469 O493 2.215 . S
Mn469 O495 2.117 . S
C470 O492 1.243 . S
C470 O493 1.275 1_455 S
C471 O483 1.281 . S
C471 O484 1.236 . S
C472 O494 1.240 . S
C472 O495 1.264 . S
O473 Mn468 2.095 1_655 S
O473 C482 1.250 . S
O474 Mn469 2.121 . S
O474 C482 1.258 . S
C475 N476 1.326 . S
C475 C479 1.460 . S
C475 H481 0.929 . S
N476 Mn469 2.257 . S
N476 C475 1.326 . S
N476 C480 1.362 . S
C477 C478 1.258 . S
C477 C480 1.431 . S
C477 C497 1.449 . S
C478 C477 1.258 . S
C478 C479 1.477 . S
C478 H498 0.931 . S
C479 C475 1.460 . S
C479 C478 1.477 . S
C479 H499 0.930 . S
C480 N476 1.362 . S
C480 C477 1.431 . S
C480 C490 1.476 . S
H481 C475 0.929 . S
C482 O473 1.250 . S
C482 O474 1.258 . S
O483 Mn468 2.162 . S
O483 C471 1.281 . S
O484 Mn468 2.297 . S
O484 C471 1.236 . S
N485 Mn469 2.282 . S
N485 C486 1.328 . S
N485 C490 1.318 . S
C486 N485 1.328 . S
C486 C487 1.457 . S
C486 H491 0.929 . S
C487 C486 1.457 . S
C487 C488 1.291 . S
C487 H500 0.931 . S
C488 C487 1.291 . S
C488 C489 1.373 . S
C488 H501 0.929 . S
C489 C488 1.373 . S
C489 C490 1.396 . S
C489 C496 1.403 . S
C490 C480 1.476 . S
C490 N485 1.318 . S
C490 C489 1.396 . S
H491 C486 0.929 . S
O492 Mn468 2.385 . S
O492 C470 1.243 . S
O493 Mn468 2.209 1_655 S
O493 Mn469 2.215 . S
O493 C470 1.275 1_655 S
O494 Mn468 2.094 1_655 S
O494 C472 1.240 . S
O495 Mn469 2.117 . S
O495 C472 1.264 . S
C496 C489 1.403 . S
C496 C497 1.399 . S
C496 H502 0.929 . S
C497 C477 1.449 . S
C497 C496 1.399 . S
C497 H503 0.930 . S
H498 C478 0.931 . S
H499 C479 0.930 . S
H500 C487 0.931 . S
H501 C488 0.929 . S
H502 C496 0.929 . S
H503 C497 0.930 . S
Mn504 O509 2.095 . S
Mn504 O519 2.162 . S
Mn504 O520 2.297 . S
Mn504 O528 2.385 . S
Mn504 O529 2.209 . S
Mn504 O530 2.094 . S
Mn505 O510 2.121 . S
Mn505 N512 2.257 . S
Mn505 N521 2.282 . S
Mn505 O529 2.215 . S
Mn505 O531 2.117 . S
C506 O528 1.234 . S
C506 O529 1.283 . S
C507 O519 1.281 . S
C507 O520 1.236 . S
C508 O530 1.240 . S
C508 O531 1.264 . S
O509 Mn504 2.095 . S
O509 C518 1.250 . S
O510 Mn505 2.121 . S
O510 C518 1.258 . S
C511 N512 1.326 . S
C511 C515 1.460 . S
C511 H517 0.929 . S
N512 Mn505 2.257 . S
N512 C511 1.326 . S
N512 C516 1.362 . S
C513 C514 1.258 . S
C513 C516 1.431 . S
C513 C533 1.449 . S
C514 C513 1.258 . S
C514 C515 1.477 . S
C514 H534 0.931 . S
C515 C511 1.460 . S
C515 C514 1.477 . S
C515 H535 0.930 . S
C516 N512 1.362 . S
C516 C513 1.431 . S
C516 C526 1.476 . S
H517 C511 0.929 . S
C518 O509 1.250 . S
C518 O510 1.258 . S
O519 Mn504 2.162 . S
O519 C507 1.281 . S
O520 Mn504 2.297 . S
O520 C507 1.236 . S
N521 Mn505 2.282 . S
N521 C522 1.328 . S
N521 C526 1.318 . S
C522 N521 1.328 . S
C522 C523 1.457 . S
C522 H527 0.929 . S
C523 C522 1.457 . S
C523 C524 1.291 . S
C523 H536 0.931 . S
C524 C523 1.291 . S
C524 C525 1.373 . S
C524 H537 0.929 . S
C525 C524 1.373 . S
C525 C526 1.396 . S
C525 C532 1.403 . S
C526 C516 1.476 . S
C526 N521 1.318 . S
C526 C525 1.396 . S
H527 C522 0.929 . S
O528 Mn504 2.385 . S
O528 C506 1.234 . S
O529 Mn504 2.209 . S
O529 Mn505 2.215 . S
O529 C506 1.283 . S
O530 Mn504 2.094 . S
O530 C508 1.240 . S
O531 Mn505 2.117 . S
O531 C508 1.264 . S
C532 C525 1.403 . S
C532 C533 1.399 . S
C532 H538 0.929 . S
C533 C513 1.449 . S
C533 C532 1.399 . S
C533 H539 0.930 . S
H534 C514 0.931 . S
H535 C515 0.930 . S
H536 C523 0.931 . S
H537 C524 0.929 . S
H538 C532 0.929 . S
H539 C533 0.930 . S
Mn540 O545 2.095 . S
Mn540 O555 2.162 . S
Mn540 O556 2.297 . S
Mn540 O564 2.385 . S
Mn540 O565 2.209 . S
Mn540 O566 2.094 . S
Mn541 O546 2.121 . S
Mn541 N548 2.257 . S
Mn541 N557 2.282 . S
Mn541 O565 2.215 . S
Mn541 O567 2.117 . S
C542 O564 1.234 . S
C542 O565 1.283 . S
C543 O555 1.281 . S
C543 O556 1.236 . S
C544 O566 1.240 . S
C544 O567 1.264 . S
O545 Mn540 2.095 . S
O545 C554 1.250 . S
O546 Mn541 2.121 . S
O546 C554 1.258 . S
C547 N548 1.326 . S
C547 C551 1.460 . S
C547 H553 0.929 . S
N548 Mn541 2.257 . S
N548 C547 1.326 . S
N548 C552 1.362 . S
C549 C550 1.258 . S
C549 C552 1.431 . S
C549 C569 1.449 . S
C550 C549 1.258 . S
C550 C551 1.477 . S
C550 H570 0.931 . S
C551 C547 1.460 . S
C551 C550 1.477 . S
C551 H571 0.930 . S
C552 N548 1.362 . S
C552 C549 1.431 . S
C552 C562 1.476 . S
H553 C547 0.929 . S
C554 O545 1.250 . S
C554 O546 1.258 . S
O555 Mn540 2.162 . S
O555 C543 1.281 . S
O556 Mn540 2.297 . S
O556 C543 1.236 . S
N557 Mn541 2.282 . S
N557 C558 1.328 . S
N557 C562 1.318 . S
C558 N557 1.328 . S
C558 C559 1.457 . S
C558 H563 0.929 . S
C559 C558 1.457 . S
C559 C560 1.291 . S
C559 H572 0.931 . S
C560 C559 1.291 . S
C560 C561 1.373 . S
C560 H573 0.929 . S
C561 C560 1.373 . S
C561 C562 1.396 . S
C561 C568 1.403 . S
C562 C552 1.476 . S
C562 N557 1.318 . S
C562 C561 1.396 . S
H563 C558 0.929 . S
O564 Mn540 2.385 . S
O564 C542 1.234 . S
O565 Mn540 2.209 . S
O565 Mn541 2.215 . S
O565 C542 1.283 . S
O566 Mn540 2.094 . S
O566 C544 1.240 . S
O567 Mn541 2.117 . S
O567 C544 1.264 . S
C568 C561 1.403 . S
C568 C569 1.399 . S
C568 H574 0.929 . S
C569 C549 1.449 . S
C569 C568 1.399 . S
C569 H575 0.930 . S
H570 C550 0.931 . S
H571 C551 0.930 . S
H572 C559 0.931 . S
H573 C560 0.929 . S
H574 C568 0.929 . S
H575 C569 0.930 . S
Mn576 O581 2.095 . S
Mn576 O591 2.162 . S
Mn576 O592 2.297 . S
Mn576 O600 2.385 . S
Mn576 O601 2.209 . S
Mn576 O602 2.094 . S
Mn577 O582 2.121 . S
Mn577 N584 2.257 . S
Mn577 N593 2.282 . S
Mn577 O601 2.215 . S
Mn577 O603 2.117 . S
C578 O600 1.234 . S
C578 O601 1.283 . S
C579 O591 1.281 . S
C579 O592 1.236 . S
C580 O602 1.240 . S
C580 O603 1.264 . S
O581 Mn576 2.095 . S
O581 C590 1.250 . S
O582 Mn577 2.121 . S
O582 C590 1.258 . S
C583 N584 1.326 . S
C583 C587 1.460 . S
C583 H589 0.929 . S
N584 Mn577 2.257 . S
N584 C583 1.326 . S
N584 C588 1.362 . S
C585 C586 1.258 . S
C585 C588 1.431 . S
C585 C605 1.449 1_545 S
C586 C585 1.258 . S
C586 C587 1.477 . S
C586 H606 0.931 . S
C587 C583 1.460 . S
C587 C586 1.477 . S
C587 H607 0.930 . S
C588 N584 1.362 . S
C588 C585 1.431 . S
C588 C598 1.476 . S
H589 C583 0.929 . S
C590 O581 1.250 . S
C590 O582 1.258 . S
O591 Mn576 2.162 . S
O591 C579 1.281 . S
O592 Mn576 2.297 . S
O592 C579 1.236 . S
N593 Mn577 2.282 . S
N593 C594 1.328 . S
N593 C598 1.318 . S
C594 N593 1.328 . S
C594 C595 1.457 1_545 S
C594 H599 0.929 . S
C595 C594 1.457 1_565 S
C595 C596 1.291 . S
C595 H608 0.931 . S
C596 C595 1.291 . S
C596 C597 1.373 . S
C596 H609 0.929 . S
C597 C596 1.373 . S
C597 C598 1.396 1_565 S
C597 C604 1.403 . S
C598 C588 1.476 . S
C598 N593 1.318 . S
C598 C597 1.396 1_545 S
H599 C594 0.929 . S
O600 Mn576 2.385 . S
O600 C578 1.234 . S
O601 Mn576 2.209 . S
O601 Mn577 2.215 . S
O601 C578 1.283 . S
O602 Mn576 2.094 . S
O602 C580 1.240 . S
O603 Mn577 2.117 . S
O603 C580 1.264 . S
C604 C597 1.403 . S
C604 C605 1.399 . S
C604 H610 0.929 . S
C605 C585 1.449 1_565 S
C605 C604 1.399 . S
C605 H611 0.930 . S
H606 C586 0.931 . S
H607 C587 0.930 . S
H608 C595 0.931 . S
H609 C596 0.929 . S
H610 C604 0.929 . S
H611 C605 0.930 . S
Mn612 O617 2.095 . S
Mn612 O627 2.162 . S
Mn612 O628 2.297 . S
Mn612 O636 2.385 . S
Mn612 O637 2.209 . S
Mn612 O638 2.094 . S
Mn613 O618 2.121 . S
Mn613 N620 2.257 . S
Mn613 N629 2.282 . S
Mn613 O637 2.215 . S
Mn613 O639 2.117 . S
C614 O636 1.234 . S
C614 O637 1.283 . S
C615 O627 1.281 . S
C615 O628 1.236 . S
C616 O638 1.240 . S
C616 O639 1.264 . S
O617 Mn612 2.095 . S
O617 C626 1.250 . S
O618 Mn613 2.121 . S
O618 C626 1.258 . S
C619 N620 1.326 . S
C619 C623 1.460 . S
C619 H625 0.929 . S
N620 Mn613 2.257 . S
N620 C619 1.326 . S
N620 C624 1.362 . S
C621 C622 1.258 . S
C621 C624 1.431 . S
C621 C641 1.449 . S
C622 C621 1.258 . S
C622 C623 1.477 . S
C622 H642 0.931 . S
C623 C619 1.460 . S
C623 C622 1.477 . S
C623 H643 0.930 . S
C624 N620 1.362 . S
C624 C621 1.431 . S
C624 C634 1.476 . S
H625 C619 0.929 . S
C626 O617 1.250 . S
C626 O618 1.258 . S
O627 Mn612 2.162 . S
O627 C615 1.281 . S
O628 Mn612 2.297 . S
O628 C615 1.236 . S
N629 Mn613 2.282 . S
N629 C630 1.328 . S
N629 C634 1.318 . S
C630 N629 1.328 . S
C630 C631 1.457 . S
C630 H635 0.929 . S
C631 C630 1.457 . S
C631 C632 1.291 . S
C631 H644 0.931 . S
C632 C631 1.291 . S
C632 C633 1.373 . S
C632 H645 0.929 . S
C633 C632 1.373 . S
C633 C634 1.396 . S
C633 C640 1.403 . S
C634 C624 1.476 . S
C634 N629 1.318 . S
C634 C633 1.396 . S
H635 C630 0.929 . S
O636 Mn612 2.385 . S
O636 C614 1.234 . S
O637 Mn612 2.209 . S
O637 Mn613 2.215 . S
O637 C614 1.283 . S
O638 Mn612 2.094 . S
O638 C616 1.240 . S
O639 Mn613 2.117 . S
O639 C616 1.264 . S
C640 C633 1.403 . S
C640 C641 1.399 . S
C640 H646 0.929 . S
C641 C621 1.449 . S
C641 C640 1.399 . S
C641 H647 0.930 . S
H642 C622 0.931 . S
H643 C623 0.930 . S
H644 C631 0.931 . S
H645 C632 0.929 . S
H646 C640 0.929 . S
H647 C641 0.930 . S
Mn648 O653 2.095 1_545 S
Mn648 O663 2.162 . S
Mn648 O664 2.297 . S
Mn648 O672 2.385 . S
Mn648 O673 2.209 . S
Mn648 O674 2.094 . S
Mn649 O654 2.121 1_545 S
Mn649 N656 2.257 . S
Mn649 N665 2.282 . S
Mn649 O673 2.215 . S
Mn649 O675 2.117 . S
C650 O672 1.234 . S
C650 O673 1.283 . S
C651 O663 1.281 . S
C651 O664 1.236 . S
C652 O674 1.240 . S
C652 O675 1.264 . S
O653 Mn648 2.095 1_565 S
O653 C662 1.250 . S
O654 Mn649 2.121 1_565 S
O654 C662 1.258 . S
C655 N656 1.326 . S
C655 C659 1.460 . S
C655 H661 0.929 1_545 S
N656 Mn649 2.257 . S
N656 C655 1.326 . S
N656 C660 1.362 . S
C657 C658 1.258 . S
C657 C660 1.431 . S
C657 C677 1.449 . S
C658 C657 1.258 . S
C658 C659 1.477 . S
C658 H678 0.931 . S
C659 C655 1.460 . S
C659 C658 1.477 . S
C659 H679 0.930 . S
C660 N656 1.362 . S
C660 C657 1.431 . S
C660 C670 1.476 . S
H661 C655 0.929 1_565 S
C662 O653 1.250 . S
C662 O654 1.258 . S
O663 Mn648 2.162 . S
O663 C651 1.281 . S
O664 Mn648 2.297 . S
O664 C651 1.236 . S
N665 Mn649 2.282 . S
N665 C666 1.328 . S
N665 C670 1.318 . S
C666 N665 1.328 . S
C666 C667 1.457 . S
C666 H671 0.929 . S
C667 C666 1.457 . S
C667 C668 1.291 . S
C667 H680 0.931 . S
C668 C667 1.291 . S
C668 C669 1.373 . S
C668 H681 0.929 . S
C669 C668 1.373 . S
C669 C670 1.396 . S
C669 C676 1.403 . S
C670 C660 1.476 . S
C670 N665 1.318 . S
C670 C669 1.396 . S
H671 C666 0.929 . S
O672 Mn648 2.385 . S
O672 C650 1.234 . S
O673 Mn648 2.209 . S
O673 Mn649 2.215 . S
O673 C650 1.283 . S
O674 Mn648 2.094 . S
O674 C652 1.240 . S
O675 Mn649 2.117 . S
O675 C652 1.264 . S
C676 C669 1.403 . S
C676 C677 1.399 . S
C676 H682 0.929 . S
C677 C657 1.449 . S
C677 C676 1.399 . S
C677 H683 0.930 . S
H678 C658 0.931 . S
H679 C659 0.930 . S
H680 C667 0.931 . S
H681 C668 0.929 . S
H682 C676 0.929 . S
H683 C677 0.930 . S
Mn684 O689 2.095 . S
Mn684 O699 2.162 . S
Mn684 O700 2.297 . S
Mn684 O708 2.385 . S
Mn684 O709 2.209 . S
Mn684 O710 2.094 1_554 S
Mn685 O690 2.121 1_556 S
Mn685 N692 2.257 . S
Mn685 N701 2.282 . S
Mn685 O709 2.215 1_556 S
Mn685 O711 2.117 . S
C686 O708 1.234 . S
C686 O709 1.283 . S
C687 O699 1.281 . S
C687 O700 1.236 . S
C688 O710 1.240 . S
C688 O711 1.264 . S
O689 Mn684 2.095 . S
O689 C698 1.250 . S
O690 Mn685 2.121 1_554 S
O690 C698 1.258 . S
C691 N692 1.311 1_554 S
C691 C695 1.492 . S
C691 H697 0.944 . S
N692 Mn685 2.257 . S
N692 C691 1.311 1_556 S
N692 C696 1.362 . S
C693 C694 1.258 1_565 S
C693 C696 1.431 . S
C693 C713 1.449 . S
C694 C693 1.258 1_545 S
C694 C695 1.470 1_546 S
C694 H714 0.931 . S
C695 C691 1.492 . S
C695 C694 1.470 1_564 S
C695 H715 0.908 1_565 S
C696 N692 1.362 . S
C696 C693 1.431 . S
C696 C706 1.476 . S
H697 C691 0.944 . S
C698 O689 1.250 . S
C698 O690 1.258 . S
O699 Mn684 2.162 . S
O699 C687 1.281 . S
O700 Mn684 2.297 . S
O700 C687 1.236 . S
N701 Mn685 2.282 . S
N701 C702 1.328 . S
N701 C706 1.318 . S
C702 N701 1.328 . S
C702 C703 1.457 . S
C702 H707 0.929 . S
C703 C702 1.457 . S
C703 C704 1.291 . S
C703 H716 0.931 . S
C704 C703 1.291 . S
C704 C705 1.373 . S
C704 H717 0.929 . S
C705 C704 1.373 . S
C705 C706 1.396 . S
C705 C712 1.403 . S
C706 C696 1.476 . S
C706 N701 1.318 . S
C706 C705 1.396 . S
H707 C702 0.929 . S
O708 Mn684 2.385 . S
O708 C686 1.234 . S
O709 Mn684 2.209 . S
O709 Mn685 2.215 1_554 S
O709 C686 1.283 . S
O710 Mn684 2.094 1_556 S
O710 C688 1.240 . S
O711 Mn685 2.117 . S
O711 C688 1.264 . S
C712 C705 1.403 . S
C712 C713 1.399 . S
C712 H718 0.929 . S
C713 C693 1.449 . S
C713 C712 1.399 . S
C713 H719 0.930 1_565 S
H714 C694 0.931 . S
H715 C695 0.908 1_545 S
H716 C703 0.931 . S
H717 C704 0.929 . S
H718 C712 0.929 . S
H719 C713 0.930 1_545 S
Mn720 O725 2.095 1_554 S
Mn720 O735 2.162 . S
Mn720 O736 2.297 . S
Mn720 O744 2.385 . S
Mn720 O745 2.209 1_554 S
Mn720 O746 2.094 1_554 S
Mn721 O726 2.121 . S
Mn721 N728 2.257 . S
Mn721 N737 2.282 . S
Mn721 O745 2.215 . S
Mn721 O747 2.117 . S
C722 O744 1.244 . S
C722 O745 1.275 1_554 S
C723 O735 1.281 . S
C723 O736 1.236 . S
C724 O746 1.240 . S
C724 O747 1.264 . S
O725 Mn720 2.095 1_556 S
O725 C734 1.250 . S
O726 Mn721 2.121 . S
O726 C734 1.258 . S
C727 N728 1.326 . S
C727 C731 1.460 . S
C727 H733 0.929 . S
N728 Mn721 2.257 . S
N728 C727 1.326 . S
N728 C732 1.362 . S
C729 C730 1.258 . S
C729 C732 1.431 . S
C729 C749 1.449 . S
C730 C729 1.258 . S
C730 C731 1.477 . S
C730 H750 0.931 . S
C731 C727 1.460 . S
C731 C730 1.477 . S
C731 H751 0.930 . S
C732 N728 1.362 . S
C732 C729 1.431 . S
C732 C742 1.476 . S
H733 C727 0.929 . S
C734 O725 1.250 . S
C734 O726 1.258 . S
O735 Mn720 2.162 . S
O735 C723 1.281 . S
O736 Mn720 2.297 . S
O736 C723 1.236 . S
N737 Mn721 2.282 . S
N737 C738 1.328 . S
N737 C742 1.318 . S
C738 N737 1.328 . S
C738 C739 1.457 . S
C738 H743 0.929 . S
C739 C738 1.457 . S
C739 C740 1.291 . S
C739 H752 0.931 . S
C740 C739 1.291 . S
C740 C741 1.373 . S
C740 H753 0.929 . S
C741 C740 1.373 . S
C741 C742 1.396 . S
C741 C748 1.403 . S
C742 C732 1.476 . S
C742 N737 1.318 . S
C742 C741 1.396 . S
H743 C738 0.929 . S
O744 Mn720 2.385 . S
O744 C722 1.244 . S
O745 Mn720 2.209 1_556 S
O745 Mn721 2.215 . S
O745 C722 1.275 1_556 S
O746 Mn720 2.094 1_556 S
O746 C724 1.240 . S
O747 Mn721 2.117 . S
O747 C724 1.264 . S
C748 C741 1.403 . S
C748 C749 1.399 . S
C748 H754 0.929 . S
C749 C729 1.449 . S
C749 C748 1.399 . S
C749 H755 0.930 . S
H750 C730 0.931 . S
H751 C731 0.930 . S
H752 C739 0.931 . S
H753 C740 0.929 . S
H754 C748 0.929 . S
H755 C749 0.930 . S
Mn756 O761 2.095 . S
Mn756 O771 2.162 . S
Mn756 O772 2.297 . S
Mn756 O780 2.385 . S
Mn756 O781 2.209 . S
Mn756 O782 2.094 . S
Mn757 O762 2.121 . S
Mn757 N764 2.257 . S
Mn757 N773 2.282 . S
Mn757 O781 2.215 . S
Mn757 O783 2.117 . S
C758 O780 1.234 . S
C758 O781 1.283 . S
C759 O771 1.281 . S
C759 O772 1.236 . S
C760 O782 1.240 . S
C760 O783 1.264 . S
O761 Mn756 2.095 . S
O761 C770 1.250 . S
O762 Mn757 2.121 . S
O762 C770 1.258 . S
C763 N764 1.326 . S
C763 C767 1.460 . S
C763 H769 0.929 . S
N764 Mn757 2.257 . S
N764 C763 1.326 . S
N764 C768 1.362 . S
C765 C766 1.258 . S
C765 C768 1.431 . S
C765 C785 1.449 . S
C766 C765 1.258 . S
C766 C767 1.477 . S
C766 H786 0.931 . S
C767 C763 1.460 . S
C767 C766 1.477 . S
C767 H787 0.930 . S
C768 N764 1.362 . S
C768 C765 1.431 . S
C768 C778 1.476 . S
H769 C763 0.929 . S
C770 O761 1.250 . S
C770 O762 1.258 . S
O771 Mn756 2.162 . S
O771 C759 1.281 . S
O772 Mn756 2.297 . S
O772 C759 1.236 . S
N773 Mn757 2.282 . S
N773 C774 1.328 . S
N773 C778 1.318 . S
C774 N773 1.328 . S
C774 C775 1.457 . S
C774 H779 0.929 . S
C775 C774 1.457 . S
C775 C776 1.291 . S
C775 H788 0.931 . S
C776 C775 1.291 . S
C776 C777 1.373 . S
C776 H789 0.929 . S
C777 C776 1.373 . S
C777 C778 1.396 . S
C777 C784 1.403 . S
C778 C768 1.476 . S
C778 N773 1.318 . S
C778 C777 1.396 . S
H779 C774 0.929 . S
O780 Mn756 2.385 . S
O780 C758 1.234 . S
O781 Mn756 2.209 . S
O781 Mn757 2.215 . S
O781 C758 1.283 . S
O782 Mn756 2.094 . S
O782 C760 1.240 . S
O783 Mn757 2.117 . S
O783 C760 1.264 . S
C784 C777 1.403 . S
C784 C785 1.399 . S
C784 H790 0.929 . S
C785 C765 1.449 . S
C785 C784 1.399 . S
C785 H791 0.930 . S
H786 C766 0.931 . S
H787 C767 0.930 . S
H788 C775 0.931 . S
H789 C776 0.929 . S
H790 C784 0.929 . S
H791 C785 0.930 . S
Mn792 O797 2.095 . S
Mn792 O807 2.162 . S
Mn792 O808 2.297 . S
Mn792 O816 2.385 . S
Mn792 O817 2.209 . S
Mn792 O818 2.094 . S
Mn793 O798 2.121 . S
Mn793 N800 2.257 . S
Mn793 N809 2.282 . S
Mn793 O817 2.215 . S
Mn793 O819 2.117 . S
C794 O816 1.234 . S
C794 O817 1.283 . S
C795 O807 1.281 . S
C795 O808 1.236 . S
C796 O818 1.240 . S
C796 O819 1.264 . S
O797 Mn792 2.095 . S
O797 C806 1.250 . S
O798 Mn793 2.121 . S
O798 C806 1.258 . S
C799 N800 1.326 . S
C799 C803 1.460 . S
C799 H805 0.929 . S
N800 Mn793 2.257 . S
N800 C799 1.326 . S
N800 C804 1.362 . S
C801 C802 1.258 . S
C801 C804 1.431 . S
C801 C821 1.449 . S
C802 C801 1.258 . S
C802 C803 1.477 . S
C802 H822 0.931 . S
C803 C799 1.460 . S
C803 C802 1.477 . S
C803 H823 0.930 . S
C804 N800 1.362 . S
C804 C801 1.431 . S
C804 C814 1.476 . S
H805 C799 0.929 . S
C806 O797 1.250 . S
C806 O798 1.258 . S
O807 Mn792 2.162 . S
O807 C795 1.281 . S
O808 Mn792 2.297 . S
O808 C795 1.236 . S
N809 Mn793 2.282 . S
N809 C810 1.328 . S
N809 C814 1.318 . S
C810 N809 1.328 . S
C810 C811 1.457 . S
C810 H815 0.929 . S
C811 C810 1.457 . S
C811 C812 1.291 . S
C811 H824 0.931 . S
C812 C811 1.291 . S
C812 C813 1.373 . S
C812 H825 0.929 . S
C813 C812 1.373 . S
C813 C814 1.396 . S
C813 C820 1.403 . S
C814 C804 1.476 . S
C814 N809 1.318 . S
C814 C813 1.396 . S
H815 C810 0.929 . S
O816 Mn792 2.385 . S
O816 C794 1.234 . S
O817 Mn792 2.209 . S
O817 Mn793 2.215 . S
O817 C794 1.283 . S
O818 Mn792 2.094 . S
O818 C796 1.240 . S
O819 Mn793 2.117 . S
O819 C796 1.264 . S
C820 C813 1.403 . S
C820 C821 1.399 . S
C820 H826 0.929 . S
C821 C801 1.449 . S
C821 C820 1.399 . S
C821 H827 0.930 . S
H822 C802 0.931 . S
H823 C803 0.930 . S
H824 C811 0.931 . S
H825 C812 0.929 . S
H826 C820 0.929 . S
H827 C821 0.930 . S
Mn828 O833 2.095 . S
Mn828 O843 2.162 . S
Mn828 O844 2.297 . S
Mn828 O852 2.385 . S
Mn828 O853 2.209 . S
Mn828 O854 2.094 . S
Mn829 O834 2.121 . S
Mn829 N836 2.257 . S
Mn829 N845 2.282 . S
Mn829 O853 2.215 . S
Mn829 O855 2.117 . S
C830 O852 1.234 . S
C830 O853 1.283 . S
C831 O843 1.281 . S
C831 O844 1.236 . S
C832 O854 1.240 . S
C832 O855 1.264 . S
O833 Mn828 2.095 . S
O833 C842 1.250 . S
O834 Mn829 2.121 . S
O834 C842 1.258 . S
C835 N836 1.326 . S
C835 C839 1.460 . S
C835 H841 0.929 . S
N836 Mn829 2.257 . S
N836 C835 1.326 . S
N836 C840 1.362 . S
C837 C838 1.258 . S
C837 C840 1.431 . S
C837 C857 1.449 . S
C838 C837 1.258 . S
C838 C839 1.477 . S
C838 H858 0.931 . S
C839 C835 1.460 . S
C839 C838 1.477 . S
C839 H859 0.930 . S
C840 N836 1.362 . S
C840 C837 1.431 . S
C840 C850 1.476 . S
H841 C835 0.929 . S
C842 O833 1.250 . S
C842 O834 1.258 . S
O843 Mn828 2.162 . S
O843 C831 1.281 . S
O844 Mn828 2.297 . S
O844 C831 1.236 . S
N845 Mn829 2.282 . S
N845 C846 1.328 . S
N845 C850 1.318 . S
C846 N845 1.328 . S
C846 C847 1.457 . S
C846 H851 0.929 . S
C847 C846 1.457 . S
C847 C848 1.291 . S
C847 H860 0.931 . S
C848 C847 1.291 . S
C848 C849 1.373 . S
C848 H861 0.929 . S
C849 C848 1.373 . S
C849 C850 1.396 . S
C849 C856 1.403 . S
C850 C840 1.476 . S
C850 N845 1.318 . S
C850 C849 1.396 . S
H851 C846 0.929 . S
O852 Mn828 2.385 . S
O852 C830 1.234 . S
O853 Mn828 2.209 . S
O853 Mn829 2.215 . S
O853 C830 1.283 . S
O854 Mn828 2.094 . S
O854 C832 1.240 . S
O855 Mn829 2.117 . S
O855 C832 1.264 . S
C856 C849 1.403 . S
C856 C857 1.399 . S
C856 H862 0.929 . S
C857 C837 1.449 . S
C857 C856 1.399 . S
C857 H863 0.930 . S
H858 C838 0.931 . S
H859 C839 0.930 . S
H860 C847 0.931 . S
H861 C848 0.929 . S
H862 C856 0.929 . S
H863 C857 0.930 . S
Co864 N869 2.057 1_554 S
Co864 O881 2.021 1_554 S
Co864 O884 2.062 1_455 S
Co864 O888 2.117 . S
Co864 O889 2.020 . S
C865 O885 1.259 . S
C865 O888 1.258 . S
Co866 N875 2.057 . S
Co866 O882 2.115 . S
Co866 O883 2.020 1_455 S
Co866 O885 2.021 . S
Co866 O890 2.062 . S
C867 N869 1.316 . S
C867 N870 1.347 1_455 S
C867 H872 0.931 . S
C868 N869 1.369 1_655 S
C868 C871 1.359 . S
C868 H873 0.927 1_655 S
N869 Co864 2.057 1_556 S
N869 C867 1.316 . S
N869 C868 1.369 1_455 S
N870 C867 1.347 1_655 S
N870 C871 1.373 . S
C871 C868 1.359 . S
C871 N870 1.373 . S
C871 H892 0.931 . S
H872 C867 0.931 . S
H873 C868 0.927 1_455 S
C874 O881 1.259 1_564 S
C874 O882 1.259 1_565 S
N875 Co866 2.057 . S
N875 C876 1.316 . S
N875 C877 1.375 1_545 S
C876 N875 1.316 . S
C876 N878 1.347 . S
C876 H887 0.931 . S
C877 N875 1.375 1_565 S
C877 C879 1.350 . S
C877 H886 0.930 . S
N878 C876 1.347 . S
N878 C879 1.373 1_545 S
C879 C877 1.350 . S
C879 N878 1.373 1_565 S
C879 H893 0.931 . S
C880 O883 1.256 . S
C880 O884 1.255 . S
O881 Co864 2.021 1_556 S
O881 C874 1.259 1_546 S
O882 Co866 2.115 . S
O882 C874 1.259 1_545 S
O883 Co866 2.020 1_655 S
O883 C880 1.256 . S
O884 Co864 2.062 1_655 S
O884 C880 1.255 . S
O885 C865 1.259 . S
O885 Co866 2.021 . S
H886 C877 0.930 . S
H887 C876 0.931 . S
O888 Co864 2.117 . S
O888 C865 1.258 . S
O889 Co864 2.020 . S
O889 C891 1.256 . S
O890 Co866 2.062 . S
O890 C891 1.255 . S
C891 O889 1.256 . S
C891 O890 1.255 . S
H892 C871 0.931 . S
H893 C879 0.931 . S
Co894 N899 2.057 . S
Co894 O911 2.021 . S
Co894 O914 2.062 . S
Co894 O918 2.117 . S
Co894 O919 2.020 . S
C895 O915 1.259 . S
C895 O918 1.258 . S
Co896 N905 2.057 . S
Co896 O912 2.117 . S
Co896 O913 2.020 . S
Co896 O915 2.021 . S
Co896 O920 2.062 . S
C897 N899 1.316 . S
C897 N900 1.347 . S
C897 H902 0.931 . S
C898 N899 1.375 . S
C898 C901 1.350 . S
C898 H903 0.930 . S
N899 Co894 2.057 . S
N899 C897 1.316 . S
N899 C898 1.375 . S
N900 C897 1.347 . S
N900 C901 1.373 . S
C901 C898 1.350 . S
C901 N900 1.373 . S
C901 H922 0.931 . S
H902 C897 0.931 . S
H903 C898 0.930 . S
C904 O911 1.259 . S
C904 O912 1.258 . S
N905 Co896 2.057 . S
N905 C906 1.316 . S
N905 C907 1.375 . S
C906 N905 1.316 . S
C906 N908 1.347 . S
C906 H917 0.931 . S
C907 N905 1.375 . S
C907 C909 1.350 . S
C907 H916 0.930 . S
N908 C906 1.347 . S
N908 C909 1.373 . S
C909 C907 1.350 . S
C909 N908 1.373 . S
C909 H923 0.931 . S
C910 O913 1.256 . S
C910 O914 1.255 . S
O911 Co894 2.021 . S
O911 C904 1.259 . S
O912 Co896 2.117 . S
O912 C904 1.258 . S
O913 Co896 2.020 . S
O913 C910 1.256 . S
O914 Co894 2.062 . S
O914 C910 1.255 . S
O915 C895 1.259 . S
O915 Co896 2.021 . S
H916 C907 0.930 . S
H917 C906 0.931 . S
O918 Co894 2.117 . S
O918 C895 1.258 . S
O919 Co894 2.020 . S
O919 C921 1.256 . S
O920 Co896 2.062 . S
O920 C921 1.255 . S
C921 O919 1.256 . S
C921 O920 1.255 . S
H922 C901 0.931 . S
H923 C909 0.931 . S
Co924 N929 2.057 . S
Co924 O941 2.021 1_545 S
Co924 O944 2.062 . S
Co924 O948 2.117 . S
Co924 O949 2.020 . S
C925 O945 1.259 . S
C925 O948 1.258 . S
Co926 N935 2.057 . S
Co926 O942 2.117 . S
Co926 O943 2.020 . S
Co926 O945 2.021 . S
Co926 O950 2.062 . S
C927 N929 1.316 1_565 S
C927 N930 1.347 1_565 S
C927 H932 0.931 . S
C928 N929 1.375 . S
C928 C931 1.350 . S
C928 H933 0.930 . S
N929 Co924 2.057 . S
N929 C927 1.316 1_545 S
N929 C928 1.375 . S
N930 C927 1.347 1_545 S
N930 C931 1.373 . S
C931 C928 1.350 . S
C931 N930 1.373 . S
C931 H952 0.931 . S
H932 C927 0.931 . S
H933 C928 0.930 . S
C934 O941 1.259 . S
C934 O942 1.258 1_565 S
N935 Co926 2.057 . S
N935 C936 1.316 . S
N935 C937 1.375 . S
C936 N935 1.316 . S
C936 N938 1.347 . S
C936 H947 0.931 . S
C937 N935 1.375 . S
C937 C939 1.350 . S
C937 H946 0.930 . S
N938 C936 1.347 . S
N938 C939 1.373 . S
C939 C937 1.350 . S
C939 N938 1.373 . S
C939 H953 0.931 . S
C940 O943 1.256 . S
C940 O944 1.255 . S
O941 Co924 2.021 1_565 S
O941 C934 1.259 . S
O942 Co926 2.117 . S
O942 C934 1.258 1_545 S
O943 Co926 2.020 . S
O943 C940 1.256 . S
O944 Co924 2.062 . S
O944 C940 1.255 . S
O945 C925 1.259 . S
O945 Co926 2.021 . S
H946 C937 0.930 . S
H947 C936 0.931 . S
O948 Co924 2.117 . S
O948 C925 1.258 . S
O949 Co924 2.020 . S
O949 C951 1.256 . S
O950 Co926 2.062 . S
O950 C951 1.255 . S
C951 O949 1.256 . S
C951 O950 1.255 . S
H952 C931 0.931 . S
H953 C939 0.931 . S
Co954 N959 2.057 . S
Co954 O971 2.021 . S
Co954 O974 2.062 . S
Co954 O978 2.117 . S
Co954 O979 2.020 . S
C955 O975 1.259 . S
C955 O978 1.258 . S
Co956 N965 2.057 . S
Co956 O972 2.117 . S
Co956 O973 2.020 . S
Co956 O975 2.021 . S
Co956 O980 2.062 . S
C957 N959 1.316 . S
C957 N960 1.347 . S
C957 H962 0.931 . S
C958 N959 1.375 . S
C958 C961 1.350 . S
C958 H963 0.930 . S
N959 Co954 2.057 . S
N959 C957 1.316 . S
N959 C958 1.375 . S
N960 C957 1.347 . S
N960 C961 1.373 . S
C961 C958 1.350 . S
C961 N960 1.373 . S
C961 H982 0.931 . S
H962 C957 0.931 . S
H963 C958 0.930 . S
C964 O971 1.259 . S
C964 O972 1.258 . S
N965 Co956 2.057 . S
N965 C966 1.316 . S
N965 C967 1.375 . S
C966 N965 1.316 . S
C966 N968 1.347 . S
C966 H977 0.931 . S
C967 N965 1.375 . S
C967 C969 1.350 . S
C967 H976 0.930 . S
N968 C966 1.347 . S
N968 C969 1.373 . S
C969 C967 1.350 . S
C969 N968 1.373 . S
C969 H983 0.931 . S
C970 O973 1.256 . S
C970 O974 1.255 . S
O971 Co954 2.021 . S
O971 C964 1.259 . S
O972 Co956 2.117 . S
O972 C964 1.258 . S
O973 Co956 2.020 . S
O973 C970 1.256 . S
O974 Co954 2.062 . S
O974 C970 1.255 . S
O975 C955 1.259 . S
O975 Co956 2.021 . S
H976 C967 0.930 . S
H977 C966 0.931 . S
O978 Co954 2.117 . S
O978 C955 1.258 . S
O979 Co954 2.020 . S
O979 C981 1.256 . S
O980 Co956 2.062 . S
O980 C981 1.255 . S
C981 O979 1.256 . S
C981 O980 1.255 . S
H982 C961 0.931 . S
H983 C969 0.931 . S
Co984 N989 2.057 1_545 S
Co984 O1001 2.021 . S
Co984 O1004 2.062 . S
Co984 O1008 2.117 . S
Co984 O1009 2.020 1_455 S
C985 O1005 1.259 . S
C985 O1008 1.258 . S
Co986 N995 2.057 . S
Co986 O1002 2.117 . S
Co986 O1003 2.020 . S
Co986 O1005 2.021 . S
Co986 O1010 2.062 1_455 S
C987 N989 1.316 . S
C987 N990 1.347 . S
C987 H992 0.931 . S
C988 N989 1.375 1_655 S
C988 C991 1.350 . S
C988 H993 0.930 . S
N989 Co984 2.057 1_565 S
N989 C987 1.316 . S
N989 C988 1.375 1_455 S
N990 C987 1.347 . S
N990 C991 1.373 1_455 S
C991 C988 1.350 . S
C991 N990 1.373 1_655 S
C991 H1012 0.931 . S
H992 C987 0.931 . S
H993 C988 0.930 . S
C994 O1001 1.259 . S
C994 O1002 1.258 . S
N995 Co986 2.057 . S
N995 C996 1.316 . S
N995 C997 1.375 . S
C996 N995 1.316 . S
C996 N998 1.347 . S
C996 H1007 0.931 . S
C997 N995 1.375 . S
C997 C999 1.350 . S
C997 H1006 0.930 . S
N998 C996 1.347 . S
N998 C999 1.373 . S
C999 C997 1.350 . S
C999 N998 1.373 . S
C999 H1013 0.931 . S
C1000 O1003 1.256 . S
C1000 O1004 1.255 . S
O1001 Co984 2.021 . S
O1001 C994 1.259 . S
O1002 Co986 2.117 . S
O1002 C994 1.258 . S
O1003 Co986 2.020 . S
O1003 C1000 1.256 . S
O1004 Co984 2.062 . S
O1004 C1000 1.255 . S
O1005 C985 1.259 . S
O1005 Co986 2.021 . S
H1006 C997 0.930 . S
H1007 C996 0.931 . S
O1008 Co984 2.117 . S
O1008 C985 1.258 . S
O1009 Co984 2.020 1_655 S
O1009 C1011 1.256 . S
O1010 Co986 2.062 1_655 S
O1010 C1011 1.255 . S
C1011 O1009 1.256 . S
C1011 O1010 1.255 . S
H1012 C991 0.931 . S
H1013 C999 0.931 . S
Co1014 N1019 2.057 . S
Co1014 O1031 2.021 . S
Co1014 O1034 2.062 . S
Co1014 O1038 2.117 . S
Co1014 O1039 2.020 . S
C1015 O1035 1.259 . S
C1015 O1038 1.258 . S
Co1016 N1025 2.057 . S
Co1016 O1032 2.117 . S
Co1016 O1033 2.020 . S
Co1016 O1035 2.021 . S
Co1016 O1040 2.062 . S
C1017 N1019 1.316 . S
C1017 N1020 1.347 . S
C1017 H1022 0.931 . S
C1018 N1019 1.375 . S
C1018 C1021 1.350 . S
C1018 H1023 0.930 . S
N1019 Co1014 2.057 . S
N1019 C1017 1.316 . S
N1019 C1018 1.375 . S
N1020 C1017 1.347 . S
N1020 C1021 1.373 . S
C1021 C1018 1.350 . S
C1021 N1020 1.373 . S
C1021 H1042 0.931 . S
H1022 C1017 0.931 . S
H1023 C1018 0.930 . S
C1024 O1031 1.259 . S
C1024 O1032 1.258 . S
N1025 Co1016 2.057 . S
N1025 C1026 1.316 . S
N1025 C1027 1.375 . S
C1026 N1025 1.316 . S
C1026 N1028 1.347 . S
C1026 H1037 0.931 . S
C1027 N1025 1.375 . S
C1027 C1029 1.350 . S
C1027 H1036 0.930 . S
N1028 C1026 1.347 . S
N1028 C1029 1.373 . S
C1029 C1027 1.350 . S
C1029 N1028 1.373 . S
C1029 H1043 0.931 . S
C1030 O1033 1.256 . S
C1030 O1034 1.255 . S
O1031 Co1014 2.021 . S
O1031 C1024 1.259 . S
O1032 Co1016 2.117 . S
O1032 C1024 1.258 . S
O1033 Co1016 2.020 . S
O1033 C1030 1.256 . S
O1034 Co1014 2.062 . S
O1034 C1030 1.255 . S
O1035 C1015 1.259 . S
O1035 Co1016 2.021 . S
H1036 C1027 0.930 . S
H1037 C1026 0.931 . S
O1038 Co1014 2.117 . S
O1038 C1015 1.258 . S
O1039 Co1014 2.020 . S
O1039 C1041 1.256 . S
O1040 Co1016 2.062 . S
O1040 C1041 1.255 . S
C1041 O1039 1.256 . S
C1041 O1040 1.255 . S
H1042 C1021 0.931 . S
H1043 C1029 0.931 . S
Co1044 N1049 2.057 1_554 S
Co1044 O1061 2.021 . S
Co1044 O1064 2.062 1_554 S
Co1044 O1068 2.117 . S
Co1044 O1069 2.020 1_545 S
C1045 O1065 1.259 . S
C1045 O1068 1.258 . S
Co1046 N1055 2.057 . S
Co1046 O1062 2.117 . S
Co1046 O1063 2.020 . S
Co1046 O1065 2.021 . S
Co1046 O1070 2.062 . S
C1047 N1049 1.316 . S
C1047 N1050 1.347 . S
C1047 H1052 0.931 . S
C1048 N1049 1.375 . S
C1048 C1051 1.350 . S
C1048 H1053 0.933 . S
N1049 Co1044 2.057 1_556 S
N1049 C1047 1.316 . S
N1049 C1048 1.375 . S
N1050 C1047 1.347 . S
N1050 C1051 1.373 . S
C1051 C1048 1.350 . S
C1051 N1050 1.373 . S
C1051 H1072 0.910 1_545 S
H1052 C1047 0.931 . S
H1053 C1048 0.933 . S
C1054 O1061 1.259 . S
C1054 O1062 1.258 . S
N1055 Co1046 2.057 . S
N1055 C1056 1.316 . S
N1055 C1057 1.375 . S
C1056 N1055 1.316 . S
C1056 N1058 1.347 . S
C1056 H1067 0.931 . S
C1057 N1055 1.375 . S
C1057 C1059 1.350 . S
C1057 H1066 0.930 . S
N1058 C1056 1.347 . S
N1058 C1059 1.373 . S
C1059 C1057 1.350 . S
C1059 N1058 1.373 . S
C1059 H1073 0.931 . S
C1060 O1063 1.256 . S
C1060 O1064 1.255 1_554 S
O1061 Co1044 2.021 . S
O1061 C1054 1.259 . S
O1062 Co1046 2.117 . S
O1062 C1054 1.258 . S
O1063 Co1046 2.020 . S
O1063 C1060 1.256 . S
O1064 Co1044 2.062 1_556 S
O1064 C1060 1.255 1_556 S
O1065 C1045 1.259 . S
O1065 Co1046 2.021 . S
H1066 C1057 0.930 . S
H1067 C1056 0.931 . S
O1068 Co1044 2.117 . S
O1068 C1045 1.258 . S
O1069 Co1044 2.020 1_565 S
O1069 C1071 1.256 . S
O1070 Co1046 2.062 . S
O1070 C1071 1.255 1_545 S
C1071 O1069 1.256 . S
C1071 O1070 1.255 1_565 S
H1072 C1051 0.910 1_565 S
H1073 C1059 0.931 . S
Co1074 N1079 2.057 . S
Co1074 O1091 2.021 . S
Co1074 O1094 2.062 . S
Co1074 O1098 2.117 . S
Co1074 O1099 2.020 . S
C1075 O1095 1.259 . S
C1075 O1098 1.258 . S
Co1076 N1085 2.057 . S
Co1076 O1092 2.117 . S
Co1076 O1093 2.020 . S
Co1076 O1095 2.021 . S
Co1076 O1100 2.062 . S
C1077 N1079 1.316 . S
C1077 N1080 1.347 . S
C1077 H1082 0.931 . S
C1078 N1079 1.375 . S
C1078 C1081 1.350 . S
C1078 H1083 0.930 . S
N1079 Co1074 2.057 . S
N1079 C1077 1.316 . S
N1079 C1078 1.375 . S
N1080 C1077 1.347 . S
N1080 C1081 1.373 . S
C1081 C1078 1.350 . S
C1081 N1080 1.373 . S
C1081 H1102 0.931 . S
H1082 C1077 0.931 . S
H1083 C1078 0.930 . S
C1084 O1091 1.259 . S
C1084 O1092 1.258 . S
N1085 Co1076 2.057 . S
N1085 C1086 1.316 . S
N1085 C1087 1.375 . S
C1086 N1085 1.316 . S
C1086 N1088 1.347 . S
C1086 H1097 0.931 . S
C1087 N1085 1.375 . S
C1087 C1089 1.350 . S
C1087 H1096 0.930 . S
N1088 C1086 1.347 . S
N1088 C1089 1.373 . S
C1089 C1087 1.350 . S
C1089 N1088 1.373 . S
C1089 H1103 0.931 . S
C1090 O1093 1.256 . S
C1090 O1094 1.255 . S
O1091 Co1074 2.021 . S
O1091 C1084 1.259 . S
O1092 Co1076 2.117 . S
O1092 C1084 1.258 . S
O1093 Co1076 2.020 . S
O1093 C1090 1.256 . S
O1094 Co1074 2.062 . S
O1094 C1090 1.255 . S
O1095 C1075 1.259 . S
O1095 Co1076 2.021 . S
H1096 C1087 0.930 . S
H1097 C1086 0.931 . S
O1098 Co1074 2.117 . S
O1098 C1075 1.258 . S
O1099 Co1074 2.020 . S
O1099 C1101 1.256 . S
O1100 Co1076 2.062 . S
O1100 C1101 1.255 . S
C1101 O1099 1.256 . S
C1101 O1100 1.255 . S
H1102 C1081 0.931 . S
H1103 C1089 0.931 . S
Co1104 N1109 2.057 . S
Co1104 O1121 2.021 1_554 S
Co1104 O1124 2.062 . S
Co1104 O1128 2.117 . S
Co1104 O1129 2.020 . S
C1105 O1125 1.259 . S
C1105 O1128 1.258 . S
Co1106 N1115 2.057 . S
Co1106 O1122 2.071 1_554 S
Co1106 O1123 2.020 . S
Co1106 O1125 2.021 . S
Co1106 O1130 2.062 . S
C1107 N1109 1.316 1_556 S
C1107 N1110 1.359 . S
C1107 H1112 0.931 . S
C1108 N1109 1.375 . S
C1108 C1111 1.350 . S
C1108 H1113 0.930 . S
N1109 Co1104 2.057 . S
N1109 C1107 1.316 1_554 S
N1109 C1108 1.375 . S
N1110 C1107 1.359 . S
N1110 C1111 1.320 1_556 S
C1111 C1108 1.350 . S
C1111 N1110 1.320 1_554 S
C1111 H1132 0.931 . S
H1112 C1107 0.931 . S
H1113 C1108 0.930 . S
C1114 O1121 1.259 . S
C1114 O1122 1.295 . S
N1115 Co1106 2.057 . S
N1115 C1116 1.316 . S
N1115 C1117 1.375 . S
C1116 N1115 1.316 . S
C1116 N1118 1.347 . S
C1116 H1127 0.931 . S
C1117 N1115 1.375 . S
C1117 C1119 1.350 . S
C1117 H1126 0.930 . S
N1118 C1116 1.347 . S
N1118 C1119 1.373 . S
C1119 C1117 1.350 . S
C1119 N1118 1.373 . S
C1119 H1133 0.931 . S
C1120 O1123 1.256 . S
C1120 O1124 1.255 . S
O1121 Co1104 2.021 1_556 S
O1121 C1114 1.259 . S
O1122 Co1106 2.071 1_556 S
O1122 C1114 1.295 . S
O1123 Co1106 2.020 . S
O1123 C1120 1.256 . S
O1124 Co1104 2.062 . S
O1124 C1120 1.255 . S
O1125 C1105 1.259 . S
O1125 Co1106 2.021 . S
H1126 C1117 0.930 . S
H1127 C1116 0.931 . S
O1128 Co1104 2.117 . S
O1128 C1105 1.258 . S
O1129 Co1104 2.020 . S
O1129 C1131 1.256 . S
O1130 Co1106 2.062 . S
O1130 C1131 1.255 . S
C1131 O1129 1.256 . S
C1131 O1130 1.255 . S
H1132 C1111 0.931 . S
H1133 C1119 0.931 . S
Co1134 N1139 2.057 . S
Co1134 O1151 2.021 . S
Co1134 O1154 2.062 . S
Co1134 O1158 2.117 . S
Co1134 O1159 2.020 . S
C1135 O1155 1.259 . S
C1135 O1158 1.258 . S
Co1136 N1145 2.057 . S
Co1136 O1152 2.117 . S
Co1136 O1153 2.020 . S
Co1136 O1155 2.021 . S
Co1136 O1160 2.062 . S
C1137 N1139 1.316 . S
C1137 N1140 1.347 . S
C1137 H1142 0.931 . S
C1138 N1139 1.375 . S
C1138 C1141 1.350 . S
C1138 H1143 0.930 . S
N1139 Co1134 2.057 . S
N1139 C1137 1.316 . S
N1139 C1138 1.375 . S
N1140 C1137 1.347 . S
N1140 C1141 1.373 . S
C1141 C1138 1.350 . S
C1141 N1140 1.373 . S
C1141 H1162 0.931 . S
H1142 C1137 0.931 . S
H1143 C1138 0.930 . S
C1144 O1151 1.259 . S
C1144 O1152 1.258 . S
N1145 Co1136 2.057 . S
N1145 C1146 1.316 . S
N1145 C1147 1.375 . S
C1146 N1145 1.316 . S
C1146 N1148 1.347 . S
C1146 H1157 0.931 . S
C1147 N1145 1.375 . S
C1147 C1149 1.350 . S
C1147 H1156 0.930 . S
N1148 C1146 1.347 . S
N1148 C1149 1.373 . S
C1149 C1147 1.350 . S
C1149 N1148 1.373 . S
C1149 H1163 0.931 . S
C1150 O1153 1.256 . S
C1150 O1154 1.255 . S
O1151 Co1134 2.021 . S
O1151 C1144 1.259 . S
O1152 Co1136 2.117 . S
O1152 C1144 1.258 . S
O1153 Co1136 2.020 . S
O1153 C1150 1.256 . S
O1154 Co1134 2.062 . S
O1154 C1150 1.255 . S
O1155 C1135 1.259 . S
O1155 Co1136 2.021 . S
H1156 C1147 0.930 . S
H1157 C1146 0.931 . S
O1158 Co1134 2.117 . S
O1158 C1135 1.258 . S
O1159 Co1134 2.020 . S
O1159 C1161 1.256 . S
O1160 Co1136 2.062 . S
O1160 C1161 1.255 . S
C1161 O1159 1.256 . S
C1161 O1160 1.255 . S
H1162 C1141 0.931 . S
H1163 C1149 0.931 . S
Co1164 N1169 2.057 . S
Co1164 O1181 2.021 1_455 S
Co1164 O1184 2.062 . S
Co1164 O1188 2.117 . S
Co1164 O1189 2.020 . S
C1165 O1185 1.259 . S
C1165 O1188 1.258 . S
Co1166 N1175 2.057 . S
Co1166 O1182 2.117 1_455 S
Co1166 O1183 2.020 . S
Co1166 O1185 2.021 . S
Co1166 O1190 2.062 . S
C1167 N1169 1.316 1_655 S
C1167 N1170 1.347 . S
C1167 H1172 0.931 . S
C1168 N1169 1.375 . S
C1168 C1171 1.350 . S
C1168 H1173 0.930 . S
N1169 Co1164 2.057 . S
N1169 C1167 1.316 1_455 S
N1169 C1168 1.375 . S
N1170 C1167 1.347 . S
N1170 C1171 1.373 1_655 S
C1171 C1168 1.350 . S
C1171 N1170 1.373 1_455 S
C1171 H1192 0.931 . S
H1172 C1167 0.931 . S
H1173 C1168 0.930 . S
C1174 O1181 1.259 . S
C1174 O1182 1.258 . S
N1175 Co1166 2.057 . S
N1175 C1176 1.316 . S
N1175 C1177 1.375 . S
C1176 N1175 1.316 . S
C1176 N1178 1.347 . S
C1176 H1187 0.931 . S
C1177 N1175 1.375 . S
C1177 C1179 1.350 . S
C1177 H1186 0.930 . S
N1178 C1176 1.347 . S
N1178 C1179 1.373 . S
C1179 C1177 1.350 . S
C1179 N1178 1.373 . S
C1179 H1193 0.931 . S
C1180 O1183 1.256 . S
C1180 O1184 1.255 . S
O1181 Co1164 2.021 1_655 S
O1181 C1174 1.259 . S
O1182 Co1166 2.117 1_655 S
O1182 C1174 1.258 . S
O1183 Co1166 2.020 . S
O1183 C1180 1.256 . S
O1184 Co1164 2.062 . S
O1184 C1180 1.255 . S
O1185 C1165 1.259 . S
O1185 Co1166 2.021 . S
H1186 C1177 0.930 . S
H1187 C1176 0.931 . S
O1188 Co1164 2.117 . S
O1188 C1165 1.258 . S
O1189 Co1164 2.020 . S
O1189 C1191 1.256 . S
O1190 Co1166 2.062 . S
O1190 C1191 1.255 . S
C1191 O1189 1.256 . S
C1191 O1190 1.255 . S
H1192 C1171 0.931 . S
H1193 C1179 0.931 . S
Co1194 N1199 2.057 . S
Co1194 O1211 2.021 . S
Co1194 O1214 2.062 . S
Co1194 O1218 2.117 . S
Co1194 O1219 2.020 . S
C1195 O1215 1.259 . S
C1195 O1218 1.258 . S
Co1196 N1205 2.057 . S
Co1196 O1212 2.117 . S
Co1196 O1213 2.020 . S
Co1196 O1215 2.021 . S
Co1196 O1220 2.062 . S
C1197 N1199 1.316 . S
C1197 N1200 1.347 . S
C1197 H1202 0.931 . S
C1198 N1199 1.375 . S
C1198 C1201 1.350 . S
C1198 H1203 0.930 . S
N1199 Co1194 2.057 . S
N1199 C1197 1.316 . S
N1199 C1198 1.375 . S
N1200 C1197 1.347 . S
N1200 C1201 1.373 . S
C1201 C1198 1.350 . S
C1201 N1200 1.373 . S
C1201 H1222 0.931 . S
H1202 C1197 0.931 . S
H1203 C1198 0.930 . S
C1204 O1211 1.259 . S
C1204 O1212 1.258 . S
N1205 Co1196 2.057 . S
N1205 C1206 1.316 . S
N1205 C1207 1.375 . S
C1206 N1205 1.316 . S
C1206 N1208 1.347 . S
C1206 H1217 0.931 . S
C1207 N1205 1.375 . S
C1207 C1209 1.350 . S
C1207 H1216 0.930 . S
N1208 C1206 1.347 . S
N1208 C1209 1.373 . S
C1209 C1207 1.350 . S
C1209 N1208 1.373 . S
C1209 H1223 0.931 . S
C1210 O1213 1.256 . S
C1210 O1214 1.255 . S
O1211 Co1194 2.021 . S
O1211 C1204 1.259 . S
O1212 Co1196 2.117 . S
O1212 C1204 1.258 . S
O1213 Co1196 2.020 . S
O1213 C1210 1.256 . S
O1214 Co1194 2.062 . S
O1214 C1210 1.255 . S
O1215 C1195 1.259 . S
O1215 Co1196 2.021 . S
H1216 C1207 0.930 . S
H1217 C1206 0.931 . S
O1218 Co1194 2.117 . S
O1218 C1195 1.258 . S
O1219 Co1194 2.020 . S
O1219 C1221 1.256 . S
O1220 Co1196 2.062 . S
O1220 C1221 1.255 . S
C1221 O1219 1.256 . S
C1221 O1220 1.255 . S
H1222 C1201 0.931 . S
H1223 C1209 0.931 . S
Co1224 N1229 2.057 . S
Co1224 O1241 2.021 . S
Co1224 O1244 2.062 . S
Co1224 O1248 2.117 . S
Co1224 O1249 2.020 . S
C1225 O1245 1.259 . S
C1225 O1248 1.258 . S
Co1226 N1235 2.057 . S
Co1226 O1242 2.117 . S
Co1226 O1243 2.020 . S
Co1226 O1245 2.021 . S
Co1226 O1250 2.062 . S
C1227 N1229 1.316 . S
C1227 N1230 1.347 . S
C1227 H1232 0.931 . S
C1228 N1229 1.375 . S
C1228 C1231 1.350 . S
C1228 H1233 0.930 . S
N1229 Co1224 2.057 . S
N1229 C1227 1.316 . S
N1229 C1228 1.375 . S
N1230 C1227 1.347 . S
N1230 C1231 1.373 . S
C1231 C1228 1.350 . S
C1231 N1230 1.373 . S
C1231 H1252 0.931 . S
H1232 C1227 0.931 . S
H1233 C1228 0.930 . S
C1234 O1241 1.259 . S
C1234 O1242 1.258 . S
N1235 Co1226 2.057 . S
N1235 C1236 1.316 . S
N1235 C1237 1.375 . S
C1236 N1235 1.316 . S
C1236 N1238 1.347 . S
C1236 H1247 0.931 . S
C1237 N1235 1.375 . S
C1237 C1239 1.350 . S
C1237 H1246 0.930 . S
N1238 C1236 1.347 . S
N1238 C1239 1.373 . S
C1239 C1237 1.350 . S
C1239 N1238 1.373 . S
C1239 H1253 0.931 . S
C1240 O1243 1.256 . S
C1240 O1244 1.255 . S
O1241 Co1224 2.021 . S
O1241 C1234 1.259 . S
O1242 Co1226 2.117 . S
O1242 C1234 1.258 . S
O1243 Co1226 2.020 . S
O1243 C1240 1.256 . S
O1244 Co1224 2.062 . S
O1244 C1240 1.255 . S
O1245 C1225 1.259 . S
O1245 Co1226 2.021 . S
H1246 C1237 0.930 . S
H1247 C1236 0.931 . S
O1248 Co1224 2.117 . S
O1248 C1225 1.258 . S
O1249 Co1224 2.020 . S
O1249 C1251 1.256 . S
O1250 Co1226 2.062 . S
O1250 C1251 1.255 . S
C1251 O1249 1.256 . S
C1251 O1250 1.255 . S
H1252 C1231 0.931 . S
H1253 C1239 0.931 . S
Co1254 N1259 2.057 . S
Co1254 O1271 2.021 . S
Co1254 O1274 2.062 . S
Co1254 O1278 2.117 . S
Co1254 O1279 2.020 . S
C1255 O1275 1.259 . S
C1255 O1278 1.258 . S
Co1256 N1265 2.057 . S
Co1256 O1272 2.117 . S
Co1256 O1273 2.020 . S
Co1256 O1275 2.021 . S
Co1256 O1280 2.062 . S
C1257 N1259 1.316 . S
C1257 N1260 1.347 . S
C1257 H1262 0.931 . S
C1258 N1259 1.375 . S
C1258 C1261 1.350 . S
C1258 H1263 0.930 . S
N1259 Co1254 2.057 . S
N1259 C1257 1.316 . S
N1259 C1258 1.375 . S
N1260 C1257 1.347 . S
N1260 C1261 1.373 . S
C1261 C1258 1.350 . S
C1261 N1260 1.373 . S
C1261 H1282 0.931 . S
H1262 C1257 0.931 . S
H1263 C1258 0.930 . S
C1264 O1271 1.259 . S
C1264 O1272 1.258 . S
N1265 Co1256 2.057 . S
N1265 C1266 1.316 . S
N1265 C1267 1.375 . S
C1266 N1265 1.316 . S
C1266 N1268 1.347 . S
C1266 H1277 0.931 . S
C1267 N1265 1.375 . S
C1267 C1269 1.350 . S
C1267 H1276 0.930 . S
N1268 C1266 1.347 . S
N1268 C1269 1.373 . S
C1269 C1267 1.350 . S
C1269 N1268 1.373 . S
C1269 H1283 0.931 . S
C1270 O1273 1.256 . S
C1270 O1274 1.255 . S
O1271 Co1254 2.021 . S
O1271 C1264 1.259 . S
O1272 Co1256 2.117 . S
O1272 C1264 1.258 . S
O1273 Co1256 2.020 . S
O1273 C1270 1.256 . S
O1274 Co1254 2.062 . S
O1274 C1270 1.255 . S
O1275 C1255 1.259 . S
O1275 Co1256 2.021 . S
H1276 C1267 0.930 . S
H1277 C1266 0.931 . S
O1278 Co1254 2.117 . S
O1278 C1255 1.258 . S
O1279 Co1254 2.020 . S
O1279 C1281 1.256 . S
O1280 Co1256 2.062 . S
O1280 C1281 1.255 . S
C1281 O1279 1.256 . S
C1281 O1280 1.255 . S
H1282 C1261 0.931 . S
H1283 C1269 0.931 . S
Co1284 N1289 2.057 . S
Co1284 O1301 2.021 . S
Co1284 O1304 2.062 . S
Co1284 O1308 2.117 . S
Co1284 O1309 2.020 . S
C1285 O1305 1.259 . S
C1285 O1308 1.258 . S
Co1286 N1295 2.057 . S
Co1286 O1302 2.117 . S
Co1286 O1303 2.020 . S
Co1286 O1305 2.021 . S
Co1286 O1310 2.062 . S
C1287 N1289 1.316 . S
C1287 N1290 1.347 . S
C1287 H1292 0.931 . S
C1288 N1289 1.375 . S
C1288 C1291 1.350 . S
C1288 H1293 0.930 . S
N1289 Co1284 2.057 . S
N1289 C1287 1.316 . S
N1289 C1288 1.375 . S
N1290 C1287 1.347 . S
N1290 C1291 1.373 . S
C1291 C1288 1.350 . S
C1291 N1290 1.373 . S
C1291 H1312 0.931 . S
H1292 C1287 0.931 . S
H1293 C1288 0.930 . S
C1294 O1301 1.259 . S
C1294 O1302 1.258 . S
N1295 Co1286 2.057 . S
N1295 C1296 1.316 . S
N1295 C1297 1.375 . S
C1296 N1295 1.316 . S
C1296 N1298 1.347 . S
C1296 H1307 0.931 . S
C1297 N1295 1.375 . S
C1297 C1299 1.350 . S
C1297 H1306 0.930 . S
N1298 C1296 1.347 . S
N1298 C1299 1.373 . S
C1299 C1297 1.350 . S
C1299 N1298 1.373 . S
C1299 H1313 0.931 . S
C1300 O1303 1.256 . S
C1300 O1304 1.255 . S
O1301 Co1284 2.021 . S
O1301 C1294 1.259 . S
O1302 Co1286 2.117 . S
O1302 C1294 1.258 . S
O1303 Co1286 2.020 . S
O1303 C1300 1.256 . S
O1304 Co1284 2.062 . S
O1304 C1300 1.255 . S
O1305 C1285 1.259 . S
O1305 Co1286 2.021 . S
H1306 C1297 0.930 . S
H1307 C1296 0.931 . S
O1308 Co1284 2.117 . S
O1308 C1285 1.258 . S
O1309 Co1284 2.020 . S
O1309 C1311 1.256 . S
O1310 Co1286 2.062 . S
O1310 C1311 1.255 . S
C1311 O1309 1.256 . S
C1311 O1310 1.255 . S
H1312 C1291 0.931 . S
H1313 C1299 0.931 . S
Co1314 N1319 2.057 1_455 S
Co1314 O1331 2.021 . S
Co1314 O1334 2.062 1_455 S
Co1314 O1338 2.117 . S
Co1314 O1339 2.020 1_554 S
C1315 O1335 1.259 . S
C1315 O1338 1.258 . S
Co1316 N1325 2.057 . S
Co1316 O1332 2.117 . S
Co1316 O1333 2.020 . S
Co1316 O1335 2.021 . S
Co1316 O1340 2.036 1_554 S
C1317 N1319 1.316 . S
C1317 N1320 1.347 . S
C1317 H1322 0.931 . S
C1318 N1319 1.382 . S
C1318 C1321 1.349 . S
C1318 H1323 0.924 1_554 S
N1319 Co1314 2.057 1_655 S
N1319 C1317 1.316 . S
N1319 C1318 1.382 . S
N1320 C1317 1.347 . S
N1320 C1321 1.372 . S
C1321 C1318 1.349 . S
C1321 N1320 1.372 . S
C1321 H1342 0.932 1_554 S
H1322 C1317 0.931 . S
H1323 C1318 0.924 1_556 S
C1324 O1331 1.259 . S
C1324 O1332 1.258 . S
N1325 Co1316 2.057 . S
N1325 C1326 1.316 . S
N1325 C1327 1.375 . S
C1326 N1325 1.316 . S
C1326 N1328 1.347 . S
C1326 H1337 0.931 . S
C1327 N1325 1.375 . S
C1327 C1329 1.350 . S
C1327 H1336 0.930 . S
N1328 C1326 1.347 . S
N1328 C1329 1.373 . S
C1329 C1327 1.350 . S
C1329 N1328 1.373 . S
C1329 H1343 0.931 . S
C1330 O1333 1.256 . S
C1330 O1334 1.255 1_455 S
O1331 Co1314 2.021 . S
O1331 C1324 1.259 . S
O1332 Co1316 2.117 . S
O1332 C1324 1.258 . S
O1333 Co1316 2.020 . S
O1333 C1330 1.256 . S
O1334 Co1314 2.062 1_655 S
O1334 C1330 1.255 1_655 S
O1335 C1315 1.259 . S
O1335 Co1316 2.021 . S
H1336 C1327 0.930 . S
H1337 C1326 0.931 . S
O1338 Co1314 2.117 . S
O1338 C1315 1.258 . S
O1339 Co1314 2.020 1_556 S
O1339 C1341 1.256 . S
O1340 Co1316 2.036 1_556 S
O1340 C1341 1.272 . S
C1341 O1339 1.256 . S
C1341 O1340 1.272 . S
H1342 C1321 0.932 1_556 S
H1343 C1329 0.931 . S
C1344 C1345 1.349 . S
C1344 C1346 1.327 . S
C1344 H1369 0.950 1_455 S
C1345 C1344 1.349 . S
C1345 C1361 1.349 . S
C1346 C1344 1.327 . S
C1346 C1365 1.429 . S
C1346 H1370 0.950 1_455 S
C1347 C1364 1.574 . S
C1347 C1366 1.368 . S
C1347 H1371 0.949 . S
H1348 C1352 0.918 1_655 S
C1349 C1350 1.349 . S
C1349 C1351 1.327 . S
C1349 H1372 0.950 . S
C1350 C1349 1.349 . S
C1350 C1362 1.349 1_455 S
C1351 C1349 1.327 . S
C1351 C1367 1.429 . S
C1351 H1373 0.950 . S
C1352 H1348 0.918 1_455 S
C1352 C1360 1.578 . S
C1352 C1368 1.400 . S
H1353 C1361 0.950 . S
H1354 C1359 0.950 . S
H1355 C1360 0.949 1_655 S
H1356 C1362 0.950 . S
H1357 C1363 0.950 . S
H1358 C1364 0.949 . S
C1359 H1354 0.950 . S
C1359 C1361 1.327 . S
C1359 C1365 1.429 . S
C1360 C1352 1.578 . S
C1360 H1355 0.949 1_455 S
C1360 C1366 1.368 . S
C1361 C1345 1.349 . S
C1361 H1353 0.950 . S
C1361 C1359 1.327 . S
C1362 C1350 1.349 1_655 S
C1362 H1356 0.950 . S
C1362 C1363 1.327 . S
C1363 H1357 0.950 . S
C1363 C1362 1.327 . S
C1363 C1367 1.429 1_655 S
C1364 C1347 1.574 . S
C1364 H1358 0.949 . S
C1364 C1368 1.368 . S
C1365 C1346 1.429 . S
C1365 C1359 1.429 . S
C1365 C1366 1.523 . S
C1366 C1347 1.368 . S
C1366 C1360 1.368 . S
C1366 C1365 1.523 . S
C1367 C1351 1.429 . S
C1367 C1363 1.429 1_455 S
C1367 C1368 1.523 . S
C1368 C1352 1.400 . S
C1368 C1364 1.368 . S
C1368 C1367 1.523 . S
H1369 C1344 0.950 1_655 S
H1370 C1346 0.950 1_655 S
H1371 C1347 0.949 . S
H1372 C1349 0.950 . S
H1373 C1351 0.950 . S
C1374 C1375 1.349 . S
C1374 C1376 1.327 . S
C1374 H1399 0.950 . S
C1375 C1374 1.349 . S
C1375 C1391 1.349 . S
C1376 C1374 1.327 . S
C1376 C1395 1.429 . S
C1376 H1400 0.950 . S
C1377 C1394 1.574 . S
C1377 C1396 1.368 . S
C1377 H1401 0.949 . S
H1378 C1382 0.949 . S
C1379 C1380 1.349 . S
C1379 C1381 1.327 . S
C1379 H1402 0.950 . S
C1380 C1379 1.349 . S
C1380 C1392 1.349 . S
C1381 C1379 1.327 . S
C1381 C1397 1.429 . S
C1381 H1403 0.950 . S
C1382 H1378 0.949 . S
C1382 C1390 1.574 . S
C1382 C1398 1.368 . S
H1383 C1391 0.950 . S
H1384 C1389 0.950 . S
H1385 C1390 0.949 . S
H1386 C1392 0.950 . S
H1387 C1393 0.950 . S
H1388 C1394 0.949 . S
C1389 H1384 0.950 . S
C1389 C1391 1.327 . S
C1389 C1395 1.429 . S
C1390 C1382 1.574 . S
C1390 H1385 0.949 . S
C1390 C1396 1.368 . S
C1391 C1375 1.349 . S
C1391 H1383 0.950 . S
C1391 C1389 1.327 . S
C1392 C1380 1.349 . S
C1392 H1386 0.950 . S
C1392 C1393 1.327 . S
C1393 H1387 0.950 . S
C1393 C1392 1.327 . S
C1393 C1397 1.429 . S
C1394 C1377 1.574 . S
C1394 H1388 0.949 . S
C1394 C1398 1.368 . S
C1395 C1376 1.429 . S
C1395 C1389 1.429 . S
C1395 C1396 1.523 . S
C1396 C1377 1.368 . S
C1396 C1390 1.368 . S
C1396 C1395 1.523 . S
C1397 C1381 1.429 . S
C1397 C1393 1.429 . S
C1397 C1398 1.523 . S
C1398 C1382 1.368 . S
C1398 C1394 1.368 . S
C1398 C1397 1.523 . S
H1399 C1374 0.950 . S
H1400 C1376 0.950 . S
H1401 C1377 0.949 . S
H1402 C1379 0.950 . S
H1403 C1381 0.950 . S
C1404 C1405 1.349 . S
C1404 C1406 1.327 . S
C1404 H1429 0.950 . S
C1405 C1404 1.349 . S
C1405 C1421 1.349 . S
C1406 C1404 1.327 . S
C1406 C1425 1.429 . S
C1406 H1430 0.950 . S
C1407 C1424 1.574 . S
C1407 C1426 1.368 . S
C1407 H1431 0.949 . S
H1408 C1412 0.949 . S
C1409 C1410 1.349 . S
C1409 C1411 1.327 . S
C1409 H1432 0.950 . S
C1410 C1409 1.349 . S
C1410 C1422 1.349 . S
C1411 C1409 1.327 . S
C1411 C1427 1.429 . S
C1411 H1433 0.950 . S
C1412 H1408 0.949 . S
C1412 C1420 1.574 . S
C1412 C1428 1.368 . S
H1413 C1421 0.950 . S
H1414 C1419 0.950 . S
H1415 C1420 0.949 . S
H1416 C1422 0.950 . S
H1417 C1423 0.950 . S
H1418 C1424 0.949 . S
C1419 H1414 0.950 . S
C1419 C1421 1.327 . S
C1419 C1425 1.429 . S
C1420 C1412 1.574 . S
C1420 H1415 0.949 . S
C1420 C1426 1.368 . S
C1421 C1405 1.349 . S
C1421 H1413 0.950 . S
C1421 C1419 1.327 . S
C1422 C1410 1.349 . S
C1422 H1416 0.950 . S
C1422 C1423 1.327 . S
C1423 H1417 0.950 . S
C1423 C1422 1.327 . S
C1423 C1427 1.429 . S
C1424 C1407 1.574 . S
C1424 H1418 0.949 . S
C1424 C1428 1.368 . S
C1425 C1406 1.429 . S
C1425 C1419 1.429 . S
C1425 C1426 1.523 . S
C1426 C1407 1.368 . S
C1426 C1420 1.368 . S
C1426 C1425 1.523 . S
C1427 C1411 1.429 . S
C1427 C1423 1.429 . S
C1427 C1428 1.523 . S
C1428 C1412 1.368 . S
C1428 C1424 1.368 . S
C1428 C1427 1.523 . S
H1429 C1404 0.950 . S
H1430 C1406 0.950 . S
H1431 C1407 0.949 . S
H1432 C1409 0.950 . S
H1433 C1411 0.950 . S
C1434 C1435 1.349 . S
C1434 C1436 1.327 . S
C1434 H1459 0.950 . S
C1435 C1434 1.349 . S
C1435 C1451 1.349 . S
C1436 C1434 1.327 . S
C1436 C1455 1.429 . S
C1436 H1460 0.950 . S
C1437 C1454 1.574 . S
C1437 C1456 1.368 . S
C1437 H1461 0.949 . S
H1438 C1442 0.949 . S
C1439 C1440 1.349 . S
C1439 C1441 1.327 . S
C1439 H1462 0.950 . S
C1440 C1439 1.349 . S
C1440 C1452 1.349 . S
C1441 C1439 1.327 . S
C1441 C1457 1.429 . S
C1441 H1463 0.950 . S
C1442 H1438 0.949 . S
C1442 C1450 1.574 . S
C1442 C1458 1.368 . S
H1443 C1451 0.950 . S
H1444 C1449 0.950 . S
H1445 C1450 0.949 . S
H1446 C1452 0.950 . S
H1447 C1453 0.950 . S
H1448 C1454 0.949 . S
C1449 H1444 0.950 . S
C1449 C1451 1.327 . S
C1449 C1455 1.429 . S
C1450 C1442 1.574 . S
C1450 H1445 0.949 . S
C1450 C1456 1.368 . S
C1451 C1435 1.349 . S
C1451 H1443 0.950 . S
C1451 C1449 1.327 . S
C1452 C1440 1.349 . S
C1452 H1446 0.950 . S
C1452 C1453 1.327 . S
C1453 H1447 0.950 . S
C1453 C1452 1.327 . S
C1453 C1457 1.429 . S
C1454 C1437 1.574 . S
C1454 H1448 0.949 . S
C1454 C1458 1.368 . S
C1455 C1436 1.429 . S
C1455 C1449 1.429 . S
C1455 C1456 1.523 . S
C1456 C1437 1.368 . S
C1456 C1450 1.368 . S
C1456 C1455 1.523 . S
C1457 C1441 1.429 . S
C1457 C1453 1.429 . S
C1457 C1458 1.523 . S
C1458 C1442 1.368 . S
C1458 C1454 1.368 . S
C1458 C1457 1.523 . S
H1459 C1434 0.950 . S
H1460 C1436 0.950 . S
H1461 C1437 0.949 . S
H1462 C1439 0.950 . S
H1463 C1441 0.950 . S
C1464 C1465 1.349 . S
C1464 C1466 1.327 . S
C1464 H1489 0.950 . S
C1465 C1464 1.349 . S
C1465 C1481 1.349 . S
C1466 C1464 1.327 . S
C1466 C1485 1.429 . S
C1466 H1490 0.950 . S
C1467 C1484 1.574 . S
C1467 C1486 1.368 . S
C1467 H1491 0.949 . S
H1468 C1472 0.949 . S
C1469 C1470 1.349 . S
C1469 C1471 1.327 . S
C1469 H1492 0.950 . S
C1470 C1469 1.349 . S
C1470 C1482 1.349 . S
C1471 C1469 1.327 . S
C1471 C1487 1.429 . S
C1471 H1493 0.950 . S
C1472 H1468 0.949 . S
C1472 C1480 1.574 . S
C1472 C1488 1.368 . S
H1473 C1481 0.950 . S
H1474 C1479 0.950 . S
H1475 C1480 0.949 . S
H1476 C1482 0.950 . S
H1477 C1483 0.950 . S
H1478 C1484 0.949 . S
C1479 H1474 0.950 . S
C1479 C1481 1.327 . S
C1479 C1485 1.429 . S
C1480 C1472 1.574 . S
C1480 H1475 0.949 . S
C1480 C1486 1.368 . S
C1481 C1465 1.349 . S
C1481 H1473 0.950 . S
C1481 C1479 1.327 . S
C1482 C1470 1.349 . S
C1482 H1476 0.950 . S
C1482 C1483 1.327 . S
C1483 H1477 0.950 . S
C1483 C1482 1.327 . S
C1483 C1487 1.429 . S
C1484 C1467 1.574 . S
C1484 H1478 0.949 . S
C1484 C1488 1.368 . S
C1485 C1466 1.429 . S
C1485 C1479 1.429 . S
C1485 C1486 1.523 . S
C1486 C1467 1.368 . S
C1486 C1480 1.368 . S
C1486 C1485 1.523 . S
C1487 C1471 1.429 . S
C1487 C1483 1.429 . S
C1487 C1488 1.523 . S
C1488 C1472 1.368 . S
C1488 C1484 1.368 . S
C1488 C1487 1.523 . S
H1489 C1464 0.950 . S
H1490 C1466 0.950 . S
H1491 C1467 0.949 . S
H1492 C1469 0.950 . S
H1493 C1471 0.950 . S
C1494 C1495 1.349 . S
C1494 C1496 1.327 . S
C1494 H1519 0.950 . S
C1495 C1494 1.349 . S
C1495 C1511 1.349 . S
C1496 C1494 1.327 . S
C1496 C1515 1.429 . S
C1496 H1520 0.950 . S
C1497 C1514 1.574 . S
C1497 C1516 1.368 . S
C1497 H1521 0.949 . S
H1498 C1502 0.949 . S
C1499 C1500 1.349 . S
C1499 C1501 1.327 . S
C1499 H1522 0.950 . S
C1500 C1499 1.349 . S
C1500 C1512 1.349 . S
C1501 C1499 1.327 . S
C1501 C1517 1.429 . S
C1501 H1523 0.950 . S
C1502 H1498 0.949 . S
C1502 C1510 1.574 . S
C1502 C1518 1.368 . S
H1503 C1511 0.950 . S
H1504 C1509 0.950 . S
H1505 C1510 0.949 . S
H1506 C1512 0.950 . S
H1507 C1513 0.950 . S
H1508 C1514 0.949 . S
C1509 H1504 0.950 . S
C1509 C1511 1.327 . S
C1509 C1515 1.429 . S
C1510 C1502 1.574 . S
C1510 H1505 0.949 . S
C1510 C1516 1.368 . S
C1511 C1495 1.349 . S
C1511 H1503 0.950 . S
C1511 C1509 1.327 . S
C1512 C1500 1.349 . S
C1512 H1506 0.950 . S
C1512 C1513 1.327 . S
C1513 H1507 0.950 . S
C1513 C1512 1.327 . S
C1513 C1517 1.429 . S
C1514 C1497 1.574 . S
C1514 H1508 0.949 . S
C1514 C1518 1.368 . S
C1515 C1496 1.429 . S
C1515 C1509 1.429 . S
C1515 C1516 1.523 . S
C1516 C1497 1.368 . S
C1516 C1510 1.368 . S
C1516 C1515 1.523 . S
C1517 C1501 1.429 . S
C1517 C1513 1.429 . S
C1517 C1518 1.523 . S
C1518 C1502 1.368 . S
C1518 C1514 1.368 . S
C1518 C1517 1.523 . S
H1519 C1494 0.950 . S
H1520 C1496 0.950 . S
H1521 C1497 0.949 . S
H1522 C1499 0.950 . S
H1523 C1501 0.950 . S
C1524 C1525 1.349 . S
C1524 C1526 1.327 . S
C1524 H1549 0.950 . S
C1525 C1524 1.349 . S
C1525 C1541 1.349 . S
C1526 C1524 1.327 . S
C1526 C1545 1.429 . S
C1526 H1550 0.950 . S
C1527 C1544 1.574 . S
C1527 C1546 1.368 . S
C1527 H1551 0.949 . S
H1528 C1532 0.949 . S
C1529 C1530 1.344 . S
C1529 C1531 1.327 . S
C1529 H1552 0.950 . S
C1530 C1529 1.344 . S
C1530 C1542 1.351 1_556 S
C1531 C1529 1.327 . S
C1531 C1547 1.429 . S
C1531 H1553 0.950 . S
C1532 H1528 0.949 . S
C1532 C1540 1.574 . S
C1532 C1548 1.368 . S
H1533 C1541 0.950 . S
H1534 C1539 0.950 . S
H1535 C1540 0.949 . S
H1536 C1542 0.950 . S
H1537 C1543 0.925 1_554 S
H1538 C1544 0.949 . S
C1539 H1534 0.950 . S
C1539 C1541 1.327 . S
C1539 C1545 1.429 . S
C1540 C1532 1.574 . S
C1540 H1535 0.949 . S
C1540 C1546 1.368 . S
C1541 C1525 1.349 . S
C1541 H1533 0.950 . S
C1541 C1539 1.327 . S
C1542 C1530 1.351 1_554 S
C1542 H1536 0.950 . S
C1542 C1543 1.301 1_554 S
C1543 H1537 0.925 1_556 S
C1543 C1542 1.301 1_556 S
C1543 C1547 1.482 . S
C1544 C1527 1.574 . S
C1544 H1538 0.949 . S
C1544 C1548 1.368 . S
C1545 C1526 1.429 . S
C1545 C1539 1.429 . S
C1545 C1546 1.523 . S
C1546 C1527 1.368 . S
C1546 C1540 1.368 . S
C1546 C1545 1.523 . S
C1547 C1531 1.429 . S
C1547 C1543 1.482 . S
C1547 C1548 1.523 . S
C1548 C1532 1.368 . S
C1548 C1544 1.368 . S
C1548 C1547 1.523 . S
H1549 C1524 0.950 . S
H1550 C1526 0.950 . S
H1551 C1527 0.949 . S
H1552 C1529 0.950 . S
H1553 C1531 0.950 . S
C1554 C1555 1.349 . S
C1554 C1556 1.327 . S
C1554 H1579 0.950 . S
C1555 C1554 1.349 . S
C1555 C1571 1.349 . S
C1556 C1554 1.327 . S
C1556 C1575 1.429 . S
C1556 H1580 0.950 . S
C1557 C1574 1.574 . S
C1557 C1576 1.368 . S
C1557 H1581 0.949 . S
H1558 C1562 0.949 . S
C1559 C1560 1.349 . S
C1559 C1561 1.327 . S
C1559 H1582 0.950 . S
C1560 C1559 1.349 . S
C1560 C1572 1.349 . S
C1561 C1559 1.327 . S
C1561 C1577 1.429 . S
C1561 H1583 0.950 . S
C1562 H1558 0.949 . S
C1562 C1570 1.574 . S
C1562 C1578 1.368 . S
H1563 C1571 0.950 . S
H1564 C1569 0.950 . S
H1565 C1570 0.949 . S
H1566 C1572 0.950 . S
H1567 C1573 0.950 . S
H1568 C1574 0.949 . S
C1569 H1564 0.950 . S
C1569 C1571 1.327 . S
C1569 C1575 1.429 . S
C1570 C1562 1.574 . S
C1570 H1565 0.949 . S
C1570 C1576 1.368 . S
C1571 C1555 1.349 . S
C1571 H1563 0.950 . S
C1571 C1569 1.327 . S
C1572 C1560 1.349 . S
C1572 H1566 0.950 . S
C1572 C1573 1.327 . S
C1573 H1567 0.950 . S
C1573 C1572 1.327 . S
C1573 C1577 1.429 . S
C1574 C1557 1.574 . S
C1574 H1568 0.949 . S
C1574 C1578 1.368 . S
C1575 C1556 1.429 . S
C1575 C1569 1.429 . S
C1575 C1576 1.523 . S
C1576 C1557 1.368 . S
C1576 C1570 1.368 . S
C1576 C1575 1.523 . S
C1577 C1561 1.429 . S
C1577 C1573 1.429 . S
C1577 C1578 1.523 . S
C1578 C1562 1.368 . S
C1578 C1574 1.368 . S
C1578 C1577 1.523 . S
H1579 C1554 0.950 . S
H1580 C1556 0.950 . S
H1581 C1557 0.949 . S
H1582 C1559 0.950 . S
H1583 C1561 0.950 . S
C1584 C1585 1.349 . S
C1584 C1586 1.327 . S
C1584 H1609 0.950 . S
C1585 C1584 1.349 . S
C1585 C1601 1.349 1_545 S
C1586 C1584 1.327 . S
C1586 C1605 1.429 . S
C1586 H1610 0.950 . S
C1587 C1604 1.574 . S
C1587 C1606 1.368 1_565 S
C1587 H1611 0.949 . S
H1588 C1592 0.949 . S
C1589 C1590 1.349 1_565 S
C1589 C1591 1.327 . S
C1589 H1612 0.950 . S
C1590 C1589 1.349 1_545 S
C1590 C1602 1.349 . S
C1591 C1589 1.327 . S
C1591 C1607 1.429 1_565 S
C1591 H1613 0.950 . S
C1592 H1588 0.949 . S
C1592 C1600 1.574 . S
C1592 C1608 1.368 . S
H1593 C1601 0.950 . S
H1594 C1599 0.950 . S
H1595 C1600 0.949 . S
H1596 C1602 0.950 . S
H1597 C1603 0.950 . S
H1598 C1604 0.949 . S
C1599 H1594 0.950 . S
C1599 C1601 1.327 . S
C1599 C1605 1.429 1_565 S
C1600 C1592 1.574 . S
C1600 H1595 0.949 . S
C1600 C1606 1.368 . S
C1601 C1585 1.349 1_565 S
C1601 H1593 0.950 . S
C1601 C1599 1.327 . S
C1602 C1590 1.349 . S
C1602 H1596 0.950 . S
C1602 C1603 1.327 . S
C1603 H1597 0.950 . S
C1603 C1602 1.327 . S
C1603 C1607 1.429 . S
C1604 C1587 1.574 . S
C1604 H1598 0.949 . S
C1604 C1608 1.368 1_565 S
C1605 C1586 1.429 . S
C1605 C1599 1.429 1_545 S
C1605 C1606 1.523 . S
C1606 C1587 1.368 1_545 S
C1606 C1600 1.368 . S
C1606 C1605 1.523 . S
C1607 C1591 1.429 1_545 S
C1607 C1603 1.429 . S
C1607 C1608 1.523 . S
C1608 C1592 1.368 . S
C1608 C1604 1.368 1_545 S
C1608 C1607 1.523 . S
H1609 C1584 0.950 . S
H1610 C1586 0.950 . S
H1611 C1587 0.949 . S
H1612 C1589 0.950 . S
H1613 C1591 0.950 . S
C1614 C1615 1.349 . S
C1614 C1616 1.327 . S
C1614 H1639 0.950 . S
C1615 C1614 1.349 . S
C1615 C1631 1.349 . S
C1616 C1614 1.327 . S
C1616 C1635 1.429 . S
C1616 H1640 0.950 . S
C1617 C1634 1.574 . S
C1617 C1636 1.368 . S
C1617 H1641 0.949 . S
H1618 C1622 0.949 . S
C1619 C1620 1.349 . S
C1619 C1621 1.327 . S
C1619 H1642 0.950 . S
C1620 C1619 1.349 . S
C1620 C1632 1.349 . S
C1621 C1619 1.327 . S
C1621 C1637 1.429 . S
C1621 H1643 0.950 . S
C1622 H1618 0.949 . S
C1622 C1630 1.574 . S
C1622 C1638 1.368 . S
H1623 C1631 0.950 . S
H1624 C1629 0.950 . S
H1625 C1630 0.949 . S
H1626 C1632 0.950 . S
H1627 C1633 0.950 . S
H1628 C1634 0.949 . S
C1629 H1624 0.950 . S
C1629 C1631 1.327 . S
C1629 C1635 1.429 . S
C1630 C1622 1.574 . S
C1630 H1625 0.949 . S
C1630 C1636 1.368 . S
C1631 C1615 1.349 . S
C1631 H1623 0.950 . S
C1631 C1629 1.327 . S
C1632 C1620 1.349 . S
C1632 H1626 0.950 . S
C1632 C1633 1.327 . S
C1633 H1627 0.950 . S
C1633 C1632 1.327 . S
C1633 C1637 1.429 . S
C1634 C1617 1.574 . S
C1634 H1628 0.949 . S
C1634 C1638 1.368 . S
C1635 C1616 1.429 . S
C1635 C1629 1.429 . S
C1635 C1636 1.523 . S
C1636 C1617 1.368 . S
C1636 C1630 1.368 . S
C1636 C1635 1.523 . S
C1637 C1621 1.429 . S
C1637 C1633 1.429 . S
C1637 C1638 1.523 . S
C1638 C1622 1.368 . S
C1638 C1634 1.368 . S
C1638 C1637 1.523 . S
H1639 C1614 0.950 . S
H1640 C1616 0.950 . S
H1641 C1617 0.949 . S
H1642 C1619 0.950 . S
H1643 C1621 0.950 . S
C1644 C1645 1.349 . S
C1644 C1646 1.327 . S
C1644 H1669 0.950 . S
C1645 C1644 1.349 . S
C1645 C1661 1.349 . S
C1646 C1644 1.327 . S
C1646 C1665 1.429 . S
C1646 H1670 0.950 . S
C1647 C1664 1.574 . S
C1647 C1666 1.368 . S
C1647 H1671 0.949 . S
H1648 C1652 0.949 . S
C1649 C1650 1.349 . S
C1649 C1651 1.327 . S
C1649 H1672 0.950 . S
C1650 C1649 1.349 . S
C1650 C1662 1.349 . S
C1651 C1649 1.327 . S
C1651 C1667 1.429 . S
C1651 H1673 0.950 . S
C1652 H1648 0.949 . S
C1652 C1660 1.574 . S
C1652 C1668 1.368 . S
H1653 C1661 0.950 . S
H1654 C1659 0.950 . S
H1655 C1660 0.949 . S
H1656 C1662 0.950 . S
H1657 C1663 0.950 . S
H1658 C1664 0.949 . S
C1659 H1654 0.950 . S
C1659 C1661 1.327 . S
C1659 C1665 1.429 . S
C1660 C1652 1.574 . S
C1660 H1655 0.949 . S
C1660 C1666 1.368 . S
C1661 C1645 1.349 . S
C1661 H1653 0.950 . S
C1661 C1659 1.327 . S
C1662 C1650 1.349 . S
C1662 H1656 0.950 . S
C1662 C1663 1.327 . S
C1663 H1657 0.950 . S
C1663 C1662 1.327 . S
C1663 C1667 1.429 . S
C1664 C1647 1.574 . S
C1664 H1658 0.949 . S
C1664 C1668 1.368 . S
C1665 C1646 1.429 . S
C1665 C1659 1.429 . S
C1665 C1666 1.523 . S
C1666 C1647 1.368 . S
C1666 C1660 1.368 . S
C1666 C1665 1.523 . S
C1667 C1651 1.429 . S
C1667 C1663 1.429 . S
C1667 C1668 1.523 . S
C1668 C1652 1.368 . S
C1668 C1664 1.368 . S
C1668 C1667 1.523 . S
H1669 C1644 0.950 . S
H1670 C1646 0.950 . S
H1671 C1647 0.949 . S
H1672 C1649 0.950 . S
H1673 C1651 0.950 . S
C1674 C1675 1.349 . S
C1674 C1676 1.327 . S
C1674 H1699 0.950 . S
C1675 C1674 1.349 . S
C1675 C1691 1.349 . S
C1676 C1674 1.327 . S
C1676 C1695 1.429 . S
C1676 H1700 0.950 . S
C1677 C1694 1.574 . S
C1677 C1696 1.368 . S
C1677 H1701 0.949 . S
H1678 C1682 0.949 . S
C1679 C1680 1.349 . S
C1679 C1681 1.327 . S
C1679 H1702 0.950 . S
C1680 C1679 1.349 . S
C1680 C1692 1.349 . S
C1681 C1679 1.327 . S
C1681 C1697 1.429 . S
C1681 H1703 0.950 . S
C1682 H1678 0.949 . S
C1682 C1690 1.574 . S
C1682 C1698 1.368 . S
H1683 C1691 0.950 . S
H1684 C1689 0.950 . S
H1685 C1690 0.949 . S
H1686 C1692 0.950 . S
H1687 C1693 0.950 . S
H1688 C1694 0.949 . S
C1689 H1684 0.950 . S
C1689 C1691 1.327 . S
C1689 C1695 1.429 . S
C1690 C1682 1.574 . S
C1690 H1685 0.949 . S
C1690 C1696 1.368 . S
C1691 C1675 1.349 . S
C1691 H1683 0.950 . S
C1691 C1689 1.327 . S
C1692 C1680 1.349 . S
C1692 H1686 0.950 . S
C1692 C1693 1.327 . S
C1693 H1687 0.950 . S
C1693 C1692 1.327 . S
C1693 C1697 1.429 . S
C1694 C1677 1.574 . S
C1694 H1688 0.949 . S
C1694 C1698 1.368 . S
C1695 C1676 1.429 . S
C1695 C1689 1.429 . S
C1695 C1696 1.523 . S
C1696 C1677 1.368 . S
C1696 C1690 1.368 . S
C1696 C1695 1.523 . S
C1697 C1681 1.429 . S
C1697 C1693 1.429 . S
C1697 C1698 1.523 . S
C1698 C1682 1.368 . S
C1698 C1694 1.368 . S
C1698 C1697 1.523 . S
H1699 C1674 0.950 . S
H1700 C1676 0.950 . S
H1701 C1677 0.949 . S
H1702 C1679 0.950 . S
H1703 C1681 0.950 . S
C1704 C1705 1.349 . S
C1704 C1706 1.327 . S
C1704 H1729 0.950 . S
C1705 C1704 1.349 . S
C1705 C1721 1.349 . S
C1706 C1704 1.327 . S
C1706 C1725 1.429 . S
C1706 H1730 0.950 . S
C1707 C1724 1.574 . S
C1707 C1726 1.368 . S
C1707 H1731 0.949 . S
H1708 C1712 0.949 . S
C1709 C1710 1.349 . S
C1709 C1711 1.327 . S
C1709 H1732 0.950 . S
C1710 C1709 1.349 . S
C1710 C1722 1.349 . S
C1711 C1709 1.327 . S
C1711 C1727 1.429 . S
C1711 H1733 0.950 . S
C1712 H1708 0.949 . S
C1712 C1720 1.574 . S
C1712 C1728 1.368 . S
H1713 C1721 0.950 1_565 S
H1714 C1719 0.950 . S
H1715 C1720 0.949 . S
H1716 C1722 0.950 . S
H1717 C1723 0.950 . S
H1718 C1724 0.949 . S
C1719 H1714 0.950 . S
C1719 C1721 1.327 . S
C1719 C1725 1.429 . S
C1720 C1712 1.574 . S
C1720 H1715 0.949 . S
C1720 C1726 1.368 . S
C1721 C1705 1.349 . S
C1721 H1713 0.950 1_545 S
C1721 C1719 1.327 . S
C1722 C1710 1.349 . S
C1722 H1716 0.950 . S
C1722 C1723 1.327 . S
C1723 H1717 0.950 . S
C1723 C1722 1.327 . S
C1723 C1727 1.429 . S
C1724 C1707 1.574 . S
C1724 H1718 0.949 . S
C1724 C1728 1.368 . S
C1725 C1706 1.429 . S
C1725 C1719 1.429 . S
C1725 C1726 1.523 . S
C1726 C1707 1.368 . S
C1726 C1720 1.368 . S
C1726 C1725 1.523 . S
C1727 C1711 1.429 . S
C1727 C1723 1.429 . S
C1727 C1728 1.523 . S
C1728 C1712 1.368 . S
C1728 C1724 1.368 . S
C1728 C1727 1.523 . S
H1729 C1704 0.950 . S
H1730 C1706 0.950 . S
H1731 C1707 0.949 . S
H1732 C1709 0.950 . S
H1733 C1711 0.950 . S
C1734 C1735 1.349 . S
C1734 C1736 1.327 . S
C1734 H1759 0.950 . S
C1735 C1734 1.349 . S
C1735 C1751 1.349 . S
C1736 C1734 1.327 . S
C1736 C1755 1.429 . S
C1736 H1760 0.950 . S
C1737 C1754 1.574 . S
C1737 C1756 1.368 . S
C1737 H1761 0.949 . S
H1738 C1742 0.949 . S
C1739 C1740 1.349 . S
C1739 C1741 1.327 . S
C1739 H1762 0.950 . S
C1740 C1739 1.349 . S
C1740 C1752 1.349 . S
C1741 C1739 1.327 . S
C1741 C1757 1.429 . S
C1741 H1763 0.950 . S
C1742 H1738 0.949 . S
C1742 C1750 1.574 . S
C1742 C1758 1.368 . S
H1743 C1751 0.950 . S
H1744 C1749 0.950 . S
H1745 C1750 0.949 . S
H1746 C1752 0.950 . S
H1747 C1753 0.950 . S
H1748 C1754 0.949 . S
C1749 H1744 0.950 . S
C1749 C1751 1.327 . S
C1749 C1755 1.429 . S
C1750 C1742 1.574 . S
C1750 H1745 0.949 . S
C1750 C1756 1.368 . S
C1751 C1735 1.349 . S
C1751 H1743 0.950 . S
C1751 C1749 1.327 . S
C1752 C1740 1.349 . S
C1752 H1746 0.950 . S
C1752 C1753 1.327 . S
C1753 H1747 0.950 . S
C1753 C1752 1.327 . S
C1753 C1757 1.429 . S
C1754 C1737 1.574 . S
C1754 H1748 0.949 . S
C1754 C1758 1.368 . S
C1755 C1736 1.429 . S
C1755 C1749 1.429 . S
C1755 C1756 1.523 . S
C1756 C1737 1.368 . S
C1756 C1750 1.368 . S
C1756 C1755 1.523 . S
C1757 C1741 1.429 . S
C1757 C1753 1.429 . S
C1757 C1758 1.523 . S
C1758 C1742 1.368 . S
C1758 C1754 1.368 . S
C1758 C1757 1.523 . S
H1759 C1734 0.950 . S
H1760 C1736 0.950 . S
H1761 C1737 0.949 . S
H1762 C1739 0.950 . S
H1763 C1741 0.950 . S
C1764 C1765 1.349 . S
C1764 C1766 1.327 . S
C1764 H1789 0.950 . S
C1765 C1764 1.349 . S
C1765 C1781 1.349 . S
C1766 C1764 1.327 . S
C1766 C1785 1.429 . S
C1766 H1790 0.950 . S
C1767 C1784 1.574 . S
C1767 C1786 1.368 . S
C1767 H1791 0.949 . S
H1768 C1772 0.949 . S
C1769 C1770 1.349 . S
C1769 C1771 1.327 . S
C1769 H1792 0.950 . S
C1770 C1769 1.349 . S
C1770 C1782 1.349 . S
C1771 C1769 1.327 . S
C1771 C1787 1.429 . S
C1771 H1793 0.950 . S
C1772 H1768 0.949 . S
C1772 C1780 1.574 . S
C1772 C1788 1.368 . S
H1773 C1781 0.950 . S
H1774 C1779 0.950 . S
H1775 C1780 0.949 . S
H1776 C1782 0.950 1_565 S
H1777 C1783 0.950 . S
H1778 C1784 0.949 . S
C1779 H1774 0.950 . S
C1779 C1781 1.327 . S
C1779 C1785 1.429 . S
C1780 C1772 1.574 . S
C1780 H1775 0.949 . S
C1780 C1786 1.368 . S
C1781 C1765 1.349 . S
C1781 H1773 0.950 . S
C1781 C1779 1.327 . S
C1782 C1770 1.349 . S
C1782 H1776 0.950 1_545 S
C1782 C1783 1.327 . S
C1783 H1777 0.950 . S
C1783 C1782 1.327 . S
C1783 C1787 1.429 . S
C1784 C1767 1.574 . S
C1784 H1778 0.949 . S
C1784 C1788 1.368 . S
C1785 C1766 1.429 . S
C1785 C1779 1.429 . S
C1785 C1786 1.523 . S
C1786 C1767 1.368 . S
C1786 C1780 1.368 . S
C1786 C1785 1.523 . S
C1787 C1771 1.429 . S
C1787 C1783 1.429 . S
C1787 C1788 1.523 . S
C1788 C1772 1.368 . S
C1788 C1784 1.368 . S
C1788 C1787 1.523 . S
H1789 C1764 0.950 . S
H1790 C1766 0.950 . S
H1791 C1767 0.949 . S
H1792 C1769 0.950 . S
H1793 C1771 0.950 . S
C1794 C1795 1.349 . S
C1794 C1796 1.327 . S
C1794 H1819 0.950 . S
C1795 C1794 1.349 . S
C1795 C1811 1.349 . S
C1796 C1794 1.327 . S
C1796 C1815 1.429 . S
C1796 H1820 0.950 . S
C1797 C1814 1.574 . S
C1797 C1816 1.368 . S
C1797 H1821 0.949 . S
H1798 C1802 0.949 . S
C1799 C1800 1.349 . S
C1799 C1801 1.327 . S
C1799 H1822 0.950 . S
C1800 C1799 1.349 . S
C1800 C1812 1.349 . S
C1801 C1799 1.327 . S
C1801 C1817 1.429 . S
C1801 H1823 0.950 . S
C1802 H1798 0.949 . S
C1802 C1810 1.574 . S
C1802 C1818 1.368 . S
H1803 C1811 0.950 . S
H1804 C1809 0.950 . S
H1805 C1810 0.949 . S
H1806 C1812 0.950 . S
H1807 C1813 0.950 . S
H1808 C1814 0.949 . S
C1809 H1804 0.950 . S
C1809 C1811 1.327 . S
C1809 C1815 1.429 . S
C1810 C1802 1.574 . S
C1810 H1805 0.949 . S
C1810 C1816 1.368 . S
C1811 C1795 1.349 . S
C1811 H1803 0.950 . S
C1811 C1809 1.327 . S
C1812 C1800 1.349 . S
C1812 H1806 0.950 . S
C1812 C1813 1.327 . S
C1813 H1807 0.950 . S
C1813 C1812 1.327 . S
C1813 C1817 1.429 . S
C1814 C1797 1.574 . S
C1814 H1808 0.949 . S
C1814 C1818 1.368 . S
C1815 C1796 1.429 . S
C1815 C1809 1.429 . S
C1815 C1816 1.523 . S
C1816 C1797 1.368 . S
C1816 C1810 1.368 . S
C1816 C1815 1.523 . S
C1817 C1801 1.429 . S
C1817 C1813 1.429 . S
C1817 C1818 1.523 . S
C1818 C1802 1.368 . S
C1818 C1814 1.368 . S
C1818 C1817 1.523 . S
H1819 C1794 0.950 . S
H1820 C1796 0.950 . S
H1821 C1797 0.949 . S
H1822 C1799 0.950 . S
H1823 C1801 0.950 . S
C1824 C1825 1.349 . S
C1824 C1826 1.327 . S
C1824 H1849 0.950 . S
C1825 C1824 1.349 . S
C1825 C1841 1.349 . S
C1826 C1824 1.327 . S
C1826 C1845 1.429 . S
C1826 H1850 0.950 . S
C1827 C1844 1.574 . S
C1827 C1846 1.368 . S
C1827 H1851 0.949 . S
H1828 C1832 0.949 . S
C1829 C1830 1.349 . S
C1829 C1831 1.327 . S
C1829 H1852 0.950 . S
C1830 C1829 1.349 . S
C1830 C1842 1.349 . S
C1831 C1829 1.327 . S
C1831 C1847 1.429 . S
C1831 H1853 0.950 . S
C1832 H1828 0.949 . S
C1832 C1840 1.574 . S
C1832 C1848 1.368 . S
H1833 C1841 0.950 . S
H1834 C1839 0.950 . S
H1835 C1840 0.949 . S
H1836 C1842 0.950 . S
H1837 C1843 0.950 . S
H1838 C1844 0.949 . S
C1839 H1834 0.950 . S
C1839 C1841 1.327 . S
C1839 C1845 1.429 . S
C1840 C1832 1.574 . S
C1840 H1835 0.949 . S
C1840 C1846 1.368 . S
C1841 C1825 1.349 . S
C1841 H1833 0.950 . S
C1841 C1839 1.327 . S
C1842 C1830 1.349 . S
C1842 H1836 0.950 . S
C1842 C1843 1.327 . S
C1843 H1837 0.950 . S
C1843 C1842 1.327 . S
C1843 C1847 1.429 . S
C1844 C1827 1.574 . S
C1844 H1838 0.949 . S
C1844 C1848 1.368 . S
C1845 C1826 1.429 . S
C1845 C1839 1.429 . S
C1845 C1846 1.523 . S
C1846 C1827 1.368 . S
C1846 C1840 1.368 . S
C1846 C1845 1.523 . S
C1847 C1831 1.429 . S
C1847 C1843 1.429 . S
C1847 C1848 1.523 . S
C1848 C1832 1.368 . S
C1848 C1844 1.368 . S
C1848 C1847 1.523 . S
H1849 C1824 0.950 . S
H1850 C1826 0.950 . S
H1851 C1827 0.949 . S
H1852 C1829 0.950 . S
H1853 C1831 0.950 . S
C1854 C1855 1.349 . S
C1854 C1856 1.327 . S
C1854 H1879 0.950 . S
C1855 C1854 1.349 . S
C1855 C1871 1.349 . S
C1856 C1854 1.327 . S
C1856 C1875 1.429 . S
C1856 H1880 0.950 . S
C1857 C1874 1.574 . S
C1857 C1876 1.368 . S
C1857 H1881 0.949 . S
H1858 C1862 0.949 . S
C1859 C1860 1.349 . S
C1859 C1861 1.327 . S
C1859 H1882 0.950 . S
C1860 C1859 1.349 . S
C1860 C1872 1.349 . S
C1861 C1859 1.327 . S
C1861 C1877 1.429 . S
C1861 H1883 0.950 . S
C1862 H1858 0.949 . S
C1862 C1870 1.574 . S
C1862 C1878 1.368 . S
H1863 C1871 0.950 . S
H1864 C1869 0.950 . S
H1865 C1870 0.949 . S
H1866 C1872 0.950 . S
H1867 C1873 0.950 . S
H1868 C1874 0.949 . S
C1869 H1864 0.950 . S
C1869 C1871 1.327 . S
C1869 C1875 1.429 . S
C1870 C1862 1.574 . S
C1870 H1865 0.949 . S
C1870 C1876 1.368 . S
C1871 C1855 1.349 . S
C1871 H1863 0.950 . S
C1871 C1869 1.327 . S
C1872 C1860 1.349 . S
C1872 H1866 0.950 . S
C1872 C1873 1.327 . S
C1873 H1867 0.950 . S
C1873 C1872 1.327 . S
C1873 C1877 1.429 . S
C1874 C1857 1.574 . S
C1874 H1868 0.949 . S
C1874 C1878 1.368 . S
C1875 C1856 1.429 . S
C1875 C1869 1.429 . S
C1875 C1876 1.523 . S
C1876 C1857 1.368 . S
C1876 C1870 1.368 . S
C1876 C1875 1.523 . S
C1877 C1861 1.429 . S
C1877 C1873 1.429 . S
C1877 C1878 1.523 . S
C1878 C1862 1.368 . S
C1878 C1874 1.368 . S
C1878 C1877 1.523 . S
H1879 C1854 0.950 . S
H1880 C1856 0.950 . S
H1881 C1857 0.949 . S
H1882 C1859 0.950 . S
H1883 C1861 0.950 . S
C1884 C1885 1.349 . S
C1884 C1886 1.327 . S
C1884 H1909 0.950 . S
C1885 C1884 1.349 . S
C1885 C1901 1.349 . S
C1886 C1884 1.327 . S
C1886 C1905 1.429 . S
C1886 H1910 0.950 . S
C1887 C1904 1.574 . S
C1887 C1906 1.368 . S
C1887 H1911 0.949 . S
H1888 C1892 0.949 . S
C1889 C1890 1.349 . S
C1889 C1891 1.327 . S
C1889 H1912 0.950 . S
C1890 C1889 1.349 . S
C1890 C1902 1.349 . S
C1891 C1889 1.327 . S
C1891 C1907 1.429 . S
C1891 H1913 0.950 . S
C1892 H1888 0.949 . S
C1892 C1900 1.574 . S
C1892 C1908 1.368 . S
H1893 C1901 0.950 . S
H1894 C1899 0.950 . S
H1895 C1900 0.949 . S
H1896 C1902 0.950 . S
H1897 C1903 0.950 . S
H1898 C1904 0.949 . S
C1899 H1894 0.950 . S
C1899 C1901 1.327 . S
C1899 C1905 1.429 . S
C1900 C1892 1.574 . S
C1900 H1895 0.949 . S
C1900 C1906 1.368 . S
C1901 C1885 1.349 . S
C1901 H1893 0.950 . S
C1901 C1899 1.327 . S
C1902 C1890 1.349 . S
C1902 H1896 0.950 . S
C1902 C1903 1.327 . S
C1903 H1897 0.950 . S
C1903 C1902 1.327 . S
C1903 C1907 1.429 . S
C1904 C1887 1.574 . S
C1904 H1898 0.949 . S
C1904 C1908 1.368 . S
C1905 C1886 1.429 . S
C1905 C1899 1.429 . S
C1905 C1906 1.523 . S
C1906 C1887 1.368 . S
C1906 C1900 1.368 . S
C1906 C1905 1.523 . S
C1907 C1891 1.429 . S
C1907 C1903 1.429 . S
C1907 C1908 1.523 . S
C1908 C1892 1.368 . S
C1908 C1904 1.368 . S
C1908 C1907 1.523 . S
H1909 C1884 0.950 . S
H1910 C1886 0.950 . S
H1911 C1887 0.949 . S
H1912 C1889 0.950 . S
H1913 C1891 0.950 . S
C1914 C1915 1.349 . S
C1914 C1916 1.327 . S
C1914 H1939 0.950 . S
C1915 C1914 1.349 . S
C1915 C1931 1.349 . S
C1916 C1914 1.327 . S
C1916 C1935 1.429 . S
C1916 H1940 0.950 . S
C1917 C1934 1.574 . S
C1917 C1936 1.368 . S
C1917 H1941 0.949 . S
H1918 C1922 0.949 . S
C1919 C1920 1.349 . S
C1919 C1921 1.327 . S
C1919 H1942 0.950 . S
C1920 C1919 1.349 . S
C1920 C1932 1.349 . S
C1921 C1919 1.327 . S
C1921 C1937 1.429 . S
C1921 H1943 0.950 . S
C1922 H1918 0.949 . S
C1922 C1930 1.574 . S
C1922 C1938 1.368 . S
H1923 C1931 0.950 . S
H1924 C1929 0.950 . S
H1925 C1930 0.949 . S
H1926 C1932 0.950 . S
H1927 C1933 0.950 . S
H1928 C1934 0.949 . S
C1929 H1924 0.950 . S
C1929 C1931 1.327 . S
C1929 C1935 1.429 . S
C1930 C1922 1.574 . S
C1930 H1925 0.949 . S
C1930 C1936 1.368 . S
C1931 C1915 1.349 . S
C1931 H1923 0.950 . S
C1931 C1929 1.327 . S
C1932 C1920 1.349 . S
C1932 H1926 0.950 . S
C1932 C1933 1.327 . S
C1933 H1927 0.950 . S
C1933 C1932 1.327 . S
C1933 C1937 1.429 . S
C1934 C1917 1.574 . S
C1934 H1928 0.949 . S
C1934 C1938 1.368 . S
C1935 C1916 1.429 . S
C1935 C1929 1.429 . S
C1935 C1936 1.523 . S
C1936 C1917 1.368 . S
C1936 C1930 1.368 . S
C1936 C1935 1.523 . S
C1937 C1921 1.429 . S
C1937 C1933 1.429 . S
C1937 C1938 1.523 . S
C1938 C1922 1.368 . S
C1938 C1934 1.368 . S
C1938 C1937 1.523 . S
H1939 C1914 0.950 . S
H1940 C1916 0.950 . S
H1941 C1917 0.949 . S
H1942 C1919 0.950 . S
H1943 C1921 0.950 . S
C1944 C1945 1.349 . S
C1944 C1946 1.327 . S
C1944 H1969 0.950 . S
C1945 C1944 1.349 . S
C1945 C1961 1.349 . S
C1946 C1944 1.327 . S
C1946 C1965 1.429 . S
C1946 H1970 0.950 . S
C1947 C1964 1.574 . S
C1947 C1966 1.368 . S
C1947 H1971 0.949 . S
H1948 C1952 0.949 . S
C1949 C1950 1.349 . S
C1949 C1951 1.327 . S
C1949 H1972 0.950 . S
C1950 C1949 1.349 . S
C1950 C1962 1.349 . S
C1951 C1949 1.327 . S
C1951 C1967 1.429 . S
C1951 H1973 0.950 . S
C1952 H1948 0.949 . S
C1952 C1960 1.574 . S
C1952 C1968 1.368 . S
H1953 C1961 0.950 . S
H1954 C1959 0.950 . S
H1955 C1960 0.949 . S
H1956 C1962 0.950 . S
H1957 C1963 0.950 . S
H1958 C1964 0.949 . S
C1959 H1954 0.950 . S
C1959 C1961 1.327 . S
C1959 C1965 1.429 . S
C1960 C1952 1.574 . S
C1960 H1955 0.949 . S
C1960 C1966 1.368 . S
C1961 C1945 1.349 . S
C1961 H1953 0.950 . S
C1961 C1959 1.327 . S
C1962 C1950 1.349 . S
C1962 H1956 0.950 . S
C1962 C1963 1.327 . S
C1963 H1957 0.950 . S
C1963 C1962 1.327 . S
C1963 C1967 1.429 . S
C1964 C1947 1.574 . S
C1964 H1958 0.949 . S
C1964 C1968 1.368 . S
C1965 C1946 1.429 . S
C1965 C1959 1.429 . S
C1965 C1966 1.523 . S
C1966 C1947 1.368 . S
C1966 C1960 1.368 . S
C1966 C1965 1.523 . S
C1967 C1951 1.429 . S
C1967 C1963 1.429 . S
C1967 C1968 1.523 . S
C1968 C1952 1.368 . S
C1968 C1964 1.368 . S
C1968 C1967 1.523 . S
H1969 C1944 0.950 . S
H1970 C1946 0.950 . S
H1971 C1947 0.949 . S
H1972 C1949 0.950 . S
H1973 C1951 0.950 . S
C1974 C1975 1.349 . S
C1974 C1976 1.327 . S
C1974 H1999 0.950 . S
C1975 C1974 1.349 . S
C1975 C1991 1.349 . S
C1976 C1974 1.327 . S
C1976 C1995 1.429 . S
C1976 H2000 0.950 . S
C1977 C1994 1.574 . S
C1977 C1996 1.368 . S
C1977 H2001 0.949 . S
H1978 C1982 0.949 . S
C1979 C1980 1.349 . S
C1979 C1981 1.327 . S
C1979 H2002 0.950 . S
C1980 C1979 1.349 . S
C1980 C1992 1.349 1_565 S
C1981 C1979 1.327 . S
C1981 C1997 1.429 . S
C1981 H2003 0.950 . S
C1982 H1978 0.949 . S
C1982 C1990 1.574 . S
C1982 C1998 1.368 . S
H1983 C1991 0.950 . S
H1984 C1989 0.950 . S
H1985 C1990 0.949 . S
H1986 C1992 0.950 . S
H1987 C1993 0.935 1_545 S
H1988 C1994 0.949 . S
C1989 H1984 0.950 . S
C1989 C1991 1.327 . S
C1989 C1995 1.429 . S
C1990 C1982 1.574 . S
C1990 H1985 0.949 . S
C1990 C1996 1.368 . S
C1991 C1975 1.349 . S
C1991 H1983 0.950 . S
C1991 C1989 1.327 . S
C1992 C1980 1.349 1_545 S
C1992 H1986 0.950 . S
C1992 C1993 1.327 1_545 S
C1993 H1987 0.935 1_565 S
C1993 C1992 1.327 1_565 S
C1993 C1997 1.429 . S
C1994 C1977 1.574 . S
C1994 H1988 0.949 . S
C1994 C1998 1.368 . S
C1995 C1976 1.429 . S
C1995 C1989 1.429 . S
C1995 C1996 1.523 . S
C1996 C1977 1.368 . S
C1996 C1990 1.368 . S
C1996 C1995 1.523 . S
C1997 C1981 1.429 . S
C1997 C1993 1.429 . S
C1997 C1998 1.523 . S
C1998 C1982 1.368 . S
C1998 C1994 1.368 . S
C1998 C1997 1.523 . S
H1999 C1974 0.950 . S
H2000 C1976 0.950 . S
H2001 C1977 0.949 . S
H2002 C1979 0.950 . S
H2003 C1981 0.950 . S
C2004 C2005 1.349 . S
C2004 C2006 1.327 . S
C2004 H2029 0.950 . S
C2005 C2004 1.349 . S
C2005 C2021 1.349 . S
C2006 C2004 1.327 . S
C2006 C2025 1.429 . S
C2006 H2030 0.950 . S
C2007 C2024 1.574 . S
C2007 C2026 1.368 . S
C2007 H2031 0.949 . S
H2008 C2012 0.949 . S
C2009 C2010 1.349 . S
C2009 C2011 1.327 . S
C2009 H2032 0.950 . S
C2010 C2009 1.349 . S
C2010 C2022 1.349 . S
C2011 C2009 1.327 . S
C2011 C2027 1.429 . S
C2011 H2033 0.950 . S
C2012 H2008 0.949 . S
C2012 C2020 1.574 . S
C2012 C2028 1.368 . S
H2013 C2021 0.950 . S
H2014 C2019 0.950 . S
H2015 C2020 0.949 . S
H2016 C2022 0.950 . S
H2017 C2023 0.950 . S
H2018 C2024 0.949 . S
C2019 H2014 0.950 . S
C2019 C2021 1.327 . S
C2019 C2025 1.429 . S
C2020 C2012 1.574 . S
C2020 H2015 0.949 . S
C2020 C2026 1.368 . S
C2021 C2005 1.349 . S
C2021 H2013 0.950 . S
C2021 C2019 1.327 . S
C2022 C2010 1.349 . S
C2022 H2016 0.950 . S
C2022 C2023 1.327 . S
C2023 H2017 0.950 . S
C2023 C2022 1.327 . S
C2023 C2027 1.429 . S
C2024 C2007 1.574 . S
C2024 H2018 0.949 . S
C2024 C2028 1.368 . S
C2025 C2006 1.429 . S
C2025 C2019 1.429 . S
C2025 C2026 1.523 . S
C2026 C2007 1.368 . S
C2026 C2020 1.368 . S
C2026 C2025 1.523 . S
C2027 C2011 1.429 . S
C2027 C2023 1.429 . S
C2027 C2028 1.523 . S
C2028 C2012 1.368 . S
C2028 C2024 1.368 . S
C2028 C2027 1.523 . S
H2029 C2004 0.950 . S
H2030 C2006 0.950 . S
H2031 C2007 0.949 . S
H2032 C2009 0.950 . S
H2033 C2011 0.950 . S
C2034 C2035 1.349 . S
C2034 C2036 1.327 . S
C2034 H2059 0.950 . S
C2035 C2034 1.349 . S
C2035 C2051 1.349 . S
C2036 C2034 1.327 . S
C2036 C2055 1.429 . S
C2036 H2060 0.950 . S
C2037 C2054 1.574 . S
C2037 C2056 1.368 . S
C2037 H2061 0.949 . S
H2038 C2042 0.949 . S
C2039 C2040 1.349 . S
C2039 C2041 1.327 . S
C2039 H2062 0.950 . S
C2040 C2039 1.349 . S
C2040 C2052 1.349 . S
C2041 C2039 1.327 . S
C2041 C2057 1.429 . S
C2041 H2063 0.950 . S
C2042 H2038 0.949 . S
C2042 C2050 1.574 . S
C2042 C2058 1.368 . S
H2043 C2051 0.950 . S
H2044 C2049 0.950 . S
H2045 C2050 0.949 . S
H2046 C2052 0.950 . S
H2047 C2053 0.950 . S
H2048 C2054 0.949 . S
C2049 H2044 0.950 . S
C2049 C2051 1.327 . S
C2049 C2055 1.429 . S
C2050 C2042 1.574 . S
C2050 H2045 0.949 . S
C2050 C2056 1.368 . S
C2051 C2035 1.349 . S
C2051 H2043 0.950 . S
C2051 C2049 1.327 . S
C2052 C2040 1.349 . S
C2052 H2046 0.950 . S
C2052 C2053 1.327 . S
C2053 H2047 0.950 . S
C2053 C2052 1.327 . S
C2053 C2057 1.429 . S
C2054 C2037 1.574 . S
C2054 H2048 0.949 . S
C2054 C2058 1.368 . S
C2055 C2036 1.429 . S
C2055 C2049 1.429 . S
C2055 C2056 1.523 . S
C2056 C2037 1.368 . S
C2056 C2050 1.368 . S
C2056 C2055 1.523 . S
C2057 C2041 1.429 . S
C2057 C2053 1.429 . S
C2057 C2058 1.523 . S
C2058 C2042 1.368 . S
C2058 C2054 1.368 . S
C2058 C2057 1.523 . S
H2059 C2034 0.950 . S
H2060 C2036 0.950 . S
H2061 C2037 0.949 . S
H2062 C2039 0.950 . S
H2063 C2041 0.950 . S
C2064 C2065 1.349 . S
C2064 C2066 1.327 . S
C2064 H2089 0.950 . S
C2065 C2064 1.349 . S
C2065 C2081 1.349 . S
C2066 C2064 1.327 . S
C2066 C2085 1.429 . S
C2066 H2090 0.950 . S
C2067 C2084 1.574 . S
C2067 C2086 1.368 . S
C2067 H2091 0.949 . S
H2068 C2072 0.949 . S
C2069 C2070 1.349 . S
C2069 C2071 1.327 . S
C2069 H2092 0.950 . S
C2070 C2069 1.349 . S
C2070 C2082 1.349 1_556 S
C2071 C2069 1.327 . S
C2071 C2087 1.429 . S
C2071 H2093 0.950 . S
C2072 H2068 0.949 . S
C2072 C2080 1.574 . S
C2072 C2088 1.368 . S
H2073 C2081 0.949 . S
H2074 C2079 0.950 . S
H2075 C2080 0.949 . S
H2076 C2082 0.950 . S
H2077 C2083 0.967 . S
H2078 C2084 0.949 . S
C2079 H2074 0.950 . S
C2079 C2081 1.327 . S
C2079 C2085 1.429 . S
C2080 C2072 1.574 . S
C2080 H2075 0.949 . S
C2080 C2086 1.368 . S
C2081 C2065 1.349 . S
C2081 H2073 0.949 . S
C2081 C2079 1.327 . S
C2082 C2070 1.349 1_554 S
C2082 H2076 0.950 . S
C2082 C2083 1.327 1_554 S
C2083 H2077 0.967 . S
C2083 C2082 1.327 1_556 S
C2083 C2087 1.429 . S
C2084 C2067 1.574 . S
C2084 H2078 0.949 . S
C2084 C2088 1.368 . S
C2085 C2066 1.429 . S
C2085 C2079 1.429 . S
C2085 C2086 1.523 . S
C2086 C2067 1.368 . S
C2086 C2080 1.368 . S
C2086 C2085 1.523 . S
C2087 C2071 1.429 . S
C2087 C2083 1.429 . S
C2087 C2088 1.523 . S
C2088 C2072 1.368 . S
C2088 C2084 1.368 . S
C2088 C2087 1.523 . S
H2089 C2064 0.950 . S
H2090 C2066 0.950 . S
H2091 C2067 0.949 . S
H2092 C2069 0.950 . S
H2093 C2071 0.950 . S
C2094 C2095 1.349 . S
C2094 C2096 1.327 . S
C2094 H2119 0.950 . S
C2095 C2094 1.349 . S
C2095 C2111 1.349 . S
C2096 C2094 1.327 . S
C2096 C2115 1.429 . S
C2096 H2120 0.950 . S
C2097 C2114 1.574 . S
C2097 C2116 1.368 . S
C2097 H2121 0.949 . S
H2098 C2102 0.949 . S
C2099 C2100 1.349 . S
C2099 C2101 1.327 . S
C2099 H2122 0.950 . S
C2100 C2099 1.349 . S
C2100 C2112 1.349 . S
C2101 C2099 1.327 . S
C2101 C2117 1.429 . S
C2101 H2123 0.950 . S
C2102 H2098 0.949 . S
C2102 C2110 1.574 . S
C2102 C2118 1.368 . S
H2103 C2111 0.950 . S
H2104 C2109 0.950 . S
H2105 C2110 0.949 . S
H2106 C2112 0.950 . S
H2107 C2113 0.950 . S
H2108 C2114 0.949 . S
C2109 H2104 0.950 . S
C2109 C2111 1.327 . S
C2109 C2115 1.429 . S
C2110 C2102 1.574 . S
C2110 H2105 0.949 . S
C2110 C2116 1.368 . S
C2111 C2095 1.349 . S
C2111 H2103 0.950 . S
C2111 C2109 1.327 . S
C2112 C2100 1.349 . S
C2112 H2106 0.950 . S
C2112 C2113 1.327 . S
C2113 H2107 0.950 . S
C2113 C2112 1.327 . S
C2113 C2117 1.429 . S
C2114 C2097 1.574 . S
C2114 H2108 0.949 . S
C2114 C2118 1.368 . S
C2115 C2096 1.429 . S
C2115 C2109 1.429 . S
C2115 C2116 1.523 . S
C2116 C2097 1.368 . S
C2116 C2110 1.368 . S
C2116 C2115 1.523 . S
C2117 C2101 1.429 . S
C2117 C2113 1.429 . S
C2117 C2118 1.523 . S
C2118 C2102 1.368 . S
C2118 C2114 1.368 . S
C2118 C2117 1.523 . S
H2119 C2094 0.950 . S
H2120 C2096 0.950 . S
H2121 C2097 0.949 . S
H2122 C2099 0.950 . S
H2123 C2101 0.950 . S
C2124 C2125 1.349 . S
C2124 C2126 1.327 . S
C2124 H2149 0.950 . S
C2125 C2124 1.349 . S
C2125 C2141 1.349 . S
C2126 C2124 1.327 . S
C2126 C2145 1.429 . S
C2126 H2150 0.950 . S
C2127 C2144 1.574 . S
C2127 C2146 1.368 . S
C2127 H2151 0.949 . S
H2128 C2132 0.949 . S
C2129 C2130 1.349 . S
C2129 C2131 1.327 . S
C2129 H2152 0.950 . S
C2130 C2129 1.349 . S
C2130 C2142 1.349 . S
C2131 C2129 1.327 . S
C2131 C2147 1.429 . S
C2131 H2153 0.950 . S
C2132 H2128 0.949 . S
C2132 C2140 1.574 . S
C2132 C2148 1.368 . S
H2133 C2141 0.950 . S
H2134 C2139 0.950 . S
H2135 C2140 0.949 . S
H2136 C2142 0.950 . S
H2137 C2143 0.950 . S
H2138 C2144 0.949 . S
C2139 H2134 0.950 . S
C2139 C2141 1.327 . S
C2139 C2145 1.429 . S
C2140 C2132 1.574 . S
C2140 H2135 0.949 . S
C2140 C2146 1.368 . S
C2141 C2125 1.349 . S
C2141 H2133 0.950 . S
C2141 C2139 1.327 . S
C2142 C2130 1.349 . S
C2142 H2136 0.950 . S
C2142 C2143 1.327 . S
C2143 H2137 0.950 . S
C2143 C2142 1.327 . S
C2143 C2147 1.429 . S
C2144 C2127 1.574 . S
C2144 H2138 0.949 . S
C2144 C2148 1.368 . S
C2145 C2126 1.429 . S
C2145 C2139 1.429 . S
C2145 C2146 1.523 . S
C2146 C2127 1.368 . S
C2146 C2140 1.368 . S
C2146 C2145 1.523 . S
C2147 C2131 1.429 . S
C2147 C2143 1.429 . S
C2147 C2148 1.523 . S
C2148 C2132 1.368 . S
C2148 C2144 1.368 . S
C2148 C2147 1.523 . S
H2149 C2124 0.950 . S
H2150 C2126 0.950 . S
H2151 C2127 0.949 . S
H2152 C2129 0.950 . S
H2153 C2131 0.950 . S
C2154 C2155 1.349 . S
C2154 C2156 1.327 . S
C2154 H2179 0.950 . S
C2155 C2154 1.349 . S
C2155 C2171 1.349 . S
C2156 C2154 1.327 . S
C2156 C2175 1.429 . S
C2156 H2180 0.950 . S
C2157 C2174 1.574 . S
C2157 C2176 1.368 . S
C2157 H2181 0.949 . S
H2158 C2162 0.949 . S
C2159 C2160 1.349 . S
C2159 C2161 1.327 . S
C2159 H2182 0.950 . S
C2160 C2159 1.349 . S
C2160 C2172 1.349 . S
C2161 C2159 1.327 . S
C2161 C2177 1.429 . S
C2161 H2183 0.950 . S
C2162 H2158 0.949 . S
C2162 C2170 1.574 . S
C2162 C2178 1.368 . S
H2163 C2171 0.950 . S
H2164 C2169 0.950 . S
H2165 C2170 0.949 . S
H2166 C2172 0.950 . S
H2167 C2173 0.950 . S
H2168 C2174 0.949 . S
C2169 H2164 0.950 . S
C2169 C2171 1.327 . S
C2169 C2175 1.429 . S
C2170 C2162 1.574 . S
C2170 H2165 0.949 . S
C2170 C2176 1.368 . S
C2171 C2155 1.349 . S
C2171 H2163 0.950 . S
C2171 C2169 1.327 . S
C2172 C2160 1.349 . S
C2172 H2166 0.950 . S
C2172 C2173 1.327 . S
C2173 H2167 0.950 . S
C2173 C2172 1.327 . S
C2173 C2177 1.429 . S
C2174 C2157 1.574 . S
C2174 H2168 0.949 . S
C2174 C2178 1.368 . S
C2175 C2156 1.429 . S
C2175 C2169 1.429 . S
C2175 C2176 1.523 . S
C2176 C2157 1.368 . S
C2176 C2170 1.368 . S
C2176 C2175 1.523 . S
C2177 C2161 1.429 . S
C2177 C2173 1.429 . S
C2177 C2178 1.523 . S
C2178 C2162 1.368 . S
C2178 C2174 1.368 . S
C2178 C2177 1.523 . S
H2179 C2154 0.950 . S
H2180 C2156 0.950 . S
H2181 C2157 0.949 . S
H2182 C2159 0.950 . S
H2183 C2161 0.950 . S
C2184 C2185 1.349 . S
C2184 C2186 1.327 . S
C2184 H2209 0.950 . S
C2185 C2184 1.349 . S
C2185 C2201 1.349 . S
C2186 C2184 1.327 . S
C2186 C2205 1.429 . S
C2186 H2210 0.950 . S
C2187 C2204 1.574 . S
C2187 C2206 1.368 . S
C2187 H2211 0.949 . S
H2188 C2192 0.949 . S
C2189 C2190 1.349 . S
C2189 C2191 1.327 . S
C2189 H2212 0.950 . S
C2190 C2189 1.349 . S
C2190 C2202 1.349 . S
C2191 C2189 1.327 . S
C2191 C2207 1.429 . S
C2191 H2213 0.950 . S
C2192 H2188 0.949 . S
C2192 C2200 1.574 . S
C2192 C2208 1.368 . S
H2193 C2201 0.950 . S
H2194 C2199 0.950 . S
H2195 C2200 0.949 . S
H2196 C2202 0.950 . S
H2197 C2203 0.950 . S
H2198 C2204 0.949 . S
C2199 H2194 0.950 . S
C2199 C2201 1.327 . S
C2199 C2205 1.429 . S
C2200 C2192 1.574 . S
C2200 H2195 0.949 . S
C2200 C2206 1.368 . S
C2201 C2185 1.349 . S
C2201 H2193 0.950 . S
C2201 C2199 1.327 . S
C2202 C2190 1.349 . S
C2202 H2196 0.950 . S
C2202 C2203 1.327 . S
C2203 H2197 0.950 . S
C2203 C2202 1.327 . S
C2203 C2207 1.429 . S
C2204 C2187 1.574 . S
C2204 H2198 0.949 . S
C2204 C2208 1.368 . S
C2205 C2186 1.429 . S
C2205 C2199 1.429 . S
C2205 C2206 1.523 . S
C2206 C2187 1.368 . S
C2206 C2200 1.368 . S
C2206 C2205 1.523 . S
C2207 C2191 1.429 . S
C2207 C2203 1.429 . S
C2207 C2208 1.523 . S
C2208 C2192 1.368 . S
C2208 C2204 1.368 . S
C2208 C2207 1.523 . S
H2209 C2184 0.950 . S
H2210 C2186 0.950 . S
H2211 C2187 0.949 . S
H2212 C2189 0.950 . S
H2213 C2191 0.950 . S
C2214 C2215 1.349 . S
C2214 C2216 1.327 . S
C2214 H2239 0.950 . S
C2215 C2214 1.349 . S
C2215 C2231 1.349 . S
C2216 C2214 1.327 . S
C2216 C2235 1.429 . S
C2216 H2240 0.950 . S
C2217 C2234 1.574 . S
C2217 C2236 1.368 . S
C2217 H2241 0.949 . S
H2218 C2222 0.949 . S
C2219 C2220 1.349 . S
C2219 C2221 1.327 . S
C2219 H2242 0.950 . S
C2220 C2219 1.349 . S
C2220 C2232 1.349 . S
C2221 C2219 1.327 . S
C2221 C2237 1.429 . S
C2221 H2243 0.950 . S
C2222 H2218 0.949 . S
C2222 C2230 1.574 . S
C2222 C2238 1.368 . S
H2223 C2231 0.950 . S
H2224 C2229 0.950 . S
H2225 C2230 0.949 . S
H2226 C2232 0.950 . S
H2227 C2233 0.950 . S
H2228 C2234 0.949 . S
C2229 H2224 0.950 . S
C2229 C2231 1.327 . S
C2229 C2235 1.429 . S
C2230 C2222 1.574 . S
C2230 H2225 0.949 . S
C2230 C2236 1.368 . S
C2231 C2215 1.349 . S
C2231 H2223 0.950 . S
C2231 C2229 1.327 . S
C2232 C2220 1.349 . S
C2232 H2226 0.950 . S
C2232 C2233 1.327 . S
C2233 H2227 0.950 . S
C2233 C2232 1.327 . S
C2233 C2237 1.429 . S
C2234 C2217 1.574 . S
C2234 H2228 0.949 . S
C2234 C2238 1.368 . S
C2235 C2216 1.429 . S
C2235 C2229 1.429 . S
C2235 C2236 1.523 . S
C2236 C2217 1.368 . S
C2236 C2230 1.368 . S
C2236 C2235 1.523 . S
C2237 C2221 1.429 . S
C2237 C2233 1.429 . S
C2237 C2238 1.523 . S
C2238 C2222 1.368 . S
C2238 C2234 1.368 . S
C2238 C2237 1.523 . S
H2239 C2214 0.950 . S
H2240 C2216 0.950 . S
H2241 C2217 0.949 . S
H2242 C2219 0.950 . S
H2243 C2221 0.950 . S
C2244 C2245 1.349 . S
C2244 C2246 1.327 . S
C2244 H2269 0.950 . S
C2245 C2244 1.349 . S
C2245 C2261 1.349 . S
C2246 C2244 1.327 . S
C2246 C2265 1.429 . S
C2246 H2270 0.950 . S
C2247 C2264 1.574 . S
C2247 C2266 1.368 . S
C2247 H2271 0.949 . S
H2248 C2252 0.949 . S
C2249 C2250 1.349 . S
C2249 C2251 1.327 . S
C2249 H2272 0.950 . S
C2250 C2249 1.349 . S
C2250 C2262 1.349 . S
C2251 C2249 1.327 . S
C2251 C2267 1.429 . S
C2251 H2273 0.950 . S
C2252 H2248 0.949 . S
C2252 C2260 1.574 . S
C2252 C2268 1.368 . S
H2253 C2261 0.950 . S
H2254 C2259 0.950 . S
H2255 C2260 0.949 . S
H2256 C2262 0.950 . S
H2257 C2263 0.950 . S
H2258 C2264 0.949 . S
C2259 H2254 0.950 . S
C2259 C2261 1.327 . S
C2259 C2265 1.429 . S
C2260 C2252 1.574 . S
C2260 H2255 0.949 . S
C2260 C2266 1.368 . S
C2261 C2245 1.349 . S
C2261 H2253 0.950 . S
C2261 C2259 1.327 . S
C2262 C2250 1.349 . S
C2262 H2256 0.950 . S
C2262 C2263 1.327 . S
C2263 H2257 0.950 . S
C2263 C2262 1.327 . S
C2263 C2267 1.429 . S
C2264 C2247 1.574 . S
C2264 H2258 0.949 . S
C2264 C2268 1.368 . S
C2265 C2246 1.429 . S
C2265 C2259 1.429 . S
C2265 C2266 1.523 . S
C2266 C2247 1.368 . S
C2266 C2260 1.368 . S
C2266 C2265 1.523 . S
C2267 C2251 1.429 . S
C2267 C2263 1.429 . S
C2267 C2268 1.523 . S
C2268 C2252 1.368 . S
C2268 C2264 1.368 . S
C2268 C2267 1.523 . S
H2269 C2244 0.950 . S
H2270 C2246 0.950 . S
H2271 C2247 0.949 . S
H2272 C2249 0.950 . S
H2273 C2251 0.950 . S
C2274 C2275 1.349 . S
C2274 C2276 1.327 . S
C2274 H2299 0.950 . S
C2275 C2274 1.349 . S
C2275 C2291 1.349 . S
C2276 C2274 1.327 . S
C2276 C2295 1.429 . S
C2276 H2300 0.950 . S
C2277 C2294 1.574 . S
C2277 C2296 1.368 . S
C2277 H2301 0.949 . S
H2278 C2282 0.949 . S
C2279 C2280 1.349 . S
C2279 C2281 1.327 . S
C2279 H2302 0.950 . S
C2280 C2279 1.349 . S
C2280 C2292 1.349 . S
C2281 C2279 1.327 . S
C2281 C2297 1.429 . S
C2281 H2303 0.950 . S
C2282 H2278 0.949 . S
C2282 C2290 1.574 . S
C2282 C2298 1.368 . S
H2283 C2291 0.950 . S
H2284 C2289 0.950 . S
H2285 C2290 0.949 . S
H2286 C2292 0.950 . S
H2287 C2293 0.950 . S
H2288 C2294 0.949 . S
C2289 H2284 0.950 . S
C2289 C2291 1.327 . S
C2289 C2295 1.429 . S
C2290 C2282 1.574 . S
C2290 H2285 0.949 . S
C2290 C2296 1.368 . S
C2291 C2275 1.349 . S
C2291 H2283 0.950 . S
C2291 C2289 1.327 . S
C2292 C2280 1.349 . S
C2292 H2286 0.950 . S
C2292 C2293 1.327 . S
C2293 H2287 0.950 . S
C2293 C2292 1.327 . S
C2293 C2297 1.429 . S
C2294 C2277 1.574 . S
C2294 H2288 0.949 . S
C2294 C2298 1.368 . S
C2295 C2276 1.429 . S
C2295 C2289 1.429 . S
C2295 C2296 1.523 . S
C2296 C2277 1.368 . S
C2296 C2290 1.368 . S
C2296 C2295 1.523 . S
C2297 C2281 1.429 . S
C2297 C2293 1.429 . S
C2297 C2298 1.523 . S
C2298 C2282 1.368 . S
C2298 C2294 1.368 . S
C2298 C2297 1.523 . S
H2299 C2274 0.950 . S
H2300 C2276 0.950 . S
H2301 C2277 0.949 . S
H2302 C2279 0.950 . S
H2303 C2281 0.950 . S
C2304 C2305 1.349 . S
C2304 C2306 1.327 . S
C2304 H2329 0.950 . S
C2305 C2304 1.349 . S
C2305 C2321 1.349 . S
C2306 C2304 1.327 . S
C2306 C2325 1.429 . S
C2306 H2330 0.950 . S
C2307 C2324 1.574 . S
C2307 C2326 1.368 . S
C2307 H2331 0.949 . S
H2308 C2312 0.949 . S
C2309 C2310 1.349 . S
C2309 C2311 1.327 . S
C2309 H2332 0.950 . S
C2310 C2309 1.349 . S
C2310 C2322 1.349 . S
C2311 C2309 1.327 . S
C2311 C2327 1.429 . S
C2311 H2333 0.950 . S
C2312 H2308 0.949 . S
C2312 C2320 1.574 . S
C2312 C2328 1.368 . S
H2313 C2321 0.950 . S
H2314 C2319 0.950 . S
H2315 C2320 0.949 . S
H2316 C2322 0.950 1_455 S
H2317 C2323 0.950 . S
H2318 C2324 0.949 . S
C2319 H2314 0.950 . S
C2319 C2321 1.327 . S
C2319 C2325 1.429 . S
C2320 C2312 1.574 . S
C2320 H2315 0.949 . S
C2320 C2326 1.368 . S
C2321 C2305 1.349 . S
C2321 H2313 0.950 . S
C2321 C2319 1.327 . S
C2322 C2310 1.349 . S
C2322 H2316 0.950 1_655 S
C2322 C2323 1.327 . S
C2323 H2317 0.950 . S
C2323 C2322 1.327 . S
C2323 C2327 1.429 . S
C2324 C2307 1.574 . S
C2324 H2318 0.949 . S
C2324 C2328 1.368 . S
C2325 C2306 1.429 . S
C2325 C2319 1.429 . S
C2325 C2326 1.523 . S
C2326 C2307 1.368 . S
C2326 C2320 1.368 . S
C2326 C2325 1.523 . S
C2327 C2311 1.429 . S
C2327 C2323 1.429 . S
C2327 C2328 1.523 . S
C2328 C2312 1.368 . S
C2328 C2324 1.368 . S
C2328 C2327 1.523 . S
H2329 C2304 0.950 . S
H2330 C2306 0.950 . S
H2331 C2307 0.949 . S
H2332 C2309 0.950 . S
H2333 C2311 0.950 . S
C2334 C2335 1.349 . S
C2334 C2336 1.327 . S
C2334 H2359 0.950 . S
C2335 C2334 1.349 . S
C2335 C2351 1.349 . S
C2336 C2334 1.327 . S
C2336 C2355 1.429 . S
C2336 H2360 0.950 . S
C2337 C2354 1.574 . S
C2337 C2356 1.368 . S
C2337 H2361 0.949 . S
H2338 C2342 0.949 . S
C2339 C2340 1.349 . S
C2339 C2341 1.327 . S
C2339 H2362 0.950 . S
C2340 C2339 1.349 . S
C2340 C2352 1.349 . S
C2341 C2339 1.327 . S
C2341 C2357 1.429 . S
C2341 H2363 0.950 . S
C2342 H2338 0.949 . S
C2342 C2350 1.574 . S
C2342 C2358 1.368 . S
H2343 C2351 0.950 . S
H2344 C2349 0.950 . S
H2345 C2350 0.949 . S
H2346 C2352 0.950 . S
H2347 C2353 0.950 . S
H2348 C2354 0.949 . S
C2349 H2344 0.950 . S
C2349 C2351 1.327 . S
C2349 C2355 1.429 . S
C2350 C2342 1.574 . S
C2350 H2345 0.949 . S
C2350 C2356 1.368 . S
C2351 C2335 1.349 . S
C2351 H2343 0.950 . S
C2351 C2349 1.327 . S
C2352 C2340 1.349 . S
C2352 H2346 0.950 . S
C2352 C2353 1.327 . S
C2353 H2347 0.950 . S
C2353 C2352 1.327 . S
C2353 C2357 1.429 . S
C2354 C2337 1.574 . S
C2354 H2348 0.949 . S
C2354 C2358 1.368 . S
C2355 C2336 1.429 . S
C2355 C2349 1.429 . S
C2355 C2356 1.523 . S
C2356 C2337 1.368 . S
C2356 C2350 1.368 . S
C2356 C2355 1.523 . S
C2357 C2341 1.429 . S
C2357 C2353 1.429 . S
C2357 C2358 1.523 . S
C2358 C2342 1.368 . S
C2358 C2354 1.368 . S
C2358 C2357 1.523 . S
H2359 C2334 0.950 . S
H2360 C2336 0.950 . S
H2361 C2337 0.949 . S
H2362 C2339 0.950 . S
H2363 C2341 0.950 . S
C2364 C2365 1.349 . S
C2364 C2366 1.327 . S
C2364 H2389 0.950 . S
C2365 C2364 1.349 . S
C2365 C2381 1.349 1_545 S
C2366 C2364 1.327 . S
C2366 C2385 1.429 . S
C2366 H2390 0.950 . S
C2367 C2384 1.574 . S
C2367 C2386 1.368 1_565 S
C2367 H2391 0.949 . S
H2368 C2372 0.949 . S
C2369 C2370 1.305 1_565 S
C2369 C2371 1.332 . S
C2369 H2392 0.992 . S
C2370 C2369 1.305 1_545 S
C2370 C2382 1.349 . S
C2371 C2369 1.332 . S
C2371 C2387 1.429 1_565 S
C2371 H2393 0.950 . S
C2372 H2368 0.949 . S
C2372 C2380 1.574 . S
C2372 C2388 1.368 . S
H2373 C2381 0.950 . S
H2374 C2379 0.950 . S
H2375 C2380 0.949 . S
H2376 C2382 0.950 . S
H2377 C2383 0.950 . S
H2378 C2384 0.949 . S
C2379 H2374 0.950 . S
C2379 C2381 1.327 . S
C2379 C2385 1.429 1_565 S
C2380 C2372 1.574 . S
C2380 H2375 0.949 . S
C2380 C2386 1.368 . S
C2381 C2365 1.349 1_565 S
C2381 H2373 0.950 . S
C2381 C2379 1.327 . S
C2382 C2370 1.349 . S
C2382 H2376 0.950 . S
C2382 C2383 1.327 . S
C2383 H2377 0.950 . S
C2383 C2382 1.327 . S
C2383 C2387 1.429 . S
C2384 C2367 1.574 . S
C2384 H2378 0.949 . S
C2384 C2388 1.368 1_565 S
C2385 C2366 1.429 . S
C2385 C2379 1.429 1_545 S
C2385 C2386 1.523 . S
C2386 C2367 1.368 1_545 S
C2386 C2380 1.368 . S
C2386 C2385 1.523 . S
C2387 C2371 1.429 1_545 S
C2387 C2383 1.429 . S
C2387 C2388 1.523 . S
C2388 C2372 1.368 . S
C2388 C2384 1.368 1_545 S
C2388 C2387 1.523 . S
H2389 C2364 0.950 . S
H2390 C2366 0.950 . S
H2391 C2367 0.949 . S
H2392 C2369 0.992 . S
H2393 C2371 0.950 . S
C2394 C2395 1.349 . S
C2394 C2396 1.327 . S
C2394 H2419 0.950 . S
C2395 C2394 1.349 . S
C2395 C2411 1.349 . S
C2396 C2394 1.327 . S
C2396 C2415 1.429 . S
C2396 H2420 0.950 . S
C2397 C2414 1.574 . S
C2397 C2416 1.368 . S
C2397 H2421 0.949 . S
H2398 C2402 0.949 . S
C2399 C2400 1.349 . S
C2399 C2401 1.327 . S
C2399 H2422 0.950 . S
C2400 C2399 1.349 . S
C2400 C2412 1.349 . S
C2401 C2399 1.327 . S
C2401 C2417 1.429 . S
C2401 H2423 0.950 . S
C2402 H2398 0.949 . S
C2402 C2410 1.574 . S
C2402 C2418 1.368 . S
H2403 C2411 0.950 . S
H2404 C2409 0.950 . S
H2405 C2410 0.949 . S
H2406 C2412 0.950 . S
H2407 C2413 0.950 . S
H2408 C2414 0.949 . S
C2409 H2404 0.950 . S
C2409 C2411 1.327 . S
C2409 C2415 1.429 . S
C2410 C2402 1.574 . S
C2410 H2405 0.949 . S
C2410 C2416 1.368 . S
C2411 C2395 1.349 . S
C2411 H2403 0.950 . S
C2411 C2409 1.327 . S
C2412 C2400 1.349 . S
C2412 H2406 0.950 . S
C2412 C2413 1.327 . S
C2413 H2407 0.950 . S
C2413 C2412 1.327 . S
C2413 C2417 1.429 . S
C2414 C2397 1.574 . S
C2414 H2408 0.949 . S
C2414 C2418 1.368 . S
C2415 C2396 1.429 . S
C2415 C2409 1.429 . S
C2415 C2416 1.523 . S
C2416 C2397 1.368 . S
C2416 C2410 1.368 . S
C2416 C2415 1.523 . S
C2417 C2401 1.429 . S
C2417 C2413 1.429 . S
C2417 C2418 1.523 . S
C2418 C2402 1.368 . S
C2418 C2414 1.368 . S
C2418 C2417 1.523 . S
H2419 C2394 0.950 . S
H2420 C2396 0.950 . S
H2421 C2397 0.949 . S
H2422 C2399 0.950 . S
H2423 C2401 0.950 . S
C2424 C2425 1.349 . S
C2424 C2426 1.327 . S
C2424 H2449 0.950 . S
C2425 C2424 1.349 . S
C2425 C2441 1.349 . S
C2426 C2424 1.327 . S
C2426 C2445 1.429 . S
C2426 H2450 0.950 . S
C2427 C2444 1.574 . S
C2427 C2446 1.368 . S
C2427 H2451 0.949 . S
H2428 C2432 0.949 . S
C2429 C2430 1.341 1_455 S
C2429 C2431 1.306 1_455 S
C2429 H2452 0.981 . S
C2430 C2429 1.341 1_655 S
C2430 C2442 1.349 . S
C2431 C2429 1.306 1_655 S
C2431 C2447 1.429 . S
C2431 H2453 0.950 . S
C2432 H2428 0.949 . S
C2432 C2440 1.574 . S
C2432 C2448 1.368 . S
H2433 C2441 0.950 . S
H2434 C2439 0.950 . S
H2435 C2440 0.949 . S
H2436 C2442 0.950 1_565 S
H2437 C2443 0.929 1_565 S
H2438 C2444 0.949 . S
C2439 H2434 0.950 . S
C2439 C2441 1.327 . S
C2439 C2445 1.429 . S
C2440 C2432 1.574 . S
C2440 H2435 0.949 . S
C2440 C2446 1.368 . S
C2441 C2425 1.349 . S
C2441 H2433 0.950 . S
C2441 C2439 1.327 . S
C2442 C2430 1.349 . S
C2442 H2436 0.950 1_545 S
C2442 C2443 1.327 . S
C2443 H2437 0.929 1_545 S
C2443 C2442 1.327 . S
C2443 C2447 1.429 . S
C2444 C2427 1.574 . S
C2444 H2438 0.949 . S
C2444 C2448 1.368 . S
C2445 C2426 1.429 . S
C2445 C2439 1.429 . S
C2445 C2446 1.523 . S
C2446 C2427 1.368 . S
C2446 C2440 1.368 . S
C2446 C2445 1.523 . S
C2447 C2431 1.429 . S
C2447 C2443 1.429 . S
C2447 C2448 1.523 . S
C2448 C2432 1.368 . S
C2448 C2444 1.368 . S
C2448 C2447 1.523 . S
H2449 C2424 0.950 . S
H2450 C2426 0.950 . S
H2451 C2427 0.949 . S
H2452 C2429 0.981 . S
H2453 C2431 0.950 . S
C2454 C2455 1.349 . S
C2454 C2456 1.327 . S
C2454 H2479 0.950 . S
C2455 C2454 1.349 . S
C2455 C2471 1.349 . S
C2456 C2454 1.327 . S
C2456 C2475 1.429 . S
C2456 H2480 0.950 . S
C2457 C2474 1.574 . S
C2457 C2476 1.368 . S
C2457 H2481 0.949 . S
H2458 C2462 0.949 . S
C2459 C2460 1.349 . S
C2459 C2461 1.327 . S
C2459 H2482 0.950 . S
C2460 C2459 1.349 . S
C2460 C2472 1.349 . S
C2461 C2459 1.327 . S
C2461 C2477 1.429 . S
C2461 H2483 0.950 . S
C2462 H2458 0.949 . S
C2462 C2470 1.574 . S
C2462 C2478 1.368 . S
H2463 C2471 0.950 . S
H2464 C2469 0.950 . S
H2465 C2470 0.949 . S
H2466 C2472 0.950 . S
H2467 C2473 0.950 . S
H2468 C2474 0.949 . S
C2469 H2464 0.950 . S
C2469 C2471 1.327 . S
C2469 C2475 1.429 . S
C2470 C2462 1.574 . S
C2470 H2465 0.949 . S
C2470 C2476 1.368 . S
C2471 C2455 1.349 . S
C2471 H2463 0.950 . S
C2471 C2469 1.327 . S
C2472 C2460 1.349 . S
C2472 H2466 0.950 . S
C2472 C2473 1.327 . S
C2473 H2467 0.950 . S
C2473 C2472 1.327 . S
C2473 C2477 1.429 . S
C2474 C2457 1.574 . S
C2474 H2468 0.949 . S
C2474 C2478 1.368 . S
C2475 C2456 1.429 . S
C2475 C2469 1.429 . S
C2475 C2476 1.523 . S
C2476 C2457 1.368 . S
C2476 C2470 1.368 . S
C2476 C2475 1.523 . S
C2477 C2461 1.429 . S
C2477 C2473 1.429 . S
C2477 C2478 1.523 . S
C2478 C2462 1.368 . S
C2478 C2474 1.368 . S
C2478 C2477 1.523 . S
H2479 C2454 0.950 . S
H2480 C2456 0.950 . S
H2481 C2457 0.949 . S
H2482 C2459 0.950 . S
H2483 C2461 0.950 . S
C2484 C2485 1.349 . S
C2484 C2486 1.327 . S
C2484 H2509 0.950 . S
C2485 C2484 1.349 . S
C2485 C2501 1.349 1_545 S
C2486 C2484 1.327 . S
C2486 C2505 1.429 . S
C2486 H2510 0.950 . S
C2487 C2504 1.574 . S
C2487 C2506 1.368 . S
C2487 H2511 0.949 1_545 S
H2488 C2492 0.949 . S
C2489 C2490 1.349 . S
C2489 C2491 1.327 . S
C2489 H2512 0.950 . S
C2490 C2489 1.349 . S
C2490 C2502 1.349 . S
C2491 C2489 1.327 . S
C2491 C2507 1.429 . S
C2491 H2513 0.950 . S
C2492 H2488 0.949 . S
C2492 C2500 1.574 . S
C2492 C2508 1.368 . S
H2493 C2501 0.950 . S
H2494 C2499 0.920 1_565 S
H2495 C2500 0.949 . S
H2496 C2502 0.950 . S
H2497 C2503 0.950 . S
H2498 C2504 0.949 . S
C2499 H2494 0.920 1_545 S
C2499 C2501 1.319 1_545 S
C2499 C2505 1.467 . S
C2500 C2492 1.574 . S
C2500 H2495 0.949 . S
C2500 C2506 1.368 . S
C2501 C2485 1.349 1_565 S
C2501 H2493 0.950 . S
C2501 C2499 1.319 1_565 S
C2502 C2490 1.349 . S
C2502 H2496 0.950 . S
C2502 C2503 1.327 . S
C2503 H2497 0.950 . S
C2503 C2502 1.327 . S
C2503 C2507 1.429 . S
C2504 C2487 1.574 . S
C2504 H2498 0.949 . S
C2504 C2508 1.368 . S
C2505 C2486 1.429 . S
C2505 C2499 1.467 . S
C2505 C2506 1.523 . S
C2506 C2487 1.368 . S
C2506 C2500 1.368 . S
C2506 C2505 1.523 . S
C2507 C2491 1.429 . S
C2507 C2503 1.429 . S
C2507 C2508 1.523 . S
C2508 C2492 1.368 . S
C2508 C2504 1.368 . S
C2508 C2507 1.523 . S
H2509 C2484 0.950 . S
H2510 C2486 0.950 . S
H2511 C2487 0.949 1_565 S
H2512 C2489 0.950 . S
H2513 C2491 0.950 . S
C2514 C2515 1.349 . S
C2514 C2516 1.327 . S
C2514 H2539 0.950 . S
C2515 C2514 1.349 . S
C2515 C2531 1.349 . S
C2516 C2514 1.327 . S
C2516 C2535 1.429 . S
C2516 H2540 0.950 . S
C2517 C2534 1.574 . S
C2517 C2536 1.368 . S
C2517 H2541 0.949 . S
H2518 C2522 0.949 . S
C2519 C2520 1.349 . S
C2519 C2521 1.327 . S
C2519 H2542 0.950 . S
C2520 C2519 1.349 . S
C2520 C2532 1.349 . S
C2521 C2519 1.327 . S
C2521 C2537 1.429 . S
C2521 H2543 0.950 . S
C2522 H2518 0.949 . S
C2522 C2530 1.574 . S
C2522 C2538 1.368 . S
H2523 C2531 0.950 . S
H2524 C2529 0.950 . S
H2525 C2530 0.949 . S
H2526 C2532 0.950 . S
H2527 C2533 0.950 . S
H2528 C2534 0.949 . S
C2529 H2524 0.950 . S
C2529 C2531 1.327 . S
C2529 C2535 1.429 . S
C2530 C2522 1.574 . S
C2530 H2525 0.949 . S
C2530 C2536 1.368 . S
C2531 C2515 1.349 . S
C2531 H2523 0.950 . S
C2531 C2529 1.327 . S
C2532 C2520 1.349 . S
C2532 H2526 0.950 . S
C2532 C2533 1.327 . S
C2533 H2527 0.950 . S
C2533 C2532 1.327 . S
C2533 C2537 1.429 . S
C2534 C2517 1.574 . S
C2534 H2528 0.949 . S
C2534 C2538 1.368 . S
C2535 C2516 1.429 . S
C2535 C2529 1.429 . S
C2535 C2536 1.523 . S
C2536 C2517 1.368 . S
C2536 C2530 1.368 . S
C2536 C2535 1.523 . S
C2537 C2521 1.429 . S
C2537 C2533 1.429 . S
C2537 C2538 1.523 . S
C2538 C2522 1.368 . S
C2538 C2534 1.368 . S
C2538 C2537 1.523 . S
H2539 C2514 0.950 . S
H2540 C2516 0.950 . S
H2541 C2517 0.949 . S
H2542 C2519 0.950 . S
H2543 C2521 0.950 . S
C2544 C2545 1.349 . S
C2544 C2546 1.327 . S
C2544 H2569 0.950 . S
C2545 C2544 1.349 . S
C2545 C2561 1.349 . S
C2546 C2544 1.327 . S
C2546 C2565 1.429 . S
C2546 H2570 0.950 . S
C2547 C2564 1.574 . S
C2547 C2566 1.368 . S
C2547 H2571 0.949 . S
H2548 C2552 0.949 . S
C2549 C2550 1.349 . S
C2549 C2551 1.327 . S
C2549 H2572 0.950 . S
C2550 C2549 1.349 . S
C2550 C2562 1.349 1_545 S
C2551 C2549 1.327 . S
C2551 C2567 1.429 1_545 S
C2551 H2573 0.950 . S
C2552 H2548 0.949 . S
C2552 C2560 1.574 . S
C2552 C2568 1.368 . S
H2553 C2561 0.950 . S
H2554 C2559 0.950 . S
H2555 C2560 0.949 . S
H2556 C2562 0.950 . S
H2557 C2563 0.950 . S
H2558 C2564 0.949 1_545 S
C2559 H2554 0.950 . S
C2559 C2561 1.327 . S
C2559 C2565 1.429 . S
C2560 C2552 1.574 . S
C2560 H2555 0.949 . S
C2560 C2566 1.368 . S
C2561 C2545 1.349 . S
C2561 H2553 0.950 . S
C2561 C2559 1.327 . S
C2562 C2550 1.349 1_565 S
C2562 H2556 0.950 . S
C2562 C2563 1.327 . S
C2563 H2557 0.950 . S
C2563 C2562 1.327 . S
C2563 C2567 1.429 . S
C2564 C2547 1.574 . S
C2564 H2558 0.949 1_565 S
C2564 C2568 1.368 . S
C2565 C2546 1.429 . S
C2565 C2559 1.429 . S
C2565 C2566 1.523 . S
C2566 C2547 1.368 . S
C2566 C2560 1.368 . S
C2566 C2565 1.523 . S
C2567 C2551 1.429 1_565 S
C2567 C2563 1.429 . S
C2567 C2568 1.523 . S
C2568 C2552 1.368 . S
C2568 C2564 1.368 . S
C2568 C2567 1.523 . S
H2569 C2544 0.950 . S
H2570 C2546 0.950 . S
H2571 C2547 0.949 . S
H2572 C2549 0.950 . S
H2573 C2551 0.950 . S
C2574 C2575 1.314 1_554 S
C2574 C2576 1.327 . S
C2574 H2599 0.950 . S
C2575 C2574 1.314 1_556 S
C2575 C2591 1.381 . S
C2576 C2574 1.327 . S
C2576 C2595 1.429 . S
C2576 H2600 0.950 . S
C2577 C2594 1.574 . S
C2577 C2596 1.368 1_556 S
C2577 H2601 0.949 . S
H2578 C2582 0.949 . S
C2579 C2580 1.349 1_556 S
C2579 C2581 1.327 . S
C2579 H2602 0.950 . S
C2580 C2579 1.349 1_554 S
C2580 C2592 1.349 . S
C2581 C2579 1.327 . S
C2581 C2597 1.429 1_556 S
C2581 H2603 0.950 . S
C2582 H2578 0.949 . S
C2582 C2590 1.574 . S
C2582 C2598 1.368 . S
H2583 C2591 0.950 . S
H2584 C2589 0.950 . S
H2585 C2590 0.949 . S
H2586 C2592 0.950 . S
H2587 C2593 0.950 . S
H2588 C2594 0.949 . S
C2589 H2584 0.950 . S
C2589 C2591 1.327 . S
C2589 C2595 1.429 1_556 S
C2590 C2582 1.574 . S
C2590 H2585 0.949 . S
C2590 C2596 1.368 . S
C2591 C2575 1.381 . S
C2591 H2583 0.950 . S
C2591 C2589 1.327 . S
C2592 C2580 1.349 . S
C2592 H2586 0.950 . S
C2592 C2593 1.327 . S
C2593 H2587 0.950 . S
C2593 C2592 1.327 . S
C2593 C2597 1.429 . S
C2594 C2577 1.574 . S
C2594 H2588 0.949 . S
C2594 C2598 1.368 1_556 S
C2595 C2576 1.429 . S
C2595 C2589 1.429 1_554 S
C2595 C2596 1.523 . S
C2596 C2577 1.368 1_554 S
C2596 C2590 1.368 . S
C2596 C2595 1.523 . S
C2597 C2581 1.429 1_554 S
C2597 C2593 1.429 . S
C2597 C2598 1.523 . S
C2598 C2582 1.368 . S
C2598 C2594 1.368 1_554 S
C2598 C2597 1.523 . S
H2599 C2574 0.950 . S
H2600 C2576 0.950 . S
H2601 C2577 0.949 . S
H2602 C2579 0.950 . S
H2603 C2581 0.950 . S
C2604 C2605 1.349 . S
C2604 C2606 1.327 . S
C2604 H2629 0.950 . S
C2605 C2604 1.349 . S
C2605 C2621 1.349 . S
C2606 C2604 1.327 . S
C2606 C2625 1.429 . S
C2606 H2630 0.950 . S
C2607 C2624 1.574 . S
C2607 C2626 1.368 . S
C2607 H2631 0.949 . S
H2608 C2612 0.949 . S
C2609 C2610 1.349 . S
C2609 C2611 1.327 . S
C2609 H2632 0.950 . S
C2610 C2609 1.349 . S
C2610 C2622 1.349 . S
C2611 C2609 1.327 . S
C2611 C2627 1.429 . S
C2611 H2633 0.950 . S
C2612 H2608 0.949 . S
C2612 C2620 1.574 . S
C2612 C2628 1.368 . S
H2613 C2621 0.950 . S
H2614 C2619 0.950 . S
H2615 C2620 0.949 . S
H2616 C2622 0.950 . S
H2617 C2623 0.950 . S
H2618 C2624 0.949 . S
C2619 H2614 0.950 . S
C2619 C2621 1.327 . S
C2619 C2625 1.429 . S
C2620 C2612 1.574 . S
C2620 H2615 0.949 . S
C2620 C2626 1.368 . S
C2621 C2605 1.349 . S
C2621 H2613 0.950 . S
C2621 C2619 1.327 . S
C2622 C2610 1.349 . S
C2622 H2616 0.950 . S
C2622 C2623 1.327 . S
C2623 H2617 0.950 . S
C2623 C2622 1.327 . S
C2623 C2627 1.429 . S
C2624 C2607 1.574 . S
C2624 H2618 0.949 . S
C2624 C2628 1.368 . S
C2625 C2606 1.429 . S
C2625 C2619 1.429 . S
C2625 C2626 1.523 . S
C2626 C2607 1.368 . S
C2626 C2620 1.368 . S
C2626 C2625 1.523 . S
C2627 C2611 1.429 . S
C2627 C2623 1.429 . S
C2627 C2628 1.523 . S
C2628 C2612 1.368 . S
C2628 C2624 1.368 . S
C2628 C2627 1.523 . S
H2629 C2604 0.950 . S
H2630 C2606 0.950 . S
H2631 C2607 0.949 . S
H2632 C2609 0.950 . S
H2633 C2611 0.950 . S
C2634 C2635 1.349 . S
C2634 C2636 1.327 . S
C2634 H2659 0.950 . S
C2635 C2634 1.349 . S
C2635 C2651 1.349 . S
C2636 C2634 1.327 . S
C2636 C2655 1.429 . S
C2636 H2660 0.950 . S
C2637 C2654 1.574 . S
C2637 C2656 1.368 . S
C2637 H2661 0.949 . S
H2638 C2642 0.949 . S
C2639 C2640 1.349 . S
C2639 C2641 1.327 . S
C2639 H2662 0.950 . S
C2640 C2639 1.349 . S
C2640 C2652 1.349 . S
C2641 C2639 1.327 . S
C2641 C2657 1.429 . S
C2641 H2663 0.950 . S
C2642 H2638 0.949 . S
C2642 C2650 1.574 . S
C2642 C2658 1.368 . S
H2643 C2651 0.950 . S
H2644 C2649 0.950 . S
H2645 C2650 0.949 . S
H2646 C2652 0.950 . S
H2647 C2653 0.950 . S
H2648 C2654 0.949 . S
C2649 H2644 0.950 . S
C2649 C2651 1.327 . S
C2649 C2655 1.429 . S
C2650 C2642 1.574 . S
C2650 H2645 0.949 . S
C2650 C2656 1.368 . S
C2651 C2635 1.349 . S
C2651 H2643 0.950 . S
C2651 C2649 1.327 . S
C2652 C2640 1.349 . S
C2652 H2646 0.950 . S
C2652 C2653 1.327 . S
C2653 H2647 0.950 . S
C2653 C2652 1.327 . S
C2653 C2657 1.429 . S
C2654 C2637 1.574 . S
C2654 H2648 0.949 . S
C2654 C2658 1.368 . S
C2655 C2636 1.429 . S
C2655 C2649 1.429 . S
C2655 C2656 1.523 . S
C2656 C2637 1.368 . S
C2656 C2650 1.368 . S
C2656 C2655 1.523 . S
C2657 C2641 1.429 . S
C2657 C2653 1.429 . S
C2657 C2658 1.523 . S
C2658 C2642 1.368 . S
C2658 C2654 1.368 . S
C2658 C2657 1.523 . S
H2659 C2634 0.950 . S
H2660 C2636 0.950 . S
H2661 C2637 0.949 . S
H2662 C2639 0.950 . S
H2663 C2641 0.950 . S
C2664 C2665 1.349 . S
C2664 C2666 1.327 1_545 S
C2664 H2689 0.950 . S
C2665 C2664 1.349 . S
C2665 C2681 1.349 1_545 S
C2666 C2664 1.327 1_565 S
C2666 C2685 1.429 . S
C2666 H2690 0.950 . S
C2667 C2684 1.574 . S
C2667 C2686 1.368 . S
C2667 H2691 0.949 . S
H2668 C2672 0.949 . S
C2669 C2670 1.349 . S
C2669 C2671 1.327 . S
C2669 H2692 0.950 . S
C2670 C2669 1.349 . S
C2670 C2682 1.349 . S
C2671 C2669 1.327 . S
C2671 C2687 1.429 . S
C2671 H2693 0.950 . S
C2672 H2668 0.949 . S
C2672 C2680 1.574 . S
C2672 C2688 1.368 . S
H2673 C2681 0.950 . S
H2674 C2679 0.950 . S
H2675 C2680 0.949 . S
H2676 C2682 0.950 . S
H2677 C2683 0.950 . S
H2678 C2684 0.949 . S
C2679 H2674 0.950 . S
C2679 C2681 1.327 . S
C2679 C2685 1.429 . S
C2680 C2672 1.574 . S
C2680 H2675 0.949 . S
C2680 C2686 1.368 . S
C2681 C2665 1.349 1_565 S
C2681 H2673 0.950 . S
C2681 C2679 1.327 . S
C2682 C2670 1.349 . S
C2682 H2676 0.950 . S
C2682 C2683 1.327 . S
C2683 H2677 0.950 . S
C2683 C2682 1.327 . S
C2683 C2687 1.429 . S
C2684 C2667 1.574 . S
C2684 H2678 0.949 . S
C2684 C2688 1.368 . S
C2685 C2666 1.429 . S
C2685 C2679 1.429 . S
C2685 C2686 1.523 . S
C2686 C2667 1.368 . S
C2686 C2680 1.368 . S
C2686 C2685 1.523 . S
C2687 C2671 1.429 . S
C2687 C2683 1.429 . S
C2687 C2688 1.523 . S
C2688 C2672 1.368 . S
C2688 C2684 1.368 . S
C2688 C2687 1.523 . S
H2689 C2664 0.950 . S
H2690 C2666 0.950 . S
H2691 C2667 0.949 . S
H2692 C2669 0.950 . S
H2693 C2671 0.950 . S
C2694 C2695 1.349 . S
C2694 C2696 1.327 . S
C2694 H2719 0.950 . S
C2695 C2694 1.349 . S
C2695 C2711 1.349 . S
C2696 C2694 1.327 . S
C2696 C2715 1.429 . S
C2696 H2720 0.950 . S
C2697 C2714 1.574 . S
C2697 C2716 1.368 . S
C2697 H2721 0.949 . S
H2698 C2702 0.949 . S
C2699 C2700 1.349 . S
C2699 C2701 1.327 . S
C2699 H2722 0.950 . S
C2700 C2699 1.349 . S
C2700 C2712 1.349 . S
C2701 C2699 1.327 . S
C2701 C2717 1.429 . S
C2701 H2723 0.950 . S
C2702 H2698 0.949 . S
C2702 C2710 1.574 . S
C2702 C2718 1.368 . S
H2703 C2711 0.950 . S
H2704 C2709 0.950 . S
H2705 C2710 0.949 . S
H2706 C2712 0.950 . S
H2707 C2713 0.950 . S
H2708 C2714 0.949 . S
C2709 H2704 0.950 . S
C2709 C2711 1.327 . S
C2709 C2715 1.429 . S
C2710 C2702 1.574 . S
C2710 H2705 0.949 . S
C2710 C2716 1.368 . S
C2711 C2695 1.349 . S
C2711 H2703 0.950 . S
C2711 C2709 1.327 . S
C2712 C2700 1.349 . S
C2712 H2706 0.950 . S
C2712 C2713 1.327 . S
C2713 H2707 0.950 . S
C2713 C2712 1.327 . S
C2713 C2717 1.429 . S
C2714 C2697 1.574 . S
C2714 H2708 0.949 . S
C2714 C2718 1.368 . S
C2715 C2696 1.429 . S
C2715 C2709 1.429 . S
C2715 C2716 1.523 . S
C2716 C2697 1.368 . S
C2716 C2710 1.368 . S
C2716 C2715 1.523 . S
C2717 C2701 1.429 . S
C2717 C2713 1.429 . S
C2717 C2718 1.523 . S
C2718 C2702 1.368 . S
C2718 C2714 1.368 . S
C2718 C2717 1.523 . S
H2719 C2694 0.950 . S
H2720 C2696 0.950 . S
H2721 C2697 0.949 . S
H2722 C2699 0.950 . S
H2723 C2701 0.950 . S
C2724 C2725 1.349 . S
C2724 C2726 1.327 . S
C2724 H2749 0.950 . S
C2725 C2724 1.349 . S
C2725 C2741 1.349 . S
C2726 C2724 1.327 . S
C2726 C2745 1.429 . S
C2726 H2750 0.950 . S
C2727 C2744 1.574 . S
C2727 C2746 1.368 . S
C2727 H2751 0.949 . S
H2728 C2732 0.949 . S
C2729 C2730 1.349 . S
C2729 C2731 1.327 . S
C2729 H2752 0.950 . S
C2730 C2729 1.349 . S
C2730 C2742 1.349 . S
C2731 C2729 1.327 . S
C2731 C2747 1.429 . S
C2731 H2753 0.950 . S
C2732 H2728 0.949 . S
C2732 C2740 1.574 . S
C2732 C2748 1.368 . S
H2733 C2741 0.950 . S
H2734 C2739 0.950 . S
H2735 C2740 0.949 . S
H2736 C2742 0.950 . S
H2737 C2743 0.950 . S
H2738 C2744 0.949 . S
C2739 H2734 0.950 . S
C2739 C2741 1.327 . S
C2739 C2745 1.429 . S
C2740 C2732 1.574 . S
C2740 H2735 0.949 . S
C2740 C2746 1.368 . S
C2741 C2725 1.349 . S
C2741 H2733 0.950 . S
C2741 C2739 1.327 . S
C2742 C2730 1.349 . S
C2742 H2736 0.950 . S
C2742 C2743 1.327 . S
C2743 H2737 0.950 . S
C2743 C2742 1.327 . S
C2743 C2747 1.429 . S
C2744 C2727 1.574 . S
C2744 H2738 0.949 . S
C2744 C2748 1.368 . S
C2745 C2726 1.429 . S
C2745 C2739 1.429 . S
C2745 C2746 1.523 . S
C2746 C2727 1.368 . S
C2746 C2740 1.368 . S
C2746 C2745 1.523 . S
C2747 C2731 1.429 . S
C2747 C2743 1.429 . S
C2747 C2748 1.523 . S
C2748 C2732 1.368 . S
C2748 C2744 1.368 . S
C2748 C2747 1.523 . S
H2749 C2724 0.950 . S
H2750 C2726 0.950 . S
H2751 C2727 0.949 . S
H2752 C2729 0.950 . S
H2753 C2731 0.950 . S
C2754 C2755 1.349 . S
C2754 C2756 1.327 . S
C2754 H2779 0.950 . S
C2755 C2754 1.349 . S
C2755 C2771 1.349 . S
C2756 C2754 1.327 . S
C2756 C2775 1.429 . S
C2756 H2780 0.950 . S
C2757 C2774 1.574 . S
C2757 C2776 1.368 . S
C2757 H2781 0.949 . S
H2758 C2762 0.949 . S
C2759 C2760 1.349 . S
C2759 C2761 1.327 . S
C2759 H2782 0.950 . S
C2760 C2759 1.349 . S
C2760 C2772 1.349 . S
C2761 C2759 1.327 . S
C2761 C2777 1.429 . S
C2761 H2783 0.950 . S
C2762 H2758 0.949 . S
C2762 C2770 1.574 . S
C2762 C2778 1.368 . S
H2763 C2771 0.950 . S
H2764 C2769 0.950 . S
H2765 C2770 0.949 . S
H2766 C2772 0.950 . S
H2767 C2773 0.950 . S
H2768 C2774 0.949 . S
C2769 H2764 0.950 . S
C2769 C2771 1.327 . S
C2769 C2775 1.429 . S
C2770 C2762 1.574 . S
C2770 H2765 0.949 . S
C2770 C2776 1.368 . S
C2771 C2755 1.349 . S
C2771 H2763 0.950 . S
C2771 C2769 1.327 . S
C2772 C2760 1.349 . S
C2772 H2766 0.950 . S
C2772 C2773 1.327 . S
C2773 H2767 0.950 . S
C2773 C2772 1.327 . S
C2773 C2777 1.429 . S
C2774 C2757 1.574 . S
C2774 H2768 0.949 . S
C2774 C2778 1.368 . S
C2775 C2756 1.429 . S
C2775 C2769 1.429 . S
C2775 C2776 1.523 . S
C2776 C2757 1.368 . S
C2776 C2770 1.368 . S
C2776 C2775 1.523 . S
C2777 C2761 1.429 . S
C2777 C2773 1.429 . S
C2777 C2778 1.523 . S
C2778 C2762 1.368 . S
C2778 C2774 1.368 . S
C2778 C2777 1.523 . S
H2779 C2754 0.950 . S
H2780 C2756 0.950 . S
H2781 C2757 0.949 . S
H2782 C2759 0.950 . S
H2783 C2761 0.950 . S
C2784 C2785 1.349 . S
C2784 C2786 1.327 . S
C2784 H2809 0.950 . S
C2785 C2784 1.349 . S
C2785 C2801 1.349 . S
C2786 C2784 1.327 . S
C2786 C2805 1.429 . S
C2786 H2810 0.950 . S
C2787 C2804 1.574 . S
C2787 C2806 1.368 . S
C2787 H2811 0.949 . S
H2788 C2792 0.949 . S
C2789 C2790 1.349 . S
C2789 C2791 1.327 . S
C2789 H2812 0.950 . S
C2790 C2789 1.349 . S
C2790 C2802 1.349 . S
C2791 C2789 1.327 . S
C2791 C2807 1.429 . S
C2791 H2813 0.950 . S
C2792 H2788 0.949 . S
C2792 C2800 1.574 . S
C2792 C2808 1.368 . S
H2793 C2801 0.950 . S
H2794 C2799 0.950 . S
H2795 C2800 0.949 . S
H2796 C2802 0.950 . S
H2797 C2803 0.950 . S
H2798 C2804 0.949 . S
C2799 H2794 0.950 . S
C2799 C2801 1.327 . S
C2799 C2805 1.429 . S
C2800 C2792 1.574 . S
C2800 H2795 0.949 . S
C2800 C2806 1.368 . S
C2801 C2785 1.349 . S
C2801 H2793 0.950 . S
C2801 C2799 1.327 . S
C2802 C2790 1.349 . S
C2802 H2796 0.950 . S
C2802 C2803 1.327 . S
C2803 H2797 0.950 . S
C2803 C2802 1.327 . S
C2803 C2807 1.429 . S
C2804 C2787 1.574 . S
C2804 H2798 0.949 . S
C2804 C2808 1.368 . S
C2805 C2786 1.429 . S
C2805 C2799 1.429 . S
C2805 C2806 1.523 . S
C2806 C2787 1.368 . S
C2806 C2800 1.368 . S
C2806 C2805 1.523 . S
C2807 C2791 1.429 . S
C2807 C2803 1.429 . S
C2807 C2808 1.523 . S
C2808 C2792 1.368 . S
C2808 C2804 1.368 . S
C2808 C2807 1.523 . S
H2809 C2784 0.950 . S
H2810 C2786 0.950 . S
H2811 C2787 0.949 . S
H2812 C2789 0.950 . S
H2813 C2791 0.950 . S
C2814 C2815 1.349 . S
C2814 C2816 1.327 . S
C2814 H2839 0.950 . S
C2815 C2814 1.349 . S
C2815 C2831 1.349 . S
C2816 C2814 1.327 . S
C2816 C2835 1.429 . S
C2816 H2840 0.950 . S
C2817 C2834 1.574 . S
C2817 C2836 1.368 . S
C2817 H2841 0.949 . S
H2818 C2822 0.949 . S
C2819 C2820 1.349 . S
C2819 C2821 1.327 . S
C2819 H2842 0.950 . S
C2820 C2819 1.349 . S
C2820 C2832 1.349 . S
C2821 C2819 1.327 . S
C2821 C2837 1.429 . S
C2821 H2843 0.950 . S
C2822 H2818 0.949 . S
C2822 C2830 1.574 . S
C2822 C2838 1.368 . S
H2823 C2831 0.950 . S
H2824 C2829 0.950 . S
H2825 C2830 0.949 . S
H2826 C2832 0.950 . S
H2827 C2833 0.950 . S
H2828 C2834 0.949 . S
C2829 H2824 0.950 . S
C2829 C2831 1.327 . S
C2829 C2835 1.429 . S
C2830 C2822 1.574 . S
C2830 H2825 0.949 . S
C2830 C2836 1.368 . S
C2831 C2815 1.349 . S
C2831 H2823 0.950 . S
C2831 C2829 1.327 . S
C2832 C2820 1.349 . S
C2832 H2826 0.950 . S
C2832 C2833 1.327 . S
C2833 H2827 0.950 . S
C2833 C2832 1.327 . S
C2833 C2837 1.429 . S
C2834 C2817 1.574 . S
C2834 H2828 0.949 . S
C2834 C2838 1.368 . S
C2835 C2816 1.429 . S
C2835 C2829 1.429 . S
C2835 C2836 1.523 . S
C2836 C2817 1.368 . S
C2836 C2830 1.368 . S
C2836 C2835 1.523 . S
C2837 C2821 1.429 . S
C2837 C2833 1.429 . S
C2837 C2838 1.523 . S
C2838 C2822 1.368 . S
C2838 C2834 1.368 . S
C2838 C2837 1.523 . S
H2839 C2814 0.950 . S
H2840 C2816 0.950 . S
H2841 C2817 0.949 . S
H2842 C2819 0.950 . S
H2843 C2821 0.950 . S
C2844 C2845 1.349 . S
C2844 C2846 1.327 . S
C2844 H2869 0.950 . S
C2845 C2844 1.349 . S
C2845 C2861 1.349 . S
C2846 C2844 1.327 . S
C2846 C2865 1.429 . S
C2846 H2870 0.950 . S
C2847 C2864 1.574 . S
C2847 C2866 1.368 . S
C2847 H2871 0.925 1_455 S
H2848 C2852 0.949 . S
C2849 C2850 1.349 . S
C2849 C2851 1.327 . S
C2849 H2872 0.950 . S
C2850 C2849 1.349 . S
C2850 C2862 1.349 . S
C2851 C2849 1.327 . S
C2851 C2867 1.429 . S
C2851 H2873 0.950 . S
C2852 H2848 0.949 . S
C2852 C2860 1.574 . S
C2852 C2868 1.368 . S
H2853 C2861 0.950 1_655 S
H2854 C2859 0.950 1_655 S
H2855 C2860 0.949 . S
H2856 C2862 0.950 . S
H2857 C2863 0.950 . S
H2858 C2864 0.949 . S
C2859 H2854 0.950 1_455 S
C2859 C2861 1.327 . S
C2859 C2865 1.429 . S
C2860 C2852 1.574 . S
C2860 H2855 0.949 . S
C2860 C2866 1.368 . S
C2861 C2845 1.349 . S
C2861 H2853 0.950 1_455 S
C2861 C2859 1.327 . S
C2862 C2850 1.349 . S
C2862 H2856 0.950 . S
C2862 C2863 1.327 . S
C2863 H2857 0.950 . S
C2863 C2862 1.327 . S
C2863 C2867 1.429 . S
C2864 C2847 1.574 . S
C2864 H2858 0.949 . S
C2864 C2868 1.368 . S
C2865 C2846 1.429 . S
C2865 C2859 1.429 . S
C2865 C2866 1.523 . S
C2866 C2847 1.368 . S
C2866 C2860 1.368 . S
C2866 C2865 1.523 . S
C2867 C2851 1.429 . S
C2867 C2863 1.429 . S
C2867 C2868 1.523 . S
C2868 C2852 1.368 . S
C2868 C2864 1.368 . S
C2868 C2867 1.523 . S
H2869 C2844 0.950 . S
H2870 C2846 0.950 . S
H2871 C2847 0.925 1_655 S
H2872 C2849 0.950 . S
H2873 C2851 0.950 . S
C2874 C2875 1.349 . S
C2874 C2876 1.327 . S
C2874 H2899 0.950 . S
C2875 C2874 1.349 . S
C2875 C2891 1.349 . S
C2876 C2874 1.327 . S
C2876 C2895 1.429 . S
C2876 H2900 0.950 . S
C2877 C2894 1.574 . S
C2877 C2896 1.368 . S
C2877 H2901 0.949 . S
H2878 C2882 0.949 . S
C2879 C2880 1.349 . S
C2879 C2881 1.327 . S
C2879 H2902 0.950 . S
C2880 C2879 1.349 . S
C2880 C2892 1.349 . S
C2881 C2879 1.327 . S
C2881 C2897 1.429 . S
C2881 H2903 0.950 . S
C2882 H2878 0.949 . S
C2882 C2890 1.574 . S
C2882 C2898 1.368 . S
H2883 C2891 0.950 . S
H2884 C2889 0.950 . S
H2885 C2890 0.949 . S
H2886 C2892 0.950 . S
H2887 C2893 0.950 . S
H2888 C2894 0.949 . S
C2889 H2884 0.950 . S
C2889 C2891 1.327 . S
C2889 C2895 1.429 . S
C2890 C2882 1.574 . S
C2890 H2885 0.949 . S
C2890 C2896 1.368 . S
C2891 C2875 1.349 . S
C2891 H2883 0.950 . S
C2891 C2889 1.327 . S
C2892 C2880 1.349 . S
C2892 H2886 0.950 . S
C2892 C2893 1.327 . S
C2893 H2887 0.950 . S
C2893 C2892 1.327 . S
C2893 C2897 1.429 . S
C2894 C2877 1.574 . S
C2894 H2888 0.949 . S
C2894 C2898 1.368 . S
C2895 C2876 1.429 . S
C2895 C2889 1.429 . S
C2895 C2896 1.523 . S
C2896 C2877 1.368 . S
C2896 C2890 1.368 . S
C2896 C2895 1.523 . S
C2897 C2881 1.429 . S
C2897 C2893 1.429 . S
C2897 C2898 1.523 . S
C2898 C2882 1.368 . S
C2898 C2894 1.368 . S
C2898 C2897 1.523 . S
H2899 C2874 0.950 . S
H2900 C2876 0.950 . S
H2901 C2877 0.949 . S
H2902 C2879 0.950 . S
H2903 C2881 0.950 . S
C2904 C2905 1.349 . S
C2904 C2906 1.327 . S
C2904 H2929 0.950 . S
C2905 C2904 1.349 . S
C2905 C2921 1.349 . S
C2906 C2904 1.327 . S
C2906 C2925 1.429 . S
C2906 H2930 0.950 . S
C2907 C2924 1.574 . S
C2907 C2926 1.368 . S
C2907 H2931 0.949 . S
H2908 C2912 0.949 . S
C2909 C2910 1.349 . S
C2909 C2911 1.327 . S
C2909 H2932 0.950 1_556 S
C2910 C2909 1.349 . S
C2910 C2922 1.349 . S
C2911 C2909 1.327 . S
C2911 C2927 1.429 . S
C2911 H2933 0.950 . S
C2912 H2908 0.949 . S
C2912 C2920 1.574 . S
C2912 C2928 1.368 . S
H2913 C2921 0.950 . S
H2914 C2919 0.950 . S
H2915 C2920 0.949 . S
H2916 C2922 0.950 . S
H2917 C2923 0.950 . S
H2918 C2924 0.949 . S
C2919 H2914 0.950 . S
C2919 C2921 1.327 . S
C2919 C2925 1.429 . S
C2920 C2912 1.574 . S
C2920 H2915 0.949 . S
C2920 C2926 1.368 . S
C2921 C2905 1.349 . S
C2921 H2913 0.950 . S
C2921 C2919 1.327 . S
C2922 C2910 1.349 . S
C2922 H2916 0.950 . S
C2922 C2923 1.327 . S
C2923 H2917 0.950 . S
C2923 C2922 1.327 . S
C2923 C2927 1.429 . S
C2924 C2907 1.574 . S
C2924 H2918 0.949 . S
C2924 C2928 1.368 . S
C2925 C2906 1.429 . S
C2925 C2919 1.429 . S
C2925 C2926 1.523 . S
C2926 C2907 1.368 . S
C2926 C2920 1.368 . S
C2926 C2925 1.523 . S
C2927 C2911 1.429 . S
C2927 C2923 1.429 . S
C2927 C2928 1.523 . S
C2928 C2912 1.368 . S
C2928 C2924 1.368 . S
C2928 C2927 1.523 . S
H2929 C2904 0.950 . S
H2930 C2906 0.950 . S
H2931 C2907 0.949 . S
H2932 C2909 0.950 1_554 S
H2933 C2911 0.950 . S
C2934 C2935 1.349 . S
C2934 C2936 1.327 . S
C2934 H2959 0.950 . S
C2935 C2934 1.349 . S
C2935 C2951 1.349 . S
C2936 C2934 1.327 . S
C2936 C2955 1.429 . S
C2936 H2960 0.950 . S
C2937 C2954 1.574 . S
C2937 C2956 1.368 . S
C2937 H2961 0.949 . S
H2938 C2942 0.949 . S
C2939 C2940 1.349 . S
C2939 C2941 1.327 . S
C2939 H2962 0.950 . S
C2940 C2939 1.349 . S
C2940 C2952 1.349 . S
C2941 C2939 1.327 . S
C2941 C2957 1.429 . S
C2941 H2963 0.950 . S
C2942 H2938 0.949 . S
C2942 C2950 1.574 . S
C2942 C2958 1.368 . S
H2943 C2951 0.950 . S
H2944 C2949 0.950 . S
H2945 C2950 0.949 . S
H2946 C2952 0.950 . S
H2947 C2953 0.950 . S
H2948 C2954 0.949 . S
C2949 H2944 0.950 . S
C2949 C2951 1.327 . S
C2949 C2955 1.429 . S
C2950 C2942 1.574 . S
C2950 H2945 0.949 . S
C2950 C2956 1.368 . S
C2951 C2935 1.349 . S
C2951 H2943 0.950 . S
C2951 C2949 1.327 . S
C2952 C2940 1.349 . S
C2952 H2946 0.950 . S
C2952 C2953 1.327 . S
C2953 H2947 0.950 . S
C2953 C2952 1.327 . S
C2953 C2957 1.429 . S
C2954 C2937 1.574 . S
C2954 H2948 0.949 . S
C2954 C2958 1.368 . S
C2955 C2936 1.429 . S
C2955 C2949 1.429 . S
C2955 C2956 1.523 . S
C2956 C2937 1.368 . S
C2956 C2950 1.368 . S
C2956 C2955 1.523 . S
C2957 C2941 1.429 . S
C2957 C2953 1.429 . S
C2957 C2958 1.523 . S
C2958 C2942 1.368 . S
C2958 C2954 1.368 . S
C2958 C2957 1.523 . S
H2959 C2934 0.950 . S
H2960 C2936 0.950 . S
H2961 C2937 0.949 . S
H2962 C2939 0.950 . S
H2963 C2941 0.950 . S
C2964 C2965 1.349 . S
C2964 C2966 1.327 . S
C2964 H2989 0.950 . S
C2965 C2964 1.349 . S
C2965 C2981 1.349 . S
C2966 C2964 1.327 . S
C2966 C2985 1.429 . S
C2966 H2990 0.950 . S
C2967 C2984 1.574 . S
C2967 C2986 1.368 . S
C2967 H2991 0.949 . S
H2968 C2972 0.949 . S
C2969 C2970 1.349 . S
C2969 C2971 1.327 . S
C2969 H2992 0.950 . S
C2970 C2969 1.349 . S
C2970 C2982 1.349 . S
C2971 C2969 1.327 . S
C2971 C2987 1.429 . S
C2971 H2993 0.950 . S
C2972 H2968 0.949 . S
C2972 C2980 1.574 . S
C2972 C2988 1.368 . S
H2973 C2981 0.950 . S
H2974 C2979 0.950 . S
H2975 C2980 0.949 . S
H2976 C2982 0.950 . S
H2977 C2983 0.950 . S
H2978 C2984 0.949 . S
C2979 H2974 0.950 . S
C2979 C2981 1.327 . S
C2979 C2985 1.429 . S
C2980 C2972 1.574 . S
C2980 H2975 0.949 . S
C2980 C2986 1.368 . S
C2981 C2965 1.349 . S
C2981 H2973 0.950 . S
C2981 C2979 1.327 . S
C2982 C2970 1.349 . S
C2982 H2976 0.950 . S
C2982 C2983 1.327 . S
C2983 H2977 0.950 . S
C2983 C2982 1.327 . S
C2983 C2987 1.429 . S
C2984 C2967 1.574 . S
C2984 H2978 0.949 . S
C2984 C2988 1.368 . S
C2985 C2966 1.429 . S
C2985 C2979 1.429 . S
C2985 C2986 1.523 . S
C2986 C2967 1.368 . S
C2986 C2980 1.368 . S
C2986 C2985 1.523 . S
C2987 C2971 1.429 . S
C2987 C2983 1.429 . S
C2987 C2988 1.523 . S
C2988 C2972 1.368 . S
C2988 C2984 1.368 . S
C2988 C2987 1.523 . S
H2989 C2964 0.950 . S
H2990 C2966 0.950 . S
H2991 C2967 0.949 . S
H2992 C2969 0.950 . S
H2993 C2971 0.950 . S
C2994 C2995 1.349 . S
C2994 C2996 1.327 . S
C2994 H3019 0.950 . S
C2995 C2994 1.349 . S
C2995 C3011 1.349 . S
C2996 C2994 1.327 . S
C2996 C3015 1.429 . S
C2996 H3020 0.950 . S
C2997 C3014 1.574 . S
C2997 C3016 1.368 . S
C2997 H3021 0.949 . S
H2998 C3002 0.949 . S
C2999 C3000 1.349 . S
C2999 C3001 1.327 . S
C2999 H3022 0.950 . S
C3000 C2999 1.349 . S
C3000 C3012 1.349 . S
C3001 C2999 1.327 . S
C3001 C3017 1.429 . S
C3001 H3023 0.950 . S
C3002 H2998 0.949 . S
C3002 C3010 1.574 . S
C3002 C3018 1.368 . S
H3003 C3011 0.950 . S
H3004 C3009 0.950 . S
H3005 C3010 0.949 . S
H3006 C3012 0.950 . S
H3007 C3013 0.950 . S
H3008 C3014 0.949 . S
C3009 H3004 0.950 . S
C3009 C3011 1.327 . S
C3009 C3015 1.429 . S
C3010 C3002 1.574 . S
C3010 H3005 0.949 . S
C3010 C3016 1.368 . S
C3011 C2995 1.349 . S
C3011 H3003 0.950 . S
C3011 C3009 1.327 . S
C3012 C3000 1.349 . S
C3012 H3006 0.950 . S
C3012 C3013 1.327 . S
C3013 H3007 0.950 . S
C3013 C3012 1.327 . S
C3013 C3017 1.429 . S
C3014 C2997 1.574 . S
C3014 H3008 0.949 . S
C3014 C3018 1.368 . S
C3015 C2996 1.429 . S
C3015 C3009 1.429 . S
C3015 C3016 1.523 . S
C3016 C2997 1.368 . S
C3016 C3010 1.368 . S
C3016 C3015 1.523 . S
C3017 C3001 1.429 . S
C3017 C3013 1.429 . S
C3017 C3018 1.523 . S
C3018 C3002 1.368 . S
C3018 C3014 1.368 . S
C3018 C3017 1.523 . S
H3019 C2994 0.950 . S
H3020 C2996 0.950 . S
H3021 C2997 0.949 . S
H3022 C2999 0.950 . S
H3023 C3001 0.950 . S
C3024 C3025 1.349 . S
C3024 C3026 1.327 . S
C3024 H3049 0.950 . S
C3025 C3024 1.349 . S
C3025 C3041 1.349 . S
C3026 C3024 1.327 . S
C3026 C3045 1.429 . S
C3026 H3050 0.950 . S
C3027 C3044 1.574 . S
C3027 C3046 1.368 . S
C3027 H3051 0.949 . S
H3028 C3032 0.949 . S
C3029 C3030 1.349 . S
C3029 C3031 1.327 . S
C3029 H3052 0.950 . S
C3030 C3029 1.349 . S
C3030 C3042 1.349 . S
C3031 C3029 1.327 . S
C3031 C3047 1.429 . S
C3031 H3053 0.950 . S
C3032 H3028 0.949 . S
C3032 C3040 1.574 . S
C3032 C3048 1.368 . S
H3033 C3041 0.950 . S
H3034 C3039 0.950 . S
H3035 C3040 0.949 . S
H3036 C3042 0.950 . S
H3037 C3043 0.950 . S
H3038 C3044 0.949 . S
C3039 H3034 0.950 . S
C3039 C3041 1.327 . S
C3039 C3045 1.429 . S
C3040 C3032 1.574 . S
C3040 H3035 0.949 . S
C3040 C3046 1.368 . S
C3041 C3025 1.349 . S
C3041 H3033 0.950 . S
C3041 C3039 1.327 . S
C3042 C3030 1.349 . S
C3042 H3036 0.950 . S
C3042 C3043 1.327 . S
C3043 H3037 0.950 . S
C3043 C3042 1.327 . S
C3043 C3047 1.429 . S
C3044 C3027 1.574 . S
C3044 H3038 0.949 . S
C3044 C3048 1.368 . S
C3045 C3026 1.429 . S
C3045 C3039 1.429 . S
C3045 C3046 1.523 . S
C3046 C3027 1.368 . S
C3046 C3040 1.368 . S
C3046 C3045 1.523 . S
C3047 C3031 1.429 . S
C3047 C3043 1.429 . S
C3047 C3048 1.523 . S
C3048 C3032 1.368 . S
C3048 C3044 1.368 . S
C3048 C3047 1.523 . S
H3049 C3024 0.950 . S
H3050 C3026 0.950 . S
H3051 C3027 0.949 . S
H3052 C3029 0.950 . S
H3053 C3031 0.950 . S
C3054 C3055 1.349 . S
C3054 C3056 1.327 . S
C3054 H3079 0.950 . S
C3055 C3054 1.349 . S
C3055 C3071 1.349 . S
C3056 C3054 1.327 . S
C3056 C3075 1.429 . S
C3056 H3080 0.950 . S
C3057 C3074 1.574 . S
C3057 C3076 1.368 . S
C3057 H3081 0.949 . S
H3058 C3062 0.949 . S
C3059 C3060 1.349 . S
C3059 C3061 1.327 . S
C3059 H3082 0.950 . S
C3060 C3059 1.349 . S
C3060 C3072 1.349 . S
C3061 C3059 1.327 . S
C3061 C3077 1.429 . S
C3061 H3083 0.950 . S
C3062 H3058 0.949 . S
C3062 C3070 1.574 . S
C3062 C3078 1.368 . S
H3063 C3071 0.950 . S
H3064 C3069 0.950 . S
H3065 C3070 0.949 . S
H3066 C3072 0.950 . S
H3067 C3073 0.950 . S
H3068 C3074 0.949 . S
C3069 H3064 0.950 . S
C3069 C3071 1.327 . S
C3069 C3075 1.429 . S
C3070 C3062 1.574 . S
C3070 H3065 0.949 . S
C3070 C3076 1.368 . S
C3071 C3055 1.349 . S
C3071 H3063 0.950 . S
C3071 C3069 1.327 . S
C3072 C3060 1.349 . S
C3072 H3066 0.950 . S
C3072 C3073 1.327 . S
C3073 H3067 0.950 . S
C3073 C3072 1.327 . S
C3073 C3077 1.429 . S
C3074 C3057 1.574 . S
C3074 H3068 0.949 . S
C3074 C3078 1.368 . S
C3075 C3056 1.429 . S
C3075 C3069 1.429 . S
C3075 C3076 1.523 . S
C3076 C3057 1.368 . S
C3076 C3070 1.368 . S
C3076 C3075 1.523 . S
C3077 C3061 1.429 . S
C3077 C3073 1.429 . S
C3077 C3078 1.523 . S
C3078 C3062 1.368 . S
C3078 C3074 1.368 . S
C3078 C3077 1.523 . S
H3079 C3054 0.950 . S
H3080 C3056 0.950 . S
H3081 C3057 0.949 . S
H3082 C3059 0.950 . S
H3083 C3061 0.950 . S
C3084 C3085 1.349 . S
C3084 C3086 1.327 . S
C3084 H3109 0.950 . S
C3085 C3084 1.349 . S
C3085 C3101 1.349 . S
C3086 C3084 1.327 . S
C3086 C3105 1.429 . S
C3086 H3110 0.950 . S
C3087 C3104 1.574 . S
C3087 C3106 1.368 . S
C3087 H3111 0.949 . S
H3088 C3092 0.949 . S
C3089 C3090 1.348 . S
C3089 C3091 1.327 . S
C3089 H3112 0.950 . S
C3090 C3089 1.348 . S
C3090 C3102 1.349 1_655 S
C3091 C3089 1.327 . S
C3091 C3107 1.429 . S
C3091 H3113 0.950 . S
C3092 H3088 0.949 . S
C3092 C3100 1.574 . S
C3092 C3108 1.368 . S
H3093 C3101 0.950 . S
H3094 C3099 0.950 . S
H3095 C3100 0.949 . S
H3096 C3102 0.950 . S
H3097 C3103 0.950 . S
H3098 C3104 0.949 . S
C3099 H3094 0.950 . S
C3099 C3101 1.327 . S
C3099 C3105 1.429 . S
C3100 C3092 1.574 . S
C3100 H3095 0.949 . S
C3100 C3106 1.368 . S
C3101 C3085 1.349 . S
C3101 H3093 0.950 . S
C3101 C3099 1.327 . S
C3102 C3090 1.349 1_455 S
C3102 H3096 0.950 . S
C3102 C3103 1.327 1_455 S
C3103 H3097 0.950 . S
C3103 C3102 1.327 1_655 S
C3103 C3107 1.429 . S
C3104 C3087 1.574 . S
C3104 H3098 0.949 . S
C3104 C3108 1.368 . S
C3105 C3086 1.429 . S
C3105 C3099 1.429 . S
C3105 C3106 1.523 . S
C3106 C3087 1.368 . S
C3106 C3100 1.368 . S
C3106 C3105 1.523 . S
C3107 C3091 1.429 . S
C3107 C3103 1.429 . S
C3107 C3108 1.523 . S
C3108 C3092 1.368 . S
C3108 C3104 1.368 . S
C3108 C3107 1.523 . S
H3109 C3084 0.950 . S
H3110 C3086 0.950 . S
H3111 C3087 0.949 . S
H3112 C3089 0.950 . S
H3113 C3091 0.950 . S
C3114 C3115 1.349 . S
C3114 C3116 1.327 . S
C3114 H3139 0.950 . S
C3115 C3114 1.349 . S
C3115 C3131 1.349 . S
C3116 C3114 1.327 . S
C3116 C3135 1.429 . S
C3116 H3140 0.950 . S
C3117 C3134 1.574 . S
C3117 C3136 1.368 . S
C3117 H3141 0.949 . S
H3118 C3122 0.949 . S
C3119 C3120 1.349 . S
C3119 C3121 1.327 . S
C3119 H3142 0.950 . S
C3120 C3119 1.349 . S
C3120 C3132 1.349 . S
C3121 C3119 1.327 . S
C3121 C3137 1.429 . S
C3121 H3143 0.950 . S
C3122 H3118 0.949 . S
C3122 C3130 1.574 . S
C3122 C3138 1.368 . S
H3123 C3131 0.950 . S
H3124 C3129 0.950 . S
H3125 C3130 0.949 . S
H3126 C3132 0.950 . S
H3127 C3133 0.950 . S
H3128 C3134 0.949 . S
C3129 H3124 0.950 . S
C3129 C3131 1.327 . S
C3129 C3135 1.429 . S
C3130 C3122 1.574 . S
C3130 H3125 0.949 . S
C3130 C3136 1.368 . S
C3131 C3115 1.349 . S
C3131 H3123 0.950 . S
C3131 C3129 1.327 . S
C3132 C3120 1.349 . S
C3132 H3126 0.950 . S
C3132 C3133 1.327 . S
C3133 H3127 0.950 . S
C3133 C3132 1.327 . S
C3133 C3137 1.429 . S
C3134 C3117 1.574 . S
C3134 H3128 0.949 . S
C3134 C3138 1.368 . S
C3135 C3116 1.429 . S
C3135 C3129 1.429 . S
C3135 C3136 1.523 . S
C3136 C3117 1.368 . S
C3136 C3130 1.368 . S
C3136 C3135 1.523 . S
C3137 C3121 1.429 . S
C3137 C3133 1.429 . S
C3137 C3138 1.523 . S
C3138 C3122 1.368 . S
C3138 C3134 1.368 . S
C3138 C3137 1.523 . S
H3139 C3114 0.950 . S
H3140 C3116 0.950 . S
H3141 C3117 0.949 . S
H3142 C3119 0.950 . S
H3143 C3121 0.950 . S
C3144 C3145 1.349 . S
C3144 C3146 1.327 . S
C3144 H3169 0.950 . S
C3145 C3144 1.349 . S
C3145 C3161 1.349 . S
C3146 C3144 1.327 . S
C3146 C3165 1.429 . S
C3146 H3170 0.950 . S
C3147 C3164 1.574 . S
C3147 C3166 1.368 . S
C3147 H3171 0.949 . S
H3148 C3152 0.949 . S
C3149 C3150 1.349 . S
C3149 C3151 1.327 . S
C3149 H3172 0.950 . S
C3150 C3149 1.349 . S
C3150 C3162 1.349 . S
C3151 C3149 1.327 . S
C3151 C3167 1.429 . S
C3151 H3173 0.950 . S
C3152 H3148 0.949 . S
C3152 C3160 1.574 . S
C3152 C3168 1.368 . S
H3153 C3161 0.950 . S
H3154 C3159 0.950 . S
H3155 C3160 0.949 . S
H3156 C3162 0.950 . S
H3157 C3163 0.950 . S
H3158 C3164 0.949 . S
C3159 H3154 0.950 . S
C3159 C3161 1.327 . S
C3159 C3165 1.429 . S
C3160 C3152 1.574 . S
C3160 H3155 0.949 . S
C3160 C3166 1.368 . S
C3161 C3145 1.349 . S
C3161 H3153 0.950 . S
C3161 C3159 1.327 . S
C3162 C3150 1.349 . S
C3162 H3156 0.950 . S
C3162 C3163 1.327 . S
C3163 H3157 0.950 . S
C3163 C3162 1.327 . S
C3163 C3167 1.429 . S
C3164 C3147 1.574 . S
C3164 H3158 0.949 . S
C3164 C3168 1.368 . S
C3165 C3146 1.429 . S
C3165 C3159 1.429 . S
C3165 C3166 1.523 . S
C3166 C3147 1.368 . S
C3166 C3160 1.368 . S
C3166 C3165 1.523 . S
C3167 C3151 1.429 . S
C3167 C3163 1.429 . S
C3167 C3168 1.523 . S
C3168 C3152 1.368 . S
C3168 C3164 1.368 . S
C3168 C3167 1.523 . S
H3169 C3144 0.950 . S
H3170 C3146 0.950 . S
H3171 C3147 0.949 . S
H3172 C3149 0.950 . S
H3173 C3151 0.950 . S
C3174 C3175 1.349 . S
C3174 C3176 1.327 . S
C3174 H3199 0.950 . S
C3175 C3174 1.349 . S
C3175 C3191 1.349 . S
C3176 C3174 1.327 . S
C3176 C3195 1.429 . S
C3176 H3200 0.950 . S
C3177 C3194 1.574 . S
C3177 C3196 1.368 . S
C3177 H3201 0.949 . S
H3178 C3182 0.949 . S
C3179 C3180 1.349 . S
C3179 C3181 1.327 . S
C3179 H3202 0.950 . S
C3180 C3179 1.349 . S
C3180 C3192 1.349 . S
C3181 C3179 1.327 . S
C3181 C3197 1.429 . S
C3181 H3203 0.950 . S
C3182 H3178 0.949 . S
C3182 C3190 1.574 . S
C3182 C3198 1.368 . S
H3183 C3191 0.950 . S
H3184 C3189 0.950 . S
H3185 C3190 0.949 . S
H3186 C3192 0.950 . S
H3187 C3193 0.950 . S
H3188 C3194 0.949 . S
C3189 H3184 0.950 . S
C3189 C3191 1.327 . S
C3189 C3195 1.429 . S
C3190 C3182 1.574 . S
C3190 H3185 0.949 . S
C3190 C3196 1.368 . S
C3191 C3175 1.349 . S
C3191 H3183 0.950 . S
C3191 C3189 1.327 . S
C3192 C3180 1.349 . S
C3192 H3186 0.950 . S
C3192 C3193 1.327 . S
C3193 H3187 0.950 . S
C3193 C3192 1.327 . S
C3193 C3197 1.429 . S
C3194 C3177 1.574 . S
C3194 H3188 0.949 . S
C3194 C3198 1.368 . S
C3195 C3176 1.429 . S
C3195 C3189 1.429 . S
C3195 C3196 1.523 . S
C3196 C3177 1.368 . S
C3196 C3190 1.368 . S
C3196 C3195 1.523 . S
C3197 C3181 1.429 . S
C3197 C3193 1.429 . S
C3197 C3198 1.523 . S
C3198 C3182 1.368 . S
C3198 C3194 1.368 . S
C3198 C3197 1.523 . S
H3199 C3174 0.950 . S
H3200 C3176 0.950 . S
H3201 C3177 0.949 . S
H3202 C3179 0.950 . S
H3203 C3181 0.950 . S
C3204 C3205 1.349 . S
C3204 C3206 1.327 . S
C3204 H3229 0.950 . S
C3205 C3204 1.349 . S
C3205 C3221 1.349 . S
C3206 C3204 1.327 . S
C3206 C3225 1.429 . S
C3206 H3230 0.950 . S
C3207 C3224 1.574 . S
C3207 C3226 1.368 . S
C3207 H3231 0.949 . S
H3208 C3212 0.949 . S
C3209 C3210 1.349 . S
C3209 C3211 1.327 . S
C3209 H3232 0.950 . S
C3210 C3209 1.349 . S
C3210 C3222 1.349 . S
C3211 C3209 1.327 . S
C3211 C3227 1.429 . S
C3211 H3233 0.950 . S
C3212 H3208 0.949 . S
C3212 C3220 1.574 . S
C3212 C3228 1.368 . S
H3213 C3221 0.950 . S
H3214 C3219 0.950 . S
H3215 C3220 0.949 . S
H3216 C3222 0.950 1_455 S
H3217 C3223 0.950 . S
H3218 C3224 0.949 . S
C3219 H3214 0.950 . S
C3219 C3221 1.327 . S
C3219 C3225 1.429 . S
C3220 C3212 1.574 . S
C3220 H3215 0.949 . S
C3220 C3226 1.368 . S
C3221 C3205 1.349 . S
C3221 H3213 0.950 . S
C3221 C3219 1.327 . S
C3222 C3210 1.349 . S
C3222 H3216 0.950 1_655 S
C3222 C3223 1.327 . S
C3223 H3217 0.950 . S
C3223 C3222 1.327 . S
C3223 C3227 1.429 . S
C3224 C3207 1.574 . S
C3224 H3218 0.949 . S
C3224 C3228 1.368 . S
C3225 C3206 1.429 . S
C3225 C3219 1.429 . S
C3225 C3226 1.523 . S
C3226 C3207 1.368 . S
C3226 C3220 1.368 . S
C3226 C3225 1.523 . S
C3227 C3211 1.429 . S
C3227 C3223 1.429 . S
C3227 C3228 1.523 . S
C3228 C3212 1.368 . S
C3228 C3224 1.368 . S
C3228 C3227 1.523 . S
H3229 C3204 0.950 . S
H3230 C3206 0.950 . S
H3231 C3207 0.949 . S
H3232 C3209 0.950 . S
H3233 C3211 0.950 . S
C3234 C3235 1.349 . S
C3234 C3236 1.327 . S
C3234 H3259 0.950 . S
C3235 C3234 1.349 . S
C3235 C3251 1.349 . S
C3236 C3234 1.327 . S
C3236 C3255 1.429 . S
C3236 H3260 0.950 . S
C3237 C3254 1.574 . S
C3237 C3256 1.368 . S
C3237 H3261 0.949 . S
H3238 C3242 0.949 . S
C3239 C3240 1.349 . S
C3239 C3241 1.327 . S
C3239 H3262 0.950 . S
C3240 C3239 1.349 . S
C3240 C3252 1.349 . S
C3241 C3239 1.327 . S
C3241 C3257 1.429 . S
C3241 H3263 0.950 . S
C3242 H3238 0.949 . S
C3242 C3250 1.574 . S
C3242 C3258 1.368 . S
H3243 C3251 0.950 . S
H3244 C3249 0.950 . S
H3245 C3250 0.949 . S
H3246 C3252 0.950 . S
H3247 C3253 0.950 . S
H3248 C3254 0.949 . S
C3249 H3244 0.950 . S
C3249 C3251 1.327 . S
C3249 C3255 1.429 . S
C3250 C3242 1.574 . S
C3250 H3245 0.949 . S
C3250 C3256 1.368 . S
C3251 C3235 1.349 . S
C3251 H3243 0.950 . S
C3251 C3249 1.327 . S
C3252 C3240 1.349 . S
C3252 H3246 0.950 . S
C3252 C3253 1.327 . S
C3253 H3247 0.950 . S
C3253 C3252 1.327 . S
C3253 C3257 1.429 . S
C3254 C3237 1.574 . S
C3254 H3248 0.949 . S
C3254 C3258 1.368 . S
C3255 C3236 1.429 . S
C3255 C3249 1.429 . S
C3255 C3256 1.523 . S
C3256 C3237 1.368 . S
C3256 C3250 1.368 . S
C3256 C3255 1.523 . S
C3257 C3241 1.429 . S
C3257 C3253 1.429 . S
C3257 C3258 1.523 . S
C3258 C3242 1.368 . S
C3258 C3254 1.368 . S
C3258 C3257 1.523 . S
H3259 C3234 0.950 . S
H3260 C3236 0.950 . S
H3261 C3237 0.949 . S
H3262 C3239 0.950 . S
H3263 C3241 0.950 . S
C3264 C3265 1.349 . S
C3264 C3266 1.327 . S
C3264 H3289 0.950 . S
C3265 C3264 1.349 . S
C3265 C3281 1.349 . S
C3266 C3264 1.327 . S
C3266 C3285 1.429 . S
C3266 H3290 0.950 . S
C3267 C3284 1.574 . S
C3267 C3286 1.368 . S
C3267 H3291 0.949 . S
H3268 C3272 0.949 . S
C3269 C3270 1.349 . S
C3269 C3271 1.327 . S
C3269 H3292 0.950 . S
C3270 C3269 1.349 . S
C3270 C3282 1.349 . S
C3271 C3269 1.327 . S
C3271 C3287 1.429 . S
C3271 H3293 0.950 . S
C3272 H3268 0.949 . S
C3272 C3280 1.574 . S
C3272 C3288 1.368 . S
H3273 C3281 0.950 . S
H3274 C3279 0.950 . S
H3275 C3280 0.949 . S
H3276 C3282 0.950 . S
H3277 C3283 0.950 . S
H3278 C3284 0.949 . S
C3279 H3274 0.950 . S
C3279 C3281 1.327 . S
C3279 C3285 1.429 . S
C3280 C3272 1.574 . S
C3280 H3275 0.949 . S
C3280 C3286 1.368 . S
C3281 C3265 1.349 . S
C3281 H3273 0.950 . S
C3281 C3279 1.327 . S
C3282 C3270 1.349 . S
C3282 H3276 0.950 . S
C3282 C3283 1.327 . S
C3283 H3277 0.950 . S
C3283 C3282 1.327 . S
C3283 C3287 1.429 . S
C3284 C3267 1.574 . S
C3284 H3278 0.949 . S
C3284 C3288 1.368 . S
C3285 C3266 1.429 . S
C3285 C3279 1.429 . S
C3285 C3286 1.523 . S
C3286 C3267 1.368 . S
C3286 C3280 1.368 . S
C3286 C3285 1.523 . S
C3287 C3271 1.429 . S
C3287 C3283 1.429 . S
C3287 C3288 1.523 . S
C3288 C3272 1.368 . S
C3288 C3284 1.368 . S
C3288 C3287 1.523 . S
H3289 C3264 0.950 . S
H3290 C3266 0.950 . S
H3291 C3267 0.949 . S
H3292 C3269 0.950 . S
H3293 C3271 0.950 . S
C3294 C3295 1.349 . S
C3294 C3296 1.327 . S
C3294 H3319 0.950 . S
C3295 C3294 1.349 . S
C3295 C3311 1.349 . S
C3296 C3294 1.327 . S
C3296 C3315 1.429 . S
C3296 H3320 0.950 . S
C3297 C3314 1.574 . S
C3297 C3316 1.368 . S
C3297 H3321 0.949 . S
H3298 C3302 0.949 . S
C3299 C3300 1.349 . S
C3299 C3301 1.327 . S
C3299 H3322 0.950 . S
C3300 C3299 1.349 . S
C3300 C3312 1.349 1_545 S
C3301 C3299 1.327 . S
C3301 C3317 1.429 1_545 S
C3301 H3323 0.950 . S
C3302 H3298 0.949 . S
C3302 C3310 1.574 . S
C3302 C3318 1.368 . S
H3303 C3311 0.950 . S
H3304 C3309 0.950 . S
H3305 C3310 0.949 . S
H3306 C3312 0.950 . S
H3307 C3313 0.950 . S
H3308 C3314 0.900 1_545 S
C3309 H3304 0.950 . S
C3309 C3311 1.327 . S
C3309 C3315 1.429 . S
C3310 C3302 1.574 . S
C3310 H3305 0.949 . S
C3310 C3316 1.368 . S
C3311 C3295 1.349 . S
C3311 H3303 0.950 . S
C3311 C3309 1.327 . S
C3312 C3300 1.349 1_565 S
C3312 H3306 0.950 . S
C3312 C3313 1.327 . S
C3313 H3307 0.950 . S
C3313 C3312 1.327 . S
C3313 C3317 1.429 . S
C3314 C3297 1.574 . S
C3314 H3308 0.900 1_565 S
C3314 C3318 1.368 . S
C3315 C3296 1.429 . S
C3315 C3309 1.429 . S
C3315 C3316 1.523 . S
C3316 C3297 1.368 . S
C3316 C3310 1.368 . S
C3316 C3315 1.523 . S
C3317 C3301 1.429 1_565 S
C3317 C3313 1.429 . S
C3317 C3318 1.523 . S
C3318 C3302 1.368 . S
C3318 C3314 1.368 . S
C3318 C3317 1.523 . S
H3319 C3294 0.950 . S
H3320 C3296 0.950 . S
H3321 C3297 0.949 . S
H3322 C3299 0.950 . S
H3323 C3301 0.950 . S
C3324 C3325 1.349 1_565 S
C3324 C3326 1.327 . S
C3324 H3349 0.950 . S
C3325 C3324 1.349 1_545 S
C3325 C3341 1.349 . S
C3326 C3324 1.327 . S
C3326 C3345 1.429 . S
C3326 H3350 0.950 . S
C3327 C3344 1.574 . S
C3327 C3346 1.368 . S
C3327 H3351 0.949 . S
H3328 C3332 0.949 . S
C3329 C3330 1.349 . S
C3329 C3331 1.327 . S
C3329 H3352 0.950 . S
C3330 C3329 1.349 . S
C3330 C3342 1.349 . S
C3331 C3329 1.327 . S
C3331 C3347 1.429 . S
C3331 H3353 0.950 . S
C3332 H3328 0.949 . S
C3332 C3340 1.574 . S
C3332 C3348 1.368 . S
H3333 C3341 0.950 . S
H3334 C3339 0.950 . S
H3335 C3340 0.949 . S
H3336 C3342 0.950 . S
H3337 C3343 0.950 . S
H3338 C3344 0.949 . S
C3339 H3334 0.950 . S
C3339 C3341 1.327 1_565 S
C3339 C3345 1.429 . S
C3340 C3332 1.574 . S
C3340 H3335 0.949 . S
C3340 C3346 1.368 . S
C3341 C3325 1.349 . S
C3341 H3333 0.950 . S
C3341 C3339 1.327 1_545 S
C3342 C3330 1.349 . S
C3342 H3336 0.950 . S
C3342 C3343 1.327 . S
C3343 H3337 0.950 . S
C3343 C3342 1.327 . S
C3343 C3347 1.429 . S
C3344 C3327 1.574 . S
C3344 H3338 0.949 . S
C3344 C3348 1.368 . S
C3345 C3326 1.429 . S
C3345 C3339 1.429 . S
C3345 C3346 1.523 . S
C3346 C3327 1.368 . S
C3346 C3340 1.368 . S
C3346 C3345 1.523 . S
C3347 C3331 1.429 . S
C3347 C3343 1.429 . S
C3347 C3348 1.523 . S
C3348 C3332 1.368 . S
C3348 C3344 1.368 . S
C3348 C3347 1.523 . S
H3349 C3324 0.950 . S
H3350 C3326 0.950 . S
H3351 C3327 0.949 . S
H3352 C3329 0.950 . S
H3353 C3331 0.950 . S
C3354 C3355 1.349 . S
C3354 C3356 1.327 . S
C3354 H3379 0.950 1_554 S
C3355 C3354 1.349 . S
C3355 C3371 1.349 . S
C3356 C3354 1.327 . S
C3356 C3375 1.429 . S
C3356 H3380 0.950 1_554 S
C3357 C3374 1.574 . S
C3357 C3376 1.368 . S
C3357 H3381 0.949 . S
H3358 C3362 0.932 1_556 S
C3359 C3360 1.349 . S
C3359 C3361 1.327 . S
C3359 H3382 0.950 . S
C3360 C3359 1.349 . S
C3360 C3372 1.349 . S
C3361 C3359 1.327 . S
C3361 C3377 1.429 . S
C3361 H3383 0.950 . S
C3362 H3358 0.932 1_554 S
C3362 C3370 1.574 . S
C3362 C3378 1.368 . S
H3363 C3371 0.950 . S
H3364 C3369 0.950 . S
H3365 C3370 0.949 1_556 S
H3366 C3372 0.950 . S
H3367 C3373 0.996 . S
H3368 C3374 0.949 . S
C3369 H3364 0.950 . S
C3369 C3371 1.327 . S
C3369 C3375 1.429 . S
C3370 C3362 1.574 . S
C3370 H3365 0.949 1_554 S
C3370 C3376 1.368 . S
C3371 C3355 1.349 . S
C3371 H3363 0.950 . S
C3371 C3369 1.327 . S
C3372 C3360 1.349 . S
C3372 H3366 0.950 . S
C3372 C3373 1.327 . S
C3373 H3367 0.996 . S
C3373 C3372 1.327 . S
C3373 C3377 1.429 . S
C3374 C3357 1.574 . S
C3374 H3368 0.949 . S
C3374 C3378 1.368 . S
C3375 C3356 1.429 . S
C3375 C3369 1.429 . S
C3375 C3376 1.523 . S
C3376 C3357 1.368 . S
C3376 C3370 1.368 . S
C3376 C3375 1.523 . S
C3377 C3361 1.429 . S
C3377 C3373 1.429 . S
C3377 C3378 1.523 . S
C3378 C3362 1.368 . S
C3378 C3374 1.368 . S
C3378 C3377 1.523 . S
H3379 C3354 0.950 1_556 S
H3380 C3356 0.950 1_556 S
H3381 C3357 0.949 . S
H3382 C3359 0.950 . S
H3383 C3361 0.950 . S
C3384 C3385 1.349 . S
C3384 C3386 1.327 . S
C3384 H3409 0.950 . S
C3385 C3384 1.349 . S
C3385 C3401 1.349 . S
C3386 C3384 1.327 . S
C3386 C3405 1.429 . S
C3386 H3410 0.950 . S
C3387 C3404 1.574 . S
C3387 C3406 1.368 . S
C3387 H3411 0.949 . S
H3388 C3392 0.949 . S
C3389 C3390 1.349 . S
C3389 C3391 1.327 . S
C3389 H3412 0.950 . S
C3390 C3389 1.349 . S
C3390 C3402 1.349 . S
C3391 C3389 1.327 . S
C3391 C3407 1.429 . S
C3391 H3413 0.950 . S
C3392 H3388 0.949 . S
C3392 C3400 1.574 . S
C3392 C3408 1.368 . S
H3393 C3401 0.950 . S
H3394 C3399 0.950 . S
H3395 C3400 0.949 . S
H3396 C3402 0.950 . S
H3397 C3403 0.950 . S
H3398 C3404 0.949 . S
C3399 H3394 0.950 . S
C3399 C3401 1.327 . S
C3399 C3405 1.429 . S
C3400 C3392 1.574 . S
C3400 H3395 0.949 . S
C3400 C3406 1.368 . S
C3401 C3385 1.349 . S
C3401 H3393 0.950 . S
C3401 C3399 1.327 . S
C3402 C3390 1.349 . S
C3402 H3396 0.950 . S
C3402 C3403 1.327 . S
C3403 H3397 0.950 . S
C3403 C3402 1.327 . S
C3403 C3407 1.429 . S
C3404 C3387 1.574 . S
C3404 H3398 0.949 . S
C3404 C3408 1.368 . S
C3405 C3386 1.429 . S
C3405 C3399 1.429 . S
C3405 C3406 1.523 . S
C3406 C3387 1.368 . S
C3406 C3400 1.368 . S
C3406 C3405 1.523 . S
C3407 C3391 1.429 . S
C3407 C3403 1.429 . S
C3407 C3408 1.523 . S
C3408 C3392 1.368 . S
C3408 C3404 1.368 . S
C3408 C3407 1.523 . S
H3409 C3384 0.950 . S
H3410 C3386 0.950 . S
H3411 C3387 0.949 . S
H3412 C3389 0.950 . S
H3413 C3391 0.950 . S
C3414 C3415 1.349 . S
C3414 C3416 1.327 . S
C3414 H3439 0.950 . S
C3415 C3414 1.349 . S
C3415 C3431 1.349 . S
C3416 C3414 1.327 . S
C3416 C3435 1.429 . S
C3416 H3440 0.950 . S
C3417 C3434 1.574 . S
C3417 C3436 1.368 . S
C3417 H3441 0.949 . S
H3418 C3422 0.949 . S
C3419 C3420 1.349 1_556 S
C3419 C3421 1.327 1_556 S
C3419 H3442 0.950 . S
C3420 C3419 1.349 1_554 S
C3420 C3432 1.349 . S
C3421 C3419 1.327 1_554 S
C3421 C3437 1.429 . S
C3421 H3443 0.950 1_554 S
C3422 H3418 0.949 . S
C3422 C3430 1.574 . S
C3422 C3438 1.368 . S
H3423 C3431 0.950 . S
H3424 C3429 0.950 . S
H3425 C3430 0.949 . S
H3426 C3432 0.950 . S
H3427 C3433 0.950 . S
H3428 C3434 0.949 1_556 S
C3429 H3424 0.950 . S
C3429 C3431 1.327 . S
C3429 C3435 1.429 . S
C3430 C3422 1.574 . S
C3430 H3425 0.949 . S
C3430 C3436 1.368 . S
C3431 C3415 1.349 . S
C3431 H3423 0.950 . S
C3431 C3429 1.327 . S
C3432 C3420 1.349 . S
C3432 H3426 0.950 . S
C3432 C3433 1.327 . S
C3433 H3427 0.950 . S
C3433 C3432 1.327 . S
C3433 C3437 1.429 . S
C3434 C3417 1.574 . S
C3434 H3428 0.949 1_554 S
C3434 C3438 1.368 . S
C3435 C3416 1.429 . S
C3435 C3429 1.429 . S
C3435 C3436 1.523 . S
C3436 C3417 1.368 . S
C3436 C3430 1.368 . S
C3436 C3435 1.523 . S
C3437 C3421 1.429 . S
C3437 C3433 1.429 . S
C3437 C3438 1.523 . S
C3438 C3422 1.368 . S
C3438 C3434 1.368 . S
C3438 C3437 1.523 . S
H3439 C3414 0.950 . S
H3440 C3416 0.950 . S
H3441 C3417 0.949 . S
H3442 C3419 0.950 . S
H3443 C3421 0.950 1_556 S
C3444 C3445 1.349 . S
C3444 C3446 1.327 . S
C3444 H3469 0.950 . S
C3445 C3444 1.349 . S
C3445 C3461 1.349 . S
C3446 C3444 1.327 . S
C3446 C3465 1.429 . S
C3446 H3470 0.950 . S
C3447 C3464 1.574 . S
C3447 C3466 1.368 . S
C3447 H3471 0.949 . S
H3448 C3452 0.949 . S
C3449 C3450 1.349 . S
C3449 C3451 1.327 . S
C3449 H3472 0.950 . S
C3450 C3449 1.349 . S
C3450 C3462 1.349 . S
C3451 C3449 1.327 . S
C3451 C3467 1.429 . S
C3451 H3473 0.950 . S
C3452 H3448 0.949 . S
C3452 C3460 1.574 . S
C3452 C3468 1.368 . S
H3453 C3461 0.950 . S
H3454 C3459 0.950 . S
H3455 C3460 0.949 . S
H3456 C3462 0.950 . S
H3457 C3463 0.950 . S
H3458 C3464 0.949 . S
C3459 H3454 0.950 . S
C3459 C3461 1.327 . S
C3459 C3465 1.429 . S
C3460 C3452 1.574 . S
C3460 H3455 0.949 . S
C3460 C3466 1.368 . S
C3461 C3445 1.349 . S
C3461 H3453 0.950 . S
C3461 C3459 1.327 . S
C3462 C3450 1.349 . S
C3462 H3456 0.950 . S
C3462 C3463 1.327 . S
C3463 H3457 0.950 . S
C3463 C3462 1.327 . S
C3463 C3467 1.429 . S
C3464 C3447 1.574 . S
C3464 H3458 0.949 . S
C3464 C3468 1.368 . S
C3465 C3446 1.429 . S
C3465 C3459 1.429 . S
C3465 C3466 1.523 . S
C3466 C3447 1.368 . S
C3466 C3460 1.368 . S
C3466 C3465 1.523 . S
C3467 C3451 1.429 . S
C3467 C3463 1.429 . S
C3467 C3468 1.523 . S
C3468 C3452 1.368 . S
C3468 C3464 1.368 . S
C3468 C3467 1.523 . S
H3469 C3444 0.950 . S
H3470 C3446 0.950 . S
H3471 C3447 0.949 . S
H3472 C3449 0.950 . S
H3473 C3451 0.950 . S
C3474 C3475 1.349 . S
C3474 C3476 1.327 . S
C3474 H3499 0.950 . S
C3475 C3474 1.349 . S
C3475 C3491 1.349 . S
C3476 C3474 1.327 . S
C3476 C3495 1.429 . S
C3476 H3500 0.950 . S
C3477 C3494 1.574 . S
C3477 C3496 1.368 . S
C3477 H3501 0.949 . S
H3478 C3482 0.949 . S
C3479 C3480 1.349 . S
C3479 C3481 1.327 . S
C3479 H3502 0.950 . S
C3480 C3479 1.349 . S
C3480 C3492 1.349 . S
C3481 C3479 1.327 . S
C3481 C3497 1.429 . S
C3481 H3503 0.950 . S
C3482 H3478 0.949 . S
C3482 C3490 1.574 . S
C3482 C3498 1.368 . S
H3483 C3491 0.950 . S
H3484 C3489 0.950 . S
H3485 C3490 0.949 . S
H3486 C3492 0.950 . S
H3487 C3493 0.950 . S
H3488 C3494 0.949 . S
C3489 H3484 0.950 . S
C3489 C3491 1.327 . S
C3489 C3495 1.429 . S
C3490 C3482 1.574 . S
C3490 H3485 0.949 . S
C3490 C3496 1.368 . S
C3491 C3475 1.349 . S
C3491 H3483 0.950 . S
C3491 C3489 1.327 . S
C3492 C3480 1.349 . S
C3492 H3486 0.950 . S
C3492 C3493 1.327 . S
C3493 H3487 0.950 . S
C3493 C3492 1.327 . S
C3493 C3497 1.429 . S
C3494 C3477 1.574 . S
C3494 H3488 0.949 . S
C3494 C3498 1.368 . S
C3495 C3476 1.429 . S
C3495 C3489 1.429 . S
C3495 C3496 1.523 . S
C3496 C3477 1.368 . S
C3496 C3490 1.368 . S
C3496 C3495 1.523 . S
C3497 C3481 1.429 . S
C3497 C3493 1.429 . S
C3497 C3498 1.523 . S
C3498 C3482 1.368 . S
C3498 C3494 1.368 . S
C3498 C3497 1.523 . S
H3499 C3474 0.950 . S
H3500 C3476 0.950 . S
H3501 C3477 0.949 . S
H3502 C3479 0.950 . S
H3503 C3481 0.950 . S
C3504 C3505 1.349 . S
C3504 C3506 1.327 . S
C3504 H3529 0.950 . S
C3505 C3504 1.349 . S
C3505 C3521 1.349 . S
C3506 C3504 1.327 . S
C3506 C3525 1.429 . S
C3506 H3530 0.950 . S
C3507 C3524 1.574 . S
C3507 C3526 1.368 . S
C3507 H3531 0.949 . S
H3508 C3512 0.949 . S
C3509 C3510 1.349 . S
C3509 C3511 1.327 . S
C3509 H3532 0.950 . S
C3510 C3509 1.349 . S
C3510 C3522 1.349 . S
C3511 C3509 1.327 . S
C3511 C3527 1.429 . S
C3511 H3533 0.950 . S
C3512 H3508 0.949 . S
C3512 C3520 1.574 . S
C3512 C3528 1.368 . S
H3513 C3521 0.950 . S
H3514 C3519 0.950 . S
H3515 C3520 0.949 . S
H3516 C3522 0.950 . S
H3517 C3523 0.950 . S
H3518 C3524 0.949 . S
C3519 H3514 0.950 . S
C3519 C3521 1.327 . S
C3519 C3525 1.429 . S
C3520 C3512 1.574 . S
C3520 H3515 0.949 . S
C3520 C3526 1.368 . S
C3521 C3505 1.349 . S
C3521 H3513 0.950 . S
C3521 C3519 1.327 . S
C3522 C3510 1.349 . S
C3522 H3516 0.950 . S
C3522 C3523 1.327 . S
C3523 H3517 0.950 . S
C3523 C3522 1.327 . S
C3523 C3527 1.429 . S
C3524 C3507 1.574 . S
C3524 H3518 0.949 . S
C3524 C3528 1.368 . S
C3525 C3506 1.429 . S
C3525 C3519 1.429 . S
C3525 C3526 1.523 . S
C3526 C3507 1.368 . S
C3526 C3520 1.368 . S
C3526 C3525 1.523 . S
C3527 C3511 1.429 . S
C3527 C3523 1.429 . S
C3527 C3528 1.523 . S
C3528 C3512 1.368 . S
C3528 C3524 1.368 . S
C3528 C3527 1.523 . S
H3529 C3504 0.950 . S
H3530 C3506 0.950 . S
H3531 C3507 0.949 . S
H3532 C3509 0.950 . S
H3533 C3511 0.950 . S
C3534 C3535 1.349 . S
C3534 C3536 1.327 . S
C3534 H3559 0.950 . S
C3535 C3534 1.349 . S
C3535 C3551 1.349 . S
C3536 C3534 1.327 . S
C3536 C3555 1.429 . S
C3536 H3560 0.950 . S
C3537 C3554 1.574 . S
C3537 C3556 1.368 . S
C3537 H3561 0.949 . S
H3538 C3542 0.949 . S
C3539 C3540 1.349 . S
C3539 C3541 1.327 . S
C3539 H3562 0.950 . S
C3540 C3539 1.349 . S
C3540 C3552 1.349 . S
C3541 C3539 1.327 . S
C3541 C3557 1.429 . S
C3541 H3563 0.950 . S
C3542 H3538 0.949 . S
C3542 C3550 1.574 . S
C3542 C3558 1.368 . S
H3543 C3551 0.950 . S
H3544 C3549 0.950 . S
H3545 C3550 0.949 . S
H3546 C3552 0.950 . S
H3547 C3553 0.950 . S
H3548 C3554 0.949 . S
C3549 H3544 0.950 . S
C3549 C3551 1.327 . S
C3549 C3555 1.429 . S
C3550 C3542 1.574 . S
C3550 H3545 0.949 . S
C3550 C3556 1.368 . S
C3551 C3535 1.349 . S
C3551 H3543 0.950 . S
C3551 C3549 1.327 . S
C3552 C3540 1.349 . S
C3552 H3546 0.950 . S
C3552 C3553 1.327 . S
C3553 H3547 0.950 . S
C3553 C3552 1.327 . S
C3553 C3557 1.429 . S
C3554 C3537 1.574 . S
C3554 H3548 0.949 . S
C3554 C3558 1.368 . S
C3555 C3536 1.429 . S
C3555 C3549 1.429 . S
C3555 C3556 1.523 . S
C3556 C3537 1.368 . S
C3556 C3550 1.368 . S
C3556 C3555 1.523 . S
C3557 C3541 1.429 . S
C3557 C3553 1.429 . S
C3557 C3558 1.523 . S
C3558 C3542 1.368 . S
C3558 C3554 1.368 . S
C3558 C3557 1.523 . S
H3559 C3534 0.950 . S
H3560 C3536 0.950 . S
H3561 C3537 0.949 . S
H3562 C3539 0.950 . S
H3563 C3541 0.950 . S
C3564 C3565 1.349 . S
C3564 C3566 1.327 . S
C3564 H3589 0.950 1_455 S
C3565 C3564 1.349 . S
C3565 C3581 1.349 . S
C3566 C3564 1.327 . S
C3566 C3585 1.429 . S
C3566 H3590 0.950 1_455 S
C3567 C3584 1.574 . S
C3567 C3586 1.368 . S
C3567 H3591 0.949 . S
H3568 C3572 0.950 . S
C3569 C3570 1.349 . S
C3569 C3571 1.327 . S
C3569 H3592 0.950 . S
C3570 C3569 1.349 . S
C3570 C3582 1.349 1_456 S
C3571 C3569 1.327 . S
C3571 C3587 1.429 . S
C3571 H3593 0.950 . S
C3572 H3568 0.950 . S
C3572 C3580 1.572 1_655 S
C3572 C3588 1.367 1_655 S
H3573 C3581 0.950 . S
H3574 C3579 0.950 . S
H3575 C3580 0.921 1_655 S
H3576 C3582 0.950 . S
H3577 C3583 0.942 1_554 S
H3578 C3584 0.949 . S
C3579 H3574 0.950 . S
C3579 C3581 1.327 . S
C3579 C3585 1.429 . S
C3580 C3572 1.572 1_455 S
C3580 H3575 0.921 1_455 S
C3580 C3586 1.403 . S
C3581 C3565 1.349 . S
C3581 H3573 0.950 . S
C3581 C3579 1.327 . S
C3582 C3570 1.349 1_654 S
C3582 H3576 0.950 . S
C3582 C3583 1.327 1_554 S
C3583 H3577 0.942 1_556 S
C3583 C3582 1.327 1_556 S
C3583 C3587 1.429 1_655 S
C3584 C3567 1.574 . S
C3584 H3578 0.949 . S
C3584 C3588 1.368 . S
C3585 C3566 1.429 . S
C3585 C3579 1.429 . S
C3585 C3586 1.523 . S
C3586 C3567 1.368 . S
C3586 C3580 1.403 . S
C3586 C3585 1.523 . S
C3587 C3571 1.429 . S
C3587 C3583 1.429 1_455 S
C3587 C3588 1.523 . S
C3588 C3572 1.367 1_455 S
C3588 C3584 1.368 . S
C3588 C3587 1.523 . S
H3589 C3564 0.950 1_655 S
H3590 C3566 0.950 1_655 S
H3591 C3567 0.949 . S
H3592 C3569 0.950 . S
H3593 C3571 0.950 . S
C3594 C3595 1.349 . S
C3594 C3596 1.327 . S
C3594 H3619 0.950 . S
C3595 C3594 1.349 . S
C3595 C3611 1.349 . S
C3596 C3594 1.327 . S
C3596 C3615 1.429 . S
C3596 H3620 0.950 . S
C3597 C3614 1.574 . S
C3597 C3616 1.368 . S
C3597 H3621 0.949 . S
H3598 C3602 0.949 . S
C3599 C3600 1.349 . S
C3599 C3601 1.327 . S
C3599 H3622 0.950 . S
C3600 C3599 1.349 . S
C3600 C3612 1.349 . S
C3601 C3599 1.327 . S
C3601 C3617 1.429 . S
C3601 H3623 0.950 . S
C3602 H3598 0.949 . S
C3602 C3610 1.574 . S
C3602 C3618 1.368 . S
H3603 C3611 0.950 . S
H3604 C3609 0.950 . S
H3605 C3610 0.949 . S
H3606 C3612 0.950 . S
H3607 C3613 0.950 . S
H3608 C3614 0.949 . S
C3609 H3604 0.950 . S
C3609 C3611 1.327 . S
C3609 C3615 1.429 . S
C3610 C3602 1.574 . S
C3610 H3605 0.949 . S
C3610 C3616 1.368 . S
C3611 C3595 1.349 . S
C3611 H3603 0.950 . S
C3611 C3609 1.327 . S
C3612 C3600 1.349 . S
C3612 H3606 0.950 . S
C3612 C3613 1.327 . S
C3613 H3607 0.950 . S
C3613 C3612 1.327 . S
C3613 C3617 1.429 . S
C3614 C3597 1.574 . S
C3614 H3608 0.949 . S
C3614 C3618 1.368 . S
C3615 C3596 1.429 . S
C3615 C3609 1.429 . S
C3615 C3616 1.523 . S
C3616 C3597 1.368 . S
C3616 C3610 1.368 . S
C3616 C3615 1.523 . S
C3617 C3601 1.429 . S
C3617 C3613 1.429 . S
C3617 C3618 1.523 . S
C3618 C3602 1.368 . S
C3618 C3614 1.368 . S
C3618 C3617 1.523 . S
H3619 C3594 0.950 . S
H3620 C3596 0.950 . S
H3621 C3597 0.949 . S
H3622 C3599 0.950 . S
H3623 C3601 0.950 . S
C3624 C3625 1.349 . S
C3624 C3626 1.327 . S
C3624 H3649 0.950 . S
C3625 C3624 1.349 . S
C3625 C3641 1.349 . S
C3626 C3624 1.327 . S
C3626 C3645 1.429 . S
C3626 H3650 0.950 . S
C3627 C3644 1.574 . S
C3627 C3646 1.368 . S
C3627 H3651 0.949 . S
H3628 C3632 0.949 . S
C3629 C3630 1.349 . S
C3629 C3631 1.327 . S
C3629 H3652 0.950 . S
C3630 C3629 1.349 . S
C3630 C3642 1.349 . S
C3631 C3629 1.327 . S
C3631 C3647 1.429 . S
C3631 H3653 0.950 . S
C3632 H3628 0.949 . S
C3632 C3640 1.574 . S
C3632 C3648 1.368 . S
H3633 C3641 0.950 . S
H3634 C3639 0.950 . S
H3635 C3640 0.949 . S
H3636 C3642 0.950 . S
H3637 C3643 0.950 . S
H3638 C3644 0.949 . S
C3639 H3634 0.950 . S
C3639 C3641 1.327 . S
C3639 C3645 1.429 . S
C3640 C3632 1.574 . S
C3640 H3635 0.949 . S
C3640 C3646 1.368 . S
C3641 C3625 1.349 . S
C3641 H3633 0.950 . S
C3641 C3639 1.327 . S
C3642 C3630 1.349 . S
C3642 H3636 0.950 . S
C3642 C3643 1.327 . S
C3643 H3637 0.950 . S
C3643 C3642 1.327 . S
C3643 C3647 1.429 . S
C3644 C3627 1.574 . S
C3644 H3638 0.949 . S
C3644 C3648 1.368 . S
C3645 C3626 1.429 . S
C3645 C3639 1.429 . S
C3645 C3646 1.523 . S
C3646 C3627 1.368 . S
C3646 C3640 1.368 . S
C3646 C3645 1.523 . S
C3647 C3631 1.429 . S
C3647 C3643 1.429 . S
C3647 C3648 1.523 . S
C3648 C3632 1.368 . S
C3648 C3644 1.368 . S
C3648 C3647 1.523 . S
H3649 C3624 0.950 . S
H3650 C3626 0.950 . S
H3651 C3627 0.949 . S
H3652 C3629 0.950 . S
H3653 C3631 0.950 . S
C3654 C3655 1.349 . S
C3654 C3656 1.327 . S
C3654 H3679 0.950 . S
C3655 C3654 1.349 . S
C3655 C3671 1.349 . S
C3656 C3654 1.327 . S
C3656 C3675 1.429 . S
C3656 H3680 0.950 . S
C3657 C3674 1.574 . S
C3657 C3676 1.368 . S
C3657 H3681 0.949 . S
H3658 C3662 0.949 . S
C3659 C3660 1.349 . S
C3659 C3661 1.327 . S
C3659 H3682 0.950 . S
C3660 C3659 1.349 . S
C3660 C3672 1.349 . S
C3661 C3659 1.327 . S
C3661 C3677 1.429 . S
C3661 H3683 0.950 . S
C3662 H3658 0.949 . S
C3662 C3670 1.574 . S
C3662 C3678 1.368 . S
H3663 C3671 0.950 . S
H3664 C3669 0.950 . S
H3665 C3670 0.949 . S
H3666 C3672 0.950 . S
H3667 C3673 0.950 . S
H3668 C3674 0.949 . S
C3669 H3664 0.950 . S
C3669 C3671 1.327 . S
C3669 C3675 1.429 . S
C3670 C3662 1.574 . S
C3670 H3665 0.949 . S
C3670 C3676 1.368 . S
C3671 C3655 1.349 . S
C3671 H3663 0.950 . S
C3671 C3669 1.327 . S
C3672 C3660 1.349 . S
C3672 H3666 0.950 . S
C3672 C3673 1.327 . S
C3673 H3667 0.950 . S
C3673 C3672 1.327 . S
C3673 C3677 1.429 . S
C3674 C3657 1.574 . S
C3674 H3668 0.949 . S
C3674 C3678 1.368 . S
C3675 C3656 1.429 . S
C3675 C3669 1.429 . S
C3675 C3676 1.523 . S
C3676 C3657 1.368 . S
C3676 C3670 1.368 . S
C3676 C3675 1.523 . S
C3677 C3661 1.429 . S
C3677 C3673 1.429 . S
C3677 C3678 1.523 . S
C3678 C3662 1.368 . S
C3678 C3674 1.368 . S
C3678 C3677 1.523 . S
H3679 C3654 0.950 . S
H3680 C3656 0.950 . S
H3681 C3657 0.949 . S
H3682 C3659 0.950 . S
H3683 C3661 0.950 . S
C3684 C3685 1.348 . S
C3684 C3686 1.327 . S
C3684 H3709 0.950 . S
C3685 C3684 1.348 . S
C3685 C3701 1.350 1_655 S
C3686 C3684 1.327 . S
C3686 C3705 1.429 1_655 S
C3686 H3710 0.950 . S
C3687 C3704 1.574 . S
C3687 C3706 1.368 . S
C3687 H3711 0.949 . S
H3688 C3692 0.949 . S
C3689 C3690 1.349 . S
C3689 C3691 1.327 . S
C3689 H3712 0.950 . S
C3690 C3689 1.349 . S
C3690 C3702 1.349 1_455 S
C3691 C3689 1.327 . S
C3691 C3707 1.429 . S
C3691 H3713 0.950 . S
C3692 H3688 0.949 . S
C3692 C3700 1.574 . S
C3692 C3708 1.368 1_655 S
H3693 C3701 0.950 . S
H3694 C3699 0.950 . S
H3695 C3700 0.949 . S
H3696 C3702 0.950 . S
H3697 C3703 0.950 . S
H3698 C3704 0.949 . S
C3699 H3694 0.950 . S
C3699 C3701 1.327 . S
C3699 C3705 1.429 . S
C3700 C3692 1.574 . S
C3700 H3695 0.949 . S
C3700 C3706 1.368 1_655 S
C3701 C3685 1.350 1_455 S
C3701 H3693 0.950 . S
C3701 C3699 1.327 . S
C3702 C3690 1.349 1_655 S
C3702 H3696 0.950 . S
C3702 C3703 1.327 . S
C3703 H3697 0.950 . S
C3703 C3702 1.327 . S
C3703 C3707 1.429 1_655 S
C3704 C3687 1.574 . S
C3704 H3698 0.949 . S
C3704 C3708 1.368 . S
C3705 C3686 1.429 1_455 S
C3705 C3699 1.429 . S
C3705 C3706 1.523 . S
C3706 C3687 1.368 . S
C3706 C3700 1.368 1_455 S
C3706 C3705 1.523 . S
C3707 C3691 1.429 . S
C3707 C3703 1.429 1_455 S
C3707 C3708 1.523 . S
C3708 C3692 1.368 1_455 S
C3708 C3704 1.368 . S
C3708 C3707 1.523 . S
H3709 C3684 0.950 . S
H3710 C3686 0.950 . S
H3711 C3687 0.949 . S
H3712 C3689 0.950 . S
H3713 C3691 0.950 . S
C3714 C3715 1.349 . S
C3714 C3716 1.327 . S
C3714 H3739 0.950 . S
C3715 C3714 1.349 . S
C3715 C3731 1.349 . S
C3716 C3714 1.327 . S
C3716 C3735 1.429 . S
C3716 H3740 0.950 . S
C3717 C3734 1.574 . S
C3717 C3736 1.368 . S
C3717 H3741 0.949 . S
H3718 C3722 0.949 . S
C3719 C3720 1.349 . S
C3719 C3721 1.327 . S
C3719 H3742 0.950 . S
C3720 C3719 1.349 . S
C3720 C3732 1.349 . S
C3721 C3719 1.327 . S
C3721 C3737 1.429 . S
C3721 H3743 0.950 . S
C3722 H3718 0.949 . S
C3722 C3730 1.574 . S
C3722 C3738 1.368 . S
H3723 C3731 0.950 . S
H3724 C3729 0.950 . S
H3725 C3730 0.949 . S
H3726 C3732 0.950 . S
H3727 C3733 0.950 . S
H3728 C3734 0.949 . S
C3729 H3724 0.950 . S
C3729 C3731 1.327 . S
C3729 C3735 1.429 . S
C3730 C3722 1.574 . S
C3730 H3725 0.949 . S
C3730 C3736 1.368 . S
C3731 C3715 1.349 . S
C3731 H3723 0.950 . S
C3731 C3729 1.327 . S
C3732 C3720 1.349 . S
C3732 H3726 0.950 . S
C3732 C3733 1.327 . S
C3733 H3727 0.950 . S
C3733 C3732 1.327 . S
C3733 C3737 1.429 . S
C3734 C3717 1.574 . S
C3734 H3728 0.949 . S
C3734 C3738 1.368 . S
C3735 C3716 1.429 . S
C3735 C3729 1.429 . S
C3735 C3736 1.523 . S
C3736 C3717 1.368 . S
C3736 C3730 1.368 . S
C3736 C3735 1.523 . S
C3737 C3721 1.429 . S
C3737 C3733 1.429 . S
C3737 C3738 1.523 . S
C3738 C3722 1.368 . S
C3738 C3734 1.368 . S
C3738 C3737 1.523 . S
H3739 C3714 0.950 . S
H3740 C3716 0.950 . S
H3741 C3717 0.949 . S
H3742 C3719 0.950 . S
H3743 C3721 0.950 . S
C3744 C3745 1.349 . S
C3744 C3746 1.327 . S
C3744 H3769 0.950 . S
C3745 C3744 1.349 . S
C3745 C3761 1.349 . S
C3746 C3744 1.327 . S
C3746 C3765 1.429 . S
C3746 H3770 0.950 . S
C3747 C3764 1.574 . S
C3747 C3766 1.368 . S
C3747 H3771 0.949 . S
H3748 C3752 0.949 . S
C3749 C3750 1.349 . S
C3749 C3751 1.327 . S
C3749 H3772 0.950 . S
C3750 C3749 1.349 . S
C3750 C3762 1.349 . S
C3751 C3749 1.327 . S
C3751 C3767 1.429 . S
C3751 H3773 0.950 . S
C3752 H3748 0.949 . S
C3752 C3760 1.574 . S
C3752 C3768 1.368 . S
H3753 C3761 0.950 . S
H3754 C3759 0.950 . S
H3755 C3760 0.949 . S
H3756 C3762 0.950 . S
H3757 C3763 0.950 . S
H3758 C3764 0.949 . S
C3759 H3754 0.950 . S
C3759 C3761 1.327 . S
C3759 C3765 1.429 . S
C3760 C3752 1.574 . S
C3760 H3755 0.949 . S
C3760 C3766 1.368 . S
C3761 C3745 1.349 . S
C3761 H3753 0.950 . S
C3761 C3759 1.327 . S
C3762 C3750 1.349 . S
C3762 H3756 0.950 . S
C3762 C3763 1.327 . S
C3763 H3757 0.950 . S
C3763 C3762 1.327 . S
C3763 C3767 1.429 . S
C3764 C3747 1.574 . S
C3764 H3758 0.949 . S
C3764 C3768 1.368 . S
C3765 C3746 1.429 . S
C3765 C3759 1.429 . S
C3765 C3766 1.523 . S
C3766 C3747 1.368 . S
C3766 C3760 1.368 . S
C3766 C3765 1.523 . S
C3767 C3751 1.429 . S
C3767 C3763 1.429 . S
C3767 C3768 1.523 . S
C3768 C3752 1.368 . S
C3768 C3764 1.368 . S
C3768 C3767 1.523 . S
H3769 C3744 0.950 . S
H3770 C3746 0.950 . S
H3771 C3747 0.949 . S
H3772 C3749 0.950 . S
H3773 C3751 0.950 . S
C3774 C3775 1.349 . S
C3774 C3776 1.327 . S
C3774 H3799 0.950 . S
C3775 C3774 1.349 . S
C3775 C3791 1.349 . S
C3776 C3774 1.327 . S
C3776 C3795 1.429 . S
C3776 H3800 0.950 . S
C3777 C3794 1.574 . S
C3777 C3796 1.368 . S
C3777 H3801 0.949 . S
H3778 C3782 0.949 . S
C3779 C3780 1.349 . S
C3779 C3781 1.327 . S
C3779 H3802 0.950 . S
C3780 C3779 1.349 . S
C3780 C3792 1.349 . S
C3781 C3779 1.327 . S
C3781 C3797 1.429 . S
C3781 H3803 0.950 . S
C3782 H3778 0.949 . S
C3782 C3790 1.574 . S
C3782 C3798 1.368 . S
H3783 C3791 0.950 . S
H3784 C3789 0.950 . S
H3785 C3790 0.949 . S
H3786 C3792 0.950 . S
H3787 C3793 0.950 . S
H3788 C3794 0.949 . S
C3789 H3784 0.950 . S
C3789 C3791 1.327 . S
C3789 C3795 1.429 . S
C3790 C3782 1.574 . S
C3790 H3785 0.949 . S
C3790 C3796 1.368 . S
C3791 C3775 1.349 . S
C3791 H3783 0.950 . S
C3791 C3789 1.327 . S
C3792 C3780 1.349 . S
C3792 H3786 0.950 . S
C3792 C3793 1.327 . S
C3793 H3787 0.950 . S
C3793 C3792 1.327 . S
C3793 C3797 1.429 . S
C3794 C3777 1.574 . S
C3794 H3788 0.949 . S
C3794 C3798 1.368 . S
C3795 C3776 1.429 . S
C3795 C3789 1.429 . S
C3795 C3796 1.523 . S
C3796 C3777 1.368 . S
C3796 C3790 1.368 . S
C3796 C3795 1.523 . S
C3797 C3781 1.429 . S
C3797 C3793 1.429 . S
C3797 C3798 1.523 . S
C3798 C3782 1.368 . S
C3798 C3794 1.368 . S
C3798 C3797 1.523 . S
H3799 C3774 0.950 . S
H3800 C3776 0.950 . S
H3801 C3777 0.949 . S
H3802 C3779 0.950 . S
H3803 C3781 0.950 . S
C3804 C3805 1.349 . S
C3804 C3806 1.327 . S
C3804 H3829 0.950 . S
C3805 C3804 1.349 . S
C3805 C3821 1.349 . S
C3806 C3804 1.327 . S
C3806 C3825 1.429 . S
C3806 H3830 0.950 . S
C3807 C3824 1.574 . S
C3807 C3826 1.368 . S
C3807 H3831 0.949 . S
H3808 C3812 0.949 . S
C3809 C3810 1.349 . S
C3809 C3811 1.327 . S
C3809 H3832 0.950 . S
C3810 C3809 1.349 . S
C3810 C3822 1.349 . S
C3811 C3809 1.327 . S
C3811 C3827 1.429 . S
C3811 H3833 0.950 . S
C3812 H3808 0.949 . S
C3812 C3820 1.574 . S
C3812 C3828 1.368 . S
H3813 C3821 0.950 . S
H3814 C3819 0.950 . S
H3815 C3820 0.949 . S
H3816 C3822 0.950 . S
H3817 C3823 0.950 . S
H3818 C3824 0.949 . S
C3819 H3814 0.950 . S
C3819 C3821 1.327 . S
C3819 C3825 1.429 . S
C3820 C3812 1.574 . S
C3820 H3815 0.949 . S
C3820 C3826 1.368 . S
C3821 C3805 1.349 . S
C3821 H3813 0.950 . S
C3821 C3819 1.327 . S
C3822 C3810 1.349 . S
C3822 H3816 0.950 . S
C3822 C3823 1.327 . S
C3823 H3817 0.950 . S
C3823 C3822 1.327 . S
C3823 C3827 1.429 . S
C3824 C3807 1.574 . S
C3824 H3818 0.949 . S
C3824 C3828 1.368 . S
C3825 C3806 1.429 . S
C3825 C3819 1.429 . S
C3825 C3826 1.523 . S
C3826 C3807 1.368 . S
C3826 C3820 1.368 . S
C3826 C3825 1.523 . S
C3827 C3811 1.429 . S
C3827 C3823 1.429 . S
C3827 C3828 1.523 . S
C3828 C3812 1.368 . S
C3828 C3824 1.368 . S
C3828 C3827 1.523 . S
H3829 C3804 0.950 . S
H3830 C3806 0.950 . S
H3831 C3807 0.949 . S
H3832 C3809 0.950 . S
H3833 C3811 0.950 . S
C3834 C3835 1.349 . S
C3834 C3836 1.327 . S
C3834 H3859 0.950 . S
C3835 C3834 1.349 . S
C3835 C3851 1.349 . S
C3836 C3834 1.327 . S
C3836 C3855 1.429 . S
C3836 H3860 0.950 . S
C3837 C3854 1.574 . S
C3837 C3856 1.368 . S
C3837 H3861 0.949 . S
H3838 C3842 0.949 . S
C3839 C3840 1.349 . S
C3839 C3841 1.327 . S
C3839 H3862 0.950 . S
C3840 C3839 1.349 . S
C3840 C3852 1.349 . S
C3841 C3839 1.327 . S
C3841 C3857 1.429 . S
C3841 H3863 0.950 . S
C3842 H3838 0.949 . S
C3842 C3850 1.574 . S
C3842 C3858 1.368 . S
H3843 C3851 0.950 . S
H3844 C3849 0.950 . S
H3845 C3850 0.949 . S
H3846 C3852 0.950 . S
H3847 C3853 0.950 . S
H3848 C3854 0.949 . S
C3849 H3844 0.950 . S
C3849 C3851 1.327 . S
C3849 C3855 1.429 . S
C3850 C3842 1.574 . S
C3850 H3845 0.949 . S
C3850 C3856 1.368 . S
C3851 C3835 1.349 . S
C3851 H3843 0.950 . S
C3851 C3849 1.327 . S
C3852 C3840 1.349 . S
C3852 H3846 0.950 . S
C3852 C3853 1.327 . S
C3853 H3847 0.950 . S
C3853 C3852 1.327 . S
C3853 C3857 1.429 . S
C3854 C3837 1.574 . S
C3854 H3848 0.949 . S
C3854 C3858 1.368 . S
C3855 C3836 1.429 . S
C3855 C3849 1.429 . S
C3855 C3856 1.523 . S
C3856 C3837 1.368 . S
C3856 C3850 1.368 . S
C3856 C3855 1.523 . S
C3857 C3841 1.429 . S
C3857 C3853 1.429 . S
C3857 C3858 1.523 . S
C3858 C3842 1.368 . S
C3858 C3854 1.368 . S
C3858 C3857 1.523 . S
H3859 C3834 0.950 . S
H3860 C3836 0.950 . S
H3861 C3837 0.949 . S
H3862 C3839 0.950 . S
H3863 C3841 0.950 . S
C3864 C3865 1.349 . S
C3864 C3866 1.327 . S
C3864 H3889 0.950 . S
C3865 C3864 1.349 . S
C3865 C3881 1.349 . S
C3866 C3864 1.327 . S
C3866 C3885 1.429 . S
C3866 H3890 0.950 . S
C3867 C3884 1.574 . S
C3867 C3886 1.368 . S
C3867 H3891 0.949 . S
H3868 C3872 0.949 . S
C3869 C3870 1.349 . S
C3869 C3871 1.327 . S
C3869 H3892 0.950 . S
C3870 C3869 1.349 . S
C3870 C3882 1.349 . S
C3871 C3869 1.327 . S
C3871 C3887 1.429 . S
C3871 H3893 0.950 . S
C3872 H3868 0.949 . S
C3872 C3880 1.574 . S
C3872 C3888 1.368 . S
H3873 C3881 0.950 . S
H3874 C3879 0.950 . S
H3875 C3880 0.949 . S
H3876 C3882 0.950 . S
H3877 C3883 0.950 . S
H3878 C3884 0.949 . S
C3879 H3874 0.950 . S
C3879 C3881 1.327 . S
C3879 C3885 1.429 . S
C3880 C3872 1.574 . S
C3880 H3875 0.949 . S
C3880 C3886 1.368 . S
C3881 C3865 1.349 . S
C3881 H3873 0.950 . S
C3881 C3879 1.327 . S
C3882 C3870 1.349 . S
C3882 H3876 0.950 . S
C3882 C3883 1.327 . S
C3883 H3877 0.950 . S
C3883 C3882 1.327 . S
C3883 C3887 1.429 . S
C3884 C3867 1.574 . S
C3884 H3878 0.949 . S
C3884 C3888 1.368 . S
C3885 C3866 1.429 . S
C3885 C3879 1.429 . S
C3885 C3886 1.523 . S
C3886 C3867 1.368 . S
C3886 C3880 1.368 . S
C3886 C3885 1.523 . S
C3887 C3871 1.429 . S
C3887 C3883 1.429 . S
C3887 C3888 1.523 . S
C3888 C3872 1.368 . S
C3888 C3884 1.368 . S
C3888 C3887 1.523 . S
H3889 C3864 0.950 . S
H3890 C3866 0.950 . S
H3891 C3867 0.949 . S
H3892 C3869 0.950 . S
H3893 C3871 0.950 . S
C3894 C3895 1.349 . S
C3894 C3896 1.327 . S
C3894 H3919 0.950 . S
C3895 C3894 1.349 . S
C3895 C3911 1.349 . S
C3896 C3894 1.327 . S
C3896 C3915 1.429 . S
C3896 H3920 0.950 . S
C3897 C3914 1.574 . S
C3897 C3916 1.368 . S
C3897 H3921 0.949 . S
H3898 C3902 0.949 . S
C3899 C3900 1.349 . S
C3899 C3901 1.327 . S
C3899 H3922 0.950 . S
C3900 C3899 1.349 . S
C3900 C3912 1.349 . S
C3901 C3899 1.327 . S
C3901 C3917 1.429 . S
C3901 H3923 0.950 . S
C3902 H3898 0.949 . S
C3902 C3910 1.574 . S
C3902 C3918 1.368 . S
H3903 C3911 0.950 . S
H3904 C3909 0.950 . S
H3905 C3910 0.949 . S
H3906 C3912 0.950 . S
H3907 C3913 0.950 . S
H3908 C3914 0.949 . S
C3909 H3904 0.950 . S
C3909 C3911 1.327 . S
C3909 C3915 1.429 . S
C3910 C3902 1.574 . S
C3910 H3905 0.949 . S
C3910 C3916 1.368 . S
C3911 C3895 1.349 . S
C3911 H3903 0.950 . S
C3911 C3909 1.327 . S
C3912 C3900 1.349 . S
C3912 H3906 0.950 . S
C3912 C3913 1.327 . S
C3913 H3907 0.950 . S
C3913 C3912 1.327 . S
C3913 C3917 1.429 . S
C3914 C3897 1.574 . S
C3914 H3908 0.949 . S
C3914 C3918 1.368 . S
C3915 C3896 1.429 . S
C3915 C3909 1.429 . S
C3915 C3916 1.523 . S
C3916 C3897 1.368 . S
C3916 C3910 1.368 . S
C3916 C3915 1.523 . S
C3917 C3901 1.429 . S
C3917 C3913 1.429 . S
C3917 C3918 1.523 . S
C3918 C3902 1.368 . S
C3918 C3914 1.368 . S
C3918 C3917 1.523 . S
H3919 C3894 0.950 . S
H3920 C3896 0.950 . S
H3921 C3897 0.949 . S
H3922 C3899 0.950 . S
H3923 C3901 0.950 . S
C3924 C3925 1.349 . S
C3924 C3926 1.327 . S
C3924 H3949 0.950 . S
C3925 C3924 1.349 . S
C3925 C3941 1.349 . S
C3926 C3924 1.327 . S
C3926 C3945 1.429 . S
C3926 H3950 0.950 . S
C3927 C3944 1.574 . S
C3927 C3946 1.368 . S
C3927 H3951 0.949 . S
H3928 C3932 0.949 . S
C3929 C3930 1.349 . S
C3929 C3931 1.327 . S
C3929 H3952 0.950 . S
C3930 C3929 1.349 . S
C3930 C3942 1.349 . S
C3931 C3929 1.327 . S
C3931 C3947 1.429 . S
C3931 H3953 0.950 . S
C3932 H3928 0.949 . S
C3932 C3940 1.574 . S
C3932 C3948 1.368 . S
H3933 C3941 0.950 . S
H3934 C3939 0.950 . S
H3935 C3940 0.949 . S
H3936 C3942 0.950 . S
H3937 C3943 0.950 . S
H3938 C3944 0.949 . S
C3939 H3934 0.950 . S
C3939 C3941 1.327 . S
C3939 C3945 1.429 . S
C3940 C3932 1.574 . S
C3940 H3935 0.949 . S
C3940 C3946 1.368 . S
C3941 C3925 1.349 . S
C3941 H3933 0.950 . S
C3941 C3939 1.327 . S
C3942 C3930 1.349 . S
C3942 H3936 0.950 . S
C3942 C3943 1.327 . S
C3943 H3937 0.950 . S
C3943 C3942 1.327 . S
C3943 C3947 1.429 . S
C3944 C3927 1.574 . S
C3944 H3938 0.949 . S
C3944 C3948 1.368 . S
C3945 C3926 1.429 . S
C3945 C3939 1.429 . S
C3945 C3946 1.523 . S
C3946 C3927 1.368 . S
C3946 C3940 1.368 . S
C3946 C3945 1.523 . S
C3947 C3931 1.429 . S
C3947 C3943 1.429 . S
C3947 C3948 1.523 . S
C3948 C3932 1.368 . S
C3948 C3944 1.368 . S
C3948 C3947 1.523 . S
H3949 C3924 0.950 . S
H3950 C3926 0.950 . S
H3951 C3927 0.949 . S
H3952 C3929 0.950 . S
H3953 C3931 0.950 . S
C3954 C3955 1.349 . S
C3954 C3956 1.327 . S
C3954 H3979 0.950 . S
C3955 C3954 1.349 . S
C3955 C3971 1.349 . S
C3956 C3954 1.327 . S
C3956 C3975 1.429 . S
C3956 H3980 0.950 . S
C3957 C3974 1.574 . S
C3957 C3976 1.368 . S
C3957 H3981 0.949 . S
H3958 C3962 0.949 . S
C3959 C3960 1.349 . S
C3959 C3961 1.327 . S
C3959 H3982 0.950 . S
C3960 C3959 1.349 . S
C3960 C3972 1.349 . S
C3961 C3959 1.327 . S
C3961 C3977 1.429 . S
C3961 H3983 0.950 . S
C3962 H3958 0.949 . S
C3962 C3970 1.574 . S
C3962 C3978 1.368 . S
H3963 C3971 0.950 . S
H3964 C3969 0.950 . S
H3965 C3970 0.949 . S
H3966 C3972 0.950 . S
H3967 C3973 0.950 . S
H3968 C3974 0.949 . S
C3969 H3964 0.950 . S
C3969 C3971 1.327 . S
C3969 C3975 1.429 . S
C3970 C3962 1.574 . S
C3970 H3965 0.949 . S
C3970 C3976 1.368 . S
C3971 C3955 1.349 . S
C3971 H3963 0.950 . S
C3971 C3969 1.327 . S
C3972 C3960 1.349 . S
C3972 H3966 0.950 . S
C3972 C3973 1.327 . S
C3973 H3967 0.950 . S
C3973 C3972 1.327 . S
C3973 C3977 1.429 . S
C3974 C3957 1.574 . S
C3974 H3968 0.949 . S
C3974 C3978 1.368 . S
C3975 C3956 1.429 . S
C3975 C3969 1.429 . S
C3975 C3976 1.523 . S
C3976 C3957 1.368 . S
C3976 C3970 1.368 . S
C3976 C3975 1.523 . S
C3977 C3961 1.429 . S
C3977 C3973 1.429 . S
C3977 C3978 1.523 . S
C3978 C3962 1.368 . S
C3978 C3974 1.368 . S
C3978 C3977 1.523 . S
H3979 C3954 0.950 . S
H3980 C3956 0.950 . S
H3981 C3957 0.949 . S
H3982 C3959 0.950 . S
H3983 C3961 0.950 . S
C3984 C3985 1.349 . S
C3984 C3986 1.327 . S
C3984 H4009 0.950 . S
C3985 C3984 1.349 . S
C3985 C4001 1.349 . S
C3986 C3984 1.327 . S
C3986 C4005 1.429 . S
C3986 H4010 0.950 . S
C3987 C4004 1.574 . S
C3987 C4006 1.368 . S
C3987 H4011 0.949 . S
H3988 C3992 0.949 . S
C3989 C3990 1.349 . S
C3989 C3991 1.327 . S
C3989 H4012 0.950 . S
C3990 C3989 1.349 . S
C3990 C4002 1.349 . S
C3991 C3989 1.327 . S
C3991 C4007 1.429 . S
C3991 H4013 0.950 . S
C3992 H3988 0.949 . S
C3992 C4000 1.574 . S
C3992 C4008 1.368 . S
H3993 C4001 0.950 . S
H3994 C3999 0.950 . S
H3995 C4000 0.949 . S
H3996 C4002 0.950 . S
H3997 C4003 0.950 . S
H3998 C4004 0.949 . S
C3999 H3994 0.950 . S
C3999 C4001 1.327 . S
C3999 C4005 1.429 . S
C4000 C3992 1.574 . S
C4000 H3995 0.949 . S
C4000 C4006 1.368 . S
C4001 C3985 1.349 . S
C4001 H3993 0.950 . S
C4001 C3999 1.327 . S
C4002 C3990 1.349 . S
C4002 H3996 0.950 . S
C4002 C4003 1.327 . S
C4003 H3997 0.950 . S
C4003 C4002 1.327 . S
C4003 C4007 1.429 . S
C4004 C3987 1.574 . S
C4004 H3998 0.949 . S
C4004 C4008 1.368 . S
C4005 C3986 1.429 . S
C4005 C3999 1.429 . S
C4005 C4006 1.523 . S
C4006 C3987 1.368 . S
C4006 C4000 1.368 . S
C4006 C4005 1.523 . S
C4007 C3991 1.429 . S
C4007 C4003 1.429 . S
C4007 C4008 1.523 . S
C4008 C3992 1.368 . S
C4008 C4004 1.368 . S
C4008 C4007 1.523 . S
H4009 C3984 0.950 . S
H4010 C3986 0.950 . S
H4011 C3987 0.949 . S
H4012 C3989 0.950 . S
H4013 C3991 0.950 . S
C4014 C4015 1.349 . S
C4014 C4016 1.327 . S
C4014 H4039 0.950 . S
C4015 C4014 1.349 . S
C4015 C4031 1.349 . S
C4016 C4014 1.327 . S
C4016 C4035 1.429 . S
C4016 H4040 0.950 . S
C4017 C4034 1.574 . S
C4017 C4036 1.368 . S
C4017 H4041 0.949 . S
H4018 C4022 0.949 . S
C4019 C4020 1.349 . S
C4019 C4021 1.327 . S
C4019 H4042 0.950 . S
C4020 C4019 1.349 . S
C4020 C4032 1.349 . S
C4021 C4019 1.327 . S
C4021 C4037 1.429 . S
C4021 H4043 0.950 . S
C4022 H4018 0.949 . S
C4022 C4030 1.574 . S
C4022 C4038 1.368 . S
H4023 C4031 0.950 . S
H4024 C4029 0.950 . S
H4025 C4030 0.949 . S
H4026 C4032 0.950 . S
H4027 C4033 0.950 . S
H4028 C4034 0.949 . S
C4029 H4024 0.950 . S
C4029 C4031 1.327 . S
C4029 C4035 1.429 . S
C4030 C4022 1.574 . S
C4030 H4025 0.949 . S
C4030 C4036 1.368 . S
C4031 C4015 1.349 . S
C4031 H4023 0.950 . S
C4031 C4029 1.327 . S
C4032 C4020 1.349 . S
C4032 H4026 0.950 . S
C4032 C4033 1.327 . S
C4033 H4027 0.950 . S
C4033 C4032 1.327 . S
C4033 C4037 1.429 . S
C4034 C4017 1.574 . S
C4034 H4028 0.949 . S
C4034 C4038 1.368 . S
C4035 C4016 1.429 . S
C4035 C4029 1.429 . S
C4035 C4036 1.523 . S
C4036 C4017 1.368 . S
C4036 C4030 1.368 . S
C4036 C4035 1.523 . S
C4037 C4021 1.429 . S
C4037 C4033 1.429 . S
C4037 C4038 1.523 . S
C4038 C4022 1.368 . S
C4038 C4034 1.368 . S
C4038 C4037 1.523 . S
H4039 C4014 0.950 . S
H4040 C4016 0.950 . S
H4041 C4017 0.949 . S
H4042 C4019 0.950 . S
H4043 C4021 0.950 . S
C4044 C4045 1.349 . S
C4044 C4046 1.327 . S
C4044 H4069 0.950 . S
C4045 C4044 1.349 . S
C4045 C4061 1.349 . S
C4046 C4044 1.327 . S
C4046 C4065 1.429 . S
C4046 H4070 0.950 . S
C4047 C4064 1.574 . S
C4047 C4066 1.368 . S
C4047 H4071 0.949 . S
H4048 C4052 0.949 . S
C4049 C4050 1.349 . S
C4049 C4051 1.327 . S
C4049 H4072 0.950 . S
C4050 C4049 1.349 . S
C4050 C4062 1.349 . S
C4051 C4049 1.327 . S
C4051 C4067 1.429 . S
C4051 H4073 0.950 . S
C4052 H4048 0.949 . S
C4052 C4060 1.574 . S
C4052 C4068 1.368 . S
H4053 C4061 0.950 . S
H4054 C4059 0.950 . S
H4055 C4060 0.949 . S
H4056 C4062 0.950 . S
H4057 C4063 0.950 . S
H4058 C4064 0.949 . S
C4059 H4054 0.950 . S
C4059 C4061 1.327 . S
C4059 C4065 1.429 . S
C4060 C4052 1.574 . S
C4060 H4055 0.949 . S
C4060 C4066 1.368 . S
C4061 C4045 1.349 . S
C4061 H4053 0.950 . S
C4061 C4059 1.327 . S
C4062 C4050 1.349 . S
C4062 H4056 0.950 . S
C4062 C4063 1.327 . S
C4063 H4057 0.950 . S
C4063 C4062 1.327 . S
C4063 C4067 1.429 . S
C4064 C4047 1.574 . S
C4064 H4058 0.949 . S
C4064 C4068 1.368 . S
C4065 C4046 1.429 . S
C4065 C4059 1.429 . S
C4065 C4066 1.523 . S
C4066 C4047 1.368 . S
C4066 C4060 1.368 . S
C4066 C4065 1.523 . S
C4067 C4051 1.429 . S
C4067 C4063 1.429 . S
C4067 C4068 1.523 . S
C4068 C4052 1.368 . S
C4068 C4064 1.368 . S
C4068 C4067 1.523 . S
H4069 C4044 0.950 . S
H4070 C4046 0.950 . S
H4071 C4047 0.949 . S
H4072 C4049 0.950 . S
H4073 C4051 0.950 . S
C4074 C4075 1.349 . S
C4074 C4076 1.327 . S
C4074 H4099 0.966 . S
C4075 C4074 1.349 . S
C4075 C4091 1.349 . S
C4076 C4074 1.327 . S
C4076 C4095 1.429 . S
C4076 H4100 0.950 1_554 S
C4077 C4094 1.574 . S
C4077 C4096 1.368 . S
C4077 H4101 0.949 . S
H4078 C4082 0.949 1_556 S
C4079 C4080 1.349 . S
C4079 C4081 1.327 . S
C4079 H4102 0.950 . S
C4080 C4079 1.349 . S
C4080 C4092 1.349 1_545 S
C4081 C4079 1.327 . S
C4081 C4097 1.429 1_545 S
C4081 H4103 0.950 . S
C4082 H4078 0.949 1_554 S
C4082 C4090 1.574 . S
C4082 C4098 1.368 . S
H4083 C4091 0.950 . S
H4084 C4089 0.950 . S
H4085 C4090 0.949 1_556 S
H4086 C4092 0.950 1_556 S
H4087 C4093 0.950 1_556 S
H4088 C4094 1.000 . S
C4089 H4084 0.950 . S
C4089 C4091 1.327 . S
C4089 C4095 1.429 . S
C4090 C4082 1.574 . S
C4090 H4085 0.949 1_554 S
C4090 C4096 1.368 . S
C4091 C4075 1.349 . S
C4091 H4083 0.950 . S
C4091 C4089 1.327 . S
C4092 C4080 1.349 1_565 S
C4092 H4086 0.950 1_554 S
C4092 C4093 1.327 . S
C4093 H4087 0.950 1_554 S
C4093 C4092 1.327 . S
C4093 C4097 1.429 . S
C4094 C4077 1.574 . S
C4094 H4088 1.000 . S
C4094 C4098 1.368 . S
C4095 C4076 1.429 . S
C4095 C4089 1.429 . S
C4095 C4096 1.523 . S
C4096 C4077 1.368 . S
C4096 C4090 1.368 . S
C4096 C4095 1.523 . S
C4097 C4081 1.429 1_565 S
C4097 C4093 1.429 . S
C4097 C4098 1.523 . S
C4098 C4082 1.368 . S
C4098 C4094 1.368 . S
C4098 C4097 1.523 . S
H4099 C4074 0.966 . S
H4100 C4076 0.950 1_556 S
H4101 C4077 0.949 . S
H4102 C4079 0.950 . S
H4103 C4081 0.950 . S
C4104 C4105 1.349 . S
C4104 C4106 1.327 . S
C4104 H4129 0.950 . S
C4105 C4104 1.349 . S
C4105 C4121 1.349 . S
C4106 C4104 1.327 . S
C4106 C4125 1.429 . S
C4106 H4130 0.950 . S
C4107 C4124 1.574 . S
C4107 C4126 1.368 . S
C4107 H4131 0.949 . S
H4108 C4112 0.949 . S
C4109 C4110 1.349 . S
C4109 C4111 1.327 . S
C4109 H4132 0.950 . S
C4110 C4109 1.349 . S
C4110 C4122 1.349 . S
C4111 C4109 1.327 . S
C4111 C4127 1.429 . S
C4111 H4133 0.950 . S
C4112 H4108 0.949 . S
C4112 C4120 1.574 . S
C4112 C4128 1.368 . S
H4113 C4121 0.950 . S
H4114 C4119 0.950 . S
H4115 C4120 0.949 . S
H4116 C4122 0.950 . S
H4117 C4123 0.950 . S
H4118 C4124 0.949 . S
C4119 H4114 0.950 . S
C4119 C4121 1.327 . S
C4119 C4125 1.429 . S
C4120 C4112 1.574 . S
C4120 H4115 0.949 . S
C4120 C4126 1.368 . S
C4121 C4105 1.349 . S
C4121 H4113 0.950 . S
C4121 C4119 1.327 . S
C4122 C4110 1.349 . S
C4122 H4116 0.950 . S
C4122 C4123 1.327 . S
C4123 H4117 0.950 . S
C4123 C4122 1.327 . S
C4123 C4127 1.429 . S
C4124 C4107 1.574 . S
C4124 H4118 0.949 . S
C4124 C4128 1.368 . S
C4125 C4106 1.429 . S
C4125 C4119 1.429 . S
C4125 C4126 1.523 . S
C4126 C4107 1.368 . S
C4126 C4120 1.368 . S
C4126 C4125 1.523 . S
C4127 C4111 1.429 . S
C4127 C4123 1.429 . S
C4127 C4128 1.523 . S
C4128 C4112 1.368 . S
C4128 C4124 1.368 . S
C4128 C4127 1.523 . S
H4129 C4104 0.950 . S
H4130 C4106 0.950 . S
H4131 C4107 0.949 . S
H4132 C4109 0.950 . S
H4133 C4111 0.950 . S
C4134 C4135 1.349 . S
C4134 C4136 1.327 . S
C4134 H4159 0.950 . S
C4135 C4134 1.349 . S
C4135 C4151 1.349 1_554 S
C4136 C4134 1.327 . S
C4136 C4155 1.429 . S
C4136 H4160 0.950 . S
C4137 C4154 1.574 . S
C4137 C4156 1.368 . S
C4137 H4161 0.949 1_554 S
H4138 C4142 0.949 . S
C4139 C4140 1.349 . S
C4139 C4141 1.327 . S
C4139 H4162 0.950 . S
C4140 C4139 1.349 . S
C4140 C4152 1.349 . S
C4141 C4139 1.327 . S
C4141 C4157 1.429 . S
C4141 H4163 0.950 . S
C4142 H4138 0.949 . S
C4142 C4150 1.574 . S
C4142 C4158 1.368 . S
H4143 C4151 0.950 . S
H4144 C4149 0.950 . S
H4145 C4150 0.949 . S
H4146 C4152 0.950 . S
H4147 C4153 0.950 . S
H4148 C4154 0.949 . S
C4149 H4144 0.950 . S
C4149 C4151 1.327 . S
C4149 C4155 1.429 1_556 S
C4150 C4142 1.574 . S
C4150 H4145 0.949 . S
C4150 C4156 1.368 . S
C4151 C4135 1.349 1_556 S
C4151 H4143 0.950 . S
C4151 C4149 1.327 . S
C4152 C4140 1.349 . S
C4152 H4146 0.950 . S
C4152 C4153 1.327 . S
C4153 H4147 0.950 . S
C4153 C4152 1.327 . S
C4153 C4157 1.429 . S
C4154 C4137 1.574 . S
C4154 H4148 0.949 . S
C4154 C4158 1.368 . S
C4155 C4136 1.429 . S
C4155 C4149 1.429 1_554 S
C4155 C4156 1.523 . S
C4156 C4137 1.368 . S
C4156 C4150 1.368 . S
C4156 C4155 1.523 . S
C4157 C4141 1.429 . S
C4157 C4153 1.429 . S
C4157 C4158 1.523 . S
C4158 C4142 1.368 . S
C4158 C4154 1.368 . S
C4158 C4157 1.523 . S
H4159 C4134 0.950 . S
H4160 C4136 0.950 . S
H4161 C4137 0.949 1_556 S
H4162 C4139 0.950 . S
H4163 C4141 0.950 . S
C4164 C4165 1.349 . S
C4164 C4166 1.327 . S
C4164 H4189 0.950 . S
C4165 C4164 1.349 . S
C4165 C4181 1.349 . S
C4166 C4164 1.327 . S
C4166 C4185 1.429 . S
C4166 H4190 0.950 . S
C4167 C4184 1.574 . S
C4167 C4186 1.368 . S
C4167 H4191 0.949 . S
H4168 C4172 0.949 . S
C4169 C4170 1.349 . S
C4169 C4171 1.327 . S
C4169 H4192 0.950 . S
C4170 C4169 1.349 . S
C4170 C4182 1.349 . S
C4171 C4169 1.327 . S
C4171 C4187 1.429 . S
C4171 H4193 0.950 . S
C4172 H4168 0.949 . S
C4172 C4180 1.574 . S
C4172 C4188 1.368 . S
H4173 C4181 0.950 . S
H4174 C4179 0.950 . S
H4175 C4180 0.949 . S
H4176 C4182 0.950 . S
H4177 C4183 0.950 . S
H4178 C4184 0.949 . S
C4179 H4174 0.950 . S
C4179 C4181 1.327 . S
C4179 C4185 1.429 . S
C4180 C4172 1.574 . S
C4180 H4175 0.949 . S
C4180 C4186 1.368 . S
C4181 C4165 1.349 . S
C4181 H4173 0.950 . S
C4181 C4179 1.327 . S
C4182 C4170 1.349 . S
C4182 H4176 0.950 . S
C4182 C4183 1.327 . S
C4183 H4177 0.950 . S
C4183 C4182 1.327 . S
C4183 C4187 1.429 . S
C4184 C4167 1.574 . S
C4184 H4178 0.949 . S
C4184 C4188 1.368 . S
C4185 C4166 1.429 . S
C4185 C4179 1.429 . S
C4185 C4186 1.523 . S
C4186 C4167 1.368 . S
C4186 C4180 1.368 . S
C4186 C4185 1.523 . S
C4187 C4171 1.429 . S
C4187 C4183 1.429 . S
C4187 C4188 1.523 . S
C4188 C4172 1.368 . S
C4188 C4184 1.368 . S
C4188 C4187 1.523 . S
H4189 C4164 0.950 . S
H4190 C4166 0.950 . S
H4191 C4167 0.949 . S
H4192 C4169 0.950 . S
H4193 C4171 0.950 . S
C4194 C4195 1.349 . S
C4194 C4196 1.327 . S
C4194 H4219 0.950 . S
C4195 C4194 1.349 . S
C4195 C4211 1.349 . S
C4196 C4194 1.327 . S
C4196 C4215 1.429 . S
C4196 H4220 0.950 . S
C4197 C4214 1.574 . S
C4197 C4216 1.368 . S
C4197 H4221 0.949 . S
H4198 C4202 0.949 . S
C4199 C4200 1.349 . S
C4199 C4201 1.327 . S
C4199 H4222 0.950 . S
C4200 C4199 1.349 . S
C4200 C4212 1.349 . S
C4201 C4199 1.327 . S
C4201 C4217 1.429 . S
C4201 H4223 0.950 . S
C4202 H4198 0.949 . S
C4202 C4210 1.574 . S
C4202 C4218 1.368 . S
H4203 C4211 0.950 . S
H4204 C4209 0.950 . S
H4205 C4210 0.949 . S
H4206 C4212 0.950 . S
H4207 C4213 0.950 . S
H4208 C4214 0.949 . S
C4209 H4204 0.950 . S
C4209 C4211 1.327 . S
C4209 C4215 1.429 . S
C4210 C4202 1.574 . S
C4210 H4205 0.949 . S
C4210 C4216 1.368 . S
C4211 C4195 1.349 . S
C4211 H4203 0.950 . S
C4211 C4209 1.327 . S
C4212 C4200 1.349 . S
C4212 H4206 0.950 . S
C4212 C4213 1.327 . S
C4213 H4207 0.950 . S
C4213 C4212 1.327 . S
C4213 C4217 1.429 . S
C4214 C4197 1.574 . S
C4214 H4208 0.949 . S
C4214 C4218 1.368 . S
C4215 C4196 1.429 . S
C4215 C4209 1.429 . S
C4215 C4216 1.523 . S
C4216 C4197 1.368 . S
C4216 C4210 1.368 . S
C4216 C4215 1.523 . S
C4217 C4201 1.429 . S
C4217 C4213 1.429 . S
C4217 C4218 1.523 . S
C4218 C4202 1.368 . S
C4218 C4214 1.368 . S
C4218 C4217 1.523 . S
H4219 C4194 0.950 . S
H4220 C4196 0.950 . S
H4221 C4197 0.949 . S
H4222 C4199 0.950 . S
H4223 C4201 0.950 . S
C1350 C865 1.653 . S
C1345 C2 1.668 . S
C1375 C39 0.776 . S
C1380 C910 0.776 . S
C1405 C86 1.444 . S
C1410 C934 1.459 . S
C1440 N960 0.808 . S
C1435 C112 0.806 . S
C1465 C38 0.947 . S
C1470 N990 0.954 . S
C1500 C1024 1.376 . S
C1495 C76 1.394 . S
C1530 C1060 0.980 1_556 S
C1525 C122 0.955 . S
C1555 C3 1.608 . S
C1560 C1084 1.588 . S
C1585 C147 0.818 . S
C1590 N878 0.818 . S
C1615 C184 0.900 . S
C1620 N900 0.905 . S
C1650 C940 0.893 . S
C1645 C219 0.895 . S
C1680 C964 1.668 . S
C1675 C256 1.690 . S
C1705 C148 1.088 . S
C1710 C994 1.072 . S
C1740 C1030 0.946 . S
C1735 C183 0.948 . S
C1770 N1050 0.926 . S
C1765 C220 0.921 . S
C1800 C1090 1.556 . S
C1795 C255 1.568 . S
C1830 C891 1.571 . S
C1825 C254 1.573 . S
C1860 C1120 0.881 . S
C1855 C302 0.866 . S
C1885 C326 0.962 . S
C1890 N1140 0.968 . S
C1920 C1174 1.496 . S
C1915 C374 1.486 . S
C1945 C146 0.805 . S
C1950 N1080 0.806 . S
C1980 N930 0.935 1_565 S
C1975 C182 0.929 . S
C2005 C338 0.900 . S
C2010 C1210 0.917 . S
C2040 C1234 0.903 . S
C2035 C410 0.906 . S
C2065 C434 1.724 . S
C2070 C874 1.708 1_556 S
C2100 C1251 0.832 . S
C2095 C472 0.840 . S
C2125 C507 1.522 . S
C2130 C925 1.500 . S
C2155 C543 0.850 . S
C2160 N1208 0.851 . S
C2190 N998 0.988 . S
C2185 C470 0.985 . S
C2220 C1135 1.512 . S
C2215 C518 1.481 . S
C2250 C1071 1.025 . S
C2245 C554 1.008 . S
C2280 C1255 1.562 . S
C2275 C436 1.588 . S
C2310 N870 0.854 . S
C2305 C580 0.854 . S
C2335 C615 0.955 . S
C2340 N1238 0.956 . S
C2370 C951 0.913 . S
C2365 C652 0.915 . S
C2395 C687 1.743 . S
C2400 C1195 1.715 . S
C2425 C579 1.146 . S
C2430 C985 1.124 1_655 S
C2455 C616 1.017 . S
C2460 C1161 1.015 . S
C2490 N1058 0.951 . S
C2485 C651 0.951 . S
C2515 C688 1.612 . S
C2520 C1281 1.598 . S
C2545 C686 1.618 . S
C2550 C880 1.614 . S
C2575 C734 0.950 . S
C2580 C1131 0.942 . S
C2605 C758 0.983 . S
C2610 N1028 0.989 . S
C2635 C806 1.526 . S
C2640 C1165 1.554 . S
C2670 N1268 0.826 . S
C2665 C578 0.825 . S
C2700 N938 0.995 . S
C2695 C614 0.989 . S
C2730 C981 0.969 . S
C2725 C770 0.954 . S
C2760 C895 0.934 . S
C2755 C842 0.918 . S
C2785 C74 1.596 . S
C2790 C1285 1.579 . S
C2820 C1240 0.777 . S
C2815 C111 0.777 . S
C2850 C1324 1.530 . S
C2845 C14 1.515 . S
C2875 C40 0.786 1_655 S
C2880 N1200 0.808 . S
C2905 C110 0.948 . S
C2910 N1110 0.987 . S
C2940 C1144 1.445 . S
C2935 C4 1.464 . S
C2970 C1180 0.977 . S
C2965 C50 0.955 . S
C3000 C1264 1.516 . S
C2995 C75 1.535 . S
C3030 N1298 0.812 . S
C3025 C399 0.813 . S
C3055 C292 0.901 1_556 S
C3060 N1230 0.906 . S
C3085 C327 0.882 . S
C3090 C1330 0.880 1_655 S
C3120 C1204 1.665 . S
C3115 C364 1.687 . S
C3150 C1114 1.069 . S
C3145 C400 1.085 . S
C3175 C291 0.936 . S
C3180 C1150 0.933 . S
C3210 N1170 0.926 . S
C3205 C328 0.921 . S
C3235 C363 1.565 . S
C3240 C1270 1.554 . S
C3270 C1311 1.555 . S
C3265 C362 1.555 . S
C3300 C1000 0.890 . S
C3295 C194 0.874 . S
C3330 N1020 0.944 . S
C3325 C218 0.938 . S
C3355 C266 1.469 . S
C3360 C1054 1.479 . S
C3390 N1260 0.788 . S
C3385 C398 0.787 . S
C3415 C290 0.952 . S
C3420 N1320 0.958 . S
C3450 C970 0.925 . S
C3445 C230 0.907 . S
C3480 C904 0.886 . S
C3475 C158 0.888 . S
C3505 C508 1.612 . S
C3510 C1294 1.588 . S
C3540 C921 0.837 . S
C3535 C544 0.839 . S
C3570 C1315 1.581 1_556 S
C3565 C446 1.552 . S
C3595 C471 0.853 . S
C3600 N968 0.849 . S
C3625 C542 0.979 . S
C3630 N1118 0.985 . S
C3655 C435 1.453 . S
C3660 C1015 1.431 . S
C3685 C482 1.002 . S
C3690 C1191 1.018 . S
C3715 C506 1.698 . S
C3720 C1075 1.677 . S
C3750 N1290 0.836 . S
C3745 C832 0.836 . S
C3775 C723 0.939 . S
C3780 N908 0.934 . S
C3810 C1341 0.936 . S
C3805 C760 0.938 . S
C3835 C795 1.750 . S
C3840 C955 1.722 . S
C3865 C831 1.137 . S
C3870 C1105 1.115 . S
C3900 C1041 0.992 . S
C3895 C724 1.000 . S
C3925 C759 0.967 . S
C3930 N1178 0.967 . S
C3960 C1101 1.625 . S
C3955 C796 1.637 . S
C3990 C1300 1.610 . S
C3985 C794 1.617 . S
C4020 C1011 0.959 . S
C4015 C626 0.946 . S
C4045 C650 0.976 . S
C4050 N1148 0.982 . S
C4080 C1045 1.538 . S
C4075 C698 1.510 . S
C4110 N1088 0.829 . S
C4105 C830 0.828 . S
C4135 C722 0.986 . S
C4140 N1328 0.986 . S
C4170 C1221 0.952 . S
C4165 C662 0.938 . S
C4200 C1225 0.950 . S
C4195 C590 0.932 . S
